drugbank_target|P0AGG2 Acyl-CoA thioesterase 2 (DB04147)
 OpenBabel12092120033D

  0  0  0     0  0            999 V3000
M  V30 BEGIN CTAB
M  V30 COUNTS 4482 4543 0 0 0
M  V30 BEGIN ATOM
M  V30 1 H -0.908 1.98254 -0.117106 0
M  V30 2 N 0 1.576 0 0
M  V30 3 C 0.933 2.03868 1.02534 0
M  V30 4 C 1.911 0.928543 1.3348 0
M  V30 5 O 3.095 1.19667 1.45644 0
M  V30 6 C 0.222 2.43627 2.35294 0
M  V30 7 C -0.732 3.65373 2.2001 0
M  V30 8 S 0.101 5.13292 1.52614 0
M  V30 9 C 1.257 5.56322 2.86805 0
M  V30 10 H 1.49 2.90518 0.631377 0
M  V30 11 H -0.977 1.52953 0.210867 0
M  V30 12 H 0.981 2.67203 3.11629 0
M  V30 13 H -0.358 1.57376 2.7183 0
M  V30 14 H -1.165 3.90944 3.18086 0
M  V30 15 H -1.563 3.418 1.51819 0
M  V30 16 H 0.729 5.58782 3.83104 0
M  V30 17 H 1.672 6.56266 2.65933 0
M  V30 18 H 2.08 4.83886 2.90714 0
M  V30 19 N 1.4781 -0.272755 1.55222 0
M  V30 20 C 2.7031 -1.02683 1.80197 0
M  V30 21 C 3.1281 -1.79142 0.573551 0
M  V30 22 O 2.4861 -1.74917 -0.476849 0
M  V30 23 C 2.5341 -1.9609 3.02624 0
M  V30 24 O 1.6381 -3.04863 2.77727 0
M  V30 25 H 0.9791 -0.293557 0.595584 0
M  V30 26 H 3.5091 -0.30159 2.02365 0
M  V30 27 H 3.5191 -2.38039 3.31363 0
M  V30 28 H 2.1941 -1.39851 3.91682 0
M  V30 29 H 0.7711 -2.67228 2.60084 0
M  V30 30 N 2.9562 -1.48159 -0.537278 0
M  V30 31 C 3.8882 -1.58218 -1.65831 0
M  V30 32 C 4.9012 -0.466948 -1.5596 0
M  V30 33 O 6.0902 -0.73747 -1.62553 0
M  V30 34 C 3.1902 -1.48906 -3.04434 0
M  V30 35 C 2.3632 -2.75343 -3.3986 0
M  V30 36 C 1.4222 -2.59588 -4.57712 0
M  V30 37 O 0.4482 -3.33457 -4.61297 0
M  V30 38 N 1.6502 -1.68724 -5.55439 0
M  V30 39 H 4.4152 -2.54891 -1.57641 0
M  V30 40 H 1.9762 -1.4479 -0.724386 0
M  V30 41 H 3.9682 -1.36072 -3.81139 0
M  V30 42 H 2.5382 -0.602368 -3.06741 0
M  V30 43 H 1.7582 -3.02795 -2.52406 0
M  V30 44 H 3.0462 -3.5924 -3.60311 0
M  V30 45 H 2.4442 -1.07898 -5.55315 0
M  V30 46 H 1.0012 -1.61832 -6.3139 0
M  V30 47 N 4.4343 0.785586 -1.36625 0
M  V30 48 C 5.3973 1.87999 -1.31107 0
M  V30 49 C 6.3973 1.59316 -0.217959 0
M  V30 50 O 7.5873 1.67656 -0.472977 0
M  V30 51 C 4.7193 3.24861 -1.03334 0
M  V30 52 H 5.9123 1.94307 -2.2844 0
M  V30 53 H 3.4653 0.983813 -1.21453 0
M  V30 54 H 4.2003 3.24235 -0.0647432 0
M  V30 55 H 3.9853 3.4707 -1.82441 0
M  V30 56 H 5.4753 4.04929 -1.02088 0
M  V30 57 N 5.9124 1.20967 1.01018 0
M  V30 58 C 6.8424 0.988272 2.11555 0
M  V30 59 C 7.8234 -0.0849778 1.69888 0
M  V30 60 O 9.0084 0.0738202 1.9406 0
M  V30 61 C 6.1384 0.546528 3.42973 0
M  V30 62 C 5.0924 1.56375 3.9841 0
M  V30 63 C 4.4184 0.97842 5.25672 0
M  V30 64 C 5.7184 2.94922 4.31066 0
M  V30 65 H 7.4124 1.91276 2.30334 0
M  V30 66 H 4.9584 0.921073 1.1069 0
M  V30 67 H 6.9114 0.378839 4.19694 0
M  V30 68 H 5.6354 -0.413598 3.23971 0
M  V30 69 H 4.2944 1.71891 3.23804 0
M  V30 70 H 3.9424 0.0101688 5.02999 0
M  V30 71 H 3.6424 1.65784 5.63728 0
M  V30 72 H 5.1664 0.821939 6.05043 0
M  V30 73 H 6.5804 2.8288 4.9865 0
M  V30 74 H 4.9774 3.5983 4.80253 0
M  V30 75 H 6.0474 3.4616 3.39561 0
M  V30 76 N 7.3905 -1.2043 1.01659 0
M  V30 77 C 8.3375 -2.23215 0.586822 0
M  V30 78 C 9.3075 -1.61382 -0.393085 0
M  V30 79 O 10.4925 -1.88544 -0.292525 0
M  V30 80 C 7.6325 -3.45032 -0.0687464 0
M  V30 81 C 6.7455 -4.21296 0.955724 0
M  V30 82 C 5.8805 -5.30507 0.271208 0
M  V30 83 C 4.9195 -5.98515 1.28244 0
M  V30 84 N 4.0565 -6.99316 0.62459 0
M  V30 85 H 8.8965 -2.59336 1.46796 0
M  V30 86 H 6.4335 -1.27431 0.734836 0
M  V30 87 H 8.3915 -4.1459 -0.465965 0
M  V30 88 H 7.0215 -3.09604 -0.913529 0
M  V30 89 H 6.0735 -3.50803 1.4711 0
M  V30 90 H 7.3855 -4.6803 1.72479 0
M  V30 91 H 6.5395 -6.06428 -0.18151 0
M  V30 92 H 5.2785 -4.8481 -0.530163 0
M  V30 93 H 4.2835 -5.21355 1.74554 0
M  V30 94 H 5.5085 -6.46298 2.08509 0
M  V30 95 H 3.4545 -6.55812 -0.156914 0
M  V30 96 H 3.3715 -7.44178 1.33172 0
M  V30 97 H 4.6395 -7.79255 0.195462 0
M  V30 98 N 8.8686 -0.792821 -1.36206 0
M  V30 99 C 9.8166 -0.181555 -2.3189 0
M  V30 100 C 10.8106 0.661025 -1.55971 0
M  V30 101 O 12.0166 0.555728 -1.71206 0
M  V30 102 H 8.3916 -0.0399382 -0.750939 0
M  V30 103 H 10.3626 -1.00394 -2.81005 0
M  V30 104 C 9.1116 0.666444 -3.41253 0
M  V30 105 H 8.4346 0.0274489 -3.99791 0
M  V30 106 H 9.8746 1.06076 -4.10517 0
M  V30 107 C 8.3336 1.82614 -2.83114 0
M  V30 108 O 8.8636 2.9229 -2.75553 0
M  V30 109 N 7.0696 1.63333 -2.40356 0
M  V30 110 H 6.6166 0.741217 -2.46706 0
M  V30 111 H 6.5746 2.41087 -2.01803 0
M  V30 112 N 10.3467 1.47872 -0.545128 0
M  V30 113 C 11.2767 2.32661 0.197793 0
M  V30 114 C 12.2577 1.43041 0.920504 0
M  V30 115 O 13.4427 1.71912 0.90333 0
M  V30 116 C 10.5727 3.24569 1.23582 0
M  V30 117 C 9.5267 4.23333 0.630323 0
M  V30 118 C 8.8527 5.0448 1.77211 0
M  V30 119 C 10.1527 5.20704 -0.407974 0
M  V30 120 H 11.8467 2.95024 -0.510045 0
M  V30 121 H 9.3927 1.4187 -0.246731 0
M  V30 122 H 11.3457 3.8272 1.76362 0
M  V30 123 H 10.0697 2.60236 1.97344 0
M  V30 124 H 8.7287 3.6639 0.123922 0
M  V30 125 H 8.3767 4.36561 2.49847 0
M  V30 126 H 8.0767 5.71339 1.37281 0
M  V30 127 H 9.6007 5.65487 2.3034 0
M  V30 128 H 11.0147 5.7329 0.033305 0
M  V30 129 H 9.4117 5.95699 -0.725486 0
M  V30 130 H 10.4817 4.66917 -1.30828 0
M  V30 131 N 11.8248 0.280983 1.55075 0
M  V30 132 C 12.7548 -0.597469 2.25727 0
M  V30 133 C 13.7358 -1.15417 1.24952 0
M  V30 134 O 14.9208 -1.18722 1.53684 0
M  V30 135 C 12.0508 -1.7789 2.98283 0
M  V30 136 C 11.0048 -1.35347 4.06036 0
M  V30 137 C 10.3308 -2.61846 4.66198 0
M  V30 138 C 11.6308 -0.499354 5.19907 0
M  V30 139 H 13.3248 -0.00824265 2.99399 0
M  V30 140 H 10.8708 -0.0025244 1.44 0
M  V30 141 H 12.8238 -2.39937 3.46422 0
M  V30 142 H 11.5478 -2.39405 2.22155 0
M  V30 143 H 10.2068 -0.756156 3.58717 0
M  V30 144 H 9.8548 -3.21632 3.86732 0
M  V30 145 H 9.5548 -2.3409 5.38958 0
M  V30 146 H 11.0788 -3.24732 5.1709 0
M  V30 147 H 12.4928 -1.02498 5.64063 0
M  V30 148 H 10.8898 -0.316424 5.99265 0
M  V30 149 H 11.9598 0.480459 4.82514 0
M  V30 150 N 13.3029 -1.57598 0.00835791 0
M  V30 151 C 14.5309 -1.95214 -0.68549 0
M  V30 152 C 14.9459 -0.883706 -1.66841 0
M  V30 153 O 14.3029 0.136565 -1.81988 0
M  V30 154 C 14.3539 -3.32865 -1.41007 0
M  V30 155 O 14.0749 -4.35609 -0.466552 0
M  V30 156 C 15.5759 -3.84991 -2.19765 0
M  V30 157 H 12.7959 -0.643422 -0.190392 0
M  V30 158 H 15.3399 -2.04406 0.0619607 0
M  V30 159 H 13.4949 -3.24956 -2.10908 0
M  V30 160 H 13.9089 -5.15288 -0.978699 0
M  V30 161 H 15.3829 -4.8371 -2.65948 0
M  V30 162 H 15.8599 -3.18137 -3.02796 0
M  V30 163 H 16.4659 -3.96103 -1.54864 0
M  V30 164 N 14.781 0.264519 -1.55364 0
M  V30 165 C 15.711 1.33121 -1.91836 0
M  V30 166 C 16.692 1.51101 -0.781192 0
M  V30 167 O 17.877 1.64003 -1.04003 0
M  V30 168 C 15.007 2.68921 -2.19769 0
M  V30 169 C 13.961 2.65661 -3.35571 0
M  V30 170 C 13.287 4.05093 -3.49004 0
M  V30 171 C 14.587 2.24187 -4.71739 0
M  V30 172 H 16.281 1.02844 -2.81182 0
M  V30 173 H 13.827 0.493286 -1.35287 0
M  V30 174 H 15.78 3.43663 -2.43872 0
M  V30 175 H 14.504 3.00799 -1.27231 0
M  V30 176 H 13.163 1.93377 -3.1145 0
M  V30 177 H 12.811 4.34206 -2.53917 0
M  V30 178 H 12.511 4.03804 -4.26868 0
M  V30 179 H 14.035 4.81561 -3.75408 0
M  V30 180 H 15.449 2.88654 -4.9533 0
M  V30 181 H 13.846 2.34044 -5.52579 0
M  V30 182 H 14.916 1.19327 -4.69988 0
M  V30 183 N 16.2591 1.48442 0.529413 0
M  V30 184 C 17.1891 1.65902 1.64313 0
M  V30 185 C 18.1701 0.507897 1.6234 0
M  V30 186 O 19.3551 0.740503 1.79528 0
M  V30 187 C 16.4851 1.69911 3.02898 0
M  V30 188 C 15.4391 2.8453 3.19729 0
M  V30 189 C 14.7651 2.73629 4.59381 0
M  V30 190 C 16.0651 4.25821 3.02447 0
M  V30 191 H 17.7591 2.5914 1.49955 0
M  V30 192 H 15.3051 1.24709 0.719982 0
M  V30 193 H 17.2581 1.80715 3.80684 0
M  V30 194 H 15.9821 0.732524 3.18279 0
M  V30 195 H 14.6411 2.73283 2.44361 0
M  V30 196 H 14.2891 1.74938 4.71599 0
M  V30 197 H 13.9891 3.50541 4.71588 0
M  V30 198 H 15.5131 2.86401 5.39265 0
M  V30 199 H 16.9271 4.37898 3.70024 0
M  V30 200 H 15.3241 5.03735 3.26146 0
M  V30 201 H 16.3941 4.42244 1.98867 0
M  V30 202 N 17.7372 -0.778329 1.37039 0
M  V30 203 C 18.6852 -1.91278 1.32345 0
M  V30 204 C 19.6792 -1.68051 0.213331 0
M  V30 205 O 20.8852 -1.75922 0.38098 0
M  V30 206 H 17.2602 -0.628909 0.412283 0
M  V30 207 H 19.2312 -1.92355 2.28127 0
M  V30 208 C 17.9802 -3.28455 1.14073 0
M  V30 209 H 17.3032 -3.46901 1.98746 0
M  V30 210 H 18.7432 -4.08152 1.14837 0
M  V30 211 C 17.2022 -3.36548 -0.154015 0
M  V30 212 O 17.7322 -3.85186 -1.13993 0
M  V30 213 N 15.9382 -2.89894 -0.202475 0
M  V30 214 H 15.4852 -2.50504 0.600476 0
M  V30 215 H 15.4432 -2.9569 -1.06841 0
M  V30 216 N 19.2153 -1.21501 -1.00376 0
M  V30 217 C 20.1453 -0.999478 -2.11028 0
M  V30 218 C 21.1263 0.0759671 -1.6993 0
M  V30 219 O 22.3113 -0.0841106 -1.94018 0
M  V30 220 C 19.4413 -0.564709 -3.42678 0
M  V30 221 C 18.3953 -1.58486 -3.97576 0
M  V30 222 C 17.7213 -1.00628 -5.25146 0
M  V30 223 C 19.0213 -2.97204 -4.29496 0
M  V30 224 H 20.7153 -1.92495 -2.29317 0
M  V30 225 H 18.2613 -0.92693 -1.102 0
M  V30 226 H 20.2143 -0.401091 -4.19487 0
M  V30 227 H 18.9383 0.396411 -3.24185 0
M  V30 228 H 17.5973 -1.73606 -3.22888 0
M  V30 229 H 17.2453 -0.0368439 -5.02987 0
M  V30 230 H 16.9453 -1.68771 -5.62841 0
M  V30 231 H 18.4693 -0.854015 -6.04598 0
M  V30 232 H 19.8833 -2.8552 -4.97143 0
M  V30 233 H 18.2803 -3.62372 -4.78338 0
M  V30 234 H 19.3503 -3.47956 -3.3772 0
M  V30 235 N 20.6934 1.19889 -1.02296 0
M  V30 236 C 21.6034 2.26571 -0.608508 0
M  V30 237 C 22.6194 1.70299 0.356964 0
M  V30 238 O 23.7954 2.00235 0.216326 0
M  V30 239 C 20.8604 3.46677 0.0402814 0
M  V30 240 C 19.9214 4.18153 -0.97194 0
M  V30 241 C 19.1544 5.32525 -0.354016 0
M  V30 242 O 19.3774 5.64112 0.844604 0
M  V30 243 O 18.3114 5.92242 -1.07391 0
M  V30 244 H 22.1374 2.64251 -1.49684 0
M  V30 245 H 19.7224 1.26629 -0.792809 0
M  V30 246 H 21.6044 4.19475 0.402324 0
M  V30 247 H 20.2794 3.10858 0.902707 0
M  V30 248 H 19.1864 3.47499 -1.38546 0
M  V30 249 H 20.5194 4.57927 -1.80454 0
M  V30 250 N 22.1715 0.800033 1.35784 0
M  V30 251 C 23.1185 0.203848 2.29898 0
M  V30 252 C 24.0885 -0.658375 1.52495 0
M  V30 253 O 25.2735 -0.604832 1.8096 0
M  V30 254 C 22.4135 -0.64688 3.38983 0
M  V30 255 C 21.5265 0.235054 4.3136 0
M  V30 256 C 20.6615 -0.623054 5.27533 0
M  V30 257 C 19.7005 0.259682 6.11549 0
M  V30 258 N 18.8375 -0.558019 6.99879 0
M  V30 259 H 23.6775 1.01186 2.80295 0
M  V30 260 H 21.2145 0.51053 1.37957 0
M  V30 261 H 23.1725 -1.15521 4.00887 0
M  V30 262 H 21.8025 -1.42021 2.89879 0
M  V30 263 H 20.8545 0.861438 3.70518 0
M  V30 264 H 22.1665 0.914768 4.9034 0
M  V30 265 H 21.3205 -1.19678 5.94779 0
M  V30 266 H 20.0595 -1.33636 4.69034 0
M  V30 267 H 19.0645 0.845726 5.43256 0
M  V30 268 H 20.2895 0.970748 6.72126 0
M  V30 269 H 18.2355 -1.25542 6.43875 0
M  V30 270 H 18.1525 0.0637872 7.55973 0
M  V30 271 H 19.4205 -1.11523 7.71481 0
M  V30 272 N 23.6496 -1.47581 0.552962 0
M  V30 273 C 24.8986 -2.01684 0.0251995 0
M  V30 274 C 25.2116 -1.43317 -1.33115 0
M  V30 275 O 26.4176 -1.89057 -1.94858 0
M  V30 276 C 24.8736 -3.599 -0.00542052 0
M  V30 277 C 24.4816 -4.27257 1.34742 0
M  V30 278 C 26.2256 -4.21768 -0.4808 0
M  V30 279 C 24.1326 -5.77467 1.27614 0
M  V30 280 H 23.0626 -0.753979 0.00565033 0
M  V30 281 H 25.7136 -1.69616 0.70018 0
M  V30 282 H 24.0956 -3.88911 -0.745961 0
M  V30 283 H 25.2696 -4.09893 2.10534 0
M  V30 284 H 23.5846 -3.77358 1.76039 0
M  V30 285 H 26.1816 -5.31838 -0.55246 0
M  V30 286 H 26.5246 -3.88651 -1.49184 0
M  V30 287 H 27.0576 -3.97273 0.204752 0
M  V30 288 H 23.7966 -6.15196 2.26304 0
M  V30 289 H 23.3166 -5.9718 0.55996 0
M  V30 290 H 24.9956 -6.3959 0.976421 0
M  V30 291 N 25.1277 -0.289203 -1.54924 0
M  V30 292 C 26.0377 0.601863 -2.26748 0
M  V30 293 C 27.0537 1.15834 -1.2984 0
M  V30 294 O 28.2297 1.18564 -1.62802 0
M  V30 295 C 25.2947 1.76299 -2.98529 0
M  V30 296 C 24.3557 1.24178 -4.10948 0
M  V30 297 C 23.5887 2.34757 -4.79296 0
M  V30 298 O 23.8117 3.54411 -4.46933 0
M  V30 299 O 22.7457 2.02115 -5.66951 0
M  V30 300 H 26.5717 0.0195879 -3.03694 0
M  V30 301 H 24.1567 -0.0560868 -1.49295 0
M  V30 302 H 26.0387 2.43973 -3.43592 0
M  V30 303 H 24.7137 2.33209 -2.24488 0
M  V30 304 H 23.6207 0.531104 -3.70311 0
M  V30 305 H 24.9537 0.718252 -4.86931 0
M  V30 306 N 26.6058 1.57591 -0.0167156 0
M  V30 307 C 27.5158 2.1291 0.98521 0
M  V30 308 C 28.5318 1.07834 1.36557 0
M  V30 309 O 29.7078 1.39826 1.44951 0
M  V30 310 C 26.7728 2.63512 2.25305 0
M  V30 311 C 25.8338 3.83256 1.93426 0
M  V30 312 C 25.0668 4.31435 3.14165 0
M  V30 313 O 25.2898 3.78851 4.26413 0
M  V30 314 O 24.2238 5.23416 2.97186 0
M  V30 315 H 28.0498 2.98772 0.544888 0
M  V30 316 H 25.6348 1.48012 0.203141 0
M  V30 317 H 27.5168 2.96183 2.99756 0
M  V30 318 H 26.1918 1.8074 2.68542 0
M  V30 319 H 25.0988 3.55531 1.16398 0
M  V30 320 H 26.4318 4.67153 1.55013 0
M  V30 321 N 28.0839 -0.256276 1.55502 0
M  V30 322 C 29.3319 -0.983672 1.76545 0
M  V30 323 C 29.6529 -1.86206 0.578982 0
M  V30 324 O 28.9229 -1.91656 -0.405577 0
M  V30 325 H 27.5029 -0.366191 0.651086 0
M  V30 326 H 30.1649 -0.276479 1.92929 0
M  V30 327 H 29.2609 -1.61087 2.67315 0
M  V30 328 N 29.562 -1.4872 -0.521534 0
M  V30 329 C 30.492 -1.66771 -1.63431 0
M  V30 330 C 31.473 -0.516499 -1.62069 0
M  V30 331 O 32.658 -0.750013 -1.79132 0
M  V30 332 C 29.788 -1.71515 -3.01993 0
M  V30 333 C 28.742 -2.86222 -3.18216 0
M  V30 334 C 28.068 -2.76061 -4.57924 0
M  V30 335 C 29.368 -4.27419 -3.00184 0
M  V30 336 H 31.062 -2.59932 -1.48579 0
M  V30 337 H 28.608 -1.25089 -0.713358 0
M  V30 338 H 30.561 -1.82731 -3.7972 0
M  V30 339 H 29.285 -0.749393 -3.17886 0
M  V30 340 H 27.944 -2.74575 -2.42908 0
M  V30 341 H 27.592 -1.77437 -4.70665 0
M  V30 342 H 27.292 -3.53037 -4.69722 0
M  V30 343 H 28.816 -2.89256 -5.37739 0
M  V30 344 H 30.23 -4.39855 -3.67697 0
M  V30 345 H 28.627 -5.05458 -3.2347 0
M  V30 346 H 29.697 -4.43293 -1.96518 0
M  V30 347 N 31.0401 0.771051 -1.3745 0
M  V30 348 C 32.2871 1.52963 -1.32697 0
M  V30 349 C 32.6151 1.94299 0.0883274 0
M  V30 350 O 31.8701 1.64397 1.0617 0
M  V30 351 C 32.1691 2.80676 -2.2126 0
M  V30 352 C 31.8351 2.58389 -3.69521 0
M  V30 353 C 30.4971 2.52019 -4.09927 0
M  V30 354 C 32.8491 2.38469 -4.63446 0
M  V30 355 C 30.1771 2.23721 -5.42371 0
M  V30 356 C 32.5291 2.11694 -5.96128 0
M  V30 357 C 31.1931 2.03769 -6.35637 0
M  V30 358 H 30.4631 0.559732 -0.485573 0
M  V30 359 H 33.1101 0.888083 -1.69662 0
M  V30 360 H 31.4151 3.49392 -1.77291 0
M  V30 361 H 33.1121 3.38557 -2.14895 0
M  V30 362 H 29.7021 2.6421 -3.37478 0
M  V30 363 H 33.8861 2.4238 -4.33089 0
M  V30 364 H 29.1421 2.16081 -5.71943 0
M  V30 365 H 33.3161 1.9528 -6.6846 0
M  V30 366 H 30.9431 1.81606 -7.38189 0
M  V30 367 N 32.5182 1.22032 0.997298 0
M  V30 368 C 33.9342 0.979326 1.26021 0
M  V30 369 C 34.1342 -0.32972 1.98784 0
M  V30 370 O 33.1902 -1.05345 2.29475 0
M  V30 371 C 34.5032 2.17509 2.07631 0
M  V30 372 C 36.0512 2.21817 2.2083 0
M  V30 373 C 36.5262 3.40933 3.05825 0
M  V30 374 N 38.0172 3.41067 3.13412 0
M  V30 375 C 38.7522 4.29885 3.79455 0
M  V30 376 N 38.2482 5.28914 4.47462 0
M  V30 377 N 40.0412 4.17673 3.76173 0
M  V30 378 H 32.1922 2.06202 0.509352 0
M  V30 379 H 34.4552 0.90334 0.287541 0
M  V30 380 H 34.1612 3.12415 1.61524 0
M  V30 381 H 34.0352 2.17206 3.08385 0
M  V30 382 H 36.4222 1.27462 2.66153 0
M  V30 383 H 36.5032 2.2616 1.1952 0
M  V30 384 H 36.1472 4.35586 2.61203 0
M  V30 385 H 36.0772 3.33829 4.07266 0
M  V30 386 H 38.5682 2.69406 2.65007 0
M  V30 387 H 38.8812 5.92973 4.95583 0
M  V30 388 H 37.2262 5.32831 4.46224 0
M  V30 389 H 40.4172 3.39564 3.22202 0
M  V30 390 H 40.5902 4.87098 4.27363 0
M  V30 391 N 33.9963 -1.19345 1.0293 0
M  V30 392 C 35.2443 -1.88665 0.724574 0
M  V30 393 C 35.5653 -1.80036 -0.749144 0
M  V30 394 O 34.8353 -1.2111 -1.53978 0
M  V30 395 H 33.4153 -0.698406 0.265025 0
M  V30 396 H 36.0773 -1.44885 1.30362 0
M  V30 397 H 35.1733 -2.94987 1.01926 0
M  V30 398 N 35.4744 -0.807222 -1.35358 0
M  V30 399 C 36.4064 -0.175717 -2.28525 0
M  V30 400 C 37.4194 0.625354 -1.5031 0
M  V30 401 O 38.6084 0.457611 -1.72535 0
M  V30 402 C 35.7084 0.773471 -3.29956 0
M  V30 403 C 34.8814 0.0186296 -4.37396 0
M  V30 404 C 33.9404 0.886395 -5.18681 0
M  V30 405 O 32.9664 0.337106 -5.68201 0
M  V30 406 N 34.1684 2.20839 -5.36852 0
M  V30 407 H 36.9334 -0.976091 -2.83359 0
M  V30 408 H 34.4944 -0.662737 -1.47714 0
M  V30 409 H 36.4864 1.35824 -3.81227 0
M  V30 410 H 35.0564 1.47465 -2.75632 0
M  V30 411 H 34.2764 -0.747349 -3.87051 0
M  V30 412 H 35.5644 -0.501577 -5.06322 0
M  V30 413 H 34.9624 2.67858 -4.98265 0
M  V30 414 H 33.5194 2.74237 -5.91301 0
M  V30 415 N 36.9525 1.47285 -0.560781 0
M  V30 416 C 38.1775 2.07359 -0.0410566 0
M  V30 417 C 38.6025 1.41017 1.24483 0
M  V30 418 O 37.9605 0.486368 1.74654 0
M  V30 419 C 38.0085 3.6035 0.134123 0
M  V30 420 O 37.1125 3.94681 1.19587 0
M  V30 421 H 36.4535 0.661887 -0.0529291 0
M  V30 422 H 38.9835 1.89252 -0.777482 0
M  V30 423 H 38.9935 4.0652 0.347207 0
M  V30 424 H 37.6685 4.08034 -0.805047 0
M  V30 425 H 36.2455 3.60251 0.962987 0
M  V30 426 N 38.4306 0.297415 1.54768 0
M  V30 427 C 39.3406 -0.58983 2.27064 0
M  V30 428 C 40.3566 -1.15144 1.30453 0
M  V30 429 O 41.5326 -1.17699 1.63428 0
M  V30 430 C 38.5976 -1.74714 2.9946 0
M  V30 431 C 37.6586 -1.21997 4.11601 0
M  V30 432 C 36.8916 -2.32212 4.80535 0
M  V30 433 O 37.1146 -3.52036 4.48806 0
M  V30 434 O 36.0486 -1.99106 5.68014 0
M  V30 435 H 39.8746 -0.00348199 3.037 0
M  V30 436 H 37.4596 0.0640035 1.49263 0
M  V30 437 H 39.3416 -2.42147 3.44881 0
M  V30 438 H 38.0166 -2.32016 2.25722 0
M  V30 439 H 36.9236 -0.511458 3.70587 0
M  V30 440 H 38.2566 -0.692419 4.87305 0
M  V30 441 N 39.9087 -1.5758 0.0250728 0
M  V30 442 C 41.1857 -1.82917 -0.692873 0
M  V30 443 C 41.5657 -0.908137 -1.90568 0
M  V30 444 O 40.9137 0.0372298 -2.2847 0
M  V30 445 C 41.1237 -3.32034 -1.07492 0
M  V30 446 C 42.4717 -3.98406 -1.46826 0
M  V30 447 O 43.4957 -3.36505 -1.16801 0
M  V30 448 O 42.3547 -5.07497 -2.02754 0
M  V30 449 H 39.4487 -0.754079 -0.33955 0
M  V30 450 H 41.9947 -1.69619 0.0524456 0
M  V30 451 H 40.7667 -3.90728 -0.211552 0
M  V30 452 H 40.3897 -3.50424 -1.87854 0
M  V30 453 N 41.3868 0.248026 -1.55636 0
M  V30 454 C 42.3168 1.31079 -1.93237 0
M  V30 455 C 43.2978 1.50264 -0.797174 0
M  V30 456 O 44.4828 1.62891 -1.05737 0
M  V30 457 C 41.6128 2.66575 -2.22609 0
M  V30 458 C 40.5668 2.62087 -3.3837 0
M  V30 459 C 39.8928 4.01369 -3.53281 0
M  V30 460 C 41.1928 2.19171 -4.7409 0
M  V30 461 H 42.8868 0.998556 -2.82257 0
M  V30 462 H 40.4328 0.47891 -1.35803 0
M  V30 463 H 42.3858 3.41057 -2.47503 0
M  V30 464 H 41.1098 2.99432 -1.30414 0
M  V30 465 H 39.7688 1.90063 -3.13483 0
M  V30 466 H 39.4168 4.31489 -2.58508 0
M  V30 467 H 39.1168 3.99254 -4.31127 0
M  V30 468 H 40.6408 4.77552 -3.80495 0
M  V30 469 H 42.0548 2.83384 -4.98363 0
M  V30 470 H 40.4518 2.2817 -5.5503 0
M  V30 471 H 41.5218 1.14336 -4.71227 0
M  V30 472 N 42.8649 1.48995 0.513639 0
M  V30 473 C 44.1129 1.57531 1.26604 0
M  V30 474 C 44.4339 0.258236 1.93283 0
M  V30 475 O 43.7039 -0.721502 1.8213 0
M  V30 476 H 42.2839 0.580387 0.470276 0
M  V30 477 H 44.9459 1.85552 0.596373 0
M  V30 478 H 44.0419 2.36486 2.03669 0
M  V30 479 N 44.343 -0.763751 1.37857 0
M  V30 480 C 45.273 -1.89103 1.36975 0
M  V30 481 C 46.254 -1.68439 0.237152 0
M  V30 482 O 47.439 -1.8918 0.438713 0
M  V30 483 C 44.569 -3.26496 1.18395 0
M  V30 484 C 43.523 -3.61741 2.28751 0
M  V30 485 C 42.849 -4.97762 1.95286 0
M  V30 486 C 44.149 -3.67665 3.70972 0
M  V30 487 H 45.843 -1.90099 2.31307 0
M  V30 488 H 43.389 -0.91319 1.11341 0
M  V30 489 H 45.342 -4.05003 1.16406 0
M  V30 490 H 44.066 -3.25955 0.205215 0
M  V30 491 H 42.725 -2.85547 2.29909 0
M  V30 492 H 42.373 -4.93769 0.959221 0
M  V30 493 H 42.073 -5.22313 2.69189 0
M  V30 494 H 43.597 -5.7866 1.94898 0
M  V30 495 H 45.011 -4.36307 3.719 0
M  V30 496 H 43.408 -4.03718 4.43995 0
M  V30 497 H 44.478 -2.68134 4.0402 0
M  V30 498 N 45.8211 -1.22559 -0.990812 0
M  V30 499 C 47.2371 -0.985996 -1.255 0
M  V30 500 C 47.4371 0.319173 -1.98956 0
M  V30 501 O 46.4931 1.04127 -2.3003 0
M  V30 502 C 47.8061 -2.18607 -2.06474 0
M  V30 503 C 49.3541 -2.22985 -2.19651 0
M  V30 504 C 49.8291 -3.4255 -3.04012 0
M  V30 505 N 51.3201 -3.42725 -3.11599 0
M  V30 506 C 52.0551 -4.31892 -3.7717 0
M  V30 507 N 51.5511 -5.31279 -4.44651 0
M  V30 508 N 53.3441 -4.19662 -3.73952 0
M  V30 509 H 45.4951 -2.06469 -0.49841 0
M  V30 510 H 47.7581 -0.904853 -0.282747 0
M  V30 511 H 47.4641 -3.13267 -1.59865 0
M  V30 512 H 47.3381 -2.18838 -3.07229 0
M  V30 513 H 49.7251 -1.28871 -2.65474 0
M  V30 514 H 49.8061 -2.26791 -1.18319 0
M  V30 515 H 49.4501 -4.36965 -2.58889 0
M  V30 516 H 49.3801 -3.35984 -4.0549 0
M  V30 517 H 51.8711 -2.70807 -2.63575 0
M  V30 518 H 52.1841 -5.95593 -4.92431 0
M  V30 519 H 50.5291 -5.3519 -4.43392 0
M  V30 520 H 53.7201 -3.41268 -3.20396 0
M  V30 521 H 53.8931 -4.89358 -4.24774 0
M  V30 522 N 47.2992 1.18797 -1.03562 0
M  V30 523 C 48.2312 2.21731 -0.580337 0
M  V30 524 C 49.2442 1.59051 0.347349 0
M  V30 525 O 50.4332 1.77929 0.142669 0
M  V30 526 C 47.5332 3.38459 0.172805 0
M  V30 527 C 46.7062 4.3072 -0.761496 0
M  V30 528 C 45.7652 5.26174 -0.0525547 0
M  V30 529 O 44.7912 5.65108 -0.681333 0
M  V30 530 N 45.9932 5.67624 1.21586 0
M  V30 531 H 48.7582 2.61417 -1.46565 0
M  V30 532 H 46.3192 1.33531 -0.915476 0
M  V30 533 H 48.3112 3.99335 0.656793 0
M  V30 534 H 46.8812 2.97507 0.959602 0
M  V30 535 H 46.1012 3.67525 -1.42544 0
M  V30 536 H 47.3892 4.89267 -1.39626 0
M  V30 537 H 46.7872 5.38038 1.74732 0
M  V30 538 H 45.3442 6.30721 1.64421 0
M  V30 539 N 48.7773 0.814389 1.34928 0
M  V30 540 C 50.0233 0.399013 1.98836 0
M  V30 541 C 50.3563 -1.03314 1.64438 0
M  V30 542 O 49.6313 -1.71811 0.911659 0
M  V30 543 C 49.9143 0.591629 3.55207 0
M  V30 544 C 49.7673 2.06928 3.99376 0
M  V30 545 C 51.0863 0.022199 4.40094 0
M  V30 546 H 48.2053 0.146451 0.722303 0
M  V30 547 H 50.8473 1.02537 1.59957 0
M  V30 548 H 48.9973 0.0584441 3.88456 0
M  V30 549 H 50.6693 2.66544 3.76499 0
M  V30 550 H 48.9123 2.56287 3.49999 0
M  V30 551 H 49.5833 2.1549 5.08201 0
M  V30 552 H 52.0593 0.477643 4.13349 0
M  V30 553 H 50.9353 0.186832 5.48582 0
M  V30 554 H 51.1963 -1.07215 4.28902 0
M  V30 555 N 50.2554 -1.46986 0.568584 0
M  V30 556 C 51.5024 -2.02441 0.0487986 0
M  V30 557 C 51.8304 -1.44169 -1.30559 0
M  V30 558 O 51.0854 -0.591213 -1.86556 0
M  V30 559 C 51.3844 -3.57306 -0.081836 0
M  V30 560 C 51.0504 -4.34552 1.20313 0
M  V30 561 C 49.7124 -4.55376 1.5552 0
M  V30 562 C 52.0644 -4.79016 2.05411 0
M  V30 563 C 49.3924 -5.17913 2.7565 0
M  V30 564 C 51.7444 -5.42879 3.24754 0
M  V30 565 C 50.4084 -5.61933 3.60261 0
M  V30 566 H 49.6784 -0.740785 0.0178567 0
M  V30 567 H 52.3254 -1.76525 0.742384 0
M  V30 568 H 50.6304 -3.8228 -0.858463 0
M  V30 569 H 52.3274 -3.97876 -0.499546 0
M  V30 570 H 48.9174 -4.18631 0.919014 0
M  V30 571 H 53.1014 -4.62696 1.79516 0
M  V30 572 H 48.3574 -5.30858 3.03315 0
M  V30 573 H 52.5314 -5.76293 3.90973 0
M  V30 574 H 50.1584 -6.10161 4.53439 0
M  V30 575 N 51.7335 -0.305618 -1.54608 0
M  V30 576 C 52.9815 0.301701 -1.99835 0
M  V30 577 C 53.3025 1.54054 -1.19551 0
M  V30 578 O 52.5725 1.93702 -0.292658 0
M  V30 579 H 51.1525 0.114468 -0.738178 0
M  V30 580 H 53.8145 -0.418016 -1.90364 0
M  V30 581 H 52.9105 0.570548 -3.06841 0
M  V30 582 N 53.2116 1.57565 -0.0334293 0
M  V30 583 C 54.4596 1.91598 0.642999 0
M  V30 584 C 54.7806 0.910847 1.7242 0
M  V30 585 O 54.0506 -0.0469931 1.95844 0
M  V30 586 H 52.6306 0.707228 0.240496 0
M  V30 587 H 55.2926 1.94726 -0.0822488 0
M  V30 588 H 54.3886 2.92336 1.09298 0
M  V30 589 N 54.6897 -0.239769 1.55765 0
M  V30 590 C 55.6217 -1.32001 1.87372 0
M  V30 591 C 56.6347 -1.43944 0.760522 0
M  V30 592 O 57.8237 -1.45167 1.0387 0
M  V30 593 C 54.9237 -2.69779 2.05115 0
M  V30 594 C 54.0967 -2.80014 3.36022 0
M  V30 595 C 53.1557 -3.98684 3.4342 0
M  V30 596 O 52.1817 -3.87877 4.16582 0
M  V30 597 N 53.3837 -5.12176 2.73232 0
M  V30 598 H 56.1487 -1.0522 2.80622 0
M  V30 599 H 53.7097 -0.429857 1.56089 0
M  V30 600 H 55.7017 -3.47517 2.07399 0
M  V30 601 H 54.2717 -2.89237 1.18577 0
M  V30 602 H 53.4917 -1.88896 3.45994 0
M  V30 603 H 54.7797 -2.83808 4.22292 0
M  V30 604 H 54.1777 -5.2385 2.13536 0
M  V30 605 H 52.7347 -5.88022 2.81199 0
M  V30 606 N 56.1678 -1.49265 -0.50573 0
M  V30 607 C 57.4138 -1.58748 -1.26202 0
M  V30 608 C 57.7468 -0.271227 -1.92297 0
M  V30 609 O 57.0218 0.724831 -1.80489 0
M  V30 610 C 57.3048 -2.74332 -2.33268 0
M  V30 611 C 57.1578 -4.15737 -1.71705 0
M  V30 612 C 58.4768 -2.85576 -3.34865 0
M  V30 613 H 55.5958 -0.577826 -0.457478 0
M  V30 614 H 58.2378 -1.81532 -0.560897 0
M  V30 615 H 56.3878 -2.55036 -2.93068 0
M  V30 616 H 58.0598 -4.46537 -1.15769 0
M  V30 617 H 56.3028 -4.21605 -1.02135 0
M  V30 618 H 56.9738 -4.92477 -2.49341 0
M  V30 619 H 59.4498 -3.03127 -2.8505 0
M  V30 620 H 58.3258 -3.68135 -4.07146 0
M  V30 621 H 58.5868 -1.94732 -3.96903 0
M  V30 622 N 57.6459 0.756429 -1.3826 0
M  V30 623 C 58.8919 1.51772 -1.34511 0
M  V30 624 C 59.2249 1.94089 0.0656691 0
M  V30 625 O 58.4999 1.65221 1.02626 0
M  V30 626 C 58.7829 2.77226 -2.29821 0
M  V30 627 C 58.6359 2.41065 -3.79747 0
M  V30 628 C 59.9549 3.79236 -2.23312 0
M  V30 629 H 57.0739 0.550578 -0.489931 0
M  V30 630 H 59.7159 0.866607 -1.69086 0
M  V30 631 H 57.8659 3.32784 -2.00467 0
M  V30 632 H 59.5379 1.91303 -4.19763 0
M  V30 633 H 57.7809 1.7356 -3.97567 0
M  V30 634 H 58.4519 3.3081 -4.41892 0
M  V30 635 H 60.9279 3.3321 -2.49219 0
M  V30 636 H 59.8039 4.64714 -2.92116 0
M  V30 637 H 60.0649 4.24615 -1.23102 0
M  V30 638 N 59.124 1.23083 0.984299 0
M  V30 639 C 60.372 1.05848 1.72165 0
M  V30 640 C 60.693 -0.406049 1.90726 0
M  V30 641 O 59.963 -1.29139 1.47309 0
M  V30 642 H 58.543 0.388685 0.637913 0
M  V30 643 H 61.205 1.54736 1.18503 0
M  V30 644 H 60.301 1.54327 2.71274 0
M  V30 645 N 60.6021 -1.18246 1.0419 0
M  V30 646 C 61.5341 -2.2142 0.592088 0
M  V30 647 C 62.5471 -1.59233 -0.338909 0
M  V30 648 O 63.7361 -1.78002 -0.133231 0
M  V30 649 C 60.8361 -3.38546 -0.154854 0
M  V30 650 C 60.0091 -4.3031 0.784328 0
M  V30 651 C 59.0681 -5.26138 0.0804583 0
M  V30 652 O 58.0941 -5.64738 0.711292 0
M  V30 653 N 59.2961 -5.68261 -1.18574 0
M  V30 654 H 62.0611 -2.60636 1.47949 0
M  V30 655 H 59.6221 -1.33044 0.922544 0
M  V30 656 H 61.6141 -3.99678 -0.635606 0
M  V30 657 H 60.1841 -2.98012 -0.943811 0
M  V30 658 H 59.4041 -3.66764 1.44491 0
M  V30 659 H 60.6921 -4.8852 1.42218 0
M  V30 660 H 60.0901 -5.38957 -1.71876 0
M  V30 661 H 58.6471 -6.31584 -1.61074 0
M  V30 662 N 62.0802 -0.821533 -1.34494 0
M  V30 663 C 63.0432 -0.247847 -2.27856 0
M  V30 664 C 64.0432 0.573453 -1.50227 0
M  V30 665 O 65.2332 0.389759 -1.69784 0
M  V30 666 C 62.3652 0.652698 -3.34593 0
M  V30 667 H 63.5582 -1.07146 -2.80107 0
M  V30 668 H 61.1112 -0.593291 -1.44602 0
M  V30 669 H 61.8462 1.49943 -2.87555 0
M  V30 670 H 61.6312 0.065292 -3.92046 0
M  V30 671 H 63.1212 1.04793 -4.04238 0
M  V30 672 N 63.5583 1.46682 -0.576371 0
M  V30 673 C 64.4883 2.33028 0.148397 0
M  V30 674 C 65.4693 1.44961 0.889956 0
M  V30 675 O 66.6543 1.73789 0.866662 0
M  V30 676 C 63.7843 3.27117 1.1667 0
M  V30 677 C 62.7383 4.24575 0.540386 0
M  V30 678 C 62.0643 5.08126 1.6647 0
M  V30 679 C 63.3643 5.19722 -0.518331 0
M  V30 680 H 65.0583 2.93875 -0.572509 0
M  V30 681 H 62.6043 1.41315 -0.276768 0
M  V30 682 H 64.5573 3.86374 1.68204 0
M  V30 683 H 63.2813 2.64364 1.9178 0
M  V30 684 H 61.9403 3.66571 0.0461769 0
M  V30 685 H 61.5883 4.41762 2.40531 0
M  V30 686 H 61.2883 5.74122 1.25131 0
M  V30 687 H 62.8123 5.70246 2.18293 0
M  V30 688 H 64.2263 5.73232 -0.0883058 0
M  V30 689 H 62.6233 5.94026 -0.851679 0
M  V30 690 H 63.6933 4.64037 -1.40703 0
M  V30 691 N 65.0364 0.313813 1.54444 0
M  V30 692 C 66.2664 -0.293491 2.04505 0
M  V30 693 C 66.6744 -1.47086 1.19005 0
M  V30 694 O 66.0174 -1.82481 0.211257 0
M  V30 695 C 66.0794 -0.800455 3.50475 0
M  V30 696 C 65.7434 0.253322 4.56297 0
M  V30 697 C 66.7404 1.08612 5.08428 0
M  V30 698 C 64.4254 0.398708 5.00715 0
M  V30 699 C 66.4194 2.05013 6.0353 0
M  V30 700 C 64.1064 1.36614 5.95634 0
M  V30 701 C 65.1044 2.19033 6.46926 0
M  V30 702 O 64.7924 3.14134 7.39983 0
M  V30 703 H 64.5244 -0.0658325 0.672787 0
M  V30 704 H 67.0784 0.455177 2.00293 0
M  V30 705 H 65.3084 -1.59987 3.52053 0
M  V30 706 H 66.9974 -1.32504 3.83663 0
M  V30 707 H 67.7634 0.984736 4.74898 0
M  V30 708 H 63.6424 -0.23289 4.60411 0
M  V30 709 H 67.1864 2.69382 6.4349 0
M  V30 710 H 63.0834 1.4682 6.28581 0
M  V30 711 H 63.8514 3.0926 7.57826 0
M  V30 712 N 66.5145 -1.57545 0.0417849 0
M  V30 713 C 67.4775 -2.09885 -0.92093 0
M  V30 714 C 68.4775 -1.01648 -1.24596 0
M  V30 715 O 69.6675 -1.27759 -1.1842 0
M  V30 716 C 66.7995 -2.57527 -2.23367 0
M  V30 717 H 67.9925 -2.96236 -0.467382 0
M  V30 718 H 65.5455 -1.5493 -0.206467 0
M  V30 719 H 66.2805 -1.74542 -2.73323 0
M  V30 720 H 66.0655 -3.36613 -2.01083 0
M  V30 721 H 67.5555 -2.98201 -2.92346 0
M  V30 722 N 67.9926 0.231505 -1.5589 0
M  V30 723 C 68.9556 1.27028 -1.90779 0
M  V30 724 C 69.9556 1.40308 -0.785507 0
M  V30 725 O 71.1456 1.38744 -1.05336 0
M  V30 726 C 68.2776 2.64566 -2.14983 0
M  V30 727 H 69.4706 0.973017 -2.83677 0
M  V30 728 H 67.0236 0.471486 -1.49019 0
M  V30 729 H 67.7586 2.99406 -1.24604 0
M  V30 730 H 67.5436 2.56305 -2.96732 0
M  V30 731 H 69.0336 3.39543 -2.43105 0
M  V30 732 N 69.4707 1.49531 0.497807 0
M  V30 733 C 70.4177 1.66436 1.59899 0
M  V30 734 C 71.3877 0.505793 1.58212 0
M  V30 735 O 72.5727 0.733202 1.7615 0
M  V30 736 C 69.7127 1.7399 2.98029 0
M  V30 737 C 68.8257 3.01172 3.09708 0
M  V30 738 C 67.9607 2.99686 4.38591 0
M  V30 739 C 66.9997 4.21434 4.43914 0
M  V30 740 N 66.1367 4.1784 5.64229 0
M  V30 741 H 70.9767 2.60459 1.44793 0
M  V30 742 H 68.5137 1.29137 0.704423 0
M  V30 743 H 70.4717 1.76352 3.78095 0
M  V30 744 H 69.1017 0.834301 3.11832 0
M  V30 745 H 68.1537 3.08408 2.22685 0
M  V30 746 H 69.4657 3.91165 3.09502 0
M  V30 747 H 68.6197 3.00628 5.2698 0
M  V30 748 H 67.3587 2.07477 4.41367 0
M  V30 749 H 66.3637 4.20733 3.53926 0
M  V30 750 H 67.5887 5.14839 4.42851 0
M  V30 751 H 65.5347 3.28469 5.67841 0
M  V30 752 H 65.4517 5.01571 5.65652 0
M  V30 753 H 66.7197 4.22889 6.54817 0
M  V30 754 N 70.9488 -0.749086 1.3866 0
M  V30 755 C 71.8588 -1.89358 1.38494 0
M  V30 756 C 72.8748 -1.71708 0.281476 0
M  V30 757 O 74.0508 -1.94554 0.520643 0
M  V30 758 C 71.1158 -3.24782 1.21316 0
M  V30 759 C 70.1768 -3.54926 2.41508 0
M  V30 760 C 69.4098 -4.83888 2.2514 0
M  V30 761 O 69.6328 -5.56592 1.24746 0
M  V30 762 O 68.5668 -5.13612 3.13826 0
M  V30 763 H 72.3928 -1.92452 2.34938 0
M  V30 764 H 69.9778 -0.894981 1.19626 0
M  V30 765 H 71.8598 -4.05739 1.13814 0
M  V30 766 H 70.5348 -3.2249 0.279592 0
M  V30 767 H 69.4418 -2.74112 2.54585 0
M  V30 768 H 70.7748 -3.61983 3.3351 0
M  V30 769 N 72.4269 -1.23603 -0.977757 0
M  V30 770 C 73.6549 -1.09646 -1.75458 0
M  V30 771 C 74.0699 0.351859 -1.85492 0
M  V30 772 O 73.4269 1.24327 -1.336 0
M  V30 773 C 73.4779 -1.71895 -3.18016 0
M  V30 774 O 73.1989 -3.11063 -3.08498 0
M  V30 775 C 74.6999 -1.63415 -4.12081 0
M  V30 776 H 71.9199 -0.38359 -0.550545 0
M  V30 777 H 74.4639 -1.63507 -1.22824 0
M  V30 778 H 72.6189 -1.22061 -3.67668 0
M  V30 779 H 73.0329 -3.41305 -3.9826 0
M  V30 780 H 74.5069 -2.11669 -5.09804 0
M  V30 781 H 74.9839 -0.593462 -4.35172 0
M  V30 782 H 75.5899 -2.12628 -3.68334 0
M  V30 783 N 73.905 1.17692 -1.04816 0
M  V30 784 C 75.151 1.88137 -0.75711 0
M  V30 785 C 75.484 1.80604 0.713841 0
M  V30 786 O 74.759 1.21146 1.52164 0
M  V30 787 C 75.042 3.38318 -1.2334 0
M  V30 788 C 74.895 3.54622 -2.76701 0
M  V30 789 C 76.214 4.32214 -0.829415 0
M  V30 790 H 73.333 0.683163 -0.27651 0
M  V30 791 H 75.975 1.38424 -1.30149 0
M  V30 792 H 74.125 3.80787 -0.770286 0
M  V30 793 H 75.797 3.21194 -3.31107 0
M  V30 794 H 74.04 2.97026 -3.16161 0
M  V30 795 H 74.711 4.60028 -3.05088 0
M  V30 796 H 77.187 3.97565 -1.22805 0
M  V30 797 H 76.063 5.35838 -1.19033 0
M  V30 798 H 76.324 4.41294 0.266891 0
M  V30 799 N 75.3831 0.828654 1.34056 0
M  V30 800 C 76.7941 0.477534 1.8049 0
M  V30 801 C 77.1451 -1.00258 1.6865 0
M  V30 802 O 76.2701 -1.78057 1.22982 0
M  V30 803 C 76.8651 0.860018 3.27703 0
M  V30 804 C 75.4241 0.561185 3.72193 0
M  V30 805 C 74.5711 1.07385 2.55663 0
M  V30 806 H 77.5221 1.0183 1.21722 0
M  V30 807 H 77.5431 0.166038 3.80138 0
M  V30 808 H 77.0551 1.93731 3.36288 0
M  V30 809 H 75.1561 -0.506465 3.69142 0
M  V30 810 H 75.2691 1.10926 4.66082 0
M  V30 811 H 73.6331 0.495149 2.49841 0
M  V30 812 H 74.4161 2.15771 2.67016 0
M  V30 813 N 76.8612 -1.46375 0.584142 0
M  V30 814 C 77.7712 -2.34115 -0.150728 0
M  V30 815 C 78.7872 -1.49838 -0.884567 0
M  V30 816 O 79.9632 -1.82704 -0.847429 0
M  V30 817 C 77.0282 -3.2705 -1.15062 0
M  V30 818 C 76.0892 -4.27228 -0.421293 0
M  V30 819 C 75.3222 -5.15722 -1.37355 0
M  V30 820 O 75.5452 -5.07176 -2.61014 0
M  V30 821 O 74.4792 -5.95383 -0.883355 0
M  V30 822 H 78.3052 -2.98309 0.569708 0
M  V30 823 H 75.8902 -1.45373 0.344535 0
M  V30 824 H 77.7722 -3.84381 -1.72712 0
M  V30 825 H 76.4472 -2.65451 -1.8525 0
M  V30 826 H 75.3542 -3.7358 0.197085 0
M  V30 827 H 76.6872 -4.91616 0.239641 0
M  V30 828 N 78.3393 -0.321999 -1.54275 0
M  V30 829 C 79.2493 0.553631 -2.27974 0
M  V30 830 C 80.2653 1.13054 -1.32268 0
M  V30 831 O 81.4413 1.15084 -1.6528 0
M  V30 832 C 78.5063 1.69927 -3.02201 0
M  V30 833 C 77.5673 1.15433 -4.1349 0
M  V30 834 C 76.8003 2.24537 -4.84168 0
M  V30 835 O 77.0233 3.44852 -4.5435 0
M  V30 836 O 75.9573 1.90044 -5.7111 0
M  V30 837 H 79.7833 -0.0448345 -3.03667 0
M  V30 838 H 77.3683 -0.0877418 -1.49142 0
M  V30 839 H 79.2503 2.3663 -3.48689 0
M  V30 840 H 77.9253 2.28395 -2.29385 0
M  V30 841 H 76.8323 0.452436 -3.71354 0
M  V30 842 H 78.1653 0.614805 -4.88345 0
M  V30 843 N 79.8174 1.5752 -0.0501392 0
M  V30 844 C 81.2334 1.56631 0.306402 0
M  V30 845 C 81.4334 1.0577 1.71508 0
M  V30 846 O 80.4894 0.713837 2.422 0
M  V30 847 C 81.8024 3.00393 0.135811 0
M  V30 848 C 83.3504 3.12315 0.206993 0
M  V30 849 C 83.8254 4.57954 0.064944 0
M  V30 850 N 85.3164 4.63041 0.121254 0
M  V30 851 C 86.0514 5.73389 0.0354381 0
M  V30 852 N 85.5474 6.92724 -0.102666 0
M  V30 853 N 87.3404 5.62026 0.090946 0
M  V30 854 H 79.4914 1.88903 -0.971046 0
M  V30 855 H 81.7544 0.869876 -0.376855 0
M  V30 856 H 81.4604 3.41635 -0.835384 0
M  V30 857 H 81.3344 3.66373 0.897275 0
M  V30 858 H 83.7214 2.70973 1.16866 0
M  V30 859 H 83.8024 2.49016 -0.585208 0
M  V30 860 H 83.4464 4.99981 -0.893394 0
M  V30 861 H 83.3764 5.19258 0.876277 0
M  V30 862 H 85.8674 3.77216 0.227284 0
M  V30 863 H 86.1804 7.72633 -0.160882 0
M  V30 864 H 84.5254 6.94864 -0.137737 0
M  V30 865 H 87.7164 4.67684 0.197388 0
M  V30 866 H 87.8894 6.47997 0.0206089 0
M  V30 867 N 81.2955 -0.223234 1.56011 0
M  V30 868 C 82.2255 -1.27988 1.95298 0
M  V30 869 C 83.2065 -1.48976 0.820979 0
M  V30 870 O 84.3915 -1.61188 1.08315 0
M  V30 871 C 81.5215 -2.63 2.26822 0
M  V30 872 C 80.4755 -2.56671 3.42497 0
M  V30 873 C 79.8015 -3.95697 3.59622 0
M  V30 874 C 81.1015 -2.11601 4.77517 0
M  V30 875 H 82.7955 -0.953525 2.8381 0
M  V30 876 H 80.3415 -0.457244 1.36548 0
M  V30 877 H 82.2945 -3.37077 2.52898 0
M  V30 878 H 81.0185 -2.9732 1.35161 0
M  V30 879 H 79.6775 -1.85051 3.16467 0
M  V30 880 H 79.3255 -4.27322 2.6534 0
M  V30 881 H 79.0255 -3.92345 4.37424 0
M  V30 882 H 80.5495 -4.71438 3.88044 0
M  V30 883 H 81.9635 -2.7542 5.02809 0
M  V30 884 H 80.3605 -2.19311 5.5859 0
M  V30 885 H 81.4305 -1.06824 4.72987 0
M  V30 886 N 82.7736 -1.49793 -0.48987 0
M  V30 887 C 84.0196 -1.60078 -1.24511 0
M  V30 888 C 84.3526 -0.291608 -1.91998 0
M  V30 889 O 83.6276 0.705647 -1.81248 0
M  V30 890 C 83.9106 -2.76791 -2.30345 0
M  V30 891 C 83.7636 -4.17535 -1.67286 0
M  V30 892 C 85.0826 -2.89111 -3.31817 0
M  V30 893 H 82.2016 -0.582645 -0.451324 0
M  V30 894 H 84.8436 -1.82117 -0.541612 0
M  V30 895 H 82.9936 -2.5813 -2.90346 0
M  V30 896 H 84.6656 -4.4774 -1.11026 0
M  V30 897 H 82.9086 -4.22665 -0.976577 0
M  V30 898 H 83.5796 -4.95094 -2.44103 0
M  V30 899 H 86.0556 -3.06133 -2.81819 0
M  V30 900 H 84.9316 -3.72433 -4.03219 0
M  V30 901 H 85.1926 -1.9893 -3.94815 0
M  V30 902 N 84.2517 0.741722 -1.39055 0
M  V30 903 C 85.2017 1.84661 -1.33732 0
M  V30 904 C 86.1857 1.59397 -0.219401 0
M  V30 905 O 87.3777 1.71015 -0.456375 0
M  V30 906 C 84.5067 3.22512 -1.17647 0
M  V30 907 C 83.5927 3.53628 -2.34112 0
M  V30 908 N 83.9837 3.55723 -3.59576 0
M  V30 909 C 82.2817 3.83956 -2.26923 0
M  V30 910 C 82.9827 3.84443 -4.36553 0
M  V30 911 N 81.9587 4.01877 -3.66055 0
M  V30 912 H 85.7607 1.84576 -2.28711 0
M  V30 913 H 83.2747 0.939647 -1.32455 0
M  V30 914 H 85.2717 4.01597 -1.11917 0
M  V30 915 H 83.9317 3.2384 -0.236124 0
M  V30 916 H 84.9427 3.37196 -3.93089 0
M  V30 917 H 81.6197 3.92929 -1.41113 0
M  V30 918 H 83.0097 3.92588 -5.45274 0
M  V30 919 N 85.7298 1.2412 0.971189 0
M  V30 920 C 86.9548 1.10667 1.75407 0
M  V30 921 C 87.3798 -0.337048 1.85056 0
M  V30 922 O 86.7378 -1.24396 1.31892 0
M  V30 923 C 86.7858 1.74726 3.15441 0
M  V30 924 O 85.8898 1.01566 3.99697 0
M  V30 925 H 85.2308 0.387341 0.539317 0
M  V30 926 H 87.7608 1.64358 1.2185 0
M  V30 927 H 87.7708 1.80341 3.6598 0
M  V30 928 H 86.4458 2.79773 3.07734 0
M  V30 929 H 85.0228 1.03713 3.58187 0
M  V30 930 N 87.2079 -1.17134 1.05439 0
M  V30 931 C 88.4549 -1.87456 0.765942 0
M  V30 932 C 88.7829 -1.81189 -0.707153 0
M  V30 933 O 88.0379 -1.21633 -1.5331 0
M  V30 934 C 88.3369 -3.36833 1.19491 0
M  V30 935 C 88.0029 -3.63301 2.67063 0
M  V30 936 C 86.6649 -3.70234 3.07376 0
M  V30 937 C 89.0169 -3.74575 3.62413 0
M  V30 938 C 86.3449 -3.85933 4.41896 0
M  V30 939 C 88.6969 -3.91793 4.9667 0
M  V30 940 C 87.3609 -3.96966 5.36633 0
M  V30 941 H 86.6309 -0.685948 0.280278 0
M  V30 942 H 89.2779 -1.38556 1.32192 0
M  V30 943 H 87.5829 -3.87807 0.557969 0
M  V30 944 H 89.2799 -3.89611 0.948893 0
M  V30 945 H 85.8699 -3.58532 2.34846 0
M  V30 946 H 90.0539 -3.68537 3.32406 0
M  V30 947 H 85.3099 -3.88187 4.72357 0
M  V30 948 H 89.4839 -3.99458 5.70444 0
M  V30 949 H 87.1109 -4.08883 6.40874 0
M  V30 950 N 88.686 -0.835752 -1.33615 0
M  V30 951 C 89.636 -0.238856 -2.26745 0
M  V30 952 C 90.62 0.604343 -1.49119 0
M  V30 953 O 91.812 0.456822 -1.71003 0
M  V30 954 C 88.941 0.587725 -3.38232 0
M  V30 955 C 88.027 -0.266811 -4.2326 0
M  V30 956 N 88.418 -1.34403 -4.87616 0
M  V30 957 C 86.716 -0.0533131 -4.45968 0
M  V30 958 C 87.417 -1.86819 -5.50884 0
M  V30 959 N 86.393 -1.17013 -5.30857 0
M  V30 960 H 90.195 -1.06266 -2.74016 0
M  V30 961 H 87.709 -0.679881 -1.47483 0
M  V30 962 H 89.706 1.03161 -4.03935 0
M  V30 963 H 88.366 1.40954 -2.9251 0
M  V30 964 H 89.377 -1.7269 -4.88261 0
M  V30 965 H 86.054 0.735312 -4.10974 0
M  V30 966 H 87.444 -2.7701 -6.1214 0
M  V30 967 N 90.1641 1.46063 -0.591896 0
M  V30 968 C 91.3891 2.07226 -0.0850314 0
M  V30 969 C 91.8141 1.43625 1.21463 0
M  V30 970 O 91.1721 0.523305 1.73583 0
M  V30 971 C 91.2201 3.60554 0.0576567 0
M  V30 972 O 90.3241 3.97128 1.11188 0
M  V30 973 H 89.6651 0.660615 -0.0669568 0
M  V30 974 H 92.1951 1.8756 -0.81745 0
M  V30 975 H 92.2051 4.07165 0.2609 0
M  V30 976 H 90.8801 4.06235 -0.891416 0
M  V30 977 H 89.4571 3.62213 0.886356 0
M  V30 978 N 91.6422 0.330177 1.54103 0
M  V30 979 C 92.8722 -0.271784 2.04805 0
M  V30 980 C 93.2802 -1.45816 1.20559 0
M  V30 981 O 92.6232 -1.82247 0.2306 0
M  V30 982 C 92.6852 -0.763238 3.51305 0
M  V30 983 C 92.3492 0.301705 4.56003 0
M  V30 984 C 93.3462 1.13999 5.07248 0
M  V30 985 C 91.0312 0.451793 5.00264 0
M  V30 986 C 93.0252 2.11402 6.01322 0
M  V30 987 C 90.7122 1.42924 5.94151 0
M  V30 988 C 91.7102 2.25882 6.44567 0
M  V30 989 O 91.3982 3.21965 7.3661 0
M  V30 990 H 91.1302 -0.058693 0.673447 0
M  V30 991 H 93.6842 0.476395 1.99799 0
M  V30 992 H 91.9142 -1.56244 3.5373 0
M  V30 993 H 93.6032 -1.28427 3.85047 0
M  V30 994 H 94.3692 1.03505 4.73827 0
M  V30 995 H 90.2482 -0.184044 4.60632 0
M  V30 996 H 93.7922 2.76192 6.40596 0
M  V30 997 H 89.6892 1.53479 6.26988 0
M  V30 998 H 90.4572 3.17281 7.54503 0
M  V30 999 N 93.1203 -1.57491 0.0584922 0
M  V30 1000 C 94.3673 -1.92978 -0.613648 0
M  V30 1001 C 94.6953 -0.937461 -1.70417 0
M  V30 1002 O 93.9503 0.049078 -1.95638 0
M  V30 1003 C 94.2493 -3.3513 -1.24188 0
M  V30 1004 C 93.9153 -4.50037 -0.278826 0
M  V30 1005 C 92.5773 -4.81198 -0.0138447 0
M  V30 1006 C 94.9293 -5.19807 0.380777 0
M  V30 1007 C 92.2573 -5.79473 0.918052 0
M  V30 1008 C 94.6093 -6.19079 1.30091 0
M  V30 1009 C 93.2733 -6.48665 1.57449 0
M  V30 1010 H 92.5433 -0.706157 -0.22455 0
M  V30 1011 H 95.1903 -1.91082 0.126533 0
M  V30 1012 H 93.4953 -3.33429 -2.05749 0
M  V30 1013 H 95.1923 -3.59871 -1.769 0
M  V30 1014 H 91.7823 -4.25726 -0.495539 0
M  V30 1015 H 95.9663 -4.95939 0.189158 0
M  V30 1016 H 91.2223 -6.00727 1.1374 0
M  V30 1017 H 95.3963 -6.7225 1.81804 0
M  V30 1018 H 93.0233 -7.24628 2.29822 0
M  V30 1019 N 94.5984 0.214957 -1.56127 0
M  V30 1020 C 95.5284 1.2695 -1.95974 0
M  V30 1021 C 96.5094 1.48539 -0.828868 0
M  V30 1022 O 97.6944 1.60611 -1.09168 0
M  V30 1023 C 94.8244 2.61794 -2.28214 0
M  V30 1024 C 93.7784 2.54851 -3.43853 0
M  V30 1025 C 93.1044 3.93785 -3.61715 0
M  V30 1026 C 94.4044 2.09065 -4.78632 0
M  V30 1027 H 96.0984 0.93846 -2.84312 0
M  V30 1028 H 93.6444 0.449996 -1.36788 0
M  V30 1029 H 95.5974 3.35731 -2.54682 0
M  V30 1030 H 94.3214 2.96599 -1.36736 0
M  V30 1031 H 92.9804 1.8337 -3.17444 0
M  V30 1032 H 92.6284 4.25908 -2.67602 0
M  V30 1033 H 92.3284 3.90019 -4.39498 0
M  V30 1034 H 93.8524 4.69374 -3.90539 0
M  V30 1035 H 95.2664 2.7275 -5.04262 0
M  V30 1036 H 93.6634 2.16346 -5.59745 0
M  V30 1037 H 94.7334 1.04315 -4.73547 0
M  V30 1038 N 96.0765 1.50051 0.48192 0
M  V30 1039 C 97.4925 1.37237 0.814756 0
M  V30 1040 C 97.6925 0.420109 1.97072 0
M  V30 1041 O 96.7485 -0.141246 2.52105 0
M  V30 1042 C 98.0615 2.78375 1.13701 0
M  V30 1043 C 99.6095 2.87213 1.2441 0
M  V30 1044 C 100.084 4.29161 1.59954 0
M  V30 1045 N 101.575 4.32061 1.66967 0
M  V30 1046 C 102.31 5.38879 1.95952 0
M  V30 1047 N 101.806 6.55918 2.23031 0
M  V30 1048 N 103.599 5.26312 1.97363 0
M  V30 1049 H 95.7505 2.10546 -0.28005 0
M  V30 1050 H 98.0135 0.945921 -0.0627454 0
M  V30 1051 H 97.7195 3.49845 0.360787 0
M  V30 1052 H 97.5935 3.14941 2.07586 0
M  V30 1053 H 99.9805 2.15969 2.01101 0
M  V30 1054 H 100.061 2.54204 0.285299 0
M  V30 1055 H 99.7055 5.00938 0.838067 0
M  V30 1056 H 99.6355 4.59648 2.56966 0
M  V30 1057 H 102.126 3.47661 1.48123 0
M  V30 1058 H 102.439 7.33139 2.44391 0
M  V30 1059 H 100.784 6.59112 2.20447 0
M  V30 1060 H 103.975 4.33876 1.75697 0
M  V30 1061 H 104.148 6.09649 2.19618 0
M  V30 1062 N 97.5546 -0.734337 1.39446 0
M  V30 1063 C 98.9656 -1.31264 1.32766 0
M  V30 1064 C 99.3166 -1.96198 -0.00767497 0
M  V30 1065 O 98.4416 -1.96346 -0.909796 0
M  V30 1066 C 99.0366 -2.38682 2.4045 0
M  V30 1067 C 97.5956 -2.92184 2.37288 0
M  V30 1068 C 96.7426 -1.6576 2.22304 0
M  V30 1069 H 99.6936 -0.531799 1.49525 0
M  V30 1070 H 99.7146 -3.19087 2.07276 0
M  V30 1071 H 99.2266 -1.91392 3.37625 0
M  V30 1072 H 97.3276 -3.43752 1.43754 0
M  V30 1073 H 97.4406 -3.45253 3.3217 0
M  V30 1074 H 95.8046 -1.9012 1.69489 0
M  V30 1075 H 96.5876 -1.20521 3.21449 0
M  V30 1076 N 99.0327 -1.24633 -0.964593 0
M  V30 1077 C 100.281 -1.08573 -1.70459 0
M  V30 1078 C 100.602 0.375655 -1.91347 0
M  V30 1079 O 99.8717 1.26779 -1.49345 0
M  V30 1080 H 98.4517 -0.398784 -0.631649 0
M  V30 1081 H 101.114 -1.56601 -1.16026 0
M  V30 1082 H 100.21 -1.58623 -2.68785 0
M  V30 1083 N 100.511 1.16574 -1.06058 0
M  V30 1084 C 101.788 1.83048 -0.689416 0
M  V30 1085 C 102.168 1.94122 0.829443 0
M  V30 1086 O 101.516 1.48249 1.7388 0
M  V30 1087 C 101.726 3.20186 -1.38859 0
M  V30 1088 C 103.074 3.95989 -1.53226 0
M  V30 1089 O 104.098 3.29696 -1.3483 0
M  V30 1090 O 102.957 5.14813 -1.83384 0
M  V30 1091 H 100.051 0.790258 -0.243764 0
M  V30 1092 H 102.597 1.23797 -1.16071 0
M  V30 1093 H 101.369 3.07146 -2.4244 0
M  V30 1094 H 100.992 3.87112 -0.907216 0
M  V30 1095 N 101.989 0.842826 1.3317 0
M  V30 1096 C 103.214 0.453129 2.02389 0
M  V30 1097 C 103.639 -0.939105 1.6298 0
M  V30 1098 O 102.997 -1.61472 0.8244 0
M  V30 1099 C 103.045 0.586094 3.55805 0
M  V30 1100 O 102.149 -0.386029 4.10589 0
M  V30 1101 H 101.49 0.183664 0.638094 0
M  V30 1102 H 104.02 1.13875 1.69981 0
M  V30 1103 H 104.03 0.469209 4.05293 0
M  V30 1104 H 102.705 1.6014 3.83833 0
M  V30 1105 H 101.282 -0.226371 3.72212 0
M  V30 1106 N 103.467 -1.45747 0.599634 0
M  V30 1107 C 104.414 -2.30467 -0.123849 0
M  V30 1108 C 105.384 -1.41632 -0.86774 0
M  V30 1109 O 106.569 -1.70568 -0.855056 0
M  V30 1110 C 103.709 -3.26402 -1.12051 0
M  V30 1111 C 102.822 -4.3034 -0.37832 0
M  V30 1112 C 101.957 -5.13389 -1.364 0
M  V30 1113 C 100.996 -6.09061 -0.609171 0
M  V30 1114 N 100.133 -6.84918 -1.54374 0
M  V30 1115 H 104.973 -2.91802 0.604627 0
M  V30 1116 H 102.51 -1.43797 0.309972 0
M  V30 1117 H 104.468 -3.80482 -1.7114 0
M  V30 1118 H 103.098 -2.66839 -1.8165 0
M  V30 1119 H 102.15 -3.78984 0.327929 0
M  V30 1120 H 103.462 -4.98354 0.210997 0
M  V30 1121 H 102.616 -5.7183 -2.02719 0
M  V30 1122 H 101.355 -4.45376 -1.98725 0
M  V30 1123 H 100.36 -5.49758 0.0676979 0
M  V30 1124 H 101.585 -6.79099 0.00891991 0
M  V30 1125 H 99.531 -6.19601 -2.15478 0
M  V30 1126 H 99.448 -7.49254 -1.00766 0
M  V30 1127 H 100.716 -7.47906 -2.19676 0
M  V30 1128 N 104.945 -0.338344 -1.53925 0
M  V30 1129 C 105.892 0.520845 -2.24846 0
M  V30 1130 C 106.862 1.09976 -1.24477 0
M  V30 1131 O 108.047 1.13735 -1.53196 0
M  V30 1132 C 105.187 1.6685 -3.02084 0
M  V30 1133 C 104.3 1.11739 -4.17299 0
M  V30 1134 C 103.435 2.23193 -4.82036 0
M  V30 1135 C 102.474 1.65407 -5.89328 0
M  V30 1136 N 101.611 2.70582 -6.47866 0
M  V30 1137 H 106.451 -0.0904881 -2.97863 0
M  V30 1138 H 103.988 -0.0564282 -1.46992 0
M  V30 1139 H 105.946 2.34407 -3.45122 0
M  V30 1140 H 104.576 2.2509 -2.31375 0
M  V30 1141 H 103.628 0.332919 -3.7894 0
M  V30 1142 H 104.94 0.654677 -4.94485 0
M  V30 1143 H 104.094 2.98626 -5.28117 0
M  V30 1144 H 102.833 2.72807 -4.04262 0
M  V30 1145 H 101.838 0.884779 -5.42634 0
M  V30 1146 H 103.063 1.16652 -6.69006 0
M  V30 1147 H 101.009 3.1946 -5.72959 0
M  V30 1148 H 100.926 2.28917 -7.20509 0
M  V30 1149 H 102.194 3.45799 -6.98601 0
M  V30 1150 N 106.423 1.57458 -0.0668435 0
M  V30 1151 C 107.834 1.80776 0.466558 0
M  V30 1152 C 108.185 0.980361 1.69951 0
M  V30 1153 O 107.31 0.201441 2.1546 0
M  V30 1154 C 107.905 3.27881 0.85321 0
M  V30 1155 C 106.464 3.52062 1.3315 0
M  V30 1156 C 105.611 2.75513 0.314264 0
M  V30 1157 H 108.562 1.5598 -0.292588 0
M  V30 1158 H 108.583 3.39659 1.715 0
M  V30 1159 H 108.095 3.88075 -0.0443439 0
M  V30 1160 H 106.196 2.97167 2.24772 0
M  V30 1161 H 106.309 4.60762 1.31285 0
M  V30 1162 H 104.673 2.42123 0.790492 0
M  V30 1163 H 105.456 3.38442 -0.575477 0
M  V30 1164 N 107.901 -0.206675 1.56239 0
M  V30 1165 C 109.15 -0.926964 1.79138 0
M  V30 1166 C 109.463 -1.84901 0.638043 0
M  V30 1167 O 110.669 -2.60906 0.751033 0
M  V30 1168 C 109.125 -1.6986 3.17294 0
M  V30 1169 C 108.733 -0.821956 4.40395 0
M  V30 1170 C 110.477 -2.40922 3.4951 0
M  V30 1171 C 108.384 -1.59179 5.69575 0
M  V30 1172 H 107.314 -0.349864 0.667915 0
M  V30 1173 H 109.965 -0.180487 1.8261 0
M  V30 1174 H 108.347 -2.48853 3.08039 0
M  V30 1175 H 109.521 -0.0715019 4.60745 0
M  V30 1176 H 107.836 -0.222741 4.15804 0
M  V30 1177 H 110.433 -2.99047 4.43255 0
M  V30 1178 H 110.776 -3.14542 2.72707 0
M  V30 1179 H 111.309 -1.68905 3.60161 0
M  V30 1180 H 108.048 -0.898589 6.49312 0
M  V30 1181 H 107.568 -2.31648 5.53262 0
M  V30 1182 H 109.247 -2.14862 6.10281 0
M  V30 1183 N 109.379 -1.50304 -0.473955 0
M  V30 1184 C 110.628 -1.60392 -1.22301 0
M  V30 1185 C 110.941 -0.308411 -1.93153 0
M  V30 1186 O 112.147 -0.288156 -2.69966 0
M  V30 1187 C 110.603 -2.83109 -2.2221 0
M  V30 1188 C 110.211 -4.19524 -1.57173 0
M  V30 1189 C 111.955 -3.0254 -2.97775 0
M  V30 1190 C 109.862 -5.33431 -2.55353 0
M  V30 1191 H 108.792 -0.597286 -0.460179 0
M  V30 1192 H 111.443 -1.76731 -0.493803 0
M  V30 1193 H 109.825 -2.60322 -2.9841 0
M  V30 1194 H 110.999 -4.52554 -0.867824 0
M  V30 1195 H 109.314 -4.05674 -0.939002 0
M  V30 1196 H 111.911 -3.84811 -3.71248 0
M  V30 1197 H 112.254 -2.14154 -3.56992 0
M  V30 1198 H 112.787 -3.25494 -2.28688 0
M  V30 1199 H 109.526 -6.23962 -2.00878 0
M  V30 1200 H 109.046 -5.04823 -3.23904 0
M  V30 1201 H 110.725 -5.63887 -3.17239 0
M  V30 1202 N 110.857 0.726932 -1.39834 0
M  V30 1203 C 112.087 1.51393 -1.40583 0
M  V30 1204 C 112.495 1.892 -0.000740625 0
M  V30 1205 O 111.838 1.55189 0.982951 0
M  V30 1206 C 111.9 2.82588 -2.22226 0
M  V30 1207 C 111.564 2.67169 -3.70769 0
M  V30 1208 C 112.561 2.3518 -4.63666 0
M  V30 1209 C 110.246 2.83788 -4.14451 0
M  V30 1210 C 112.24 2.20002 -5.98229 0
M  V30 1211 C 109.927 2.68229 -5.49087 0
M  V30 1212 C 110.925 2.36382 -6.4079 0
M  V30 1213 O 110.613 2.2093 -7.72946 0
M  V30 1214 H 110.345 0.474168 -0.48181 0
M  V30 1215 H 112.899 0.905247 -1.84376 0
M  V30 1216 H 111.129 3.45746 -1.73195 0
M  V30 1217 H 112.818 3.44247 -2.15055 0
M  V30 1218 H 113.584 2.21984 -4.31217 0
M  V30 1219 H 109.463 3.07566 -3.43401 0
M  V30 1220 H 113.007 1.95067 -6.69772 0
M  V30 1221 H 108.904 2.81006 -5.81125 0
M  V30 1222 H 109.672 2.35937 -7.83757 0
M  V30 1223 N 112.336 1.25143 0.95797 0
M  V30 1224 C 113.613 1.00472 1.67823 0
M  V30 1225 C 113.993 -0.470056 2.058 0
M  V30 1226 O 113.341 -1.44663 1.76875 0
M  V30 1227 C 113.551 1.9372 2.90299 0
M  V30 1228 C 114.899 2.21371 3.62326 0
M  V30 1229 O 115.923 1.91451 3.00375 0
M  V30 1230 O 114.782 2.72231 4.7387 0
M  V30 1231 H 111.876 0.380752 0.734137 0
M  V30 1232 H 114.422 1.36283 1.01119 0
M  V30 1233 H 113.194 2.93316 2.59001 0
M  V30 1234 H 112.817 1.58286 3.64735 0
M  V30 1235 N 113.814 -1.1601 1.06675 0
M  V30 1236 C 115.06 -1.86909 0.786945 0
M  V30 1237 C 115.393 -1.81717 -0.685018 0
M  V30 1238 O 114.668 -1.23551 -1.50218 0
M  V30 1239 C 114.951 -3.36313 1.28707 0
M  V30 1240 C 114.804 -3.50175 2.82308 0
M  V30 1241 C 116.123 -4.3084 0.898071 0
M  V30 1242 H 113.242 -0.678677 0.287343 0
M  V30 1243 H 115.884 -1.36336 1.32334 0
M  V30 1244 H 114.034 -3.79513 0.830768 0
M  V30 1245 H 115.706 -3.15886 3.36175 0
M  V30 1246 H 113.949 -2.91959 3.20847 0
M  V30 1247 H 114.62 -4.55116 3.12368 0
M  V30 1248 H 117.096 -3.95561 1.29114 0
M  V30 1249 H 115.972 -5.33876 1.27543 0
M  V30 1250 H 116.233 -4.41662 -0.196651 0
M  V30 1251 N 115.292 -0.849877 -1.32721 0
M  V30 1252 C 116.202 -0.293791 -2.32753 0
M  V30 1253 C 117.218 0.585906 -1.63839 0
M  V30 1254 O 118.394 0.487413 -1.95413 0
M  V30 1255 C 115.459 0.512752 -3.42887 0
M  V30 1256 C 114.52 -0.39252 -4.27502 0
M  V30 1257 C 113.753 0.375625 -5.32377 0
M  V30 1258 O 113.976 1.60613 -5.4732 0
M  V30 1259 O 112.91 -0.256094 -6.01355 0
M  V30 1260 H 116.736 -1.12242 -2.82197 0
M  V30 1261 H 114.321 -0.612685 -1.36259 0
M  V30 1262 H 116.203 0.970704 -4.10067 0
M  V30 1263 H 114.878 1.31826 -2.95641 0
M  V30 1264 H 113.785 -0.898547 -3.63149 0
M  V30 1265 H 115.118 -1.16309 -4.7826 0
M  V30 1266 N 116.77 1.45427 -0.607355 0
M  V30 1267 C 117.998 2.06614 -0.108814 0
M  V30 1268 C 118.413 1.45204 1.2067 0
M  V30 1269 O 117.77 0.566132 1.73497 0
M  V30 1270 C 117.821 3.61481 0.0375347 0
M  V30 1271 O 117.542 4.20598 -1.22593 0
M  V30 1272 C 119.043 4.39652 0.567561 0
M  V30 1273 H 116.263 0.66747 -0.0687351 0
M  V30 1274 H 118.807 1.86675 -0.835022 0
M  V30 1275 H 116.962 3.80762 0.714068 0
M  V30 1276 H 117.376 5.1377 -1.05547 0
M  V30 1277 H 118.85 5.48518 0.61905 0
M  V30 1278 H 119.327 4.09417 1.58978 0
M  V30 1279 H 119.933 4.25234 -0.0749202 0
M  V30 1280 N 118.248 0.346503 1.53744 0
M  V30 1281 C 119.178 -0.501193 2.28058 0
M  V30 1282 C 120.159 -1.10014 1.29734 0
M  V30 1283 O 121.344 -1.12097 1.58581 0
M  V30 1284 C 118.474 -1.65078 3.05559 0
M  V30 1285 C 117.428 -1.18003 4.11411 0
M  V30 1286 C 116.754 -2.41837 4.76884 0
M  V30 1287 C 118.054 -0.278394 5.21558 0
M  V30 1288 H 119.748 0.11875 2.99164 0
M  V30 1289 H 117.294 0.0585531 1.43881 0
M  V30 1290 H 119.247 -2.25028 3.56287 0
M  V30 1291 H 117.971 -2.29767 2.32109 0
M  V30 1292 H 116.63 -0.603331 3.61601 0
M  V30 1293 H 116.278 -3.0494 4.00026 0
M  V30 1294 H 115.978 -2.1102 5.48402 0
M  V30 1295 H 117.502 -3.02508 5.30397 0
M  V30 1296 H 118.916 -0.784823 5.67903 0
M  V30 1297 H 117.313 -0.0619707 6.00068 0
M  V30 1298 H 118.383 0.684677 4.80042 0
M  V30 1299 N 119.726 -1.57421 0.075193 0
M  V30 1300 C 121.142 -1.57099 -0.281444 0
M  V30 1301 C 121.342 -1.08486 -1.69803 0
M  V30 1302 O 120.398 -0.752279 -2.41033 0
M  V30 1303 C 121.711 -3.00571 -0.0880041 0
M  V30 1304 C 123.259 -3.12605 -0.157281 0
M  V30 1305 C 123.734 -4.57999 0.0079207 0
M  V30 1306 N 125.225 -4.63176 -0.0475725 0
M  V30 1307 C 125.96 -5.73373 0.0557876 0
M  V30 1308 N 125.456 -6.92473 0.21286 0
M  V30 1309 N 127.249 -5.621 -0.00152098 0
M  V30 1310 H 119.4 -1.87335 1.00098 0
M  V30 1311 H 121.663 -0.86377 0.390646 0
M  V30 1312 H 121.369 -3.40262 0.889629 0
M  V30 1313 H 121.243 -3.67754 -0.838875 0
M  V30 1314 H 123.63 -2.72798 -1.1254 0
M  V30 1315 H 123.711 -2.48053 0.62475 0
M  V30 1316 H 123.355 -4.98496 0.972824 0
M  V30 1317 H 123.285 -5.20586 -0.793556 0
M  V30 1318 H 125.776 -3.7753 -0.167244 0
M  V30 1319 H 126.089 -7.72279 0.283781 0
M  V30 1320 H 124.434 -6.94556 0.248267 0
M  V30 1321 H 127.625 -4.67938 -0.122958 0
M  V30 1322 H 127.798 -6.47948 0.0824844 0
M  V30 1323 N 121.204 0.198386 -1.56346 0
M  V30 1324 C 122.481 0.944982 -1.71258 0
M  V30 1325 C 122.861 2.0151 -0.629048 0
M  V30 1326 O 122.209 2.25639 0.360473 0
M  V30 1327 C 122.419 1.5344 -3.1346 0
M  V30 1328 C 123.767 2.01778 -3.73591 0
M  V30 1329 O 124.791 1.63288 -3.16568 0
M  V30 1330 O 123.65 2.72594 -4.73661 0
M  V30 1331 H 120.744 0.442939 -0.69838 0
M  V30 1332 H 123.29 0.188342 -1.68652 0
M  V30 1333 H 122.062 0.762869 -3.83792 0
M  V30 1334 H 121.685 2.35596 -3.20282 0
M  V30 1335 N 122.682 1.50554 0.465978 0
M  V30 1336 C 123.93 1.61479 1.21528 0
M  V30 1337 C 124.251 0.319596 1.92363 0
M  V30 1338 O 123.521 -0.663194 1.84333 0
M  V30 1339 H 122.101 0.595055 0.451573 0
M  V30 1340 H 124.763 1.87355 0.53704 0
M  V30 1341 H 123.859 2.42846 1.96042 0
M  V30 1342 N 124.16 -0.719506 1.40217 0
M  V30 1343 C 125.108 -1.85493 1.40339 0
M  V30 1344 C 126.102 -1.66995 0.284415 0
M  V30 1345 O 127.308 -1.74148 0.455252 0
M  V30 1346 H 123.683 -0.610857 0.438586 0
M  V30 1347 H 125.654 -1.82506 2.36081 0
M  V30 1348 C 124.403 -3.23321 1.27901 0
M  V30 1349 H 123.726 -3.38159 2.1328 0
M  V30 1350 H 125.166 -4.02914 1.32045 0
M  V30 1351 C 123.625 -3.36898 -0.0111355 0
M  V30 1352 O 124.155 -3.89674 -0.975538 0
M  V30 1353 N 122.361 -2.90492 -0.0793393 0
M  V30 1354 H 121.908 -2.47731 0.706183 0
M  V30 1355 H 121.866 -2.99955 -0.942038 0
M  V30 1356 N 125.638 -1.25649 -0.95132 0
M  V30 1357 C 126.863 -1.13443 -1.73624 0
M  V30 1358 C 127.288 0.307565 -1.85568 0
M  V30 1359 O 126.646 1.22282 -1.33854 0
M  V30 1360 C 126.694 -1.79723 -3.12621 0
M  V30 1361 O 125.798 -1.07912 -3.98031 0
M  V30 1362 H 125.139 -0.395872 -0.533086 0
M  V30 1363 H 127.669 -1.66276 -1.1922 0
M  V30 1364 H 127.679 -1.86141 -3.63064 0
M  V30 1365 H 126.354 -2.84633 -3.03244 0
M  V30 1366 H 124.931 -1.09398 -3.56492 0
M  V30 1367 N 127.117 1.15442 -1.07289 0
M  V30 1368 C 128.364 1.86213 -0.795668 0
M  V30 1369 C 128.692 1.82291 0.678238 0
M  V30 1370 O 127.947 1.24057 1.51355 0
M  V30 1371 C 128.246 3.3489 -1.24834 0
M  V30 1372 C 127.912 3.59007 -2.72809 0
M  V30 1373 C 126.574 3.65298 -3.13227 0
M  V30 1374 C 128.926 3.68762 -3.68326 0
M  V30 1375 C 126.254 3.78854 -4.4798 0
M  V30 1376 C 128.606 3.83842 -5.0284 0
M  V30 1377 C 127.27 3.88378 -5.4288 0
M  V30 1378 H 126.54 0.681403 -0.291155 0
M  V30 1379 H 129.187 1.36435 -1.34379 0
M  V30 1380 H 127.492 3.8687 -0.619595 0
M  V30 1381 H 129.189 3.88052 -1.01076 0
M  V30 1382 H 125.779 3.5475 -2.40521 0
M  V30 1383 H 129.963 3.63202 -3.38227 0
M  V30 1384 H 125.219 3.80623 -4.78472 0
M  V30 1385 H 129.393 3.90332 -5.76727 0
M  V30 1386 H 127.02 3.98635 -6.47298 0
M  V30 1387 N 128.595 0.856903 1.32268 0
M  V30 1388 C 129.82 0.474569 2.01897 0
M  V30 1389 C 130.245 -0.921766 1.63967 0
M  V30 1390 O 129.603 -1.60589 0.84148 0
M  V30 1391 C 129.651 0.623799 3.55164 0
M  V30 1392 O 128.755 -0.342459 4.10976 0
M  V30 1393 H 128.096 0.190422 0.63611 0
M  V30 1394 H 130.626 1.15672 1.68764 0
M  V30 1395 H 130.636 0.512169 4.04773 0
M  V30 1396 H 129.311 1.64202 3.82113 0
M  V30 1397 H 127.888 -0.18688 3.72431 0
M  V30 1398 N 130.073 -1.45103 0.615059 0
M  V30 1399 C 131.036 -2.29025 -0.0895485 0
M  V30 1400 C 132.036 -1.40174 -0.787906 0
M  V30 1401 O 133.226 -1.62217 -0.634933 0
M  V30 1402 C 130.358 -3.21376 -1.13711 0
M  V30 1403 H 131.551 -2.92807 0.648382 0
M  V30 1404 H 129.104 -1.51749 0.374444 0
M  V30 1405 H 129.839 -2.6241 -1.90556 0
M  V30 1406 H 129.624 -3.86834 -0.640475 0
M  V30 1407 H 131.114 -3.84459 -1.63036 0
M  V30 1408 N 131.551 -0.354651 -1.53558 0
M  V30 1409 C 132.967 -0.00315426 -1.596 0
M  V30 1410 C 133.167 1.47741 -1.37021 0
M  V30 1411 O 132.223 2.23759 -1.16996 0
M  V30 1412 C 133.536 -0.44929 -2.97325 0
M  V30 1413 C 135.084 -0.402578 -3.104 0
M  V30 1414 C 135.559 -0.824355 -4.5052 0
M  V30 1415 N 137.05 -0.778979 -4.56603 0
M  V30 1416 C 137.785 -1.07715 -5.63192 0
M  V30 1417 N 137.281 -1.44405 -6.77583 0
M  V30 1418 N 139.074 -1.00066 -5.53121 0
M  V30 1419 H 131.225 -1.31893 -1.66487 0
M  V30 1420 H 133.488 -0.538388 -0.780284 0
M  V30 1421 H 133.194 -1.48202 -3.1895 0
M  V30 1422 H 133.068 0.169772 -3.76818 0
M  V30 1423 H 135.455 0.621004 -2.88492 0
M  V30 1424 H 135.536 -1.05699 -2.32941 0
M  V30 1425 H 135.18 -1.846 -4.73165 0
M  V30 1426 H 135.11 -0.147304 -5.26394 0
M  V30 1427 H 137.601 -0.508528 -3.74463 0
M  V30 1428 H 137.914 -1.65612 -7.54846 0
M  V30 1429 H 136.259 -1.4826 -6.79002 0
M  V30 1430 H 139.45 -0.713293 -4.62633 0
M  V30 1431 H 139.623 -1.23638 -6.36096 0
M  V30 1432 N 133.029 1.57378 -0.0835403 0
M  V30 1433 C 134.445 1.57246 0.273109 0
M  V30 1434 C 134.645 1.09385 1.69225 0
M  V30 1435 O 133.701 0.765051 2.40631 0
M  V30 1436 C 135.014 3.00614 0.0720628 0
M  V30 1437 C 136.562 3.12684 0.1407 0
M  V30 1438 C 137.037 4.57989 -0.0322094 0
M  V30 1439 N 138.528 4.63194 0.0230085 0
M  V30 1440 C 139.263 5.73335 -0.0861941 0
M  V30 1441 N 138.759 6.9235 -0.24958 0
M  V30 1442 N 140.552 5.62093 -0.0282886 0
M  V30 1443 H 132.703 1.86801 -1.0109 0
M  V30 1444 H 134.966 0.861687 -0.395222 0
M  V30 1445 H 134.672 3.39786 -0.907662 0
M  V30 1446 H 134.546 3.68193 0.81936 0
M  V30 1447 H 136.933 2.73391 1.11092 0
M  V30 1448 H 137.014 2.47719 -0.637896 0
M  V30 1449 H 136.658 4.97973 -0.999247 0
M  V30 1450 H 136.588 5.21 0.765937 0
M  V30 1451 H 139.079 3.77613 0.14722 0
M  V30 1452 H 139.392 7.72117 -0.324733 0
M  V30 1453 H 137.737 6.94415 -0.285097 0
M  V30 1454 H 140.928 4.67997 0.0981408 0
M  V30 1455 H 141.101 6.47895 -0.116845 0
M  V30 1456 N 134.507 -0.190092 1.56449 0
M  V30 1457 C 135.753 -0.911052 1.81184 0
M  V30 1458 C 136.086 -1.82699 0.658396 0
M  V30 1459 O 135.361 -1.91491 -0.340775 0
M  V30 1460 C 135.644 -1.72297 3.16205 0
M  V30 1461 C 135.497 -0.831419 4.42049 0
M  V30 1462 C 136.816 -2.69454 3.47969 0
M  V30 1463 H 133.935 -0.32977 0.659106 0
M  V30 1464 H 136.577 -0.178169 1.89163 0
M  V30 1465 H 134.727 -2.34778 3.09534 0
M  V30 1466 H 136.399 -0.220929 4.60771 0
M  V30 1467 H 134.642 -0.138406 4.33579 0
M  V30 1468 H 135.313 -1.43461 5.33032 0
M  V30 1469 H 137.789 -2.17104 3.54972 0
M  V30 1470 H 136.665 -3.23342 4.43555 0
M  V30 1471 H 136.926 -3.48744 2.71717 0
M  V30 1472 N 135.985 -1.50799 -0.457987 0
M  V30 1473 C 136.948 -1.7005 -1.53674 0
M  V30 1474 C 137.948 -0.570881 -1.50325 0
M  V30 1475 O 139.138 -0.838126 -1.52712 0
M  V30 1476 C 136.27 -1.73788 -2.93276 0
M  V30 1477 H 137.463 -2.66306 -1.37917 0
M  V30 1478 H 135.016 -1.40477 -0.685271 0
M  V30 1479 H 135.751 -0.792717 -3.14462 0
M  V30 1480 H 135.536 -2.55864 -2.97113 0
M  V30 1481 H 137.026 -1.90591 -3.71571 0
M  V30 1482 N 137.463 0.71206 -1.40597 0
M  V30 1483 C 138.426 1.80785 -1.40888 0
M  V30 1484 C 139.426 1.57937 -0.302103 0
M  V30 1485 O 140.616 1.64913 -0.561182 0
M  V30 1486 C 137.748 3.18927 -1.20409 0
M  V30 1487 H 138.941 1.81924 -2.38419 0
M  V30 1488 H 136.494 0.91805 -1.26497 0
M  V30 1489 H 137.229 3.23436 -0.236522 0
M  V30 1490 H 137.014 3.36911 -2.00582 0
M  V30 1491 H 138.504 3.98949 -1.23408 0
M  V30 1492 N 138.941 1.26152 0.944643 0
M  V30 1493 C 140.19 1.10883 1.68487 0
M  V30 1494 C 140.503 -0.348153 1.92477 0
M  V30 1495 O 141.709 -0.621459 2.64292 0
M  V30 1496 C 140.165 1.93624 3.03377 0
M  V30 1497 C 139.773 3.43875 2.87148 0
M  V30 1498 C 141.517 1.86954 3.81115 0
M  V30 1499 C 139.424 4.18875 4.1749 0
M  V30 1500 H 138.354 0.41135 0.631907 0
M  V30 1501 H 141.005 1.50433 1.05082 0
M  V30 1502 H 139.387 1.46904 3.67743 0
M  V30 1503 H 140.561 3.98338 2.31653 0
M  V30 1504 H 138.876 3.51744 2.22856 0
M  V30 1505 H 141.473 2.40275 4.77673 0
M  V30 1506 H 141.816 0.839518 4.07747 0
M  V30 1507 H 142.349 2.31477 3.23517 0
M  V30 1508 H 139.088 5.22332 3.96043 0
M  V30 1509 H 138.608 3.69193 4.72712 0
M  V30 1510 H 140.287 4.27134 4.85968 0
M  V30 1511 N 140.419 -1.14872 1.07899 0
M  V30 1512 C 141.351 -2.19425 0.662231 0
M  V30 1513 C 142.364 -1.60231 -0.288079 0
M  V30 1514 O 143.553 -1.78336 -0.076534 0
M  V30 1515 C 140.653 -3.38867 -0.0470695 0
M  V30 1516 C 139.826 -4.27597 0.920831 0
M  V30 1517 C 138.885 -5.25616 0.247805 0
M  V30 1518 O 137.911 -5.62189 0.890599 0
M  V30 1519 N 139.113 -5.71746 -1.00435 0
M  V30 1520 H 141.878 -2.55797 1.56166 0
M  V30 1521 H 139.439 -1.30042 0.964404 0
M  V30 1522 H 141.431 -4.01497 -0.50813 0
M  V30 1523 H 140.001 -3.00864 -0.848523 0
M  V30 1524 H 139.221 -3.61982 1.56087 0
M  V30 1525 H 140.509 -4.83748 1.57688 0
M  V30 1526 H 139.907 -5.44153 -1.54642 0
M  V30 1527 H 138.464 -6.36389 -1.40899 0
M  V30 1528 N 141.898 -0.863906 -1.31812 0
M  V30 1529 C 142.846 -0.30422 -2.30602 0
M  V30 1530 C 143.84 0.577419 -1.59255 0
M  V30 1531 O 145.046 0.464194 -1.73912 0
M  V30 1532 H 141.421 -0.0796877 -0.747766 0
M  V30 1533 H 143.392 -1.15148 -2.75288 0
M  V30 1534 C 142.141 0.484617 -3.44306 0
M  V30 1535 H 141.464 -0.18451 -3.99374 0
M  V30 1536 H 142.904 0.841664 -4.15562 0
M  V30 1537 C 141.363 1.6735 -2.92396 0
M  V30 1538 O 141.893 2.77273 -2.90659 0
M  V30 1539 N 140.099 1.50362 -2.48676 0
M  V30 1540 H 139.646 0.609402 -2.50288 0
M  V30 1541 H 139.604 2.30051 -2.14299 0
M  V30 1542 N 143.376 1.44774 -0.622745 0
M  V30 1543 C 144.624 2.01721 -0.123655 0
M  V30 1544 C 144.945 1.49172 1.25589 0
M  V30 1545 O 144.215 0.691974 1.83272 0
M  V30 1546 H 142.795 0.745777 -0.0427225 0
M  V30 1547 H 145.457 1.77382 -0.807559 0
M  V30 1548 H 144.553 3.11984 -0.0849534 0
M  V30 1549 N 144.854 0.36279 1.53368 0
M  V30 1550 C 145.801 -0.485008 2.25646 0
M  V30 1551 C 146.771 -1.07982 1.2621 0
M  V30 1552 O 147.956 -1.11284 1.54986 0
M  V30 1553 C 145.096 -1.62023 3.04701 0
M  V30 1554 C 144.209 -1.05086 4.19024 0
M  V30 1555 C 143.344 -2.15496 4.85525 0
M  V30 1556 C 142.383 -1.5601 5.91884 0
M  V30 1557 N 141.52 -2.60241 6.52088 0
M  V30 1558 H 146.36 0.137864 2.97681 0
M  V30 1559 H 143.897 0.0798061 1.46883 0
M  V30 1560 H 145.855 -2.28887 3.48807 0
M  V30 1561 H 144.485 -2.2138 2.34927 0
M  V30 1562 H 143.537 -0.27259 3.79422 0
M  V30 1563 H 144.849 -0.575926 4.95464 0
M  V30 1564 H 144.003 -2.90186 5.32801 0
M  V30 1565 H 142.742 -2.66341 4.08551 0
M  V30 1566 H 141.747 -0.798338 5.43973 0
M  V30 1567 H 142.972 -1.05994 6.70777 0
M  V30 1568 H 140.918 -3.10304 5.77968 0
M  V30 1569 H 140.835 -2.17426 7.24059 0
M  V30 1570 H 142.103 -3.34641 7.04014 0
M  V30 1571 N 146.332 -1.57332 0.0918853 0
M  V30 1572 C 147.743 -1.81496 -0.437739 0
M  V30 1573 C 148.094 -1.00727 -1.6837 0
M  V30 1574 O 147.219 -0.235694 -2.15113 0
M  V30 1575 C 147.814 -3.29197 -0.800939 0
M  V30 1576 C 146.373 -3.54136 -1.27532 0
M  V30 1577 C 145.52 -2.75979 -0.270392 0
M  V30 1578 H 148.471 -1.55494 0.317366 0
M  V30 1579 H 148.492 -3.42344 -1.66074 0
M  V30 1580 H 148.004 -3.87955 0.106078 0
M  V30 1581 H 146.105 -3.00705 -2.20016 0
M  V30 1582 H 146.218 -4.62792 -1.23938 0
M  V30 1583 H 144.582 -2.43349 -0.751872 0
M  V30 1584 H 145.365 -3.37484 0.629248 0
M  V30 1585 N 147.81 0.181792 -1.56548 0
M  V30 1586 C 149.059 0.898348 -1.8059 0
M  V30 1587 C 149.372 1.83862 -0.667379 0
M  V30 1588 O 150.578 2.59678 -0.792446 0
M  V30 1589 C 149.034 1.64791 -3.19956 0
M  V30 1590 C 148.642 0.751789 -4.41647 0
M  V30 1591 C 150.386 2.35331 -3.53298 0
M  V30 1592 C 148.293 1.50098 -5.72035 0
M  V30 1593 H 147.223 0.339194 -0.673397 0
M  V30 1594 H 149.874 0.151413 -1.82874 0
M  V30 1595 H 148.256 2.43921 -3.11959 0
M  V30 1596 H 149.43 -0.0018076 -4.608 0
M  V30 1597 H 147.745 0.156562 -4.16106 0
M  V30 1598 H 150.342 2.91958 -4.47956 0
M  V30 1599 H 150.685 3.10164 -2.77676 0
M  V30 1600 H 151.218 1.63154 -3.62803 0
M  V30 1601 H 147.957 0.795175 -6.50659 0
M  V30 1602 H 147.477 2.22817 -5.56878 0
M  V30 1603 H 149.156 2.05125 -6.13622 0
M  V30 1604 N 149.288 1.51039 0.449983 0
M  V30 1605 C 150.535 1.63081 1.20045 0
M  V30 1606 C 150.863 0.341024 1.91487 0
M  V30 1607 O 150.118 -0.674276 1.83717 0
M  V30 1608 C 150.417 2.77556 2.25161 0
M  V30 1609 C 150.083 4.17289 1.70823 0
M  V30 1610 C 148.745 4.55305 1.55725 0
M  V30 1611 C 151.097 5.04536 1.3074 0
M  V30 1612 C 148.425 5.78287 0.989999 0
M  V30 1613 C 150.777 6.28085 0.754482 0
M  V30 1614 C 149.441 6.64885 0.590308 0
M  V30 1615 H 148.711 0.596755 0.439277 0
M  V30 1616 H 151.358 1.85037 0.49333 0
M  V30 1617 H 149.663 2.49771 3.01863 0
M  V30 1618 H 151.36 2.84073 2.83026 0
M  V30 1619 H 147.95 3.8731 1.83546 0
M  V30 1620 H 152.134 4.75782 1.41229 0
M  V30 1621 H 147.39 6.05456 0.850451 0
M  V30 1622 H 151.564 6.95038 0.435324 0
M  V30 1623 H 149.191 7.60055 0.14862 0
M  V30 1624 N 150.766 -0.704594 1.40972 0
M  V30 1625 C 151.996 -1.49138 1.42974 0
M  V30 1626 C 152.404 -1.89175 0.0308406 0
M  V30 1627 O 151.747 -1.56734 -0.958138 0
M  V30 1628 C 151.809 -2.79016 2.26694 0
M  V30 1629 C 151.473 -2.61236 3.74973 0
M  V30 1630 C 152.47 -2.27773 4.67349 0
M  V30 1631 C 150.155 -2.77158 4.18914 0
M  V30 1632 C 152.149 -2.10457 6.01653 0
M  V30 1633 C 149.836 -2.59459 5.53285 0
M  V30 1634 C 150.834 -2.26158 6.4447 0
M  V30 1635 O 150.522 -2.08605 7.76363 0
M  V30 1636 H 150.254 -0.466443 0.489292 0
M  V30 1637 H 152.808 -0.8758 1.85793 0
M  V30 1638 H 151.038 -3.42947 1.78673 0
M  V30 1639 H 152.727 -3.40782 2.20504 0
M  V30 1640 H 153.493 -2.15095 4.34694 0
M  V30 1641 H 149.372 -3.02064 3.48251 0
M  V30 1642 H 152.916 -1.84387 6.72791 0
M  V30 1643 H 148.813 -2.71725 5.85522 0
M  V30 1644 H 149.581 -2.23439 7.87412 0
M  V30 1645 N 152.244 -1.26651 -0.937939 0
M  V30 1646 C 153.177 -1.02811 -2.03728 0
M  V30 1647 C 154.155 0.0481915 -1.62529 0
M  V30 1648 O 155.339 -0.0948839 -1.88261 0
M  V30 1649 C 152.466 -0.557517 -3.3408 0
M  V30 1650 C 151.512 -1.62686 -3.94253 0
M  V30 1651 S 152.345 -3.21667 -4.28125 0
M  V30 1652 C 153.501 -2.76384 -5.61572 0
M  V30 1653 H 153.734 -1.95891 -2.23638 0
M  V30 1654 H 151.267 -1.10367 -1.07974 0
M  V30 1655 H 153.225 -0.292674 -4.09455 0
M  V30 1656 H 151.886 0.353062 -3.12109 0
M  V30 1657 H 151.079 -1.24866 -4.88287 0
M  V30 1658 H 150.681 -1.84324 -3.25424 0
M  V30 1659 H 152.973 -2.2105 -6.40424 0
M  V30 1660 H 153.916 -3.69123 -6.0428 0
M  V30 1661 H 154.324 -2.15847 -5.21604 0
M  V30 1662 N 153.722 1.14298 -1.08507 0
M  V30 1663 C 154.95 1.89219 -0.836876 0
M  V30 1664 C 155.365 1.78638 0.611054 0
M  V30 1665 O 154.722 1.14643 1.41998 0
M  V30 1666 C 154.773 3.39158 -1.25116 0
M  V30 1667 O 154.494 3.49449 -2.64229 0
M  V30 1668 C 155.995 4.31073 -1.03398 0
M  V30 1669 H 153.215 0.599328 -0.301739 0
M  V30 1670 H 155.759 1.44746 -1.44461 0
M  V30 1671 H 153.914 3.81251 -0.687514 0
M  V30 1672 H 154.328 4.42589 -2.81452 0
M  V30 1673 H 155.802 5.34646 -1.37323 0
M  V30 1674 H 156.279 4.3919 0.0289259 0
M  V30 1675 H 156.885 3.94738 -1.58311 0
M  V30 1676 N 155.201 0.870884 1.31352 0
M  V30 1677 C 156.164 0.332243 2.26779 0
M  V30 1678 C 157.164 -0.517302 1.52252 0
M  V30 1679 O 158.354 -0.326477 1.71113 0
M  V30 1680 C 155.486 -0.528066 3.36785 0
M  V30 1681 H 156.679 1.17469 2.75937 0
M  V30 1682 H 154.232 0.64655 1.423 0
M  V30 1683 H 154.967 -1.39167 2.92922 0
M  V30 1684 H 154.752 0.0802582 3.92018 0
M  V30 1685 H 156.242 -0.897179 4.07849 0
M  V30 1686 N 156.679 -1.44442 0.630414 0
M  V30 1687 C 157.904 -2.06927 0.139944 0
M  V30 1688 C 158.329 -1.46795 -1.17613 0
M  V30 1689 O 157.687 -0.569144 -1.72135 0
M  V30 1690 C 157.735 -3.6058 0.0379581 0
M  V30 1691 O 156.839 -3.99937 -1.0062 0
M  V30 1692 H 156.18 -0.658608 0.0844483 0
M  V30 1693 H 158.71 -1.85327 0.866891 0
M  V30 1694 H 158.72 -4.07714 -0.152856 0
M  V30 1695 H 157.395 -4.03728 0.998809 0
M  V30 1696 H 155.972 -3.64436 -0.79001 0
M  V30 1697 N 158.157 -0.370918 -1.53173 0
M  V30 1698 C 159.404 0.217102 -2.01333 0
M  V30 1699 C 159.732 1.48338 -1.25802 0
M  V30 1700 O 158.987 1.92698 -0.34146 0
M  V30 1701 C 159.286 0.549696 -3.53147 0
M  V30 1702 C 158.952 -0.622872 -4.46577 0
M  V30 1703 C 157.614 -0.944595 -4.71838 0
M  V30 1704 C 159.966 -1.40819 -5.01816 0
M  V30 1705 C 157.294 -2.05351 -5.49589 0
M  V30 1706 C 159.646 -2.50757 -5.80778 0
M  V30 1707 C 158.31 -2.83458 -6.04324 0
M  V30 1708 H 157.58 0.0794431 -0.736729 0
M  V30 1709 H 160.227 -0.504481 -1.84736 0
M  V30 1710 H 158.532 1.35237 -3.6772 0
M  V30 1711 H 160.229 1.017 -3.87889 0
M  V30 1712 H 156.819 -0.36209 -4.27068 0
M  V30 1713 H 161.003 -1.17289 -4.82242 0
M  V30 1714 H 156.259 -2.3108 -5.6605 0
M  V30 1715 H 160.433 -3.12022 -6.22588 0
M  V30 1716 H 158.06 -3.69508 -6.64355 0
M  V30 1717 N 159.635 1.57281 -0.100228 0
M  V30 1718 C 160.567 2.11342 0.886972 0
M  V30 1719 C 161.58 1.05182 1.24261 0
M  V30 1720 O 162.769 1.32613 1.19483 0
M  V30 1721 C 159.869 2.5825 2.19454 0
M  V30 1722 C 159.042 3.88302 2.01346 0
M  V30 1723 C 158.101 4.21004 3.15661 0
M  V30 1724 O 157.127 4.9014 2.89398 0
M  V30 1725 N 158.329 3.76818 4.41575 0
M  V30 1726 H 161.094 2.96668 0.425216 0
M  V30 1727 H 158.655 1.61678 0.0847334 0
M  V30 1728 H 160.647 2.7717 2.94888 0
M  V30 1729 H 159.217 1.77907 2.57037 0
M  V30 1730 H 158.437 3.7848 1.10212 0
M  V30 1731 H 159.725 4.73375 1.8653 0
M  V30 1732 H 159.123 3.2102 4.65792 0
M  V30 1733 H 157.68 4.00882 5.13942 0
M  V30 1734 N 161.113 -0.173488 1.56642 0
M  V30 1735 C 162.076 -1.19859 1.95362 0
M  V30 1736 C 163.076 -1.37296 0.83704 0
M  V30 1737 O 164.266 -1.34739 1.10413 0
M  V30 1738 C 161.398 -2.56405 2.24654 0
M  V30 1739 H 162.591 -0.867062 2.87092 0
M  V30 1740 H 160.144 -0.415853 1.50666 0
M  V30 1741 H 160.879 -2.94576 1.35631 0
M  V30 1742 H 160.664 -2.45115 3.06041 0
M  V30 1743 H 162.154 -3.30287 2.5554 0
M  V30 1744 N 162.591 -1.51276 -0.441967 0
M  V30 1745 C 164.002 -1.56244 -1.02199 0
M  V30 1746 C 164.353 -0.383149 -1.92422 0
M  V30 1747 O 163.478 0.500613 -2.1053 0
M  V30 1748 C 164.073 -2.83162 -1.86024 0
M  V30 1749 C 162.632 -2.90716 -2.39084 0
M  V30 1750 C 161.779 -2.50858 -1.18175 0
M  V30 1751 H 164.73 -1.5712 -0.223416 0
M  V30 1752 H 164.751 -2.66663 -2.71425 0
M  V30 1753 H 164.263 -3.68974 -1.20331 0
M  V30 1754 H 162.364 -2.09323 -3.08244 0
M  V30 1755 H 162.477 -3.94266 -2.72198 0
M  V30 1756 H 160.841 -2.03951 -1.52565 0
M  V30 1757 H 161.624 -3.3901 -0.541001 0
M  V30 1758 N 164.069 0.697108 -1.41344 0
M  V30 1759 C 164.979 1.84088 -1.45427 0
M  V30 1760 C 165.995 1.70545 -0.34501 0
M  V30 1761 O 167.171 1.92488 -0.592492 0
M  V30 1762 C 164.236 3.20056 -1.33286 0
M  V30 1763 C 163.297 3.45718 -2.54514 0
M  V30 1764 C 162.53 4.75199 -2.42944 0
M  V30 1765 O 162.753 5.51579 -1.45318 0
M  V30 1766 O 161.687 5.0161 -3.32672 0
M  V30 1767 H 165.513 1.836 -2.41919 0
M  V30 1768 H 163.098 0.849966 -1.22866 0
M  V30 1769 H 164.98 4.01236 -1.28794 0
M  V30 1770 H 163.655 3.2123 -0.39909 0
M  V30 1771 H 162.562 2.64474 -2.64583 0
M  V30 1772 H 163.895 3.49356 -3.46715 0
M  V30 1773 N 165.547 1.27147 0.931209 0
M  V30 1774 C 166.51 1.09615 2.01289 0
M  V30 1775 C 167.51 0.0412581 1.60747 0
M  V30 1776 O 168.7 0.285545 1.71844 0
M  V30 1777 C 165.832 0.669447 3.34262 0
M  V30 1778 H 167.025 2.05662 2.18273 0
M  V30 1779 H 164.578 1.09885 1.11153 0
M  V30 1780 H 165.313 -0.292572 3.22978 0
M  V30 1781 H 165.098 1.43127 3.65044 0
M  V30 1782 H 166.588 0.568921 4.13706 0
M  V30 1783 N 167.025 -1.13721 1.09112 0
M  V30 1784 C 168.273 -1.84559 0.823562 0
M  V30 1785 C 168.594 -1.83754 -0.652658 0
M  V30 1786 O 167.864 -1.29102 -1.47342 0
M  V30 1787 H 166.444 -0.683376 0.301673 0
M  V30 1788 H 169.106 -1.37771 1.37859 0
M  V30 1789 H 168.202 -2.8917 1.17419 0
M  V30 1790 N 168.503 -0.877838 -1.30888 0
M  V30 1791 C 169.75 -0.492696 -1.96415 0
M  V30 1792 C 170.078 0.956671 -1.69346 0
M  V30 1793 O 169.333 1.68993 -0.986913 0
M  V30 1794 C 169.632 -0.705748 -3.50363 0
M  V30 1795 C 169.298 -2.1291 -3.97467 0
M  V30 1796 C 167.96 -2.51834 -4.1004 0
M  V30 1797 C 170.312 -3.05702 -4.22132 0
M  V30 1798 C 167.64 -3.82775 -4.44635 0
M  V30 1799 C 169.992 -4.36166 -4.58194 0
M  V30 1800 C 168.656 -4.74993 -4.68975 0
M  V30 1801 H 167.926 -0.18029 -0.718733 0
M  V30 1802 H 170.573 -1.11233 -1.55883 0
M  V30 1803 H 168.878 -0.00303058 -3.918 0
M  V30 1804 H 170.575 -0.387456 -3.99124 0
M  V30 1805 H 167.165 -1.81694 -3.88182 0
M  V30 1806 H 171.349 -2.76853 -4.11906 0
M  V30 1807 H 166.605 -4.12609 -4.51181 0
M  V30 1808 H 170.779 -5.08111 -4.76231 0
M  V30 1809 H 168.406 -5.76495 -4.95537 0
M  V30 1810 N 169.982 1.44106 -0.638065 0
M  V30 1811 C 170.892 2.34513 0.0637334 0
M  V30 1812 C 171.908 1.53018 0.828346 0
M  V30 1813 O 173.084 1.85723 0.779036 0
M  V30 1814 C 170.149 3.31095 1.02844 0
M  V30 1815 C 169.21 4.28497 0.26244 0
M  V30 1816 C 168.443 5.20465 1.1812 0
M  V30 1817 O 168.666 5.16514 2.42011 0
M  V30 1818 O 167.6 5.98251 0.661774 0
M  V30 1819 H 171.426 2.95989 -0.68003 0
M  V30 1820 H 169.011 1.43994 -0.398252 0
M  V30 1821 H 170.893 3.90526 1.58327 0
M  V30 1822 H 169.568 2.72144 1.7527 0
M  V30 1823 H 168.475 3.72592 -0.335602 0
M  V30 1824 H 169.808 4.90388 -0.421936 0
M  V30 1825 N 171.46 0.379036 1.52974 0
M  V30 1826 C 172.41 -0.477772 2.22938 0
M  V30 1827 C 173.394 -1.03792 1.22948 0
M  V30 1828 O 174.586 -0.965725 1.48333 0
M  V30 1829 C 171.715 -1.60994 3.03209 0
M  V30 1830 C 170.801 -1.06203 4.10587 0
M  V30 1831 N 171.192 -0.238214 5.05239 0
M  V30 1832 C 169.49 -1.33554 4.25534 0
M  V30 1833 C 170.191 0.0633235 5.81666 0
M  V30 1834 N 169.167 -0.537901 5.40932 0
M  V30 1835 H 172.969 0.158295 2.93473 0
M  V30 1836 H 170.483 0.187778 1.61311 0
M  V30 1837 H 172.48 -2.23607 3.5186 0
M  V30 1838 H 171.14 -2.24893 2.34207 0
M  V30 1839 H 172.151 0.123695 5.17752 0
M  V30 1840 H 168.828 -1.97632 3.6776 0
M  V30 1841 H 170.218 0.730161 6.67921 0
M  V30 1842 N 172.938 -1.57226 0.108567 0
M  V30 1843 C 173.87 -2.11809 -0.875752 0
M  V30 1844 C 174.883 -1.05839 -1.23701 0
M  V30 1845 O 176.072 -1.33245 -1.18778 0
M  V30 1846 C 173.172 -2.59411 -2.18081 0
M  V30 1847 C 172.345 -3.89364 -1.99284 0
M  V30 1848 C 171.404 -4.22672 -3.13424 0
M  V30 1849 O 170.43 -4.91668 -2.86795 0
M  V30 1850 N 171.632 -3.79154 -4.3957 0
M  V30 1851 H 174.397 -2.9689 -0.409477 0
M  V30 1852 H 171.958 -1.61721 -0.076158 0
M  V30 1853 H 173.95 -2.7873 -2.93414 0
M  V30 1854 H 172.52 -1.79268 -2.5609 0
M  V30 1855 H 171.74 -3.79059 -1.08203 0
M  V30 1856 H 173.028 -4.74358 -1.84017 0
M  V30 1857 H 172.426 -3.23486 -4.64083 0
M  V30 1858 H 170.983 -4.03602 -5.11809 0
M  V30 1859 N 174.416 0.165178 -1.56732 0
M  V30 1860 C 175.363 1.2044 -1.96883 0
M  V30 1861 C 176.333 1.43664 -0.833657 0
M  V30 1862 O 177.518 1.56302 -1.09427 0
M  V30 1863 C 174.658 2.53727 -2.33916 0
M  V30 1864 C 173.771 2.3783 -3.6064 0
M  V30 1865 C 172.906 3.64026 -3.86857 0
M  V30 1866 C 171.945 3.43088 -5.06909 0
M  V30 1867 N 171.082 4.61369 -5.29229 0
M  V30 1868 H 175.922 0.854996 -2.85471 0
M  V30 1869 H 173.459 0.41076 -1.41249 0
M  V30 1870 H 175.417 3.31419 -2.53411 0
M  V30 1871 H 174.047 2.8665 -1.48431 0
M  V30 1872 H 173.099 1.51282 -3.49024 0
M  V30 1873 H 174.411 2.18308 -4.4849 0
M  V30 1874 H 173.565 4.50152 -4.06753 0
M  V30 1875 H 172.304 3.86533 -2.97394 0
M  V30 1876 H 171.309 2.55349 -4.86906 0
M  V30 1877 H 172.534 3.21997 -5.97909 0
M  V30 1878 H 170.48 4.84084 -4.42718 0
M  V30 1879 H 170.397 4.44783 -6.11313 0
M  V30 1880 H 171.665 5.48761 -5.53608 0
M  V30 1881 N 175.894 1.51508 0.433938 0
M  V30 1882 C 177.122 1.68157 1.20543 0
M  V30 1883 C 177.537 0.380362 1.84929 0
M  V30 1884 O 176.894 -0.641446 1.70856 0
M  V30 1885 C 176.945 2.79965 2.28696 0
M  V30 1886 O 176.666 4.05045 1.66943 0
M  V30 1887 C 178.167 3.07912 3.18912 0
M  V30 1888 H 175.387 0.56421 0.363191 0
M  V30 1889 H 177.931 1.97941 0.513754 0
M  V30 1890 H 176.086 2.5277 2.93574 0
M  V30 1891 H 176.5 4.67165 2.38448 0
M  V30 1892 H 177.974 3.89719 3.90926 0
M  V30 1893 H 178.451 2.20456 3.79863 0
M  V30 1894 H 179.057 3.36779 2.59731 0
M  V30 1895 N 177.372 -0.689602 1.41712 0
M  V30 1896 C 178.305 -1.81403 1.3845 0
M  V30 1897 C 179.283 -1.60653 0.250874 0
M  V30 1898 O 180.467 -1.83323 0.43874 0
M  V30 1899 C 177.594 -3.18176 1.1611 0
M  V30 1900 C 176.64 -3.57705 2.3227 0
M  V30 1901 S 177.473 -3.61827 3.94767 0
M  V30 1902 C 178.629 -5.01318 3.74742 0
M  V30 1903 H 178.862 -1.83893 2.33603 0
M  V30 1904 H 176.395 -0.858878 1.28307 0
M  V30 1905 H 178.353 -3.97132 1.03907 0
M  V30 1906 H 177.014 -3.13288 0.225668 0
M  V30 1907 H 176.207 -4.57082 2.12349 0
M  V30 1908 H 175.809 -2.86073 2.40911 0
M  V30 1909 H 178.101 -5.88986 3.34817 0
M  V30 1910 H 179.044 -5.26283 4.73743 0
M  V30 1911 H 179.452 -4.73138 3.07898 0
M  V30 1912 N 178.85 -1.27639 -0.924453 0
M  V30 1913 C 180.261 -1.12834 -1.48746 0
M  V30 1914 C 180.612 0.285505 -1.94112 0
M  V30 1915 O 179.737 1.17874 -1.81479 0
M  V30 1916 C 180.332 -2.04217 -2.70334 0
M  V30 1917 C 178.891 -1.93509 -3.22848 0
M  V30 1918 C 178.038 -1.96583 -1.95577 0
M  V30 1919 H 180.989 -1.40484 -0.738233 0
M  V30 1920 H 181.01 -1.59989 -3.4523 0
M  V30 1921 H 180.522 -3.07111 -2.37285 0
M  V30 1922 H 178.623 -0.936131 -3.60649 0
M  V30 1923 H 178.736 -2.79917 -3.88823 0
M  V30 1924 H 177.1 -1.4085 -2.12211 0
M  V30 1925 H 177.883 -3.01137 -1.64837 0
M  V30 1926 N 180.328 1.1314 -1.09713 0
M  V30 1927 C 181.553 1.88862 -0.857081 0
M  V30 1928 C 181.978 1.78729 0.586304 0
M  V30 1929 O 181.336 1.13692 1.41222 0
M  V30 1930 C 181.384 3.36325 -1.30069 0
M  V30 1931 O 180.488 4.09815 -0.461007 0
M  V30 1932 H 179.829 0.587108 -0.310162 0
M  V30 1933 H 182.359 1.43129 -1.46203 0
M  V30 1934 H 182.369 3.87157 -1.28738 0
M  V30 1935 H 181.044 3.43017 -2.35185 0
M  V30 1936 H 179.621 3.68986 -0.538888 0
M  V30 1937 N 181.806 0.884767 1.30421 0
M  V30 1938 C 182.769 0.356277 2.26414 0
M  V30 1939 C 183.769 -0.501124 1.52792 0
M  V30 1940 O 184.959 -0.30831 1.7145 0
M  V30 1941 C 182.091 -0.492316 3.37326 0
M  V30 1942 H 183.284 1.20389 2.74675 0
M  V30 1943 H 180.837 0.661607 1.41607 0
M  V30 1944 H 181.572 -1.36052 2.94381 0
M  V30 1945 H 181.357 0.121832 3.91911 0
M  V30 1946 H 182.847 -0.853871 4.08777 0
M  V30 1947 N 183.284 -1.43765 0.645699 0
M  V30 1948 C 184.695 -1.85193 0.236719 0
M  V30 1949 C 185.046 -1.54045 -1.21509 0
M  V30 1950 O 184.171 -0.985694 -1.92647 0
M  V30 1951 C 184.766 -3.36151 0.422845 0
M  V30 1952 C 183.325 -3.76338 0.0682492 0
M  V30 1953 C 182.472 -2.67538 0.729306 0
M  V30 1954 H 185.423 -1.34025 0.849883 0
M  V30 1955 H 185.444 -3.79032 -0.333904 0
M  V30 1956 H 184.956 -3.5879 1.47958 0
M  V30 1957 H 183.057 -3.59312 -0.986179 0
M  V30 1958 H 183.17 -4.76603 0.488469 0
M  V30 1959 H 181.534 -2.54176 0.163235 0
M  V30 1960 H 182.317 -2.93006 1.78892 0
M  V30 1961 N 184.763 -0.387143 -1.52771 0
M  V30 1962 C 185.726 0.436939 -2.24997 0
M  V30 1963 C 186.726 0.991991 -1.26555 0
M  V30 1964 O 187.916 0.874335 -1.50669 0
M  V30 1965 C 185.048 1.61281 -3.00335 0
M  V30 1966 H 186.241 -0.195365 -2.99263 0
M  V30 1967 H 183.794 -0.139218 -1.55679 0
M  V30 1968 H 184.529 2.2826 -2.30364 0
M  V30 1969 H 184.314 1.22154 -3.72587 0
M  V30 1970 H 185.804 2.19629 -3.5518 0
M  V30 1971 N 186.241 1.57166 -0.116904 0
M  V30 1972 C 187.652 1.82169 0.408809 0
M  V30 1973 C 188.003 1.03393 1.66746 0
M  V30 1974 O 187.128 0.269886 2.1471 0
M  V30 1975 C 187.723 3.30429 0.748466 0
M  V30 1976 C 186.282 3.5612 1.21882 0
M  V30 1977 C 185.429 2.76374 0.226452 0
M  V30 1978 H 188.38 1.5497 -0.342063 0
M  V30 1979 H 188.401 3.44943 1.60607 0
M  V30 1980 H 187.913 3.87737 -0.167784 0
M  V30 1981 H 186.014 3.04168 2.15204 0
M  V30 1982 H 186.127 4.64705 1.16559 0
M  V30 1983 H 184.491 2.44515 0.713063 0
M  V30 1984 H 185.274 3.3644 -0.682859 0
M  V30 1985 N 187.719 -0.156864 1.56817 0
M  V30 1986 C 188.996 -0.899244 1.73704 0
M  V30 1987 C 189.376 -1.99771 0.682254 0
M  V30 1988 O 188.724 -2.26515 -0.300522 0
M  V30 1989 C 188.934 -1.45075 3.17418 0
M  V30 1990 C 190.282 -1.91802 3.7881 0
M  V30 1991 O 191.306 -1.54838 3.20786 0
M  V30 1992 O 190.165 -2.5994 4.80722 0
M  V30 1993 H 187.259 -0.424267 0.709878 0
M  V30 1994 H 189.805 -0.143561 1.69092 0
M  V30 1995 H 188.577 -0.660846 3.85679 0
M  V30 1996 H 188.2 -2.27021 3.26416 0
M  V30 1997 N 189.197 -1.51736 -0.425897 0
M  V30 1998 C 190.445 -1.64644 -1.17204 0
M  V30 1999 C 190.766 -0.370486 -1.91448 0
M  V30 2000 O 190.036 0.614088 -1.86026 0
M  V30 2001 H 188.616 -0.606819 -0.435638 0
M  V30 2002 H 191.278 -1.88713 -0.487177 0
M  V30 2003 H 190.374 -2.47958 -1.89534 0
M  V30 2004 N 190.675 0.682077 -1.42076 0
M  V30 2005 C 191.605 1.80796 -1.47767 0
M  V30 2006 C 192.586 1.6677 -0.334954 0
M  V30 2007 O 193.771 1.863 -0.548264 0
M  V30 2008 C 190.901 3.19038 -1.37229 0
M  V30 2009 C 189.855 3.47789 -2.49453 0
M  V30 2010 C 189.181 4.8553 -2.23975 0
M  V30 2011 C 190.481 3.45411 -3.91776 0
M  V30 2012 H 192.175 1.7629 -2.41997 0
M  V30 2013 H 189.721 0.846721 -1.16476 0
M  V30 2014 H 191.674 3.97528 -1.39821 0
M  V30 2015 H 190.398 3.24204 -0.394907 0
M  V30 2016 H 189.057 2.71657 -2.46166 0
M  V30 2017 H 188.705 4.87337 -1.24547 0
M  V30 2018 H 188.405 5.0573 -2.99184 0
M  V30 2019 H 189.929 5.66312 -2.28304 0
M  V30 2020 H 191.343 4.13882 -3.96705 0
M  V30 2021 H 189.74 3.77145 -4.66778 0
M  V30 2022 H 190.81 2.44122 -4.18966 0
M  V30 2023 N 192.153 1.28127 0.917671 0
M  V30 2024 C 193.564 1.13622 1.48145 0
M  V30 2025 C 193.915 -0.275207 1.9426 0
M  V30 2026 O 193.04 -1.1691 1.82102 0
M  V30 2027 C 193.635 2.05648 2.69248 0
M  V30 2028 C 192.194 1.95219 3.21818 0
M  V30 2029 C 191.341 1.97618 1.94532 0
M  V30 2030 H 194.292 1.40874 0.730772 0
M  V30 2031 H 194.313 1.61818 3.44377 0
M  V30 2032 H 193.825 3.08365 2.35653 0
M  V30 2033 H 191.926 0.955244 3.60147 0
M  V30 2034 H 192.039 2.81976 3.87333 0
M  V30 2035 H 190.403 1.41973 2.11461 0
M  V30 2036 H 191.186 3.02007 1.63238 0
M  V30 2037 N 193.631 -1.12557 1.10312 0
M  V30 2038 C 194.856 -1.88405 0.867085 0
M  V30 2039 C 195.281 -1.79038 -0.576817 0
M  V30 2040 O 194.639 -1.14439 -1.40618 0
M  V30 2041 C 194.687 -3.3563 1.31851 0
M  V30 2042 O 193.791 -4.09565 0.482734 0
M  V30 2043 H 193.132 -0.585455 0.313271 0
M  V30 2044 H 195.662 -1.42352 1.4696 0
M  V30 2045 H 195.672 -3.86469 1.3079 0
M  V30 2046 H 194.347 -3.41765 2.37001 0
M  V30 2047 H 192.924 -3.68695 0.558448 0
M  V30 2048 N 195.109 -0.891671 -1.2995 0
M  V30 2049 C 196.019 -0.367691 -2.31701 0
M  V30 2050 C 197.035 0.533486 -1.6562 0
M  V30 2051 O 198.211 0.424997 -1.96865 0
M  V30 2052 C 195.276 0.403406 -3.44345 0
M  V30 2053 C 194.337 -0.528328 -4.26037 0
M  V30 2054 C 193.57 0.206063 -5.33302 0
M  V30 2055 O 193.793 1.43119 -5.52153 0
M  V30 2056 O 192.727 -0.447281 -6.00236 0
M  V30 2057 H 196.553 -1.21163 -2.78484 0
M  V30 2058 H 194.138 -0.655725 -1.34241 0
M  V30 2059 H 196.02 0.839753 -4.12948 0
M  V30 2060 H 194.695 1.22354 -2.99685 0
M  V30 2061 H 193.602 -1.01362 -3.60106 0
M  V30 2062 H 194.935 -1.31465 -4.74318 0
M  V30 2063 N 196.587 1.43421 -0.653314 0
M  V30 2064 C 197.815 2.06163 -0.174491 0
M  V30 2065 C 198.23 1.48969 1.1599 0
M  V30 2066 O 197.587 0.621042 1.71608 0
M  V30 2067 C 197.638 3.61417 -0.0774865 0
M  V30 2068 O 197.359 4.16485 -1.35912 0
M  V30 2069 C 198.86 4.41235 0.427402 0
M  V30 2070 H 196.08 0.664946 -0.0899353 0
M  V30 2071 H 198.624 1.83924 -0.893988 0
M  V30 2072 H 196.779 3.82841 0.59257 0
M  V30 2073 H 197.193 5.10153 -1.21839 0
M  V30 2074 H 198.667 5.5021 0.44423 0
M  V30 2075 H 199.144 4.14268 1.45873 0
M  V30 2076 H 199.75 4.2478 -0.210167 0
M  V30 2077 N 198.065 0.39524 1.52563 0
M  V30 2078 C 198.997 -0.472201 2.24283 0
M  V30 2079 C 200.01 -1.02178 1.26742 0
M  V30 2080 O 201.199 -0.923097 1.52778 0
M  V30 2081 C 198.299 -1.66775 2.95024 0
M  V30 2082 C 197.472 -1.2445 4.19322 0
M  V30 2083 C 196.531 -2.30539 4.7301 0
M  V30 2084 O 195.557 -1.91702 5.35947 0
M  V30 2085 N 196.759 -3.6253 4.53379 0
M  V30 2086 H 199.524 0.142282 2.99362 0
M  V30 2087 H 197.085 0.2219 1.60372 0
M  V30 2088 H 199.077 -2.37283 3.27839 0
M  V30 2089 H 197.647 -2.18845 2.23217 0
M  V30 2090 H 196.867 -0.368069 3.92478 0
M  V30 2091 H 198.155 -0.938457 5.0007 0
M  V30 2092 H 197.553 -3.96841 4.03154 0
M  V30 2093 H 196.11 -4.29055 4.90668 0
M  V30 2094 N 199.544 -1.57102 0.125237 0
M  V30 2095 C 200.793 -1.94582 -0.531095 0
M  V30 2096 C 201.106 -1.01126 -1.6743 0
M  V30 2097 O 202.312 -1.28097 -2.39381 0
M  V30 2098 C 200.768 -3.45839 -0.996164 0
M  V30 2099 C 200.376 -4.47842 0.118926 0
M  V30 2100 C 202.12 -3.92227 -1.62352 0
M  V30 2101 C 200.027 -5.90284 -0.363192 0
M  V30 2102 H 198.957 -0.726391 -0.20217 0
M  V30 2103 H 201.608 -1.82339 0.206092 0
M  V30 2104 H 199.99 -3.53338 -1.78796 0
M  V30 2105 H 201.164 -4.52018 0.895358 0
M  V30 2106 H 199.479 -4.11243 0.653324 0
M  V30 2107 H 202.076 -4.96069 -1.99548 0
M  V30 2108 H 202.419 -3.32552 -2.50429 0
M  V30 2109 H 202.952 -3.87554 -0.897019 0
M  V30 2110 H 199.691 -6.53728 0.481679 0
M  V30 2111 H 199.211 -5.89515 -1.10597 0
M  V30 2112 H 200.89 -6.41752 -0.822377 0
M  V30 2113 N 201.022 0.148545 -1.56898 0
M  V30 2114 C 201.985 1.16736 -1.97244 0
M  V30 2115 C 202.985 1.35947 -0.858777 0
M  V30 2116 O 204.175 1.32966 -1.12542 0
M  V30 2117 C 201.307 2.52798 -2.28705 0
M  V30 2118 H 202.5 0.821279 -2.88435 0
M  V30 2119 H 200.053 0.391831 -1.51309 0
M  V30 2120 H 200.788 2.92381 -1.403 0
M  V30 2121 H 200.573 2.40216 -3.09901 0
M  V30 2122 H 202.063 3.26179 -2.60762 0
M  V30 2123 N 202.5 1.5196 0.417844 0
M  V30 2124 C 203.432 1.70895 1.52733 0
M  V30 2125 C 204.445 0.589405 1.51756 0
M  V30 2126 O 205.634 0.864312 1.56179 0
M  V30 2127 C 202.734 1.72627 2.91639 0
M  V30 2128 C 201.907 3.01479 3.16905 0
M  V30 2129 C 200.966 2.95139 4.35637 0
M  V30 2130 O 199.992 3.69059 4.3334 0
M  V30 2131 N 201.194 2.12328 5.40275 0
M  V30 2132 H 203.959 2.66612 1.36888 0
M  V30 2133 H 201.52 1.50089 0.607037 0
M  V30 2134 H 203.512 1.65928 3.6912 0
M  V30 2135 H 202.082 0.844216 3.00985 0
M  V30 2136 H 201.302 3.21895 2.27546 0
M  V30 2137 H 202.59 3.86736 3.30625 0
M  V30 2138 H 201.988 1.51685 5.44985 0
M  V30 2139 H 200.545 2.11494 6.16534 0
M  V30 2140 N 203.978 -0.674533 1.42435 0
M  V30 2141 C 205.203 -1.46784 1.46524 0
M  V30 2142 C 205.628 -1.87938 0.078066 0
M  V30 2143 O 204.986 -1.56014 -0.92354 0
M  V30 2144 C 205.034 -2.69307 2.39805 0
M  V30 2145 O 204.138 -3.67587 1.86959 0
M  V30 2146 H 203.479 -0.440959 0.496439 0
M  V30 2147 H 206.009 -0.827326 1.87127 0
M  V30 2148 H 206.019 -3.17374 2.56393 0
M  V30 2149 H 204.694 -2.38692 3.40586 0
M  V30 2150 H 203.271 -3.2662 1.79927 0
M  V30 2151 N 205.456 -1.28612 -0.910864 0
M  V30 2152 C 206.386 -1.15326 -2.03032 0
M  V30 2153 C 207.367 -0.0502924 -1.70026 0
M  V30 2154 O 208.552 -0.227797 -1.92859 0
M  V30 2155 C 205.682 -0.817343 -3.37545 0
M  V30 2156 C 204.636 -1.8754 -3.84724 0
M  V30 2157 C 203.962 -1.39305 -5.16235 0
M  V30 2158 C 205.262 -3.28244 -4.06267 0
M  V30 2159 H 206.956 -2.08975 -2.14406 0
M  V30 2160 H 204.502 -1.00612 -1.03021 0
M  V30 2161 H 206.455 -0.711151 -4.15356 0
M  V30 2162 H 205.179 0.154846 -3.26233 0
M  V30 2163 H 203.838 -1.97079 -3.09121 0
M  V30 2164 H 203.486 -0.409846 -5.01328 0
M  V30 2165 H 203.186 -2.10057 -5.48771 0
M  V30 2166 H 204.71 -1.30014 -5.96598 0
M  V30 2167 H 206.124 -3.21611 -4.74594 0
M  V30 2168 H 204.521 -3.96855 -4.5014 0
M  V30 2169 H 205.591 -3.72048 -3.10979 0
M  V30 2170 N 206.934 1.1197 -1.10907 0
M  V30 2171 C 207.897 2.16031 -0.765707 0
M  V30 2172 C 208.897 1.59393 0.212235 0
M  V30 2173 O 210.087 1.74196 -0.0115441 0
M  V30 2174 C 207.219 3.40632 -0.135053 0
M  V30 2175 H 208.412 2.47919 -1.68748 0
M  V30 2176 H 205.965 1.27061 -0.910226 0
M  V30 2177 H 206.7 3.14348 0.797218 0
M  V30 2178 H 206.485 3.8302 -0.838937 0
M  V30 2179 H 207.975 4.17505 0.0892469 0
M  V30 2180 N 208.412 0.89855 1.29475 0
M  V30 2181 C 209.362 0.346767 2.25348 0
M  V30 2182 C 210.346 -0.532509 1.51833 0
M  V30 2183 O 211.538 -0.374714 1.72988 0
M  V30 2184 C 208.667 -0.425681 3.40651 0
M  V30 2185 C 207.753 0.46845 4.21505 0
M  V30 2186 N 208.144 1.57514 4.80648 0
M  V30 2187 C 206.442 0.26603 4.45206 0
M  V30 2188 C 207.143 2.12889 5.41344 0
M  V30 2189 N 206.119 1.42208 5.24669 0
M  V30 2190 H 209.921 1.19219 2.68634 0
M  V30 2191 H 207.435 0.749473 1.44072 0
M  V30 2192 H 209.432 -0.837716 4.08397 0
M  V30 2193 H 208.092 -1.26838 2.98902 0
M  V30 2194 H 209.103 1.95789 4.79465 0
M  V30 2195 H 205.78 -0.538394 4.14014 0
M  V30 2196 H 207.17 3.05901 5.98226 0
M  V30 2197 N 209.89 -1.43072 0.660911 0
M  V30 2198 C 210.82 -2.33497 -0.0122829 0
M  V30 2199 C 211.801 -1.49903 -0.803925 0
M  V30 2200 O 212.986 -1.78546 -0.763864 0
M  V30 2201 C 210.116 -3.33363 -0.973994 0
M  V30 2202 C 209.07 -4.27003 -0.291928 0
M  V30 2203 C 208.396 -5.16967 -1.36562 0
M  V30 2204 C 209.696 -5.15816 0.820462 0
M  V30 2205 H 211.39 -2.90038 0.742873 0
M  V30 2206 H 208.936 -1.39461 0.358688 0
M  V30 2207 H 210.889 -3.95524 -1.45392 0
M  V30 2208 H 209.613 -2.75095 -1.7604 0
M  V30 2209 H 208.272 -3.66217 0.167623 0
M  V30 2210 H 207.92 -4.55034 -2.14366 0
M  V30 2211 H 207.62 -5.80441 -0.914454 0
M  V30 2212 H 209.144 -5.82003 -1.84675 0
M  V30 2213 H 210.558 -5.71742 0.422366 0
M  V30 2214 H 208.955 -5.8805 1.19656 0
M  V30 2215 H 210.025 -4.55045 1.67518 0
M  V30 2216 N 211.368 -0.403325 -1.52352 0
M  V30 2217 C 212.298 0.416205 -2.29761 0
M  V30 2218 C 213.279 1.05123 -1.33728 0
M  V30 2219 O 214.464 1.06134 -1.62632 0
M  V30 2220 C 211.594 1.53624 -3.11475 0
M  V30 2221 C 210.548 1.02653 -4.15507 0
M  V30 2222 C 209.874 2.23971 -4.85532 0
M  V30 2223 C 211.174 0.08463 -5.22231 0
M  V30 2224 H 212.868 -0.229701 -2.98518 0
M  V30 2225 H 210.414 -0.111913 -1.43564 0
M  V30 2226 H 212.367 2.1165 -3.64393 0
M  V30 2227 H 211.091 2.20994 -2.40477 0
M  V30 2228 H 209.75 0.46871 -3.63591 0
M  V30 2229 H 209.398 2.89883 -4.11068 0
M  V30 2230 H 209.098 1.90521 -5.55856 0
M  V30 2231 H 210.622 2.82614 -5.41259 0
M  V30 2232 H 212.036 0.573509 -5.70424 0
M  V30 2233 H 210.433 -0.160783 -5.99885 0
M  V30 2234 H 211.503 -0.86237 -4.7717 0
M  V30 2235 N 212.846 1.57033 -0.133567 0
M  V30 2236 C 214.257 1.82593 0.389464 0
M  V30 2237 C 214.608 1.05156 1.6564 0
M  V30 2238 O 213.733 0.292644 2.14412 0
M  V30 2239 C 214.328 3.31204 0.713377 0
M  V30 2240 C 212.887 3.57393 1.18098 0
M  V30 2241 C 212.034 2.76598 0.197126 0
M  V30 2242 H 214.985 1.54598 -0.358481 0
M  V30 2243 H 215.006 3.46627 1.56939 0
M  V30 2244 H 214.518 3.87537 -0.2089 0
M  V30 2245 H 212.619 3.06433 2.11966 0
M  V30 2246 H 212.732 4.65915 1.11624 0
M  V30 2247 H 211.096 2.45257 0.687088 0
M  V30 2248 H 211.879 3.35697 -0.718504 0
M  V30 2249 N 214.325 -0.140222 1.56975 0
M  V30 2250 C 215.736 -0.699596 1.73097 0
M  V30 2251 C 216.087 -1.8134 0.749022 0
M  V30 2252 O 215.212 -2.16241 -0.0828503 0
M  V30 2253 C 215.807 -1.27582 3.1386 0
M  V30 2254 C 214.366 -1.78169 3.31561 0
M  V30 2255 C 213.513 -0.672855 2.69013 0
M  V30 2256 H 216.464 0.0855115 1.58469 0
M  V30 2257 H 216.485 -2.14561 3.14235 0
M  V30 2258 H 215.997 -0.464955 3.85305 0
M  V30 2259 H 214.098 -2.61801 2.65124 0
M  V30 2260 H 214.211 -1.90574 4.39566 0
M  V30 2261 H 212.575 -1.10118 2.29665 0
M  V30 2262 H 213.358 0.126679 3.43066 0
M  V30 2263 N 215.803 -1.52179 -0.40978 0
M  V30 2264 C 217.049 -1.66453 -1.15851 0
M  V30 2265 C 217.382 -0.392972 -1.90182 0
M  V30 2266 O 216.657 0.608579 -1.84734 0
M  V30 2267 C 216.94 -2.88612 -2.15349 0
M  V30 2268 C 216.793 -4.25815 -1.44918 0
M  V30 2269 C 218.112 -3.06294 -3.16026 0
M  V30 2270 H 215.231 -0.60575 -0.419805 0
M  V30 2271 H 217.873 -1.84732 -0.444314 0
M  V30 2272 H 216.023 -2.73158 -2.76255 0
M  V30 2273 H 217.695 -4.52995 -0.871365 0
M  V30 2274 H 215.938 -4.27247 -0.751159 0
M  V30 2275 H 216.609 -5.07337 -2.17516 0
M  V30 2276 H 219.085 -3.20641 -2.65195 0
M  V30 2277 H 217.961 -3.93283 -3.8291 0
M  V30 2278 H 218.222 -2.19579 -3.83715 0
M  V30 2279 N 217.281 0.66697 -1.42791 0
M  V30 2280 C 218.211 1.79218 -1.49677 0
M  V30 2281 C 219.192 1.66405 -0.352623 0
M  V30 2282 O 220.377 1.85708 -0.567993 0
M  V30 2283 C 217.507 3.17565 -1.40605 0
M  V30 2284 C 216.461 3.45124 -2.53127 0
M  V30 2285 C 215.787 4.83127 -2.29112 0
M  V30 2286 C 217.087 3.41236 -3.95418 0
M  V30 2287 H 218.781 1.73713 -2.43853 0
M  V30 2288 H 216.327 0.83432 -1.17367 0
M  V30 2289 H 218.28 3.96022 -1.44029 0
M  V30 2290 H 217.004 3.23767 -0.429271 0
M  V30 2291 H 215.663 2.69031 -2.49034 0
M  V30 2292 H 215.311 4.85988 -1.29709 0
M  V30 2293 H 215.011 5.02528 -3.04531 0
M  V30 2294 H 216.535 5.63859 -2.34297 0
M  V30 2295 H 217.949 4.09651 -4.01073 0
M  V30 2296 H 216.346 3.72173 -4.70752 0
M  V30 2297 H 217.416 2.39665 -4.21532 0
M  V30 2298 N 218.759 1.29093 0.90403 0
M  V30 2299 C 219.706 1.13853 2.00764 0
M  V30 2300 C 220.676 0.0330084 1.66067 0
M  V30 2301 O 221.861 0.199733 1.89752 0
M  V30 2302 C 219.001 0.816537 3.35301 0
M  V30 2303 C 218.114 2.00206 3.82807 0
M  V30 2304 C 217.249 1.61983 5.059 0
M  V30 2305 C 216.288 2.77143 5.45764 0
M  V30 2306 N 215.425 2.39346 6.60044 0
M  V30 2307 H 220.265 2.08276 2.13132 0
M  V30 2308 H 217.802 1.03648 1.04381 0
M  V30 2309 H 219.76 0.610557 4.12708 0
M  V30 2310 H 218.39 -0.090779 3.22672 0
M  V30 2311 H 217.442 2.31988 3.01473 0
M  V30 2312 H 218.754 2.86512 4.08304 0
M  V30 2313 H 217.908 1.37649 5.90879 0
M  V30 2314 H 216.647 0.728202 4.82233 0
M  V30 2315 H 215.652 3.02165 4.59322 0
M  V30 2316 H 216.877 3.66964 5.71414 0
M  V30 2317 H 214.823 1.52665 6.37989 0
M  V30 2318 H 214.74 3.19185 6.85315 0
M  V30 2319 H 216.008 2.1832 7.48303 0
M  V30 2320 N 220.237 -1.11381 1.11499 0
M  V30 2321 C 221.514 -1.7955 0.775965 0
M  V30 2322 C 221.894 -1.97859 -0.73588 0
M  V30 2323 O 221.242 -1.56376 -1.66609 0
M  V30 2324 C 221.452 -3.13196 1.53977 0
M  V30 2325 C 222.8 -3.88227 1.71944 0
M  V30 2326 O 223.824 -3.22887 1.50407 0
M  V30 2327 O 222.683 -5.05477 2.07738 0
M  V30 2328 H 219.777 -0.777728 0.28119 0
M  V30 2329 H 222.323 -1.18118 1.21845 0
M  V30 2330 H 221.095 -2.95229 2.56818 0
M  V30 2331 H 220.718 -3.82342 1.09088 0
M  V30 2332 N 221.715 -0.905404 -1.28997 0
M  V30 2333 C 222.662 -0.385892 -2.27551 0
M  V30 2334 C 223.632 0.535113 -1.57244 0
M  V30 2335 O 224.817 0.459119 -1.85194 0
M  V30 2336 C 221.957 0.375461 -3.43051 0
M  V30 2337 C 221.07 -0.577092 -4.28128 0
M  V30 2338 C 220.205 0.201879 -5.30816 0
M  V30 2339 C 219.244 -0.744829 -6.07551 0
M  V30 2340 N 218.381 9.42587e-05 -7.021 0
M  V30 2341 H 223.221 -1.23139 -2.71368 0
M  V30 2342 H 220.758 -0.618542 -1.33463 0
M  V30 2343 H 222.716 0.832992 -4.088 0
M  V30 2344 H 221.346 1.18537 -3.00248 0
M  V30 2345 H 220.398 -1.15315 -3.62501 0
M  V30 2346 H 221.71 -1.30152 -4.8152 0
M  V30 2347 H 220.864 0.720351 -6.02408 0
M  V30 2348 H 219.603 0.959413 -4.7817 0
M  V30 2349 H 218.608 -1.27475 -5.34818 0
M  V30 2350 H 219.833 -1.50178 -6.62286 0
M  V30 2351 H 217.779 0.739791 -6.51815 0
M  V30 2352 H 217.696 -0.664321 -7.53076 0
M  V30 2353 H 218.964 0.498644 -7.77903 0
M  V30 2354 N 223.193 1.4272 -0.668489 0
M  V30 2355 C 224.44 2.01624 -0.18814 0
M  V30 2356 C 224.768 1.5282 1.20317 0
M  V30 2357 O 224.023 0.718323 1.8204 0
M  V30 2358 C 224.322 3.57021 -0.164499 0
M  V30 2359 C 223.988 4.25232 -1.49962 0
M  V30 2360 C 222.65 4.4358 -1.8652 0
M  V30 2361 C 225.002 4.63727 -2.37921 0
M  V30 2362 C 222.33 4.97694 -3.10674 0
M  V30 2363 C 224.682 5.19218 -3.6138 0
M  V30 2364 C 223.346 5.3578 -3.98115 0
M  V30 2365 H 222.616 0.737795 -0.0688454 0
M  V30 2366 H 225.263 1.70991 -0.862225 0
M  V30 2367 H 223.568 3.87285 0.593079 0
M  V30 2368 H 225.265 4.00372 0.224271 0
M  V30 2369 H 221.855 4.11306 -1.20522 0
M  V30 2370 H 226.039 4.4923 -2.10964 0
M  V30 2371 H 221.295 5.08702 -3.39164 0
M  V30 2372 H 225.469 5.4799 -4.29743 0
M  V30 2373 H 223.096 5.77475 -4.94395 0
M  V30 2374 N 224.671 0.411399 1.52136 0
M  V30 2375 C 225.92 -0.165009 2.01024 0
M  V30 2376 C 226.233 -1.4603 1.30133 0
M  V30 2377 O 227.439 -2.1181 1.69849 0
M  V30 2378 C 225.895 -0.344618 3.58246 0
M  V30 2379 C 225.503 0.938716 4.38055 0
M  V30 2380 C 227.247 -0.876195 4.15359 0
M  V30 2381 C 225.154 0.726172 5.86925 0
M  V30 2382 H 224.084 -0.0654407 0.751155 0
M  V30 2383 H 226.735 0.537192 1.75461 0
M  V30 2384 H 225.117 -1.10921 3.80148 0
M  V30 2385 H 226.291 1.70963 4.27912 0
M  V30 2386 H 224.606 1.39688 3.92271 0
M  V30 2387 H 227.203 -1.05128 5.24263 0
M  V30 2388 H 227.546 -1.85152 3.7286 0
M  V30 2389 H 228.079 -0.170607 3.97434 0
M  V30 2390 H 224.818 1.67312 6.33788 0
M  V30 2391 H 224.338 -0.00540283 5.998 0
M  V30 2392 H 226.017 0.369231 6.45946 0
M  V30 2393 N 226.149 -1.5696 0.141893 0
M  V30 2394 C 227.389 -1.9785 -0.513304 0
M  V30 2395 C 227.753 -1.02467 -1.62371 0
M  V30 2396 O 228.954 -1.32382 -2.33941 0
M  V30 2397 C 227.225 -3.42797 -1.01118 0
M  V30 2398 S 228.784 -4.05709 -1.67169 0
M  V30 2399 H 225.602 -0.691318 -0.166135 0
M  V30 2400 H 228.204 -1.94114 0.232398 0
M  V30 2401 H 226.908 -4.0995 -0.192179 0
M  V30 2402 H 226.439 -3.50235 -1.79162 0
M  V30 2403 H 228.454 -3.98342 -2.95868 0
M  V30 2404 N 227.627 0.131896 -1.57047 0
M  V30 2405 C 228.904 0.871495 -1.75112 0
M  V30 2406 C 229.284 1.9866 -0.713949 0
M  V30 2407 O 228.632 2.26965 0.264447 0
M  V30 2408 C 228.842 1.40007 -3.19686 0
M  V30 2409 C 230.19 1.85752 -3.81813 0
M  V30 2410 O 231.214 1.49715 -3.23209 0
M  V30 2411 O 230.073 2.5226 -4.84796 0
M  V30 2412 H 227.167 0.412919 -0.716538 0
M  V30 2413 H 229.713 0.116641 -1.69299 0
M  V30 2414 H 228.485 0.599404 -3.86682 0
M  V30 2415 H 228.108 2.218 -3.29986 0
M  V30 2416 N 229.106 1.52395 0.401703 0
M  V30 2417 C 230.522 1.41363 0.740864 0
M  V30 2418 C 230.722 0.523982 1.94568 0
M  V30 2419 O 229.778 -0.00741204 2.52499 0
M  V30 2420 C 231.091 2.84011 0.987847 0
M  V30 2421 C 232.639 2.93404 1.09011 0
M  V30 2422 C 233.114 4.37036 1.3698 0
M  V30 2423 N 234.605 4.40304 1.43829 0
M  V30 2424 C 235.34 5.48508 1.67112 0
M  V30 2425 N 234.836 6.66819 1.87949 0
M  V30 2426 N 236.629 5.36034 1.69187 0
M  V30 2427 H 228.78 2.08765 -0.391262 0
M  V30 2428 H 231.043 0.941265 -0.112798 0
M  V30 2429 H 230.749 3.51265 0.174835 0
M  V30 2430 H 230.623 3.25502 1.906 0
M  V30 2431 H 233.01 2.26325 1.8937 0
M  V30 2432 H 233.091 2.55359 0.15015 0
M  V30 2433 H 232.735 5.04676 0.571353 0
M  V30 2434 H 232.665 4.72623 2.3224 0
M  V30 2435 H 235.156 3.55024 1.29486 0
M  V30 2436 H 235.469 7.45063 2.05185 0
M  V30 2437 H 233.814 6.6987 1.85199 0
M  V30 2438 H 237.005 4.42579 1.52451 0
M  V30 2439 H 237.178 6.20434 1.86993 0
M  V30 2440 N 230.584 -0.659388 1.43143 0
M  V30 2441 C 231.995 -1.24041 1.39537 0
M  V30 2442 C 232.346 -1.95963 0.0963364 0
M  V30 2443 O 231.471 -2.00892 -0.804438 0
M  V30 2444 C 232.066 -2.25601 2.52764 0
M  V30 2445 C 230.625 -2.79195 2.52443 0
M  V30 2446 C 229.772 -1.53743 2.30778 0
M  V30 2447 H 232.723 -0.451792 1.52133 0
M  V30 2448 H 232.744 -3.07651 2.23899 0
M  V30 2449 H 232.256 -1.73226 3.47296 0
M  V30 2450 H 230.357 -3.35649 1.61773 0
M  V30 2451 H 230.47 -3.2716 3.50004 0
M  V30 2452 H 228.834 -1.80869 1.79328 0
M  V30 2453 H 229.617 -1.03312 3.27386 0
M  V30 2454 N 232.062 -1.29571 -0.897171 0
M  V30 2455 C 232.992 -1.17473 -2.01798 0
M  V30 2456 C 233.973 -0.068323 -1.69963 0
M  V30 2457 O 235.158 -0.248239 -1.92607 0
M  V30 2458 C 232.288 -0.853099 -3.36659 0
M  V30 2459 C 231.242 -1.9161 -3.82713 0
M  V30 2460 C 230.568 -1.44773 -5.14728 0
M  V30 2461 C 231.868 -3.32535 -4.02763 0
M  V30 2462 H 233.562 -2.11237 -2.12177 0
M  V30 2463 H 231.108 -1.01699 -1.01948 0
M  V30 2464 H 233.061 -0.755165 -4.14578 0
M  V30 2465 H 231.785 0.120236 -3.26379 0
M  V30 2466 H 230.444 -2.00346 -3.07013 0
M  V30 2467 H 230.092 -0.462995 -5.00865 0
M  V30 2468 H 229.792 -2.15865 -5.46513 0
M  V30 2469 H 231.316 -1.36334 -5.95185 0
M  V30 2470 H 232.73 -3.26626 -4.71156 0
M  V30 2471 H 231.127 -4.01607 -4.45905 0
M  V30 2472 H 232.197 -3.75326 -3.07016 0
M  V30 2473 N 233.54 1.10788 -1.12088 0
M  V30 2474 C 234.45 2.20599 -0.798338 0
M  V30 2475 C 235.466 1.72712 0.21135 0
M  V30 2476 O 236.642 2.01348 0.0458477 0
M  V30 2477 C 233.707 3.45771 -0.253674 0
M  V30 2478 C 232.768 4.08411 -1.32283 0
M  V30 2479 C 232.001 5.27608 -0.80406 0
M  V30 2480 O 232.224 5.69241 0.363478 0
M  V30 2481 O 231.158 5.8101 -1.57198 0
M  V30 2482 H 234.984 2.50614 -1.7154 0
M  V30 2483 H 232.569 1.19454 -0.897275 0
M  V30 2484 H 234.451 4.21376 0.0453691 0
M  V30 2485 H 233.126 3.1739 0.636005 0
M  V30 2486 H 232.033 3.34507 -1.67499 0
M  V30 2487 H 233.366 4.40986 -2.18614 0
M  V30 2488 N 235.018 0.912232 1.28515 0
M  V30 2489 C 236.264 0.545405 1.95328 0
M  V30 2490 C 236.597 -0.908313 1.71649 0
M  V30 2491 O 235.872 -1.64575 1.03659 0
M  V30 2492 C 236.155 0.853483 3.4984 0
M  V30 2493 C 236.008 2.35982 3.82926 0
M  V30 2494 C 237.327 0.348589 4.38717 0
M  V30 2495 H 234.446 0.199626 0.709449 0
M  V30 2496 H 237.088 1.1412 1.5191 0
M  V30 2497 H 235.238 0.34643 3.86952 0
M  V30 2498 H 236.91 2.93738 3.55691 0
M  V30 2499 H 235.153 2.81543 3.30024 0
M  V30 2500 H 235.824 2.52593 4.90816 0
M  V30 2501 H 238.3 0.78294 4.08668 0
M  V30 2502 H 237.176 0.593242 5.45685 0
M  V30 2503 H 237.437 -0.751049 4.35674 0
M  V30 2504 N 236.496 -1.42363 0.676048 0
M  V30 2505 C 237.912 -1.55811 0.345718 0
M  V30 2506 C 238.112 -1.65544 -1.14879 0
M  V30 2507 O 237.168 -1.62306 -1.93424 0
M  V30 2508 C 238.481 -2.80746 1.07713 0
M  V30 2509 C 240.029 -2.9452 1.05958 0
M  V30 2510 C 240.504 -4.22318 1.77233 0
M  V30 2511 N 241.995 -4.29233 1.74108 0
M  V30 2512 C 242.73 -5.26935 2.26113 0
M  V30 2513 N 242.226 -6.30783 2.86505 0
M  V30 2514 N 244.019 -5.18741 2.1648 0
M  V30 2515 H 236.17 -1.34289 1.6456 0
M  V30 2516 H 238.433 -0.646506 0.69335 0
M  V30 2517 H 238.139 -2.79696 2.13221 0
M  V30 2518 H 238.013 -3.71676 0.64316 0
M  V30 2519 H 240.4 -2.95097 0.0128255 0
M  V30 2520 H 240.481 -2.04817 1.53244 0
M  V30 2521 H 240.125 -4.22502 2.81877 0
M  V30 2522 H 240.055 -5.10958 1.27396 0
M  V30 2523 H 242.546 -3.54814 1.30059 0
M  V30 2524 H 242.859 -7.01691 3.23805 0
M  V30 2525 H 241.204 -6.31341 2.90575 0
M  V30 2526 H 244.395 -4.36533 1.68987 0
M  V30 2527 H 244.568 -5.94721 2.57316 0
M  V30 2528 N 237.974 -0.419461 -1.51915 0
M  V30 2529 C 239.385 0.0477853 -1.86639 0
M  V30 2530 C 239.736 1.43531 -1.33766 0
M  V30 2531 O 238.861 2.05401 -0.68113 0
M  V30 2532 C 239.456 0.0934885 -3.38671 0
M  V30 2533 C 238.015 0.505097 -3.72996 0
M  V30 2534 C 237.162 -0.313792 -2.75519 0
M  V30 2535 H 240.113 -0.636088 -1.45395 0
M  V30 2536 H 240.134 0.906667 -3.6954 0
M  V30 2537 H 239.646 -0.916501 -3.77123 0
M  V30 2538 H 237.747 1.52135 -3.40126 0
M  V30 2539 H 237.86 0.242309 -4.78487 0
M  V30 2540 H 236.224 0.225363 -2.53701 0
M  V30 2541 H 237.007 -1.32232 -3.16812 0
M  V30 2542 N 239.452 1.56882 -0.150215 0
M  V30 2543 C 240.698 1.96518 0.500834 0
M  V30 2544 C 241.031 1.03527 1.64304 0
M  V30 2545 O 240.306 0.0782751 1.94342 0
M  V30 2546 C 240.589 3.45822 1.00395 0
M  V30 2547 C 240.442 4.49591 -0.136983 0
M  V30 2548 C 241.761 3.97704 1.88467 0
M  V30 2549 H 238.88 0.714535 0.18058 0
M  V30 2550 H 241.522 1.88577 -0.232091 0
M  V30 2551 H 239.672 3.5272 1.62851 0
M  V30 2552 H 241.344 4.5477 -0.77343 0
M  V30 2553 H 239.587 4.26441 -0.795652 0
M  V30 2554 H 240.258 5.51402 0.256815 0
M  V30 2555 H 242.734 3.93304 1.35834 0
M  V30 2556 H 241.61 5.0263 2.20578 0
M  V30 2557 H 241.871 3.40252 2.82279 0
M  V30 2558 N 240.93 -0.123565 1.57115 0
M  V30 2559 C 241.84 -1.17074 2.033 0
M  V30 2560 C 242.856 -1.4561 0.952559 0
M  V30 2561 O 244.032 -1.56817 1.26374 0
M  V30 2562 C 241.097 -2.47857 2.42421 0
M  V30 2563 C 240.158 -2.26758 3.64526 0
M  V30 2564 C 239.391 -3.51305 4.01771 0
M  V30 2565 O 239.614 -4.5843 3.39409 0
M  V30 2566 O 238.548 -3.42578 4.94898 0
M  V30 2567 H 242.374 -0.808555 2.92739 0
M  V30 2568 H 239.959 -0.334027 1.45618 0
M  V30 2569 H 241.841 -3.2492 2.68338 0
M  V30 2570 H 240.516 -2.83558 1.5613 0
M  V30 2571 H 239.423 -1.47569 3.43765 0
M  V30 2572 H 240.756 -1.95963 4.51508 0
M  V30 2573 N 242.408 -1.52605 -0.393616 0
M  V30 2574 C 243.655 -1.67424 -1.1391 0
M  V30 2575 C 243.983 -0.411859 -1.90089 0
M  V30 2576 O 243.238 0.605626 -1.86093 0
M  V30 2577 C 243.537 -2.85721 -2.14705 0
M  V30 2578 C 243.203 -4.23342 -1.55218 0
M  V30 2579 C 241.865 -4.60771 -1.3872 0
M  V30 2580 C 244.217 -5.09041 -1.11924 0
M  V30 2581 C 241.545 -5.81563 -0.774689 0
M  V30 2582 C 243.897 -6.30452 -0.520853 0
M  V30 2583 C 242.561 -6.66617 -0.343134 0
M  V30 2584 H 241.831 -0.612648 -0.416826 0
M  V30 2585 H 244.478 -1.8674 -0.424315 0
M  V30 2586 H 242.783 -2.60803 -2.92385 0
M  V30 2587 H 244.48 -2.94382 -2.72288 0
M  V30 2588 H 241.07 -3.93855 -1.69045 0
M  V30 2589 H 245.254 -4.80695 -1.23473 0
M  V30 2590 H 240.51 -6.08196 -0.625154 0
M  V30 2591 H 244.684 -6.96175 -0.177065 0
M  V30 2592 H 242.311 -7.60083 0.133571 0
M  V30 2593 N 243.887 0.651787 -1.4349 0
M  V30 2594 C 244.837 1.75783 -1.45205 0
M  V30 2595 C 245.821 1.57679 -0.320328 0
M  V30 2596 O 247.013 1.67767 -0.564211 0
M  V30 2597 C 244.142 3.14377 -1.3792 0
M  V30 2598 C 243.228 3.38023 -2.56127 0
M  V30 2599 N 243.619 3.32135 -3.81471 0
M  V30 2600 C 241.917 3.68747 -2.50882 0
M  V30 2601 C 242.618 3.55902 -4.60118 0
M  V30 2602 N 241.594 3.77783 -3.90872 0
M  V30 2603 H 245.396 1.69657 -2.39987 0
M  V30 2604 H 242.91 0.853508 -1.38163 0
M  V30 2605 H 244.907 3.93666 -1.37231 0
M  V30 2606 H 243.567 3.21683 -0.441596 0
M  V30 2607 H 244.578 3.11515 -4.13738 0
M  V30 2608 H 241.255 3.8316 -1.65816 0
M  V30 2609 H 242.645 3.57116 -5.69138 0
M  V30 2610 N 245.365 1.30045 0.890287 0
M  V30 2611 C 246.313 1.15873 2.01683 0
M  V30 2612 C 247.307 0.0719403 1.69247 0
M  V30 2613 O 248.513 0.232414 1.78493 0
M  V30 2614 H 244.888 0.358203 0.661207 0
M  V30 2615 H 246.859 2.11229 2.10772 0
M  V30 2616 C 245.608 0.861842 3.36849 0
M  V30 2617 H 244.931 1.69016 3.62317 0
M  V30 2618 H 246.371 0.802762 4.16331 0
M  V30 2619 C 244.83 -0.435132 3.34078 0
M  V30 2620 O 245.36 -1.4583 3.74295 0
M  V30 2621 N 243.566 -0.444377 2.87182 0
M  V30 2622 H 243.113 0.388723 2.5465 0
M  V30 2623 H 243.071 -1.31213 2.85711 0
M  V30 2624 N 246.843 -1.10192 1.12674 0
M  V30 2625 C 248.254 -1.63707 0.897604 0
M  V30 2626 C 248.605 -1.87812 -0.567546 0
M  V30 2627 O 247.73 -1.62196 -1.43253 0
M  V30 2628 C 248.325 -2.974 1.62292 0
M  V30 2629 C 246.884 -3.47772 1.43986 0
M  V30 2630 C 246.031 -2.22332 1.65722 0
M  V30 2631 H 248.982 -0.936587 1.28116 0
M  V30 2632 H 249.003 -3.64986 1.07541 0
M  V30 2633 H 248.515 -2.79824 2.68924 0
M  V30 2634 H 246.616 -3.70487 0.396206 0
M  V30 2635 H 246.729 -4.25723 2.19765 0
M  V30 2636 H 245.093 -2.30599 1.08149 0
M  V30 2637 H 245.876 -2.07285 2.73657 0
M  V30 2638 N 248.321 -0.919034 -1.28029 0
M  V30 2639 C 249.251 -0.428581 -2.29533 0
M  V30 2640 C 250.232 0.50659 -1.62381 0
M  V30 2641 O 251.417 0.413195 -1.89753 0
M  V30 2642 C 248.547 0.327388 -3.45753 0
M  V30 2643 C 247.501 -0.519137 -4.2484 0
M  V30 2644 C 246.827 0.365486 -5.33449 0
M  V30 2645 C 248.127 -1.77914 -4.91064 0
M  V30 2646 H 249.821 -1.27687 -2.70807 0
M  V30 2647 H 247.367 -0.615428 -1.30186 0
M  V30 2648 H 249.32 0.681378 -4.15855 0
M  V30 2649 H 248.044 1.20963 -3.03374 0
M  V30 2650 H 246.703 -0.855717 -3.56473 0
M  V30 2651 H 246.351 1.24642 -4.87312 0
M  V30 2652 H 246.051 -0.197356 -5.87268 0
M  V30 2653 H 247.575 0.715241 -6.06396 0
M  V30 2654 H 248.989 -1.49374 -5.53498 0
M  V30 2655 H 247.386 -2.2848 -5.54903 0
M  V30 2656 H 248.456 -2.50382 -4.15255 0
M  V30 2657 N 249.799 1.42003 -0.683588 0
M  V30 2658 C 250.746 2.30798 -0.0107309 0
M  V30 2659 C 251.716 1.4645 0.783688 0
M  V30 2660 O 252.901 1.75263 0.754156 0
M  V30 2661 C 250.041 3.3238 0.928306 0
M  V30 2662 C 249.154 4.31814 0.126776 0
M  V30 2663 C 248.289 5.20468 1.06236 0
M  V30 2664 C 247.328 6.11577 0.253035 0
M  V30 2665 N 246.465 6.92754 1.14179 0
M  V30 2666 H 251.305 2.8778 -0.773727 0
M  V30 2667 H 248.842 1.41745 -0.393283 0
M  V30 2668 H 250.8 3.89813 1.48666 0
M  V30 2669 H 249.43 2.76976 1.65783 0
M  V30 2670 H 248.482 3.76427 -0.54833 0
M  V30 2671 H 249.794 4.96276 -0.501192 0
M  V30 2672 H 248.948 5.82677 1.69035 0
M  V30 2673 H 247.687 4.56204 1.7242 0
M  V30 2674 H 246.692 5.48428 -0.388108 0
M  V30 2675 H 247.917 6.77892 -0.404839 0
M  V30 2676 H 245.863 6.3111 1.78987 0
M  V30 2677 H 245.78 7.53855 0.569111 0
M  V30 2678 H 247.048 7.59441 1.75697 0
M  V30 2679 N 251.277 0.427512 1.51691 0
M  V30 2680 C 252.525 -0.141948 2.01601 0
M  V30 2681 C 252.846 -1.44067 1.31414 0
M  V30 2682 O 252.116 -1.90763 0.445658 0
M  V30 2683 H 250.696 -0.0554468 0.744939 0
M  V30 2684 H 253.358 0.567968 1.86441 0
M  V30 2685 H 252.454 -0.324913 3.10404 0
M  V30 2686 N 252.755 -1.56801 0.158532 0
M  V30 2687 C 253.705 -2.13923 -0.788738 0
M  V30 2688 C 254.689 -1.07006 -1.2016 0
M  V30 2689 O 255.881 -1.33159 -1.1661 0
M  V30 2690 C 253.01 -2.77348 -2.02319 0
M  V30 2691 C 252.096 -3.91404 -1.6329 0
M  V30 2692 N 252.487 -4.9677 -0.951463 0
M  V30 2693 C 250.785 -4.02326 -1.92482 0
M  V30 2694 C 251.486 -5.76698 -0.761221 0
M  V30 2695 N 250.462 -5.27859 -1.29869 0
M  V30 2696 H 254.264 -2.92757 -0.258995 0
M  V30 2697 H 251.778 -1.62344 -0.0426055 0
M  V30 2698 H 253.775 -3.16639 -2.71192 0
M  V30 2699 H 252.435 -1.99991 -2.558 0
M  V30 2700 H 253.446 -5.14284 -0.610928 0
M  V30 2701 H 250.123 -3.36059 -2.47732 0
M  V30 2702 H 251.513 -6.71529 -0.223284 0
M  V30 2703 N 254.233 0.115231 -1.57178 0
M  V30 2704 C 255.479 0.82357 -1.85325 0
M  V30 2705 C 255.812 1.79349 -0.744814 0
M  V30 2706 O 255.087 1.92899 0.249024 0
M  V30 2707 C 255.37 1.57014 -3.24066 0
M  V30 2708 C 255.223 0.619565 -4.45513 0
M  V30 2709 C 256.542 2.52545 -3.60429 0
M  V30 2710 H 253.661 0.297948 -0.674089 0
M  V30 2711 H 256.303 0.0877138 -1.89797 0
M  V30 2712 H 254.453 2.19742 -3.20383 0
M  V30 2713 H 256.125 0.000837639 -4.613 0
M  V30 2714 H 254.368 -0.0686174 -4.33746 0
M  V30 2715 H 255.039 1.17866 -5.3927 0
M  V30 2716 H 257.515 1.9992 -3.64926 0
M  V30 2717 H 256.391 3.01811 -4.58477 0
M  V30 2718 H 256.652 3.35383 -2.88047 0
M  V30 2719 N 255.711 1.52812 0.385517 0
M  V30 2720 C 256.674 1.77188 1.45386 0
M  V30 2721 C 257.674 0.641953 1.4743 0
M  V30 2722 O 258.864 0.910033 1.4854 0
M  V30 2723 C 255.996 1.87582 2.8465 0
M  V30 2724 H 257.189 2.72583 1.25054 0
M  V30 2725 H 254.742 1.43586 0.617467 0
M  V30 2726 H 255.477 0.941849 3.10322 0
M  V30 2727 H 255.262 2.69748 2.84567 0
M  V30 2728 H 256.752 2.08102 3.62054 0
M  V30 2729 N 257.189 -0.644168 1.43834 0
M  V30 2730 C 258.099 -1.78563 1.52159 0
M  V30 2731 C 259.115 -1.69147 0.408069 0
M  V30 2732 O 260.291 -1.90156 0.663524 0
M  V30 2733 C 257.356 -3.14888 1.45073 0
M  V30 2734 C 256.417 -3.36034 2.6717 0
M  V30 2735 C 255.65 -4.65855 2.60413 0
M  V30 2736 O 255.873 -5.45805 1.65689 0
M  V30 2737 O 254.807 -4.88918 3.5106 0
M  V30 2738 H 258.633 -1.74494 2.48567 0
M  V30 2739 H 256.218 -0.80378 1.25935 0
M  V30 2740 H 258.1 -3.96179 1.43597 0
M  V30 2741 H 256.775 -3.19528 0.518037 0
M  V30 2742 H 255.682 -2.54472 2.74217 0
M  V30 2743 H 257.015 -3.36247 3.59442 0
M  V30 2744 N 258.668 -1.30515 -0.883378 0
M  V30 2745 C 260.079 -1.17509 -1.45081 0
M  V30 2746 C 260.43 0.223605 -1.94922 0
M  V30 2747 O 259.555 1.12041 -1.85137 0
M  V30 2748 C 260.15 -2.12715 -2.63701 0
M  V30 2749 C 258.709 -2.03682 -3.16529 0
M  V30 2750 C 257.856 -2.02706 -1.89224 0
M  V30 2751 H 260.807 -1.42762 -0.693165 0
M  V30 2752 H 260.828 -1.70891 -3.39965 0
M  V30 2753 H 260.34 -3.14505 -2.27395 0
M  V30 2754 H 258.441 -1.05039 -3.57488 0
M  V30 2755 H 258.554 -2.92146 -3.7972 0
M  V30 2756 H 256.918 -1.4753 -2.07622 0
M  V30 2757 H 257.701 -3.06229 -1.55174 0
M  V30 2758 N 260.146 1.09593 -1.13257 0
M  V30 2759 C 261.096 2.14345 -0.777179 0
M  V30 2760 C 262.08 1.59277 0.227966 0
M  V30 2761 O 263.272 1.76971 0.0321413 0
M  V30 2762 C 260.401 3.42439 -0.242991 0
M  V30 2763 C 259.487 4.04419 -1.27694 0
M  V30 2764 N 259.878 4.40979 -2.47732 0
M  V30 2765 C 258.176 4.31596 -1.12432 0
M  V30 2766 C 258.877 4.89784 -3.13826 0
M  V30 2767 N 257.853 4.87133 -2.41252 0
M  V30 2768 H 261.655 2.40415 -1.69049 0
M  V30 2769 H 259.169 1.26803 -1.01463 0
M  V30 2770 H 261.166 4.16889 0.0298496 0
M  V30 2771 H 259.826 3.17824 0.66467 0
M  V30 2772 H 260.837 4.32396 -2.85051 0
M  V30 2773 H 257.514 4.16595 -0.274684 0
M  V30 2774 H 258.904 5.2755 -4.16102 0
M  V30 2775 N 261.624 0.925811 1.2754 0
M  V30 2776 C 263.04 0.625767 1.46821 0
M  V30 2777 C 263.24 -0.825506 1.83814 0
M  V30 2778 O 262.296 -1.60356 1.95044 0
M  V30 2779 C 263.609 1.57402 2.56213 0
M  V30 2780 C 265.157 1.58204 2.70075 0
M  V30 2781 C 265.632 2.51721 3.82623 0
M  V30 2782 N 267.123 2.49917 3.89994 0
M  V30 2783 C 267.858 3.18968 4.76494 0
M  V30 2784 N 267.354 3.97391 5.67496 0
M  V30 2785 N 269.147 3.07996 4.70208 0
M  V30 2786 H 261.298 1.86409 1.01811 0
M  V30 2787 H 263.561 0.800213 0.508295 0
M  V30 2788 H 263.267 2.60925 2.35819 0
M  V30 2789 H 263.141 1.31428 3.53563 0
M  V30 2790 H 265.528 0.554124 2.89851 0
M  V30 2791 H 265.609 1.88226 1.73218 0
M  V30 2792 H 265.253 3.54622 3.63601 0
M  V30 2793 H 265.183 2.18996 4.78903 0
M  V30 2794 H 267.674 1.9296 3.24923 0
M  V30 2795 H 267.987 4.4707 6.30356 0
M  V30 2796 H 266.332 4.01495 5.67298 0
M  V30 2797 H 269.523 2.46223 3.9811 0
M  V30 2798 H 269.696 3.6208 5.37403 0
M  V30 2799 N 263.102 -1.41638 0.69111 0
M  V30 2800 C 264.034 -2.29194 -0.0161523 0
M  V30 2801 C 265.047 -1.44549 -0.748955 0
M  V30 2802 O 266.236 -1.681 -0.6004 0
M  V30 2803 C 263.336 -3.22325 -1.0469 0
M  V30 2804 C 262.509 -4.35706 -0.384621 0
M  V30 2805 C 261.568 -5.09443 -1.31737 0
M  V30 2806 O 260.594 -5.63386 -0.811451 0
M  V30 2807 N 261.796 -5.16487 -2.64993 0
M  V30 2808 H 264.561 -2.90534 0.735523 0
M  V30 2809 H 262.122 -1.52742 0.53679 0
M  V30 2810 H 264.114 -3.68522 -1.67252 0
M  V30 2811 H 262.684 -2.62323 -1.70015 0
M  V30 2812 H 261.904 -3.91948 0.420804 0
M  V30 2813 H 263.192 -5.08743 0.0760765 0
M  V30 2814 H 262.59 -4.741 -3.08619 0
M  V30 2815 H 261.147 -5.66276 -3.22761 0
M  V30 2816 N 264.58 -0.43555 -1.51462 0
M  V30 2817 C 265.826 0.131709 -2.02372 0
M  V30 2818 C 266.159 1.42516 -1.3192 0
M  V30 2819 O 265.434 1.89606 -0.433573 0
M  V30 2820 C 265.717 0.352301 -3.58373 0
M  V30 2821 C 265.57 -0.959676 -4.39443 0
M  V30 2822 C 266.889 1.12286 -4.25535 0
M  V30 2823 H 264.008 0.0463936 -0.735538 0
M  V30 2824 H 266.65 -0.574197 -1.81116 0
M  V30 2825 H 264.8 0.9536 -3.76615 0
M  V30 2826 H 266.472 -1.59482 -4.32855 0
M  V30 2827 H 264.715 -1.56468 -4.04599 0
M  V30 2828 H 265.386 -0.759394 -5.46752 0
M  V30 2829 H 267.862 0.613545 -4.11552 0
M  V30 2830 H 266.738 1.24598 -5.34571 0
M  V30 2831 H 266.999 2.15048 -3.86273 0
M  V30 2832 N 266.058 1.56714 -0.166846 0
M  V30 2833 C 267.304 1.97813 0.473473 0
M  V30 2834 C 267.659 1.05095 1.61161 0
M  V30 2835 O 266.952 0.0897541 1.9139 0
M  V30 2836 C 267.146 3.42889 1.00806 0
M  V30 2837 C 266.975 4.49635 -0.0767392 0
M  V30 2838 C 265.745 5.02566 -0.524894 0
M  V30 2839 C 267.943 5.06793 -0.875504 0
M  V30 2840 N 265.925 5.9294 -1.59047 0
M  V30 2841 C 267.296 5.93565 -1.79111 0
M  V30 2842 C 269.351 4.89306 -0.921083 0
M  V30 2843 C 268.054 6.64721 -2.74843 0
M  V30 2844 C 270.08 5.61179 -1.86633 0
M  V30 2845 C 269.442 6.47675 -2.76942 0
M  V30 2846 H 265.541 0.769093 0.141489 0
M  V30 2847 H 268.125 1.92874 -0.266031 0
M  V30 2848 H 266.296 3.48382 1.7171 0
M  V30 2849 H 268.028 3.71008 1.61664 0
M  V30 2850 H 264.783 4.73439 -0.123432 0
M  V30 2851 H 265.207 6.42831 -2.12361 0
M  V30 2852 H 269.849 4.22136 -0.23692 0
M  V30 2853 H 267.567 7.31107 -3.44249 0
M  V30 2854 H 271.153 5.49636 -1.90764 0
M  V30 2855 H 270.033 7.02313 -3.48893 0
M  V30 2856 N 267.536 -0.106894 1.57237 0
M  V30 2857 C 268.785 -0.811163 1.8467 0
M  V30 2858 C 269.098 -1.80469 0.754342 0
M  V30 2859 O 270.304 -2.55601 0.915439 0
M  V30 2860 C 268.76 -1.49337 3.27454 0
M  V30 2861 C 268.368 -0.540217 4.44731 0
M  V30 2862 C 270.112 -2.18206 3.64124 0
M  V30 2863 C 268.019 -1.22634 5.78545 0
M  V30 2864 H 266.949 -0.306679 0.688813 0
M  V30 2865 H 269.6 -0.0639887 1.83388 0
M  V30 2866 H 267.982 -2.2876 3.23241 0
M  V30 2867 H 269.156 0.221659 4.60267 0
M  V30 2868 H 267.471 0.042146 4.16379 0
M  V30 2869 H 270.068 -2.70253 4.61376 0
M  V30 2870 H 270.411 -2.96562 2.92158 0
M  V30 2871 H 270.944 -1.45658 3.70174 0
M  V30 2872 H 267.683 -0.483832 6.53712 0
M  V30 2873 H 267.203 -1.95993 5.66874 0
M  V30 2874 H 268.882 -1.75615 6.2271 0
M  V30 2875 N 269.014 -1.53014 -0.377408 0
M  V30 2876 C 270.43 -1.42523 -0.718281 0
M  V30 2877 C 270.63 -0.55487 -1.9371 0
M  V30 2878 O 269.686 -0.0327593 -2.52479 0
M  V30 2879 C 270.999 -2.85546 -0.942539 0
M  V30 2880 C 272.547 -2.95101 -1.04329 0
M  V30 2881 C 273.022 -4.3916 -1.3001 0
M  V30 2882 N 274.513 -4.42536 -1.36806 0
M  V30 2883 C 275.248 -5.51097 -1.58364 0
M  V30 2884 N 274.744 -6.69724 -1.77317 0
M  V30 2885 N 276.537 -5.38657 -1.60638 0
M  V30 2886 H 268.688 -2.08116 0.424426 0
M  V30 2887 H 270.951 -0.939352 0.127759 0
M  V30 2888 H 270.657 -3.51499 -0.118929 0
M  V30 2889 H 270.531 -3.28493 -1.85397 0
M  V30 2890 H 272.918 -2.29309 -1.85745 0
M  V30 2891 H 272.999 -2.55566 -0.109505 0
M  V30 2892 H 272.643 -5.05521 -0.490991 0
M  V30 2893 H 272.573 -4.76258 -2.24691 0
M  V30 2894 H 275.064 -3.57039 -1.23821 0
M  V30 2895 H 275.377 -7.48233 -1.93306 0
M  V30 2896 H 273.722 -6.72732 -1.74518 0
M  V30 2897 H 276.913 -4.44948 -1.45391 0
M  V30 2898 H 277.086 -6.2333 -1.77098 0
M  V30 2899 N 270.492 0.636531 -1.44174 0
M  V30 2900 C 271.455 1.73063 -1.50273 0
M  V30 2901 C 272.455 1.56113 -0.385397 0
M  V30 2902 O 273.645 1.61707 -0.64781 0
M  V30 2903 C 270.777 3.12096 -1.37145 0
M  V30 2904 H 271.97 1.69031 -2.47727 0
M  V30 2905 H 269.523 0.849706 -1.31186 0
M  V30 2906 H 270.258 3.21728 -0.407636 0
M  V30 2907 H 270.043 3.25805 -2.18159 0
M  V30 2908 H 271.533 3.91846 -1.44382 0
M  V30 2909 N 271.97 1.30982 0.876444 0
M  V30 2910 C 272.918 1.18006 2.00443 0
M  V30 2911 C 273.912 0.0898871 1.69161 0
M  V30 2912 O 275.118 0.251333 1.78237 0
M  V30 2913 H 271.493 0.365196 0.65737 0
M  V30 2914 H 273.464 2.13453 2.0852 0
M  V30 2915 C 272.213 0.897521 3.35916 0
M  V30 2916 H 271.536 1.7285 3.60504 0
M  V30 2917 H 272.976 0.846874 4.15456 0
M  V30 2918 C 271.435 -0.399674 3.34521 0
M  V30 2919 O 271.965 -1.41852 3.7582 0
M  V30 2920 N 270.171 -0.413893 2.87637 0
M  V30 2921 H 269.718 0.41571 2.54224 0
M  V30 2922 H 269.676 -1.28175 2.87086 0
M  V30 2923 N 273.449 -1.08991 1.13837 0
M  V30 2924 C 274.697 -1.80899 0.901098 0
M  V30 2925 C 275.018 -1.86356 -0.574134 0
M  V30 2926 O 274.288 -1.35235 -1.41733 0
M  V30 2927 H 272.868 -0.669966 0.330386 0
M  V30 2928 H 275.53 -1.318 1.43578 0
M  V30 2929 H 274.626 -2.83929 1.29578 0
M  V30 2930 N 274.927 -0.932562 -1.27047 0
M  V30 2931 C 276.152 -0.591474 -1.98787 0
M  V30 2932 C 276.577 0.824601 -1.69062 0
M  V30 2933 O 275.935 1.5541 -0.933677 0
M  V30 2934 C 275.983 -0.829808 -3.50922 0
M  V30 2935 O 275.087 0.102266 -4.12273 0
M  V30 2936 H 274.428 -0.227185 -0.623926 0
M  V30 2937 H 276.958 -1.25314 -1.61733 0
M  V30 2938 H 276.968 -0.747292 -4.01098 0
M  V30 2939 H 275.643 -1.86201 -3.7189 0
M  V30 2940 H 274.22 -0.0305761 -3.72887 0
M  V30 2941 N 276.405 1.4127 -0.698611 0
M  V30 2942 C 277.651 2.01478 -0.231207 0
M  V30 2943 C 277.984 1.55215 1.16713 0
M  V30 2944 O 277.259 0.764672 1.78838 0
M  V30 2945 C 277.542 3.58912 -0.292281 0
M  V30 2946 C 277.395 4.15293 -1.72778 0
M  V30 2947 C 278.714 4.38736 0.346194 0
M  V30 2948 H 275.833 0.732025 -0.0854878 0
M  V30 2949 H 278.475 1.67977 -0.887906 0
M  V30 2950 H 276.625 3.87582 0.26686 0
M  V30 2951 H 278.297 3.97486 -2.341 0
M  V30 2952 H 276.54 3.7022 -2.26096 0
M  V30 2953 H 277.211 5.24452 -1.72202 0
M  V30 2954 H 279.687 4.15897 -0.130035 0
M  V30 2955 H 278.563 5.48221 0.272932 0
M  V30 2956 H 278.824 4.18425 1.42734 0
M  V30 2957 N 277.883 0.443576 1.51229 0
M  V30 2958 C 279.294 -0.0180867 1.86691 0
M  V30 2959 C 279.645 -1.41384 1.36033 0
M  V30 2960 O 278.77 -2.04291 0.713722 0
M  V30 2961 C 279.365 -0.039597 3.38777 0
M  V30 2962 C 277.924 -0.445692 3.73752 0
M  V30 2963 C 277.071 0.357584 2.74985 0
M  V30 2964 H 280.022 0.659138 1.44364 0
M  V30 2965 H 280.043 -0.847761 3.70936 0
M  V30 2966 H 279.555 0.976382 3.75617 0
M  V30 2967 H 277.656 -1.46704 3.42503 0
M  V30 2968 H 277.769 -0.166155 4.78812 0
M  V30 2969 H 276.133 -0.184973 2.54027 0
M  V30 2970 H 276.916 1.37256 3.14668 0
M  V30 2971 N 279.361 -1.56624 0.175154 0
M  V30 2972 C 280.638 -1.88688 -0.515373 0
M  V30 2973 C 281.018 -1.08564 -1.81044 0
M  V30 2974 O 280.366 -0.180703 -2.27784 0
M  V30 2975 C 280.576 -3.40768 -0.753552 0
M  V30 2976 C 281.924 -4.10587 -1.08184 0
M  V30 2977 O 282.948 -3.46106 -0.841961 0
M  V30 2978 O 281.807 -5.24512 -1.53459 0
M  V30 2979 H 278.901 -0.78301 -0.26613 0
M  V30 2980 H 281.447 -1.68347 0.213877 0
M  V30 2981 H 280.219 -3.90965 0.161829 0
M  V30 2982 H 279.842 -3.66733 -1.53598 0
M  V30 2983 N 280.839 0.0985539 -1.57292 0
M  V30 2984 C 282.116 0.834155 -1.76921 0
M  V30 2985 C 282.496 1.97101 -0.755928 0
M  V30 2986 O 281.844 2.27474 0.216245 0
M  V30 2987 C 282.054 1.33194 -3.22584 0
M  V30 2988 C 283.402 1.77611 -3.85668 0
M  V30 2989 O 284.426 1.42825 -3.26312 0
M  V30 2990 O 283.285 2.4192 -4.90038 0
M  V30 2991 H 280.379 0.397628 -0.725135 0
M  V30 2992 H 282.925 0.0807044 -1.69508 0
M  V30 2993 H 281.697 0.517248 -3.87866 0
M  V30 2994 H 281.32 2.1475 -3.34616 0
M  V30 2995 N 282.317 1.53212 0.369288 0
M  V30 2996 C 283.247 1.82365 1.45826 0
M  V30 2997 C 284.228 0.676907 1.56051 0
M  V30 2998 O 285.413 0.926401 1.70679 0
M  V30 2999 C 282.543 2.01023 2.83208 0
M  V30 3000 C 281.497 3.1678 2.8781 0
M  V30 3001 C 280.823 3.20724 4.27832 0
M  V30 3002 C 282.123 4.55447 2.55667 0
M  V30 3003 H 283.817 2.73559 1.21678 0
M  V30 3004 H 281.363 1.3163 0.583911 0
M  V30 3005 H 283.316 2.20001 3.59413 0
M  V30 3006 H 282.04 1.06536 3.08736 0
M  V30 3007 H 280.699 2.97616 2.14056 0
M  V30 3008 H 280.347 2.23882 4.50429 0
M  V30 3009 H 280.047 3.98496 4.31827 0
M  V30 3010 H 281.571 3.41881 5.05915 0
M  V30 3011 H 282.985 4.74611 3.21586 0
M  V30 3012 H 281.382 5.35432 2.70984 0
M  V30 3013 H 282.452 4.60812 1.5093 0
M  V30 3014 N 283.795 -0.628877 1.44509 0
M  V30 3015 C 285.211 -0.947305 1.28446 0
M  V30 3016 C 285.411 -2.00275 0.221872 0
M  V30 3017 O 284.467 -2.49447 -0.391471 0
M  V30 3018 C 285.78 -1.40843 2.65676 0
M  V30 3019 C 287.328 -1.52379 2.73404 0
M  V30 3020 C 287.803 -2.01875 4.11109 0
M  V30 3021 N 289.294 -2.09142 4.13296 0
M  V30 3022 C 290.029 -2.48615 5.16699 0
M  V30 3023 N 289.525 -2.87209 6.30462 0
M  V30 3024 N 291.318 -2.48768 5.04054 0
M  V30 3025 H 283.469 0.0690977 2.12288 0
M  V30 3026 H 285.732 -0.0317164 0.947469 0
M  V30 3027 H 285.438 -0.707206 3.44516 0
M  V30 3028 H 285.312 -2.37902 2.92716 0
M  V30 3029 H 287.699 -2.21598 1.9488 0
M  V30 3030 H 287.78 -0.536898 2.50102 0
M  V30 3031 H 287.424 -1.3325 4.90109 0
M  V30 3032 H 287.354 -3.0144 4.31789 0
M  V30 3033 H 289.845 -1.81991 3.31191 0
M  V30 3034 H 290.158 -3.16149 7.05174 0
M  V30 3035 H 288.503 -2.84955 6.33897 0
M  V30 3036 H 291.694 -2.18009 4.14234 0
M  V30 3037 H 291.867 -2.79207 5.84763 0
M  V30 3038 N 285.273 -1.31445 -0.869486 0
M  V30 3039 C 286.519 -1.21337 -1.62496 0
M  V30 3040 C 286.852 0.227872 -1.92858 0
M  V30 3041 O 286.127 1.16094 -1.56053 0
M  V30 3042 C 286.41 -2.05814 -2.95487 0
M  V30 3043 C 286.263 -3.5824 -2.72 0
M  V30 3044 C 287.582 -1.9079 -3.96594 0
M  V30 3045 H 284.701 -0.442135 -0.589649 0
M  V30 3046 H 287.343 -1.6124 -1.00507 0
M  V30 3047 H 285.493 -1.71913 -3.48394 0
M  V30 3048 H 287.165 -4.0228 -2.25762 0
M  V30 3049 H 285.408 -3.81647 -2.06224 0
M  V30 3050 H 286.079 -4.12657 -3.66631 0
M  V30 3051 H 288.555 -2.20459 -3.52898 0
M  V30 3052 H 287.431 -2.52199 -4.87531 0
M  V30 3053 H 287.692 -0.871341 -4.33428 0
M  V30 3054 N 286.751 1.08385 -1.14413 0
M  V30 3055 C 287.701 2.13509 -0.79987 0
M  V30 3056 C 288.685 1.5951 0.211059 0
M  V30 3057 O 289.877 1.76995 0.0133694 0
M  V30 3058 C 287.006 3.42162 -0.279297 0
M  V30 3059 C 286.092 4.03042 -1.31976 0
M  V30 3060 N 286.483 4.38327 -2.52395 0
M  V30 3061 C 284.781 4.30379 -1.17004 0
M  V30 3062 C 285.482 4.86428 -3.19003 0
M  V30 3063 N 284.458 4.84547 -2.46405 0
M  V30 3064 H 288.26 2.38609 -1.7159 0
M  V30 3065 H 285.774 1.2572 -1.02802 0
M  V30 3066 H 287.771 4.16898 -0.0143688 0
M  V30 3067 H 286.431 3.18511 0.630923 0
M  V30 3068 H 287.442 4.29349 -2.89621 0
M  V30 3069 H 284.119 4.16281 -0.318854 0
M  V30 3070 H 285.509 5.23107 -4.21674 0
M  V30 3071 N 288.23 0.939286 1.26551 0
M  V30 3072 C 289.162 0.404704 2.25599 0
M  V30 3073 C 290.175 -0.470983 1.55838 0
M  V30 3074 O 291.364 -0.281734 1.76263 0
M  V30 3075 C 288.464 -0.43764 3.36062 0
M  V30 3076 C 287.637 0.421449 4.35365 0
M  V30 3077 C 286.696 -0.36015 5.24966 0
M  V30 3078 O 285.722 0.236167 5.6871 0
M  V30 3079 N 286.924 -1.65715 5.56344 0
M  V30 3080 H 289.689 1.25618 2.72103 0
M  V30 3081 H 287.25 0.807963 1.40298 0
M  V30 3082 H 289.242 -0.967866 3.92956 0
M  V30 3083 H 287.812 -1.18991 2.89067 0
M  V30 3084 H 287.032 1.1329 3.7757 0
M  V30 3085 H 288.32 1.00835 4.98708 0
M  V30 3086 H 287.718 -2.16378 5.22682 0
M  V30 3087 H 286.275 -2.13366 6.15888 0
M  V30 3088 N 289.708 -1.40897 0.706093 0
M  V30 3089 C 290.938 -2.05075 0.250523 0
M  V30 3090 C 291.346 -1.53275 -1.10921 0
M  V30 3091 O 290.689 -0.680281 -1.7064 0
M  V30 3092 C 290.751 -3.59219 0.142178 0
M  V30 3093 C 290.415 -4.33864 1.43566 0
M  V30 3094 C 291.412 -4.62448 2.37566 0
M  V30 3095 C 289.097 -4.72946 1.69195 0
M  V30 3096 C 291.091 -5.29088 3.5545 0
M  V30 3097 C 288.778 -5.3932 2.87362 0
M  V30 3098 C 289.776 -5.6732 3.80312 0
M  V30 3099 O 289.464 -6.32325 4.96408 0
M  V30 3100 H 289.196 -0.666645 0.112074 0
M  V30 3101 H 291.75 -1.81467 0.962239 0
M  V30 3102 H 289.98 -3.81609 -0.6254 0
M  V30 3103 H 291.669 -4.0495 -0.277584 0
M  V30 3104 H 292.435 -4.32727 2.19027 0
M  V30 3105 H 288.314 -4.50527 0.977042 0
M  V30 3106 H 291.858 -5.50859 4.28018 0
M  V30 3107 H 287.755 -5.68461 3.05814 0
M  V30 3108 H 288.523 -6.50821 4.9636 0
M  V30 3109 N 291.186 -0.45159 -1.50991 0
M  V30 3110 C 292.116 0.342898 -2.30969 0
M  V30 3111 C 293.097 1.00815 -1.37005 0
M  V30 3112 O 294.282 1.00907 -1.65926 0
M  V30 3113 C 291.412 1.43637 -3.16205 0
M  V30 3114 C 290.366 0.893818 -4.18563 0
M  V30 3115 C 289.692 2.08411 -4.92411 0
M  V30 3116 C 290.992 -0.0815568 -5.22236 0
M  V30 3117 H 292.686 -0.324556 -2.97636 0
M  V30 3118 H 290.232 -0.157531 -1.43136 0
M  V30 3119 H 292.185 1.9995 -3.70942 0
M  V30 3120 H 290.909 2.13232 -2.47386 0
M  V30 3121 H 289.568 0.352798 -3.64898 0
M  V30 3122 H 289.216 2.76658 -4.20082 0
M  V30 3123 H 288.916 1.72741 -5.61636 0
M  V30 3124 H 290.44 2.65251 -5.49976 0
M  V30 3125 H 291.854 0.391742 -5.7196 0
M  V30 3126 H 290.251 -0.351551 -5.99069 0
M  V30 3127 H 291.321 -1.01374 -4.74185 0
M  V30 3128 N 292.664 1.56529 -0.183458 0
M  V30 3129 C 293.594 2.21549 0.737456 0
M  V30 3130 C 294.575 1.17489 1.23005 0
M  V30 3131 O 295.76 1.45959 1.281 0
M  V30 3132 C 292.89 2.86575 1.96194 0
M  V30 3133 C 291.844 3.96778 1.60473 0
M  V30 3134 C 291.17 4.48911 2.90487 0
M  V30 3135 C 292.47 5.15767 0.823497 0
M  V30 3136 H 294.164 2.98761 0.195453 0
M  V30 3137 H 291.71 1.43702 0.0925686 0
M  V30 3138 H 293.663 3.30739 2.61131 0
M  V30 3139 H 292.387 2.06749 2.52828 0
M  V30 3140 H 291.046 3.53286 0.978997 0
M  V30 3141 H 290.694 3.65862 3.45186 0
M  V30 3142 H 290.394 5.23265 2.67335 0
M  V30 3143 H 291.918 4.95771 3.56432 0
M  V30 3144 H 293.332 5.56549 1.37571 0
M  V30 3145 H 291.729 5.96114 0.690551 0
M  V30 3146 H 292.799 4.84574 -0.177782 0
M  V30 3147 N 294.142 -0.090211 1.57342 0
M  V30 3148 C 295.39 -0.791241 1.85967 0
M  V30 3149 C 295.711 -1.7903 0.772859 0
M  V30 3150 O 294.981 -1.94872 -0.200398 0
M  V30 3151 H 293.561 -0.295205 0.686195 0
M  V30 3152 H 296.223 -0.0706782 1.94772 0
M  V30 3153 H 295.319 -1.31882 2.82867 0
M  V30 3154 N 295.62 -1.53406 -0.361157 0
M  V30 3155 C 296.85 -1.73465 -1.1222 0
M  V30 3156 C 297.258 -0.465486 -1.83384 0
M  V30 3157 O 296.601 0.571611 -1.7458 0
M  V30 3158 C 296.663 -2.84834 -2.19339 0
M  V30 3159 C 296.327 -4.25038 -1.67903 0
M  V30 3160 C 297.324 -5.07231 -1.14074 0
M  V30 3161 C 295.009 -4.71464 -1.73282 0
M  V30 3162 C 297.003 -6.33942 -0.663068 0
M  V30 3163 C 294.69 -5.98153 -1.25127 0
M  V30 3164 C 295.688 -6.79223 -0.717296 0
M  V30 3165 O 295.376 -8.03533 -0.242865 0
M  V30 3166 H 295.108 -0.583526 -0.341283 0
M  V30 3167 H 297.662 -2.00964 -0.424591 0
M  V30 3168 H 295.892 -2.5282 -2.92607 0
M  V30 3169 H 297.581 -2.9303 -2.80871 0
M  V30 3170 H 298.347 -4.72534 -1.09254 0
M  V30 3171 H 294.226 -4.08432 -2.13786 0
M  V30 3172 H 297.77 -6.97167 -0.245612 0
M  V30 3173 H 293.667 -6.32347 -1.29642 0
M  V30 3174 H 294.435 -8.177 -0.361786 0
M  V30 3175 N 297.098 0.621204 -1.44841 0
M  V30 3176 C 298.061 1.71459 -1.521 0
M  V30 3177 C 299.061 1.55696 -0.401933 0
M  V30 3178 O 300.251 1.61011 -0.664925 0
M  V30 3179 C 297.383 3.10624 -1.40447 0
M  V30 3180 H 298.576 1.66394 -2.49506 0
M  V30 3181 H 296.129 0.835745 -1.3208 0
M  V30 3182 H 296.864 3.21277 -0.441737 0
M  V30 3183 H 296.649 3.23473 -2.21602 0
M  V30 3184 H 298.139 3.90293 -1.4853 0
M  V30 3185 N 298.576 1.31904 0.862503 0
M  V30 3186 C 299.801 1.25135 1.65397 0
M  V30 3187 C 300.226 -0.179 1.87246 0
M  V30 3188 O 299.584 -1.1277 1.4196 0
M  V30 3189 C 299.632 2.00832 2.99498 0
M  V30 3190 O 298.736 1.35075 3.89652 0
M  V30 3191 H 298.077 0.431655 0.504549 0
M  V30 3192 H 300.607 1.74094 1.07483 0
M  V30 3193 H 300.617 2.10709 3.49379 0
M  V30 3194 H 299.292 3.04847 2.82916 0
M  V30 3195 H 297.869 1.33696 3.48109 0
M  V30 3196 N 300.054 -1.07777 1.14986 0
M  V30 3197 C 301.331 -1.7699 0.832695 0
M  V30 3198 C 301.711 -2.001 -0.672561 0
M  V30 3199 O 301.059 -1.61598 -1.6155 0
M  V30 3200 C 301.269 -3.08139 1.63863 0
M  V30 3201 C 302.617 -3.8256 1.84208 0
M  V30 3202 O 303.641 -3.17939 1.60603 0
M  V30 3203 O 302.5 -4.98612 2.23714 0
M  V30 3204 H 299.594 -0.768389 0.305791 0
M  V30 3205 H 302.14 -1.14182 1.25541 0
M  V30 3206 H 300.912 -2.86909 2.6608 0
M  V30 3207 H 300.535 -3.78678 1.21197 0
M  V30 3208 N 301.532 -0.945985 -1.26051 0
M  V30 3209 C 302.462 -0.477172 -2.28572 0
M  V30 3210 C 303.443 0.472032 -1.63419 0
M  V30 3211 O 304.628 0.372853 -1.90587 0
M  V30 3212 C 301.758 0.253975 -3.4637 0
M  V30 3213 C 300.712 -0.609135 -4.23643 0
M  V30 3214 C 300.038 0.252252 -5.34105 0
M  V30 3215 C 301.338 -1.8829 -4.8718 0
M  V30 3216 H 303.032 -1.33402 -2.68038 0
M  V30 3217 H 300.578 -0.642904 -1.28852 0
M  V30 3218 H 302.531 0.593016 -4.17207 0
M  V30 3219 H 301.255 1.145 -3.05871 0
M  V30 3220 H 299.914 -0.931138 -3.54578 0
M  V30 3221 H 299.562 1.14278 -4.89846 0
M  V30 3222 H 299.262 -0.32188 -5.86718 0
M  V30 3223 H 300.786 0.586454 -6.07777 0
M  V30 3224 H 302.2 -1.61081 -5.50205 0
M  V30 3225 H 300.597 -2.40199 -5.49931 0
M  V30 3226 H 301.667 -2.59134 -4.09851 0
M  V30 3227 N 303.011 1.40521 -0.713556 0
M  V30 3228 C 303.959 2.32549 -0.0485227 0
M  V30 3229 C 304.953 1.51931 0.74922 0
M  V30 3230 O 306.159 1.67745 0.652816 0
M  V30 3231 H 302.534 0.751994 0.00311138 0
M  V30 3232 H 304.505 2.86291 -0.841443 0
M  V30 3233 C 303.254 3.36879 0.860687 0
M  V30 3234 H 302.577 3.98978 0.256246 0
M  V30 3235 H 304.017 4.03772 1.294 0
M  V30 3236 C 302.476 2.72197 1.9852 0
M  V30 3237 O 303.006 2.5837 3.07584 0
M  V30 3238 N 301.212 2.30612 1.76823 0
M  V30 3239 H 300.759 2.42059 0.881217 0
M  V30 3240 H 300.717 1.87672 2.52243 0
M  V30 3241 N 304.489 0.459591 1.5075 0
M  V30 3242 C 305.736 -0.0993495 2.02256 0
M  V30 3243 C 306.064 -1.40751 1.34237 0
M  V30 3244 O 305.319 -1.90379 0.453228 0
M  V30 3245 C 305.618 -0.342866 3.55752 0
M  V30 3246 C 305.284 0.88218 4.42186 0
M  V30 3247 C 303.946 1.21808 4.65528 0
M  V30 3248 C 306.298 1.69837 4.92752 0
M  V30 3249 C 303.626 2.37045 5.36681 0
M  V30 3250 C 305.978 2.84192 5.65171 0
M  V30 3251 C 304.642 3.1821 5.8677 0
M  V30 3252 H 303.912 -0.0363545 0.740108 0
M  V30 3253 H 306.559 0.611329 1.8148 0
M  V30 3254 H 304.864 -1.13567 3.7498 0
M  V30 3255 H 306.561 -0.789121 3.93159 0
M  V30 3256 H 303.151 0.610467 4.2423 0
M  V30 3257 H 307.335 1.45205 4.74583 0
M  V30 3258 H 302.591 2.63689 5.51614 0
M  V30 3259 H 306.765 3.4779 6.03337 0
M  V30 3260 H 304.392 4.07613 6.41682 0
M  V30 3261 N 305.967 -1.56429 0.191757 0
M  V30 3262 C 306.897 -2.21937 -0.725696 0
M  V30 3263 C 307.878 -1.1814 -1.2238 0
M  V30 3264 O 309.063 -1.46636 -1.27325 0
M  V30 3265 C 306.193 -2.87611 -1.94672 0
M  V30 3266 C 305.147 -3.97623 -1.58366 0
M  V30 3267 C 304.473 -4.50446 -2.88102 0
M  V30 3268 C 305.773 -5.16197 -0.796133 0
M  V30 3269 H 307.467 -2.98861 -0.179606 0
M  V30 3270 H 305.013 -1.43749 -0.0849464 0
M  V30 3271 H 306.966 -3.3212 -2.59373 0
M  V30 3272 H 305.69 -2.08087 -2.51728 0
M  V30 3273 H 304.349 -3.53801 -0.960247 0
M  V30 3274 H 303.997 -3.67688 -3.43241 0
M  V30 3275 H 303.697 -5.24675 -2.64556 0
M  V30 3276 H 305.221 -4.97654 -3.53798 0
M  V30 3277 H 306.635 -5.57271 -1.34618 0
M  V30 3278 H 305.032 -5.96471 -0.658928 0
M  V30 3279 H 306.102 -4.84473 0.203478 0
M  V30 3280 N 307.445 0.0818655 -1.57387 0
M  V30 3281 C 308.856 0.634871 -1.75574 0
M  V30 3282 C 309.207 1.78435 -0.815809 0
M  V30 3283 O 308.332 2.164 0.0025366 0
M  V30 3284 C 308.927 1.15845 -3.18379 0
M  V30 3285 C 307.486 1.65741 -3.37945 0
M  V30 3286 C 306.633 0.572549 -2.71325 0
M  V30 3287 H 309.584 -0.144268 -1.58043 0
M  V30 3288 H 309.605 2.02751 -3.21982 0
M  V30 3289 H 309.117 0.321631 -3.86765 0
M  V30 3290 H 307.218 2.51781 -2.74658 0
M  V30 3291 H 307.331 1.74129 -4.46336 0
M  V30 3292 H 305.695 1.01518 -2.33594 0
M  V30 3293 H 306.478 -0.253918 -3.4236 0
M  V30 3294 N 308.923 1.53595 0.353017 0
M  V30 3295 C 310.169 1.70638 1.09593 0
M  V30 3296 C 310.502 0.463286 1.88593 0
M  V30 3297 O 309.777 -0.539597 1.86865 0
M  V30 3298 C 310.06 2.96406 2.04489 0
M  V30 3299 C 309.913 4.30901 1.29014 0
M  V30 3300 C 311.232 3.17812 3.0444 0
M  V30 3301 H 308.351 0.620913 0.397034 0
M  V30 3302 H 310.993 1.86254 0.375446 0
M  V30 3303 H 309.143 2.83223 2.65927 0
M  V30 3304 H 310.815 4.55917 0.702638 0
M  V30 3305 H 309.058 4.29741 0.592071 0
M  V30 3306 H 309.729 5.1506 1.98537 0
M  V30 3307 H 312.205 3.30263 2.53112 0
M  V30 3308 H 311.081 4.07223 3.6805 0
M  V30 3309 H 311.342 2.33669 3.75301 0
M  V30 3310 N 310.401 -0.613514 1.45168 0
M  V30 3311 C 311.364 -1.7065 1.53007 0
M  V30 3312 C 312.364 -1.5548 0.410184 0
M  V30 3313 O 313.554 -1.60656 0.673455 0
M  V30 3314 C 310.686 -3.09875 1.42093 0
M  V30 3315 H 311.879 -1.65068 2.50385 0
M  V30 3316 H 309.432 -0.828728 1.32521 0
M  V30 3317 H 310.167 -3.21039 0.458769 0
M  V30 3318 H 309.952 -3.22293 2.23315 0
M  V30 3319 H 311.442 -3.895 1.50598 0
M  V30 3320 N 311.879 -1.3236 -0.855495 0
M  V30 3321 C 312.809 -1.23833 -1.97958 0
M  V30 3322 C 313.79 -0.122361 -1.69659 0
M  V30 3323 O 314.975 -0.30939 -1.9172 0
M  V30 3324 C 312.105 -0.959772 -3.33775 0
M  V30 3325 C 311.059 -2.03689 -3.76424 0
M  V30 3326 C 310.385 -1.61075 -5.09862 0
M  V30 3327 C 311.685 -3.4518 -3.9198 0
M  V30 3328 H 313.379 -2.1788 -2.0535 0
M  V30 3329 H 310.925 -1.04891 -0.986605 0
M  V30 3330 H 312.878 -0.886678 -4.11966 0
M  V30 3331 H 311.602 0.0163404 -3.26596 0
M  V30 3332 H 310.261 -2.10012 -3.00484 0
M  V30 3333 H 309.909 -0.622107 -4.99138 0
M  V30 3334 H 309.609 -2.33143 -5.39368 0
M  V30 3335 H 311.133 -1.55201 -5.90546 0
M  V30 3336 H 312.547 -3.4145 -4.60526 0
M  V30 3337 H 310.944 -4.1559 -4.32903 0
M  V30 3338 H 312.014 -3.84903 -2.94919 0
M  V30 3339 N 313.357 1.07166 -1.15556 0
M  V30 3340 C 314.289 2.14341 -0.811815 0
M  V30 3341 C 315.302 1.61835 0.177015 0
M  V30 3342 O 316.491 1.78439 -0.0464996 0
M  V30 3343 C 313.591 3.38387 -0.186481 0
M  V30 3344 C 312.764 4.20238 -1.21321 0
M  V30 3345 C 311.823 5.2266 -0.609302 0
M  V30 3346 O 310.849 5.54719 -1.27576 0
M  V30 3347 N 312.051 5.77306 0.608099 0
M  V30 3348 H 314.816 2.44431 -1.73417 0
M  V30 3349 H 312.377 1.23089 -1.0517 0
M  V30 3350 H 314.369 4.04044 0.230339 0
M  V30 3351 H 312.939 3.05994 0.639249 0
M  V30 3352 H 312.159 3.50369 -1.80652 0
M  V30 3353 H 313.447 4.71736 -1.90638 0
M  V30 3354 H 312.845 5.53513 1.1679 0
M  V30 3355 H 311.402 6.44583 0.96725 0
M  V30 3356 N 314.835 0.952656 1.25548 0
M  V30 3357 C 316.246 0.647392 1.75116 0
M  V30 3358 C 316.597 -0.837274 1.77438 0
M  V30 3359 O 315.722 -1.65525 1.39393 0
M  V30 3360 C 316.317 1.16845 3.18014 0
M  V30 3361 C 314.876 0.913382 3.6515 0
M  V30 3362 C 314.023 1.31265 2.44264 0
M  V30 3363 H 316.974 1.12968 1.11462 0
M  V30 3364 H 316.995 0.527606 3.76824 0
M  V30 3365 H 316.507 2.24902 3.16292 0
M  V30 3366 H 314.608 -0.152316 3.72289 0
M  V30 3367 H 314.721 1.54845 4.53387 0
M  V30 3368 H 313.085 0.731028 2.43984 0
M  V30 3369 H 313.868 2.40239 2.45234 0
M  V30 3370 N 316.313 -1.40141 0.720998 0
M  V30 3371 C 317.263 -2.27949 0.0482544 0
M  V30 3372 C 318.247 -1.43538 -0.727021 0
M  V30 3373 O 319.439 -1.6658 -0.598332 0
M  V30 3374 C 316.568 -3.32126 -0.868729 0
M  V30 3375 C 315.654 -4.24008 -0.0883515 0
M  V30 3376 N 316.045 -4.97154 0.931226 0
M  V30 3377 C 314.343 -4.4485 -0.320105 0
M  V30 3378 C 315.044 -5.64587 1.4006 0
M  V30 3379 N 314.02 -5.38787 0.721752 0
M  V30 3380 H 317.822 -2.81948 0.829609 0
M  V30 3381 H 315.336 -1.52656 0.554067 0
M  V30 3382 H 317.333 -3.93884 -1.36605 0
M  V30 3383 H 315.993 -2.79687 -1.6494 0
M  V30 3384 H 317.004 -5.01 1.31222 0
M  V30 3385 H 313.681 -4.03378 -1.07668 0
M  V30 3386 H 315.071 -6.33175 2.24808 0
M  V30 3387 N 317.792 -0.46758 -1.50504 0
M  V30 3388 C 319.04 0.0884469 -2.01906 0
M  V30 3389 C 319.361 1.40532 -1.35188 0
M  V30 3390 O 318.631 1.89515 -0.496079 0
M  V30 3391 H 317.211 0.0356765 -0.746148 0
M  V30 3392 H 319.873 -0.6172 -1.84869 0
M  V30 3393 H 318.969 0.2425 -3.11156 0
M  V30 3394 N 319.27 1.56325 -0.20005 0
M  V30 3395 C 320.519 1.96895 0.437652 0
M  V30 3396 C 320.832 1.08999 1.62415 0
M  V30 3397 O 322.038 1.39372 2.32997 0
M  V30 3398 C 320.494 3.50198 0.830025 0
M  V30 3399 C 320.102 4.46765 -0.332461 0
M  V30 3400 C 321.846 3.99526 1.43453 0
M  V30 3401 C 319.753 5.91344 0.0811468 0
M  V30 3402 H 318.683 0.735209 0.167282 0
M  V30 3403 H 321.334 1.81148 -0.292853 0
M  V30 3404 H 319.716 3.61467 1.61734 0
M  V30 3405 H 320.89 4.47231 -1.11 0
M  V30 3406 H 319.205 4.07657 -0.848789 0
M  V30 3407 H 321.802 5.05025 1.75652 0
M  V30 3408 H 322.145 3.44122 2.34277 0
M  V30 3409 H 322.678 3.91393 0.71109 0
M  V30 3410 H 319.417 6.50685 -0.793033 0
M  V30 3411 H 318.937 5.94121 0.823445 0
M  V30 3412 H 320.616 6.44945 0.515252 0
M  V30 3413 N 320.748 -0.0735177 1.57428 0
M  V30 3414 C 321.996 -0.771472 1.86796 0
M  V30 3415 C 322.317 -1.78201 0.791804 0
M  V30 3416 O 321.587 -1.95074 -0.179718 0
M  V30 3417 H 320.167 -0.28791 0.689287 0
M  V30 3418 H 322.829 -0.0500161 1.94836 0
M  V30 3419 H 321.925 -1.28874 2.8425 0
M  V30 3420 N 322.226 -1.5378 -0.344866 0
M  V30 3421 C 323.473 -1.70963 -1.08526 0
M  V30 3422 C 323.801 -0.472126 -1.88683 0
M  V30 3423 O 323.056 0.546116 -1.87926 0
M  V30 3424 C 323.355 -2.92407 -2.05506 0
M  V30 3425 C 323.021 -4.28066 -1.41671 0
M  V30 3426 C 321.683 -4.64951 -1.2399 0
M  V30 3427 C 324.035 -5.12344 -0.956726 0
M  V30 3428 C 321.363 -5.83733 -0.589277 0
M  V30 3429 C 323.715 -6.3179 -0.320015 0
M  V30 3430 C 322.379 -6.67372 -0.130881 0
M  V30 3431 H 321.649 -0.625598 -0.397124 0
M  V30 3432 H 324.296 -1.87995 -0.36469 0
M  V30 3433 H 322.601 -2.69973 -2.8394 0
M  V30 3434 H 324.298 -3.02895 -2.62784 0
M  V30 3435 H 320.888 -3.99034 -1.56429 0
M  V30 3436 H 325.072 -4.8438 -1.08118 0
M  V30 3437 H 320.328 -6.09877 -0.431344 0
M  V30 3438 H 324.502 -6.96386 0.0445072 0
M  V30 3439 H 322.129 -7.59273 0.375318 0
M  V30 3440 N 323.704 0.605807 -1.45491 0
M  V30 3441 C 324.634 1.72709 -1.57143 0
M  V30 3442 C 325.615 1.6476 -0.422884 0
M  V30 3443 O 326.8 1.83132 -0.646247 0
M  V30 3444 C 323.93 3.11316 -1.53948 0
M  V30 3445 C 322.884 3.34077 -2.67537 0
M  V30 3446 C 322.21 4.72975 -2.49397 0
M  V30 3447 C 323.51 3.24158 -4.09535 0
M  V30 3448 H 325.204 1.63214 -2.51001 0
M  V30 3449 H 322.75 0.78379 -1.208 0
M  V30 3450 H 324.703 3.89557 -1.60696 0
M  V30 3451 H 323.427 3.21655 -0.566205 0
M  V30 3452 H 322.086 2.58227 -2.6022 0
M  V30 3453 H 321.734 4.8005 -1.50205 0
M  V30 3454 H 321.434 4.8916 -3.25571 0
M  V30 3455 H 322.958 5.53414 -2.58002 0
M  V30 3456 H 324.372 3.92271 -4.18086 0
M  V30 3457 H 322.769 3.51872 -4.86113 0
M  V30 3458 H 323.839 2.2157 -4.31317 0
M  V30 3459 N 325.182 1.32811 0.848464 0
M  V30 3460 C 326.092 1.24278 1.98978 0
M  V30 3461 C 327.108 0.155176 1.73307 0
M  V30 3462 O 328.284 0.376999 1.9784 0
M  V30 3463 C 325.349 0.972444 3.32783 0
M  V30 3464 C 324.41 2.14911 3.71634 0
M  V30 3465 C 323.643 1.89157 4.99054 0
M  V30 3466 O 323.866 0.837165 5.64223 0
M  V30 3467 O 322.8 2.75433 5.35183 0
M  V30 3468 H 326.626 2.20238 2.09115 0
M  V30 3469 H 324.211 1.12762 0.980052 0
M  V30 3470 H 326.093 0.838432 4.12975 0
M  V30 3471 H 324.768 0.043051 3.23671 0
M  V30 3472 H 323.675 2.33862 2.91992 0
M  V30 3473 H 325.008 3.06151 3.85399 0
M  V30 3474 N 326.66 -1.06551 1.16123 0
M  V30 3475 C 328.071 -1.60768 0.949232 0
M  V30 3476 C 328.422 -1.89523 -0.507508 0
M  V30 3477 O 327.547 -1.66671 -1.38021 0
M  V30 3478 C 328.142 -2.92086 1.71671 0
M  V30 3479 C 326.701 -3.43015 1.54977 0
M  V30 3480 C 325.848 -2.16947 1.72711 0
M  V30 3481 H 328.799 -0.895354 1.31031 0
M  V30 3482 H 328.82 -3.6138 1.19099 0
M  V30 3483 H 328.332 -2.71127 2.7769 0
M  V30 3484 H 326.433 -3.69039 0.513873 0
M  V30 3485 H 326.546 -4.18516 2.33198 0
M  V30 3486 H 324.91 -2.27041 1.15431 0
M  V30 3487 H 325.693 -1.98473 2.80113 0
M  V30 3488 N 328.138 -0.959301 -1.25041 0
M  V30 3489 C 329.386 -0.615393 -1.92503 0
M  V30 3490 C 329.707 0.850969 -1.75452 0
M  V30 3491 O 328.977 1.60658 -1.12098 0
M  V30 3492 H 327.557 -0.224613 -0.712431 0
M  V30 3493 H 330.219 -1.21855 -1.5211 0
M  V30 3494 H 329.315 -0.848738 -3.00338 0
M  V30 3495 N 329.616 1.39756 -0.72842 0
M  V30 3496 C 330.865 1.99879 -0.270407 0
M  V30 3497 C 331.178 1.58449 1.14688 0
M  V30 3498 O 332.384 2.11362 1.70407 0
M  V30 3499 C 330.84 3.57292 -0.43252 0
M  V30 3500 C 330.448 4.07688 -1.85727 0
M  V30 3501 C 332.192 4.24485 -0.0359507 0
M  V30 3502 C 330.099 5.5765 -1.96928 0
M  V30 3503 H 329.029 0.747689 -0.0973472 0
M  V30 3504 H 331.68 1.59837 -0.901355 0
M  V30 3505 H 330.062 3.95097 0.267219 0
M  V30 3506 H 331.236 3.81231 -2.58843 0
M  V30 3507 H 329.551 3.53135 -2.20646 0
M  V30 3508 H 332.148 5.34609 -0.0987484 0
M  V30 3509 H 332.491 4.03915 1.00787 0
M  V30 3510 H 333.024 3.9183 -0.686604 0
M  V30 3511 H 329.763 5.8309 -2.99476 0
M  V30 3512 H 329.283 5.8593 -1.28241 0
M  V30 3513 H 330.962 6.22957 -1.74737 0
M  V30 3514 N 331.094 0.475555 1.50254 0
M  V30 3515 C 332.026 -0.352649 2.26471 0
M  V30 3516 C 333.039 -0.953165 1.3198 0
M  V30 3517 O 334.228 -0.840815 1.57457 0
M  V30 3518 C 331.328 -1.50902 3.0345 0
M  V30 3519 C 330.501 -1.02047 4.25329 0
M  V30 3520 C 329.56 -2.05142 4.84565 0
M  V30 3521 O 328.586 -1.63023 5.45355 0
M  V30 3522 N 329.788 -3.37987 4.71959 0
M  V30 3523 H 332.553 0.300767 2.98187 0
M  V30 3524 H 330.114 0.306598 1.5897 0
M  V30 3525 H 332.106 -2.19572 3.39956 0
M  V30 3526 H 330.676 -2.06705 2.34504 0
M  V30 3527 H 329.896 -0.159507 3.93877 0
M  V30 3528 H 331.184 -0.672061 5.04342 0
M  V30 3529 H 330.582 -3.74913 4.23623 0
M  V30 3530 H 329.139 -4.02443 5.12721 0
M  V30 3531 N 332.573 -1.56217 0.208337 0
M  V30 3532 C 333.822 -1.97124 -0.427204 0
M  V30 3533 C 334.135 -1.09859 -1.61835 0
M  V30 3534 O 335.341 -1.40606 -2.32255 0
M  V30 3535 C 333.797 -3.50633 -0.811442 0
M  V30 3536 C 333.405 -4.46582 0.35615 0
M  V30 3537 C 335.149 -4.00282 -1.41332 0
M  V30 3538 C 333.056 -5.91379 -0.0497852 0
M  V30 3539 H 331.986 -0.736086 -0.163381 0
M  V30 3540 H 334.637 -1.8099 0.302456 0
M  V30 3541 H 333.019 -3.62319 -1.59815 0
M  V30 3542 H 334.193 -4.46636 1.1337 0
M  V30 3543 H 332.508 -4.07202 0.870396 0
M  V30 3544 H 335.105 -5.0595 -1.72972 0
M  V30 3545 H 335.448 -3.45359 -2.32449 0
M  V30 3546 H 335.981 -3.91764 -0.690323 0
M  V30 3547 H 332.72 -6.50255 0.827529 0
M  V30 3548 H 332.24 -5.94549 -0.791926 0
M  V30 3549 H 333.919 -6.45209 -0.481042 0
M  V30 3550 N 334.051 0.0651679 -1.57465 0
M  V30 3551 C 335.014 1.06117 -2.03155 0
M  V30 3552 C 336.014 1.31204 -0.929632 0
M  V30 3553 O 337.204 1.26813 -1.19432 0
M  V30 3554 C 334.336 2.4032 -2.41783 0
M  V30 3555 H 335.529 0.667231 -2.92383 0
M  V30 3556 H 333.082 0.311075 -1.53173 0
M  V30 3557 H 333.817 2.84532 -1.55601 0
M  V30 3558 H 333.602 2.23451 -3.22199 0
M  V30 3559 H 335.092 3.11898 -2.77685 0
M  V30 3560 N 335.529 1.53961 0.336706 0
M  V30 3561 C 336.757 1.75483 1.09605 0
M  V30 3562 C 337.172 0.4972 1.82136 0
M  V30 3563 O 336.529 -0.53149 1.74589 0
M  V30 3564 C 336.58 2.93943 2.10428 0
M  V30 3565 O 336.301 4.14842 1.40846 0
M  V30 3566 C 337.802 3.27571 2.98684 0
M  V30 3567 H 335.022 0.586166 0.326574 0
M  V30 3568 H 337.566 2.00808 0.38683 0
M  V30 3569 H 335.721 2.70929 2.76905 0
M  V30 3570 H 336.135 4.81383 2.08255 0
M  V30 3571 H 337.609 4.13791 3.6535 0
M  V30 3572 H 338.086 2.44168 3.65074 0
M  V30 3573 H 338.692 3.52615 2.37787 0
M  V30 3574 N 337.007 -0.598083 1.45811 0
M  V30 3575 C 338.256 -1.35295 1.49594 0
M  V30 3576 C 338.569 -1.95057 0.145679 0
M  V30 3577 O 339.775 -2.71431 0.0612099 0
M  V30 3578 C 338.231 -2.45124 2.63519 0
M  V30 3579 C 337.839 -1.91732 4.04899 0
M  V30 3580 C 339.583 -3.2205 2.76558 0
M  V30 3581 C 337.49 -2.991 5.1019 0
M  V30 3582 H 336.42 -0.508552 0.556679 0
M  V30 3583 H 339.071 -0.639977 1.71978 0
M  V30 3584 H 337.453 -3.19149 2.34435 0
M  V30 3585 H 338.627 -1.24352 4.43704 0
M  V30 3586 H 336.942 -1.27522 3.96393 0
M  V30 3587 H 339.539 -4.0215 3.52391 0
M  V30 3588 H 339.882 -3.73663 1.83526 0
M  V30 3589 H 340.415 -2.55127 3.05213 0
M  V30 3590 H 337.154 -2.52393 6.04961 0
M  V30 3591 H 336.674 -3.65017 4.75944 0
M  V30 3592 H 338.353 -3.63318 5.35359 0
M  V30 3593 N 338.485 -1.33259 -0.841409 0
M  V30 3594 C 339.762 -1.15174 -1.58096 0
M  V30 3595 C 340.142 0.282858 -2.09196 0
M  V30 3596 O 339.49 1.28151 -1.89181 0
M  V30 3597 C 339.7 -2.1907 -2.71679 0
M  V30 3598 C 341.048 -2.53093 -3.40924 0
M  V30 3599 O 342.072 -2.17717 -2.81918 0
M  V30 3600 O 340.931 -3.1379 -4.47435 0
M  V30 3601 H 338.025 -0.445303 -0.696875 0
M  V30 3602 H 340.571 -1.44833 -0.884385 0
M  V30 3603 H 339.343 -3.15443 -2.31541 0
M  V30 3604 H 338.966 -1.90481 -3.49002 0
M  V30 3605 N 339.963 1.05934 -1.16686 0
M  V30 3606 C 340.913 2.11764 -0.844978 0
M  V30 3607 C 341.897 1.59922 0.177178 0
M  V30 3608 O 343.089 1.76983 -0.0241768 0
M  V30 3609 C 340.218 3.41493 -0.351812 0
M  V30 3610 C 339.304 4.00152 -1.40496 0
M  V30 3611 N 339.695 4.32874 -2.61636 0
M  V30 3612 C 337.993 4.278 -1.26106 0
M  V30 3613 C 338.694 4.79552 -3.29249 0
M  V30 3614 N 337.67 4.79211 -2.56628 0
M  V30 3615 H 341.472 2.34916 -1.76612 0
M  V30 3616 H 338.986 1.23511 -1.05446 0
M  V30 3617 H 340.983 4.16773 -0.102796 0
M  V30 3618 H 339.643 3.19778 0.56322 0
M  V30 3619 H 340.654 4.23109 -2.98663 0
M  V30 3620 H 337.331 4.15511 -0.407081 0
M  V30 3621 H 338.721 5.14045 -4.32675 0
M  V30 3622 N 341.441 0.965919 1.2453 0
M  V30 3623 C 342.666 0.643971 1.97149 0
M  V30 3624 C 343.091 -0.779487 1.71189 0
M  V30 3625 O 342.449 -1.5288 0.974553 0
M  V30 3626 C 342.497 0.922557 3.48599 0
M  V30 3627 O 341.601 0.00707672 4.12399 0
M  V30 3628 H 340.942 0.243647 0.617683 0
M  V30 3629 H 343.472 1.29558 1.58353 0
M  V30 3630 H 343.482 0.853373 3.98976 0
M  V30 3631 H 342.157 1.95996 3.66822 0
M  V30 3632 H 340.734 0.12943 3.72675 0
M  V30 3633 N 342.919 -1.39368 0.735821 0
M  V30 3634 C 343.852 -2.28155 0.0451175 0
M  V30 3635 C 344.83 -1.44433 -0.746852 0
M  V30 3636 O 346.014 -1.73823 -0.729237 0
M  V30 3637 C 343.141 -3.253 -0.943266 0
M  V30 3638 C 342.187 -4.25826 -0.239685 0
M  V30 3639 S 343.02 -5.25166 1.04693 0
M  V30 3640 C 344.176 -6.2587 0.0611639 0
M  V30 3641 H 344.409 -2.86388 0.79807 0
M  V30 3642 H 341.942 -1.45104 0.527653 0
M  V30 3643 H 343.9 -3.81789 -1.50824 0
M  V30 3644 H 342.561 -2.66085 -1.66906 0
M  V30 3645 H 341.754 -4.94229 -0.987596 0
M  V30 3646 H 341.356 -3.73141 0.253274 0
M  V30 3647 H 343.648 -6.73007 -0.778941 0
M  V30 3648 H 344.591 -7.04508 0.712362 0
M  V30 3649 H 344.999 -5.63639 -0.311602 0
M  V30 3650 N 344.397 -0.483516 -1.5 0
M  V30 3651 C 345.643 0.0593261 -2.03313 0
M  V30 3652 C 345.998 1.36288 -1.35806 0
M  V30 3653 O 345.291 1.85519 -0.478897 0
M  V30 3654 C 345.485 0.286226 -3.56252 0
M  V30 3655 C 345.314 -0.993788 -4.38582 0
M  V30 3656 C 344.084 -1.54064 -4.81241 0
M  V30 3657 C 346.282 -1.89249 -4.78215 0
M  V30 3658 N 344.264 -2.76838 -5.47936 0
M  V30 3659 C 345.635 -2.96606 -5.44449 0
M  V30 3660 C 347.69 -1.90138 -4.60165 0
M  V30 3661 C 346.393 -4.04857 -5.94544 0
M  V30 3662 C 348.419 -2.97353 -5.1121 0
M  V30 3663 C 347.781 -4.03429 -5.77429 0
M  V30 3664 H 343.88 -0.0186322 -0.781778 0
M  V30 3665 H 346.464 -0.654489 -1.8337 0
M  V30 3666 H 344.635 0.969086 -3.76116 0
M  V30 3667 H 346.367 0.824515 -3.96212 0
M  V30 3668 H 343.122 -1.08813 -4.6093 0
M  V30 3669 H 343.546 -3.39221 -5.85882 0
M  V30 3670 H 348.188 -1.09441 -4.0839 0
M  V30 3671 H 345.906 -4.86363 -6.4535 0
M  V30 3672 H 349.492 -2.99039 -4.99066 0
M  V30 3673 H 348.372 -4.85025 -6.16214 0
M  V30 3674 N 345.875 1.56104 -0.216619 0
M  V30 3675 C 347.122 1.98172 0.416416 0
M  V30 3676 C 347.45 1.10413 1.60122 0
M  V30 3677 O 346.705 0.147967 1.9514 0
M  V30 3678 C 347.004 3.45923 0.898464 0
M  V30 3679 C 346.67 4.50559 -0.175288 0
M  V30 3680 C 345.332 4.78897 -0.470271 0
M  V30 3681 C 347.684 5.1334 -0.901728 0
M  V30 3682 C 345.012 5.67299 -1.4963 0
M  V30 3683 C 347.364 6.02853 -1.91705 0
M  V30 3684 C 346.028 6.29537 -2.21901 0
M  V30 3685 H 345.298 0.725164 0.152377 0
M  V30 3686 H 347.945 1.88839 -0.318103 0
M  V30 3687 H 346.25 3.52434 1.71165 0
M  V30 3688 H 347.947 3.75841 1.39803 0
M  V30 3689 H 344.537 4.28551 0.0647806 0
M  V30 3690 H 348.721 4.91521 -0.687072 0
M  V30 3691 H 343.977 5.86239 -1.73592 0
M  V30 3692 H 348.151 6.50552 -2.48505 0
M  V30 3693 H 345.778 6.97835 -3.01548 0
M  V30 3694 N 347.353 -0.0568162 1.57498 0
M  V30 3695 C 348.303 -1.07315 2.01166 0
M  V30 3696 C 349.287 -1.33632 0.896171 0
M  V30 3697 O 350.479 -1.33682 1.16009 0
M  V30 3698 C 347.608 -2.38257 2.47161 0
M  V30 3699 C 346.694 -2.1515 3.65474 0
M  V30 3700 N 347.085 -1.62014 4.7915 0
M  V30 3701 C 345.383 -2.45559 3.72313 0
M  V30 3702 C 346.084 -1.54069 5.60926 0
M  V30 3703 N 345.06 -2.00652 5.05213 0
M  V30 3704 H 348.862 -0.655878 2.86488 0
M  V30 3705 H 346.376 -0.263635 1.60246 0
M  V30 3706 H 348.373 -3.11845 2.76691 0
M  V30 3707 H 347.033 -2.80687 1.63232 0
M  V30 3708 H 348.044 -1.30667 5.01145 0
M  V30 3709 H 344.721 -2.91253 2.99129 0
M  V30 3710 H 346.111 -1.13712 6.62208 0
M  V30 3711 N 348.832 -1.54138 -0.328536 0
M  V30 3712 C 350.248 -1.44736 -0.672574 0
M  V30 3713 C 350.448 -0.616217 -1.91846 0
M  V30 3714 O 349.504 -0.113067 -2.52247 0
M  V30 3715 C 350.817 -2.884 -0.851217 0
M  V30 3716 C 352.365 -2.98271 -0.948877 0
M  V30 3717 C 352.84 -4.43074 -1.15973 0
M  V30 3718 N 354.331 -4.46665 -1.22658 0
M  V30 3719 C 355.066 -5.55857 -1.40751 0
M  V30 3720 N 354.562 -6.75026 -1.5592 0
M  V30 3721 N 356.355 -5.43495 -1.4342 0
M  V30 3722 H 348.506 -2.06661 0.490421 0
M  V30 3723 H 350.769 -0.934812 0.157579 0
M  V30 3724 H 350.475 -3.51699 -0.00704236 0
M  V30 3725 H 350.349 -3.34225 -1.74853 0
M  V30 3726 H 352.736 -2.35102 -1.78356 0
M  V30 3727 H 352.817 -2.55785 -0.0281435 0
M  V30 3728 H 352.461 -5.06827 -0.329915 0
M  V30 3729 H 352.391 -4.83165 -2.09426 0
M  V30 3730 H 354.882 -3.60797 -1.124 0
M  V30 3731 H 355.195 -7.54004 -1.69404 0
M  V30 3732 H 353.54 -6.77944 -1.53027 0
M  V30 3733 H 356.731 -4.49349 -1.31162 0
M  V30 3734 H 356.904 -6.28649 -1.57178 0
M  V30 3735 N 350.31 0.590341 -1.46126 0
M  V30 3736 C 351.721 1.17243 -1.45296 0
M  V30 3737 C 352.072 1.95281 -0.189723 0
M  V30 3738 O 351.197 2.04502 0.707674 0
M  V30 3739 C 351.792 2.13284 -2.6324 0
M  V30 3740 C 350.351 2.66832 -2.65476 0
M  V30 3741 C 349.498 1.42557 -2.3785 0
M  V30 3742 H 352.449 0.378692 -1.54116 0
M  V30 3743 H 352.47 2.96619 -2.38323 0
M  V30 3744 H 351.982 1.56459 -3.55165 0
M  V30 3745 H 350.083 3.27548 -1.77603 0
M  V30 3746 H 350.196 3.10088 -3.65215 0
M  V30 3747 H 348.56 1.72107 -1.87753 0
M  V30 3748 H 349.343 0.875741 -3.31942 0
M  V30 3749 N 351.788 1.33704 0.83433 0
M  V30 3750 C 353.035 1.25417 1.58987 0
M  V30 3751 C 353.363 -0.178869 1.93676 0
M  V30 3752 O 352.618 -1.13723 1.59265 0
M  V30 3753 C 352.917 2.07926 2.90692 0
M  V30 3754 C 352.583 3.57066 2.75345 0
M  V30 3755 C 351.245 3.97724 2.70867 0
M  V30 3756 C 353.597 4.51817 2.59828 0
M  V30 3757 C 350.925 5.31344 2.48778 0
M  V30 3758 C 353.277 5.85604 2.39272 0
M  V30 3759 C 351.941 6.25439 2.33199 0
M  V30 3760 H 351.211 0.458934 0.581774 0
M  V30 3761 H 353.858 1.65335 0.966261 0
M  V30 3762 H 352.163 1.608 3.57282 0
M  V30 3763 H 353.86 1.98868 3.48213 0
M  V30 3764 H 350.45 3.24785 2.79665 0
M  V30 3765 H 354.634 4.21311 2.62319 0
M  V30 3766 H 349.89 5.61241 2.42526 0
M  V30 3767 H 354.064 6.58623 2.2625 0
M  V30 3768 H 351.691 7.28914 2.15843 0
M  V30 3769 N 353.266 -1.05314 1.17247 0
M  V30 3770 C 354.214 -2.15137 0.884238 0
M  V30 3771 C 355.208 -1.68729 -0.15063 0
M  V30 3772 O 356.414 -1.8 -0.00366673 0
M  V30 3773 H 352.789 -0.702471 0.2684 0
M  V30 3774 H 354.76 -2.36652 1.81764 0
M  V30 3775 C 353.509 -3.45243 0.412659 0
M  V30 3776 H 352.832 -3.81352 1.20043 0
M  V30 3777 H 354.272 -4.23263 0.249858 0
M  V30 3778 C 352.731 -3.25487 -0.86948 0
M  V30 3779 O 353.261 -3.51938 -1.93655 0
M  V30 3780 N 351.467 -2.78875 -0.817147 0
M  V30 3781 H 351.014 -2.57549 0.0514211 0
M  V30 3782 H 350.972 -2.66036 -1.67547 0
M  V30 3783 N 354.744 -0.972509 -1.24016 0
M  V30 3784 C 355.674 -0.525548 -2.27509 0
M  V30 3785 C 356.655 0.437262 -1.64384 0
M  V30 3786 O 357.84 0.332343 -1.91335 0
M  V30 3787 C 354.97 0.180448 -3.46831 0
M  V30 3788 C 353.924 -0.698859 -4.22256 0
M  V30 3789 C 353.25 0.138903 -5.3452 0
M  V30 3790 C 354.55 -1.98582 -4.83076 0
M  V30 3791 H 356.244 -1.39058 -2.65148 0
M  V30 3792 H 353.79 -0.67009 -1.27459 0
M  V30 3793 H 355.743 0.504387 -4.18371 0
M  V30 3794 H 354.467 1.07987 -3.08231 0
M  V30 3795 H 353.126 -1.00614 -3.52523 0
M  V30 3796 H 352.774 1.03862 -4.9216 0
M  V30 3797 H 352.474 -0.446259 -5.85903 0
M  V30 3798 H 353.998 0.457404 -6.08884 0
M  V30 3799 H 355.412 -1.72715 -5.46665 0
M  V30 3800 H 353.809 -2.5181 -5.44713 0
M  V30 3801 H 354.879 -2.67769 -4.04262 0
M  V30 3802 N 356.222 1.38976 -0.743202 0
M  V30 3803 C 357.17 2.32394 -0.0978389 0
M  V30 3804 C 358.164 1.53486 0.716824 0
M  V30 3805 O 359.37 1.69092 0.617088 0
M  V30 3806 H 355.745 0.75189 -0.0128402 0
M  V30 3807 H 357.716 2.84441 -0.901981 0
M  V30 3808 C 356.465 3.38629 0.789036 0
M  V30 3809 H 355.788 3.99432 0.171559 0
M  V30 3810 H 357.228 4.06426 1.20807 0
M  V30 3811 C 355.687 2.76347 1.92702 0
M  V30 3812 O 356.217 2.64836 3.02034 0
M  V30 3813 N 354.423 2.34311 1.71891 0
M  V30 3814 H 353.97 2.43873 0.829675 0
M  V30 3815 H 353.928 1.9298 2.48205 0
M  V30 3816 N 357.7 0.491464 1.49741 0
M  V30 3817 C 358.61 -0.296835 2.32715 0
M  V30 3818 C 359.626 -0.976536 1.44013 0
M  V30 3819 O 360.802 -0.960023 1.77047 0
M  V30 3820 C 357.867 -1.35288 3.19215 0
M  V30 3821 C 356.928 -0.687632 4.23757 0
M  V30 3822 C 356.161 -1.69336 5.06123 0
M  V30 3823 O 356.384 -2.92219 4.89861 0
M  V30 3824 O 355.318 -1.25394 5.88693 0
M  V30 3825 H 359.144 0.382048 3.01287 0
M  V30 3826 H 356.729 0.252953 1.47243 0
M  V30 3827 H 358.611 -1.96411 3.72828 0
M  V30 3828 H 357.286 -2.01487 2.53347 0
M  V30 3829 H 356.193 -0.0369159 3.74082 0
M  V30 3830 H 357.526 -0.0682566 4.92153 0
M  V30 3831 N 359.178 -1.55987 0.224894 0
M  V30 3832 C 360.424 -1.99433 -0.39973 0
M  V30 3833 C 360.779 -1.11004 -1.57149 0
M  V30 3834 O 360.072 -0.160725 -1.90925 0
M  V30 3835 C 360.266 -3.46394 -0.880106 0
M  V30 3836 C 360.095 -4.4904 0.243565 0
M  V30 3837 C 358.865 -5.00272 0.711056 0
M  V30 3838 C 361.063 -5.03195 1.06299 0
M  V30 3839 N 359.045 -5.86628 1.80944 0
M  V30 3840 C 360.416 -5.86508 2.01017 0
M  V30 3841 C 362.471 -4.8555 1.10205 0
M  V30 3842 C 361.174 -6.54062 2.99324 0
M  V30 3843 C 363.2 -5.53866 2.07332 0
M  V30 3844 C 362.562 -6.3695 3.00789 0
M  V30 3845 H 358.661 -0.773815 -0.112847 0
M  V30 3846 H 361.245 -1.91754 0.337432 0
M  V30 3847 H 359.416 -3.54515 -1.58662 0
M  V30 3848 H 361.148 -3.76752 -1.47783 0
M  V30 3849 H 357.903 -4.72655 0.29906 0
M  V30 3850 H 358.327 -6.34507 2.36073 0
M  V30 3851 H 362.969 -4.20966 0.39343 0
M  V30 3852 H 360.687 -7.17827 3.71147 0
M  V30 3853 H 364.273 -5.42178 2.11032 0
M  V30 3854 H 363.153 -6.8888 3.74718 0
M  V30 3855 N 360.656 0.0484629 -1.57525 0
M  V30 3856 C 361.586 1.0549 -2.08313 0
M  V30 3857 C 362.567 1.38929 -0.981463 0
M  V30 3858 O 363.752 1.48151 -1.25558 0
M  V30 3859 C 360.882 2.36162 -2.54646 0
M  V30 3860 C 359.836 2.17016 -3.68901 0
M  V30 3861 C 359.162 3.53278 -4.01371 0
M  V30 3862 C 360.462 1.57219 -4.98076 0
M  V30 3863 H 362.156 0.632195 -2.92649 0
M  V30 3864 H 359.702 0.302654 -1.40784 0
M  V30 3865 H 361.655 3.06882 -2.88793 0
M  V30 3866 H 360.379 2.80456 -1.67368 0
M  V30 3867 H 359.038 1.48733 -3.35073 0
M  V30 3868 H 358.686 3.95185 -3.11188 0
M  V30 3869 H 358.386 3.41299 -4.78318 0
M  V30 3870 H 359.91 4.25391 -4.38035 0
M  V30 3871 H 361.324 2.17832 -5.30304 0
M  V30 3872 H 359.721 1.55871 -5.79503 0
M  V30 3873 H 360.791 0.535956 -4.81929 0
M  V30 3874 N 362.134 1.5431 0.320358 0
M  V30 3875 C 363.064 1.86912 1.3995 0
M  V30 3876 C 364.045 0.726211 1.53819 0
M  V30 3877 O 365.23 0.980233 1.67646 0
M  V30 3878 C 362.36 2.09932 2.7667 0
M  V30 3879 C 361.314 3.25776 2.77586 0
M  V30 3880 C 360.64 3.34173 4.17412 0
M  V30 3881 C 361.94 4.6335 2.41048 0
M  V30 3882 H 363.634 2.77292 1.12914 0
M  V30 3883 H 361.18 1.33421 0.541738 0
M  V30 3884 H 363.133 2.31324 3.52232 0
M  V30 3885 H 361.857 1.16304 3.0519 0
M  V30 3886 H 360.516 3.04276 2.04479 0
M  V30 3887 H 360.164 2.38098 4.43078 0
M  V30 3888 H 359.864 4.12033 4.18931 0
M  V30 3889 H 361.388 3.57803 4.94782 0
M  V30 3890 H 362.802 4.84602 3.06324 0
M  V30 3891 H 361.199 5.43782 2.53813 0
M  V30 3892 H 362.269 4.65381 1.36193 0
M  V30 3893 N 363.613 -0.582584 1.46437 0
M  V30 3894 C 364.843 -1.36484 1.55099 0
M  V30 3895 C 365.251 -1.88233 0.191056 0
M  V30 3896 O 364.594 -1.6429 -0.821858 0
M  V30 3897 C 364.656 -2.588 2.49525 0
M  V30 3898 C 364.32 -2.28517 3.95764 0
M  V30 3899 C 365.317 -1.87346 4.84972 0
M  V30 3900 C 363.002 -2.40658 4.40896 0
M  V30 3901 C 364.996 -1.5871 6.17325 0
M  V30 3902 C 362.683 -2.11635 5.73284 0
M  V30 3903 C 363.681 -1.70725 6.61318 0
M  V30 3904 O 363.369 -1.42057 7.91249 0
M  V30 3905 H 363.101 -0.423297 0.527063 0
M  V30 3906 H 365.655 -0.715188 1.92547 0
M  V30 3907 H 363.885 -3.26571 2.07095 0
M  V30 3908 H 365.574 -3.20868 2.48593 0
M  V30 3909 H 366.34 -1.77481 4.5136 0
M  V30 3910 H 362.219 -2.71463 3.72598 0
M  V30 3911 H 365.763 -1.26704 6.85997 0
M  V30 3912 H 361.66 -2.21124 6.06444 0
M  V30 3913 H 362.428 -1.55901 8.03515 0
M  V30 3914 N 365.091 -1.34144 -0.827227 0
M  V30 3915 C 366.316 -1.29476 -1.62021 0
M  V30 3916 C 366.741 0.129292 -1.87655 0
M  V30 3917 O 366.099 1.08967 -1.449 0
M  V30 3918 C 366.147 -2.08702 -2.94068 0
M  V30 3919 O 365.251 -1.45359 -3.85933 0
M  V30 3920 H 364.592 -0.444881 -0.492927 0
M  V30 3921 H 367.122 -1.76882 -1.02829 0
M  V30 3922 H 367.132 -2.19898 -3.43669 0
M  V30 3923 H 365.807 -3.12241 -2.74734 0
M  V30 3924 H 364.384 -1.42879 -3.44442 0
M  V30 3925 N 366.569 1.04691 -1.17803 0
M  V30 3926 C 367.815 1.78045 -0.970969 0
M  V30 3927 C 368.148 1.87686 0.498751 0
M  V30 3928 O 367.423 1.38035 1.37027 0
M  V30 3929 C 367.706 3.2166 -1.61884 0
M  V30 3930 C 367.559 3.20001 -3.161 0
M  V30 3931 C 368.878 4.1962 -1.3269 0
M  V30 3932 H 365.997 0.64633 -0.354155 0
M  V30 3933 H 368.639 1.22333 -1.45378 0
M  V30 3934 H 366.789 3.69232 -1.20831 0
M  V30 3935 H 368.461 2.80467 -3.66246 0
M  V30 3936 H 366.704 2.58203 -3.48588 0
M  V30 3937 H 367.375 4.21386 -3.56564 0
M  V30 3938 H 369.851 3.80567 -1.68249 0
M  V30 3939 H 368.727 5.18339 -1.80599 0
M  V30 3940 H 368.988 4.414 -0.248622 0
M  V30 3941 N 368.047 0.979072 1.23499 0
M  V30 3942 C 368.957 0.526431 2.28617 0
M  V30 3943 C 369.973 -0.418126 1.68901 0
M  V30 3944 O 371.149 -0.288372 1.99325 0
M  V30 3945 C 368.214 -0.165235 3.46306 0
M  V30 3946 C 367.275 0.82056 4.21385 0
M  V30 3947 C 366.508 0.161807 5.33455 0
M  V30 3948 O 366.731 -1.04742 5.60701 0
M  V30 3949 O 365.665 0.859708 5.95729 0
M  V30 3950 H 369.491 1.4006 2.69475 0
M  V30 3951 H 367.076 0.746643 1.29405 0
M  V30 3952 H 368.958 -0.553287 4.17752 0
M  V30 3953 H 367.633 -1.01419 3.07402 0
M  V30 3954 H 366.54 1.25929 3.52268 0
M  V30 3955 H 367.873 1.63828 4.64135 0
M  V30 3956 N 369.525 -1.3858 0.750561 0
M  V30 3957 C 370.75 -2.04997 0.314812 0
M  V30 3958 C 371.175 -1.56235 -1.04749 0
M  V30 3959 O 370.533 -0.712981 -1.66692 0
M  V30 3960 C 370.581 -3.58961 0.343415 0
M  V30 3961 O 369.685 -4.07025 -0.663628 0
M  V30 3962 H 369.026 -0.649081 0.139962 0
M  V30 3963 H 371.556 -1.77313 1.02084 0
M  V30 3964 H 371.566 -4.07542 0.193233 0
M  V30 3965 H 370.241 -3.93811 1.33738 0
M  V30 3966 H 368.818 -3.6982 -0.478307 0
M  V30 3967 N 371.003 -0.499398 -1.49478 0
M  V30 3968 C 372.231 0.0425456 -2.06856 0
M  V30 3969 C 372.646 1.30964 -1.35992 0
M  V30 3970 O 372.003 1.77172 -0.437762 0
M  V30 3971 C 372.054 0.301735 -3.60239 0
M  V30 3972 O 371.775 -0.915127 -4.28436 0
M  V30 3973 C 373.276 0.887499 -4.34325 0
M  V30 3974 H 370.496 -0.0197482 -0.670709 0
M  V30 3975 H 373.04 -0.696297 -1.92281 0
M  V30 3976 H 371.195 0.990556 -3.74522 0
M  V30 3977 H 371.609 -0.676993 -5.20113 0
M  V30 3978 H 373.083 1.01845 -5.42523 0
M  V30 3979 H 373.56 1.88488 -3.96698 0
M  V30 3980 H 374.166 0.236196 -4.24644 0
M  V30 3981 N 372.481 1.55866 -0.233164 0
M  V30 3982 C 373.706 2.03449 0.402906 0
M  V30 3983 C 374.131 1.11166 1.51736 0
M  V30 3984 O 373.489 0.101996 1.81013 0
M  V30 3985 C 373.537 3.49165 0.9009 0
M  V30 3986 O 372.641 3.60019 2.01147 0
M  V30 3987 H 371.982 0.657913 0.0897025 0
M  V30 3988 H 374.512 2.01493 -0.355201 0
M  V30 3989 H 374.522 3.89716 1.2077 0
M  V30 3990 H 373.197 4.15813 0.0852889 0
M  V30 3991 H 371.774 3.3136 1.71042 0
M  V30 3992 N 373.959 -0.0401083 1.57549 0
M  V30 3993 C 374.922 -1.02871 2.04817 0
M  V30 3994 C 375.922 -1.29708 0.950388 0
M  V30 3995 O 377.112 -1.24897 1.21435 0
M  V30 3996 C 374.244 -2.36443 2.45576 0
M  V30 3997 H 375.437 -0.620631 2.93408 0
M  V30 3998 H 372.99 -0.286667 1.53649 0
M  V30 3999 H 373.725 -2.82021 1.60108 0
M  V30 4000 H 373.51 -2.18296 3.25713 0
M  V30 4001 H 375 -3.07441 2.82612 0
M  V30 4002 N 375.437 -1.54477 -0.31217 0
M  V30 4003 C 376.662 -1.77526 -1.07235 0
M  V30 4004 C 377.087 -0.527775 -1.80544 0
M  V30 4005 O 376.445 0.52121 -1.73646 0
M  V30 4006 C 376.493 -2.97535 -2.03728 0
M  V30 4007 O 375.597 -2.69878 -3.11833 0
M  V30 4008 H 374.938 -0.58792 -0.30862 0
M  V30 4009 H 377.468 -2.01532 -0.352993 0
M  V30 4010 H 377.478 -3.25198 -2.46395 0
M  V30 4011 H 376.153 -3.87996 -1.49774 0
M  V30 4012 H 374.73 -2.53199 -2.7376 0
M  V30 4013 N 376.915 0.57481 -1.46744 0
M  V30 4014 C 378.14 1.36341 -1.56288 0
M  V30 4015 C 378.565 1.86954 -0.207347 0
M  V30 4016 O 377.923 1.62006 0.813871 0
M  V30 4017 C 377.971 2.52147 -2.57787 0
M  V30 4018 O 377.075 3.53834 -2.11838 0
M  V30 4019 H 376.416 0.405713 -0.525636 0
M  V30 4020 H 378.946 0.696453 -1.92382 0
M  V30 4021 H 378.956 2.98958 -2.77648 0
M  V30 4022 H 377.631 2.14663 -3.5622 0
M  V30 4023 H 376.208 3.1345 -2.01999 0
M  V30 4024 N 378.394 1.34581 0.820102 0
M  V30 4025 C 379.357 1.2628 1.91275 0
M  V30 4026 C 380.357 0.177344 1.59819 0
M  V30 4027 O 381.547 0.430156 1.68806 0
M  V30 4028 C 378.679 0.950327 3.27386 0
M  V30 4029 H 379.872 2.23421 2.00057 0
M  V30 4030 H 377.425 1.1891 1.0144 0
M  V30 4031 H 378.16 -0.0177938 3.24295 0
M  V30 4032 H 377.945 1.73549 3.51601 0
M  V30 4033 H 379.435 0.917492 4.07396 0
M  V30 4034 N 379.872 -1.04064 1.18357 0
M  V30 4035 C 381.288 -1.2947 0.933258 0
M  V30 4036 C 381.488 -1.97466 -0.401169 0
M  V30 4037 O 380.544 -2.25528 -1.13549 0
M  V30 4038 C 381.857 -2.15337 2.09882 0
M  V30 4039 C 383.405 -2.28683 2.13712 0
M  V30 4040 C 383.88 -3.17917 3.29686 0
M  V30 4041 N 385.371 -3.25504 3.29547 0
M  V30 4042 C 386.106 -3.94706 4.15926 0
M  V30 4043 N 385.602 -4.66239 5.12439 0
M  V30 4044 N 387.395 -3.90986 4.0384 0
M  V30 4045 H 379.546 -0.583359 2.04232 0
M  V30 4046 H 381.809 -0.319921 0.892387 0
M  V30 4047 H 381.515 -1.72682 3.06389 0
M  V30 4048 H 381.389 -3.16015 2.05947 0
M  V30 4049 H 383.776 -2.70575 1.17784 0
M  V30 4050 H 383.857 -1.27596 2.21705 0
M  V30 4051 H 383.501 -2.76736 4.25887 0
M  V30 4052 H 383.431 -4.19036 3.1893 0
M  V30 4053 H 385.922 -2.74547 2.59677 0
M  V30 4054 H 386.235 -5.16638 5.74722 0
M  V30 4055 H 384.58 -4.65143 5.16398 0
M  V30 4056 H 387.771 -3.34234 3.27727 0
M  V30 4057 H 387.944 -4.44646 4.71375 0
M  V30 4058 N 381.35 -0.985608 -1.22978 0
M  V30 4059 C 382.598 -0.656087 -1.91154 0
M  V30 4060 C 382.919 0.813561 -1.77218 0
M  V30 4061 O 382.189 1.58244 -1.1548 0
M  V30 4062 H 380.769 -0.239674 -0.707506 0
M  V30 4063 H 383.431 -1.25054 -1.49491 0
M  V30 4064 H 382.527 -0.912253 -2.9847 0
M  V30 4065 N 382.828 1.3818 -0.7579 0
M  V30 4066 C 384.075 2.00019 -0.315985 0
M  V30 4067 C 384.403 1.60163 1.10355 0
M  V30 4068 O 383.658 0.83264 1.77103 0
M  V30 4069 C 383.957 3.55252 -0.391218 0
M  V30 4070 C 383.623 4.14834 -1.76702 0
M  V30 4071 C 382.285 4.30821 -2.14353 0
M  V30 4072 C 384.637 4.47658 -2.66931 0
M  V30 4073 C 381.965 4.76928 -3.41696 0
M  V30 4074 C 384.317 4.95184 -3.93669 0
M  V30 4075 C 382.981 5.09377 -4.31383 0
M  V30 4076 H 382.251 0.731923 -0.115627 0
M  V30 4077 H 384.898 1.65161 -0.969223 0
M  V30 4078 H 383.203 3.90273 0.34558 0
M  V30 4079 H 384.9 4.00988 -0.030805 0
M  V30 4080 H 381.49 4.02808 -1.46435 0
M  V30 4081 H 385.674 4.34904 -2.39106 0
M  V30 4082 H 380.93 4.86103 -3.70829 0
M  V30 4083 H 385.104 5.19551 -4.63724 0
M  V30 4084 H 382.731 5.44865 -5.30119 0
M  V30 4085 N 384.306 0.507319 1.49211 0
M  V30 4086 C 385.552 -0.0350047 2.0277 0
M  V30 4087 C 385.885 -1.3606 1.38569 0
M  V30 4088 O 385.16 -1.87321 0.523542 0
M  V30 4089 C 385.443 -0.180916 3.59645 0
M  V30 4090 C 385.296 1.16825 4.34364 0
M  V30 4091 C 386.615 -0.918558 4.30407 0
M  V30 4092 H 383.734 -0.0112473 0.736914 0
M  V30 4093 H 386.376 0.659956 1.7817 0
M  V30 4094 H 384.526 -0.772826 3.80736 0
M  V30 4095 H 386.198 1.79952 4.24753 0
M  V30 4096 H 384.441 1.75594 3.96673 0
M  V30 4097 H 385.112 1.01939 5.42506 0
M  V30 4098 H 387.588 -0.41649 4.1401 0
M  V30 4099 H 386.464 -0.989505 5.39907 0
M  V30 4100 H 386.725 -1.96373 3.96093 0
M  V30 4101 N 385.784 -1.5574 0.241426 0
M  V30 4102 C 387.2 -1.59196 -0.113548 0
M  V30 4103 C 387.4 -1.25852 -1.57364 0
M  V30 4104 O 386.456 -1.00322 -2.31715 0
M  V30 4105 C 387.769 -2.99814 0.230695 0
M  V30 4106 C 389.317 -3.12513 0.174547 0
M  V30 4107 C 389.792 -4.55342 0.492744 0
M  V30 4108 N 391.283 -4.61076 0.443043 0
M  V30 4109 C 392.018 -5.6956 0.662484 0
M  V30 4110 N 391.514 -6.86328 0.944761 0
M  V30 4111 N 393.307 -5.58957 0.593564 0
M  V30 4112 H 385.458 -1.75685 1.19368 0
M  V30 4113 H 387.721 -0.81756 0.479896 0
M  V30 4114 H 387.427 -3.28932 1.24485 0
M  V30 4115 H 387.301 -3.74568 -0.444833 0
M  V30 4116 H 389.688 -2.83179 -0.830277 0
M  V30 4117 H 389.769 -2.40045 0.883845 0
M  V30 4118 H 389.413 -4.85396 1.4951 0
M  V30 4119 H 389.343 -5.26062 -0.23797 0
M  V30 4120 H 391.834 -3.77179 0.233374 0
M  V30 4121 H 392.147 -7.64935 1.09977 0
M  V30 4122 H 390.492 -6.88025 0.982175 0
M  V30 4123 H 393.683 -4.66611 0.373123 0
M  V30 4124 H 393.856 -6.43433 0.767981 0
M  V30 4125 N 387.262 0.0317525 -1.57568 0
M  V30 4126 C 388.51 0.721676 -1.88776 0
M  V30 4127 C 388.831 1.76039 -0.838772 0
M  V30 4128 O 388.101 1.95482 0.127935 0
M  V30 4129 H 386.681 0.269534 -0.696678 0
M  V30 4130 H 389.343 -0.00165879 -1.949 0
M  V30 4131 H 388.439 1.21293 -2.87566 0
M  V30 4132 N 388.74 1.54641 0.303973 0
M  V30 4133 C 389.65 1.88439 1.39743 0
M  V30 4134 C 390.666 0.778239 1.55626 0
M  V30 4135 O 391.842 1.07442 1.70347 0
M  V30 4136 C 388.907 2.12212 2.74166 0
M  V30 4137 C 387.968 3.35936 2.67293 0
M  V30 4138 C 387.201 3.58566 3.95305 0
M  V30 4139 O 387.424 2.84263 4.9452 0
M  V30 4140 O 386.358 4.52078 3.97378 0
M  V30 4141 H 390.184 2.81458 1.14083 0
M  V30 4142 H 387.769 1.40793 0.499768 0
M  V30 4143 H 389.651 2.29067 3.53704 0
M  V30 4144 H 388.326 1.22379 2.99675 0
M  V30 4145 H 387.233 3.24448 1.86237 0
M  V30 4146 H 388.566 4.2589 2.46736 0
M  V30 4147 N 390.218 -0.567019 1.47046 0
M  V30 4148 C 391.465 -1.32462 1.53167 0
M  V30 4149 C 391.793 -1.93571 0.189841 0
M  V30 4150 O 391.048 -1.77865 -0.816243 0
M  V30 4151 C 391.347 -2.4623 2.59047 0
M  V30 4152 C 391.013 -2.03014 4.02612 0
M  V30 4153 C 389.675 -1.90944 4.41694 0
M  V30 4154 C 392.027 -1.69895 4.92732 0
M  V30 4155 C 389.355 -1.44035 5.68745 0
M  V30 4156 C 391.707 -1.2446 6.20236 0
M  V30 4157 C 390.371 -1.10979 6.5821 0
M  V30 4158 H 389.641 -0.484713 0.560477 0
M  V30 4159 H 392.288 -0.636888 1.80599 0
M  V30 4160 H 390.593 -3.20517 2.25335 0
M  V30 4161 H 392.29 -3.04427 2.61008 0
M  V30 4162 H 388.88 -2.13348 3.71726 0
M  V30 4163 H 393.064 -1.78098 4.63244 0
M  V30 4164 H 388.32 -1.32254 5.96925 0
M  V30 4165 H 392.494 -0.978924 6.89485 0
M  V30 4166 H 390.121 -0.744078 7.5655 0
M  V30 4167 N 391.696 -1.35014 -0.812953 0
M  V30 4168 C 392.926 -1.30841 -1.59888 0
M  V30 4169 C 393.334 0.117576 -1.88834 0
M  V30 4170 O 392.677 1.07807 -1.48739 0
M  V30 4171 C 392.739 -2.0412 -2.95931 0
M  V30 4172 C 392.403 -3.53336 -2.89832 0
M  V30 4173 C 393.4 -4.48052 -2.63714 0
M  V30 4174 C 391.085 -3.95894 -3.0915 0
M  V30 4175 C 393.079 -5.833 -2.56982 0
M  V30 4176 C 390.766 -5.31239 -3.0204 0
M  V30 4177 C 391.764 -6.24754 -2.75991 0
M  V30 4178 O 391.452 -7.57617 -2.68833 0
M  V30 4179 H 391.184 -0.451215 -0.50337 0
M  V30 4180 H 393.738 -1.78354 -1.01877 0
M  V30 4181 H 391.968 -1.51235 -3.559 0
M  V30 4182 H 393.657 -1.93107 -3.57022 0
M  V30 4183 H 394.423 -4.16492 -2.48515 0
M  V30 4184 H 390.302 -3.23495 -3.28438 0
M  V30 4185 H 393.846 -6.56263 -2.36569 0
M  V30 4186 H 389.743 -5.62415 -3.16796 0
M  V30 4187 H 390.511 -7.67469 -2.84487 0
M  V30 4188 N 393.175 1.03435 -1.18907 0
M  V30 4189 C 394.403 1.80381 -1.01342 0
M  V30 4190 C 394.818 1.83649 0.438005 0
M  V30 4191 O 394.175 1.27655 1.30424 0
M  V30 4192 C 394.226 3.25689 -1.56873 0
M  V30 4193 O 393.947 3.22673 -2.96334 0
M  V30 4194 C 395.448 4.19255 -1.44014 0
M  V30 4195 H 392.668 0.56784 -0.35749 0
M  V30 4196 H 395.212 1.30317 -1.576 0
M  V30 4197 H 393.367 3.72962 -1.04777 0
M  V30 4198 H 393.781 4.13748 -3.22355 0
M  V30 4199 H 395.255 5.19123 -1.87657 0
M  V30 4200 H 395.732 4.37467 -0.389815 0
M  V30 4201 H 396.338 3.77851 -1.95214 0
M  V30 4202 N 394.653 0.992116 1.22453 0
M  V30 4203 C 395.585 0.500024 2.23679 0
M  V30 4204 C 396.598 -0.404463 1.57696 0
M  V30 4205 O 397.787 -0.206722 1.77299 0
M  V30 4206 C 394.887 -0.294711 3.37616 0
M  V30 4207 C 394.06 0.605723 4.33186 0
M  V30 4208 C 393.119 -0.13717 5.26021 0
M  V30 4209 O 392.145 0.477164 5.67196 0
M  V30 4210 N 393.347 -1.4197 5.62872 0
M  V30 4211 H 396.112 1.37045 2.66531 0
M  V30 4212 H 393.673 0.866741 1.36745 0
M  V30 4213 H 395.665 -0.800329 3.96707 0
M  V30 4214 H 394.235 -1.06623 2.93854 0
M  V30 4215 H 393.455 1.29202 3.72425 0
M  V30 4216 H 394.743 1.21896 4.93983 0
M  V30 4217 H 394.141 -1.94015 5.31389 0
M  V30 4218 H 392.698 -1.87052 6.24383 0
M  V30 4219 N 396.131 -1.37776 0.765217 0
M  V30 4220 C 397.408 -1.93975 0.251596 0
M  V30 4221 C 397.788 -1.69949 -1.25222 0
M  V30 4222 O 397.136 -1.04457 -2.03226 0
M  V30 4223 C 397.346 -3.43487 0.617895 0
M  V30 4224 C 398.694 -4.20564 0.584029 0
M  V30 4225 O 399.718 -3.5182 0.556888 0
M  V30 4226 O 398.577 -5.43138 0.605291 0
M  V30 4227 H 395.671 -0.82509 0.0561806 0
M  V30 4228 H 398.217 -1.47101 0.846128 0
M  V30 4229 H 396.989 -3.5453 1.65602 0
M  V30 4230 H 396.612 -3.976 -0.00403411 0
M  V30 4231 N 397.609 -0.515225 -1.4894 0
M  V30 4232 C 398.857 0.0241671 -2.02086 0
M  V30 4233 C 399.178 1.3616 -1.3959 0
M  V30 4234 O 398.448 1.87841 -0.556121 0
M  V30 4235 H 397.028 0.0119203 -0.746905 0
M  V30 4236 H 399.69 -0.675702 -1.82812 0
M  V30 4237 H 398.786 0.143385 -3.1177 0
M  V30 4238 N 399.087 1.5561 -0.249682 0
M  V30 4239 C 400.333 1.99306 0.374841 0
M  V30 4240 C 400.666 1.13767 1.57387 0
M  V30 4241 O 399.941 0.201711 1.93451 0
M  V30 4242 C 400.224 3.51507 0.781986 0
M  V30 4243 C 400.077 4.4781 -0.422629 0
M  V30 4244 C 401.396 4.08884 1.62793 0
M  V30 4245 H 398.515 0.724572 0.134773 0
M  V30 4246 H 401.157 1.86719 -0.351549 0
M  V30 4247 H 399.307 3.62363 1.4009 0
M  V30 4248 H 400.979 4.48931 -1.06108 0
M  V30 4249 H 399.222 4.20518 -1.06524 0
M  V30 4250 H 399.893 5.51919 -0.0943766 0
M  V30 4251 H 402.369 4.01147 1.10547 0
M  V30 4252 H 401.245 5.1564 1.88166 0
M  V30 4253 H 401.506 3.57515 2.60068 0
M  V30 4254 N 400.565 -0.0233959 1.57583 0
M  V30 4255 C 401.495 -1.02162 2.09965 0
M  V30 4256 C 402.476 -1.3735 1.00344 0
M  V30 4257 O 403.661 -1.46135 1.27899 0
M  V30 4258 C 400.791 -2.32081 2.58371 0
M  V30 4259 C 399.745 -2.1112 3.72307 0
M  V30 4260 C 399.071 -3.46848 4.06941 0
M  V30 4261 C 400.371 -1.49276 5.00514 0
M  V30 4262 H 402.065 -0.585557 2.93618 0
M  V30 4263 H 399.611 -0.280218 1.41247 0
M  V30 4264 H 401.564 -3.02249 2.93639 0
M  V30 4265 H 400.288 -2.77758 1.71808 0
M  V30 4266 H 398.947 -1.43384 3.37397 0
M  V30 4267 H 398.595 -3.90184 3.17436 0
M  V30 4268 H 398.295 -3.33646 4.83688 0
M  V30 4269 H 399.819 -4.18369 4.44747 0
M  V30 4270 H 401.233 -2.09368 5.33702 0
M  V30 4271 H 399.63 -1.46632 5.8191 0
M  V30 4272 H 400.7 -0.459217 4.82721 0
M  V30 4273 N 402.043 -1.548 -0.295768 0
M  V30 4274 C 403.289 -1.74588 -1.03184 0
M  V30 4275 C 403.622 -0.532962 -1.86744 0
M  V30 4276 O 402.897 0.469872 -1.88739 0
M  V30 4277 C 403.18 -3.03791 -1.93347 0
M  V30 4278 C 403.033 -4.35392 -1.12933 0
M  V30 4279 C 404.352 -3.28892 -2.92435 0
M  V30 4280 H 401.471 -0.635221 -0.373715 0
M  V30 4281 H 404.113 -1.87519 -0.30606 0
M  V30 4282 H 402.263 -2.92898 -2.55232 0
M  V30 4283 H 403.935 -4.58211 -0.532943 0
M  V30 4284 H 402.178 -4.31642 -0.432168 0
M  V30 4285 H 402.849 -5.22074 -1.79284 0
M  V30 4286 H 405.325 -3.39429 -2.4068 0
M  V30 4287 H 404.201 -4.20603 -3.52682 0
M  V30 4288 H 404.462 -2.47437 -3.6637 0
M  V30 4289 N 403.521 0.559213 -1.47345 0
M  V30 4290 C 404.484 1.64854 -1.59235 0
M  V30 4291 C 405.484 1.53851 -0.467607 0
M  V30 4292 O 406.674 1.58045 -0.732617 0
M  V30 4293 C 403.806 3.04388 -1.53496 0
M  V30 4294 H 404.999 1.55662 -2.56339 0
M  V30 4295 H 402.552 0.778973 -1.35505 0
M  V30 4296 H 403.287 3.19115 -0.577604 0
M  V30 4297 H 403.072 3.13783 -2.35123 0
M  V30 4298 H 404.562 3.83642 -1.6495 0
M  V30 4299 N 404.999 1.35443 0.805782 0
M  V30 4300 C 406.224 1.32037 1.59941 0
M  V30 4301 C 406.649 -0.0994215 1.87837 0
M  V30 4302 O 406.007 -1.06648 1.46615 0
M  V30 4303 C 406.055 2.13354 2.90711 0
M  V30 4304 O 405.159 1.5148 3.83572 0
M  V30 4305 H 404.5 0.452666 0.485787 0
M  V30 4306 H 407.03 1.78496 1.00002 0
M  V30 4307 H 407.04 2.25338 3.40128 0
M  V30 4308 H 405.715 3.16572 2.69732 0
M  V30 4309 H 404.292 1.4834 3.42125 0
M  V30 4310 N 406.477 -1.02803 1.19454 0
M  V30 4311 C 407.705 -1.79841 1.02297 0
M  V30 4312 C 408.12 -1.83879 -0.428259 0
M  V30 4313 O 407.477 -1.28345 -1.29745 0
M  V30 4314 C 407.528 -3.24852 1.58598 0
M  V30 4315 O 407.249 -3.21097 2.98041 0
M  V30 4316 C 408.75 -4.18485 1.46236 0
M  V30 4317 H 405.97 -0.565936 0.360496 0
M  V30 4318 H 408.514 -1.2948 1.58288 0
M  V30 4319 H 406.669 -3.72401 1.06753 0
M  V30 4320 H 407.083 -4.12033 3.24545 0
M  V30 4321 H 408.557 -5.18121 1.90407 0
M  V30 4322 H 409.034 -4.37254 0.41301 0
M  V30 4323 H 409.64 -3.76811 1.97215 0
M  V30 4324 N 407.956 -0.998596 -1.21925 0
M  V30 4325 C 409.202 -0.678667 -1.91107 0
M  V30 4326 C 409.535 0.78791 -1.77498 0
M  V30 4327 O 408.81 1.57043 -1.1475 0
M  V30 4328 C 409.093 -1.09245 -3.43129 0
M  V30 4329 C 408.946 -2.61801 -3.6576 0
M  V30 4330 C 410.265 -0.649984 -4.35274 0
M  V30 4331 H 407.384 -0.248025 -0.694012 0
M  V30 4332 H 410.026 -1.24314 -1.43688 0
M  V30 4333 H 408.176 -0.612171 -3.83647 0
M  V30 4334 H 409.848 -3.17543 -3.34611 0
M  V30 4335 H 408.091 -3.03609 -3.09845 0
M  V30 4336 H 408.762 -2.85804 -4.7225 0
M  V30 4337 H 411.238 -1.0626 -4.02303 0
M  V30 4338 H 410.114 -0.967743 -5.40302 0
M  V30 4339 H 410.375 0.449139 -4.39813 0
M  V30 4340 N 409.434 1.37368 -0.772513 0
M  V30 4341 C 410.366 2.28899 -0.117502 0
M  V30 4342 C 411.379 1.4867 0.663405 0
M  V30 4343 O 412.568 1.71314 0.501372 0
M  V30 4344 C 409.668 3.2788 0.857192 0
M  V30 4345 C 408.841 4.37207 0.129938 0
M  V30 4346 C 407.9 5.16257 1.01811 0
M  V30 4347 O 406.926 5.67159 0.481601 0
M  V30 4348 N 408.128 5.31058 2.3443 0
M  V30 4349 H 410.893 2.85752 -0.903662 0
M  V30 4350 H 408.454 1.49353 -0.62493 0
M  V30 4351 H 410.446 3.77647 1.45482 0
M  V30 4352 H 409.016 2.7179 1.54432 0
M  V30 4353 H 408.236 3.88827 -0.648605 0
M  V30 4354 H 409.524 5.07434 -0.372559 0
M  V30 4355 H 408.922 4.91287 2.80452 0
M  V30 4356 H 407.479 5.84131 2.89197 0
M  V30 4357 N 410.912 0.523116 1.48665 0
M  V30 4358 C 411.822 -0.247406 2.33292 0
M  V30 4359 C 412.838 -0.945769 1.46052 0
M  V30 4360 O 414.014 -0.922253 1.79043 0
M  V30 4361 C 411.079 -1.28487 3.22012 0
M  V30 4362 C 410.14 -0.597592 4.2512 0
M  V30 4363 C 409.373 -1.58563 5.09601 0
M  V30 4364 O 409.596 -2.81763 4.95949 0
M  V30 4365 O 408.53 -1.12879 5.91221 0
M  V30 4366 H 412.356 0.445869 3.00409 0
M  V30 4367 H 409.941 0.284128 1.46673 0
M  V30 4368 H 411.823 -1.88459 3.7691 0
M  V30 4369 H 410.498 -1.96068 2.57564 0
M  V30 4370 H 409.405 0.0424407 3.74076 0
M  V30 4371 H 410.738 0.0361517 4.92187 0
M  V30 4372 N 412.39 -1.55475 0.257931 0
M  V30 4373 C 413.638 -1.98813 -0.363009 0
M  V30 4374 C 413.959 -1.14757 -1.57657 0
M  V30 4375 O 413.229 -0.232956 -1.9451 0
M  V30 4376 H 411.809 -0.734308 -0.137113 0
M  V30 4377 H 414.471 -1.9156 0.359281 0
M  V30 4378 H 413.567 -3.04941 -0.664634 0
M  V30 4379 N 413.868 0.0150385 -1.57593 0
M  V30 4380 C 415.114 0.704043 -1.90187 0
M  V30 4381 C 415.447 1.74249 -0.857366 0
M  V30 4382 O 414.722 1.94092 0.125843 0
M  V30 4383 C 415.005 1.36087 -3.33395 0
M  V30 4384 C 414.858 0.334981 -4.48551 0
M  V30 4385 C 416.177 2.29112 -3.7576 0
M  V30 4386 H 413.296 0.254475 -0.691673 0
M  V30 4387 H 415.938 -0.0331678 -1.89971 0
M  V30 4388 H 414.088 1.98922 -3.3371 0
M  V30 4389 H 415.76 -0.292534 -4.60372 0
M  V30 4390 H 414.003 -0.344325 -4.32431 0
M  V30 4391 H 414.674 0.833316 -5.45674 0
M  V30 4392 H 417.15 1.76308 -3.76902 0
M  V30 4393 H 416.026 2.72043 -4.76743 0
M  V30 4394 H 416.287 3.16385 -3.08793 0
M  V30 4395 N 415.346 1.54954 0.287554 0
M  V30 4396 C 416.279 1.81737 1.3801 0
M  V30 4397 C 417.257 0.669412 1.48181 0
M  V30 4398 O 418.441 0.910839 1.65033 0
M  V30 4399 C 415.568 1.96606 2.75796 0
M  V30 4400 C 414.614 3.19098 2.82982 0
M  V30 4401 S 415.447 4.7683 2.43707 0
M  V30 4402 C 416.603 4.94653 3.83496 0
M  V30 4403 H 416.836 2.74122 1.15085 0
M  V30 4404 H 414.369 1.46538 0.486403 0
M  V30 4405 H 416.327 2.05858 3.55152 0
M  V30 4406 H 414.988 1.05136 2.95982 0
M  V30 4407 H 414.181 3.26344 3.84077 0
M  V30 4408 H 413.783 3.08361 2.11635 0
M  V30 4409 H 416.075 4.79502 4.78628 0
M  V30 4410 H 417.018 5.96728 3.8121 0
M  V30 4411 H 417.426 4.2272 3.74123 0
M  V30 4412 N 416.824 -0.551391 1.4764 0
M  V30 4413 C 418.24 -0.877887 1.33287 0
M  V30 4414 C 418.44 -1.98817 0.327721 0
M  V30 4415 O 417.496 -2.51171 -0.258695 0
M  V30 4416 C 418.809 -1.26563 2.72768 0
M  V30 4417 C 420.357 -1.37673 2.81097 0
M  V30 4418 C 420.832 -1.79799 4.21232 0
M  V30 4419 N 422.323 -1.8694 4.23802 0
M  V30 4420 C 423.058 -2.20876 5.29151 0
M  V30 4421 N 422.554 -2.53386 6.448 0
M  V30 4422 N 424.347 -2.217 5.16532 0
M  V30 4423 H 416.498 0.18153 2.11623 0
M  V30 4424 H 418.761 0.0185514 0.947818 0
M  V30 4425 H 418.467 -0.523591 3.47781 0
M  V30 4426 H 418.341 -2.22052 3.04915 0
M  V30 4427 H 420.728 -2.10956 2.06353 0
M  V30 4428 H 420.809 -0.40357 2.52596 0
M  V30 4429 H 420.453 -1.07083 4.96483 0
M  V30 4430 H 420.383 -2.78128 4.4716 0
M  V30 4431 H 422.874 -1.64179 3.40373 0
M  V30 4432 H 423.187 -2.78325 7.20941 0
M  V30 4433 H 421.532 -2.50953 6.48111 0
M  V30 4434 H 424.723 -1.95745 4.25207 0
M  V30 4435 H 424.896 -2.47818 5.98741 0
M  V30 4436 N 418.302 -1.35869 -0.798587 0
M  V30 4437 C 419.25 -1.29491 -1.93222 0
M  V30 4438 C 420.244 -0.18836 -1.6835 0
M  V30 4439 O 421.45 -0.354822 -1.76468 0
M  V30 4440 H 417.825 -0.402901 -0.63496 0
M  V30 4441 H 419.796 -2.25247 -1.9572 0
M  V30 4442 C 418.545 -1.09184 -3.30112 0
M  V30 4443 H 417.868 -1.93574 -3.49813 0
M  V30 4444 H 419.308 -1.08766 -4.09812 0
M  V30 4445 C 417.767 0.203959 -3.36282 0
M  V30 4446 O 418.297 1.19699 -3.83451 0
M  V30 4447 N 416.503 0.245488 -2.89561 0
M  V30 4448 H 416.05 -0.563223 -2.51367 0
M  V30 4449 H 416.008 1.11219 -2.94071 0
M  V30 4450 N 419.78 1.02168 -1.19998 0
M  V30 4451 C 420.73 2.08969 -0.911921 0
M  V30 4452 C 421.714 1.60404 0.12621 0
M  V30 4453 O 422.906 1.76817 -0.0804706 0
M  V30 4454 C 420.035 3.402 -0.460277 0
M  V30 4455 C 419.121 3.9548 -1.53155 0
M  V30 4456 N 419.512 4.24332 -2.75275 0
M  V30 4457 C 417.81 4.23572 -1.39653 0
M  V30 4458 C 418.511 4.68834 -3.44339 0
M  V30 4459 N 417.487 4.70804 -2.71744 0
M  V30 4460 H 421.289 2.29178 -1.83997 0
M  V30 4461 H 418.803 1.20094 -1.09322 0
M  V30 4462 H 420.8 4.16235 -0.235337 0
M  V30 4463 H 419.46 3.21408 0.4612 0
M  V30 4464 H 420.471 4.13393 -3.11973 0
M  V30 4465 H 417.148 4.14005 -0.539067 0
M  V30 4466 H 418.538 5.00019 -4.4881 0
M  V30 4467 N 421.258 1.00505 1.21394 0
M  V30 4468 C 422.206 0.558623 2.25792 0
M  V30 4469 C 423.2 -0.396848 1.64686 0
M  V30 4470 O 424.406 -0.268035 1.77993 0
M  V30 4471 H 420.781 0.1623 0.734277 0
M  V30 4472 H 422.752 1.4503 2.60785 0
M  V30 4473 C 421.501 -0.0989574 3.47559 0
M  V30 4474 H 420.824 0.627225 3.94849 0
M  V30 4475 H 422.264 -0.3746 4.22342 0
M  V30 4476 C 420.723 -1.33817 3.09184 0
M  V30 4477 O 421.253 -2.43252 3.19674 0
M  V30 4478 N 419.459 -1.21793 2.63846 0
M  V30 4479 H 419.006 -0.32746 2.5551 0
M  V30 4480 H 418.964 -2.04809 2.38539 0
M  V30 4481 O 422.775 -1.32987 0.916334 0
M  V30 4482 H 423.466 -1.86192 0.534057 0
M  V30 END ATOM
M  V30 BEGIN BOND
M  V30 END BOND
M  V30 END CTAB
M  END
$$$$
