drugbank_target|P23276 Kell blood group glycoprotein (DB02557)
 OpenBabel12092121063D

  0  0  0     0  0            999 V3000
M  V30 BEGIN CTAB
M  V30 COUNTS 11595 11749 0 0 0
M  V30 BEGIN ATOM
M  V30 1 H -0.908 1.98254 -0.117106 0
M  V30 2 N 0 1.576 0 0
M  V30 3 C 0.933 2.03868 1.02534 0
M  V30 4 C 1.911 0.928543 1.3348 0
M  V30 5 O 3.095 1.19667 1.45644 0
M  V30 6 C 0.222 2.43627 2.35294 0
M  V30 7 C -0.732 3.65373 2.2001 0
M  V30 8 S 0.101 5.13292 1.52614 0
M  V30 9 C 1.257 5.56322 2.86805 0
M  V30 10 H 1.49 2.90518 0.631377 0
M  V30 11 H -0.977 1.52953 0.210867 0
M  V30 12 H 0.981 2.67203 3.11629 0
M  V30 13 H -0.358 1.57376 2.7183 0
M  V30 14 H -1.165 3.90944 3.18086 0
M  V30 15 H -1.563 3.418 1.51819 0
M  V30 16 H 0.729 5.58782 3.83104 0
M  V30 17 H 1.672 6.56266 2.65933 0
M  V30 18 H 2.08 4.83886 2.90714 0
M  V30 19 N 1.4781 -0.272755 1.55222 0
M  V30 20 C 2.3881 -1.35918 1.91216 0
M  V30 21 C 3.4041 -1.54026 0.809436 0
M  V30 22 O 4.5801 -1.68148 1.10852 0
M  V30 23 C 1.6451 -2.69834 2.17693 0
M  V30 24 C 0.7061 -2.6047 3.41253 0
M  V30 25 C -0.0609 -3.88 3.66458 0
M  V30 26 O 0.1621 -4.88693 2.94169 0
M  V30 27 O -0.9039 -3.88189 4.59992 0
M  V30 28 H 2.9221 -1.0839 2.83699 0
M  V30 29 H 0.5071 -0.471301 1.41771 0
M  V30 30 H 2.3891 -3.49017 2.36147 0
M  V30 31 H 1.0641 -2.97148 1.28392 0
M  V30 32 H -0.0289 -1.79663 3.28134 0
M  V30 33 H 1.3041 -2.38106 4.30774 0
M  V30 34 N 2.9562 -1.48159 -0.537278 0
M  V30 35 C 4.2042 -1.55497 -1.29094 0
M  V30 36 C 4.5252 -0.227454 -1.93669 0
M  V30 37 O 3.7952 0.750386 -1.80959 0
M  V30 38 H 2.3752 -0.572832 -0.47945 0
M  V30 39 H 5.0372 -1.84579 -0.625818 0
M  V30 40 H 4.1332 -2.33216 -2.07405 0
M  V30 41 N 4.4343 0.785586 -1.36625 0
M  V30 42 C 5.6823 1.54057 -1.30808 0
M  V30 43 C 6.0033 1.94683 0.111157 0
M  V30 44 O 5.2733 1.65241 1.05224 0
M  V30 45 H 3.8533 0.571354 -0.481211 0
M  V30 46 H 6.5153 0.935821 -1.70963 0
M  V30 47 H 5.6113 2.44637 -1.93801 0
M  V30 48 N 5.9124 1.20967 1.01018 0
M  V30 49 C 7.1894 0.93264 1.71934 0
M  V30 50 C 7.5694 -0.55692 2.03621 0
M  V30 51 O 6.9174 -1.52035 1.7058 0
M  V30 52 C 7.1274 1.81233 2.98254 0
M  V30 53 C 8.4754 2.05804 3.71389 0
M  V30 54 O 9.4994 1.78539 3.08225 0
M  V30 55 O 8.3584 2.51888 4.84989 0
M  V30 56 H 5.4524 0.349272 0.749625 0
M  V30 57 H 7.9984 1.31871 1.06808 0
M  V30 58 H 6.7704 2.82067 2.71208 0
M  V30 59 H 6.3934 1.42674 3.7112 0
M  V30 60 N 7.3905 -1.2043 1.01659 0
M  V30 61 C 8.3225 -2.22626 0.544988 0
M  V30 62 C 9.3355 -1.58479 -0.372609 0
M  V30 63 O 10.5245 -1.77679 -0.170958 0
M  V30 64 C 7.6245 -3.38141 -0.22663 0
M  V30 65 C 6.7975 -4.31877 0.692876 0
M  V30 66 C 5.8565 -5.26191 -0.0311616 0
M  V30 67 O 4.8825 -5.6612 0.591343 0
M  V30 68 N 6.0845 -5.65618 -1.30601 0
M  V30 69 H 8.8495 -2.63716 1.42388 0
M  V30 70 H 6.4105 -1.34971 0.894116 0
M  V30 71 H 8.4025 -3.98239 -0.72024 0
M  V30 72 H 6.9725 -2.95943 -1.00681 0
M  V30 73 H 6.1925 -3.69746 1.36679 0
M  V30 74 H 7.4805 -4.91426 1.31824 0
M  V30 75 H 6.8785 -5.3519 -1.83269 0
M  V30 76 H 5.4355 -6.28025 -1.74435 0
M  V30 77 N 8.8686 -0.792821 -1.36206 0
M  V30 78 C 10.0936 -0.377701 -2.03932 0
M  V30 79 C 10.5186 0.998947 -1.59382 0
M  V30 80 O 9.8766 1.64421 -0.763903 0
M  V30 81 C 9.9246 -0.453635 -3.57735 0
M  V30 82 O 9.0286 0.538151 -4.08874 0
M  V30 83 H 8.3696 -0.159855 -0.644471 0
M  V30 84 H 10.8996 -1.07488 -1.7409 0
M  V30 85 H 10.9096 -0.318464 -4.06755 0
M  V30 86 H 9.5846 -1.45784 -3.89512 0
M  V30 87 H 8.1616 0.364359 -3.71116 0
M  V30 88 N 10.3467 1.47872 -0.545128 0
M  V30 89 C 11.2567 2.33633 0.212746 0
M  V30 90 C 12.2727 1.4744 0.923983 0
M  V30 91 O 13.4487 1.80393 0.895572 0
M  V30 92 C 10.5137 3.23884 1.23693 0
M  V30 93 C 9.5747 4.25961 0.534417 0
M  V30 94 C 8.8077 5.11899 1.5098 0
M  V30 95 O 9.0307 5.00077 2.7437 0
M  V30 96 O 7.9647 5.92831 1.0409 0
M  V30 97 H 11.7907 2.99714 -0.490416 0
M  V30 98 H 9.3757 1.46235 -0.305871 0
M  V30 99 H 11.2577 3.79666 1.82843 0
M  V30 100 H 9.9327 2.60446 1.92222 0
M  V30 101 H 8.8397 3.73972 -0.0979679 0
M  V30 102 H 10.1727 4.92079 -0.109213 0
M  V30 103 N 11.8248 0.280983 1.55075 0
M  V30 104 C 12.7348 -0.61388 2.26426 0
M  V30 105 C 13.7508 -1.16521 1.29224 0
M  V30 106 O 14.9268 -1.19426 1.62171 0
M  V30 107 C 11.9918 -1.7788 2.9759 0
M  V30 108 C 11.0528 -1.26355 4.10284 0
M  V30 109 C 10.2858 -2.37295 4.78045 0
M  V30 110 O 10.5088 -3.56777 4.45047 0
M  V30 111 O 9.4428 -2.05119 5.65871 0
M  V30 112 H 13.2688 -0.0356932 3.03679 0
M  V30 113 H 10.8538 0.0481686 1.49322 0
M  V30 114 H 12.7358 -2.45791 3.42293 0
M  V30 115 H 11.4108 -2.34397 2.23249 0
M  V30 116 H 10.3178 -0.550735 3.70024 0
M  V30 117 H 11.6508 -0.744065 4.86543 0
M  V30 118 N 13.3029 -1.57598 0.00835791 0
M  V30 119 C 14.2129 -2.12385 -0.996487 0
M  V30 120 C 15.2289 -1.07108 -1.37127 0
M  V30 121 O 16.4049 -1.39055 -1.4569 0
M  V30 122 C 13.4699 -2.62314 -2.26699 0
M  V30 123 C 12.5309 -3.82225 -1.95456 0
M  V30 124 C 11.7639 -4.29763 -3.16449 0
M  V30 125 O 11.9869 -3.76584 -4.28416 0
M  V30 126 O 10.9209 -5.21832 -2.99958 0
M  V30 127 H 14.7469 -2.98479 -0.560725 0
M  V30 128 H 12.3319 -1.47903 -0.210987 0
M  V30 129 H 14.2139 -2.94589 -3.01322 0
M  V30 130 H 12.8889 -1.79313 -2.69497 0
M  V30 131 H 11.7959 -3.54909 -1.18282 0
M  V30 132 H 13.1289 -4.66324 -1.57489 0
M  V30 133 N 14.781 0.264519 -1.55364 0
M  V30 134 C 16.192 0.834936 -1.6699 0
M  V30 135 C 16.543 1.86718 -0.602552 0
M  V30 136 O 15.668 2.14899 0.254425 0
M  V30 137 C 16.263 1.5212 -3.02729 0
M  V30 138 C 14.822 2.03954 -3.16354 0
M  V30 139 C 13.969 0.884498 -2.62815 0
M  V30 140 H 16.92 0.0406869 -1.58648 0
M  V30 141 H 16.941 2.38853 -2.96191 0
M  V30 142 H 16.453 0.769668 -3.80392 0
M  V30 143 H 14.554 2.82041 -2.43482 0
M  V30 144 H 14.667 2.24902 -4.23032 0
M  V30 145 H 13.031 1.2802 -2.20188 0
M  V30 146 H 13.814 0.14634 -3.42988 0
M  V30 147 N 16.2591 1.48442 0.529413 0
M  V30 148 C 17.6751 1.34575 0.858004 0
M  V30 149 C 17.8751 0.3572 1.98309 0
M  V30 150 O 16.9311 -0.221379 2.51528 0
M  V30 151 C 18.2441 2.74617 1.22499 0
M  V30 152 C 19.7921 2.83109 1.33484 0
M  V30 153 C 20.2671 4.23854 1.73526 0
M  V30 154 N 21.7581 4.2653 1.80628 0
M  V30 155 C 22.4931 5.32372 2.12997 0
M  V30 156 N 21.9891 6.48491 2.43786 0
M  V30 157 N 23.7821 5.19766 2.14008 0
M  V30 158 H 15.9331 2.1133 -0.212925 0
M  V30 159 H 18.1961 0.947439 -0.0326199 0
M  V30 160 H 17.9021 3.4852 0.471905 0
M  V30 161 H 17.7761 3.08177 2.17501 0
M  V30 162 H 20.1631 2.09462 2.0787 0
M  V30 163 H 20.2441 2.53168 0.366027 0
M  V30 164 H 19.8881 4.98018 0.997013 0
M  V30 165 H 19.8181 4.5124 2.71459 0
M  V30 166 H 22.3091 3.42772 1.59108 0
M  V30 167 H 22.6221 7.24993 2.67592 0
M  V30 168 H 20.9671 6.51765 2.41304 0
M  V30 169 H 24.1581 4.28066 1.89412 0
M  V30 170 H 24.3311 6.02354 2.38902 0
M  V30 171 N 17.7372 -0.778329 1.37039 0
M  V30 172 C 18.6472 -1.92253 1.34446 0
M  V30 173 C 19.6632 -1.72267 0.244991 0
M  V30 174 O 20.8392 -1.95615 0.479258 0
M  V30 175 C 17.9042 -3.27282 1.144 0
M  V30 176 C 16.9652 -3.59969 2.33925 0
M  V30 177 C 16.1982 -4.88555 2.14825 0
M  V30 178 O 16.4212 -5.59113 1.12912 0
M  V30 179 O 15.3552 -5.20153 3.02861 0
M  V30 180 H 19.1812 -1.97392 2.30803 0
M  V30 181 H 16.7662 -0.920154 1.17701 0
M  V30 182 H 18.6482 -4.08062 1.05182 0
M  V30 183 H 17.3232 -3.23011 0.211124 0
M  V30 184 H 16.2302 -2.7945 2.48714 0
M  V30 185 H 17.5632 -3.68976 3.25757 0
M  V30 186 N 19.2153 -1.21501 -1.00376 0
M  V30 187 C 20.6313 -0.972629 -1.26539 0
M  V30 188 C 20.8313 0.340257 -1.98606 0
M  V30 189 O 19.8873 1.06561 -2.28913 0
M  V30 190 C 21.2003 -2.16404 -2.08781 0
M  V30 191 C 22.7483 -2.20643 -2.22004 0
M  V30 192 C 23.2233 -3.39306 -3.07629 0
M  V30 193 N 24.7143 -3.39401 -3.15217 0
M  V30 194 C 25.4493 -4.27867 -3.81729 0
M  V30 195 N 24.9453 -5.26533 -4.5026 0
M  V30 196 N 26.7383 -4.15672 -3.78382 0
M  V30 197 H 18.8893 -2.05929 -0.520281 0
M  V30 198 H 21.1523 -0.901803 -0.292328 0
M  V30 199 H 20.8583 -3.11554 -1.63178 0
M  V30 200 H 20.7323 -2.15567 -3.09533 0
M  V30 201 H 23.1193 -1.26048 -2.66825 0
M  V30 202 H 23.2003 -2.25523 -1.20718 0
M  V30 203 H 22.8443 -4.34195 -2.63509 0
M  V30 204 H 22.7743 -3.31665 -4.09031 0
M  V30 205 H 25.2653 -2.67997 -2.66432 0
M  V30 206 H 25.5783 -5.90337 -4.98721 0
M  V30 207 H 23.9233 -5.30457 -4.49044 0
M  V30 208 H 27.1143 -3.3785 -3.23998 0
M  V30 209 H 27.2873 -4.84825 -4.2994 0
M  V30 210 N 20.6934 1.19889 -1.02296 0
M  V30 211 C 21.9184 1.9393 -0.735237 0
M  V30 212 C 22.3434 1.74639 0.698782 0
M  V30 213 O 21.7014 1.04481 1.48167 0
M  V30 214 C 21.7494 3.43916 -1.08417 0
M  V30 215 O 20.8534 4.11917 -0.199446 0
M  V30 216 H 20.1944 0.605645 -0.272196 0
M  V30 217 H 22.7244 1.52137 -1.36804 0
M  V30 218 H 22.7344 3.9456 -1.03856 0
M  V30 219 H 21.4094 3.5728 -2.12894 0
M  V30 220 H 19.9864 3.71666 -0.303136 0
M  V30 221 N 22.1715 0.800033 1.35784 0
M  V30 222 C 23.1035 0.163596 2.28615 0
M  V30 223 C 24.1165 -0.633317 1.49976 0
M  V30 224 O 25.3055 -0.466754 1.72289 0
M  V30 225 C 22.4055 -0.790958 3.29541 0
M  V30 226 C 21.5785 -0.0418255 4.3738 0
M  V30 227 C 20.6375 -0.91389 5.18203 0
M  V30 228 O 19.6635 -0.367234 5.68014 0
M  V30 229 N 20.8655 -2.23682 5.35674 0
M  V30 230 H 23.6305 0.96105 2.83873 0
M  V30 231 H 21.1915 0.654894 1.48063 0
M  V30 232 H 23.1835 -1.37844 3.80501 0
M  V30 233 H 21.7535 -1.48925 2.74846 0
M  V30 234 H 20.9735 0.726813 3.87442 0
M  V30 235 H 22.2615 0.474719 5.06581 0
M  V30 236 H 21.6595 -2.70497 4.96838 0
M  V30 237 H 20.2165 -2.77369 5.89839 0
M  V30 238 N 23.6496 -1.47581 0.552962 0
M  V30 239 C 24.6126 -2.28439 -0.186605 0
M  V30 240 C 25.6126 -1.36706 -0.84665 0
M  V30 241 O 26.8026 -1.59378 -0.703164 0
M  V30 242 C 23.9346 -3.16264 -1.2724 0
M  V30 243 H 25.1276 -2.95294 0.523609 0
M  V30 244 H 22.6806 -1.532 0.309745 0
M  V30 245 H 23.4156 -2.54091 -2.01514 0
M  V30 246 H 23.2006 -3.83769 -0.803968 0
M  V30 247 H 24.6906 -3.77198 -1.79196 0
M  V30 248 N 25.1277 -0.289203 -1.54924 0
M  V30 249 C 26.3757 0.322879 -1.99504 0
M  V30 250 C 26.6967 1.55313 -1.1791 0
M  V30 251 O 25.9667 1.94001 -0.272097 0
M  V30 252 H 24.5467 0.122291 -0.736922 0
M  V30 253 H 27.2087 -0.397802 -1.90797 0
M  V30 254 H 26.3047 0.603061 -3.06218 0
M  V30 255 N 26.6058 1.57591 -0.0167156 0
M  V30 256 C 27.8538 1.90906 0.663285 0
M  V30 257 C 28.1748 0.892509 1.73376 0
M  V30 258 O 27.4448 -0.0677623 1.95783 0
M  V30 259 H 26.0248 0.704637 0.247983 0
M  V30 260 H 28.6868 1.94803 -0.0615909 0
M  V30 261 H 27.7828 2.9116 1.12393 0
M  V30 262 N 28.0839 -0.256276 1.55502 0
M  V30 263 C 29.0169 -1.34321 1.84481 0
M  V30 264 C 29.9949 -1.46802 0.699131 0
M  V30 265 O 31.1789 -1.63165 0.943904 0
M  V30 266 C 28.3059 -2.71779 2.02123 0
M  V30 267 C 27.3519 -2.76496 3.24734 0
M  V30 268 S 28.1849 -2.3405 4.81644 0
M  V30 269 C 29.3409 -3.73452 5.02279 0
M  V30 270 H 29.5739 -1.09539 2.76385 0
M  V30 271 H 27.1069 -0.45678 1.47489 0
M  V30 272 H 29.0649 -3.50932 2.12972 0
M  V30 273 H 27.7259 -2.93803 1.11078 0
M  V30 274 H 26.9189 -3.77424 3.34016 0
M  V30 275 H 26.5209 -2.05379 3.12563 0
M  V30 276 H 28.8129 -4.6887 4.89047 0
M  V30 277 H 29.7559 -3.6911 6.04287 0
M  V30 278 H 30.1639 -3.6553 4.30172 0
M  V30 279 N 29.562 -1.4872 -0.521534 0
M  V30 280 C 30.81 -1.56857 -1.27437 0
M  V30 281 C 31.131 -0.247982 -1.93417 0
M  V30 282 O 30.401 0.731151 -1.81744 0
M  V30 283 H 28.981 -0.577885 -0.473347 0
M  V30 284 H 31.643 -1.85233 -0.606205 0
M  V30 285 H 30.739 -2.35402 -2.0492 0
M  V30 286 N 31.0401 0.771051 -1.3745 0
M  V30 287 C 32.2681 1.56015 -1.35893 0
M  V30 288 C 32.6831 1.88718 0.0555523 0
M  V30 289 O 32.0401 1.51502 1.01752 0
M  V30 290 C 32.0911 2.87001 -2.19801 0
M  V30 291 O 31.8121 2.557 -3.55738 0
M  V30 292 C 33.3131 3.81228 -2.26231 0
M  V30 293 H 30.5331 0.483317 -0.465453 0
M  V30 294 H 33.0771 0.955611 -1.80799 0
M  V30 295 H 31.2321 3.43877 -1.78402 0
M  V30 296 H 31.6461 3.39584 -3.99729 0
M  V30 297 H 33.1201 4.70139 -2.89263 0
M  V30 298 H 33.5971 4.20409 -1.27093 0
M  V30 299 H 34.2031 3.30281 -2.67945 0
M  V30 300 N 32.5182 1.22032 0.997298 0
M  V30 301 C 33.4482 1.01065 2.10495 0
M  V30 302 C 34.4292 -0.0669542 1.69968 0
M  V30 303 O 35.6142 0.0943987 1.9397 0
M  V30 304 C 32.7442 0.582874 3.42374 0
M  V30 305 C 31.6982 1.60592 3.96729 0
M  V30 306 C 31.0242 1.03412 5.24605 0
M  V30 307 C 32.3242 2.99478 4.27914 0
M  V30 308 H 34.0182 1.93708 2.28292 0
M  V30 309 H 31.5642 0.932761 1.09707 0
M  V30 310 H 33.5172 0.423332 4.19268 0
M  V30 311 H 32.2412 -0.379213 3.24391 0
M  V30 312 H 30.9002 1.75316 3.21963 0
M  V30 313 H 30.5482 0.063518 5.0296 0
M  V30 314 H 30.2482 1.71754 5.61938 0
M  V30 315 H 31.7722 0.886066 6.04137 0
M  V30 316 H 33.1862 2.88153 4.95622 0
M  V30 317 H 31.5832 3.64903 4.76409 0
M  V30 318 H 32.6532 3.49742 3.3587 0
M  V30 319 N 33.9963 -1.19345 1.0293 0
M  V30 320 C 35.2423 -1.89585 0.736824 0
M  V30 321 C 35.5973 -1.78148 -0.726703 0
M  V30 322 O 34.8903 -1.16332 -1.52242 0
M  V30 323 C 35.0843 -3.39292 1.12319 0
M  V30 324 C 34.9133 -3.65298 2.62273 0
M  V30 325 C 33.6833 -3.83304 3.29251 0
M  V30 326 C 35.8813 -3.6682 3.60482 0
M  V30 327 N 33.8633 -3.96944 4.68304 0
M  V30 328 C 35.2343 -3.86037 4.85155 0
M  V30 329 C 37.2893 -3.49848 3.54275 0
M  V30 330 C 35.9923 -3.9004 6.04369 0
M  V30 331 C 38.0183 -3.55129 4.72903 0
M  V30 332 C 37.3803 -3.74831 5.9639 0
M  V30 333 H 33.4793 -0.712856 0.321497 0
M  V30 334 H 36.0633 -1.43427 1.31669 0
M  V30 335 H 34.2343 -3.84172 0.571524 0
M  V30 336 H 35.9663 -3.97055 0.78292 0
M  V30 337 H 32.7213 -3.82211 2.79663 0
M  V30 338 H 33.1453 -4.07613 5.40538 0
M  V30 339 H 37.7873 -3.33572 2.59788 0
M  V30 340 H 35.5053 -4.05108 6.99223 0
M  V30 341 H 39.0913 -3.43287 4.69729 0
M  V30 342 H 37.9713 -3.78792 6.86649 0
M  V30 343 N 35.4744 -0.807222 -1.35358 0
M  V30 344 C 36.6994 -0.399309 -2.0352 0
M  V30 345 C 37.1244 0.981986 -1.60433 0
M  V30 346 O 36.4824 1.63601 -0.781299 0
M  V30 347 C 36.5304 -0.491552 -3.57234 0
M  V30 348 O 35.6344 0.494754 -4.09421 0
M  V30 349 H 34.9754 -0.166682 -0.642739 0
M  V30 350 H 37.5054 -1.09328 -1.72941 0
M  V30 351 H 37.5154 -0.361588 -4.06395 0
M  V30 352 H 36.1904 -1.49907 -3.87944 0
M  V30 353 H 34.7674 0.324977 -3.71481 0
M  V30 354 N 36.9525 1.47285 -0.560781 0
M  V30 355 C 37.8845 2.28118 0.222438 0
M  V30 356 C 38.8975 1.37219 0.876056 0
M  V30 357 O 40.0865 1.62011 0.749307 0
M  V30 358 C 37.1865 3.1159 1.33285 0
M  V30 359 C 36.3595 4.30473 0.77534 0
M  V30 360 C 35.4185 4.95513 1.77069 0
M  V30 361 O 34.4445 5.53792 1.31539 0
M  V30 362 N 35.6465 4.90531 3.10418 0
M  V30 363 H 38.4115 2.95976 -0.470958 0
M  V30 364 H 35.9725 1.56955 -0.39709 0
M  V30 365 H 37.9645 3.51967 1.99752 0
M  V30 366 H 36.5345 2.45951 1.92943 0
M  V30 367 H 35.7545 3.94144 -0.0662113 0
M  V30 368 H 37.0425 5.07362 0.382272 0
M  V30 369 H 36.4405 4.44389 3.5005 0
M  V30 370 H 34.9975 5.34917 3.72434 0
M  V30 371 N 38.4306 0.297415 1.54768 0
M  V30 372 C 39.3406 -0.58983 2.27064 0
M  V30 373 C 40.3566 -1.15144 1.30453 0
M  V30 374 O 41.5326 -1.17699 1.63428 0
M  V30 375 C 38.5976 -1.74714 2.9946 0
M  V30 376 C 37.6586 -1.21997 4.11601 0
M  V30 377 C 36.8916 -2.32212 4.80535 0
M  V30 378 O 37.1146 -3.52036 4.48806 0
M  V30 379 O 36.0486 -1.99106 5.68014 0
M  V30 380 H 39.8746 -0.00348199 3.037 0
M  V30 381 H 37.4596 0.0640035 1.49263 0
M  V30 382 H 39.3416 -2.42147 3.44881 0
M  V30 383 H 38.0166 -2.32016 2.25722 0
M  V30 384 H 36.9236 -0.511458 3.70587 0
M  V30 385 H 38.2566 -0.692419 4.87305 0
M  V30 386 N 39.9087 -1.5758 0.0250728 0
M  V30 387 C 41.1337 -1.96337 -0.668317 0
M  V30 388 C 41.5587 -0.901314 -1.651 0
M  V30 389 O 40.9167 0.138187 -1.80773 0
M  V30 390 C 40.9647 -3.34191 -1.35457 0
M  V30 391 O 40.0687 -3.30269 -2.46974 0
M  V30 392 H 39.4097 -0.640281 -0.175887 0
M  V30 393 H 41.9397 -2.0442 0.0857224 0
M  V30 394 H 41.9497 -3.70331 -1.71228 0
M  V30 395 H 40.6247 -4.11036 -0.634218 0
M  V30 396 H 39.2017 -3.05841 -2.13344 0
M  V30 397 N 41.3868 0.248026 -1.55636 0
M  V30 398 C 42.6148 0.993808 -1.81469 0
M  V30 399 C 43.0298 1.78991 -0.60064 0
M  V30 400 O 42.3868 1.77345 0.430682 0
M  V30 401 C 42.4378 1.93258 -3.05506 0
M  V30 402 O 42.1588 1.16869 -4.22224 0
M  V30 403 C 43.6598 2.79444 -3.4413 0
M  V30 404 H 40.8798 0.292486 -0.603898 0
M  V30 405 H 43.4238 0.271253 -2.02693 0
M  V30 406 H 41.5788 2.60943 -2.86335 0
M  V30 407 H 41.9928 1.80359 -4.92515 0
M  V30 408 H 43.4668 3.41066 -4.34026 0
M  V30 409 H 43.9438 3.50499 -2.64665 0
M  V30 410 H 44.5498 2.17214 -3.65648 0
M  V30 411 N 42.8649 1.48995 0.513639 0
M  V30 412 C 44.2759 1.5119 1.09537 0
M  V30 413 C 44.6269 0.290906 1.94031 0
M  V30 414 O 43.7519 -0.60049 2.07902 0
M  V30 415 C 44.3469 2.73964 1.99322 0
M  V30 416 C 42.9059 2.78978 2.52682 0
M  V30 417 C 42.0529 2.44934 1.30009 0
M  V30 418 H 45.0039 1.55875 0.298125 0
M  V30 419 H 45.0249 2.53409 2.83838 0
M  V30 420 H 44.5369 3.62813 1.37799 0
M  V30 421 H 42.6379 1.94378 3.1788 0
M  V30 422 H 42.7509 3.8083 2.90698 0
M  V30 423 H 41.1149 1.9644 1.62122 0
M  V30 424 H 41.8979 3.36043 0.702131 0
M  V30 425 N 44.343 -0.763751 1.37857 0
M  V30 426 C 45.253 -1.90817 1.36478 0
M  V30 427 C 46.269 -1.71997 0.263248 0
M  V30 428 O 47.445 -1.95095 0.499979 0
M  V30 429 C 44.51 -3.2605 1.17864 0
M  V30 430 C 43.571 -3.57467 2.3773 0
M  V30 431 C 42.804 -4.86249 2.19995 0
M  V30 432 O 43.027 -5.57884 1.18836 0
M  V30 433 O 41.961 -5.16911 3.08361 0
M  V30 434 H 45.787 -1.94933 2.32884 0
M  V30 435 H 43.372 -0.907619 1.1867 0
M  V30 436 H 45.254 -4.06924 1.09504 0
M  V30 437 H 43.929 -3.22769 0.245372 0
M  V30 438 H 42.836 -2.76796 2.51664 0
M  V30 439 H 44.169 -3.655 3.29652 0
M  V30 440 N 45.8211 -1.22559 -0.990812 0
M  V30 441 C 46.7311 -1.01394 -2.11557 0
M  V30 442 C 47.7471 0.0383962 -1.73958 0
M  V30 443 O 48.9231 -0.154787 -2.00804 0
M  V30 444 C 45.9881 -0.596569 -3.41529 0
M  V30 445 C 45.0491 -1.72276 -3.93217 0
M  V30 446 C 44.2821 -1.32521 -5.16985 0
M  V30 447 O 44.5051 -0.204909 -5.70032 0
M  V30 448 O 43.4391 -2.14247 -5.62478 0
M  V30 449 H 47.2651 -1.95633 -2.32296 0
M  V30 450 H 44.8501 -1.01172 -1.0993 0
M  V30 451 H 46.7321 -0.374263 -4.19735 0
M  V30 452 H 45.4071 0.316939 -3.22145 0
M  V30 453 H 44.3141 -1.99961 -3.16174 0
M  V30 454 H 45.6471 -2.61421 -4.17037 0
M  V30 455 N 47.2992 1.18797 -1.03562 0
M  V30 456 C 48.7152 1.40671 -0.753917 0
M  V30 457 C 48.9152 1.9043 0.658686 0
M  V30 458 O 47.9712 2.08538 1.42366 0
M  V30 459 C 49.2842 2.41192 -1.79574 0
M  V30 460 C 50.8322 2.54928 -1.81606 0
M  V30 461 C 51.3072 3.58709 -2.84766 0
M  V30 462 N 52.7982 3.66212 -2.83625 0
M  V30 463 C 53.5332 4.46225 -3.60098 0
M  V30 464 N 53.0292 5.29888 -4.46308 0
M  V30 465 N 54.8222 4.40939 -3.4861 0
M  V30 466 H 46.9732 0.848221 -1.94728 0
M  V30 467 H 49.2362 0.435081 -0.842264 0
M  V30 468 H 48.9422 2.11669 -2.80872 0
M  V30 469 H 48.8162 3.40467 -1.62365 0
M  V30 470 H 51.2032 2.83771 -0.809817 0
M  V30 471 H 51.2842 1.55784 -2.02891 0
M  V30 472 H 50.9282 3.30607 -3.85566 0
M  V30 473 H 50.8582 4.57519 -2.60737 0
M  V30 474 H 53.3492 3.06466 -2.21105 0
M  V30 475 H 53.6622 5.88078 -5.01382 0
M  V30 476 H 52.0072 5.29326 -4.50377 0
M  V30 477 H 55.1982 3.74624 -2.80668 0
M  V30 478 H 55.3712 5.03056 -4.08459 0
M  V30 479 N 48.7773 0.814389 1.34928 0
M  V30 480 C 49.7073 0.244827 2.32213 0
M  V30 481 C 50.6883 -0.634024 1.57842 0
M  V30 482 O 51.8733 -0.562676 1.8587 0
M  V30 483 C 49.0033 -0.601106 3.42058 0
M  V30 484 C 47.9573 0.179896 4.27622 0
M  V30 485 C 47.2833 -0.788237 5.28858 0
M  V30 486 C 48.5833 1.38329 5.03649 0
M  V30 487 H 50.2773 1.05763 2.80097 0
M  V30 488 H 47.8233 0.510029 1.34665 0
M  V30 489 H 49.7763 -1.00968 4.09125 0
M  V30 490 H 48.5003 -1.44688 2.92802 0
M  V30 491 H 47.1593 0.569739 3.62146 0
M  V30 492 H 46.8073 -1.62973 4.75866 0
M  V30 493 H 46.5073 -0.269942 5.8698 0
M  V30 494 H 48.0313 -1.19485 5.98795 0
M  V30 495 H 49.4453 1.04918 5.63618 0
M  V30 496 H 47.8423 1.83662 5.71304 0
M  V30 497 H 48.9123 2.16592 4.33839 0
M  V30 498 N 50.2554 -1.46986 0.568584 0
M  V30 499 C 51.6664 -1.86188 0.138219 0
M  V30 500 C 52.0174 -1.47388 -1.29504 0
M  V30 501 O 51.1424 -0.88219 -1.97602 0
M  V30 502 C 51.7374 -3.3792 0.244065 0
M  V30 503 C 50.2964 -3.76171 -0.131335 0
M  V30 504 C 49.4434 -2.71027 0.586465 0
M  V30 505 H 52.3944 -1.38342 0.777645 0
M  V30 506 H 52.4154 -3.76729 -0.534351 0
M  V30 507 H 51.9274 -3.66128 1.28731 0
M  V30 508 H 50.0284 -3.5358 -1.17526 0
M  V30 509 H 50.1414 -4.78523 0.235146 0
M  V30 510 H 48.5054 -2.54684 0.0282722 0
M  V30 511 H 49.2884 -3.02077 1.63109 0
M  V30 512 N 51.7335 -0.305618 -1.54608 0
M  V30 513 C 52.9795 0.302746 -2.00528 0
M  V30 514 C 53.3125 1.53184 -1.19367 0
M  V30 515 O 52.5875 1.92598 -0.271321 0
M  V30 516 C 52.8705 0.654756 -3.54097 0
M  V30 517 C 52.7235 -0.583793 -4.45995 0
M  V30 518 C 54.0425 1.47947 -4.14487 0
M  V30 519 H 51.1615 0.108564 -0.72896 0
M  V30 520 H 53.8035 -0.418634 -1.85331 0
M  V30 521 H 51.9535 1.26935 -3.67178 0
M  V30 522 H 53.6255 -1.22224 -4.44814 0
M  V30 523 H 51.8685 -1.21615 -4.16404 0
M  V30 524 H 52.5395 -0.293287 -5.5122 0
M  V30 525 H 55.0155 0.96013 -4.04871 0
M  V30 526 H 53.8915 1.69454 -5.22088 0
M  V30 527 H 54.1525 2.47011 -3.66658 0
M  V30 528 N 53.2116 1.57565 -0.0334293 0
M  V30 529 C 54.1216 2.13943 0.962572 0
M  V30 530 C 55.1376 1.09276 1.35406 0
M  V30 531 O 56.3136 1.41355 1.4346 0
M  V30 532 C 53.3786 2.65887 2.22497 0
M  V30 533 C 52.4396 3.85286 1.8935 0
M  V30 534 C 51.6726 4.34743 3.09571 0
M  V30 535 O 51.8956 3.83352 4.22371 0
M  V30 536 O 50.8296 5.26538 2.91618 0
M  V30 537 H 54.6556 2.99333 0.513169 0
M  V30 538 H 52.2406 1.4822 0.18743 0
M  V30 539 H 54.1226 2.99346 2.96598 0
M  V30 540 H 52.7976 1.83578 2.6661 0
M  V30 541 H 51.7046 3.56746 1.1262 0
M  V30 542 H 53.0376 4.68771 1.5005 0
M  V30 543 N 54.6897 -0.239769 1.55765 0
M  V30 544 C 55.9377 -0.964892 1.77579 0
M  V30 545 C 56.2587 -1.85582 0.598699 0
M  V30 546 O 55.5287 -1.92075 -0.385226 0
M  V30 547 H 54.1087 -0.359265 0.654933 0
M  V30 548 H 56.7707 -0.256001 1.93211 0
M  V30 549 H 55.8667 -1.58243 2.69009 0
M  V30 550 N 56.1678 -1.49265 -0.50573 0
M  V30 551 C 57.3928 -1.62478 -1.28902 0
M  V30 552 C 57.8178 -0.294332 -1.85783 0
M  V30 553 O 57.1758 0.737412 -1.65626 0
M  V30 554 C 57.2238 -2.69268 -2.39848 0
M  V30 555 O 56.3278 -2.28113 -3.43567 0
M  V30 556 H 55.6688 -0.54399 -0.380751 0
M  V30 557 H 58.1988 -1.95421 -0.605952 0
M  V30 558 H 58.2088 -2.91291 -2.85681 0
M  V30 559 H 56.8838 -3.65846 -1.97812 0
M  V30 560 H 55.4608 -2.16401 -3.03685 0
M  V30 561 N 57.6459 0.756429 -1.3826 0
M  V30 562 C 59.0619 1.0591 -1.19395 0
M  V30 563 C 59.2619 2.01459 -0.0406567 0
M  V30 564 O 58.3179 2.44909 0.614467 0
M  V30 565 C 59.6309 1.64191 -2.51916 0
M  V30 566 C 61.1789 1.76376 -2.58574 0
M  V30 567 C 61.6539 2.38069 -3.91264 0
M  V30 568 N 63.1449 2.45503 -3.92788 0
M  V30 569 C 63.8799 2.94126 -4.92217 0
M  V30 570 N 63.3759 3.42805 -6.02043 0
M  V30 571 N 65.1689 2.9314 -4.7961 0
M  V30 572 H 57.3199 0.122313 -2.12048 0
M  V30 573 H 59.5829 0.116892 -0.940766 0
M  V30 574 H 59.2889 1.01451 -3.3675 0
M  V30 575 H 59.1629 2.6329 -2.70108 0
M  V30 576 H 61.5499 2.38244 -1.74137 0
M  V30 577 H 61.6309 0.759894 -2.44252 0
M  V30 578 H 61.2749 1.76835 -4.76121 0
M  V30 579 H 61.2049 3.39091 -4.02895 0
M  V30 580 H 63.6959 2.1107 -3.13461 0
M  V30 581 H 64.0089 3.78354 -6.73846 0
M  V30 582 H 62.3539 3.4087 -6.05667 0
M  V30 583 H 65.5449 2.54419 -3.92923 0
M  V30 584 H 65.7179 3.30721 -5.5725 0
M  V30 585 N 59.124 1.23083 0.984299 0
M  V30 586 C 60.535 1.05609 1.5396 0
M  V30 587 C 60.886 -0.377793 1.92528 0
M  V30 588 O 60.011 -1.26398 1.75649 0
M  V30 589 C 60.606 1.91087 2.7977 0
M  V30 590 C 59.165 1.77885 3.31713 0
M  V30 591 C 58.312 1.87028 2.04733 0
M  V30 592 H 61.263 1.36802 0.804419 0
M  V30 593 H 61.284 1.43336 3.5247 0
M  V30 594 H 60.796 2.9544 2.51668 0
M  V30 595 H 58.897 0.762995 3.64704 0
M  V30 596 H 59.01 2.61047 4.01735 0
M  V30 597 H 57.374 1.30565 2.18689 0
M  V30 598 H 58.157 2.92929 1.79017 0
M  V30 599 N 60.6021 -1.18246 1.0419 0
M  V30 600 C 61.8481 -1.88793 0.75689 0
M  V30 601 C 62.2031 -1.78909 -0.707767 0
M  V30 602 O 61.4961 -1.1794 -1.50999 0
M  V30 603 C 61.6901 -3.38082 1.15911 0
M  V30 604 C 61.5191 -3.62496 2.66133 0
M  V30 605 C 60.2891 -3.7979 3.33298 0
M  V30 606 C 62.4871 -3.62976 3.64353 0
M  V30 607 N 60.4691 -3.91955 4.72487 0
M  V30 608 C 61.8401 -3.80869 4.89222 0
M  V30 609 C 63.8951 -3.46071 3.57965 0
M  V30 610 C 62.5981 -3.83608 6.08471 0
M  V30 611 C 64.6241 -3.50093 4.76643 0
M  V30 612 C 63.9861 -3.68484 6.00332 0
M  V30 613 H 60.0851 -0.709406 0.32904 0
M  V30 614 H 62.6691 -1.42022 1.33183 0
M  V30 615 H 60.8401 -3.83544 0.612238 0
M  V30 616 H 62.5721 -3.96202 0.824989 0
M  V30 617 H 59.3271 -3.79224 2.83701 0
M  V30 618 H 59.7511 -4.01857 5.44831 0
M  V30 619 H 64.3931 -3.30797 2.63311 0
M  V30 620 H 62.1111 -3.97669 7.0348 0
M  V30 621 H 65.6971 -3.38285 4.73344 0
M  V30 622 H 64.5771 -3.71488 6.90627 0
M  V30 623 N 62.0802 -0.821533 -1.34494 0
M  V30 624 C 63.0432 -0.247847 -2.27856 0
M  V30 625 C 64.0432 0.573453 -1.50227 0
M  V30 626 O 65.2332 0.389759 -1.69784 0
M  V30 627 C 62.3652 0.652698 -3.34593 0
M  V30 628 H 63.5582 -1.07146 -2.80107 0
M  V30 629 H 61.1112 -0.593291 -1.44602 0
M  V30 630 H 61.8462 1.49943 -2.87555 0
M  V30 631 H 61.6312 0.065292 -3.92046 0
M  V30 632 H 63.1212 1.04793 -4.04238 0
M  V30 633 N 63.5583 1.46682 -0.576371 0
M  V30 634 C 64.8043 2.02712 -0.0596221 0
M  V30 635 C 65.1373 1.44765 1.29448 0
M  V30 636 O 64.4123 0.610355 1.84675 0
M  V30 637 C 64.6953 3.60098 0.0129503 0
M  V30 638 C 64.5483 4.28441 -1.3696 0
M  V30 639 C 65.8673 4.34224 0.71678 0
M  V30 640 H 62.9863 0.736637 -0.0231407 0
M  V30 641 H 65.6283 1.74898 -0.742351 0
M  V30 642 H 63.7783 3.83926 0.594378 0
M  V30 643 H 65.4503 4.15896 -1.9957 0
M  V30 644 H 63.6933 3.8805 -1.93907 0
M  V30 645 H 64.3643 5.3716 -1.27135 0
M  V30 646 H 66.8403 4.15503 0.222908 0
M  V30 647 H 65.7163 5.43936 0.73657 0
M  V30 648 H 65.9773 4.04823 1.77682 0
M  V30 649 N 65.0364 0.313813 1.54444 0
M  V30 650 C 65.9994 -0.54379 2.22656 0
M  V30 651 C 66.9994 -1.05124 1.21678 0
M  V30 652 O 68.1894 -0.945225 1.46325 0
M  V30 653 C 65.3214 -1.75427 2.92298 0
M  V30 654 H 66.5144 0.0523599 2.99854 0
M  V30 655 H 64.0674 0.0647834 1.56166 0
M  V30 656 H 64.8024 -2.38991 2.19211 0
M  V30 657 H 64.5874 -1.39791 3.66334 0
M  V30 658 H 66.0774 -2.36325 3.44297 0
M  V30 659 N 66.5145 -1.57545 0.0417849 0
M  V30 660 C 67.9305 -1.56467 -0.314704 0
M  V30 661 C 68.1305 -1.04859 -1.72066 0
M  V30 662 O 67.1865 -0.700983 -2.42575 0
M  V30 663 C 68.4995 -3.00317 -0.15174 0
M  V30 664 C 70.0475 -3.12201 -0.223553 0
M  V30 665 C 70.5225 -4.57913 -0.0892295 0
M  V30 666 N 72.0135 -4.6297 -0.145808 0
M  V30 667 C 72.7485 -5.73362 -0.0658459 0
M  V30 668 N 72.2445 -6.92769 0.0659282 0
M  V30 669 N 74.0375 -5.6197 -0.12075 0
M  V30 670 H 66.1885 -1.89416 0.961014 0
M  V30 671 H 68.4515 -0.871862 0.372237 0
M  V30 672 H 68.1575 -3.42073 0.817254 0
M  V30 673 H 68.0315 -3.65892 -0.916692 0
M  V30 674 H 70.4185 -2.70349 -1.18301 0
M  V30 675 H 70.4995 -2.49323 0.571994 0
M  V30 676 H 70.1435 -5.00448 0.866867 0
M  V30 677 H 70.0735 -5.18786 -0.903802 0
M  V30 678 H 72.5645 -3.7709 -0.247286 0
M  V30 679 H 72.8775 -7.72707 0.119905 0
M  V30 680 H 71.2225 -6.94927 0.100885 0
M  V30 681 H 74.4135 -4.67572 -0.222187 0
M  V30 682 H 74.5865 -6.47977 -0.0549735 0
M  V30 683 N 67.9926 0.231505 -1.5589 0
M  V30 684 C 69.4086 0.580748 -1.48659 0
M  V30 685 C 69.6086 1.87617 -0.73498 0
M  V30 686 O 68.6646 2.51046 -0.270586 0
M  V30 687 C 69.9776 0.669202 -2.93159 0
M  V30 688 C 71.5256 0.760499 -3.03621 0
M  V30 689 C 72.0006 0.880383 -4.49459 0
M  V30 690 N 73.4916 0.944861 -4.53461 0
M  V30 691 C 74.2266 1.05716 -5.63571 0
M  V30 692 N 73.7226 1.13403 -6.83456 0
M  V30 693 N 75.5156 1.09152 -5.514 0
M  V30 694 H 67.6666 -0.618695 -2.03189 0
M  V30 695 H 69.9296 -0.215728 -0.923128 0
M  V30 696 H 69.6356 -0.212904 -3.51055 0
M  V30 697 H 69.5096 1.5361 -3.44505 0
M  V30 698 H 71.8966 1.63305 -2.45796 0
M  V30 699 H 71.9776 -0.131864 -2.5546 0
M  V30 700 H 71.6216 0.0123284 -5.07899 0
M  V30 701 H 71.5516 1.78802 -4.95316 0
M  V30 702 H 74.0426 0.896176 -3.6712 0
M  V30 703 H 74.3556 1.21921 -7.63122 0
M  V30 704 H 72.7006 1.10333 -6.86186 0
M  V30 705 H 75.8916 1.02805 -4.56671 0
M  V30 706 H 76.0646 1.17558 -6.37247 0
M  V30 707 N 69.4707 1.49531 0.497807 0
M  V30 708 C 70.7167 1.59415 1.25358 0
M  V30 709 C 71.0497 0.281422 1.9215 0
M  V30 710 O 70.3247 -0.715249 1.80871 0
M  V30 711 C 70.6077 2.75566 2.3181 0
M  V30 712 C 70.4607 4.16642 1.69498 0
M  V30 713 C 71.7797 2.87347 3.33346 0
M  V30 714 H 68.8987 0.580244 0.454408 0
M  V30 715 H 71.5407 1.81827 0.551262 0
M  V30 716 H 69.6907 2.56587 2.91711 0
M  V30 717 H 71.3627 4.47145 1.13399 0
M  V30 718 H 69.6057 4.22141 0.998978 0
M  V30 719 H 70.2767 4.93792 2.46725 0
M  V30 720 H 72.7527 3.04634 2.83438 0
M  V30 721 H 71.6287 3.70289 4.05188 0
M  V30 722 H 71.8897 1.96834 3.95865 0
M  V30 723 N 70.9488 -0.749086 1.3866 0
M  V30 724 C 71.8788 -1.8764 1.38973 0
M  V30 725 C 72.8598 -1.68178 0.255004 0
M  V30 726 O 74.0448 -1.88704 0.458754 0
M  V30 727 C 71.1748 -3.25222 1.21851 0
M  V30 728 C 70.1288 -3.59295 2.32575 0
M  V30 729 C 69.4548 -4.95663 2.00555 0
M  V30 730 C 70.7548 -3.63709 3.7485 0
M  V30 731 H 72.4488 -1.87635 2.3331 0
M  V30 732 H 69.9948 -0.901329 1.12303 0
M  V30 733 H 71.9478 -4.03746 1.20695 0
M  V30 734 H 70.6718 -3.25719 0.239775 0
M  V30 735 H 69.3308 -2.83093 2.32925 0
M  V30 736 H 68.9788 -4.92724 1.01154 0
M  V30 737 H 68.6788 -5.19429 2.74714 0
M  V30 738 H 70.2028 -5.7656 2.01024 0
M  V30 739 H 71.6168 -4.32338 3.76506 0
M  V30 740 H 70.0138 -3.98986 4.48252 0
M  V30 741 H 71.0838 -2.63834 4.06841 0
M  V30 742 N 72.4269 -1.23603 -0.977757 0
M  V30 743 C 73.6549 -1.09646 -1.75458 0
M  V30 744 C 74.0699 0.351859 -1.85492 0
M  V30 745 O 73.4269 1.24327 -1.336 0
M  V30 746 C 73.4779 -1.71895 -3.18016 0
M  V30 747 O 73.1989 -3.11063 -3.08498 0
M  V30 748 C 74.6999 -1.63415 -4.12081 0
M  V30 749 H 71.9199 -0.38359 -0.550545 0
M  V30 750 H 74.4639 -1.63507 -1.22824 0
M  V30 751 H 72.6189 -1.22061 -3.67668 0
M  V30 752 H 73.0329 -3.41305 -3.9826 0
M  V30 753 H 74.5069 -2.11669 -5.09804 0
M  V30 754 H 74.9839 -0.593462 -4.35172 0
M  V30 755 H 75.5899 -2.12628 -3.68334 0
M  V30 756 N 73.905 1.17692 -1.04816 0
M  V30 757 C 74.868 2.19787 -0.650117 0
M  V30 758 C 75.868 1.58044 0.296427 0
M  V30 759 O 77.058 1.74012 0.0808097 0
M  V30 760 C 74.19 3.40869 0.0456987 0
M  V30 761 H 75.383 2.56516 -1.5537 0
M  V30 762 H 72.936 1.31708 -0.841594 0
M  V30 763 H 73.671 3.09681 0.962726 0
M  V30 764 H 73.456 3.86928 -0.634727 0
M  V30 765 H 74.946 4.16445 0.310432 0
M  V30 766 N 75.3831 0.828654 1.34056 0
M  V30 767 C 76.6321 0.415828 1.97367 0
M  V30 768 C 76.9451 -1.02796 1.6641 0
M  V30 769 O 78.1511 -1.54497 2.23255 0
M  V30 770 C 76.6071 0.692601 3.53173 0
M  V30 771 C 76.2151 2.15038 3.93017 0
M  V30 772 C 77.9591 0.346222 4.23086 0
M  V30 773 C 75.8661 2.37174 5.41758 0
M  V30 774 H 74.7961 0.151755 0.738571 0
M  V30 775 H 77.4471 1.01581 1.52819 0
M  V30 776 H 75.8291 0.0223764 3.95994 0
M  V30 777 H 77.0031 2.86024 3.61285 0
M  V30 778 H 75.3181 2.45875 3.36057 0
M  V30 779 H 77.9151 0.48937 5.32456 0
M  V30 780 H 78.2581 -0.709842 4.10204 0
M  V30 781 H 78.7911 0.971258 3.85761 0
M  V30 782 H 75.5301 3.41308 5.59633 0
M  V30 783 H 75.0501 1.70738 5.74986 0
M  V30 784 H 76.7291 2.19818 6.08514 0
M  V30 785 N 76.8612 -1.46375 0.584142 0
M  V30 786 C 77.7912 -2.33103 -0.136037 0
M  V30 787 C 78.7722 -1.45431 -0.882255 0
M  V30 788 O 79.9572 -1.74246 -0.857434 0
M  V30 789 C 77.0872 -3.27731 -1.14933 0
M  V30 790 C 76.0412 -4.24855 -0.517862 0
M  V30 791 C 75.3672 -5.09001 -1.63773 0
M  V30 792 C 76.6672 -5.19439 0.545886 0
M  V30 793 H 78.3612 -2.93568 0.588086 0
M  V30 794 H 75.9072 -1.41166 0.284259 0
M  V30 795 H 77.8602 -3.87261 -1.66153 0
M  V30 796 H 76.5842 -2.65377 -1.90375 0
M  V30 797 H 75.2432 -3.6659 -0.0267361 0
M  V30 798 H 74.8912 -4.43031 -2.38185 0
M  V30 799 H 74.5912 -5.74777 -1.22085 0
M  V30 800 H 76.1152 -5.71396 -2.15266 0
M  V30 801 H 77.5292 -5.73177 0.118704 0
M  V30 802 H 75.9262 -5.93566 0.88317 0
M  V30 803 H 76.9962 -4.63285 1.43162 0
M  V30 804 N 78.3393 -0.321999 -1.54275 0
M  V30 805 C 79.5883 0.281931 -1.9972 0
M  V30 806 C 79.9013 1.53369 -1.21397 0
M  V30 807 O 81.1073 2.21352 -1.57211 0
M  V30 808 C 79.5633 0.5529 -3.55628 0
M  V30 809 C 79.1713 -0.681721 -4.42783 0
M  V30 810 C 80.9153 1.11687 -4.09544 0
M  V30 811 C 78.8223 -0.382742 -5.9016 0
M  V30 812 H 77.7523 0.109124 -0.746062 0
M  V30 813 H 80.4033 -0.43398 -1.78294 0
M  V30 814 H 78.7853 1.32896 -3.73035 0
M  V30 815 H 79.9593 -1.45723 -4.37151 0
M  V30 816 H 78.2743 -1.1658 -3.99748 0
M  V30 817 H 80.8713 1.35515 -5.17242 0
M  V30 818 H 81.2143 2.06575 -3.61431 0
M  V30 819 H 81.7473 0.402032 -3.95763 0
M  V30 820 H 78.4863 -1.30076 -6.42464 0
M  V30 821 H 78.0063 0.355094 -5.98748 0
M  V30 822 H 79.6853 0.00800157 -6.47 0
M  V30 823 N 79.8174 1.5752 -0.0501392 0
M  V30 824 C 80.7474 2.14502 0.922566 0
M  V30 825 C 81.7284 1.06642 1.3252 0
M  V30 826 O 82.9134 1.34577 1.4001 0
M  V30 827 C 80.0434 2.68916 2.19776 0
M  V30 828 C 78.9974 3.8175 1.93523 0
M  V30 829 C 78.3234 4.22677 3.27487 0
M  V30 830 C 79.6234 5.06932 1.25765 0
M  V30 831 H 81.3174 2.9603 0.447952 0
M  V30 832 H 78.8634 1.42401 0.214024 0
M  V30 833 H 80.8164 3.07419 2.88222 0
M  V30 834 H 79.5404 1.84578 2.69441 0
M  V30 835 H 78.1994 3.43718 1.27489 0
M  V30 836 H 77.8474 3.35291 3.74952 0
M  V30 837 H 77.5474 4.98725 3.1072 0
M  V30 838 H 79.0714 4.63779 3.97166 0
M  V30 839 H 80.4854 5.42888 1.84244 0
M  V30 840 H 78.8824 5.88116 1.19328 0
M  V30 841 H 79.9524 4.84337 0.233536 0
M  V30 842 N 81.2955 -0.223234 1.56011 0
M  V30 843 C 82.5435 -0.946003 1.78592 0
M  V30 844 C 82.8645 -1.84936 0.618349 0
M  V30 845 O 82.1345 -1.92473 -0.364833 0
M  V30 846 H 80.7145 -0.352298 0.658707 0
M  V30 847 H 83.3765 -0.235494 1.93472 0
M  V30 848 H 82.4725 -1.55381 2.70672 0
M  V30 849 N 82.7736 -1.49793 -0.48987 0
M  V30 850 C 83.7036 -1.70201 -1.59856 0
M  V30 851 C 84.6846 -0.55076 -1.60937 0
M  V30 852 O 85.8696 -0.787841 -1.77501 0
M  V30 853 C 82.9996 -1.77882 -2.98287 0
M  V30 854 C 81.9536 -2.92907 -3.12073 0
M  V30 855 C 81.2796 -2.85712 -4.51965 0
M  V30 856 C 82.5796 -4.3369 -2.91051 0
M  V30 857 H 84.2736 -2.63025 -1.43032 0
M  V30 858 H 81.8196 -1.26574 -0.686664 0
M  V30 859 H 83.7726 -1.90744 -3.75759 0
M  V30 860 H 82.4966 -0.816653 -3.16225 0
M  V30 861 H 81.1556 -2.79665 -2.37029 0
M  V30 862 H 80.8036 -1.8738 -4.66795 0
M  V30 863 H 80.5036 -3.62921 -4.62128 0
M  V30 864 H 82.0276 -3.00598 -5.31482 0
M  V30 865 H 83.4416 -4.47555 -3.58284 0
M  V30 866 H 81.8386 -5.12205 -3.12675 0
M  V30 867 H 82.9086 -4.47362 -1.87071 0
M  V30 868 N 84.2517 0.741722 -1.39055 0
M  V30 869 C 85.1817 1.869 -1.39966 0
M  V30 870 C 86.1627 1.6804 -0.26392 0
M  V30 871 O 87.3477 1.88458 -0.468755 0
M  V30 872 C 84.4777 3.24572 -1.23574 0
M  V30 873 C 83.4317 3.58056 -2.34477 0
M  V30 874 C 82.7577 4.94593 -2.0318 0
M  V30 875 C 84.0577 3.61716 -3.76774 0
M  V30 876 H 85.7517 1.86395 -2.34302 0
M  V30 877 H 83.2977 0.895361 -1.1278 0
M  V30 878 H 85.2507 4.031 -1.22834 0
M  V30 879 H 83.9747 3.25587 -0.257045 0
M  V30 880 H 82.6337 2.81854 -2.34423 0
M  V30 881 H 82.2817 4.92181 -1.03765 0
M  V30 882 H 81.9817 5.17964 -2.77465 0
M  V30 883 H 83.5057 5.75486 -2.04079 0
M  V30 884 H 84.9197 4.30335 -3.78794 0
M  V30 885 H 83.3167 3.96603 -4.50362 0
M  V30 886 H 84.3867 2.61672 -4.08235 0
M  V30 887 N 85.7298 1.2412 0.971189 0
M  V30 888 C 86.6598 1.05508 2.08304 0
M  V30 889 C 87.6408 -0.0308864 1.70072 0
M  V30 890 O 88.8258 0.135521 1.93727 0
M  V30 891 C 85.9558 0.655365 3.4106 0
M  V30 892 C 84.9098 1.68971 3.93234 0
M  V30 893 C 84.2358 1.14516 5.22293 0
M  V30 894 C 85.5358 3.08487 4.21465 0
M  V30 895 H 87.2298 1.98507 2.24132 0
M  V30 896 H 84.7758 0.955821 1.07704 0
M  V30 897 H 86.7288 0.51217 4.18276 0
M  V30 898 H 85.4528 -0.31032 3.25122 0
M  V30 899 H 84.1118 1.82106 3.18171 0
M  V30 900 H 83.7598 0.170189 5.02712 0
M  V30 901 H 83.4598 1.83635 5.58168 0
M  V30 902 H 84.9838 1.01401 6.02121 0
M  V30 903 H 86.3978 2.98601 4.89398 0
M  V30 904 H 84.7948 3.74926 4.68562 0
M  V30 905 H 85.8648 3.56787 3.28376 0
M  V30 906 N 87.2079 -1.17134 1.05439 0
M  V30 907 C 88.4479 -1.89137 0.77502 0
M  V30 908 C 88.8119 -1.79345 -0.685526 0
M  V30 909 O 90.0129 -2.46188 -1.0791 0
M  V30 910 C 88.2839 -3.35003 1.2453 0
M  V30 911 S 89.8429 -4.24952 1.09367 0
M  V30 912 H 86.6609 -0.652949 0.281387 0
M  V30 913 H 89.2629 -1.4145 1.34953 0
M  V30 914 H 87.9669 -3.39666 2.30338 0
M  V30 915 H 87.4979 -3.87736 0.665166 0
M  V30 916 H 89.5129 -4.96196 0.0193397 0
M  V30 917 N 88.686 -0.835752 -1.33615 0
M  V30 918 C 89.933 -0.429959 -1.97883 0
M  V30 919 C 90.261 1.01006 -1.66217 0
M  V30 920 O 89.516 1.72047 -0.93265 0
M  V30 921 C 89.815 -0.593925 -3.52431 0
M  V30 922 C 89.481 -2.00158 -4.04039 0
M  V30 923 C 88.143 -2.38662 -4.17844 0
M  V30 924 C 90.495 -2.92117 -4.31644 0
M  V30 925 C 87.823 -3.68435 -4.56588 0
M  V30 926 C 90.175 -4.21368 -4.71838 0
M  V30 927 C 88.839 -4.59833 -4.83849 0
M  V30 928 H 88.109 -0.157333 -0.724104 0
M  V30 929 H 90.756 -1.06217 -1.59343 0
M  V30 930 H 89.061 0.121619 -3.91611 0
M  V30 931 H 90.758 -0.260282 -4.00154 0
M  V30 932 H 87.348 -1.69252 -3.93766 0
M  V30 933 H 91.532 -2.63608 -4.20505 0
M  V30 934 H 86.788 -3.98046 -4.64079 0
M  V30 935 H 90.962 -4.92703 -4.92155 0
M  V30 936 H 88.589 -5.60438 -5.13627 0
M  V30 937 N 90.1641 1.46063 -0.591896 0
M  V30 938 C 91.3891 2.07226 -0.0850314 0
M  V30 939 C 91.8141 1.43625 1.21463 0
M  V30 940 O 91.1721 0.523305 1.73583 0
M  V30 941 C 91.2201 3.60554 0.0576567 0
M  V30 942 O 90.3241 3.97128 1.11188 0
M  V30 943 H 89.6651 0.660615 -0.0669568 0
M  V30 944 H 92.1951 1.8756 -0.81745 0
M  V30 945 H 92.2051 4.07165 0.2609 0
M  V30 946 H 90.8801 4.06235 -0.891416 0
M  V30 947 H 89.4571 3.62213 0.886356 0
M  V30 948 N 91.6422 0.330177 1.54103 0
M  V30 949 C 92.8882 -0.270806 2.00984 0
M  V30 950 C 93.2212 -1.51265 1.21789 0
M  V30 951 O 92.4962 -1.92142 0.301927 0
M  V30 952 C 92.7792 -0.598339 3.55094 0
M  V30 953 C 92.6322 0.654674 4.4501 0
M  V30 954 C 93.9512 -1.41334 4.16789 0
M  V30 955 H 91.0702 -0.0969531 0.730595 0
M  V30 956 H 93.7122 0.448066 1.84641 0
M  V30 957 H 91.8622 -1.21078 3.69151 0
M  V30 958 H 93.5342 1.29285 4.42813 0
M  V30 959 H 91.7772 1.28224 4.14416 0
M  V30 960 H 92.4482 0.380944 5.50684 0
M  V30 961 H 94.9242 -0.895597 4.06347 0
M  V30 962 H 93.8002 -1.61127 5.24718 0
M  V30 963 H 94.0612 -2.41146 3.70541 0
M  V30 964 N 93.1203 -1.57491 0.0584922 0
M  V30 965 C 94.0503 -2.14988 -0.911178 0
M  V30 966 C 95.0313 -1.07343 -1.31952 0
M  V30 967 O 96.2163 -1.35318 -1.39294 0
M  V30 968 C 93.3463 -2.70078 -2.18347 0
M  V30 969 C 92.3003 -3.82771 -1.91495 0
M  V30 970 C 91.6263 -4.24408 -3.25241 0
M  V30 971 C 92.9263 -5.07592 -1.23075 0
M  V30 972 H 94.6203 -2.96263 -0.432246 0
M  V30 973 H 92.1663 -1.42512 -0.206469 0
M  V30 974 H 94.1193 -3.08943 -2.86587 0
M  V30 975 H 92.8433 -1.86005 -2.68458 0
M  V30 976 H 91.5023 -3.44389 -1.25664 0
M  V30 977 H 91.1503 -3.37275 -3.73168 0
M  V30 978 H 90.8503 -5.00366 -3.08071 0
M  V30 979 H 92.3743 -4.65879 -3.94701 0
M  V30 980 H 93.7883 -5.43857 -1.81362 0
M  V30 981 H 92.1853 -5.88741 -1.16207 0
M  V30 982 H 93.2553 -4.84454 -0.207847 0
M  V30 983 N 94.5984 0.214957 -1.56127 0
M  V30 984 C 95.5284 1.2695 -1.95974 0
M  V30 985 C 96.5094 1.48539 -0.828868 0
M  V30 986 O 97.6944 1.60611 -1.09168 0
M  V30 987 C 94.8244 2.61794 -2.28214 0
M  V30 988 C 93.7784 2.54851 -3.43853 0
M  V30 989 C 93.1044 3.93785 -3.61715 0
M  V30 990 C 94.4044 2.09065 -4.78632 0
M  V30 991 H 96.0984 0.93846 -2.84312 0
M  V30 992 H 93.6444 0.449996 -1.36788 0
M  V30 993 H 95.5974 3.35731 -2.54682 0
M  V30 994 H 94.3214 2.96599 -1.36736 0
M  V30 995 H 92.9804 1.8337 -3.17444 0
M  V30 996 H 92.6284 4.25908 -2.67602 0
M  V30 997 H 92.3284 3.90019 -4.39498 0
M  V30 998 H 93.8524 4.69374 -3.90539 0
M  V30 999 H 95.2664 2.7275 -5.04262 0
M  V30 1000 H 93.6634 2.16346 -5.59745 0
M  V30 1001 H 94.7334 1.04315 -4.73547 0
M  V30 1002 N 96.0765 1.50051 0.48192 0
M  V30 1003 C 97.3235 1.60498 1.23477 0
M  V30 1004 C 97.6515 0.300331 1.92167 0
M  V30 1005 O 96.9065 -0.713094 1.82246 0
M  V30 1006 C 97.2055 2.72717 2.30998 0
M  V30 1007 C 96.8715 4.13572 1.79636 0
M  V30 1008 C 95.5335 4.519 1.65348 0
M  V30 1009 C 97.8855 5.01649 1.41412 0
M  V30 1010 C 95.2135 5.76057 1.11244 0
M  V30 1011 C 97.5655 6.26343 0.887538 0
M  V30 1012 C 96.2295 6.63483 0.731207 0
M  V30 1013 H 95.4995 0.587303 0.451836 0
M  V30 1014 H 98.1465 1.83948 0.532468 0
M  V30 1015 H 96.4515 2.43312 3.07094 0
M  V30 1016 H 98.1485 2.78006 2.88988 0
M  V30 1017 H 94.7385 3.83329 1.91721 0
M  V30 1018 H 98.9225 4.72679 1.51289 0
M  V30 1019 H 94.1785 6.03516 0.978686 0
M  V30 1020 H 98.3525 6.93958 0.582654 0
M  V30 1021 H 95.9795 7.59568 0.309806 0
M  V30 1022 N 97.5546 -0.734337 1.39446 0
M  V30 1023 C 98.7846 -1.52137 1.39778 0
M  V30 1024 C 99.1926 -1.89198 -0.00929312 0
M  V30 1025 O 98.5356 -1.54666 -0.991168 0
M  V30 1026 C 98.5976 -2.83762 2.20724 0
M  V30 1027 C 98.2616 -2.69131 3.69347 0
M  V30 1028 C 99.2586 -2.37635 4.62413 0
M  V30 1029 C 96.9436 -2.85982 4.1294 0
M  V30 1030 C 98.9376 -2.23172 5.97054 0
M  V30 1031 C 96.6246 -2.71137 5.47657 0
M  V30 1032 C 97.6226 -2.39777 6.39528 0
M  V30 1033 O 97.3106 -2.25026 7.71763 0
M  V30 1034 H 97.0426 -0.476717 0.479288 0
M  V30 1035 H 99.5966 -0.915012 1.83893 0
M  V30 1036 H 97.8266 -3.4666 1.71359 0
M  V30 1037 H 99.5156 -3.45383 2.13226 0
M  V30 1038 H 100.282 -2.24267 4.30034 0
M  V30 1039 H 96.1606 -3.09383 3.41765 0
M  V30 1040 H 99.7046 -1.98617 6.68728 0
M  V30 1041 H 95.6016 -2.84083 5.79626 0
M  V30 1042 H 96.3696 -2.40091 7.82495 0
M  V30 1043 N 99.0327 -1.24633 -0.964593 0
M  V30 1044 C 99.9807 -1.03917 -2.08096 0
M  V30 1045 C 100.975 0.0268581 -1.69379 0
M  V30 1046 O 102.181 -0.127952 -1.79545 0
M  V30 1047 H 98.5557 -0.319044 -0.680966 0
M  V30 1048 H 100.527 -1.98581 -2.22729 0
M  V30 1049 C 99.2757 -0.663983 -3.41301 0
M  V30 1050 H 98.5987 -1.47605 -3.71555 0
M  V30 1051 H 100.039 -0.558663 -4.20303 0
M  V30 1052 C 98.4977 0.629169 -3.30973 0
M  V30 1053 O 99.0277 1.67404 -3.65156 0
M  V30 1054 N 97.2337 0.611057 -2.84103 0
M  V30 1055 H 96.7807 -0.239593 -2.56483 0
M  V30 1056 H 96.7387 1.47647 -2.77575 0
M  V30 1057 N 100.511 1.16574 -1.06058 0
M  V30 1058 C 101.758 1.87047 -0.775873 0
M  V30 1059 C 102.086 1.81562 0.697534 0
M  V30 1060 O 101.341 1.22445 1.52662 0
M  V30 1061 C 101.64 3.36195 -1.21275 0
M  V30 1062 C 101.306 3.6188 -2.68986 0
M  V30 1063 C 99.9678 3.68599 -3.09335 0
M  V30 1064 C 102.32 3.72648 -3.64394 0
M  V30 1065 C 99.6478 3.83584 -4.43937 0
M  V30 1066 C 102 3.89154 -4.98741 0
M  V30 1067 C 100.664 3.94114 -5.3873 0
M  V30 1068 H 99.9338 0.684452 -0.283912 0
M  V30 1069 H 102.581 1.37853 -1.32925 0
M  V30 1070 H 100.886 3.87505 -0.578528 0
M  V30 1071 H 102.583 3.89103 -0.969542 0
M  V30 1072 H 99.1728 3.57281 -2.36744 0
M  V30 1073 H 103.357 3.66769 -3.34356 0
M  V30 1074 H 98.6128 3.85677 -4.74409 0
M  V30 1075 H 102.787 3.96427 -5.72554 0
M  V30 1076 H 100.414 4.05478 -6.43033 0
M  V30 1077 N 101.989 0.842826 1.3317 0
M  V30 1078 C 102.921 0.236245 2.27979 0
M  V30 1079 C 103.934 -0.585282 1.51915 0
M  V30 1080 O 105.123 -0.411705 1.73687 0
M  V30 1081 C 102.223 -0.685717 3.3189 0
M  V30 1082 C 101.396 0.0973448 4.37292 0
M  V30 1083 C 100.455 -0.748565 5.20848 0
M  V30 1084 O 99.4809 -0.186339 5.68895 0
M  V30 1085 N 100.683 -2.06527 5.42519 0
M  V30 1086 H 103.448 1.05088 2.80672 0
M  V30 1087 H 101.009 0.701667 1.45905 0
M  V30 1088 H 103.001 -1.25669 3.84694 0
M  V30 1089 H 101.571 -1.40105 2.79445 0
M  V30 1090 H 100.791 0.849706 3.84933 0
M  V30 1091 H 102.079 0.635643 5.04814 0
M  V30 1092 H 101.477 -2.54554 5.05192 0
M  V30 1093 H 100.034 -2.58464 5.98364 0
M  V30 1094 N 103.467 -1.45747 0.599634 0
M  V30 1095 C 104.415 -2.322 -0.136426 0
M  V30 1096 C 105.409 -1.45497 -0.867583 0
M  V30 1097 O 106.615 -1.62027 -0.78405 0
M  V30 1098 H 102.99 -0.749368 -0.0628588 0
M  V30 1099 H 104.961 -2.92072 0.611281 0
M  V30 1100 C 103.71 -3.28974 -1.12567 0
M  V30 1101 H 103.033 -3.9568 -0.572484 0
M  V30 1102 H 104.473 -3.92212 -1.61077 0
M  V30 1103 C 102.932 -2.55561 -2.19523 0
M  V30 1104 O 103.462 -2.33111 -3.27143 0
M  V30 1105 N 101.668 -2.15832 -1.94589 0
M  V30 1106 H 101.215 -2.3429 -1.07078 0
M  V30 1107 H 101.173 -1.67034 -2.66359 0
M  V30 1108 N 104.945 -0.338344 -1.53925 0
M  V30 1109 C 106.185 0.260168 -2.02737 0
M  V30 1110 C 106.549 1.48181 -1.22092 0
M  V30 1111 O 107.75 2.15416 -1.60777 0
M  V30 1112 C 106.021 0.571627 -3.52799 0
M  V30 1113 S 107.58 1.14769 -4.23525 0
M  V30 1114 H 104.398 0.077791 -0.706732 0
M  V30 1115 H 107 -0.474899 -1.89644 0
M  V30 1116 H 105.704 -0.325392 -4.09108 0
M  V30 1117 H 105.235 1.3365 -3.70002 0
M  V30 1118 H 107.25 2.43372 -4.32417 0
M  V30 1119 N 106.423 1.57458 -0.0668435 0
M  V30 1120 C 107.671 1.92919 0.602214 0
M  V30 1121 C 107.992 0.947215 1.70449 0
M  V30 1122 O 107.262 -0.00544117 1.95899 0
M  V30 1123 H 105.842 0.71217 0.22544 0
M  V30 1124 H 108.504 1.94508 -0.123535 0
M  V30 1125 H 107.6 2.94589 1.03073 0
M  V30 1126 N 107.901 -0.206675 1.56239 0
M  V30 1127 C 109.312 -0.772383 1.69974 0
M  V30 1128 C 109.663 -1.84353 0.671436 0
M  V30 1129 O 108.788 -2.15695 -0.174491 0
M  V30 1130 C 109.383 -1.40779 3.08167 0
M  V30 1131 C 107.942 -1.92072 3.23706 0
M  V30 1132 C 107.089 -0.786347 2.65917 0
M  V30 1133 H 110.04 0.0182223 1.5869 0
M  V30 1134 H 110.061 -2.27696 3.04852 0
M  V30 1135 H 109.573 -0.627958 3.82986 0
M  V30 1136 H 107.674 -2.7281 2.53782 0
M  V30 1137 H 107.787 -2.09046 4.31087 0
M  V30 1138 H 106.151 -1.1976 2.24788 0
M  V30 1139 H 106.934 -0.0189416 3.43295 0
M  V30 1140 N 109.379 -1.50304 -0.473955 0
M  V30 1141 C 110.795 -1.37667 -0.807466 0
M  V30 1142 C 110.995 -0.430555 -1.96846 0
M  V30 1143 O 110.051 0.127874 -2.52176 0
M  V30 1144 C 111.364 -2.78974 -1.12223 0
M  V30 1145 C 112.912 -2.87868 -1.22885 0
M  V30 1146 C 113.387 -4.30003 -1.57676 0
M  V30 1147 N 114.878 -4.3294 -1.64673 0
M  V30 1148 C 115.613 -5.3991 -1.93091 0
M  V30 1149 N 115.109 -6.57092 -2.1955 0
M  V30 1150 N 116.902 -5.27351 -1.94569 0
M  V30 1151 H 109.053 -2.10394 0.291212 0
M  V30 1152 H 111.316 -0.945575 0.0677609 0
M  V30 1153 H 111.022 -3.50031 -0.342229 0
M  V30 1154 H 110.896 -3.16038 -2.05913 0
M  V30 1155 H 113.283 -2.17032 -1.99953 0
M  V30 1156 H 113.364 -2.54352 -0.271814 0
M  V30 1157 H 113.008 -5.01375 -0.81149 0
M  V30 1158 H 112.938 -4.61004 -2.54525 0
M  V30 1159 H 115.429 -3.48441 -1.46277 0
M  V30 1160 H 115.742 -7.34425 -2.405 0
M  V30 1161 H 114.087 -6.60272 -2.16948 0
M  V30 1162 H 117.278 -4.34801 -1.73394 0
M  V30 1163 H 117.451 -6.10805 -2.16381 0
M  V30 1164 N 110.857 0.726932 -1.39834 0
M  V30 1165 C 112.268 1.30558 -1.3346 0
M  V30 1166 C 112.619 1.962 -0.00273003 0
M  V30 1167 O 111.744 1.96826 0.899371 0
M  V30 1168 C 112.339 2.37404 -2.41713 0
M  V30 1169 C 110.898 2.90921 -2.38835 0
M  V30 1170 C 110.045 1.64578 -2.2318 0
M  V30 1171 H 112.996 0.523862 -1.49804 0
M  V30 1172 H 113.017 3.17984 -2.08966 0
M  V30 1173 H 112.529 1.89599 -3.38635 0
M  V30 1174 H 110.63 3.42985 -1.45575 0
M  V30 1175 H 110.743 3.43487 -3.33997 0
M  V30 1176 H 109.107 1.89219 -1.70494 0
M  V30 1177 H 109.89 1.18814 -3.22084 0
M  V30 1178 N 112.336 1.25143 0.95797 0
M  V30 1179 C 113.576 1.10893 1.71703 0
M  V30 1180 C 113.94 -0.34478 1.88879 0
M  V30 1181 O 115.141 -0.609014 2.6181 0
M  V30 1182 C 113.412 1.83889 3.06463 0
M  V30 1183 S 114.971 1.85491 3.97666 0
M  V30 1184 H 111.789 0.396428 0.590226 0
M  V30 1185 H 114.391 1.58618 1.14283 0
M  V30 1186 H 113.095 2.88756 2.9163 0
M  V30 1187 H 112.626 1.36538 3.68946 0
M  V30 1188 H 114.641 0.929553 4.87415 0
M  V30 1189 N 113.814 -1.1601 1.06675 0
M  V30 1190 C 114.724 -2.24156 0.692179 0
M  V30 1191 C 115.74 -1.71507 -0.293513 0
M  V30 1192 O 116.916 -2.009 -0.141861 0
M  V30 1193 C 113.981 -3.46587 0.0884131 0
M  V30 1194 C 113.042 -4.14257 1.12646 0
M  V30 1195 C 112.275 -5.30844 0.551416 0
M  V30 1196 O 112.498 -5.66858 -0.634656 0
M  V30 1197 O 111.432 -5.87848 1.29298 0
M  V30 1198 H 115.258 -2.58513 1.59388 0
M  V30 1199 H 112.843 -1.23599 0.83926 0
M  V30 1200 H 114.725 -4.20679 -0.246361 0
M  V30 1201 H 113.4 -3.13994 -0.786712 0
M  V30 1202 H 112.307 -3.42118 1.51348 0
M  V30 1203 H 113.64 -4.50914 1.97325 0
M  V30 1204 N 115.292 -0.849877 -1.32721 0
M  V30 1205 C 116.52 -0.464754 -2.01613 0
M  V30 1206 C 116.935 0.937191 -1.63897 0
M  V30 1207 O 116.292 1.61081 -0.857856 0
M  V30 1208 C 116.343 -0.588638 -3.56675 0
M  V30 1209 O 116.064 -1.93535 -3.93034 0
M  V30 1210 C 117.565 -0.2019 -4.4284 0
M  V30 1211 H 114.785 -0.183215 -0.645502 0
M  V30 1212 H 117.329 -1.1455 -1.69407 0
M  V30 1213 H 115.484 0.0443159 -3.87375 0
M  V30 1214 H 115.898 -1.92871 -4.87751 0
M  V30 1215 H 117.372 -0.339599 -5.50954 0
M  V30 1216 H 117.849 0.857224 -4.30753 0
M  V30 1217 H 118.455 -0.809733 -4.17521 0
M  V30 1218 N 116.77 1.45427 -0.607355 0
M  V30 1219 C 117.995 2.07124 -0.107006 0
M  V30 1220 C 118.42 1.44906 1.19933 0
M  V30 1221 O 117.778 0.541687 1.73019 0
M  V30 1222 C 117.826 3.60595 0.0194119 0
M  V30 1223 O 116.93 3.98285 1.0697 0
M  V30 1224 H 116.271 0.659868 -0.0739597 0
M  V30 1225 H 118.801 1.86683 -0.837297 0
M  V30 1226 H 118.811 4.07419 0.2177 0
M  V30 1227 H 117.486 4.05266 -0.934453 0
M  V30 1228 H 116.063 3.63133 0.847889 0
M  V30 1229 N 118.248 0.346503 1.53744 0
M  V30 1230 C 119.494 -0.249473 2.0126 0
M  V30 1231 C 119.827 -1.49965 1.23386 0
M  V30 1232 O 119.102 -1.91811 0.32229 0
M  V30 1233 C 119.385 -0.560643 3.55709 0
M  V30 1234 C 119.238 0.701836 4.44291 0
M  V30 1235 C 120.557 -1.36905 4.18264 0
M  V30 1236 H 117.676 -0.0891987 0.731582 0
M  V30 1237 H 120.318 0.467624 1.84156 0
M  V30 1238 H 118.468 -1.17156 3.70414 0
M  V30 1239 H 120.14 1.33974 4.41417 0
M  V30 1240 H 118.383 1.32612 4.13033 0
M  V30 1241 H 119.054 0.43933 5.50249 0
M  V30 1242 H 121.53 -0.852448 4.07275 0
M  V30 1243 H 120.406 -1.55553 5.26398 0
M  V30 1244 H 120.667 -2.37203 3.73078 0
M  V30 1245 N 119.726 -1.57421 0.075193 0
M  V30 1246 C 120.966 -1.95495 -0.596757 0
M  V30 1247 C 121.33 -0.954886 -1.66571 0
M  V30 1248 O 122.531 -1.22341 -2.39345 0
M  V30 1249 C 120.802 -3.382 -1.15566 0
M  V30 1250 S 122.361 -3.98254 -1.84226 0
M  V30 1251 H 119.179 -0.683649 -0.195307 0
M  V30 1252 H 121.781 -1.94925 0.149859 0
M  V30 1253 H 120.485 -4.08766 -0.36588 0
M  V30 1254 H 120.016 -3.42321 -1.93856 0
M  V30 1255 H 122.031 -3.85435 -3.12497 0
M  V30 1256 N 121.204 0.198386 -1.56346 0
M  V30 1257 C 122.134 1.24865 -1.9731 0
M  V30 1258 C 123.115 1.47651 -0.844576 0
M  V30 1259 O 124.3 1.59444 -1.10866 0
M  V30 1260 C 121.43 2.59358 -2.30977 0
M  V30 1261 C 120.384 2.5119 -3.46537 0
M  V30 1262 C 119.71 3.89926 -3.65871 0
M  V30 1263 C 121.01 2.03977 -4.80823 0
M  V30 1264 H 122.704 0.908252 -2.85291 0
M  V30 1265 H 120.25 0.435462 -1.37258 0
M  V30 1266 H 122.203 3.33011 -2.58228 0
M  V30 1267 H 120.927 2.95132 -1.39874 0
M  V30 1268 H 119.586 1.79993 -3.19371 0
M  V30 1269 H 119.234 4.23046 -2.72105 0
M  V30 1270 H 118.934 3.85336 -4.4361 0
M  V30 1271 H 120.458 4.65205 -3.95495 0
M  V30 1272 H 121.872 2.67386 -5.07127 0
M  V30 1273 H 120.269 2.10397 -5.62008 0
M  V30 1274 H 121.339 0.992861 -4.74626 0
M  V30 1275 N 122.682 1.50554 0.465978 0
M  V30 1276 C 123.959 1.5232 1.22712 0
M  V30 1277 C 124.339 0.270807 2.09356 0
M  V30 1278 O 123.687 -0.745541 2.15995 0
M  V30 1279 C 123.897 2.82175 2.05374 0
M  V30 1280 C 125.245 3.33033 2.6339 0
M  V30 1281 O 126.269 2.83531 2.15612 0
M  V30 1282 O 125.128 4.19336 3.50456 0
M  V30 1283 H 122.222 0.611183 0.557122 0
M  V30 1284 H 124.768 1.62847 0.477381 0
M  V30 1285 H 123.54 3.64797 1.41558 0
M  V30 1286 H 123.163 2.74675 2.87471 0
M  V30 1287 N 124.16 -0.719506 1.40217 0
M  V30 1288 C 125.09 -1.8465 1.42922 0
M  V30 1289 C 126.071 -1.67599 0.29062 0
M  V30 1290 O 127.256 -1.87688 0.498677 0
M  V30 1291 C 124.386 -3.22565 1.28722 0
M  V30 1292 C 123.34 -3.54281 2.40144 0
M  V30 1293 C 122.666 -4.91298 2.11023 0
M  V30 1294 C 123.966 -3.55676 3.82481 0
M  V30 1295 H 125.66 -1.82644 2.37237 0
M  V30 1296 H 123.206 -0.877305 1.1419 0
M  V30 1297 H 125.159 -4.01095 1.29232 0
M  V30 1298 H 123.883 -3.25137 0.308811 0
M  V30 1299 H 122.542 -2.78088 2.38877 0
M  V30 1300 H 122.19 -4.90468 1.11582 0
M  V30 1301 H 121.89 -5.13485 2.8567 0
M  V30 1302 H 123.414 -5.72166 2.13209 0
M  V30 1303 H 124.828 -4.24254 3.85592 0
M  V30 1304 H 123.225 -3.89388 4.56614 0
M  V30 1305 H 124.295 -2.55144 4.12346 0
M  V30 1306 N 125.638 -1.25649 -0.95132 0
M  V30 1307 C 127.054 -1.02542 -1.223 0
M  V30 1308 C 127.254 0.255715 -1.99871 0
M  V30 1309 O 126.31 0.967558 -2.33226 0
M  V30 1310 C 127.623 -2.25065 -1.99415 0
M  V30 1311 C 129.171 -2.29861 -2.12446 0
M  V30 1312 C 129.646 -3.52048 -2.92961 0
M  V30 1313 N 131.137 -3.52465 -3.00538 0
M  V30 1314 C 131.872 -4.43672 -3.63239 0
M  V30 1315 N 131.368 -5.45157 -4.27523 0
M  V30 1316 N 133.161 -4.31346 -3.60412 0
M  V30 1317 H 125.312 -2.07951 -0.432471 0
M  V30 1318 H 127.575 -0.91339 -0.253816 0
M  V30 1319 H 127.281 -3.18194 -1.49817 0
M  V30 1320 H 127.155 -2.28502 -3.00111 0
M  V30 1321 H 129.542 -1.37252 -2.61239 0
M  V30 1322 H 129.623 -2.3044 -1.11044 0
M  V30 1323 H 129.267 -4.44981 -2.44856 0
M  V30 1324 H 129.197 -3.48715 -3.94596 0
M  V30 1325 H 131.688 -2.79056 -2.54826 0
M  V30 1326 H 132.001 -6.10958 -4.73234 0
M  V30 1327 H 130.346 -5.49025 -4.26141 0
M  V30 1328 H 133.537 -3.51288 -3.09377 0
M  V30 1329 H 133.71 -5.02624 -4.0899 0
M  V30 1330 N 127.117 1.15442 -1.07289 0
M  V30 1331 C 128.394 1.82306 -0.708792 0
M  V30 1332 C 128.774 1.94991 0.808807 0
M  V30 1333 O 128.122 1.50085 1.72298 0
M  V30 1334 C 128.332 3.18695 -1.42247 0
M  V30 1335 C 129.68 3.94341 -1.57417 0
M  V30 1336 O 130.704 3.28247 -1.38319 0
M  V30 1337 O 129.563 5.12839 -1.88834 0
M  V30 1338 H 126.657 0.787628 -0.252132 0
M  V30 1339 H 129.203 1.22559 -1.17377 0
M  V30 1340 H 127.975 3.04557 -2.45684 0
M  V30 1341 H 127.598 3.86128 -0.948223 0
M  V30 1342 N 128.595 0.856903 1.32268 0
M  V30 1343 C 129.545 0.274899 2.26337 0
M  V30 1344 C 130.529 -0.580543 1.50062 0
M  V30 1345 O 131.721 -0.429559 1.71708 0
M  V30 1346 C 128.85 -0.533841 3.39124 0
M  V30 1347 C 127.936 0.334114 4.22782 0
M  V30 1348 N 128.327 1.42143 4.85416 0
M  V30 1349 C 126.625 0.124256 4.45827 0
M  V30 1350 C 127.326 1.95559 5.47843 0
M  V30 1351 N 126.302 1.25444 5.28928 0
M  V30 1352 H 130.104 1.10612 2.72291 0
M  V30 1353 H 127.618 0.703258 1.46383 0
M  V30 1354 H 129.615 -0.96722 4.05525 0
M  V30 1355 H 128.275 -1.36283 2.94715 0
M  V30 1356 H 129.286 1.80436 4.85451 0
M  V30 1357 H 125.963 -0.669837 4.12092 0
M  V30 1358 H 127.353 2.86714 6.07655 0
M  V30 1359 N 130.073 -1.45103 0.615059 0
M  V30 1360 C 131.303 -2.06254 0.119596 0
M  V30 1361 C 131.711 -1.4591 -1.20445 0
M  V30 1362 O 131.054 -0.570384 -1.7462 0
M  V30 1363 C 131.116 -3.59396 -0.0865591 0
M  V30 1364 C 130.78 -4.42116 1.15683 0
M  V30 1365 C 131.777 -4.7662 2.07676 0
M  V30 1366 C 129.462 -4.82749 1.38775 0
M  V30 1367 C 131.456 -5.50622 3.21082 0
M  V30 1368 C 129.143 -5.56504 2.52481 0
M  V30 1369 C 130.141 -5.90358 3.43463 0
M  V30 1370 O 129.829 -6.62615 4.55189 0
M  V30 1371 H 129.561 -0.672423 0.0694512 0
M  V30 1372 H 132.115 -1.87219 0.844885 0
M  V30 1373 H 130.345 -3.76859 -0.866823 0
M  V30 1374 H 132.034 -4.02365 -0.534555 0
M  V30 1375 H 132.8 -4.4578 1.91063 0
M  V30 1376 H 128.679 -4.55829 0.688545 0
M  V30 1377 H 132.223 -5.76965 3.92119 0
M  V30 1378 H 128.12 -5.86759 2.69043 0
M  V30 1379 H 128.888 -6.81071 4.53966 0
M  V30 1380 N 131.551 -0.354651 -1.53558 0
M  V30 1381 C 132.481 0.489091 -2.2832 0
M  V30 1382 C 133.462 1.09324 -1.30316 0
M  V30 1383 O 134.647 1.11255 -1.59173 0
M  V30 1384 C 131.777 1.63456 -3.0643 0
M  V30 1385 C 130.731 1.1582 -4.12031 0
M  V30 1386 C 130.057 2.39305 -4.7816 0
M  V30 1387 C 131.357 0.250731 -5.21698 0
M  V30 1388 H 133.051 -0.134614 -2.99097 0
M  V30 1389 H 130.597 -0.0661826 -1.43848 0
M  V30 1390 H 132.55 2.23136 -3.57475 0
M  V30 1391 H 131.274 2.28533 -2.33325 0
M  V30 1392 H 129.933 0.584146 -3.61916 0
M  V30 1393 H 129.581 3.02814 -4.01637 0
M  V30 1394 H 129.281 2.08109 -5.49513 0
M  V30 1395 H 130.805 2.99691 -5.31994 0
M  V30 1396 H 132.219 0.754695 -5.68311 0
M  V30 1397 H 130.616 0.0301468 -6.00092 0
M  V30 1398 H 131.686 -0.710125 -4.79672 0
M  V30 1399 N 133.029 1.57378 -0.0835403 0
M  V30 1400 C 133.992 2.12252 0.864959 0
M  V30 1401 C 134.992 1.04916 1.21858 0
M  V30 1402 O 136.182 1.30853 1.14991 0
M  V30 1403 C 133.314 2.63358 2.16461 0
M  V30 1404 H 134.507 2.97371 0.388676 0
M  V30 1405 H 132.06 1.55423 0.165317 0
M  V30 1406 H 132.795 1.81727 2.686 0
M  V30 1407 H 132.58 3.41826 1.92087 0
M  V30 1408 H 134.07 3.05847 2.84337 0
M  V30 1409 N 134.507 -0.190092 1.56449 0
M  V30 1410 C 135.732 -0.929864 1.85387 0
M  V30 1411 C 136.157 -1.7585 0.667704 0
M  V30 1412 O 135.515 -1.77198 -0.383459 0
M  V30 1413 C 135.563 -1.79773 3.12593 0
M  V30 1414 O 134.667 -2.89713 2.93496 0
M  V30 1415 H 134.008 -0.261574 0.610307 0
M  V30 1416 H 136.538 -0.193896 2.03679 0
M  V30 1417 H 136.548 -2.20139 3.43515 0
M  V30 1418 H 135.223 -1.18892 3.98544 0
M  V30 1419 H 133.8 -2.53065 2.73884 0
M  V30 1420 N 135.985 -1.50799 -0.457987 0
M  V30 1421 C 137.233 -1.62121 -1.2067 0
M  V30 1422 C 137.554 -0.329793 -1.92191 0
M  V30 1423 O 136.824 0.653409 -1.84682 0
M  V30 1424 H 135.404 -0.597441 -0.448411 0
M  V30 1425 H 138.066 -1.87637 -0.527096 0
M  V30 1426 H 137.162 -2.43882 -1.94751 0
M  V30 1427 N 137.463 0.71206 -1.40597 0
M  V30 1428 C 138.411 1.84746 -1.41321 0
M  V30 1429 C 139.405 1.66842 -0.293268 0
M  V30 1430 O 140.611 1.73904 -0.464481 0
M  V30 1431 H 136.986 0.608522 -0.441819 0
M  V30 1432 H 138.957 1.81252 -2.37045 0
M  V30 1433 C 137.706 3.22638 -1.29614 0
M  V30 1434 H 137.029 3.37023 -2.15071 0
M  V30 1435 H 138.469 4.02209 -1.3418 0
M  V30 1436 C 136.928 3.36899 -0.00673121 0
M  V30 1437 O 137.458 3.90186 0.954859 0
M  V30 1438 N 135.664 2.9053 0.0639327 0
M  V30 1439 H 135.211 2.47353 -0.719311 0
M  V30 1440 H 135.169 3.0045 0.926118 0
M  V30 1441 N 138.941 1.26152 0.944643 0
M  V30 1442 C 140.169 1.14259 1.72489 0
M  V30 1443 C 140.584 -0.302555 1.8636 0
M  V30 1444 O 139.941 -1.20741 1.36849 0
M  V30 1445 C 139.992 1.80266 3.13347 0
M  V30 1446 O 139.713 3.19133 3.00143 0
M  V30 1447 C 141.214 1.74283 4.07603 0
M  V30 1448 H 138.434 0.398051 0.540181 0
M  V30 1449 H 140.978 1.66706 1.18446 0
M  V30 1450 H 139.133 1.31766 3.64303 0
M  V30 1451 H 139.547 3.51744 3.89071 0
M  V30 1452 H 141.021 2.25111 5.04013 0
M  V30 1453 H 141.498 0.708631 4.33446 0
M  V30 1454 H 142.104 2.22319 3.62567 0
M  V30 1455 N 140.419 -1.14872 1.07899 0
M  V30 1456 C 141.644 -1.90202 0.826926 0
M  V30 1457 C 142.069 -1.77774 -0.614664 0
M  V30 1458 O 141.427 -1.11431 -1.43013 0
M  V30 1459 C 141.475 -3.38352 1.24702 0
M  V30 1460 O 140.579 -4.10497 0.39575 0
M  V30 1461 H 139.92 -0.591968 0.300782 0
M  V30 1462 H 142.45 -1.45437 1.43907 0
M  V30 1463 H 142.46 -3.89156 1.22563 0
M  V30 1464 H 141.135 -3.46715 2.29698 0
M  V30 1465 H 139.712 -3.69796 0.480117 0
M  V30 1466 N 141.898 -0.863906 -1.31812 0
M  V30 1467 C 143.144 -0.472535 -1.97218 0
M  V30 1468 C 143.477 0.971394 -1.68159 0
M  V30 1469 O 142.752 1.68309 -0.974798 0
M  V30 1470 C 143.035 -0.723054 -3.52766 0
M  V30 1471 C 142.888 -2.21608 -3.91421 0
M  V30 1472 C 144.207 -0.185522 -4.39709 0
M  V30 1473 H 141.326 -0.173158 -0.71637 0
M  V30 1474 H 143.968 -1.08403 -1.56041 0
M  V30 1475 H 142.118 -0.202577 -3.87971 0
M  V30 1476 H 143.79 -2.80334 -3.66347 0
M  V30 1477 H 142.033 -2.691 -3.40246 0
M  V30 1478 H 142.704 -2.34203 -4.99853 0
M  V30 1479 H 145.18 -0.630726 -4.11292 0
M  V30 1480 H 144.056 -0.390306 -5.47511 0
M  V30 1481 H 144.317 0.912229 -4.32586 0
M  V30 1482 N 143.376 1.44774 -0.622745 0
M  V30 1483 C 144.339 2.29069 0.0774015 0
M  V30 1484 C 145.339 1.4059 0.780461 0
M  V30 1485 O 146.529 1.62551 0.626322 0
M  V30 1486 C 143.661 3.21974 1.12006 0
M  V30 1487 H 144.854 2.92459 -0.663901 0
M  V30 1488 H 142.407 1.51548 -0.382486 0
M  V30 1489 H 143.142 2.63417 1.89162 0
M  V30 1490 H 142.927 3.87168 0.619951 0
M  V30 1491 H 144.417 3.85318 1.60995 0
M  V30 1492 N 144.854 0.36279 1.53368 0
M  V30 1493 C 146.265 -0.117022 1.86333 0
M  V30 1494 C 146.616 -1.48397 1.28347 0
M  V30 1495 O 145.741 -2.07787 0.604428 0
M  V30 1496 C 146.336 -0.21912 3.38091 0
M  V30 1497 C 144.895 -0.643184 3.70864 0
M  V30 1498 C 144.042 0.211318 2.76494 0
M  V30 1499 H 146.993 0.581687 1.47655 0
M  V30 1500 H 147.014 -1.04319 3.6592 0
M  V30 1501 H 146.526 0.775902 3.80265 0
M  V30 1502 H 144.627 -1.64654 3.34245 0
M  V30 1503 H 144.74 -0.41973 4.77258 0
M  V30 1504 H 143.104 -0.319367 2.5269 0
M  V30 1505 H 143.887 1.20383 3.21501 0
M  V30 1506 N 146.332 -1.57332 0.0918853 0
M  V30 1507 C 147.572 -1.96117 -0.575988 0
M  V30 1508 C 147.936 -0.972499 -1.65549 0
M  V30 1509 O 149.137 -1.24872 -2.38034 0
M  V30 1510 C 147.408 -3.39407 -1.11973 0
M  V30 1511 S 148.967 -4.00185 -1.79992 0
M  V30 1512 H 145.785 -0.685682 -0.188045 0
M  V30 1513 H 148.387 -1.94755 0.170525 0
M  V30 1514 H 147.091 -4.09131 -0.322504 0
M  V30 1515 H 146.622 -3.44358 -1.90214 0
M  V30 1516 H 148.637 -3.88728 -3.08391 0
M  V30 1517 N 147.81 0.181792 -1.56548 0
M  V30 1518 C 149.038 0.915947 -1.85521 0
M  V30 1519 C 149.453 1.76282 -0.676016 0
M  V30 1520 O 148.81 1.79012 0.355077 0
M  V30 1521 C 148.861 1.80126 -3.13427 0
M  V30 1522 O 148.582 0.988562 -4.26801 0
M  V30 1523 C 150.083 2.64597 -3.55673 0
M  V30 1524 H 147.303 0.26661 -0.61576 0
M  V30 1525 H 149.847 0.185039 -2.03661 0
M  V30 1526 H 148.002 2.48563 -2.97145 0
M  V30 1527 H 148.416 1.59308 -4.99721 0
M  V30 1528 H 149.89 3.2235 -4.48101 0
M  V30 1529 H 150.367 3.38958 -2.79292 0
M  V30 1530 H 150.973 2.0151 -3.74532 0
M  V30 1531 N 149.288 1.51039 0.449983 0
M  V30 1532 C 150.565 1.53612 1.21089 0
M  V30 1533 C 150.945 0.292997 2.09057 0
M  V30 1534 O 150.293 -0.72259 2.16774 0
M  V30 1535 C 150.503 2.84337 2.0237 0
M  V30 1536 C 151.851 3.35807 2.59843 0
M  V30 1537 O 152.875 2.85802 2.12593 0
M  V30 1538 O 151.734 4.23029 3.45989 0
M  V30 1539 H 148.828 0.617057 0.550608 0
M  V30 1540 H 151.374 1.63344 0.460082 0
M  V30 1541 H 150.146 3.66278 1.37681 0
M  V30 1542 H 149.769 2.77708 2.84542 0
M  V30 1543 N 150.766 -0.704594 1.40972 0
M  V30 1544 C 152.013 -1.46458 1.39844 0
M  V30 1545 C 152.341 -1.94499 0.00447594 0
M  V30 1546 O 151.596 -1.69275 -0.982057 0
M  V30 1547 C 151.895 -2.698 2.34399 0
M  V30 1548 C 151.561 -2.40464 3.81429 0
M  V30 1549 C 150.223 -2.32174 4.21484 0
M  V30 1550 C 152.575 -2.16086 4.74296 0
M  V30 1551 C 149.903 -1.97589 5.52427 0
M  V30 1552 C 152.255 -1.83011 6.05549 0
M  V30 1553 C 150.919 -1.7321 6.44635 0
M  V30 1554 H 150.189 -0.535927 0.511725 0
M  V30 1555 H 152.836 -0.806124 1.73706 0
M  V30 1556 H 151.141 -3.40536 1.93759 0
M  V30 1557 H 152.838 -3.27919 2.30804 0
M  V30 1558 H 149.428 -2.47808 3.49699 0
M  V30 1559 H 153.612 -2.2144 4.4416 0
M  V30 1560 H 148.868 -1.88547 5.81601 0
M  V30 1561 H 153.042 -1.63164 6.77016 0
M  V30 1562 H 150.669 -1.46179 7.46013 0
M  V30 1563 N 152.244 -1.26651 -0.937939 0
M  V30 1564 C 153.491 -1.12387 -1.6845 0
M  V30 1565 C 153.819 0.332208 -1.91642 0
M  V30 1566 O 153.074 1.2602 -1.49725 0
M  V30 1567 C 153.373 -1.84168 -3.06295 0
M  V30 1568 C 153.039 -3.34056 -3.02849 0
M  V30 1569 C 151.701 -3.74942 -3.01616 0
M  V30 1570 C 154.053 -4.29741 -2.9491 0
M  V30 1571 C 151.381 -5.09894 -2.90215 0
M  V30 1572 C 153.733 -5.64738 -2.8505 0
M  V30 1573 C 152.397 -6.0493 -2.82162 0
M  V30 1574 H 151.667 -0.411252 -0.616403 0
M  V30 1575 H 154.314 -1.57134 -1.09459 0
M  V30 1576 H 152.619 -1.319 -3.6893 0
M  V30 1577 H 154.316 -1.70569 -3.62915 0
M  V30 1578 H 150.906 -3.01534 -3.0459 0
M  V30 1579 H 155.09 -3.99133 -2.94969 0
M  V30 1580 H 150.346 -5.40194 -2.86358 0
M  V30 1581 H 154.52 -6.38561 -2.77872 0
M  V30 1582 H 152.147 -7.09457 -2.73084 0
M  V30 1583 N 153.722 1.14298 -1.08507 0
M  V30 1584 C 154.947 1.8976 -0.837001 0
M  V30 1585 C 155.372 1.78097 0.605228 0
M  V30 1586 O 154.73 1.12188 1.4242 0
M  V30 1587 C 154.778 3.37685 -1.26495 0
M  V30 1588 O 153.882 4.10281 -0.417514 0
M  V30 1589 H 153.223 0.590365 -0.303917 0
M  V30 1590 H 155.753 1.44672 -1.44676 0
M  V30 1591 H 155.763 3.88501 -1.24625 0
M  V30 1592 H 154.438 3.45492 -2.31534 0
M  V30 1593 H 153.015 3.69536 -0.499722 0
M  V30 1594 N 155.201 0.870884 1.31352 0
M  V30 1595 C 156.448 0.482273 1.96673 0
M  V30 1596 C 156.776 -0.965638 1.68836 0
M  V30 1597 O 156.031 -1.69514 0.977937 0
M  V30 1598 C 156.33 0.687157 3.50732 0
M  V30 1599 C 155.996 2.108 3.9859 0
M  V30 1600 C 154.658 2.49656 4.1137 0
M  V30 1601 C 157.01 3.03459 4.23748 0
M  V30 1602 C 154.338 3.80412 4.46659 0
M  V30 1603 C 156.69 4.3373 4.60501 0
M  V30 1604 C 155.354 4.725 4.71487 0
M  V30 1605 H 154.624 0.176476 0.719679 0
M  V30 1606 H 157.271 1.10405 1.56471 0
M  V30 1607 H 155.576 -0.0177476 3.91796 0
M  V30 1608 H 157.273 0.366284 3.99324 0
M  V30 1609 H 153.863 1.79633 3.8914 0
M  V30 1610 H 158.047 2.74665 4.13368 0
M  V30 1611 H 153.303 4.1021 4.53362 0
M  V30 1612 H 157.477 5.05578 4.78919 0
M  V30 1613 H 155.104 5.73859 4.98588 0
M  V30 1614 N 156.679 -1.44442 0.630414 0
M  V30 1615 C 157.642 -2.29107 -0.0652523 0
M  V30 1616 C 158.642 -1.41002 -0.772995 0
M  V30 1617 O 159.832 -1.62881 -0.617692 0
M  V30 1618 C 156.964 -3.22564 -1.10296 0
M  V30 1619 H 158.157 -2.92103 0.679401 0
M  V30 1620 H 155.71 -1.51343 0.390517 0
M  V30 1621 H 156.445 -2.64416 -1.87762 0
M  V30 1622 H 156.23 -3.87491 -0.59941 0
M  V30 1623 H 157.72 -3.86167 -1.5895 0
M  V30 1624 N 158.157 -0.370918 -1.53173 0
M  V30 1625 C 159.397 0.217106 -2.03244 0
M  V30 1626 C 159.761 1.45558 -1.25207 0
M  V30 1627 O 160.962 2.11957 -1.65311 0
M  V30 1628 C 159.233 0.496664 -3.53932 0
M  V30 1629 S 160.792 1.0576 -4.25864 0
M  V30 1630 H 157.61 0.0627827 -0.708223 0
M  V30 1631 H 160.212 -0.515019 -1.88594 0
M  V30 1632 H 158.916 -0.412096 -4.08326 0
M  V30 1633 H 158.447 1.25772 -3.72753 0
M  V30 1634 H 160.462 2.34145 -4.37482 0
M  V30 1635 N 159.635 1.57281 -0.100228 0
M  V30 1636 C 160.883 1.94153 0.561157 0
M  V30 1637 C 161.204 0.983157 1.68401 0
M  V30 1638 O 160.474 0.0361132 1.95867 0
M  V30 1639 H 159.054 0.716791 0.210283 0
M  V30 1640 H 161.716 1.94202 -0.164765 0
M  V30 1641 H 160.812 2.96709 0.968008 0
M  V30 1642 N 161.113 -0.173488 1.56642 0
M  V30 1643 C 162.529 -0.525174 1.50712 0
M  V30 1644 C 162.729 -1.8476 0.804107 0
M  V30 1645 O 161.785 -2.49869 0.363574 0
M  V30 1646 C 163.098 -0.559937 2.95441 0
M  V30 1647 C 164.646 -0.647288 3.06234 0
M  V30 1648 C 165.121 -0.712963 4.52417 0
M  V30 1649 N 166.612 -0.775911 4.56655 0
M  V30 1650 C 167.347 -0.847264 5.67106 0
M  V30 1651 N 166.843 -0.879585 6.87194 0
M  V30 1652 N 168.636 -0.886117 5.55071 0
M  V30 1653 H 160.787 0.693681 2.00753 0
M  V30 1654 H 163.05 0.249841 0.914485 0
M  V30 1655 H 162.756 0.343049 3.50023 0
M  V30 1656 H 162.63 -1.40718 3.49969 0
M  V30 1657 H 165.017 -1.5407 2.51687 0
M  V30 1658 H 165.098 0.226586 2.54794 0
M  V30 1659 H 164.742 0.176183 5.07594 0
M  V30 1660 H 164.672 -1.60295 5.0161 0
M  V30 1661 H 167.163 -0.759304 3.70193 0
M  V30 1662 H 167.476 -0.935144 7.67121 0
M  V30 1663 H 165.821 -0.847898 6.89808 0
M  V30 1664 H 169.012 -0.857853 4.60172 0
M  V30 1665 H 169.185 -0.938263 6.41171 0
M  V30 1666 N 162.591 -1.51276 -0.441967 0
M  V30 1667 C 163.554 -1.7167 -1.51862 0
M  V30 1668 C 164.554 -0.586793 -1.49711 0
M  V30 1669 O 165.744 -0.854276 -1.51815 0
M  V30 1670 C 162.876 -1.76889 -2.91416 0
M  V30 1671 H 164.069 -2.67754 -1.35084 0
M  V30 1672 H 161.622 -1.41196 -0.670333 0
M  V30 1673 H 162.357 -0.826026 -3.13604 0
M  V30 1674 H 162.142 -2.59001 -2.94382 0
M  V30 1675 H 163.632 -1.94522 -3.69528 0
M  V30 1676 N 164.069 0.697108 -1.41344 0
M  V30 1677 C 165.016 1.81106 -1.43071 0
M  V30 1678 C 165.986 1.63632 -0.285275 0
M  V30 1679 O 167.171 1.84504 -0.486091 0
M  V30 1680 C 164.311 3.18975 -1.31715 0
M  V30 1681 C 163.424 3.47892 -2.56115 0
M  V30 1682 C 162.559 4.75367 -2.37064 0
M  V30 1683 C 161.598 4.97247 -3.56948 0
M  V30 1684 N 160.735 6.15947 -3.36977 0
M  V30 1685 H 165.575 1.78965 -2.38276 0
M  V30 1686 H 163.112 0.873975 -1.18322 0
M  V30 1687 H 165.07 3.98615 -1.23133 0
M  V30 1688 H 163.7 3.20297 -0.401183 0
M  V30 1689 H 162.752 2.62669 -2.75153 0
M  V30 1690 H 164.064 3.59962 -3.45295 0
M  V30 1691 H 163.218 5.63059 -2.25941 0
M  V30 1692 H 161.957 4.65541 -1.45338 0
M  V30 1693 H 160.962 4.08004 -3.68527 0
M  V30 1694 H 162.187 5.08934 -4.49626 0
M  V30 1695 H 160.133 6.07336 -2.47949 0
M  V30 1696 H 160.05 6.28777 -4.19732 0
M  V30 1697 H 161.318 7.06377 -3.29623 0
M  V30 1698 N 165.547 1.27147 0.931209 0
M  V30 1699 C 166.457 1.11372 2.06478 0
M  V30 1700 C 167.473 0.044645 1.73943 0
M  V30 1701 O 168.649 0.250417 1.99837 0
M  V30 1702 C 165.714 0.758838 3.38294 0
M  V30 1703 C 164.775 1.90841 3.84549 0
M  V30 1704 C 164.008 1.57036 5.10074 0
M  V30 1705 O 164.231 0.476645 5.68405 0
M  V30 1706 O 163.165 2.40839 5.51616 0
M  V30 1707 H 166.991 2.06493 2.22698 0
M  V30 1708 H 164.576 1.06301 1.04978 0
M  V30 1709 H 166.458 0.574098 4.17471 0
M  V30 1710 H 165.133 -0.162879 3.2329 0
M  V30 1711 H 164.04 2.14819 3.06274 0
M  V30 1712 H 165.373 2.81021 4.04089 0
M  V30 1713 N 167.025 -1.13721 1.09112 0
M  V30 1714 C 168.253 -1.88773 0.846899 0
M  V30 1715 C 168.668 -1.7896 -0.601572 0
M  V30 1716 O 168.025 -1.15394 -1.41388 0
M  V30 1717 C 168.076 -3.3849 1.26913 0
M  V30 1718 O 167.797 -3.48043 2.66079 0
M  V30 1719 C 169.298 -4.30518 1.05682 0
M  V30 1720 H 166.518 -0.59772 0.304914 0
M  V30 1721 H 169.062 -1.43977 1.45227 0
M  V30 1722 H 167.217 -3.80881 0.707723 0
M  V30 1723 H 167.631 -4.4109 2.83795 0
M  V30 1724 H 169.105 -5.3391 1.40156 0
M  V30 1725 H 169.582 -4.392 -0.00563416 0
M  V30 1726 H 170.188 -3.93893 1.60402 0
M  V30 1727 N 168.503 -0.877838 -1.30888 0
M  V30 1728 C 169.451 -0.328662 -2.30266 0
M  V30 1729 C 170.445 0.560496 -1.59859 0
M  V30 1730 O 171.651 0.445722 -1.74394 0
M  V30 1731 H 168.026 -0.0876142 -0.746879 0
M  V30 1732 H 169.997 -1.18061 -2.74051 0
M  V30 1733 C 168.746 0.448071 -3.44801 0
M  V30 1734 H 168.069 -0.226859 -3.99156 0
M  V30 1735 H 169.509 0.797541 -4.16432 0
M  V30 1736 C 167.968 1.64239 -2.94155 0
M  V30 1737 O 168.498 2.74175 -2.93583 0
M  V30 1738 N 166.704 1.47716 -2.50256 0
M  V30 1739 H 166.251 0.582821 -2.5092 0
M  V30 1740 H 166.209 2.27765 -2.16727 0
M  V30 1741 N 169.982 1.44106 -0.638065 0
M  V30 1742 C 170.93 2.3248 0.0748149 0
M  V30 1743 C 171.924 1.47746 0.828702 0
M  V30 1744 O 173.13 1.64049 0.740816 0
M  V30 1745 H 169.505 0.750771 0.0429686 0
M  V30 1746 H 171.476 2.90348 -0.688504 0
M  V30 1747 C 170.225 3.31843 1.03805 0
M  V30 1748 H 169.548 3.97059 0.467375 0
M  V30 1749 H 170.988 3.96345 1.50622 0
M  V30 1750 C 169.447 2.61291 2.1267 0
M  V30 1751 O 169.977 2.41702 3.20847 0
M  V30 1752 N 168.183 2.20915 1.88798 0
M  V30 1753 H 167.73 2.37047 1.00829 0
M  V30 1754 H 167.688 1.74038 2.61836 0
M  V30 1755 N 171.46 0.379036 1.52974 0
M  V30 1756 C 172.685 -0.209353 2.06341 0
M  V30 1757 C 173.11 -1.40583 1.24972 0
M  V30 1758 O 172.468 -1.79246 0.272155 0
M  V30 1759 C 172.516 -0.567786 3.56102 0
M  V30 1760 O 171.62 -1.66318 3.77375 0
M  V30 1761 H 170.961 -0.0272919 0.663439 0
M  V30 1762 H 173.491 0.543536 1.97248 0
M  V30 1763 H 173.501 -0.835003 3.99364 0
M  V30 1764 H 172.176 0.307013 4.14765 0
M  V30 1765 H 170.753 -1.39048 3.46006 0
M  V30 1766 N 172.938 -1.57226 0.108567 0
M  V30 1767 C 174.185 -1.94833 -0.551943 0
M  V30 1768 C 174.513 -0.991204 -1.67348 0
M  V30 1769 O 173.768 -0.0131878 -1.95696 0
M  V30 1770 C 174.067 -3.38911 -1.13463 0
M  V30 1771 C 173.733 -4.50696 -0.135509 0
M  V30 1772 C 172.395 -4.80998 0.139252 0
M  V30 1773 C 174.747 -5.18333 0.545957 0
M  V30 1774 C 172.075 -5.76259 1.10194 0
M  V30 1775 C 174.427 -6.14627 1.49721 0
M  V30 1776 C 173.091 -6.43327 1.78006 0
M  V30 1777 H 172.361 -0.712944 -0.20197 0
M  V30 1778 H 175.008 -1.90582 0.18726 0
M  V30 1779 H 173.313 -3.39805 -1.95037 0
M  V30 1780 H 175.01 -3.65317 -1.65362 0
M  V30 1781 H 171.6 -4.27087 -0.359846 0
M  V30 1782 H 175.784 -4.95087 0.346842 0
M  V30 1783 H 171.04 -5.96804 1.32795 0
M  V30 1784 H 175.214 -6.66126 2.03099 0
M  V30 1785 H 172.841 -7.1695 2.52759 0
M  V30 1786 N 174.416 0.165178 -1.56732 0
M  V30 1787 C 175.348 1.22911 -1.93457 0
M  V30 1788 C 176.361 1.40152 -0.828333 0
M  V30 1789 O 177.55 1.40046 -1.10677 0
M  V30 1790 C 174.65 2.59686 -2.17753 0
M  V30 1791 C 173.823 2.63663 -3.48999 0
M  V30 1792 C 172.882 3.81845 -3.62051 0
M  V30 1793 O 171.908 3.67559 -4.34613 0
M  V30 1794 N 173.11 4.98557 -2.97357 0
M  V30 1795 H 175.875 0.917118 -2.85323 0
M  V30 1796 H 173.436 0.354895 -1.57962 0
M  V30 1797 H 175.428 3.37225 -2.23743 0
M  V30 1798 H 173.998 2.83251 -1.32242 0
M  V30 1799 H 173.218 1.72173 -3.54612 0
M  V30 1800 H 174.506 2.63336 -4.35352 0
M  V30 1801 H 173.904 5.13065 -2.38287 0
M  V30 1802 H 172.461 5.73936 -3.08934 0
M  V30 1803 N 175.894 1.51508 0.433938 0
M  V30 1804 C 176.804 1.75917 1.5521 0
M  V30 1805 C 177.82 0.643545 1.61662 0
M  V30 1806 O 178.996 0.926183 1.7884 0
M  V30 1807 C 176.061 1.88213 2.91164 0
M  V30 1808 C 175.122 3.12074 2.94802 0
M  V30 1809 C 174.355 3.23774 4.24271 0
M  V30 1810 O 174.578 2.4133 5.16833 0
M  V30 1811 O 173.512 4.16774 4.34262 0
M  V30 1812 H 177.338 2.70777 1.37527 0
M  V30 1813 H 174.923 1.36051 0.617293 0
M  V30 1814 H 176.805 1.98267 3.71845 0
M  V30 1815 H 175.48 0.965413 3.08968 0
M  V30 1816 H 174.387 3.07497 2.13065 0
M  V30 1817 H 175.72 4.03446 2.81943 0
M  V30 1818 N 177.372 -0.689602 1.41712 0
M  V30 1819 C 178.302 -1.81577 1.46806 0
M  V30 1820 C 179.283 -1.66945 0.326105 0
M  V30 1821 O 180.468 -1.86588 0.538377 0
M  V30 1822 C 177.598 -3.19762 1.35535 0
M  V30 1823 C 176.552 -3.49107 2.47605 0
M  V30 1824 C 175.878 -4.86711 2.21397 0
M  V30 1825 C 177.178 -3.47483 3.89939 0
M  V30 1826 H 178.872 -1.7757 2.41058 0
M  V30 1827 H 176.418 -0.852887 1.16025 0
M  V30 1828 H 178.371 -3.98263 1.3771 0
M  V30 1829 H 177.095 -3.24409 0.377708 0
M  V30 1830 H 175.754 -2.72959 2.44722 0
M  V30 1831 H 175.402 -4.8799 1.21961 0
M  V30 1832 H 175.102 -5.0731 2.96497 0
M  V30 1833 H 176.626 -5.67515 2.25297 0
M  V30 1834 H 178.04 -4.1598 3.94505 0
M  V30 1835 H 176.437 -3.79615 4.64771 0
M  V30 1836 H 177.507 -2.46341 4.17665 0
M  V30 1837 N 178.85 -1.27639 -0.924453 0
M  V30 1838 C 179.813 -1.10681 -2.00705 0
M  V30 1839 C 180.813 -0.0497823 -1.60723 0
M  V30 1840 O 182.003 -0.294654 -1.7169 0
M  V30 1841 C 179.135 -0.687164 -3.33902 0
M  V30 1842 H 180.328 -2.06817 -2.17179 0
M  V30 1843 H 177.881 -1.10473 -1.10569 0
M  V30 1844 H 178.616 0.275439 -3.23128 0
M  V30 1845 H 178.401 -1.45061 -3.6428 0
M  V30 1846 H 179.891 -0.590853 -4.13399 0
M  V30 1847 N 180.328 1.1314 -1.09713 0
M  V30 1848 C 181.556 1.88321 -0.856898 0
M  V30 1849 C 181.971 1.79276 0.592073 0
M  V30 1850 O 181.328 1.16142 1.40774 0
M  V30 1851 C 181.379 3.37812 -1.28706 0
M  V30 1852 O 181.1 3.46627 -2.67921 0
M  V30 1853 C 182.601 4.29952 -1.07964 0
M  V30 1854 H 179.821 0.596094 -0.308079 0
M  V30 1855 H 182.365 1.43205 -1.45988 0
M  V30 1856 H 180.52 3.805 -0.727912 0
M  V30 1857 H 180.934 4.39579 -2.8613 0
M  V30 1858 H 182.408 5.33159 -1.42986 0
M  V30 1859 H 182.885 4.39196 -0.0176577 0
M  V30 1860 H 183.491 3.93036 -1.62489 0
M  V30 1861 N 181.806 0.884767 1.30421 0
M  V30 1862 C 182.753 0.349642 2.28136 0
M  V30 1863 C 183.723 -0.560061 1.56373 0
M  V30 1864 O 184.908 -0.488524 1.8444 0
M  V30 1865 C 182.048 -0.42999 3.42411 0
M  V30 1866 C 181.161 0.508907 4.28992 0
M  V30 1867 C 180.296 -0.286301 5.30428 0
M  V30 1868 C 179.335 0.648079 6.08659 0
M  V30 1869 N 178.472 -0.111792 7.02011 0
M  V30 1870 H 183.312 1.18807 2.73293 0
M  V30 1871 H 180.849 0.597231 1.3443 0
M  V30 1872 H 182.807 -0.897923 4.07423 0
M  V30 1873 H 181.437 -1.23299 2.98324 0
M  V30 1874 H 180.489 1.09533 3.64289 0
M  V30 1875 H 181.801 1.22475 4.8353 0
M  V30 1876 H 180.955 -0.816098 6.01186 0
M  V30 1877 H 179.694 -1.03536 4.76583 0
M  V30 1878 H 178.699 1.18951 5.36778 0
M  V30 1879 H 179.924 1.39623 6.64592 0
M  V30 1880 H 177.87 -0.843395 6.50556 0
M  V30 1881 H 177.787 0.544429 7.54037 0
M  V30 1882 H 179.055 -0.622339 7.77012 0
M  V30 1883 N 183.284 -1.43765 0.645699 0
M  V30 1884 C 184.232 -2.32516 -0.0624849 0
M  V30 1885 C 185.226 -1.48183 -0.820855 0
M  V30 1886 O 186.432 -1.64439 -0.732106 0
M  V30 1887 H 182.807 -0.750989 -0.0389864 0
M  V30 1888 H 184.778 -2.89979 0.703892 0
M  V30 1889 C 183.527 -3.32389 -1.02044 0
M  V30 1890 H 182.85 -3.97301 -0.446312 0
M  V30 1891 H 184.29 -3.97138 -1.48517 0
M  V30 1892 C 182.749 -2.62416 -2.11281 0
M  V30 1893 O 183.279 -2.434 -3.19561 0
M  V30 1894 N 181.485 -2.21913 -1.87624 0
M  V30 1895 H 181.032 -2.37578 -0.995703 0
M  V30 1896 H 180.99 -1.75424 -2.6091 0
M  V30 1897 N 184.763 -0.387143 -1.52771 0
M  V30 1898 C 185.71 0.449048 -2.26389 0
M  V30 1899 C 186.68 1.05961 -1.27912 0
M  V30 1900 O 187.865 1.08804 -1.56737 0
M  V30 1901 C 185.005 1.57155 -3.0724 0
M  V30 1902 C 184.118 0.984066 -4.20643 0
M  V30 1903 C 183.253 2.07745 -4.88892 0
M  V30 1904 C 182.292 1.46574 -5.94292 0
M  V30 1905 N 181.429 2.49834 -6.56146 0
M  V30 1906 H 186.269 -0.185205 -2.97424 0
M  V30 1907 H 183.806 -0.103164 -1.46738 0
M  V30 1908 H 185.764 2.23309 -3.52405 0
M  V30 1909 H 184.394 2.17615 -2.38419 0
M  V30 1910 H 183.446 0.212193 -3.79808 0
M  V30 1911 H 184.758 0.497029 -4.96318 0
M  V30 1912 H 183.912 2.81673 -5.3735 0
M  V30 1913 H 182.651 2.59807 -4.12737 0
M  V30 1914 H 181.656 0.711696 -5.45174 0
M  V30 1915 H 182.881 0.953088 -6.72379 0
M  V30 1916 H 180.827 3.0107 -5.82832 0
M  V30 1917 H 180.744 2.05879 -7.27427 0
M  V30 1918 H 182.012 3.23399 -7.09249 0
M  V30 1919 N 186.241 1.57166 -0.116904 0
M  V30 1920 C 187.189 2.16457 0.851418 0
M  V30 1921 C 188.183 1.11323 1.27686 0
M  V30 1922 O 189.389 1.2963 1.24884 0
M  V30 1923 H 185.764 0.69271 0.292672 0
M  V30 1924 H 187.735 2.96605 0.32685 0
M  V30 1925 C 186.484 2.77689 2.09246 0
M  V30 1926 H 185.807 3.58285 1.77402 0
M  V30 1927 H 187.247 3.22716 2.7501 0
M  V30 1928 C 185.706 1.74667 2.88085 0
M  V30 1929 O 186.236 1.19877 3.83396 0
M  V30 1930 N 184.442 1.44656 2.52038 0
M  V30 1931 H 183.989 1.89402 1.74599 0
M  V30 1932 H 183.947 0.759675 3.05084 0
M  V30 1933 N 187.719 -0.156864 1.56817 0
M  V30 1934 C 189.135 -0.50916 1.5126 0
M  V30 1935 C 189.335 -1.83897 0.823658 0
M  V30 1936 O 188.391 -2.49469 0.390055 0
M  V30 1937 C 189.704 -0.52857 2.96018 0
M  V30 1938 C 191.252 -0.614771 3.06903 0
M  V30 1939 C 191.727 -0.664938 4.53147 0
M  V30 1940 N 193.218 -0.727433 4.57452 0
M  V30 1941 C 193.953 -0.787067 5.67973 0
M  V30 1942 N 193.449 -0.806649 6.88088 0
M  V30 1943 N 195.242 -0.827195 5.5598 0
M  V30 1944 H 187.393 0.714935 2.00006 0
M  V30 1945 H 189.656 0.259526 0.911784 0
M  V30 1946 H 189.362 0.380154 3.49639 0
M  V30 1947 H 189.236 -1.36998 3.51442 0
M  V30 1948 H 191.623 -1.51392 2.53307 0
M  V30 1949 H 191.704 0.253597 2.5454 0
M  V30 1950 H 191.348 0.230011 5.07379 0
M  V30 1951 H 191.278 -1.54966 5.03282 0
M  V30 1952 H 193.769 -0.719998 3.70978 0
M  V30 1953 H 194.082 -0.853727 7.6807 0
M  V30 1954 H 192.427 -0.774687 6.90669 0
M  V30 1955 H 195.618 -0.808998 4.61056 0
M  V30 1956 H 195.791 -0.870206 6.4213 0
M  V30 1957 N 189.197 -1.51736 -0.425897 0
M  V30 1958 C 190.127 -1.76827 -1.52494 0
M  V30 1959 C 191.108 -0.618524 -1.58456 0
M  V30 1960 O 192.293 -0.862416 -1.74 0
M  V30 1961 C 189.423 -1.90374 -2.90474 0
M  V30 1962 C 188.377 -3.0588 -2.99369 0
M  V30 1963 C 187.703 -3.04625 -4.3944 0
M  V30 1964 C 189.003 -4.45644 -2.72394 0
M  V30 1965 H 190.697 -2.68855 -1.31748 0
M  V30 1966 H 188.243 -1.29372 -0.632362 0
M  V30 1967 H 190.196 -2.0651 -3.6733 0
M  V30 1968 H 188.92 -0.95004 -3.12477 0
M  V30 1969 H 187.579 -2.89467 -2.24954 0
M  V30 1970 H 187.227 -2.0701 -4.58428 0
M  V30 1971 H 186.927 -3.82195 -4.46319 0
M  V30 1972 H 188.451 -3.22869 -5.18255 0
M  V30 1973 H 189.865 -4.62348 -3.38979 0
M  V30 1974 H 188.262 -5.25006 -2.9067 0
M  V30 1975 H 189.332 -4.54893 -1.67929 0
M  V30 1976 N 190.675 0.682077 -1.42076 0
M  V30 1977 C 192.091 0.994324 -1.24841 0
M  V30 1978 C 192.291 2.0096 -0.147389 0
M  V30 1979 O 191.347 2.47822 0.483782 0
M  V30 1980 C 192.66 1.50607 -2.60265 0
M  V30 1981 C 194.208 1.62421 -2.6756 0
M  V30 1982 C 194.683 2.16994 -4.03333 0
M  V30 1983 N 196.174 2.24337 -4.0525 0
M  V30 1984 C 196.909 2.67621 -5.07116 0
M  V30 1985 N 196.405 3.1041 -6.19368 0
M  V30 1986 N 198.198 2.67305 -4.94474 0
M  V30 1987 H 190.349 0.00973908 -2.12398 0
M  V30 1988 H 192.612 0.0668593 -0.945639 0
M  V30 1989 H 192.318 0.834583 -3.41654 0
M  V30 1990 H 192.192 2.48602 -2.83684 0
M  V30 1991 H 194.579 2.28678 -1.86521 0
M  V30 1992 H 194.66 0.629352 -2.47937 0
M  V30 1993 H 194.304 1.51349 -4.84826 0
M  V30 1994 H 194.234 3.17258 -4.20304 0
M  V30 1995 H 196.725 1.94158 -3.24209 0
M  V30 1996 H 197.038 3.42103 -6.92954 0
M  V30 1997 H 195.383 3.08286 -6.22884 0
M  V30 1998 H 198.574 2.33233 -4.05857 0
M  V30 1999 H 198.747 3.00718 -5.73997 0
M  V30 2000 N 192.153 1.28127 0.917671 0
M  V30 2001 C 193.569 1.05749 1.19538 0
M  V30 2002 C 193.769 -0.202633 2.00479 0
M  V30 2003 O 192.825 -0.905382 2.3571 0
M  V30 2004 C 194.138 2.30273 1.93378 0
M  V30 2005 C 195.686 2.35412 2.06277 0
M  V30 2006 C 196.161 3.59692 2.83524 0
M  V30 2007 N 197.652 3.60309 2.91087 0
M  V30 2008 C 198.387 4.53147 3.51348 0
M  V30 2009 N 197.883 5.563 4.12919 0
M  V30 2010 N 199.676 4.40751 3.48849 0
M  V30 2011 H 191.827 2.09024 0.377184 0
M  V30 2012 H 194.09 0.919798 0.22951 0
M  V30 2013 H 193.796 3.22055 1.41328 0
M  V30 2014 H 193.67 2.36378 2.93947 0
M  V30 2015 H 196.057 1.4413 2.57508 0
M  V30 2016 H 196.138 2.33304 1.04895 0
M  V30 2017 H 195.782 4.51316 2.32973 0
M  V30 2018 H 195.712 3.59054 3.85211 0
M  V30 2019 H 198.203 2.85714 2.47338 0
M  V30 2020 H 198.516 6.2329 4.56869 0
M  V30 2021 H 196.861 5.60131 4.11435 0
M  V30 2022 H 200.052 3.59367 2.99955 0
M  V30 2023 H 200.225 5.13291 3.9552 0
M  V30 2024 N 193.631 -1.12557 1.10312 0
M  V30 2025 C 194.88 -1.83395 0.839588 0
M  V30 2026 C 195.193 -1.84939 -0.636929 0
M  V30 2027 O 196.399 -2.51761 -1.01631 0
M  V30 2028 C 194.855 -3.29303 1.45215 0
M  V30 2029 C 194.463 -3.36122 2.96186 0
M  V30 2030 C 196.207 -4.05121 1.26796 0
M  V30 2031 C 194.114 -4.76357 3.50483 0
M  V30 2032 H 193.044 -0.687133 0.310425 0
M  V30 2033 H 195.695 -1.26746 1.32694 0
M  V30 2034 H 194.077 -3.85812 0.892469 0
M  V30 2035 H 195.251 -2.89559 3.58458 0
M  V30 2036 H 193.566 -2.73776 3.13745 0
M  V30 2037 H 196.163 -5.08668 1.64806 0
M  V30 2038 H 196.506 -4.15773 0.209409 0
M  V30 2039 H 197.039 -3.54967 1.79563 0
M  V30 2040 H 193.778 -4.70899 4.55998 0
M  V30 2041 H 193.298 -5.23377 2.92978 0
M  V30 2042 H 194.977 -5.45294 3.48228 0
M  V30 2043 N 195.109 -0.891671 -1.2995 0
M  V30 2044 C 196.039 -0.379797 -2.30391 0
M  V30 2045 C 197.02 0.540919 -1.6127 0
M  V30 2046 O 198.205 0.453352 -1.88834 0
M  V30 2047 C 195.335 0.400654 -3.44981 0
M  V30 2048 C 194.289 -0.428905 -4.25846 0
M  V30 2049 C 193.615 0.478557 -5.32554 0
M  V30 2050 C 194.915 -1.67458 -4.94727 0
M  V30 2051 H 196.609 -1.21914 -2.73454 0
M  V30 2052 H 194.155 -0.587675 -1.31462 0
M  V30 2053 H 196.108 0.769434 -4.14316 0
M  V30 2054 H 194.832 1.27371 -3.0074 0
M  V30 2055 H 193.491 -0.779911 -3.58208 0
M  V30 2056 H 193.139 1.34951 -4.84559 0
M  V30 2057 H 192.839 -0.0727433 -5.87555 0
M  V30 2058 H 194.363 0.843705 -6.04743 0
M  V30 2059 H 195.777 -1.376 -5.56542 0
M  V30 2060 H 194.174 -2.16659 -5.59624 0
M  V30 2061 H 195.244 -2.41518 -4.20473 0
M  V30 2062 N 196.587 1.43421 -0.653314 0
M  V30 2063 C 197.497 2.34568 0.0388565 0
M  V30 2064 C 198.513 1.53888 0.81207 0
M  V30 2065 O 199.689 1.86539 0.759294 0
M  V30 2066 C 196.754 3.32167 0.993269 0
M  V30 2067 C 195.815 4.28751 0.216977 0
M  V30 2068 C 195.048 5.21688 1.12593 0
M  V30 2069 O 195.271 5.19052 2.36519 0
M  V30 2070 O 194.205 5.98919 0.598284 0
M  V30 2071 H 198.031 2.95251 -0.711386 0
M  V30 2072 H 195.616 1.43564 -0.413502 0
M  V30 2073 H 197.498 3.92183 1.54176 0
M  V30 2074 H 196.173 2.73987 1.72374 0
M  V30 2075 H 195.08 3.72215 -0.375101 0
M  V30 2076 H 196.413 4.89913 -0.473924 0
M  V30 2077 N 198.065 0.39524 1.52563 0
M  V30 2078 C 199.311 -0.185318 2.01952 0
M  V30 2079 C 199.644 -1.45964 1.28095 0
M  V30 2080 O 198.919 -1.90689 0.38315 0
M  V30 2081 C 199.202 -0.447193 3.57312 0
M  V30 2082 C 199.055 0.842828 4.41833 0
M  V30 2083 C 200.374 -1.23529 4.22408 0
M  V30 2084 H 197.493 -0.0658788 0.73405 0
M  V30 2085 H 200.135 0.525975 1.82575 0
M  V30 2086 H 198.285 -1.05312 3.73954 0
M  V30 2087 H 199.957 1.4795 4.36931 0
M  V30 2088 H 198.2 1.45686 4.08605 0
M  V30 2089 H 198.871 0.614165 5.48573 0
M  V30 2090 H 201.347 -0.722445 4.0978 0
M  V30 2091 H 200.223 -1.38727 5.3108 0
M  V30 2092 H 200.484 -2.25213 3.80436 0
M  V30 2093 N 199.544 -1.57102 0.125237 0
M  V30 2094 C 200.476 -2.12726 -0.853237 0
M  V30 2095 C 201.489 -1.07145 -1.22571 0
M  V30 2096 O 202.678 -1.34497 -1.17358 0
M  V30 2097 C 199.778 -2.61709 -2.15317 0
M  V30 2098 C 198.951 -3.91456 -1.95143 0
M  V30 2099 C 198.01 -4.25973 -3.08923 0
M  V30 2100 O 197.036 -4.94682 -2.81564 0
M  V30 2101 N 198.238 -3.83795 -4.35524 0
M  V30 2102 H 201.003 -2.97307 -0.377964 0
M  V30 2103 H 198.564 -1.61792 -0.0590011 0
M  V30 2104 H 200.556 -2.81826 -2.90441 0
M  V30 2105 H 199.126 -1.81974 -2.54174 0
M  V30 2106 H 198.346 -3.80185 -1.04177 0
M  V30 2107 H 199.634 -4.76283 -1.78976 0
M  V30 2108 H 199.032 -3.2839 -4.60626 0
M  V30 2109 H 197.589 -4.09008 -5.07499 0
M  V30 2110 N 201.022 0.148545 -1.56898 0
M  V30 2111 C 201.97 1.20265 -1.99096 0
M  V30 2112 C 202.964 1.44559 -0.883123 0
M  V30 2113 O 204.17 1.4487 -1.0683 0
M  V30 2114 H 200.545 0.404786 -0.63376 0
M  V30 2115 H 202.516 0.82004 -2.86911 0
M  V30 2116 C 201.265 2.52886 -2.3863 0
M  V30 2117 H 200.588 2.35021 -3.23427 0
M  V30 2118 H 202.028 3.25274 -2.7198 0
M  V30 2119 C 200.487 3.13315 -1.23837 0
M  V30 2120 O 201.017 3.98077 -0.538268 0
M  V30 2121 N 199.223 2.72742 -1.00301 0
M  V30 2122 H 198.77 2.03912 -1.5741 0
M  V30 2123 H 198.728 3.13507 -0.236838 0
M  V30 2124 N 202.5 1.5196 0.417844 0
M  V30 2125 C 203.725 1.69717 1.1921 0
M  V30 2126 C 204.15 0.402148 1.83751 0
M  V30 2127 O 203.508 -0.639593 1.69643 0
M  V30 2128 C 203.556 2.82794 2.2374 0
M  V30 2129 O 202.66 2.47756 3.29683 0
M  V30 2130 H 202.001 0.565263 0.348387 0
M  V30 2131 H 204.531 1.98621 0.490985 0
M  V30 2132 H 204.541 3.07452 2.68212 0
M  V30 2133 H 203.216 3.76756 1.76146 0
M  V30 2134 H 201.793 2.33739 2.90552 0
M  V30 2135 N 203.978 -0.674533 1.42435 0
M  V30 2136 C 205.224 -1.43521 1.4413 0
M  V30 2137 C 205.579 -1.92316 0.0567773 0
M  V30 2138 O 204.872 -1.68008 -0.921076 0
M  V30 2139 C 205.066 -2.64767 2.40069 0
M  V30 2140 C 204.895 -2.27836 3.87713 0
M  V30 2141 C 203.665 -2.17183 4.56245 0
M  V30 2142 C 205.863 -1.89466 4.78129 0
M  V30 2143 N 203.845 -1.73358 5.88915 0
M  V30 2144 C 205.216 -1.56561 5.99907 0
M  V30 2145 C 207.271 -1.7646 4.65582 0
M  V30 2146 C 205.974 -1.11957 7.10534 0
M  V30 2147 C 208 -1.3326 5.76191 0
M  V30 2148 C 207.362 -1.0128 6.97081 0
M  V30 2149 H 203.461 -0.521656 0.582579 0
M  V30 2150 H 206.045 -0.778381 1.78464 0
M  V30 2151 H 204.216 -3.28139 2.07796 0
M  V30 2152 H 205.948 -3.3136 2.32342 0
M  V30 2153 H 202.703 -2.3626 4.10461 0
M  V30 2154 H 203.127 -1.53867 6.59283 0
M  V30 2155 H 207.769 -1.99831 3.72595 0
M  V30 2156 H 205.487 -0.873318 8.03367 0
M  V30 2157 H 209.073 -1.23717 5.68494 0
M  V30 2158 H 207.953 -0.683597 7.81215 0
M  V30 2159 N 205.456 -1.28612 -0.910864 0
M  V30 2160 C 206.406 -1.09423 -2.00026 0
M  V30 2161 C 207.39 -0.0170079 -1.60891 0
M  V30 2162 O 208.582 -0.237472 -1.754 0
M  V30 2163 C 205.711 -0.76114 -3.34756 0
M  V30 2164 C 204.797 -1.87735 -3.80285 0
M  V30 2165 N 205.188 -3.11938 -3.98156 0
M  V30 2166 C 203.486 -1.76786 -4.09467 0
M  V30 2167 C 204.187 -3.84687 -4.36338 0
M  V30 2168 N 203.163 -3.12555 -4.44759 0
M  V30 2169 H 206.965 -2.03658 -2.11898 0
M  V30 2170 H 204.479 -1.19573 -1.09891 0
M  V30 2171 H 206.476 -0.604743 -4.12491 0
M  V30 2172 H 205.136 0.173403 -3.24237 0
M  V30 2173 H 206.147 -3.47516 -3.83996 0
M  V30 2174 H 202.824 -0.905284 -4.07567 0
M  V30 2175 H 204.214 -4.91518 -4.58104 0
M  V30 2176 N 206.934 1.1197 -1.10907 0
M  V30 2177 C 208.345 1.65114 -0.871446 0
M  V30 2178 C 208.696 1.86885 0.597353 0
M  V30 2179 O 207.821 1.59896 1.45816 0
M  V30 2180 C 208.416 2.99944 -1.5754 0
M  V30 2181 C 206.975 3.50018 -1.38435 0
M  V30 2182 C 206.122 2.24941 -1.62164 0
M  V30 2183 H 209.073 0.956851 -1.2661 0
M  V30 2184 H 209.094 3.66651 -1.01721 0
M  V30 2185 H 208.606 2.84067 -2.64438 0
M  V30 2186 H 206.707 3.71071 -0.337214 0
M  V30 2187 H 206.82 4.29165 -2.12965 0
M  V30 2188 H 205.184 2.3229 -1.04467 0
M  V30 2189 H 205.967 2.11612 -2.70324 0
M  V30 2190 N 208.412 0.89855 1.29475 0
M  V30 2191 C 209.66 0.522847 1.9522 0
M  V30 2192 C 209.981 -0.93371 1.71192 0
M  V30 2193 O 209.251 -1.65823 1.04305 0
M  V30 2194 H 207.831 0.190366 0.722336 0
M  V30 2195 H 210.493 1.14459 1.5775 0
M  V30 2196 H 209.589 0.704476 3.04045 0
M  V30 2197 N 209.89 -1.43072 0.660911 0
M  V30 2198 C 211.115 -2.06584 0.183805 0
M  V30 2199 C 211.54 -1.49257 -1.14472 0
M  V30 2200 O 210.898 -0.605528 -1.70889 0
M  V30 2201 C 210.946 -3.60418 0.114434 0
M  V30 2202 O 210.05 -4.01981 -0.921137 0
M  V30 2203 H 209.391 -0.656669 0.0983994 0
M  V30 2204 H 211.921 -1.83447 0.906006 0
M  V30 2205 H 211.931 -4.07946 -0.0663394 0
M  V30 2206 H 210.606 -4.01519 1.08422 0
M  V30 2207 H 209.183 -3.66029 -0.71253 0
M  V30 2208 N 211.368 -0.403325 -1.52352 0
M  V30 2209 C 212.616 0.174003 -2.0135 0
M  V30 2210 C 212.937 1.46139 -1.29106 0
M  V30 2211 O 212.207 1.91448 -0.415253 0
M  V30 2212 H 210.787 0.0672911 -0.743963 0
M  V30 2213 H 213.449 -0.538235 -1.87321 0
M  V30 2214 H 212.545 0.374254 -3.09848 0
M  V30 2215 N 212.846 1.57033 -0.133567 0
M  V30 2216 C 213.756 2.19632 0.824564 0
M  V30 2217 C 214.772 1.17666 1.28182 0
M  V30 2218 O 215.948 1.50193 1.3418 0
M  V30 2219 C 213.013 2.79499 2.05137 0
M  V30 2220 C 212.074 3.96548 1.64464 0
M  V30 2221 C 211.307 4.5355 2.81297 0
M  V30 2222 O 211.53 4.09438 3.97136 0
M  V30 2223 O 210.464 5.44018 2.57542 0
M  V30 2224 H 214.29 3.01991 0.321766 0
M  V30 2225 H 211.875 1.49112 0.0927889 0
M  V30 2226 H 213.757 3.17602 2.7696 0
M  V30 2227 H 212.432 2.00162 2.54395 0
M  V30 2228 H 211.339 3.63186 0.897048 0
M  V30 2229 H 212.672 4.77364 1.19934 0
M  V30 2230 N 214.325 -0.140222 1.56975 0
M  V30 2231 C 215.235 -1.19223 2.02047 0
M  V30 2232 C 216.251 -1.46612 0.937062 0
M  V30 2233 O 217.427 -1.58148 1.24704 0
M  V30 2234 C 214.492 -2.50414 2.39778 0
M  V30 2235 C 213.553 -2.30612 3.621 0
M  V30 2236 C 212.786 -3.55547 3.98023 0
M  V30 2237 O 213.009 -4.62004 3.34528 0
M  V30 2238 O 211.943 -3.47808 4.91237 0
M  V30 2239 H 215.769 -0.839559 2.91865 0
M  V30 2240 H 213.354 -0.349453 1.45256 0
M  V30 2241 H 215.236 -3.27747 2.64877 0
M  V30 2242 H 213.911 -2.85198 1.53114 0
M  V30 2243 H 212.818 -1.51207 3.4218 0
M  V30 2244 H 214.151 -2.00741 4.49404 0
M  V30 2245 N 215.803 -1.52179 -0.40978 0
M  V30 2246 C 216.75 -1.75475 -1.49924 0
M  V30 2247 C 217.72 -0.597175 -1.54994 0
M  V30 2248 O 218.905 -0.834655 -1.71575 0
M  V30 2249 C 216.045 -1.9107 -2.87378 0
M  V30 2250 C 215.158 -3.18717 -2.91622 0
M  V30 2251 C 214.293 -3.24747 -4.20372 0
M  V30 2252 C 213.332 -4.46598 -4.18588 0
M  V30 2253 N 212.469 -4.50025 -5.38908 0
M  V30 2254 H 217.309 -2.68458 -1.29361 0
M  V30 2255 H 214.846 -1.33024 -0.627934 0
M  V30 2256 H 216.804 -1.98096 -3.6717 0
M  V30 2257 H 215.434 -1.01469 -3.06437 0
M  V30 2258 H 214.486 -3.20866 -2.04326 0
M  V30 2259 H 215.798 -4.08544 -2.86169 0
M  V30 2260 H 214.952 -3.30841 -5.08556 0
M  V30 2261 H 213.691 -2.32857 -4.28519 0
M  V30 2262 H 212.696 -4.40652 -3.28794 0
M  V30 2263 H 213.921 -5.39783 -4.12081 0
M  V30 2264 H 211.867 -3.61017 -5.47725 0
M  V30 2265 H 211.784 -5.33697 -5.35447 0
M  V30 2266 H 213.052 -4.60347 -6.29048 0
M  V30 2267 N 217.281 0.66697 -1.42791 0
M  V30 2268 C 218.244 1.76211 -1.46568 0
M  V30 2269 C 219.244 1.56896 -0.352196 0
M  V30 2270 O 220.434 1.63044 -0.613364 0
M  V30 2271 C 217.566 3.14935 -1.30494 0
M  V30 2272 H 218.759 1.74247 -2.44086 0
M  V30 2273 H 216.312 0.877342 -1.29354 0
M  V30 2274 H 217.047 3.2252 -0.339301 0
M  V30 2275 H 216.832 3.30359 -2.11199 0
M  V30 2276 H 218.322 3.94821 -1.36038 0
M  V30 2277 N 218.759 1.29093 0.90403 0
M  V30 2278 C 220.006 1.16813 1.65411 0
M  V30 2279 C 220.334 -0.28128 1.92455 0
M  V30 2280 O 219.589 -1.22006 1.53013 0
M  V30 2281 C 219.888 1.92224 3.01305 0
M  V30 2282 C 219.554 3.41968 2.93885 0
M  V30 2283 C 218.216 3.82807 2.91569 0
M  V30 2284 C 220.568 4.37409 2.83413 0
M  V30 2285 C 217.896 5.1741 2.76594 0
M  V30 2286 C 220.248 5.72097 2.69977 0
M  V30 2287 C 218.912 6.12199 2.66024 0
M  V30 2288 H 218.182 0.42745 0.605283 0
M  V30 2289 H 220.829 1.59981 1.05254 0
M  V30 2290 H 219.134 1.41635 3.65304 0
M  V30 2291 H 220.831 1.80131 3.58265 0
M  V30 2292 H 217.421 3.09504 2.96488 0
M  V30 2293 H 221.605 4.06813 2.84283 0
M  V30 2294 H 216.861 5.47596 2.71935 0
M  V30 2295 H 221.035 6.45704 2.60844 0
M  V30 2296 H 218.662 7.16448 2.54178 0
M  V30 2297 N 220.237 -1.11381 1.11499 0
M  V30 2298 C 221.169 -2.17207 0.731704 0
M  V30 2299 C 222.182 -1.61066 -0.236957 0
M  V30 2300 O 223.371 -1.78489 -0.0197591 0
M  V30 2301 C 220.471 -3.38846 0.0607624 0
M  V30 2302 C 219.644 -4.24451 1.0564 0
M  V30 2303 C 218.703 -5.24562 0.4149 0
M  V30 2304 O 217.729 -5.59071 1.069 0
M  V30 2305 N 218.931 -5.74651 -0.821943 0
M  V30 2306 H 221.696 -2.50699 1.64225 0
M  V30 2307 H 219.257 -1.26908 1.00529 0
M  V30 2308 H 221.249 -4.02911 -0.380139 0
M  V30 2309 H 219.819 -3.03411 -0.752376 0
M  V30 2310 H 219.039 -3.56833 1.67524 0
M  V30 2311 H 220.327 -4.78486 1.72998 0
M  V30 2312 H 219.725 -5.48797 -1.37252 0
M  V30 2313 H 218.282 -6.40549 -1.20582 0
M  V30 2314 N 221.715 -0.905404 -1.28997 0
M  V30 2315 C 222.962 -0.534248 -1.95325 0
M  V30 2316 C 223.29 0.920535 -1.71337 0
M  V30 2317 O 222.545 1.66861 -1.02254 0
M  V30 2318 C 222.844 -0.779906 -3.48787 0
M  V30 2319 C 222.51 -2.21293 -3.92861 0
M  V30 2320 C 221.172 -2.60475 -4.04606 0
M  V30 2321 C 223.524 -3.14587 -4.15553 0
M  V30 2322 C 220.852 -3.9212 -4.36416 0
M  V30 2323 C 223.204 -4.45787 -4.48839 0
M  V30 2324 C 221.868 -4.84834 -4.58794 0
M  V30 2325 H 221.138 -0.195495 -0.714747 0
M  V30 2326 H 223.785 -1.14514 -1.53488 0
M  V30 2327 H 222.09 -0.0861365 -3.91705 0
M  V30 2328 H 223.787 -0.472029 -3.98212 0
M  V30 2329 H 220.377 -1.89887 -3.84241 0
M  V30 2330 H 224.561 -2.85528 -4.0594 0
M  V30 2331 H 219.817 -4.22086 -4.42327 0
M  V30 2332 H 223.991 -5.18098 -4.65346 0
M  V30 2333 H 221.618 -5.86877 -4.83197 0
M  V30 2334 N 223.193 1.4272 -0.668489 0
M  V30 2335 C 224.423 2.05668 -0.196063 0
M  V30 2336 C 224.831 1.5028 1.14946 0
M  V30 2337 O 224.174 0.6348 1.72383 0
M  V30 2338 C 224.236 3.59469 -0.0468879 0
M  V30 2339 C 223.9 4.37518 -1.32012 0
M  V30 2340 C 224.897 4.68584 -2.25222 0
M  V30 2341 C 222.582 4.77266 -1.56596 0
M  V30 2342 C 224.576 5.38326 -3.41297 0
M  V30 2343 C 222.263 5.4675 -2.72962 0
M  V30 2344 C 223.261 5.77204 -3.65137 0
M  V30 2345 O 222.949 6.45264 -4.79468 0
M  V30 2346 H 222.681 0.669382 -0.0943599 0
M  V30 2347 H 225.235 1.83954 -0.913788 0
M  V30 2348 H 223.465 3.79817 0.726357 0
M  V30 2349 H 225.154 4.04071 0.384852 0
M  V30 2350 H 225.92 4.38382 -2.07477 0
M  V30 2351 H 221.799 4.52959 -0.857249 0
M  V30 2352 H 225.343 5.62014 -4.13263 0
M  V30 2353 H 221.24 5.76369 -2.90635 0
M  V30 2354 H 222.008 6.63753 -4.78931 0
M  V30 2355 N 224.671 0.411399 1.52136 0
M  V30 2356 C 225.619 -0.427633 2.28635 0
M  V30 2357 C 226.613 -1.04383 1.33419 0
M  V30 2358 O 227.819 -0.981772 1.50868 0
M  V30 2359 H 224.194 -0.156689 0.735495 0
M  V30 2360 H 226.165 0.238761 2.97443 0
M  V30 2361 C 224.914 -1.53082 3.12188 0
M  V30 2362 H 224.237 -1.06601 3.85326 0
M  V30 2363 H 225.677 -2.09167 3.68816 0
M  V30 2364 C 224.136 -2.49946 2.25895 0
M  V30 2365 O 224.666 -3.53884 1.90076 0
M  V30 2366 N 222.872 -2.2021 1.8962 0
M  V30 2367 H 222.419 -1.35719 2.18948 0
M  V30 2368 H 222.377 -2.85266 1.32176 0
M  V30 2369 N 226.149 -1.5696 0.141893 0
M  V30 2370 C 227.374 -2.00754 -0.520838 0
M  V30 2371 C 227.799 -1.0213 -1.57959 0
M  V30 2372 O 227.157 0.00371324 -1.813 0
M  V30 2373 C 227.205 -3.43318 -1.10294 0
M  V30 2374 O 226.309 -3.47679 -2.21795 0
M  V30 2375 H 225.65 -0.651564 -0.127908 0
M  V30 2376 H 228.18 -2.03221 0.23712 0
M  V30 2377 H 228.19 -3.82012 -1.43287 0
M  V30 2378 H 226.865 -4.14608 -0.327574 0
M  V30 2379 H 225.442 -3.20824 -1.9007 0
M  V30 2380 N 227.627 0.131896 -1.57047 0
M  V30 2381 C 228.867 0.847972 -1.85981 0
M  V30 2382 C 229.231 1.77655 -0.7282 0
M  V30 2383 O 230.432 2.53322 -0.898968 0
M  V30 2384 C 228.703 1.58919 -3.20124 0
M  V30 2385 S 230.262 2.34862 -3.70655 0
M  V30 2386 H 227.08 0.283273 -0.652133 0
M  V30 2387 H 229.682 0.107057 -1.95207 0
M  V30 2388 H 228.386 0.898771 -4.00438 0
M  V30 2389 H 227.917 2.37073 -3.13942 0
M  V30 2390 H 229.932 3.60344 -3.41126 0
M  V30 2391 N 229.106 1.52395 0.401703 0
M  V30 2392 C 230.039 1.70999 1.51111 0
M  V30 2393 C 231.017 0.55765 1.52738 0
M  V30 2394 O 232.201 0.785912 1.71335 0
M  V30 2395 C 229.328 1.75607 2.8962 0
M  V30 2396 C 228.374 2.97227 3.05873 0
M  V30 2397 S 229.207 4.57439 2.78405 0
M  V30 2398 C 230.363 4.64844 4.19131 0
M  V30 2399 H 230.596 2.6483 1.35102 0
M  V30 2400 H 228.129 1.42527 0.593762 0
M  V30 2401 H 230.087 1.78947 3.69443 0
M  V30 2402 H 228.748 0.828914 3.02965 0
M  V30 2403 H 227.941 2.96955 4.07227 0
M  V30 2404 H 227.543 2.91813 2.33925 0
M  V30 2405 H 229.835 4.42677 5.12877 0
M  V30 2406 H 230.778 5.66807 4.24424 0
M  V30 2407 H 231.186 3.93804 4.04448 0
M  V30 2408 N 230.584 -0.659388 1.43143 0
M  V30 2409 C 231.861 -1.41627 1.34912 0
M  V30 2410 C 232.241 -2.11099 -0.00607785 0
M  V30 2411 O 231.589 -2.04353 -1.02236 0
M  V30 2412 C 231.799 -2.40604 2.52805 0
M  V30 2413 C 233.147 -3.04789 2.95616 0
M  V30 2414 O 234.171 -2.50932 2.52807 0
M  V30 2415 O 233.03 -4.02421 3.69756 0
M  V30 2416 H 230.124 -0.63246 0.532844 0
M  V30 2417 H 232.67 -0.686814 1.5518 0
M  V30 2418 H 231.442 -1.88174 3.43083 0
M  V30 2419 H 231.065 -3.21009 2.34604 0
M  V30 2420 N 232.062 -1.29571 -0.897171 0
M  V30 2421 C 233.29 -1.20583 -1.68129 0
M  V30 2422 C 233.705 0.233181 -1.87354 0
M  V30 2423 O 233.062 1.15579 -1.41236 0
M  V30 2424 C 233.113 -1.91772 -3.06441 0
M  V30 2425 O 232.834 -3.30053 -2.88091 0
M  V30 2426 C 234.335 -1.89291 -4.00854 0
M  V30 2427 H 231.555 -0.417826 -0.525036 0
M  V30 2428 H 234.099 -1.70987 -1.12177 0
M  V30 2429 H 232.254 -1.45196 -3.59161 0
M  V30 2430 H 232.668 -3.65942 -3.75748 0
M  V30 2431 H 234.142 -2.43662 -4.95311 0
M  V30 2432 H 234.619 -0.869014 -4.30517 0
M  V30 2433 H 235.225 -2.35622 -3.54066 0
M  V30 2434 N 233.54 1.10788 -1.12088 0
M  V30 2435 C 234.47 2.19083 -0.807755 0
M  V30 2436 C 235.451 1.6858 0.226859 0
M  V30 2437 O 236.636 1.93997 0.0888475 0
M  V30 2438 C 233.766 3.46344 -0.257576 0
M  V30 2439 C 232.72 4.101 -1.22483 0
M  V30 2440 C 232.046 5.32016 -0.535052 0
M  V30 2441 C 233.346 4.54236 -2.57811 0
M  V30 2442 H 235.04 2.45534 -1.71328 0
M  V30 2443 H 232.586 1.1801 -0.825205 0
M  V30 2444 H 234.539 4.21392 -0.0262679 0
M  V30 2445 H 233.263 3.19373 0.683278 0
M  V30 2446 H 231.922 3.37054 -1.44189 0
M  V30 2447 H 231.57 5.01319 0.410827 0
M  V30 2448 H 231.27 5.75625 -1.18024 0
M  V30 2449 H 232.794 6.09799 -0.312695 0
M  V30 2450 H 234.208 5.20575 -2.40155 0
M  V30 2451 H 232.605 5.08682 -3.18375 0
M  V30 2452 H 233.675 3.6734 -3.16528 0
M  V30 2453 N 235.018 0.912232 1.28515 0
M  V30 2454 C 235.981 0.404223 2.25607 0
M  V30 2455 C 236.981 -0.468602 1.53821 0
M  V30 2456 O 238.171 -0.271873 1.72065 0
M  V30 2457 C 235.303 -0.420653 3.38295 0
M  V30 2458 H 236.496 1.26188 2.7206 0
M  V30 2459 H 234.049 0.691495 1.40171 0
M  V30 2460 H 234.784 -1.29777 2.97201 0
M  V30 2461 H 234.569 0.204935 3.91564 0
M  V30 2462 H 236.059 -0.766971 4.10496 0
M  V30 2463 N 236.496 -1.42363 0.676048 0
M  V30 2464 C 237.745 -2.00745 0.196037 0
M  V30 2465 C 238.058 -1.54083 -1.20489 0
M  V30 2466 O 239.264 -2.04891 -1.78134 0
M  V30 2467 C 237.72 -3.58651 0.299616 0
M  V30 2468 C 237.328 -4.143 1.70468 0
M  V30 2469 C 239.072 -4.24326 -0.121619 0
M  V30 2470 C 236.979 -5.64574 1.76096 0
M  V30 2471 H 235.909 -0.750787 0.0695301 0
M  V30 2472 H 238.56 -1.63072 0.841412 0
M  V30 2473 H 236.942 -3.93833 -0.413673 0
M  V30 2474 H 238.116 -3.90575 2.44515 0
M  V30 2475 H 236.431 -3.61081 2.07387 0
M  V30 2476 H 239.028 -5.34607 -0.0997362 0
M  V30 2477 H 239.371 -3.99897 -1.15708 0
M  V30 2478 H 239.904 -3.94108 0.540706 0
M  V30 2479 H 236.643 -5.93804 2.77628 0
M  V30 2480 H 236.163 -5.90286 1.06406 0
M  V30 2481 H 237.842 -6.29013 1.51496 0
M  V30 2482 N 237.974 -0.419461 -1.51915 0
M  V30 2483 C 238.884 0.407528 -2.31033 0
M  V30 2484 C 239.9 1.04413 -1.3919 0
M  V30 2485 O 241.076 1.0434 -1.72265 0
M  V30 2486 C 238.141 1.50365 -3.12396 0
M  V30 2487 C 237.202 0.889029 -4.19994 0
M  V30 2488 C 236.435 1.93291 -4.97468 0
M  V30 2489 O 236.658 3.15259 -4.75361 0
M  V30 2490 O 235.592 1.53339 -5.8204 0
M  V30 2491 H 239.418 -0.237865 -3.02767 0
M  V30 2492 H 237.003 -0.182413 -1.48282 0
M  V30 2493 H 238.885 2.13975 -3.63032 0
M  V30 2494 H 237.56 2.13345 -2.43445 0
M  V30 2495 H 236.467 0.215353 -3.7348 0
M  V30 2496 H 237.8 0.302991 -4.91267 0
M  V30 2497 N 239.452 1.56882 -0.150215 0
M  V30 2498 C 240.415 2.1573 0.774157 0
M  V30 2499 C 241.415 1.0999 1.17298 0
M  V30 2500 O 242.605 1.35613 1.09338 0
M  V30 2501 C 239.737 2.72302 2.05096 0
M  V30 2502 H 240.93 2.98752 0.262201 0
M  V30 2503 H 238.483 1.55985 0.099248 0
M  V30 2504 H 239.218 1.92956 2.6065 0
M  V30 2505 H 239.003 3.49665 1.77416 0
M  V30 2506 H 240.493 3.17632 2.71109 0
M  V30 2507 N 240.93 -0.123565 1.57115 0
M  V30 2508 C 241.893 -1.13583 1.99076 0
M  V30 2509 C 242.893 -1.34564 0.880296 0
M  V30 2510 O 244.083 -1.31158 1.14644 0
M  V30 2511 C 241.215 -2.49128 2.32698 0
M  V30 2512 H 242.408 -0.775287 2.89706 0
M  V30 2513 H 239.961 -0.36771 1.51913 0
M  V30 2514 H 240.696 -2.90111 1.44934 0
M  V30 2515 H 240.481 -2.35255 3.13684 0
M  V30 2516 H 241.971 -3.2199 2.65918 0
M  V30 2517 N 242.408 -1.52605 -0.393616 0
M  V30 2518 C 243.656 -1.67093 -1.13685 0
M  V30 2519 C 243.977 -0.411011 -1.90619 0
M  V30 2520 O 243.247 0.574491 -1.87287 0
M  V30 2521 H 241.827 -0.615923 -0.422668 0
M  V30 2522 H 244.489 -1.89704 -0.447039 0
M  V30 2523 H 243.585 -2.51922 -1.84232 0
M  V30 2524 N 243.887 0.651787 -1.4349 0
M  V30 2525 C 245.115 1.43937 -1.48626 0
M  V30 2526 C 245.53 1.8851 -0.104587 0
M  V30 2527 O 244.887 1.5958 0.885464 0
M  V30 2528 C 244.938 2.6734 -2.43334 0
M  V30 2529 O 244.659 2.24631 -3.76128 0
M  V30 2530 C 246.16 3.60683 -2.57726 0
M  V30 2531 H 243.38 0.44213 -0.504739 0
M  V30 2532 H 245.924 0.798944 -1.88248 0
M  V30 2533 H 244.079 3.2752 -2.06904 0
M  V30 2534 H 244.493 3.04485 -4.2707 0
M  V30 2535 H 245.967 4.43933 -3.28067 0
M  V30 2536 H 246.444 4.08126 -1.62265 0
M  V30 2537 H 247.05 3.06384 -2.94973 0
M  V30 2538 N 245.365 1.30045 0.890287 0
M  V30 2539 C 246.613 1.18327 1.63839 0
M  V30 2540 C 246.934 -0.263455 1.93212 0
M  V30 2541 O 246.204 -1.17856 1.56482 0
M  V30 2542 H 244.784 0.434933 0.607324 0
M  V30 2543 H 247.446 1.631 1.06698 0
M  V30 2544 H 246.542 1.74024 2.59079 0
M  V30 2545 N 246.843 -1.10192 1.12674 0
M  V30 2546 C 248.254 -1.63707 0.897604 0
M  V30 2547 C 248.605 -1.87812 -0.567546 0
M  V30 2548 O 247.73 -1.62196 -1.43253 0
M  V30 2549 C 248.325 -2.974 1.62292 0
M  V30 2550 C 246.884 -3.47772 1.43986 0
M  V30 2551 C 246.031 -2.22332 1.65722 0
M  V30 2552 H 248.982 -0.936587 1.28116 0
M  V30 2553 H 249.003 -3.64986 1.07541 0
M  V30 2554 H 248.515 -2.79824 2.68924 0
M  V30 2555 H 246.616 -3.70487 0.396206 0
M  V30 2556 H 246.729 -4.25723 2.19765 0
M  V30 2557 H 245.093 -2.30599 1.08149 0
M  V30 2558 H 245.876 -2.07285 2.73657 0
M  V30 2559 N 248.321 -0.919034 -1.28029 0
M  V30 2560 C 249.251 -0.428581 -2.29533 0
M  V30 2561 C 250.232 0.50659 -1.62381 0
M  V30 2562 O 251.417 0.413195 -1.89753 0
M  V30 2563 C 248.547 0.327388 -3.45753 0
M  V30 2564 C 247.501 -0.519137 -4.2484 0
M  V30 2565 C 246.827 0.365486 -5.33449 0
M  V30 2566 C 248.127 -1.77914 -4.91064 0
M  V30 2567 H 249.821 -1.27687 -2.70807 0
M  V30 2568 H 247.367 -0.615428 -1.30186 0
M  V30 2569 H 249.32 0.681378 -4.15855 0
M  V30 2570 H 248.044 1.20963 -3.03374 0
M  V30 2571 H 246.703 -0.855717 -3.56473 0
M  V30 2572 H 246.351 1.24642 -4.87312 0
M  V30 2573 H 246.051 -0.197356 -5.87268 0
M  V30 2574 H 247.575 0.715241 -6.06396 0
M  V30 2575 H 248.989 -1.49374 -5.53498 0
M  V30 2576 H 247.386 -2.2848 -5.54903 0
M  V30 2577 H 248.456 -2.50382 -4.15255 0
M  V30 2578 N 249.799 1.42003 -0.683588 0
M  V30 2579 C 251.215 1.55625 -0.353976 0
M  V30 2580 C 251.415 1.66151 1.14 0
M  V30 2581 O 250.471 1.63329 1.92561 0
M  V30 2582 C 251.784 2.80171 -1.092 0
M  V30 2583 C 253.332 2.93954 -1.07518 0
M  V30 2584 C 253.807 4.21372 -1.79471 0
M  V30 2585 N 255.298 4.28303 -1.76381 0
M  V30 2586 C 256.033 5.25729 -2.28904 0
M  V30 2587 N 255.529 6.29254 -2.89846 0
M  V30 2588 N 257.322 5.17586 -2.19228 0
M  V30 2589 H 249.473 1.33415 -1.6527 0
M  V30 2590 H 251.736 0.64282 -0.696769 0
M  V30 2591 H 251.442 2.78561 -2.14701 0
M  V30 2592 H 251.316 3.7133 -0.662862 0
M  V30 2593 H 253.703 2.95086 -0.028475 0
M  V30 2594 H 253.784 2.04002 -1.54328 0
M  V30 2595 H 253.428 4.21001 -2.84114 0
M  V30 2596 H 253.358 5.10275 -1.30104 0
M  V30 2597 H 255.849 3.54119 -1.31939 0
M  V30 2598 H 256.162 6.99964 -3.27522 0
M  V30 2599 H 254.507 6.29791 -2.93919 0
M  V30 2600 H 257.698 4.35631 -1.71299 0
M  V30 2601 H 257.871 5.93348 -2.60466 0
M  V30 2602 N 251.277 0.427512 1.51691 0
M  V30 2603 C 252.209 -0.424521 2.25234 0
M  V30 2604 C 253.222 -0.994671 1.2888 0
M  V30 2605 O 254.411 -0.890483 1.54702 0
M  V30 2606 C 251.511 -1.60479 2.98496 0
M  V30 2607 C 250.684 -1.15527 4.21868 0
M  V30 2608 C 249.743 -2.20454 4.77793 0
M  V30 2609 O 248.769 -1.8029 5.39893 0
M  V30 2610 N 249.971 -3.52831 4.60967 0
M  V30 2611 H 252.736 0.205749 2.98993 0
M  V30 2612 H 250.297 0.255867 1.59865 0
M  V30 2613 H 252.289 -2.30276 3.32799 0
M  V30 2614 H 250.859 -2.14061 2.27809 0
M  V30 2615 H 250.079 -0.284736 3.9317 0
M  V30 2616 H 251.367 -0.832173 5.01949 0
M  V30 2617 H 250.765 -3.88201 4.11481 0
M  V30 2618 H 249.322 -4.18551 4.99658 0
M  V30 2619 N 252.755 -1.56801 0.158532 0
M  V30 2620 C 254.001 -1.96781 -0.490405 0
M  V30 2621 C 254.334 -1.04397 -1.63753 0
M  V30 2622 O 253.609 -0.0885805 -1.94298 0
M  V30 2623 C 253.892 -3.4635 -0.985594 0
M  V30 2624 C 253.745 -4.49512 0.160824 0
M  V30 2625 C 255.064 -3.98697 -1.86355 0
M  V30 2626 H 252.183 -0.715482 -0.176788 0
M  V30 2627 H 254.825 -1.88451 0.242088 0
M  V30 2628 H 252.975 -3.53579 -1.60978 0
M  V30 2629 H 254.647 -4.54353 0.797537 0
M  V30 2630 H 252.89 -4.26013 0.818256 0
M  V30 2631 H 253.561 -5.51531 -0.227569 0
M  V30 2632 H 256.037 -3.94019 -1.33746 0
M  V30 2633 H 254.913 -5.03792 -2.17909 0
M  V30 2634 H 255.174 -3.41744 -2.8047 0
M  V30 2635 N 254.233 0.115231 -1.57178 0
M  V30 2636 C 255.482 0.820945 -1.84237 0
M  V30 2637 C 255.795 1.80866 -0.744761 0
M  V30 2638 O 257.001 2.56083 -0.901871 0
M  V30 2639 C 255.457 1.51072 -3.26658 0
M  V30 2640 C 255.065 0.563795 -4.44438 0
M  V30 2641 C 256.809 2.20134 -3.62962 0
M  V30 2642 C 254.716 1.25701 -5.77887 0
M  V30 2643 H 253.646 0.310328 -0.687177 0
M  V30 2644 H 256.297 0.0737134 -1.83352 0
M  V30 2645 H 254.679 2.30471 -3.22024 0
M  V30 2646 H 255.853 -0.197247 -4.60378 0
M  V30 2647 H 254.168 -0.0200638 -4.16395 0
M  V30 2648 H 256.765 2.72696 -4.59936 0
M  V30 2649 H 257.108 2.98107 -2.90582 0
M  V30 2650 H 257.641 1.47619 -3.69396 0
M  V30 2651 H 254.38 0.518493 -6.53446 0
M  V30 2652 H 253.9 1.98997 -5.65827 0
M  V30 2653 H 255.579 1.78915 -6.2177 0
M  V30 2654 N 255.711 1.52812 0.385517 0
M  V30 2655 C 256.621 1.80766 1.49535 0
M  V30 2656 C 257.637 0.694651 1.59532 0
M  V30 2657 O 258.813 0.982611 1.75803 0
M  V30 2658 C 255.878 1.97381 2.85029 0
M  V30 2659 C 254.939 3.21295 2.84724 0
M  V30 2660 C 254.172 3.37108 4.13756 0
M  V30 2661 O 254.395 2.5765 5.08893 0
M  V30 2662 O 253.329 4.30378 4.20783 0
M  V30 2663 H 257.155 2.75015 1.28842 0
M  V30 2664 H 254.74 1.37946 0.573697 0
M  V30 2665 H 256.622 2.09996 3.65349 0
M  V30 2666 H 255.297 1.06322 3.05741 0
M  V30 2667 H 254.204 3.1412 2.03174 0
M  V30 2668 H 255.537 4.12212 2.68965 0
M  V30 2669 N 257.189 -0.644168 1.43834 0
M  V30 2670 C 258.099 -1.78563 1.52159 0
M  V30 2671 C 259.115 -1.69147 0.408069 0
M  V30 2672 O 260.291 -1.90156 0.663524 0
M  V30 2673 C 257.356 -3.14888 1.45073 0
M  V30 2674 C 256.417 -3.36034 2.6717 0
M  V30 2675 C 255.65 -4.65855 2.60413 0
M  V30 2676 O 255.873 -5.45805 1.65689 0
M  V30 2677 O 254.807 -4.88918 3.5106 0
M  V30 2678 H 258.633 -1.74494 2.48567 0
M  V30 2679 H 256.218 -0.80378 1.25935 0
M  V30 2680 H 258.1 -3.96179 1.43597 0
M  V30 2681 H 256.775 -3.19528 0.518037 0
M  V30 2682 H 255.682 -2.54472 2.74217 0
M  V30 2683 H 257.015 -3.36247 3.59442 0
M  V30 2684 N 258.668 -1.30515 -0.883378 0
M  V30 2685 C 259.598 -1.19607 -2.00541 0
M  V30 2686 C 260.579 -0.086346 -1.69881 0
M  V30 2687 O 261.764 -0.268654 -1.92333 0
M  V30 2688 C 258.894 -0.888758 -3.35736 0
M  V30 2689 C 257.848 -1.95659 -3.8066 0
M  V30 2690 C 257.174 -1.50224 -5.13164 0
M  V30 2691 C 258.474 -3.36788 -3.99213 0
M  V30 2692 H 260.168 -2.13476 -2.09925 0
M  V30 2693 H 257.714 -1.02775 -1.00863 0
M  V30 2694 H 259.667 -0.799094 -4.13754 0
M  V30 2695 H 258.391 0.0856125 -3.26488 0
M  V30 2696 H 257.05 -2.03591 -3.04871 0
M  V30 2697 H 256.698 -0.516092 -5.00345 0
M  V30 2698 H 256.398 -2.2165 -5.44192 0
M  V30 2699 H 257.922 -1.42639 -5.93706 0
M  V30 2700 H 259.336 -3.31605 -4.67665 0
M  V30 2701 H 257.733 -4.06314 -4.41621 0
M  V30 2702 H 258.803 -3.78561 -3.03017 0
M  V30 2703 N 260.146 1.09593 -1.13257 0
M  V30 2704 C 261.394 1.81375 -0.891492 0
M  V30 2705 C 261.715 1.86049 0.584009 0
M  V30 2706 O 260.985 1.34481 1.42449 0
M  V30 2707 H 259.565 0.671708 -0.326828 0
M  V30 2708 H 262.227 1.3256 -1.42877 0
M  V30 2709 H 261.323 2.84612 -1.28071 0
M  V30 2710 N 261.624 0.925811 1.2754 0
M  V30 2711 C 262.872 0.564138 1.94067 0
M  V30 2712 C 263.193 -0.897188 1.73134 0
M  V30 2713 O 262.463 -1.63573 1.07799 0
M  V30 2714 H 261.043 0.205645 0.718136 0
M  V30 2715 H 263.705 1.1778 1.55287 0
M  V30 2716 H 262.801 0.76881 3.02483 0
M  V30 2717 N 263.102 -1.41638 0.69111 0
M  V30 2718 C 264.348 -2.02104 0.229258 0
M  V30 2719 C 264.703 -1.53741 -1.15678 0
M  V30 2720 O 263.996 -0.736849 -1.76865 0
M  V30 2721 C 264.19 -3.56714 0.221277 0
M  V30 2722 C 264.019 -4.20083 1.605 0
M  V30 2723 C 262.789 -4.54566 2.20676 0
M  V30 2724 C 264.987 -4.46587 2.55078 0
M  V30 2725 N 262.969 -5.03199 3.5166 0
M  V30 2726 C 264.34 -4.96946 3.70735 0
M  V30 2727 C 266.395 -4.28593 2.53401 0
M  V30 2728 C 265.098 -5.31203 4.8499 0
M  V30 2729 C 267.124 -4.63936 3.66765 0
M  V30 2730 C 266.486 -5.14463 4.81152 0
M  V30 2731 H 262.585 -0.771256 0.12918 0
M  V30 2732 H 265.169 -1.72251 0.907626 0
M  V30 2733 H 263.34 -3.86051 -0.426562 0
M  V30 2734 H 265.072 -4.03896 -0.254983 0
M  V30 2735 H 261.827 -4.4087 1.73005 0
M  V30 2736 H 262.251 -5.31926 4.18789 0
M  V30 2737 H 266.893 -3.88771 1.66184 0
M  V30 2738 H 264.611 -5.69951 5.72871 0
M  V30 2739 H 268.197 -4.51677 3.66714 0
M  V30 2740 H 267.077 -5.41299 5.67419 0
M  V30 2741 N 264.58 -0.43555 -1.51462 0
M  V30 2742 C 265.996 -0.0877501 -1.59359 0
M  V30 2743 C 266.196 1.4027 -1.4466 0
M  V30 2744 O 265.252 2.17243 -1.28693 0
M  V30 2745 C 266.565 -0.606264 -2.94525 0
M  V30 2746 C 268.113 -0.566548 -3.0783 0
M  V30 2747 C 268.588 -1.06201 -4.45517 0
M  V30 2748 N 270.079 -1.01992 -4.51832 0
M  V30 2749 C 270.814 -1.37417 -5.5669 0
M  V30 2750 N 270.31 -1.80119 -6.68976 0
M  V30 2751 N 272.103 -1.29245 -5.47039 0
M  V30 2752 H 264.254 -1.40533 -1.59261 0
M  V30 2753 H 266.517 -0.578992 -0.750648 0
M  V30 2754 H 266.223 -1.64901 -3.10645 0
M  V30 2755 H 266.097 -0.0302097 -3.77188 0
M  V30 2756 H 268.484 0.467208 -2.91378 0
M  V30 2757 H 268.565 -1.17898 -2.2701 0
M  V30 2758 H 268.209 -2.09422 -4.62715 0
M  V30 2759 H 268.139 -0.426127 -5.24873 0
M  V30 2760 H 270.63 -0.706308 -3.71241 0
M  V30 2761 H 270.943 -2.05392 -7.45006 0
M  V30 2762 H 269.288 -1.84044 -6.70189 0
M  V30 2763 H 272.479 -0.957522 -4.58202 0
M  V30 2764 H 272.652 -1.57182 -6.28648 0
M  V30 2765 N 266.058 1.56714 -0.166846 0
M  V30 2766 C 267.307 1.95922 0.479318 0
M  V30 2767 C 267.62 1.05529 1.6469 0
M  V30 2768 O 268.826 1.34399 2.35901 0
M  V30 2769 C 267.282 3.48359 0.90412 0
M  V30 2770 C 266.89 4.47369 -0.237621 0
M  V30 2771 C 268.634 3.96394 1.51896 0
M  V30 2772 C 266.541 5.91039 0.206561 0
M  V30 2773 H 265.471 0.731495 0.18284 0
M  V30 2774 H 268.122 1.81728 -0.254363 0
M  V30 2775 H 266.504 3.57955 1.69365 0
M  V30 2776 H 267.678 4.49485 -1.01489 0
M  V30 2777 H 265.993 4.09366 -0.762128 0
M  V30 2778 H 268.59 5.01186 1.86325 0
M  V30 2779 H 268.933 3.39075 2.41524 0
M  V30 2780 H 269.466 3.89796 0.79395 0
M  V30 2781 H 266.205 6.52221 -0.654834 0
M  V30 2782 H 265.725 5.9224 0.949282 0
M  V30 2783 H 267.404 6.43707 0.651939 0
M  V30 2784 N 267.536 -0.106894 1.57237 0
M  V30 2785 C 268.761 -0.830287 1.90055 0
M  V30 2786 C 269.186 -1.72064 0.75998 0
M  V30 2787 O 268.544 -1.78982 -0.288991 0
M  V30 2788 C 268.592 -1.6295 3.21683 0
M  V30 2789 O 267.696 -2.73748 3.08441 0
M  V30 2790 H 267.037 -0.228855 0.623315 0
M  V30 2791 H 269.567 -0.085658 2.04421 0
M  V30 2792 H 269.577 -2.01621 3.54701 0
M  V30 2793 H 268.252 -0.975989 4.04286 0
M  V30 2794 H 266.829 -2.38192 2.86913 0
M  V30 2795 N 269.014 -1.53014 -0.377408 0
M  V30 2796 C 270.262 -1.6829 -1.11906 0
M  V30 2797 C 270.583 -0.431206 -1.90173 0
M  V30 2798 O 269.853 0.554595 -1.87886 0
M  V30 2799 H 268.433 -0.620371 -0.416112 0
M  V30 2800 H 271.095 -1.90167 -0.426893 0
M  V30 2801 H 270.191 -2.53862 -1.8155 0
M  V30 2802 N 270.492 0.636531 -1.44174 0
M  V30 2803 C 271.439 1.74875 -1.50624 0
M  V30 2804 C 272.409 1.62275 -0.35442 0
M  V30 2805 O 273.594 1.82276 -0.563908 0
M  V30 2806 C 270.734 3.13102 -1.45125 0
M  V30 2807 C 269.847 3.36717 -2.7064 0
M  V30 2808 C 268.982 4.64885 -2.57013 0
M  V30 2809 C 268.021 4.8166 -3.77717 0
M  V30 2810 N 267.158 6.01101 -3.62798 0
M  V30 2811 H 271.998 1.68697 -2.45653 0
M  V30 2812 H 269.535 0.823004 -1.21922 0
M  V30 2813 H 271.493 3.93034 -1.39929 0
M  V30 2814 H 270.123 3.18308 -0.536671 0
M  V30 2815 H 269.175 2.50763 -2.86046 0
M  V30 2816 H 270.487 3.44993 -3.60252 0
M  V30 2817 H 269.641 5.52969 -2.49619 0
M  V30 2818 H 268.38 4.58957 -1.64953 0
M  V30 2819 H 267.385 3.92007 -3.85501 0
M  V30 2820 H 268.61 4.89406 -4.70807 0
M  V30 2821 H 266.556 5.96273 -2.73486 0
M  V30 2822 H 266.473 6.10409 -4.46023 0
M  V30 2823 H 267.741 6.91761 -3.59286 0
M  V30 2824 N 271.97 1.30982 0.876444 0
M  V30 2825 C 273.216 1.21484 1.63136 0
M  V30 2826 C 273.571 -0.226339 1.91064 0
M  V30 2827 O 272.864 -1.15788 1.52656 0
M  V30 2828 C 273.058 1.98572 2.9716 0
M  V30 2829 C 272.887 3.50039 2.82317 0
M  V30 2830 C 271.657 4.19393 2.81847 0
M  V30 2831 C 273.855 4.45111 2.57644 0
M  V30 2832 N 271.837 5.57061 2.57985 0
M  V30 2833 C 273.208 5.70402 2.42986 0
M  V30 2834 C 275.263 4.3461 2.42937 0
M  V30 2835 C 273.966 6.8638 2.15115 0
M  V30 2836 C 275.992 5.50365 2.16454 0
M  V30 2837 C 275.354 6.74642 2.02578 0
M  V30 2838 H 271.453 0.499632 0.601575 0
M  V30 2839 H 274.037 1.65094 1.03209 0
M  V30 2840 H 272.208 1.5734 3.55104 0
M  V30 2841 H 273.94 1.81146 3.61895 0
M  V30 2842 H 270.695 3.71303 2.93991 0
M  V30 2843 H 271.119 6.29529 2.49043 0
M  V30 2844 H 275.761 3.39199 2.52396 0
M  V30 2845 H 273.479 7.81824 2.04394 0
M  V30 2846 H 277.065 5.44154 2.05884 0
M  V30 2847 H 275.945 7.62699 1.82374 0
M  V30 2848 N 273.449 -1.08991 1.13837 0
M  V30 2849 C 274.677 -1.85011 0.926202 0
M  V30 2850 C 275.092 -1.8135 -0.525127 0
M  V30 2851 O 274.449 -1.21287 -1.36366 0
M  V30 2852 C 274.5 -3.32802 1.41155 0
M  V30 2853 O 274.221 -3.36444 2.80601 0
M  V30 2854 C 275.722 -4.25649 1.23847 0
M  V30 2855 H 272.942 -0.584249 0.32999 0
M  V30 2856 H 275.486 -1.37688 1.51202 0
M  V30 2857 H 273.641 -3.77536 0.868631 0
M  V30 2858 H 274.055 -4.28657 3.02248 0
M  V30 2859 H 275.529 -5.27485 1.62675 0
M  V30 2860 H 276.006 -4.38828 0.18065 0
M  V30 2861 H 276.612 -3.86735 1.76964 0
M  V30 2862 N 274.927 -0.932562 -1.27047 0
M  V30 2863 C 276.152 -0.591474 -1.98787 0
M  V30 2864 C 276.577 0.824601 -1.69062 0
M  V30 2865 O 275.935 1.5541 -0.933677 0
M  V30 2866 C 275.983 -0.829808 -3.50922 0
M  V30 2867 O 275.087 0.102266 -4.12273 0
M  V30 2868 H 274.428 -0.227185 -0.623926 0
M  V30 2869 H 276.958 -1.25314 -1.61733 0
M  V30 2870 H 276.968 -0.747292 -4.01098 0
M  V30 2871 H 275.643 -1.86201 -3.7189 0
M  V30 2872 H 274.22 -0.0305761 -3.72887 0
M  V30 2873 N 276.405 1.4127 -0.698611 0
M  V30 2874 C 277.335 2.33447 -0.049629 0
M  V30 2875 C 278.316 1.51982 0.763898 0
M  V30 2876 O 279.501 1.80509 0.716257 0
M  V30 2877 C 276.631 3.35828 0.885267 0
M  V30 2878 C 275.585 4.27627 0.178613 0
M  V30 2879 C 274.911 5.20406 1.22807 0
M  V30 2880 C 276.211 5.13459 -0.956933 0
M  V30 2881 H 277.905 2.87966 -0.81951 0
M  V30 2882 H 275.451 1.38461 -0.395538 0
M  V30 2883 H 277.404 3.9924 1.34854 0
M  V30 2884 H 276.128 2.79666 1.68685 0
M  V30 2885 H 274.787 3.65643 -0.26466 0
M  V30 2886 H 274.435 4.60558 2.02226 0
M  V30 2887 H 274.135 5.82661 0.760239 0
M  V30 2888 H 275.659 5.86695 1.69179 0
M  V30 2889 H 277.073 5.70421 -0.573805 0
M  V30 2890 H 275.47 5.8467 -1.35205 0
M  V30 2891 H 276.54 4.50443 -1.79524 0
M  V30 2892 N 277.883 0.443576 1.51229 0
M  V30 2893 C 278.831 -0.37904 2.29491 0
M  V30 2894 C 279.825 -1.0153 1.35603 0
M  V30 2895 O 281.031 -0.94955 1.52917 0
M  V30 2896 H 277.406 -0.141053 0.738653 0
M  V30 2897 H 279.377 0.301799 2.9687 0
M  V30 2898 C 278.126 -1.46426 3.15364 0
M  V30 2899 H 277.449 -0.984037 3.87501 0
M  V30 2900 H 278.889 -2.01297 3.7317 0
M  V30 2901 C 277.348 -2.45099 2.31146 0
M  V30 2902 O 277.878 -3.49773 1.9754 0
M  V30 2903 N 276.084 -2.16139 1.94249 0
M  V30 2904 H 275.631 -1.31044 2.21777 0
M  V30 2905 H 275.589 -2.82398 1.38198 0
M  V30 2906 N 279.361 -1.56624 0.175154 0
M  V30 2907 C 280.608 -1.96999 -0.468811 0
M  V30 2908 C 280.936 -1.06129 -1.62994 0
M  V30 2909 O 280.191 -0.0961771 -1.95464 0
M  V30 2910 C 280.49 -3.43419 -0.989864 0
M  V30 2911 C 280.156 -4.50866 0.0557687 0
M  V30 2912 C 278.818 -4.79975 0.343134 0
M  V30 2913 C 281.17 -5.15551 0.765308 0
M  V30 2914 C 278.498 -5.71066 1.34536 0
M  V30 2915 C 280.85 -6.07724 1.75654 0
M  V30 2916 C 279.514 -6.35199 2.05132 0
M  V30 2917 H 278.784 -0.720869 -0.17155 0
M  V30 2918 H 281.431 -1.89616 0.267924 0
M  V30 2919 H 279.736 -3.47772 -1.80449 0
M  V30 2920 H 281.433 -3.72002 -1.49719 0
M  V30 2921 H 278.023 -4.28229 -0.178381 0
M  V30 2922 H 282.207 -4.9317 0.556513 0
M  V30 2923 H 277.463 -5.90635 1.57988 0
M  V30 2924 H 281.637 -6.56912 2.31169 0
M  V30 2925 H 279.264 -7.05584 2.8294 0
M  V30 2926 N 280.839 0.0985539 -1.57292 0
M  V30 2927 C 281.787 1.1387 -2.02821 0
M  V30 2928 C 282.781 1.41676 -0.928666 0
M  V30 2929 O 283.987 1.41398 -1.11385 0
M  V30 2930 H 280.362 0.384419 -0.646317 0
M  V30 2931 H 282.333 0.728347 -2.89375 0
M  V30 2932 C 281.082 2.45166 -2.46554 0
M  V30 2933 H 280.405 2.24613 -3.3074 0
M  V30 2934 H 281.845 3.16456 -2.8219 0
M  V30 2935 C 280.304 3.09216 -1.33742 0
M  V30 2936 O 280.834 3.96163 -0.66464 0
M  V30 2937 N 279.04 2.69413 -1.08928 0
M  V30 2938 H 278.587 1.98801 -1.63817 0
M  V30 2939 H 278.545 3.12594 -0.336458 0
M  V30 2940 N 282.317 1.53212 0.369288 0
M  V30 2941 C 283.733 1.42902 0.710712 0
M  V30 2942 C 283.933 0.565135 1.93413 0
M  V30 2943 O 282.989 0.0461484 2.52458 0
M  V30 2944 C 284.302 2.86042 0.927382 0
M  V30 2945 C 285.85 2.9565 1.02762 0
M  V30 2946 C 286.325 4.39843 1.27679 0
M  V30 2947 N 287.816 4.43256 1.34457 0
M  V30 2948 C 288.551 5.51929 1.55439 0
M  V30 2949 N 288.047 6.70655 1.73762 0
M  V30 2950 N 289.84 5.39502 1.57779 0
M  V30 2951 H 281.991 2.07888 -0.435457 0
M  V30 2952 H 284.254 0.938661 -0.132739 0
M  V30 2953 H 283.96 3.51557 0.100287 0
M  V30 2954 H 283.834 3.29472 1.83653 0
M  V30 2955 H 286.221 2.30291 1.84527 0
M  V30 2956 H 286.302 2.5562 0.0959504 0
M  V30 2957 H 285.946 5.05774 0.464175 0
M  V30 2958 H 285.876 4.77443 2.22162 0
M  V30 2959 H 288.367 3.5769 1.21926 0
M  V30 2960 H 288.68 7.49248 1.89335 0
M  V30 2961 H 287.025 6.73648 1.70948 0
M  V30 2962 H 290.216 4.45713 1.43029 0
M  V30 2963 H 290.389 6.2426 1.7379 0
M  V30 2964 N 283.795 -0.628877 1.44509 0
M  V30 2965 C 285.023 -1.41554 1.50897 0
M  V30 2966 C 285.438 -1.8832 0.134564 0
M  V30 2967 O 284.795 -1.60969 -0.859965 0
M  V30 2968 C 284.846 -2.63435 2.47556 0
M  V30 2969 O 284.567 -2.18619 3.79654 0
M  V30 2970 C 286.068 -3.56537 2.63431 0
M  V30 2971 H 283.288 -0.434044 0.511709 0
M  V30 2972 H 285.832 -0.768895 1.89495 0
M  V30 2973 H 283.987 -3.24187 2.12089 0
M  V30 2974 H 284.401 -2.97652 4.31861 0
M  V30 2975 H 285.875 -4.38657 3.35088 0
M  V30 2976 H 286.352 -4.05493 1.68738 0
M  V30 2977 H 286.958 -3.01653 2.9981 0
M  V30 2978 N 285.273 -1.31445 -0.869486 0
M  V30 2979 C 286.203 -1.21727 -1.99261 0
M  V30 2980 C 287.184 -0.104359 -1.6978 0
M  V30 2981 O 288.369 -0.289038 -1.92037 0
M  V30 2982 C 285.499 -0.924317 -3.34774 0
M  V30 2983 C 284.453 -1.99685 -3.78563 0
M  V30 2984 C 283.779 -1.55658 -5.11541 0
M  V30 2985 C 285.079 -3.41003 -3.95619 0
M  V30 2986 H 286.773 -2.1569 -2.07649 0
M  V30 2987 H 284.319 -1.03839 -0.997675 0
M  V30 2988 H 286.272 -0.842934 -4.12883 0
M  V30 2989 H 284.996 0.0509793 -3.2656 0
M  V30 2990 H 283.655 -2.06813 -3.02694 0
M  V30 2991 H 283.303 -0.569132 -4.9977 0
M  V30 2992 H 283.003 -2.27409 -5.41811 0
M  V30 2993 H 284.527 -1.48928 -5.92159 0
M  V30 2994 H 285.941 -3.36547 -4.64122 0
M  V30 2995 H 284.338 -4.10975 -4.37286 0
M  V30 2996 H 285.408 -3.81754 -2.98985 0
M  V30 2997 N 286.751 1.08385 -1.14413 0
M  V30 2998 C 288.167 1.32844 -0.884563 0
M  V30 2999 C 288.367 1.95841 0.474181 0
M  V30 3000 O 287.423 2.21158 1.21842 0
M  V30 3001 C 288.736 2.22978 -2.01745 0
M  V30 3002 C 290.284 2.36458 -2.05077 0
M  V30 3003 C 290.759 3.29934 -3.1766 0
M  V30 3004 N 292.25 3.37511 -3.17239 0
M  V30 3005 C 292.985 4.09871 -4.0099 0
M  V30 3006 N 292.481 4.84936 -4.94781 0
M  V30 3007 N 294.274 4.05704 -3.89051 0
M  V30 3008 H 286.425 0.658756 -2.01926 0
M  V30 3009 H 288.688 0.352821 -0.879899 0
M  V30 3010 H 288.394 1.83934 -2.99769 0
M  V30 3011 H 288.268 3.23441 -1.94077 0
M  V30 3012 H 290.655 2.7476 -1.0766 0
M  V30 3013 H 290.736 1.35736 -2.16816 0
M  V30 3014 H 290.38 2.92352 -4.15322 0
M  V30 3015 H 290.31 4.30584 -3.03158 0
M  V30 3016 H 292.801 2.83996 -2.49308 0
M  V30 3017 H 293.114 5.37612 -5.55151 0
M  V30 3018 H 291.459 4.83988 -4.98779 0
M  V30 3019 H 294.65 3.46167 -3.15097 0
M  V30 3020 H 294.823 4.61834 -4.54547 0
M  V30 3021 N 288.23 0.939286 1.26551 0
M  V30 3022 C 289.16 0.465044 2.28822 0
M  V30 3023 C 290.141 -0.480692 1.63167 0
M  V30 3024 O 291.326 -0.382955 1.90387 0
M  V30 3025 C 288.456 -0.27234 3.46231 0
M  V30 3026 C 287.41 0.58666 4.2396 0
M  V30 3027 C 286.736 -0.280573 5.33963 0
M  V30 3028 C 288.036 1.85704 4.88171 0
M  V30 3029 H 289.73 1.31979 2.68741 0
M  V30 3030 H 287.276 0.636061 1.29191 0
M  V30 3031 H 289.229 -0.615133 4.16886 0
M  V30 3032 H 287.953 -1.16121 3.0526 0
M  V30 3033 H 286.612 0.91232 3.55067 0
M  V30 3034 H 286.26 -1.16874 4.89234 0
M  V30 3035 H 285.96 0.29076 5.8688 0
M  V30 3036 H 287.484 -0.618678 6.07458 0
M  V30 3037 H 288.898 1.58161 5.51052 0
M  V30 3038 H 287.295 2.37279 5.51197 0
M  V30 3039 H 288.365 2.56957 4.11219 0
M  V30 3040 N 289.708 -1.40897 0.706093 0
M  V30 3041 C 290.638 -2.33418 0.0620085 0
M  V30 3042 C 291.619 -1.52385 -0.755827 0
M  V30 3043 O 292.804 -1.80886 -0.706674 0
M  V30 3044 C 289.934 -3.36293 -0.867445 0
M  V30 3045 C 288.888 -4.27716 -0.155932 0
M  V30 3046 C 288.214 -5.2105 -1.20046 0
M  V30 3047 C 289.514 -5.12944 0.984149 0
M  V30 3048 H 291.208 -2.87527 0.83477 0
M  V30 3049 H 288.754 -1.38249 0.402875 0
M  V30 3050 H 290.707 -3.99949 -1.32735 0
M  V30 3051 H 289.431 -2.80556 -1.67199 0
M  V30 3052 H 288.09 -3.65498 0.284047 0
M  V30 3053 H 287.738 -4.61624 -1.99781 0
M  V30 3054 H 287.438 -5.83056 -0.729328 0
M  V30 3055 H 288.962 -5.87584 -1.66066 0
M  V30 3056 H 290.376 -5.70109 0.604048 0
M  V30 3057 H 288.773 -5.83945 1.38304 0
M  V30 3058 H 289.843 -4.49485 1.81911 0
M  V30 3059 N 291.186 -0.45159 -1.50991 0
M  V30 3060 C 292.119 0.398179 -2.24699 0
M  V30 3061 C 293.097 1.01276 -1.27208 0
M  V30 3062 O 294.281 1.05247 -1.56382 0
M  V30 3063 C 291.408 1.55618 -3.00833 0
M  V30 3064 C 290.454 1.0609 -4.13095 0
M  V30 3065 S 291.287 -0.00865136 -5.35499 0
M  V30 3066 C 292.443 1.15369 -6.15175 0
M  V30 3067 H 292.676 -0.227555 -2.96428 0
M  V30 3068 H 290.209 -0.236251 -1.52582 0
M  V30 3069 H 292.167 2.21997 -3.45293 0
M  V30 3070 H 290.828 2.15337 -2.28667 0
M  V30 3071 H 290.021 1.92726 -4.65696 0
M  V30 3072 H 289.623 0.47513 -3.7097 0
M  V30 3073 H 291.915 2.06925 -6.45126 0
M  V30 3074 H 292.858 0.667344 -7.04948 0
M  V30 3075 H 293.266 1.3987 -5.46897 0
M  V30 3076 N 292.664 1.56529 -0.183458 0
M  V30 3077 C 293.889 2.02064 0.467428 0
M  V30 3078 C 294.314 1.06282 1.55196 0
M  V30 3079 O 293.672 0.0443565 1.81246 0
M  V30 3080 C 293.72 3.46122 1.01153 0
M  V30 3081 O 292.824 3.53437 2.12499 0
M  V30 3082 H 292.165 0.654726 0.110588 0
M  V30 3083 H 294.695 2.02521 -0.290917 0
M  V30 3084 H 294.705 3.85676 1.33108 0
M  V30 3085 H 293.38 4.15331 0.217533 0
M  V30 3086 H 291.957 3.2575 1.81497 0
M  V30 3087 N 294.142 -0.090211 1.57342 0
M  V30 3088 C 295.074 -1.13541 1.99101 0
M  V30 3089 C 296.087 -1.3604 0.894258 0
M  V30 3090 O 297.276 -1.34606 1.17233 0
M  V30 3091 C 294.376 -2.49001 2.29895 0
M  V30 3092 C 293.549 -2.46712 3.61182 0
M  V30 3093 C 292.608 -3.64136 3.79857 0
M  V30 3094 O 291.634 -3.46405 4.51655 0
M  V30 3095 N 292.836 -4.83802 3.20806 0
M  V30 3096 H 295.601 -0.779942 2.89373 0
M  V30 3097 H 293.162 -0.279125 1.59476 0
M  V30 3098 H 295.154 -3.26166 2.39578 0
M  V30 3099 H 293.724 -2.76619 1.45605 0
M  V30 3100 H 292.944 -1.55058 3.62423 0
M  V30 3101 H 294.232 -2.42265 4.4742 0
M  V30 3102 H 293.63 -5.01112 2.62494 0
M  V30 3103 H 292.187 -5.58543 3.35966 0
M  V30 3104 N 295.62 -1.53406 -0.361157 0
M  V30 3105 C 296.85 -1.73465 -1.1222 0
M  V30 3106 C 297.258 -0.465486 -1.83384 0
M  V30 3107 O 296.601 0.571611 -1.7458 0
M  V30 3108 C 296.663 -2.84834 -2.19339 0
M  V30 3109 C 296.327 -4.25038 -1.67903 0
M  V30 3110 C 297.324 -5.07231 -1.14074 0
M  V30 3111 C 295.009 -4.71464 -1.73282 0
M  V30 3112 C 297.003 -6.33942 -0.663068 0
M  V30 3113 C 294.69 -5.98153 -1.25127 0
M  V30 3114 C 295.688 -6.79223 -0.717296 0
M  V30 3115 O 295.376 -8.03533 -0.242865 0
M  V30 3116 H 295.108 -0.583526 -0.341283 0
M  V30 3117 H 297.662 -2.00964 -0.424591 0
M  V30 3118 H 295.892 -2.5282 -2.92607 0
M  V30 3119 H 297.581 -2.9303 -2.80871 0
M  V30 3120 H 298.347 -4.72534 -1.09254 0
M  V30 3121 H 294.226 -4.08432 -2.13786 0
M  V30 3122 H 297.77 -6.97167 -0.245612 0
M  V30 3123 H 293.667 -6.32347 -1.29642 0
M  V30 3124 H 294.435 -8.177 -0.361786 0
M  V30 3125 N 297.098 0.621204 -1.44841 0
M  V30 3126 C 298.346 1.37783 -1.47852 0
M  V30 3127 C 298.667 1.94653 -0.116224 0
M  V30 3128 O 297.937 1.76367 0.852737 0
M  V30 3129 H 296.517 0.511453 -0.544449 0
M  V30 3130 H 299.179 0.730446 -1.80694 0
M  V30 3131 H 298.275 2.20414 -2.20961 0
M  V30 3132 N 298.576 1.31904 0.862503 0
M  V30 3133 C 299.526 1.16772 1.95827 0
M  V30 3134 C 300.51 0.0767098 1.60717 0
M  V30 3135 O 301.702 0.302407 1.74398 0
M  V30 3136 C 298.831 0.884858 3.317 0
M  V30 3137 C 297.917 2.0172 3.73055 0
M  V30 3138 N 298.308 3.265 3.86305 0
M  V30 3139 C 296.606 1.91861 4.02623 0
M  V30 3140 C 297.307 4.00616 4.2176 0
M  V30 3141 N 296.283 3.28847 4.32852 0
M  V30 3142 H 300.085 2.11382 2.04193 0
M  V30 3143 H 297.599 1.2357 1.05377 0
M  V30 3144 H 299.596 0.757419 4.09962 0
M  V30 3145 H 298.256 -0.0529448 3.24657 0
M  V30 3146 H 299.267 3.61529 3.70833 0
M  V30 3147 H 295.944 1.05593 4.03926 0
M  V30 3148 H 297.334 5.08182 4.39546 0
M  V30 3149 N 300.054 -1.07777 1.14986 0
M  V30 3150 C 301.301 -1.8029 0.922056 0
M  V30 3151 C 301.629 -1.86531 -0.55105 0
M  V30 3152 O 300.884 -1.34189 -1.42449 0
M  V30 3153 C 301.183 -3.25495 1.47608 0
M  V30 3154 C 300.849 -3.39361 2.96893 0
M  V30 3155 C 299.511 -3.42852 3.37647 0
M  V30 3156 C 301.863 -3.42512 3.92854 0
M  V30 3157 C 299.191 -3.47094 4.73015 0
M  V30 3158 C 301.543 -3.4829 5.28088 0
M  V30 3159 C 300.207 -3.50058 5.68345 0
M  V30 3160 H 299.477 -0.659727 0.337404 0
M  V30 3161 H 302.124 -1.26854 1.43459 0
M  V30 3162 H 300.429 -3.81683 0.88463 0
M  V30 3163 H 302.126 -3.80168 1.27568 0
M  V30 3164 H 298.716 -3.37339 2.64387 0
M  V30 3165 H 302.9 -3.3904 3.62444 0
M  V30 3166 H 298.156 -3.46758 5.03556 0
M  V30 3167 H 302.33 -3.49675 6.02246 0
M  V30 3168 H 299.957 -3.53097 6.73221 0
M  V30 3169 N 301.532 -0.945985 -1.26051 0
M  V30 3170 C 302.943 -0.638096 -1.75457 0
M  V30 3171 C 303.294 0.846672 -1.76991 0
M  V30 3172 O 302.419 1.66262 -1.38513 0
M  V30 3173 C 303.014 -1.15157 -3.18629 0
M  V30 3174 C 301.573 -0.894004 -3.65629 0
M  V30 3175 C 300.72 -1.29967 -2.44957 0
M  V30 3176 H 303.671 -1.12376 -1.1206 0
M  V30 3177 H 303.692 -0.507615 -3.77099 0
M  V30 3178 H 303.204 -2.23222 -3.1748 0
M  V30 3179 H 301.305 0.172057 -3.72203 0
M  V30 3180 H 301.418 -1.52439 -4.54202 0
M  V30 3181 H 299.782 -0.718078 -2.44368 0
M  V30 3182 H 300.565 -2.38935 -2.46505 0
M  V30 3183 N 303.011 1.40521 -0.713556 0
M  V30 3184 C 304.258 2.00923 -0.25219 0
M  V30 3185 C 304.586 1.56571 1.15395 0
M  V30 3186 O 303.841 0.775874 1.79663 0
M  V30 3187 C 304.14 3.56317 -0.278 0
M  V30 3188 C 303.806 4.20246 -1.63415 0
M  V30 3189 C 302.468 4.37422 -2.00538 0
M  V30 3190 C 304.82 4.55923 -2.52554 0
M  V30 3191 C 302.148 4.87558 -3.2635 0
M  V30 3192 C 304.5 5.07458 -3.77716 0
M  V30 3193 C 303.164 5.22843 -4.14959 0
M  V30 3194 H 302.434 0.735231 -0.0922829 0
M  V30 3195 H 305.081 1.68161 -0.916188 0
M  V30 3196 H 303.386 3.88976 0.469567 0
M  V30 3197 H 305.083 4.00883 0.0967819 0
M  V30 3198 H 301.673 4.07263 -1.33546 0
M  V30 3199 H 305.857 4.42291 -2.25149 0
M  V30 3200 H 301.113 4.97654 -3.55176 0
M  V30 3201 H 305.287 5.34041 -4.4696 0
M  V30 3202 H 302.914 5.61454 -5.12516 0
M  V30 3203 N 304.489 0.459591 1.5075 0
M  V30 3204 C 305.736 -0.0993495 2.02256 0
M  V30 3205 C 306.064 -1.40751 1.34237 0
M  V30 3206 O 305.319 -1.90379 0.453228 0
M  V30 3207 C 305.618 -0.342866 3.55752 0
M  V30 3208 C 305.284 0.88218 4.42186 0
M  V30 3209 C 303.946 1.21808 4.65528 0
M  V30 3210 C 306.298 1.69837 4.92752 0
M  V30 3211 C 303.626 2.37045 5.36681 0
M  V30 3212 C 305.978 2.84192 5.65171 0
M  V30 3213 C 304.642 3.1821 5.8677 0
M  V30 3214 H 303.912 -0.0363545 0.740108 0
M  V30 3215 H 306.559 0.611329 1.8148 0
M  V30 3216 H 304.864 -1.13567 3.7498 0
M  V30 3217 H 306.561 -0.789121 3.93159 0
M  V30 3218 H 303.151 0.610467 4.2423 0
M  V30 3219 H 307.335 1.45205 4.74583 0
M  V30 3220 H 302.591 2.63689 5.51614 0
M  V30 3221 H 306.765 3.4779 6.03337 0
M  V30 3222 H 304.392 4.07613 6.41682 0
M  V30 3223 N 305.967 -1.56429 0.191757 0
M  V30 3224 C 307.383 -1.58754 -0.164137 0
M  V30 3225 C 307.583 -1.20782 -1.61288 0
M  V30 3226 O 306.639 -0.928999 -2.34789 0
M  V30 3227 C 307.952 -3.00396 0.135195 0
M  V30 3228 C 309.5 -3.1291 0.0750351 0
M  V30 3229 C 309.975 -4.56679 0.347632 0
M  V30 3230 N 311.466 -4.62252 0.296131 0
M  V30 3231 C 312.201 -5.71379 0.480948 0
M  V30 3232 N 311.697 -6.88986 0.725933 0
M  V30 3233 N 313.49 -5.60563 0.415435 0
M  V30 3234 H 305.641 -1.79393 1.13718 0
M  V30 3235 H 307.904 -0.832414 0.453643 0
M  V30 3236 H 307.61 -3.32726 1.13958 0
M  V30 3237 H 307.484 -3.72963 -0.563773 0
M  V30 3238 H 309.871 -2.80394 -0.919948 0
M  V30 3239 H 309.952 -2.42736 0.807029 0
M  V30 3240 H 309.596 -4.89907 1.33992 0
M  V30 3241 H 309.526 -5.25039 -0.405212 0
M  V30 3242 H 312.017 -3.7773 0.113259 0
M  V30 3243 H 312.33 -7.68046 0.855857 0
M  V30 3244 H 310.675 -6.90801 0.762788 0
M  V30 3245 H 313.866 -4.67561 0.224486 0
M  V30 3246 H 314.039 -6.45551 0.562889 0
M  V30 3247 N 307.445 0.0818655 -1.57387 0
M  V30 3248 C 308.408 1.08265 -2.02018 0
M  V30 3249 C 309.408 1.32183 -0.915664 0
M  V30 3250 O 310.598 1.28073 -1.18081 0
M  V30 3251 C 307.73 2.42871 -2.39221 0
M  V30 3252 H 308.923 0.698204 -2.91659 0
M  V30 3253 H 306.476 0.327303 -1.52835 0
M  V30 3254 H 307.211 2.86167 -1.52575 0
M  V30 3255 H 306.996 2.26855 -3.19811 0
M  V30 3256 H 308.486 3.14826 -2.74362 0
M  V30 3257 N 308.923 1.53595 0.353017 0
M  V30 3258 C 310.153 1.74058 1.11299 0
M  V30 3259 C 310.561 0.475205 1.83135 0
M  V30 3260 O 309.904 -0.562344 1.74881 0
M  V30 3261 C 309.966 2.85994 2.17825 0
M  V30 3262 C 309.63 4.25923 1.65647 0
M  V30 3263 C 310.627 5.07829 1.11383 0
M  V30 3264 C 308.312 4.72377 1.7078 0
M  V30 3265 C 310.306 6.34285 0.629439 0
M  V30 3266 C 307.993 5.98808 1.21953 0
M  V30 3267 C 308.991 6.79594 0.681265 0
M  V30 3268 O 308.679 8.03651 0.200248 0
M  V30 3269 H 308.411 0.585327 0.338183 0
M  V30 3270 H 310.965 2.01186 0.413927 0
M  V30 3271 H 309.195 2.54368 2.91262 0
M  V30 3272 H 310.884 2.94515 2.79313 0
M  V30 3273 H 311.65 4.73107 1.06746 0
M  V30 3274 H 307.529 4.0956 2.11617 0
M  V30 3275 H 311.073 6.97288 0.208636 0
M  V30 3276 H 306.97 6.33026 1.26287 0
M  V30 3277 H 307.738 8.1788 0.318416 0
M  V30 3278 N 310.401 -0.613514 1.45168 0
M  V30 3279 C 311.331 -1.7354 1.56225 0
M  V30 3280 C 312.312 -1.64981 0.41414 0
M  V30 3281 O 313.497 -1.83472 0.636526 0
M  V30 3282 C 310.627 -3.12128 1.52295 0
M  V30 3283 C 309.581 -3.35491 2.65762 0
M  V30 3284 C 308.907 -4.74291 2.46885 0
M  V30 3285 C 310.207 -3.26325 4.0781 0
M  V30 3286 H 311.901 -1.64543 2.50132 0
M  V30 3287 H 309.447 -0.790185 1.20383 0
M  V30 3288 H 311.4 -3.90404 1.58628 0
M  V30 3289 H 310.124 -3.2195 0.549139 0
M  V30 3290 H 308.783 -2.59603 2.58847 0
M  V30 3291 H 308.431 -4.80839 1.47657 0
M  V30 3292 H 308.131 -4.9088 3.22972 0
M  V30 3293 H 309.655 -5.54775 2.55063 0
M  V30 3294 H 311.069 -3.94483 4.16 0
M  V30 3295 H 309.466 -3.54445 4.8424 0
M  V30 3296 H 310.536 -2.23855 4.30136 0
M  V30 3297 N 311.879 -1.3236 -0.855495 0
M  V30 3298 C 313.127 -1.22629 -1.60644 0
M  V30 3299 C 313.448 0.212136 -1.93843 0
M  V30 3300 O 312.718 1.13666 -1.59552 0
M  V30 3301 H 311.298 -0.450882 -0.595579 0
M  V30 3302 H 313.96 -1.65871 -1.02337 0
M  V30 3303 H 313.056 -1.80832 -2.54374 0
M  V30 3304 N 313.357 1.07166 -1.15556 0
M  V30 3305 C 314.768 1.6127 -0.940693 0
M  V30 3306 C 315.119 1.89251 0.517551 0
M  V30 3307 O 314.244 1.65937 1.38903 0
M  V30 3308 C 314.839 2.92993 -1.7012 0
M  V30 3309 C 313.398 3.43832 -1.53156 0
M  V30 3310 C 312.545 2.1786 -1.71558 0
M  V30 3311 H 315.496 0.90229 -1.30554 0
M  V30 3312 H 315.517 3.62007 -1.17181 0
M  V30 3313 H 315.029 2.72596 -2.76248 0
M  V30 3314 H 313.13 3.69307 -0.494294 0
M  V30 3315 H 313.243 4.19747 -2.30975 0
M  V30 3316 H 311.607 2.2765 -1.14225 0
M  V30 3317 H 312.39 1.99956 -2.79056 0
M  V30 3318 N 314.835 0.952656 1.25548 0
M  V30 3319 C 315.785 0.442033 2.23674 0
M  V30 3320 C 316.769 -0.467632 1.53955 0
M  V30 3321 O 317.961 -0.301006 1.74422 0
M  V30 3322 C 315.09 -0.280816 3.4215 0
M  V30 3323 C 314.176 0.646803 4.19139 0
M  V30 3324 N 314.567 1.77759 4.73535 0
M  V30 3325 C 312.865 0.454617 4.43677 0
M  V30 3326 C 313.566 2.35658 5.31827 0
M  V30 3327 N 312.542 1.64333 5.18166 0
M  V30 3328 H 316.344 1.30505 2.63336 0
M  V30 3329 H 313.858 0.809904 1.40763 0
M  V30 3330 H 315.855 -0.663747 4.11582 0
M  V30 3331 H 314.515 -1.14046 3.04012 0
M  V30 3332 H 315.526 2.15949 4.7073 0
M  V30 3333 H 312.203 -0.362312 4.15925 0
M  V30 3334 H 313.593 3.30998 5.84713 0
M  V30 3335 N 316.313 -1.40141 0.720998 0
M  V30 3336 C 317.724 -1.83678 0.334553 0
M  V30 3337 C 318.075 -1.6027 -1.13173 0
M  V30 3338 O 317.2 -1.08643 -1.87152 0
M  V30 3339 C 317.795 -3.33437 0.600437 0
M  V30 3340 C 316.354 -3.75447 0.267642 0
M  V30 3341 C 315.501 -2.63296 0.870097 0
M  V30 3342 H 318.452 -1.29331 0.919732 0
M  V30 3343 H 318.473 -3.80269 -0.132517 0
M  V30 3344 H 317.985 -3.50442 1.66768 0
M  V30 3345 H 316.086 -3.64035 -0.794329 0
M  V30 3346 H 316.199 -4.73344 0.74042 0
M  V30 3347 H 314.563 -2.52954 0.297739 0
M  V30 3348 H 315.346 -2.83112 1.94172 0
M  V30 3349 N 317.792 -0.46758 -1.50504 0
M  V30 3350 C 318.755 0.317059 -2.26996 0
M  V30 3351 C 319.755 0.923513 -1.31635 0
M  V30 3352 O 320.945 0.793239 -1.55091 0
M  V30 3353 C 318.077 1.45134 -3.08462 0
M  V30 3354 H 319.27 -0.353723 -2.97807 0
M  V30 3355 H 316.823 -0.221545 -1.54722 0
M  V30 3356 H 317.558 2.15728 -2.4214 0
M  V30 3357 H 317.343 1.02232 -3.78538 0
M  V30 3358 H 318.833 2.00493 -3.66323 0
M  V30 3359 N 319.27 1.56325 -0.20005 0
M  V30 3360 C 320.495 2.02548 0.44597 0
M  V30 3361 C 320.92 1.07922 1.5406 0
M  V30 3362 O 320.278 0.0635775 1.81188 0
M  V30 3363 C 320.326 3.47175 0.974761 0
M  V30 3364 O 319.43 3.55671 2.08739 0
M  V30 3365 H 318.771 0.655862 0.103638 0
M  V30 3366 H 321.301 2.02201 -0.312381 0
M  V30 3367 H 321.311 3.87067 1.2901 0
M  V30 3368 H 319.986 4.15538 0.17347 0
M  V30 3369 H 318.563 3.27657 1.78032 0
M  V30 3370 N 320.748 -0.0735177 1.57428 0
M  V30 3371 C 322.159 -0.625551 1.75908 0
M  V30 3372 C 322.51 -1.78 0.825261 0
M  V30 3373 O 321.635 -2.16398 0.00893964 0
M  V30 3374 C 322.23 -1.14155 3.18989 0
M  V30 3375 C 320.789 -1.63946 3.38819 0
M  V30 3376 C 319.936 -0.558151 2.71625 0
M  V30 3377 H 322.887 0.152647 1.57964 0
M  V30 3378 H 322.908 -2.0104 3.23053 0
M  V30 3379 H 322.42 -0.301116 3.8693 0
M  V30 3380 H 320.521 -2.50321 2.7599 0
M  V30 3381 H 320.634 -1.71759 4.47253 0
M  V30 3382 H 318.998 -1.00278 2.34129 0
M  V30 3383 H 319.781 0.272071 3.4222 0
M  V30 3384 N 322.226 -1.5378 -0.344866 0
M  V30 3385 C 323.176 -1.78057 -1.42407 0
M  V30 3386 C 324.16 -0.635732 -1.47808 0
M  V30 3387 O 325.352 -0.89508 -1.527 0
M  V30 3388 C 322.481 -1.99242 -2.79566 0
M  V30 3389 C 321.567 -3.19787 -2.78562 0
M  V30 3390 N 321.958 -4.41284 -2.47189 0
M  V30 3391 C 320.256 -3.2093 -3.0971 0
M  V30 3392 C 320.957 -5.23128 -2.54385 0
M  V30 3393 N 319.933 -4.59813 -2.89953 0
M  V30 3394 H 323.735 -2.69588 -1.17046 0
M  V30 3395 H 321.249 -1.52687 -0.553217 0
M  V30 3396 H 323.246 -2.14768 -3.57324 0
M  V30 3397 H 321.906 -1.08953 -3.05875 0
M  V30 3398 H 322.917 -4.68657 -2.20411 0
M  V30 3399 H 319.594 -2.40603 -3.41199 0
M  V30 3400 H 320.984 -6.30096 -2.333 0
M  V30 3401 N 323.704 0.605807 -1.45491 0
M  V30 3402 C 324.932 1.39136 -1.5313 0
M  V30 3403 C 325.347 1.88082 -0.164507 0
M  V30 3404 O 324.704 1.62316 0.834247 0
M  V30 3405 C 324.755 2.59463 -2.51716 0
M  V30 3406 O 324.476 2.12551 -3.83084 0
M  V30 3407 C 325.977 3.52301 -2.6907 0
M  V30 3408 H 323.197 0.425849 -0.51855 0
M  V30 3409 H 325.741 0.73865 -1.90694 0
M  V30 3410 H 323.896 3.20772 -2.17219 0
M  V30 3411 H 324.31 2.90744 -4.36541 0
M  V30 3412 H 325.784 4.33271 -3.42024 0
M  V30 3413 H 326.261 4.02757 -1.75167 0
M  V30 3414 H 326.867 2.96845 -3.04571 0
M  V30 3415 N 325.182 1.32811 0.848464 0
M  V30 3416 C 326.593 1.21315 1.41914 0
M  V30 3417 C 326.944 -0.171847 1.95446 0
M  V30 3418 O 326.069 -1.07093 1.88043 0
M  V30 3419 C 326.664 2.19631 2.57968 0
M  V30 3420 C 325.223 2.12003 3.11017 0
M  V30 3421 C 324.37 2.07651 1.83783 0
M  V30 3422 H 327.321 1.44549 0.655071 0
M  V30 3423 H 327.342 1.79845 3.35315 0
M  V30 3424 H 326.854 3.20423 2.18976 0
M  V30 3425 H 324.955 1.14481 3.54577 0
M  V30 3426 H 325.068 3.02111 3.71841 0
M  V30 3427 H 323.432 1.52983 2.03638 0
M  V30 3428 H 324.215 3.10235 1.47 0
M  V30 3429 N 326.66 -1.06551 1.16123 0
M  V30 3430 C 327.906 -1.79567 0.94252 0
M  V30 3431 C 328.239 -1.86869 -0.528547 0
M  V30 3432 O 327.514 -1.35838 -1.39206 0
M  V30 3433 C 327.797 -3.24195 1.56747 0
M  V30 3434 C 327.65 -3.24989 3.10969 0
M  V30 3435 C 328.969 -4.21678 1.25998 0
M  V30 3436 H 326.088 -0.651883 0.343828 0
M  V30 3437 H 328.73 -1.2463 1.43413 0
M  V30 3438 H 326.88 -3.71107 1.14942 0
M  V30 3439 H 328.552 -2.86258 3.61737 0
M  V30 3440 H 326.795 -2.63716 3.44436 0
M  V30 3441 H 327.466 -4.27005 3.49815 0
M  V30 3442 H 329.942 -3.83196 1.62174 0
M  V30 3443 H 328.818 -5.21146 1.7233 0
M  V30 3444 H 329.079 -4.4174 0.178367 0
M  V30 3445 N 328.138 -0.959301 -1.25041 0
M  V30 3446 C 329.387 -0.612254 -1.92183 0
M  V30 3447 C 329.7 0.855347 -1.75907 0
M  V30 3448 O 330.906 1.31256 -2.37664 0
M  V30 3449 C 329.362 -1.04435 -3.44414 0
M  V30 3450 C 328.97 -2.53482 -3.69393 0
M  V30 3451 C 330.714 -0.770055 -4.17457 0
M  V30 3452 C 328.621 -2.90468 -5.15153 0
M  V30 3453 H 327.551 -0.225279 -0.719559 0
M  V30 3454 H 330.202 -1.16438 -1.41825 0
M  V30 3455 H 328.584 -0.4206 -3.9376 0
M  V30 3456 H 329.758 -3.20916 -3.30681 0
M  V30 3457 H 328.073 -2.78432 -3.0962 0
M  V30 3458 H 330.67 -1.02249 -5.24832 0
M  V30 3459 H 331.013 0.293611 -4.15263 0
M  V30 3460 H 331.546 -1.35437 -3.74034 0
M  V30 3461 H 328.285 -3.95871 -5.22462 0
M  V30 3462 H 327.805 -2.27711 -5.54894 0
M  V30 3463 H 329.484 -2.79914 -5.83315 0
M  V30 3464 N 329.616 1.39756 -0.72842 0
M  V30 3465 C 330.548 2.29157 -0.0446202 0
M  V30 3466 C 331.561 1.46484 0.710367 0
M  V30 3467 O 332.75 1.69632 0.55562 0
M  V30 3468 C 329.85 3.24987 0.961071 0
M  V30 3469 C 329.023 4.36572 0.268967 0
M  V30 3470 C 328.082 5.12756 1.18184 0
M  V30 3471 O 327.108 5.6534 0.661794 0
M  V30 3472 N 328.31 5.23331 2.51206 0
M  V30 3473 H 331.075 2.88482 -0.812295 0
M  V30 3474 H 328.636 1.51265 -0.577098 0
M  V30 3475 H 330.628 3.72827 1.57423 0
M  V30 3476 H 329.198 2.66739 1.63 0
M  V30 3477 H 328.418 3.90694 -0.524574 0
M  V30 3478 H 329.706 5.08363 -0.210934 0
M  V30 3479 H 329.104 4.82116 2.9594 0
M  V30 3480 H 327.661 5.74634 3.07634 0
M  V30 3481 N 331.094 0.475555 1.50254 0
M  V30 3482 C 332.343 -0.0795996 2.01543 0
M  V30 3483 C 332.656 -1.4038 1.36209 0
M  V30 3484 O 333.862 -2.04415 1.7868 0
M  V30 3485 C 332.318 -0.192363 3.59386 0
M  V30 3486 C 331.926 1.12367 4.33679 0
M  V30 3487 C 333.67 -0.699238 4.18701 0
M  V30 3488 C 331.577 0.974453 5.83317 0
M  V30 3489 H 330.507 -0.0335228 0.753254 0
M  V30 3490 H 333.158 0.611128 1.73025 0
M  V30 3491 H 331.54 -0.946974 3.84511 0
M  V30 3492 H 332.714 1.88958 4.20276 0
M  V30 3493 H 331.029 1.562 3.85993 0
M  V30 3494 H 333.626 -0.827978 5.28251 0
M  V30 3495 H 333.969 -1.69171 3.80377 0
M  V30 3496 H 334.502 -0.00188807 3.978 0
M  V30 3497 H 331.241 1.94042 6.26121 0
M  V30 3498 H 330.761 0.248998 5.99283 0
M  V30 3499 H 332.44 0.642867 6.43798 0
M  V30 3500 N 332.573 -1.56217 0.208337 0
M  V30 3501 C 333.85 -1.89739 -0.475234 0
M  V30 3502 C 334.23 -1.1238 -1.78701 0
M  V30 3503 O 333.578 -0.228979 -2.2735 0
M  V30 3504 C 333.788 -3.42289 -0.681101 0
M  V30 3505 C 335.136 -4.12789 -0.994507 0
M  V30 3506 O 336.16 -3.47814 -0.768357 0
M  V30 3507 O 335.019 -5.27649 -1.42299 0
M  V30 3508 H 332.113 -0.788478 -0.249461 0
M  V30 3509 H 334.659 -1.67855 0.249538 0
M  V30 3510 H 333.431 -3.90534 0.244722 0
M  V30 3511 H 333.054 -3.69909 -1.45785 0
M  V30 3512 N 334.051 0.0651679 -1.57465 0
M  V30 3513 C 334.983 1.10359 -2.00882 0
M  V30 3514 C 335.996 1.346 -0.915788 0
M  V30 3515 O 337.185 1.32723 -1.1936 0
M  V30 3516 C 334.285 2.45312 -2.33828 0
M  V30 3517 C 333.458 2.40934 -3.65061 0
M  V30 3518 C 332.517 3.58047 -3.85602 0
M  V30 3519 O 331.543 3.39175 -4.57109 0
M  V30 3520 N 332.745 4.78637 -3.28462 0
M  V30 3521 H 335.51 0.733807 -2.90578 0
M  V30 3522 H 333.071 0.253719 -1.599 0
M  V30 3523 H 335.063 3.22314 -2.44737 0
M  V30 3524 H 333.633 2.74267 -1.49988 0
M  V30 3525 H 332.853 1.49273 -3.64844 0
M  V30 3526 H 334.141 2.35117 -4.51218 0
M  V30 3527 H 333.539 4.96872 -2.70433 0
M  V30 3528 H 332.096 5.53127 -3.44809 0
M  V30 3529 N 335.529 1.53961 0.336706 0
M  V30 3530 C 336.94 1.62914 0.911925 0
M  V30 3531 C 337.291 0.514795 1.89326 0
M  V30 3532 O 336.416 -0.354395 2.13478 0
M  V30 3533 C 337.011 2.95304 1.66076 0
M  V30 3534 C 335.57 3.06496 2.18489 0
M  V30 3535 C 334.717 2.58403 1.00613 0
M  V30 3536 H 337.668 1.58285 0.114649 0
M  V30 3537 H 337.689 2.84727 2.5241 0
M  V30 3538 H 337.201 3.76387 0.946276 0
M  V30 3539 H 335.302 2.3006 2.93092 0
M  V30 3540 H 335.415 4.1208 2.44391 0
M  V30 3541 H 333.779 2.13977 1.38152 0
M  V30 3542 H 334.562 3.41932 0.306179 0
M  V30 3543 N 337.007 -0.598083 1.45811 0
M  V30 3544 C 337.917 -1.73632 1.57763 0
M  V30 3545 C 338.933 -1.67763 0.461676 0
M  V30 3546 O 340.109 -1.87949 0.723685 0
M  V30 3547 C 337.174 -3.10114 1.55018 0
M  V30 3548 C 336.235 -3.27364 2.77726 0
M  V30 3549 C 335.468 -4.57334 2.75102 0
M  V30 3550 O 335.691 -5.40258 1.8297 0
M  V30 3551 O 334.625 -4.77502 3.66437 0
M  V30 3552 H 338.451 -1.66498 2.53992 0
M  V30 3553 H 336.036 -0.763308 1.28429 0
M  V30 3554 H 337.918 -3.9141 1.56129 0
M  V30 3555 H 336.593 -3.17718 0.619431 0
M  V30 3556 H 335.5 -2.45619 2.82174 0
M  V30 3557 H 336.833 -3.24641 3.69958 0
M  V30 3558 N 338.485 -1.33259 -0.841409 0
M  V30 3559 C 339.732 -1.24572 -1.5965 0
M  V30 3560 C 340.06 0.189137 -1.93578 0
M  V30 3561 O 339.315 1.14566 -1.5866 0
M  V30 3562 C 339.614 -2.06381 -2.9179 0
M  V30 3563 C 339.28 -3.556 -2.77235 0
M  V30 3564 C 337.942 -3.96282 -2.72973 0
M  V30 3565 C 340.294 -4.50433 -2.62221 0
M  V30 3566 C 337.622 -5.30017 -2.51592 0
M  V30 3567 C 339.974 -5.84327 -2.42374 0
M  V30 3568 C 338.638 -6.24194 -2.36512 0
M  V30 3569 H 337.908 -0.455842 -0.5842 0
M  V30 3570 H 340.555 -1.6482 -0.975016 0
M  V30 3571 H 338.86 -1.58903 -3.5813 0
M  V30 3572 H 340.557 -1.97019 -3.49263 0
M  V30 3573 H 337.147 -3.23298 -2.81384 0
M  V30 3574 H 341.331 -4.19914 -2.64549 0
M  V30 3575 H 336.587 -5.59947 -2.45499 0
M  V30 3576 H 340.761 -6.57414 -2.29739 0
M  V30 3577 H 338.388 -7.27759 -2.19706 0
M  V30 3578 N 339.963 1.05934 -1.16686 0
M  V30 3579 C 341.24 1.75643 -0.860747 0
M  V30 3580 C 341.62 2.01144 0.640641 0
M  V30 3581 O 340.968 1.64147 1.58959 0
M  V30 3582 C 341.178 3.05493 -1.68745 0
M  V30 3583 C 342.526 3.79581 -1.90271 0
M  V30 3584 O 343.55 3.15344 -1.65641 0
M  V30 3585 O 342.409 4.9499 -2.31618 0
M  V30 3586 H 339.503 0.763426 -0.317977 0
M  V30 3587 H 342.049 1.1217 -1.27342 0
M  V30 3588 H 340.821 2.8264 -2.70611 0
M  V30 3589 H 340.444 3.76702 -1.27206 0
M  V30 3590 N 341.441 0.965919 1.2453 0
M  V30 3591 C 342.687 0.62776 1.92839 0
M  V30 3592 C 343.02 -0.834694 1.75347 0
M  V30 3593 O 342.295 -1.60031 1.10546 0
M  V30 3594 C 342.578 1.00109 3.45905 0
M  V30 3595 C 342.431 2.52011 3.72573 0
M  V30 3596 C 343.75 0.53435 4.36844 0
M  V30 3597 H 340.869 0.229537 0.700344 0
M  V30 3598 H 343.511 1.2046 1.46933 0
M  V30 3599 H 341.661 0.510238 3.85135 0
M  V30 3600 H 343.333 3.08559 3.42912 0
M  V30 3601 H 341.576 2.95287 3.17786 0
M  V30 3602 H 342.247 2.73183 4.79661 0
M  V30 3603 H 344.723 0.955565 4.04979 0
M  V30 3604 H 343.599 0.824152 5.42678 0
M  V30 3605 H 343.86 -0.565589 4.38467 0
M  V30 3606 N 342.919 -1.39368 0.735821 0
M  V30 3607 C 344.33 -1.83313 0.354015 0
M  V30 3608 C 344.681 -1.61461 -1.11466 0
M  V30 3609 O 343.806 -1.10621 -1.85989 0
M  V30 3610 C 344.401 -3.32781 0.635769 0
M  V30 3611 C 342.96 -3.75142 0.307448 0
M  V30 3612 C 342.107 -2.62358 0.897974 0
M  V30 3613 H 345.058 -1.28349 0.933398 0
M  V30 3614 H 345.079 -3.80388 -0.0921773 0
M  V30 3615 H 344.591 -3.48654 1.70476 0
M  V30 3616 H 342.692 -3.64857 -0.755674 0
M  V30 3617 H 342.805 -4.72532 0.790583 0
M  V30 3618 H 341.169 -2.52624 0.324551 0
M  V30 3619 H 341.952 -2.81036 1.97164 0
M  V30 3620 N 344.397 -0.483516 -1.5 0
M  V30 3621 C 345.327 0.293829 -2.31644 0
M  V30 3622 C 346.308 0.978864 -1.39112 0
M  V30 3623 O 347.493 0.973644 -1.68029 0
M  V30 3624 C 344.623 1.36897 -3.19181 0
M  V30 3625 C 343.577 0.804833 -4.20365 0
M  V30 3626 C 342.903 1.9792 -4.96721 0
M  V30 3627 C 344.203 -0.192313 -5.21946 0
M  V30 3628 H 345.897 -0.387616 -2.9688 0
M  V30 3629 H 343.443 -0.187856 -1.42769 0
M  V30 3630 H 345.396 1.92037 -3.751 0
M  V30 3631 H 344.12 2.07936 -2.51853 0
M  V30 3632 H 342.779 0.275319 -3.65565 0
M  V30 3633 H 342.427 2.67686 -4.25856 0
M  V30 3634 H 342.127 1.60789 -5.65173 0
M  V30 3635 H 343.651 2.53526 -5.55479 0
M  V30 3636 H 345.065 0.270333 -5.72662 0
M  V30 3637 H 343.462 -0.478543 -5.98189 0
M  V30 3638 H 344.532 -1.11409 -4.71928 0
M  V30 3639 N 345.875 1.56104 -0.216619 0
M  V30 3640 C 346.822 2.2007 0.695531 0
M  V30 3641 C 347.792 1.15471 1.19397 0
M  V30 3642 O 348.977 1.43807 1.25396 0
M  V30 3643 C 346.117 2.88073 1.90021 0
M  V30 3644 C 345.23 4.07253 1.44113 0
M  V30 3645 C 344.365 4.63052 2.603 0
M  V30 3646 C 343.404 5.74545 2.11103 0
M  V30 3647 N 342.541 6.24656 3.20545 0
M  V30 3648 H 347.381 2.97655 0.143327 0
M  V30 3649 H 344.918 1.46982 0.0589934 0
M  V30 3650 H 346.876 3.25681 2.60745 0
M  V30 3651 H 345.506 2.13015 2.42538 0
M  V30 3652 H 344.558 3.75164 0.628999 0
M  V30 3653 H 345.87 4.8783 1.04036 0
M  V30 3654 H 345.024 5.03078 3.39113 0
M  V30 3655 H 343.763 3.81628 3.03663 0
M  V30 3656 H 342.768 5.34027 1.3075 0
M  V30 3657 H 343.993 6.57801 1.68746 0
M  V30 3658 H 341.939 5.46148 3.63399 0
M  V30 3659 H 341.856 7.00343 2.84704 0
M  V30 3660 H 343.124 6.69338 3.99508 0
M  V30 3661 N 347.353 -0.0568162 1.57498 0
M  V30 3662 C 348.285 -1.09292 2.01464 0
M  V30 3663 C 349.298 -1.34112 0.922913 0
M  V30 3664 O 350.487 -1.32089 1.20062 0
M  V30 3665 C 347.587 -2.44068 2.35125 0
M  V30 3666 C 346.76 -2.38995 3.66333 0
M  V30 3667 C 345.819 -3.55997 3.87495 0
M  V30 3668 O 344.845 -3.36746 4.58901 0
M  V30 3669 N 346.047 -4.76888 3.30996 0
M  V30 3670 H 348.812 -0.718386 2.90963 0
M  V30 3671 H 346.373 -0.245235 1.60032 0
M  V30 3672 H 348.365 -3.21011 2.46443 0
M  V30 3673 H 346.935 -2.73468 1.5144 0
M  V30 3674 H 346.155 -1.47336 3.65631 0
M  V30 3675 H 347.443 -2.3272 4.52458 0
M  V30 3676 H 346.841 -4.95431 2.73065 0
M  V30 3677 H 345.398 -5.51291 3.47738 0
M  V30 3678 N 348.832 -1.54138 -0.328536 0
M  V30 3679 C 350.109 -1.62749 -1.08499 0
M  V30 3680 C 350.489 -0.458198 -2.06067 0
M  V30 3681 O 349.837 0.548046 -2.2183 0
M  V30 3682 C 350.047 -2.99519 -1.79135 0
M  V30 3683 C 351.395 -3.55394 -2.32337 0
M  V30 3684 O 352.419 -3.01792 -1.89209 0
M  V30 3685 O 351.278 -4.49186 -3.11279 0
M  V30 3686 H 348.372 -0.65886 -0.499832 0
M  V30 3687 H 350.918 -1.66484 -0.328826 0
M  V30 3688 H 349.69 -3.76061 -1.08139 0
M  V30 3689 H 349.313 -2.99441 -2.61574 0
M  V30 3690 N 350.31 0.590341 -1.46126 0
M  V30 3691 C 351.242 1.71427 -1.52136 0
M  V30 3692 C 352.255 1.57542 -0.41042 0
M  V30 3693 O 353.444 1.65106 -0.678389 0
M  V30 3694 C 350.544 3.09605 -1.37834 0
M  V30 3695 C 349.717 3.49566 -2.62912 0
M  V30 3696 C 348.776 4.66773 -2.42918 0
M  V30 3697 O 347.802 4.73019 -3.1661 0
M  V30 3698 N 349.004 5.61161 -1.4859 0
M  V30 3699 H 351.769 1.66728 -2.49042 0
M  V30 3700 H 349.33 0.776113 -1.42085 0
M  V30 3701 H 351.322 3.85796 -1.22243 0
M  V30 3702 H 349.892 3.08714 -0.491393 0
M  V30 3703 H 349.112 2.63158 -2.93499 0
M  V30 3704 H 350.4 3.73028 -3.46017 0
M  V30 3705 H 349.798 5.58844 -0.87808 0
M  V30 3706 H 348.355 6.36814 -1.38965 0
M  V30 3707 N 351.788 1.33704 0.83433 0
M  V30 3708 C 352.698 1.26382 1.97648 0
M  V30 3709 C 353.714 0.173548 1.73132 0
M  V30 3710 O 354.89 0.397962 1.97429 0
M  V30 3711 C 351.955 1.00769 3.31733 0
M  V30 3712 C 351.016 2.1884 3.69334 0
M  V30 3713 C 350.249 1.9444 4.9702 0
M  V30 3714 O 350.472 0.896961 5.63303 0
M  V30 3715 O 349.406 2.81093 5.32231 0
M  V30 3716 H 353.232 2.22444 2.06767 0
M  V30 3717 H 350.817 1.13795 0.968037 0
M  V30 3718 H 352.699 0.882186 4.12062 0
M  V30 3719 H 351.374 0.0773783 3.23608 0
M  V30 3720 H 350.281 2.36946 2.89495 0
M  V30 3721 H 351.614 3.10221 3.82131 0
M  V30 3722 N 353.266 -1.05314 1.17247 0
M  V30 3723 C 354.198 -2.13023 0.845812 0
M  V30 3724 C 355.211 -1.62096 -0.151246 0
M  V30 3725 O 356.4 -1.78343 0.0748818 0
M  V30 3726 C 353.5 -3.38047 0.240292 0
M  V30 3727 C 352.673 -4.18255 1.27991 0
M  V30 3728 C 351.732 -5.21625 0.692375 0
M  V30 3729 O 350.758 -5.52619 1.36385 0
M  V30 3730 N 351.96 -5.78201 -0.516178 0
M  V30 3731 H 354.725 -2.41642 1.77283 0
M  V30 3732 H 352.286 -1.21401 1.07115 0
M  V30 3733 H 354.278 -4.04359 -0.16603 0
M  V30 3734 H 352.848 -3.06972 -0.590487 0
M  V30 3735 H 352.068 -3.47451 1.86203 0
M  V30 3736 H 353.356 -4.68643 1.98119 0
M  V30 3737 H 352.754 -5.55301 -1.07969 0
M  V30 3738 H 351.311 -6.4604 -0.86458 0
M  V30 3739 N 354.744 -0.972509 -1.24016 0
M  V30 3740 C 355.691 -0.505969 -2.25186 0
M  V30 3741 C 356.661 0.451009 -1.5986 0
M  V30 3742 O 357.846 0.360307 -1.87367 0
M  V30 3743 C 354.986 0.193089 -3.44559 0
M  V30 3744 C 354.099 -0.803222 -4.24467 0
M  V30 3745 C 353.234 -0.0797793 -5.3114 0
M  V30 3746 C 352.273 -1.06583 -6.02749 0
M  V30 3747 N 351.41 -0.372074 -7.01113 0
M  V30 3748 H 356.25 -1.37351 -2.64459 0
M  V30 3749 H 353.787 -0.688419 -1.29997 0
M  V30 3750 H 355.745 0.615125 -4.1264 0
M  V30 3751 H 354.375 1.02455 -3.06109 0
M  V30 3752 H 353.427 -1.34368 -3.55878 0
M  V30 3753 H 354.739 -1.55494 -4.73944 0
M  V30 3754 H 353.893 0.400015 -6.0538 0
M  V30 3755 H 352.632 0.704597 -4.82583 0
M  V30 3756 H 351.637 -1.55645 -5.27309 0
M  V30 3757 H 352.862 -1.85074 -6.53395 0
M  V30 3758 H 350.808 0.393238 -6.5482 0
M  V30 3759 H 350.725 -1.06258 -7.48495 0
M  V30 3760 H 351.993 0.0855932 -7.79453 0
M  V30 3761 N 356.222 1.38976 -0.743202 0
M  V30 3762 C 357.471 1.99581 -0.291592 0
M  V30 3763 C 357.784 1.59656 1.13001 0
M  V30 3764 O 358.99 2.13157 1.68156 0
M  V30 3765 C 357.446 3.56813 -0.470391 0
M  V30 3766 C 357.054 4.05695 -1.90041 0
M  V30 3767 C 358.798 4.24423 -0.0809709 0
M  V30 3768 C 356.705 5.5553 -2.02832 0
M  V30 3769 H 355.635 0.746615 -0.105272 0
M  V30 3770 H 358.286 1.58872 -0.918258 0
M  V30 3771 H 356.668 3.95359 0.225299 0
M  V30 3772 H 357.842 3.78464 -2.62872 0
M  V30 3773 H 356.157 3.50775 -2.24379 0
M  V30 3774 H 358.754 5.34474 -0.155445 0
M  V30 3775 H 359.097 4.04962 0.96497 0
M  V30 3776 H 359.63 3.9108 -0.728124 0
M  V30 3777 H 356.369 5.79881 -3.05643 0
M  V30 3778 H 355.889 5.84537 -1.34448 0
M  V30 3779 H 357.568 6.21069 -1.81335 0
M  V30 3780 N 357.7 0.491464 1.49741 0
M  V30 3781 C 358.93 -0.0534375 2.06531 0
M  V30 3782 C 359.338 -1.32233 1.35318 0
M  V30 3783 O 358.681 -1.78781 0.422243 0
M  V30 3784 C 358.743 -0.387034 3.57411 0
M  V30 3785 C 358.407 0.782764 4.50246 0
M  V30 3786 C 359.404 1.67059 4.92329 0
M  V30 3787 C 357.089 0.978866 4.9267 0
M  V30 3788 C 359.083 2.73874 5.75562 0
M  V30 3789 C 356.77 2.05022 5.75682 0
M  V30 3790 C 357.768 2.92851 6.17031 0
M  V30 3791 O 357.456 3.98138 6.98385 0
M  V30 3792 H 357.188 0.0129324 0.675876 0
M  V30 3793 H 359.742 0.685238 1.93633 0
M  V30 3794 H 357.972 -1.17918 3.68283 0
M  V30 3795 H 359.661 -0.869419 3.96479 0
M  V30 3796 H 360.427 1.53086 4.60206 0
M  V30 3797 H 356.306 0.304646 4.59992 0
M  V30 3798 H 359.85 3.42458 6.07757 0
M  V30 3799 H 355.747 2.18993 6.07217 0
M  V30 3800 H 356.515 3.95374 7.16674 0
M  V30 3801 N 359.178 -1.55987 0.224894 0
M  V30 3802 C 360.141 -2.19178 -0.670348 0
M  V30 3803 C 361.141 -1.15461 -1.11917 0
M  V30 3804 O 362.331 -1.40675 -1.02743 0
M  V30 3805 C 359.463 -2.81777 -1.9187 0
M  V30 3806 H 360.656 -2.99662 -0.119364 0
M  V30 3807 H 358.209 -1.5628 -0.0247128 0
M  V30 3808 H 358.944 -2.05172 -2.51147 0
M  V30 3809 H 358.729 -3.57732 -1.60531 0
M  V30 3810 H 360.219 -3.30205 -2.55645 0
M  V30 3811 N 360.656 0.0484629 -1.57525 0
M  V30 3812 C 361.588 1.08222 -2.02041 0
M  V30 3813 C 362.601 1.33621 -0.930012 0
M  V30 3814 O 363.79 1.3145 -1.20761 0
M  V30 3815 C 360.89 2.42818 -2.36416 0
M  V30 3816 C 360.063 2.37049 -3.67596 0
M  V30 3817 C 359.122 3.53937 -3.89378 0
M  V30 3818 O 358.148 3.34308 -4.60681 0
M  V30 3819 N 359.35 4.75126 -3.3352 0
M  V30 3820 H 362.115 0.702946 -2.9134 0
M  V30 3821 H 359.676 0.236745 -1.6016 0
M  V30 3822 H 361.668 3.197 -2.48141 0
M  V30 3823 H 360.238 2.72661 -1.52888 0
M  V30 3824 H 359.458 1.45395 -3.66407 0
M  V30 3825 H 360.746 2.30318 -4.53686 0
M  V30 3826 H 360.144 4.93976 -2.75688 0
M  V30 3827 H 358.701 5.49439 -3.50656 0
M  V30 3828 N 362.134 1.5431 0.320358 0
M  V30 3829 C 363.383 1.7188 1.05546 0
M  V30 3830 C 363.696 0.501143 1.89071 0
M  V30 3831 O 364.902 0.558258 2.65699 0
M  V30 3832 C 363.358 3.04025 1.92605 0
M  V30 3833 C 362.966 4.33207 1.14176 0
M  V30 3834 C 364.71 3.30959 2.65832 0
M  V30 3835 C 362.617 5.56412 2.00399 0
M  V30 3836 H 361.547 0.640547 0.397763 0
M  V30 3837 H 364.198 1.80802 0.313522 0
M  V30 3838 H 362.58 2.89019 2.7071 0
M  V30 3839 H 363.754 4.58989 0.40819 0
M  V30 3840 H 362.069 4.13062 0.526165 0
M  V30 3841 H 364.666 4.20203 3.30656 0
M  V30 3842 H 365.009 2.48979 3.33639 0
M  V30 3843 H 365.542 3.46847 1.94787 0
M  V30 3844 H 362.281 6.41004 1.37094 0
M  V30 3845 H 361.801 5.34844 2.7148 0
M  V30 3846 H 363.48 5.92938 2.58908 0
M  V30 3847 N 363.613 -0.582584 1.46437 0
M  V30 3848 C 364.86 -1.34079 1.51753 0
M  V30 3849 C 365.188 -1.93762 0.169299 0
M  V30 3850 O 364.443 -1.76989 -0.835062 0
M  V30 3851 C 364.742 -2.48964 2.56421 0
M  V30 3852 C 364.408 -2.07273 4.00436 0
M  V30 3853 C 363.07 -1.95618 4.39644 0
M  V30 3854 C 365.422 -1.75111 4.90903 0
M  V30 3855 C 362.75 -1.5006 5.67185 0
M  V30 3856 C 365.102 -1.31032 6.18881 0
M  V30 3857 C 363.766 -1.17954 6.56996 0
M  V30 3858 H 363.036 -0.49063 0.555304 0
M  V30 3859 H 365.683 -0.656007 1.79913 0
M  V30 3860 H 363.988 -3.22889 2.21923 0
M  V30 3861 H 365.685 -3.07178 2.57765 0
M  V30 3862 H 362.275 -2.17279 3.69443 0
M  V30 3863 H 366.459 -1.83001 4.61329 0
M  V30 3864 H 361.715 -1.38577 5.95488 0
M  V30 3865 H 365.889 -1.052 6.88408 0
M  V30 3866 H 363.516 -0.824279 7.55718 0
M  V30 3867 N 365.091 -1.34144 -0.827227 0
M  V30 3868 C 366.507 -1.13732 -1.11969 0
M  V30 3869 C 366.707 0.0640463 -2.01398 0
M  V30 3870 O 365.763 0.740856 -2.41387 0
M  V30 3871 C 367.076 -2.43047 -1.77055 0
M  V30 3872 C 368.624 -2.49063 -1.89569 0
M  V30 3873 C 369.099 -3.78369 -2.58072 0
M  V30 3874 N 370.59 -3.79505 -2.65575 0
M  V30 3875 C 371.325 -4.76274 -3.19297 0
M  V30 3876 N 370.821 -5.83424 -3.73616 0
M  V30 3877 N 372.614 -4.63735 -3.17658 0
M  V30 3878 H 364.765 -2.11126 -0.232296 0
M  V30 3879 H 367.028 -0.933424 -0.165602 0
M  V30 3880 H 366.734 -3.31025 -1.18807 0
M  V30 3881 H 366.608 -2.56066 -2.76966 0
M  V30 3882 H 368.995 -1.61527 -2.46968 0
M  V30 3883 H 369.076 -2.39975 -0.885745 0
M  V30 3884 H 368.72 -4.66293 -2.01329 0
M  V30 3885 H 368.65 -3.84737 -3.59562 0
M  V30 3886 H 371.141 -3.02074 -2.27068 0
M  V30 3887 H 371.454 -6.53282 -4.12846 0
M  V30 3888 H 369.799 -5.87143 -3.71871 0
M  V30 3889 H 372.99 -3.79177 -2.74486 0
M  V30 3890 H 373.163 -5.39318 -3.59221 0
M  V30 3891 N 366.569 1.04691 -1.17803 0
M  V30 3892 C 367.479 2.16057 -0.914151 0
M  V30 3893 C 368.495 1.73589 0.119503 0
M  V30 3894 O 369.671 2.01308 -0.0609468 0
M  V30 3895 C 366.736 3.4394 -0.436603 0
M  V30 3896 C 365.797 4.00825 -1.53746 0
M  V30 3897 C 365.03 5.22604 -1.0826 0
M  V30 3898 O 365.253 5.70367 0.0612244 0
M  V30 3899 O 364.187 5.7186 -1.87775 0
M  V30 3900 H 368.013 2.41169 -1.84584 0
M  V30 3901 H 365.598 1.1453 -0.959334 0
M  V30 3902 H 367.48 4.21024 -0.178057 0
M  V30 3903 H 366.155 3.20316 0.466869 0
M  V30 3904 H 365.062 3.25158 -1.84995 0
M  V30 3905 H 366.395 4.28778 -2.41683 0
M  V30 3906 N 368.047 0.979072 1.23499 0
M  V30 3907 C 369.277 0.664237 1.95631 0
M  V30 3908 C 369.685 -0.772653 1.72704 0
M  V30 3909 O 369.028 -1.53141 1.01457 0
M  V30 3910 C 369.09 0.873115 3.48736 0
M  V30 3911 C 368.754 2.29182 3.95379 0
M  V30 3912 C 369.751 3.2704 4.04155 0
M  V30 3913 C 367.436 2.62256 4.28401 0
M  V30 3914 C 369.43 4.56052 4.45304 0
M  V30 3915 C 367.117 3.91491 4.69231 0
M  V30 3916 C 368.115 4.88201 4.77649 0
M  V30 3917 O 367.803 6.15129 5.17563 0
M  V30 3918 H 367.535 0.245915 0.629684 0
M  V30 3919 H 370.089 1.3127 1.57979 0
M  V30 3920 H 368.319 0.167476 3.86337 0
M  V30 3921 H 370.008 0.555642 4.02079 0
M  V30 3922 H 370.774 3.02819 3.78848 0
M  V30 3923 H 366.653 1.87692 4.21061 0
M  V30 3924 H 370.197 5.31538 4.51789 0
M  V30 3925 H 366.094 4.15508 4.93987 0
M  V30 3926 H 366.862 6.18862 5.35679 0
M  V30 3927 N 369.525 -1.3858 0.750561 0
M  V30 3928 C 370.455 -2.33102 0.136237 0
M  V30 3929 C 371.436 -1.54713 -0.706965 0
M  V30 3930 O 372.621 -1.83043 -0.648769 0
M  V30 3931 C 369.751 -3.38882 -0.760017 0
M  V30 3932 C 368.705 -4.27995 -0.0197785 0
M  V30 3933 C 368.031 -5.24605 -1.03408 0
M  V30 3934 C 369.331 -5.09554 1.14684 0
M  V30 3935 H 371.025 -2.84726 0.925822 0
M  V30 3936 H 368.571 -1.36898 0.446654 0
M  V30 3937 H 370.524 -4.0397 -1.19943 0
M  V30 3938 H 369.248 -2.85734 -1.58189 0
M  V30 3939 H 367.907 -3.64409 0.400184 0
M  V30 3940 H 367.555 -4.67746 -1.84994 0
M  V30 3941 H 367.255 -5.85081 -0.543464 0
M  V30 3942 H 368.779 -5.9257 -1.47288 0
M  V30 3943 H 370.193 -5.67899 0.785118 0
M  V30 3944 H 368.59 -5.7925 1.56812 0
M  V30 3945 H 369.66 -4.4347 1.96118 0
M  V30 3946 N 371.003 -0.499398 -1.49478 0
M  V30 3947 C 372.231 0.0425456 -2.06856 0
M  V30 3948 C 372.646 1.30964 -1.35992 0
M  V30 3949 O 372.003 1.77172 -0.437762 0
M  V30 3950 C 372.054 0.301735 -3.60239 0
M  V30 3951 O 371.775 -0.915127 -4.28436 0
M  V30 3952 C 373.276 0.887499 -4.34325 0
M  V30 3953 H 370.496 -0.0197482 -0.670709 0
M  V30 3954 H 373.04 -0.696297 -1.92281 0
M  V30 3955 H 371.195 0.990556 -3.74522 0
M  V30 3956 H 371.609 -0.676993 -5.20113 0
M  V30 3957 H 373.083 1.01845 -5.42523 0
M  V30 3958 H 373.56 1.88488 -3.96698 0
M  V30 3959 H 374.166 0.236196 -4.24644 0
M  V30 3960 N 372.481 1.55866 -0.233164 0
M  V30 3961 C 373.711 2.02704 0.399325 0
M  V30 3962 C 374.119 1.11204 1.53069 0
M  V30 3963 O 373.462 0.116182 1.83332 0
M  V30 3964 C 373.524 3.45844 0.981429 0
M  V30 3965 C 373.188 4.56997 -0.0159561 0
M  V30 3966 C 374.185 5.13384 -0.820552 0
M  V30 3967 C 371.87 5.0211 -0.138072 0
M  V30 3968 C 373.864 6.13365 -1.73386 0
M  V30 3969 C 371.551 6.01926 -1.0549 0
M  V30 3970 C 372.549 6.57431 -1.85132 0
M  V30 3971 O 372.237 7.55302 -2.75272 0
M  V30 3972 H 371.969 0.668459 0.100692 0
M  V30 3973 H 374.523 2.02387 -0.35052 0
M  V30 3974 H 372.753 3.43267 1.78058 0
M  V30 3975 H 374.442 3.76262 1.52255 0
M  V30 3976 H 375.208 4.79372 -0.736721 0
M  V30 3977 H 371.087 4.5858 0.471737 0
M  V30 3978 H 374.631 6.56614 -2.35592 0
M  V30 3979 H 370.528 6.35359 -1.1397 0
M  V30 3980 H 371.296 7.72867 -2.69477 0
M  V30 3981 N 373.959 -0.0401083 1.57549 0
M  V30 3982 C 374.889 -1.04384 2.08869 0
M  V30 3983 C 375.87 -1.38407 0.988817 0
M  V30 3984 O 377.055 -1.47483 1.26342 0
M  V30 3985 C 374.185 -2.34808 2.55895 0
M  V30 3986 C 373.139 -2.15057 3.70047 0
M  V30 3987 C 372.465 -3.51145 4.03239 0
M  V30 3988 C 373.765 -1.54576 4.98902 0
M  V30 3989 H 375.459 -0.616666 2.92981 0
M  V30 3990 H 373.005 -0.295184 1.40942 0
M  V30 3991 H 374.958 -3.05346 2.90417 0
M  V30 3992 H 373.682 -2.79565 1.68853 0
M  V30 3993 H 372.341 -1.46954 3.35857 0
M  V30 3994 H 371.989 -3.93529 3.13279 0
M  V30 3995 H 371.689 -3.38758 4.80122 0
M  V30 3996 H 373.213 -4.23062 4.40285 0
M  V30 3997 H 374.627 -2.15017 5.31451 0
M  V30 3998 H 373.024 -1.52796 5.80322 0
M  V30 3999 H 374.094 -0.51039 4.82206 0
M  V30 4000 N 375.437 -1.54477 -0.31217 0
M  V30 4001 C 376.385 -1.85395 -1.40469 0
M  V30 4002 C 377.379 -0.726749 -1.53019 0
M  V30 4003 O 378.585 -0.910582 -1.55269 0
M  V30 4004 H 374.96 -0.587845 -0.46898 0
M  V30 4005 H 376.931 -2.76736 -1.11623 0
M  V30 4006 C 375.68 -2.10811 -2.76503 0
M  V30 4007 H 375.003 -2.97014 -2.67625 0
M  V30 4008 H 376.443 -2.3639 -3.51988 0
M  V30 4009 C 374.902 -0.903165 -3.24568 0
M  V30 4010 O 375.432 -0.118085 -4.01526 0
M  V30 4011 N 373.638 -0.711634 -2.81752 0
M  V30 4012 H 373.185 -1.35171 -2.19286 0
M  V30 4013 H 373.143 0.0930473 -3.14262 0
M  V30 4014 N 376.915 0.57481 -1.46744 0
M  V30 4015 C 377.847 1.69804 -1.53946 0
M  V30 4016 C 378.86 1.57098 -0.427106 0
M  V30 4017 O 380.049 1.64378 -0.695863 0
M  V30 4018 C 377.149 3.08125 -1.4111 0
M  V30 4019 C 376.322 3.46757 -2.66605 0
M  V30 4020 C 375.381 4.6417 -2.47855 0
M  V30 4021 O 374.407 4.69634 -3.21609 0
M  V30 4022 N 375.609 5.59553 -1.54534 0
M  V30 4023 H 378.374 1.64077 -2.50796 0
M  V30 4024 H 375.935 0.761 -1.429 0
M  V30 4025 H 377.927 3.84478 -1.26328 0
M  V30 4026 H 376.497 3.08175 -0.524109 0
M  V30 4027 H 375.717 2.6003 -2.96274 0
M  V30 4028 H 377.005 3.69337 -3.49954 0
M  V30 4029 H 376.403 5.57881 -0.937304 0
M  V30 4030 H 374.96 6.35304 -1.45711 0
M  V30 4031 N 378.394 1.34581 0.820102 0
M  V30 4032 C 379.324 1.29038 1.94606 0
M  V30 4033 C 380.305 0.1673 1.69275 0
M  V30 4034 O 381.49 0.360112 1.90832 0
M  V30 4035 C 378.62 1.04793 3.31113 0
M  V30 4036 C 377.574 2.13597 3.70891 0
M  V30 4037 C 376.9 1.74537 5.05412 0
M  V30 4038 C 378.2 3.55451 3.8269 0
M  V30 4039 H 379.894 2.23248 1.99501 0
M  V30 4040 H 377.44 1.0747 0.958449 0
M  V30 4041 H 379.393 0.995592 4.0947 0
M  V30 4042 H 378.117 0.0702565 3.26524 0
M  V30 4043 H 376.776 2.17905 2.9481 0
M  V30 4044 H 376.424 0.754226 4.97313 0
M  V30 4045 H 376.124 2.47361 5.32997 0
M  V30 4046 H 377.648 1.70803 5.86224 0
M  V30 4047 H 379.062 3.5354 4.51312 0
M  V30 4048 H 377.459 4.26922 4.21732 0
M  V30 4049 H 378.529 3.92587 2.84611 0
M  V30 4050 N 379.872 -1.04064 1.18357 0
M  V30 4051 C 381.12 -1.76915 0.977013 0
M  V30 4052 C 381.441 -1.88624 -0.494577 0
M  V30 4053 O 380.711 -1.41125 -1.3587 0
M  V30 4054 H 379.291 -0.65535 0.358504 0
M  V30 4055 H 381.953 -1.25592 1.49039 0
M  V30 4056 H 381.049 -2.78178 1.41504 0
M  V30 4057 N 381.35 -0.985608 -1.22978 0
M  V30 4058 C 382.578 -0.675582 -1.95559 0
M  V30 4059 C 382.993 0.758413 -1.72897 0
M  V30 4060 O 382.35 1.51094 -1.02357 0
M  V30 4061 C 382.401 -0.96293 -3.48439 0
M  V30 4062 O 382.122 -2.34057 -3.70336 0
M  V30 4063 C 383.623 -0.669585 -4.38214 0
M  V30 4064 H 380.843 -0.250523 -0.622478 0
M  V30 4065 H 383.387 -1.3184 -1.56328 0
M  V30 4066 H 381.542 -0.366033 -3.85667 0
M  V30 4067 H 381.956 -2.43424 -4.64591 0
M  V30 4068 H 383.43 -0.920967 -5.44263 0
M  V30 4069 H 383.907 0.396383 -4.37408 0
M  V30 4070 H 384.513 -1.2472 -4.06602 0
M  V30 4071 N 382.828 1.3818 -0.7579 0
M  V30 4072 C 383.758 2.33027 -0.148597 0
M  V30 4073 C 384.739 1.55085 0.69875 0
M  V30 4074 O 385.924 1.83384 0.639053 0
M  V30 4075 C 383.054 3.3928 0.742034 0
M  V30 4076 C 382.008 4.28 -0.00291946 0
M  V30 4077 C 381.334 5.25146 1.00625 0
M  V30 4078 C 382.634 5.08938 -1.17385 0
M  V30 4079 H 384.328 2.84231 -0.940909 0
M  V30 4080 H 381.874 1.36659 -0.453908 0
M  V30 4081 H 383.827 4.046 1.17799 0
M  V30 4082 H 382.551 2.86569 1.56671 0
M  V30 4083 H 381.21 3.64192 -0.419504 0
M  V30 4084 H 380.858 4.68721 1.8251 0
M  V30 4085 H 380.558 5.85361 0.512428 0
M  V30 4086 H 382.082 5.93342 1.44143 0
M  V30 4087 H 383.496 5.67474 -0.815224 0
M  V30 4088 H 381.893 5.7841 -1.59882 0
M  V30 4089 H 382.963 4.42424 -1.98468 0
M  V30 4090 N 384.306 0.507319 1.49211 0
M  V30 4091 C 385.236 -0.256939 2.32082 0
M  V30 4092 C 386.217 -0.956609 1.40652 0
M  V30 4093 O 387.402 -0.946788 1.69557 0
M  V30 4094 C 384.532 -1.31802 3.21318 0
M  V30 4095 C 383.486 -0.737855 4.21592 0
M  V30 4096 C 382.812 -1.89992 4.99807 0
M  V30 4097 C 384.112 0.275325 5.21574 0
M  V30 4098 H 385.806 0.434798 2.96226 0
M  V30 4099 H 383.352 0.210546 1.42452 0
M  V30 4100 H 385.305 -1.86045 3.78107 0
M  V30 4101 H 384.029 -2.03903 2.5513 0
M  V30 4102 H 382.688 -0.217126 3.65956 0
M  V30 4103 H 382.336 -2.60877 4.30061 0
M  V30 4104 H 382.036 -1.51777 5.6766 0
M  V30 4105 H 383.56 -2.44657 5.59442 0
M  V30 4106 H 384.974 -0.179193 5.7302 0
M  V30 4107 H 383.371 0.573649 5.97352 0
M  V30 4108 H 384.441 1.18903 4.70096 0
M  V30 4109 N 385.784 -1.5574 0.241426 0
M  V30 4110 C 387.032 -1.98417 -0.384075 0
M  V30 4111 C 387.353 -1.13078 -1.58866 0
M  V30 4112 O 386.623 -0.212312 -1.94746 0
M  V30 4113 H 385.203 -0.732813 -0.144894 0
M  V30 4114 H 387.865 -1.9193 0.338943 0
M  V30 4115 H 386.961 -3.04219 -0.696939 0
M  V30 4116 N 387.262 0.0317525 -1.57568 0
M  V30 4117 C 388.51 0.721676 -1.88776 0
M  V30 4118 C 388.831 1.76039 -0.838772 0
M  V30 4119 O 388.101 1.95482 0.127935 0
M  V30 4120 H 386.681 0.269534 -0.696678 0
M  V30 4121 H 389.343 -0.00165879 -1.949 0
M  V30 4122 H 388.439 1.21293 -2.87566 0
M  V30 4123 N 388.74 1.54641 0.303973 0
M  V30 4124 C 390.017 1.64455 1.05896 0
M  V30 4125 C 390.397 0.490923 2.05312 0
M  V30 4126 O 389.745 -0.512685 2.22674 0
M  V30 4127 C 389.955 3.02331 1.74347 0
M  V30 4128 C 391.303 3.59045 2.26653 0
M  V30 4129 O 392.327 3.04764 1.84384 0
M  V30 4130 O 391.186 4.54081 3.04093 0
M  V30 4131 H 388.28 0.666729 0.489287 0
M  V30 4132 H 390.826 1.66986 0.302298 0
M  V30 4133 H 389.598 3.77734 1.02142 0
M  V30 4134 H 389.221 3.03565 2.56777 0
M  V30 4135 N 390.218 -0.567019 1.47046 0
M  V30 4136 C 391.629 -1.14916 1.47143 0
M  V30 4137 C 391.98 -1.94954 0.220767 0
M  V30 4138 O 391.105 -2.05602 -0.67505 0
M  V30 4139 C 391.7 -2.09069 2.666 0
M  V30 4140 C 390.259 -2.62575 2.69687 0
M  V30 4141 C 389.406 -1.38755 2.40088 0
M  V30 4142 H 392.357 -0.354126 1.54699 0
M  V30 4143 H 392.378 -2.92789 2.43011 0
M  V30 4144 H 391.89 -1.50789 3.57609 0
M  V30 4145 H 389.991 -3.24681 1.82792 0
M  V30 4146 H 390.104 -3.04239 3.70102 0
M  V30 4147 H 388.468 -1.69098 1.90468 0
M  V30 4148 H 389.251 -0.822822 3.33293 0
M  V30 4149 N 391.696 -1.35014 -0.812953 0
M  V30 4150 C 392.921 -1.31187 -1.60639 0
M  V30 4151 C 393.346 0.109382 -1.87782 0
M  V30 4152 O 392.704 1.07424 -1.46047 0
M  V30 4153 C 392.752 -2.11809 -2.91838 0
M  V30 4154 O 391.856 -1.49444 -3.8437 0
M  V30 4155 H 391.197 -0.450084 -0.488181 0
M  V30 4156 H 393.727 -1.77963 -1.00947 0
M  V30 4157 H 393.737 -2.23531 -3.41318 0
M  V30 4158 H 392.412 -3.15137 -2.71407 0
M  V30 4159 H 390.989 -1.46524 -3.42907 0
M  V30 4160 N 393.175 1.03435 -1.18907 0
M  V30 4161 C 394.122 2.11591 -0.921837 0
M  V30 4162 C 395.092 1.65499 0.141226 0
M  V30 4163 O 396.277 1.908 0.000242829 0
M  V30 4164 C 393.417 3.42012 -0.460616 0
M  V30 4165 C 392.53 4.01682 -1.58982 0
M  V30 4166 C 391.665 5.20091 -1.08069 0
M  V30 4167 C 390.704 5.71805 -2.18416 0
M  V30 4168 N 389.841 6.81494 -1.68849 0
M  V30 4169 H 394.681 2.33787 -1.8479 0
M  V30 4170 H 392.218 1.1467 -0.921373 0
M  V30 4171 H 394.176 4.16834 -0.174642 0
M  V30 4172 H 392.806 3.19944 0.428467 0
M  V30 4173 H 391.858 3.24127 -1.99113 0
M  V30 4174 H 393.17 4.36084 -2.4214 0
M  V30 4175 H 392.324 6.02051 -0.749615 0
M  V30 4176 H 391.063 4.87209 -0.218771 0
M  V30 4177 H 390.068 4.88461 -2.5236 0
M  V30 4178 H 391.293 6.06728 -3.05054 0
M  V30 4179 H 389.239 6.50475 -0.849572 0
M  V30 4180 H 389.156 7.14994 -2.45601 0
M  V30 4181 H 390.424 7.67063 -1.38689 0
M  V30 4182 N 394.653 0.992116 1.22453 0
M  V30 4183 C 395.899 0.668523 1.91464 0
M  V30 4184 C 396.232 -0.797313 1.77078 0
M  V30 4185 O 395.507 -1.5765 1.13916 0
M  V30 4186 C 395.79 1.07424 3.43703 0
M  V30 4187 C 395.643 2.59857 3.67143 0
M  V30 4188 C 396.962 0.626891 4.35612 0
M  V30 4189 H 394.081 0.244341 0.695318 0
M  V30 4190 H 396.723 1.2355 1.44345 0
M  V30 4191 H 394.873 0.591816 3.83966 0
M  V30 4192 H 396.545 3.15764 3.3629 0
M  V30 4193 H 394.788 3.01961 3.11451 0
M  V30 4194 H 395.459 2.83296 4.73759 0
M  V30 4195 H 397.935 1.04125 4.02861 0
M  V30 4196 H 396.811 0.939076 5.40807 0
M  V30 4197 H 397.072 -0.472457 4.39568 0
M  V30 4198 N 396.131 -1.37776 0.765217 0
M  V30 4199 C 397.063 -2.28958 0.105361 0
M  V30 4200 C 398.076 -1.48316 -0.67128 0
M  V30 4201 O 399.265 -1.71046 -0.51045 0
M  V30 4202 C 396.365 -3.27421 -0.874569 0
M  V30 4203 C 395.538 -4.37132 -0.153123 0
M  V30 4204 C 394.597 -5.1571 -1.04547 0
M  V30 4205 O 393.623 -5.66896 -0.511672 0
M  V30 4206 N 394.825 -5.29808 -2.37243 0
M  V30 4207 H 397.59 -2.86227 0.888495 0
M  V30 4208 H 395.151 -1.49682 0.617 0
M  V30 4209 H 397.143 -3.7687 -1.47483 0
M  V30 4210 H 395.713 -2.70967 -1.55871 0
M  V30 4211 H 394.933 -3.89166 0.627975 0
M  V30 4212 H 396.221 -5.07625 0.345643 0
M  V30 4213 H 395.619 -4.89793 -2.83054 0
M  V30 4214 H 394.176 -5.82589 -2.9229 0
M  V30 4215 N 397.609 -0.515225 -1.4894 0
M  V30 4216 C 398.519 0.259774 -2.33157 0
M  V30 4217 C 399.535 0.953501 -1.45548 0
M  V30 4218 O 400.711 0.931735 -1.78552 0
M  V30 4219 C 397.776 1.30193 -3.21326 0
M  V30 4220 C 396.837 0.620129 -4.24797 0
M  V30 4221 C 396.07 1.61263 -5.08753 0
M  V30 4222 O 396.293 2.84389 -4.94448 0
M  V30 4223 O 395.227 1.16013 -5.90614 0
M  V30 4224 H 399.053 -0.429932 -3.00641 0
M  V30 4225 H 396.638 -0.276346 -1.46822 0
M  V30 4226 H 398.52 1.90455 -3.75905 0
M  V30 4227 H 397.195 1.97431 -2.56521 0
M  V30 4228 H 396.102 -0.0226019 -3.74093 0
M  V30 4229 H 397.435 -0.0100493 -4.92199 0
M  V30 4230 N 399.087 1.5561 -0.249682 0
M  V30 4231 C 400.037 2.18157 0.662673 0
M  V30 4232 C 401.021 1.1383 1.13717 0
M  V30 4233 O 402.213 1.39731 1.08648 0
M  V30 4234 C 399.342 2.88672 1.85805 0
M  V30 4235 C 398.428 4.00258 1.40193 0
M  V30 4236 N 398.819 5.01473 0.660213 0
M  V30 4237 C 397.117 4.12864 1.68698 0
M  V30 4238 C 397.818 5.80155 0.423695 0
M  V30 4239 N 396.794 5.34533 0.988721 0
M  V30 4240 H 400.596 2.93769 0.0878688 0
M  V30 4241 H 398.11 1.62316 -0.0521183 0
M  V30 4242 H 400.107 3.31912 2.5227 0
M  V30 4243 H 398.767 2.14564 2.43705 0
M  V30 4244 H 399.778 5.16971 0.310047 0
M  V30 4245 H 396.455 3.4993 2.27717 0
M  V30 4246 H 397.845 6.71688 -0.168616 0
M  V30 4247 N 400.565 -0.0233959 1.57583 0
M  V30 4248 C 401.79 -0.728376 1.94189 0
M  V30 4249 C 402.215 -1.67793 0.850119 0
M  V30 4250 O 401.573 -1.80262 -0.19371 0
M  V30 4251 C 401.621 -1.45669 3.29868 0
M  V30 4252 O 400.725 -2.57013 3.22518 0
M  V30 4253 H 400.066 -0.195493 0.63457 0
M  V30 4254 H 402.596 0.0228214 2.04587 0
M  V30 4255 H 402.606 -1.82535 3.6489 0
M  V30 4256 H 401.281 -0.760314 4.08891 0
M  V30 4257 H 399.858 -2.22648 2.99136 0
M  V30 4258 N 402.043 -1.548 -0.295768 0
M  V30 4259 C 403.268 -1.78653 -1.05346 0
M  V30 4260 C 403.693 -0.546894 -1.79974 0
M  V30 4261 O 403.051 0.502763 -1.7419 0
M  V30 4262 C 403.099 -2.99679 -2.00561 0
M  V30 4263 O 402.203 -2.7317 -3.08953 0
M  V30 4264 H 401.544 -0.59116 -0.302367 0
M  V30 4265 H 404.074 -2.01895 -0.331598 0
M  V30 4266 H 404.084 -3.27793 -2.42932 0
M  V30 4267 H 402.759 -3.89562 -1.4565 0
M  V30 4268 H 401.336 -2.56089 -2.71059 0
M  V30 4269 N 403.521 0.559213 -1.47345 0
M  V30 4270 C 404.451 1.67622 -1.62558 0
M  V30 4271 C 405.432 1.63331 -0.475087 0
M  V30 4272 O 406.617 1.80983 -0.704182 0
M  V30 4273 C 403.747 3.0626 -1.63774 0
M  V30 4274 C 402.701 3.25397 -2.7803 0
M  V30 4275 C 402.027 4.64801 -2.64318 0
M  V30 4276 C 403.327 3.10965 -4.19641 0
M  V30 4277 H 405.021 1.55146 -2.56067 0
M  V30 4278 H 402.567 0.744961 -1.23233 0
M  V30 4279 H 404.52 3.84247 -1.73008 0
M  V30 4280 H 403.244 3.1969 -0.66825 0
M  V30 4281 H 401.903 2.49817 -2.68304 0
M  V30 4282 H 401.551 4.75028 -1.65401 0
M  V30 4283 H 401.251 4.78555 -3.40968 0
M  V30 4284 H 402.775 5.44926 -2.75478 0
M  V30 4285 H 404.189 3.78772 -4.30354 0
M  V30 4286 H 402.586 3.36229 -4.97062 0
M  V30 4287 H 403.656 2.07736 -4.38148 0
M  V30 4288 N 404.999 1.35443 0.805782 0
M  V30 4289 C 406.224 1.32037 1.59941 0
M  V30 4290 C 406.649 -0.0994215 1.87837 0
M  V30 4291 O 406.007 -1.06648 1.46615 0
M  V30 4292 C 406.055 2.13354 2.90711 0
M  V30 4293 O 405.159 1.5148 3.83572 0
M  V30 4294 H 404.5 0.452666 0.485787 0
M  V30 4295 H 407.03 1.78496 1.00002 0
M  V30 4296 H 407.04 2.25338 3.40128 0
M  V30 4297 H 405.715 3.16572 2.69732 0
M  V30 4298 H 404.292 1.4834 3.42125 0
M  V30 4299 N 406.477 -1.02803 1.19454 0
M  V30 4300 C 407.726 -1.7562 0.991996 0
M  V30 4301 C 408.039 -1.89672 -0.477901 0
M  V30 4302 O 409.245 -2.59468 -0.799287 0
M  V30 4303 C 407.701 -3.15812 1.72601 0
M  V30 4304 C 407.309 -3.0981 3.23607 0
M  V30 4305 C 409.053 -3.92918 1.60674 0
M  V30 4306 C 406.96 -4.44939 3.89594 0
M  V30 4307 H 405.89 -0.658352 0.367543 0
M  V30 4308 H 408.541 -1.15044 1.42959 0
M  V30 4309 H 406.923 -3.7686 1.21624 0
M  V30 4310 H 408.097 -2.58138 3.81709 0
M  V30 4311 H 406.412 -2.46201 3.35819 0
M  V30 4312 H 409.009 -4.9287 2.07323 0
M  V30 4313 H 409.352 -4.12502 0.561025 0
M  V30 4314 H 409.885 -3.38472 2.09001 0
M  V30 4315 H 406.624 -4.30559 4.94267 0
M  V30 4316 H 406.144 -4.96664 3.36281 0
M  V30 4317 H 407.823 -5.1382 3.93189 0
M  V30 4318 N 407.956 -0.998596 -1.21925 0
M  V30 4319 C 409.181 -0.696015 -1.95372 0
M  V30 4320 C 409.606 0.733826 -1.73195 0
M  V30 4321 O 408.964 1.50242 -1.01474 0
M  V30 4322 C 409.012 -1.01466 -3.4603 0
M  V30 4323 O 408.116 -0.116415 -4.12236 0
M  V30 4324 H 407.457 -0.259938 -0.611006 0
M  V30 4325 H 409.987 -1.33711 -1.54863 0
M  V30 4326 H 409.997 -0.958855 -3.96573 0
M  V30 4327 H 408.672 -2.05653 -3.61497 0
M  V30 4328 H 407.249 -0.228193 -3.72201 0
M  V30 4329 N 409.434 1.37368 -0.772513 0
M  V30 4330 C 410.683 1.98918 -0.333861 0
M  V30 4331 C 410.996 1.62017 1.09589 0
M  V30 4332 O 412.202 2.16676 1.63596 0
M  V30 4333 C 410.658 3.55735 -0.545971 0
M  V30 4334 C 410.266 4.01573 -1.98603 0
M  V30 4335 C 412.01 4.24156 -0.170979 0
M  V30 4336 C 409.917 5.51102 -2.1457 0
M  V30 4337 H 408.847 0.744214 -0.121085 0
M  V30 4338 H 411.498 1.56888 -0.95175 0
M  V30 4339 H 409.88 3.95748 0.141387 0
M  V30 4340 H 411.054 3.72803 -2.7084 0
M  V30 4341 H 409.369 3.45937 -2.31769 0
M  V30 4342 H 411.966 5.34024 -0.26878 0
M  V30 4343 H 412.309 4.06917 0.878855 0
M  V30 4344 H 412.842 3.89447 -0.810914 0
M  V30 4345 H 409.581 5.73268 -3.17875 0
M  V30 4346 H 409.101 5.81554 -1.46817 0
M  V30 4347 H 410.78 6.17083 -1.94468 0
M  V30 4348 N 410.912 0.523116 1.48665 0
M  V30 4349 C 412.14 -0.0096312 2.06898 0
M  V30 4350 C 412.555 -1.28784 1.38059 0
M  V30 4351 O 411.912 -1.76453 0.465893 0
M  V30 4352 C 411.963 -0.244386 3.60673 0
M  V30 4353 O 411.684 0.983172 4.26925 0
M  V30 4354 C 413.185 -0.818289 4.35682 0
M  V30 4355 H 410.405 0.0304161 0.67031 0
M  V30 4356 H 412.949 0.726799 1.91149 0
M  V30 4357 H 411.104 -0.930847 3.76051 0
M  V30 4358 H 411.518 0.759653 5.1897 0
M  V30 4359 H 412.992 -0.93201 5.44075 0
M  V30 4360 H 413.469 -1.82153 3.99646 0
M  V30 4361 H 414.075 -0.168609 4.24966 0
M  V30 4362 N 412.39 -1.55475 0.257931 0
M  V30 4363 C 413.615 -2.04064 -0.370488 0
M  V30 4364 C 414.04 -1.13565 -1.49948 0
M  V30 4365 O 413.398 -0.130781 -1.80828 0
M  V30 4366 C 413.446 -3.50554 -0.845237 0
M  V30 4367 O 412.55 -3.63173 -1.95394 0
M  V30 4368 H 411.891 -0.659257 -0.0792243 0
M  V30 4369 H 414.421 -2.00903 0.387212 0
M  V30 4370 H 414.431 -3.91588 -1.14555 0
M  V30 4371 H 413.106 -4.15896 -0.0191259 0
M  V30 4372 H 411.683 -3.34039 -1.65748 0
M  V30 4373 N 413.868 0.0150385 -1.57593 0
M  V30 4374 C 415.284 0.370907 -1.5523 0
M  V30 4375 C 415.484 1.75735 -0.985882 0
M  V30 4376 O 414.54 2.44944 -0.613077 0
M  V30 4377 C 415.853 0.259908 -2.99575 0
M  V30 4378 C 417.401 0.335959 -3.11192 0
M  V30 4379 C 417.876 0.254253 -4.57294 0
M  V30 4380 N 419.367 0.312618 -4.62144 0
M  V30 4381 C 420.102 0.272505 -5.72752 0
M  V30 4382 N 419.598 0.183864 -6.92556 0
M  V30 4383 N 421.391 0.323267 -5.6117 0
M  V30 4384 H 413.542 -0.892104 -1.92757 0
M  V30 4385 H 415.805 -0.340563 -0.884715 0
M  V30 4386 H 415.511 -0.693403 -3.44797 0
M  V30 4387 H 415.385 1.048 -3.62349 0
M  V30 4388 H 417.772 1.27971 -2.65909 0
M  V30 4389 H 417.853 -0.481739 -2.51223 0
M  V30 4390 H 417.497 -0.685887 -5.03247 0
M  V30 4391 H 417.427 1.09024 -5.15191 0
M  V30 4392 H 419.918 0.38307 -3.75953 0
M  V30 4393 H 420.231 0.15874 -7.72637 0
M  V30 4394 H 418.576 0.149708 -6.94839 0
M  V30 4395 H 421.767 0.390607 -4.66467 0
M  V30 4396 H 421.94 0.288539 -6.47357 0
M  V30 4397 N 415.346 1.54954 0.287554 0
M  V30 4398 C 416.276 1.89839 1.35954 0
M  V30 4399 C 417.257 0.758675 1.52244 0
M  V30 4400 O 418.442 1.01557 1.65529 0
M  V30 4401 C 415.572 2.15753 2.72154 0
M  V30 4402 C 414.526 3.3159 2.70614 0
M  V30 4403 C 413.852 3.42952 4.10229 0
M  V30 4404 C 415.152 4.68359 2.31165 0
M  V30 4405 H 416.846 2.79625 1.07007 0
M  V30 4406 H 414.392 1.3454 0.513316 0
M  V30 4407 H 416.345 2.38743 3.47246 0
M  V30 4408 H 415.069 1.22752 3.02654 0
M  V30 4409 H 413.728 3.08545 1.97979 0
M  V30 4410 H 413.376 2.47443 4.37928 0
M  V30 4411 H 413.076 4.20826 4.10097 0
M  V30 4412 H 414.6 3.68218 4.87081 0
M  V30 4413 H 416.014 4.9099 2.95976 0
M  V30 4414 H 414.411 5.49044 2.42221 0
M  V30 4415 H 415.481 4.68165 1.26291 0
M  V30 4416 N 416.824 -0.551391 1.4764 0
M  V30 4417 C 418.071 -1.3083 1.54563 0
M  V30 4418 C 418.399 -1.93359 0.210361 0
M  V30 4419 O 417.654 -1.78721 -0.797332 0
M  V30 4420 C 417.953 -2.43469 2.61644 0
M  V30 4421 C 417.619 -1.98732 4.04742 0
M  V30 4422 C 416.281 -1.86248 4.43695 0
M  V30 4423 C 418.633 -1.64659 4.94507 0
M  V30 4424 C 415.961 -1.37995 5.70241 0
M  V30 4425 C 418.313 -1.17875 6.21521 0
M  V30 4426 C 416.977 -1.03992 6.5935 0
M  V30 4427 H 416.247 -0.478741 0.565587 0
M  V30 4428 H 418.894 -0.617697 1.81264 0
M  V30 4429 H 417.199 -3.18109 2.28722 0
M  V30 4430 H 418.896 -3.01642 2.64222 0
M  V30 4431 H 415.486 -2.09393 3.73968 0
M  V30 4432 H 419.67 -1.73174 4.65107 0
M  V30 4433 H 414.926 -1.25915 5.98294 0
M  V30 4434 H 419.1 -0.905739 6.90485 0
M  V30 4435 H 416.727 -0.663794 7.57296 0
M  V30 4436 N 418.302 -1.35869 -0.798587 0
M  V30 4437 C 419.234 -1.25305 -1.91915 0
M  V30 4438 C 420.247 -0.174548 -1.61862 0
M  V30 4439 O 421.436 -0.428499 -1.73281 0
M  V30 4440 C 418.536 -0.9086 -3.26493 0
M  V30 4441 C 417.709 -2.08711 -3.84394 0
M  V30 4442 C 416.768 -1.71717 -4.97393 0
M  V30 4443 O 415.794 -2.43692 -5.14396 0
M  V30 4444 N 416.996 -0.645473 -5.769 0
M  V30 4445 H 419.761 -2.21849 -2.01502 0
M  V30 4446 H 417.322 -1.29143 -0.976408 0
M  V30 4447 H 419.314 -0.642455 -3.99568 0
M  V30 4448 H 417.884 -0.0325815 -3.12583 0
M  V30 4449 H 417.104 -2.51659 -3.03416 0
M  V30 4450 H 418.392 -2.87468 -4.19809 0
M  V30 4451 H 417.79 -0.047648 -5.6568 0
M  V30 4452 H 416.347 -0.43913 -6.50319 0
M  V30 4453 N 419.78 1.02168 -1.19998 0
M  V30 4454 C 421.027 1.75685 -1.00702 0
M  V30 4455 C 421.355 1.88947 0.461426 0
M  V30 4456 O 420.61 1.40832 1.35885 0
M  V30 4457 C 420.909 3.18081 -1.62969 0
M  V30 4458 C 420.575 3.24809 -3.12746 0
M  V30 4459 C 419.237 3.26352 -3.53621 0
M  V30 4460 C 421.589 3.23379 -4.08749 0
M  V30 4461 C 418.917 3.2413 -4.89036 0
M  V30 4462 C 421.269 3.22698 -5.44104 0
M  V30 4463 C 419.933 3.22542 -5.84399 0
M  V30 4464 H 419.203 0.642877 -0.368496 0
M  V30 4465 H 421.85 1.19865 -1.49348 0
M  V30 4466 H 420.155 3.77027 -1.06573 0
M  V30 4467 H 421.852 3.73648 -1.45561 0
M  V30 4468 H 418.442 3.2434 -2.80181 0
M  V30 4469 H 422.626 3.21361 -3.78207 0
M  V30 4470 H 417.882 3.22338 -5.19527 0
M  V30 4471 H 422.056 3.20543 -6.18244 0
M  V30 4472 H 419.683 3.20575 -6.89301 0
M  V30 4473 N 421.258 1.00505 1.21394 0
M  V30 4474 C 422.188 0.585684 2.26035 0
M  V30 4475 C 423.169 -0.393525 1.65485 0
M  V30 4476 O 424.354 -0.281497 1.92149 0
M  V30 4477 C 421.484 -0.0884283 3.47187 0
M  V30 4478 C 420.438 0.810567 4.20254 0
M  V30 4479 C 419.764 0.00286382 5.347 0
M  V30 4480 C 421.064 2.1132 4.77641 0
M  V30 4481 H 422.758 1.46039 2.61368 0
M  V30 4482 H 420.304 0.703648 1.25638 0
M  V30 4483 H 422.257 -0.393286 4.19561 0
M  V30 4484 H 420.981 -0.997766 3.10986 0
M  V30 4485 H 419.64 1.09925 3.49731 0
M  V30 4486 H 419.288 -0.907765 4.94741 0
M  V30 4487 H 418.988 0.601444 5.84514 0
M  V30 4488 H 420.512 -0.295808 6.09883 0
M  V30 4489 H 421.926 1.87148 5.41893 0
M  V30 4490 H 420.323 2.66164 5.37845 0
M  V30 4491 H 421.393 2.78393 3.9702 0
M  V30 4492 N 422.737 -1.36956 0.779787 0
M  V30 4493 C 424.153 -1.52817 0.460342 0
M  V30 4494 C 424.353 -1.7361 -1.02283 0
M  V30 4495 O 423.409 -1.76207 -1.80852 0
M  V30 4496 C 424.722 -2.71983 1.28241 0
M  V30 4497 C 426.27 -2.85849 1.27512 0
M  V30 4498 C 426.745 -4.08008 2.08072 0
M  V30 4499 N 428.236 -4.15135 2.05467 0
M  V30 4500 C 428.971 -5.08711 2.64577 0
M  V30 4501 N 428.467 -6.07792 3.32506 0
M  V30 4502 N 430.26 -5.01254 2.54363 0
M  V30 4503 H 422.411 -1.21713 1.74068 0
M  V30 4504 H 424.674 -0.593294 0.739396 0
M  V30 4505 H 424.38 -2.63109 2.33381 0
M  V30 4506 H 424.254 -3.65882 0.917088 0
M  V30 4507 H 426.641 -2.94189 0.231686 0
M  V30 4508 H 426.722 -1.92886 1.68014 0
M  V30 4509 H 426.366 -4.00429 3.12441 0
M  V30 4510 H 426.296 -5.001 1.64947 0
M  V30 4511 H 428.787 -3.44189 1.5602 0
M  V30 4512 H 429.1 -6.75739 3.74963 0
M  V30 4513 H 427.445 -6.08047 3.36606 0
M  V30 4514 H 430.636 -4.22795 2.00902 0
M  V30 4515 H 430.809 -5.73995 3.00722 0
M  V30 4516 N 424.215 -0.530993 -1.48385 0
M  V30 4517 C 425.626 -0.0907905 -1.86479 0
M  V30 4518 C 425.977 1.33213 -1.44044 0
M  V30 4519 O 425.102 1.99783 -0.831615 0
M  V30 4520 C 425.697 -0.157987 -3.38431 0
M  V30 4521 C 424.256 0.227026 -3.75715 0
M  V30 4522 C 423.403 -0.5173 -2.72432 0
M  V30 4523 H 426.354 -0.742186 -1.40276 0
M  V30 4524 H 426.375 0.630053 -3.75247 0
M  V30 4525 H 425.887 -1.19372 -3.69286 0
M  V30 4526 H 423.988 1.26486 -3.50474 0
M  V30 4527 H 424.101 -0.113288 -4.78966 0
M  V30 4528 H 422.465 0.0365527 -2.54674 0
M  V30 4529 H 423.248 -1.55368 -3.0613 0
M  V30 4530 N 425.693 1.55336 -0.266172 0
M  V30 4531 C 426.623 2.25146 0.618981 0
M  V30 4532 C 427.604 1.23845 1.16604 0
M  V30 4533 O 428.789 1.52544 1.20183 0
M  V30 4534 C 425.919 2.96572 1.80728 0
M  V30 4535 C 424.873 4.04726 1.39215 0
M  V30 4536 C 424.199 4.63678 2.66283 0
M  V30 4537 C 425.499 5.19407 0.548942 0
M  V30 4538 H 427.193 2.99377 0.0368116 0
M  V30 4539 H 424.739 1.43991 0.0162651 0
M  V30 4540 H 426.692 3.44116 2.43232 0
M  V30 4541 H 425.416 2.19861 2.41514 0
M  V30 4542 H 424.075 3.57979 0.790351 0
M  V30 4543 H 423.723 3.83646 3.25308 0
M  V30 4544 H 423.423 5.367 2.39222 0
M  V30 4545 H 424.947 5.13967 3.29651 0
M  V30 4546 H 426.361 5.63059 1.07876 0
M  V30 4547 H 424.758 5.98936 0.373593 0
M  V30 4548 H 425.828 4.8295 -0.434394 0
M  V30 4549 N 427.171 -0.0066808 1.57599 0
M  V30 4550 C 428.081 -1.01671 2.11424 0
M  V30 4551 C 429.097 -1.38143 1.05795 0
M  V30 4552 O 430.273 -1.47011 1.37658 0
M  V30 4553 C 427.338 -2.29192 2.60139 0
M  V30 4554 C 426.399 -1.99094 3.80342 0
M  V30 4555 C 425.632 -3.20535 4.26724 0
M  V30 4556 O 425.855 -4.3199 3.72479 0
M  V30 4557 O 424.789 -3.04924 5.18946 0
M  V30 4558 H 428.615 -0.589181 2.9793 0
M  V30 4559 H 426.2 -0.225091 1.47695 0
M  V30 4560 H 428.082 -3.0412 2.917 0
M  V30 4561 H 426.757 -2.71195 1.76733 0
M  V30 4562 H 425.664 -1.21663 3.53764 0
M  V30 4563 H 426.997 -1.61931 4.648 0
M  V30 4564 N 428.649 -1.55105 -0.279332 0
M  V30 4565 C 429.581 -1.83952 -1.36727 0
M  V30 4566 C 430.594 -0.723642 -1.45833 0
M  V30 4567 O 431.783 -1.00141 -1.47763 0
M  V30 4568 C 428.883 -1.98183 -2.74912 0
M  V30 4569 C 428.056 -3.28787 -2.88475 0
M  V30 4570 C 427.115 -3.33162 -4.07295 0
M  V30 4571 O 426.141 -4.06576 -3.98353 0
M  V30 4572 N 427.343 -2.60109 -5.18964 0
M  V30 4573 H 430.108 -2.77853 -1.12328 0
M  V30 4574 H 427.669 -1.54945 -0.469442 0
M  V30 4575 H 429.661 -1.98488 -3.52682 0
M  V30 4576 H 428.231 -1.11177 -2.92162 0
M  V30 4577 H 427.451 -3.41075 -1.97641 0
M  V30 4578 H 428.739 -4.14933 -2.94463 0
M  V30 4579 H 428.137 -2.00136 -5.29115 0
M  V30 4580 H 426.694 -2.66143 -5.94988 0
M  V30 4581 N 430.127 0.543554 -1.4793 0
M  V30 4582 C 431.543 0.870806 -1.3375 0
M  V30 4583 C 431.743 1.9864 -0.338261 0
M  V30 4584 O 430.799 2.51305 0.245371 0
M  V30 4585 C 432.112 1.25114 -2.73435 0
M  V30 4586 C 433.66 1.3618 -2.81823 0
M  V30 4587 C 434.135 1.77563 -4.22179 0
M  V30 4588 N 435.626 1.8469 -4.24787 0
M  V30 4589 C 436.361 2.18067 -5.30315 0
M  V30 4590 N 435.857 2.49963 -6.46135 0
M  V30 4591 N 437.65 2.18958 -5.17701 0
M  V30 4592 H 429.801 -0.19275 -2.11524 0
M  V30 4593 H 432.064 -0.0235777 -0.947707 0
M  V30 4594 H 431.77 0.50514 -3.48053 0
M  V30 4595 H 431.644 2.20431 -3.06088 0
M  V30 4596 H 434.031 2.09859 -2.07468 0
M  V30 4597 H 434.112 0.390169 -2.52807 0
M  V30 4598 H 433.756 1.04449 -4.97044 0
M  V30 4599 H 433.686 2.75753 -4.48629 0
M  V30 4600 H 436.177 1.62372 -3.41239 0
M  V30 4601 H 436.49 2.74497 -7.22406 0
M  V30 4602 H 434.835 2.47513 -6.49432 0
M  V30 4603 H 438.026 1.93488 -4.2624 0
M  V30 4604 H 438.199 2.44639 -6.00047 0
M  V30 4605 N 431.605 1.3629 0.791371 0
M  V30 4606 C 433.021 1.16661 1.08914 0
M  V30 4607 C 433.221 -0.0106266 2.01497 0
M  V30 4608 O 432.277 -0.676596 2.43266 0
M  V30 4609 C 433.59 2.47656 1.70549 0
M  V30 4610 C 435.138 2.54002 1.82899 0
M  V30 4611 C 435.613 3.85078 2.47949 0
M  V30 4612 N 437.104 3.86413 2.5542 0
M  V30 4613 C 437.839 4.84572 3.06557 0
M  V30 4614 N 437.335 5.93124 3.58016 0
M  V30 4615 N 439.128 4.71994 3.05251 0
M  V30 4616 H 431.279 2.11668 0.176238 0
M  V30 4617 H 433.542 0.937486 0.140796 0
M  V30 4618 H 433.248 3.34059 1.09989 0
M  V30 4619 H 433.122 2.63319 2.70079 0
M  V30 4620 H 435.509 1.68018 2.42598 0
M  V30 4621 H 435.59 2.42239 0.821808 0
M  V30 4622 H 435.234 4.71467 1.88895 0
M  V30 4623 H 435.164 3.94135 3.49235 0
M  V30 4624 H 437.655 3.07988 2.18979 0
M  V30 4625 H 437.968 6.63999 3.95381 0
M  V30 4626 H 436.313 5.96796 3.56173 0
M  V30 4627 H 439.504 3.86321 2.64336 0
M  V30 4628 H 439.677 5.48653 3.44796 0
M  V30 4629 N 433.083 -1.0153 1.20538 0
M  V30 4630 C 434.046 -2.0826 0.957098 0
M  V30 4631 C 435.046 -1.60657 -0.0678655 0
M  V30 4632 O 436.236 -1.73385 0.168332 0
M  V30 4633 C 433.368 -3.38033 0.441188 0
M  V30 4634 H 434.561 -2.31719 1.90384 0
M  V30 4635 H 432.114 -1.1835 1.02093 0
M  V30 4636 H 432.849 -3.20249 -0.510961 0
M  V30 4637 H 432.634 -3.73911 1.18038 0
M  V30 4638 H 434.124 -4.16613 0.287009 0
M  V30 4639 N 434.561 -1.01147 -1.20859 0
M  V30 4640 C 435.493 -0.535546 -2.22855 0
M  V30 4641 C 436.506 0.379323 -1.58319 0
M  V30 4642 O 437.695 0.178489 -1.77605 0
M  V30 4643 C 434.795 0.240962 -3.38042 0
M  V30 4644 C 433.968 -0.674562 -4.32167 0
M  V30 4645 C 433.027 0.053467 -5.26173 0
M  V30 4646 O 432.053 -0.567339 -5.66366 0
M  V30 4647 N 433.255 1.32997 -5.65059 0
M  V30 4648 H 436.02 -1.41268 -2.64317 0
M  V30 4649 H 433.581 -0.888386 -1.35349 0
M  V30 4650 H 435.573 0.737115 -3.97931 0
M  V30 4651 H 434.143 1.01935 -2.95513 0
M  V30 4652 H 433.363 -1.35111 -3.70322 0
M  V30 4653 H 434.651 -1.2974 -4.91981 0
M  V30 4654 H 434.049 1.85536 -5.34409 0
M  V30 4655 H 432.606 1.77095 -6.2728 0
M  V30 4656 N 436.039 1.36541 -0.78704 0
M  V30 4657 C 437.287 1.98911 -0.357633 0
M  V30 4658 C 437.608 1.62778 1.07371 0
M  V30 4659 O 436.878 0.900612 1.73971 0
M  V30 4660 H 435.458 0.735734 -0.129246 0
M  V30 4661 H 438.12 1.66776 -1.00855 0
M  V30 4662 H 437.216 3.08874 -0.447549 0
M  V30 4663 N 437.518 0.538854 1.48102 0
M  V30 4664 C 438.465 -0.219042 2.29758 0
M  V30 4665 C 439.435 -0.925562 1.37922 0
M  V30 4666 O 440.62 -0.924855 1.66886 0
M  V30 4667 C 437.76 -1.25452 3.2149 0
M  V30 4668 C 436.873 -0.555943 4.28408 0
M  V30 4669 C 436.008 -1.57512 5.0731 0
M  V30 4670 C 435.047 -0.860498 6.06021 0
M  V30 4671 N 434.184 -1.82564 6.77949 0
M  V30 4672 H 439.024 0.483449 2.94052 0
M  V30 4673 H 436.561 0.250247 1.44956 0
M  V30 4674 H 438.519 -1.86727 3.7308 0
M  V30 4675 H 437.149 -1.92528 2.591 0
M  V30 4676 H 436.201 0.170938 3.80016 0
M  V30 4677 H 437.513 0.00474616 4.988 0
M  V30 4678 H 436.667 -2.26191 5.62959 0
M  V30 4679 H 435.406 -2.16972 4.36778 0
M  V30 4680 H 434.411 -0.159686 5.49568 0
M  V30 4681 H 435.636 -0.271897 6.78555 0
M  V30 4682 H 433.582 -2.40915 6.10161 0
M  V30 4683 H 433.499 -1.31662 7.44447 0
M  V30 4684 H 434.767 -2.50414 7.38182 0
M  V30 4685 N 438.996 -1.55193 0.274407 0
M  V30 4686 C 439.926 -2.25471 -0.607032 0
M  V30 4687 C 440.907 -1.24461 -1.15946 0
M  V30 4688 O 442.092 -1.53179 -1.19373 0
M  V30 4689 C 439.222 -2.97526 -1.79153 0
M  V30 4690 C 438.176 -4.05459 -1.37067 0
M  V30 4691 C 437.502 -4.65084 -2.6382 0
M  V30 4692 C 438.802 -5.19691 -0.521389 0
M  V30 4693 H 440.496 -2.99393 -0.0209343 0
M  V30 4694 H 438.042 -1.43997 -0.00862866 0
M  V30 4695 H 439.995 -3.45402 -2.41404 0
M  V30 4696 H 438.719 -2.21138 -2.40344 0
M  V30 4697 H 437.378 -3.58393 -0.771355 0
M  V30 4698 H 437.026 -3.85365 -3.23268 0
M  V30 4699 H 436.726 -5.37961 -2.36372 0
M  V30 4700 H 438.25 -5.15708 -3.26921 0
M  V30 4701 H 439.664 -5.63623 -1.04889 0
M  V30 4702 H 438.061 -5.99126 -0.341825 0
M  V30 4703 H 439.131 -4.82713 0.46 0
M  V30 4704 N 440.474 -0.00167713 -1.576 0
M  V30 4705 C 441.721 0.68282 -1.90641 0
M  V30 4706 C 442.049 1.73686 -0.875415 0
M  V30 4707 O 441.304 1.95334 0.119575 0
M  V30 4708 C 441.603 1.36189 -3.30435 0
M  V30 4709 C 441.269 0.440887 -4.48739 0
M  V30 4710 C 439.931 0.187312 -4.80835 0
M  V30 4711 C 442.283 -0.193134 -5.20842 0
M  V30 4712 C 439.611 -0.70855 -5.82406 0
M  V30 4713 C 441.963 -1.07688 -6.23367 0
M  V30 4714 C 440.627 -1.33962 -6.53919 0
M  V30 4715 H 439.897 0.249862 -0.697603 0
M  V30 4716 H 442.544 -0.0575642 -1.91413 0
M  V30 4717 H 440.849 2.17636 -3.25794 0
M  V30 4718 H 442.546 1.89759 -3.5326 0
M  V30 4719 H 439.136 0.648694 -4.23663 0
M  V30 4720 H 443.32 -0.0102445 -4.96299 0
M  V30 4721 H 438.576 -0.920097 -6.04437 0
M  V30 4722 H 442.75 -1.57451 -6.78367 0
M  V30 4723 H 440.377 -2.03549 -7.32442 0
M  V30 4724 N 441.952 1.55251 0.271103 0
M  V30 4725 C 442.884 1.84675 1.35749 0
M  V30 4726 C 443.897 0.731366 1.45447 0
M  V30 4727 O 445.086 1.00924 1.4723 0
M  V30 4728 C 442.186 1.99638 2.73857 0
M  V30 4729 C 441.359 3.30312 2.86727 0
M  V30 4730 C 440.418 3.35318 4.05522 0
M  V30 4731 O 439.444 4.08682 3.96191 0
M  V30 4732 N 440.646 2.62857 5.17577 0
M  V30 4733 H 443.411 2.78445 1.10853 0
M  V30 4734 H 440.972 1.55191 0.461218 0
M  V30 4735 H 442.964 2.00355 3.51625 0
M  V30 4736 H 441.534 1.12725 2.91568 0
M  V30 4737 H 440.754 3.42118 1.95829 0
M  V30 4738 H 442.042 4.16488 2.92258 0
M  V30 4739 H 441.44 2.02939 5.28046 0
M  V30 4740 H 439.997 2.69295 5.93568 0
M  V30 4741 N 443.43 -0.535701 1.48216 0
M  V30 4742 C 444.363 -1.65726 1.56876 0
M  V30 4743 C 445.341 -1.57094 0.419542 0
M  V30 4744 O 446.525 -1.77648 0.630352 0
M  V30 4745 C 443.652 -3.04096 1.49142 0
M  V30 4746 C 442.698 -3.31105 2.68834 0
M  V30 4747 S 443.531 -3.18001 4.30854 0
M  V30 4748 C 444.687 -4.58828 4.25709 0
M  V30 4749 H 444.92 -1.58129 2.51759 0
M  V30 4750 H 442.453 -0.718218 1.36678 0
M  V30 4751 H 444.411 -3.839 1.45366 0
M  V30 4752 H 443.072 -3.09139 0.556067 0
M  V30 4753 H 442.265 -4.32033 2.59545 0
M  V30 4754 H 441.867 -2.58961 2.69843 0
M  V30 4755 H 444.159 -5.5023 3.95289 0
M  V30 4756 H 445.102 -4.73172 5.26796 0
M  V30 4757 H 445.51 -4.37883 3.56257 0
M  V30 4758 N 444.908 -1.36708 -0.784132 0
M  V30 4759 C 446.154 -1.31426 -1.54451 0
M  V30 4760 C 446.487 0.10476 -1.93917 0
M  V30 4761 O 445.762 1.05934 -1.6312 0
M  V30 4762 C 446.045 -2.24189 -2.818 0
M  V30 4763 C 445.898 -3.74813 -2.48667 0
M  V30 4764 C 447.217 -2.15626 -3.83658 0
M  V30 4765 H 444.336 -0.478739 -0.560337 0
M  V30 4766 H 446.978 -1.67305 -0.900498 0
M  V30 4767 H 445.128 -1.93722 -3.36755 0
M  V30 4768 H 446.8 -4.15823 -1.99722 0
M  V30 4769 H 445.043 -3.93989 -1.81535 0
M  V30 4770 H 445.714 -4.35138 -3.39646 0
M  V30 4771 H 448.19 -2.42456 -3.38163 0
M  V30 4772 H 447.066 -2.82694 -4.70506 0
M  V30 4773 H 447.327 -1.14522 -4.27009 0
M  V30 4774 N 446.386 1.0089 -1.21074 0
M  V30 4775 C 447.614 1.78191 -1.05145 0
M  V30 4776 C 448.029 1.84537 0.398952 0
M  V30 4777 O 447.386 1.30393 1.27687 0
M  V30 4778 C 447.437 3.22288 -1.63746 0
M  V30 4779 O 447.158 3.16315 -3.03111 0
M  V30 4780 C 448.659 4.16106 -1.52875 0
M  V30 4781 H 445.879 0.560129 -0.369454 0
M  V30 4782 H 448.423 1.26945 -1.60328 0
M  V30 4783 H 446.578 3.70655 -1.12664 0
M  V30 4784 H 446.992 4.06817 -3.31059 0
M  V30 4785 H 448.466 5.15026 -1.98626 0
M  V30 4786 H 448.943 4.36541 -0.482521 0
M  V30 4787 H 449.549 3.73625 -2.03185 0
M  V30 4788 N 447.864 1.01787 1.20321 0
M  V30 4789 C 449.113 0.703249 1.89043 0
M  V30 4790 C 449.426 -0.770445 1.79787 0
M  V30 4791 O 450.632 -1.19767 2.43656 0
M  V30 4792 C 449.088 1.20749 3.3904 0
M  V30 4793 C 448.696 2.70817 3.56878 0
M  V30 4794 C 450.44 0.968352 4.13308 0
M  V30 4795 C 448.347 3.14716 5.00708 0
M  V30 4796 H 447.277 0.259354 0.707991 0
M  V30 4797 H 449.928 1.23072 1.36108 0
M  V30 4798 H 448.31 0.607989 3.91305 0
M  V30 4799 H 449.484 3.36327 3.14993 0
M  V30 4800 H 447.799 2.92888 2.95983 0
M  V30 4801 H 450.396 1.27173 5.19356 0
M  V30 4802 H 450.739 -0.095149 4.16191 0
M  V30 4803 H 451.272 1.53129 3.67146 0
M  V30 4804 H 448.011 4.20347 5.02979 0
M  V30 4805 H 447.531 2.53927 5.43398 0
M  V30 4806 H 449.21 3.07426 5.69296 0
M  V30 4807 N 449.342 -1.36122 0.79427 0
M  V30 4808 C 450.619 -1.93398 0.292685 0
M  V30 4809 C 450.999 -1.72567 -1.21589 0
M  V30 4810 O 450.347 -1.08745 -2.00965 0
M  V30 4811 C 450.557 -3.42099 0.690614 0
M  V30 4812 C 451.905 -4.19231 0.673105 0
M  V30 4813 O 452.929 -3.50559 0.631389 0
M  V30 4814 O 451.788 -5.41732 0.720362 0
M  V30 4815 H 448.882 -0.823712 0.0736693 0
M  V30 4816 H 451.428 -1.45273 0.87714 0
M  V30 4817 H 450.2 -3.50938 1.73085 0
M  V30 4818 H 449.823 -3.97519 0.0803036 0
M  V30 4819 N 450.82 -0.546701 -1.47814 0
M  V30 4820 C 451.752 0.244196 -2.27895 0
M  V30 4821 C 452.765 0.88911 -1.36377 0
M  V30 4822 O 453.954 0.764733 -1.61289 0
M  V30 4823 C 451.054 1.36252 -3.10304 0
M  V30 4824 C 450.227 0.816382 -4.29714 0
M  V30 4825 C 449.286 1.81789 -4.93801 0
M  V30 4826 O 448.312 1.36818 -5.52512 0
M  V30 4827 N 449.514 3.15085 -4.87547 0
M  V30 4828 H 452.279 -0.442694 -2.96412 0
M  V30 4829 H 449.84 -0.382095 -1.57327 0
M  V30 4830 H 451.832 2.03102 -3.50045 0
M  V30 4831 H 450.402 1.95281 -2.44099 0
M  V30 4832 H 449.622 -0.0285981 -3.9419 0
M  V30 4833 H 450.91 0.430668 -5.06974 0
M  V30 4834 H 450.308 3.54275 -4.41028 0
M  V30 4835 H 448.865 3.77522 -5.31339 0
M  V30 4836 N 452.299 1.55045 -0.282633 0
M  V30 4837 C 453.229 2.2579 0.595066 0
M  V30 4838 C 454.21 1.25074 1.15284 0
M  V30 4839 O 455.395 1.5381 1.18559 0
M  V30 4840 C 452.525 2.98472 1.77572 0
M  V30 4841 C 451.479 4.0618 1.34914 0
M  V30 4842 C 450.805 4.66477 2.6135 0
M  V30 4843 C 452.105 5.1996 0.493821 0
M  V30 4844 H 453.799 2.994 0.00505653 0
M  V30 4845 H 451.345 1.44 0.000992001 0
M  V30 4846 H 453.298 3.46677 2.39568 0
M  V30 4847 H 452.022 2.2241 2.39168 0
M  V30 4848 H 450.681 3.58797 0.752338 0
M  V30 4849 H 450.329 3.87074 3.2122 0
M  V30 4850 H 450.029 5.39207 2.33516 0
M  V30 4851 H 451.553 5.17435 3.24181 0
M  V30 4852 H 452.967 5.64172 1.01898 0
M  V30 4853 H 451.364 5.99299 0.310047 0
M  V30 4854 H 452.434 4.82462 -0.485593 0
M  V30 4855 N 453.777 0.010035 1.57597 0
M  V30 4856 C 454.724 -0.978122 2.09049 0
M  V30 4857 C 455.694 -1.33509 0.988159 0
M  V30 4858 O 456.879 -1.43172 1.26121 0
M  V30 4859 C 454.019 -2.26158 2.60666 0
M  V30 4860 C 453.132 -1.96275 3.84838 0
M  V30 4861 C 452.267 -3.18776 4.24918 0
M  V30 4862 C 451.306 -2.84625 5.41899 0
M  V30 4863 N 450.443 -3.99693 5.77226 0
M  V30 4864 H 455.283 -0.532431 2.93205 0
M  V30 4865 H 452.82 -0.251234 1.44939 0
M  V30 4866 H 454.778 -3.01202 2.88675 0
M  V30 4867 H 453.408 -2.68378 1.79369 0
M  V30 4868 H 452.46 -1.11555 3.63675 0
M  V30 4869 H 453.772 -1.67111 4.69974 0
M  V30 4870 H 452.926 -4.02157 4.54262 0
M  V30 4871 H 451.665 -3.51087 3.38511 0
M  V30 4872 H 450.67 -1.99653 5.12268 0
M  V30 4873 H 451.895 -2.53551 6.29991 0
M  V30 4874 H 449.841 -4.31882 4.93776 0
M  V30 4875 H 449.758 -3.74087 6.56959 0
M  V30 4876 H 451.026 -4.83834 6.11167 0
M  V30 4877 N 455.255 -1.55392 -0.262866 0
M  V30 4878 C 456.165 -1.92077 -1.34698 0
M  V30 4879 C 457.181 -0.819227 -1.53508 0
M  V30 4880 O 458.357 -1.11921 -1.67439 0
M  V30 4881 C 455.422 -2.19407 -2.68443 0
M  V30 4882 C 454.483 -3.42905 -2.58292 0
M  V30 4883 C 453.716 -3.68921 -3.85659 0
M  V30 4884 O 453.939 -2.97275 -4.8681 0
M  V30 4885 O 452.873 -4.62455 -3.85252 0
M  V30 4886 H 456.699 -2.84384 -1.06581 0
M  V30 4887 H 454.284 -1.42069 -0.462264 0
M  V30 4888 H 456.166 -2.38365 -3.47506 0
M  V30 4889 H 454.841 -1.30282 -2.96325 0
M  V30 4890 H 453.748 -3.29272 -1.7757 0
M  V30 4891 H 455.081 -4.32282 -2.35358 0
M  V30 4892 N 456.733 0.527833 -1.48498 0
M  V30 4893 C 457.666 1.64892 -1.57753 0
M  V30 4894 C 458.644 1.5687 -0.427867 0
M  V30 4895 O 459.828 1.77311 -0.639764 0
M  V30 4896 C 456.955 3.03301 -1.50752 0
M  V30 4897 C 456.001 3.29675 -2.70586 0
M  V30 4898 S 456.834 3.15712 -4.32535 0
M  V30 4899 C 457.99 4.56564 -4.28136 0
M  V30 4900 H 458.223 1.56792 -2.52594 0
M  V30 4901 H 455.756 0.710959 -1.37057 0
M  V30 4902 H 457.714 3.83123 -1.474 0
M  V30 4903 H 456.375 3.08839 -0.572454 0
M  V30 4904 H 455.568 4.3065 -2.61833 0
M  V30 4905 H 455.17 2.57526 -2.71212 0
M  V30 4906 H 457.462 5.48126 -3.98201 0
M  V30 4907 H 458.405 4.70371 -5.29298 0
M  V30 4908 H 458.813 4.35987 -3.58574 0
M  V30 4909 N 458.211 1.37122 0.776871 0
M  V30 4910 C 459.174 1.32301 1.8716 0
M  V30 4911 C 460.174 0.228099 1.59174 0
M  V30 4912 O 461.364 0.483642 1.67352 0
M  V30 4913 C 458.496 1.054 3.24197 0
M  V30 4914 H 459.689 2.29673 1.92848 0
M  V30 4915 H 457.242 1.22077 0.97606 0
M  V30 4916 H 457.977 0.0853872 3.24188 0
M  V30 4917 H 457.762 1.84648 3.45901 0
M  V30 4918 H 459.252 1.04664 4.04271 0
M  V30 4919 N 459.689 -1.00246 1.21608 0
M  V30 4920 C 461.1 -1.55511 1.03312 0
M  V30 4921 C 461.451 -1.91946 -0.406332 0
M  V30 4922 O 460.576 -1.73753 -1.28992 0
M  V30 4923 C 461.171 -2.82576 1.86913 0
M  V30 4924 C 459.73 -3.34318 1.72941 0
M  V30 4925 C 458.877 -2.07487 1.83968 0
M  V30 4926 H 461.828 -0.824638 1.35593 0
M  V30 4927 H 461.849 -3.54559 1.38087 0
M  V30 4928 H 461.361 -2.56026 2.91672 0
M  V30 4929 H 459.462 -3.65797 0.70877 0
M  V30 4930 H 459.575 -4.05566 2.55055 0
M  V30 4931 H 457.939 -2.20603 1.27304 0
M  V30 4932 H 458.722 -1.83346 2.9024 0
M  V30 4933 N 461.167 -1.02423 -1.1978 0
M  V30 4934 C 462.13 -0.605703 -2.21052 0
M  V30 4935 C 463.13 0.328209 -1.57415 0
M  V30 4936 O 464.32 0.115853 -1.73814 0
M  V30 4937 C 461.452 0.114366 -3.40708 0
M  V30 4938 H 462.645 -1.5017 -2.59594 0
M  V30 4939 H 460.198 -0.814888 -1.33376 0
M  V30 4940 H 460.933 1.02492 -3.07678 0
M  V30 4941 H 460.718 -0.556641 -3.88129 0
M  V30 4942 H 462.208 0.394272 -4.15735 0
M  V30 4943 N 462.645 1.35699 -0.801477 0
M  V30 4944 C 463.894 1.98165 -0.375979 0
M  V30 4945 C 464.207 1.64306 1.06127 0
M  V30 4946 O 465.413 2.20097 1.58964 0
M  V30 4947 C 463.869 3.54497 -0.621305 0
M  V30 4948 C 463.477 3.9727 -2.07076 0
M  V30 4949 C 465.221 4.23697 -0.26091 0
M  V30 4950 C 463.128 5.46427 -2.26211 0
M  V30 4951 H 462.058 0.741478 -0.136844 0
M  V30 4952 H 464.709 1.54834 -0.984814 0
M  V30 4953 H 463.091 3.95958 0.0574112 0
M  V30 4954 H 464.265 3.66974 -2.78687 0
M  V30 4955 H 462.58 3.40943 -2.39054 0
M  V30 4956 H 465.177 5.33334 -0.381994 0
M  V30 4957 H 465.52 4.0869 0.792344 0
M  V30 4958 H 466.053 3.87639 -0.893339 0
M  V30 4959 H 462.792 5.66396 -3.29963 0
M  V30 4960 H 462.312 5.78309 -1.59119 0
M  V30 4961 H 463.991 6.12819 -2.07513 0
M  V30 4962 N 464.123 0.554532 1.47522 0
M  V30 4963 C 465.4 -0.0360704 1.95567 0
M  V30 4964 C 465.78 -1.48828 1.49711 0
M  V30 4965 O 465.128 -2.16366 0.734717 0
M  V30 4966 C 465.338 0.106631 3.48837 0
M  V30 4967 C 466.686 -0.0400899 4.24581 0
M  V30 4968 O 467.71 0.0340453 3.56184 0
M  V30 4969 O 466.569 -0.199111 5.46137 0
M  V30 4970 H 463.663 -0.0656294 0.824392 0
M  V30 4971 H 466.209 0.620867 1.57935 0
M  V30 4972 H 464.981 1.11727 3.7501 0
M  V30 4973 H 464.604 -0.58804 3.93227 0
M  V30 4974 N 465.601 -1.54893 0.290851 0
M  V30 4975 C 466.847 -2.00949 -0.314784 0
M  V30 4976 C 467.202 -1.1757 -1.52299 0
M  V30 4977 O 466.495 -0.241558 -1.90071 0
M  V30 4978 C 466.689 -3.49815 -0.732397 0
M  V30 4979 C 466.518 -4.47603 0.433799 0
M  V30 4980 C 465.288 -4.96806 0.922599 0
M  V30 4981 C 467.486 -4.98233 1.27546 0
M  V30 4982 N 465.468 -5.78426 2.05662 0
M  V30 4983 C 466.839 -5.77455 2.25712 0
M  V30 4984 C 468.894 -4.80439 1.307 0
M  V30 4985 C 467.597 -6.40778 3.26796 0
M  V30 4986 C 469.623 -5.44574 2.30637 0
M  V30 4987 C 468.985 -6.23619 3.27533 0
M  V30 4988 H 465.084 -0.777905 -0.0799257 0
M  V30 4989 H 467.668 -1.9015 0.418458 0
M  V30 4990 H 465.839 -3.60925 -1.43483 0
M  V30 4991 H 467.571 -3.82681 -1.31671 0
M  V30 4992 H 464.326 -4.70961 0.49926 0
M  V30 4993 H 464.75 -6.23923 2.62772 0
M  V30 4994 H 469.392 -4.18918 0.571622 0
M  V30 4995 H 467.11 -7.01439 4.01258 0
M  V30 4996 H 470.696 -5.32739 2.33838 0
M  V30 4997 H 469.576 -6.72367 4.03599 0
M  V30 4998 N 467.08 -0.0183926 -1.57589 0
M  V30 4999 C 468.01 0.965596 -2.12599 0
M  V30 5000 C 468.991 1.34641 -1.0395 0
M  V30 5001 O 470.176 1.42693 -1.31729 0
M  V30 5002 C 467.306 2.25149 -2.64434 0
M  V30 5003 C 466.26 2.01175 -3.77773 0
M  V30 5004 C 465.586 3.35937 -4.15994 0
M  V30 5005 C 466.886 1.35953 -5.04296 0
M  V30 5006 H 468.58 0.507504 -2.95067 0
M  V30 5007 H 466.126 0.242671 -1.41941 0
M  V30 5008 H 468.079 2.94357 -3.01549 0
M  V30 5009 H 466.803 2.73105 -1.79112 0
M  V30 5010 H 465.462 1.34388 -3.4108 0
M  V30 5011 H 465.11 3.81631 -3.27669 0
M  V30 5012 H 464.81 3.20705 -4.92364 0
M  V30 5013 H 466.334 4.0643 -4.55683 0
M  V30 5014 H 467.748 1.95144 -5.39065 0
M  V30 5015 H 466.145 1.31152 -5.85593 0
M  V30 5016 H 467.215 0.331071 -4.83768 0
M  V30 5017 N 468.558 1.5553 0.254621 0
M  V30 5018 C 469.783 1.81383 1.00573 0
M  V30 5019 C 470.208 0.594419 1.78461 0
M  V30 5020 O 469.566 -0.456403 1.75461 0
M  V30 5021 C 469.614 3.04892 1.92545 0
M  V30 5022 O 468.718 2.81266 3.01601 0
M  V30 5023 H 468.059 0.598969 0.286587 0
M  V30 5024 H 470.589 2.02703 0.277952 0
M  V30 5025 H 470.599 3.34119 2.34155 0
M  V30 5026 H 469.274 3.93287 1.3527 0
M  V30 5027 H 467.851 2.63185 2.64174 0
M  V30 5028 N 470.036 -0.519951 1.48776 0
M  V30 5029 C 471.276 -1.2856 1.58908 0
M  V30 5030 C 471.64 -1.90212 0.261418 0
M  V30 5031 O 472.841 -2.67746 0.237791 0
M  V30 5032 C 471.112 -2.33836 2.70288 0
M  V30 5033 S 472.671 -3.19992 3.0025 0
M  V30 5034 H 469.489 -0.43717 0.560717 0
M  V30 5035 H 472.091 -0.591205 1.86346 0
M  V30 5036 H 470.795 -1.87041 3.653 0
M  V30 5037 H 470.326 -3.07969 2.44783 0
M  V30 5038 H 472.341 -4.34122 2.40317 0
M  V30 5039 N 471.514 -1.37532 -0.769588 0
M  V30 5040 C 472.444 -1.36172 -1.89682 0
M  V30 5041 C 473.425 -0.23001 -1.68538 0
M  V30 5042 O 474.61 -0.43069 -1.89364 0
M  V30 5043 C 471.74 -1.1701 -3.26995 0
M  V30 5044 C 470.694 -2.27216 -3.62708 0
M  V30 5045 C 470.02 -1.93174 -4.98586 0
M  V30 5046 C 471.32 -3.6941 -3.69234 0
M  V30 5047 H 473.014 -2.30499 -1.91078 0
M  V30 5048 H 470.56 -1.10953 -0.917902 0
M  V30 5049 H 472.513 -1.14688 -4.05493 0
M  V30 5050 H 471.237 -0.191395 -3.26039 0
M  V30 5051 H 469.896 -2.28697 -2.86519 0
M  V30 5052 H 469.544 -0.938281 -4.94171 0
M  V30 5053 H 469.244 -2.66973 -5.23449 0
M  V30 5054 H 470.768 -1.92443 -5.79481 0
M  V30 5055 H 472.182 -3.70047 -4.37879 0
M  V30 5056 H 470.579 -4.4228 -4.05597 0
M  V30 5057 H 471.649 -4.0288 -2.69844 0
M  V30 5058 N 472.992 0.995999 -1.22138 0
M  V30 5059 C 473.924 2.08745 -0.946485 0
M  V30 5060 C 474.937 1.62633 0.0737356 0
M  V30 5061 O 476.126 1.77782 -0.159886 0
M  V30 5062 C 473.226 3.36516 -0.401305 0
M  V30 5063 C 472.399 4.11672 -1.47801 0
M  V30 5064 C 471.458 5.17728 -0.940461 0
M  V30 5065 O 470.484 5.45482 -1.62596 0
M  V30 5066 N 471.686 5.80005 0.239723 0
M  V30 5067 H 474.451 2.32908 -1.88611 0
M  V30 5068 H 472.012 1.16152 -1.12785 0
M  V30 5069 H 474.004 4.04691 -0.0270837 0
M  V30 5070 H 472.574 3.0944 0.443354 0
M  V30 5071 H 471.794 3.38171 -2.02568 0
M  V30 5072 H 473.082 4.58657 -2.20253 0
M  V30 5073 H 472.48 5.5982 0.813518 0
M  V30 5074 H 471.037 6.4943 0.555361 0
M  V30 5075 N 474.47 1.03057 1.19235 0
M  V30 5076 C 475.433 0.617418 2.20727 0
M  V30 5077 C 476.433 -0.319856 1.57587 0
M  V30 5078 O 477.623 -0.106633 1.73873 0
M  V30 5079 C 474.755 -0.096296 3.40764 0
M  V30 5080 H 475.948 1.51544 2.58794 0
M  V30 5081 H 473.501 0.821949 1.32942 0
M  V30 5082 H 474.236 -1.00859 3.08217 0
M  V30 5083 H 474.021 0.577217 3.87828 0
M  V30 5084 H 475.511 -0.372219 4.15938 0
M  V30 5085 N 475.948 -1.35272 0.808662 0
M  V30 5086 C 477.176 -2.02946 0.402537 0
M  V30 5087 C 477.591 -1.60937 -0.987147 0
M  V30 5088 O 476.948 -0.807917 -1.63643 0
M  V30 5089 C 476.999 -3.58317 0.47868 0
M  V30 5090 O 476.72 -3.98799 1.81358 0
M  V30 5091 C 478.221 -4.43251 0.0656281 0
M  V30 5092 H 475.441 -0.650831 0.163279 0
M  V30 5093 H 477.985 -1.72849 1.09286 0
M  V30 5094 H 476.14 -3.87055 -0.163415 0
M  V30 5095 H 476.554 -4.93451 1.77781 0
M  V30 5096 H 478.028 -5.51738 0.170017 0
M  V30 5097 H 478.505 -4.27913 -0.989278 0
M  V30 5098 H 479.111 -4.19813 0.68096 0
M  V30 5099 N 477.426 -0.562348 -1.47226 0
M  V30 5100 C 478.673 -0.0402165 -2.0246 0
M  V30 5101 C 479.001 1.31169 -1.43614 0
M  V30 5102 O 478.256 1.86805 -0.5833 0
M  V30 5103 C 478.555 0.0969817 -3.57268 0
M  V30 5104 C 478.221 -1.1847 -4.35058 0
M  V30 5105 C 476.883 -1.53588 -4.56031 0
M  V30 5106 C 479.235 -2.03378 -4.79882 0
M  V30 5107 C 476.563 -2.73452 -5.19077 0
M  V30 5108 C 478.915 -3.2245 -5.44251 0
M  V30 5109 C 477.579 -3.57876 -5.63455 0
M  V30 5110 H 476.849 -0.0147163 -0.740854 0
M  V30 5111 H 479.496 -0.734895 -1.76838 0
M  V30 5112 H 477.801 0.87466 -3.81912 0
M  V30 5113 H 479.498 0.516408 -3.97661 0
M  V30 5114 H 476.088 -0.90126 -4.19017 0
M  V30 5115 H 480.272 -1.77553 -4.63453 0
M  V30 5116 H 475.528 -3.01062 -5.32139 0
M  V30 5117 H 479.702 -3.88526 -5.77945 0
M  V30 5118 H 477.329 -4.50849 -6.12078 0
M  V30 5119 N 478.904 1.54736 -0.299062 0
M  V30 5120 C 480.132 2.04512 0.313447 0
M  V30 5121 C 480.547 1.17643 1.47667 0
M  V30 5122 O 479.904 0.20164 1.81383 0
M  V30 5123 C 479.955 3.53171 0.771542 0
M  V30 5124 O 479.676 4.36736 -0.345379 0
M  V30 5125 C 481.177 4.18936 1.4494 0
M  V30 5126 H 478.397 0.667507 0.0683784 0
M  V30 5127 H 480.941 1.99752 -0.438129 0
M  V30 5128 H 479.096 3.58298 1.47314 0
M  V30 5129 H 479.51 5.24499 0.0109219 0
M  V30 5130 H 480.984 5.24482 1.72111 0
M  V30 5131 H 481.461 3.68554 2.38883 0
M  V30 5132 H 482.067 4.17879 0.791028 0
M  V30 5133 N 480.382 0.0267497 1.57577 0
M  V30 5134 C 481.793 -0.512413 1.79531 0
M  V30 5135 C 482.144 -1.72391 0.936791 0
M  V30 5136 O 481.269 -2.15903 0.146543 0
M  V30 5137 C 481.864 -0.936378 3.25603 0
M  V30 5138 C 480.423 -1.42067 3.4856 0
M  V30 5139 C 479.57 -0.384278 2.74624 0
M  V30 5140 H 482.521 0.252797 1.56674 0
M  V30 5141 H 482.542 -1.80088 3.35184 0
M  V30 5142 H 482.054 -0.0544332 3.88062 0
M  V30 5143 H 480.155 -2.32262 2.9135 0
M  V30 5144 H 480.268 -1.42968 4.57271 0
M  V30 5145 H 478.632 -0.851855 2.40032 0
M  V30 5146 H 479.415 0.489159 3.39797 0
M  V30 5147 N 481.861 -1.55662 -0.24637 0
M  V30 5148 C 482.794 -1.85332 -1.33143 0
M  V30 5149 C 483.772 -0.708464 -1.46354 0
M  V30 5150 O 484.956 -0.954274 -1.6256 0
M  V30 5151 C 482.083 -2.0385 -2.70487 0
M  V30 5152 C 481.129 -3.26488 -2.74423 0
M  V30 5153 S 481.962 -4.83124 -2.30979 0
M  V30 5154 C 483.118 -5.04647 -3.70246 0
M  V30 5155 H 483.351 -2.77077 -1.07777 0
M  V30 5156 H 480.884 -1.47776 -0.44738 0
M  V30 5157 H 482.842 -2.15202 -3.49569 0
M  V30 5158 H 481.503 -1.12947 -2.9309 0
M  V30 5159 H 480.696 -3.36413 -3.7529 0
M  V30 5160 H 480.298 -3.13864 -2.03385 0
M  V30 5161 H 482.59 -4.92023 -4.65746 0
M  V30 5162 H 483.533 -6.06625 -3.65255 0
M  V30 5163 H 483.941 -4.32491 -3.62784 0
M  V30 5164 N 483.339 0.512053 -1.4905 0
M  V30 5165 C 484.564 1.2959 -1.6193 0
M  V30 5166 C 484.989 1.85906 -0.286454 0
M  V30 5167 O 484.347 1.65312 0.744426 0
M  V30 5168 C 484.395 2.40987 -2.68249 0
M  V30 5169 O 483.499 3.44531 -2.26654 0
M  V30 5170 H 482.84 0.383053 -0.542371 0
M  V30 5171 H 485.37 0.614231 -1.95162 0
M  V30 5172 H 485.38 2.86913 -2.90078 0
M  V30 5173 H 484.055 1.99361 -3.65004 0
M  V30 5174 H 482.632 3.046 -2.15112 0
M  V30 5175 N 484.817 1.37938 0.762283 0
M  V30 5176 C 485.747 1.37176 1.88958 0
M  V30 5177 C 486.728 0.238945 1.68413 0
M  V30 5178 O 487.913 0.440726 1.89133 0
M  V30 5179 C 485.043 1.18742 3.2637 0
M  V30 5180 C 483.997 2.29136 3.61498 0
M  V30 5181 C 483.323 1.95816 4.97554 0
M  V30 5182 C 484.623 3.71363 3.6727 0
M  V30 5183 H 486.317 2.31509 1.89853 0
M  V30 5184 H 483.863 1.11438 0.912005 0
M  V30 5185 H 485.816 1.16837 4.04879 0
M  V30 5186 H 484.54 0.208683 3.25933 0
M  V30 5187 H 483.199 2.30213 2.85303 0
M  V30 5188 H 482.847 0.964475 4.93667 0
M  V30 5189 H 482.547 2.69745 5.22026 0
M  V30 5190 H 484.071 1.95513 5.78452 0
M  V30 5191 H 485.485 3.72364 4.35911 0
M  V30 5192 H 483.882 4.44425 4.03245 0
M  V30 5193 H 484.952 4.04305 2.67704 0
M  V30 5194 N 486.295 -0.989507 1.22664 0
M  V30 5195 C 487.52 -1.77031 1.08051 0
M  V30 5196 C 487.945 -1.84535 -0.364483 0
M  V30 5197 O 487.303 -1.3003 -1.2634 0
M  V30 5198 C 487.351 -3.18 1.70024 0
M  V30 5199 O 486.455 -4.01161 0.956216 0
M  V30 5200 H 485.796 -0.545008 0.379292 0
M  V30 5201 H 488.326 -1.24277 1.62531 0
M  V30 5202 H 488.336 -3.68616 1.74888 0
M  V30 5203 H 487.011 -3.11853 2.75174 0
M  V30 5204 H 485.588 -3.59687 0.98384 0
M  V30 5205 N 487.773 -1.03688 -1.18687 0
M  V30 5206 C 489.184 -0.766488 -1.70241 0
M  V30 5207 C 489.535 0.713052 -1.82784 0
M  V30 5208 O 488.66 1.55529 -1.50465 0
M  V30 5209 C 489.255 -1.38475 -3.09209 0
M  V30 5210 C 487.814 -1.16276 -3.5799 0
M  V30 5211 C 486.961 -1.4778 -2.34641 0
M  V30 5212 H 489.912 -1.20378 -1.03415 0
M  V30 5213 H 489.933 -0.785939 -3.72295 0
M  V30 5214 H 489.445 -2.46157 -3.00048 0
M  V30 5215 H 487.546 -0.104508 -3.72453 0
M  V30 5216 H 487.659 -1.8571 -4.41643 0
M  V30 5217 H 486.023 -0.897366 -2.38368 0
M  V30 5218 H 486.806 -2.56562 -2.28102 0
M  V30 5219 N 489.251 1.34841 -0.815825 0
M  V30 5220 C 490.476 2.03261 -0.41226 0
M  V30 5221 C 490.901 1.61055 0.971751 0
M  V30 5222 O 490.259 0.7917 1.63101 0
M  V30 5223 C 490.307 3.56914 -0.514289 0
M  V30 5224 O 489.411 4.09728 0.468675 0
M  V30 5225 H 488.752 0.641664 -0.170771 0
M  V30 5226 H 491.282 1.72241 -1.10427 0
M  V30 5227 H 491.292 4.06156 -0.387457 0
M  V30 5228 H 489.967 3.86982 -1.52375 0
M  V30 5229 H 488.544 3.71681 0.301316 0
M  V30 5230 N 490.729 0.570148 1.46925 0
M  V30 5231 C 491.661 -0.207909 2.28255 0
M  V30 5232 C 492.674 -0.867301 1.37774 0
M  V30 5233 O 493.863 -0.738976 1.62485 0
M  V30 5234 C 490.963 -1.31298 3.12433 0
M  V30 5235 C 490.136 -0.747915 4.30958 0
M  V30 5236 C 489.195 -1.7391 4.9663 0
M  V30 5237 O 488.221 -1.2801 5.54619 0
M  V30 5238 N 489.423 -3.07288 4.92498 0
M  V30 5239 H 492.188 0.489794 2.95671 0
M  V30 5240 H 489.749 0.407076 1.56699 0
M  V30 5241 H 491.741 -1.97507 3.53232 0
M  V30 5242 H 490.311 -1.91373 2.47175 0
M  V30 5243 H 489.531 0.0913066 3.94094 0
M  V30 5244 H 490.819 -0.349958 5.07595 0
M  V30 5245 H 490.217 -3.47213 4.46609 0
M  V30 5246 H 488.774 -3.69021 5.37277 0
M  V30 5247 N 492.207 -1.54576 0.307264 0
M  V30 5248 C 493.432 -2.05139 -0.305379 0
M  V30 5249 C 493.857 -1.18278 -1.46259 0
M  V30 5250 O 493.215 -0.188243 -1.8032 0
M  V30 5251 C 493.263 -3.53066 -0.733283 0
M  V30 5252 O 492.367 -3.69206 -1.83741 0
M  V30 5253 H 491.708 -0.661444 -0.0582105 0
M  V30 5254 H 494.238 -1.99569 0.450931 0
M  V30 5255 H 494.248 -3.95034 -1.02039 0
M  V30 5256 H 492.923 -4.15746 0.113198 0
M  V30 5257 H 491.5 -3.39143 -1.55037 0
M  V30 5258 N 493.685 -0.035106 -1.57561 0
M  V30 5259 C 494.615 0.942993 -2.13612 0
M  V30 5260 C 495.596 1.33531 -1.05373 0
M  V30 5261 O 496.781 1.41287 -1.33235 0
M  V30 5262 C 493.911 2.22332 -2.66807 0
M  V30 5263 C 492.865 1.97156 -3.79886 0
M  V30 5264 C 492.191 3.31506 -4.19533 0
M  V30 5265 C 493.491 1.30596 -5.05709 0
M  V30 5266 H 495.185 0.476179 -2.95589 0
M  V30 5267 H 492.731 0.227602 -1.4219 0
M  V30 5268 H 494.684 2.91142 -3.04654 0
M  V30 5269 H 493.408 2.7119 -1.81999 0
M  V30 5270 H 492.067 1.30763 -3.42486 0
M  V30 5271 H 491.715 3.78134 -3.31698 0
M  V30 5272 H 491.415 3.15465 -4.95738 0
M  V30 5273 H 492.939 4.01574 -4.59968 0
M  V30 5274 H 494.353 1.89416 -5.41105 0
M  V30 5275 H 492.75 1.24934 -5.86951 0
M  V30 5276 H 493.82 0.279742 -4.84092 0
M  V30 5277 N 495.163 1.55791 0.238111 0
M  V30 5278 C 496.409 1.78297 0.966337 0
M  V30 5279 C 496.742 0.601903 1.84637 0
M  V30 5280 O 496.017 -0.399499 1.90353 0
M  V30 5281 C 496.3 3.10758 1.81939 0
M  V30 5282 C 496.153 4.39283 0.966958 0
M  V30 5283 C 497.472 3.39519 2.80027 0
M  V30 5284 H 494.591 0.648654 0.349882 0
M  V30 5285 H 497.233 1.88525 0.236253 0
M  V30 5286 H 495.383 3.02168 2.44185 0
M  V30 5287 H 497.055 4.59873 0.362514 0
M  V30 5288 H 495.298 4.32948 0.271669 0
M  V30 5289 H 495.969 5.28368 1.59784 0
M  V30 5290 H 498.445 3.48128 2.27917 0
M  V30 5291 H 497.321 4.33402 3.36829 0
M  V30 5292 H 497.582 2.60864 3.56934 0
M  V30 5293 N 496.642 -0.504142 1.49319 0
M  V30 5294 C 497.888 -1.26033 1.58882 0
M  V30 5295 C 498.221 -1.92268 0.273274 0
M  V30 5296 O 497.496 -1.80567 -0.72291 0
M  V30 5297 C 497.779 -2.32976 2.7458 0
M  V30 5298 C 497.632 -1.71263 4.1592 0
M  V30 5299 C 498.951 -3.34561 2.85932 0
M  V30 5300 H 496.07 -0.456863 0.578312 0
M  V30 5301 H 498.712 -0.558965 1.81592 0
M  V30 5302 H 496.862 -2.92796 2.55348 0
M  V30 5303 H 498.534 -1.15294 4.4666 0
M  V30 5304 H 496.777 -1.01686 4.21714 0
M  V30 5305 H 497.448 -2.48816 4.92742 0
M  V30 5306 H 499.924 -2.84727 3.0343 0
M  V30 5307 H 498.8 -4.06754 3.68568 0
M  V30 5308 H 499.061 -3.96695 1.95154 0
M  V30 5309 N 498.12 -1.38341 -0.754957 0
M  V30 5310 C 499.07 -1.31964 -1.85929 0
M  V30 5311 C 500.054 -0.204181 -1.59599 0
M  V30 5312 O 501.246 -0.440036 -1.71443 0
M  V30 5313 C 498.375 -1.14565 -3.2362 0
M  V30 5314 C 497.461 -2.30727 -3.55846 0
M  V30 5315 N 497.852 -3.56165 -3.59138 0
M  V30 5316 C 496.15 -2.23249 -3.86104 0
M  V30 5317 C 496.851 -4.32865 -3.88591 0
M  V30 5318 N 495.827 -3.62203 -4.05351 0
M  V30 5319 H 499.629 -2.2694 -1.8675 0
M  V30 5320 H 497.143 -1.31553 -0.952243 0
M  V30 5321 H 499.14 -1.0808 -4.02647 0
M  V30 5322 H 497.8 -0.205212 -3.24051 0
M  V30 5323 H 498.811 -3.89854 -3.40932 0
M  V30 5324 H 495.488 -1.37357 -3.94258 0
M  V30 5325 H 496.878 -5.41504 -3.97773 0
M  V30 5326 N 499.598 0.982988 -1.23187 0
M  V30 5327 C 500.875 1.69814 -0.970707 0
M  V30 5328 C 501.255 2.04811 0.511424 0
M  V30 5329 O 500.603 1.73924 1.48198 0
M  V30 5330 C 500.813 2.94143 -1.87831 0
M  V30 5331 C 502.161 3.66712 -2.14026 0
M  V30 5332 O 503.185 3.04171 -1.8536 0
M  V30 5333 O 502.044 4.79258 -2.62629 0
M  V30 5334 H 499.138 0.741659 -0.365884 0
M  V30 5335 H 501.684 1.03844 -1.34218 0
M  V30 5336 H 500.456 2.64858 -2.88038 0
M  V30 5337 H 500.079 3.6785 -1.50905 0
M  V30 5338 N 501.076 1.04316 1.18135 0
M  V30 5339 C 502.322 0.749128 1.88457 0
M  V30 5340 C 502.655 -0.72149 1.803 0
M  V30 5341 O 501.93 -1.52676 1.205 0
M  V30 5342 C 502.213 1.21905 3.38838 0
M  V30 5343 C 502.066 2.75195 3.55792 0
M  V30 5344 C 503.385 0.811085 4.32561 0
M  V30 5345 H 500.504 0.273611 0.684329 0
M  V30 5346 H 503.146 1.29561 1.38975 0
M  V30 5347 H 501.296 0.754137 3.8111 0
M  V30 5348 H 502.968 3.29743 3.22595 0
M  V30 5349 H 501.211 3.14899 2.98364 0
M  V30 5350 H 501.882 3.03135 4.61317 0
M  V30 5351 H 504.358 1.21118 3.98082 0
M  V30 5352 H 503.234 1.16761 5.36338 0
M  V30 5353 H 503.495 -0.285596 4.41177 0
M  V30 5354 N 502.554 -1.34406 0.822964 0
M  V30 5355 C 503.464 -2.33298 0.246838 0
M  V30 5356 C 504.48 -1.62625 -0.618797 0
M  V30 5357 O 505.656 -1.94391 -0.526685 0
M  V30 5358 C 502.721 -3.41785 -0.581731 0
M  V30 5359 C 501.782 -4.28206 0.306309 0
M  V30 5360 C 501.015 -5.31512 -0.48281 0
M  V30 5361 O 501.238 -5.43973 -1.71607 0
M  V30 5362 O 500.172 -6.01749 0.134884 0
M  V30 5363 H 503.998 -2.84401 1.06534 0
M  V30 5364 H 501.583 -1.37466 0.585108 0
M  V30 5365 H 503.465 -4.08028 -1.05313 0
M  V30 5366 H 502.14 -2.92925 -1.37756 0
M  V30 5367 H 501.047 -3.64885 0.825199 0
M  V30 5368 H 502.38 -4.80507 1.06649 0
M  V30 5369 N 504.032 -0.577932 -1.46621 0
M  V30 5370 C 505.262 -0.0670668 -2.06491 0
M  V30 5371 C 505.67 1.24119 -1.42798 0
M  V30 5372 O 505.013 1.76016 -0.525759 0
M  V30 5373 C 505.075 0.177995 -3.59059 0
M  V30 5374 C 504.739 -1.04394 -4.44917 0
M  V30 5375 C 505.736 -1.95479 -4.81751 0
M  V30 5376 C 503.421 -1.26444 -4.86125 0
M  V30 5377 C 505.415 -3.06965 -5.58615 0
M  V30 5378 C 503.102 -2.38237 -5.62749 0
M  V30 5379 C 504.1 -3.28327 -5.98908 0
M  V30 5380 O 503.788 -4.38179 -6.73984 0
M  V30 5381 H 503.52 -0.0523159 -0.673973 0
M  V30 5382 H 506.074 -0.796966 -1.89308 0
M  V30 5383 H 504.304 0.962451 -3.74531 0
M  V30 5384 H 505.993 0.636782 -4.00874 0
M  V30 5385 H 506.759 -1.79657 -4.50498 0
M  V30 5386 H 502.638 -0.572316 -4.57434 0
M  V30 5387 H 506.182 -3.77309 -5.86757 0
M  V30 5388 H 502.079 -2.54023 -5.93416 0
M  V30 5389 H 502.847 -4.36486 -6.92403 0
M  V30 5390 N 505.51 1.54411 -0.315457 0
M  V30 5391 C 506.44 2.27002 0.547039 0
M  V30 5392 C 507.421 1.27492 1.12605 0
M  V30 5393 O 508.606 1.5629 1.15269 0
M  V30 5394 C 505.736 3.02171 1.71201 0
M  V30 5395 C 504.69 4.0895 1.26268 0
M  V30 5396 C 504.016 4.71915 2.51396 0
M  V30 5397 C 505.316 5.20891 0.383419 0
M  V30 5398 H 507.01 2.99343 -0.0584517 0
M  V30 5399 H 504.556 1.4397 -0.0295527 0
M  V30 5400 H 506.509 3.51681 2.32161 0
M  V30 5401 H 505.233 2.27433 2.34397 0
M  V30 5402 H 503.892 3.60312 0.676062 0
M  V30 5403 H 503.54 3.93801 3.12937 0
M  V30 5404 H 503.24 5.44039 2.22026 0
M  V30 5405 H 504.764 5.24195 3.13133 0
M  V30 5406 H 506.178 5.66206 0.899082 0
M  V30 5407 H 504.575 5.99821 0.182857 0
M  V30 5408 H 505.645 4.81324 -0.587821 0
M  V30 5409 N 506.988 0.0434614 1.5754 0
M  V30 5410 C 507.935 -0.93356 2.11077 0
M  V30 5411 C 508.905 -1.31383 1.01626 0
M  V30 5412 O 510.09 -1.40465 1.29129 0
M  V30 5413 C 507.23 -2.20578 2.65404 0
M  V30 5414 C 506.343 -1.88068 3.88914 0
M  V30 5415 C 505.478 -3.09691 4.31584 0
M  V30 5416 C 504.517 -2.73067 5.47815 0
M  V30 5417 N 503.654 -3.87359 5.85574 0
M  V30 5418 H 508.494 -0.470118 2.94268 0
M  V30 5419 H 506.031 -0.220434 1.45439 0
M  V30 5420 H 507.989 -2.95011 2.94999 0
M  V30 5421 H 506.619 -2.64513 1.85021 0
M  V30 5422 H 505.671 -1.03816 3.6596 0
M  V30 5423 H 506.983 -1.57104 4.73413 0
M  V30 5424 H 506.137 -3.92431 4.62691 0
M  V30 5425 H 504.876 -3.43827 3.45882 0
M  V30 5426 H 503.881 -1.88742 5.16388 0
M  V30 5427 H 505.106 -2.40131 6.35227 0
M  V30 5428 H 503.052 -4.21311 5.02825 0
M  V30 5429 H 502.969 -3.60068 6.64746 0
M  V30 5430 H 504.237 -4.70761 6.21292 0
M  V30 5431 N 508.466 -1.55915 -0.229846 0
M  V30 5432 C 509.414 -1.9258 -1.30444 0
M  V30 5433 C 510.408 -0.806839 -1.48951 0
M  V30 5434 O 511.614 -0.991606 -1.50224 0
M  V30 5435 H 507.989 -0.611878 -0.437161 0
M  V30 5436 H 509.96 -2.82264 -0.96797 0
M  V30 5437 C 508.709 -2.25171 -2.6494 0
M  V30 5438 H 508.032 -3.10782 -2.51504 0
M  V30 5439 H 509.472 -2.54716 -3.38963 0
M  V30 5440 C 507.931 -1.07394 -3.19324 0
M  V30 5441 O 508.461 -0.330759 -4.00336 0
M  V30 5442 N 506.667 -0.859984 -2.77584 0
M  V30 5443 H 506.214 -1.46605 -2.11813 0
M  V30 5444 H 506.172 -0.0736671 -3.14314 0
M  V30 5445 N 509.944 0.496216 -1.49584 0
M  V30 5446 C 510.877 1.61508 -1.61215 0
M  V30 5447 C 511.855 1.55927 -0.461045 0
M  V30 5448 O 513.039 1.75914 -0.677231 0
M  V30 5449 C 510.166 3.00035 -1.57152 0
M  V30 5450 C 509.212 3.23861 -2.77518 0
M  V30 5451 S 510.045 3.06466 -4.39134 0
M  V30 5452 C 511.201 4.4738 -4.37724 0
M  V30 5453 H 511.434 1.51398 -2.55863 0
M  V30 5454 H 508.967 0.681727 -1.38535 0
M  V30 5455 H 510.925 3.7991 -1.55494 0
M  V30 5456 H 509.586 3.07556 -0.637834 0
M  V30 5457 H 508.779 4.25 -2.70908 0
M  V30 5458 H 508.381 2.51716 -2.76614 0
M  V30 5459 H 510.673 5.39556 -4.09738 0
M  V30 5460 H 511.616 4.59038 -5.39156 0
M  V30 5461 H 512.024 4.28283 -3.67742 0
M  V30 5462 N 511.423 1.38739 0.74761 0
M  V30 5463 C 512.648 1.38702 1.54197 0
M  V30 5464 C 513.073 -0.019664 1.8809 0
M  V30 5465 O 512.431 -1.00333 1.51006 0
M  V30 5466 C 512.479 2.25492 2.814 0
M  V30 5467 O 511.583 1.67613 3.76802 0
M  V30 5468 H 510.924 0.472863 0.466151 0
M  V30 5469 H 513.454 1.82577 0.923413 0
M  V30 5470 H 513.464 2.39561 3.30264 0
M  V30 5471 H 512.139 3.27727 2.56062 0
M  V30 5472 H 510.716 1.62718 3.35526 0
M  V30 5473 N 512.901 -0.976442 1.23707 0
M  V30 5474 C 513.833 -2.07212 0.979574 0
M  V30 5475 C 514.846 -1.6273 -0.0478528 0
M  V30 5476 O 516.035 -1.77506 0.18815 0
M  V30 5477 C 513.135 -3.35835 0.45479 0
M  V30 5478 C 512.308 -4.09268 1.54331 0
M  V30 5479 C 511.367 -5.16166 1.02271 0
M  V30 5480 O 510.393 -5.42827 1.71254 0
M  V30 5481 N 511.595 -5.80313 -0.147419 0
M  V30 5482 H 514.36 -2.29878 1.92292 0
M  V30 5483 H 511.921 -1.14343 1.14618 0
M  V30 5484 H 513.913 -4.04597 0.0914631 0
M  V30 5485 H 512.483 -3.10106 -0.394068 0
M  V30 5486 H 511.703 -3.34906 2.07923 0
M  V30 5487 H 512.991 -4.55095 2.27522 0
M  V30 5488 H 512.389 -5.61043 -0.724353 0
M  V30 5489 H 510.946 -6.50231 -0.451972 0
M  V30 5490 N 514.379 -1.04941 -1.1758 0
M  V30 5491 C 515.309 -0.669172 -2.23706 0
M  V30 5492 C 516.29 0.331835 -1.66832 0
M  V30 5493 O 517.475 0.209988 -1.93061 0
M  V30 5494 C 514.605 -0.0404889 -3.47276 0
M  V30 5495 C 513.559 -0.965983 -4.16957 0
M  V30 5496 C 512.885 -0.201312 -5.34321 0
M  V30 5497 C 514.185 -2.28902 -4.69469 0
M  V30 5498 H 515.879 -1.55639 -2.55767 0
M  V30 5499 H 513.425 -0.749793 -1.22939 0
M  V30 5500 H 515.378 0.237298 -4.20731 0
M  V30 5501 H 514.102 0.881658 -3.14475 0
M  V30 5502 H 512.761 -1.22829 -3.45411 0
M  V30 5503 H 512.409 0.723519 -4.97769 0
M  V30 5504 H 512.109 -0.817968 -5.81879 0
M  V30 5505 H 513.633 0.0692499 -6.10561 0
M  V30 5506 H 515.047 -2.07132 -5.34574 0
M  V30 5507 H 513.444 -2.85942 -5.27596 0
M  V30 5508 H 514.514 -2.92937 -3.86414 0
M  V30 5509 N 515.857 1.33968 -0.830081 0
M  V30 5510 C 517.103 1.98357 -0.422191 0
M  V30 5511 C 517.436 1.65633 1.01387 0
M  V30 5512 O 516.711 0.931648 1.70735 0
M  V30 5513 C 516.994 3.54492 -0.633043 0
M  V30 5514 C 516.847 3.96934 -2.11574 0
M  V30 5515 C 518.166 4.40039 -0.0735584 0
M  V30 5516 H 515.285 0.720544 -0.154871 0
M  V30 5517 H 517.927 1.58749 -1.04397 0
M  V30 5518 H 516.077 3.88361 -0.103775 0
M  V30 5519 H 517.749 3.73363 -2.7092 0
M  V30 5520 H 515.992 3.46984 -2.60354 0
M  V30 5521 H 516.663 5.05651 -2.21406 0
M  V30 5522 H 519.139 4.12764 -0.52585 0
M  V30 5523 H 518.015 5.48327 -0.250841 0
M  V30 5524 H 518.276 4.30124 1.02202 0
M  V30 5525 N 517.335 0.585699 1.46312 0
M  V30 5526 C 518.245 -0.148236 2.34131 0
M  V30 5527 C 519.261 -0.882972 1.49932 0
M  V30 5528 O 520.437 -0.845484 1.82794 0
M  V30 5529 C 517.502 -1.14714 3.27172 0
M  V30 5530 C 516.563 -0.416746 4.27272 0
M  V30 5531 C 515.796 -1.36806 5.15868 0
M  V30 5532 O 516.019 -2.60475 5.07454 0
M  V30 5533 O 514.953 -0.877018 5.95476 0
M  V30 5534 H 518.779 0.572882 2.98248 0
M  V30 5535 H 516.364 0.346082 1.45336 0
M  V30 5536 H 518.246 -1.72303 3.84564 0
M  V30 5537 H 516.921 -1.84967 2.65648 0
M  V30 5538 H 515.828 0.201061 3.73559 0
M  V30 5539 H 517.161 0.244872 4.9159 0
M  V30 5540 N 518.813 -1.54241 0.323641 0
M  V30 5541 C 519.723 -2.28033 -0.551205 0
M  V30 5542 C 520.739 -1.32388 -1.12913 0
M  V30 5543 O 521.915 -1.65403 -1.14908 0
M  V30 5544 C 518.98 -3.02382 -1.69606 0
M  V30 5545 C 518.041 -4.13612 -1.14993 0
M  V30 5546 C 517.274 -4.84407 -2.24022 0
M  V30 5547 O 517.497 -4.54716 -3.44368 0
M  V30 5548 O 516.431 -5.71312 -1.89436 0
M  V30 5549 H 520.257 -3.03662 0.048066 0
M  V30 5550 H 517.842 -1.49133 0.0893289 0
M  V30 5551 H 519.724 -3.48941 -2.36259 0
M  V30 5552 H 518.399 -2.29628 -2.28151 0
M  V30 5553 H 517.306 -3.71402 -0.448484 0
M  V30 5554 H 518.639 -4.8841 -0.609608 0
M  V30 5555 N 520.291 -0.0518155 -1.57515 0
M  V30 5556 C 521.224 0.957758 -2.07129 0
M  V30 5557 C 522.202 1.30355 -0.971927 0
M  V30 5558 O 523.386 1.41631 -1.2439 0
M  V30 5559 C 520.513 2.27157 -2.51232 0
M  V30 5560 C 519.559 2.07879 -3.72409 0
M  V30 5561 S 520.392 1.35656 -5.18033 0
M  V30 5562 C 521.548 2.68359 -5.65451 0
M  V30 5563 H 521.781 0.53552 -2.92437 0
M  V30 5564 H 519.314 0.160465 -1.53564 0
M  V30 5565 H 521.272 3.02676 -2.77304 0
M  V30 5566 H 519.933 2.66509 -1.66228 0
M  V30 5567 H 519.126 3.05061 -4.01191 0
M  V30 5568 H 518.728 1.40499 -3.46606 0
M  V30 5569 H 521.02 3.64526 -5.71076 0
M  V30 5570 H 521.963 2.44213 -6.64654 0
M  V30 5571 H 522.371 2.74647 -4.93183 0
M  V30 5572 N 521.769 1.56035 0.221574 0
M  V30 5573 C 522.699 1.95434 1.2778 0
M  V30 5574 C 523.68 0.822564 1.48889 0
M  V30 5575 O 524.865 1.08486 1.61072 0
M  V30 5576 C 521.995 2.27102 2.62759 0
M  V30 5577 C 520.949 3.4277 2.56306 0
M  V30 5578 C 520.275 3.60043 3.95314 0
M  V30 5579 C 521.575 4.77742 2.11093 0
M  V30 5580 H 523.269 2.83912 0.950504 0
M  V30 5581 H 520.815 1.36596 0.455791 0
M  V30 5582 H 522.768 2.53256 3.36807 0
M  V30 5583 H 521.492 1.35478 2.97176 0
M  V30 5584 H 520.151 3.16664 1.84715 0
M  V30 5585 H 519.799 2.65794 4.27039 0
M  V30 5586 H 519.499 4.37841 3.91879 0
M  V30 5587 H 521.023 3.88545 4.71025 0
M  V30 5588 H 522.437 5.03102 2.74885 0
M  V30 5589 H 520.834 5.58823 2.18716 0
M  V30 5590 H 521.904 4.731 1.06321 0
M  V30 5591 N 523.247 -0.488276 1.49845 0
M  V30 5592 C 524.177 -1.59675 1.70371 0
M  V30 5593 C 525.158 -1.60878 0.552473 0
M  V30 5594 O 526.343 -1.77417 0.78973 0
M  V30 5595 C 523.473 -2.98098 1.782 0
M  V30 5596 C 522.427 -3.11761 2.93239 0
M  V30 5597 C 521.753 -4.51661 2.86193 0
M  V30 5598 C 523.053 -2.90589 4.33999 0
M  V30 5599 H 524.747 -1.42752 2.63177 0
M  V30 5600 H 522.293 -0.685317 1.26647 0
M  V30 5601 H 524.246 -3.75555 1.91144 0
M  V30 5602 H 522.97 -3.16138 0.820018 0
M  V30 5603 H 521.629 -2.36732 2.79917 0
M  V30 5604 H 521.277 -4.66595 1.87877 0
M  V30 5605 H 520.977 -4.61742 3.63412 0
M  V30 5606 H 522.501 -5.31162 3.01163 0
M  V30 5607 H 523.915 -3.57807 4.47936 0
M  V30 5608 H 522.312 -3.1213 5.12538 0
M  V30 5609 H 523.382 -1.86595 4.4756 0
M  V30 5610 N 524.725 -1.39134 -0.740242 0
M  V30 5611 C 525.672 -1.37434 -1.8542 0
M  V30 5612 C 526.642 -0.234822 -1.64432 0
M  V30 5613 O 527.827 -0.429125 -1.85912 0
M  V30 5614 C 524.967 -1.21844 -3.22875 0
M  V30 5615 C 524.08 -2.45296 -3.55603 0
M  V30 5616 C 523.215 -2.22334 -4.82432 0
M  V30 5617 C 522.254 -3.41488 -5.07988 0
M  V30 5618 N 521.391 -3.17877 -6.26018 0
M  V30 5619 H 526.231 -2.3266 -1.86207 0
M  V30 5620 H 523.768 -1.15578 -0.909946 0
M  V30 5621 H 525.726 -1.10818 -4.02213 0
M  V30 5622 H 524.356 -0.3025 -3.21379 0
M  V30 5623 H 523.408 -2.66945 -2.71006 0
M  V30 5624 H 524.72 -3.34063 -3.7041 0
M  V30 5625 H 523.874 -2.0852 -5.69741 0
M  V30 5626 H 522.613 -1.30954 -4.6979 0
M  V30 5627 H 521.618 -3.55807 -4.19144 0
M  V30 5628 H 522.843 -4.33763 -5.22519 0
M  V30 5629 H 520.789 -2.29156 -6.14673 0
M  V30 5630 H 520.706 -4.00198 -6.41387 0
M  V30 5631 H 521.974 -3.07746 -7.16179 0
M  V30 5632 N 526.204 0.969867 -1.24223 0
M  V30 5633 C 527.136 2.0669 -0.99055 0
M  V30 5634 C 528.149 1.62753 0.0392222 0
M  V30 5635 O 529.338 1.77403 -0.197561 0
M  V30 5636 C 526.438 3.35589 -0.472594 0
M  V30 5637 C 525.611 4.08444 -1.56499 0
M  V30 5638 C 524.67 5.15616 -1.05007 0
M  V30 5639 O 523.696 5.41911 -1.7413 0
M  V30 5640 N 524.898 5.80383 0.116641 0
M  V30 5641 H 527.663 2.28855 -1.93508 0
M  V30 5642 H 525.224 1.13733 -1.15223 0
M  V30 5643 H 527.216 4.04542 -0.112919 0
M  V30 5644 H 525.786 3.10311 0.377617 0
M  V30 5645 H 525.006 3.33798 -2.09696 0
M  V30 5646 H 526.294 4.53882 -2.29932 0
M  V30 5647 H 525.692 5.6142 0.694589 0
M  V30 5648 H 524.249 6.50462 0.417483 0
M  V30 5649 N 527.682 1.05563 1.17022 0
M  V30 5650 C 529.098 0.777684 1.39371 0
M  V30 5651 C 529.298 -0.626269 1.91521 0
M  V30 5652 O 528.354 -1.38806 2.10924 0
M  V30 5653 C 529.667 1.83642 2.3811 0
M  V30 5654 C 531.215 1.85907 2.51809 0
M  V30 5655 C 531.69 2.90813 3.53824 0
M  V30 5656 N 533.181 2.898 3.61345 0
M  V30 5657 C 533.916 3.6762 4.40049 0
M  V30 5658 N 533.412 4.55237 5.22237 0
M  V30 5659 N 535.205 3.56044 4.34959 0
M  V30 5660 H 527.356 1.9614 0.815047 0
M  V30 5661 H 529.619 0.849527 0.420722 0
M  V30 5662 H 529.325 2.84425 2.06871 0
M  V30 5663 H 529.199 1.6812 3.37662 0
M  V30 5664 H 531.586 0.857865 2.82356 0
M  V30 5665 H 531.667 2.05506 1.52318 0
M  V30 5666 H 531.311 3.91122 3.24015 0
M  V30 5667 H 531.241 2.68465 4.53028 0
M  V30 5668 H 533.732 2.26274 3.02669 0
M  V30 5669 H 534.045 5.11291 5.79484 0
M  V30 5670 H 532.39 4.59296 5.21605 0
M  V30 5671 H 535.581 2.86986 3.69806 0
M  V30 5672 H 535.754 4.16938 4.96051 0
M  V30 5673 N 529.16 -1.33526 0.837174 0
M  V30 5674 C 530.437 -1.92369 0.354065 0
M  V30 5675 C 530.817 -1.76348 -1.16038 0
M  V30 5676 O 530.165 -1.15083 -1.97403 0
M  V30 5677 C 530.375 -3.39728 0.799101 0
M  V30 5678 C 531.723 -4.16877 0.806139 0
M  V30 5679 O 532.747 -3.48373 0.742597 0
M  V30 5680 O 531.606 -5.39166 0.892345 0
M  V30 5681 H 528.7 -0.820952 0.0998378 0
M  V30 5682 H 531.246 -1.42409 0.922913 0
M  V30 5683 H 530.018 -3.45254 1.84162 0
M  V30 5684 H 529.641 -3.97062 0.206731 0
M  V30 5685 N 530.638 -0.59345 -1.46 0
M  V30 5686 C 531.885 -0.0831523 -2.02329 0
M  V30 5687 C 532.213 1.28093 -1.46364 0
M  V30 5688 O 531.468 1.85526 -0.622793 0
M  V30 5689 C 531.767 0.021178 -3.57394 0
M  V30 5690 C 531.433 -1.27671 -4.32448 0
M  V30 5691 C 530.095 -1.63227 -4.5267 0
M  V30 5692 C 532.447 -2.13511 -4.7546 0
M  V30 5693 C 529.775 -2.84401 -5.1316 0
M  V30 5694 C 532.127 -3.33922 -5.37289 0
M  V30 5695 C 530.791 -3.69747 -5.55737 0
M  V30 5696 H 530.061 -0.0304276 -0.740375 0
M  V30 5697 H 532.708 -0.772239 -1.75239 0
M  V30 5698 H 531.013 0.793454 -3.83682 0
M  V30 5699 H 532.71 0.431942 -3.98667 0
M  V30 5700 H 529.3 -0.989937 -4.17011 0
M  V30 5701 H 533.484 -1.87344 -4.59582 0
M  V30 5702 H 528.74 -3.12282 -5.25633 0
M  V30 5703 H 532.914 -4.00698 -5.69574 0
M  V30 5704 H 530.541 -4.6373 -6.02377 0
M  V30 5705 N 532.116 1.54067 -0.331816 0
M  V30 5706 C 533.046 2.27569 0.522932 0
M  V30 5707 C 534.027 1.28679 1.11247 0
M  V30 5708 O 535.212 1.57504 1.13605 0
M  V30 5709 C 532.342 3.0397 1.67987 0
M  V30 5710 C 531.296 4.10267 1.21924 0
M  V30 5711 C 530.622 4.74555 2.46377 0
M  V30 5712 C 531.922 5.21268 0.32815 0
M  V30 5713 H 533.616 2.99264 -0.0901977 0
M  V30 5714 H 531.162 1.4393 -0.044821 0
M  V30 5715 H 533.115 3.54123 2.28418 0
M  V30 5716 H 531.839 2.29906 2.31971 0
M  V30 5717 H 530.498 3.61009 0.637809 0
M  V30 5718 H 530.146 3.97098 3.08743 0
M  V30 5719 H 529.846 5.46363 2.16243 0
M  V30 5720 H 531.37 5.27487 3.07555 0
M  V30 5721 H 532.784 5.67128 0.838978 0
M  V30 5722 H 531.181 5.99982 0.119228 0
M  V30 5723 H 532.251 4.80673 -0.638839 0
M  V30 5724 N 533.594 0.0601682 1.57485 0
M  V30 5725 C 534.526 -0.94047 2.09016 0
M  V30 5726 C 535.539 -1.26897 1.01985 0
M  V30 5727 O 536.728 -1.22819 1.29529 0
M  V30 5728 C 533.828 -2.25955 2.52582 0
M  V30 5729 C 533.001 -2.11163 3.83052 0
M  V30 5730 C 532.06 -3.26273 4.12835 0
M  V30 5731 O 531.086 -3.01779 4.82616 0
M  V30 5732 N 532.288 -4.51022 3.65458 0
M  V30 5733 H 535.053 -0.500578 2.9549 0
M  V30 5734 H 532.614 -0.125852 1.6141 0
M  V30 5735 H 534.606 -3.01846 2.69575 0
M  V30 5736 H 533.176 -2.61481 1.71308 0
M  V30 5737 H 532.396 -1.19808 3.75552 0
M  V30 5738 H 533.684 -1.98517 4.68475 0
M  V30 5739 H 533.082 -4.73811 3.09062 0
M  V30 5740 H 531.639 -5.23978 3.87673 0
M  V30 5741 N 535.072 -1.5615 -0.213296 0
M  V30 5742 C 536.297 -1.83986 -0.957282 0
M  V30 5743 C 536.722 -0.641526 -1.76822 0
M  V30 5744 O 536.08 0.409722 -1.7661 0
M  V30 5745 C 536.128 -3.09889 -1.84393 0
M  V30 5746 O 535.232 -2.89163 -2.94038 0
M  V30 5747 H 534.573 -0.606357 -0.270605 0
M  V30 5748 H 537.103 -2.03369 -0.224111 0
M  V30 5749 H 537.113 -3.40209 -2.25215 0
M  V30 5750 H 535.788 -3.96735 -1.24795 0
M  V30 5751 H 534.365 -2.70097 -2.57103 0
M  V30 5752 N 536.55 0.480323 -1.50102 0
M  V30 5753 C 537.5 1.57685 -1.6468 0
M  V30 5754 C 538.484 1.52878 -0.5017 0
M  V30 5755 O 539.676 1.60058 -0.755668 0
M  V30 5756 C 536.805 2.96185 -1.73578 0
M  V30 5757 C 535.891 3.0591 -2.93734 0
M  V30 5758 N 536.282 2.85471 -4.1754 0
M  V30 5759 C 534.58 3.37036 -2.92101 0
M  V30 5760 C 535.281 2.99921 -4.9842 0
M  V30 5761 N 534.257 3.29715 -4.32191 0
M  V30 5762 H 538.059 1.40568 -2.58104 0
M  V30 5763 H 535.573 0.686874 -1.47159 0
M  V30 5764 H 537.57 3.75015 -1.82124 0
M  V30 5765 H 536.23 3.14356 -0.813057 0
M  V30 5766 H 537.241 2.61235 -4.47188 0
M  V30 5767 H 533.918 3.61253 -2.09291 0
M  V30 5768 H 535.308 2.88436 -6.06839 0
M  V30 5769 N 538.028 1.39524 0.732853 0
M  V30 5770 C 538.961 1.32806 1.85574 0
M  V30 5771 C 539.939 0.201354 1.61348 0
M  V30 5772 O 541.123 0.38216 1.84585 0
M  V30 5773 C 538.25 1.06271 3.21596 0
M  V30 5774 C 537.296 2.21161 3.64678 0
M  V30 5775 S 538.129 3.83454 3.73796 0
M  V30 5776 C 539.285 3.59149 5.12604 0
M  V30 5777 H 539.518 2.27838 1.9099 0
M  V30 5778 H 537.051 1.25605 0.897927 0
M  V30 5779 H 539.009 0.916461 4.00139 0
M  V30 5780 H 537.67 0.129223 3.13834 0
M  V30 5781 H 536.863 1.98193 4.63396 0
M  V30 5782 H 536.465 2.32 2.93346 0
M  V30 5783 H 538.757 3.16547 5.99003 0
M  V30 5784 H 539.7 4.57335 5.40602 0
M  V30 5785 H 540.108 2.93203 4.82382 0
M  V30 5786 N 539.506 -0.963266 1.24736 0
M  V30 5787 C 540.755 -1.70115 1.08369 0
M  V30 5788 C 541.068 -1.91939 -0.376688 0
M  V30 5789 O 542.274 -2.6334 -0.660624 0
M  V30 5790 C 540.73 -3.06218 1.89099 0
M  V30 5791 C 540.338 -2.92221 3.39574 0
M  V30 5792 C 542.082 -3.83848 1.81275 0
M  V30 5793 C 539.989 -4.23662 4.12631 0
M  V30 5794 H 538.919 -0.637944 0.401924 0
M  V30 5795 H 541.57 -1.07304 1.48856 0
M  V30 5796 H 539.952 -3.69884 1.41429 0
M  V30 5797 H 541.126 -2.37541 3.94856 0
M  V30 5798 H 539.441 -2.28054 3.48397 0
M  V30 5799 H 542.038 -4.81188 2.33158 0
M  V30 5800 H 542.381 -4.08949 0.778895 0
M  V30 5801 H 542.914 -3.26918 2.26649 0
M  V30 5802 H 539.653 -4.03753 5.16395 0
M  V30 5803 H 539.173 -4.78141 3.62135 0
M  V30 5804 H 540.852 -4.92256 4.19873 0
M  V30 5805 N 540.985 -1.06182 -1.16461 0
M  V30 5806 C 541.915 -0.692861 -2.22984 0
M  V30 5807 C 542.896 0.314122 -1.67174 0
M  V30 5808 O 544.081 0.189499 -1.93273 0
M  V30 5809 C 541.211 -0.07732 -3.47214 0
M  V30 5810 C 540.165 -1.01015 -4.15909 0
M  V30 5811 C 539.491 -0.257973 -5.34077 0
M  V30 5812 C 540.791 -2.33868 -4.67015 0
M  V30 5813 H 542.485 -1.58343 -2.54102 0
M  V30 5814 H 540.031 -0.76279 -1.22137 0
M  V30 5815 H 541.984 0.19266 -4.20959 0
M  V30 5816 H 540.708 0.848254 -3.15392 0
M  V30 5817 H 539.367 -1.26486 -3.44088 0
M  V30 5818 H 539.015 0.670684 -4.98509 0
M  V30 5819 H 538.715 -0.879638 -5.80979 0
M  V30 5820 H 540.239 0.00448788 -6.106 0
M  V30 5821 H 541.653 -2.1279 -5.32347 0
M  V30 5822 H 540.05 -2.91522 -5.24533 0
M  V30 5823 H 541.12 -2.97019 -3.83286 0
M  V30 5824 N 542.463 1.3308 -0.844243 0
M  V30 5825 C 543.711 1.97215 -0.441676 0
M  V30 5826 C 544.032 1.67185 1.0037 0
M  V30 5827 O 543.302 0.973588 1.69994 0
M  V30 5828 H 541.882 0.72959 -0.160335 0
M  V30 5829 H 544.544 1.62348 -1.07838 0
M  V30 5830 H 543.64 3.06698 -0.57815 0
M  V30 5831 N 543.941 0.601185 1.45683 0
M  V30 5832 C 544.871 -0.108824 2.33246 0
M  V30 5833 C 545.852 -0.865223 1.46451 0
M  V30 5834 O 547.037 -0.83704 1.75235 0
M  V30 5835 C 544.167 -1.11101 3.2905 0
M  V30 5836 C 543.121 -0.468244 4.25431 0
M  V30 5837 C 542.447 -1.57822 5.10878 0
M  V30 5838 C 543.747 0.606469 5.18767 0
M  V30 5839 H 545.441 0.622306 2.92861 0
M  V30 5840 H 542.987 0.300714 1.40825 0
M  V30 5841 H 544.94 -1.61622 3.89174 0
M  V30 5842 H 543.664 -1.87265 2.67581 0
M  V30 5843 H 542.323 0.0160484 3.66596 0
M  V30 5844 H 541.971 -2.32998 4.45781 0
M  V30 5845 H 541.671 -1.15369 5.76163 0
M  V30 5846 H 543.195 -2.08583 5.73869 0
M  V30 5847 H 544.609 0.185589 5.73 0
M  V30 5848 H 543.006 0.952381 5.92494 0
M  V30 5849 H 544.076 1.48559 4.61582 0
M  V30 5850 N 545.419 -1.53889 0.339982 0
M  V30 5851 C 546.665 -2.01152 -0.258003 0
M  V30 5852 C 546.998 -1.22749 -1.50487 0
M  V30 5853 O 546.273 -0.314156 -1.91946 0
M  V30 5854 C 546.556 -3.55468 -0.575717 0
M  V30 5855 C 546.409 -4.44584 0.682996 0
M  V30 5856 C 547.728 -4.1768 -1.38677 0
M  V30 5857 H 544.847 -0.731198 -0.0922992 0
M  V30 5858 H 547.489 -1.84352 0.459814 0
M  V30 5859 H 545.639 -3.69914 -1.18725 0
M  V30 5860 H 547.311 -4.41981 1.32102 0
M  V30 5861 H 545.554 -4.13592 1.3086 0
M  V30 5862 H 546.225 -5.5043 0.416001 0
M  V30 5863 H 548.701 -4.0691 -0.869705 0
M  V30 5864 H 547.577 -5.25734 -1.57783 0
M  V30 5865 H 547.838 -3.72069 -2.38782 0
M  V30 5866 N 546.897 -0.0685191 -1.57451 0
M  V30 5867 C 548.143 0.602239 -1.93652 0
M  V30 5868 C 548.476 1.6946 -0.948526 0
M  V30 5869 O 547.751 1.94487 0.022782 0
M  V30 5870 C 548.034 1.18223 -3.4014 0
M  V30 5871 C 547.887 0.0967431 -4.49696 0
M  V30 5872 C 549.206 2.08872 -3.87377 0
M  V30 5873 H 546.325 0.217453 -0.70419 0
M  V30 5874 H 548.967 -0.133821 -1.89528 0
M  V30 5875 H 547.117 1.80953 -3.43785 0
M  V30 5876 H 548.789 -0.536155 -4.58174 0
M  V30 5877 H 547.032 -0.573063 -4.29998 0
M  V30 5878 H 547.703 0.542894 -5.49324 0
M  V30 5879 H 550.179 1.56081 -3.85717 0
M  V30 5880 H 549.055 2.46389 -4.90493 0
M  V30 5881 H 549.316 2.99572 -3.25129 0
M  V30 5882 N 548.375 1.56261 0.205012 0
M  V30 5883 C 549.603 1.84141 0.943386 0
M  V30 5884 C 550.018 0.649772 1.77266 0
M  V30 5885 O 549.375 -0.381612 1.78466 0
M  V30 5886 C 549.426 3.10719 1.84759 0
M  V30 5887 O 549.147 4.25286 1.05181 0
M  V30 5888 C 550.648 3.51706 2.69848 0
M  V30 5889 H 547.868 0.611734 0.275721 0
M  V30 5890 H 550.412 2.03364 0.215253 0
M  V30 5891 H 548.567 2.93422 2.52947 0
M  V30 5892 H 548.981 4.97301 1.66709 0
M  V30 5893 H 550.455 4.43266 3.28967 0
M  V30 5894 H 550.932 2.7423 3.43067 0
M  V30 5895 H 551.538 3.71499 2.07047 0
M  V30 5896 N 549.853 -0.472356 1.50355 0
M  V30 5897 C 550.783 -1.57859 1.72055 0
M  V30 5898 C 551.764 -1.60283 0.569505 0
M  V30 5899 O 552.949 -1.7657 0.808503 0
M  V30 5900 C 550.079 -2.96191 1.81351 0
M  V30 5901 C 549.033 -3.08633 2.96529 0
M  V30 5902 C 548.359 -4.486 2.90968 0
M  V30 5903 C 549.659 -2.85969 4.37057 0
M  V30 5904 H 551.353 -1.39953 2.64676 0
M  V30 5905 H 548.899 -0.671846 1.27367 0
M  V30 5906 H 550.852 -3.73507 1.95117 0
M  V30 5907 H 549.576 -3.15251 0.853502 0
M  V30 5908 H 548.235 -2.33749 2.82413 0
M  V30 5909 H 547.883 -4.64577 1.92815 0
M  V30 5910 H 547.583 -4.57861 3.68289 0
M  V30 5911 H 549.107 -5.27938 3.0678 0
M  V30 5912 H 550.521 -3.53036 4.51706 0
M  V30 5913 H 548.918 -3.06677 5.15819 0
M  V30 5914 H 549.988 -1.81838 4.49514 0
M  V30 5915 N 551.331 -1.39911 -0.725443 0
M  V30 5916 C 552.556 -1.41137 -1.5197 0
M  V30 5917 C 552.981 -0.010262 -1.88097 0
M  V30 5918 O 552.339 0.979184 -1.52583 0
M  V30 5919 C 552.387 -2.2994 -2.77777 0
M  V30 5920 O 551.491 -1.73586 -3.74088 0
M  V30 5921 H 550.832 -0.480219 -0.458569 0
M  V30 5922 H 553.362 -1.84023 -0.894249 0
M  V30 5923 H 553.372 -2.44785 -3.26411 0
M  V30 5924 H 552.047 -3.31759 -2.50816 0
M  V30 5925 H 550.624 -1.68035 -3.32894 0
M  V30 5926 N 552.809 0.956637 -1.25245 0
M  V30 5927 C 554.22 1.51569 -1.09012 0
M  V30 5928 C 554.571 1.93322 0.334813 0
M  V30 5929 O 553.696 1.78421 1.22454 0
M  V30 5930 C 554.291 2.75444 -1.97271 0
M  V30 5931 C 552.85 3.27669 -1.8523 0
M  V30 5932 C 551.997 2.00517 -1.91542 0
M  V30 5933 H 554.948 0.773746 -1.3856 0
M  V30 5934 H 554.969 3.4919 -1.51151 0
M  V30 5935 H 554.481 2.45024 -3.00973 0
M  V30 5936 H 552.582 3.62914 -0.844045 0
M  V30 5937 H 552.695 3.9582 -2.69932 0
M  V30 5938 H 551.059 2.15727 -1.35404 0
M  V30 5939 H 551.842 1.72448 -2.96844 0
M  V30 5940 N 554.287 1.06798 1.15896 0
M  V30 5941 C 555.25 0.687328 2.18651 0
M  V30 5942 C 556.25 -0.269559 1.58524 0
M  V30 5943 O 557.44 -0.0512627 1.74125 0
M  V30 5944 C 554.572 0.0121642 3.40898 0
M  V30 5945 H 555.765 1.59701 2.53842 0
M  V30 5946 H 553.318 0.863828 1.3026 0
M  V30 5947 H 554.053 -0.910025 3.1127 0
M  V30 5948 H 553.838 0.700309 3.85795 0
M  V30 5949 H 555.328 -0.239703 4.16911 0
M  V30 5950 N 555.766 -1.3263 0.851289 0
M  V30 5951 C 556.696 -2.31449 0.308771 0
M  V30 5952 C 557.677 -1.59531 -0.590255 0
M  V30 5953 O 558.862 -1.87351 -0.511205 0
M  V30 5954 C 555.992 -3.43586 -0.506548 0
M  V30 5955 C 554.946 -4.26963 0.297753 0
M  V30 5956 C 554.272 -5.30831 -0.642094 0
M  V30 5957 C 555.572 -4.99643 1.52166 0
M  V30 5958 H 557.266 -2.77074 1.13447 0
M  V30 5959 H 554.812 -1.33207 0.546971 0
M  V30 5960 H 556.765 -4.11754 -0.896474 0
M  V30 5961 H 555.489 -2.96681 -1.36558 0
M  V30 5962 H 554.148 -3.60437 0.669391 0
M  V30 5963 H 553.796 -4.8018 -1.49788 0
M  V30 5964 H 553.496 -5.87501 -0.107968 0
M  V30 5965 H 555.02 -6.01862 -1.02927 0
M  V30 5966 H 556.434 -5.6051 1.20421 0
M  V30 5967 H 554.831 -5.66022 1.99347 0
M  V30 5968 H 555.901 -4.27701 2.28474 0
M  V30 5969 N 557.244 -0.608902 -1.45362 0
M  V30 5970 C 558.521 -0.0365378 -1.95566 0
M  V30 5971 C 558.901 1.43169 -1.55131 0
M  V30 5972 O 558.249 2.1349 -0.814513 0
M  V30 5973 C 558.459 -0.236026 -3.48201 0
M  V30 5974 C 559.807 -0.117518 -4.24437 0
M  V30 5975 O 560.831 -0.166217 -3.55812 0
M  V30 5976 O 559.69 -0.00372127 -5.465 0
M  V30 5977 H 556.784 0.0349874 -0.82626 0
M  V30 5978 H 559.33 -0.679055 -1.55521 0
M  V30 5979 H 558.102 -1.25569 -3.70605 0
M  V30 5980 H 557.725 0.441691 -3.95139 0
M  V30 5981 N 558.722 1.53707 -0.348139 0
M  V30 5982 C 559.947 2.05877 0.250883 0
M  V30 5983 C 560.372 1.22115 1.43072 0
M  V30 5984 O 559.73 0.235986 1.79758 0
M  V30 5985 C 559.778 3.54886 0.639416 0
M  V30 5986 O 558.882 3.73948 1.73888 0
M  V30 5987 H 558.223 0.662754 0.040653 0
M  V30 5988 H 560.753 1.98303 -0.503685 0
M  V30 5989 H 560.763 3.97601 0.915295 0
M  V30 5990 H 559.438 4.153 -0.223386 0
M  V30 5991 H 558.015 3.43134 1.45991 0
M  V30 5992 N 560.2 0.0768682 1.57412 0
M  V30 5993 C 561.132 -0.918248 2.10002 0
M  V30 5994 C 562.145 -1.25808 1.03325 0
M  V30 5995 O 563.334 -1.21438 1.30824 0
M  V30 5996 C 560.434 -2.23263 2.54964 0
M  V30 5997 C 559.607 -2.07088 3.8527 0
M  V30 5998 C 558.666 -3.21876 4.16272 0
M  V30 5999 O 557.692 -2.96643 4.8579 0
M  V30 6000 N 558.894 -4.4712 3.70221 0
M  V30 6001 H 561.659 -0.469209 2.96004 0
M  V30 6002 H 559.22 -0.108725 1.61535 0
M  V30 6003 H 561.212 -2.9897 2.72762 0
M  V30 6004 H 559.782 -2.59649 1.74072 0
M  V30 6005 H 559.002 -1.15818 3.76802 0
M  V30 6006 H 560.29 -1.93537 4.70554 0
M  V30 6007 H 559.688 -4.70506 3.1407 0
M  V30 6008 H 558.245 -5.19837 3.93209 0
M  V30 6009 N 561.678 -1.56367 -0.196722 0
M  V30 6010 C 562.925 -1.80529 -0.917366 0
M  V30 6011 C 563.253 -0.649817 -1.83324 0
M  V30 6012 O 562.508 0.36451 -1.92275 0
M  V30 6013 C 562.807 -3.10663 -1.767 0
M  V30 6014 C 562.473 -4.3962 -1.00225 0
M  V30 6015 C 561.135 -4.74653 -0.791095 0
M  V30 6016 C 563.487 -5.1913 -0.464035 0
M  V30 6017 C 560.815 -5.86692 -0.0302155 0
M  V30 6018 C 563.167 -6.31964 0.283625 0
M  V30 6019 C 561.831 -6.65581 0.505813 0
M  V30 6020 H 561.101 -0.660602 -0.335688 0
M  V30 6021 H 563.748 -1.90615 -0.183844 0
M  V30 6022 H 562.053 -2.95807 -2.56915 0
M  V30 6023 H 563.75 -3.26563 -2.32718 0
M  V30 6024 H 560.34 -4.12127 -1.17684 0
M  V30 6025 H 564.524 -4.9248 -0.614575 0
M  V30 6026 H 559.78 -6.11211 0.151917 0
M  V30 6027 H 563.954 -6.92791 0.708057 0
M  V30 6028 H 561.581 -7.52239 1.0973 0
M  V30 6029 N 563.156 0.464375 -1.50603 0
M  V30 6030 C 564.088 1.57916 -1.66118 0
M  V30 6031 C 565.101 1.53497 -0.54246 0
M  V30 6032 O 566.29 1.58763 -0.815877 0
M  V30 6033 C 563.39 2.96809 -1.63577 0
M  V30 6034 C 562.563 3.26026 -2.91592 0
M  V30 6035 C 561.622 4.44506 -2.81604 0
M  V30 6036 O 560.648 4.44484 -3.55559 0
M  V30 6037 N 561.85 5.46549 -1.95614 0
M  V30 6038 H 564.615 1.45022 -2.62276 0
M  V30 6039 H 562.176 0.652903 -1.48151 0
M  V30 6040 H 564.168 3.74048 -1.54499 0
M  V30 6041 H 562.738 3.03438 -0.751262 0
M  V30 6042 H 561.958 2.37337 -3.14746 0
M  V30 6043 H 563.246 3.42361 -3.76386 0
M  V30 6044 H 562.644 5.49391 -1.34854 0
M  V30 6045 H 561.201 6.22746 -1.92435 0
M  V30 6046 N 564.634 1.40294 0.718013 0
M  V30 6047 C 565.544 1.42678 1.86226 0
M  V30 6048 C 566.56 0.319655 1.71039 0
M  V30 6049 O 567.736 0.563852 1.93346 0
M  V30 6050 C 564.801 1.2852 3.21999 0
M  V30 6051 C 563.862 2.49354 3.49458 0
M  V30 6052 C 563.095 2.35863 4.78753 0
M  V30 6053 O 563.318 1.37114 5.53675 0
M  V30 6054 O 562.252 3.25189 5.06494 0
M  V30 6055 H 566.078 2.39167 1.87171 0
M  V30 6056 H 563.663 1.2159 0.868112 0
M  V30 6057 H 565.545 1.22824 4.03103 0
M  V30 6058 H 564.22 0.351359 3.21787 0
M  V30 6059 H 563.127 2.60628 2.68373 0
M  V30 6060 H 564.46 3.41491 3.54464 0
M  V30 6061 N 566.112 -0.949982 1.2575 0
M  V30 6062 C 567.075 -2.02894 1.06615 0
M  V30 6063 C 568.075 -1.60791 0.0173905 0
M  V30 6064 O 569.265 -1.72249 0.260003 0
M  V30 6065 C 566.397 -3.35219 0.619751 0
M  V30 6066 H 567.59 -2.21302 2.02399 0
M  V30 6067 H 565.143 -1.12772 1.08223 0
M  V30 6068 H 565.878 -3.22508 -0.340486 0
M  V30 6069 H 565.663 -3.67129 1.37692 0
M  V30 6070 H 567.153 -4.14505 0.507443 0
M  V30 6071 N 567.59 -1.07411 -1.15328 0
M  V30 6072 C 569.006 -0.799759 -1.38116 0
M  V30 6073 C 569.206 0.59572 -1.92493 0
M  V30 6074 O 568.262 1.35433 -2.13106 0
M  V30 6075 C 569.575 -1.87407 -2.35158 0
M  V30 6076 C 571.123 -1.89889 -2.48819 0
M  V30 6077 C 571.598 -2.96406 -3.49153 0
M  V30 6078 N 573.089 -2.95512 -3.56689 0
M  V30 6079 C 573.824 -3.74575 -4.34144 0
M  V30 6080 N 573.32 -4.63488 -5.14928 0
M  V30 6081 N 575.113 -3.62919 -4.29239 0
M  V30 6082 H 567.264 -1.97411 -0.78374 0
M  V30 6083 H 569.527 -0.856113 -0.407154 0
M  V30 6084 H 569.233 -2.8768 -2.0232 0
M  V30 6085 H 569.107 -1.73471 -3.34944 0
M  V30 6086 H 571.494 -0.902677 -2.80955 0
M  V30 6087 H 571.575 -2.07904 -1.49029 0
M  V30 6088 H 571.219 -3.96227 -3.17752 0
M  V30 6089 H 571.149 -2.75638 -4.48699 0
M  V30 6090 H 573.64 -2.31061 -2.99031 0
M  V30 6091 H 573.953 -5.20445 -5.71276 0
M  V30 6092 H 572.298 -4.67537 -5.14232 0
M  V30 6093 H 575.489 -2.92833 -3.65194 0
M  V30 6094 H 575.662 -4.24777 -4.89355 0
M  V30 6095 N 569.068 1.32177 -0.85831 0
M  V30 6096 C 570.484 1.49873 -0.548656 0
M  V30 6097 C 570.684 1.79278 0.919874 0
M  V30 6098 O 569.74 1.86451 1.70271 0
M  V30 6099 C 571.053 2.64043 -1.4388 0
M  V30 6100 C 572.601 2.77928 -1.43961 0
M  V30 6101 C 573.076 3.95182 -2.31506 0
M  V30 6102 N 574.567 4.0245 -2.29321 0
M  V30 6103 C 575.302 4.9242 -2.93786 0
M  V30 6104 N 574.798 5.87373 -3.67376 0
M  V30 6105 N 576.591 4.85572 -2.83155 0
M  V30 6106 H 568.742 1.11357 -1.80868 0
M  V30 6107 H 571.005 0.549175 -0.772729 0
M  V30 6108 H 570.711 2.49055 -2.48324 0
M  V30 6109 H 570.585 3.59912 -1.12885 0
M  V30 6110 H 572.972 2.92338 -0.402813 0
M  V30 6111 H 573.053 1.82762 -1.78974 0
M  V30 6112 H 572.697 3.81531 -3.35256 0
M  V30 6113 H 572.627 4.89633 -1.93823 0
M  V30 6114 H 575.118 3.34507 -1.75822 0
M  V30 6115 H 575.431 6.52728 -4.13722 0
M  V30 6116 H 573.776 5.87388 -3.71484 0
M  V30 6117 H 576.967 4.10363 -2.25211 0
M  V30 6118 H 577.14 5.55486 -3.33676 0
M  V30 6119 N 570.547 0.616602 1.45037 0
M  V30 6120 C 571.494 -0.0969439 2.30596 0
M  V30 6121 C 572.464 -0.851151 1.42635 0
M  V30 6122 O 573.649 -0.835092 1.71554 0
M  V30 6123 C 570.789 -1.08234 3.27688 0
M  V30 6124 C 569.902 -0.328072 4.30752 0
M  V30 6125 C 569.037 -1.30399 5.14946 0
M  V30 6126 C 568.076 -0.538049 6.09731 0
M  V30 6127 N 567.213 -1.46371 6.86673 0
M  V30 6128 H 572.053 0.63864 2.91076 0
M  V30 6129 H 569.59 0.326733 1.43425 0
M  V30 6130 H 571.548 -1.66688 3.82454 0
M  V30 6131 H 570.178 -1.78523 2.68941 0
M  V30 6132 H 569.23 0.372136 3.78575 0
M  V30 6133 H 570.542 0.269142 4.98073 0
M  V30 6134 H 569.696 -1.96032 5.74157 0
M  V30 6135 H 568.435 -1.93514 4.47665 0
M  V30 6136 H 567.44 0.131852 5.49642 0
M  V30 6137 H 568.665 0.0881732 6.79043 0
M  V30 6138 H 566.611 -2.08233 6.22073 0
M  V30 6139 H 566.528 -0.920152 7.50379 0
M  V30 6140 H 567.796 -2.10932 7.50418 0
M  V30 6141 N 572.025 -1.5352 0.356285 0
M  V30 6142 C 572.955 -2.28372 -0.486661 0
M  V30 6143 C 573.936 -1.30432 -1.09185 0
M  V30 6144 O 575.121 -1.59291 -1.11085 0
M  V30 6145 C 572.251 -3.06604 -1.63129 0
M  V30 6146 C 571.205 -4.12154 -1.15381 0
M  V30 6147 C 570.531 -4.78415 -2.38796 0
M  V30 6148 C 571.831 -5.21724 -0.245179 0
M  V30 6149 H 573.525 -2.99083 0.137797 0
M  V30 6150 H 571.071 -1.43841 0.0677134 0
M  V30 6151 H 573.024 -3.57712 -2.22755 0
M  V30 6152 H 571.748 -2.33568 -2.28284 0
M  V30 6153 H 570.407 -3.61978 -0.580294 0
M  V30 6154 H 570.055 -4.01959 -3.02387 0
M  V30 6155 H 569.755 -5.49734 -2.07524 0
M  V30 6156 H 571.279 -5.32313 -2.99125 0
M  V30 6157 H 572.693 -5.68391 -0.748646 0
M  V30 6158 H 571.09 -6.00095 -0.0237608 0
M  V30 6159 H 572.16 -4.79596 0.715229 0
M  V30 6160 N 573.503 -0.0852151 -1.57369 0
M  V30 6161 C 574.728 0.592872 -1.98746 0
M  V30 6162 C 575.153 1.61538 -0.963689 0
M  V30 6163 O 574.511 1.81168 0.069071 0
M  V30 6164 C 574.559 1.22599 -3.39119 0
M  V30 6165 O 573.663 2.34185 -3.39457 0
M  V30 6166 H 573.004 0.151314 -0.646529 0
M  V30 6167 H 575.534 -0.163703 -2.03944 0
M  V30 6168 H 575.544 1.56965 -3.76598 0
M  V30 6169 H 574.219 0.476831 -4.13158 0
M  V30 6170 H 572.796 2.01512 -3.13763 0
M  V30 6171 N 574.981 1.5647 0.188427 0
M  V30 6172 C 575.913 1.91611 1.25769 0
M  V30 6173 C 576.926 0.807436 1.41366 0
M  V30 6174 O 578.115 1.08586 1.41673 0
M  V30 6175 C 575.215 2.13874 2.6289 0
M  V30 6176 C 574.388 3.45047 2.68815 0
M  V30 6177 C 573.447 3.56342 3.87178 0
M  V30 6178 O 572.473 4.29109 3.73971 0
M  V30 6179 N 573.675 2.89924 5.02916 0
M  V30 6180 H 576.44 2.8393 0.959373 0
M  V30 6181 H 574.001 1.57418 0.378306 0
M  V30 6182 H 575.993 2.18713 3.4051 0
M  V30 6183 H 574.563 1.28022 2.85183 0
M  V30 6184 H 573.783 3.52017 1.77419 0
M  V30 6185 H 575.071 4.31395 2.6977 0
M  V30 6186 H 574.469 2.30644 5.16546 0
M  V30 6187 H 573.026 3.0038 5.78459 0
M  V30 6188 N 576.459 -0.456382 1.50847 0
M  V30 6189 C 577.406 -1.55249 1.70782 0
M  V30 6190 C 578.376 -1.56757 0.549231 0
M  V30 6191 O 579.561 -1.74061 0.7815 0
M  V30 6192 C 576.701 -2.93118 1.82143 0
M  V30 6193 C 575.814 -3.01285 3.09598 0
M  V30 6194 C 574.949 -4.30159 3.11667 0
M  V30 6195 C 573.988 -4.32124 4.33515 0
M  V30 6196 N 573.125 -5.52492 4.3324 0
M  V30 6197 H 577.965 -1.37555 2.64353 0
M  V30 6198 H 575.502 -0.668543 1.3103 0
M  V30 6199 H 577.46 -3.73088 1.86711 0
M  V30 6200 H 576.09 -3.09413 0.919978 0
M  V30 6201 H 575.142 -2.14096 3.14431 0
M  V30 6202 H 576.454 -2.98597 3.99551 0
M  V30 6203 H 575.608 -5.18489 3.15046 0
M  V30 6204 H 574.347 -4.35477 2.1957 0
M  V30 6205 H 573.352 -3.42189 4.30333 0
M  V30 6206 H 574.577 -4.28485 5.26856 0
M  V30 6207 H 572.523 -5.58567 3.44004 0
M  V30 6208 H 572.44 -5.51605 5.16979 0
M  V30 6209 H 573.708 -6.42906 4.40786 0
M  V30 6210 N 577.937 -1.40673 -0.710563 0
M  V30 6211 C 578.867 -1.44095 -1.83736 0
M  V30 6212 C 579.848 -0.301286 -1.67411 0
M  V30 6213 O 581.033 -0.510618 -1.87367 0
M  V30 6214 C 578.163 -1.30773 -3.21738 0
M  V30 6215 C 577.117 -2.42395 -3.52745 0
M  V30 6216 C 576.443 -2.14147 -4.89944 0
M  V30 6217 C 577.743 -3.84738 -3.53234 0
M  V30 6218 H 579.437 -2.38396 -1.81129 0
M  V30 6219 H 576.983 -1.14746 -0.870017 0
M  V30 6220 H 578.936 -1.31783 -4.00264 0
M  V30 6221 H 577.66 -0.329507 -3.24934 0
M  V30 6222 H 576.319 -2.40643 -2.76562 0
M  V30 6223 H 575.967 -1.14703 -4.89747 0
M  V30 6224 H 575.667 -2.88934 -5.11655 0
M  V30 6225 H 577.191 -2.16848 -5.70797 0
M  V30 6226 H 578.605 -3.88286 -4.2179 0
M  V30 6227 H 577.002 -4.59085 -3.86473 0
M  V30 6228 H 578.072 -4.13962 -2.52514 0
M  V30 6229 N 579.415 0.9433 -1.26252 0
M  V30 6230 C 580.831 1.21644 -1.03319 0
M  V30 6231 C 581.031 2.0003 0.242983 0
M  V30 6232 O 580.087 2.33838 0.952688 0
M  V30 6233 C 581.4 1.97978 -2.2633 0
M  V30 6234 C 582.948 2.10978 -2.31209 0
M  V30 6235 C 583.423 2.90713 -3.53907 0
M  V30 6236 N 584.914 2.98287 -3.54371 0
M  V30 6237 C 585.649 3.60406 -4.45976 0
M  V30 6238 N 585.145 4.24043 -5.47868 0
M  V30 6239 N 586.938 3.57658 -4.33633 0
M  V30 6240 H 579.089 0.419221 -2.08222 0
M  V30 6241 H 581.352 0.247995 -0.914988 0
M  V30 6242 H 581.058 1.47788 -3.19142 0
M  V30 6243 H 580.932 2.9865 -2.30408 0
M  V30 6244 H 583.319 2.6036 -1.38913 0
M  V30 6245 H 583.4 1.09575 -2.31143 0
M  V30 6246 H 583.044 2.42018 -4.46531 0
M  V30 6247 H 582.974 3.92367 -3.5122 0
M  V30 6248 H 585.465 2.53044 -2.80673 0
M  V30 6249 H 585.778 4.69334 -6.13959 0
M  V30 6250 H 584.123 4.22637 -5.51728 0
M  V30 6251 H 587.314 3.07134 -3.53251 0
M  V30 6252 H 587.487 4.05782 -5.05218 0
M  V30 6253 N 580.893 1.08022 1.14757 0
M  V30 6254 C 581.803 0.718292 2.23333 0
M  V30 6255 C 582.819 -0.273477 1.71837 0
M  V30 6256 O 583.995 -0.118406 2.01052 0
M  V30 6257 C 581.06 0.128855 3.4646 0
M  V30 6258 C 580.121 1.17473 4.12915 0
M  V30 6259 C 579.354 0.61333 5.30164 0
M  V30 6260 O 579.577 -0.568458 5.6756 0
M  V30 6261 O 578.511 1.3615 5.86299 0
M  V30 6262 H 582.337 1.62394 2.56636 0
M  V30 6263 H 579.922 0.853628 1.22611 0
M  V30 6264 H 581.804 -0.197249 4.20938 0
M  V30 6265 H 580.479 -0.750014 3.14891 0
M  V30 6266 H 579.386 1.5533 3.40328 0
M  V30 6267 H 580.719 2.02574 4.48581 0
M  V30 6268 N 582.371 -1.3172 0.865308 0
M  V30 6269 C 583.301 -2.31109 0.333302 0
M  V30 6270 C 584.282 -1.60148 -0.573301 0
M  V30 6271 O 585.467 -1.87882 -0.491305 0
M  V30 6272 C 582.597 -3.44104 -0.470078 0
M  V30 6273 C 581.551 -4.26623 0.343021 0
M  V30 6274 C 580.877 -5.31482 -0.585756 0
M  V30 6275 C 582.177 -4.98001 1.57456 0
M  V30 6276 H 583.871 -2.75855 1.1638 0
M  V30 6277 H 581.417 -1.3262 0.561069 0
M  V30 6278 H 583.37 -4.12682 -0.852752 0
M  V30 6279 H 582.094 -2.98112 -1.33404 0
M  V30 6280 H 580.753 -3.59707 0.707583 0
M  V30 6281 H 580.401 -4.81741 -1.44686 0
M  V30 6282 H 580.101 -5.87582 -0.0456494 0
M  V30 6283 H 581.625 -6.0292 -0.965375 0
M  V30 6284 H 583.039 -5.59201 1.26359 0
M  V30 6285 H 581.436 -5.63876 2.05339 0
M  V30 6286 H 582.506 -4.25253 2.32997 0
M  V30 6287 N 583.85 -0.624285 -1.44708 0
M  V30 6288 C 585.077 -0.132919 -2.06473 0
M  V30 6289 C 585.493 1.18967 -1.46602 0
M  V30 6290 O 584.85 1.72824 -0.586341 0
M  V30 6291 C 584.901 -0.00465418 -3.615 0
M  V30 6292 O 584.622 -1.27494 -4.19138 0
M  V30 6293 C 586.123 0.516213 -4.40284 0
M  V30 6294 H 583.343 -0.0765201 -0.666623 0
M  V30 6295 H 585.887 -0.856751 -1.85688 0
M  V30 6296 H 584.042 0.669583 -3.8157 0
M  V30 6297 H 584.456 -1.11536 -5.12504 0
M  V30 6298 H 585.93 0.554994 -5.49203 0
M  V30 6299 H 586.407 1.5419 -4.11245 0
M  V30 6300 H 587.013 -0.124542 -4.25118 0
M  V30 6301 N 585.328 1.53329 -0.364422 0
M  V30 6302 C 586.238 2.29414 0.490552 0
M  V30 6303 C 587.254 1.35335 1.09363 0
M  V30 6304 O 588.43 1.68391 1.10483 0
M  V30 6305 C 585.495 3.06772 1.61529 0
M  V30 6306 C 584.556 4.16516 1.03986 0
M  V30 6307 C 583.789 4.90176 2.111 0
M  V30 6308 O 584.012 4.63687 3.32191 0
M  V30 6309 O 582.946 5.76134 1.74222 0
M  V30 6310 H 586.772 3.03428 -0.12856 0
M  V30 6311 H 584.357 1.48843 -0.128837 0
M  V30 6312 H 586.239 3.55082 2.26924 0
M  V30 6313 H 584.914 2.35596 2.21983 0
M  V30 6314 H 583.821 3.7246 0.349856 0
M  V30 6315 H 585.154 4.89855 0.4799 0
M  V30 6316 N 586.806 0.0935595 1.57322 0
M  V30 6317 C 587.738 -0.895923 2.10964 0
M  V30 6318 C 588.751 -1.24705 1.04654 0
M  V30 6319 O 589.94 -1.20044 1.32105 0
M  V30 6320 C 587.04 -2.20546 2.57318 0
M  V30 6321 C 586.213 -2.0299 3.87445 0
M  V30 6322 C 585.272 -3.17443 4.19662 0
M  V30 6323 O 584.298 -2.91474 4.88909 0
M  V30 6324 N 585.5 -4.43168 3.74943 0
M  V30 6325 H 588.265 -0.437788 2.96485 0
M  V30 6326 H 585.826 -0.0915863 1.61641 0
M  V30 6327 H 587.818 -2.9606 2.75917 0
M  V30 6328 H 586.388 -2.57789 1.76816 0
M  V30 6329 H 585.608 -1.11815 3.78009 0
M  V30 6330 H 586.896 -1.88535 4.7258 0
M  V30 6331 H 586.294 -4.67149 3.19043 0
M  V30 6332 H 584.851 -5.15637 3.987 0
M  V30 6333 N 588.284 -1.56567 -0.180126 0
M  V30 6334 C 589.695 -1.7126 -0.743422 0
M  V30 6335 C 590.046 -0.70263 -1.83187 0
M  V30 6336 O 589.171 0.137856 -2.1596 0
M  V30 6337 C 589.766 -3.10512 -1.35528 0
M  V30 6338 C 588.325 -3.26919 -1.8655 0
M  V30 6339 C 587.472 -2.67213 -0.741099 0
M  V30 6340 H 590.423 -1.58636 0.0451543 0
M  V30 6341 H 590.444 -3.08673 -2.22489 0
M  V30 6342 H 589.956 -3.83997 -0.562862 0
M  V30 6343 H 588.057 -2.58376 -2.68464 0
M  V30 6344 H 588.17 -4.34574 -2.01699 0
M  V30 6345 H 586.534 -2.26788 -1.15927 0
M  V30 6346 H 587.317 -3.43277 0.0393291 0
M  V30 6347 N 589.762 0.448376 -1.51087 0
M  V30 6348 C 591.173 1.0286 -1.5581 0
M  V30 6349 C 591.524 1.92583 -0.374989 0
M  V30 6350 O 590.649 2.10316 0.509533 0
M  V30 6351 C 591.244 1.87223 -2.8237 0
M  V30 6352 C 589.803 2.40314 -2.897 0
M  V30 6353 C 588.95 1.19238 -2.50355 0
M  V30 6354 H 591.901 0.230075 -1.57023 0
M  V30 6355 H 591.922 2.72553 -2.6551 0
M  V30 6356 H 591.434 1.21894 -3.68461 0
M  V30 6357 H 589.535 3.09129 -2.08014 0
M  V30 6358 H 589.648 2.73866 -3.93108 0
M  V30 6359 H 588.012 1.53428 -2.03303 0
M  V30 6360 H 588.795 0.555367 -3.38778 0
M  V30 6361 N 591.24 1.41047 0.703093 0
M  V30 6362 C 592.173 1.36713 1.82715 0
M  V30 6363 C 593.151 0.235533 1.60885 0
M  V30 6364 O 594.335 0.421227 1.83733 0
M  V30 6365 C 591.462 1.13069 3.1927 0
M  V30 6366 C 590.508 2.28846 3.59905 0
M  V30 6367 S 591.341 3.91297 3.65578 0
M  V30 6368 C 592.497 3.69941 5.04871 0
M  V30 6369 H 592.73 2.31838 1.86114 0
M  V30 6370 H 590.263 1.27481 0.871083 0
M  V30 6371 H 592.221 1.00113 3.98105 0
M  V30 6372 H 590.882 0.195763 3.13489 0
M  V30 6373 H 590.075 2.07977 4.59088 0
M  V30 6374 H 589.677 2.3817 2.88359 0
M  V30 6375 H 591.969 3.29181 5.92154 0
M  V30 6376 H 592.912 4.68699 5.30779 0
M  V30 6377 H 593.32 3.03369 4.76054 0
M  V30 6378 N 592.718 -0.936591 1.26751 0
M  V30 6379 C 594.129 -1.49816 1.1141 0
M  V30 6380 C 594.48 -1.9383 -0.304015 0
M  V30 6381 O 593.605 -1.80346 -1.196 0
M  V30 6382 C 594.2 -2.72271 2.01629 0
M  V30 6383 C 592.759 -3.2468 1.9042 0
M  V30 6384 C 591.906 -1.97444 1.94708 0
M  V30 6385 H 594.857 -0.751604 1.39773 0
M  V30 6386 H 594.878 -3.46741 1.56688 0
M  V30 6387 H 594.39 -2.40205 3.04833 0
M  V30 6388 H 592.491 -3.61525 0.901674 0
M  V30 6389 H 592.604 -3.91476 2.76195 0
M  V30 6390 H 590.968 -2.13545 1.38818 0
M  V30 6391 H 591.751 -1.67703 2.9955 0
M  V30 6392 N 594.196 -1.08629 -1.14182 0
M  V30 6393 C 595.159 -0.722027 -2.1753 0
M  V30 6394 C 596.159 0.244305 -1.58933 0
M  V30 6395 O 597.349 0.0235545 -1.74184 0
M  V30 6396 C 594.481 -0.0663966 -3.40835 0
M  V30 6397 H 595.674 -1.63719 -2.51269 0
M  V30 6398 H 593.227 -0.884442 -1.28869 0
M  V30 6399 H 593.962 0.860389 -3.12678 0
M  V30 6400 H 593.747 -0.761598 -3.84632 0
M  V30 6401 H 595.237 0.173346 -4.1724 0
M  V30 6402 N 595.674 1.31259 -0.872281 0
M  V30 6403 C 597.09 1.49283 -0.564521 0
M  V30 6404 C 597.29 1.80243 0.900807 0
M  V30 6405 O 596.346 1.88246 1.68284 0
M  V30 6406 C 597.659 2.62503 -1.46673 0
M  V30 6407 C 599.207 2.76386 -1.46901 0
M  V30 6408 C 599.682 3.92705 -2.35684 0
M  V30 6409 N 601.173 3.99995 -2.33577 0
M  V30 6410 C 601.908 4.89276 -2.98992 0
M  V30 6411 N 601.404 5.83443 -3.73585 0
M  V30 6412 N 603.197 4.82541 -2.88289 0
M  V30 6413 H 595.348 1.09432 -1.82039 0
M  V30 6414 H 597.611 0.540949 -0.77851 0
M  V30 6415 H 597.317 2.46407 -2.50951 0
M  V30 6416 H 597.191 3.58695 -1.16696 0
M  V30 6417 H 599.578 2.91894 -0.433796 0
M  V30 6418 H 599.659 1.80853 -1.80903 0
M  V30 6419 H 599.303 3.77954 -3.39283 0
M  V30 6420 H 599.233 4.87549 -1.99006 0
M  V30 6421 H 601.724 3.32624 -1.7936 0
M  V30 6422 H 602.037 6.48303 -4.20622 0
M  V30 6423 H 600.382 5.83415 -3.77694 0
M  V30 6424 H 603.573 4.07951 -2.2955 0
M  V30 6425 H 603.746 5.51916 -3.39549 0
M  V30 6426 N 597.152 0.631951 1.44375 0
M  V30 6427 C 598.563 0.219036 1.85411 0
M  V30 6428 C 598.914 -1.22974 1.52879 0
M  V30 6429 O 598.039 -1.93579 0.967266 0
M  V30 6430 C 598.634 0.39075 3.36539 0
M  V30 6431 C 597.193 0.0323351 3.76386 0
M  V30 6432 C 596.34 0.703744 2.68221 0
M  V30 6433 H 599.291 0.837056 1.3483 0
M  V30 6434 H 599.312 -0.370056 3.78696 0
M  V30 6435 H 598.824 1.44527 3.60185 0
M  V30 6436 H 596.925 -1.02042 3.58355 0
M  V30 6437 H 597.038 0.442969 4.77048 0
M  V30 6438 H 595.402 0.138974 2.54321 0
M  V30 6439 H 596.185 1.76088 2.947 0
M  V30 6440 N 598.631 -1.53133 0.372548 0
M  V30 6441 C 600.047 -1.59585 0.02178 0
M  V30 6442 C 600.247 -1.38736 -1.46132 0
M  V30 6443 O 599.303 -1.19599 -2.22379 0
M  V30 6444 C 600.616 -2.9678 0.483959 0
M  V30 6445 C 602.164 -3.09909 0.438775 0
M  V30 6446 C 602.639 -4.49527 0.876876 0
M  V30 6447 N 604.13 -4.55663 0.832214 0
M  V30 6448 C 604.865 -5.61896 1.14281 0
M  V30 6449 N 604.361 -6.75852 1.52303 0
M  V30 6450 N 606.154 -5.51916 1.06515 0
M  V30 6451 H 598.305 -1.64936 1.33827 0
M  V30 6452 H 600.568 -0.773947 0.547458 0
M  V30 6453 H 600.274 -3.17198 1.51915 0
M  V30 6454 H 600.148 -3.7699 -0.125784 0
M  V30 6455 H 602.535 -2.89197 -0.587294 0
M  V30 6456 H 602.616 -2.31691 1.0841 0
M  V30 6457 H 602.26 -4.70979 1.90109 0
M  V30 6458 H 602.19 -5.26186 0.208727 0
M  V30 6459 H 604.681 -3.73844 0.552195 0
M  V30 6460 H 604.994 -7.52862 1.7441 0
M  V30 6461 H 603.339 -6.77226 1.56175 0
M  V30 6462 H 606.53 -4.6177 0.767235 0
M  V30 6463 H 606.703 -6.34609 1.31053 0
M  V30 6464 N 600.109 -0.101901 -1.5727 0
M  V30 6465 C 601.355 0.554864 -1.95686 0
M  V30 6466 C 601.71 1.65368 -0.983415 0
M  V30 6467 O 601.003 1.91597 -0.0105374 0
M  V30 6468 C 601.197 1.14898 -3.38427 0
M  V30 6469 C 601.026 0.109251 -4.49567 0
M  V30 6470 C 599.796 -0.316633 -5.04307 0
M  V30 6471 C 601.994 -0.665196 -5.0998 0
M  V30 6472 N 599.976 -1.34393 -5.99009 0
M  V30 6473 C 601.347 -1.54413 -6.00464 0
M  V30 6474 C 603.402 -0.717966 -4.92696 0
M  V30 6475 C 602.105 -2.47122 -6.75517 0
M  V30 6476 C 604.131 -1.63268 -5.68417 0
M  V30 6477 C 603.493 -2.49923 -6.58572 0
M  V30 6478 H 599.592 0.17317 -0.762585 0
M  V30 6479 H 602.176 -0.18605 -1.93809 0
M  V30 6480 H 600.347 1.85969 -3.40984 0
M  V30 6481 H 602.079 1.76867 -3.64006 0
M  V30 6482 H 598.834 0.0724419 -4.73545 0
M  V30 6483 H 599.258 -1.85598 -6.51062 0
M  V30 6484 H 603.9 -0.0621637 -4.22754 0
M  V30 6485 H 601.618 -3.13724 -7.44717 0
M  V30 6486 H 605.204 -1.67874 -5.57054 0
M  V30 6487 H 604.084 -3.19553 -7.16139 0
M  V30 6488 N 601.587 1.56661 0.17182 0
M  V30 6489 C 602.52 1.91474 1.24149 0
M  V30 6490 C 603.498 0.777485 1.42807 0
M  V30 6491 O 604.682 1.03075 1.57822 0
M  V30 6492 C 601.809 2.16523 2.60453 0
M  V30 6493 C 600.855 3.39209 2.58533 0
M  V30 6494 S 601.688 4.93594 2.07665 0
M  V30 6495 C 602.844 5.21737 3.45747 0
M  V30 6496 H 603.077 2.81903 0.944346 0
M  V30 6497 H 600.61 1.49743 0.376364 0
M  V30 6498 H 602.568 2.31635 3.38903 0
M  V30 6499 H 601.229 1.26802 2.87368 0
M  V30 6500 H 600.422 3.53935 3.58812 0
M  V30 6501 H 600.024 3.2321 1.88178 0
M  V30 6502 H 602.316 5.13684 4.41741 0
M  V30 6503 H 603.259 6.23361 3.35896 0
M  V30 6504 H 603.667 4.49307 3.41736 0
M  V30 6505 N 603.065 -0.440357 1.51323 0
M  V30 6506 C 604.012 -1.53429 1.72419 0
M  V30 6507 C 604.982 -1.56165 0.565826 0
M  V30 6508 O 606.167 -1.73222 0.799917 0
M  V30 6509 C 603.307 -2.91169 1.85242 0
M  V30 6510 C 602.42 -2.97985 3.12777 0
M  V30 6511 C 601.555 -4.26829 3.16212 0
M  V30 6512 C 600.594 -4.27501 4.38074 0
M  V30 6513 N 599.731 -5.47866 4.39076 0
M  V30 6514 H 604.571 -1.34743 2.65797 0
M  V30 6515 H 602.108 -0.654608 1.31732 0
M  V30 6516 H 604.066 -3.71087 1.90658 0
M  V30 6517 H 602.696 -3.0842 0.952744 0
M  V30 6518 H 601.748 -2.10749 3.16685 0
M  V30 6519 H 603.06 -2.94342 4.02696 0
M  V30 6520 H 602.214 -5.15118 3.20527 0
M  V30 6521 H 600.953 -4.33124 2.24176 0
M  V30 6522 H 599.958 -3.37606 4.33938 0
M  V30 6523 H 601.183 -4.22873 5.31371 0
M  V30 6524 H 599.129 -5.54887 3.49909 0
M  V30 6525 H 599.046 -5.46091 5.22801 0
M  V30 6526 H 600.314 -6.38195 4.4758 0
M  V30 6527 N 604.543 -1.41418 -0.695603 0
M  V30 6528 C 605.783 -1.42241 -1.46788 0
M  V30 6529 C 606.147 -0.0300827 -1.91976 0
M  V30 6530 O 607.348 0.0868914 -2.6866 0
M  V30 6531 C 605.619 -2.4011 -2.6473 0
M  V30 6532 S 607.178 -2.59462 -3.53871 0
M  V30 6533 H 603.996 -0.503893 -0.50161 0
M  V30 6534 H 606.598 -1.77855 -0.811654 0
M  V30 6535 H 605.302 -3.40073 -2.29736 0
M  V30 6536 H 604.833 -2.05849 -3.35246 0
M  V30 6537 H 606.848 -1.862 -4.59939 0
M  V30 6538 N 606.021 0.929856 -1.27246 0
M  V30 6539 C 607.267 1.6798 -1.13625 0
M  V30 6540 C 607.6 1.91586 0.317589 0
M  V30 6541 O 606.875 1.50467 1.23247 0
M  V30 6542 C 607.158 3.04766 -1.91806 0
M  V30 6543 C 607.011 2.88415 -3.45162 0
M  V30 6544 C 608.33 4.05063 -1.72082 0
M  V30 6545 H 605.449 0.609632 -0.414147 0
M  V30 6546 H 608.091 1.0792 -1.56376 0
M  V30 6547 H 606.241 3.56034 -1.55474 0
M  V30 6548 H 607.913 2.44282 -3.91311 0
M  V30 6549 H 606.156 2.23802 -3.71611 0
M  V30 6550 H 606.827 3.85482 -3.95105 0
M  V30 6551 H 609.303 3.62798 -2.03757 0
M  V30 6552 H 608.179 4.98765 -2.29182 0
M  V30 6553 H 608.44 4.37021 -0.668206 0
M  V30 6554 N 607.499 1.09233 1.13605 0
M  V30 6555 C 608.409 0.741939 2.22559 0
M  V30 6556 C 609.425 -0.255236 1.72118 0
M  V30 6557 O 610.601 -0.0970747 2.01166 0
M  V30 6558 C 607.666 0.165595 3.46304 0
M  V30 6559 C 606.727 1.21846 4.11645 0
M  V30 6560 C 605.96 0.669526 5.29484 0
M  V30 6561 O 606.183 -0.508228 5.68131 0
M  V30 6562 O 605.117 1.42361 5.84822 0
M  V30 6563 H 608.943 1.65107 2.54899 0
M  V30 6564 H 606.528 0.866584 1.21699 0
M  V30 6565 H 608.41 -0.152592 4.21124 0
M  V30 6566 H 607.085 -0.716573 3.15669 0
M  V30 6567 H 605.992 1.58931 3.38662 0
M  V30 6568 H 607.325 2.07321 4.46407 0
M  V30 6569 N 608.977 -1.30795 0.87923 0
M  V30 6570 C 609.887 -2.32041 0.345565 0
M  V30 6571 C 610.903 -1.65103 -0.549265 0
M  V30 6572 O 612.079 -1.9645 -0.443763 0
M  V30 6573 C 609.144 -3.43944 -0.436245 0
M  V30 6574 C 608.205 -4.26521 0.48765 0
M  V30 6575 C 607.438 -5.33081 -0.256943 0
M  V30 6576 O 607.661 -5.50762 -1.48381 0
M  V30 6577 O 606.595 -6.00635 0.389985 0
M  V30 6578 H 610.421 -2.79627 1.18501 0
M  V30 6579 H 608.006 -1.3486 0.642885 0
M  V30 6580 H 609.888 -4.12128 -0.879119 0
M  V30 6581 H 608.563 -2.98504 -1.25208 0
M  V30 6582 H 607.47 -3.61057 0.979216 0
M  V30 6583 H 608.803 -4.75551 1.26933 0
M  V30 6584 N 610.455 -0.639598 -1.44038 0
M  V30 6585 C 611.683 -0.154811 -2.0632 0
M  V30 6586 C 612.098 1.17406 -1.47856 0
M  V30 6587 O 611.455 1.72193 -0.604638 0
M  V30 6588 C 611.506 -0.0429958 -3.61474 0
M  V30 6589 O 611.227 -1.31932 -4.17763 0
M  V30 6590 C 612.728 0.469486 -4.40807 0
M  V30 6591 H 609.948 -0.0835862 -0.665773 0
M  V30 6592 H 612.492 -0.876397 -1.84769 0
M  V30 6593 H 610.647 0.629075 -3.82258 0
M  V30 6594 H 611.061 -1.16965 -5.11292 0
M  V30 6595 H 612.535 0.496712 -5.49761 0
M  V30 6596 H 613.012 1.49819 -4.12857 0
M  V30 6597 H 613.618 -0.169624 -4.24962 0
M  V30 6598 N 611.933 1.52934 -0.380664 0
M  V30 6599 C 613.181 2.01069 0.203874 0
M  V30 6600 C 613.502 1.26922 1.4804 0
M  V30 6601 O 612.772 0.386787 1.92044 0
M  V30 6602 H 611.352 0.742882 0.0783279 0
M  V30 6603 H 614.014 1.88099 -0.510368 0
M  V30 6604 H 613.11 3.09258 0.42021 0
M  V30 6605 N 613.412 0.11024 1.57214 0
M  V30 6606 C 614.64 -0.557834 1.99238 0
M  V30 6607 C 615.055 -1.60778 0.989734 0
M  V30 6608 O 614.412 -1.82491 -0.0186092 0
M  V30 6609 C 614.463 -1.19189 3.41286 0
M  V30 6610 O 614.184 -0.183919 4.37714 0
M  V30 6611 C 615.685 -1.94413 3.98395 0
M  V30 6612 H 612.905 -0.148392 0.654386 0
M  V30 6613 H 615.449 0.193996 2.03578 0
M  V30 6614 H 613.604 -1.89456 3.37913 0
M  V30 6615 H 614.018 -0.643475 5.20538 0
M  V30 6616 H 615.492 -2.34116 4.99894 0
M  V30 6617 H 615.969 -2.81592 3.3705 0
M  V30 6618 H 616.575 -1.28928 4.05287 0
M  V30 6619 N 614.89 -1.56749 -0.16351 0
M  V30 6620 C 616.137 -1.82434 -0.878866 0
M  V30 6621 C 616.465 -0.688557 -1.81904 0
M  V30 6622 O 615.72 0.323644 -1.93005 0
M  V30 6623 C 616.019 -3.14342 -1.70071 0
M  V30 6624 C 615.685 -4.41647 -0.908775 0
M  V30 6625 C 614.347 -4.76224 -0.690236 0
M  V30 6626 C 616.699 -5.19998 -0.353815 0
M  V30 6627 C 614.027 -5.86624 0.0942374 0
M  V30 6628 C 616.379 -6.3122 0.41761 0
M  V30 6629 C 615.043 -6.64358 0.646879 0
M  V30 6630 H 614.313 -0.667574 -0.3216 0
M  V30 6631 H 616.96 -1.90963 -0.14337 0
M  V30 6632 H 615.265 -3.0119 -2.50583 0
M  V30 6633 H 616.962 -3.31426 -2.25738 0
M  V30 6634 H 613.552 -4.1453 -1.08916 0
M  V30 6635 H 617.736 -4.93673 -0.509975 0
M  V30 6636 H 612.992 -6.10751 0.281529 0
M  V30 6637 H 617.166 -6.91133 0.854849 0
M  V30 6638 H 614.793 -7.49742 1.25662 0
M  V30 6639 N 616.368 0.432326 -1.51554 0
M  V30 6640 C 617.615 1.18134 -1.64471 0
M  V30 6641 C 617.943 1.91076 -0.363349 0
M  V30 6642 O 617.198 1.84492 0.65279 0
M  V30 6643 C 617.497 2.21907 -2.80164 0
M  V30 6644 C 617.163 1.65941 -4.19255 0
M  V30 6645 C 615.825 1.50401 -4.57092 0
M  V30 6646 C 618.177 1.24843 -5.06027 0
M  V30 6647 C 615.505 0.922443 -5.79403 0
M  V30 6648 C 617.857 0.68113 -6.28922 0
M  V30 6649 C 616.521 0.512673 -6.65528 0
M  V30 6650 H 615.791 0.432283 -0.601841 0
M  V30 6651 H 618.438 0.471701 -1.856 0
M  V30 6652 H 616.743 2.98928 -2.53277 0
M  V30 6653 H 618.44 2.79691 -2.87357 0
M  V30 6654 H 615.03 1.79014 -3.89425 0
M  V30 6655 H 619.214 1.35667 -4.77397 0
M  V30 6656 H 614.47 0.779733 -6.06408 0
M  V30 6657 H 618.644 0.35418 -6.95499 0
M  V30 6658 H 616.271 0.0599084 -7.60176 0
M  V30 6659 N 617.846 1.41785 0.688094 0
M  V30 6660 C 618.756 1.46596 1.83158 0
M  V30 6661 C 619.772 0.355862 1.70322 0
M  V30 6662 O 620.948 0.604737 1.92106 0
M  V30 6663 C 618.013 1.35322 3.192 0
M  V30 6664 C 617.074 2.56711 3.4409 0
M  V30 6665 C 616.307 2.45965 4.73642 0
M  V30 6666 O 616.53 1.48827 5.50642 0
M  V30 6667 O 615.464 3.35859 4.99482 0
M  V30 6668 H 619.29 2.43083 1.82056 0
M  V30 6669 H 616.875 1.23404 0.842126 0
M  V30 6670 H 618.757 1.31347 4.00407 0
M  V30 6671 H 617.432 0.419536 3.2097 0
M  V30 6672 H 616.339 2.66262 2.62784 0
M  V30 6673 H 617.672 3.48933 3.47141 0
M  V30 6674 N 619.324 -0.923095 1.27737 0
M  V30 6675 C 620.735 -1.48626 1.12993 0
M  V30 6676 C 621.086 -1.94142 -0.283439 0
M  V30 6677 O 620.211 -1.81605 -1.17681 0
M  V30 6678 C 620.806 -2.70117 2.04505 0
M  V30 6679 C 619.365 -3.22642 1.93853 0
M  V30 6680 C 618.512 -1.95368 1.96791 0
M  V30 6681 H 621.463 -0.736737 1.40563 0
M  V30 6682 H 621.484 -3.4506 1.60356 0
M  V30 6683 H 620.996 -2.36959 3.07363 0
M  V30 6684 H 619.097 -3.60549 0.939968 0
M  V30 6685 H 619.21 -3.88525 2.80331 0
M  V30 6686 H 617.574 -2.12061 1.41076 0
M  V30 6687 H 618.357 -1.64517 3.01312 0
M  V30 6688 N 620.802 -1.09834 -1.13024 0
M  V30 6689 C 622.03 -0.858902 -1.8823 0
M  V30 6690 C 622.445 0.590164 -1.79339 0
M  V30 6691 O 621.802 1.4065 -1.16292 0
M  V30 6692 C 621.853 -1.29066 -3.37675 0
M  V30 6693 O 621.574 -2.6829 -3.46341 0
M  V30 6694 C 623.075 -1.08421 -4.29837 0
M  V30 6695 H 620.295 -0.308713 -0.595766 0
M  V30 6696 H 622.839 -1.4614 -1.4305 0
M  V30 6697 H 620.994 -0.731961 -3.80422 0
M  V30 6698 H 621.408 -2.86598 -4.39274 0
M  V30 6699 H 622.882 -1.43553 -5.33007 0
M  V30 6700 H 623.359 -0.0223315 -4.39194 0
M  V30 6701 H 623.965 -1.62907 -3.92863 0
M  V30 6702 N 622.28 1.30327 -0.886154 0
M  V30 6703 C 623.21 2.30549 -0.370028 0
M  V30 6704 C 624.191 1.61039 0.547751 0
M  V30 6705 O 625.376 1.8864 0.461353 0
M  V30 6706 C 622.506 3.44808 0.415275 0
M  V30 6707 C 621.46 4.26024 -0.41085 0
M  V30 6708 C 620.786 5.32347 0.501128 0
M  V30 6709 C 622.086 4.95433 -1.65359 0
M  V30 6710 H 623.78 2.73969 -1.20754 0
M  V30 6711 H 621.326 1.3171 -0.582097 0
M  V30 6712 H 623.279 4.13986 0.78699 0
M  V30 6713 H 622.003 3.00197 1.28644 0
M  V30 6714 H 620.662 3.58535 -0.764719 0
M  V30 6715 H 620.31 4.83982 1.37004 0
M  V30 6716 H 620.01 5.87581 -0.0478356 0
M  V30 6717 H 621.534 6.0438 0.869333 0
M  V30 6718 H 622.948 5.5712 -1.35239 0
M  V30 6719 H 621.345 5.60537 -2.14284 0
M  V30 6720 H 622.415 4.21493 -2.39733 0
M  V30 6721 N 623.758 0.647228 1.43697 0
M  V30 6722 C 624.721 -0.0385101 2.29168 0
M  V30 6723 C 625.721 -0.756487 1.41894 0
M  V30 6724 O 626.911 -0.598641 1.63591 0
M  V30 6725 C 624.043 -1.06524 3.23829 0
M  V30 6726 H 625.236 0.713445 2.9129 0
M  V30 6727 H 622.789 0.408153 1.50877 0
M  V30 6728 H 623.524 -1.84664 2.66589 0
M  V30 6729 H 623.309 -0.554147 3.88164 0
M  V30 6730 H 624.799 -1.54432 3.87996 0
M  V30 6731 N 625.236 -1.5273 0.388769 0
M  V30 6732 C 626.199 -2.25043 -0.434544 0
M  V30 6733 C 627.199 -1.26661 -0.990644 0
M  V30 6734 O 628.389 -1.50762 -0.872731 0
M  V30 6735 C 625.521 -3.00507 -1.60961 0
M  V30 6736 H 626.714 -2.99242 0.198549 0
M  V30 6737 H 624.267 -1.55664 0.140875 0
M  V30 6738 H 625.002 -2.30607 -2.28015 0
M  V30 6739 H 624.787 -3.72716 -1.21757 0
M  V30 6740 H 626.277 -3.55413 -2.19251 0
M  V30 6741 N 626.714 -0.118576 -1.57153 0
M  V30 6742 C 627.644 0.828436 -2.1831 0
M  V30 6743 C 628.625 1.27758 -1.12303 0
M  V30 6744 O 629.81 1.34026 -1.40537 0
M  V30 6745 C 626.94 2.07876 -2.78217 0
M  V30 6746 C 625.894 1.76742 -3.89803 0
M  V30 6747 C 625.22 3.08801 -4.36516 0
M  V30 6748 C 626.52 1.03606 -5.11921 0
M  V30 6749 H 628.214 0.318824 -2.97698 0
M  V30 6750 H 625.76 0.151911 -1.43196 0
M  V30 6751 H 627.713 2.74584 -3.19659 0
M  V30 6752 H 626.437 2.61161 -1.96118 0
M  V30 6753 H 625.096 1.12424 -3.48936 0
M  V30 6754 H 624.744 3.6002 -3.51276 0
M  V30 6755 H 624.444 2.88743 -5.11763 0
M  V30 6756 H 625.968 3.76627 -4.80608 0
M  V30 6757 H 627.382 1.60467 -5.50385 0
M  V30 6758 H 625.779 0.936454 -5.92748 0
M  V30 6759 H 626.849 0.0227421 -4.84895 0
M  V30 6760 N 628.193 1.56834 0.155195 0
M  V30 6761 C 629.44 1.82898 0.869179 0
M  V30 6762 C 629.768 0.698194 1.81537 0
M  V30 6763 O 629.023 -0.313404 1.93174 0
M  V30 6764 C 629.322 3.15239 1.68402 0
M  V30 6765 C 628.988 4.42123 0.885341 0
M  V30 6766 C 627.65 4.76583 0.664971 0
M  V30 6767 C 630.002 5.20178 0.326234 0
M  V30 6768 C 627.33 5.86566 -0.125346 0
M  V30 6769 C 629.682 6.3099 -0.45108 0
M  V30 6770 C 628.346 6.64006 -0.682102 0
M  V30 6771 H 627.616 0.66927 0.318055 0
M  V30 6772 H 630.263 1.91036 0.133241 0
M  V30 6773 H 628.568 3.02515 2.48982 0
M  V30 6774 H 630.265 3.32618 2.23978 0
M  V30 6775 H 626.855 4.15102 1.06716 0
M  V30 6776 H 631.039 4.93936 0.483787 0
M  V30 6777 H 626.295 6.10594 -0.313915 0
M  V30 6778 H 630.469 6.9067 -0.89149 0
M  V30 6779 H 628.096 7.49065 -1.29636 0
M  V30 6780 N 629.671 -0.424282 1.51781 0
M  V30 6781 C 630.917 -1.17434 1.6534 0
M  V30 6782 C 631.25 -1.90549 0.374806 0
M  V30 6783 O 630.525 -1.84145 -0.626179 0
M  V30 6784 C 630.808 -2.18093 2.86544 0
M  V30 6785 C 630.661 -1.48975 4.24413 0
M  V30 6786 C 631.98 -3.18934 3.03264 0
M  V30 6787 H 629.099 -0.425566 0.601716 0
M  V30 6788 H 631.741 -0.461921 1.84299 0
M  V30 6789 H 629.891 -2.78849 2.7051 0
M  V30 6790 H 631.563 -0.914551 4.52143 0
M  V30 6791 H 629.806 -0.791893 4.26511 0
M  V30 6792 H 630.477 -2.22347 5.05238 0
M  V30 6793 H 632.953 -2.68243 3.18096 0
M  V30 6794 H 631.829 -3.86645 3.89611 0
M  V30 6795 H 632.09 -3.85793 2.15908 0
M  V30 6796 N 631.149 -1.42148 -0.680565 0
M  V30 6797 C 632.565 -1.24947 -0.992995 0
M  V30 6798 C 632.765 -0.149527 -2.00944 0
M  V30 6799 O 631.821 0.481145 -2.47873 0
M  V30 6800 C 633.134 -2.60426 -1.5033 0
M  V30 6801 C 634.682 -2.67733 -1.62137 0
M  V30 6802 C 635.157 -4.03564 -2.16565 0
M  V30 6803 N 636.648 -4.05488 -2.23905 0
M  V30 6804 C 637.383 -5.07401 -2.67081 0
M  V30 6805 N 636.879 -6.19698 -3.09751 0
M  V30 6806 N 638.672 -4.94758 -2.66778 0
M  V30 6807 H 630.823 -2.12399 -0.0074788 0
M  V30 6808 H 633.086 -0.94571 -0.0658529 0
M  V30 6809 H 632.792 -3.41743 -0.830947 0
M  V30 6810 H 632.666 -2.83949 -2.483 0
M  V30 6811 H 635.053 -1.86765 -2.2848 0
M  V30 6812 H 635.134 -2.48004 -0.626713 0
M  V30 6813 H 634.778 -4.84987 -1.50833 0
M  V30 6814 H 634.708 -4.20641 -3.1681 0
M  V30 6815 H 637.199 -3.24415 -1.93812 0
M  V30 6816 H 637.512 -6.93318 -3.41365 0
M  V30 6817 H 635.857 -6.23212 -3.07623 0
M  V30 6818 H 639.048 -4.06105 -2.32801 0
M  V30 6819 H 639.221 -5.74317 -3.00107 0
M  V30 6820 N 632.627 0.916307 -1.28225 0
M  V30 6821 C 633.537 2.05165 -1.13775 0
M  V30 6822 C 634.553 1.73879 -0.0649418 0
M  V30 6823 O 635.729 1.99531 -0.273722 0
M  V30 6824 C 632.794 3.37385 -0.798267 0
M  V30 6825 C 631.855 3.82296 -1.95316 0
M  V30 6826 C 631.088 5.08206 -1.62978 0
M  V30 6827 O 631.311 5.6781 -0.542948 0
M  V30 6828 O 630.245 5.48768 -2.47261 0
M  V30 6829 H 634.071 2.20273 -2.09078 0
M  V30 6830 H 631.656 1.0373 -1.07519 0
M  V30 6831 H 633.538 4.16773 -0.62278 0
M  V30 6832 H 632.213 3.23458 0.125139 0
M  V30 6833 H 631.12 3.03746 -2.18378 0
M  V30 6834 H 632.453 4.00782 -2.85718 0
M  V30 6835 N 634.105 1.10431 1.1244 0
M  V30 6836 C 635.068 0.756542 2.16354 0
M  V30 6837 C 636.068 -0.21899 1.59302 0
M  V30 6838 O 637.258 0.00415969 1.742 0
M  V30 6839 C 634.39 0.120612 3.40687 0
M  V30 6840 H 635.583 1.67696 2.48632 0
M  V30 6841 H 633.136 0.904832 1.27446 0
M  V30 6842 H 633.871 -0.810536 3.14008 0
M  V30 6843 H 633.656 0.822693 3.83372 0
M  V30 6844 H 635.146 -0.106945 4.17463 0
M  V30 6845 N 635.583 -1.29855 0.893053 0
M  V30 6846 C 636.83 -1.95826 0.515585 0
M  V30 6847 C 637.158 -1.70451 -0.936842 0
M  V30 6848 O 636.413 -1.00657 -1.67829 0
M  V30 6849 C 636.712 -3.49515 0.746588 0
M  V30 6850 C 636.378 -3.94955 2.17535 0
M  V30 6851 C 635.04 -4.07073 2.56603 0
M  V30 6852 C 637.392 -4.18536 3.10607 0
M  V30 6853 C 634.72 -4.40138 3.87938 0
M  V30 6854 C 637.072 -4.53073 4.41484 0
M  V30 6855 C 635.736 -4.634 4.80434 0
M  V30 6856 H 635.006 -0.71658 0.188666 0
M  V30 6857 H 637.653 -1.54574 1.13045 0
M  V30 6858 H 635.958 -3.9177 0.0487551 0
M  V30 6859 H 637.655 -3.98644 0.434009 0
M  V30 6860 H 634.245 -3.86035 1.86212 0
M  V30 6861 H 638.429 -4.08646 2.81641 0
M  V30 6862 H 633.685 -4.46335 4.17846 0
M  V30 6863 H 637.859 -4.70269 5.13634 0
M  V30 6864 H 635.486 -4.88775 5.82239 0
M  V30 6865 N 637.061 -0.65484 -1.43351 0
M  V30 6866 C 638.309 -0.168559 -2.01396 0
M  V30 6867 C 638.63 1.22235 -1.51933 0
M  V30 6868 O 637.9 1.81685 -0.732627 0
M  V30 6869 H 636.48 -0.0593244 -0.744641 0
M  V30 6870 H 639.142 -0.846871 -1.75539 0
M  V30 6871 H 638.238 -0.154428 -3.11718 0
M  V30 6872 N 638.539 1.52521 -0.396863 0
M  V30 6873 C 639.95 1.86547 0.0754868 0
M  V30 6874 C 640.301 1.31621 1.45501 0
M  V30 6875 O 639.426 0.650563 2.0639 0
M  V30 6876 C 640.021 3.38495 0.143754 0
M  V30 6877 C 638.58 3.72205 0.560413 0
M  V30 6878 C 637.727 2.75954 -0.272856 0
M  V30 6879 H 640.678 1.46323 -0.614434 0
M  V30 6880 H 640.699 3.68153 0.961425 0
M  V30 6881 H 640.211 3.78442 -0.860415 0
M  V30 6882 H 638.312 3.3783 1.57167 0
M  V30 6883 H 638.425 4.78074 0.313314 0
M  V30 6884 H 636.789 2.53339 0.263 0
M  V30 6885 H 637.572 3.1874 -1.27515 0
M  V30 6886 N 640.017 0.126909 1.57088 0
M  V30 6887 C 641.242 -0.53997 2.00248 0
M  V30 6888 C 641.667 -1.58927 1.00618 0
M  V30 6889 O 641.025 -1.81288 -0.0210131 0
M  V30 6890 C 641.073 -1.13565 3.4225 0
M  V30 6891 O 640.177 -2.25103 3.45547 0
M  V30 6892 H 639.518 -0.13412 0.650314 0
M  V30 6893 H 642.048 0.217718 2.03438 0
M  V30 6894 H 642.058 -1.46925 3.80627 0
M  V30 6895 H 640.733 -0.367122 4.14277 0
M  V30 6896 H 639.31 -1.93123 3.18995 0
M  V30 6897 N 641.495 -1.56914 -0.146875 0
M  V30 6898 C 642.723 -1.87515 -0.874394 0
M  V30 6899 C 643.138 -0.715116 -1.74733 0
M  V30 6900 O 642.495 0.315113 -1.79759 0
M  V30 6901 C 642.546 -3.17362 -1.731 0
M  V30 6902 O 642.267 -4.28897 -0.893245 0
M  V30 6903 C 643.768 -3.61479 -2.56609 0
M  V30 6904 H 640.988 -0.621546 -0.252827 0
M  V30 6905 H 643.532 -2.04023 -0.139627 0
M  V30 6906 H 641.687 -3.02608 -2.41883 0
M  V30 6907 H 642.101 -5.03146 -1.48137 0
M  V30 6908 H 643.575 -4.5517 -3.12289 0
M  V30 6909 H 644.052 -2.86773 -3.32653 0
M  V30 6910 H 644.658 -3.78927 -1.93117 0
M  V30 6911 N 642.974 0.416227 -1.52004 0
M  V30 6912 C 644.39 0.754319 -1.40649 0
M  V30 6913 C 644.59 1.95059 -0.505392 0
M  V30 6914 O 643.646 2.5248 0.0315057 0
M  V30 6915 C 644.959 1.0149 -2.83055 0
M  V30 6916 C 646.507 1.11805 -2.9235 0
M  V30 6917 C 646.982 1.41144 -4.35709 0
M  V30 6918 N 648.473 1.48024 -4.38911 0
M  V30 6919 C 649.208 1.72338 -5.46889 0
M  V30 6920 N 648.704 1.94303 -6.64995 0
M  V30 6921 N 650.497 1.74294 -5.34395 0
M  V30 6922 H 642.648 -0.371324 -2.09129 0
M  V30 6923 H 644.911 -0.103811 -0.942299 0
M  V30 6924 H 644.617 0.208345 -3.51082 0
M  V30 6925 H 644.491 1.93697 -3.23668 0
M  V30 6926 H 646.878 1.91521 -2.24508 0
M  V30 6927 H 646.959 0.17451 -2.55204 0
M  V30 6928 H 646.603 0.619484 -5.04108 0
M  V30 6929 H 646.533 2.36739 -4.70385 0
M  V30 6930 H 649.024 1.32868 -3.53772 0
M  V30 6931 H 649.337 2.12286 -7.43071 0
M  V30 6932 H 647.682 1.91582 -6.68073 0
M  V30 6933 H 650.873 1.56667 -4.41104 0
M  V30 6934 H 651.046 1.92904 -6.18621 0
M  V30 6935 N 644.452 1.42507 0.673017 0
M  V30 6936 C 645.677 1.4668 1.46627 0
M  V30 6937 C 646.102 0.080066 1.8793 0
M  V30 6938 O 645.46 -0.921879 1.56112 0
M  V30 6939 C 645.508 2.40091 2.69051 0
M  V30 6940 O 644.612 1.8735 3.67387 0
M  V30 6941 H 643.953 0.496908 0.44043 0
M  V30 6942 H 646.483 1.87215 0.825334 0
M  V30 6943 H 646.493 2.56731 3.17101 0
M  V30 6944 H 645.168 3.4084 2.3833 0
M  V30 6945 H 643.745 1.80274 3.26429 0
M  V30 6946 N 645.93 -0.909495 1.28709 0
M  V30 6947 C 646.893 -1.99399 1.13016 0
M  V30 6948 C 647.893 -1.60654 0.068536 0
M  V30 6949 O 649.083 -1.71334 0.314671 0
M  V30 6950 C 646.215 -3.33078 0.726085 0
M  V30 6951 H 647.408 -2.14751 2.09338 0
M  V30 6952 H 644.961 -1.09272 1.11756 0
M  V30 6953 H 645.696 -3.23428 -0.23771 0
M  V30 6954 H 645.481 -3.62562 1.49302 0
M  V30 6955 H 646.971 -4.12681 0.639058 0
M  V30 6956 N 647.408 -1.11026 -1.11852 0
M  V30 6957 C 648.371 -0.768006 -2.1595 0
M  V30 6958 C 649.371 0.210538 -1.59416 0
M  V30 6959 O 650.561 -0.0133978 -1.74195 0
M  V30 6960 C 647.693 -0.138678 -3.40618 0
M  V30 6961 H 648.886 -1.69012 -2.4774 0
M  V30 6962 H 646.439 -0.911578 -1.26964 0
M  V30 6963 H 647.174 0.793872 -3.14433 0
M  V30 6964 H 646.959 -0.843012 -3.8293 0
M  V30 6965 H 648.449 0.0848039 -4.17514 0
M  V30 6966 N 648.886 1.2938 -0.899927 0
M  V30 6967 C 649.819 2.25911 -0.322386 0
M  V30 6968 C 650.797 1.52447 0.565567 0
M  V30 6969 O 651.981 1.81404 0.512324 0
M  V30 6970 C 649.108 3.3436 0.540455 0
M  V30 6971 C 648.154 4.25579 -0.280211 0
M  V30 6972 S 648.987 5.08526 -1.67814 0
M  V30 6973 C 650.143 6.20476 -0.822224 0
M  V30 6974 H 650.376 2.7455 -1.1406 0
M  V30 6975 H 647.909 1.37606 -0.700285 0
M  V30 6976 H 649.867 3.97303 1.0325 0
M  V30 6977 H 648.528 2.84416 1.33291 0
M  V30 6978 H 647.721 5.02574 0.378915 0
M  V30 6979 H 647.323 3.67287 -0.705405 0
M  V30 6980 H 649.615 6.77485 -0.0457138 0
M  V30 6981 H 650.558 6.90606 -1.56426 0
M  V30 6982 H 650.966 5.63243 -0.37651 0
M  V30 6983 N 650.364 0.662433 1.43002 0
M  V30 6984 C 651.311 -0.0235324 2.30788 0
M  V30 6985 C 652.281 -0.805342 1.4527 0
M  V30 6986 O 653.466 -0.78009 1.74124 0
M  V30 6987 C 650.606 -0.977545 3.30965 0
M  V30 6988 C 649.719 -0.190865 4.31578 0
M  V30 6989 C 648.854 -1.13951 5.18834 0
M  V30 6990 C 647.893 -0.343796 6.11134 0
M  V30 6991 N 647.03 -1.2445 6.90982 0
M  V30 6992 H 651.87 0.730921 2.88897 0
M  V30 6993 H 649.407 0.372197 1.42313 0
M  V30 6994 H 651.365 -1.54437 3.87563 0
M  V30 6995 H 649.995 -1.69877 2.74484 0
M  V30 6996 H 649.047 0.492388 3.772 0
M  V30 6997 H 650.359 0.427464 4.96965 0
M  V30 6998 H 649.513 -1.77666 5.80103 0
M  V30 6999 H 648.252 -1.79174 4.53595 0
M  V30 7000 H 647.257 0.30665 5.48944 0
M  V30 7001 H 648.482 0.304161 6.78419 0
M  V30 7002 H 646.428 -1.88336 6.28383 0
M  V30 7003 H 646.345 -0.680959 7.52927 0
M  V30 7004 H 647.613 -1.86952 7.56749 0
M  V30 7005 N 651.842 -1.52309 0.404946 0
M  V30 7006 C 652.772 -2.29805 -0.41376 0
M  V30 7007 C 653.753 -1.3384 -1.0498 0
M  V30 7008 O 654.938 -1.62745 -1.05961 0
M  V30 7009 C 652.068 -3.11639 -1.53292 0
M  V30 7010 C 651.022 -4.15616 -1.02211 0
M  V30 7011 C 650.348 -4.8577 -2.23455 0
M  V30 7012 C 651.648 -5.2224 -0.0790725 0
M  V30 7013 H 653.342 -2.98493 0.232878 0
M  V30 7014 H 650.888 -1.43552 0.113441 0
M  V30 7015 H 652.841 -3.64618 -2.11262 0
M  V30 7016 H 651.565 -2.40712 -2.20738 0
M  V30 7017 H 650.224 -3.63641 -0.46484 0
M  V30 7018 H 649.872 -4.11376 -2.89445 0
M  V30 7019 H 649.572 -5.56058 -1.89929 0
M  V30 7020 H 651.096 -5.4156 -2.82038 0
M  V30 7021 H 652.51 -5.70485 -0.567438 0
M  V30 7022 H 650.907 -5.99867 0.167167 0
M  V30 7023 H 651.977 -4.77078 0.867447 0
M  V30 7024 N 653.32 -0.135238 -1.57019 0
M  V30 7025 C 654.567 0.518794 -1.95742 0
M  V30 7026 C 654.895 1.65642 -1.01947 0
M  V30 7027 O 654.15 1.95645 -0.0464016 0
M  V30 7028 C 654.449 1.07694 -3.40788 0
M  V30 7029 C 654.115 0.058992 -4.50861 0
M  V30 7030 C 652.777 -0.220872 -4.80693 0
M  V30 7031 C 655.129 -0.633856 -5.17331 0
M  V30 7032 C 652.457 -1.19959 -5.74305 0
M  V30 7033 C 654.809 -1.60131 -6.11997 0
M  V30 7034 C 653.473 -1.889 -6.40213 0
M  V30 7035 H 652.743 0.18984 -0.716269 0
M  V30 7036 H 655.39 -0.219581 -1.90237 0
M  V30 7037 H 653.695 1.89241 -3.43067 0
M  V30 7038 H 655.392 1.59137 -3.68071 0
M  V30 7039 H 651.982 0.287304 -4.27636 0
M  V30 7040 H 656.166 -0.430823 -4.94427 0
M  V30 7041 H 651.422 -1.42905 -5.94465 0
M  V30 7042 H 655.596 -2.14376 -6.62583 0
M  V30 7043 H 653.223 -2.64891 -7.12556 0
M  V30 7044 N 654.798 1.5699 0.138552 0
M  V30 7045 C 656.026 1.87976 0.864437 0
M  V30 7046 C 656.441 0.724372 1.74351 0
M  V30 7047 O 655.798 -0.305575 1.79924 0
M  V30 7048 C 655.849 3.18276 1.71414 0
M  V30 7049 O 655.57 4.29365 0.870487 0
M  V30 7050 C 657.071 3.62834 2.54688 0
M  V30 7051 H 654.291 0.622878 0.249528 0
M  V30 7052 H 656.835 2.04094 0.128805 0
M  V30 7053 H 654.99 3.03886 2.40274 0
M  V30 7054 H 655.404 5.03924 1.45466 0
M  V30 7055 H 656.878 4.5682 3.0987 0
M  V30 7056 H 657.355 2.88533 3.31127 0
M  V30 7057 H 657.961 3.79946 1.91105 0
M  V30 7058 N 656.276 -0.40816 1.52223 0
M  V30 7059 C 657.239 -1.48 1.7501 0
M  V30 7060 C 658.239 -1.48367 0.619996 0
M  V30 7061 O 659.429 -1.49874 0.887881 0
M  V30 7062 C 656.561 -2.87403 1.83336 0
M  V30 7063 H 657.754 -1.29086 2.70697 0
M  V30 7064 H 655.307 -0.638715 1.42654 0
M  V30 7065 H 656.042 -3.11686 0.895677 0
M  V30 7066 H 655.827 -2.8854 2.65494 0
M  V30 7067 H 657.317 -3.65103 2.02705 0
M  V30 7068 N 657.755 -1.42862 -0.66545 0
M  V30 7069 C 659.004 -1.43119 -1.42126 0
M  V30 7070 C 659.317 -0.0545297 -1.95524 0
M  V30 7071 O 660.523 0.0654747 -2.71421 0
M  V30 7072 C 658.979 -2.51797 -2.5715 0
M  V30 7073 C 658.587 -3.95514 -2.10411 0
M  V30 7074 C 660.331 -2.61233 -3.346 0
M  V30 7075 C 658.238 -4.95682 -3.22573 0
M  V30 7076 H 657.168 -0.532349 -0.533966 0
M  V30 7077 H 659.819 -1.68806 -0.719506 0
M  V30 7078 H 658.201 -2.19292 -3.29738 0
M  V30 7079 H 659.375 -4.3742 -1.44915 0
M  V30 7080 H 657.69 -3.90012 -1.45874 0
M  V30 7081 H 660.287 -3.33248 -4.18151 0
M  V30 7082 H 660.63 -1.65896 -3.81817 0
M  V30 7083 H 661.163 -2.9298 -2.69087 0
M  V30 7084 H 657.902 -5.92529 -2.80338 0
M  V30 7085 H 657.422 -4.58399 -3.86821 0
M  V30 7086 H 659.101 -5.17828 -3.87896 0
M  V30 7087 N 659.233 0.902656 -1.29189 0
M  V30 7088 C 660.649 1.18296 -1.07137 0
M  V30 7089 C 660.849 2.00701 0.179223 0
M  V30 7090 O 659.905 2.3675 0.877812 0
M  V30 7091 C 661.218 1.90677 -2.32514 0
M  V30 7092 C 662.766 2.03515 -2.37804 0
M  V30 7093 C 663.241 2.79307 -3.62976 0
M  V30 7094 N 664.732 2.86862 -3.63681 0
M  V30 7095 C 665.467 3.46035 -4.57217 0
M  V30 7096 N 664.963 4.06399 -5.61081 0
M  V30 7097 N 666.756 3.43681 -4.44792 0
M  V30 7098 H 658.907 0.352765 -2.0945 0
M  V30 7099 H 661.17 0.21876 -0.922414 0
M  V30 7100 H 660.876 1.3756 -3.23682 0
M  V30 7101 H 660.75 2.91169 -2.39793 0
M  V30 7102 H 663.137 2.55809 -1.47125 0
M  V30 7103 H 663.218 1.02166 -2.34512 0
M  V30 7104 H 662.862 2.2769 -4.54004 0
M  V30 7105 H 662.792 3.80995 -3.63525 0
M  V30 7106 H 665.283 2.43987 -2.88581 0
M  V30 7107 H 665.596 4.49564 -6.2858 0
M  V30 7108 H 663.941 4.0487 -5.64894 0
M  V30 7109 H 667.132 2.9574 -3.62843 0
M  V30 7110 H 667.305 3.89503 -5.17872 0
M  V30 7111 N 660.711 1.11618 1.11262 0
M  V30 7112 C 661.988 0.777876 1.79467 0
M  V30 7113 C 662.368 -0.733774 1.97937 0
M  V30 7114 O 661.716 -1.66443 1.56554 0
M  V30 7115 C 661.926 1.5431 3.13032 0
M  V30 7116 C 663.274 1.72357 3.88044 0
M  V30 7117 O 664.298 1.5075 3.22727 0
M  V30 7118 O 663.157 2.08276 5.05256 0
M  V30 7119 H 660.251 0.282018 0.777428 0
M  V30 7120 H 662.797 1.21971 1.17988 0
M  V30 7121 H 661.569 2.57132 2.94956 0
M  V30 7122 H 661.192 1.09495 3.82226 0
M  V30 7123 N 662.189 -1.289 0.906776 0
M  V30 7124 C 663.152 -2.25777 0.394656 0
M  V30 7125 C 664.152 -1.53621 -0.475119 0
M  V30 7126 O 665.342 -1.71949 -0.279165 0
M  V30 7127 C 662.474 -3.38113 -0.43499 0
M  V30 7128 H 663.667 -2.72592 1.25033 0
M  V30 7129 H 661.22 -1.40463 0.685547 0
M  V30 7130 H 661.955 -2.96648 -1.31036 0
M  V30 7131 H 661.74 -3.91647 0.188334 0
M  V30 7132 H 663.23 -4.10168 -0.784365 0
M  V30 7133 N 663.667 -0.670007 -1.42649 0
M  V30 7134 C 664.597 -0.00258501 -2.335 0
M  V30 7135 C 665.578 0.794364 -1.50412 0
M  V30 7136 O 666.763 0.75248 -1.79029 0
M  V30 7137 C 663.893 0.952748 -3.33976 0
M  V30 7138 C 662.847 0.264733 -4.2718 0
M  V30 7139 C 662.173 1.33267 -5.17826 0
M  V30 7140 C 663.473 -0.853289 -5.15283 0
M  V30 7141 H 665.167 -0.761326 -2.89559 0
M  V30 7142 H 662.713 -0.367561 -1.3923 0
M  V30 7143 H 664.666 1.4287 -3.96442 0
M  V30 7144 H 663.39 1.74285 -2.7621 0
M  V30 7145 H 662.049 -0.190938 -3.66102 0
M  V30 7146 H 661.697 2.11464 -4.5639 0
M  V30 7147 H 661.397 0.877476 -5.81011 0
M  V30 7148 H 662.921 1.80965 -5.83167 0
M  V30 7149 H 664.335 -0.458763 -5.71462 0
M  V30 7150 H 662.732 -1.23398 -5.87276 0
M  V30 7151 H 663.802 -1.70412 -4.53969 0
M  V30 7152 N 665.145 1.52092 -0.413018 0
M  V30 7153 C 666.394 2.01041 0.16287 0
M  V30 7154 C 666.707 1.30288 1.45892 0
M  V30 7155 O 667.913 1.70075 2.11629 0
M  V30 7156 C 666.369 3.58283 0.340806 0
M  V30 7157 C 665.977 4.37955 -0.943377 0
M  V30 7158 C 667.721 4.15452 0.871774 0
M  V30 7159 C 665.628 5.86847 -0.732417 0
M  V30 7160 H 664.558 0.751224 0.0646414 0
M  V30 7161 H 667.209 1.75404 -0.539059 0
M  V30 7162 H 665.591 3.80266 1.10516 0
M  V30 7163 H 666.765 4.2773 -1.71418 0
M  V30 7164 H 665.08 3.92122 -1.40105 0
M  V30 7165 H 667.677 5.24375 1.0457 0
M  V30 7166 H 668.02 3.73057 1.84755 0
M  V30 7167 H 668.553 3.97452 0.166377 0
M  V30 7168 H 665.292 6.33609 -1.67986 0
M  V30 7169 H 664.812 5.998 -0.000980058 0
M  V30 7170 H 666.491 6.45906 -0.376105 0
M  V30 7171 N 666.623 0.143563 1.56945 0
M  V30 7172 C 667.851 -0.515447 2.00377 0
M  V30 7173 C 668.266 -1.58643 1.02361 0
M  V30 7174 O 667.623 -1.82489 0.0201039 0
M  V30 7175 C 667.674 -1.11923 3.43737 0
M  V30 7176 O 667.395 -0.0910318 4.38005 0
M  V30 7177 C 668.896 -1.85918 4.02429 0
M  V30 7178 H 666.116 -0.134478 0.657386 0
M  V30 7179 H 668.66 0.237135 2.0312 0
M  V30 7180 H 666.815 -1.82245 3.41856 0
M  V30 7181 H 667.229 -0.532916 5.21786 0
M  V30 7182 H 668.703 -2.2346 5.04747 0
M  V30 7183 H 669.18 -2.7438 3.42947 0
M  V30 7184 H 669.786 -1.20303 4.07931 0
M  V30 7185 N 668.101 -1.57061 -0.130224 0
M  V30 7186 C 669.517 -1.52103 -0.483413 0
M  V30 7187 C 669.717 -0.854752 -1.82473 0
M  V30 7188 O 668.773 -0.432342 -2.48771 0
M  V30 7189 C 670.086 -2.96872 -0.47825 0
M  V30 7190 C 671.634 -3.07902 -0.562592 0
M  V30 7191 C 672.109 -4.54211 -0.587929 0
M  V30 7192 N 673.6 -4.58621 -0.649684 0
M  V30 7193 C 674.335 -5.69227 -0.690551 0
M  V30 7194 N 673.831 -6.89358 -0.689743 0
M  V30 7195 N 675.624 -5.57304 -0.732708 0
M  V30 7196 H 667.775 -1.98764 0.748779 0
M  V30 7197 H 670.038 -0.907248 0.274965 0
M  V30 7198 H 669.744 -3.48944 0.439444 0
M  V30 7199 H 669.618 -3.53716 -1.31013 0
M  V30 7200 H 672.005 -2.5584 -1.47071 0
M  V30 7201 H 672.086 -2.54073 0.296764 0
M  V30 7202 H 671.73 -5.06915 0.316096 0
M  V30 7203 H 671.66 -5.0584 -1.46401 0
M  V30 7204 H 674.151 -3.72146 -0.656927 0
M  V30 7205 H 674.464 -7.69408 -0.723239 0
M  V30 7206 H 672.809 -6.91884 -0.657347 0
M  V30 7207 H 676 -4.62363 -0.730625 0
M  V30 7208 H 676.173 -6.43515 -0.76109 0
M  V30 7209 N 669.579 0.400081 -1.52437 0
M  V30 7210 C 670.509 1.4947 -1.7939 0
M  V30 7211 C 671.49 1.57383 -0.645329 0
M  V30 7212 O 672.675 1.72511 -0.891826 0
M  V30 7213 C 669.805 2.87201 -1.95276 0
M  V30 7214 C 668.759 2.94134 -3.10917 0
M  V30 7215 C 668.085 4.34207 -3.1204 0
M  V30 7216 C 669.385 2.64791 -4.50203 0
M  V30 7217 H 671.079 1.27165 -2.71052 0
M  V30 7218 H 668.625 0.610312 -1.30427 0
M  V30 7219 H 670.578 3.63772 -2.12715 0
M  V30 7220 H 669.302 3.10819 -1.00294 0
M  V30 7221 H 667.961 2.20009 -2.93243 0
M  V30 7222 H 667.609 4.54848 -2.14761 0
M  V30 7223 H 667.309 4.39768 -3.89715 0
M  V30 7224 H 668.833 5.127 -3.31619 0
M  V30 7225 H 670.247 3.31083 -4.68035 0
M  V30 7226 H 668.644 2.81717 -5.29864 0
M  V30 7227 H 669.714 1.60184 -4.57678 0
M  V30 7228 N 671.057 1.43213 0.657864 0
M  V30 7229 C 672.473 1.26511 0.972992 0
M  V30 7230 C 672.673 0.181477 2.00681 0
M  V30 7231 O 671.729 -0.441649 2.48608 0
M  V30 7232 C 673.042 2.62784 1.46168 0
M  V30 7233 C 674.59 2.70278 1.57857 0
M  V30 7234 C 675.065 4.06958 2.10117 0
M  V30 7235 N 676.556 4.08999 2.17426 0
M  V30 7236 C 677.291 5.11585 2.58975 0
M  V30 7237 N 676.787 6.24548 2.99853 0
M  V30 7238 N 678.58 4.9894 2.58873 0
M  V30 7239 H 670.731 2.12384 -0.0263129 0
M  V30 7240 H 672.994 0.946638 0.0507992 0
M  V30 7241 H 672.7 3.43022 0.776474 0
M  V30 7242 H 672.574 2.87863 2.43751 0
M  V30 7243 H 674.961 1.90376 2.25479 0
M  V30 7244 H 675.042 2.4897 0.587179 0
M  V30 7245 H 674.686 4.87325 1.43098 0
M  V30 7246 H 674.616 4.25628 3.10078 0
M  V30 7247 H 677.107 3.27457 1.88627 0
M  V30 7248 H 677.42 6.98661 3.30292 0
M  V30 7249 H 675.765 6.28027 2.97669 0
M  V30 7250 H 678.956 4.09757 2.26311 0
M  V30 7251 H 679.129 5.79019 2.90932 0
M  V30 7252 N 672.536 -0.895792 1.29666 0
M  V30 7253 C 673.484 -2.02173 1.15017 0
M  V30 7254 C 674.478 -1.69276 0.0647651 0
M  V30 7255 O 675.684 -1.7859 0.224846 0
M  V30 7256 H 672.059 -0.662719 0.355397 0
M  V30 7257 H 674.03 -2.11666 2.10334 0
M  V30 7258 C 672.779 -3.37212 0.847555 0
M  V30 7259 H 672.102 -3.6303 1.67479 0
M  V30 7260 H 673.542 -4.16668 0.785106 0
M  V30 7261 C 672.001 -3.33891 -0.44929 0
M  V30 7262 O 672.531 -3.73673 -1.47415 0
M  V30 7263 N 670.737 -2.86991 -0.456547 0
M  V30 7264 H 670.284 -2.54813 0.377925 0
M  V30 7265 H 670.242 -2.85152 -1.32423 0
M  V30 7266 N 674.014 -1.12206 -1.10668 0
M  V30 7267 C 674.944 -0.810086 -2.18997 0
M  V30 7268 C 675.925 0.225065 -1.68604 0
M  V30 7269 O 677.11 0.086783 -1.94006 0
M  V30 7270 C 674.24 -0.261262 -3.46316 0
M  V30 7271 C 673.194 -1.2292 -4.09969 0
M  V30 7272 C 672.52 -0.540713 -5.31959 0
M  V30 7273 C 673.82 -2.58295 -4.53962 0
M  V30 7274 H 675.514 -1.7159 -2.45352 0
M  V30 7275 H 673.06 -0.82646 -1.17922 0
M  V30 7276 H 675.013 -0.0307522 -4.21389 0
M  V30 7277 H 673.737 0.679879 -3.19445 0
M  V30 7278 H 672.396 -1.44548 -3.369 0
M  V30 7279 H 672.044 0.405492 -5.01363 0
M  V30 7280 H 671.744 -1.18637 -5.75499 0
M  V30 7281 H 673.268 -0.319184 -6.09765 0
M  V30 7282 H 674.682 -2.40709 -5.20319 0
M  V30 7283 H 673.079 -3.18916 -5.08343 0
M  V30 7284 H 674.149 -3.16918 -3.67002 0
M  V30 7285 N 675.492 1.28418 -0.913599 0
M  V30 7286 C 676.903 1.77024 -0.593237 0
M  V30 7287 C 677.254 1.74779 0.891441 0
M  V30 7288 O 676.379 1.34237 1.69733 0
M  V30 7289 C 676.974 3.21456 -1.07011 0
M  V30 7290 C 675.533 3.67786 -0.800664 0
M  V30 7291 C 674.68 2.48185 -1.23691 0
M  V30 7292 H 677.631 1.14883 -1.09487 0
M  V30 7293 H 677.652 3.78269 -0.411481 0
M  V30 7294 H 677.164 3.23058 -2.1507 0
M  V30 7295 H 675.265 3.71644 0.266725 0
M  V30 7296 H 675.378 4.57934 -1.4083 0
M  V30 7297 H 673.742 2.46116 -0.655655 0
M  V30 7298 H 674.525 2.52506 -2.32585 0
M  V30 7299 N 676.97 0.677563 1.42291 0
M  V30 7300 C 678.216 0.209962 2.02313 0
M  V30 7301 C 678.571 -1.1714 1.52631 0
M  V30 7302 O 677.864 -1.7756 0.719938 0
M  V30 7303 C 678.058 0.187229 3.56909 0
M  V30 7304 C 677.887 1.56484 4.21595 0
M  V30 7305 C 676.657 2.16329 4.56651 0
M  V30 7306 C 678.855 2.50805 4.49 0
M  V30 7307 N 676.837 3.46842 5.06531 0
M  V30 7308 C 678.208 3.65976 5.00461 0
M  V30 7309 C 680.263 2.493 4.30992 0
M  V30 7310 C 678.966 4.79899 5.35807 0
M  V30 7311 C 680.992 3.62322 4.67415 0
M  V30 7312 C 680.354 4.76221 5.19031 0
M  V30 7313 H 676.453 0.121815 0.772454 0
M  V30 7314 H 679.037 0.891148 1.73109 0
M  V30 7315 H 677.208 -0.46338 3.85626 0
M  V30 7316 H 678.94 -0.293512 4.03634 0
M  V30 7317 H 675.695 1.6879 4.42501 0
M  V30 7318 H 676.119 4.13694 5.35898 0
M  V30 7319 H 680.761 1.62467 3.90339 0
M  V30 7320 H 678.479 5.67406 5.75392 0
M  V30 7321 H 682.065 3.62388 4.55155 0
M  V30 7322 H 680.945 5.62228 5.46689 0
M  V30 7323 N 678.448 -1.51871 0.421078 0
M  V30 7324 C 679.381 -2.23851 -0.443369 0
M  V30 7325 C 680.359 -1.25142 -1.03818 0
M  V30 7326 O 681.543 -1.5423 -1.08377 0
M  V30 7327 C 678.67 -2.97637 -1.61648 0
M  V30 7328 C 677.716 -4.10873 -1.14391 0
M  V30 7329 S 678.549 -5.35408 -0.0992403 0
M  V30 7330 C 679.705 -6.12726 -1.27739 0
M  V30 7331 H 679.938 -2.96826 0.167786 0
M  V30 7332 H 677.471 -1.53027 0.205461 0
M  V30 7333 H 679.429 -3.40751 -2.28909 0
M  V30 7334 H 678.09 -2.24282 -2.199 0
M  V30 7335 H 677.283 -4.61718 -2.02069 0
M  V30 7336 H 676.885 -3.69937 -0.549775 0
M  V30 7337 H 679.177 -6.40827 -2.19881 0
M  V30 7338 H 680.12 -7.03461 -0.809239 0
M  V30 7339 H 680.528 -5.43968 -1.5086 0
M  V30 7340 N 679.926 -0.151884 -1.56866 0
M  V30 7341 C 680.874 0.80299 -2.183 0
M  V30 7342 C 681.868 1.25174 -1.14139 0
M  V30 7343 O 683.074 1.21966 -1.3238 0
M  V30 7344 H 679.449 0.277169 -0.699057 0
M  V30 7345 H 681.42 0.260699 -2.97259 0
M  V30 7346 C 680.169 2.03009 -2.82281 0
M  V30 7347 H 679.492 1.69377 -3.62148 0
M  V30 7348 H 680.932 2.67753 -3.28762 0
M  V30 7349 C 679.391 2.84123 -1.81041 0
M  V30 7350 O 679.921 3.8063 -1.28388 0
M  V30 7351 N 678.127 2.48753 -1.50234 0
M  V30 7352 H 677.674 1.70337 -1.93244 0
M  V30 7353 H 677.632 3.03316 -0.827445 0
M  V30 7354 N 681.404 1.57128 0.121893 0
M  V30 7355 C 682.314 2.03425 1.16857 0
M  V30 7356 C 683.33 0.954108 1.45509 0
M  V30 7357 O 684.506 1.26541 1.56682 0
M  V30 7358 C 681.571 2.42685 2.47599 0
M  V30 7359 C 680.632 3.64767 2.2637 0
M  V30 7360 C 679.865 4.02145 3.50878 0
M  V30 7361 O 680.088 3.39897 4.58068 0
M  V30 7362 O 679.022 4.95262 3.42051 0
M  V30 7363 H 682.848 2.92825 0.80544 0
M  V30 7364 H 680.433 1.45654 0.332477 0
M  V30 7365 H 682.315 2.68684 3.24634 0
M  V30 7366 H 680.99 1.56432 2.83392 0
M  V30 7367 H 679.897 3.43922 1.47203 0
M  V30 7368 H 681.23 4.51716 1.95482 0
M  V30 7369 N 682.882 -0.391992 1.52647 0
M  V30 7370 C 683.792 -1.503 1.80131 0
M  V30 7371 C 684.808 -1.59825 0.687882 0
M  V30 7372 O 685.984 -1.76218 0.975149 0
M  V30 7373 C 683.049 -2.85863 1.96171 0
M  V30 7374 C 682.11 -2.86084 3.20085 0
M  V30 7375 C 681.343 -4.15181 3.35351 0
M  V30 7376 O 681.566 -5.09981 2.55491 0
M  V30 7377 O 680.5 -4.22603 4.28591 0
M  V30 7378 H 684.326 -1.30007 2.74466 0
M  V30 7379 H 681.911 -0.579539 1.37701 0
M  V30 7380 H 683.793 -3.66236 2.08445 0
M  V30 7381 H 682.468 -3.06189 1.05025 0
M  V30 7382 H 681.375 -2.04504 3.13256 0
M  V30 7383 H 682.708 -2.7071 4.11068 0
M  V30 7384 N 684.36 -1.4356 -0.65026 0
M  V30 7385 C 685.588 -1.48779 -1.43779 0
M  V30 7386 C 686.003 -0.106593 -1.88499 0
M  V30 7387 O 685.36 0.883766 -1.59674 0
M  V30 7388 C 685.411 -2.43618 -2.67081 0
M  V30 7389 O 685.132 -3.76367 -2.24231 0
M  V30 7390 C 686.633 -2.5811 -3.60409 0
M  V30 7391 H 683.853 -0.50521 -0.441593 0
M  V30 7392 H 686.397 -1.88332 -0.796941 0
M  V30 7393 H 684.552 -2.07253 -3.273 0
M  V30 7394 H 684.966 -4.27394 -3.0403 0
M  V30 7395 H 686.44 -3.28539 -4.43583 0
M  V30 7396 H 686.917 -1.627 -4.07953 0
M  V30 7397 H 687.523 -2.95298 -3.0607 0
M  V30 7398 N 685.838 0.888903 -1.30139 0
M  V30 7399 C 686.77 1.99972 -1.11999 0
M  V30 7400 C 687.783 1.62673 -0.0643619 0
M  V30 7401 O 688.972 1.75788 -0.309983 0
M  V30 7402 C 686.072 3.31904 -0.685059 0
M  V30 7403 C 685.245 3.97665 -1.82158 0
M  V30 7404 C 684.304 5.07894 -1.37585 0
M  V30 7405 O 683.33 5.2974 -2.08241 0
M  V30 7406 N 684.532 5.7995 -0.252697 0
M  V30 7407 H 687.297 2.16085 -2.07671 0
M  V30 7408 H 684.858 1.06175 -1.22223 0
M  V30 7409 H 686.85 4.03005 -0.369964 0
M  V30 7410 H 685.42 3.12084 0.179507 0
M  V30 7411 H 684.64 3.19787 -2.305 0
M  V30 7412 H 685.928 4.3834 -2.58332 0
M  V30 7413 H 685.326 5.647 0.336141 0
M  V30 7414 H 683.883 6.518 0.00296813 0
M  V30 7415 N 687.317 1.12792 1.10072 0
M  V30 7416 C 688.265 0.794523 2.18609 0
M  V30 7417 C 689.259 -0.220271 1.67962 0
M  V30 7418 O 690.465 -0.0780938 1.79831 0
M  V30 7419 H 686.84 0.239123 0.712969 0
M  V30 7420 H 688.811 1.71823 2.43966 0
M  V30 7421 C 687.56 0.269548 3.46654 0
M  V30 7422 H 686.883 1.04171 3.8599 0
M  V30 7423 H 688.323 0.0746242 4.23934 0
M  V30 7424 C 686.782 -1.00333 3.21613 0
M  V30 7425 O 687.312 -2.08042 3.4363 0
M  V30 7426 N 685.518 -0.931763 2.75257 0
M  V30 7427 H 685.065 -0.0551197 2.57541 0
M  V30 7428 H 685.023 -1.78405 2.58881 0
M  V30 7429 N 688.795 -1.27931 0.920396 0
M  V30 7430 C 689.728 -2.2537 0.358285 0
M  V30 7431 C 690.706 -1.53328 -0.541242 0
M  V30 7432 O 691.89 -1.82196 -0.483399 0
M  V30 7433 C 689.017 -3.35178 -0.487193 0
M  V30 7434 C 688.063 -4.25079 0.347881 0
M  V30 7435 S 688.896 -5.05792 1.75883 0
M  V30 7436 C 690.052 -6.19089 0.920832 0
M  V30 7437 H 690.285 -2.72701 1.18413 0
M  V30 7438 H 687.818 -1.36474 0.722088 0
M  V30 7439 H 689.776 -3.98895 -0.96916 0
M  V30 7440 H 688.437 -2.865 -1.28749 0
M  V30 7441 H 687.63 -5.03113 -0.298912 0
M  V30 7442 H 687.232 -3.66119 0.763748 0
M  V30 7443 H 689.524 -6.77326 0.15349 0
M  V30 7444 H 690.467 -6.8803 1.67394 0
M  V30 7445 H 690.875 -5.62573 0.466069 0
M  V30 7446 N 690.273 -0.685099 -1.4193 0
M  V30 7447 C 691.236 -0.0222632 -2.29189 0
M  V30 7448 C 692.236 0.7186 -1.4385 0
M  V30 7449 O 693.426 0.555058 -1.6512 0
M  V30 7450 C 690.558 0.979013 -3.2654 0
M  V30 7451 H 691.751 -0.790424 -2.89296 0
M  V30 7452 H 689.304 -0.448012 -1.49742 0
M  V30 7453 H 690.039 1.77531 -2.71392 0
M  V30 7454 H 689.824 0.451037 -3.89497 0
M  V30 7455 H 691.314 1.44091 -3.91954 0
M  V30 7456 N 691.751 1.51645 -0.429126 0
M  V30 7457 C 692.683 2.25279 0.422124 0
M  V30 7458 C 693.696 1.28986 0.993299 0
M  V30 7459 O 694.885 1.54797 0.888836 0
M  V30 7460 C 691.985 2.98666 1.60162 0
M  V30 7461 C 691.158 4.2199 1.15078 0
M  V30 7462 C 690.217 4.78028 2.19946 0
M  V30 7463 O 689.243 5.40084 1.79716 0
M  V30 7464 N 690.445 4.61342 3.5234 0
M  V30 7465 H 693.21 2.98971 -0.208931 0
M  V30 7466 H 690.771 1.59838 -0.257568 0
M  V30 7467 H 692.763 3.33044 2.29922 0
M  V30 7468 H 691.333 2.28036 2.13818 0
M  V30 7469 H 690.553 3.932 0.280552 0
M  V30 7470 H 691.841 5.02037 0.826831 0
M  V30 7471 H 691.239 4.11894 3.87763 0
M  V30 7472 H 689.796 5.00104 4.18019 0
M  V30 7473 N 693.229 0.160201 1.56784 0
M  V30 7474 C 694.506 -0.533355 1.88188 0
M  V30 7475 C 694.886 -1.82072 1.06831 0
M  V30 7476 O 694.234 -2.27946 0.158959 0
M  V30 7477 C 694.444 -0.786034 3.40033 0
M  V30 7478 C 695.792 -1.12097 4.09536 0
M  V30 7479 O 696.816 -0.874949 3.45287 0
M  V30 7480 O 695.675 -1.58457 5.23023 0
M  V30 7481 H 692.769 -0.273589 0.780434 0
M  V30 7482 H 695.315 0.197803 1.68543 0
M  V30 7483 H 694.087 0.124515 3.91102 0
M  V30 7484 H 693.71 -1.57091 3.65251 0
M  V30 7485 N 694.707 -1.5719 -0.113559 0
M  V30 7486 C 695.654 -2.00736 -1.13901 0
M  V30 7487 C 696.624 -0.88044 -1.40846 0
M  V30 7488 O 697.809 -1.14507 -1.5262 0
M  V30 7489 C 694.949 -2.42132 -2.45899 0
M  V30 7490 C 694.062 -3.68264 -2.25844 0
M  V30 7491 C 693.197 -3.98617 -3.5111 0
M  V30 7492 C 692.236 -5.17915 -3.26236 0
M  V30 7493 N 691.373 -5.44111 -4.4372 0
M  V30 7494 H 696.213 -2.88128 -0.760677 0
M  V30 7495 H 693.75 -1.42523 -0.364099 0
M  V30 7496 H 695.708 -2.6417 -3.22908 0
M  V30 7497 H 694.338 -1.57775 -2.81615 0
M  V30 7498 H 693.39 -3.53809 -1.39726 0
M  V30 7499 H 694.702 -4.55425 -2.03444 0
M  V30 7500 H 693.856 -4.21333 -4.36536 0
M  V30 7501 H 692.595 -3.09942 -3.76546 0
M  V30 7502 H 691.6 -4.95038 -2.39202 0
M  V30 7503 H 692.825 -6.08172 -3.02165 0
M  V30 7504 H 690.771 -4.58394 -4.69266 0
M  V30 7505 H 690.688 -6.25606 -4.24444 0
M  V30 7506 H 691.956 -5.71351 -5.30263 0
M  V30 7507 N 696.185 0.383891 -1.52853 0
M  V30 7508 C 697.431 1.13009 -1.68395 0
M  V30 7509 C 697.764 1.89488 -0.425195 0
M  V30 7510 O 697.039 1.8574 0.577136 0
M  V30 7511 C 697.322 2.10419 -2.92226 0
M  V30 7512 C 697.175 1.3767 -4.28214 0
M  V30 7513 C 698.494 3.10781 -3.11614 0
M  V30 7514 H 695.613 0.409463 -0.612788 0
M  V30 7515 H 698.255 0.412895 -1.85459 0
M  V30 7516 H 696.405 2.71579 -2.77808 0
M  V30 7517 H 698.077 0.794352 -4.54409 0
M  V30 7518 H 696.32 0.678533 -4.2846 0
M  V30 7519 H 696.991 2.08874 -5.10956 0
M  V30 7520 H 699.467 2.59715 -3.25096 0
M  V30 7521 H 698.343 3.76179 -3.99725 0
M  V30 7522 H 698.604 3.79933 -2.2606 0
M  V30 7523 N 697.663 1.43903 0.642637 0
M  V30 7524 C 698.626 1.49538 1.73698 0
M  V30 7525 C 699.626 0.378776 1.56275 0
M  V30 7526 O 700.816 0.64095 1.6198 0
M  V30 7527 C 697.948 1.35821 3.12675 0
M  V30 7528 H 699.141 2.47008 1.70079 0
M  V30 7529 H 696.694 1.30824 0.85526 0
M  V30 7530 H 697.429 0.393994 3.21898 0
M  V30 7531 H 697.214 2.16776 3.26727 0
M  V30 7532 H 698.704 1.4272 3.92455 0
M  V30 7533 N 699.141 -0.881989 1.30609 0
M  V30 7534 C 700.073 -1.99375 1.13058 0
M  V30 7535 C 701.086 -1.62636 0.0729879 0
M  V30 7536 O 702.275 -1.75621 0.319301 0
M  V30 7537 C 699.375 -3.31536 0.702651 0
M  V30 7538 C 698.548 -3.96693 1.84265 0
M  V30 7539 C 697.607 -5.07158 1.40277 0
M  V30 7540 O 696.633 -5.28628 2.11048 0
M  V30 7541 N 697.835 -5.79808 0.283449 0
M  V30 7542 H 700.6 -2.14981 2.08814 0
M  V30 7543 H 698.161 -1.05526 1.22784 0
M  V30 7544 H 700.153 -4.02804 0.391331 0
M  V30 7545 H 698.723 -3.12175 -0.162954 0
M  V30 7546 H 697.943 -3.1856 2.32192 0
M  V30 7547 H 699.231 -4.36964 2.60653 0
M  V30 7548 H 698.629 -5.64871 -0.306189 0
M  V30 7549 H 697.186 -6.51792 0.0315985 0
M  V30 7550 N 700.619 -1.13374 -1.09472 0
M  V30 7551 C 701.549 -0.833268 -2.18126 0
M  V30 7552 C 702.53 0.207169 -1.68834 0
M  V30 7553 O 703.715 0.0662012 -1.94087 0
M  V30 7554 C 700.845 -0.297979 -3.46019 0
M  V30 7555 C 699.799 -1.27261 -4.08642 0
M  V30 7556 C 699.125 -0.597104 -5.31356 0
M  V30 7557 C 700.425 -2.63095 -4.51197 0
M  V30 7558 H 702.119 -1.74182 -2.43518 0
M  V30 7559 H 699.665 -0.838921 -1.17039 0
M  V30 7560 H 701.618 -0.0754444 -4.21332 0
M  V30 7561 H 700.342 0.645959 -3.20148 0
M  V30 7562 H 699.001 -1.48113 -3.35348 0
M  V30 7563 H 698.649 0.352293 -5.01765 0
M  V30 7564 H 698.349 -1.24734 -5.74208 0
M  V30 7565 H 699.873 -0.38384 -6.09392 0
M  V30 7566 H 701.287 -2.46214 -5.17737 0
M  V30 7567 H 699.684 -3.2429 -5.04932 0
M  V30 7568 H 700.754 -3.20793 -3.6362 0
M  V30 7569 N 702.098 1.27442 -0.927168 0
M  V30 7570 C 703.03 2.25975 -0.383158 0
M  V30 7571 C 704.043 1.55382 0.485832 0
M  V30 7572 O 705.232 1.75986 0.298541 0
M  V30 7573 C 702.332 3.35629 0.469688 0
M  V30 7574 C 701.505 4.35747 -0.379886 0
M  V30 7575 C 700.564 5.24598 0.410227 0
M  V30 7576 O 699.59 5.68909 -0.181888 0
M  V30 7577 N 700.792 5.54737 1.71017 0
M  V30 7578 H 703.557 2.7329 -1.23015 0
M  V30 7579 H 701.118 1.41063 -0.794539 0
M  V30 7580 H 703.11 3.92015 1.00532 0
M  V30 7581 H 701.68 2.87919 1.21744 0
M  V30 7582 H 700.9 3.78634 -1.09682 0
M  V30 7583 H 702.188 4.99648 -0.960717 0
M  V30 7584 H 701.586 5.20594 2.21356 0
M  V30 7585 H 700.143 6.13824 2.19234 0
M  V30 7586 N 703.576 0.692616 1.41565 0
M  V30 7587 C 704.822 0.222664 2.01574 0
M  V30 7588 C 705.155 -1.1737 1.54719 0
M  V30 7589 O 704.43 -1.79161 0.757084 0
M  V30 7590 C 704.713 0.277064 3.59033 0
M  V30 7591 C 704.566 1.71016 4.16021 0
M  V30 7592 C 705.885 -0.36479 4.38586 0
M  V30 7593 H 703.004 0.0823839 0.732381 0
M  V30 7594 H 705.646 0.880778 1.68352 0
M  V30 7595 H 703.796 -0.283288 3.87466 0
M  V30 7596 H 705.468 2.32413 3.98475 0
M  V30 7597 H 703.711 2.24525 3.71175 0
M  V30 7598 H 704.382 1.69978 5.25178 0
M  V30 7599 H 706.858 0.112404 4.15948 0
M  V30 7600 H 705.734 -0.296169 5.481 0
M  V30 7601 H 705.995 -1.44506 4.17816 0
M  V30 7602 N 705.054 -1.51416 0.437162 0
M  V30 7603 C 705.964 -2.31493 -0.380537 0
M  V30 7604 C 706.98 -1.40399 -1.02782 0
M  V30 7605 O 708.156 -1.73471 -1.02323 0
M  V30 7606 C 705.221 -3.1413 -1.46709 0
M  V30 7607 C 704.282 -4.21003 -0.839953 0
M  V30 7608 C 703.515 -4.9969 -1.87473 0
M  V30 7609 O 703.738 -4.79008 -3.09689 0
M  V30 7610 O 702.672 -5.8379 -1.46536 0
M  V30 7611 H 706.498 -3.02469 0.273183 0
M  V30 7612 H 704.083 -1.48059 0.199706 0
M  V30 7613 H 705.965 -3.65505 -2.09724 0
M  V30 7614 H 704.64 -2.45919 -2.10489 0
M  V30 7615 H 703.547 -3.73706 -0.171752 0
M  V30 7616 H 704.88 -4.91587 -0.245638 0
M  V30 7617 N 706.532 -0.168513 -1.56696 0
M  V30 7618 C 707.465 0.801477 -2.13662 0
M  V30 7619 C 708.443 1.22786 -1.06594 0
M  V30 7620 O 709.627 1.32014 -1.34554 0
M  V30 7621 C 706.754 2.07896 -2.6739 0
M  V30 7622 C 705.8 1.79681 -3.86803 0
M  V30 7623 S 706.633 0.968556 -5.26668 0
M  V30 7624 C 707.789 2.25676 -5.83799 0
M  V30 7625 H 708.022 0.317121 -2.95604 0
M  V30 7626 H 705.555 0.0461132 -1.54331 0
M  V30 7627 H 707.513 2.81272 -2.98992 0
M  V30 7628 H 706.174 2.53445 -1.85539 0
M  V30 7629 H 705.367 2.74461 -4.22714 0
M  V30 7630 H 704.969 1.14402 -3.56073 0
M  V30 7631 H 707.261 3.2116 -5.96542 0
M  V30 7632 H 708.204 1.94238 -6.80939 0
M  V30 7633 H 708.612 2.37308 -5.12197 0
M  V30 7634 N 708.01 1.57248 0.105221 0
M  V30 7635 C 709.258 1.85204 0.808951 0
M  V30 7636 C 709.579 0.75574 1.7976 0
M  V30 7637 O 708.849 -0.218984 1.94672 0
M  V30 7638 H 707.429 0.683346 0.301739 0
M  V30 7639 H 710.091 1.94695 0.0892605 0
M  V30 7640 H 709.187 2.81595 1.34575 0
M  V30 7641 N 709.488 -0.375779 1.53054 0
M  V30 7642 C 710.451 -1.44254 1.7811 0
M  V30 7643 C 711.451 -1.47018 0.651328 0
M  V30 7644 O 712.641 -1.47957 0.919472 0
M  V30 7645 C 709.773 -2.8345 1.89391 0
M  V30 7646 H 710.966 -1.23316 2.73374 0
M  V30 7647 H 708.519 -0.608312 1.43977 0
M  V30 7648 H 709.254 -3.09716 0.961589 0
M  V30 7649 H 709.039 -2.82844 2.71555 0
M  V30 7650 H 710.529 -3.60722 2.10404 0
M  V30 7651 N 710.966 -1.44241 -0.634997 0
M  V30 7652 C 712.191 -1.50516 -1.42687 0
M  V30 7653 C 712.616 -0.129864 -1.87651 0
M  V30 7654 O 711.974 0.880164 -1.58502 0
M  V30 7655 C 712.022 -2.4714 -2.62591 0
M  V30 7656 O 711.126 -1.97025 -3.62291 0
M  V30 7657 H 710.467 -0.50841 -0.427101 0
M  V30 7658 H 712.997 -1.89337 -0.775408 0
M  V30 7659 H 713.007 -2.65048 -3.10183 0
M  V30 7660 H 711.682 -3.47039 -2.29209 0
M  V30 7661 H 710.259 -1.88866 -3.21534 0
M  V30 7662 N 712.444 0.87505 -1.31075 0
M  V30 7663 C 713.354 2.01441 -1.20244 0
M  V30 7664 C 714.37 1.73584 -0.120227 0
M  V30 7665 O 715.546 1.98559 -0.337063 0
M  V30 7666 C 712.611 3.34675 -0.905199 0
M  V30 7667 C 711.672 3.75889 -2.0738 0
M  V30 7668 C 710.905 5.02764 -1.79064 0
M  V30 7669 O 711.128 5.65795 -0.723318 0
M  V30 7670 O 710.062 5.40623 -2.64594 0
M  V30 7671 H 713.888 2.13509 -2.1598 0
M  V30 7672 H 711.473 1.00257 -1.10765 0
M  V30 7673 H 713.355 4.1458 -0.755057 0
M  V30 7674 H 712.03 3.23692 0.0221695 0
M  V30 7675 H 710.937 2.96645 -2.27931 0
M  V30 7676 H 712.27 3.91489 -2.98324 0
M  V30 7677 N 713.922 1.13953 1.08869 0
M  V30 7678 C 715.168 0.916103 1.81602 0
M  V30 7679 C 715.523 -0.551633 1.84322 0
M  V30 7680 O 714.816 -1.40322 1.30462 0
M  V30 7681 C 715.01 1.44495 3.26888 0
M  V30 7682 C 714.839 2.96257 3.38322 0
M  V30 7683 C 713.609 3.64658 3.49789 0
M  V30 7684 C 715.807 3.94156 3.30372 0
M  V30 7685 N 713.789 5.04379 3.49965 0
M  V30 7686 C 715.16 5.20101 3.37484 0
M  V30 7687 C 717.215 3.86342 3.14077 0
M  V30 7688 C 715.918 6.39145 3.29979 0
M  V30 7689 C 717.944 5.04927 3.07901 0
M  V30 7690 C 717.306 6.29738 3.1561 0
M  V30 7691 H 713.405 0.388701 0.678554 0
M  V30 7692 H 715.989 1.44879 1.3007 0
M  V30 7693 H 714.16 0.939102 3.76876 0
M  V30 7694 H 715.892 1.16193 3.87661 0
M  V30 7695 H 712.647 3.15196 3.5348 0
M  V30 7696 H 713.071 5.77305 3.53622 0
M  V30 7697 H 717.713 2.90726 3.06982 0
M  V30 7698 H 715.431 7.3501 3.35836 0
M  V30 7699 H 719.017 5.00626 2.9642 0
M  V30 7700 H 717.897 7.19958 3.10854 0
M  V30 7701 N 715.4 -1.26948 0.933913 0
M  V30 7702 C 716.363 -2.24889 0.442457 0
M  V30 7703 C 717.363 -1.54594 -0.442426 0
M  V30 7704 O 718.553 -1.72502 -0.242629 0
M  V30 7705 C 715.685 -3.3896 -0.363173 0
M  V30 7706 H 716.878 -2.69879 1.30787 0
M  V30 7707 H 714.431 -1.38978 0.715187 0
M  V30 7708 H 715.166 -2.99361 -1.24714 0
M  V30 7709 H 714.951 -3.9116 0.271366 0
M  V30 7710 H 716.441 -4.11739 -0.697186 0
M  V30 7711 N 716.879 -0.700114 -1.41195 0
M  V30 7712 C 717.809 -0.0521132 -2.33442 0
M  V30 7713 C 718.79 0.76228 -1.52063 0
M  V30 7714 O 719.975 0.714336 -1.80585 0
M  V30 7715 C 717.105 0.881693 -3.35922 0
M  V30 7716 C 716.059 0.174062 -4.27646 0
M  V30 7717 C 715.385 1.22254 -5.20536 0
M  V30 7718 C 716.685 -0.962396 -5.13357 0
M  V30 7719 H 718.379 -0.822574 -2.87879 0
M  V30 7720 H 715.925 -0.397011 -1.38419 0
M  V30 7721 H 717.878 1.34429 -3.99383 0
M  V30 7722 H 716.602 1.68387 -2.79845 0
M  V30 7723 H 715.261 -0.268551 -3.65615 0
M  V30 7724 H 714.909 2.01736 -4.60773 0
M  V30 7725 H 714.609 0.754038 -5.82742 0
M  V30 7726 H 716.133 1.68555 -5.86874 0
M  V30 7727 H 717.547 -0.579875 -5.7036 0
M  V30 7728 H 715.944 -1.35828 -5.84526 0
M  V30 7729 H 717.014 -1.80003 -4.50252 0
M  V30 7730 N 718.357 1.51182 -0.445186 0
M  V30 7731 C 719.304 2.27939 0.362291 0
M  V30 7732 C 720.274 1.31864 1.01 0
M  V30 7733 O 721.459 1.60776 1.02741 0
M  V30 7734 C 718.599 3.13016 1.45311 0
M  V30 7735 C 717.712 4.24093 0.822757 0
M  V30 7736 C 716.847 4.96467 1.88928 0
M  V30 7737 C 715.886 5.99454 1.23778 0
M  V30 7738 N 715.023 6.65206 2.24602 0
M  V30 7739 H 719.863 2.965 -0.29862 0
M  V30 7740 H 717.4 1.46237 -0.15911 0
M  V30 7741 H 719.358 3.60673 2.09692 0
M  V30 7742 H 717.988 2.46553 2.08354 0
M  V30 7743 H 717.04 3.80341 0.0670364 0
M  V30 7744 H 718.352 4.97853 0.307184 0
M  V30 7745 H 717.506 5.47712 2.60953 0
M  V30 7746 H 716.245 4.22355 2.4386 0
M  V30 7747 H 715.25 5.47494 0.503042 0
M  V30 7748 H 716.475 6.75527 0.695694 0
M  V30 7749 H 714.421 5.93901 2.78599 0
M  V30 7750 H 714.338 7.34756 1.77958 0
M  V30 7751 H 715.606 7.21078 2.96085 0
M  V30 7752 N 719.835 0.176821 1.56605 0
M  V30 7753 C 721.246 -0.338963 1.83597 0
M  V30 7754 C 721.597 -1.62677 1.09684 0
M  V30 7755 O 720.722 -2.13524 0.351661 0
M  V30 7756 C 721.317 -0.62177 3.33046 0
M  V30 7757 C 719.876 -1.08198 3.60514 0
M  V30 7758 C 719.023 -0.120774 2.77037 0
M  V30 7759 H 721.974 0.400978 1.53551 0
M  V30 7760 H 721.995 -1.47321 3.50823 0
M  V30 7761 H 721.507 0.315692 3.86814 0
M  V30 7762 H 719.608 -2.03435 3.12162 0
M  V30 7763 H 719.721 -0.987329 4.68816 0
M  V30 7764 H 718.085 -0.619192 2.47059 0
M  V30 7765 H 718.868 0.810806 3.33588 0
M  V30 7766 N 721.313 -1.57302 -0.09688 0
M  V30 7767 C 722.223 -2.05258 -1.13606 0
M  V30 7768 C 723.239 -0.977137 -1.43972 0
M  V30 7769 O 724.415 -1.29018 -1.54649 0
M  V30 7770 C 721.48 -2.46593 -2.43706 0
M  V30 7771 C 720.541 -3.68322 -2.20538 0
M  V30 7772 C 719.774 -4.07676 -3.44435 0
M  V30 7773 O 719.997 -3.47141 -4.52603 0
M  V30 7774 O 718.931 -5.00641 -3.34129 0
M  V30 7775 H 722.757 -2.94069 -0.758752 0
M  V30 7776 H 720.342 -1.46164 -0.309263 0
M  V30 7777 H 722.224 -2.73814 -3.20318 0
M  V30 7778 H 720.899 -1.6092 -2.80867 0
M  V30 7779 H 719.806 -3.4622 -1.41713 0
M  V30 7780 H 721.139 -4.54769 -1.88271 0
M  V30 7781 N 722.791 0.367657 -1.53252 0
M  V30 7782 C 723.721 1.45632 -1.8252 0
M  V30 7783 C 724.702 1.55979 -0.678568 0
M  V30 7784 O 725.887 1.70581 -0.928217 0
M  V30 7785 C 723.017 2.82994 -2.01325 0
M  V30 7786 C 721.971 2.87473 -3.17086 0
M  V30 7787 C 721.297 4.2749 -3.21179 0
M  V30 7788 C 722.597 2.55182 -4.55719 0
M  V30 7789 H 724.291 1.21387 -2.73689 0
M  V30 7790 H 721.837 0.58251 -1.31692 0
M  V30 7791 H 723.79 3.59179 -2.20383 0
M  V30 7792 H 722.514 3.08622 -1.06864 0
M  V30 7793 H 721.173 2.13739 -2.97844 0
M  V30 7794 H 720.821 4.5019 -2.24361 0
M  V30 7795 H 720.521 4.31403 -3.98955 0
M  V30 7796 H 722.045 5.0555 -3.42419 0
M  V30 7797 H 723.459 3.21081 -4.74953 0
M  V30 7798 H 721.856 2.70414 -5.3572 0
M  V30 7799 H 722.926 1.5044 -4.60973 0
M  V30 7800 N 724.269 1.44576 0.627338 0
M  V30 7801 C 725.232 1.51372 1.72102 0
M  V30 7802 C 726.232 0.395329 1.55865 0
M  V30 7803 O 727.422 0.658094 1.61291 0
M  V30 7804 C 724.554 1.39129 3.11217 0
M  V30 7805 H 725.747 2.48798 1.6745 0
M  V30 7806 H 723.3 1.31724 0.841336 0
M  V30 7807 H 724.035 0.428114 3.21462 0
M  V30 7808 H 723.82 2.20229 3.24409 0
M  V30 7809 H 725.31 1.46874 3.90919 0
M  V30 7810 N 725.747 -0.868086 1.31537 0
M  V30 7811 C 727.163 -1.15414 1.10235 0
M  V30 7812 C 727.363 -2.01106 -0.125947 0
M  V30 7813 O 726.419 -2.38994 -0.814734 0
M  V30 7814 C 727.732 -1.84445 2.37488 0
M  V30 7815 C 729.28 -1.97139 2.43116 0
M  V30 7816 C 729.755 -2.69585 3.70254 0
M  V30 7817 N 731.246 -2.77119 3.71159 0
M  V30 7818 C 731.981 -3.33791 4.6623 0
M  V30 7819 N 731.477 -3.9138 5.71659 0
M  V30 7820 N 733.27 -3.31767 4.53747 0
M  V30 7821 H 725.421 -0.297109 2.10312 0
M  V30 7822 H 727.684 -0.194227 0.92789 0
M  V30 7823 H 727.39 -1.2893 3.27215 0
M  V30 7824 H 727.264 -2.84709 2.47428 0
M  V30 7825 H 729.651 -2.51818 1.53856 0
M  V30 7826 H 729.732 -0.95912 2.37138 0
M  V30 7827 H 729.376 -2.15572 4.59881 0
M  V30 7828 H 729.306 -3.71223 3.73499 0
M  V30 7829 H 731.797 -2.3625 2.94948 0
M  V30 7830 H 732.11 -4.3274 6.40278 0
M  V30 7831 H 730.455 -3.8975 5.7543 0
M  V30 7832 H 733.646 -2.86016 3.70557 0
M  V30 7833 H 733.819 -3.75636 5.28017 0
M  V30 7834 N 727.225 -1.14528 -1.08264 0
M  V30 7835 C 728.157 -0.791325 -2.15106 0
M  V30 7836 C 729.17 0.192449 -1.61659 0
M  V30 7837 O 730.359 -0.0294704 -1.78476 0
M  V30 7838 C 727.459 -0.154183 -3.38549 0
M  V30 7839 C 726.632 -1.17305 -4.21377 0
M  V30 7840 C 725.691 -0.559401 -5.23218 0
M  V30 7841 O 724.717 -1.22277 -5.55911 0
M  V30 7842 N 725.919 0.663159 -5.767 0
M  V30 7843 H 728.684 -1.71076 -2.46075 0
M  V30 7844 H 726.245 -1.0399 -1.24087 0
M  V30 7845 H 728.237 0.268884 -4.03806 0
M  V30 7846 H 726.807 0.668418 -3.0537 0
M  V30 7847 H 726.027 -1.773 -3.52077 0
M  V30 7848 H 727.315 -1.86128 -4.73533 0
M  V30 7849 H 726.713 1.22066 -5.52373 0
M  V30 7850 H 725.27 1.02871 -6.43631 0
M  V30 7851 N 728.703 1.26451 -0.940633 0
M  V30 7852 C 729.613 2.30128 -0.455881 0
M  V30 7853 C 730.629 1.67536 0.469867 0
M  V30 7854 O 731.805 1.98344 0.349529 0
M  V30 7855 C 728.87 3.45634 0.271648 0
M  V30 7856 C 727.931 4.23709 -0.690594 0
M  V30 7857 C 727.164 5.337 0.00231047 0
M  V30 7858 O 727.387 5.57215 1.21935 0
M  V30 7859 O 726.321 5.98091 -0.676111 0
M  V30 7860 H 730.147 2.73655 -1.31707 0
M  V30 7861 H 727.732 1.3164 -0.706497 0
M  V30 7862 H 729.614 4.15853 0.681486 0
M  V30 7863 H 728.289 3.04138 1.10824 0
M  V30 7864 H 727.196 3.55974 -1.15037 0
M  V30 7865 H 728.529 4.68953 -1.49478 0
M  V30 7866 N 730.181 0.707592 1.40822 0
M  V30 7867 C 731.411 0.252706 2.05049 0
M  V30 7868 C 731.819 -1.10758 1.53393 0
M  V30 7869 O 731.162 -1.70567 0.682097 0
M  V30 7870 C 731.224 0.146001 3.59203 0
M  V30 7871 C 730.888 1.44027 4.33711 0
M  V30 7872 C 731.885 2.38058 4.62195 0
M  V30 7873 C 729.57 1.69698 4.72766 0
M  V30 7874 C 731.564 3.56013 5.28709 0
M  V30 7875 C 729.251 2.87936 5.39014 0
M  V30 7876 C 730.249 3.80915 5.66915 0
M  V30 7877 O 729.937 4.9708 6.31796 0
M  V30 7878 H 729.669 0.112784 0.666525 0
M  V30 7879 H 732.223 0.96417 1.81364 0
M  V30 7880 H 730.453 -0.621338 3.81676 0
M  V30 7881 H 732.142 -0.273275 4.04979 0
M  V30 7882 H 732.908 2.19487 4.32493 0
M  V30 7883 H 728.787 0.981835 4.50423 0
M  V30 7884 H 732.331 4.28604 5.50404 0
M  V30 7885 H 728.228 3.06419 5.68135 0
M  V30 7886 H 728.996 4.97053 6.50293 0
M  V30 7887 N 731.66 -1.50943 0.453197 0
M  V30 7888 C 732.608 -2.29728 -0.364419 0
M  V30 7889 C 733.602 -1.36246 -1.00664 0
M  V30 7890 O 734.808 -1.53518 -0.939794 0
M  V30 7891 H 731.183 -0.739536 -0.136347 0
M  V30 7892 H 733.154 -2.96672 0.320696 0
M  V30 7893 C 731.903 -3.1629 -1.44415 0
M  V30 7894 H 731.226 -3.88119 -0.959343 0
M  V30 7895 H 732.666 -3.74444 -1.98917 0
M  V30 7896 C 731.125 -2.32702 -2.43622 0
M  V30 7897 O 731.655 -1.99763 -3.48508 0
M  V30 7898 N 729.861 -1.95621 -2.14897 0
M  V30 7899 H 729.408 -2.22607 -1.29629 0
M  V30 7900 H 729.366 -1.39993 -2.81513 0
M  V30 7901 N 733.138 -0.185124 -1.56509 0
M  V30 7902 C 734.415 0.503348 -1.89013 0
M  V30 7903 C 734.795 1.80349 -1.09715 0
M  V30 7904 O 734.143 2.27665 -0.195203 0
M  V30 7905 C 734.353 0.731839 -3.41241 0
M  V30 7906 C 735.701 1.05568 -4.11267 0
M  V30 7907 O 736.725 0.819906 -3.46635 0
M  V30 7908 O 735.584 1.50116 -5.25478 0
M  V30 7909 H 732.678 0.261139 -0.784688 0
M  V30 7910 H 735.224 -0.224592 -1.68207 0
M  V30 7911 H 733.996 -0.18672 -3.90854 0
M  V30 7912 H 733.619 1.5126 -3.67704 0
M  V30 7913 N 734.616 1.57351 0.0885366 0
M  V30 7914 C 735.865 1.85604 0.789556 0
M  V30 7915 C 736.178 0.775352 1.79576 0
M  V30 7916 O 737.384 0.945206 2.54515 0
M  V30 7917 C 735.84 3.29175 1.45506 0
M  V30 7918 C 735.448 4.45331 0.488278 0
M  V30 7919 C 737.192 3.66646 2.13942 0
M  V30 7920 C 735.099 5.79937 1.15874 0
M  V30 7921 H 734.029 0.692346 0.298619 0
M  V30 7922 H 736.68 1.83451 0.0425821 0
M  V30 7923 H 735.062 3.25889 2.24972 0
M  V30 7924 H 736.236 4.59977 -0.275359 0
M  V30 7925 H 734.551 4.16301 -0.0907363 0
M  V30 7926 H 737.148 4.64498 2.6485 0
M  V30 7927 H 737.491 2.956 2.93132 0
M  V30 7928 H 738.024 3.71848 1.41328 0
M  V30 7929 H 734.763 6.54232 0.407508 0
M  V30 7930 H 734.283 5.69123 1.89364 0
M  V30 7931 H 735.962 6.24718 1.68336 0
M  V30 7932 N 736.094 -0.359525 1.53444 0
M  V30 7933 C 737.026 -1.46098 1.76602 0
M  V30 7934 C 738.039 -1.49395 0.646912 0
M  V30 7935 O 739.228 -1.52765 0.923307 0
M  V30 7936 C 736.328 -2.84836 1.83635 0
M  V30 7937 C 735.501 -3.05164 3.13358 0
M  V30 7938 C 734.56 -4.24051 3.11556 0
M  V30 7939 O 733.586 -4.18935 3.85334 0
M  V30 7940 N 734.788 -5.31775 2.328 0
M  V30 7941 H 737.553 -1.2661 2.71643 0
M  V30 7942 H 735.114 -0.549294 1.52297 0
M  V30 7943 H 737.106 -3.62516 1.799 0
M  V30 7944 H 735.676 -2.97542 0.958509 0
M  V30 7945 H 734.896 -2.15091 3.30348 0
M  V30 7946 H 736.184 -3.15619 3.99076 0
M  V30 7947 H 735.582 -5.38796 1.7238 0
M  V30 7948 H 734.139 -6.0801 2.34877 0
M  V30 7949 N 737.572 -1.44907 -0.619662 0
M  V30 7950 C 738.502 -1.55488 -1.742 0
M  V30 7951 C 739.483 -0.407143 -1.65156 0
M  V30 7952 O 740.668 -0.628743 -1.8374 0
M  V30 7953 C 737.798 -1.5097 -3.1277 0
M  V30 7954 C 736.752 -2.64337 -3.36615 0
M  V30 7955 C 736.078 -2.44872 -4.75333 0
M  V30 7956 C 737.378 -4.06423 -3.28051 0
M  V30 7957 H 739.072 -2.49432 -1.65602 0
M  V30 7958 H 736.618 -1.20047 -0.795281 0
M  V30 7959 H 738.571 -1.56971 -3.91073 0
M  V30 7960 H 737.295 -0.535486 -3.2218 0
M  V30 7961 H 735.954 -2.57744 -2.60698 0
M  V30 7962 H 735.602 -1.45617 -4.81461 0
M  V30 7963 H 735.302 -3.20888 -4.92244 0
M  V30 7964 H 736.826 -2.52709 -5.55851 0
M  V30 7965 H 738.24 -4.14324 -3.96243 0
M  V30 7966 H 736.637 -4.82733 -3.56495 0
M  V30 7967 H 737.707 -4.29183 -2.25676 0
M  V30 7968 N 739.05 0.861098 -1.31996 0
M  V30 7969 C 740.298 1.61162 -1.21947 0
M  V30 7970 C 740.619 1.93751 0.220351 0
M  V30 7971 O 739.889 1.59069 1.14341 0
M  V30 7972 H 738.469 0.597485 -0.448353 0
M  V30 7973 H 741.131 1.03039 -1.65436 0
M  V30 7974 H 740.227 2.55138 -1.79752 0
M  V30 7975 N 740.528 1.15101 1.07655 0
M  V30 7976 C 741.753 0.948177 1.84457 0
M  V30 7977 C 742.178 -0.498432 1.81376 0
M  V30 7978 O 741.536 -1.35509 1.20445 0
M  V30 7979 C 741.584 1.46318 3.29581 0
M  V30 7980 O 740.688 0.660342 4.07079 0
M  V30 7981 H 740.029 0.338428 0.571281 0
M  V30 7982 H 742.559 1.5301 1.35828 0
M  V30 7983 H 742.569 1.47468 3.80417 0
M  V30 7984 H 741.244 2.51635 3.31138 0
M  V30 7985 H 739.821 0.718216 3.65918 0
M  V30 7986 N 742.006 -1.2595 0.947325 0
M  V30 7987 C 743.231 -1.98083 0.614633 0
M  V30 7988 C 743.656 -1.70013 -0.804815 0
M  V30 7989 O 743.014 -0.95175 -1.54309 0
M  V30 7990 C 743.062 -3.4993 0.870706 0
M  V30 7991 O 742.166 -4.12364 -0.0541451 0
M  V30 7992 H 741.507 -0.621232 0.234451 0
M  V30 7993 H 744.037 -1.60259 1.27193 0
M  V30 7994 H 744.047 -4.00198 0.794051 0
M  V30 7995 H 742.722 -3.69691 1.90529 0
M  V30 7996 H 741.299 -3.72826 0.0740917 0
M  V30 7997 N 743.484 -0.715051 -1.40445 0
M  V30 7998 C 744.731 -0.254328 -2.00897 0
M  V30 7999 C 745.059 1.15228 -1.56693 0
M  V30 8000 O 744.314 1.7958 -0.777786 0
M  V30 8001 C 744.613 -0.281791 -3.56287 0
M  V30 8002 C 744.279 -1.63862 -4.20071 0
M  V30 8003 C 742.941 -2.01003 -4.37208 0
M  V30 8004 C 745.293 -2.53039 -4.55654 0
M  V30 8005 C 742.621 -3.26869 -4.8721 0
M  V30 8006 C 744.973 -3.78256 -5.07055 0
M  V30 8007 C 743.637 -4.15515 -5.22401 0
M  V30 8008 H 742.907 -0.0930652 -0.735133 0
M  V30 8009 H 745.554 -0.917977 -1.68064 0
M  V30 8010 H 743.859 0.465428 -3.89026 0
M  V30 8011 H 745.556 0.0925158 -4.00893 0
M  V30 8012 H 742.146 -1.33979 -4.07121 0
M  V30 8013 H 746.33 -2.2562 -4.42051 0
M  V30 8014 H 741.586 -3.55706 -4.97276 0
M  V30 8015 H 745.76 -4.47528 -5.33565 0
M  V30 8016 H 743.387 -5.13114 -5.60909 0
M  V30 8017 N 744.962 1.50701 -0.461195 0
M  V30 8018 C 745.892 2.31182 0.328184 0
M  V30 8019 C 746.873 1.37644 0.999408 0
M  V30 8020 O 748.058 1.66565 0.99848 0
M  V30 8021 C 745.188 3.17113 1.41621 0
M  V30 8022 C 744.142 4.19124 0.867148 0
M  V30 8023 C 743.468 4.93728 2.05272 0
M  V30 8024 C 744.768 5.22174 -0.114808 0
M  V30 8025 H 746.462 2.97423 -0.343501 0
M  V30 8026 H 744.008 1.43033 -0.166641 0
M  V30 8027 H 745.961 3.72208 1.97584 0
M  V30 8028 H 744.685 2.48739 2.11652 0
M  V30 8029 H 743.344 3.65116 0.329557 0
M  V30 8030 H 742.992 4.21835 2.73978 0
M  V30 8031 H 742.692 5.62724 1.69161 0
M  V30 8032 H 744.216 5.51654 2.61744 0
M  V30 8033 H 745.63 5.72198 0.355316 0
M  V30 8034 H 744.027 5.98833 -0.389689 0
M  V30 8035 H 745.097 4.7353 -1.04391 0
M  V30 8036 N 746.441 0.193421 1.56409 0
M  V30 8037 C 747.373 -0.759944 2.16235 0
M  V30 8038 C 748.386 -1.17797 1.12373 0
M  V30 8039 O 749.575 -1.11399 1.39472 0
M  V30 8040 C 746.675 -2.03735 2.70823 0
M  V30 8041 C 745.848 -1.77939 3.9957 0
M  V30 8042 C 744.907 -2.90111 4.39001 0
M  V30 8043 O 743.933 -2.59791 5.06456 0
M  V30 8044 N 745.135 -4.18426 4.02368 0
M  V30 8045 H 747.9 -0.248348 2.98669 0
M  V30 8046 H 745.461 0.0113966 1.61896 0
M  V30 8047 H 747.453 -2.77914 2.94187 0
M  V30 8048 H 746.023 -2.46022 1.92852 0
M  V30 8049 H 745.243 -0.875491 3.84355 0
M  V30 8050 H 746.531 -1.58099 4.83614 0
M  V30 8051 H 745.929 -4.45913 3.48106 0
M  V30 8052 H 744.486 -4.89237 4.30686 0
M  V30 8053 N 747.919 -1.57396 -0.0801906 0
M  V30 8054 C 749.144 -1.91437 -0.797909 0
M  V30 8055 C 749.569 -0.789075 -1.70749 0
M  V30 8056 O 748.927 0.25857 -1.79447 0
M  V30 8057 C 748.975 -3.24402 -1.57467 0
M  V30 8058 O 748.079 -3.13043 -2.68473 0
M  V30 8059 H 747.42 -0.627109 -0.218243 0
M  V30 8060 H 749.95 -2.04537 -0.050949 0
M  V30 8061 H 749.96 -3.58072 -1.95571 0
M  V30 8062 H 748.635 -4.05884 -0.907229 0
M  V30 8063 H 747.212 -2.90915 -2.33287 0
M  V30 8064 N 749.397 0.351382 -1.53633 0
M  V30 8065 C 750.643 1.09411 -1.70754 0
M  V30 8066 C 750.976 1.88544 -0.465293 0
M  V30 8067 O 750.251 1.86923 0.537608 0
M  V30 8068 C 750.534 2.04173 -2.96623 0
M  V30 8069 C 750.387 1.28556 -4.31038 0
M  V30 8070 C 751.706 3.04102 -3.18136 0
M  V30 8071 H 748.825 0.396373 -0.621335 0
M  V30 8072 H 751.467 0.373464 -1.86293 0
M  V30 8073 H 749.617 2.65625 -2.83506 0
M  V30 8074 H 751.289 0.697786 -4.55992 0
M  V30 8075 H 749.532 0.587498 -4.29803 0
M  V30 8076 H 750.203 1.97989 -5.15271 0
M  V30 8077 H 752.679 2.5276 -3.30532 0
M  V30 8078 H 751.555 3.67616 -4.07615 0
M  V30 8079 H 751.816 3.75053 -2.34068 0
M  V30 8080 N 750.875 1.45233 0.611969 0
M  V30 8081 C 751.805 1.5641 1.73373 0
M  V30 8082 C 752.786 0.415896 1.64937 0
M  V30 8083 O 753.971 0.638478 1.83404 0
M  V30 8084 C 751.101 1.52627 3.11965 0
M  V30 8085 C 750.055 2.66119 3.35208 0
M  V30 8086 C 749.381 2.4739 4.74028 0
M  V30 8087 C 750.681 4.08157 3.25891 0
M  V30 8088 H 752.375 2.50307 1.64277 0
M  V30 8089 H 749.921 1.20467 0.788904 0
M  V30 8090 H 751.874 1.59043 3.90235 0
M  V30 8091 H 750.598 0.552564 3.21892 0
M  V30 8092 H 749.257 2.59123 2.59327 0
M  V30 8093 H 748.905 1.48168 4.80682 0
M  V30 8094 H 748.605 3.23494 4.90536 0
M  V30 8095 H 750.129 2.55653 5.54503 0
M  V30 8096 H 751.543 4.1642 3.9404 0
M  V30 8097 H 749.94 4.84617 3.5393 0
M  V30 8098 H 751.01 4.30374 2.23397 0
M  V30 8099 N 752.353 -0.854086 1.3245 0
M  V30 8100 C 753.578 -1.64597 1.26185 0
M  V30 8101 C 754.003 -1.87357 -0.167074 0
M  V30 8102 O 753.361 -1.42675 -1.11864 0
M  V30 8103 C 753.409 -2.98213 2.02734 0
M  V30 8104 O 752.513 -3.88784 1.37554 0
M  V30 8105 H 751.854 -0.50179 0.434859 0
M  V30 8106 H 754.384 -1.06372 1.74775 0
M  V30 8107 H 754.394 -3.4803 2.1293 0
M  V30 8108 H 753.069 -2.80969 3.06642 0
M  V30 8109 H 751.646 -3.4725 1.3591 0
M  V30 8110 N 753.831 -1.1567 -1.07043 0
M  V30 8111 C 755.071 -0.944089 -1.81291 0
M  V30 8112 C 755.435 0.519305 -1.84844 0
M  V30 8113 O 756.636 0.850357 -2.54995 0
M  V30 8114 C 754.907 -1.54528 -3.22267 0
M  V30 8115 S 756.466 -1.47623 -4.13223 0
M  V30 8116 H 753.284 -0.339696 -0.624602 0
M  V30 8117 H 755.886 -1.47277 -1.28568 0
M  V30 8118 H 754.59 -2.60321 -3.17271 0
M  V30 8119 H 754.121 -1.0156 -3.80065 0
M  V30 8120 H 756.136 -0.471261 -4.93957 0
M  V30 8121 N 755.309 1.25446 -0.953992 0
M  V30 8122 C 756.555 1.9343 -0.60933 0
M  V30 8123 C 756.888 1.74542 0.851388 0
M  V30 8124 O 756.163 1.09014 1.61078 0
M  V30 8125 C 756.446 3.46844 -0.968041 0
M  V30 8126 C 756.299 3.74961 -2.48444 0
M  V30 8127 C 757.618 4.37334 -0.492641 0
M  V30 8128 H 754.737 0.702502 -0.222844 0
M  V30 8129 H 757.379 1.48076 -1.19053 0
M  V30 8130 H 755.529 3.85604 -0.473465 0
M  V30 8131 H 757.201 3.45841 -3.05273 0
M  V30 8132 H 755.444 3.20589 -2.92241 0
M  V30 8133 H 756.115 4.82246 -2.68594 0
M  V30 8134 H 758.591 4.05873 -0.916878 0
M  V30 8135 H 757.467 5.43439 -0.772331 0
M  V30 8136 H 757.728 4.37908 0.607403 0
M  V30 8137 N 756.787 0.722489 1.40064 0
M  V30 8138 C 758.203 0.396758 1.5459 0
M  V30 8139 C 758.403 -1.09375 1.69232 0
M  V30 8140 O 757.459 -1.87984 1.68578 0
M  V30 8141 C 758.772 1.16885 2.77053 0
M  V30 8142 C 760.32 1.15583 2.90877 0
M  V30 8143 C 760.795 1.91023 4.16262 0
M  V30 8144 N 762.286 1.88126 4.23276 0
M  V30 8145 C 763.021 2.43315 5.19216 0
M  V30 8146 N 762.517 3.07089 6.21022 0
M  V30 8147 N 764.31 2.33418 5.11344 0
M  V30 8148 H 756.461 1.68887 1.28806 0
M  V30 8149 H 758.724 0.714231 0.62336 0
M  V30 8150 H 758.43 2.22301 2.72534 0
M  V30 8151 H 758.304 0.765011 3.69361 0
M  V30 8152 H 760.691 0.10984 2.94896 0
M  V30 8153 H 760.772 1.59895 1.99668 0
M  V30 8154 H 760.416 2.95616 4.13006 0
M  V30 8155 H 760.346 1.44126 5.06493 0
M  V30 8156 H 762.837 1.41654 3.50346 0
M  V30 8157 H 763.15 3.467 6.90666 0
M  V30 8158 H 761.495 3.11175 6.21446 0
M  V30 8159 H 764.686 1.83248 4.30741 0
M  V30 8160 H 764.859 2.7673 5.85939 0
M  V30 8161 N 758.265 -1.50454 0.469181 0
M  V30 8162 C 759.49 -2.0722 -0.0864892 0
M  V30 8163 C 759.915 -1.33098 -1.32916 0
M  V30 8164 O 759.273 -0.378084 -1.77314 0
M  V30 8165 C 759.321 -3.58845 -0.355384 0
M  V30 8166 O 758.425 -3.86583 -1.43622 0
M  V30 8167 H 757.766 -0.663889 0.0121414 0
M  V30 8168 H 760.296 -1.93674 0.659674 0
M  V30 8169 H 760.306 -4.03617 -0.596447 0
M  V30 8170 H 758.981 -4.12211 0.552698 0
M  V30 8171 H 757.558 -3.5365 -1.18262 0
M  V30 8172 N 759.743 -0.201713 -1.56304 0
M  V30 8173 C 760.673 0.71155 -2.22394 0
M  V30 8174 C 761.654 1.21625 -1.18917 0
M  V30 8175 O 762.839 1.26388 -1.47444 0
M  V30 8176 C 759.969 1.92837 -2.88845 0
M  V30 8177 C 758.923 1.55831 -3.98623 0
M  V30 8178 C 758.249 2.85228 -4.52271 0
M  V30 8179 C 759.549 0.763249 -5.16693 0
M  V30 8180 H 761.243 0.160573 -2.98969 0
M  V30 8181 H 758.789 0.0757916 -1.438 0
M  V30 8182 H 760.742 2.57253 -3.33764 0
M  V30 8183 H 759.466 2.50398 -2.09686 0
M  V30 8184 H 758.125 0.9377 -3.54405 0
M  V30 8185 H 757.773 3.40893 -3.69866 0
M  V30 8186 H 757.473 2.6121 -5.26349 0
M  V30 8187 H 758.997 3.50622 -4.99897 0
M  V30 8188 H 760.411 1.31066 -5.58117 0
M  V30 8189 H 758.808 0.620935 -5.96879 0
M  V30 8190 H 759.878 -0.234322 -4.84334 0
M  V30 8191 N 761.222 1.57436 0.0718424 0
M  V30 8192 C 762.638 1.53792 0.426628 0
M  V30 8193 C 762.838 0.921887 1.79174 0
M  V30 8194 O 761.894 0.524374 2.46995 0
M  V30 8195 C 763.207 2.98443 0.367739 0
M  V30 8196 C 764.755 3.09778 0.447928 0
M  V30 8197 C 765.23 4.5608 0.418946 0
M  V30 8198 N 766.721 4.60716 0.479022 0
M  V30 8199 C 767.456 5.71397 0.47881 0
M  V30 8200 N 766.952 6.91443 0.433417 0
M  V30 8201 N 768.745 5.59639 0.525364 0
M  V30 8202 H 760.896 1.95848 -0.822033 0
M  V30 8203 H 763.159 0.896418 -0.308447 0
M  V30 8204 H 762.865 3.47072 -0.56865 0
M  V30 8205 H 762.739 3.58335 1.17795 0
M  V30 8206 H 765.126 2.61122 1.37474 0
M  V30 8207 H 765.207 2.52796 -0.390857 0
M  V30 8208 H 764.851 5.05393 -0.504016 0
M  V30 8209 H 764.781 5.10925 1.27526 0
M  V30 8210 H 767.272 3.74328 0.518355 0
M  V30 8211 H 767.585 7.71562 0.43718 0
M  V30 8212 H 765.93 6.93847 0.400106 0
M  V30 8213 H 769.121 4.64756 0.558519 0
M  V30 8214 H 769.294 6.45896 0.52173 0
M  V30 8215 N 762.7 -0.34323 1.53817 0
M  V30 8216 C 763.663 -1.40444 1.8113 0
M  V30 8217 C 764.663 -1.45604 0.682366 0
M  V30 8218 O 765.853 -1.45974 0.950649 0
M  V30 8219 C 762.985 -2.79369 1.95361 0
M  V30 8220 H 764.178 -1.17489 2.75928 0
M  V30 8221 H 761.731 -0.577636 1.45234 0
M  V30 8222 H 762.466 -3.07607 1.02707 0
M  V30 8223 H 762.251 -2.7702 2.77493 0
M  V30 8224 H 763.741 -3.56178 2.18008 0
M  V30 8225 N 764.178 -1.45556 -0.604258 0
M  V30 8226 C 765.594 -1.30035 -0.925368 0
M  V30 8227 C 765.794 -0.255833 -1.99869 0
M  V30 8228 O 764.85 0.349076 -2.50075 0
M  V30 8229 C 766.163 -2.68028 -1.36314 0
M  V30 8230 C 767.711 -2.75951 -1.47717 0
M  V30 8231 C 768.186 -4.14476 -1.94868 0
M  V30 8232 N 769.677 -4.16787 -2.02097 0
M  V30 8233 C 770.412 -5.20845 -2.39809 0
M  V30 8234 N 769.908 -6.35246 -2.76467 0
M  V30 8235 N 771.701 -5.08204 -2.40177 0
M  V30 8236 H 763.852 -2.1214 0.10512 0
M  V30 8237 H 766.115 -0.947871 -0.0156303 0
M  V30 8238 H 765.821 -3.45667 -0.648628 0
M  V30 8239 H 765.695 -2.96711 -2.329 0
M  V30 8240 H 768.082 -1.98613 -2.18258 0
M  V30 8241 H 768.163 -2.50977 -0.494371 0
M  V30 8242 H 767.807 -4.923 -1.24912 0
M  V30 8243 H 767.737 -4.36843 -2.94068 0
M  V30 8244 H 770.228 -3.34233 -1.76343 0
M  V30 8245 H 770.541 -7.10438 -3.04134 0
M  V30 8246 H 768.886 -6.38642 -2.74155 0
M  V30 8247 H 772.077 -4.17874 -2.10947 0
M  V30 8248 H 772.25 -5.89417 -2.69242 0
M  V30 8249 N 765.656 0.84705 -1.32902 0
M  V30 8250 C 766.905 1.59667 -1.23245 0
M  V30 8251 C 767.218 1.94551 0.202349 0
M  V30 8252 O 768.424 2.68218 0.420847 0
M  V30 8253 C 766.88 2.8795 -2.15901 0
M  V30 8254 C 766.488 2.60461 -3.64505 0
M  V30 8255 C 768.232 3.65968 -2.15098 0
M  V30 8256 C 766.139 3.84791 -4.49099 0
M  V30 8257 H 765.069 0.599167 -0.457728 0
M  V30 8258 H 767.72 0.934662 -1.57912 0
M  V30 8259 H 766.102 3.55648 -1.74157 0
M  V30 8260 H 767.276 2.01026 -4.14639 0
M  V30 8261 H 765.591 1.9576 -3.67515 0
M  V30 8262 H 768.188 4.58241 -2.75534 0
M  V30 8263 H 768.531 4.00275 -1.14392 0
M  V30 8264 H 769.064 3.05184 -2.55162 0
M  V30 8265 H 765.803 3.55621 -5.50649 0
M  V30 8266 H 765.323 4.43594 -4.03713 0
M  V30 8267 H 767.002 4.52454 -4.62487 0
M  V30 8268 N 767.134 1.16236 1.06428 0
M  V30 8269 C 768.38 0.944431 1.79467 0
M  V30 8270 C 768.713 -0.526558 1.86925 0
M  V30 8271 O 767.988 -1.39061 1.35986 0
M  V30 8272 C 768.271 1.57092 3.24028 0
M  V30 8273 C 768.124 3.11315 3.24658 0
M  V30 8274 C 769.443 1.26447 4.21544 0
M  V30 8275 H 766.562 0.344521 0.651517 0
M  V30 8276 H 769.204 1.43545 1.24478 0
M  V30 8277 H 767.354 1.15337 3.70985 0
M  V30 8278 H 769.026 3.62042 2.85873 0
M  V30 8279 H 767.269 3.44716 2.6335 0
M  V30 8280 H 767.94 3.50269 4.26633 0
M  V30 8281 H 770.416 1.62581 3.83023 0
M  V30 8282 H 769.292 1.72885 5.20963 0
M  V30 8283 H 769.553 0.183068 4.41721 0
M  V30 8284 N 768.612 -1.24939 0.960631 0
M  V30 8285 C 769.544 -2.24879 0.442937 0
M  V30 8286 C 770.557 -1.56615 -0.444464 0
M  V30 8287 O 771.746 -1.76715 -0.251776 0
M  V30 8288 C 768.846 -3.36757 -0.380537 0
M  V30 8289 C 768.019 -4.34587 0.495283 0
M  V30 8290 C 767.078 -5.25502 -0.270995 0
M  V30 8291 O 766.104 -5.68227 0.332661 0
M  V30 8292 N 767.306 -5.59077 -1.56249 0
M  V30 8293 H 770.071 -2.69932 1.30218 0
M  V30 8294 H 767.632 -1.38907 0.83166 0
M  V30 8295 H 769.624 -3.94542 -0.90103 0
M  V30 8296 H 768.194 -2.91045 -1.14067 0
M  V30 8297 H 767.414 -3.75593 1.19682 0
M  V30 8298 H 768.702 -4.96925 1.09285 0
M  V30 8299 H 768.1 -5.2628 -2.07476 0
M  V30 8300 H 766.657 -6.19421 -2.02882 0
M  V30 8301 N 770.09 -0.729906 -1.39679 0
M  V30 8302 C 771.315 -0.284345 -2.05442 0
M  V30 8303 C 771.74 1.07056 -1.54663 0
M  V30 8304 O 771.098 1.67732 -0.688157 0
M  V30 8305 C 771.146 -0.290089 -3.59431 0
M  V30 8306 O 770.25 0.723978 -4.05995 0
M  V30 8307 H 769.591 -0.130311 -0.651088 0
M  V30 8308 H 772.121 -0.994403 -1.78809 0
M  V30 8309 H 772.131 -0.132712 -4.07784 0
M  V30 8310 H 770.806 -1.27877 -3.95753 0
M  V30 8311 H 769.383 0.533154 -3.69069 0
M  V30 8312 N 771.568 1.50203 -0.477153 0
M  V30 8313 C 772.815 2.02358 0.0757385 0
M  V30 8314 C 773.143 1.3587 1.39174 0
M  V30 8315 O 772.398 0.475415 1.89838 0
M  V30 8316 C 772.697 3.56127 0.301325 0
M  V30 8317 C 772.363 4.41126 -0.933725 0
M  V30 8318 C 771.025 4.64075 -1.27233 0
M  V30 8319 C 773.377 4.90737 -1.75576 0
M  V30 8320 C 770.705 5.33878 -2.43292 0
M  V30 8321 C 773.057 5.61816 -2.90768 0
M  V30 8322 C 771.721 5.83016 -3.25036 0
M  V30 8323 H 770.991 0.740482 0.0277147 0
M  V30 8324 H 773.638 1.80754 -0.632467 0
M  V30 8325 H 771.943 3.76279 1.09183 0
M  V30 8326 H 773.64 3.94053 0.743184 0
M  V30 8327 H 770.23 4.23489 -0.659935 0
M  V30 8328 H 774.414 4.72856 -1.50734 0
M  V30 8329 H 769.67 5.48499 -2.70109 0
M  V30 8330 H 773.844 5.99237 -3.54807 0
M  V30 8331 H 771.471 6.36881 -4.15074 0
M  V30 8332 N 773.046 0.209999 1.56195 0
M  V30 8333 C 773.976 -0.699746 2.22769 0
M  V30 8334 C 774.957 -1.20993 1.1956 0
M  V30 8335 O 776.142 -1.25605 1.48112 0
M  V30 8336 C 773.272 -1.91302 2.89863 0
M  V30 8337 C 772.226 -1.53715 3.99444 0
M  V30 8338 C 771.552 -2.82826 4.53777 0
M  V30 8339 C 772.852 -0.735836 5.17091 0
M  V30 8340 H 774.546 -0.144716 2.9905 0
M  V30 8341 H 772.092 -0.0681645 1.43839 0
M  V30 8342 H 774.045 -2.5548 3.35124 0
M  V30 8343 H 772.769 -2.49283 2.11011 0
M  V30 8344 H 771.428 -0.918892 3.54897 0
M  V30 8345 H 771.076 -3.38927 3.71669 0
M  V30 8346 H 770.776 -2.58415 5.27727 0
M  V30 8347 H 772.3 -3.47966 5.01749 0
M  V30 8348 H 773.714 -1.28105 5.58804 0
M  V30 8349 H 772.111 -0.589272 5.972 0
M  V30 8350 H 773.181 0.260004 4.84202 0
M  V30 8351 N 774.524 -1.57472 -0.0634922 0
M  V30 8352 C 775.456 -2.00999 -1.10145 0
M  V30 8353 C 776.469 -0.917219 -1.34503 0
M  V30 8354 O 777.658 -1.19501 -1.32596 0
M  V30 8355 C 774.758 -2.34089 -2.45063 0
M  V30 8356 C 773.931 -3.65317 -2.40546 0
M  V30 8357 C 772.99 -3.85982 -3.57637 0
M  V30 8358 O 772.016 -4.5747 -3.38689 0
M  V30 8359 N 773.218 -3.28971 -4.78287 0
M  V30 8360 H 775.983 -2.90656 -0.730714 0
M  V30 8361 H 773.544 -1.59926 -0.252017 0
M  V30 8362 H 775.536 -2.4508 -3.22053 0
M  V30 8363 H 774.106 -1.50279 -2.74107 0
M  V30 8364 H 773.326 -3.65003 -1.48885 0
M  V30 8365 H 774.614 -4.51468 -2.34636 0
M  V30 8366 H 774.012 -2.70962 -4.96584 0
M  V30 8367 H 772.569 -3.45398 -5.5276 0
M  V30 8368 N 776.003 0.335068 -1.53997 0
M  V30 8369 C 777.414 0.910191 -1.6301 0
M  V30 8370 C 777.765 1.89271 -0.516809 0
M  V30 8371 O 776.89 2.13516 0.352123 0
M  V30 8372 C 777.485 1.65761 -2.9548 0
M  V30 8373 C 776.044 2.18163 -3.06728 0
M  V30 8374 C 775.191 1.00338 -2.5851 0
M  V30 8375 H 778.142 0.112965 -1.58297 0
M  V30 8376 H 778.163 2.52107 -2.84995 0
M  V30 8377 H 777.675 0.94227 -3.76488 0
M  V30 8378 H 775.776 2.92847 -2.30372 0
M  V30 8379 H 775.889 2.43952 -4.1234 0
M  V30 8380 H 774.253 1.37925 -2.14124 0
M  V30 8381 H 775.036 0.30254 -3.41964 0
M  V30 8382 N 777.481 1.45874 0.596531 0
M  V30 8383 C 778.431 1.5181 1.70111 0
M  V30 8384 C 779.415 0.380293 1.56341 0
M  V30 8385 O 780.607 0.627849 1.6549 0
M  V30 8386 C 777.736 1.49822 3.08883 0
M  V30 8387 C 776.822 2.68845 3.27998 0
M  V30 8388 N 777.213 3.93873 3.17329 0
M  V30 8389 C 775.511 2.64777 3.589 0
M  V30 8390 C 776.212 4.73371 3.38076 0
M  V30 8391 N 775.188 4.0501 3.62585 0
M  V30 8392 H 778.99 2.46289 1.60372 0
M  V30 8393 H 776.504 1.41321 0.800138 0
M  V30 8394 H 778.501 1.5216 3.8814 0
M  V30 8395 H 777.161 0.564086 3.19763 0
M  V30 8396 H 778.172 4.25329 2.95492 0
M  V30 8397 H 774.849 1.80323 3.7655 0
M  V30 8398 H 776.239 5.82357 3.35127 0
M  V30 8399 N 778.959 -0.83999 1.33349 0
M  V30 8400 C 780.37 -1.41139 1.22216 0
M  V30 8401 C 780.721 -1.95551 -0.159398 0
M  V30 8402 O 779.846 -1.88721 -1.05893 0
M  V30 8403 C 780.441 -2.56564 2.21269 0
M  V30 8404 C 779 -3.09661 2.13979 0
M  V30 8405 C 778.147 -1.82457 2.08818 0
M  V30 8406 H 781.098 -0.645853 1.44964 0
M  V30 8407 H 781.119 -3.34163 1.81976 0
M  V30 8408 H 780.631 -2.16932 3.21811 0
M  V30 8409 H 778.732 -3.53841 1.16736 0
M  V30 8410 H 778.845 -3.6991 3.04472 0
M  V30 8411 H 777.209 -2.0266 1.54276 0
M  V30 8412 H 777.992 -1.45022 3.11165 0
M  V30 8413 N 780.437 -1.16799 -1.0581 0
M  V30 8414 C 781.369 -0.836774 -2.13379 0
M  V30 8415 C 782.382 0.158116 -1.6203 0
M  V30 8416 O 783.571 -0.0673211 -1.78373 0
M  V30 8417 C 780.671 -0.225959 -3.38146 0
M  V30 8418 C 779.844 -1.26217 -4.18794 0
M  V30 8419 C 778.903 -0.670257 -5.21914 0
M  V30 8420 O 777.929 -1.34042 -5.53192 0
M  V30 8421 N 779.131 0.540683 -5.77977 0
M  V30 8422 H 781.896 -1.76257 -2.42391 0
M  V30 8423 H 779.457 -1.06599 -1.21853 0
M  V30 8424 H 781.449 0.18317 -4.04285 0
M  V30 8425 H 780.019 0.603494 -3.06719 0
M  V30 8426 H 779.239 -1.84729 -3.48237 0
M  V30 8427 H 780.527 -1.9613 -4.69479 0
M  V30 8428 H 779.925 1.10322 -5.54838 0
M  V30 8429 H 778.482 0.891958 -6.45668 0
M  V30 8430 N 781.915 1.24427 -0.967243 0
M  V30 8431 C 782.865 2.23143 -0.468106 0
M  V30 8432 C 783.849 1.5449 0.449633 0
M  V30 8433 O 785.041 1.74761 0.28063 0
M  V30 8434 C 782.17 3.42454 0.240867 0
M  V30 8435 C 781.256 4.18355 -0.695674 0
M  V30 8436 N 781.647 4.71428 -1.83273 0
M  V30 8437 C 779.945 4.43116 -0.506365 0
M  V30 8438 C 780.646 5.29041 -2.41849 0
M  V30 8439 N 779.622 5.16213 -1.70369 0
M  V30 8440 H 783.424 2.61795 -1.3357 0
M  V30 8441 H 780.938 1.39809 -0.826277 0
M  V30 8442 H 782.935 4.12329 0.615668 0
M  V30 8443 H 781.595 3.05323 1.10491 0
M  V30 8444 H 782.606 4.68177 -2.21428 0
M  V30 8445 H 779.283 4.16319 0.313747 0
M  V30 8446 H 780.673 5.80811 -3.37799 0
M  V30 8447 N 783.393 0.737304 1.3929 0
M  V30 8448 C 784.809 0.413132 1.5416 0
M  V30 8449 C 785.009 -1.07574 1.70382 0
M  V30 8450 O 784.065 -1.86185 1.70562 0
M  V30 8451 C 785.378 1.19817 2.75798 0
M  V30 8452 C 786.926 1.18662 2.89635 0
M  V30 8453 C 787.401 1.95427 4.14213 0
M  V30 8454 N 788.892 1.92605 4.21257 0
M  V30 8455 C 789.627 2.48808 5.16606 0
M  V30 8456 N 789.123 3.13659 6.1773 0
M  V30 8457 N 790.916 2.38829 5.08839 0
M  V30 8458 H 783.067 1.70243 1.27008 0
M  V30 8459 H 785.33 0.720802 0.61575 0
M  V30 8460 H 785.036 2.25179 2.70161 0
M  V30 8461 H 784.91 0.804144 3.68529 0
M  V30 8462 H 787.297 0.141112 2.94762 0
M  V30 8463 H 787.378 1.62003 1.97961 0
M  V30 8464 H 787.022 2.9998 4.09847 0
M  V30 8465 H 786.952 1.4949 5.04936 0
M  V30 8466 H 789.443 1.45362 3.48824 0
M  V30 8467 H 789.756 3.54006 6.8695 0
M  V30 8468 H 788.101 3.17749 6.1811 0
M  V30 8469 H 791.292 1.87806 4.28773 0
M  V30 8470 H 791.465 2.82929 5.82971 0
M  V30 8471 N 784.871 -1.49948 0.485112 0
M  V30 8472 C 786.117 -2.0332 -0.0571625 0
M  V30 8473 C 786.472 -1.35951 -1.36144 0
M  V30 8474 O 785.765 -0.480871 -1.85467 0
M  V30 8475 C 785.959 -3.56282 -0.282434 0
M  V30 8476 C 785.788 -4.38476 0.998455 0
M  V30 8477 C 784.558 -4.81076 1.54576 0
M  V30 8478 C 786.756 -4.78013 1.89758 0
M  V30 8479 N 784.738 -5.47641 2.77421 0
M  V30 8480 C 786.109 -5.44133 2.97186 0
M  V30 8481 C 788.164 -4.59963 1.90627 0
M  V30 8482 C 786.867 -5.94113 4.0549 0
M  V30 8483 C 788.893 -5.10893 2.97897 0
M  V30 8484 C 788.255 -5.77 4.04043 0
M  V30 8485 H 784.354 -0.781758 0.0194642 0
M  V30 8486 H 786.938 -1.833 0.65644 0
M  V30 8487 H 785.109 -3.76219 -0.965083 0
M  V30 8488 H 786.841 -3.96299 -0.820298 0
M  V30 8489 H 783.596 -4.60814 1.09304 0
M  V30 8490 H 784.02 -5.85521 3.39844 0
M  V30 8491 H 788.662 -4.08274 1.09875 0
M  V30 8492 H 786.38 -6.44832 4.8705 0
M  V30 8493 H 789.966 -4.98748 2.9957 0
M  V30 8494 H 788.846 -6.15698 4.85681 0
M  V30 8495 N 786.349 -0.21828 -1.56081 0
M  V30 8496 C 787.296 0.693189 -2.20144 0
M  V30 8497 C 788.266 1.19274 -1.15598 0
M  V30 8498 O 789.451 1.25243 -1.4394 0
M  V30 8499 C 786.591 1.89715 -2.88275 0
M  V30 8500 C 785.704 1.4368 -4.07407 0
M  V30 8501 C 784.839 2.59807 -4.63329 0
M  V30 8502 C 783.878 2.10492 -5.74769 0
M  V30 8503 N 783.015 3.1988 -6.24997 0
M  V30 8504 H 787.855 0.14016 -2.9767 0
M  V30 8505 H 785.392 0.0574292 -1.46988 0
M  V30 8506 H 787.35 2.60398 -3.25958 0
M  V30 8507 H 785.98 2.42311 -2.13273 0
M  V30 8508 H 785.032 0.625007 -3.7523 0
M  V30 8509 H 786.344 1.03517 -4.8794 0
M  V30 8510 H 785.498 3.38577 -5.03438 0
M  V30 8511 H 784.237 3.03256 -3.81951 0
M  V30 8512 H 783.242 1.30182 -5.34165 0
M  V30 8513 H 784.467 1.68045 -6.5798 0
M  V30 8514 H 782.413 3.62817 -5.46534 0
M  V30 8515 H 782.33 2.83958 -7.00645 0
M  V30 8516 H 783.598 3.98796 -6.69763 0
M  V30 8517 N 787.827 1.57504 0.0551401 0
M  V30 8518 C 789.073 1.88334 0.752216 0
M  V30 8519 C 789.406 0.812742 1.76375 0
M  V30 8520 O 788.681 -0.175198 1.93709 0
M  V30 8521 C 788.964 3.29824 1.44528 0
M  V30 8522 C 788.817 4.47553 0.449026 0
M  V30 8523 C 790.136 3.69808 2.38601 0
M  V30 8524 H 787.255 0.684973 0.271995 0
M  V30 8525 H 789.897 1.89994 0.0151895 0
M  V30 8526 H 788.047 3.28539 2.07351 0
M  V30 8527 H 789.719 4.60967 -0.175277 0
M  V30 8528 H 787.962 4.33168 -0.234162 0
M  V30 8529 H 788.633 5.43376 0.971917 0
M  V30 8530 H 791.109 3.72293 1.85842 0
M  V30 8531 H 789.985 4.69665 2.84088 0
M  V30 8532 H 790.246 3.00641 3.24141 0
M  V30 8533 N 789.305 -0.326896 1.54172 0
M  V30 8534 C 790.53 -1.08924 1.76494 0
M  V30 8535 C 790.955 -1.81039 0.510523 0
M  V30 8536 O 790.313 -1.73141 -0.537756 0
M  V30 8537 C 790.361 -2.06558 2.95578 0
M  V30 8538 O 789.465 -3.14394 2.6689 0
M  V30 8539 H 788.806 -0.314216 0.584948 0
M  V30 8540 H 791.336 -0.372207 2.01186 0
M  V30 8541 H 791.346 -2.49487 3.22832 0
M  V30 8542 H 790.021 -1.53469 3.86549 0
M  V30 8543 H 788.598 -2.76164 2.50576 0
M  V30 8544 N 790.784 -1.46188 -0.588786 0
M  V30 8545 C 792.195 -1.45421 -1.17088 0
M  V30 8546 C 792.546 -0.191801 -1.9526 0
M  V30 8547 O 791.671 0.705497 -2.04577 0
M  V30 8548 C 792.266 -2.63467 -2.13004 0
M  V30 8549 C 790.825 -2.6576 -2.6655 0
M  V30 8550 C 789.972 -2.38002 -1.42304 0
M  V30 8551 H 792.923 -1.54156 -0.377052 0
M  V30 8552 H 792.944 -2.38638 -2.96365 0
M  V30 8553 H 792.456 -3.55331 -1.56081 0
M  V30 8554 H 790.557 -1.77952 -3.27359 0
M  V30 8555 H 790.67 -3.65545 -3.09699 0
M  V30 8556 H 789.034 -1.87936 -1.71907 0
M  V30 8557 H 789.817 -3.32035 -0.872209 0
M  V30 8558 N 792.262 0.832906 -1.33792 0
M  V30 8559 C 793.508 1.59053 -1.26782 0
M  V30 8560 C 793.863 1.91705 0.163399 0
M  V30 8561 O 793.156 1.5638 1.10706 0
M  V30 8562 C 793.35 2.9047 -2.08235 0
M  V30 8563 C 793.179 2.70656 -3.59132 0
M  V30 8564 C 791.949 2.67905 -4.28433 0
M  V30 8565 C 794.147 2.42871 -4.53341 0
M  V30 8566 N 792.129 2.39531 -5.65242 0
M  V30 8567 C 793.5 2.24101 -5.78082 0
M  V30 8568 C 795.555 2.28517 -4.42362 0
M  V30 8569 C 794.258 1.92432 -6.93082 0
M  V30 8570 C 796.284 1.98242 -5.57184 0
M  V30 8571 C 795.646 1.80288 -6.80937 0
M  V30 8572 H 791.745 0.584823 -0.51914 0
M  V30 8573 H 794.329 0.977252 -1.68398 0
M  V30 8574 H 792.5 3.49739 -1.6893 0
M  V30 8575 H 794.232 3.55744 -1.92947 0
M  V30 8576 H 790.987 2.81624 -3.80768 0
M  V30 8577 H 791.411 2.28211 -6.37377 0
M  V30 8578 H 796.053 2.41107 -3.47314 0
M  V30 8579 H 793.771 1.78579 -7.88121 0
M  V30 8580 H 797.357 1.87882 -5.50628 0
M  V30 8581 H 796.237 1.57199 -7.68283 0
M  V30 8582 N 793.74 1.17359 1.05189 0
M  V30 8583 C 795.017 0.871914 1.75091 0
M  V30 8584 C 795.397 -0.627821 2.01548 0
M  V30 8585 O 794.745 -1.5791 1.65156 0
M  V30 8586 C 794.955 1.70687 3.04413 0
M  V30 8587 C 796.303 1.92684 3.78362 0
M  V30 8588 O 797.327 1.67645 3.14282 0
M  V30 8589 O 796.186 2.34765 4.93505 0
M  V30 8590 H 793.28 0.322831 0.761386 0
M  V30 8591 H 795.826 1.28054 1.11357 0
M  V30 8592 H 794.598 2.72405 2.80911 0
M  V30 8593 H 794.221 1.29602 3.75884 0
M  V30 8594 N 795.218 -1.23913 0.973828 0
M  V30 8595 C 796.464 -1.92436 0.640026 0
M  V30 8596 C 796.797 -1.75875 -0.823512 0
M  V30 8597 O 796.072 -1.11563 -1.59323 0
M  V30 8598 C 796.355 -3.4526 1.0231 0
M  V30 8599 C 796.208 -3.70961 2.54378 0
M  V30 8600 C 797.527 -4.36495 0.562155 0
M  V30 8601 H 794.646 -0.698868 0.233992 0
M  V30 8602 H 797.288 -1.46163 1.21393 0
M  V30 8603 H 795.438 -3.84802 0.534751 0
M  V30 8604 H 797.11 -3.40941 3.10737 0
M  V30 8605 H 795.353 -3.15899 2.97305 0
M  V30 8606 H 796.024 -4.77912 2.76232 0
M  V30 8607 H 798.5 -4.04363 0.981333 0
M  V30 8608 H 797.376 -5.42142 0.858689 0
M  V30 8609 H 797.637 -4.38818 -0.537659 0
M  V30 8610 N 796.696 -0.74468 -1.38897 0
M  V30 8611 C 797.644 -0.100312 -2.32384 0
M  V30 8612 C 798.638 0.715191 -1.53562 0
M  V30 8613 O 799.844 0.615288 -1.69157 0
M  V30 8614 H 796.219 -0.0136403 -0.751876 0
M  V30 8615 H 798.19 -0.905007 -2.84345 0
M  V30 8616 C 796.939 0.785432 -3.38713 0
M  V30 8617 H 796.262 0.167308 -3.9945 0
M  V30 8618 H 797.702 1.20374 -4.06554 0
M  V30 8619 C 796.161 1.92408 -2.76552 0
M  V30 8620 O 796.691 3.01752 -2.65157 0
M  V30 8621 N 794.897 1.71642 -2.34494 0
M  V30 8622 H 794.444 0.827079 -2.43961 0
M  V30 8623 H 794.402 2.48 -1.93244 0
M  V30 8624 N 798.174 1.49689 -0.493057 0
M  V30 8625 C 799.137 2.27502 0.278485 0
M  V30 8626 C 800.137 1.33184 0.901037 0
M  V30 8627 O 801.327 1.56415 0.766801 0
M  V30 8628 C 798.459 3.10881 1.39878 0
M  V30 8629 H 799.652 2.97163 -0.404219 0
M  V30 8630 H 797.205 1.54324 -0.247774 0
M  V30 8631 H 797.94 2.45767 2.11587 0
M  V30 8632 H 797.725 3.80219 0.957924 0
M  V30 8633 H 799.215 3.69673 1.94247 0
M  V30 8634 N 799.652 0.226554 1.55963 0
M  V30 8635 C 800.882 -0.407915 2.02533 0
M  V30 8636 C 801.29 -1.53539 1.10554 0
M  V30 8637 O 800.633 -1.8338 0.108409 0
M  V30 8638 C 800.695 -0.996081 3.45425 0
M  V30 8639 C 800.359 -0.00341651 4.57 0
M  V30 8640 C 801.356 0.798782 5.13727 0
M  V30 8641 C 799.041 0.116786 5.02164 0
M  V30 8642 C 801.035 1.70784 6.14094 0
M  V30 8643 C 798.722 1.02937 6.02368 0
M  V30 8644 C 799.72 1.82344 6.5821 0
M  V30 8645 O 799.408 2.72067 7.56462 0
M  V30 8646 H 799.14 -0.103524 0.668026 0
M  V30 8647 H 801.694 0.341937 2.02534 0
M  V30 8648 H 799.924 -1.79512 3.42509 0
M  V30 8649 H 801.613 -1.53848 3.75614 0
M  V30 8650 H 802.379 0.716393 4.7968 0
M  V30 8651 H 798.258 -0.491172 4.58376 0
M  V30 8652 H 801.802 2.32807 6.57607 0
M  V30 8653 H 797.699 1.11276 6.35836 0
M  V30 8654 H 798.467 2.66199 7.74003 0
M  V30 8655 N 801.13 -1.57531 -0.0467866 0
M  V30 8656 C 802.36 -1.92417 -0.752279 0
M  V30 8657 C 802.768 -0.823134 -1.70356 0
M  V30 8658 O 802.111 0.210598 -1.82489 0
M  V30 8659 C 802.173 -3.22974 -1.57887 0
M  V30 8660 C 801.837 -4.50045 -0.794285 0
M  V30 8661 C 802.834 -5.19799 -0.102368 0
M  V30 8662 C 800.519 -4.96608 -0.754061 0
M  V30 8663 C 802.513 -6.34385 0.619267 0
M  V30 8664 C 800.2 -6.11093 -0.0286682 0
M  V30 8665 C 801.198 -6.79835 0.656772 0
M  V30 8666 O 800.886 -7.92133 1.37042 0
M  V30 8667 H 800.618 -0.640029 -0.217576 0
M  V30 8668 H 803.172 -2.05395 -0.0137438 0
M  V30 8669 H 801.402 -3.06273 -2.3608 0
M  V30 8670 H 803.091 -3.43319 -2.16533 0
M  V30 8671 H 803.857 -4.8484 -0.124589 0
M  V30 8672 H 799.736 -4.42958 -1.27706 0
M  V30 8673 H 803.28 -6.87975 1.15483 0
M  V30 8674 H 799.177 -6.455 -0.00446214 0
M  V30 8675 H 799.945 -8.08394 1.28227 0
M  V30 8676 N 802.608 0.318715 -1.54344 0
M  V30 8677 C 803.833 1.07987 -1.77069 0
M  V30 8678 C 804.258 1.80766 -0.520117 0
M  V30 8679 O 803.616 1.73424 0.528566 0
M  V30 8680 C 803.664 2.04987 -2.96669 0
M  V30 8681 O 802.768 3.12974 -2.68554 0
M  V30 8682 H 802.109 0.311109 -0.586606 0
M  V30 8683 H 804.639 0.361533 -2.0138 0
M  V30 8684 H 804.649 2.47771 -3.2415 0
M  V30 8685 H 803.324 1.51417 -3.87357 0
M  V30 8686 H 801.901 2.74831 -2.52037 0
M  V30 8687 N 804.086 1.46499 0.581025 0
M  V30 8688 C 805.332 1.52121 1.34116 0
M  V30 8689 C 805.665 0.173031 1.93428 0
M  V30 8690 O 804.94 -0.815729 1.76568 0
M  V30 8691 C 805.223 2.62108 2.46924 0
M  V30 8692 C 805.076 4.06462 1.92636 0
M  V30 8693 C 806.395 2.68167 3.48962 0
M  V30 8694 H 803.514 0.5538 0.486287 0
M  V30 8695 H 806.156 1.78443 0.652538 0
M  V30 8696 H 804.306 2.39794 3.05665 0
M  V30 8697 H 805.978 4.40068 1.3834 0
M  V30 8698 H 804.221 4.15862 1.23455 0
M  V30 8699 H 804.892 4.79152 2.74076 0
M  V30 8700 H 807.368 2.8823 3.00104 0
M  V30 8701 H 806.244 3.46942 4.2535 0
M  V30 8702 H 806.505 1.74284 4.06297 0
M  V30 8703 N 805.565 -0.825799 1.34232 0
M  V30 8704 C 806.79 -1.61883 1.29648 0
M  V30 8705 C 807.215 -1.87669 -0.127295 0
M  V30 8706 O 806.573 -1.45016 -1.08813 0
M  V30 8707 C 806.621 -2.93846 2.09014 0
M  V30 8708 O 805.725 -3.85778 1.4577 0
M  V30 8709 H 805.066 -0.492454 0.445405 0
M  V30 8710 H 807.596 -1.02641 1.76992 0
M  V30 8711 H 807.606 -3.43435 2.20264 0
M  V30 8712 H 806.281 -2.74401 3.12533 0
M  V30 8713 H 804.858 -3.4429 1.43245 0
M  V30 8714 N 807.043 -1.17915 -1.04565 0
M  V30 8715 C 808.32 -0.881187 -1.74627 0
M  V30 8716 C 808.7 0.617123 -2.01878 0
M  V30 8717 O 808.048 1.57032 -1.65991 0
M  V30 8718 C 808.258 -1.72299 -3.03503 0
M  V30 8719 C 809.606 -1.94688 -3.77335 0
M  V30 8720 O 810.63 -1.6931 -3.13389 0
M  V30 8721 O 809.489 -2.37379 -4.92253 0
M  V30 8722 H 806.583 -0.326864 -0.759664 0
M  V30 8723 H 809.129 -1.28642 -1.10676 0
M  V30 8724 H 807.901 -2.73891 -2.79462 0
M  V30 8725 H 807.524 -1.31593 -3.75192 0
M  V30 8726 N 808.521 1.23394 -0.980386 0
M  V30 8727 C 809.471 2.22634 -0.491747 0
M  V30 8728 C 810.455 1.54958 0.433222 0
M  V30 8729 O 811.647 1.75049 0.262078 0
M  V30 8730 C 808.776 3.4269 0.204531 0
M  V30 8731 C 807.862 4.17594 -0.740007 0
M  V30 8732 N 808.253 4.69458 -1.88263 0
M  V30 8733 C 806.551 4.42554 -0.553335 0
M  V30 8734 C 807.252 5.26446 -2.47446 0
M  V30 8735 N 806.228 5.14377 -1.75834 0
M  V30 8736 H 810.03 2.60363 -1.36339 0
M  V30 8737 H 807.544 1.38924 -0.841059 0
M  V30 8738 H 809.541 4.12959 0.571901 0
M  V30 8739 H 808.201 3.06477 1.07246 0
M  V30 8740 H 809.212 4.65803 -2.26381 0
M  V30 8741 H 805.889 4.16629 0.269573 0
M  V30 8742 H 807.279 5.77195 -3.43941 0
M  V30 8743 N 809.999 0.752036 1.385 0
M  V30 8744 C 811.245 0.307958 2.00448 0
M  V30 8745 C 811.578 -1.10702 1.59558 0
M  V30 8746 O 810.853 -1.75788 0.832391 0
M  V30 8747 C 811.136 0.429092 3.57534 0
M  V30 8748 C 810.989 1.88507 4.08393 0
M  V30 8749 C 812.308 -0.178442 4.39738 0
M  V30 8750 H 809.427 0.113373 0.728228 0
M  V30 8751 H 812.069 0.951389 1.64465 0
M  V30 8752 H 810.219 -0.118695 3.88319 0
M  V30 8753 H 811.891 2.49104 3.88259 0
M  V30 8754 H 810.134 2.40066 3.61318 0
M  V30 8755 H 810.805 1.92099 5.17496 0
M  V30 8756 H 813.281 0.28872 4.15097 0
M  V30 8757 H 812.157 -0.0634349 5.48863 0
M  V30 8758 H 812.418 -1.26655 4.23569 0
M  V30 8759 N 811.477 -1.49425 0.500989 0
M  V30 8760 C 812.723 -2.02753 -0.0436 0
M  V30 8761 C 813.056 -1.37991 -1.36646 0
M  V30 8762 O 812.331 -0.515597 -1.87542 0
M  V30 8763 C 812.614 -3.59565 -0.19616 0
M  V30 8764 C 812.467 -4.34855 1.14982 0
M  V30 8765 C 813.786 -4.30014 -0.936795 0
M  V30 8766 H 810.905 -0.73686 -0.0143711 0
M  V30 8767 H 813.547 -1.78448 0.652397 0
M  V30 8768 H 811.697 -3.80405 -0.788959 0
M  V30 8769 H 813.369 -4.25512 1.7815 0
M  V30 8770 H 811.612 -3.97414 1.73911 0
M  V30 8771 H 812.283 -5.42933 0.996385 0
M  V30 8772 H 814.759 -4.1383 -0.434036 0
M  V30 8773 H 813.635 -5.39483 -1.01238 0
M  V30 8774 H 813.896 -3.95257 -1.9805 0
M  V30 8775 N 812.955 -0.234822 -1.55841 0
M  V30 8776 C 814.201 0.393843 -1.98939 0
M  V30 8777 C 814.534 1.58466 -1.1226 0
M  V30 8778 O 813.809 1.93635 -0.183242 0
M  V30 8779 C 814.092 0.815492 -3.50745 0
M  V30 8780 C 813.945 -0.379878 -4.48193 0
M  V30 8781 C 815.264 1.66687 -4.07312 0
M  V30 8782 H 812.383 0.141681 -0.723253 0
M  V30 8783 H 815.025 -0.333716 -1.87046 0
M  V30 8784 H 813.175 1.43541 -3.6101 0
M  V30 8785 H 814.847 -1.0182 -4.49923 0
M  V30 8786 H 813.09 -1.02507 -4.21515 0
M  V30 8787 H 813.761 -0.0417069 -5.51984 0
M  V30 8788 H 816.237 1.14369 -4.00074 0
M  V30 8789 H 815.113 1.93078 -5.13821 0
M  V30 8790 H 815.374 2.63468 -3.55017 0
M  V30 8791 N 814.433 1.57553 0.0384317 0
M  V30 8792 C 815.68 1.88841 0.731116 0
M  V30 8793 C 816.008 0.83093 1.75857 0
M  V30 8794 O 815.263 -0.169248 1.94967 0
M  V30 8795 C 815.562 3.26862 1.44554 0
M  V30 8796 C 815.228 4.47472 0.554946 0
M  V30 8797 C 813.89 4.80203 0.309621 0
M  V30 8798 C 816.242 5.21165 -0.0605204 0
M  V30 8799 C 813.57 5.8402 -0.560101 0
M  V30 8800 C 815.922 6.25905 -0.91789 0
M  V30 8801 C 814.586 6.57117 -1.17277 0
M  V30 8802 H 813.856 0.691018 0.267534 0
M  V30 8803 H 816.503 1.91498 -0.00883195 0
M  V30 8804 H 814.808 3.2015 2.25856 0
M  V30 8805 H 816.505 3.48316 1.98688 0
M  V30 8806 H 813.095 4.21874 0.756304 0
M  V30 8807 H 817.279 4.96164 0.116064 0
M  V30 8808 H 812.535 6.06583 -0.765974 0
M  V30 8809 H 816.709 6.82155 -1.40136 0
M  V30 8810 H 814.336 7.37385 -1.84843 0
M  V30 8811 N 815.911 -0.310526 1.54511 0
M  V30 8812 C 817.322 -0.884142 1.64438 0
M  V30 8813 C 817.673 -1.88425 0.546855 0
M  V30 8814 O 816.798 -2.14049 -0.31811 0
M  V30 8815 C 817.393 -1.6104 2.9808 0
M  V30 8816 C 815.952 -2.13255 3.1016 0
M  V30 8817 C 815.099 -0.96213 2.60074 0
M  V30 8818 H 818.05 -0.0877666 1.58457 0
M  V30 8819 H 818.071 -2.47541 2.8897 0
M  V30 8820 H 817.583 -0.882255 3.77939 0
M  V30 8821 H 815.684 -2.89145 2.35002 0
M  V30 8822 H 815.797 -2.37361 4.16169 0
M  V30 8823 H 814.161 -1.34501 2.16291 0
M  V30 8824 H 814.944 -0.248098 3.42402 0
M  V30 8825 N 817.389 -1.46805 -0.573248 0
M  V30 8826 C 818.352 -1.57655 -1.66366 0
M  V30 8827 C 819.352 -0.452905 -1.5429 0
M  V30 8828 O 820.542 -0.717502 -1.58737 0
M  V30 8829 C 817.674 -1.50584 -3.05839 0
M  V30 8830 H 818.867 -2.54842 -1.581 0
M  V30 8831 H 816.42 -1.34756 -0.791868 0
M  V30 8832 H 817.155 -0.547127 -3.19651 0
M  V30 8833 H 816.94 -2.32118 -3.16012 0
M  V30 8834 H 818.43 -1.61282 -3.85199 0
M  V30 8835 N 818.867 0.818669 -1.34668 0
M  V30 8836 C 820.115 1.57201 -1.27013 0
M  V30 8837 C 820.436 1.94354 0.158599 0
M  V30 8838 O 819.706 1.62626 1.09223 0
M  V30 8839 H 818.286 0.582919 -0.467135 0
M  V30 8840 H 820.948 0.977234 -1.6863 0
M  V30 8841 H 820.044 2.49291 -1.87778 0
M  V30 8842 N 820.346 1.18468 1.03938 0
M  V30 8843 C 821.276 0.936389 2.13902 0
M  V30 8844 C 822.257 -0.126381 1.6963 0
M  V30 8845 O 823.442 0.0264757 1.94182 0
M  V30 8846 C 820.572 0.462729 3.44204 0
M  V30 8847 C 819.526 1.46613 4.02105 0
M  V30 8848 C 818.852 0.84994 5.27902 0
M  V30 8849 C 820.152 2.84323 4.3813 0
M  V30 8850 H 821.846 1.85602 2.3493 0
M  V30 8851 H 819.392 0.893806 1.12903 0
M  V30 8852 H 821.345 0.276382 4.20493 0
M  V30 8853 H 820.069 -0.492477 3.22866 0
M  V30 8854 H 818.728 1.63944 3.27899 0
M  V30 8855 H 818.376 -0.112493 5.02874 0
M  V30 8856 H 818.076 1.51988 5.67603 0
M  V30 8857 H 819.6 0.674152 6.06867 0
M  V30 8858 H 821.014 2.70636 5.054 0
M  V30 8859 H 819.411 3.48012 4.88884 0
M  V30 8860 H 820.481 3.37776 3.47901 0
M  V30 8861 N 821.824 -1.22873 0.986916 0
M  V30 8862 C 822.754 -2.2688 0.552064 0
M  V30 8863 C 823.735 -1.64883 -0.418048 0
M  V30 8864 O 824.92 -1.9171 -0.30999 0
M  V30 8865 C 822.05 -3.47018 -0.139959 0
M  V30 8866 C 821.004 -4.21411 0.748091 0
M  V30 8867 C 820.33 -5.34645 -0.0765132 0
M  V30 8868 C 821.63 -4.80726 2.04206 0
M  V30 8869 H 823.324 -2.63507 1.42143 0
M  V30 8870 H 820.87 -1.26668 0.68492 0
M  V30 8871 H 822.823 -4.18931 -0.455527 0
M  V30 8872 H 821.547 -3.0947 -1.04382 0
M  V30 8873 H 820.206 -3.51325 1.04721 0
M  V30 8874 H 819.854 -4.93339 -0.981109 0
M  V30 8875 H 819.554 -5.85342 0.514606 0
M  V30 8876 H 821.078 -6.09377 -0.386313 0
M  V30 8877 H 822.492 -5.44612 1.79083 0
M  V30 8878 H 820.889 -5.41737 2.5815 0
M  V30 8879 H 821.959 -4.01109 2.72469 0
M  V30 8880 N 823.302 -0.75937 -1.38099 0
M  V30 8881 C 824.234 -0.0956547 -2.29 0
M  V30 8882 C 825.247 0.677561 -1.4803 0
M  V30 8883 O 826.436 0.517696 -1.70828 0
M  V30 8884 C 823.536 0.88844 -3.27047 0
M  V30 8885 C 822.709 0.171652 -4.37063 0
M  V30 8886 C 821.768 1.06733 -5.15262 0
M  V30 8887 O 820.794 0.535698 -5.66674 0
M  V30 8888 N 821.996 2.39486 -5.28797 0
M  V30 8889 H 824.761 -0.876354 -2.86601 0
M  V30 8890 H 822.322 -0.61065 -1.49942 0
M  V30 8891 H 824.314 1.49079 -3.76241 0
M  V30 8892 H 822.884 1.57018 -2.70304 0
M  V30 8893 H 822.104 -0.611473 -3.89429 0
M  V30 8894 H 823.392 -0.324121 -5.07767 0
M  V30 8895 H 822.79 2.85127 -4.88589 0
M  V30 8896 H 821.347 2.94758 -5.81344 0
M  V30 8897 N 824.78 1.49157 -0.508906 0
M  V30 8898 C 826.191 1.86593 -0.0630975 0
M  V30 8899 C 826.542 1.42051 1.35337 0
M  V30 8900 O 825.667 0.801866 2.00995 0
M  V30 8901 C 826.262 3.38629 -0.107729 0
M  V30 8902 C 824.821 3.75336 0.282776 0
M  V30 8903 C 823.968 2.7317 -0.4768 0
M  V30 8904 H 826.919 1.41362 -0.72128 0
M  V30 8905 H 826.94 3.74271 0.685689 0
M  V30 8906 H 826.452 3.71017 -1.13876 0
M  V30 8907 H 824.553 3.48558 1.31675 0
M  V30 8908 H 824.666 4.79081 -0.0421728 0
M  V30 8909 H 823.03 2.54591 0.0743552 0
M  V30 8910 H 823.813 3.08403 -1.50807 0
M  V30 8911 N 826.258 0.243083 1.55714 0
M  V30 8912 C 827.669 -0.260788 1.8487 0
M  V30 8913 C 828.02 -1.57879 1.16485 0
M  V30 8914 O 827.145 -2.1184 0.441908 0
M  V30 8915 C 827.74 -0.479954 3.35383 0
M  V30 8916 C 826.299 -0.928096 3.64778 0
M  V30 8917 C 825.446 -0.00316416 2.773 0
M  V30 8918 H 828.397 0.465743 1.51712 0
M  V30 8919 H 828.418 -1.32308 3.56756 0
M  V30 8920 H 827.93 0.479468 3.85127 0
M  V30 8921 H 826.031 -1.90012 3.20509 0
M  V30 8922 H 826.144 -0.7876 4.72582 0
M  V30 8923 H 824.508 -0.513849 2.49463 0
M  V30 8924 H 825.291 0.951562 3.29849 0
M  V30 8925 N 827.736 -1.57571 -0.0300757 0
M  V30 8926 C 828.983 -1.89226 -0.721091 0
M  V30 8927 C 829.311 -0.840244 -1.75414 0
M  V30 8928 O 828.566 0.158906 -1.95054 0
M  V30 8929 C 828.865 -3.27624 -1.42818 0
M  V30 8930 C 828.531 -4.4776 -0.531208 0
M  V30 8931 C 827.193 -4.8036 -0.28415 0
M  V30 8932 C 829.545 -5.21125 0.0881582 0
M  V30 8933 C 826.873 -5.83715 0.591065 0
M  V30 8934 C 829.225 -6.2541 0.95107 0
M  V30 8935 C 827.889 -6.56486 1.2076 0
M  V30 8936 H 827.159 -0.692428 -0.263866 0
M  V30 8937 H 829.806 -1.91491 0.0189874 0
M  V30 8938 H 828.111 -3.21343 -2.24155 0
M  V30 8939 H 829.808 -3.49365 -1.96838 0
M  V30 8940 H 826.398 -4.2227 -0.73392 0
M  V30 8941 H 830.582 -4.96219 -0.0897496 0
M  V30 8942 H 825.838 -6.06168 0.798132 0
M  V30 8943 H 830.012 -6.81402 1.43751 0
M  V30 8944 H 827.639 -7.36395 1.88751 0
M  V30 8945 N 829.214 0.302327 -1.54673 0
M  V30 8946 C 830.461 1.0377 -1.73891 0
M  V30 8947 C 830.789 1.87309 -0.523979 0
M  V30 8948 O 830.044 1.8936 0.494084 0
M  V30 8949 C 830.343 1.97365 -2.97963 0
M  V30 8950 C 830.009 1.29812 -4.3181 0
M  V30 8951 C 828.671 1.11121 -4.68194 0
M  V30 8952 C 831.023 0.815073 -5.14787 0
M  V30 8953 C 828.351 0.428077 -5.85136 0
M  V30 8954 C 830.703 0.145665 -6.32432 0
M  V30 8955 C 829.367 -0.0532098 -6.67479 0
M  V30 8956 H 828.637 0.379721 -0.636312 0
M  V30 8957 H 831.284 0.312708 -1.8893 0
M  V30 8958 H 829.589 2.76387 -2.777 0
M  V30 8959 H 831.286 2.54331 -3.10027 0
M  V30 8960 H 827.876 1.45366 -4.03196 0
M  V30 8961 H 832.06 0.947191 -4.87178 0
M  V30 8962 H 827.316 0.262995 -6.10834 0
M  V30 8963 H 831.49 -0.236533 -6.95998 0
M  V30 8964 H 829.117 -0.58456 -7.57949 0
M  V30 8965 N 830.692 1.47107 0.565454 0
M  V30 8966 C 831.642 1.55384 1.66852 0
M  V30 8967 C 832.626 0.413369 1.55499 0
M  V30 8968 O 833.818 0.66281 1.64121 0
M  V30 8969 C 830.947 1.5634 3.05635 0
M  V30 8970 C 830.033 2.75742 3.22222 0
M  V30 8971 N 830.424 4.00515 3.08903 0
M  V30 8972 C 828.722 2.7233 3.53203 0
M  V30 8973 C 829.423 4.80435 3.27959 0
M  V30 8974 N 828.399 4.1261 3.53913 0
M  V30 8975 H 832.201 2.49635 1.55111 0
M  V30 8976 H 829.715 1.42986 0.769982 0
M  V30 8977 H 831.712 1.60359 3.84825 0
M  V30 8978 H 830.372 0.631785 3.18494 0
M  V30 8979 H 831.383 4.31501 2.86404 0
M  V30 8980 H 828.06 1.8827 3.7264 0
M  V30 8981 H 829.45 5.89334 3.22699 0
M  V30 8982 N 832.17 -0.811516 1.35101 0
M  V30 8983 C 833.581 -1.38515 1.25182 0
M  V30 8984 C 833.932 -1.95846 -0.117883 0
M  V30 8985 O 833.057 -1.90925 -1.01866 0
M  V30 8986 C 833.652 -2.51813 2.26662 0
M  V30 8987 C 832.211 -3.05052 2.20499 0
M  V30 8988 C 831.358 -1.77987 2.12641 0
M  V30 8989 H 834.309 -0.614959 1.46301 0
M  V30 8990 H 834.33 -3.30228 1.89023 0
M  V30 8991 H 833.842 -2.10057 3.2634 0
M  V30 8992 H 831.943 -3.51285 1.24215 0
M  V30 8993 H 832.056 -3.63368 3.1225 0
M  V30 8994 H 830.42 -1.99342 1.5854 0
M  V30 8995 H 831.203 -1.38389 3.14171 0
M  V30 8996 N 833.648 -1.19017 -1.03309 0
M  V30 8997 C 834.896 -0.988258 -1.76289 0
M  V30 8998 C 835.217 0.482557 -1.88935 0
M  V30 8999 O 834.487 1.34969 -1.41987 0
M  V30 9000 H 833.067 -0.36267 -0.653054 0
M  V30 9001 H 835.729 -1.49836 -1.2464 0
M  V30 9002 H 834.825 -1.43273 -2.77271 0
M  V30 9003 N 835.127 1.22348 -0.993418 0
M  V30 9004 C 836.357 1.94842 -0.687023 0
M  V30 9005 C 836.765 1.73594 0.752445 0
M  V30 9006 O 836.108 1.03238 1.51946 0
M  V30 9007 C 836.17 3.47694 -0.913754 0
M  V30 9008 C 835.834 3.92678 -2.33781 0
M  V30 9009 C 836.831 4.0031 -3.31734 0
M  V30 9010 C 834.516 4.25311 -2.67237 0
M  V30 9011 C 836.51 4.39951 -4.61218 0
M  V30 9012 C 834.197 4.64631 -3.9694 0
M  V30 9013 C 835.195 4.71919 -4.93742 0
M  V30 9014 O 834.883 5.10349 -6.21127 0
M  V30 9015 H 834.615 0.626771 -0.253247 0
M  V30 9016 H 837.169 1.56436 -1.33105 0
M  V30 9017 H 835.399 3.86115 -0.212552 0
M  V30 9018 H 837.088 4.01403 -0.602528 0
M  V30 9019 H 837.854 3.75288 -3.07219 0
M  V30 9020 H 833.733 4.18842 -1.92594 0
M  V30 9021 H 837.277 4.45555 -5.36774 0
M  V30 9022 H 833.174 4.89104 -4.21245 0
M  V30 9023 H 833.942 5.2842 -6.25072 0
M  V30 9024 N 836.605 0.766683 1.37694 0
M  V30 9025 C 838.016 0.394761 1.82479 0
M  V30 9026 C 838.367 -1.07842 1.63904 0
M  V30 9027 O 837.492 -1.83479 1.14737 0
M  V30 9028 C 838.087 0.70974 3.31283 0
M  V30 9029 C 836.646 0.390936 3.74364 0
M  V30 9030 C 835.793 0.956192 2.60293 0
M  V30 9031 H 838.744 0.961756 1.26238 0
M  V30 9032 H 838.765 -0.00742144 3.80499 0
M  V30 9033 H 838.277 1.782 3.4477 0
M  V30 9034 H 836.378 -0.674213 3.66449 0
M  V30 9035 H 836.491 0.895645 4.70654 0
M  V30 9036 H 834.855 0.380744 2.51838 0
M  V30 9037 H 835.638 2.03375 2.76575 0
M  V30 9038 N 838.083 -1.48885 0.516809 0
M  V30 9039 C 839.499 -1.58651 0.173788 0
M  V30 9040 C 839.699 -1.52033 -1.32243 0
M  V30 9041 O 838.755 -1.40251 -2.09967 0
M  V30 9042 C 840.068 -2.90816 0.764628 0
M  V30 9043 C 841.616 -3.04316 0.732164 0
M  V30 9044 C 842.091 -4.39123 1.30135 0
M  V30 9045 N 843.582 -4.45656 1.26273 0
M  V30 9046 C 844.317 -5.48446 1.67317 0
M  V30 9047 N 843.813 -6.58258 2.16028 0
M  V30 9048 N 845.606 -5.39251 1.58635 0
M  V30 9049 H 837.757 -1.5143 1.48939 0
M  V30 9050 H 840.02 -0.718243 0.618733 0
M  V30 9051 H 839.726 -3.01275 1.81456 0
M  V30 9052 H 839.6 -3.76473 0.234113 0
M  V30 9053 H 841.987 -2.93478 -0.308975 0
M  V30 9054 H 842.068 -2.20303 1.3 0
M  V30 9055 H 841.712 -4.50714 2.34135 0
M  V30 9056 H 841.642 -5.21801 0.709305 0
M  V30 9057 H 844.133 -3.66879 0.906006 0
M  V30 9058 H 844.446 -7.32811 2.45374 0
M  V30 9059 H 842.791 -6.59257 2.20013 0
M  V30 9060 H 845.982 -4.52354 1.20387 0
M  V30 9061 H 846.155 -6.19229 1.90944 0
M  V30 9062 N 839.561 -0.251338 -1.55583 0
M  V30 9063 C 840.524 0.63305 -2.20284 0
M  V30 9064 C 841.524 1.09941 -1.17344 0
M  V30 9065 O 842.714 1.00341 -1.42399 0
M  V30 9066 C 839.846 1.8706 -2.84993 0
M  V30 9067 H 841.039 0.0684846 -2.99822 0
M  V30 9068 H 838.592 -0.00181653 -1.563 0
M  V30 9069 H 839.327 2.47629 -2.09405 0
M  V30 9070 H 839.112 1.54436 -3.60405 0
M  V30 9071 H 840.602 2.50004 -3.34496 0
M  V30 9072 N 841.039 1.57585 0.0217189 0
M  V30 9073 C 842.285 1.89887 0.712099 0
M  V30 9074 C 842.618 0.849971 1.74611 0
M  V30 9075 O 841.893 -0.13407 1.94037 0
M  V30 9076 C 842.176 3.32815 1.37499 0
M  V30 9077 C 842.029 4.48405 0.353993 0
M  V30 9078 C 843.348 3.74786 2.30703 0
M  V30 9079 H 840.467 0.690588 0.257405 0
M  V30 9080 H 843.109 1.89983 -0.0251145 0
M  V30 9081 H 841.259 3.32863 2.00335 0
M  V30 9082 H 842.931 4.60491 -0.273015 0
M  V30 9083 H 841.174 4.32573 -0.32599 0
M  V30 9084 H 841.845 5.45316 0.85644 0
M  V30 9085 H 844.321 3.76151 1.77904 0
M  V30 9086 H 843.197 4.75585 2.74061 0
M  V30 9087 H 843.458 3.07449 3.17691 0
M  V30 9088 N 842.517 -0.29412 1.54831 0
M  V30 9089 C 843.465 -1.38296 1.87021 0
M  V30 9090 C 844.459 -1.5216 0.744557 0
M  V30 9091 O 845.665 -1.54196 0.92864 0
M  V30 9092 H 842.04 -0.462088 0.593278 0
M  V30 9093 H 844.011 -1.08386 2.7802 0
M  V30 9094 C 842.76 -2.74024 2.14023 0
M  V30 9095 H 842.083 -2.6414 3.00117 0
M  V30 9096 H 843.523 -3.49205 2.40482 0
M  V30 9097 C 841.982 -3.23492 0.940982 0
M  V30 9098 O 842.512 -4.01361 0.164937 0
M  V30 9099 N 840.718 -2.80902 0.744467 0
M  V30 9100 H 840.265 -2.17694 1.37721 0
M  V30 9101 H 840.223 -3.14349 -0.0563652 0
M  V30 9102 N 843.995 -1.47404 -0.557645 0
M  V30 9103 C 845.242 -1.54007 -1.31484 0
M  V30 9104 C 845.57 -0.202162 -1.93447 0
M  V30 9105 O 844.825 0.804901 -1.78381 0
M  V30 9106 C 845.124 -2.6061 -2.44575 0
M  V30 9107 C 844.79 -4.03896 -2.00446 0
M  V30 9108 C 843.452 -4.42901 -1.88127 0
M  V30 9109 C 845.804 -4.93804 -1.66754 0
M  V30 9110 C 843.132 -5.6965 -1.40411 0
M  V30 9111 C 845.484 -6.21016 -1.20509 0
M  V30 9112 C 844.148 -6.58903 -1.06786 0
M  V30 9113 H 843.418 -0.563552 -0.481134 0
M  V30 9114 H 846.065 -1.81001 -0.625375 0
M  V30 9115 H 844.37 -2.27371 -3.19076 0
M  V30 9116 H 846.067 -2.62941 -3.02759 0
M  V30 9117 H 842.657 -3.73077 -2.10977 0
M  V30 9118 H 846.841 -4.64369 -1.75144 0
M  V30 9119 H 842.097 -5.97755 -1.2845 0
M  V30 9120 H 846.271 -6.90095 -0.935001 0
M  V30 9121 H 843.898 -7.57008 -0.695891 0
M  V30 9122 N 845.473 0.80434 -1.35529 0
M  V30 9123 C 846.721 1.55845 -1.28673 0
M  V30 9124 C 847.042 1.94511 0.137976 0
M  V30 9125 O 846.312 1.63775 1.07492 0
M  V30 9126 H 844.892 0.577931 -0.473291 0
M  V30 9127 H 847.554 0.959293 -1.69657 0
M  V30 9128 H 846.65 2.47285 -1.90411 0
M  V30 9129 N 846.951 1.19563 1.02676 0
M  V30 9130 C 847.914 0.937182 2.09164 0
M  V30 9131 C 848.914 -0.0831927 1.60585 0
M  V30 9132 O 850.104 0.15178 1.73538 0
M  V30 9133 C 847.236 0.408912 3.38439 0
M  V30 9134 H 848.429 1.88164 2.33526 0
M  V30 9135 H 845.982 1.00959 1.19319 0
M  V30 9136 H 846.717 -0.541497 3.19747 0
M  V30 9137 H 846.502 1.14464 3.7502 0
M  V30 9138 H 847.992 0.247242 4.16867 0
M  V30 9139 N 848.429 -1.21819 0.999893 0
M  V30 9140 C 849.392 -2.22227 0.561044 0
M  V30 9141 C 850.392 -1.56722 -0.359858 0
M  V30 9142 O 851.582 -1.73546 -0.150848 0
M  V30 9143 C 848.714 -3.40409 -0.182987 0
M  V30 9144 H 849.907 -2.62567 1.44909 0
M  V30 9145 H 847.46 -1.34991 0.78785 0
M  V30 9146 H 848.195 -3.05551 -1.08671 0
M  V30 9147 H 847.98 -3.89171 0.47833 0
M  V30 9148 H 849.47 -4.14856 -0.477952 0
M  V30 9149 N 849.908 -0.773975 -1.37286 0
M  V30 9150 C 851.156 -0.338636 -1.99243 0
M  V30 9151 C 851.477 1.08919 -1.61746 0
M  V30 9152 O 850.747 1.74822 -0.88397 0
M  V30 9153 H 849.327 -0.12222 -0.736934 0
M  V30 9154 H 851.989 -0.992595 -1.67731 0
M  V30 9155 H 851.085 -0.418055 -3.09287 0
M  V30 9156 N 851.386 1.48609 -0.524698 0
M  V30 9157 C 852.611 2.07398 0.00952139 0
M  V30 9158 C 853.036 1.37939 1.27884 0
M  V30 9159 O 852.394 0.443633 1.75788 0
M  V30 9160 C 852.442 3.59916 0.221956 0
M  V30 9161 O 851.546 3.91647 1.29175 0
M  V30 9162 H 850.887 0.662981 -0.0367729 0
M  V30 9163 H 853.417 1.91092 -0.7311 0
M  V30 9164 H 853.427 4.05552 0.446236 0
M  V30 9165 H 852.102 4.09876 -0.705306 0
M  V30 9166 H 850.679 3.57796 1.05055 0
M  V30 9167 N 852.864 0.259585 1.55447 0
M  V30 9168 C 854.113 -0.362163 1.98422 0
M  V30 9169 C 854.426 -1.58135 1.1512 0
M  V30 9170 O 855.632 -2.27506 1.48166 0
M  V30 9171 C 854.088 -0.695722 3.53111 0
M  V30 9172 C 853.696 0.502784 4.4517 0
M  V30 9173 C 855.44 -1.28096 4.04712 0
M  V30 9174 C 853.347 0.144674 5.91223 0
M  V30 9175 H 852.277 -0.139092 0.74106 0
M  V30 9176 H 854.928 0.361798 1.79898 0
M  V30 9177 H 853.31 -1.47816 3.67378 0
M  V30 9178 H 854.484 1.27994 4.42667 0
M  V30 9179 H 852.799 1.0038 4.0412 0
M  V30 9180 H 855.396 -1.56243 5.11363 0
M  V30 9181 H 855.739 -2.20969 3.52815 0
M  V30 9182 H 856.272 -0.561146 3.93822 0
M  V30 9183 H 853.011 1.04087 6.47183 0
M  V30 9184 H 852.531 -0.596023 5.96831 0
M  V30 9185 H 854.21 -0.268651 6.46442 0
M  V30 9186 N 854.342 -1.57594 -0.0133615 0
M  V30 9187 C 855.275 -2.02991 -1.04259 0
M  V30 9188 C 856.253 -0.917193 -1.34262 0
M  V30 9189 O 857.437 -1.18428 -1.46653 0
M  V30 9190 C 854.564 -2.41624 -2.37351 0
M  V30 9191 C 853.61 -3.63495 -2.231 0
M  V30 9192 S 854.443 -5.1198 -1.5696 0
M  V30 9193 C 855.599 -5.5387 -2.91511 0
M  V30 9194 H 855.832 -2.89973 -0.655985 0
M  V30 9195 H 853.365 -1.52769 -0.223827 0
M  V30 9196 H 855.323 -2.64551 -3.13884 0
M  V30 9197 H 853.984 -1.55065 -2.73155 0
M  V30 9198 H 853.177 -3.88233 -3.21389 0
M  V30 9199 H 852.779 -3.405 -1.54711 0
M  V30 9200 H 855.071 -5.55514 -3.87828 0
M  V30 9201 H 856.014 -6.53988 -2.71488 0
M  V30 9202 H 856.422 -4.81404 -2.94806 0
M  V30 9203 N 855.82 0.285905 -1.54985 0
M  V30 9204 C 856.783 1.33625 -1.86218 0
M  V30 9205 C 857.783 1.42971 -0.735936 0
M  V30 9206 O 858.973 1.42345 -1.00417 0
M  V30 9207 C 856.105 2.71926 -2.05595 0
M  V30 9208 H 857.298 1.07167 -2.80099 0
M  V30 9209 H 854.851 0.523335 -1.47278 0
M  V30 9210 H 855.586 3.03583 -1.14053 0
M  V30 9211 H 855.371 2.6653 -2.87583 0
M  V30 9212 H 856.861 3.47841 -2.31077 0
M  V30 9213 N 857.298 1.47698 0.54982 0
M  V30 9214 C 858.248 1.57145 1.65195 0
M  V30 9215 C 859.232 0.429839 1.55052 0
M  V30 9216 O 860.424 0.68018 1.63409 0
M  V30 9217 C 857.553 1.59573 3.0396 0
M  V30 9218 C 856.639 2.79144 3.19279 0
M  V30 9219 N 857.03 4.03769 3.04638 0
M  V30 9220 C 855.328 2.76061 3.50295 0
M  V30 9221 C 856.029 4.83887 3.22845 0
M  V30 9222 N 855.005 4.1634 3.49517 0
M  V30 9223 H 858.807 2.51266 1.52455 0
M  V30 9224 H 856.321 1.43795 0.754773 0
M  V30 9225 H 858.318 1.64431 3.83103 0
M  V30 9226 H 856.978 0.66553 3.17806 0
M  V30 9227 H 857.989 4.34515 2.81811 0
M  V30 9228 H 854.666 1.92211 3.70622 0
M  V30 9229 H 856.056 5.92724 3.1643 0
M  V30 9230 N 858.776 -0.797141 1.35954 0
M  V30 9231 C 859.686 -1.94088 1.31784 0
M  V30 9232 C 860.702 -1.72588 0.221227 0
M  V30 9233 O 861.878 -1.96256 0.452255 0
M  V30 9234 C 858.943 -3.28828 1.09878 0
M  V30 9235 C 858.004 -3.63158 2.28942 0
M  V30 9236 C 857.237 -4.91469 2.08072 0
M  V30 9237 O 857.46 -5.60616 1.05196 0
M  V30 9238 O 856.394 -5.24277 2.95664 0
M  V30 9239 H 860.22 -2.00554 2.28061 0
M  V30 9240 H 857.805 -0.936288 1.16422 0
M  V30 9241 H 859.687 -4.09473 0.995485 0
M  V30 9242 H 858.362 -3.23271 0.16659 0
M  V30 9243 H 857.269 -2.82851 2.44839 0
M  V30 9244 H 858.602 -3.7343 3.20641 0
M  V30 9245 N 860.254 -1.20106 -1.0204 0
M  V30 9246 C 861.184 -0.970301 -2.12385 0
M  V30 9247 C 862.165 0.099378 -1.69809 0
M  V30 9248 O 863.35 -0.057365 -1.94115 0
M  V30 9249 C 860.48 -0.517431 -3.43424 0
M  V30 9250 C 859.434 -1.52992 -3.99722 0
M  V30 9251 C 858.76 -0.933817 -5.26483 0
M  V30 9252 C 860.06 -2.91257 -4.33551 0
M  V30 9253 H 861.754 -1.89316 -2.31948 0
M  V30 9254 H 859.3 -0.911655 -1.11467 0
M  V30 9255 H 861.253 -0.343243 -4.2 0
M  V30 9256 H 859.977 0.441049 -3.23608 0
M  V30 9257 H 858.636 -1.6914 -3.2525 0
M  V30 9258 H 858.284 0.0324763 -5.0299 0
M  V30 9259 H 857.984 -1.60999 -5.65113 0
M  V30 9260 H 859.508 -0.770614 -6.05718 0
M  V30 9261 H 860.922 -2.78642 -5.0103 0
M  V30 9262 H 859.319 -3.55745 -4.83286 0
M  V30 9263 H 860.389 -3.43269 -3.42483 0
M  V30 9264 N 861.732 1.21287 -1.00634 0
M  V30 9265 C 862.662 2.25973 -0.588089 0
M  V30 9266 C 863.643 1.65527 0.391764 0
M  V30 9267 O 864.828 1.92179 0.279452 0
M  V30 9268 C 861.958 3.47197 0.0847336 0
M  V30 9269 C 860.912 4.20168 -0.815039 0
M  V30 9270 C 860.238 5.34699 -0.00855393 0
M  V30 9271 C 861.538 4.77416 -2.11828 0
M  V30 9272 H 863.232 2.61212 -1.46317 0
M  V30 9273 H 860.778 1.25563 -0.704985 0
M  V30 9274 H 862.731 4.19602 0.388821 0
M  V30 9275 H 861.455 3.11092 0.994456 0
M  V30 9276 H 860.114 3.49614 -1.10297 0
M  V30 9277 H 859.762 4.94837 0.902499 0
M  V30 9278 H 859.462 5.84449 -0.607664 0
M  V30 9279 H 860.986 6.09914 0.289317 0
M  V30 9280 H 862.4 5.41694 -1.87725 0
M  V30 9281 H 860.797 5.37561 -2.66736 0
M  V30 9282 H 861.867 3.96724 -2.78816 0
M  V30 9283 N 863.21 0.781244 1.36873 0
M  V30 9284 C 864.16 0.147313 2.27524 0
M  V30 9285 C 865.144 -0.663928 1.46563 0
M  V30 9286 O 866.336 -0.525343 1.69024 0
M  V30 9287 C 863.465 -0.723511 3.35589 0
M  V30 9288 C 862.551 0.0960763 4.23991 0
M  V30 9289 N 862.942 1.14649 4.92635 0
M  V30 9290 C 861.24 -0.126397 4.45821 0
M  V30 9291 C 861.941 1.64474 5.57964 0
M  V30 9292 N 860.917 0.955316 5.3514 0
M  V30 9293 H 864.719 0.951406 2.78075 0
M  V30 9294 H 862.233 0.619913 1.50103 0
M  V30 9295 H 864.23 -1.19351 3.99451 0
M  V30 9296 H 862.89 -1.52624 2.86594 0
M  V30 9297 H 863.901 1.5288 4.94821 0
M  V30 9298 H 860.578 -0.900284 4.07678 0
M  V30 9299 H 861.968 2.52124 6.22803 0
M  V30 9300 N 864.689 -1.48329 0.532571 0
M  V30 9301 C 865.938 -2.017 -0.00259705 0
M  V30 9302 C 866.251 -1.41469 -1.35077 0
M  V30 9303 O 867.457 -1.86354 -1.97445 0
M  V30 9304 C 865.913 -3.59858 -0.0550179 0
M  V30 9305 C 865.521 -4.29073 1.28842 0
M  V30 9306 C 867.265 -4.21066 -0.538878 0
M  V30 9307 C 865.172 -5.79171 1.19644 0
M  V30 9308 H 864.102 -0.753985 -0.00474081 0
M  V30 9309 H 866.753 -1.70565 0.676739 0
M  V30 9310 H 865.135 -3.87846 -0.799486 0
M  V30 9311 H 866.309 -4.12755 2.04865 0
M  V30 9312 H 864.624 -3.79748 1.70822 0
M  V30 9313 H 867.221 -5.31026 -0.6257 0
M  V30 9314 H 867.564 -3.86559 -1.54525 0
M  V30 9315 H 868.097 -3.97517 0.149984 0
M  V30 9316 H 864.836 -6.18257 2.17805 0
M  V30 9317 H 864.356 -5.97895 0.477609 0
M  V30 9318 H 866.035 -6.40875 0.888186 0
M  V30 9319 N 866.167 -0.267825 -1.55308 0
M  V30 9320 C 867.414 0.351036 -1.99434 0
M  V30 9321 C 867.742 1.56406 -1.15618 0
M  V30 9322 O 866.997 1.94548 -0.212045 0
M  V30 9323 C 867.296 0.784247 -3.48689 0
M  V30 9324 C 866.962 -0.323328 -4.49739 0
M  V30 9325 C 865.624 -0.627467 -4.77091 0
M  V30 9326 C 867.976 -1.07002 -5.10098 0
M  V30 9327 C 865.304 -1.682 -5.62073 0
M  V30 9328 C 867.656 -2.11422 -5.96224 0
M  V30 9329 C 866.32 -2.42479 -6.21901 0
M  V30 9330 H 865.59 0.128453 -0.729781 0
M  V30 9331 H 868.237 -0.380018 -1.87692 0
M  V30 9332 H 866.542 1.59485 -3.57871 0
M  V30 9333 H 868.239 1.2737 -3.80234 0
M  V30 9334 H 864.829 -0.0761528 -4.28532 0
M  V30 9335 H 869.013 -0.848302 -4.88996 0
M  V30 9336 H 864.269 -1.92772 -5.80215 0
M  V30 9337 H 868.443 -2.69759 -6.4203 0
M  V30 9338 H 866.07 -3.24328 -6.87543 0
M  V30 9339 N 867.645 1.57599 0.00500368 0
M  V30 9340 C 868.875 1.94344 0.700998 0
M  V30 9341 C 869.283 0.868011 1.68114 0
M  V30 9342 O 868.626 -0.16214 1.82983 0
M  V30 9343 C 868.688 3.27046 1.49268 0
M  V30 9344 C 868.352 4.51992 0.674684 0
M  V30 9345 C 869.349 5.19888 -0.0354833 0
M  V30 9346 C 867.034 4.98432 0.622129 0
M  V30 9347 C 869.028 6.3252 -0.787246 0
M  V30 9348 C 866.715 6.10954 -0.133362 0
M  V30 9349 C 867.713 6.77855 -0.836788 0
M  V30 9350 O 867.401 7.88221 -1.57996 0
M  V30 9351 H 867.133 0.645572 0.20053 0
M  V30 9352 H 869.687 2.0536 -0.040718 0
M  V30 9353 H 867.917 3.12424 2.27877 0
M  V30 9354 H 869.606 3.4894 2.07355 0
M  V30 9355 H 870.372 4.85 -0.00400159 0
M  V30 9356 H 866.251 4.46189 1.15917 0
M  V30 9357 H 869.795 6.84671 -1.33683 0
M  V30 9358 H 865.692 6.45285 -0.166682 0
M  V30 9359 H 866.46 8.0471 -1.49615 0
M  V30 9360 N 869.123 -0.277682 1.55134 0
M  V30 9361 C 870.055 -1.36531 1.84098 0
M  V30 9362 C 871.068 -1.45756 0.725194 0
M  V30 9363 O 872.257 -1.47656 1.00299 0
M  V30 9364 C 869.357 -2.74701 1.98476 0
M  V30 9365 C 868.53 -2.88125 3.29094 0
M  V30 9366 C 867.589 -4.0694 3.33596 0
M  V30 9367 O 866.615 -3.9792 4.06999 0
M  V30 9368 N 867.817 -5.18687 2.60661 0
M  V30 9369 H 870.582 -1.12032 2.77973 0
M  V30 9370 H 868.143 -0.467793 1.54995 0
M  V30 9371 H 870.135 -3.52471 1.98863 0
M  V30 9372 H 868.705 -2.92043 1.11488 0
M  V30 9373 H 867.925 -1.97277 3.41285 0
M  V30 9374 H 869.213 -2.94021 4.15246 0
M  V30 9375 H 868.611 -5.28901 2.00699 0
M  V30 9376 H 867.168 -5.94705 2.66776 0
M  V30 9377 N 870.601 -1.47988 -0.541979 0
M  V30 9378 C 871.531 -1.64503 -1.65713 0
M  V30 9379 C 872.512 -0.494116 -1.62765 0
M  V30 9380 O 873.697 -0.725256 -1.80149 0
M  V30 9381 C 870.827 -1.67337 -3.04328 0
M  V30 9382 C 869.781 -2.81809 -3.2213 0
M  V30 9383 C 869.107 -2.69724 -4.61685 0
M  V30 9384 C 870.407 -4.23241 -3.06046 0
M  V30 9385 H 872.101 -2.5786 -1.52147 0
M  V30 9386 H 869.647 -1.24094 -0.730529 0
M  V30 9387 H 871.6 -1.77481 -3.82202 0
M  V30 9388 H 870.324 -0.705514 -3.18889 0
M  V30 9389 H 868.983 -2.71201 -2.46669 0
M  V30 9390 H 868.631 -1.70934 -4.73065 0
M  V30 9391 H 868.331 -3.4653 -4.74543 0
M  V30 9392 H 869.855 -2.81818 -5.41674 0
M  V30 9393 H 871.269 -4.34746 -3.73723 0
M  V30 9394 H 869.666 -5.00952 -3.30405 0
M  V30 9395 H 870.736 -4.40543 -2.02609 0
M  V30 9396 N 872.079 0.78992 -1.36375 0
M  V30 9397 C 873.009 1.91683 -1.33341 0
M  V30 9398 C 873.99 1.68861 -0.204965 0
M  V30 9399 O 875.175 1.89982 -0.402531 0
M  V30 9400 C 872.305 3.28696 -1.12143 0
M  V30 9401 C 871.259 3.66041 -2.21806 0
M  V30 9402 C 870.585 5.01399 -1.85751 0
M  V30 9403 C 871.885 3.74677 -3.63888 0
M  V30 9404 H 873.579 1.94478 -2.27637 0
M  V30 9405 H 871.125 0.934271 -1.09578 0
M  V30 9406 H 873.078 4.07151 -1.08656 0
M  V30 9407 H 871.802 3.26287 -0.142974 0
M  V30 9408 H 870.461 2.89883 -2.24418 0
M  V30 9409 H 870.109 4.9551 -0.864817 0
M  V30 9410 H 869.809 5.27355 -2.59173 0
M  V30 9411 H 871.333 5.82274 -1.83819 0
M  V30 9412 H 872.747 4.43324 -3.63506 0
M  V30 9413 H 871.144 4.12118 -4.3621 0
M  V30 9414 H 872.214 2.75795 -3.9883 0
M  V30 9415 N 873.557 1.20646 1.01402 0
M  V30 9416 C 874.487 0.98155 2.11867 0
M  V30 9417 C 875.468 -0.0903712 1.6986 0
M  V30 9418 O 876.653 0.0676586 1.94082 0
M  V30 9419 C 873.783 0.535636 3.43145 0
M  V30 9420 C 872.737 1.55109 3.98905 0
M  V30 9421 C 872.063 0.961725 5.2598 0
M  V30 9422 C 873.363 2.93552 4.32001 0
M  V30 9423 H 875.057 1.90544 2.3094 0
M  V30 9424 H 872.603 0.917554 1.10982 0
M  V30 9425 H 874.556 0.365512 4.19812 0
M  V30 9426 H 873.28 -0.423882 3.23838 0
M  V30 9427 H 871.939 1.70862 3.24348 0
M  V30 9428 H 871.587 -0.00580108 5.03 0
M  V30 9429 H 871.287 1.63993 5.64252 0
M  V30 9430 H 872.811 0.802726 6.053 0
M  V30 9431 H 874.225 2.81295 4.99546 0
M  V30 9432 H 872.622 3.58303 4.81393 0
M  V30 9433 H 873.692 3.4508 3.40658 0
M  V30 9434 N 875.035 -1.20752 1.01276 0
M  V30 9435 C 876.446 -1.7175 0.732033 0
M  V30 9436 C 876.797 -1.8131 -0.749733 0
M  V30 9437 O 875.922 -1.47301 -1.58529 0
M  V30 9438 C 876.517 -3.11936 1.32217 0
M  V30 9439 C 875.076 -3.6026 1.09039 0
M  V30 9440 C 874.223 -2.37571 1.43022 0
M  V30 9441 H 877.174 -1.0582 1.1827 0
M  V30 9442 H 877.195 -3.73802 0.710771 0
M  V30 9443 H 876.707 -3.04946 2.40061 0
M  V30 9444 H 874.808 -3.72588 0.0294464 0
M  V30 9445 H 874.921 -4.45295 1.76775 0
M  V30 9446 H 873.285 -2.40128 0.849159 0
M  V30 9447 H 874.068 -2.33225 2.51915 0
M  V30 9448 N 876.513 -0.788492 -1.36457 0
M  V30 9449 C 877.761 -0.359749 -1.98872 0
M  V30 9450 C 878.082 1.07197 -1.62892 0
M  V30 9451 O 877.352 1.73875 -0.902463 0
M  V30 9452 H 875.932 -0.130029 -0.735596 0
M  V30 9453 H 878.594 -1.01033 -1.66668 0
M  V30 9454 H 877.69 -0.450835 -3.08827 0
M  V30 9455 N 877.991 1.48044 -0.54043 0
M  V30 9456 C 879.239 2.02097 -0.0101367 0
M  V30 9457 C 879.56 1.41881 1.33771 0
M  V30 9458 O 878.83 0.587923 1.8687 0
M  V30 9459 H 877.41 0.747 -0.000758716 0
M  V30 9460 H 880.072 1.81639 -0.706634 0
M  V30 9461 H 879.168 3.11969 0.0904474 0
M  V30 9462 N 879.47 0.276058 1.55163 0
M  V30 9463 C 880.71 -0.341634 2.01525 0
M  V30 9464 C 881.074 -1.52979 1.16023 0
M  V30 9465 O 882.275 -2.21718 1.51968 0
M  V30 9466 C 880.546 -0.713294 3.5021 0
M  V30 9467 S 882.105 -1.31739 4.18558 0
M  V30 9468 H 878.923 -0.1062 0.703024 0
M  V30 9469 H 881.525 0.398112 1.91404 0
M  V30 9470 H 880.229 0.160311 4.10087 0
M  V30 9471 H 879.76 -1.48448 3.64317 0
M  V30 9472 H 881.775 -2.60595 4.22261 0
M  V30 9473 N 880.948 -1.576 0.00335426 0
M  V30 9474 C 881.878 -2.11668 -0.985839 0
M  V30 9475 C 882.859 -1.02661 -1.35627 0
M  V30 9476 O 884.044 -1.30361 -1.43943 0
M  V30 9477 C 881.174 -2.62273 -2.27662 0
M  V30 9478 C 880.128 -3.75837 -2.0477 0
M  V30 9479 C 879.454 -4.12769 -3.39891 0
M  V30 9480 C 880.754 -5.02975 -1.40759 0
M  V30 9481 H 882.448 -2.9457 -0.535637 0
M  V30 9482 H 879.994 -1.41702 -0.256204 0
M  V30 9483 H 881.947 -2.98727 -2.97221 0
M  V30 9484 H 880.671 -1.76498 -2.74802 0
M  V30 9485 H 879.33 -3.39782 -1.37636 0
M  V30 9486 H 878.978 -3.24013 -3.8474 0
M  V30 9487 H 878.678 -4.89281 -3.25389 0
M  V30 9488 H 880.202 -4.51784 -4.1076 0
M  V30 9489 H 881.616 -5.37179 -2.00279 0
M  V30 9490 H 880.013 -5.84315 -1.36734 0
M  V30 9491 H 881.083 -4.83431 -0.377218 0
M  V30 9492 N 882.426 0.269451 -1.5528 0
M  V30 9493 C 883.389 1.31642 -1.87625 0
M  V30 9494 C 884.389 1.42182 -0.751058 0
M  V30 9495 O 885.579 1.41272 -1.01921 0
M  V30 9496 C 882.711 2.6973 -2.08467 0
M  V30 9497 H 883.904 1.0419 -2.81219 0
M  V30 9498 H 881.457 0.507685 -1.47825 0
M  V30 9499 H 882.192 3.02356 -1.17266 0
M  V30 9500 H 881.977 2.63465 -2.90394 0
M  V30 9501 H 883.467 3.4537 -2.34753 0
M  V30 9502 N 883.904 1.48273 0.534124 0
M  V30 9503 C 885.144 1.57674 1.3007 0
M  V30 9504 C 885.508 0.243256 1.90453 0
M  V30 9505 O 886.709 0.212231 2.67961 0
M  V30 9506 C 884.98 2.68044 2.36405 0
M  V30 9507 S 886.539 2.97183 3.22843 0
M  V30 9508 H 883.357 0.55652 0.442501 0
M  V30 9509 H 885.959 1.85774 0.60896 0
M  V30 9510 H 884.663 3.63498 1.90518 0
M  V30 9511 H 884.194 2.41833 3.10291 0
M  V30 9512 H 886.209 2.36164 4.36396 0
M  V30 9513 N 885.382 -0.782676 1.36792 0
M  V30 9514 C 886.659 -1.52939 1.21939 0
M  V30 9515 C 887.039 -2.10228 -0.191639 0
M  V30 9516 O 886.387 -1.94574 -1.19805 0
M  V30 9517 C 886.597 -2.61898 2.30674 0
M  V30 9518 C 887.945 -3.29598 2.67676 0
M  V30 9519 O 888.969 -2.72186 2.29768 0
M  V30 9520 O 887.828 -4.3337 3.32946 0
M  V30 9521 H 884.922 -0.676856 0.47518 0
M  V30 9522 H 887.468 -0.82058 1.48542 0
M  V30 9523 H 886.24 -2.17607 3.25212 0
M  V30 9524 H 885.863 -3.40391 2.05475 0
M  V30 9525 N 886.86 -1.21182 -1.00761 0
M  V30 9526 C 887.808 -0.965728 -2.11604 0
M  V30 9527 C 888.802 0.0861028 -1.69181 0
M  V30 9528 O 890.008 -0.0650558 -1.79882 0
M  V30 9529 H 886.383 -0.295023 -0.691712 0
M  V30 9530 H 888.354 -1.90667 -2.2954 0
M  V30 9531 C 887.103 -0.544164 -3.43415 0
M  V30 9532 H 886.426 -1.34515 -3.76491 0
M  V30 9533 H 887.866 -0.411268 -4.22001 0
M  V30 9534 C 886.325 0.744583 -3.28569 0
M  V30 9535 O 886.855 1.80078 -3.59075 0
M  V30 9536 N 885.061 0.710083 -2.81791 0
M  V30 9537 H 884.608 -0.14971 -2.57165 0
M  V30 9538 H 884.566 1.57268 -2.72239 0
M  V30 9539 N 888.338 1.20213 -1.01915 0
M  V30 9540 C 889.288 2.20957 -0.562327 0
M  V30 9541 C 890.272 1.56258 0.383704 0
M  V30 9542 O 891.464 1.75794 0.206255 0
M  V30 9543 C 888.593 3.43167 0.0954035 0
M  V30 9544 C 887.679 4.15028 -0.872487 0
M  V30 9545 N 888.07 4.63231 -2.03103 0
M  V30 9546 C 886.368 4.4057 -0.69385 0
M  V30 9547 C 887.069 5.18307 -2.64069 0
M  V30 9548 N 886.045 5.08522 -1.9211 0
M  V30 9549 H 889.847 2.55894 -1.44553 0
M  V30 9550 H 887.361 1.36178 -0.884831 0
M  V30 9551 H 889.358 4.14569 0.440232 0
M  V30 9552 H 888.018 3.09734 0.974413 0
M  V30 9553 H 889.029 4.58365 -2.41086 0
M  V30 9554 H 885.706 4.17276 0.136889 0
M  V30 9555 H 887.096 5.65961 -3.6213 0
M  V30 9556 N 889.816 0.795718 1.36037 0
M  V30 9557 C 890.779 0.204318 2.28287 0
M  V30 9558 C 891.779 -0.602017 1.49105 0
M  V30 9559 O 892.969 -0.422089 1.69009 0
M  V30 9560 C 890.101 -0.716431 3.33287 0
M  V30 9561 H 891.294 1.01781 2.821 0
M  V30 9562 H 888.847 0.565588 1.45708 0
M  V30 9563 H 889.582 -1.55403 2.84641 0
M  V30 9564 H 889.367 -0.140096 3.9185 0
M  V30 9565 H 890.857 -1.12488 4.02164 0
M  V30 9566 N 891.294 -1.47756 0.548274 0
M  V30 9567 C 892.224 -2.32702 -0.19284 0
M  V30 9568 C 893.205 -1.43237 -0.917457 0
M  V30 9569 O 894.39 -1.72103 -0.89967 0
M  V30 9570 C 891.52 -3.24831 -1.22891 0
M  V30 9571 C 890.474 -4.23466 -0.621312 0
M  V30 9572 C 889.8 -5.04856 -1.76137 0
M  V30 9573 C 891.1 -5.20616 0.419055 0
M  V30 9574 H 892.794 -2.94914 0.516323 0
M  V30 9575 H 890.34 -1.41818 0.24975 0
M  V30 9576 H 892.293 -3.83094 -1.75547 0
M  V30 9577 H 891.017 -2.60656 -1.9679 0
M  V30 9578 H 889.676 -3.66416 -0.116123 0
M  V30 9579 H 889.324 -4.37091 -2.48918 0
M  V30 9580 H 889.024 -5.71629 -1.36065 0
M  V30 9581 H 890.548 -5.65976 -2.29136 0
M  V30 9582 H 891.962 -5.73296 -0.0211034 0
M  V30 9583 H 890.359 -5.95543 0.738163 0
M  V30 9584 H 891.429 -4.66638 1.31822 0
M  V30 9585 N 892.772 -0.284283 -1.55015 0
M  V30 9586 C 893.704 0.63258 -2.20298 0
M  V30 9587 C 894.717 1.11045 -1.1905 0
M  V30 9588 O 895.906 1.03078 -1.4573 0
M  V30 9589 C 893.006 1.87599 -2.82241 0
M  V30 9590 C 892.179 1.5434 -4.09265 0
M  V30 9591 C 891.238 2.64023 -4.55169 0
M  V30 9592 O 890.264 2.29821 -5.20741 0
M  V30 9593 N 891.466 3.94255 -4.26079 0
M  V30 9594 H 894.231 0.0737928 -2.99609 0
M  V30 9595 H 891.792 -0.105767 -1.61554 0
M  V30 9596 H 893.784 2.60289 -3.0989 0
M  V30 9597 H 892.354 2.3436 -2.06868 0
M  V30 9598 H 891.574 0.649912 -3.88806 0
M  V30 9599 H 892.862 1.29634 -4.92009 0
M  V30 9600 H 892.26 4.24859 -3.73512 0
M  V30 9601 H 890.817 4.63295 -4.58477 0
M  V30 9602 N 894.251 1.57596 -0.0117121 0
M  V30 9603 C 895.161 2.12596 0.991964 0
M  V30 9604 C 896.177 1.07399 1.36899 0
M  V30 9605 O 897.353 1.39365 1.45394 0
M  V30 9606 C 894.418 2.62796 2.2614 0
M  V30 9607 C 893.479 3.8264 1.94642 0
M  V30 9608 C 892.712 4.30435 3.15533 0
M  V30 9609 O 892.935 3.77495 4.27614 0
M  V30 9610 O 891.869 5.22469 2.98847 0
M  V30 9611 H 895.695 2.98597 0.554371 0
M  V30 9612 H 893.28 1.47947 0.207839 0
M  V30 9613 H 895.162 2.9523 3.00695 0
M  V30 9614 H 893.837 1.79886 2.69114 0
M  V30 9615 H 892.744 3.5516 1.17526 0
M  V30 9616 H 894.077 4.66658 1.56496 0
M  V30 9617 N 895.729 -0.261212 1.5542 0
M  V30 9618 C 896.692 -1.30645 1.8832 0
M  V30 9619 C 897.692 -1.41782 0.758588 0
M  V30 9620 O 898.882 -1.40729 1.02669 0
M  V30 9621 C 896.014 -2.6862 2.09895 0
M  V30 9622 H 897.207 -1.02698 2.81768 0
M  V30 9623 H 894.76 -0.499838 1.48092 0
M  V30 9624 H 895.495 -3.0173 1.18868 0
M  V30 9625 H 895.28 -2.61921 2.91787 0
M  V30 9626 H 896.77 -3.44121 2.36581 0
M  V30 9627 N 897.207 -1.48554 -0.526253 0
M  V30 9628 C 898.157 -1.59753 -1.62674 0
M  V30 9629 C 899.141 -0.454452 -1.54349 0
M  V30 9630 O 900.333 -0.706091 -1.62306 0
M  V30 9631 C 897.462 -1.64388 -3.01383 0
M  V30 9632 C 896.548 -2.84188 -3.14798 0
M  V30 9633 N 896.939 -4.08564 -2.98176 0
M  V30 9634 C 895.237 -2.81599 -3.45859 0
M  V30 9635 C 895.938 -4.88961 -3.15106 0
M  V30 9636 N 894.914 -4.21848 -3.42849 0
M  V30 9637 H 898.716 -2.5366 -1.48438 0
M  V30 9638 H 896.23 -1.44977 -0.731801 0
M  V30 9639 H 898.227 -1.70505 -3.80439 0
M  V30 9640 H 896.887 -0.716006 -3.16707 0
M  V30 9641 H 897.898 -4.38943 -2.74862 0
M  V30 9642 H 894.575 -1.98083 -3.67518 0
M  V30 9643 H 895.965 -5.97683 -3.0696 0
M  V30 9644 N 898.685 0.775411 -1.37205 0
M  V30 9645 C 899.615 1.90258 -1.35367 0
M  V30 9646 C 900.596 1.68634 -0.222864 0
M  V30 9647 O 901.781 1.89545 -0.422659 0
M  V30 9648 C 898.911 3.27488 -1.15623 0
M  V30 9649 C 897.865 3.63668 -2.25676 0
M  V30 9650 C 897.191 4.994 -1.91059 0
M  V30 9651 C 898.491 3.70797 -3.67841 0
M  V30 9652 H 900.185 1.92053 -2.29687 0
M  V30 9653 H 897.731 0.922597 -1.10563 0
M  V30 9654 H 899.684 4.05976 -1.12968 0
M  V30 9655 H 898.408 3.26117 -0.177573 0
M  V30 9656 H 897.067 2.87486 -2.2748 0
M  V30 9657 H 896.715 4.94565 -0.917324 0
M  V30 9658 H 896.415 5.24576 -2.64751 0
M  V30 9659 H 897.939 5.80291 -1.89985 0
M  V30 9660 H 899.353 4.39444 -3.68187 0
M  V30 9661 H 897.75 4.07468 -4.40556 0
M  V30 9662 H 898.82 2.71549 -4.01732 0
M  V30 9663 N 900.163 1.21714 1.00117 0
M  V30 9664 C 901.403 1.04818 1.75478 0
M  V30 9665 C 901.767 -0.410653 1.87557 0
M  V30 9666 O 902.968 -0.700241 2.59519 0
M  V30 9667 C 901.239 1.73055 3.12709 0
M  V30 9668 S 902.798 1.71464 4.03913 0
M  V30 9669 H 899.616 0.375534 0.603734 0
M  V30 9670 H 902.218 1.54522 1.19763 0
M  V30 9671 H 900.922 2.78376 3.01554 0
M  V30 9672 H 900.453 1.23546 3.73497 0
M  V30 9673 H 902.468 0.75845 4.90369 0
M  V30 9674 N 901.641 -1.19671 1.02551 0
M  V30 9675 C 902.571 -2.25009 0.623965 0
M  V30 9676 C 903.552 -1.66129 -0.36538 0
M  V30 9677 O 904.737 -1.92599 -0.248842 0
M  V30 9678 C 901.867 -3.47287 -0.0294869 0
M  V30 9679 C 900.821 -4.18818 0.881781 0
M  V30 9680 C 900.147 -5.34618 0.0936189 0
M  V30 9681 C 901.447 -4.73986 2.19396 0
M  V30 9682 H 903.141 -2.58851 1.50454 0
M  V30 9683 H 900.687 -1.24425 0.724872 0
M  V30 9684 H 902.64 -4.20168 -0.322016 0
M  V30 9685 H 901.364 -3.12635 -0.944838 0
M  V30 9686 H 900.023 -3.47815 1.15845 0
M  V30 9687 H 899.671 -4.9621 -0.823661 0
M  V30 9688 H 899.371 -5.83409 0.700568 0
M  V30 9689 H 900.895 -6.10297 -0.192249 0
M  V30 9690 H 902.309 -5.38639 1.96319 0
M  V30 9691 H 900.706 -5.3325 2.75254 0
M  V30 9692 H 901.776 -3.92238 2.85092 0
M  V30 9693 N 903.119 -0.802921 -1.35613 0
M  V30 9694 C 904.066 -0.20874 -2.29854 0
M  V30 9695 C 905.036 0.655128 -1.52634 0
M  V30 9696 O 906.221 0.600979 -1.81088 0
M  V30 9697 C 903.361 0.639663 -3.3912 0
M  V30 9698 C 902.474 -0.244234 -4.31309 0
M  V30 9699 C 901.609 0.611825 -5.27665 0
M  V30 9700 C 900.648 -0.272698 -6.11492 0
M  V30 9701 N 899.785 0.543122 -6.99996 0
M  V30 9702 H 904.625 -1.01782 -2.80079 0
M  V30 9703 H 902.162 -0.513465 -1.37848 0
M  V30 9704 H 904.12 1.14668 -4.01132 0
M  V30 9705 H 902.75 1.41404 -2.9018 0
M  V30 9706 H 901.802 -0.869322 -3.70334 0
M  V30 9707 H 903.114 -0.925202 -4.90144 0
M  V30 9708 H 902.268 1.18412 -5.95032 0
M  V30 9709 H 901.007 1.32637 -4.69317 0
M  V30 9710 H 900.012 -0.857287 -5.43075 0
M  V30 9711 H 901.237 -0.985051 -6.71918 0
M  V30 9712 H 899.183 1.24171 -6.44141 0
M  V30 9713 H 899.1 -0.0798767 -7.55958 0
M  V30 9714 H 900.368 1.09881 -7.71717 0
M  V30 9715 N 904.597 1.47463 -0.556102 0
M  V30 9716 C 906.013 1.58134 -0.21579 0
M  V30 9717 C 906.213 1.55486 1.28166 0
M  V30 9718 O 905.269 1.45768 2.06174 0
M  V30 9719 C 906.582 2.88686 -0.841464 0
M  V30 9720 C 908.13 3.02268 -0.812591 0
M  V30 9721 C 908.605 4.35518 -1.41731 0
M  V30 9722 N 910.096 4.42151 -1.38045 0
M  V30 9723 C 910.831 5.43817 -1.81799 0
M  V30 9724 N 910.327 6.52299 -2.33404 0
M  V30 9725 N 912.12 5.34855 -1.72877 0
M  V30 9726 H 904.271 1.47428 -1.52901 0
M  V30 9727 H 906.534 0.701586 -0.637559 0
M  V30 9728 H 906.24 2.96358 -1.8938 0
M  V30 9729 H 906.114 3.7572 -0.333846 0
M  V30 9730 H 908.501 2.94194 0.231056 0
M  V30 9731 H 908.582 2.16779 -1.35796 0
M  V30 9732 H 908.226 4.44348 -2.46002 0
M  V30 9733 H 908.156 5.19737 -0.847402 0
M  V30 9734 H 910.647 3.64348 -1.00296 0
M  V30 9735 H 910.96 7.26047 -2.64717 0
M  V30 9736 H 909.305 6.53192 -2.37414 0
M  V30 9737 H 912.496 4.49004 -1.32338 0
M  V30 9738 H 912.669 6.13949 -2.07294 0
M  V30 9739 N 906.075 0.2925 1.54862 0
M  V30 9740 C 907.025 -0.60226 2.19902 0
M  V30 9741 C 908.009 -1.10535 1.16923 0
M  V30 9742 O 909.201 -1.04753 1.42674 0
M  V30 9743 C 906.33 -1.77774 2.93686 0
M  V30 9744 C 905.416 -1.29101 4.03972 0
M  V30 9745 N 905.807 -0.521671 5.03103 0
M  V30 9746 C 904.105 -1.57248 4.17359 0
M  V30 9747 C 904.806 -0.263545 5.81103 0
M  V30 9748 N 903.782 -0.840937 5.37056 0
M  V30 9749 H 907.584 -0.00682274 2.93899 0
M  V30 9750 H 905.098 0.0968604 1.62111 0
M  V30 9751 H 907.095 -2.43021 3.38743 0
M  V30 9752 H 905.755 -2.37696 2.21203 0
M  V30 9753 H 906.766 -0.167364 5.1763 0
M  V30 9754 H 903.443 -2.1798 3.56077 0
M  V30 9755 H 904.833 0.353783 6.70968 0
M  V30 9756 N 907.553 -1.57587 0.0200696 0
M  V30 9757 C 908.783 -1.95435 -0.669991 0
M  V30 9758 C 909.191 -0.894647 -1.66711 0
M  V30 9759 O 908.534 0.133009 -1.83218 0
M  V30 9760 C 908.596 -3.29379 -1.44047 0
M  V30 9761 C 908.26 -4.53008 -0.602691 0
M  V30 9762 C 909.257 -5.19766 0.118188 0
M  V30 9763 C 906.942 -4.99359 -0.542754 0
M  V30 9764 C 908.936 -6.31187 0.887774 0
M  V30 9765 C 906.623 -6.10665 0.230543 0
M  V30 9766 C 907.621 -6.76438 0.944522 0
M  V30 9767 O 907.309 -7.85608 1.70516 0
M  V30 9768 H 907.041 -0.648681 -0.190234 0
M  V30 9769 H 909.595 -2.05269 0.0733838 0
M  V30 9770 H 907.825 -3.1601 -2.22878 0
M  V30 9771 H 909.514 -3.52194 -2.01777 0
M  V30 9772 H 910.28 -4.84932 0.0811604 0
M  V30 9773 H 906.159 -4.47976 -1.08804 0
M  V30 9774 H 909.703 -6.82458 1.44558 0
M  V30 9775 H 905.6 -6.44938 0.26932 0
M  V30 9776 H 906.368 -8.02228 1.62398 0
M  V30 9777 N 909.032 0.252966 -1.55557 0
M  V30 9778 C 909.995 1.29645 -1.8901 0
M  V30 9779 C 910.995 1.41378 -0.766096 0
M  V30 9780 O 912.185 1.40183 -1.03414 0
M  V30 9781 C 909.317 2.67504 -2.11316 0
M  V30 9782 H 910.51 1.01202 -2.82309 0
M  V30 9783 H 908.063 0.491977 -1.48355 0
M  V30 9784 H 908.798 3.01095 -1.20466 0
M  V30 9785 H 908.583 2.6037 -2.93172 0
M  V30 9786 H 910.073 3.42861 -2.38403 0
M  V30 9787 N 910.51 1.48831 0.518367 0
M  V30 9788 C 911.473 1.63721 1.604 0
M  V30 9789 C 912.473 0.509857 1.52503 0
M  V30 9790 O 913.663 0.775922 1.55965 0
M  V30 9791 C 910.795 1.61831 3.00039 0
M  V30 9792 H 911.988 2.60534 1.48533 0
M  V30 9793 H 909.541 1.37602 0.741309 0
M  V30 9794 H 910.276 0.665387 3.17401 0
M  V30 9795 H 910.061 2.43686 3.0718 0
M  V30 9796 H 911.551 1.75467 3.78947 0
M  V30 9797 N 911.988 -0.768124 1.37614 0
M  V30 9798 C 913.235 -1.5268 1.33022 0
M  V30 9799 C 913.563 -1.94318 -0.0841918 0
M  V30 9800 O 912.818 -1.64623 -1.0582 0
M  V30 9801 C 913.117 -2.80204 2.21856 0
M  V30 9802 C 912.783 -2.57602 3.7007 0
M  V30 9803 C 911.445 -2.51146 4.10462 0
M  V30 9804 C 913.797 -2.37482 4.63952 0
M  V30 9805 C 911.125 -2.22566 5.42846 0
M  V30 9806 C 913.477 -2.10425 5.96577 0
M  V30 9807 C 912.141 -2.02416 6.36069 0
M  V30 9808 H 911.411 -0.558697 0.486763 0
M  V30 9809 H 914.058 -0.88447 1.69851 0
M  V30 9810 H 912.363 -3.49014 1.78034 0
M  V30 9811 H 914.06 -3.38099 2.15615 0
M  V30 9812 H 910.65 -2.63491 3.38039 0
M  V30 9813 H 914.834 -2.41457 4.33604 0
M  V30 9814 H 910.09 -2.14863 5.72402 0
M  V30 9815 H 914.264 -1.93857 6.68874 0
M  V30 9816 H 911.891 -1.80034 7.38574 0
M  V30 9817 N 913.466 -1.22244 -0.994698 0
M  V30 9818 C 914.877 -1.043 -1.5485 0
M  V30 9819 C 915.228 0.394102 -1.92201 0
M  V30 9820 O 914.353 1.27883 -1.74571 0
M  V30 9821 C 914.948 -1.88708 -2.8138 0
M  V30 9822 C 913.507 -1.75067 -3.3321 0
M  V30 9823 C 912.654 -1.85286 -2.06312 0
M  V30 9824 H 915.605 -1.36115 -0.815988 0
M  V30 9825 H 915.626 -1.40342 -3.53673 0
M  V30 9826 H 915.138 -2.93296 -2.54164 0
M  V30 9827 H 913.239 -0.732047 -3.65338 0
M  V30 9828 H 913.352 -2.57632 -4.03934 0
M  V30 9829 H 911.716 -1.28706 -2.19788 0
M  V30 9830 H 912.499 -2.91401 -1.81494 0
M  V30 9831 N 914.944 1.19125 -1.03184 0
M  V30 9832 C 915.874 2.24675 -0.635889 0
M  V30 9833 C 916.855 1.66321 0.356565 0
M  V30 9834 O 918.04 1.92728 0.238625 0
M  V30 9835 C 915.17 3.47298 0.011069 0
M  V30 9836 C 914.124 4.18345 -0.903979 0
M  V30 9837 C 913.45 5.34561 -0.12197 0
M  V30 9838 C 914.75 4.72816 -2.21907 0
M  V30 9839 H 916.444 2.5805 -1.51825 0
M  V30 9840 H 913.99 1.24039 -0.73146 0
M  V30 9841 H 915.943 4.20333 0.299729 0
M  V30 9842 H 914.667 3.13131 0.928245 0
M  V30 9843 H 913.326 3.47196 -1.17688 0
M  V30 9844 H 912.974 4.9664 0.797334 0
M  V30 9845 H 912.674 5.83029 -0.731498 0
M  V30 9846 H 914.198 6.10391 0.159881 0
M  V30 9847 H 915.612 5.3759 -1.99173 0
M  V30 9848 H 914.009 5.31782 -2.78078 0
M  V30 9849 H 915.079 3.9072 -2.87168 0
M  V30 9850 N 916.422 0.810101 1.35185 0
M  V30 9851 C 917.833 0.452616 1.81131 0
M  V30 9852 C 918.184 -1.02573 1.67252 0
M  V30 9853 O 917.309 -1.79735 1.20516 0
M  V30 9854 C 917.904 0.814775 3.28857 0
M  V30 9855 C 916.463 0.509839 3.72931 0
M  V30 9856 C 915.61 1.03852 2.57119 0
M  V30 9857 H 918.561 1.00143 1.23114 0
M  V30 9858 H 918.582 0.113635 3.8033 0
M  V30 9859 H 918.094 1.89078 3.38926 0
M  V30 9860 H 916.195 -0.557289 3.68409 0
M  V30 9861 H 916.308 1.04493 4.67566 0
M  V30 9862 H 914.672 0.460671 2.50499 0
M  V30 9863 H 915.455 2.12071 2.69964 0
M  V30 9864 N 917.9 -1.47166 0.563914 0
M  V30 9865 C 919.125 -2.0735 0.0454698 0
M  V30 9866 C 919.55 -1.41281 -1.24182 0
M  V30 9867 O 918.908 -0.490084 -1.7455 0
M  V30 9868 C 918.956 -3.60378 -0.126453 0
M  V30 9869 O 918.06 -3.94934 -1.18746 0
M  V30 9870 H 917.401 -0.661773 0.0543377 0
M  V30 9871 H 919.931 -1.89086 0.781508 0
M  V30 9872 H 919.941 -4.06593 -0.338554 0
M  V30 9873 H 918.616 -4.07862 0.81373 0
M  V30 9874 H 917.193 -3.60455 -0.955318 0
M  V30 9875 N 919.378 -0.300708 -1.54705 0
M  V30 9876 C 920.794 0.0526874 -1.59513 0
M  V30 9877 C 920.994 1.52444 -1.31769 0
M  V30 9878 O 920.05 2.27716 -1.09096 0
M  V30 9879 C 921.363 -0.344989 -2.98714 0
M  V30 9880 C 922.911 -0.29373 -3.11619 0
M  V30 9881 C 923.386 -0.666225 -4.53129 0
M  V30 9882 N 924.877 -0.618749 -4.59049 0
M  V30 9883 C 925.612 -0.879447 -5.66616 0
M  V30 9884 N 925.108 -1.2061 -6.82221 0
M  V30 9885 N 926.901 -0.806528 -5.56284 0
M  V30 9886 H 919.052 -1.25988 -1.71 0
M  V30 9887 H 921.315 -0.510758 -0.798643 0
M  V30 9888 H 921.021 -1.36953 -3.2394 0
M  V30 9889 H 920.895 0.301507 -3.75993 0
M  V30 9890 H 923.282 0.72156 -2.86142 0
M  V30 9891 H 923.363 -0.974844 -2.36496 0
M  V30 9892 H 923.007 -1.67932 -4.79334 0
M  V30 9893 H 922.937 0.0369575 -5.26587 0
M  V30 9894 H 925.428 -0.377202 -3.76013 0
M  V30 9895 H 925.741 -1.391 -7.60178 0
M  V30 9896 H 924.086 -1.24413 -6.83774 0
M  V30 9897 H 927.277 -0.550993 -4.64846 0
M  V30 9898 H 927.45 -1.01307 -6.40032 0
M  V30 9899 N 920.856 1.57574 -0.0284266 0
M  V30 9900 C 922.084 1.96071 0.660575 0
M  V30 9901 C 922.499 0.904881 1.65703 0
M  V30 9902 O 921.856 -0.113379 1.82147 0
M  V30 9903 C 921.907 3.34634 1.36756 0
M  V30 9904 O 921.628 4.36167 0.411041 0
M  V30 9905 C 923.129 3.87758 2.14845 0
M  V30 9906 H 920.349 0.645794 0.182183 0
M  V30 9907 H 922.893 2.04311 -0.0879858 0
M  V30 9908 H 921.048 3.27616 2.06753 0
M  V30 9909 H 921.462 5.16493 0.913 0
M  V30 9910 H 922.936 4.87058 2.59767 0
M  V30 9911 H 923.413 3.21967 2.9872 0
M  V30 9912 H 924.019 3.98043 1.49807 0
M  V30 9913 N 922.334 -0.244713 1.55689 0
M  V30 9914 C 923.559 -0.994157 1.8202 0
M  V30 9915 C 923.984 -1.78079 0.60577 0
M  V30 9916 O 923.342 -1.75748 -0.445221 0
M  V30 9917 C 923.39 -1.90599 3.06111 0
M  V30 9918 O 922.494 -2.99804 2.8318 0
M  V30 9919 H 921.835 -0.282767 0.600782 0
M  V30 9920 H 924.365 -0.26504 2.02876 0
M  V30 9921 H 924.375 -2.32023 3.35603 0
M  V30 9922 H 923.05 -1.32763 3.9414 0
M  V30 9923 H 921.627 -2.62493 2.64862 0
M  V30 9924 N 923.813 -1.49104 -0.510467 0
M  V30 9925 C 925.06 -1.58112 -1.26518 0
M  V30 9926 C 925.388 -0.263603 -1.92705 0
M  V30 9927 O 924.643 0.747743 -1.80852 0
M  V30 9928 C 924.942 -2.68259 -2.36161 0
M  V30 9929 C 924.608 -4.10069 -1.87495 0
M  V30 9930 C 923.27 -4.48662 -1.73942 0
M  V30 9931 C 925.622 -4.98859 -1.5096 0
M  V30 9932 C 922.95 -5.73829 -1.22217 0
M  V30 9933 C 925.302 -6.24535 -1.00691 0
M  V30 9934 C 923.966 -6.61967 -0.857691 0
M  V30 9935 H 923.236 -0.578574 -0.462962 0
M  V30 9936 H 925.883 -1.82899 -0.567475 0
M  V30 9937 H 924.188 -2.37407 -3.11681 0
M  V30 9938 H 925.885 -2.7244 -2.9424 0
M  V30 9939 H 922.475 -3.79601 -1.99001 0
M  V30 9940 H 926.659 -4.69706 -1.60282 0
M  V30 9941 H 921.915 -6.01539 -1.09368 0
M  V30 9942 H 926.089 -6.9272 -0.71498 0
M  V30 9943 H 923.716 -7.58839 -0.454702 0
M  V30 9944 N 925.291 0.760815 -1.38019 0
M  V30 9945 C 926.239 1.89578 -1.34771 0
M  V30 9946 C 927.233 1.67766 -0.234714 0
M  V30 9947 O 928.439 1.75423 -0.403352 0
M  V30 9948 H 924.814 0.623608 -0.420258 0
M  V30 9949 H 926.785 1.89434 -2.30558 0
M  V30 9950 C 925.534 3.26976 -1.18246 0
M  V30 9951 H 924.857 3.44342 -2.03147 0
M  V30 9952 H 926.297 4.06657 -1.20026 0
M  V30 9953 C 924.756 3.36717 0.111145 0
M  V30 9954 O 925.286 3.86607 1.09079 0
M  V30 9955 N 923.492 2.90128 0.165542 0
M  V30 9956 H 923.039 2.49719 -0.632328 0
M  V30 9957 H 922.997 2.97026 1.03067 0
M  V30 9958 N 926.769 1.22769 0.988202 0
M  V30 9959 C 928.046 0.9635 1.70223 0
M  V30 9960 C 928.426 -0.520102 2.04593 0
M  V30 9961 O 927.774 -1.48934 1.73295 0
M  V30 9962 C 927.984 1.86583 2.94937 0
M  V30 9963 C 929.332 2.12469 3.67616 0
M  V30 9964 O 930.356 1.84069 3.04954 0
M  V30 9965 O 929.215 2.60595 4.80367 0
M  V30 9966 H 926.309 0.362737 0.743203 0
M  V30 9967 H 928.855 1.33776 1.04412 0
M  V30 9968 H 927.627 2.86913 2.66077 0
M  V30 9969 H 927.25 1.49344 3.68486 0
M  V30 9970 N 928.247 -1.18576 1.03814 0
M  V30 9971 C 929.472 -1.92978 0.759873 0
M  V30 9972 C 929.897 -1.75514 -0.676486 0
M  V30 9973 O 929.255 -1.06359 -1.46824 0
M  V30 9974 C 929.303 -3.42507 1.12788 0
M  V30 9975 O 928.407 -4.1163 0.251886 0
M  V30 9976 H 927.748 -0.602129 0.279886 0
M  V30 9977 H 930.278 -1.50383 1.3873 0
M  V30 9978 H 930.288 -3.93206 1.08872 0
M  V30 9979 H 928.963 -3.5454 2.17427 0
M  V30 9980 H 927.54 -3.7125 0.350441 0
M  V30 9981 N 929.725 -0.817259 -1.34754 0
M  V30 9982 C 930.655 -0.249769 -2.3216 0
M  V30 9983 C 931.636 0.630663 -1.57977 0
M  V30 9984 O 932.821 0.558719 -1.85989 0
M  V30 9985 C 929.951 0.593825 -3.42186 0
M  V30 9986 C 928.905 -0.188997 -4.27583 0
M  V30 9987 C 928.231 0.776979 -5.29025 0
M  V30 9988 C 929.531 -1.39401 -5.03354 0
M  V30 9989 H 931.225 -1.06359 -2.79872 0
M  V30 9990 H 928.771 -0.512894 -1.34556 0
M  V30 9991 H 930.724 1.00097 -4.09339 0
M  V30 9992 H 929.448 1.44064 -2.93109 0
M  V30 9993 H 928.107 -0.577445 -3.62024 0
M  V30 9994 H 927.755 1.61959 -4.76212 0
M  V30 9995 H 927.455 0.257448 -5.87036 0
M  V30 9996 H 928.979 1.18211 -5.99048 0
M  V30 9997 H 930.393 -1.06117 -5.63393 0
M  V30 9998 H 928.79 -1.84878 -5.70912 0
M  V30 9999 H 929.86 -2.17515 -4.33377 0
M  V30 10000 N 931.203 1.46865 -0.571711 0
M  V30 10001 C 932.431 2.06818 -0.0583975 0
M  V30 10002 C 932.846 1.42218 1.24175 0
M  V30 10003 O 932.203 0.523655 1.74826 0
M  V30 10004 C 932.254 3.61281 0.125673 0
M  V30 10005 O 931.975 4.23462 -1.123 0
M  V30 10006 C 933.476 4.38137 0.674604 0
M  V30 10007 H 930.696 0.668948 -0.052438 0
M  V30 10008 H 933.24 1.88656 -0.789251 0
M  V30 10009 H 931.395 3.78908 0.806707 0
M  V30 10010 H 931.809 5.16192 -0.929869 0
M  V30 10011 H 933.283 5.46845 0.752626 0
M  V30 10012 H 933.76 4.05419 1.68915 0
M  V30 10013 H 934.366 4.2529 0.0287979 0
M  V30 10014 N 932.681 0.308908 1.54543 0
M  V30 10015 C 933.928 -0.298036 2.00295 0
M  V30 10016 C 934.256 -1.53285 1.19724 0
M  V30 10017 O 933.511 -1.93917 0.263551 0
M  V30 10018 C 933.81 -0.691522 3.50646 0
M  V30 10019 C 933.476 0.442454 4.48724 0
M  V30 10020 C 932.138 0.753739 4.7526 0
M  V30 10021 C 934.49 1.20488 5.07082 0
M  V30 10022 C 931.818 1.83044 5.57415 0
M  V30 10023 C 934.17 2.27156 5.90409 0
M  V30 10024 C 932.834 2.58882 6.15253 0
M  V30 10025 H 932.104 -0.109059 0.73293 0
M  V30 10026 H 934.751 0.429647 1.86618 0
M  V30 10027 H 933.056 -1.49941 3.61974 0
M  V30 10028 H 934.753 -1.17244 3.83477 0
M  V30 10029 H 931.343 0.189744 4.2818 0
M  V30 10030 H 935.527 0.977653 4.86575 0
M  V30 10031 H 930.783 2.08088 5.749 0
M  V30 10032 H 934.957 2.86687 6.34652 0
M  V30 10033 H 932.584 3.42443 6.78702 0
M  V30 10034 N 934.159 -1.57557 0.0367827 0
M  V30 10035 C 935.089 -2.13712 -0.940719 0
M  V30 10036 C 936.07 -1.05515 -1.33419 0
M  V30 10037 O 937.255 -1.33385 -1.41146 0
M  V30 10038 C 934.385 -2.67043 -2.22048 0
M  V30 10039 C 933.339 -3.80096 -1.96752 0
M  V30 10040 C 932.665 -4.19886 -3.31059 0
M  V30 10041 C 933.965 -5.05848 -1.30058 0
M  V30 10042 H 935.659 -2.9564 -0.473033 0
M  V30 10043 H 933.205 -1.42214 -0.226089 0
M  V30 10044 H 935.158 -3.04964 -2.90818 0
M  V30 10045 H 933.882 -1.82287 -2.70996 0
M  V30 10046 H 932.541 -3.42625 -1.30398 0
M  V30 10047 H 932.189 -3.32101 -3.77781 0
M  V30 10048 H 931.889 -4.96073 -3.14937 0
M  V30 10049 H 933.413 -4.60395 -4.01084 0
M  V30 10050 H 934.827 -5.41306 -1.8884 0
M  V30 10051 H 933.224 -5.87084 -1.24309 0
M  V30 10052 H 934.294 -4.84122 -0.274591 0
M  V30 10053 N 935.637 0.236453 -1.55816 0
M  V30 10054 C 936.547 1.31418 -1.94336 0
M  V30 10055 C 937.563 1.52095 -0.845164 0
M  V30 10056 O 938.739 1.65515 -1.14746 0
M  V30 10057 C 935.804 2.6468 -2.23932 0
M  V30 10058 C 934.865 2.52435 -3.47239 0
M  V30 10059 C 934.098 3.79342 -3.75414 0
M  V30 10060 O 934.321 4.81694 -3.05495 0
M  V30 10061 O 933.255 3.77347 -4.68927 0
M  V30 10062 H 937.081 1.01739 -2.86152 0
M  V30 10063 H 934.666 0.438084 -1.42833 0
M  V30 10064 H 936.548 3.4341 -2.44228 0
M  V30 10065 H 935.223 2.94071 -1.35292 0
M  V30 10066 H 934.13 1.71955 -3.32238 0
M  V30 10067 H 935.463 2.27987 -4.36214 0
M  V30 10068 N 937.115 1.49373 0.502552 0
M  V30 10069 C 938.063 1.66411 1.62512 0
M  V30 10070 C 939.057 0.530062 1.60893 0
M  V30 10071 O 940.263 0.709648 1.65421 0
M  V30 10072 H 936.638 0.524707 0.538689 0
M  V30 10073 H 938.609 2.60639 1.45293 0
M  V30 10074 C 937.358 1.74648 3.00655 0
M  V30 10075 H 936.681 2.61285 3.02606 0
M  V30 10076 H 938.121 1.90605 3.78742 0
M  V30 10077 C 936.58 0.490963 3.33303 0
M  V30 10078 O 937.11 -0.384039 3.9986 0
M  V30 10079 N 935.316 0.354375 2.88431 0
M  V30 10080 H 934.863 1.06742 2.34444 0
M  V30 10081 H 934.821 -0.484593 3.10643 0
M  V30 10082 N 938.594 -0.753485 1.38421 0
M  V30 10083 C 939.557 -1.84888 1.35459 0
M  V30 10084 C 940.557 -1.58764 0.255083 0
M  V30 10085 O 941.747 -1.66507 0.511978 0
M  V30 10086 C 938.879 -3.22361 1.10888 0
M  V30 10087 H 940.072 -1.88922 2.32913 0
M  V30 10088 H 937.625 -0.955199 1.23716 0
M  V30 10089 H 938.36 -3.23996 0.1404 0
M  V30 10090 H 938.145 -3.42717 1.90492 0
M  V30 10091 H 939.635 -4.02437 1.1151 0
M  V30 10092 N 940.072 -1.23292 -0.981677 0
M  V30 10093 C 941.035 -1.01417 -2.05542 0
M  V30 10094 C 942.035 0.0235354 -1.60783 0
M  V30 10095 O 943.225 -0.216082 -1.72855 0
M  V30 10096 C 940.357 -0.534239 -3.36688 0
M  V30 10097 H 941.55 -1.96702 -2.26381 0
M  V30 10098 H 939.103 -1.05318 -1.1549 0
M  V30 10099 H 939.838 0.422452 -3.21537 0
M  V30 10100 H 939.623 -1.28304 -3.70514 0
M  V30 10101 H 941.113 -0.40179 -4.15663 0
M  V30 10102 N 941.55 1.18024 -1.04442 0
M  V30 10103 C 942.827 1.8398 -0.664125 0
M  V30 10104 C 943.207 1.92961 0.856116 0
M  V30 10105 O 942.555 1.45839 1.75907 0
M  V30 10106 C 942.765 3.22069 -1.34433 0
M  V30 10107 C 944.113 3.98063 -1.47754 0
M  V30 10108 O 945.137 3.31523 -1.30274 0
M  V30 10109 O 943.996 5.17291 -1.76272 0
M  V30 10110 H 941.09 0.793543 -0.23285 0
M  V30 10111 H 943.636 1.25385 -1.14354 0
M  V30 10112 H 942.408 3.10458 -2.38184 0
M  V30 10113 H 942.031 3.88325 -0.853782 0
M  V30 10114 N 943.028 0.824394 1.34319 0
M  V30 10115 C 944.274 0.413779 1.98534 0
M  V30 10116 C 944.607 -1.02089 1.65201 0
M  V30 10117 O 943.882 -1.71129 0.924402 0
M  V30 10118 C 944.165 0.61801 3.54757 0
M  V30 10119 C 944.018 2.0989 3.97827 0
M  V30 10120 C 945.337 0.0549041 4.40066 0
M  V30 10121 H 942.456 0.151815 0.721194 0
M  V30 10122 H 945.098 1.03723 1.5919 0
M  V30 10123 H 943.248 0.0873107 3.88402 0
M  V30 10124 H 944.92 2.69335 3.74508 0
M  V30 10125 H 943.163 2.58881 3.48085 0
M  V30 10126 H 943.834 2.1926 5.06586 0
M  V30 10127 H 946.31 0.508348 4.12983 0
M  V30 10128 H 945.186 0.227595 5.48428 0
M  V30 10129 H 945.447 -1.04025 4.29687 0
M  V30 10130 N 944.506 -1.46559 0.579492 0
M  V30 10131 C 945.754 -2.02 0.0637157 0
M  V30 10132 C 946.075 -1.45378 -1.29962 0
M  V30 10133 O 945.345 -0.637262 -1.85245 0
M  V30 10134 H 943.925 -0.746717 0.0205638 0
M  V30 10135 H 946.587 -1.79702 0.754544 0
M  V30 10136 H 945.683 -3.12099 -0.00770254 0
M  V30 10137 N 945.984 -0.3171 -1.54377 0
M  V30 10138 C 947.232 0.286842 -2.00054 0
M  V30 10139 C 947.553 1.53161 -1.20692 0
M  V30 10140 O 946.823 1.93479 -0.307045 0
M  V30 10141 H 945.403 0.108979 -0.739008 0
M  V30 10142 H 948.065 -0.432152 -1.90049 0
M  V30 10143 H 947.161 0.547729 -3.07256 0
M  V30 10144 N 947.462 1.57535 -0.0451378 0
M  V30 10145 C 948.392 2.14208 0.929372 0
M  V30 10146 C 949.373 1.06221 1.32858 0
M  V30 10147 O 950.558 1.34132 1.40436 0
M  V30 10148 C 947.688 2.68217 2.20629 0
M  V30 10149 C 946.642 3.81134 1.94734 0
M  V30 10150 C 945.968 4.21636 3.28828 0
M  V30 10151 C 947.268 5.06531 1.27374 0
M  V30 10152 H 948.962 2.95886 0.457348 0
M  V30 10153 H 946.508 1.42332 0.218544 0
M  V30 10154 H 948.461 3.06502 2.89196 0
M  V30 10155 H 947.185 1.83722 2.70026 0
M  V30 10156 H 945.844 3.43312 1.28579 0
M  V30 10157 H 945.492 3.34099 3.76014 0
M  V30 10158 H 945.192 4.97736 3.12302 0
M  V30 10159 H 946.716 4.62516 3.98637 0
M  V30 10160 H 948.13 5.423 1.85967 0
M  V30 10161 H 946.527 5.87735 1.21194 0
M  V30 10162 H 947.597 4.84261 0.248913 0
M  V30 10163 N 948.94 -0.228186 1.55939 0
M  V30 10164 C 949.903 -1.26621 1.91049 0
M  V30 10165 C 950.903 -1.40141 0.788491 0
M  V30 10166 O 952.093 -1.3852 1.05631 0
M  V30 10167 C 949.225 -2.64108 2.15545 0
M  V30 10168 H 950.418 -0.966978 2.83883 0
M  V30 10169 H 947.971 -0.468313 1.49119 0
M  V30 10170 H 948.706 -2.99141 1.25241 0
M  V30 10171 H 948.491 -2.55673 2.97277 0
M  V30 10172 H 949.981 -3.39025 2.43827 0
M  V30 10173 N 950.418 -1.49637 -0.494624 0
M  V30 10174 C 951.667 -1.58691 -1.24499 0
M  V30 10175 C 951.98 -0.281763 -1.9356 0
M  V30 10176 O 953.186 -0.250925 -2.70338 0
M  V30 10177 C 951.642 -2.8002 -2.26091 0
M  V30 10178 C 951.25 -4.17318 -1.6294 0
M  V30 10179 C 952.994 -2.98407 -3.01916 0
M  V30 10180 C 950.901 -5.29862 -2.62679 0
M  V30 10181 H 949.831 -0.590888 -0.468367 0
M  V30 10182 H 952.482 -1.76034 -0.518112 0
M  V30 10183 H 950.864 -2.56185 -3.01969 0
M  V30 10184 H 952.038 -4.51315 -0.930108 0
M  V30 10185 H 950.353 -4.04342 -0.994819 0
M  V30 10186 H 952.95 -3.79658 -3.76516 0
M  V30 10187 H 953.293 -2.09214 -3.5991 0
M  V30 10188 H 953.826 -3.22312 -2.33152 0
M  V30 10189 H 950.565 -6.21134 -2.09458 0
M  V30 10190 H 950.085 -5.00311 -3.3083 0
M  V30 10191 H 951.764 -5.59461 -3.2498 0
M  V30 10192 N 951.896 0.746133 -1.38819 0
M  V30 10193 C 952.859 1.84167 -1.36437 0
M  V30 10194 C 953.859 1.58626 -0.263499 0
M  V30 10195 O 955.049 1.66233 -0.520801 0
M  V30 10196 C 952.181 3.21769 -1.12596 0
M  V30 10197 H 953.374 1.87684 -2.33912 0
M  V30 10198 H 950.927 0.948625 -1.24221 0
M  V30 10199 H 951.662 3.23917 -0.15758 0
M  V30 10200 H 951.447 3.41702 -1.92307 0
M  V30 10201 H 952.937 4.0184 -1.13643 0
M  V30 10202 N 953.375 1.23811 0.975125 0
M  V30 10203 C 954.305 1.04846 2.08638 0
M  V30 10204 C 955.286 -0.0362859 1.70061 0
M  V30 10205 O 956.471 0.12937 1.93769 0
M  V30 10206 C 953.601 0.644534 3.41267 0
M  V30 10207 C 952.555 1.67722 3.93768 0
M  V30 10208 C 951.881 1.12857 5.22654 0
M  V30 10209 C 953.181 3.07147 4.22443 0
M  V30 10210 H 954.875 1.97795 2.24761 0
M  V30 10211 H 952.421 0.952397 1.08006 0
M  V30 10212 H 954.374 0.498887 4.18436 0
M  V30 10213 H 953.098 -0.320641 3.25022 0
M  V30 10214 H 951.757 1.81095 3.18748 0
M  V30 10215 H 951.405 0.154227 5.02764 0
M  V30 10216 H 951.105 1.81862 5.58749 0
M  V30 10217 H 952.629 0.994891 6.0244 0
M  V30 10218 H 954.043 2.97045 4.90344 0
M  V30 10219 H 952.44 3.73437 4.6975 0
M  V30 10220 H 953.51 3.55743 3.29507 0
M  V30 10221 N 954.853 -1.17469 1.05066 0
M  V30 10222 C 955.785 -2.20974 0.608526 0
M  V30 10223 C 956.798 -1.59481 -0.327066 0
M  V30 10224 O 957.987 -1.78096 -0.12 0
M  V30 10225 C 955.087 -3.38652 -0.12969 0
M  V30 10226 C 954.26 -4.29716 0.816285 0
M  V30 10227 C 953.319 -5.26064 0.119556 0
M  V30 10228 O 952.345 -5.64194 0.753241 0
M  V30 10229 N 953.547 -5.69126 -1.14347 0
M  V30 10230 H 956.312 -2.59529 1.49882 0
M  V30 10231 H 953.873 -1.32355 0.932406 0
M  V30 10232 H 955.865 -4.00139 -0.605886 0
M  V30 10233 H 954.435 -2.98705 -0.921638 0
M  V30 10234 H 953.655 -3.6568 1.47213 0
M  V30 10235 H 954.943 -4.87449 1.45845 0
M  V30 10236 H 954.341 -5.4022 -1.67866 0
M  V30 10237 H 952.898 -6.32764 -1.56376 0
M  V30 10238 N 956.331 -0.831506 -1.3388 0
M  V30 10239 C 957.294 -0.264773 -2.27666 0
M  V30 10240 C 958.294 0.562273 -1.50649 0
M  V30 10241 O 959.484 0.377131 -1.70069 0
M  V30 10242 C 956.616 0.627814 -3.35069 0
M  V30 10243 H 957.809 -1.09225 -2.79303 0
M  V30 10244 H 955.362 -0.604021 -1.44157 0
M  V30 10245 H 956.097 1.47802 -2.88661 0
M  V30 10246 H 955.882 0.0361552 -3.92083 0
M  V30 10247 H 957.372 1.01786 -4.05005 0
M  V30 10248 N 957.809 1.4625 -0.587256 0
M  V30 10249 C 959.039 2.06444 -0.0802135 0
M  V30 10250 C 959.447 1.43585 1.23207 0
M  V30 10251 O 958.79 0.536956 1.75677 0
M  V30 10252 C 958.852 3.59165 0.155129 0
M  V30 10253 C 958.516 4.44243 -1.07225 0
M  V30 10254 C 959.513 4.80497 -1.98542 0
M  V30 10255 C 957.198 4.8531 -1.29537 0
M  V30 10256 C 959.192 5.56649 -3.10516 0
M  V30 10257 C 956.879 5.61221 -2.41815 0
M  V30 10258 C 957.877 5.96805 -3.32134 0
M  V30 10259 O 957.565 6.71181 -4.42461 0
M  V30 10260 H 957.297 0.673626 -0.0566063 0
M  V30 10261 H 959.851 1.88797 -0.809004 0
M  V30 10262 H 958.081 3.75137 0.938583 0
M  V30 10263 H 959.77 4.01271 0.611243 0
M  V30 10264 H 960.536 4.49345 -1.82522 0
M  V30 10265 H 956.415 4.5706 -0.601431 0
M  V30 10266 H 959.959 5.84343 -3.81037 0
M  V30 10267 H 955.856 5.91786 -2.57797 0
M  V30 10268 H 956.624 6.8961 -4.40886 0
M  V30 10269 N 959.287 0.325282 1.54207 0
M  V30 10270 C 960.512 -0.281418 2.05482 0
M  V30 10271 C 960.937 -1.44869 1.19977 0
M  V30 10272 O 960.295 -1.80088 0.209275 0
M  V30 10273 C 960.343 -0.692029 3.53897 0
M  V30 10274 O 959.447 -1.7942 3.71325 0
M  V30 10275 H 958.788 -0.0504872 0.662078 0
M  V30 10276 H 961.318 0.474191 1.99029 0
M  V30 10277 H 961.328 -0.974219 3.96198 0
M  V30 10278 H 960.003 0.161709 4.15586 0
M  V30 10279 H 958.58 -1.51069 3.40929 0
M  V30 10280 N 960.765 -1.57509 0.0534917 0
M  V30 10281 C 961.712 -2.11667 -0.920101 0
M  V30 10282 C 962.682 -1.0246 -1.30733 0
M  V30 10283 O 963.867 -1.30021 -1.39639 0
M  V30 10284 C 961.007 -2.66803 -2.18883 0
M  V30 10285 C 960.12 -3.90104 -1.85588 0
M  V30 10286 C 959.255 -4.33547 -3.06937 0
M  V30 10287 C 958.294 -5.49542 -2.69573 0
M  V30 10288 N 957.431 -5.88029 -3.83623 0
M  V30 10289 H 962.271 -2.94562 -0.451371 0
M  V30 10290 H 959.808 -1.45576 -0.211168 0
M  V30 10291 H 961.766 -2.96871 -2.93127 0
M  V30 10292 H 960.396 -1.86702 -2.63329 0
M  V30 10293 H 959.448 -3.66613 -1.01484 0
M  V30 10294 H 960.76 -4.74404 -1.54087 0
M  V30 10295 H 959.914 -4.6518 -3.89477 0
M  V30 10296 H 958.653 -3.48064 -3.41618 0
M  V30 10297 H 957.658 -5.17579 -1.8545 0
M  V30 10298 H 958.883 -6.36743 -2.36082 0
M  V30 10299 H 956.829 -5.05498 -4.181 0
M  V30 10300 H 956.746 -6.67025 -3.55828 0
M  V30 10301 H 958.014 -6.24277 -4.66796 0
M  V30 10302 N 962.243 0.219913 -1.56058 0
M  V30 10303 C 963.659 0.569685 -1.49086 0
M  V30 10304 C 963.859 1.87066 -0.748903 0
M  V30 10305 O 962.915 2.50838 -0.289235 0
M  V30 10306 C 964.228 0.647397 -2.93648 0
M  V30 10307 C 965.776 0.737914 -3.04177 0
M  V30 10308 C 966.251 0.846957 -4.50101 0
M  V30 10309 N 967.742 0.911136 -4.5415 0
M  V30 10310 C 968.477 1.01525 -5.64341 0
M  V30 10311 N 967.973 1.0832 -6.8428 0
M  V30 10312 N 969.766 1.05051 -5.52196 0
M  V30 10313 H 961.917 -0.633778 -2.02724 0
M  V30 10314 H 964.18 -0.222583 -0.921499 0
M  V30 10315 H 963.886 -0.238987 -3.50887 0
M  V30 10316 H 963.76 1.51046 -3.45637 0
M  V30 10317 H 966.147 1.61474 -2.47002 0
M  V30 10318 H 966.228 -0.150845 -2.55355 0
M  V30 10319 H 965.872 -0.0254166 -5.07894 0
M  V30 10320 H 965.802 1.75116 -4.96631 0
M  V30 10321 H 968.293 0.868869 -3.67776 0
M  V30 10322 H 968.606 1.16247 -7.64007 0
M  V30 10323 H 966.951 1.05231 -6.86987 0
M  V30 10324 H 970.142 0.994086 -4.57423 0
M  V30 10325 H 970.315 1.12819 -6.38103 0
M  V30 10326 N 963.721 1.49897 0.486681 0
M  V30 10327 C 964.651 1.7054 1.59494 0
M  V30 10328 C 965.632 0.554184 1.60819 0
M  V30 10329 O 966.817 0.791617 1.77333 0
M  V30 10330 C 963.947 1.78517 2.97908 0
M  V30 10331 C 962.901 2.93571 3.11449 0
M  V30 10332 C 962.227 2.86674 4.51356 0
M  V30 10333 C 963.527 4.34308 2.90127 0
M  V30 10334 H 965.221 2.63329 1.42472 0
M  V30 10335 H 962.767 1.2672 0.683969 0
M  V30 10336 H 964.72 1.91544 3.75352 0
M  V30 10337 H 963.444 0.823381 3.16051 0
M  V30 10338 H 962.103 2.80169 2.36433 0
M  V30 10339 H 961.751 1.88373 4.66395 0
M  V30 10340 H 961.451 3.63903 4.61355 0
M  V30 10341 H 962.975 3.01728 5.30841 0
M  V30 10342 H 964.389 4.48317 3.57331 0
M  V30 10343 H 962.786 5.12869 3.11585 0
M  V30 10344 H 963.856 4.47759 1.86119 0
M  V30 10345 N 965.199 -0.738761 1.39212 0
M  V30 10346 C 966.129 -1.86602 1.40364 0
M  V30 10347 C 967.11 -1.67984 0.267495 0
M  V30 10348 O 968.295 -1.88358 0.472765 0
M  V30 10349 C 965.425 -3.24308 1.24265 0
M  V30 10350 C 964.379 -3.57557 2.35239 0
M  V30 10351 C 963.705 -4.94159 2.04233 0
M  V30 10352 C 965.005 -3.60914 3.77543 0
M  V30 10353 H 966.699 -1.85896 2.34698 0
M  V30 10354 H 964.245 -0.892959 1.1297 0
M  V30 10355 H 966.198 -4.02838 1.23692 0
M  V30 10356 H 964.922 -3.25531 0.263974 0
M  V30 10357 H 963.581 -2.81354 2.35022 0
M  V30 10358 H 963.229 -4.91959 1.04813 0
M  V30 10359 H 962.929 -5.17373 2.78567 0
M  V30 10360 H 964.453 -5.7505 2.05303 0
M  V30 10361 H 965.867 -4.29528 3.79709 0
M  V30 10362 H 964.264 -3.95644 4.51205 0
M  V30 10363 H 965.334 -2.60803 4.08791 0
M  V30 10364 N 966.677 -1.24326 -0.968545 0
M  V30 10365 C 968.093 -1.00847 -1.23701 0
M  V30 10366 C 968.293 0.283235 -1.99499 0
M  V30 10367 O 967.349 0.999607 -2.31871 0
M  V30 10368 C 968.662 -2.22295 -2.02498 0
M  V30 10369 C 970.21 -2.26911 -2.15593 0
M  V30 10370 C 970.685 -3.47978 -2.97784 0
M  V30 10371 N 972.176 -3.48289 -3.05367 0
M  V30 10372 C 972.911 -4.38625 -3.69318 0
M  V30 10373 N 972.407 -5.39213 -4.34995 0
M  V30 10374 N 974.2 -4.26339 -3.66322 0
M  V30 10375 H 966.351 -2.07335 -0.461087 0
M  V30 10376 H 968.614 -0.909805 -0.26638 0
M  V30 10377 H 968.32 -3.161 -1.54188 0
M  V30 10378 H 968.194 -2.24344 -3.03232 0
M  V30 10379 H 970.581 -1.33639 -2.63106 0
M  V30 10380 H 970.662 -2.28888 -1.14209 0
M  V30 10381 H 970.306 -4.41564 -2.50965 0
M  V30 10382 H 970.236 -3.43244 -3.99364 0
M  V30 10383 H 972.727 -2.75517 -2.58648 0
M  V30 10384 H 973.04 -6.04378 -4.81608 0
M  V30 10385 H 971.385 -5.43101 -4.33667 0
M  V30 10386 H 974.576 -3.46991 -3.14189 0
M  V30 10387 H 974.749 -4.9694 -4.15878 0
M  V30 10388 N 968.156 1.1691 -1.05688 0
M  V30 10389 C 969.106 2.19056 -0.632339 0
M  V30 10390 C 970.09 1.574 0.333797 0
M  V30 10391 O 971.282 1.76361 0.150223 0
M  V30 10392 C 968.411 3.43297 -0.0138209 0
M  V30 10393 C 967.497 4.12042 -1.00408 0
M  V30 10394 N 967.888 4.56535 -2.17737 0
M  V30 10395 C 966.186 4.38139 -0.833663 0
M  V30 10396 C 966.887 5.09644 -2.80425 0
M  V30 10397 N 965.863 5.02153 -2.08191 0
M  V30 10398 H 969.665 2.51165 -1.52621 0
M  V30 10399 H 967.179 1.33294 -0.927707 0
M  V30 10400 H 969.176 4.1576 0.308117 0
M  V30 10401 H 967.836 3.12677 0.87538 0
M  V30 10402 H 968.847 4.50463 -2.55546 0
M  V30 10403 H 965.524 4.175 0.00406684 0
M  V30 10404 H 966.914 5.54153 -3.79952 0
M  V30 10405 N 969.634 0.838594 1.33437 0
M  V30 10406 C 970.584 0.243681 2.26694 0
M  V30 10407 C 971.568 -0.601168 1.49247 0
M  V30 10408 O 972.76 -0.453181 1.711 0
M  V30 10409 C 969.889 -0.580525 3.38356 0
M  V30 10410 C 968.975 0.275819 4.23202 0
M  V30 10411 N 969.366 1.3544 4.87329 0
M  V30 10412 C 967.664 0.0628047 4.45956 0
M  V30 10413 C 968.365 1.87991 5.50486 0
M  V30 10414 N 967.341 1.18143 5.30607 0
M  V30 10415 H 971.143 1.06849 2.73789 0
M  V30 10416 H 968.657 0.683019 1.47338 0
M  V30 10417 H 970.654 -1.02301 4.04153 0
M  V30 10418 H 969.314 -1.40331 2.92809 0
M  V30 10419 H 970.325 1.73729 4.87892 0
M  V30 10420 H 967.002 -0.726563 4.11129 0
M  V30 10421 H 968.392 2.78312 6.11549 0
M  V30 10422 N 971.112 -1.45937 0.595003 0
M  V30 10423 C 972.36 -2.01921 0.0851368 0
M  V30 10424 C 972.681 -1.46748 -1.28413 0
M  V30 10425 O 971.951 -0.656873 -1.84559 0
M  V30 10426 H 970.531 -0.746457 0.0284826 0
M  V30 10427 H 973.193 -1.78891 0.773561 0
M  V30 10428 H 972.289 -3.1209 0.0254002 0
M  V30 10429 N 972.59 -0.333456 -1.54032 0
M  V30 10430 C 973.5 0.536674 -2.28379 0
M  V30 10431 C 974.516 1.12068 -1.33104 0
M  V30 10432 O 975.692 1.13853 -1.66131 0
M  V30 10433 C 972.757 1.67677 -3.03456 0
M  V30 10434 C 971.818 1.12357 -4.14336 0
M  V30 10435 C 971.051 2.20933 -4.85823 0
M  V30 10436 O 971.274 3.41466 -4.569 0
M  V30 10437 O 970.208 1.85795 -5.72507 0
M  V30 10438 H 974.034 -0.0674003 -3.03625 0
M  V30 10439 H 971.619 -0.098823 -1.49073 0
M  V30 10440 H 973.501 2.34032 -3.50438 0
M  V30 10441 H 972.176 2.26684 -2.31076 0
M  V30 10442 H 971.083 0.424827 -3.7168 0
M  V30 10443 H 972.416 0.578497 -4.88789 0
M  V30 10444 N 974.068 1.57479 -0.061844 0
M  V30 10445 C 975.296 1.97429 0.618837 0
M  V30 10446 C 975.711 0.939826 1.63746 0
M  V30 10447 O 975.068 -0.0747173 1.82347 0
M  V30 10448 C 975.119 3.3746 1.29628 0
M  V30 10449 O 974.84 4.36941 0.318431 0
M  V30 10450 C 976.341 3.92228 2.06572 0
M  V30 10451 H 973.561 0.649513 0.168444 0
M  V30 10452 H 976.105 2.04078 -0.131303 0
M  V30 10453 H 974.26 3.31928 1.99757 0
M  V30 10454 H 974.674 5.18313 0.803239 0
M  V30 10455 H 976.148 4.92458 2.49377 0
M  V30 10456 H 976.625 3.28231 2.91824 0
M  V30 10457 H 977.231 4.01131 1.4133 0
M  V30 10458 N 975.546 -0.211634 1.56173 0
M  V30 10459 C 976.792 -0.935935 1.79911 0
M  V30 10460 C 977.125 -1.83589 0.633155 0
M  V30 10461 O 976.4 -1.91004 -0.367132 0
M  V30 10462 C 976.683 -1.76638 3.13801 0
M  V30 10463 C 976.536 -0.892259 4.40861 0
M  V30 10464 C 977.855 -2.74224 3.44223 0
M  V30 10465 H 974.974 -0.338822 0.654499 0
M  V30 10466 H 977.616 -0.20422 1.88899 0
M  V30 10467 H 975.766 -2.39021 3.0627 0
M  V30 10468 H 977.438 -0.284407 4.60422 0
M  V30 10469 H 975.681 -0.198145 4.33347 0
M  V30 10470 H 976.352 -1.50793 5.31004 0
M  V30 10471 H 978.828 -2.21975 3.51946 0
M  V30 10472 H 977.704 -3.29424 4.39057 0
M  V30 10473 H 977.965 -3.52455 2.66885 0
M  V30 10474 N 977.024 -1.50153 -0.478725 0
M  V30 10475 C 977.954 -1.71384 -1.58587 0
M  V30 10476 C 978.935 -0.562705 -1.60523 0
M  V30 10477 O 980.12 -0.80101 -1.76911 0
M  V30 10478 C 977.25 -1.80094 -2.96957 0
M  V30 10479 C 976.204 -2.95218 -3.09888 0
M  V30 10480 C 975.53 -2.89063 -4.49829 0
M  V30 10481 C 976.83 -4.35841 -2.8782 0
M  V30 10482 H 978.524 -2.64081 -1.41073 0
M  V30 10483 H 976.07 -1.27081 -0.677239 0
M  V30 10484 H 978.023 -1.93531 -3.74331 0
M  V30 10485 H 976.747 -0.840131 -3.1561 0
M  V30 10486 H 975.406 -2.81419 -2.34944 0
M  V30 10487 H 975.054 -1.90844 -4.6539 0
M  V30 10488 H 974.754 -3.66345 -4.59418 0
M  V30 10489 H 976.278 -3.04539 -5.29234 0
M  V30 10490 H 977.692 -4.50205 -3.54948 0
M  V30 10491 H 976.089 -5.14515 -3.0886 0
M  V30 10492 H 977.159 -4.48739 -1.83742 0
M  V30 10493 N 978.502 0.731368 -1.39602 0
M  V30 10494 C 979.913 1.30981 -1.33045 0
M  V30 10495 C 980.264 1.962 0.00349918 0
M  V30 10496 O 979.389 1.96539 0.905615 0
M  V30 10497 C 979.984 2.3817 -2.40958 0
M  V30 10498 C 978.543 2.91678 -2.3791 0
M  V30 10499 C 977.69 1.65286 -2.22656 0
M  V30 10500 H 980.641 0.528615 -1.49637 0
M  V30 10501 H 980.662 3.18645 -2.07955 0
M  V30 10502 H 980.174 1.90673 -3.38032 0
M  V30 10503 H 978.275 3.43446 -1.44485 0
M  V30 10504 H 978.388 3.44545 -3.32904 0
M  V30 10505 H 976.752 1.89759 -1.69893 0
M  V30 10506 H 977.535 1.19836 -3.21705 0
M  V30 10507 N 979.98 1.24838 0.961938 0
M  V30 10508 C 981.205 1.11967 1.7458 0
M  V30 10509 C 981.63 -0.323287 1.85301 0
M  V30 10510 O 980.988 -1.23412 1.32812 0
M  V30 10511 C 981.036 1.77066 3.14134 0
M  V30 10512 O 980.14 1.04534 3.98932 0
M  V30 10513 H 979.481 0.391338 0.536424 0
M  V30 10514 H 982.011 1.65259 1.20626 0
M  V30 10515 H 982.021 1.83056 3.64629 0
M  V30 10516 H 980.696 2.82052 3.05646 0
M  V30 10517 H 979.273 1.06372 3.57407 0
M  V30 10518 N 981.458 -1.16348 1.06306 0
M  V30 10519 C 982.388 -2.2291 0.695234 0
M  V30 10520 C 983.369 -1.67208 -0.312343 0
M  V30 10521 O 984.554 -1.93293 -0.187442 0
M  V30 10522 C 981.684 -3.47205 0.0810149 0
M  V30 10523 C 980.638 -4.15801 1.01458 0
M  V30 10524 C 979.964 -5.3405 0.263656 0
M  V30 10525 C 981.264 -4.66766 2.34365 0
M  V30 10526 H 982.958 -2.53934 1.58613 0
M  V30 10527 H 980.504 -1.22056 0.76409 0
M  V30 10528 H 982.457 -4.2098 -0.18818 0
M  V30 10529 H 981.181 -3.15482 -0.844897 0
M  V30 10530 H 979.84 -3.43954 1.26852 0
M  V30 10531 H 979.488 -4.9858 -0.665378 0
M  V30 10532 H 979.188 -5.80885 0.88582 0
M  V30 10533 H 980.712 -6.106 0.00200994 0
M  V30 10534 H 982.126 -5.3212 2.13356 0
M  V30 10535 H 980.523 -5.24223 2.9208 0
M  V30 10536 H 981.593 -3.82969 2.97426 0
M  V30 10537 N 982.937 -0.845659 -1.3299 0
M  V30 10538 C 984.214 -0.366306 -1.92139 0
M  V30 10539 C 984.594 1.14912 -1.77083 0
M  V30 10540 O 983.942 1.96667 -1.16338 0
M  V30 10541 C 984.152 -0.820716 -3.39213 0
M  V30 10542 C 985.5 -0.832667 -4.16355 0
M  V30 10543 O 986.524 -0.764764 -3.47893 0
M  V30 10544 O 985.383 -0.926658 -5.38586 0
M  V30 10545 H 982.477 -0.105063 -0.820299 0
M  V30 10546 H 985.023 -0.931962 -1.41819 0
M  V30 10547 H 983.795 -1.86357 -3.44074 0
M  V30 10548 H 983.418 -0.232009 -3.96923 0
M  V30 10549 N 984.415 1.45619 -0.602734 0
M  V30 10550 C 985.345 2.33258 0.106342 0
M  V30 10551 C 986.326 1.46543 0.863664 0
M  V30 10552 O 987.511 1.75324 0.835175 0
M  V30 10553 C 984.641 3.29168 1.10751 0
M  V30 10554 C 983.595 4.25481 0.463717 0
M  V30 10555 C 982.921 5.11046 1.57278 0
M  V30 10556 C 984.221 5.18702 -0.61199 0
M  V30 10557 H 985.915 2.92795 -0.625423 0
M  V30 10558 H 983.461 1.40793 -0.302213 0
M  V30 10559 H 985.414 3.89346 1.61208 0
M  V30 10560 H 984.138 2.6778 1.8698 0
M  V30 10561 H 982.797 3.66595 -0.0199496 0
M  V30 10562 H 982.445 4.46029 2.32524 0
M  V30 10563 H 982.145 5.76286 1.14755 0
M  V30 10564 H 983.669 5.74091 2.07972 0
M  V30 10565 H 985.083 5.72979 -0.191686 0
M  V30 10566 H 983.48 5.92393 -0.958686 0
M  V30 10567 H 984.55 4.61424 -1.4905 0
M  V30 10568 N 985.893 0.34162 1.53853 0
M  V30 10569 C 987.118 -0.259608 2.05769 0
M  V30 10570 C 987.543 -1.43588 1.21507 0
M  V30 10571 O 986.901 -1.79856 0.228364 0
M  V30 10572 C 986.949 -0.654455 3.54611 0
M  V30 10573 O 986.053 -1.75472 3.73207 0
M  V30 10574 H 985.394 -0.0434621 0.662576 0
M  V30 10575 H 987.924 0.495274 1.98515 0
M  V30 10576 H 987.934 -0.932142 3.97209 0
M  V30 10577 H 986.609 0.205779 4.15391 0
M  V30 10578 H 985.186 -1.47444 3.42512 0
M  V30 10579 N 987.371 -1.57444 0.0701946 0
M  V30 10580 C 988.782 -1.80875 -0.462709 0
M  V30 10581 C 989.133 -0.983975 -1.69742 0
M  V30 10582 O 988.258 -0.206027 -2.15417 0
M  V30 10583 C 988.853 -3.28062 -0.84623 0
M  V30 10584 C 987.412 -3.52345 -1.32401 0
M  V30 10585 C 986.559 -2.7558 -0.308399 0
M  V30 10586 H 989.51 -1.55917 0.295907 0
M  V30 10587 H 989.531 -3.40023 -1.70776 0
M  V30 10588 H 989.043 -3.88064 0.0526033 0
M  V30 10589 H 987.144 -2.97645 -2.24139 0
M  V30 10590 H 987.257 -4.6104 -1.30304 0
M  V30 10591 H 985.621 -2.4229 -0.785337 0
M  V30 10592 H 986.404 -3.38319 0.582679 0
M  V30 10593 N 988.849 0.203349 -1.56283 0
M  V30 10594 C 989.781 1.27592 -1.90402 0
M  V30 10595 C 990.794 1.4213 -0.79391 0
M  V30 10596 O 991.983 1.42703 -1.07229 0
M  V30 10597 C 989.083 2.64919 -2.11356 0
M  V30 10598 C 988.256 2.72095 -3.42466 0
M  V30 10599 C 987.315 3.9056 -3.52631 0
M  V30 10600 O 986.341 3.78048 -4.25521 0
M  V30 10601 N 987.543 5.0566 -2.85111 0
M  V30 10602 H 990.308 0.986423 -2.83001 0
M  V30 10603 H 987.869 0.39331 -1.5705 0
M  V30 10604 H 989.861 3.42581 -2.15453 0
M  V30 10605 H 988.431 2.86391 -1.25295 0
M  V30 10606 H 987.651 1.8077 -3.50308 0
M  V30 10607 H 988.939 2.73874 -4.28801 0
M  V30 10608 H 988.337 5.18723 -2.25705 0
M  V30 10609 H 986.894 5.81299 -2.94847 0
M  V30 10610 N 990.327 1.50405 0.470755 0
M  V30 10611 C 991.259 1.65447 1.58619 0
M  V30 10612 C 992.272 0.535949 1.53725 0
M  V30 10613 O 993.461 0.80914 1.59107 0
M  V30 10614 C 990.561 1.62318 2.975 0
M  V30 10615 C 989.734 2.90207 3.27259 0
M  V30 10616 C 988.793 2.79717 4.45696 0
M  V30 10617 O 987.819 3.53672 4.45987 0
M  V30 10618 N 989.021 1.93296 5.47373 0
M  V30 10619 H 991.786 2.61659 1.46132 0
M  V30 10620 H 989.347 1.47873 0.659178 0
M  V30 10621 H 991.339 1.52912 3.747 0
M  V30 10622 H 989.909 0.738392 3.03754 0
M  V30 10623 H 989.129 3.13737 2.38669 0
M  V30 10624 H 990.417 3.74931 3.43953 0
M  V30 10625 H 989.815 1.32524 5.49958 0
M  V30 10626 H 988.372 1.89793 6.23556 0
M  V30 10627 N 991.805 -0.723954 1.39988 0
M  V30 10628 C 993.054 -1.47922 1.3712 0
M  V30 10629 C 993.367 -1.95582 -0.0263665 0
M  V30 10630 O 994.573 -2.70918 -0.177652 0
M  V30 10631 C 993.029 -2.67342 2.40949 0
M  V30 10632 C 992.637 -2.26586 3.86475 0
M  V30 10633 C 994.381 -3.45116 2.47174 0
M  V30 10634 C 992.288 -3.42794 4.81919 0
M  V30 10635 H 991.218 -0.555522 0.509815 0
M  V30 10636 H 993.869 -0.788692 1.65686 0
M  V30 10637 H 992.251 -3.38524 2.0547 0
M  V30 10638 H 993.425 -1.62878 4.31054 0
M  V30 10639 H 991.74 -1.61876 3.83647 0
M  V30 10640 H 994.337 -4.31573 3.15672 0
M  V30 10641 H 994.68 -3.8835 1.49966 0
M  V30 10642 H 995.213 -2.80971 2.81602 0
M  V30 10643 H 991.952 -3.046 5.8043 0
M  V30 10644 H 991.472 -4.05445 4.42012 0
M  V30 10645 H 993.151 -4.08977 5.01345 0
M  V30 10646 N 993.283 -1.25346 -0.955304 0
M  V30 10647 C 994.53 -1.10055 -1.69983 0
M  V30 10648 C 994.858 0.358586 -1.91166 0
M  V30 10649 O 994.113 1.28071 -1.47974 0
M  V30 10650 C 994.412 -1.7993 -3.08804 0
M  V30 10651 C 994.078 -3.29851 -3.07424 0
M  V30 10652 C 992.74 -3.7075 -3.06754 0
M  V30 10653 C 995.092 -4.25636 -3.00805 0
M  V30 10654 C 992.42 -5.05847 -2.97214 0
M  V30 10655 C 994.772 -5.60756 -2.92806 0
M  V30 10656 C 993.436 -6.00984 -2.90472 0
M  V30 10657 H 992.706 -0.402718 -0.622012 0
M  V30 10658 H 995.353 -1.5561 -1.11614 0
M  V30 10659 H 993.658 -1.26803 -3.70713 0
M  V30 10660 H 995.355 -1.65551 -3.65231 0
M  V30 10661 H 991.945 -2.97308 -3.08716 0
M  V30 10662 H 996.129 -3.9503 -3.00441 0
M  V30 10663 H 991.385 -5.36196 -2.93775 0
M  V30 10664 H 995.559 -6.34671 -2.86645 0
M  V30 10665 H 993.186 -7.05626 -2.82835 0
M  V30 10666 N 994.761 1.15782 -1.06922 0
M  V30 10667 C 996.008 1.86465 -0.789752 0
M  V30 10668 C 996.336 1.82075 0.684022 0
M  V30 10669 O 995.591 1.23576 1.51748 0
M  V30 10670 C 995.89 3.35284 -1.2377 0
M  V30 10671 C 995.556 3.59871 -2.71668 0
M  V30 10672 C 994.218 3.6629 -3.12066 0
M  V30 10673 C 996.57 3.69929 -3.67154 0
M  V30 10674 C 993.898 3.80275 -4.46775 0
M  V30 10675 C 996.25 3.85436 -5.01619 0
M  V30 10676 C 994.914 3.901 -5.41644 0
M  V30 10677 H 994.184 0.682324 -0.288991 0
M  V30 10678 H 996.831 1.36861 -1.33945 0
M  V30 10679 H 995.136 3.87065 -0.607309 0
M  V30 10680 H 996.833 3.88371 -0.998431 0
M  V30 10681 H 993.423 3.55512 -2.39393 0
M  V30 10682 H 997.607 3.64274 -3.37073 0
M  V30 10683 H 992.863 3.8214 -4.77262 0
M  V30 10684 H 997.037 3.92161 -5.75485 0
M  V30 10685 H 994.664 4.00688 -6.46029 0
M  V30 10686 N 996.239 0.8527 1.3254 0
M  V30 10687 C 997.655 0.542298 1.50104 0
M  V30 10688 C 997.855 -0.927465 1.78886 0
M  V30 10689 O 996.911 -1.7106 1.85728 0
M  V30 10690 C 998.224 1.4276 2.64651 0
M  V30 10691 C 999.772 1.42782 2.78536 0
M  V30 10692 C 1000.25 2.29828 3.9616 0
M  V30 10693 N 1001.74 2.27613 4.03418 0
M  V30 10694 C 1002.47 2.91696 4.93661 0
M  V30 10695 N 1001.97 3.64883 5.88925 0
M  V30 10696 N 1003.76 2.81094 4.86768 0
M  V30 10697 H 995.913 1.80395 1.12123 0
M  V30 10698 H 998.176 0.770394 0.552446 0
M  V30 10699 H 997.882 2.47266 2.50105 0
M  V30 10700 H 997.756 1.11358 3.60388 0
M  V30 10701 H 1000.14 0.390417 2.92506 0
M  V30 10702 H 1000.22 1.78198 1.83519 0
M  V30 10703 H 999.868 3.33635 3.82949 0
M  V30 10704 H 999.798 1.91746 4.9045 0
M  V30 10705 H 1002.29 1.74402 3.3525 0
M  V30 10706 H 1002.6 4.10952 6.54476 0
M  V30 10707 H 1000.95 3.68991 5.88957 0
M  V30 10708 H 1004.14 2.23469 4.11314 0
M  V30 10709 H 1004.31 3.31318 5.56895 0
M  V30 10710 N 997.718 -1.45297 0.610449 0
M  V30 10711 C 998.943 -2.07101 0.111414 0
M  V30 10712 C 999.368 -1.45161 -1.19625 0
M  V30 10713 O 998.726 -0.545368 -1.72903 0
M  V30 10714 C 998.774 -3.60598 -0.0117372 0
M  V30 10715 O 997.878 -3.98512 -1.06122 0
M  V30 10716 H 997.219 -0.659709 0.075364 0
M  V30 10717 H 999.749 -1.86504 0.841269 0
M  V30 10718 H 999.759 -4.07464 -0.209028 0
M  V30 10719 H 998.434 -4.05067 0.943076 0
M  V30 10720 H 997.011 -3.63312 -0.840158 0
M  V30 10721 N 999.196 -0.349774 -1.5367 0
M  V30 10722 C 1000.43 0.245682 -2.05134 0
M  V30 10723 C 1000.83 1.44269 -1.22406 0
M  V30 10724 O 1000.18 1.81938 -0.25379 0
M  V30 10725 C 1000.24 0.718439 -3.52248 0
M  V30 10726 C 999.903 -0.35975 -4.55582 0
M  V30 10727 C 1000.9 -1.20449 -5.05755 0
M  V30 10728 C 998.585 -0.515463 -4.99648 0
M  V30 10729 C 1000.58 -2.19043 -5.98581 0
M  V30 10730 C 998.266 -1.50479 -5.92283 0
M  V30 10731 C 999.264 -2.34072 -6.41638 0
M  V30 10732 O 998.952 -3.31319 -7.3245 0
M  V30 10733 H 998.684 0.0501122 -0.67414 0
M  V30 10734 H 1001.24 -0.5018 -1.99176 0
M  V30 10735 H 999.468 1.51727 -3.55691 0
M  V30 10736 H 1001.16 1.23513 -3.86651 0
M  V30 10737 H 1001.92 -1.09531 -4.7247 0
M  V30 10738 H 997.802 0.12537 -4.60829 0
M  V30 10739 H 1001.35 -2.84327 -6.37027 0
M  V30 10740 H 997.243 -1.61451 -6.24983 0
M  V30 10741 H 998.011 -3.26863 -7.50402 0
M  V30 10742 N 1000.67 1.57404 -0.0785433 0
M  V30 10743 C 1001.64 2.11977 0.871693 0
M  V30 10744 C 1002.64 1.04529 1.2219 0
M  V30 10745 O 1003.83 1.30488 1.15406 0
M  V30 10746 C 1000.96 2.6267 2.17296 0
M  V30 10747 H 1002.15 2.97246 0.398115 0
M  V30 10748 H 999.705 1.5537 0.170251 0
M  V30 10749 H 1000.44 1.80873 2.69175 0
M  V30 10750 H 1000.22 3.41214 1.93171 0
M  V30 10751 H 1001.71 3.04943 2.85306 0
M  V30 10752 N 1002.15 -0.195058 1.56388 0
M  V30 10753 C 1003.08 -1.26581 1.91076 0
M  V30 10754 C 1004.1 -1.41707 0.801436 0
M  V30 10755 O 1005.29 -1.42132 1.07985 0
M  V30 10756 C 1002.39 -2.63794 2.12758 0
M  V30 10757 C 1001.56 -2.70275 3.43904 0
M  V30 10758 C 1000.62 -3.88685 3.54698 0
M  V30 10759 O 999.644 -3.75786 4.2752 0
M  V30 10760 N 1000.85 -5.04141 2.87789 0
M  V30 10761 H 1003.61 -0.971401 2.83521 0
M  V30 10762 H 1001.17 -0.384976 1.57256 0
M  V30 10763 H 1003.16 -3.41434 2.17267 0
M  V30 10764 H 1001.73 -2.85723 1.26812 0
M  V30 10765 H 1000.95 -1.78909 3.51262 0
M  V30 10766 H 1002.24 -2.71597 4.30247 0
M  V30 10767 H 1001.64 -5.17519 2.28452 0
M  V30 10768 H 1000.2 -5.79727 2.97925 0
M  V30 10769 N 1003.63 -1.50653 -0.462772 0
M  V30 10770 C 1004.88 -1.62297 -1.21603 0
M  V30 10771 C 1005.21 -0.326191 -1.91441 0
M  V30 10772 O 1004.48 0.67284 -1.82491 0
M  V30 10773 C 1004.77 -2.80901 -2.25315 0
M  V30 10774 C 1004.62 -4.20484 -1.59728 0
M  V30 10775 C 1005.94 -2.95049 -3.26549 0
M  V30 10776 H 1003.06 -0.590691 -0.440741 0
M  V30 10777 H 1005.7 -1.83064 -0.508675 0
M  V30 10778 H 1003.85 -2.63325 -2.85643 0
M  V30 10779 H 1005.52 -4.49669 -1.02932 0
M  V30 10780 H 1003.76 -4.24357 -0.900181 0
M  V30 10781 H 1004.44 -4.99416 -2.35133 0
M  V30 10782 H 1006.91 -3.11166 -2.76251 0
M  V30 10783 H 1005.79 -3.79645 -3.96435 0
M  V30 10784 H 1006.05 -2.06019 -3.91163 0
M  V30 10785 N 1005.11 0.71652 -1.4037 0
M  V30 10786 C 1006.04 1.84012 -1.34963 0
M  V30 10787 C 1007.02 1.61102 -0.22017 0
M  V30 10788 O 1008.2 1.84127 -0.403676 0
M  V30 10789 C 1005.33 3.20334 -1.10017 0
M  V30 10790 C 1004.38 3.62072 -2.25402 0
M  V30 10791 S 1005.21 3.69295 -3.8779 0
M  V30 10792 C 1006.37 5.08378 -3.65107 0
M  V30 10793 H 1006.6 1.88318 -2.30052 0
M  V30 10794 H 1004.13 0.883208 -1.26644 0
M  V30 10795 H 1006.09 3.99042 -0.963097 0
M  V30 10796 H 1004.75 3.13662 -0.16584 0
M  V30 10797 H 1003.94 4.61051 -2.03587 0
M  V30 10798 H 1003.55 2.90619 -2.35408 0
M  V30 10799 H 1005.84 5.95268 -3.23516 0
M  V30 10800 H 1006.78 5.35228 -4.63613 0
M  V30 10801 H 1007.19 4.78927 -2.98813 0
M  V30 10802 N 1006.59 1.25851 0.948643 0
M  V30 10803 C 1007.83 1.12166 1.70874 0
M  V30 10804 C 1008.19 -0.330734 1.8913 0
M  V30 10805 O 1009.39 -0.58954 2.62255 0
M  V30 10806 C 1007.66 1.86162 3.05088 0
M  V30 10807 S 1009.22 1.88441 3.96277 0
M  V30 10808 H 1006.04 0.400803 0.587263 0
M  V30 10809 H 1008.64 1.59463 1.13101 0
M  V30 10810 H 1007.35 2.90916 2.89476 0
M  V30 10811 H 1006.88 1.39276 3.67921 0
M  V30 10812 H 1008.89 0.96575 4.86711 0
M  V30 10813 N 1008.06 -1.15214 1.07534 0
M  V30 10814 C 1009.48 -1.38031 0.801228 0
M  V30 10815 C 1009.68 -1.92556 -0.593672 0
M  V30 10816 O 1008.74 -2.1325 -1.35206 0
M  V30 10817 C 1010.05 -2.34958 1.87657 0
M  V30 10818 C 1011.6 -2.48617 1.90154 0
M  V30 10819 C 1012.07 -3.48837 2.96777 0
M  V30 10820 N 1013.56 -3.56374 2.95892 0
M  V30 10821 C 1014.3 -4.33746 3.75036 0
M  V30 10822 N 1013.79 -5.14435 4.64036 0
M  V30 10823 N 1015.59 -4.28853 3.63375 0
M  V30 10824 H 1007.74 -0.781639 1.97495 0
M  V30 10825 H 1010 -0.406243 0.856546 0
M  V30 10826 H 1009.71 -2.02013 2.87895 0
M  V30 10827 H 1009.58 -3.3476 1.73827 0
M  V30 10828 H 1011.97 -2.80859 0.905666 0
M  V30 10829 H 1012.05 -1.48808 2.08062 0
M  V30 10830 H 1011.69 -3.1733 3.96565 0
M  V30 10831 H 1011.62 -4.48406 2.76116 0
M  V30 10832 H 1014.11 -2.98784 2.31379 0
M  V30 10833 H 1014.43 -5.70722 5.21053 0
M  V30 10834 H 1012.77 -5.13734 4.68084 0
M  V30 10835 H 1015.96 -3.64882 2.93221 0
M  V30 10836 H 1016.14 -4.88903 4.25298 0
M  V30 10837 N 1009.54 -0.859717 -1.32086 0
M  V30 10838 C 1010.49 -0.306042 -2.28762 0
M  V30 10839 C 1011.46 0.589801 -1.55276 0
M  V30 10840 O 1012.64 0.523633 -1.83474 0
M  V30 10841 C 1009.78 0.495256 -3.41528 0
M  V30 10842 C 1008.9 -0.426947 -4.29885 0
M  V30 10843 C 1008.03 0.387474 -5.29785 0
M  V30 10844 C 1007.07 -0.531807 -6.09785 0
M  V30 10845 N 1006.21 0.245741 -7.0167 0
M  V30 10846 H 1011.05 -1.1357 -2.7551 0
M  V30 10847 H 1008.59 -0.571468 -1.35546 0
M  V30 10848 H 1010.54 0.97551 -4.05635 0
M  V30 10849 H 1009.17 1.28969 -2.95917 0
M  V30 10850 H 1008.23 -1.02561 -3.66313 0
M  V30 10851 H 1009.54 -1.13226 -4.85779 0
M  V30 10852 H 1008.69 0.930677 -5.99519 0
M  V30 10853 H 1007.43 1.12612 -4.74521 0
M  V30 10854 H 1006.44 -1.08685 -5.3895 0
M  V30 10855 H 1007.66 -1.26915 -6.67135 0
M  V30 10856 H 1005.61 0.967391 -6.48828 0
M  V30 10857 H 1005.52 -0.400432 -7.54939 0
M  V30 10858 H 1006.79 0.770507 -7.75683 0
M  V30 10859 N 1011.02 1.44971 -0.618145 0
M  V30 10860 C 1012.43 1.85611 -0.201334 0
M  V30 10861 C 1012.78 1.51698 1.24427 0
M  V30 10862 O 1011.91 0.94875 1.94493 0
M  V30 10863 C 1012.5 3.36897 -0.358619 0
M  V30 10864 C 1011.06 3.764 0.00358196 0
M  V30 10865 C 1010.21 2.68881 -0.678118 0
M  V30 10866 H 1013.16 1.35622 -0.824152 0
M  V30 10867 H 1013.18 3.78326 0.406176 0
M  V30 10868 H 1012.69 3.61548 -1.41084 0
M  V30 10869 H 1010.79 3.57365 1.05457 0
M  V30 10870 H 1010.91 4.77449 -0.397427 0
M  V30 10871 H 1009.27 2.54442 -0.114699 0
M  V30 10872 H 1010.05 2.96367 -1.73268 0
M  V30 10873 N 1012.5 0.357919 1.53482 0
M  V30 10874 C 1013.72 -0.237769 2.06033 0
M  V30 10875 C 1014.15 -1.42292 1.23023 0
M  V30 10876 O 1013.51 -1.79604 0.247427 0
M  V30 10877 C 1013.55 -0.616806 3.55286 0
M  V30 10878 O 1012.66 -1.71503 3.75047 0
M  V30 10879 H 1012 -0.0364322 0.663 0
M  V30 10880 H 1014.53 0.516301 1.97979 0
M  V30 10881 H 1014.54 -0.88996 3.98175 0
M  V30 10882 H 1013.21 0.249825 4.15149 0
M  V30 10883 H 1011.79 -1.43803 3.44057 0
M  V30 10884 N 1013.98 -1.5736 0.0868897 0
M  V30 10885 C 1015.39 -1.81356 -0.443499 0
M  V30 10886 C 1015.74 -1.00192 -1.68689 0
M  V30 10887 O 1014.86 -0.228863 -2.15186 0
M  V30 10888 C 1015.46 -3.28941 -0.811387 0
M  V30 10889 C 1014.02 -3.53729 -1.28656 0
M  V30 10890 C 1013.16 -2.75891 -0.279153 0
M  V30 10891 H 1016.12 -1.55594 0.312427 0
M  V30 10892 H 1016.14 -3.41815 -1.6716 0
M  V30 10893 H 1015.65 -3.87987 0.0937598 0
M  V30 10894 H 1013.75 -3.00005 -2.2097 0
M  V30 10895 H 1013.86 -4.62396 -1.25406 0
M  V30 10896 H 1012.23 -2.4311 -0.759595 0
M  V30 10897 H 1013.01 -3.37682 0.618529 0
M  V30 10898 N 1015.45 0.186762 -1.56489 0
M  V30 10899 C 1016.39 1.25565 -1.91745 0
M  V30 10900 C 1017.4 1.4128 -0.80894 0
M  V30 10901 O 1018.59 1.41558 -1.08737 0
M  V30 10902 C 1015.69 2.62662 -2.14154 0
M  V30 10903 C 1014.86 2.68448 -3.45333 0
M  V30 10904 C 1013.92 3.86798 -3.56754 0
M  V30 10905 O 1012.95 3.73514 -4.29507 0
M  V30 10906 N 1014.15 5.02607 -2.90459 0
M  V30 10907 H 1016.91 0.956351 -2.84032 0
M  V30 10908 H 1014.47 0.376631 -1.57458 0
M  V30 10909 H 1016.47 3.40277 -2.19075 0
M  V30 10910 H 1015.04 2.85046 -1.28326 0
M  V30 10911 H 1014.26 1.77044 -3.52206 0
M  V30 10912 H 1015.54 2.69311 -4.31682 0
M  V30 10913 H 1014.94 5.163 -2.31194 0
M  V30 10914 H 1013.5 5.78139 -3.00996 0
M  V30 10915 N 1016.93 1.50896 0.454776 0
M  V30 10916 C 1018.21 1.53227 1.21576 0
M  V30 10917 C 1018.59 0.286358 2.09149 0
M  V30 10918 O 1017.94 -0.729469 2.16543 0
M  V30 10919 C 1018.15 2.83693 2.03271 0
M  V30 10920 C 1019.5 3.34981 2.60908 0
M  V30 10921 O 1020.52 2.85126 2.13499 0
M  V30 10922 O 1019.38 4.21929 3.4733 0
M  V30 10923 H 1016.47 0.615306 0.552564 0
M  V30 10924 H 1019.02 1.63197 0.465266 0
M  V30 10925 H 1017.79 3.65839 1.38843 0
M  V30 10926 H 1017.41 2.76803 2.85422 0
M  V30 10927 N 1018.41 -0.709066 1.40748 0
M  V30 10928 C 1019.64 -1.50313 1.42901 0
M  V30 10929 C 1020.06 -1.88072 0.032213 0
M  V30 10930 O 1019.42 -1.53716 -0.96131 0
M  V30 10931 C 1019.47 -2.75074 2.33166 0
M  V30 10932 O 1018.57 -3.72036 1.7794 0
M  V30 10933 H 1017.91 -0.452934 0.485538 0
M  V30 10934 H 1020.44 -0.872712 1.85054 0
M  V30 10935 H 1020.45 -3.23532 2.48578 0
M  V30 10936 H 1019.13 -2.46927 3.34664 0
M  V30 10937 H 1017.7 -3.30911 1.71908 0
M  V30 10938 N 1019.89 -1.26353 -0.941956 0
M  V30 10939 C 1020.84 -1.04513 -2.02635 0
M  V30 10940 C 1021.82 0.0222314 -1.60885 0
M  V30 10941 O 1023.02 -0.194629 -1.75927 0
M  V30 10942 C 1020.14 -0.679282 -3.36512 0
M  V30 10943 C 1019.23 -1.78406 -3.8475 0
M  V30 10944 N 1019.62 -3.02136 -4.05645 0
M  V30 10945 C 1017.92 -1.66748 -4.13656 0
M  V30 10946 C 1018.62 -3.73932 -4.45589 0
M  V30 10947 N 1017.6 -3.01616 -4.52248 0
M  V30 10948 H 1021.4 -1.9843 -2.16801 0
M  V30 10949 H 1018.91 -1.16858 -1.12774 0
M  V30 10950 H 1020.91 -0.503975 -4.13843 0
M  V30 10951 H 1019.57 0.252418 -3.23717 0
M  V30 10952 H 1020.58 -3.38049 -3.92356 0
M  V30 10953 H 1017.26 -0.805627 -4.09653 0
M  V30 10954 H 1018.65 -4.80201 -4.69954 0
M  V30 10955 N 1021.37 1.14642 -1.08144 0
M  V30 10956 C 1022.64 1.81774 -0.72232 0
M  V30 10957 C 1023.02 1.95587 0.794294 0
M  V30 10958 O 1022.37 1.51361 1.71178 0
M  V30 10959 C 1022.58 3.1763 -1.44611 0
M  V30 10960 C 1023.93 3.93161 -1.60343 0
M  V30 10961 O 1024.95 3.2721 -1.40755 0
M  V30 10962 O 1023.81 5.11422 -1.9264 0
M  V30 10963 H 1020.91 0.785733 -0.257978 0
M  V30 10964 H 1023.45 1.21683 -1.18285 0
M  V30 10965 H 1022.23 3.02723 -2.4794 0
M  V30 10966 H 1021.85 3.85412 -0.976892 0
M  V30 10967 N 1022.85 0.866709 1.31628 0
M  V30 10968 C 1024.07 0.49039 2.01004 0
M  V30 10969 C 1024.49 -0.916244 1.65077 0
M  V30 10970 O 1023.85 -1.59975 0.8783 0
M  V30 10971 C 1023.9 0.634011 3.55897 0
M  V30 10972 O 1023.62 1.98525 3.90537 0
M  V30 10973 C 1025.12 0.258277 4.42547 0
M  V30 10974 H 1022.34 0.191421 0.643117 0
M  V30 10975 H 1024.88 1.16698 1.67934 0
M  V30 10976 H 1023.04 0.00501801 3.874 0
M  V30 10977 H 1023.45 1.99067 4.85255 0
M  V30 10978 H 1024.93 0.409733 5.50477 0
M  V30 10979 H 1025.4 -0.802301 4.3181 0
M  V30 10980 H 1026.01 0.862837 4.16456 0
M  V30 10981 N 1024.32 -1.44642 0.625825 0
M  V30 10982 C 1025.27 -2.27762 -0.104042 0
M  V30 10983 C 1026.26 -1.38364 -0.821232 0
M  V30 10984 O 1027.45 -1.62214 -0.708213 0
M  V30 10985 C 1024.58 -3.25585 -1.08853 0
M  V30 10986 C 1023.66 -4.22472 -0.371241 0
M  V30 10987 N 1024.06 -5.02262 0.597226 0
M  V30 10988 C 1022.35 -4.4172 -0.616392 0
M  V30 10989 C 1023.05 -5.72678 1.02053 0
M  V30 10990 N 1022.03 -5.42404 0.360423 0
M  V30 10991 H 1025.83 -2.86858 0.639517 0
M  V30 10992 H 1023.35 -1.56015 0.450911 0
M  V30 10993 H 1025.34 -3.83885 -1.62597 0
M  V30 10994 H 1024 -2.68051 -1.83245 0
M  V30 10995 H 1025.01 -5.08643 0.974803 0
M  V30 10996 H 1021.69 -3.9529 -1.34359 0
M  V30 10997 H 1023.08 -6.46772 1.82033 0
M  V30 10998 N 1025.8 -0.366053 -1.5329 0
M  V30 10999 C 1027.03 0.226839 -2.06156 0
M  V30 11000 C 1027.45 1.41637 -1.23776 0
M  V30 11001 O 1026.81 1.7947 -0.256948 0
M  V30 11002 C 1026.86 0.597956 -3.55608 0
M  V30 11003 O 1025.96 1.69512 -3.75951 0
M  V30 11004 H 1025.3 0.0329156 -0.663184 0
M  V30 11005 H 1027.83 -0.526793 -1.97702 0
M  V30 11006 H 1027.84 0.868831 -3.98642 0
M  V30 11007 H 1026.52 -0.271838 -4.15011 0
M  V30 11008 H 1025.09 1.41976 -3.44815 0
M  V30 11009 N 1027.28 1.57312 -0.0952337 0
M  V30 11010 C 1028.69 1.81589 0.433875 0
M  V30 11011 C 1029.04 1.01086 1.68155 0
M  V30 11012 O 1028.17 0.240272 2.15062 0
M  V30 11013 C 1028.76 3.29366 0.793931 0
M  V30 11014 C 1027.32 3.54407 1.26778 0
M  V30 11015 C 1026.47 2.76035 0.264518 0
M  V30 11016 H 1029.42 1.55426 -0.320675 0
M  V30 11017 H 1029.44 3.42697 1.65345 0
M  V30 11018 H 1028.95 3.87932 -0.114334 0
M  V30 11019 H 1027.05 3.01173 2.19376 0
M  V30 11020 H 1027.17 4.63055 1.22952 0
M  V30 11021 H 1025.53 2.43509 0.746691 0
M  V30 11022 H 1026.31 3.37349 -0.636429 0
M  V30 11023 N 1028.76 -0.17846 1.56586 0
M  V30 11024 C 1030.17 -0.741599 1.71339 0
M  V30 11025 C 1030.52 -1.83112 0.704579 0
M  V30 11026 O 1029.64 -2.15975 -0.135557 0
M  V30 11027 C 1030.24 -1.35198 3.10656 0
M  V30 11028 C 1028.8 -1.86202 3.27118 0
M  V30 11029 C 1027.95 -0.738255 2.67292 0
M  V30 11030 H 1030.9 0.0468424 1.58631 0
M  V30 11031 H 1030.92 -2.2216 3.0891 0
M  V30 11032 H 1030.43 -0.558776 3.84056 0
M  V30 11033 H 1028.53 -2.68188 2.58661 0
M  V30 11034 H 1028.64 -2.01237 4.34788 0
M  V30 11035 H 1027.01 -1.15686 2.26912 0
M  V30 11036 H 1027.79 0.0429821 3.43273 0
M  V30 11037 N 1030.24 -1.51135 -0.446768 0
M  V30 11038 C 1031.19 -1.68152 -1.53977 0
M  V30 11039 C 1032.17 -0.53563 -1.51723 0
M  V30 11040 O 1033.36 -0.791134 -1.58335 0
M  V30 11041 C 1030.49 -1.80133 -2.92245 0
M  V30 11042 C 1029.58 -3.00476 -2.99291 0
M  V30 11043 N 1029.97 -4.23796 -2.76099 0
M  V30 11044 C 1028.27 -2.99536 -3.30445 0
M  V30 11045 C 1028.97 -5.04977 -2.88744 0
M  V30 11046 N 1027.94 -4.39428 -3.20006 0
M  V30 11047 H 1031.74 -2.61172 -1.34784 0
M  V30 11048 H 1029.26 -1.48653 -0.653923 0
M  V30 11049 H 1031.26 -1.90432 -3.70866 0
M  V30 11050 H 1029.92 -0.882879 -3.12467 0
M  V30 11051 H 1030.93 -4.52896 -2.51209 0
M  V30 11052 H 1027.6 -2.17286 -3.56501 0
M  V30 11053 H 1028.99 -6.13114 -2.74847 0
M  V30 11054 N 1031.71 0.701592 -1.41122 0
M  V30 11055 C 1032.64 1.82815 -1.45262 0
M  V30 11056 C 1033.62 1.67215 -0.311939 0
M  V30 11057 O 1034.81 1.87038 -0.522538 0
M  V30 11058 C 1031.94 3.20899 -1.32819 0
M  V30 11059 C 1030.89 3.51194 -2.44636 0
M  V30 11060 C 1030.22 4.8857 -2.17263 0
M  V30 11061 C 1031.52 3.50777 -3.86979 0
M  V30 11062 H 1033.21 1.79608 -2.39544 0
M  V30 11063 H 1030.76 0.862693 -1.15298 0
M  V30 11064 H 1032.71 3.99417 -1.34329 0
M  V30 11065 H 1031.44 3.24717 -0.350191 0
M  V30 11066 H 1030.1 2.75024 -2.42399 0
M  V30 11067 H 1029.74 4.89007 -1.17819 0
M  V30 11068 H 1029.44 5.09805 -2.92186 0
M  V30 11069 H 1030.97 5.69405 -2.20478 0
M  V30 11070 H 1032.38 4.19309 -3.90964 0
M  V30 11071 H 1030.78 3.83542 -4.61536 0
M  V30 11072 H 1031.85 2.49873 -4.15562 0
M  V30 11073 N 1033.19 1.2685 0.935242 0
M  V30 11074 C 1034.61 1.04091 1.20984 0
M  V30 11075 C 1034.81 -0.230242 2.0018 0
M  V30 11076 O 1033.86 -0.93778 2.3444 0
M  V30 11077 C 1035.18 2.27586 1.96533 0
M  V30 11078 C 1036.72 2.32547 2.09501 0
M  V30 11079 C 1037.2 3.55751 2.88454 0
M  V30 11080 N 1038.69 3.56263 2.96025 0
M  V30 11081 C 1039.43 4.48262 3.57559 0
M  V30 11082 N 1038.92 5.50557 4.20546 0
M  V30 11083 N 1040.71 4.35901 3.5489 0
M  V30 11084 H 1032.87 2.08484 0.405954 0
M  V30 11085 H 1035.13 0.916548 0.242164 0
M  V30 11086 H 1034.83 3.20076 1.45753 0
M  V30 11087 H 1034.71 2.32305 2.97177 0
M  V30 11088 H 1037.1 1.40568 2.5947 0
M  V30 11089 H 1037.18 2.31836 1.08101 0
M  V30 11090 H 1036.82 4.48063 2.3917 0
M  V30 11091 H 1036.75 3.53711 3.90123 0
M  V30 11092 H 1039.24 2.82278 2.51252 0
M  V30 11093 H 1039.55 6.16935 4.65415 0
M  V30 11094 H 1037.9 5.54407 4.19115 0
M  V30 11095 H 1041.09 3.552 3.04879 0
M  V30 11096 H 1041.26 5.07792 4.02557 0
M  V30 11097 N 1034.67 -1.14067 1.0875 0
M  V30 11098 C 1035.92 -1.85459 0.82053 0
M  V30 11099 C 1036.25 -1.82923 -0.65213 0
M  V30 11100 O 1035.52 -1.26241 -1.47965 0
M  V30 11101 C 1035.81 -3.33937 1.34752 0
M  V30 11102 C 1035.66 -3.45026 2.88578 0
M  V30 11103 C 1036.98 -4.2915 0.975636 0
M  V30 11104 H 1034.1 -0.673384 0.299538 0
M  V30 11105 H 1036.74 -1.33927 1.34772 0
M  V30 11106 H 1034.89 -3.77953 0.899086 0
M  V30 11107 H 1036.56 -3.09771 3.41818 0
M  V30 11108 H 1034.81 -2.86124 3.26061 0
M  V30 11109 H 1035.48 -4.49408 3.20526 0
M  V30 11110 H 1037.95 -3.93168 1.36228 0
M  V30 11111 H 1036.83 -5.31489 1.37152 0
M  V30 11112 H 1037.09 -4.41945 -0.116956 0
M  V30 11113 N 1036.15 -0.873678 -1.31166 0
M  V30 11114 C 1037.1 -0.303699 -2.25968 0
M  V30 11115 C 1038.08 0.561387 -1.50789 0
M  V30 11116 O 1039.27 0.407658 -1.72242 0
M  V30 11117 C 1036.4 0.490612 -3.39776 0
M  V30 11118 C 1035.49 -0.387927 -4.22322 0
M  V30 11119 N 1035.88 -1.48313 -4.83567 0
M  V30 11120 C 1034.18 -0.18102 -4.45632 0
M  V30 11121 C 1034.88 -2.0252 -5.45308 0
M  V30 11122 N 1033.86 -1.32169 -5.27288 0
M  V30 11123 H 1037.66 -1.14071 -2.7086 0
M  V30 11124 H 1035.17 -0.721843 -1.45476 0
M  V30 11125 H 1037.17 0.9155 -4.06724 0
M  V30 11126 H 1035.83 1.32519 -2.96427 0
M  V30 11127 H 1036.84 -1.86604 -4.83114 0
M  V30 11128 H 1033.52 0.617304 -4.12911 0
M  V30 11129 H 1034.91 -2.94429 -6.03955 0
M  V30 11130 N 1037.63 1.44308 -0.633487 0
M  V30 11131 C 1038.87 2.01624 -0.138643 0
M  V30 11132 C 1039.2 1.50101 1.24477 0
M  V30 11133 O 1038.47 0.705575 1.82752 0
M  V30 11134 H 1037.05 0.745439 -0.0482636 0
M  V30 11135 H 1039.71 1.76777 -0.820719 0
M  V30 11136 H 1038.8 3.11913 -0.108136 0
M  V30 11137 N 1039.1 0.374177 1.53094 0
M  V30 11138 C 1040.52 -0.103172 1.86415 0
M  V30 11139 C 1040.87 -1.47439 1.29446 0
M  V30 11140 O 1039.99 -2.07333 0.619853 0
M  V30 11141 C 1040.59 -0.193988 3.38244 0
M  V30 11142 C 1039.15 -0.615605 3.71332 0
M  V30 11143 C 1038.29 0.23186 2.76329 0
M  V30 11144 H 1041.24 0.592644 1.47219 0
M  V30 11145 H 1041.26 -1.01597 3.66686 0
M  V30 11146 H 1040.78 0.80414 3.79678 0
M  V30 11147 H 1038.88 -1.62165 3.3546 0
M  V30 11148 H 1038.99 -0.38425 4.77557 0
M  V30 11149 H 1037.35 -0.300579 2.5292 0
M  V30 11150 H 1038.14 1.22769 3.20597 0
M  V30 11151 N 1040.58 -1.57259 0.103575 0
M  V30 11152 C 1041.51 -2.17509 -0.84923 0
M  V30 11153 C 1042.49 -1.11079 -1.28824 0
M  V30 11154 O 1043.68 -1.39252 -1.35361 0
M  V30 11155 C 1040.81 -2.76221 -2.10522 0
M  V30 11156 C 1039.76 -3.88098 -1.80454 0
M  V30 11157 C 1039.09 -4.33549 -3.12952 0
M  V30 11158 C 1040.39 -5.10909 -1.08486 0
M  V30 11159 H 1042.08 -2.9738 -0.347217 0
M  V30 11160 H 1039.63 -1.43045 -0.165568 0
M  V30 11161 H 1041.58 -3.17024 -2.77621 0
M  V30 11162 H 1040.31 -1.93617 -2.63021 0
M  V30 11163 H 1038.96 -3.47847 -1.15749 0
M  V30 11164 H 1038.61 -3.47825 -3.63355 0
M  V30 11165 H 1038.31 -5.08984 -2.93614 0
M  V30 11166 H 1039.84 -4.76992 -3.81196 0
M  V30 11167 H 1041.25 -5.48828 -1.65711 0
M  V30 11168 H 1039.65 -5.91828 -0.992973 0
M  V30 11169 H 1040.72 -4.84851 -0.0690108 0
M  V30 11170 N 1042.06 0.170153 -1.56679 0
M  V30 11171 C 1043.29 0.90618 -1.86556 0
M  V30 11172 C 1043.71 1.74986 -0.690044 0
M  V30 11173 O 1043.07 1.77672 0.360862 0
M  V30 11174 C 1043.12 1.75777 -3.14857 0
M  V30 11175 O 1042.22 2.85952 -2.97162 0
M  V30 11176 H 1041.56 0.253781 -0.613589 0
M  V30 11177 H 1044.09 0.167943 -2.0391 0
M  V30 11178 H 1044.1 2.15747 -3.46291 0
M  V30 11179 H 1042.78 1.13807 -4.00026 0
M  V30 11180 H 1041.35 2.49557 -2.77084 0
M  V30 11181 N 1043.54 1.5137 0.438746 0
M  V30 11182 C 1044.76 1.68058 1.21537 0
M  V30 11183 C 1045.19 0.376787 1.84288 0
M  V30 11184 O 1044.55 -0.662911 1.68746 0
M  V30 11185 C 1044.59 2.79684 2.27616 0
M  V30 11186 O 1043.7 2.43189 3.33066 0
M  V30 11187 H 1043.04 0.560408 0.356144 0
M  V30 11188 H 1045.57 1.97926 0.518311 0
M  V30 11189 H 1045.58 3.03726 2.72423 0
M  V30 11190 H 1044.25 3.74293 1.81321 0
M  V30 11191 H 1042.83 2.29713 2.93746 0
M  V30 11192 N 1045.02 -0.694098 1.41492 0
M  V30 11193 C 1046.24 -1.48286 1.44288 0
M  V30 11194 C 1046.66 -1.88737 0.0485783 0
M  V30 11195 O 1046.02 -1.56881 -0.932449 0
M  V30 11196 C 1046.07 -2.74446 2.3529 0
M  V30 11197 O 1045.79 -2.35698 3.69294 0
M  V30 11198 C 1047.29 -3.68175 2.46905 0
M  V30 11199 H 1044.51 -0.45692 0.491391 0
M  V30 11200 H 1047.05 -0.854477 1.85793 0
M  V30 11201 H 1045.21 -3.33518 1.9709 0
M  V30 11202 H 1045.62 -3.17029 4.17843 0
M  V30 11203 H 1047.1 -4.53476 3.14743 0
M  V30 11204 H 1047.57 -4.12763 1.50078 0
M  V30 11205 H 1048.18 -3.15006 2.85747 0
M  V30 11206 N 1046.49 -1.27344 -0.928501 0
M  V30 11207 C 1047.91 -1.12361 -1.49103 0
M  V30 11208 C 1048.26 0.291667 -1.9402 0
M  V30 11209 O 1047.38 1.18449 -1.81104 0
M  V30 11210 C 1047.98 -2.03358 -2.70981 0
M  V30 11211 C 1046.54 -1.92483 -3.23461 0
M  V30 11212 C 1045.68 -1.95961 -1.962 0
M  V30 11213 H 1048.63 -1.40249 -0.742689 0
M  V30 11214 H 1048.65 -1.58892 -3.45736 0
M  V30 11215 H 1048.17 -3.06356 -2.38259 0
M  V30 11216 H 1046.27 -0.924676 -3.60944 0
M  V30 11217 H 1046.38 -2.78682 -3.89709 0
M  V30 11218 H 1044.74 -1.40175 -2.12657 0
M  V30 11219 H 1045.53 -3.00612 -1.65793 0
M  V30 11220 N 1047.97 1.13488 -1.09353 0
M  V30 11221 C 1048.94 2.17066 -0.735863 0
M  V30 11222 C 1049.94 1.59086 0.234181 0
M  V30 11223 O 1051.13 1.74196 0.012463 0
M  V30 11224 C 1048.26 3.40786 -0.0880975 0
M  V30 11225 H 1049.45 2.50221 -1.65316 0
M  V30 11226 H 1047 1.28304 -0.89263 0
M  V30 11227 H 1047.74 3.1322 0.840462 0
M  V30 11228 H 1047.52 3.8414 -0.786073 0
M  V30 11229 H 1049.01 4.17342 0.146775 0
M  V30 11230 N 1049.45 0.880621 1.30701 0
M  V30 11231 C 1050.7 0.496875 1.96309 0
M  V30 11232 C 1051.03 -0.953064 1.69549 0
M  V30 11233 O 1050.28 -1.68782 0.990507 0
M  V30 11234 C 1050.58 0.713203 3.50212 0
M  V30 11235 C 1050.25 2.13756 3.97013 0
M  V30 11236 C 1048.91 2.52706 4.09503 0
M  V30 11237 C 1051.26 3.066 4.21481 0
M  V30 11238 C 1048.59 3.8372 4.43819 0
M  V30 11239 C 1050.94 4.3714 4.57265 0
M  V30 11240 C 1049.6 4.7599 4.67963 0
M  V30 11241 H 1048.87 0.18182 0.718347 0
M  V30 11242 H 1051.52 1.11564 1.55646 0
M  V30 11243 H 1049.83 0.0113694 3.91798 0
M  V30 11244 H 1051.52 0.39595 3.9904 0
M  V30 11245 H 1048.11 1.8252 3.87794 0
M  V30 11246 H 1052.3 2.77729 4.11315 0
M  V30 11247 H 1047.55 4.13568 4.50301 0
M  V30 11248 H 1051.73 5.09123 4.75149 0
M  V30 11249 H 1049.35 5.77549 4.94309 0
M  V30 11250 N 1050.93 -1.4397 0.641131 0
M  V30 11251 C 1051.89 -2.29149 -0.0482243 0
M  V30 11252 C 1052.89 -1.41572 -0.762495 0
M  V30 11253 O 1054.08 -1.63335 -0.605571 0
M  V30 11254 C 1051.21 -3.23375 -1.07896 0
M  V30 11255 H 1052.41 -2.9159 0.70109 0
M  V30 11256 H 1049.96 -1.51048 0.401754 0
M  V30 11257 H 1050.7 -2.65804 -1.85792 0
M  V30 11258 H 1050.48 -3.87926 -0.570597 0
M  V30 11259 H 1051.97 -3.87337 -1.56075 0
M  V30 11260 N 1052.41 -0.382291 -1.52893 0
M  V30 11261 C 1053.82 -0.031941 -1.59568 0
M  V30 11262 C 1054.02 1.45245 -1.39664 0
M  V30 11263 O 1053.08 2.21612 -1.21013 0
M  V30 11264 C 1054.39 -0.502846 -2.96466 0
M  V30 11265 C 1055.94 -0.4585 -3.09624 0
M  V30 11266 C 1056.42 -0.905481 -4.4896 0
M  V30 11267 N 1057.91 -0.861211 -4.55124 0
M  V30 11268 C 1058.64 -1.17856 -5.61157 0
M  V30 11269 N 1058.14 -1.56603 -6.74868 0
M  V30 11270 N 1059.93 -1.10027 -5.51226 0
M  V30 11271 H 1052.08 -1.34875 -1.64081 0
M  V30 11272 H 1054.34 -0.552375 -0.770446 0
M  V30 11273 H 1054.05 -1.53931 -3.16225 0
M  V30 11274 H 1053.92 0.101777 -3.77063 0
M  V30 11275 H 1056.31 0.568868 -2.89565 0
M  V30 11276 H 1056.39 -1.09884 -2.30996 0
M  V30 11277 H 1056.04 -1.93105 -4.69759 0
M  V30 11278 H 1055.97 -0.242227 -5.26043 0
M  V30 11279 H 1058.46 -0.575988 -3.73485 0
M  V30 11280 H 1058.77 -1.792 -7.51736 0
M  V30 11281 H 1057.12 -1.60484 -6.76217 0
M  V30 11282 H 1060.31 -0.796623 -4.61272 0
M  V30 11283 H 1060.48 -1.35091 -6.33762 0
M  V30 11284 N 1053.89 1.57202 -0.111913 0
M  V30 11285 C 1055.12 1.99008 0.554907 0
M  V30 11286 C 1055.52 0.990323 1.61212 0
M  V30 11287 O 1054.87 -0.0259612 1.83682 0
M  V30 11288 C 1054.93 3.37218 1.24598 0
M  V30 11289 C 1054.59 4.55752 0.337549 0
M  V30 11290 C 1055.59 5.18192 -0.421026 0
M  V30 11291 C 1053.27 5.01674 0.25069 0
M  V30 11292 C 1055.27 6.24938 -1.25426 0
M  V30 11293 C 1052.96 6.08282 -0.586186 0
M  V30 11294 C 1053.95 6.6978 -1.3373 0
M  V30 11295 O 1053.64 7.7433 -2.16029 0
M  V30 11296 H 1053.37 0.658669 0.152091 0
M  V30 11297 H 1055.93 2.04492 -0.192937 0
M  V30 11298 H 1054.16 3.28467 2.04074 0
M  V30 11299 H 1055.85 3.63359 1.809 0
M  V30 11300 H 1056.61 4.83634 -0.363752 0
M  V30 11301 H 1052.49 4.53558 0.825005 0
M  V30 11302 H 1056.04 6.72869 -1.84102 0
M  V30 11303 H 1051.93 6.42271 -0.64488 0
M  V30 11304 H 1052.7 7.91395 -2.08894 0
M  V30 11305 N 1055.36 -0.161842 1.56767 0
M  V30 11306 C 1056.61 -0.876925 1.82527 0
M  V30 11307 C 1056.94 -1.81831 0.690492 0
M  V30 11308 O 1056.19 -1.9304 -0.32159 0
M  V30 11309 C 1056.49 -1.69736 3.14522 0
M  V30 11310 C 1056.16 -0.904075 4.41743 0
M  V30 11311 C 1054.82 -0.685168 4.76297 0
M  V30 11312 C 1057.17 -0.348282 5.20035 0
M  V30 11313 C 1054.5 0.10048 5.86614 0
M  V30 11314 C 1056.85 0.424327 6.31175 0
M  V30 11315 C 1055.52 0.653948 6.64289 0
M  V30 11316 H 1054.79 -0.320889 0.667915 0
M  V30 11317 H 1057.43 -0.141338 1.90978 0
M  V30 11318 H 1055.74 -2.50262 3.01456 0
M  V30 11319 H 1057.44 -2.25386 3.31666 0
M  V30 11320 H 1054.03 -1.08474 4.14646 0
M  V30 11321 H 1058.21 -0.504721 4.93727 0
M  V30 11322 H 1053.47 0.288029 6.10721 0
M  V30 11323 H 1057.64 0.862203 6.91042 0
M  V30 11324 H 1055.27 1.26459 7.49608 0
M  V30 11325 N 1056.84 -1.516 -0.430713 0
M  V30 11326 C 1058.26 -1.39923 -0.767706 0
M  V30 11327 C 1058.46 -0.486756 -1.95532 0
M  V30 11328 O 1057.51 0.0555965 -2.52439 0
M  V30 11329 C 1058.83 -2.82074 -1.04187 0
M  V30 11330 C 1060.37 -2.9127 -1.1459 0
M  V30 11331 C 1060.85 -4.34342 -1.45295 0
M  V30 11332 N 1062.34 -4.37479 -1.52206 0
M  V30 11333 C 1063.08 -5.45219 -1.77549 0
M  V30 11334 N 1062.57 -6.6311 -2.0064 0
M  V30 11335 N 1064.36 -5.32707 -1.79386 0
M  V30 11336 H 1056.52 -2.09474 0.351351 0
M  V30 11337 H 1058.78 -0.943247 0.0948151 0
M  V30 11338 H 1058.48 -3.50868 -0.241837 0
M  V30 11339 H 1058.36 -3.21805 -1.96777 0
M  V30 11340 H 1060.75 -2.2267 -1.93655 0
M  V30 11341 H 1060.83 -2.55026 -0.198854 0
M  V30 11342 H 1060.47 -5.03494 -0.667559 0
M  V30 11343 H 1060.4 -4.68105 -2.41217 0
M  V30 11344 H 1062.89 -3.52488 -1.36237 0
M  V30 11345 H 1063.2 -7.41012 -2.19366 0
M  V30 11346 H 1061.55 -6.66214 -1.97948 0
M  V30 11347 H 1064.74 -4.39589 -1.60869 0
M  V30 11348 H 1064.91 -6.16752 -1.98799 0
M  V30 11349 N 1058.32 0.686584 -1.41858 0
M  V30 11350 C 1059.56 1.45879 -1.43173 0
M  V30 11351 C 1059.92 1.91953 -0.0423059 0
M  V30 11352 O 1061.12 2.68709 0.069783 0
M  V30 11353 C 1059.4 2.63196 -2.41791 0
M  V30 11354 S 1060.95 3.52212 -2.6171 0
M  V30 11355 H 1057.77 0.498391 -0.507077 0
M  V30 11356 H 1060.37 0.800313 -1.78368 0
M  V30 11357 H 1059.08 2.27566 -3.41529 0
M  V30 11358 H 1058.61 3.33928 -2.0798 0
M  V30 11359 H 1060.62 4.58744 -1.89125 0
M  V30 11360 N 1059.8 1.27835 0.921735 0
M  V30 11361 C 1060.76 1.11108 2.00469 0
M  V30 11362 C 1061.76 0.053203 1.60712 0
M  V30 11363 O 1062.95 0.298308 1.71627 0
M  V30 11364 C 1060.08 0.694269 3.33755 0
M  V30 11365 H 1061.28 2.07279 2.16738 0
M  V30 11366 H 1058.83 1.10708 1.10333 0
M  V30 11367 H 1059.56 -0.268561 3.23186 0
M  V30 11368 H 1059.35 1.45836 3.6397 0
M  V30 11369 H 1060.84 0.59965 4.13272 0
M  V30 11370 N 1061.28 -1.12907 1.09954 0
M  V30 11371 C 1062.69 -1.363 0.830326 0
M  V30 11372 C 1062.89 -1.93772 -0.552694 0
M  V30 11373 O 1061.95 -2.1607 -1.30652 0
M  V30 11374 C 1063.26 -2.30925 1.92598 0
M  V30 11375 C 1064.81 -2.44528 1.95385 0
M  V30 11376 C 1065.28 -3.42464 3.0411 0
M  V30 11377 N 1066.77 -3.50018 3.03384 0
M  V30 11378 C 1067.51 -4.25693 3.84152 0
M  V30 11379 N 1067.01 -5.04476 4.74843 0
M  V30 11380 N 1068.8 -4.21049 3.7239 0
M  V30 11381 H 1060.95 -0.739571 1.99108 0
M  V30 11382 H 1063.21 -0.387983 0.86497 0
M  V30 11383 H 1062.92 -1.95861 2.92115 0
M  V30 11384 H 1062.79 -3.30997 1.80889 0
M  V30 11385 H 1065.18 -2.78875 0.965037 0
M  V30 11386 H 1065.26 -1.44361 2.11172 0
M  V30 11387 H 1064.9 -3.08847 4.03207 0
M  V30 11388 H 1064.83 -4.42448 2.85565 0
M  V30 11389 H 1067.33 -2.93809 2.37665 0
M  V30 11390 H 1067.64 -5.59541 5.33042 0
M  V30 11391 H 1065.98 -5.0369 4.78875 0
M  V30 11392 H 1069.17 -3.5858 3.00895 0
M  V30 11393 H 1069.35 -4.79771 4.35572 0
M  V30 11394 N 1062.75 -0.88754 -1.30232 0
M  V30 11395 C 1064 -0.506277 -1.95656 0
M  V30 11396 C 1064.32 0.948191 -1.70395 0
M  V30 11397 O 1063.59 1.66701 -1.02895 0
M  V30 11398 H 1062.17 -0.184235 -0.723924 0
M  V30 11399 H 1064.83 -1.13118 -1.58715 0
M  V30 11400 H 1063.93 -0.678673 -3.04632 0
M  V30 11401 N 1064.23 1.43628 -0.648757 0
M  V30 11402 C 1065.2 2.29172 0.0360713 0
M  V30 11403 C 1066.2 1.41974 0.754976 0
M  V30 11404 O 1067.39 1.63654 0.5969 0
M  V30 11405 C 1064.52 3.23942 1.0618 0
M  V30 11406 H 1065.71 2.91214 -0.716544 0
M  V30 11407 H 1063.26 1.50833 -0.409759 0
M  V30 11408 H 1064 2.66786 1.8438 0
M  V30 11409 H 1063.78 3.88223 0.550016 0
M  V30 11410 H 1065.27 3.8816 1.54019 0
M  V30 11411 N 1065.71 0.390394 1.52688 0
M  V30 11412 C 1066.64 -0.43567 2.294 0
M  V30 11413 C 1067.62 -1.06253 1.32832 0
M  V30 11414 O 1068.81 -1.07509 1.61726 0
M  V30 11415 C 1065.94 -1.56259 3.10162 0
M  V30 11416 C 1064.89 -1.06172 4.14622 0
M  V30 11417 C 1064.22 -2.2808 4.83615 0
M  V30 11418 C 1065.52 -0.128902 5.22141 0
M  V30 11419 H 1067.21 0.204384 2.98702 0
M  V30 11420 H 1064.76 0.0997377 1.43654 0
M  V30 11421 H 1066.71 -2.14732 3.62585 0
M  V30 11422 H 1065.43 -2.23025 2.38595 0
M  V30 11423 H 1064.09 -0.499518 3.63181 0
M  V30 11424 H 1063.74 -2.93358 4.08595 0
M  V30 11425 H 1063.44 -1.95227 5.5422 0
M  V30 11426 H 1064.96 -2.87193 5.38844 0
M  V30 11427 H 1066.38 -0.621849 5.69917 0
M  V30 11428 H 1064.78 0.109919 5.99999 0
M  V30 11429 H 1065.85 0.821884 4.77884 0
M  V30 11430 N 1067.19 -1.57141 0.120249 0
M  V30 11431 C 1068.12 -2.18398 -0.826112 0
M  V30 11432 C 1069.1 -1.12439 -1.27638 0
M  V30 11433 O 1070.28 -1.40679 -1.33877 0
M  V30 11434 C 1067.41 -2.78438 -2.0758 0
M  V30 11435 C 1066.37 -3.89991 -1.76327 0
M  V30 11436 C 1065.69 -4.36844 -3.08336 0
M  V30 11437 C 1066.99 -5.12031 -1.03062 0
M  V30 11438 H 1068.69 -2.97731 -0.315656 0
M  V30 11439 H 1066.23 -1.43213 -0.150387 0
M  V30 11440 H 1068.19 -3.19951 -2.74243 0
M  V30 11441 H 1066.91 -1.96396 -2.60953 0
M  V30 11442 H 1065.57 -3.49055 -1.12053 0
M  V30 11443 H 1065.22 -3.51659 -3.59646 0
M  V30 11444 H 1064.92 -5.1207 -2.88199 0
M  V30 11445 H 1066.44 -4.81009 -3.76116 0
M  V30 11446 H 1067.86 -5.50555 -1.59881 0
M  V30 11447 H 1066.25 -5.92848 -0.930146 0
M  V30 11448 H 1067.32 -4.84897 -0.017582 0
M  V30 11449 N 1068.67 0.153526 -1.5685 0
M  V30 11450 C 1069.61 1.20896 -1.98713 0
M  V30 11451 C 1070.61 1.44839 -0.878529 0
M  V30 11452 O 1071.81 1.45208 -1.0637 0
M  V30 11453 H 1068.19 0.406797 -0.632472 0
M  V30 11454 H 1070.16 0.829145 -2.86649 0
M  V30 11455 C 1068.91 2.53642 -2.37825 0
M  V30 11456 H 1068.23 2.36047 -3.22679 0
M  V30 11457 H 1069.67 3.26136 -2.70946 0
M  V30 11458 C 1068.13 3.13706 -1.22841 0
M  V30 11459 O 1068.66 3.98246 -0.525626 0
M  V30 11460 N 1066.87 2.73059 -0.99435 0
M  V30 11461 H 1066.41 2.0441 -1.56761 0
M  V30 11462 H 1066.37 3.1358 -0.226883 0
M  V30 11463 N 1070.14 1.51827 0.422667 0
M  V30 11464 C 1071.56 1.57533 1.00201 0
M  V30 11465 C 1071.91 0.407623 1.91919 0
M  V30 11466 O 1071.03 -0.473763 2.1115 0
M  V30 11467 C 1071.63 2.85508 1.82403 0
M  V30 11468 C 1070.19 2.93737 2.35362 0
M  V30 11469 C 1069.33 2.52343 1.14971 0
M  V30 11470 H 1072.28 1.57391 0.20339 0
M  V30 11471 H 1072.3 2.70097 2.68007 0
M  V30 11472 H 1071.82 3.70477 1.15623 0
M  V30 11473 H 1069.92 2.13231 3.05554 0
M  V30 11474 H 1070.03 3.977 2.67155 0
M  V30 11475 H 1068.39 2.05878 1.49955 0
M  V30 11476 H 1069.18 3.39672 0.497786 0
M  V30 11477 N 1071.62 -0.679052 1.4222 0
M  V30 11478 C 1072.85 -1.47248 1.46058 0
M  V30 11479 C 1073.27 -1.87962 0.0720987 0
M  V30 11480 O 1072.63 -1.5572 -0.928488 0
M  V30 11481 C 1072.68 -2.70067 2.38948 0
M  V30 11482 O 1071.78 -3.68178 1.85791 0
M  V30 11483 H 1071.12 -0.442533 0.495036 0
M  V30 11484 H 1073.65 -0.833263 1.86863 0
M  V30 11485 H 1073.66 -3.18187 2.55385 0
M  V30 11486 H 1072.34 -2.39773 3.39826 0
M  V30 11487 H 1070.92 -3.2719 1.78889 0
M  V30 11488 N 1073.1 -1.28322 -0.914942 0
M  V30 11489 C 1074.33 -1.1837 -1.70304 0
M  V30 11490 C 1074.75 0.254291 -1.86373 0
M  V30 11491 O 1074.11 1.18398 -1.37301 0
M  V30 11492 C 1074.16 -1.88603 -3.07346 0
M  V30 11493 O 1073.26 -1.19268 -3.94777 0
M  V30 11494 H 1072.6 -0.410978 -0.52153 0
M  V30 11495 H 1075.13 -1.69622 -1.14409 0
M  V30 11496 H 1075.14 -1.96463 -3.57584 0
M  V30 11497 H 1073.82 -2.93201 -2.94967 0
M  V30 11498 H 1072.39 -1.19563 -3.53212 0
M  V30 11499 N 1074.58 1.12322 -1.10551 0
M  V30 11500 C 1075.99 1.35858 -0.837543 0
M  V30 11501 C 1076.19 1.94062 0.54241 0
M  V30 11502 O 1075.25 2.1676 1.29505 0
M  V30 11503 C 1076.56 2.299 -1.9382 0
M  V30 11504 C 1078.11 2.43488 -1.96679 0
M  V30 11505 C 1078.59 3.40846 -3.05922 0
M  V30 11506 N 1080.08 3.48404 -3.05236 0
M  V30 11507 C 1080.81 4.2365 -3.86405 0
M  V30 11508 N 1080.31 5.01951 -4.77512 0
M  V30 11509 N 1082.1 4.19068 -3.74618 0
M  V30 11510 H 1074.25 0.729002 -1.99498 0
M  V30 11511 H 1076.52 0.38339 -0.867016 0
M  V30 11512 H 1076.22 1.94309 -2.9315 0
M  V30 11513 H 1076.1 3.30033 -1.82641 0
M  V30 11514 H 1078.48 2.78359 -0.979813 0
M  V30 11515 H 1078.56 1.43239 -2.11934 0
M  V30 11516 H 1078.21 3.06704 -4.04839 0
M  V30 11517 H 1078.14 4.40927 -2.87907 0
M  V30 11518 H 1080.63 2.92545 -2.39219 0
M  V30 11519 H 1080.94 5.56707 -5.36002 0
M  V30 11520 H 1079.29 5.01143 -4.8154 0
M  V30 11521 H 1082.48 3.5698 -3.02792 0
M  V30 11522 H 1082.65 4.77455 -4.38111 0
M  V30 11523 N 1076.06 0.894434 1.2976 0
M  V30 11524 C 1077.3 0.524501 1.97556 0
M  V30 11525 C 1077.66 -0.911202 1.69 0
M  V30 11526 O 1078.86 -1.38774 2.30207 0
M  V30 11527 C 1077.13 0.802636 3.48271 0
M  V30 11528 S 1078.69 0.536223 4.35511 0
M  V30 11529 H 1075.51 0.194786 0.683798 0
M  V30 11530 H 1078.11 1.15574 1.5768 0
M  V30 11531 H 1076.82 1.84586 3.66546 0
M  V30 11532 H 1076.35 0.159316 3.93077 0
M  V30 11533 H 1078.36 -0.621056 4.92298 0
M  V30 11534 N 1077.53 -1.43282 0.656365 0
M  V30 11535 C 1078.47 -2.29087 -0.0720378 0
M  V30 11536 C 1079.48 -1.4268 -0.783982 0
M  V30 11537 O 1080.67 -1.66585 -0.641213 0
M  V30 11538 C 1077.77 -3.19676 -1.12519 0
M  V30 11539 C 1076.94 -4.34638 -0.490756 0
M  V30 11540 C 1076 -5.06079 -1.44121 0
M  V30 11541 O 1075.03 -5.6124 -0.948595 0
M  V30 11542 N 1076.23 -5.09872 -2.77509 0
M  V30 11543 H 1078.99 -2.92241 0.664456 0
M  V30 11544 H 1076.55 -1.54006 0.499383 0
M  V30 11545 H 1078.55 -3.64334 -1.76189 0
M  V30 11546 H 1077.12 -2.581 -1.76362 0
M  V30 11547 H 1076.34 -3.92857 0.3251 0
M  V30 11548 H 1077.62 -5.08777 -0.0480061 0
M  V30 11549 H 1077.02 -4.66433 -3.20088 0
M  V30 11550 H 1075.58 -5.58237 -3.36474 0
M  V30 11551 N 1079.01 -0.398486 -1.52479 0
M  V30 11552 C 1079.94 0.423498 -2.29627 0
M  V30 11553 C 1080.92 1.05547 -1.33394 0
M  V30 11554 O 1082.11 1.0665 -1.62294 0
M  V30 11555 C 1079.24 1.54612 -3.10986 0
M  V30 11556 C 1078.19 1.03971 -4.15179 0
M  V30 11557 C 1077.52 2.25512 -4.84818 0
M  V30 11558 C 1078.82 0.10121 -5.22202 0
M  V30 11559 H 1080.51 -0.220222 -2.98589 0
M  V30 11560 H 1078.06 -0.107355 -1.43599 0
M  V30 11561 H 1080.01 2.12806 -3.63719 0
M  V30 11562 H 1078.74 2.21756 -2.39774 0
M  V30 11563 H 1077.4 0.480251 -3.63441 0
M  V30 11564 H 1077.04 2.91187 -4.10145 0
M  V30 11565 H 1076.74 1.92285 -5.55248 0
M  V30 11566 H 1078.27 2.84331 -5.40359 0
M  V30 11567 H 1079.68 0.591617 -5.70239 0
M  V30 11568 H 1078.08 -0.141737 -5.99933 0
M  V30 11569 H 1079.15 -0.847216 -4.77441 0
M  V30 11570 N 1080.49 1.57075 -0.12858 0
M  V30 11571 C 1081.74 1.96599 0.52157 0
M  V30 11572 C 1082.09 1.01134 1.63675 0
M  V30 11573 O 1081.39 0.043056 1.91552 0
M  V30 11574 C 1081.58 3.40329 1.09138 0
M  V30 11575 C 1081.41 4.49688 0.0329296 0
M  V30 11576 C 1080.18 5.03697 -0.402184 0
M  V30 11577 C 1082.38 5.08778 -0.75166 0
M  V30 11578 N 1080.36 5.96642 -1.4454 0
M  V30 11579 C 1081.73 5.97756 -1.64583 0
M  V30 11580 C 1083.78 4.91407 -0.801489 0
M  V30 11581 C 1082.49 6.71225 -2.58552 0
M  V30 11582 C 1084.51 5.65564 -1.72892 0
M  V30 11583 C 1083.88 6.54236 -2.61065 0
M  V30 11584 H 1079.97 0.765414 0.160202 0
M  V30 11585 H 1082.56 1.93465 -0.218919 0
M  V30 11586 H 1080.73 3.44091 1.80155 0
M  V30 11587 H 1082.46 3.66955 1.70663 0
M  V30 11588 H 1079.22 4.73599 -0.00794396 0
M  V30 11589 H 1079.64 6.47819 -1.96622 0
M  V30 11590 H 1084.28 4.22588 -0.133909 0
M  V30 11591 H 1082 7.39285 -3.26319 0
M  V30 11592 H 1085.59 5.54125 -1.77304 0
M  V30 11593 H 1084.47 7.10612 -3.31662 0
M  V30 11594 O 1082.01 -0.0105399 1.61497 0
M  V30 11595 H 1082.7 -0.628636 1.83215 0
M  V30 END ATOM
M  V30 BEGIN BOND
M  V30 END BOND
M  V30 END CTAB
M  END
$$$$
