drugbank_target|P08263 Glutathione S-transferase A1 (DB00143; DB01915; DB02486; DB02943; DB03003; DB03602; DB04132; DB13014)
 OpenBabel12092120083D

  0  0  0     0  0            999 V3000
M  V30 BEGIN CTAB
M  V30 COUNTS 3679 3715 0 0 0
M  V30 BEGIN ATOM
M  V30 1 H -0.908 1.98254 -0.117106 0
M  V30 2 N 0 1.576 0 0
M  V30 3 C 0.933 2.03868 1.02534 0
M  V30 4 C 1.911 0.928543 1.3348 0
M  V30 5 O 3.095 1.19667 1.45644 0
M  V30 6 C 0.222 2.43627 2.35294 0
M  V30 7 C -0.732 3.65373 2.2001 0
M  V30 8 S 0.101 5.13292 1.52614 0
M  V30 9 C 1.257 5.56322 2.86805 0
M  V30 10 H 1.49 2.90518 0.631377 0
M  V30 11 H -0.977 1.52953 0.210867 0
M  V30 12 H 0.981 2.67203 3.11629 0
M  V30 13 H -0.358 1.57376 2.7183 0
M  V30 14 H -1.165 3.90944 3.18086 0
M  V30 15 H -1.563 3.418 1.51819 0
M  V30 16 H 0.729 5.58782 3.83104 0
M  V30 17 H 1.672 6.56266 2.65933 0
M  V30 18 H 2.08 4.83886 2.90714 0
M  V30 19 N 1.4781 -0.272755 1.55222 0
M  V30 20 C 2.4411 -1.32041 1.87344 0
M  V30 21 C 3.4411 -1.42342 0.74803 0
M  V30 22 O 4.6311 -1.41488 1.0162 0
M  V30 23 C 1.7631 -2.70173 2.07893 0
M  V30 24 H 2.9561 -1.04789 2.80997 0
M  V30 25 H 0.5091 -0.51083 1.47717 0
M  V30 26 H 1.2441 -3.02605 1.16622 0
M  V30 27 H 1.0291 -2.64082 2.89833 0
M  V30 28 H 2.5191 -3.45869 2.34017 0
M  V30 29 N 2.9562 -1.48159 -0.537278 0
M  V30 30 C 3.8662 -1.64807 -1.6696 0
M  V30 31 C 4.8822 -0.530651 -1.65711 0
M  V30 32 O 6.0582 -0.800784 -1.84796 0
M  V30 33 C 3.1232 -1.67708 -3.03438 0
M  V30 34 C 2.1842 -2.91025 -3.156 0
M  V30 35 C 1.4172 -2.93778 -4.45567 0
M  V30 36 O 1.6402 -2.05153 -5.3223 0
M  V30 37 O 0.5742 -3.85868 -4.61941 0
M  V30 38 H 4.4002 -2.6066 -1.55853 0
M  V30 39 H 1.9852 -1.31475 -0.709549 0
M  V30 40 H 3.8672 -1.7218 -3.84619 0
M  V30 41 H 2.5422 -0.750278 -3.14885 0
M  V30 42 H 1.4492 -2.92089 -2.33741 0
M  V30 43 H 2.7822 -3.83065 -3.09066 0
M  V30 44 N 4.4343 0.785586 -1.36625 0
M  V30 45 C 5.3813 1.89838 -1.31264 0
M  V30 46 C 6.3513 1.65115 -0.180633 0
M  V30 47 O 7.5363 1.87222 -0.36777 0
M  V30 48 C 4.6763 3.26706 -1.11163 0
M  V30 49 C 3.7893 3.63476 -2.33472 0
M  V30 50 C 2.9243 4.89481 -2.06353 0
M  V30 51 C 1.9633 5.18941 -3.24602 0
M  V30 52 N 1.1003 6.36131 -2.97123 0
M  V30 53 H 5.9403 1.93756 -2.26413 0
M  V30 54 H 3.4773 0.947454 -1.12524 0
M  V30 55 H 5.4353 4.05639 -0.975337 0
M  V30 56 H 4.0653 3.222 -0.196674 0
M  V30 57 H 3.1173 2.79636 -2.57891 0
M  V30 58 H 4.4293 3.81193 -3.21704 0
M  V30 59 H 3.5833 5.76288 -1.89675 0
M  V30 60 H 2.3223 4.73841 -1.15437 0
M  V30 61 H 1.3273 4.30615 -3.41834 0
M  V30 62 H 2.5523 5.36498 -4.16349 0
M  V30 63 H 0.4983 6.21875 -2.08823 0
M  V30 64 H 0.4153 6.54198 -3.78894 0
M  V30 65 H 1.6833 7.2591 -2.84033 0
M  V30 66 N 5.9124 1.20967 1.01018 0
M  V30 67 C 7.3234 1.02319 1.56165 0
M  V30 68 C 7.6744 -0.418546 1.91684 0
M  V30 69 O 6.7994 -1.30096 1.72928 0
M  V30 70 C 7.3944 1.85109 2.8376 0
M  V30 71 C 5.9534 1.70809 3.35412 0
M  V30 72 C 5.1004 1.82643 2.08655 0
M  V30 73 H 8.0514 1.35065 0.833255 0
M  V30 74 H 8.0724 1.35827 3.55431 0
M  V30 75 H 7.5844 2.90035 2.57878 0
M  V30 76 H 5.6854 0.685464 3.66241 0
M  V30 77 H 5.7984 2.52467 4.07182 0
M  V30 78 H 4.1624 1.25896 2.21409 0
M  V30 79 H 4.9454 2.89066 1.85191 0
M  V30 80 N 7.3905 -1.2043 1.01659 0
M  V30 81 C 8.3375 -2.23215 0.586822 0
M  V30 82 C 9.3075 -1.61382 -0.393085 0
M  V30 83 O 10.4925 -1.88544 -0.292525 0
M  V30 84 C 7.6325 -3.45032 -0.0687464 0
M  V30 85 C 6.7455 -4.21296 0.955724 0
M  V30 86 C 5.8805 -5.30507 0.271208 0
M  V30 87 C 4.9195 -5.98515 1.28244 0
M  V30 88 N 4.0565 -6.99316 0.62459 0
M  V30 89 H 8.8965 -2.59336 1.46796 0
M  V30 90 H 6.4335 -1.27431 0.734836 0
M  V30 91 H 8.3915 -4.1459 -0.465965 0
M  V30 92 H 7.0215 -3.09604 -0.913529 0
M  V30 93 H 6.0735 -3.50803 1.4711 0
M  V30 94 H 7.3855 -4.6803 1.72479 0
M  V30 95 H 6.5395 -6.06428 -0.18151 0
M  V30 96 H 5.2785 -4.8481 -0.530163 0
M  V30 97 H 4.2835 -5.21355 1.74554 0
M  V30 98 H 5.5085 -6.46298 2.08509 0
M  V30 99 H 3.4545 -6.55812 -0.156914 0
M  V30 100 H 3.3715 -7.44178 1.33172 0
M  V30 101 H 4.6395 -7.79255 0.195462 0
M  V30 102 N 8.8686 -0.792821 -1.36206 0
M  V30 103 C 9.7986 -0.207853 -2.32573 0
M  V30 104 C 10.7796 0.659055 -1.56813 0
M  V30 105 O 11.9646 0.592176 -1.84951 0
M  V30 106 C 9.0946 0.655449 -3.41059 0
M  V30 107 C 8.0486 -0.111842 -4.27854 0
M  V30 108 C 7.3746 0.872274 -5.27537 0
M  V30 109 C 8.6746 -1.30299 -5.05786 0
M  V30 110 H 10.3686 -1.01294 -2.81744 0
M  V30 111 H 7.9146 -0.48854 -1.3546 0
M  V30 112 H 9.8676 1.07464 -4.07467 0
M  V30 113 H 8.5916 1.49328 -2.90463 0
M  V30 114 H 7.2506 -0.512053 -3.63006 0
M  V30 115 H 6.8986 1.70523 -4.73214 0
M  V30 116 H 6.5986 0.363291 -5.86476 0
M  V30 117 H 8.1226 1.28996 -5.96818 0
M  V30 118 H 9.5366 -0.959379 -5.65216 0
M  V30 119 H 7.9336 -1.7455 -5.74154 0
M  V30 120 H 9.0036 -2.09663 -4.37229 0
M  V30 121 N 10.3467 1.47872 -0.545128 0
M  V30 122 C 11.2967 2.26842 0.229456 0
M  V30 123 C 12.2807 1.33626 0.896267 0
M  V30 124 O 13.4727 1.58063 0.79657 0
M  V30 125 C 10.6017 3.19089 1.26638 0
M  V30 126 C 9.6877 4.19783 0.603598 0
M  V30 127 N 10.0787 5.0479 -0.319405 0
M  V30 128 C 8.3767 4.3765 0.858989 0
M  V30 129 C 9.0777 5.77433 -0.703241 0
M  V30 130 N 8.0537 5.43566 -0.0608309 0
M  V30 131 H 11.8557 2.89947 -0.480391 0
M  V30 132 H 9.3697 1.58263 -0.364209 0
M  V30 133 H 11.3667 3.74337 1.83515 0
M  V30 134 H 10.0267 2.5754 1.97745 0
M  V30 135 H 11.0377 5.13244 -0.692889 0
M  V30 136 H 7.7147 3.87281 1.55948 0
M  V30 137 H 9.1047 6.55824 -1.46098 0
M  V30 138 N 11.8248 0.280983 1.55075 0
M  V30 139 C 13.0548 -0.336804 2.03836 0
M  V30 140 C 13.4628 -1.49577 1.15859 0
M  V30 141 O 12.8058 -1.82888 0.172503 0
M  V30 142 C 12.8678 -0.874616 3.48699 0
M  V30 143 C 12.5318 0.156478 4.56732 0
M  V30 144 C 13.5288 0.978032 5.10618 0
M  V30 145 C 11.2138 0.292409 5.01448 0
M  V30 146 C 13.2078 1.92165 6.07743 0
M  V30 147 C 10.8948 1.23949 5.98398 0
M  V30 148 C 11.8928 2.05261 6.51427 0
M  V30 149 O 11.5808 2.98367 7.4648 0
M  V30 150 H 11.3128 -0.0800885 0.671239 0
M  V30 151 H 13.8668 0.412589 2.01213 0
M  V30 152 H 12.0968 -1.67418 3.4858 0
M  V30 153 H 13.7858 -1.40612 3.80766 0
M  V30 154 H 14.5518 0.883782 4.7688 0
M  V30 155 H 10.4308 -0.330498 4.59814 0
M  V30 156 H 13.9748 2.55672 6.49059 0
M  V30 157 H 9.8718 1.33454 6.31554 0
M  V30 158 H 10.6398 2.93116 7.64215 0
M  V30 159 N 13.3029 -1.57598 0.00835791 0
M  V30 160 C 14.5499 -1.90928 -0.674732 0
M  V30 161 C 14.8779 -0.88277 -1.73313 0
M  V30 162 O 14.1329 0.111294 -1.95383 0
M  V30 163 C 14.4319 -3.3101 -1.34787 0
M  V30 164 C 14.0979 -4.48922 -0.421861 0
M  V30 165 C 12.7599 -4.8091 -0.166927 0
M  V30 166 C 15.1119 -5.20755 0.215211 0
M  V30 167 C 12.4399 -5.821 0.733232 0
M  V30 168 C 14.7919 -6.22905 1.1033 0
M  V30 169 C 13.4559 -6.53346 1.36733 0
M  V30 170 H 12.7259 -0.698656 -0.246902 0
M  V30 171 H 15.3729 -1.91387 0.0656779 0
M  V30 172 H 13.6779 -3.26714 -2.16253 0
M  V30 173 H 15.3749 -3.54061 -1.8826 0
M  V30 174 H 11.9649 -4.23934 -0.630729 0
M  V30 175 H 16.1489 -4.9629 0.0312829 0
M  V30 176 H 11.4049 -6.04042 0.945712 0
M  V30 177 H 15.5789 -6.77694 1.60325 0
M  V30 178 H 13.2059 -7.31573 2.06652 0
M  V30 179 N 14.781 0.264519 -1.55364 0
M  V30 180 C 15.729 1.34702 -1.89626 0
M  V30 181 C 16.723 1.50712 -0.773459 0
M  V30 182 O 17.929 1.52395 -0.957897 0
M  V30 183 H 14.304 0.450682 -0.601988 0
M  V30 184 H 16.275 1.0306 -2.80038 0
M  V30 185 C 15.024 2.6989 -2.19214 0
M  V30 186 H 14.347 2.58365 -3.05103 0
M  V30 187 H 15.787 3.44553 -2.47102 0
M  V30 188 C 14.246 3.21637 -1.00254 0
M  V30 189 O 14.776 4.00973 -0.241501 0
M  V30 190 N 12.982 2.7943 -0.797938 0
M  V30 191 H 12.529 2.15026 -1.4185 0
M  V30 192 H 12.487 3.144 -0.00363422 0
M  V30 193 N 16.2591 1.48442 0.529413 0
M  V30 194 C 17.2221 1.62524 1.61612 0
M  V30 195 C 18.2221 0.498509 1.52877 0
M  V30 196 O 19.4121 0.76431 1.56537 0
M  V30 197 C 16.5441 1.59597 3.01233 0
M  V30 198 H 17.7371 2.59423 1.50465 0
M  V30 199 H 15.2901 1.37047 0.751514 0
M  V30 200 H 16.0251 0.641781 3.17886 0
M  V30 201 H 15.8101 2.41397 3.08982 0
M  V30 202 H 17.3001 1.72646 3.80241 0
M  V30 203 N 17.7372 -0.778329 1.37039 0
M  V30 204 C 19.1532 -1.07796 1.17695 0
M  V30 205 C 19.3532 -2.01498 0.00860115 0
M  V30 206 O 18.4092 -2.43901 -0.653352 0
M  V30 207 C 19.7222 -1.68178 2.49272 0
M  V30 208 C 21.2702 -1.80467 2.55735 0
M  V30 209 C 21.7452 -2.44263 3.87427 0
M  V30 210 N 23.2362 -2.51721 3.88833 0
M  V30 211 C 23.9712 -3.01919 4.87476 0
M  V30 212 N 23.4672 -3.5234 5.96513 0
M  V30 213 N 25.2602 -3.00733 4.74885 0
M  V30 214 H 17.4112 -0.156032 2.11826 0
M  V30 215 H 19.6742 -0.131844 0.938787 0
M  V30 216 H 19.3802 -1.06796 3.35093 0
M  V30 217 H 19.2542 -2.67554 2.65885 0
M  V30 218 H 21.6412 -2.40984 1.70325 0
M  V30 219 H 21.7222 -0.798656 2.43013 0
M  V30 220 H 21.3662 -1.84388 4.73248 0
M  V30 221 H 21.2962 -3.45458 3.9745 0
M  V30 222 H 23.7872 -2.1603 3.10063 0
M  V30 223 H 24.1002 -3.89027 6.67741 0
M  V30 224 H 22.4452 -3.50462 6.00168 0
M  V30 225 H 25.6362 -2.60638 3.88826 0
M  V30 226 H 25.8092 -3.39545 5.51918 0
M  V30 227 N 19.2153 -1.21501 -1.00376 0
M  V30 228 C 20.4633 -1.03095 -1.73827 0
M  V30 229 C 20.7843 0.436341 -1.90055 0
M  V30 230 O 20.0543 1.31466 -1.45236 0
M  V30 231 H 18.6343 -0.378487 -0.644016 0
M  V30 232 H 21.2963 -1.52831 -1.20949 0
M  V30 233 H 20.3923 -1.49991 -2.73695 0
M  V30 234 N 20.6934 1.19889 -1.02296 0
M  V30 235 C 22.1094 1.41462 -0.738954 0
M  V30 236 C 22.3094 1.89721 0.678846 0
M  V30 237 O 21.3654 2.07016 1.4457 0
M  V30 238 C 22.6784 2.43083 -1.77005 0
M  V30 239 C 24.2264 2.5684 -1.78892 0
M  V30 240 C 24.7014 3.61709 -2.80945 0
M  V30 241 N 26.1924 3.69199 -2.79725 0
M  V30 242 C 26.9274 4.50019 -3.55345 0
M  V30 243 N 26.4234 5.34592 -4.40662 0
M  V30 244 N 28.2164 4.44612 -3.43914 0
M  V30 245 H 20.3674 0.868827 -1.93817 0
M  V30 246 H 22.6304 0.44399 -0.837602 0
M  V30 247 H 22.3364 2.14636 -2.78612 0
M  V30 248 H 22.2104 3.4217 -1.58744 0
M  V30 249 H 24.5974 2.84614 -0.779674 0
M  V30 250 H 24.6784 1.57927 -2.01228 0
M  V30 251 H 24.3224 3.34678 -3.82038 0
M  V30 252 H 24.2524 4.60259 -2.5587 0
M  V30 253 H 26.7434 3.08794 -2.17842 0
M  V30 254 H 27.0564 5.93363 -4.95116 0
M  V30 255 H 25.4014 5.34073 -4.44737 0
M  V30 256 H 28.5924 3.7758 -2.76679 0
M  V30 257 H 28.7654 5.0736 -4.031 0
M  V30 258 N 22.1715 0.800033 1.35784 0
M  V30 259 C 23.1045 0.151499 2.27697 0
M  V30 260 C 24.0825 -0.678663 1.4776 0
M  V30 261 O 25.2665 -0.647358 1.77035 0
M  V30 262 C 22.3935 -0.790492 3.29346 0
M  V30 263 C 21.4395 -0.0407832 4.26481 0
M  V30 264 S 22.2725 1.29077 5.19711 0
M  V30 265 C 23.4285 0.353055 6.24903 0
M  V30 266 H 23.6615 0.930796 2.82353 0
M  V30 267 H 21.1945 0.594767 1.42485 0
M  V30 268 H 23.1525 -1.3285 3.88409 0
M  V30 269 H 21.8135 -1.54312 2.73581 0
M  V30 270 H 21.0065 -0.755971 4.98298 0
M  V30 271 H 20.6085 0.427063 3.71554 0
M  V30 272 H 22.9005 -0.464147 6.75908 0
M  V30 273 H 23.8435 1.04023 7.00418 0
M  V30 274 H 24.2515 -0.0483344 5.64479 0
M  V30 275 N 23.6496 -1.47581 0.552962 0
M  V30 276 C 24.5596 -2.33743 -0.200353 0
M  V30 277 C 25.5756 -1.47928 -0.916151 0
M  V30 278 O 26.7516 -1.80865 -0.885993 0
M  V30 279 C 23.8166 -3.24536 -1.21973 0
M  V30 280 C 22.8776 -4.26238 -0.511819 0
M  V30 281 C 22.1106 -5.12693 -1.48263 0
M  V30 282 O 22.3336 -5.01525 -2.71714 0
M  V30 283 O 21.2676 -5.93375 -1.00945 0
M  V30 284 H 25.0936 -2.9945 0.506304 0
M  V30 285 H 22.6786 -1.46071 0.313622 0
M  V30 286 H 24.5606 -3.80631 -1.80827 0
M  V30 287 H 23.2356 -2.61462 -1.90839 0
M  V30 288 H 22.1426 -3.73914 0.117799 0
M  V30 289 H 23.4756 -4.92014 0.135308 0
M  V30 290 N 25.1277 -0.289203 -1.54924 0
M  V30 291 C 26.3527 0.329299 -2.04769 0
M  V30 292 C 26.7777 1.4763 -1.16564 0
M  V30 293 O 26.1357 1.80527 -0.167186 0
M  V30 294 C 26.1837 0.774438 -3.52186 0
M  V30 295 O 25.2877 1.88038 -3.67036 0
M  V30 296 H 24.6287 0.0659259 -0.660719 0
M  V30 297 H 27.1587 -0.42761 -2.00082 0
M  V30 298 H 27.1687 1.06642 -3.93816 0
M  V30 299 H 25.8437 -0.0646707 -4.1585 0
M  V30 300 H 24.4207 1.58985 -3.3731 0
M  V30 301 N 26.6058 1.57591 -0.0167156 0
M  V30 302 C 27.8338 1.95575 0.675128 0
M  V30 303 C 28.2488 0.892542 1.6637 0
M  V30 304 O 27.6058 -0.126912 1.82058 0
M  V30 305 C 27.6568 3.33608 1.39239 0
M  V30 306 O 27.3778 4.3585 0.443444 0
M  V30 307 C 28.8788 3.86151 2.17721 0
M  V30 308 H 26.0988 0.644423 0.186978 0
M  V30 309 H 28.6428 2.0437 -0.0728 0
M  V30 310 H 26.7978 3.2607 2.09182 0
M  V30 311 H 27.2118 5.158 0.951358 0
M  V30 312 H 28.6858 4.85114 2.63379 0
M  V30 313 H 29.1628 3.19738 3.01105 0
M  V30 314 H 29.7688 3.96918 1.52761 0
M  V30 315 N 28.0839 -0.256276 1.55502 0
M  V30 316 C 29.4999 -0.604325 1.47716 0
M  V30 317 C 29.6999 -1.88763 0.705039 0
M  V30 318 O 28.7559 -2.51445 0.230613 0
M  V30 319 C 30.0689 -0.715756 2.92057 0
M  V30 320 C 31.6169 -0.808706 3.02372 0
M  V30 321 C 32.0919 -0.951777 4.48001 0
M  V30 322 N 33.5829 -1.01688 4.519 0
M  V30 323 C 34.3179 -1.14668 5.61817 0
M  V30 324 N 33.8139 -1.24261 6.81565 0
M  V30 325 N 35.6069 -1.1791 5.49594 0
M  V30 326 H 27.7579 0.586291 2.04148 0
M  V30 327 H 30.0209 0.201015 0.926443 0
M  V30 328 H 29.7269 0.157027 3.51349 0
M  V30 329 H 29.6009 -1.59071 3.42018 0
M  V30 330 H 31.9879 -1.67195 2.43166 0
M  V30 331 H 32.0689 0.0912063 2.55637 0
M  V30 332 H 31.7129 -0.0931291 5.07815 0
M  V30 333 H 31.6429 -1.86659 4.92408 0
M  V30 334 H 34.1339 -0.954468 3.65648 0
M  V30 335 H 34.4469 -1.34046 7.61086 0
M  V30 336 H 32.7919 -1.21236 6.84344 0
M  V30 337 H 35.9829 -1.10057 4.54978 0
M  V30 338 H 36.1559 -1.27681 6.35296 0
M  V30 339 N 29.562 -1.4872 -0.521534 0
M  V30 340 C 30.808 -1.58378 -1.27624 0
M  V30 341 C 31.163 -0.258028 -1.90662 0
M  V30 342 O 30.456 0.739917 -1.76736 0
M  V30 343 C 30.65 -2.66497 -2.38148 0
M  V30 344 C 30.479 -4.09456 -1.85945 0
M  V30 345 C 29.249 -4.76495 -1.68168 0
M  V30 346 C 31.447 -4.95353 -1.3831 0
M  V30 347 N 29.429 -6.0384 -1.1068 0
M  V30 348 C 30.8 -6.13012 -0.928238 0
M  V30 349 C 32.855 -4.81512 -1.26692 0
M  V30 350 C 31.558 -7.18354 -0.368701 0
M  V30 351 C 33.584 -5.86984 -0.721368 0
M  V30 352 C 32.946 -7.03857 -0.276623 0
M  V30 353 H 29.045 -0.634045 -0.457724 0
M  V30 354 H 31.629 -1.85639 -0.587049 0
M  V30 355 H 29.8 -2.41043 -3.04553 0
M  V30 356 H 31.532 -2.65791 -3.05184 0
M  V30 357 H 28.287 -4.32962 -1.91939 0
M  V30 358 H 28.711 -6.71778 -0.839217 0
M  V30 359 H 33.353 -3.91487 -1.5968 0
M  V30 360 H 31.071 -8.08096 -0.0265122 0
M  V30 361 H 34.657 -5.78329 -0.634531 0
M  V30 362 H 33.537 -7.84077 0.138947 0
M  V30 363 N 31.0401 0.771051 -1.3745 0
M  V30 364 C 31.9701 1.89827 -1.3597 0
M  V30 365 C 32.9511 1.68562 -0.228216 0
M  V30 366 O 34.1361 1.8941 -0.428675 0
M  V30 367 C 31.2661 3.2712 -1.16662 0
M  V30 368 C 30.2201 3.6295 -2.2683 0
M  V30 369 C 29.5461 4.98791 -1.92644 0
M  V30 370 C 30.8461 3.69627 -3.69017 0
M  V30 371 H 32.5401 1.91323 -2.30295 0
M  V30 372 H 30.0861 0.919082 -1.10855 0
M  V30 373 H 32.0391 4.05615 -1.14256 0
M  V30 374 H 30.7631 3.26059 -0.187926 0
M  V30 375 H 29.4221 2.86763 -2.28392 0
M  V30 376 H 29.0701 4.94271 -0.933021 0
M  V30 377 H 28.7701 5.23733 -2.66416 0
M  V30 378 H 30.2941 5.79685 -1.91826 0
M  V30 379 H 31.7081 4.38273 -3.69581 0
M  V30 380 H 30.1051 4.06067 -4.41848 0
M  V30 381 H 31.1751 2.70273 -4.02592 0
M  V30 382 N 32.5182 1.22032 0.997298 0
M  V30 383 C 33.4482 1.01065 2.10495 0
M  V30 384 C 34.4292 -0.0669542 1.69968 0
M  V30 385 O 35.6142 0.0943987 1.9397 0
M  V30 386 C 32.7442 0.582874 3.42374 0
M  V30 387 C 31.6982 1.60592 3.96729 0
M  V30 388 C 31.0242 1.03412 5.24605 0
M  V30 389 C 32.3242 2.99478 4.27914 0
M  V30 390 H 34.0182 1.93708 2.28292 0
M  V30 391 H 31.5642 0.932761 1.09707 0
M  V30 392 H 33.5172 0.423332 4.19268 0
M  V30 393 H 32.2412 -0.379213 3.24391 0
M  V30 394 H 30.9002 1.75316 3.21963 0
M  V30 395 H 30.5482 0.063518 5.0296 0
M  V30 396 H 30.2482 1.71754 5.61938 0
M  V30 397 H 31.7722 0.886066 6.04137 0
M  V30 398 H 33.1862 2.88153 4.95622 0
M  V30 399 H 31.5832 3.64903 4.76409 0
M  V30 400 H 32.6532 3.49742 3.3587 0
M  V30 401 N 33.9963 -1.19345 1.0293 0
M  V30 402 C 34.9593 -2.20793 0.615069 0
M  V30 403 C 35.9593 -1.57553 -0.321533 0
M  V30 404 O 37.1493 -1.73862 -0.108483 0
M  V30 405 C 34.2813 -3.40754 -0.0999222 0
M  V30 406 H 35.4743 -2.58955 1.51269 0
M  V30 407 H 33.0273 -1.3303 0.820534 0
M  V30 408 H 33.7623 -3.0811 -1.01187 0
M  V30 409 H 33.5473 -3.87889 0.57309 0
M  V30 410 H 35.0373 -4.15898 -0.376645 0
M  V30 411 N 35.4744 -0.807222 -1.35358 0
M  V30 412 C 36.4374 -0.223665 -2.28106 0
M  V30 413 C 37.4374 0.589354 -1.4961 0
M  V30 414 O 38.6274 0.407745 -1.69361 0
M  V30 415 C 35.7594 0.688149 -3.33882 0
M  V30 416 H 36.9524 -1.04169 -2.81227 0
M  V30 417 H 34.5054 -0.577921 -1.45223 0
M  V30 418 H 35.2404 1.52984 -2.85948 0
M  V30 419 H 35.0254 0.10687 -3.91954 0
M  V30 420 H 36.5154 1.09075 -4.03104 0
M  V30 421 N 36.9525 1.47285 -0.560781 0
M  V30 422 C 37.9155 2.28535 0.174488 0
M  V30 423 C 38.9155 1.37153 0.839388 0
M  V30 424 O 40.1055 1.59748 0.694702 0
M  V30 425 C 37.2375 3.16934 1.25561 0
M  V30 426 H 38.4305 2.95012 -0.539262 0
M  V30 427 H 35.9835 1.53034 -0.317865 0
M  V30 428 H 36.7185 2.55157 2.00164 0
M  V30 429 H 36.5035 3.8419 0.783604 0
M  V30 430 H 37.9935 3.78143 1.77193 0
M  V30 431 N 38.4306 0.297415 1.54768 0
M  V30 432 C 39.6786 -0.312295 1.99673 0
M  V30 433 C 39.9996 -1.54686 1.18732 0
M  V30 434 O 39.2696 -1.93854 0.282382 0
M  V30 435 H 37.8496 -0.118381 0.73756 0
M  V30 436 H 40.5116 0.407915 1.90583 0
M  V30 437 H 39.6076 -0.586813 3.06534 0
M  V30 438 N 39.9087 -1.5758 0.0250728 0
M  V30 439 C 41.1547 -1.91917 -0.655413 0
M  V30 440 C 41.4877 -0.901433 -1.72011 0
M  V30 441 O 40.7627 0.0764069 -1.9435 0
M  V30 442 C 41.0457 -3.36751 -1.27558 0
M  V30 443 C 40.8987 -4.49258 -0.220719 0
M  V30 444 C 42.2177 -3.81469 -2.19475 0
M  V30 445 H 39.3367 -0.697925 -0.23679 0
M  V30 446 H 41.9787 -1.89825 0.0815036 0
M  V30 447 H 40.1287 -3.38664 -1.90365 0
M  V30 448 H 41.8007 -4.59478 0.409601 0
M  V30 449 H 40.0437 -4.31415 0.454264 0
M  V30 450 H 40.7147 -5.47618 -0.694175 0
M  V30 451 H 43.1907 -3.81266 -1.66659 0
M  V30 452 H 42.0667 -4.83512 -2.59822 0
M  V30 453 H 42.3277 -3.16744 -3.08424 0
M  V30 454 N 41.3868 0.248026 -1.55636 0
M  V30 455 C 42.2968 1.32859 -1.93354 0
M  V30 456 C 43.3128 1.52719 -0.833838 0
M  V30 457 O 44.4888 1.66363 -1.13513 0
M  V30 458 C 41.5538 2.66337 -2.21958 0
M  V30 459 C 40.6148 2.55008 -3.45354 0
M  V30 460 C 39.8478 3.82121 -3.72584 0
M  V30 461 O 40.0708 4.83951 -3.01907 0
M  V30 462 O 39.0048 3.80822 -4.6611 0
M  V30 463 H 42.8308 1.03862 -2.85388 0
M  V30 464 H 40.4158 0.448686 -1.42503 0
M  V30 465 H 42.2978 3.45216 -2.4167 0
M  V30 466 H 40.9728 2.95068 -1.33103 0
M  V30 467 H 39.8798 1.7442 -3.30951 0
M  V30 468 H 41.2128 2.31222 -4.34508 0
M  V30 469 N 42.8649 1.48995 0.513639 0
M  V30 470 C 44.1119 1.57843 1.26854 0
M  V30 471 C 44.4399 0.259501 1.92761 0
M  V30 472 O 43.6949 -0.75159 1.80692 0
M  V30 473 C 43.9939 2.67756 2.36731 0
M  V30 474 C 43.6599 4.09669 1.88368 0
M  V30 475 C 42.3219 4.48291 1.74896 0
M  V30 476 C 44.6739 4.98537 1.52021 0
M  V30 477 C 42.0019 5.73568 1.23438 0
M  V30 478 C 44.3539 6.24319 1.0202 0
M  V30 479 C 43.0179 6.61783 0.871778 0
M  V30 480 H 42.2879 0.577587 0.464192 0
M  V30 481 H 44.9349 1.82778 0.571366 0
M  V30 482 H 43.2399 2.36743 3.12185 0
M  V30 483 H 44.9369 2.71813 2.9482 0
M  V30 484 H 41.5269 3.79176 1.99808 0
M  V30 485 H 45.7109 4.69363 1.61281 0
M  V30 486 H 40.9669 6.01304 1.10648 0
M  V30 487 H 45.1409 6.92566 0.729722 0
M  V30 488 H 42.7679 7.5874 0.470852 0
M  V30 489 N 44.343 -0.763751 1.37857 0
M  V30 490 C 45.253 -1.90817 1.36478 0
M  V30 491 C 46.269 -1.71997 0.263248 0
M  V30 492 O 47.445 -1.95095 0.499979 0
M  V30 493 C 44.51 -3.2605 1.17864 0
M  V30 494 C 43.571 -3.57467 2.3773 0
M  V30 495 C 42.804 -4.86249 2.19995 0
M  V30 496 O 43.027 -5.57884 1.18836 0
M  V30 497 O 41.961 -5.16911 3.08361 0
M  V30 498 H 45.787 -1.94933 2.32884 0
M  V30 499 H 43.372 -0.907619 1.1867 0
M  V30 500 H 45.254 -4.06924 1.09504 0
M  V30 501 H 43.929 -3.22769 0.245372 0
M  V30 502 H 42.836 -2.76796 2.51664 0
M  V30 503 H 44.169 -3.655 3.29652 0
M  V30 504 N 45.8211 -1.22559 -0.990812 0
M  V30 505 C 46.7311 -1.01394 -2.11557 0
M  V30 506 C 47.7471 0.0383962 -1.73958 0
M  V30 507 O 48.9231 -0.154787 -2.00804 0
M  V30 508 C 45.9881 -0.596569 -3.41529 0
M  V30 509 C 45.0491 -1.72276 -3.93217 0
M  V30 510 C 44.2821 -1.32521 -5.16985 0
M  V30 511 O 44.5051 -0.204909 -5.70032 0
M  V30 512 O 43.4391 -2.14247 -5.62478 0
M  V30 513 H 47.2651 -1.95633 -2.32296 0
M  V30 514 H 44.8501 -1.01172 -1.0993 0
M  V30 515 H 46.7321 -0.374263 -4.19735 0
M  V30 516 H 45.4071 0.316939 -3.22145 0
M  V30 517 H 44.3141 -1.99961 -3.16174 0
M  V30 518 H 45.6471 -2.61421 -4.17037 0
M  V30 519 N 47.2992 1.18797 -1.03562 0
M  V30 520 C 48.2462 2.22253 -0.622259 0
M  V30 521 C 49.2162 1.61987 0.36736 0
M  V30 522 O 50.4012 1.88986 0.262492 0
M  V30 523 C 47.5412 3.45097 0.0138462 0
M  V30 524 C 46.6542 4.19722 -1.02263 0
M  V30 525 C 45.7892 5.30009 -0.355573 0
M  V30 526 C 44.8282 5.96399 -1.37749 0
M  V30 527 N 43.9652 6.98234 -0.735766 0
M  V30 528 H 48.8052 2.56968 -1.50903 0
M  V30 529 H 46.3422 1.26245 -0.755017 0
M  V30 530 H 48.3002 4.15279 0.399948 0
M  V30 531 H 46.9302 3.11018 0.864158 0
M  V30 532 H 45.9822 3.48418 -1.52673 0
M  V30 533 H 47.2942 4.65227 -1.79903 0
M  V30 534 H 46.4482 6.0664 0.0850095 0
M  V30 535 H 45.1872 4.85592 0.452967 0
M  V30 536 H 44.1922 5.18512 -1.82826 0
M  V30 537 H 45.4172 6.42899 -2.18764 0
M  V30 538 H 43.3632 6.55979 0.0525597 0
M  V30 539 H 43.2802 7.41965 -1.44995 0
M  V30 540 H 44.5482 7.78845 -0.31941 0
M  V30 541 N 48.7773 0.814389 1.34928 0
M  V30 542 C 50.0243 0.398423 1.98542 0
M  V30 543 C 50.3523 -1.03638 1.64589 0
M  V30 544 O 49.6073 -1.73509 0.90516 0
M  V30 545 C 49.9063 0.537781 3.53331 0
M  V30 546 C 49.5723 1.93704 4.07172 0
M  V30 547 C 48.2343 2.31984 4.21589 0
M  V30 548 C 50.5863 2.85213 4.36237 0
M  V30 549 C 47.9143 3.61125 4.62391 0
M  V30 550 C 50.2663 4.13809 4.78482 0
M  V30 551 C 48.9303 4.52077 4.91104 0
M  V30 552 H 48.2003 0.145793 0.726516 0
M  V30 553 H 50.8473 1.03669 1.61012 0
M  V30 554 H 49.1523 -0.183906 3.91368 0
M  V30 555 H 50.8493 0.196588 4.00518 0
M  V30 556 H 47.4393 1.62966 3.96409 0
M  V30 557 H 51.6233 2.56885 4.24645 0
M  V30 558 H 46.8793 3.90612 4.70353 0
M  V30 559 H 51.0533 4.84811 4.99932 0
M  V30 560 H 48.6803 5.52196 5.22478 0
M  V30 561 N 50.2554 -1.46986 0.568584 0
M  V30 562 C 51.5044 -2.01646 0.0465894 0
M  V30 563 C 51.8174 -1.44721 -1.31587 0
M  V30 564 O 53.0234 -1.91113 -1.92842 0
M  V30 565 C 51.4794 -3.59885 0.032752 0
M  V30 566 C 51.0874 -4.25804 1.39266 0
M  V30 567 C 52.8314 -4.22255 -0.436038 0
M  V30 568 C 50.7384 -5.76081 1.33732 0
M  V30 569 H 49.6684 -0.753876 0.013647 0
M  V30 570 H 52.3194 -1.68864 0.718131 0
M  V30 571 H 50.7014 -3.8968 -0.704669 0
M  V30 572 H 51.8754 -4.07637 2.1487 0
M  V30 573 H 50.1904 -3.7547 1.80032 0
M  V30 574 H 52.7874 -5.32394 -0.49602 0
M  V30 575 H 53.1304 -3.90212 -1.45053 0
M  V30 576 H 53.6634 -3.97033 0.246877 0
M  V30 577 H 50.4024 -6.12761 2.32817 0
M  V30 578 H 49.9224 -5.96553 0.623267 0
M  V30 579 H 51.6014 -6.38518 1.0442 0
M  V30 580 N 51.7335 -0.305618 -1.54608 0
M  V30 581 C 52.6805 0.568421 -2.23691 0
M  V30 582 C 53.6505 1.12592 -1.22116 0
M  V30 583 O 54.8355 1.16959 -1.50749 0
M  V30 584 C 51.9755 1.7322 -2.98477 0
M  V30 585 C 51.0885 1.20566 -4.14835 0
M  V30 586 C 50.2235 2.33368 -4.77193 0
M  V30 587 C 49.2625 1.7787 -5.85686 0
M  V30 588 N 48.3995 2.84263 -6.4198 0
M  V30 589 H 53.2395 -0.0272867 -2.97988 0
M  V30 590 H 50.7765 -0.0252363 -1.47078 0
M  V30 591 H 52.7345 2.41675 -3.40072 0
M  V30 592 H 51.3645 2.29947 -2.26548 0
M  V30 593 H 50.4165 0.413223 -3.78149 0
M  V30 594 H 51.7285 0.759417 -4.92985 0
M  V30 595 H 50.8825 3.09761 -5.21664 0
M  V30 596 H 49.6215 2.8132 -3.98385 0
M  V30 597 H 48.6265 0.99968 -5.40635 0
M  V30 598 H 49.8515 1.30816 -6.66381 0
M  V30 599 H 47.7975 3.31541 -5.66053 0
M  V30 600 H 47.7145 2.44149 -7.15491 0
M  V30 601 H 48.9825 3.6054 -6.91109 0
M  V30 602 N 53.2116 1.57565 -0.0334293 0
M  V30 603 C 54.4366 1.96689 0.657895 0
M  V30 604 C 54.8616 0.910057 1.64619 0
M  V30 605 O 54.2196 -0.128598 1.80843 0
M  V30 606 C 54.2676 3.34905 1.33683 0
M  V30 607 O 53.3716 3.31574 2.45219 0
M  V30 608 H 52.7126 0.641205 0.172489 0
M  V30 609 H 55.2426 2.04372 -0.0965621 0
M  V30 610 H 55.2526 3.71234 1.69262 0
M  V30 611 H 53.9276 4.11366 0.612411 0
M  V30 612 H 52.5046 3.06968 2.11719 0
M  V30 613 N 54.6897 -0.239769 1.55765 0
M  V30 614 C 55.6527 -1.28038 1.90103 0
M  V30 615 C 56.6527 -1.40723 0.778055 0
M  V30 616 O 57.8427 -1.39301 1.04599 0
M  V30 617 C 54.9747 -2.65702 2.13577 0
M  V30 618 H 56.1677 -0.988048 2.83157 0
M  V30 619 H 53.7207 -0.479382 1.48767 0
M  V30 620 H 54.4557 -3.00063 1.23015 0
M  V30 621 H 54.2407 -2.57875 2.95369 0
M  V30 622 H 55.7307 -3.40828 2.41301 0
M  V30 623 N 56.1678 -1.49265 -0.50573 0
M  V30 624 C 57.0778 -1.68312 -1.63427 0
M  V30 625 C 58.0938 -0.565682 -1.64548 0
M  V30 626 O 59.2698 -0.839801 -1.83055 0
M  V30 627 C 56.3348 -1.74107 -2.99813 0
M  V30 628 C 55.3958 -2.97653 -3.09356 0
M  V30 629 C 54.6288 -3.03163 -4.39236 0
M  V30 630 O 54.8518 -2.16396 -5.27758 0
M  V30 631 O 53.7858 -3.9558 -4.53652 0
M  V30 632 H 57.6118 -2.63907 -1.50289 0
M  V30 633 H 55.1968 -1.32951 -0.681502 0
M  V30 634 H 57.0788 -1.803 -3.80881 0
M  V30 635 H 55.7538 -0.816901 -3.13223 0
M  V30 636 H 54.6608 -2.96981 -2.27493 0
M  V30 637 H 55.9938 -3.89535 -3.00871 0
M  V30 638 N 57.6459 0.756429 -1.3826 0
M  V30 639 C 58.9229 1.50584 -1.24835 0
M  V30 640 C 59.3029 2.10556 0.151485 0
M  V30 641 O 58.6509 1.96825 1.1607 0
M  V30 642 C 58.8609 2.57448 -2.3563 0
M  V30 643 C 60.2089 3.24429 -2.73917 0
M  V30 644 O 61.2329 2.67751 -2.34921 0
M  V30 645 O 60.0919 4.26937 -3.41156 0
M  V30 646 H 57.1859 0.667664 -0.48801 0
M  V30 647 H 59.7319 0.792083 -1.5008 0
M  V30 648 H 58.5039 2.11362 -3.29305 0
M  V30 649 H 58.1269 3.36408 -2.11933 0
M  V30 650 N 59.124 1.23083 0.984299 0
M  V30 651 C 60.054 1.03292 2.09411 0
M  V30 652 C 61.035 -0.048923 1.7003 0
M  V30 653 O 62.22 0.114967 1.93859 0
M  V30 654 C 59.35 0.619155 3.41736 0
M  V30 655 C 58.304 1.64791 3.95004 0
M  V30 656 C 57.63 1.0897 5.23478 0
M  V30 657 C 58.93 3.03999 4.24714 0
M  V30 658 H 60.624 1.96119 2.26225 0
M  V30 659 H 58.17 0.944344 1.08711 0
M  V30 660 H 60.123 0.467777 4.18796 0
M  V30 661 H 58.847 -0.344786 3.24775 0
M  V30 662 H 57.506 1.78721 3.20085 0
M  V30 663 H 57.154 0.11686 5.02864 0
M  V30 664 H 56.854 1.77704 5.60085 0
M  V30 665 H 58.378 0.950093 6.03163 0
M  V30 666 H 59.792 2.93393 4.92538 0
M  V30 667 H 58.189 3.69936 4.72512 0
M  V30 668 H 59.259 3.53285 3.32142 0
M  V30 669 N 60.6021 -1.18246 1.0419 0
M  V30 670 C 61.8791 -1.84121 0.660208 0
M  V30 671 C 62.2591 -1.92778 -0.860221 0
M  V30 672 O 61.6071 -1.45464 -1.76217 0
M  V30 673 C 61.8171 -3.22355 1.33747 0
M  V30 674 C 63.1651 -3.98376 1.46906 0
M  V30 675 O 64.1891 -3.31799 1.29568 0
M  V30 676 O 63.0481 -5.17665 1.75171 0
M  V30 677 H 60.1421 -0.794036 0.231161 0
M  V30 678 H 62.6881 -1.25628 1.14087 0
M  V30 679 H 61.4601 -3.10964 2.37522 0
M  V30 680 H 61.0831 -3.88506 0.845515 0
M  V30 681 N 62.0802 -0.821533 -1.34494 0
M  V30 682 C 63.0272 -0.240397 -2.29545 0
M  V30 683 C 63.9972 0.634031 -1.53523 0
M  V30 684 O 65.1822 0.575966 -1.81899 0
M  V30 685 C 62.3222 0.592869 -3.39969 0
M  V30 686 C 61.4352 -0.30365 -4.30932 0
M  V30 687 C 60.5702 0.539049 -5.28458 0
M  V30 688 C 59.6092 -0.356942 -6.11058 0
M  V30 689 N 58.7462 0.446603 -7.00678 0
M  V30 690 H 63.5862 -1.05632 -2.7865 0
M  V30 691 H 61.1232 -0.532413 -1.37127 0
M  V30 692 H 63.0812 1.09129 -4.02675 0
M  V30 693 H 61.7112 1.37392 -2.92102 0
M  V30 694 H 60.7632 -0.920276 -3.691 0
M  V30 695 H 62.0752 -0.992661 -4.88823 0
M  V30 696 H 61.2292 1.102 -5.96608 0
M  V30 697 H 59.9682 1.26157 -4.71101 0
M  V30 698 H 58.9732 -0.932047 -5.41842 0
M  V30 699 H 60.1982 -1.07755 -6.70497 0
M  V30 700 H 58.1442 1.15282 -6.45791 0
M  V30 701 H 58.0612 -0.184048 -7.55776 0
M  V30 702 H 59.3292 0.992352 -7.73158 0
M  V30 703 N 63.5583 1.46682 -0.576371 0
M  V30 704 C 64.4883 2.33028 0.148397 0
M  V30 705 C 65.4693 1.44961 0.889956 0
M  V30 706 O 66.6543 1.73789 0.866662 0
M  V30 707 C 63.7843 3.27117 1.1667 0
M  V30 708 C 62.7383 4.24575 0.540386 0
M  V30 709 C 62.0643 5.08126 1.6647 0
M  V30 710 C 63.3643 5.19722 -0.518331 0
M  V30 711 H 65.0583 2.93875 -0.572509 0
M  V30 712 H 62.6043 1.41315 -0.276768 0
M  V30 713 H 64.5573 3.86374 1.68204 0
M  V30 714 H 63.2813 2.64364 1.9178 0
M  V30 715 H 61.9403 3.66571 0.0461769 0
M  V30 716 H 61.5883 4.41762 2.40531 0
M  V30 717 H 61.2883 5.74122 1.25131 0
M  V30 718 H 62.8123 5.70246 2.18293 0
M  V30 719 H 64.2263 5.73232 -0.0883058 0
M  V30 720 H 62.6233 5.94026 -0.851679 0
M  V30 721 H 63.6933 4.64037 -1.40703 0
M  V30 722 N 65.0364 0.313813 1.54444 0
M  V30 723 C 66.4524 -0.0391619 1.59552 0
M  V30 724 C 66.6524 -1.51322 1.33056 0
M  V30 725 O 65.7084 -2.26782 1.11022 0
M  V30 726 C 67.0214 0.370302 2.98411 0
M  V30 727 C 68.5694 0.320139 3.11358 0
M  V30 728 C 69.0444 0.704617 4.52547 0
M  V30 729 N 70.5354 0.657645 4.58508 0
M  V30 730 C 71.2704 0.927453 5.6585 0
M  V30 731 N 70.7664 1.26389 6.81174 0
M  V30 732 N 72.5594 0.853662 5.5558 0
M  V30 733 H 64.7104 1.27433 1.69925 0
M  V30 734 H 66.9734 0.517511 0.794284 0
M  V30 735 H 66.6794 1.39694 3.22767 0
M  V30 736 H 66.5534 -0.269619 3.76235 0
M  V30 737 H 68.9404 -0.697275 2.86744 0
M  V30 738 H 69.0214 0.99486 2.35661 0
M  V30 739 H 68.6654 1.7199 4.77893 0
M  V30 740 H 68.5954 0.00768843 5.26599 0
M  V30 741 H 71.0864 0.409067 3.75679 0
M  V30 742 H 71.3994 1.4554 7.58972 0
M  V30 743 H 69.7444 1.30206 6.82694 0
M  V30 744 H 72.9354 0.590383 4.64362 0
M  V30 745 H 73.1084 1.0673 6.3915 0
M  V30 746 N 66.5145 -1.57545 0.0417849 0
M  V30 747 C 67.4625 -2.12148 -0.953723 0
M  V30 748 C 68.4565 -1.05104 -1.32852 0
M  V30 749 O 69.6625 -1.23524 -1.30927 0
M  V30 750 H 66.0375 -0.677957 -0.325389 0
M  V30 751 H 68.0085 -2.94707 -0.467991 0
M  V30 752 C 66.7575 -2.6739 -2.22257 0
M  V30 753 H 66.0805 -3.49413 -1.94295 0
M  V30 754 H 67.5205 -3.09227 -2.90094 0
M  V30 755 C 65.9795 -1.60723 -2.96091 0
M  V30 756 O 66.5095 -1.01449 -3.88679 0
M  V30 757 N 64.7155 -1.32466 -2.58652 0
M  V30 758 H 64.2625 -1.80856 -1.83437 0
M  V30 759 H 64.2205 -0.61325 -3.08361 0
M  V30 760 N 67.9926 0.231505 -1.5589 0
M  V30 761 C 69.2696 0.981096 -1.69215 0
M  V30 762 C 69.6496 2.02799 -0.586164 0
M  V30 763 O 68.9976 2.24823 0.408253 0
M  V30 764 C 69.2076 1.60054 -3.10135 0
M  V30 765 C 70.5556 2.09658 -3.69227 0
M  V30 766 O 71.5796 1.69967 -3.13033 0
M  V30 767 O 70.4386 2.8258 -4.67772 0
M  V30 768 H 67.5326 0.457653 -0.688827 0
M  V30 769 H 70.0786 0.224073 -1.68214 0
M  V30 770 H 68.8506 0.844105 -3.82087 0
M  V30 771 H 68.4736 2.42336 -3.15212 0
M  V30 772 N 69.4707 1.49531 0.497807 0
M  V30 773 C 70.7187 1.58865 1.24926 0
M  V30 774 C 71.0397 0.278721 1.92998 0
M  V30 775 O 70.3097 -0.702144 1.82885 0
M  V30 776 H 68.8897 0.585343 0.464094 0
M  V30 777 H 71.5517 1.86174 0.57666 0
M  V30 778 H 70.6477 2.38633 2.01149 0
M  V30 779 N 70.9488 -0.749086 1.3866 0
M  V30 780 C 72.1788 -1.53611 1.38157 0
M  V30 781 C 72.5868 -1.89177 -0.0293595 0
M  V30 782 O 71.9298 -1.53606 -1.00752 0
M  V30 783 C 71.9918 -2.86087 2.17702 0
M  V30 784 C 71.6558 -2.73034 3.66472 0
M  V30 785 C 72.6528 -2.42526 4.59866 0
M  V30 786 C 70.3378 -2.90345 4.09884 0
M  V30 787 C 72.3318 -2.29492 5.94653 0
M  V30 788 C 70.0188 -2.7693 5.4475 0
M  V30 789 C 71.0168 -2.46547 6.36949 0
M  V30 790 O 70.7048 -2.33199 7.69333 0
M  V30 791 H 70.4368 -0.481773 0.474205 0
M  V30 792 H 72.9908 -0.934465 1.82912 0
M  V30 793 H 71.2208 -3.48458 1.67672 0
M  V30 794 H 72.9098 -3.47625 2.09551 0
M  V30 795 H 73.6758 -2.28816 4.27631 0
M  V30 796 H 69.5548 -3.1299 3.38464 0
M  V30 797 H 73.0988 -2.05698 6.66584 0
M  V30 798 H 68.9958 -2.90215 5.76581 0
M  V30 799 H 69.7638 -2.48376 7.79905 0
M  V30 800 N 72.4269 -1.23603 -0.977757 0
M  V30 801 C 73.3569 -1.04401 -2.0886 0
M  V30 802 C 74.3379 0.0399052 -1.70053 0
M  V30 803 O 75.5229 -0.125246 -1.93796 0
M  V30 804 C 72.6529 -0.637269 -3.41403 0
M  V30 805 C 71.6069 -1.66883 -3.94124 0
M  V30 806 C 70.9329 -1.11745 -5.22893 0
M  V30 807 C 72.2329 -3.06247 -4.23096 0
M  V30 808 H 73.9269 -1.97316 -2.25182 0
M  V30 809 H 71.4729 -0.950096 -1.08209 0
M  V30 810 H 73.4259 -0.48998 -4.18542 0
M  V30 811 H 72.1499 0.327557 -3.24953 0
M  V30 812 H 70.8089 -1.80416 -3.19133 0
M  V30 813 H 70.4569 -0.143527 -5.02795 0
M  V30 814 H 70.1569 -1.80672 -5.59134 0
M  V30 815 H 71.6809 -0.982067 -6.02651 0
M  V30 816 H 73.0949 -2.96001 -4.90975 0
M  V30 817 H 71.4919 -3.72436 -4.70544 0
M  V30 818 H 72.5619 -3.55041 -3.30263 0
M  V30 819 N 73.905 1.17692 -1.04816 0
M  V30 820 C 74.838 2.20436 -0.590173 0
M  V30 821 C 75.816 1.58115 0.379244 0
M  V30 822 O 77 1.86228 0.291762 0
M  V30 823 C 74.127 3.38424 0.136817 0
M  V30 824 C 73.173 4.19176 -0.787023 0
M  V30 825 S 74.006 4.84815 -2.27409 0
M  V30 826 C 75.162 6.06195 -1.55817 0
M  V30 827 H 75.395 2.58944 -1.46067 0
M  V30 828 H 72.928 1.28246 -0.859784 0
M  V30 829 H 74.886 4.06798 0.550076 0
M  V30 830 H 73.547 2.98312 0.983299 0
M  V30 831 H 72.74 5.03499 -0.224681 0
M  V30 832 H 72.342 3.56219 -1.13947 0
M  V30 833 H 74.634 6.72078 -0.855387 0
M  V30 834 H 75.577 6.6695 -2.37873 0
M  V30 835 H 75.985 5.54701 -1.04722 0
M  V30 836 N 75.3831 0.828654 1.34056 0
M  V30 837 C 76.6301 0.419458 1.98108 0
M  V30 838 C 76.9581 -1.01886 1.65679 0
M  V30 839 O 76.2131 -1.72539 0.923512 0
M  V30 840 C 76.5121 0.575226 3.52741 0
M  V30 841 C 76.1781 1.98012 4.05095 0
M  V30 842 C 74.8401 2.36442 4.19104 0
M  V30 843 C 77.1921 2.89824 4.33188 0
M  V30 844 C 74.5201 3.66009 4.58535 0
M  V30 845 C 76.8721 4.1886 4.74066 0
M  V30 846 C 75.5361 4.5726 4.86281 0
M  V30 847 H 74.8061 0.153491 0.724929 0
M  V30 848 H 77.4531 1.05371 1.59904 0
M  V30 849 H 75.7581 -0.142385 3.91541 0
M  V30 850 H 77.4551 0.239057 4.00287 0
M  V30 851 H 74.0451 1.67162 3.94658 0
M  V30 852 H 78.2291 2.61375 4.21897 0
M  V30 853 H 73.4851 3.95579 4.66184 0
M  V30 854 H 77.6591 4.90086 4.94761 0
M  V30 855 H 75.2861 5.57707 5.16592 0
M  V30 856 N 76.8612 -1.46375 0.584142 0
M  V30 857 C 77.7932 -2.28443 -0.186119 0
M  V30 858 C 78.8062 -1.38596 -0.854115 0
M  V30 859 O 79.9952 -1.63183 -0.723438 0
M  V30 860 C 77.0952 -3.13671 -1.28311 0
M  V30 861 C 76.2682 -4.31652 -0.706758 0
M  V30 862 C 75.3272 -4.98267 -1.69163 0
M  V30 863 O 74.3532 -5.55815 -1.22712 0
M  V30 864 N 75.5552 -4.95408 -3.02575 0
M  V30 865 H 78.3202 -2.9519 0.517986 0
M  V30 866 H 75.8812 -1.56303 0.42201 0
M  V30 867 H 77.8732 -3.55101 -1.94128 0
M  V30 868 H 76.4432 -2.48989 -1.89005 0
M  V30 869 H 75.6632 -3.93989 0.128908 0
M  V30 870 H 76.9512 -5.07906 -0.301506 0
M  V30 871 H 76.3492 -4.49902 -3.42936 0
M  V30 872 H 74.9062 -5.40774 -3.63877 0
M  V30 873 N 78.3393 -0.321999 -1.54275 0
M  V30 874 C 79.2713 0.578671 -2.21775 0
M  V30 875 C 80.2843 1.08109 -1.21722 0
M  V30 876 O 81.4733 0.994938 -1.482 0
M  V30 877 C 78.5733 1.80661 -2.86731 0
M  V30 878 C 77.7463 1.44314 -4.12907 0
M  V30 879 C 76.8053 2.52845 -4.61472 0
M  V30 880 O 75.8313 2.17054 -5.2619 0
M  V30 881 N 77.0333 3.83748 -4.35566 0
M  V30 882 H 79.7983 0.000709447 -2.997 0
M  V30 883 H 77.3593 -0.145132 -1.61248 0
M  V30 884 H 79.3513 2.52655 -3.16145 0
M  V30 885 H 77.9213 2.29245 -2.12521 0
M  V30 886 H 77.1413 0.554906 -3.90275 0
M  V30 887 H 78.4293 1.17598 -4.95023 0
M  V30 888 H 77.8273 4.15625 -3.83761 0
M  V30 889 H 76.3843 4.51977 -4.69638 0
M  V30 890 N 79.8174 1.5752 -0.0501392 0
M  V30 891 C 81.0634 1.92936 0.624798 0
M  V30 892 C 81.3964 0.928685 1.70555 0
M  V30 893 O 80.6714 -0.0454779 1.94447 0
M  V30 894 C 80.9544 3.38737 1.22185 0
M  V30 895 C 80.8074 4.49552 0.149218 0
M  V30 896 C 82.1264 3.84913 2.13378 0
M  V30 897 H 79.2454 0.701604 0.225657 0
M  V30 898 H 81.8874 1.89671 -0.111693 0
M  V30 899 H 80.0374 3.4165 1.84953 0
M  V30 900 H 81.7094 4.58768 -0.482648 0
M  V30 901 H 79.9524 4.30638 -0.522841 0
M  V30 902 H 80.6234 5.48653 0.606966 0
M  V30 903 H 83.0994 3.8387 1.60572 0
M  V30 904 H 81.9754 4.87584 2.52097 0
M  V30 905 H 82.2364 3.21611 3.03346 0
M  V30 906 N 81.2955 -0.223234 1.56011 0
M  V30 907 C 82.7065 -0.790368 1.69145 0
M  V30 908 C 83.0575 -1.85055 0.651845 0
M  V30 909 O 82.1825 -2.15498 -0.197359 0
M  V30 910 C 82.7775 -1.4404 3.06656 0
M  V30 911 C 81.3365 -1.95494 3.2165 0
M  V30 912 C 80.4835 -0.814506 2.65068 0
M  V30 913 H 83.4345 0.00139011 1.587 0
M  V30 914 H 83.4555 -2.30916 3.0242 0
M  V30 915 H 82.9675 -0.668543 3.82298 0
M  V30 916 H 81.0685 -2.75487 2.50874 0
M  V30 917 H 81.1815 -2.13607 4.28846 0
M  V30 918 H 79.5455 -1.22137 2.23505 0
M  V30 919 H 80.3285 -0.0553515 3.43255 0
M  V30 920 N 82.7736 -1.49793 -0.48987 0
M  V30 921 C 83.7066 -1.61898 -1.60823 0
M  V30 922 C 84.6846 -0.467651 -1.5573 0
M  V30 923 O 85.8686 -0.684682 -1.75626 0
M  V30 924 C 82.9956 -1.58422 -2.99366 0
M  V30 925 C 82.0416 -2.78889 -3.22682 0
M  V30 926 S 82.8746 -4.40429 -3.04602 0
M  V30 927 C 84.0306 -4.39617 -4.4552 0
M  V30 928 H 84.2636 -2.56502 -1.50312 0
M  V30 929 H 81.7966 -1.38822 -0.675849 0
M  V30 930 H 83.7546 -1.57103 -3.79248 0
M  V30 931 H 82.4156 -0.650866 -3.07283 0
M  V30 932 H 81.6086 -2.72708 -4.23847 0
M  V30 933 H 81.2106 -2.77678 -2.50541 0
M  V30 934 H 83.5026 -4.12022 -5.37814 0
M  V30 935 H 84.4456 -5.41097 -4.56749 0
M  V30 936 H 84.8536 -3.69554 -4.2672 0
M  V30 937 N 84.2517 0.741722 -1.39055 0
M  V30 938 C 85.4977 1.50336 -1.36113 0
M  V30 939 C 85.8307 1.94148 0.0450796 0
M  V30 940 O 85.1057 1.66301 1.00868 0
M  V30 941 C 85.3887 2.74773 -2.32749 0
M  V30 942 C 85.2417 2.37023 -3.82283 0
M  V30 943 C 86.5607 3.76846 -2.27322 0
M  V30 944 H 83.6797 0.545351 -0.495743 0
M  V30 945 H 86.3217 0.848624 -1.69995 0
M  V30 946 H 84.4717 3.30639 -2.03986 0
M  V30 947 H 86.1437 1.8684 -4.21768 0
M  V30 948 H 84.3867 1.69334 -3.99385 0
M  V30 949 H 85.0577 3.26104 -4.45376 0
M  V30 950 H 87.5337 3.30548 -2.5274 0
M  V30 951 H 86.4097 4.6159 -2.97028 0
M  V30 952 H 86.6707 4.23286 -1.27599 0
M  V30 953 N 85.7298 1.2412 0.971189 0
M  V30 954 C 86.6398 1.04747 2.09917 0
M  V30 955 C 87.6558 -0.0107162 1.73997 0
M  V30 956 O 88.8318 0.186714 2.00533 0
M  V30 957 C 85.8968 0.650828 3.40537 0
M  V30 958 C 84.9578 1.7851 3.90426 0
M  V30 959 C 84.1908 1.40729 5.14812 0
M  V30 960 O 84.4138 0.29557 5.69634 0
M  V30 961 O 83.3478 2.23168 5.58999 0
M  V30 962 H 87.1738 1.99304 2.29154 0
M  V30 963 H 84.7588 1.02908 1.08307 0
M  V30 964 H 86.6408 0.440992 4.19086 0
M  V30 965 H 85.3158 -0.265649 3.22608 0
M  V30 966 H 84.2228 2.04966 3.12953 0
M  V30 967 H 85.5558 2.68023 4.12825 0
M  V30 968 N 87.2079 -1.17134 1.05439 0
M  V30 969 C 88.4569 -1.86791 0.761049 0
M  V30 970 C 88.7699 -1.82072 -0.714795 0
M  V30 971 O 89.9759 -2.47223 -1.12218 0
M  V30 972 C 88.4319 -3.35166 1.31117 0
M  V30 973 C 88.0399 -3.48381 2.81664 0
M  V30 974 C 89.7839 -4.10134 1.09499 0
M  V30 975 C 87.6909 -4.90793 3.29964 0
M  V30 976 H 86.6209 -0.699681 0.281002 0
M  V30 977 H 89.2719 -1.3226 1.27199 0
M  V30 978 H 87.6539 -3.8925 0.72803 0
M  V30 979 H 88.8279 -3.04502 3.45855 0
M  V30 980 H 87.1429 -2.86836 3.01851 0
M  V30 981 H 89.7399 -5.152 1.43084 0
M  V30 982 H 90.0829 -4.16287 0.0328772 0
M  V30 983 H 90.6159 -3.62264 1.64346 0
M  V30 984 H 87.3549 -4.89816 4.35616 0
M  V30 985 H 86.8749 -5.35333 2.70516 0
M  V30 986 H 88.5539 -5.59573 3.24787 0
M  V30 987 N 88.686 -0.835752 -1.33615 0
M  V30 988 C 89.963 -0.352017 -1.92406 0
M  V30 989 C 90.343 1.16225 -1.76224 0
M  V30 990 O 89.691 1.97526 -1.14873 0
M  V30 991 C 89.901 -0.795485 -3.39813 0
M  V30 992 C 91.249 -0.801703 -4.16963 0
M  V30 993 O 92.273 -0.738889 -3.48452 0
M  V30 994 O 91.132 -0.886607 -5.3926 0
M  V30 995 H 88.226 -0.0989641 -0.821057 0
M  V30 996 H 90.772 -0.921397 -1.42507 0
M  V30 997 H 89.544 -1.83795 -3.45449 0
M  V30 998 H 89.167 -0.202505 -3.97084 0
M  V30 999 N 90.1641 1.46063 -0.591896 0
M  V30 1000 C 91.4121 2.01938 -0.0808391 0
M  V30 1001 C 91.7331 1.46475 1.28725 0
M  V30 1002 O 91.0031 0.652944 1.84698 0
M  V30 1003 H 89.5831 0.746516 -0.0268938 0
M  V30 1004 H 92.2451 1.79055 -0.769752 0
M  V30 1005 H 91.3411 3.12094 -0.0187578 0
M  V30 1006 N 91.6422 0.330177 1.54103 0
M  V30 1007 C 92.5752 -0.575477 2.20825 0
M  V30 1008 C 93.5532 -1.11064 1.18758 0
M  V30 1009 O 94.7372 -1.17341 1.47524 0
M  V30 1010 C 91.8642 -1.79032 2.87516 0
M  V30 1011 C 90.9102 -1.38581 4.03358 0
M  V30 1012 S 91.7432 -0.416911 5.33875 0
M  V30 1013 C 92.8992 -1.63889 6.04062 0
M  V30 1014 H 93.1322 -0.00872114 2.97299 0
M  V30 1015 H 90.6652 0.114254 1.53977 0
M  V30 1016 H 92.6232 -2.48734 3.2656 0
M  V30 1017 H 91.2842 -2.32827 2.10832 0
M  V30 1018 H 90.4772 -2.29123 4.48908 0
M  V30 1019 H 90.0792 -0.768419 3.66021 0
M  V30 1020 H 92.3712 -2.57536 6.26643 0
M  V30 1021 H 93.3142 -1.22542 6.97416 0
M  V30 1022 H 93.7222 -1.82887 5.34053 0
M  V30 1023 N 93.1203 -1.57491 0.0584922 0
M  V30 1024 C 94.0673 -2.11958 -0.913376 0
M  V30 1025 C 95.0373 -1.02875 -1.30407 0
M  V30 1026 O 96.2223 -1.30464 -1.39226 0
M  V30 1027 C 93.3623 -2.67497 -2.18035 0
M  V30 1028 C 92.4753 -3.90691 -1.84349 0
M  V30 1029 C 91.6103 -4.3452 -3.05559 0
M  V30 1030 C 90.6493 -5.50395 -2.67827 0
M  V30 1031 N 89.7863 -5.89244 -3.81754 0
M  V30 1032 H 94.6263 -2.94704 -0.442017 0
M  V30 1033 H 92.1633 -1.45643 -0.206545 0
M  V30 1034 H 94.1213 -2.978 -2.92183 0
M  V30 1035 H 92.7513 -1.87537 -2.62735 0
M  V30 1036 H 91.8033 -3.66934 -1.00319 0
M  V30 1037 H 93.1153 -4.7489 -1.5258 0
M  V30 1038 H 92.2693 -4.66414 -3.87998 0
M  V30 1039 H 91.0083 -3.49147 -3.40511 0
M  V30 1040 H 90.0133 -5.18165 -1.83806 0
M  V30 1041 H 91.2383 -6.3749 -2.34059 0
M  V30 1042 H 89.1843 -5.06823 -4.16493 0
M  V30 1043 H 89.1013 -6.68151 -3.53708 0
M  V30 1044 H 90.3693 -6.25756 -4.64811 0
M  V30 1045 N 94.5984 0.214957 -1.56127 0
M  V30 1046 C 95.5284 1.2695 -1.95974 0
M  V30 1047 C 96.5094 1.48539 -0.828868 0
M  V30 1048 O 97.6944 1.60611 -1.09168 0
M  V30 1049 C 94.8244 2.61794 -2.28214 0
M  V30 1050 C 93.7784 2.54851 -3.43853 0
M  V30 1051 C 93.1044 3.93785 -3.61715 0
M  V30 1052 C 94.4044 2.09065 -4.78632 0
M  V30 1053 H 96.0984 0.93846 -2.84312 0
M  V30 1054 H 93.6444 0.449996 -1.36788 0
M  V30 1055 H 95.5974 3.35731 -2.54682 0
M  V30 1056 H 94.3214 2.96599 -1.36736 0
M  V30 1057 H 92.9804 1.8337 -3.17444 0
M  V30 1058 H 92.6284 4.25908 -2.67602 0
M  V30 1059 H 92.3284 3.90019 -4.39498 0
M  V30 1060 H 93.8524 4.69374 -3.90539 0
M  V30 1061 H 95.2664 2.7275 -5.04262 0
M  V30 1062 H 93.6634 2.16346 -5.59745 0
M  V30 1063 H 94.7334 1.04315 -4.73547 0
M  V30 1064 N 96.0765 1.50051 0.48192 0
M  V30 1065 C 97.3225 1.60736 1.2366 0
M  V30 1066 C 97.6555 0.301786 1.91841 0
M  V30 1067 O 96.9305 -0.696025 1.8162 0
M  V30 1068 C 97.2135 2.78009 2.28874 0
M  V30 1069 C 97.0665 4.18416 1.65069 0
M  V30 1070 C 98.3855 2.90867 3.30279 0
M  V30 1071 H 95.5045 0.585031 0.448228 0
M  V30 1072 H 98.1465 1.82402 0.531946 0
M  V30 1073 H 96.2965 2.59667 2.88973 0
M  V30 1074 H 97.9685 4.48322 1.0865 0
M  V30 1075 H 96.2115 4.23177 0.954148 0
M  V30 1076 H 96.8825 4.96381 2.41474 0
M  V30 1077 H 99.3585 3.07623 2.80191 0
M  V30 1078 H 98.2345 3.74566 4.01238 0
M  V30 1079 H 98.4955 2.01021 3.93755 0
M  V30 1080 N 97.5546 -0.734337 1.39446 0
M  V30 1081 C 98.4866 -1.85861 1.34121 0
M  V30 1082 C 99.4996 -1.60871 0.249864 0
M  V30 1083 O 100.689 -1.71093 0.508865 0
M  V30 1084 C 97.7886 -3.21899 1.05991 0
M  V30 1085 C 96.9616 -3.74239 2.26415 0
M  V30 1086 C 96.0206 -4.88841 1.94733 0
M  V30 1087 O 95.0466 -5.02468 2.67422 0
M  V30 1088 N 96.2486 -5.73261 0.913884 0
M  V30 1089 H 99.0136 -1.90934 2.31007 0
M  V30 1090 H 96.5746 -0.915102 1.33557 0
M  V30 1091 H 98.5666 -3.96136 0.828147 0
M  V30 1092 H 97.1366 -3.12091 0.178361 0
M  V30 1093 H 96.3566 -2.91347 2.65539 0
M  V30 1094 H 97.6446 -4.05942 3.06738 0
M  V30 1095 H 97.0426 -5.64842 0.311476 0
M  V30 1096 H 95.5996 -6.47563 0.742015 0
M  V30 1097 N 99.0327 -1.24633 -0.964593 0
M  V30 1098 C 100.261 -1.11501 -1.74285 0
M  V30 1099 C 100.676 0.332165 -1.85855 0
M  V30 1100 O 100.033 1.22903 -1.34911 0
M  V30 1101 C 100.084 -1.75258 -3.16175 0
M  V30 1102 O 99.8047 -3.14318 -3.05182 0
M  V30 1103 C 101.306 -1.67776 -4.10324 0
M  V30 1104 H 98.5257 -0.389407 -0.546446 0
M  V30 1105 H 101.07 -1.64801 -1.21083 0
M  V30 1106 H 99.2247 -1.25954 -3.66353 0
M  V30 1107 H 99.6387 -3.4551 -3.94618 0
M  V30 1108 H 101.113 -2.17064 -5.0753 0
M  V30 1109 H 101.59 -0.639584 -4.34518 0
M  V30 1110 H 102.196 -2.16522 -3.66058 0
M  V30 1111 N 100.511 1.16574 -1.06058 0
M  V30 1112 C 101.927 1.3904 -0.783585 0
M  V30 1113 C 102.127 1.91784 0.618145 0
M  V30 1114 O 101.183 2.11511 1.37911 0
M  V30 1115 C 102.496 2.37329 -1.84649 0
M  V30 1116 C 104.044 2.51018 -1.86973 0
M  V30 1117 C 104.519 3.52588 -2.92311 0
M  V30 1118 N 106.01 3.60113 -2.91329 0
M  V30 1119 C 106.745 4.38486 -3.69482 0
M  V30 1120 N 106.241 5.20302 -4.57447 0
M  V30 1121 N 108.034 4.33446 -3.57885 0
M  V30 1122 H 100.185 0.806725 -1.96483 0
M  V30 1123 H 102.448 0.417117 -0.851303 0
M  V30 1124 H 102.154 2.05663 -2.85299 0
M  V30 1125 H 102.028 3.36946 -1.6955 0
M  V30 1126 H 104.415 2.81989 -0.869827 0
M  V30 1127 H 104.496 1.51445 -2.0615 0
M  V30 1128 H 104.14 3.22354 -3.92492 0
M  V30 1129 H 104.07 4.51886 -2.70383 0
M  V30 1130 H 106.561 3.01707 -2.27555 0
M  V30 1131 H 106.874 5.77311 -5.13743 0
M  V30 1132 H 105.219 5.19653 -4.61503 0
M  V30 1133 H 108.41 3.68586 -2.88551 0
M  V30 1134 H 108.583 4.94279 -4.19037 0
M  V30 1135 N 101.989 0.842826 1.3317 0
M  V30 1136 C 102.952 0.284065 2.27433 0
M  V30 1137 C 103.952 -0.54948 1.5112 0
M  V30 1138 O 105.142 -0.362699 1.70382 0
M  V30 1139 C 102.274 -0.599384 3.35589 0
M  V30 1140 H 103.467 1.11589 2.78366 0
M  V30 1141 H 101.02 0.616221 1.4364 0
M  V30 1142 H 101.755 -1.45349 2.89904 0
M  V30 1143 H 101.54 -0.00291266 3.921 0
M  V30 1144 H 103.03 -0.983488 4.05854 0
M  V30 1145 N 103.467 -1.45747 0.599634 0
M  V30 1146 C 104.716 -2.01502 0.0893511 0
M  V30 1147 C 105.029 -1.4748 -1.28488 0
M  V30 1148 O 106.235 -1.95161 -1.88745 0
M  V30 1149 C 104.691 -3.59735 0.109082 0
M  V30 1150 C 104.299 -4.22754 1.48267 0
M  V30 1151 C 106.043 -4.23085 -0.346374 0
M  V30 1152 C 103.95 -5.73115 1.45921 0
M  V30 1153 H 102.88 -0.753417 0.0296347 0
M  V30 1154 H 105.531 -1.67303 0.753788 0
M  V30 1155 H 103.913 -3.91087 -0.621854 0
M  V30 1156 H 105.087 -4.02987 2.23468 0
M  V30 1157 H 103.402 -3.71567 1.87955 0
M  V30 1158 H 105.999 -5.33327 -0.38298 0
M  V30 1159 H 106.342 -3.93201 -1.36743 0
M  V30 1160 H 106.875 -3.9642 0.331038 0
M  V30 1161 H 103.614 -6.07685 2.45762 0
M  V30 1162 H 103.134 -5.95097 0.749665 0
M  V30 1163 H 104.813 -6.3616 1.17941 0
M  V30 1164 N 104.945 -0.338344 -1.53925 0
M  V30 1165 C 105.875 0.51328 -2.27789 0
M  V30 1166 C 106.856 1.107 -1.29149 0
M  V30 1167 O 108.041 1.12937 -1.57984 0
M  V30 1168 C 105.171 1.66697 -3.04679 0
M  V30 1169 C 104.125 1.20183 -4.1078 0
M  V30 1170 C 103.451 2.44363 -4.75595 0
M  V30 1171 C 104.751 0.30605 -5.21403 0
M  V30 1172 H 106.445 -0.102883 -2.99223 0
M  V30 1173 H 103.991 -0.0509219 -1.4391 0
M  V30 1174 H 105.944 2.26915 -3.55088 0
M  V30 1175 H 104.668 2.30995 -2.30887 0
M  V30 1176 H 103.327 0.622499 -3.61276 0
M  V30 1177 H 102.975 3.07057 -3.98403 0
M  V30 1178 H 102.675 2.13925 -5.47275 0
M  V30 1179 H 104.199 3.05317 -5.28786 0
M  V30 1180 H 105.613 0.814929 -5.67478 0
M  V30 1181 H 104.01 0.0937929 -6.00027 0
M  V30 1182 H 105.08 -0.65921 -4.80398 0
M  V30 1183 N 106.423 1.57458 -0.0668435 0
M  V30 1184 C 107.371 2.13639 0.919851 0
M  V30 1185 C 108.365 1.07204 1.31163 0
M  V30 1186 O 109.571 1.25591 1.28945 0
M  V30 1187 H 105.946 0.683048 0.314562 0
M  V30 1188 H 107.917 2.95415 0.421047 0
M  V30 1189 C 106.666 2.70892 2.17975 0
M  V30 1190 H 105.989 3.5246 1.88711 0
M  V30 1191 H 107.429 3.13803 2.85138 0
M  V30 1192 C 105.888 1.65414 2.93496 0
M  V30 1193 O 106.418 1.07619 3.87015 0
M  V30 1194 N 104.624 1.36564 2.56512 0
M  V30 1195 H 104.171 1.83751 1.80536 0
M  V30 1196 H 104.129 0.66223 3.07347 0
M  V30 1197 N 107.901 -0.206675 1.56239 0
M  V30 1198 C 109.131 -0.943975 1.83773 0
M  V30 1199 C 109.539 -1.77841 0.645703 0
M  V30 1200 O 108.882 -1.79403 -0.395008 0
M  V30 1201 C 108.944 -1.899 3.05251 0
M  V30 1202 C 108.608 -1.24764 4.39639 0
M  V30 1203 C 109.605 -0.630216 5.16066 0
M  V30 1204 C 107.29 -1.25496 4.8637 0
M  V30 1205 C 109.284 -0.0287946 6.37393 0
M  V30 1206 C 106.971 -0.649698 6.07637 0
M  V30 1207 C 107.969 -0.0376845 6.8299 0
M  V30 1208 O 107.657 0.55812 8.0196 0
M  V30 1209 H 107.389 -0.281508 0.614597 0
M  V30 1210 H 109.943 -0.222458 2.04192 0
M  V30 1211 H 108.173 -2.6599 2.80689 0
M  V30 1212 H 109.862 -2.5031 3.1953 0
M  V30 1213 H 110.628 -0.616785 4.81062 0
M  V30 1214 H 106.507 -1.72072 4.27683 0
M  V30 1215 H 110.051 0.449518 6.9615 0
M  V30 1216 H 105.948 -0.660592 6.42111 0
M  V30 1217 H 106.716 0.453891 8.17241 0
M  V30 1218 N 109.379 -1.50304 -0.473955 0
M  V30 1219 C 110.628 -1.60392 -1.22301 0
M  V30 1220 C 110.941 -0.308411 -1.93153 0
M  V30 1221 O 112.147 -0.288156 -2.69966 0
M  V30 1222 C 110.603 -2.83109 -2.2221 0
M  V30 1223 C 110.211 -4.19524 -1.57173 0
M  V30 1224 C 111.955 -3.0254 -2.97775 0
M  V30 1225 C 109.862 -5.33431 -2.55353 0
M  V30 1226 H 108.792 -0.597286 -0.460179 0
M  V30 1227 H 111.443 -1.76731 -0.493803 0
M  V30 1228 H 109.825 -2.60322 -2.9841 0
M  V30 1229 H 110.999 -4.52554 -0.867824 0
M  V30 1230 H 109.314 -4.05674 -0.939002 0
M  V30 1231 H 111.911 -3.84811 -3.71248 0
M  V30 1232 H 112.254 -2.14154 -3.56992 0
M  V30 1233 H 112.787 -3.25494 -2.28688 0
M  V30 1234 H 109.526 -6.23962 -2.00878 0
M  V30 1235 H 109.046 -5.04823 -3.23904 0
M  V30 1236 H 110.725 -5.63887 -3.17239 0
M  V30 1237 N 110.857 0.726932 -1.39834 0
M  V30 1238 C 111.82 1.82269 -1.38962 0
M  V30 1239 C 112.82 1.58248 -0.285334 0
M  V30 1240 O 114.01 1.65499 -0.54366 0
M  V30 1241 C 111.142 3.20186 -1.17019 0
M  V30 1242 H 112.335 1.84443 -2.36476 0
M  V30 1243 H 109.888 0.931416 -1.25516 0
M  V30 1244 H 110.623 3.23669 -0.202204 0
M  V30 1245 H 110.408 3.3902 -1.96998 0
M  V30 1246 H 111.898 4.00235 -1.1917 0
M  V30 1247 N 112.336 1.25143 0.95797 0
M  V30 1248 C 113.561 1.12521 1.74223 0
M  V30 1249 C 113.986 -0.317402 1.85403 0
M  V30 1250 O 113.344 -1.2299 1.33204 0
M  V30 1251 C 113.392 1.78062 3.1357 0
M  V30 1252 O 112.496 1.058 3.98598 0
M  V30 1253 H 111.837 0.39304 0.535178 0
M  V30 1254 H 114.367 1.65641 1.201 0
M  V30 1255 H 114.377 1.84213 3.64046 0
M  V30 1256 H 113.052 2.83021 3.04749 0
M  V30 1257 H 111.629 1.07506 3.57067 0
M  V30 1258 N 113.814 -1.1601 1.06675 0
M  V30 1259 C 114.761 -2.20525 0.680967 0
M  V30 1260 C 115.731 -1.62904 -0.324283 0
M  V30 1261 O 116.916 -1.89615 -0.212294 0
M  V30 1262 C 114.056 -3.45013 0.0776551 0
M  V30 1263 C 113.169 -4.16863 1.13355 0
M  V30 1264 C 112.304 -5.2888 0.49597 0
M  V30 1265 C 111.343 -5.92537 1.53513 0
M  V30 1266 N 110.48 -6.96038 0.920631 0
M  V30 1267 H 115.32 -2.52876 1.57663 0
M  V30 1268 H 112.857 -1.24199 0.788223 0
M  V30 1269 H 114.815 -4.16193 -0.289704 0
M  V30 1270 H 113.445 -3.132 -0.781393 0
M  V30 1271 H 112.497 -3.44248 1.61857 0
M  V30 1272 H 113.809 -4.60294 1.92174 0
M  V30 1273 H 112.963 -6.06653 0.0758604 0
M  V30 1274 H 111.702 -4.86622 -0.324062 0
M  V30 1275 H 110.707 -5.13482 1.9651 0
M  V30 1276 H 111.932 -6.36873 2.35733 0
M  V30 1277 H 109.878 -6.55888 0.12138 0
M  V30 1278 H 109.795 -7.3786 1.64616 0
M  V30 1279 H 111.063 -7.77725 0.525795 0
M  V30 1280 N 115.292 -0.849877 -1.32721 0
M  V30 1281 C 116.522 -0.46408 -2.0132 0
M  V30 1282 C 116.93 0.94246 -1.64056 0
M  V30 1283 O 116.273 1.6257 -0.855379 0
M  V30 1284 C 116.335 -0.517887 -3.5575 0
M  V30 1285 C 115.999 -1.88248 -4.16427 0
M  V30 1286 C 116.996 -2.84726 -4.35002 0
M  V30 1287 C 114.681 -2.17832 -4.52609 0
M  V30 1288 C 116.675 -4.08945 -4.8892 0
M  V30 1289 C 114.362 -3.42304 -5.06232 0
M  V30 1290 C 115.36 -4.37677 -5.24335 0
M  V30 1291 O 115.048 -5.59946 -5.76815 0
M  V30 1292 H 114.78 -0.181327 -0.651227 0
M  V30 1293 H 117.334 -1.14713 -1.70382 0
M  V30 1294 H 115.564 0.221997 -3.86062 0
M  V30 1295 H 117.253 -0.148366 -4.05629 0
M  V30 1296 H 118.019 -2.63174 -4.07388 0
M  V30 1297 H 113.898 -1.44385 -4.37806 0
M  V30 1298 H 117.442 -4.83396 -5.02966 0
M  V30 1299 H 113.339 -3.63709 -5.33278 0
M  V30 1300 H 114.107 -5.61838 -5.95214 0
M  V30 1301 N 116.77 1.45427 -0.607355 0
M  V30 1302 C 117.718 2.32269 0.12411 0
M  V30 1303 C 118.712 1.45955 0.859854 0
M  V30 1304 O 119.918 1.6244 0.775447 0
M  V30 1305 H 116.293 0.749691 0.0588839 0
M  V30 1306 H 118.264 2.91743 -0.626762 0
M  V30 1307 C 117.013 3.29567 1.1082 0
M  V30 1308 H 116.336 3.95978 0.551492 0
M  V30 1309 H 117.776 3.93061 1.58995 0
M  V30 1310 C 116.235 2.56722 2.18164 0
M  V30 1311 O 116.765 2.34842 3.25902 0
M  V30 1312 N 114.971 2.16861 1.93442 0
M  V30 1313 H 114.518 2.34855 1.05834 0
M  V30 1314 H 114.476 1.68444 2.65469 0
M  V30 1315 N 118.248 0.346503 1.53744 0
M  V30 1316 C 119.178 -0.501193 2.28058 0
M  V30 1317 C 120.159 -1.10014 1.29734 0
M  V30 1318 O 121.344 -1.12097 1.58581 0
M  V30 1319 C 118.474 -1.65078 3.05559 0
M  V30 1320 C 117.428 -1.18003 4.11411 0
M  V30 1321 C 116.754 -2.41837 4.76884 0
M  V30 1322 C 118.054 -0.278394 5.21558 0
M  V30 1323 H 119.748 0.11875 2.99164 0
M  V30 1324 H 117.294 0.0585531 1.43881 0
M  V30 1325 H 119.247 -2.25028 3.56287 0
M  V30 1326 H 117.971 -2.29767 2.32109 0
M  V30 1327 H 116.63 -0.603331 3.61601 0
M  V30 1328 H 116.278 -3.0494 4.00026 0
M  V30 1329 H 115.978 -2.1102 5.48402 0
M  V30 1330 H 117.502 -3.02508 5.30397 0
M  V30 1331 H 118.916 -0.784823 5.67903 0
M  V30 1332 H 117.313 -0.0619707 6.00068 0
M  V30 1333 H 118.383 0.684677 4.80042 0
M  V30 1334 N 119.726 -1.57421 0.075193 0
M  V30 1335 C 120.956 -1.97659 -0.601203 0
M  V30 1336 C 121.364 -0.952427 -1.63479 0
M  V30 1337 O 120.707 0.0688241 -1.83571 0
M  V30 1338 C 120.769 -3.34218 -1.32434 0
M  V30 1339 C 120.433 -4.5484 -0.443826 0
M  V30 1340 C 121.43 -5.19034 0.299969 0
M  V30 1341 C 119.115 -5.00952 -0.367709 0
M  V30 1342 C 121.109 -6.27695 1.10807 0
M  V30 1343 C 118.796 -6.09484 0.444058 0
M  V30 1344 C 119.794 -6.72719 1.18061 0
M  V30 1345 O 119.482 -7.79161 1.97898 0
M  V30 1346 H 119.214 -0.65494 -0.167422 0
M  V30 1347 H 121.768 -2.04886 0.145157 0
M  V30 1348 H 119.998 -3.23615 -2.11685 0
M  V30 1349 H 121.687 -3.59038 -1.89331 0
M  V30 1350 H 122.453 -4.84351 0.250776 0
M  V30 1351 H 118.332 -4.51509 -0.930638 0
M  V30 1352 H 121.876 -6.76982 1.68347 0
M  V30 1353 H 117.773 -6.43601 0.494803 0
M  V30 1354 H 118.541 -7.96055 1.90367 0
M  V30 1355 N 121.204 0.198386 -1.56346 0
M  V30 1356 C 122.452 0.91747 -1.80075 0
M  V30 1357 C 122.773 1.83929 -0.647692 0
M  V30 1358 O 122.043 1.93029 0.334166 0
M  V30 1359 H 120.623 0.341774 -0.664228 0
M  V30 1360 H 123.285 0.204684 -1.93822 0
M  V30 1361 H 122.381 1.51055 -2.7311 0
M  V30 1362 N 122.682 1.50554 0.465978 0
M  V30 1363 C 123.629 1.6979 1.56333 0
M  V30 1364 C 124.599 0.539239 1.57103 0
M  V30 1365 O 125.784 0.770401 1.74555 0
M  V30 1366 C 122.924 1.80273 2.94271 0
M  V30 1367 C 122.037 3.07674 3.0325 0
M  V30 1368 C 121.172 3.08922 4.32135 0
M  V30 1369 C 120.211 4.30755 4.34875 0
M  V30 1370 N 119.348 4.29714 5.55239 0
M  V30 1371 H 124.188 2.63472 1.39235 0
M  V30 1372 H 121.725 1.30602 0.676873 0
M  V30 1373 H 123.683 1.84332 3.74269 0
M  V30 1374 H 122.313 0.900258 3.09992 0
M  V30 1375 H 121.365 3.13062 2.16094 0
M  V30 1376 H 122.677 3.97642 3.01135 0
M  V30 1377 H 121.831 3.11738 5.20485 0
M  V30 1378 H 120.57 2.16792 4.36866 0
M  V30 1379 H 119.575 4.28146 3.44922 0
M  V30 1380 H 120.8 5.24117 4.31831 0
M  V30 1381 H 118.746 3.4044 5.60746 0
M  V30 1382 H 118.663 5.13456 5.54886 0
M  V30 1383 H 119.931 4.36683 6.457 0
M  V30 1384 N 124.16 -0.719506 1.40217 0
M  V30 1385 C 125.437 -1.47221 1.28784 0
M  V30 1386 C 125.817 -2.10883 -0.0956067 0
M  V30 1387 O 125.165 -1.99833 -1.10811 0
M  V30 1388 C 125.375 -2.5111 2.42373 0
M  V30 1389 C 126.723 -3.17053 2.82423 0
M  V30 1390 O 127.747 -2.61429 2.41937 0
M  V30 1391 O 126.606 -4.17742 3.52355 0
M  V30 1392 H 123.7 -0.654491 0.50554 0
M  V30 1393 H 126.246 -0.752014 1.52128 0
M  V30 1394 H 125.018 -2.02556 3.34793 0
M  V30 1395 H 124.641 -3.3067 2.20778 0
M  V30 1396 N 125.638 -1.25649 -0.95132 0
M  V30 1397 C 126.887 -1.09988 -1.69073 0
M  V30 1398 C 127.2 0.358355 -1.92289 0
M  V30 1399 O 128.406 0.635466 -2.63958 0
M  V30 1400 C 126.862 -1.92012 -3.044 0
M  V30 1401 C 126.47 -3.42347 -2.88968 0
M  V30 1402 C 128.214 -1.8493 -3.82101 0
M  V30 1403 C 126.121 -4.16655 -4.19705 0
M  V30 1404 H 125.051 -0.407993 -0.63408 0
M  V30 1405 H 127.702 -1.49873 -1.05879 0
M  V30 1406 H 126.084 -1.44952 -3.68517 0
M  V30 1407 H 127.258 -3.97104 -2.33762 0
M  V30 1408 H 125.573 -3.50557 -2.24719 0
M  V30 1409 H 128.17 -2.37739 -4.78941 0
M  V30 1410 H 128.513 -0.817883 -4.08187 0
M  V30 1411 H 129.046 -2.29758 -3.2474 0
M  V30 1412 H 125.785 -5.20224 -3.98807 0
M  V30 1413 H 125.305 -3.66681 -4.74663 0
M  V30 1414 H 126.984 -4.24551 -4.88227 0
M  V30 1415 N 127.117 1.15442 -1.07289 0
M  V30 1416 C 128.064 2.20161 -0.692653 0
M  V30 1417 C 129.034 1.63073 0.31564 0
M  V30 1418 O 130.219 1.89725 0.202235 0
M  V30 1419 C 127.359 3.44967 -0.0959509 0
M  V30 1420 C 126.472 4.16256 -1.15564 0
M  V30 1421 C 125.607 5.28609 -0.524011 0
M  V30 1422 C 124.646 5.91715 -1.56653 0
M  V30 1423 N 123.783 6.9554 -0.957531 0
M  V30 1424 H 128.623 2.52037 -1.59002 0
M  V30 1425 H 126.16 1.2378 -0.794798 0
M  V30 1426 H 128.118 4.16341 0.267628 0
M  V30 1427 H 126.748 3.1361 0.764772 0
M  V30 1428 H 125.8 3.43385 -1.6368 0
M  V30 1429 H 127.112 4.59268 -1.94613 0
M  V30 1430 H 126.266 6.06604 -0.108032 0
M  V30 1431 H 125.005 4.86787 0.29825 0
M  V30 1432 H 124.01 5.12433 -1.9923 0
M  V30 1433 H 125.235 6.35614 -2.39107 0
M  V30 1434 H 123.181 6.55814 -0.156162 0
M  V30 1435 H 123.098 7.36977 -1.68526 0
M  V30 1436 H 124.366 7.77435 -0.567032 0
M  V30 1437 N 128.595 0.856903 1.32268 0
M  V30 1438 C 129.505 0.306131 2.32594 0
M  V30 1439 C 130.521 -0.577209 1.64147 0
M  V30 1440 O 131.697 -0.477043 1.95669 0
M  V30 1441 C 128.762 -0.494561 3.43154 0
M  V30 1442 C 127.823 0.415186 4.27288 0
M  V30 1443 C 127.056 -0.347387 5.32568 0
M  V30 1444 O 127.279 -1.57708 5.48165 0
M  V30 1445 O 126.213 0.287982 6.01211 0
M  V30 1446 H 130.039 1.13737 2.81598 0
M  V30 1447 H 127.624 0.619902 1.35932 0
M  V30 1448 H 129.506 -0.948944 4.10576 0
M  V30 1449 H 128.181 -1.30257 2.96336 0
M  V30 1450 H 127.088 0.917793 3.62667 0
M  V30 1451 H 128.421 1.18844 4.77637 0
M  V30 1452 N 130.073 -1.45103 0.615059 0
M  V30 1453 C 131.489 -1.57137 0.279322 0
M  V30 1454 C 131.689 -1.60523 -1.21797 0
M  V30 1455 O 130.745 -1.53956 -2.00134 0
M  V30 1456 C 132.058 -2.85062 0.957083 0
M  V30 1457 C 133.606 -2.98749 0.933706 0
M  V30 1458 C 134.081 -4.29455 1.59162 0
M  V30 1459 N 135.572 -4.36231 1.55746 0
M  V30 1460 C 136.307 -5.36051 2.0356 0
M  V30 1461 N 135.803 -6.42367 2.59494 0
M  V30 1462 N 137.596 -5.27456 1.94284 0
M  V30 1463 H 129.747 -1.41148 1.58717 0
M  V30 1464 H 132.01 -0.675331 0.665306 0
M  V30 1465 H 131.716 -2.88488 2.01166 0
M  V30 1466 H 131.59 -3.7407 0.48494 0
M  V30 1467 H 133.977 -2.94886 -0.112347 0
M  V30 1468 H 134.058 -2.11132 1.44419 0
M  V30 1469 H 133.702 -4.34077 2.63704 0
M  V30 1470 H 133.632 -5.15901 1.0561 0
M  V30 1471 H 136.123 -3.60011 1.14893 0
M  V30 1472 H 136.436 -7.14793 2.93752 0
M  V30 1473 H 134.781 -6.43097 2.63537 0
M  V30 1474 H 137.972 -4.43308 1.5032 0
M  V30 1475 H 138.145 -6.05099 2.3186 0
M  V30 1476 N 131.551 -0.354651 -1.53558 0
M  V30 1477 C 132.514 0.484566 -2.24019 0
M  V30 1478 C 133.514 1.01861 -1.24422 0
M  V30 1479 O 134.704 0.906097 -1.4878 0
M  V30 1480 C 131.836 1.67615 -2.96847 0
M  V30 1481 H 133.029 -0.131843 -2.9961 0
M  V30 1482 H 130.582 -0.106165 -1.55939 0
M  V30 1483 H 131.317 2.33095 -2.25471 0
M  V30 1484 H 131.102 1.30029 -3.69912 0
M  V30 1485 H 132.592 2.27114 -3.50441 0
M  V30 1486 N 133.029 1.57378 -0.0835403 0
M  V30 1487 C 133.959 2.1641 0.87686 0
M  V30 1488 C 134.94 1.09429 1.30228 0
M  V30 1489 O 136.125 1.37516 1.37124 0
M  V30 1490 C 133.255 2.73517 2.14022 0
M  V30 1491 C 132.209 3.85769 1.85381 0
M  V30 1492 C 131.535 4.29529 3.18448 0
M  V30 1493 C 132.835 5.09486 1.14984 0
M  V30 1494 H 134.529 2.96914 0.385059 0
M  V30 1495 H 132.075 1.42823 0.18377 0
M  V30 1496 H 134.028 3.13463 2.81636 0
M  V30 1497 H 132.752 1.90252 2.65465 0
M  V30 1498 H 131.411 3.46345 1.20169 0
M  V30 1499 H 131.059 3.43169 3.67755 0
M  V30 1500 H 130.759 5.05204 3.00071 0
M  V30 1501 H 132.283 4.72099 3.8724 0
M  V30 1502 H 133.697 5.46674 1.72687 0
M  V30 1503 H 132.094 5.90515 1.06826 0
M  V30 1504 H 133.164 4.84724 0.130749 0
M  V30 1505 N 134.507 -0.190092 1.56449 0
M  V30 1506 C 135.756 -0.907912 1.80111 0
M  V30 1507 C 136.069 -1.84214 0.657619 0
M  V30 1508 O 137.275 -2.60094 0.778663 0
M  V30 1509 C 135.731 -1.66485 3.19078 0
M  V30 1510 C 135.339 -0.7752 4.41242 0
M  V30 1511 C 137.083 -2.37201 3.52045 0
M  V30 1512 C 134.99 -1.53129 5.71231 0
M  V30 1513 H 133.92 -0.34276 0.671589 0
M  V30 1514 H 136.571 -0.161109 1.82791 0
M  V30 1515 H 134.953 -2.45572 3.10661 0
M  V30 1516 H 136.127 -0.0226298 4.60794 0
M  V30 1517 H 134.442 -0.178627 4.16017 0
M  V30 1518 H 137.039 -2.94329 4.46402 0
M  V30 1519 H 137.382 -3.11632 2.76028 0
M  V30 1520 H 137.915 -1.65075 3.61932 0
M  V30 1521 H 134.654 -0.82967 6.50228 0
M  V30 1522 H 134.174 -2.25767 5.55688 0
M  V30 1523 H 135.853 -2.08377 6.12526 0
M  V30 1524 N 135.985 -1.50799 -0.457987 0
M  V30 1525 C 137.262 -1.52968 -1.21902 0
M  V30 1526 C 137.642 -0.281906 -2.09209 0
M  V30 1527 O 136.99 0.734076 -2.16388 0
M  V30 1528 C 137.2 -2.8326 -2.03875 0
M  V30 1529 C 138.548 -3.34425 -2.6162 0
M  V30 1530 O 139.572 -2.8467 -2.14106 0
M  V30 1531 O 138.431 -4.21188 -3.48228 0
M  V30 1532 H 135.525 -0.614129 -0.553873 0
M  V30 1533 H 138.071 -1.63098 -0.468739 0
M  V30 1534 H 136.843 -3.65543 -1.39621 0
M  V30 1535 H 136.466 -2.76195 -2.8601 0
M  V30 1536 N 137.463 0.71206 -1.40597 0
M  V30 1537 C 138.396 1.83582 -1.35546 0
M  V30 1538 C 139.374 1.61032 -0.225284 0
M  V30 1539 O 140.558 1.83998 -0.409519 0
M  V30 1540 C 137.685 3.19983 -1.11034 0
M  V30 1541 C 136.731 3.61355 -2.2655 0
M  V30 1542 S 137.564 3.68062 -3.88961 0
M  V30 1543 C 138.72 5.07216 -3.66719 0
M  V30 1544 H 138.953 1.87586 -2.30648 0
M  V30 1545 H 136.486 0.879182 -1.26924 0
M  V30 1546 H 138.444 3.98734 -0.975761 0
M  V30 1547 H 137.105 3.13608 -0.175798 0
M  V30 1548 H 136.298 4.60403 -2.0505 0
M  V30 1549 H 135.9 2.8987 -2.36329 0
M  V30 1550 H 138.192 5.94238 -3.25404 0
M  V30 1551 H 139.135 5.33753 -4.6531 0
M  V30 1552 H 139.543 4.77976 -3.00332 0
M  V30 1553 N 138.941 1.26152 0.944643 0
M  V30 1554 C 140.171 1.14094 1.72239 0
M  V30 1555 C 140.579 -0.306931 1.86694 0
M  V30 1556 O 139.922 -1.22222 1.3714 0
M  V30 1557 C 139.984 1.73316 3.14963 0
M  V30 1558 C 139.648 3.2239 3.23904 0
M  V30 1559 C 140.645 4.19252 3.07447 0
M  V30 1560 C 138.33 3.62788 3.47405 0
M  V30 1561 C 140.324 5.54491 3.14353 0
M  V30 1562 C 138.011 4.98162 3.53947 0
M  V30 1563 C 139.009 5.93823 3.37436 0
M  V30 1564 O 138.697 7.26732 3.43679 0
M  V30 1565 H 138.429 0.398292 0.546205 0
M  V30 1566 H 140.983 1.67201 1.19301 0
M  V30 1567 H 139.213 1.14667 3.69308 0
M  V30 1568 H 140.902 1.56214 3.74636 0
M  V30 1569 H 141.668 3.8938 2.8915 0
M  V30 1570 H 137.547 2.88816 3.59313 0
M  V30 1571 H 141.091 6.29137 3.01384 0
M  V30 1572 H 136.988 5.27695 3.71763 0
M  V30 1573 H 137.756 7.3496 3.60245 0
M  V30 1574 N 140.419 -1.14872 1.07899 0
M  V30 1575 C 141.668 -1.85135 0.800499 0
M  V30 1576 C 141.981 -1.83547 -0.676014 0
M  V30 1577 O 143.187 -2.49548 -1.06948 0
M  V30 1578 C 141.643 -3.3231 1.38197 0
M  V30 1579 C 141.251 -3.42329 2.8899 0
M  V30 1580 C 142.995 -4.0772 1.18174 0
M  V30 1581 C 140.902 -4.83684 3.403 0
M  V30 1582 H 139.832 -0.693563 0.29578 0
M  V30 1583 H 142.483 -1.29532 1.29976 0
M  V30 1584 H 140.865 -3.87618 0.810431 0
M  V30 1585 H 142.039 -2.97097 3.52236 0
M  V30 1586 H 140.354 -2.80369 3.07867 0
M  V30 1587 H 142.951 -5.12049 1.5398 0
M  V30 1588 H 143.294 -4.16124 0.12117 0
M  V30 1589 H 143.827 -3.58696 1.71994 0
M  V30 1590 H 140.566 -4.80465 4.45907 0
M  V30 1591 H 140.086 -5.29474 2.81811 0
M  V30 1592 H 141.765 -5.52558 3.36584 0
M  V30 1593 N 141.898 -0.863906 -1.31812 0
M  V30 1594 C 142.808 -0.318461 -2.32428 0
M  V30 1595 C 143.824 0.568496 -1.64451 0
M  V30 1596 O 145 0.46666 -1.95919 0
M  V30 1597 C 142.065 0.476355 -3.43412 0
M  V30 1598 C 141.126 -0.43784 -4.27061 0
M  V30 1599 C 140.359 0.319138 -5.32745 0
M  V30 1600 O 140.582 1.54799 -5.48993 0
M  V30 1601 O 139.516 -0.319861 -6.01049 0
M  V30 1602 H 143.342 -1.15229 -2.80991 0
M  V30 1603 H 140.927 -0.627103 -1.35602 0
M  V30 1604 H 142.809 0.927156 -4.11074 0
M  V30 1605 H 141.484 1.28683 -2.97022 0
M  V30 1606 H 140.391 -0.937013 -3.62175 0
M  V30 1607 H 141.724 -1.21375 -4.77 0
M  V30 1608 N 143.376 1.44774 -0.622745 0
M  V30 1609 C 144.624 2.01721 -0.123655 0
M  V30 1610 C 144.945 1.49172 1.25589 0
M  V30 1611 O 144.215 0.691974 1.83272 0
M  V30 1612 H 142.795 0.745777 -0.0427225 0
M  V30 1613 H 145.457 1.77382 -0.807559 0
M  V30 1614 H 144.553 3.11984 -0.0849534 0
M  V30 1615 N 144.854 0.36279 1.53368 0
M  V30 1616 C 146.103 -0.22888 2.00397 0
M  V30 1617 C 146.416 -1.50096 1.25421 0
M  V30 1618 O 147.622 -2.17106 1.63025 0
M  V30 1619 C 146.078 -0.458417 3.56969 0
M  V30 1620 C 145.686 0.798877 4.4082 0
M  V30 1621 C 147.43 -1.00789 4.12361 0
M  V30 1622 C 145.337 0.539078 5.88938 0
M  V30 1623 H 144.267 -0.089305 0.748693 0
M  V30 1624 H 146.918 0.481099 1.77081 0
M  V30 1625 H 145.3 -1.22959 3.76427 0
M  V30 1626 H 146.474 1.57262 4.33134 0
M  V30 1627 H 144.789 1.27137 3.96516 0
M  V30 1628 H 147.386 -1.21754 5.20653 0
M  V30 1629 H 147.729 -1.9692 3.66781 0
M  V30 1630 H 148.262 -0.296961 3.9669 0
M  V30 1631 H 145.001 1.47064 6.3879 0
M  V30 1632 H 144.521 -0.196222 5.99479 0
M  V30 1633 H 146.2 0.163542 6.46793 0
M  V30 1634 N 146.332 -1.57332 0.0918853 0
M  V30 1635 C 147.295 -2.12708 -0.85369 0
M  V30 1636 C 148.295 -1.05561 -1.213 0
M  V30 1637 O 149.485 -1.31461 -1.14296 0
M  V30 1638 C 146.617 -2.64503 -2.15061 0
M  V30 1639 H 147.81 -2.97573 -0.3729 0
M  V30 1640 H 145.363 -1.55509 -0.157072 0
M  V30 1641 H 146.098 -1.83149 -2.67632 0
M  V30 1642 H 145.883 -3.4284 -1.90272 0
M  V30 1643 H 147.373 -3.07351 -2.82711 0
M  V30 1644 N 147.81 0.181792 -1.56548 0
M  V30 1645 C 149.087 0.926765 -1.72251 0
M  V30 1646 C 149.467 2.00831 -0.650386 0
M  V30 1647 O 148.815 2.26008 0.336521 0
M  V30 1648 C 149.025 1.50106 -3.1507 0
M  V30 1649 C 150.373 1.97805 -3.75711 0
M  V30 1650 O 151.397 1.59922 -3.18282 0
M  V30 1651 O 150.256 2.67555 -4.76525 0
M  V30 1652 H 147.35 0.435506 -0.703039 0
M  V30 1653 H 149.896 0.170443 -1.68842 0
M  V30 1654 H 148.668 0.72212 -3.84579 0
M  V30 1655 H 148.291 2.32186 -3.22763 0
M  V30 1656 N 149.288 1.51039 0.449983 0
M  V30 1657 C 150.218 1.74379 1.55288 0
M  V30 1658 C 151.199 0.593236 1.5942 0
M  V30 1659 O 152.384 0.834625 1.7535 0
M  V30 1660 C 149.514 1.85728 2.93466 0
M  V30 1661 C 148.468 3.01078 3.04197 0
M  V30 1662 C 147.794 2.97595 4.44231 0
M  V30 1663 C 149.094 4.41254 2.7945 0
M  V30 1664 H 150.788 2.66725 1.36008 0
M  V30 1665 H 148.334 1.2835 0.652864 0
M  V30 1666 H 150.287 2.0064 3.70569 0
M  V30 1667 H 149.011 0.900207 3.13949 0
M  V30 1668 H 147.67 2.85851 2.29531 0
M  V30 1669 H 147.318 1.99691 4.61663 0
M  V30 1670 H 147.018 3.75046 4.52343 0
M  V30 1671 H 148.542 3.14583 5.23326 0
M  V30 1672 H 149.956 4.56897 3.46292 0
M  V30 1673 H 148.353 5.20315 2.98985 0
M  V30 1674 H 149.423 4.52164 1.75144 0
M  V30 1675 N 150.766 -0.704594 1.40972 0
M  V30 1676 C 152.014 -1.46169 1.39568 0
M  V30 1677 C 152.335 -1.95 0.00253745 0
M  V30 1678 O 151.605 -1.71095 -0.954114 0
M  V30 1679 H 150.185 -0.542326 0.513704 0
M  V30 1680 H 152.847 -0.834553 1.76128 0
M  V30 1681 H 151.943 -2.32922 2.07735 0
M  V30 1682 N 152.244 -1.26651 -0.937939 0
M  V30 1683 C 153.154 -1.10276 -2.07066 0
M  V30 1684 C 154.17 -0.0354197 -1.73964 0
M  V30 1685 O 155.346 -0.239816 -1.99967 0
M  V30 1686 C 152.411 -0.740887 -3.38691 0
M  V30 1687 C 151.472 -1.88799 -3.85556 0
M  V30 1688 C 150.705 -1.54329 -5.10899 0
M  V30 1689 O 150.928 -0.446494 -5.6865 0
M  V30 1690 O 149.862 -2.37911 -5.52885 0
M  V30 1691 H 153.688 -2.05309 -2.23789 0
M  V30 1692 H 151.273 -1.05743 -1.0554 0
M  V30 1693 H 153.155 -0.55195 -4.1777 0
M  V30 1694 H 151.83 0.180022 -3.23199 0
M  V30 1695 H 150.737 -2.13191 -3.07409 0
M  V30 1696 H 152.07 -2.78874 -4.05574 0
M  V30 1697 N 153.722 1.14298 -1.08507 0
M  V30 1698 C 154.655 2.18447 -0.660004 0
M  V30 1699 C 155.633 1.59242 0.328749 0
M  V30 1700 O 156.817 1.87062 0.232367 0
M  V30 1701 C 153.944 3.38688 0.0290807 0
M  V30 1702 C 152.99 4.1646 -0.919982 0
M  V30 1703 S 153.823 4.77334 -2.42718 0
M  V30 1704 C 154.979 6.00931 -1.75024 0
M  V30 1705 H 155.212 2.54166 -1.54231 0
M  V30 1706 H 152.745 1.25446 -0.900149 0
M  V30 1707 H 154.703 4.08342 0.420378 0
M  V30 1708 H 153.364 3.01289 0.887895 0
M  V30 1709 H 152.557 5.02529 -0.384751 0
M  V30 1710 H 152.159 3.52414 -1.25223 0
M  V30 1711 H 154.451 6.69017 -1.06877 0
M  V30 1712 H 155.394 6.59044 -2.58971 0
M  V30 1713 H 155.802 5.51089 -1.22317 0
M  V30 1714 N 155.201 0.870884 1.31352 0
M  V30 1715 C 156.45 0.478408 1.95944 0
M  V30 1716 C 156.763 -0.974493 1.69597 0
M  V30 1717 O 157.969 -1.47316 2.28058 0
M  V30 1718 C 156.425 0.804609 3.50791 0
M  V30 1719 C 156.033 2.27433 3.85977 0
M  V30 1720 C 157.777 0.480648 4.2177 0
M  V30 1721 C 155.684 2.5429 5.33939 0
M  V30 1722 H 154.614 0.175175 0.733369 0
M  V30 1723 H 157.265 1.06391 1.4951 0
M  V30 1724 H 155.647 0.148347 3.95722 0
M  V30 1725 H 156.821 2.97373 3.52002 0
M  V30 1726 H 155.136 2.56442 3.28065 0
M  V30 1727 H 157.733 0.658519 5.30629 0
M  V30 1728 H 158.076 -0.578979 4.12254 0
M  V30 1729 H 158.609 1.09349 3.82476 0
M  V30 1730 H 155.348 3.58939 5.48491 0
M  V30 1731 H 154.868 1.88945 5.69263 0
M  V30 1732 H 156.547 2.39066 6.01212 0
M  V30 1733 N 156.679 -1.44442 0.630414 0
M  V30 1734 C 157.609 -2.33418 -0.0618083 0
M  V30 1735 C 158.59 -1.48165 -0.835541 0
M  V30 1736 O 159.775 -1.76886 -0.801564 0
M  V30 1737 C 156.905 -3.31222 -1.04449 0
M  V30 1738 C 155.859 -4.26288 -0.382436 0
M  V30 1739 C 155.185 -5.13954 -1.47497 0
M  V30 1740 C 156.485 -5.1744 0.710865 0
M  V30 1741 H 158.179 -2.91548 0.681184 0
M  V30 1742 H 155.725 -1.40191 0.329026 0
M  V30 1743 H 157.678 -3.92351 -1.53748 0
M  V30 1744 H 156.402 -2.71299 -1.81836 0
M  V30 1745 H 155.061 -3.6649 0.0899054 0
M  V30 1746 H 154.709 -4.50385 -2.2397 0
M  V30 1747 H 154.409 -5.7837 -1.03737 0
M  V30 1748 H 155.933 -5.77955 -1.96979 0
M  V30 1749 H 157.347 -5.72509 0.300996 0
M  V30 1750 H 155.744 -5.90455 1.07156 0
M  V30 1751 H 156.814 -4.58496 1.57829 0
M  V30 1752 N 158.157 -0.370918 -1.53173 0
M  V30 1753 C 159.087 0.464847 -2.28826 0
M  V30 1754 C 160.068 1.07936 -1.31468 0
M  V30 1755 O 161.253 1.0956 -1.60344 0
M  V30 1756 C 158.383 1.60196 -3.08147 0
M  V30 1757 C 157.337 1.11443 -4.13237 0
M  V30 1758 C 156.663 2.3422 -4.80672 0
M  V30 1759 C 157.963 0.195384 -5.21934 0
M  V30 1760 H 159.657 -0.166329 -2.98938 0
M  V30 1761 H 157.203 -0.0814359 -1.4377 0
M  V30 1762 H 159.156 2.19332 -3.59822 0
M  V30 1763 H 157.88 2.26045 -2.35735 0
M  V30 1764 H 156.539 0.545727 -3.62515 0
M  V30 1765 H 156.187 2.98537 -4.04827 0
M  V30 1766 H 155.887 2.02269 -5.51689 0
M  V30 1767 H 157.411 2.94032 -5.35143 0
M  V30 1768 H 158.825 0.694375 -5.69079 0
M  V30 1769 H 157.222 -0.0335027 -6.00091 0
M  V30 1770 H 158.292 -0.760961 -4.78892 0
M  V30 1771 N 159.635 1.57281 -0.100228 0
M  V30 1772 C 160.565 2.17328 0.853857 0
M  V30 1773 C 161.546 1.10804 1.2906 0
M  V30 1774 O 162.731 1.38963 1.35657 0
M  V30 1775 C 159.861 2.75772 2.11109 0
M  V30 1776 C 158.815 3.87713 1.81279 0
M  V30 1777 C 158.141 4.32882 3.13874 0
M  V30 1778 C 159.441 5.10677 1.09574 0
M  V30 1779 H 161.135 2.97305 0.353545 0
M  V30 1780 H 158.681 1.43009 0.168612 0
M  V30 1781 H 160.634 3.16433 2.78296 0
M  V30 1782 H 159.358 1.93057 2.63432 0
M  V30 1783 H 158.017 3.476 1.16489 0
M  V30 1784 H 157.665 3.47051 3.64095 0
M  V30 1785 H 157.365 5.08358 2.94696 0
M  V30 1786 H 158.889 4.7618 3.82211 0
M  V30 1787 H 160.303 5.48474 1.66879 0
M  V30 1788 H 158.7 5.91615 1.00557 0
M  V30 1789 H 159.77 4.84835 0.0793299 0
M  V30 1790 N 161.113 -0.173488 1.56642 0
M  V30 1791 C 162.524 -0.736155 1.71574 0
M  V30 1792 C 162.875 -1.82888 0.710389 0
M  V30 1793 O 162 -2.16017 -0.1287 0
M  V30 1794 C 162.595 -1.34211 3.11083 0
M  V30 1795 C 161.154 -1.85162 3.27707 0
M  V30 1796 C 160.301 -0.729765 2.67525 0
M  V30 1797 H 163.252 0.0518786 1.58615 0
M  V30 1798 H 163.273 -2.21178 3.09613 0
M  V30 1799 H 162.785 -0.546579 3.84232 0
M  V30 1800 H 160.886 -2.67366 2.59512 0
M  V30 1801 H 160.999 -1.99855 4.35425 0
M  V30 1802 H 159.363 -1.14965 2.27278 0
M  V30 1803 H 160.146 0.0538806 3.43258 0
M  V30 1804 N 162.591 -1.51276 -0.441967 0
M  V30 1805 C 163.837 -1.63958 -1.19355 0
M  V30 1806 C 164.17 -0.352543 -1.90973 0
M  V30 1807 O 163.445 0.647627 -1.83401 0
M  V30 1808 C 163.728 -2.83979 -2.21422 0
M  V30 1809 C 163.581 -4.22646 -1.53918 0
M  V30 1810 C 164.9 -2.99521 -3.22451 0
M  V30 1811 H 162.019 -0.596709 -0.432559 0
M  V30 1812 H 164.661 -1.83748 -0.483398 0
M  V30 1813 H 162.811 -2.67237 -2.81987 0
M  V30 1814 H 164.483 -4.51045 -0.967256 0
M  V30 1815 H 162.726 -4.25558 -0.841615 0
M  V30 1816 H 163.397 -5.02609 -2.28229 0
M  V30 1817 H 165.873 -3.14944 -2.71937 0
M  V30 1818 H 164.749 -3.85072 -3.91166 0
M  V30 1819 H 165.01 -2.11391 -3.88287 0
M  V30 1820 N 164.069 0.697108 -1.41344 0
M  V30 1821 C 165.309 1.46939 -1.42085 0
M  V30 1822 C 165.673 1.9198 -0.0280397 0
M  V30 1823 O 166.874 2.6865 0.0897504 0
M  V30 1824 C 165.145 2.64985 -2.39828 0
M  V30 1825 S 166.704 3.54147 -2.59085 0
M  V30 1826 H 163.522 0.502146 -0.503359 0
M  V30 1827 H 166.124 0.813546 -1.77769 0
M  V30 1828 H 164.828 2.30098 -3.39828 0
M  V30 1829 H 164.359 3.35464 -2.05493 0
M  V30 1830 H 166.374 4.60137 -1.85711 0
M  V30 1831 N 165.547 1.27147 0.931209 0
M  V30 1832 C 166.958 1.12044 1.49342 0
M  V30 1833 C 167.309 -0.295795 1.93957 0
M  V30 1834 O 166.434 -1.18835 1.80852 0
M  V30 1835 C 167.029 2.02781 2.71414 0
M  V30 1836 C 165.588 1.91794 3.2387 0
M  V30 1837 C 164.735 1.95543 1.96617 0
M  V30 1838 H 167.686 1.40091 0.745672 0
M  V30 1839 H 167.707 1.58156 3.46074 0
M  V30 1840 H 167.219 3.05848 2.38911 0
M  V30 1841 H 165.32 0.916992 3.6114 0
M  V30 1842 H 165.433 2.77852 3.90302 0
M  V30 1843 H 163.797 1.39722 2.12955 0
M  V30 1844 H 164.58 3.00259 1.66432 0
M  V30 1845 N 167.025 -1.13721 1.09112 0
M  V30 1846 C 168.436 -1.6648 0.845068 0
M  V30 1847 C 168.787 -1.85911 -0.62701 0
M  V30 1848 O 167.912 -1.57556 -1.48341 0
M  V30 1849 C 168.507 -3.02413 1.52748 0
M  V30 1850 C 167.066 -3.52176 1.32849 0
M  V30 1851 C 166.213 -2.27492 1.58564 0
M  V30 1852 H 169.164 -0.976872 1.25072 0
M  V30 1853 H 169.185 -3.68223 0.958752 0
M  V30 1854 H 168.697 -2.88238 2.59885 0
M  V30 1855 H 166.798 -3.7156 0.278137 0
M  V30 1856 H 166.911 -4.32499 2.0611 0
M  V30 1857 H 165.275 -2.33923 1.00758 0
M  V30 1858 H 166.058 -2.15886 2.66924 0
M  V30 1859 N 168.503 -0.877838 -1.30888 0
M  V30 1860 C 169.413 -0.343096 -2.32078 0
M  V30 1861 C 170.429 0.551022 -1.65045 0
M  V30 1862 O 171.605 0.445854 -1.96403 0
M  V30 1863 C 168.67 0.439905 -3.43898 0
M  V30 1864 C 167.731 -0.483111 -4.26573 0
M  V30 1865 C 166.964 0.262616 -5.33053 0
M  V30 1866 O 167.187 1.48967 -5.50604 0
M  V30 1867 O 166.121 -0.383593 -6.00676 0
M  V30 1868 H 169.947 -1.18203 -2.79753 0
M  V30 1869 H 167.532 -0.64145 -1.34929 0
M  V30 1870 H 169.414 0.883504 -4.12034 0
M  V30 1871 H 168.089 1.25526 -2.98371 0
M  V30 1872 H 166.996 -0.975374 -3.61161 0
M  V30 1873 H 168.329 -1.26427 -4.75686 0
M  V30 1874 N 169.982 1.44106 -0.638065 0
M  V30 1875 C 170.892 2.34513 0.0637334 0
M  V30 1876 C 171.908 1.53018 0.828346 0
M  V30 1877 O 173.084 1.85723 0.779036 0
M  V30 1878 C 170.149 3.31095 1.02844 0
M  V30 1879 C 169.21 4.28497 0.26244 0
M  V30 1880 C 168.443 5.20465 1.1812 0
M  V30 1881 O 168.666 5.16514 2.42011 0
M  V30 1882 O 167.6 5.98251 0.661774 0
M  V30 1883 H 171.426 2.95989 -0.68003 0
M  V30 1884 H 169.011 1.43994 -0.398252 0
M  V30 1885 H 170.893 3.90526 1.58327 0
M  V30 1886 H 169.568 2.72144 1.7527 0
M  V30 1887 H 168.475 3.72592 -0.335602 0
M  V30 1888 H 169.808 4.90388 -0.421936 0
M  V30 1889 N 171.46 0.379036 1.52974 0
M  V30 1890 C 172.407 -0.461048 2.26148 0
M  V30 1891 C 173.377 -1.06637 1.27349 0
M  V30 1892 O 174.562 -1.09633 1.56157 0
M  V30 1893 C 171.702 -1.58782 3.06402 0
M  V30 1894 C 170.815 -1.00636 4.20115 0
M  V30 1895 C 169.95 -2.10334 4.87784 0
M  V30 1896 C 168.989 -1.49724 5.93506 0
M  V30 1897 N 168.126 -2.5331 6.54812 0
M  V30 1898 H 172.966 0.169429 2.97518 0
M  V30 1899 H 170.503 0.0953806 1.4679 0
M  V30 1900 H 172.461 -2.25174 3.51215 0
M  V30 1901 H 171.091 -2.18876 2.37261 0
M  V30 1902 H 170.143 -0.232332 3.7969 0
M  V30 1903 H 171.455 -0.523343 4.96047 0
M  V30 1904 H 170.609 -2.84519 5.35849 0
M  V30 1905 H 169.348 -2.61992 4.11353 0
M  V30 1906 H 168.353 -0.740598 5.44789 0
M  V30 1907 H 169.578 -0.988732 6.71864 0
M  V30 1908 H 167.524 -3.04156 5.81227 0
M  V30 1909 H 167.441 -2.09734 7.26325 0
M  V30 1910 H 168.709 -3.27155 7.07524 0
M  V30 1911 N 172.938 -1.57226 0.108567 0
M  V30 1912 C 174.215 -1.86333 -0.594939 0
M  V30 1913 C 174.595 -1.00788 -1.85486 0
M  V30 1914 O 173.943 -0.0839293 -2.28346 0
M  V30 1915 C 174.153 -3.37265 -0.897405 0
M  V30 1916 C 175.501 -4.05629 -1.25501 0
M  V30 1917 O 176.525 -3.42224 -0.987998 0
M  V30 1918 O 175.384 -5.17531 -1.75567 0
M  V30 1919 H 172.478 -0.771018 -0.2991 0
M  V30 1920 H 175.024 -1.69102 0.142283 0
M  V30 1921 H 173.796 -3.913 -0.00413806 0
M  V30 1922 H 173.419 -3.59889 -1.69014 0
M  V30 1923 N 174.416 0.165178 -1.56732 0
M  V30 1924 C 175.379 1.18822 -1.95995 0
M  V30 1925 C 176.379 1.3685 -0.84431 0
M  V30 1926 O 177.569 1.34152 -1.11126 0
M  V30 1927 C 174.701 2.5521 -2.26011 0
M  V30 1928 H 175.894 0.851825 -2.87548 0
M  V30 1929 H 173.447 0.407857 -1.50885 0
M  V30 1930 H 174.182 2.93852 -1.37191 0
M  V30 1931 H 173.967 2.43489 -3.07336 0
M  V30 1932 H 175.457 3.28927 -2.57288 0
M  V30 1933 N 175.894 1.51508 0.433938 0
M  V30 1934 C 176.841 1.73068 1.52696 0
M  V30 1935 C 177.811 0.572441 1.55924 0
M  V30 1936 O 178.996 0.807253 1.72882 0
M  V30 1937 C 176.136 1.86474 2.90381 0
M  V30 1938 C 175.249 3.14037 2.96656 0
M  V30 1939 C 174.384 3.18019 4.25485 0
M  V30 1940 C 173.423 4.39882 4.2564 0
M  V30 1941 N 172.56 4.41394 5.45999 0
M  V30 1942 H 177.4 2.66366 1.33615 0
M  V30 1943 H 174.937 1.32008 0.649018 0
M  V30 1944 H 176.895 1.92229 3.70275 0
M  V30 1945 H 175.525 0.965809 3.08013 0
M  V30 1946 H 174.577 3.17575 2.09404 0
M  V30 1947 H 175.889 4.0394 2.92633 0
M  V30 1948 H 175.043 3.22708 5.13755 0
M  V30 1949 H 173.782 2.2601 4.3217 0
M  V30 1950 H 172.787 4.35366 3.35763 0
M  V30 1951 H 174.012 5.33159 4.20617 0
M  V30 1952 H 171.958 3.52258 5.53399 0
M  V30 1953 H 171.875 5.25111 5.4387 0
M  V30 1954 H 173.143 4.50281 6.36292 0
M  V30 1955 N 177.372 -0.689602 1.41712 0
M  V30 1956 C 178.302 -1.81577 1.46806 0
M  V30 1957 C 179.283 -1.66945 0.326105 0
M  V30 1958 O 180.468 -1.86588 0.538377 0
M  V30 1959 C 177.598 -3.19762 1.35535 0
M  V30 1960 C 176.552 -3.49107 2.47605 0
M  V30 1961 C 175.878 -4.86711 2.21397 0
M  V30 1962 C 177.178 -3.47483 3.89939 0
M  V30 1963 H 178.872 -1.7757 2.41058 0
M  V30 1964 H 176.418 -0.852887 1.16025 0
M  V30 1965 H 178.371 -3.98263 1.3771 0
M  V30 1966 H 177.095 -3.24409 0.377708 0
M  V30 1967 H 175.754 -2.72959 2.44722 0
M  V30 1968 H 175.402 -4.8799 1.21961 0
M  V30 1969 H 175.102 -5.0731 2.96497 0
M  V30 1970 H 176.626 -5.67515 2.25297 0
M  V30 1971 H 178.04 -4.1598 3.94505 0
M  V30 1972 H 176.437 -3.79615 4.64771 0
M  V30 1973 H 177.507 -2.46341 4.17665 0
M  V30 1974 N 178.85 -1.27639 -0.924453 0
M  V30 1975 C 179.813 -1.10681 -2.00705 0
M  V30 1976 C 180.813 -0.0497823 -1.60723 0
M  V30 1977 O 182.003 -0.294654 -1.7169 0
M  V30 1978 C 179.135 -0.687164 -3.33902 0
M  V30 1979 H 180.328 -2.06817 -2.17179 0
M  V30 1980 H 177.881 -1.10473 -1.10569 0
M  V30 1981 H 178.616 0.275439 -3.23128 0
M  V30 1982 H 178.401 -1.45061 -3.6428 0
M  V30 1983 H 179.891 -0.590853 -4.13399 0
M  V30 1984 N 180.328 1.1314 -1.09713 0
M  V30 1985 C 181.258 2.20748 -0.761102 0
M  V30 1986 C 182.239 1.68061 0.262566 0
M  V30 1987 O 183.424 1.93765 0.129977 0
M  V30 1988 C 180.554 3.46812 -0.184054 0
M  V30 1989 C 179.508 4.12606 -1.13757 0
M  V30 1990 C 178.834 5.33031 -0.422083 0
M  V30 1991 C 180.134 4.59603 -2.48118 0
M  V30 1992 H 181.828 2.49113 -1.66082 0
M  V30 1993 H 179.374 1.19734 -0.799987 0
M  V30 1994 H 181.327 4.21353 0.0631215 0
M  V30 1995 H 180.051 3.17851 0.750868 0
M  V30 1996 H 178.71 3.40036 -1.37007 0
M  V30 1997 H 178.358 5.00335 0.517072 0
M  V30 1998 H 178.058 5.77999 -1.05788 0
M  V30 1999 H 179.582 6.10325 -0.183277 0
M  V30 2000 H 180.996 5.25552 -2.29059 0
M  V30 2001 H 179.393 5.15321 -3.07514 0
M  V30 2002 H 180.463 3.73971 -3.08665 0
M  V30 2003 N 181.806 0.884767 1.30421 0
M  V30 2004 C 183.055 0.499164 1.95426 0
M  V30 2005 C 183.368 -0.95645 1.70621 0
M  V30 2006 O 184.574 -1.44889 2.29607 0
M  V30 2007 C 183.03 0.84177 3.49917 0
M  V30 2008 C 182.638 2.31514 3.83543 0
M  V30 2009 C 184.382 0.525355 4.21237 0
M  V30 2010 C 182.289 2.59939 5.31212 0
M  V30 2011 H 181.219 0.182944 0.73147 0
M  V30 2012 H 183.87 1.07971 1.48373 0
M  V30 2013 H 182.252 0.190311 3.95542 0
M  V30 2014 H 183.426 3.0109 3.48829 0
M  V30 2015 H 181.741 2.59907 3.25326 0
M  V30 2016 H 184.338 0.714762 5.29901 0
M  V30 2017 H 184.681 -0.535222 4.12845 0
M  V30 2018 H 185.214 1.134 3.81294 0
M  V30 2019 H 181.953 3.64736 5.44654 0
M  V30 2020 H 181.473 1.94972 5.67227 0
M  V30 2021 H 183.152 2.45429 5.98643 0
M  V30 2022 N 183.284 -1.43765 0.645699 0
M  V30 2023 C 184.231 -2.30745 -0.0504648 0
M  V30 2024 C 185.201 -1.4432 -0.822241 0
M  V30 2025 O 186.386 -1.73202 -0.800358 0
M  V30 2026 C 183.526 -3.29802 -1.0161 0
M  V30 2027 C 182.639 -4.31326 -0.241219 0
M  V30 2028 C 181.774 -5.17469 -1.19998 0
M  V30 2029 C 180.813 -6.10691 -0.415094 0
M  V30 2030 N 179.95 -6.89483 -1.32506 0
M  V30 2031 H 184.79 -2.8973 0.697155 0
M  V30 2032 H 182.327 -1.42738 0.355563 0
M  V30 2033 H 184.285 -3.85734 -1.58949 0
M  V30 2034 H 182.915 -2.72483 -1.73069 0
M  V30 2035 H 181.967 -3.77749 0.448334 0
M  V30 2036 H 183.279 -4.9743 0.369437 0
M  V30 2037 H 182.433 -5.7799 -1.84424 0
M  V30 2038 H 181.172 -4.51473 -1.84455 0
M  V30 2039 H 180.177 -5.49265 0.242565 0
M  V30 2040 H 181.402 -6.78727 0.224966 0
M  V30 2041 H 179.348 -6.26142 -1.95657 0
M  V30 2042 H 179.265 -7.52081 -0.768783 0
M  V30 2043 H 180.533 -7.54516 -1.9577 0
M  V30 2044 N 184.763 -0.387143 -1.52771 0
M  V30 2045 C 185.673 0.456442 -2.30117 0
M  V30 2046 C 186.689 1.07342 -1.36944 0
M  V30 2047 O 187.865 1.07971 -1.70013 0
M  V30 2048 C 184.93 1.56957 -3.09136 0
M  V30 2049 C 183.991 0.977916 -4.18014 0
M  V30 2050 C 183.224 2.038 -4.93256 0
M  V30 2051 O 183.447 3.25271 -4.68567 0
M  V30 2052 O 182.381 1.6565 -5.78657 0
M  V30 2053 H 186.207 -0.17359 -3.03203 0
M  V30 2054 H 183.792 -0.150919 -1.48636 0
M  V30 2055 H 185.674 2.21628 -3.58412 0
M  V30 2056 H 184.349 2.18461 -2.38865 0
M  V30 2057 H 183.256 0.294525 -3.72939 0
M  V30 2058 H 184.589 0.407128 -4.90513 0
M  V30 2059 N 186.241 1.57166 -0.116904 0
M  V30 2060 C 187.188 2.15202 0.83408 0
M  V30 2061 C 188.158 1.07644 1.26499 0
M  V30 2062 O 189.343 1.35541 1.34288 0
M  V30 2063 C 186.483 2.75405 2.07957 0
M  V30 2064 C 185.596 3.97264 1.69721 0
M  V30 2065 C 184.731 4.45561 2.89221 0
M  V30 2066 C 183.77 5.59956 2.47215 0
M  V30 2067 N 182.907 6.03006 3.59622 0
M  V30 2068 H 187.747 2.96141 0.332335 0
M  V30 2069 H 185.284 1.46309 0.152349 0
M  V30 2070 H 187.242 3.08439 2.80929 0
M  V30 2071 H 185.872 1.97159 2.55594 0
M  V30 2072 H 184.924 3.70404 0.866316 0
M  V30 2073 H 186.236 4.80226 1.34849 0
M  V30 2074 H 185.39 4.80493 3.7042 0
M  V30 2075 H 184.129 3.61544 3.27318 0
M  V30 2076 H 183.134 5.2463 1.64448 0
M  V30 2077 H 184.359 6.45738 2.10238 0
M  V30 2078 H 182.305 5.21931 3.97396 0
M  V30 2079 H 182.222 6.80819 3.28667 0
M  V30 2080 H 183.49 6.42576 4.41267 0
M  V30 2081 N 187.719 -0.156864 1.56817 0
M  V30 2082 C 188.968 -0.869504 1.81996 0
M  V30 2083 C 189.281 -1.82777 0.696545 0
M  V30 2084 O 190.487 -2.58384 0.833658 0
M  V30 2085 C 188.943 -1.59679 3.22538 0
M  V30 2086 C 188.551 -0.681431 4.42787 0
M  V30 2087 C 190.295 -2.2968 3.56997 0
M  V30 2088 C 188.202 -1.40978 5.74351 0
M  V30 2089 H 187.132 -0.328438 0.678708 0
M  V30 2090 H 189.783 -0.1223 1.83092 0
M  V30 2091 H 188.165 -2.38927 3.158 0
M  V30 2092 H 189.339 0.0751166 4.60739 0
M  V30 2093 H 187.654 -0.0903431 4.16302 0
M  V30 2094 H 190.251 -2.84794 4.52544 0
M  V30 2095 H 190.594 -3.05707 2.82576 0
M  V30 2096 H 191.127 -1.57361 3.65352 0
M  V30 2097 H 187.866 -0.691561 6.51842 0
M  V30 2098 H 187.386 -2.13929 5.60352 0
M  V30 2099 H 189.065 -1.95337 6.16808 0
M  V30 2100 N 189.197 -1.51736 -0.425897 0
M  V30 2101 C 190.144 -1.73875 -1.51776 0
M  V30 2102 C 191.114 -0.580702 -1.55618 0
M  V30 2103 O 192.299 -0.81641 -1.72451 0
M  V30 2104 C 189.439 -1.88012 -2.89388 0
M  V30 2105 C 188.552 -3.15606 -2.94986 0
M  V30 2106 C 187.687 -3.20271 -4.23793 0
M  V30 2107 C 186.726 -4.42134 -4.23302 0
M  V30 2108 N 185.863 -4.44284 -5.43651 0
M  V30 2109 H 190.703 -2.67071 -1.32201 0
M  V30 2110 H 188.24 -1.32351 -0.642008 0
M  V30 2111 H 190.198 -1.9419 -3.69251 0
M  V30 2112 H 188.828 -0.98213 -3.07496 0
M  V30 2113 H 187.88 -3.18681 -2.07717 0
M  V30 2114 H 189.192 -4.05486 -2.90486 0
M  V30 2115 H 188.346 -3.25428 -5.12036 0
M  V30 2116 H 187.085 -2.28299 -4.30965 0
M  V30 2117 H 186.09 -4.3714 -3.3345 0
M  V30 2118 H 187.315 -5.35382 -4.17783 0
M  V30 2119 H 185.261 -3.55188 -5.51523 0
M  V30 2120 H 185.178 -5.27988 -5.41078 0
M  V30 2121 H 186.446 -4.53649 -6.33895 0
M  V30 2122 N 190.675 0.682077 -1.42076 0
M  V30 2123 C 191.623 1.81707 -1.45208 0
M  V30 2124 C 192.617 1.66183 -0.328591 0
M  V30 2125 O 193.823 1.7288 -0.501264 0
M  V30 2126 H 190.198 0.599014 -0.454628 0
M  V30 2127 H 192.169 1.76183 -2.40836 0
M  V30 2128 C 190.918 3.19816 -1.36428 0
M  V30 2129 H 190.241 3.32385 -2.22171 0
M  V30 2130 H 191.681 3.99272 -1.42681 0
M  V30 2131 C 190.14 3.36809 -0.078191 0
M  V30 2132 O 190.67 3.92124 0.87188 0
M  V30 2133 N 188.876 2.906 0.00229266 0
M  V30 2134 H 188.423 2.45772 -0.771616 0
M  V30 2135 H 188.381 3.02347 0.862179 0
M  V30 2136 N 192.153 1.28127 0.917671 0
M  V30 2137 C 193.569 1.05749 1.19538 0
M  V30 2138 C 193.769 -0.202633 2.00479 0
M  V30 2139 O 192.825 -0.905382 2.3571 0
M  V30 2140 C 194.138 2.30273 1.93378 0
M  V30 2141 C 195.686 2.35412 2.06277 0
M  V30 2142 C 196.161 3.59692 2.83524 0
M  V30 2143 N 197.652 3.60309 2.91087 0
M  V30 2144 C 198.387 4.53147 3.51348 0
M  V30 2145 N 197.883 5.563 4.12919 0
M  V30 2146 N 199.676 4.40751 3.48849 0
M  V30 2147 H 191.827 2.09024 0.377184 0
M  V30 2148 H 194.09 0.919798 0.22951 0
M  V30 2149 H 193.796 3.22055 1.41328 0
M  V30 2150 H 193.67 2.36378 2.93947 0
M  V30 2151 H 196.057 1.4413 2.57508 0
M  V30 2152 H 196.138 2.33304 1.04895 0
M  V30 2153 H 195.782 4.51316 2.32973 0
M  V30 2154 H 195.712 3.59054 3.85211 0
M  V30 2155 H 198.203 2.85714 2.47338 0
M  V30 2156 H 198.516 6.2329 4.56869 0
M  V30 2157 H 196.861 5.60131 4.11435 0
M  V30 2158 H 200.052 3.59367 2.99955 0
M  V30 2159 H 200.225 5.13291 3.9552 0
M  V30 2160 N 193.631 -1.12557 1.10312 0
M  V30 2161 C 194.861 -1.87592 0.865617 0
M  V30 2162 C 195.269 -1.79851 -0.587389 0
M  V30 2163 O 194.612 -1.16949 -1.41664 0
M  V30 2164 C 194.674 -3.37665 1.23381 0
M  V30 2165 C 194.338 -3.69181 2.69359 0
M  V30 2166 C 195.335 -3.67652 3.67597 0
M  V30 2167 C 193.02 -3.98555 3.05711 0
M  V30 2168 C 195.014 -3.95053 5.00212 0
M  V30 2169 C 192.701 -4.25616 4.38514 0
M  V30 2170 C 193.699 -4.23851 5.35574 0
M  V30 2171 O 193.387 -4.50242 6.65986 0
M  V30 2172 H 193.119 -0.600442 0.310557 0
M  V30 2173 H 195.673 -1.4335 1.47105 0
M  V30 2174 H 193.903 -3.82454 0.571467 0
M  V30 2175 H 195.592 -3.94041 0.973994 0
M  V30 2176 H 196.358 -3.45024 3.40857 0
M  V30 2177 H 192.237 -3.99071 2.30789 0
M  V30 2178 H 195.781 -3.93591 5.75962 0
M  V30 2179 H 191.678 -4.47718 4.64994 0
M  V30 2180 H 192.446 -4.67867 6.71597 0
M  V30 2181 N 195.109 -0.891671 -1.2995 0
M  V30 2182 C 196.356 -0.513501 -1.95881 0
M  V30 2183 C 196.684 0.938655 -1.70351 0
M  V30 2184 O 195.939 1.67936 -1.00478 0
M  V30 2185 C 196.238 -0.742868 -3.49594 0
M  V30 2186 C 195.904 -2.17114 -3.95186 0
M  V30 2187 C 194.566 -2.56169 -4.07346 0
M  V30 2188 C 196.918 -3.10162 -4.18866 0
M  V30 2189 C 194.246 -3.87469 -4.4055 0
M  V30 2190 C 196.598 -4.41001 -4.53542 0
M  V30 2191 C 195.262 -4.79941 -4.63911 0
M  V30 2192 H 194.532 -0.187903 -0.71678 0
M  V30 2193 H 197.179 -1.1288 -1.54694 0
M  V30 2194 H 195.484 -0.044586 -3.91775 0
M  V30 2195 H 197.181 -0.429767 -3.9869 0
M  V30 2196 H 193.771 -1.85801 -3.86233 0
M  V30 2197 H 197.955 -2.81206 -4.08946 0
M  V30 2198 H 193.211 -4.17371 -4.46779 0
M  V30 2199 H 197.385 -5.13133 -4.70815 0
M  V30 2200 H 195.012 -5.81719 -4.89395 0
M  V30 2201 N 196.587 1.43421 -0.653314 0
M  V30 2202 C 197.998 1.85065 -0.246537 0
M  V30 2203 C 198.349 1.54688 1.2069 0
M  V30 2204 O 197.474 0.995896 1.92122 0
M  V30 2205 C 198.069 3.35922 -0.440666 0
M  V30 2206 C 196.628 3.76297 -0.0882064 0
M  V30 2207 C 195.775 2.67147 -0.743484 0
M  V30 2208 H 198.726 1.33572 -0.856979 0
M  V30 2209 H 198.747 3.79204 0.313798 0
M  V30 2210 H 198.259 3.58 -1.49858 0
M  V30 2211 H 196.36 3.5983 0.96711 0
M  V30 2212 H 196.473 4.76338 -0.513738 0
M  V30 2213 H 194.837 2.54086 -0.176712 0
M  V30 2214 H 195.62 2.92053 -1.80443 0
M  V30 2215 N 198.065 0.39524 1.52563 0
M  V30 2216 C 199.028 -0.425001 2.25225 0
M  V30 2217 C 200.028 -0.985266 1.27079 0
M  V30 2218 O 201.218 -0.866332 1.5113 0
M  V30 2219 C 198.35 -1.59686 3.01186 0
M  V30 2220 H 199.543 0.211233 2.99155 0
M  V30 2221 H 197.096 0.147472 1.55603 0
M  V30 2222 H 197.831 -2.27035 2.31572 0
M  V30 2223 H 197.616 -1.20176 3.73229 0
M  V30 2224 H 199.106 -2.17743 3.5634 0
M  V30 2225 N 199.544 -1.57102 0.125237 0
M  V30 2226 C 200.791 -1.95407 -0.531248 0
M  V30 2227 C 201.119 -1.0089 -1.66287 0
M  V30 2228 O 200.374 -0.0339431 -1.95671 0
M  V30 2229 C 200.673 -3.40096 -1.09862 0
M  V30 2230 C 200.339 -4.50815 -0.0876989 0
M  V30 2231 C 199.001 -4.80824 0.19026 0
M  V30 2232 C 201.353 -5.17724 0.600902 0
M  V30 2233 C 198.681 -5.75058 1.163 0
M  V30 2234 C 201.033 -6.13005 1.56231 0
M  V30 2235 C 199.697 -6.41403 1.8482 0
M  V30 2236 H 198.967 -0.715046 -0.194397 0
M  V30 2237 H 201.614 -1.90373 0.207463 0
M  V30 2238 H 199.919 -3.41855 -1.91422 0
M  V30 2239 H 201.616 -3.6705 -1.61478 0
M  V30 2240 H 198.206 -4.27444 -0.314528 0
M  V30 2241 H 202.39 -4.94691 0.399333 0
M  V30 2242 H 197.646 -5.95362 1.39117 0
M  V30 2243 H 201.82 -6.63934 2.10153 0
M  V30 2244 H 199.447 -7.14229 2.60349 0
M  V30 2245 N 201.022 0.148545 -1.56898 0
M  V30 2246 C 201.932 1.20293 -2.01412 0
M  V30 2247 C 202.948 1.47107 -0.929273 0
M  V30 2248 O 204.124 1.58807 -1.23863 0
M  V30 2249 C 201.189 2.51682 -2.38447 0
M  V30 2250 C 200.25 2.32529 -3.60872 0
M  V30 2251 C 199.483 3.57653 -3.96132 0
M  V30 2252 O 199.706 4.63771 -3.32073 0
M  V30 2253 O 198.64 3.50408 -4.89385 0
M  V30 2254 H 202.466 0.855025 -2.91416 0
M  V30 2255 H 200.051 0.357151 -1.45068 0
M  V30 2256 H 201.933 3.29147 -2.63135 0
M  V30 2257 H 200.608 2.86006 -1.51599 0
M  V30 2258 H 199.515 1.53019 -3.41373 0
M  V30 2259 H 200.848 2.03121 -4.48333 0
M  V30 2260 N 202.5 1.5196 0.417844 0
M  V30 2261 C 203.447 1.74678 1.50852 0
M  V30 2262 C 204.417 0.588947 1.55308 0
M  V30 2263 O 205.602 0.825544 1.72016 0
M  V30 2264 C 202.742 1.89544 2.88387 0
M  V30 2265 C 201.855 3.17166 2.93309 0
M  V30 2266 C 200.99 3.22513 4.22088 0
M  V30 2267 C 200.029 4.44372 4.20951 0
M  V30 2268 N 199.166 4.47161 5.41287 0
M  V30 2269 H 204.006 2.67768 1.30783 0
M  V30 2270 H 201.543 1.32689 0.63498 0
M  V30 2271 H 203.501 1.96146 3.68216 0
M  V30 2272 H 202.131 0.998424 3.06971 0
M  V30 2273 H 201.183 3.19778 2.06024 0
M  V30 2274 H 202.495 4.07021 2.88332 0
M  V30 2275 H 201.649 3.28139 5.10303 0
M  V30 2276 H 200.388 2.30581 4.29748 0
M  V30 2277 H 199.393 4.38902 3.31127 0
M  V30 2278 H 200.618 5.3759 4.14938 0
M  V30 2279 H 198.564 3.58108 5.49632 0
M  V30 2280 H 198.481 5.3085 5.3827 0
M  V30 2281 H 199.749 4.57005 6.3148 0
M  V30 2282 N 203.978 -0.674533 1.42435 0
M  V30 2283 C 205.224 -1.43671 1.43131 0
M  V30 2284 C 205.557 -1.94142 0.0476021 0
M  V30 2285 O 204.832 -1.70924 -0.928188 0
M  V30 2286 C 205.115 -2.63355 2.45594 0
M  V30 2287 C 204.968 -2.18514 3.93156 0
M  V30 2288 C 206.287 -3.65571 2.45043 0
M  V30 2289 H 203.406 -0.521077 0.521198 0
M  V30 2290 H 206.048 -0.766551 1.7385 0
M  V30 2291 H 204.198 -3.2053 2.19528 0
M  V30 2292 H 205.87 -1.66504 4.30202 0
M  V30 2293 H 204.113 -1.50086 4.07009 0
M  V30 2294 H 204.784 -3.04484 4.60428 0
M  V30 2295 H 207.26 -3.18113 2.68223 0
M  V30 2296 H 206.136 -4.46893 3.18713 0
M  V30 2297 H 206.397 -4.16716 1.47649 0
M  V30 2298 N 205.456 -1.28612 -0.910864 0
M  V30 2299 C 206.386 -1.15326 -2.03032 0
M  V30 2300 C 207.367 -0.0502924 -1.70026 0
M  V30 2301 O 208.552 -0.227797 -1.92859 0
M  V30 2302 C 205.682 -0.817343 -3.37545 0
M  V30 2303 C 204.636 -1.8754 -3.84724 0
M  V30 2304 C 203.962 -1.39305 -5.16235 0
M  V30 2305 C 205.262 -3.28244 -4.06267 0
M  V30 2306 H 206.956 -2.08975 -2.14406 0
M  V30 2307 H 204.502 -1.00612 -1.03021 0
M  V30 2308 H 206.455 -0.711151 -4.15356 0
M  V30 2309 H 205.179 0.154846 -3.26233 0
M  V30 2310 H 203.838 -1.97079 -3.09121 0
M  V30 2311 H 203.486 -0.409846 -5.01328 0
M  V30 2312 H 203.186 -2.10057 -5.48771 0
M  V30 2313 H 204.71 -1.30014 -5.96598 0
M  V30 2314 H 206.124 -3.21611 -4.74594 0
M  V30 2315 H 204.521 -3.96855 -4.5014 0
M  V30 2316 H 205.591 -3.72048 -3.10979 0
M  V30 2317 N 206.934 1.1197 -1.10907 0
M  V30 2318 C 207.881 2.17846 -0.762345 0
M  V30 2319 C 208.851 1.63995 0.263599 0
M  V30 2320 O 210.036 1.90273 0.141773 0
M  V30 2321 C 207.176 3.44487 -0.205651 0
M  V30 2322 C 206.289 4.12369 -1.28748 0
M  V30 2323 C 205.424 5.26674 -0.691919 0
M  V30 2324 C 204.463 5.86431 -1.75399 0
M  V30 2325 N 203.6 6.92142 -1.17833 0
M  V30 2326 H 208.44 2.46851 -1.6694 0
M  V30 2327 H 205.977 1.21188 -0.833776 0
M  V30 2328 H 207.935 4.16981 0.135037 0
M  V30 2329 H 206.565 3.15884 0.664613 0
M  V30 2330 H 205.617 3.38003 -1.74522 0
M  V30 2331 H 206.929 4.52844 -2.09125 0
M  V30 2332 H 206.083 6.05953 -0.300963 0
M  V30 2333 H 204.822 4.8749 0.143232 0
M  V30 2334 H 203.827 5.05835 -2.15432 0
M  V30 2335 H 205.052 6.27685 -2.59208 0
M  V30 2336 H 202.998 6.54985 -0.364725 0
M  V30 2337 H 202.915 7.31242 -1.91887 0
M  V30 2338 H 204.183 7.75237 -0.81408 0
M  V30 2339 N 208.412 0.89855 1.29475 0
M  V30 2340 C 209.637 0.538561 2.00285 0
M  V30 2341 C 210.062 -0.869135 1.66816 0
M  V30 2342 O 209.42 -1.57831 0.892145 0
M  V30 2343 C 209.468 0.736475 3.52999 0
M  V30 2344 O 208.572 -0.211537 4.11857 0
M  V30 2345 H 207.913 0.210563 0.62973 0
M  V30 2346 H 210.443 1.20982 1.64998 0
M  V30 2347 H 210.453 0.640685 4.02938 0
M  V30 2348 H 209.128 1.76276 3.76696 0
M  V30 2349 H 207.705 -0.0682991 3.72837 0
M  V30 2350 N 209.89 -1.43072 0.660911 0
M  V30 2351 C 210.84 -2.27948 -0.04847 0
M  V30 2352 C 211.824 -1.40325 -0.787246 0
M  V30 2353 O 213.016 -1.63893 -0.668446 0
M  V30 2354 C 210.145 -3.28143 -1.00881 0
M  V30 2355 C 209.231 -4.23252 -0.268108 0
M  V30 2356 N 209.622 -5.00656 0.719528 0
M  V30 2357 C 207.92 -4.43092 -0.508493 0
M  V30 2358 C 208.621 -5.70019 1.15988 0
M  V30 2359 N 207.597 -5.41364 0.492584 0
M  V30 2360 H 211.399 -2.85213 0.709279 0
M  V30 2361 H 208.913 -1.54869 0.488822 0
M  V30 2362 H 210.91 -3.87736 -1.53188 0
M  V30 2363 H 209.57 -2.7244 -1.76654 0
M  V30 2364 H 210.581 -5.06115 1.09855 0
M  V30 2365 H 207.258 -3.98449 -1.24679 0
M  V30 2366 H 208.648 -6.4214 1.97751 0
M  V30 2367 N 211.368 -0.403325 -1.52352 0
M  V30 2368 C 212.616 0.174003 -2.0135 0
M  V30 2369 C 212.937 1.46139 -1.29106 0
M  V30 2370 O 212.207 1.91448 -0.415253 0
M  V30 2371 H 210.787 0.0672911 -0.743963 0
M  V30 2372 H 213.449 -0.538235 -1.87321 0
M  V30 2373 H 212.545 0.374254 -3.09848 0
M  V30 2374 N 212.846 1.57033 -0.133567 0
M  V30 2375 C 213.778 2.13176 0.841944 0
M  V30 2376 C 214.791 1.07794 1.22001 0
M  V30 2377 O 215.98 1.35117 1.16643 0
M  V30 2378 C 213.08 2.62847 2.13926 0
M  V30 2379 C 212.253 3.92486 1.93064 0
M  V30 2380 C 211.312 4.27605 3.0666 0
M  V30 2381 O 210.338 4.96168 2.78937 0
M  V30 2382 N 211.54 3.861 4.33483 0
M  V30 2383 H 214.305 2.97503 0.362192 0
M  V30 2384 H 211.866 1.61821 0.05042 0
M  V30 2385 H 213.858 2.83363 2.88942 0
M  V30 2386 H 212.428 1.83319 2.53205 0
M  V30 2387 H 211.648 3.80732 1.02159 0
M  V30 2388 H 212.936 4.77225 1.76447 0
M  V30 2389 H 212.334 3.30828 4.58878 0
M  V30 2390 H 210.891 4.11694 5.05323 0
M  V30 2391 N 214.325 -0.140222 1.56975 0
M  V30 2392 C 215.602 -0.880769 1.74648 0
M  V30 2393 C 215.982 -1.99036 0.703404 0
M  V30 2394 O 215.33 -2.26821 -0.27648 0
M  V30 2395 C 215.54 -1.417 3.18939 0
M  V30 2396 C 216.888 -1.87774 3.80823 0
M  V30 2397 O 217.912 -1.51427 3.2241 0
M  V30 2398 O 216.771 -2.54827 4.83452 0
M  V30 2399 H 213.865 -0.416713 0.714338 0
M  V30 2400 H 216.411 -0.125618 1.69234 0
M  V30 2401 H 215.183 -0.619902 3.86359 0
M  V30 2402 H 214.806 -2.23546 3.28805 0
M  V30 2403 N 215.803 -1.52179 -0.40978 0
M  V30 2404 C 217.033 -1.69807 -1.17682 0
M  V30 2405 C 217.441 -0.406908 -1.84773 0
M  V30 2406 O 216.784 0.626863 -1.72673 0
M  V30 2407 C 216.846 -2.77712 -2.2829 0
M  V30 2408 C 216.51 -4.19481 -1.81341 0
M  V30 2409 C 217.507 -5.03345 -1.30154 0
M  V30 2410 C 215.192 -4.65713 -1.88194 0
M  V30 2411 C 217.186 -6.31511 -0.864416 0
M  V30 2412 C 214.873 -5.93869 -1.44093 0
M  V30 2413 C 215.871 -6.76597 -0.933023 0
M  V30 2414 O 215.559 -8.02354 -0.49838 0
M  V30 2415 H 215.291 -0.572372 -0.359675 0
M  V30 2416 H 217.845 -1.99511 -0.488311 0
M  V30 2417 H 216.075 -2.43383 -3.00502 0
M  V30 2418 H 217.764 -2.83946 -2.90051 0
M  V30 2419 H 218.53 -4.68819 -1.24232 0
M  V30 2420 H 214.409 -4.01424 -2.26671 0
M  V30 2421 H 217.953 -6.96033 -0.467286 0
M  V30 2422 H 213.85 -6.27903 -1.49694 0
M  V30 2423 H 214.618 -8.16135 -0.621747 0
M  V30 2424 N 217.281 0.66697 -1.42791 0
M  V30 2425 C 218.211 1.79218 -1.49677 0
M  V30 2426 C 219.192 1.66405 -0.352623 0
M  V30 2427 O 220.377 1.85708 -0.567993 0
M  V30 2428 C 217.507 3.17565 -1.40605 0
M  V30 2429 C 216.461 3.45124 -2.53127 0
M  V30 2430 C 215.787 4.83127 -2.29112 0
M  V30 2431 C 217.087 3.41236 -3.95418 0
M  V30 2432 H 218.781 1.73713 -2.43853 0
M  V30 2433 H 216.327 0.83432 -1.17367 0
M  V30 2434 H 218.28 3.96022 -1.44029 0
M  V30 2435 H 217.004 3.23767 -0.429271 0
M  V30 2436 H 215.663 2.69031 -2.49034 0
M  V30 2437 H 215.311 4.85988 -1.29709 0
M  V30 2438 H 215.011 5.02528 -3.04531 0
M  V30 2439 H 216.535 5.63859 -2.34297 0
M  V30 2440 H 217.949 4.09651 -4.01073 0
M  V30 2441 H 216.346 3.72173 -4.70752 0
M  V30 2442 H 217.416 2.39665 -4.21532 0
M  V30 2443 N 218.759 1.29093 0.90403 0
M  V30 2444 C 220.005 1.16986 1.65656 0
M  V30 2445 C 220.338 -0.278925 1.92186 0
M  V30 2446 O 219.613 -1.2019 1.5292 0
M  V30 2447 C 219.896 1.97908 3.0084 0
M  V30 2448 C 219.749 3.50903 2.81403 0
M  V30 2449 C 221.068 1.80208 4.01513 0
M  V30 2450 H 218.187 0.426346 0.601164 0
M  V30 2451 H 220.829 1.58518 1.04747 0
M  V30 2452 H 218.979 1.62616 3.52829 0
M  V30 2453 H 220.651 3.96153 2.36348 0
M  V30 2454 H 218.894 3.76045 2.1627 0
M  V30 2455 H 219.565 4.02791 3.77443 0
M  V30 2456 H 222.041 2.11025 3.58619 0
M  V30 2457 H 220.917 2.39184 4.94047 0
M  V30 2458 H 221.178 0.756119 4.35586 0
M  V30 2459 N 220.237 -1.11381 1.11499 0
M  V30 2460 C 221.485 -1.8277 0.862524 0
M  V30 2461 C 221.806 -1.85097 -0.613534 0
M  V30 2462 O 221.076 -1.32198 -1.4457 0
M  V30 2463 H 219.656 -0.676823 0.316101 0
M  V30 2464 H 222.318 -1.34816 1.4075 0
M  V30 2465 H 221.414 -2.86614 1.23527 0
M  V30 2466 N 221.715 -0.905404 -1.28997 0
M  V30 2467 C 222.663 -0.377431 -2.29517 0
M  V30 2468 C 223.657 0.526461 -1.61012 0
M  V30 2469 O 224.863 0.40863 -1.753 0
M  V30 2470 H 221.238 -0.103437 -0.744852 0
M  V30 2471 H 223.209 -1.23848 -2.71485 0
M  V30 2472 C 221.958 0.374833 -3.45674 0
M  V30 2473 H 221.281 -0.311474 -3.98585 0
M  V30 2474 H 222.721 0.70903 -4.1803 0
M  V30 2475 C 221.18 1.57963 -2.97572 0
M  V30 2476 O 221.71 2.67886 -2.99333 0
M  V30 2477 N 219.916 1.42375 -2.53333 0
M  V30 2478 H 219.463 0.529466 -2.521 0
M  V30 2479 H 219.421 2.23117 -2.21509 0
M  V30 2480 N 223.193 1.4272 -0.668489 0
M  V30 2481 C 224.14 2.30796 0.0137489 0
M  V30 2482 C 225.11 1.4561 0.799177 0
M  V30 2483 O 226.295 1.74453 0.772702 0
M  V30 2484 C 223.435 3.31377 0.963507 0
M  V30 2485 C 222.548 4.31655 0.172569 0
M  V30 2486 C 221.683 5.19312 1.1175 0
M  V30 2487 C 220.722 6.11274 0.317886 0
M  V30 2488 N 219.859 6.91504 1.2152 0
M  V30 2489 H 224.699 2.88585 -0.743161 0
M  V30 2490 H 222.236 1.42154 -0.378226 0
M  V30 2491 H 224.194 3.88214 1.52792 0
M  V30 2492 H 222.824 2.75202 1.68712 0
M  V30 2493 H 221.876 3.76988 -0.508374 0
M  V30 2494 H 223.188 4.96779 -0.448527 0
M  V30 2495 H 222.342 5.80851 1.75206 0
M  V30 2496 H 221.081 4.5435 1.77249 0
M  V30 2497 H 220.086 5.48809 -0.329918 0
M  V30 2498 H 221.311 6.78283 -0.332917 0
M  V30 2499 H 219.257 6.29176 1.85671 0
M  V30 2500 H 219.174 7.53209 0.649036 0
M  V30 2501 H 220.442 7.57535 1.83742 0
M  V30 2502 N 224.671 0.411399 1.52136 0
M  V30 2503 C 225.601 -0.404015 2.29978 0
M  V30 2504 C 226.582 -1.04412 1.34284 0
M  V30 2505 O 227.767 -1.0527 1.63192 0
M  V30 2506 C 224.897 -1.5197 3.12286 0
M  V30 2507 C 223.851 -1.00448 4.16046 0
M  V30 2508 C 223.177 -2.21393 4.86712 0
M  V30 2509 C 224.477 -0.0569336 5.22269 0
M  V30 2510 H 226.171 0.245529 2.98392 0
M  V30 2511 H 223.717 0.119525 1.43503 0
M  V30 2512 H 225.67 -2.09715 3.6551 0
M  V30 2513 H 224.394 -2.19716 2.41646 0
M  V30 2514 H 223.053 -0.449421 3.63835 0
M  V30 2515 H 222.701 -2.87699 4.12599 0
M  V30 2516 H 222.401 -1.87571 5.56858 0
M  V30 2517 H 223.925 -2.7974 5.4275 0
M  V30 2518 H 225.339 -0.54325 5.7072 0
M  V30 2519 H 223.736 0.192594 5.99791 0
M  V30 2520 H 224.806 0.887663 4.76706 0
M  V30 2521 N 226.149 -1.5696 0.141893 0
M  V30 2522 C 227.374 -2.00754 -0.520838 0
M  V30 2523 C 227.799 -1.0213 -1.57959 0
M  V30 2524 O 227.157 0.00371324 -1.813 0
M  V30 2525 C 227.205 -3.43318 -1.10294 0
M  V30 2526 O 226.309 -3.47679 -2.21795 0
M  V30 2527 H 225.65 -0.651564 -0.127908 0
M  V30 2528 H 228.18 -2.03221 0.23712 0
M  V30 2529 H 228.19 -3.82012 -1.43287 0
M  V30 2530 H 226.865 -4.14608 -0.327574 0
M  V30 2531 H 225.442 -3.20824 -1.9007 0
M  V30 2532 N 227.627 0.131896 -1.57047 0
M  V30 2533 C 229.043 0.485031 -1.52051 0
M  V30 2534 C 229.243 1.82563 -0.85281 0
M  V30 2535 O 228.299 2.48817 -0.429694 0
M  V30 2536 C 229.612 0.481409 -2.96821 0
M  V30 2537 C 231.16 0.565868 -3.07842 0
M  V30 2538 C 231.635 0.592762 -4.54148 0
M  V30 2539 N 233.126 0.654564 -4.58552 0
M  V30 2540 C 233.861 0.696608 -5.69153 0
M  V30 2541 N 233.357 0.697078 -6.89284 0
M  V30 2542 N 235.15 0.738639 -5.57226 0
M  V30 2543 H 227.301 -0.746664 -1.98843 0
M  V30 2544 H 229.564 -0.273999 -0.90754 0
M  V30 2545 H 229.27 -0.435731 -3.4899 0
M  V30 2546 H 229.144 1.3139 -3.53577 0
M  V30 2547 H 231.531 1.47343 -2.55684 0
M  V30 2548 H 231.612 -0.29406 -2.54104 0
M  V30 2549 H 231.256 -0.310701 -5.06949 0
M  V30 2550 H 231.186 1.46939 -5.05684 0
M  V30 2551 H 233.677 0.660887 -3.72076 0
M  V30 2552 H 233.99 0.731426 -7.69331 0
M  V30 2553 H 232.335 0.66471 -6.91814 0
M  V30 2554 H 235.526 0.735545 -4.62285 0
M  V30 2555 H 235.699 0.767938 -6.43434 0
M  V30 2556 N 229.106 1.52395 0.401703 0
M  V30 2557 C 230.069 1.75636 1.47257 0
M  V30 2558 C 231.069 0.62628 1.48103 0
M  V30 2559 O 232.259 0.894227 1.49497 0
M  V30 2560 C 229.391 1.84553 2.86624 0
M  V30 2561 H 230.584 2.71241 1.27938 0
M  V30 2562 H 228.137 1.42923 0.632662 0
M  V30 2563 H 228.872 0.908882 3.11303 0
M  V30 2564 H 228.657 2.66715 2.87412 0
M  V30 2565 H 230.147 2.04251 3.64241 0
M  V30 2566 N 230.584 -0.659388 1.43143 0
M  V30 2567 C 231.861 -1.41627 1.34912 0
M  V30 2568 C 232.241 -2.11099 -0.00607785 0
M  V30 2569 O 231.589 -2.04353 -1.02236 0
M  V30 2570 C 231.799 -2.40604 2.52805 0
M  V30 2571 C 233.147 -3.04789 2.95616 0
M  V30 2572 O 234.171 -2.50932 2.52807 0
M  V30 2573 O 233.03 -4.02421 3.69756 0
M  V30 2574 H 230.124 -0.63246 0.532844 0
M  V30 2575 H 232.67 -0.686814 1.5518 0
M  V30 2576 H 231.442 -1.88174 3.43083 0
M  V30 2577 H 231.065 -3.21009 2.34604 0
M  V30 2578 N 232.062 -1.29571 -0.897171 0
M  V30 2579 C 233.311 -1.1706 -1.64256 0
M  V30 2580 C 233.624 0.276476 -1.93636 0
M  V30 2581 O 234.83 0.52294 -2.66416 0
M  V30 2582 C 233.286 -2.0475 -2.95982 0
M  V30 2583 C 232.894 -3.54295 -2.74187 0
M  V30 2584 C 234.638 -2.0097 -3.73914 0
M  V30 2585 C 232.545 -4.34081 -4.01656 0
M  V30 2586 H 231.475 -0.43452 -0.616205 0
M  V30 2587 H 234.126 -1.54229 -0.994268 0
M  V30 2588 H 232.508 -1.60452 -3.62038 0
M  V30 2589 H 233.682 -4.06662 -2.1671 0
M  V30 2590 H 231.997 -3.59773 -2.09648 0
M  V30 2591 H 234.594 -2.57838 -4.68427 0
M  V30 2592 H 234.937 -0.990273 -4.0435 0
M  V30 2593 H 235.47 -2.43325 -3.14703 0
M  V30 2594 H 232.209 -5.36671 -3.76384 0
M  V30 2595 H 231.729 -3.86483 -4.58684 0
M  V30 2596 H 233.408 -4.44877 -4.69781 0
M  V30 2597 N 233.54 1.10788 -1.12088 0
M  V30 2598 C 234.49 2.15158 -0.754401 0
M  V30 2599 C 235.474 1.59026 0.244846 0
M  V30 2600 O 236.666 1.76927 0.0509097 0
M  V30 2601 C 233.795 3.42677 -0.206657 0
M  V30 2602 C 232.881 4.05751 -1.23398 0
M  V30 2603 N 233.272 4.43582 -2.43041 0
M  V30 2604 C 231.57 4.32764 -1.07848 0
M  V30 2605 C 232.271 4.93085 -3.08613 0
M  V30 2606 N 231.247 4.89664 -2.36072 0
M  V30 2607 H 235.049 2.42195 -1.6649 0
M  V30 2608 H 232.563 1.27872 -1.00112 0
M  V30 2609 H 234.56 4.16834 0.0740646 0
M  V30 2610 H 233.22 3.17101 0.698342 0
M  V30 2611 H 234.231 4.35395 -2.80449 0
M  V30 2612 H 230.908 4.16863 -0.230483 0
M  V30 2613 H 232.298 5.31933 -4.10483 0
M  V30 2614 N 235.018 0.912232 1.28515 0
M  V30 2615 C 235.948 0.416403 2.29757 0
M  V30 2616 C 236.929 -0.515194 1.6211 0
M  V30 2617 O 238.114 -0.423253 1.89532 0
M  V30 2618 C 235.244 -0.34572 3.45575 0
M  V30 2619 C 234.198 0.496599 4.25109 0
M  V30 2620 C 233.524 -0.393771 5.33248 0
M  V30 2621 C 234.824 1.75307 4.92001 0
M  V30 2622 H 236.518 1.26249 2.7148 0
M  V30 2623 H 234.064 0.608515 1.30511 0
M  V30 2624 H 236.017 -0.703422 4.15488 0
M  V30 2625 H 234.741 -1.2257 3.02728 0
M  V30 2626 H 233.4 0.8368 3.56922 0
M  V30 2627 H 233.048 -1.27225 4.86644 0
M  V30 2628 H 232.748 0.166209 5.87365 0
M  V30 2629 H 234.272 -0.747389 6.06009 0
M  V30 2630 H 235.686 1.46437 5.54283 0
M  V30 2631 H 234.083 2.25534 5.56106 0
M  V30 2632 H 235.153 2.48176 4.16577 0
M  V30 2633 N 236.496 -1.42363 0.676048 0
M  V30 2634 C 237.742 -2.0182 0.199125 0
M  V30 2635 C 238.075 -1.53339 -1.19168 0
M  V30 2636 O 237.35 -0.736124 -1.80032 0
M  V30 2637 C 237.633 -3.59331 0.235144 0
M  V30 2638 C 237.486 -4.17989 1.66149 0
M  V30 2639 C 238.805 -4.3813 -0.41595 0
M  V30 2640 H 235.924 -0.733293 0.0738311 0
M  V30 2641 H 238.566 -1.69368 0.86107 0
M  V30 2642 H 236.716 -3.87109 -0.328487 0
M  V30 2643 H 238.388 -4.0116 2.27747 0
M  V30 2644 H 236.631 -3.7377 2.20178 0
M  V30 2645 H 237.302 -5.27126 1.63837 0
M  V30 2646 H 239.778 -4.16051 0.0638529 0
M  V30 2647 H 238.654 -5.47717 -0.360115 0
M  V30 2648 H 238.915 -4.16101 -1.49373 0
M  V30 2649 N 237.974 -0.419461 -1.51915 0
M  V30 2650 C 238.884 0.407528 -2.31033 0
M  V30 2651 C 239.9 1.04413 -1.3919 0
M  V30 2652 O 241.076 1.0434 -1.72265 0
M  V30 2653 C 238.141 1.50365 -3.12396 0
M  V30 2654 C 237.202 0.889029 -4.19994 0
M  V30 2655 C 236.435 1.93291 -4.97468 0
M  V30 2656 O 236.658 3.15259 -4.75361 0
M  V30 2657 O 235.592 1.53339 -5.8204 0
M  V30 2658 H 239.418 -0.237865 -3.02767 0
M  V30 2659 H 237.003 -0.182413 -1.48282 0
M  V30 2660 H 238.885 2.13975 -3.63032 0
M  V30 2661 H 237.56 2.13345 -2.43445 0
M  V30 2662 H 236.467 0.215353 -3.7348 0
M  V30 2663 H 237.8 0.302991 -4.91267 0
M  V30 2664 N 239.452 1.56882 -0.150215 0
M  V30 2665 C 240.382 2.19935 0.784284 0
M  V30 2666 C 241.363 1.14854 1.25469 0
M  V30 2667 O 242.548 1.43209 1.31168 0
M  V30 2668 C 239.678 2.82349 2.02229 0
M  V30 2669 C 238.632 3.93285 1.68853 0
M  V30 2670 C 237.958 4.42649 2.99944 0
M  V30 2671 C 239.258 5.13904 0.932714 0
M  V30 2672 H 240.952 2.9828 0.258781 0
M  V30 2673 H 238.498 1.43473 0.123029 0
M  V30 2674 H 240.451 3.25126 2.68088 0
M  V30 2675 H 239.175 2.0134 2.57157 0
M  V30 2676 H 237.834 3.5113 1.05371 0
M  V30 2677 H 237.482 3.58458 3.52869 0
M  V30 2678 H 237.182 5.17476 2.78374 0
M  V30 2679 H 238.706 4.88099 3.66868 0
M  V30 2680 H 240.12 5.53506 1.49345 0
M  V30 2681 H 238.517 5.94515 0.81684 0
M  V30 2682 H 239.587 4.84842 -0.0749568 0
M  V30 2683 N 240.93 -0.123565 1.57115 0
M  V30 2684 C 241.86 -1.15309 2.03042 0
M  V30 2685 C 242.841 -1.43454 0.914061 0
M  V30 2686 O 244.026 -1.53973 1.18347 0
M  V30 2687 C 241.156 -2.48043 2.43089 0
M  V30 2688 C 240.11 -2.3437 3.58127 0
M  V30 2689 C 239.436 -3.72026 3.84059 0
M  V30 2690 C 240.736 -1.80804 4.90007 0
M  V30 2691 H 242.43 -0.771102 2.893 0
M  V30 2692 H 239.976 -0.369479 1.39179 0
M  V30 2693 H 241.929 -3.20311 2.73823 0
M  V30 2694 H 240.653 -2.88122 1.53796 0
M  V30 2695 H 239.312 -1.64551 3.27595 0
M  V30 2696 H 238.96 -4.09582 2.91979 0
M  V30 2697 H 238.66 -3.63732 4.6149 0
M  V30 2698 H 240.184 -4.45806 4.1724 0
M  V30 2699 H 241.598 -2.42886 5.19307 0
M  V30 2700 H 239.995 -1.83343 5.71407 0
M  V30 2701 H 241.065 -0.76528 4.78823 0
M  V30 2702 N 242.408 -1.52605 -0.393616 0
M  V30 2703 C 243.638 -1.71046 -1.15874 0
M  V30 2704 C 244.046 -0.426483 -1.84331 0
M  V30 2705 O 243.389 0.608513 -1.73329 0
M  V30 2706 C 243.451 -2.80118 -2.25332 0
M  V30 2707 C 243.115 -4.21381 -1.76881 0
M  V30 2708 C 244.112 -5.04697 -1.24808 0
M  V30 2709 C 241.797 -4.67683 -1.83244 0
M  V30 2710 C 243.791 -6.32393 -0.797387 0
M  V30 2711 C 241.478 -5.95364 -1.37787 0
M  V30 2712 C 242.476 -6.77549 -0.861208 0
M  V30 2713 O 242.164 -8.02837 -0.413252 0
M  V30 2714 H 241.896 -0.576155 -0.353583 0
M  V30 2715 H 244.45 -2.00018 -0.467123 0
M  V30 2716 H 242.68 -2.46557 -2.97904 0
M  V30 2717 H 244.369 -2.87006 -2.87023 0
M  V30 2718 H 245.135 -4.70111 -1.19252 0
M  V30 2719 H 241.014 -4.03805 -2.22401 0
M  V30 2720 H 244.558 -6.9649 -0.393437 0
M  V30 2721 H 240.455 -6.29455 -1.43026 0
M  V30 2722 H 241.223 -8.16749 -0.53515 0
M  V30 2723 N 243.887 0.651787 -1.4349 0
M  V30 2724 C 245.117 1.43728 -1.48411 0
M  V30 2725 C 245.525 1.8893 -0.10103 0
M  V30 2726 O 244.868 1.60182 0.899307 0
M  V30 2727 C 244.93 2.70411 -2.36893 0
M  V30 2728 C 244.594 2.4714 -3.8441 0
M  V30 2729 C 245.591 2.10271 -4.75481 0
M  V30 2730 C 243.276 2.6142 -4.28912 0
M  V30 2731 C 245.27 1.87982 -6.0905 0
M  V30 2732 C 242.957 2.38746 -5.62533 0
M  V30 2733 C 243.955 2.02083 -6.5242 0
M  V30 2734 O 243.643 1.79647 -7.8357 0
M  V30 2735 H 243.375 0.447962 -0.506267 0
M  V30 2736 H 245.929 0.80624 -1.88915 0
M  V30 2737 H 244.159 3.36079 -1.91278 0
M  V30 2738 H 245.848 3.32364 -2.33 0
M  V30 2739 H 246.614 1.98814 -4.42378 0
M  V30 2740 H 242.493 2.88931 -3.59222 0
M  V30 2741 H 246.037 1.5929 -6.7917 0
M  V30 2742 H 241.934 2.49806 -5.95203 0
M  V30 2743 H 242.702 1.9406 -7.95162 0
M  V30 2744 N 245.365 1.30045 0.890287 0
M  V30 2745 C 246.611 1.18737 1.64406 0
M  V30 2746 C 246.944 -0.258525 1.92472 0
M  V30 2747 O 246.219 -1.18562 1.54186 0
M  V30 2748 C 246.502 2.01087 2.98724 0
M  V30 2749 C 246.355 3.53867 2.77665 0
M  V30 2750 C 247.674 1.84457 3.9958 0
M  V30 2751 H 244.793 0.432698 0.596608 0
M  V30 2752 H 247.435 1.5962 1.0306 0
M  V30 2753 H 245.585 1.66349 3.51084 0
M  V30 2754 H 247.257 3.98637 2.32133 0
M  V30 2755 H 245.5 3.78318 2.12269 0
M  V30 2756 H 246.171 4.06772 3.7315 0
M  V30 2757 H 248.647 2.14817 3.56361 0
M  V30 2758 H 247.523 2.44411 4.91482 0
M  V30 2759 H 247.784 0.802276 4.3476 0
M  V30 2760 N 246.843 -1.10192 1.12674 0
M  V30 2761 C 247.753 -2.20172 0.810026 0
M  V30 2762 C 248.769 -1.72821 -0.202188 0
M  V30 2763 O 249.945 -2.01369 -0.0351691 0
M  V30 2764 C 247.01 -3.45631 0.272007 0
M  V30 2765 C 246.071 -4.07704 1.34447 0
M  V30 2766 C 245.304 -5.27175 0.832029 0
M  V30 2767 O 245.527 -5.69425 -0.333284 0
M  V30 2768 O 244.461 -5.80168 1.60277 0
M  V30 2769 H 248.287 -2.49701 1.72867 0
M  V30 2770 H 245.872 -1.18977 0.903597 0
M  V30 2771 H 247.754 -4.21394 -0.0230219 0
M  V30 2772 H 246.429 -3.17723 -0.619164 0
M  V30 2773 H 245.336 -3.33614 1.6927 0
M  V30 2774 H 246.669 -4.3982 2.2095 0
M  V30 2775 N 248.321 -0.919034 -1.28029 0
M  V30 2776 C 249.231 -0.416756 -2.30869 0
M  V30 2777 C 250.247 0.498235 -1.66714 0
M  V30 2778 O 251.423 0.383144 -1.97722 0
M  V30 2779 C 248.488 0.330274 -3.45123 0
M  V30 2780 C 247.549 -0.618578 -4.2482 0
M  V30 2781 C 246.782 0.0928959 -5.33619 0
M  V30 2782 O 247.005 1.31375 -5.55065 0
M  V30 2783 O 245.939 -0.574499 -5.99152 0
M  V30 2784 H 249.765 -1.27043 -2.75851 0
M  V30 2785 H 247.35 -0.684052 -1.3282 0
M  V30 2786 H 249.232 0.751972 -4.14636 0
M  V30 2787 H 247.907 1.1597 -3.02213 0
M  V30 2788 H 246.814 -1.08978 -3.57875 0
M  V30 2789 H 248.147 -1.41497 -4.71423 0
M  V30 2790 N 249.799 1.42003 -0.683588 0
M  V30 2791 C 250.729 2.33487 -0.024866 0
M  V30 2792 C 251.71 1.51163 0.779975 0
M  V30 2793 O 252.895 1.79739 0.735362 0
M  V30 2794 C 250.025 3.3487 0.920836 0
M  V30 2795 C 248.979 4.27414 0.223958 0
M  V30 2796 C 248.305 5.19074 1.2832 0
M  V30 2797 C 249.605 5.14445 -0.90242 0
M  V30 2798 H 251.299 2.88819 -0.788921 0
M  V30 2799 H 248.845 1.38873 -0.38083 0
M  V30 2800 H 250.798 3.97787 1.39081 0
M  V30 2801 H 249.522 2.77861 1.71642 0
M  V30 2802 H 248.181 3.65904 -0.225864 0
M  V30 2803 H 247.829 4.58387 2.071 0
M  V30 2804 H 247.529 5.81822 0.821995 0
M  V30 2805 H 249.053 5.84867 1.75392 0
M  V30 2806 H 250.467 5.70998 -0.513272 0
M  V30 2807 H 248.864 5.86072 -1.28997 0
M  V30 2808 H 249.934 4.52322 -1.74737 0
M  V30 2809 N 251.277 0.427512 1.51691 0
M  V30 2810 C 252.554 -0.201684 1.94557 0
M  V30 2811 C 252.934 -1.60981 1.36559 0
M  V30 2812 O 252.282 -2.21814 0.548702 0
M  V30 2813 C 252.492 -0.189394 3.48486 0
M  V30 2814 C 253.84 -0.39978 4.22714 0
M  V30 2815 O 254.864 -0.267945 3.55191 0
M  V30 2816 O 253.723 -0.661249 5.42485 0
M  V30 2817 H 250.817 -0.135261 0.815864 0
M  V30 2818 H 253.363 0.484782 1.62628 0
M  V30 2819 H 252.135 0.795431 3.8313 0
M  V30 2820 H 251.758 -0.919187 3.86829 0
M  V30 2821 N 252.755 -1.56801 0.158532 0
M  V30 2822 C 253.98 -2.01295 -0.499516 0
M  V30 2823 C 254.405 -1.03799 -1.56867 0
M  V30 2824 O 253.763 -0.0155162 -1.81293 0
M  V30 2825 C 253.811 -3.44469 -1.06647 0
M  V30 2826 O 252.915 -3.50012 -2.18095 0
M  V30 2827 H 252.256 -0.652884 -0.12099 0
M  V30 2828 H 254.786 -2.02958 0.258661 0
M  V30 2829 H 254.796 -3.8351 -1.39227 0
M  V30 2830 H 253.471 -4.14932 -0.283581 0
M  V30 2831 H 252.048 -3.22822 -1.86656 0
M  V30 2832 N 254.233 0.115231 -1.57178 0
M  V30 2833 C 255.458 0.840354 -1.89612 0
M  V30 2834 C 255.883 1.72464 -0.750845 0
M  V30 2835 O 255.241 1.78826 0.298478 0
M  V30 2836 C 255.289 1.64654 -3.20814 0
M  V30 2837 O 254.393 2.7538 -3.06985 0
M  V30 2838 H 253.734 0.232158 -0.622092 0
M  V30 2839 H 256.264 0.0964977 -2.04372 0
M  V30 2840 H 256.274 2.03499 -3.53627 0
M  V30 2841 H 254.949 0.997416 -4.03763 0
M  V30 2842 H 253.526 2.3971 -2.85646 0
M  V30 2843 N 255.711 1.52812 0.385517 0
M  V30 2844 C 256.641 1.80808 1.47752 0
M  V30 2845 C 257.622 0.660318 1.5676 0
M  V30 2846 O 258.807 0.908246 1.71652 0
M  V30 2847 C 255.937 1.98008 2.85324 0
M  V30 2848 C 254.891 3.13709 2.91154 0
M  V30 2849 C 254.217 3.16169 4.31209 0
M  V30 2850 C 255.517 4.52709 2.60483 0
M  V30 2851 H 257.211 2.72253 1.24573 0
M  V30 2852 H 254.757 1.31003 0.597839 0
M  V30 2853 H 256.71 2.16176 3.61726 0
M  V30 2854 H 255.434 1.03255 3.09848 0
M  V30 2855 H 254.093 2.95329 2.17201 0
M  V30 2856 H 253.741 2.19092 4.52778 0
M  V30 2857 H 253.441 3.93894 4.36029 0
M  V30 2858 H 254.965 3.36496 5.09512 0
M  V30 2859 H 256.379 4.71173 3.26602 0
M  V30 2860 H 254.776 5.32528 2.76648 0
M  V30 2861 H 255.846 4.59186 1.55809 0
M  V30 2862 N 257.189 -0.644168 1.43834 0
M  V30 2863 C 258.438 -1.39985 1.45214 0
M  V30 2864 C 258.751 -1.95421 0.0835494 0
M  V30 2865 O 259.957 -2.71488 -0.0251748 0
M  V30 2866 C 258.413 -2.53384 2.55587 0
M  V30 2867 C 258.021 -2.04517 3.98594 0
M  V30 2868 C 259.765 -3.30685 2.66172 0
M  V30 2869 C 257.672 -3.1518 5.00416 0
M  V30 2870 H 256.602 -0.526005 0.540218 0
M  V30 2871 H 259.253 -0.694367 1.69855 0
M  V30 2872 H 257.635 -3.26446 2.24163 0
M  V30 2873 H 258.809 -1.38405 4.39523 0
M  V30 2874 H 257.124 -1.40068 3.92135 0
M  V30 2875 H 259.721 -4.13158 3.39418 0
M  V30 2876 H 260.064 -3.79312 1.71546 0
M  V30 2877 H 260.597 -2.64708 2.96942 0
M  V30 2878 H 257.336 -2.71511 5.96625 0
M  V30 2879 H 256.856 -3.79974 4.64091 0
M  V30 2880 H 258.535 -3.80166 5.23529 0
M  V30 2881 N 258.668 -1.30515 -0.883378 0
M  V30 2882 C 259.893 -1.22487 -1.67367 0
M  V30 2883 C 260.318 0.208767 -1.86938 0
M  V30 2884 O 259.676 1.15015 -1.40148 0
M  V30 2885 C 259.724 -1.96041 -3.02655 0
M  V30 2886 O 258.828 -1.28859 -3.91751 0
M  V30 2887 H 258.169 -0.423573 -0.511353 0
M  V30 2888 H 260.699 -1.72362 -1.10239 0
M  V30 2889 H 260.709 -2.05124 -3.52687 0
M  V30 2890 H 259.384 -3.00307 -2.8773 0
M  V30 2891 H 257.961 -1.28141 -3.50192 0
M  V30 2892 N 260.146 1.09593 -1.13257 0
M  V30 2893 C 261.371 1.8604 -0.916732 0
M  V30 2894 C 261.796 1.80504 0.529146 0
M  V30 2895 O 261.154 1.18127 1.37534 0
M  V30 2896 C 261.202 3.32017 -1.40703 0
M  V30 2897 O 260.306 4.08141 -0.591153 0
M  V30 2898 H 259.647 0.576943 -0.328683 0
M  V30 2899 H 262.177 1.38405 -1.50682 0
M  V30 2900 H 262.187 3.82865 -1.4099 0
M  V30 2901 H 260.862 3.35361 -2.45979 0
M  V30 2902 H 259.439 3.67084 -0.656005 0
M  V30 2903 N 261.624 0.925811 1.2754 0
M  V30 2904 C 262.871 0.565255 1.94451 0
M  V30 2905 C 263.199 -0.89316 1.7278 0
M  V30 2906 O 262.454 -1.65213 1.04895 0
M  V30 2907 C 262.753 0.835296 3.47502 0
M  V30 2908 C 262.419 2.27515 3.89291 0
M  V30 2909 C 261.081 2.66879 4.00411 0
M  V30 2910 C 263.433 3.21158 4.10496 0
M  V30 2911 C 260.761 3.99014 4.30122 0
M  V30 2912 C 263.113 4.52871 4.4169 0
M  V30 2913 C 261.777 4.92072 4.51023 0
M  V30 2914 H 261.047 0.206841 0.711546 0
M  V30 2915 H 263.694 1.16942 1.51647 0
M  V30 2916 H 261.999 0.148442 3.91519 0
M  V30 2917 H 263.696 0.535322 3.97411 0
M  V30 2918 H 260.286 1.95976 3.81171 0
M  V30 2919 H 264.47 2.9195 4.01346 0
M  V30 2920 H 259.726 4.2907 4.35556 0
M  V30 2921 H 263.9 5.25436 4.57045 0
M  V30 2922 H 261.527 5.9449 4.738 0
M  V30 2923 N 263.102 -1.41638 0.69111 0
M  V30 2924 C 264.513 -1.84346 0.295517 0
M  V30 2925 C 264.864 -1.57833 -1.16547 0
M  V30 2926 O 263.989 -1.04648 -1.89414 0
M  V30 2927 C 264.584 -3.34636 0.529575 0
M  V30 2928 C 263.143 -3.7593 0.187944 0
M  V30 2929 C 262.29 -2.65082 0.814052 0
M  V30 2930 H 265.241 -1.31253 0.892092 0
M  V30 2931 H 265.262 -3.79903 -0.213148 0
M  V30 2932 H 264.774 -3.53901 1.59297 0
M  V30 2933 H 262.875 -3.62268 -0.871367 0
M  V30 2934 H 262.988 -4.74808 0.63985 0
M  V30 2935 H 261.352 -2.53528 0.244017 0
M  V30 2936 H 262.135 -2.87167 1.88123 0
M  V30 2937 N 264.58 -0.43555 -1.51462 0
M  V30 2938 C 265.51 0.367376 -2.30592 0
M  V30 2939 C 266.491 1.02263 -1.35928 0
M  V30 2940 O 267.676 1.02661 -1.64847 0
M  V30 2941 C 264.806 1.46983 -3.14664 0
M  V30 2942 C 263.76 0.938161 -4.17591 0
M  V30 2943 C 263.086 2.13622 -4.90173 0
M  V30 2944 C 264.386 -0.0261621 -5.22293 0
M  V30 2945 H 266.08 -0.292969 -2.97963 0
M  V30 2946 H 263.626 -0.14234 -1.43295 0
M  V30 2947 H 265.579 2.03873 -3.688 0
M  V30 2948 H 264.303 2.15843 -2.4511 0
M  V30 2949 H 262.962 0.391481 -3.64504 0
M  V30 2950 H 262.61 2.81098 -4.17124 0
M  V30 2951 H 262.31 1.78688 -5.59772 0
M  V30 2952 H 263.834 2.7107 -5.47132 0
M  V30 2953 H 265.248 0.452384 -5.71512 0
M  V30 2954 H 263.645 -0.287992 -5.99409 0
M  V30 2955 H 264.715 -0.963391 -4.75233 0
M  V30 2956 N 266.058 1.56714 -0.166846 0
M  V30 2957 C 266.988 2.20754 0.760913 0
M  V30 2958 C 267.969 1.16178 1.24244 0
M  V30 2959 O 269.154 1.44592 1.29641 0
M  V30 2960 C 266.284 2.84478 1.99223 0
M  V30 2961 C 265.238 3.95053 1.64672 0
M  V30 2962 C 264.564 4.45805 2.95232 0
M  V30 2963 C 265.864 5.14865 0.878155 0
M  V30 2964 H 267.558 2.98537 0.22713 0
M  V30 2965 H 265.104 1.43596 0.107805 0
M  V30 2966 H 267.057 3.27951 2.64624 0
M  V30 2967 H 265.781 2.04056 2.55007 0
M  V30 2968 H 264.44 3.52228 1.01641 0
M  V30 2969 H 264.088 3.62181 3.49047 0
M  V30 2970 H 263.788 5.204 2.7287 0
M  V30 2971 H 265.312 4.91962 3.6167 0
M  V30 2972 H 266.726 5.55059 1.43466 0
M  V30 2973 H 265.123 5.95348 0.753738 0
M  V30 2974 H 266.193 4.84735 -0.126377 0
M  V30 2975 N 267.536 -0.106894 1.57237 0
M  V30 2976 C 268.483 -1.13049 2.01217 0
M  V30 2977 C 269.453 -1.40471 0.886403 0
M  V30 2978 O 270.638 -1.52133 1.15153 0
M  V30 2979 C 267.778 -2.4487 2.43172 0
M  V30 2980 C 266.891 -2.24281 3.69218 0
M  V30 2981 C 266.026 -3.49417 4.00101 0
M  V30 2982 C 265.065 -3.24038 5.19294 0
M  V30 2983 N 264.202 -4.41409 5.45988 0
M  V30 2984 H 269.042 -0.748456 2.88448 0
M  V30 2985 H 266.579 -0.358054 1.42676 0
M  V30 2986 H 268.537 -3.21786 2.65537 0
M  V30 2987 H 267.167 -2.80944 1.58967 0
M  V30 2988 H 266.219 -1.38224 3.54398 0
M  V30 2989 H 267.531 -2.01512 4.56283 0
M  V30 2990 H 266.685 -4.34746 4.2318 0
M  V30 2991 H 265.424 -3.75229 3.11535 0
M  V30 2992 H 264.429 -2.37102 4.96047 0
M  V30 2993 H 265.654 -2.99584 6.09447 0
M  V30 2994 H 263.6 -4.67319 4.60379 0
M  V30 2995 H 263.517 -4.21788 6.274 0
M  V30 2996 H 264.785 -5.27836 5.73593 0
M  V30 2997 N 269.014 -1.53014 -0.377408 0
M  V30 2998 C 269.977 -1.77957 -1.44444 0
M  V30 2999 C 270.977 -0.649763 -1.47087 0
M  V30 3000 O 272.167 -0.917897 -1.48055 0
M  V30 3001 C 269.299 -1.89089 -2.83651 0
M  V30 3002 H 270.492 -2.73243 -1.23606 0
M  V30 3003 H 268.045 -1.43912 -0.609844 0
M  V30 3004 H 268.78 -0.958293 -3.09818 0
M  V30 3005 H 268.565 -2.71254 -2.83132 0
M  V30 3006 H 270.055 -2.1002 -3.60945 0
M  V30 3007 N 270.492 0.636531 -1.44174 0
M  V30 3008 C 271.422 1.76003 -1.53444 0
M  V30 3009 C 272.403 1.65619 -0.387841 0
M  V30 3010 O 273.588 1.84461 -0.607257 0
M  V30 3011 C 270.718 3.14511 -1.4731 0
M  V30 3012 C 269.672 3.39677 -2.60391 0
M  V30 3013 C 268.998 4.78159 -2.39308 0
M  V30 3014 C 270.298 3.32772 -4.02567 0
M  V30 3015 H 271.992 1.68501 -2.47483 0
M  V30 3016 H 269.538 0.809237 -1.19111 0
M  V30 3017 H 271.491 3.92878 -1.52397 0
M  V30 3018 H 270.215 3.22783 -0.49785 0
M  V30 3019 H 268.874 2.63688 -2.54684 0
M  V30 3020 H 268.522 4.83128 -1.39988 0
M  V30 3021 H 268.222 4.95956 -3.15122 0
M  V30 3022 H 269.746 5.58762 -2.46205 0
M  V30 3023 H 271.16 4.01051 -4.09672 0
M  V30 3024 H 269.557 3.62104 -4.7854 0
M  V30 3025 H 270.627 2.30669 -4.2652 0
M  V30 3026 N 271.97 1.30982 0.876444 0
M  V30 3027 C 272.917 1.18085 1.98304 0
M  V30 3028 C 273.887 0.0682263 1.6596 0
M  V30 3029 O 275.072 0.239937 1.89285 0
M  V30 3030 C 272.212 0.887475 3.33493 0
M  V30 3031 C 271.325 2.08281 3.78475 0
M  V30 3032 C 270.46 1.72678 5.0235 0
M  V30 3033 C 269.499 2.88657 5.39762 0
M  V30 3034 N 268.636 2.53292 6.54819 0
M  V30 3035 H 273.476 2.1275 2.08666 0
M  V30 3036 H 271.013 1.05839 1.02159 0
M  V30 3037 H 272.971 0.697961 4.1132 0
M  V30 3038 H 271.601 -0.022315 3.22792 0
M  V30 3039 H 270.653 2.3833 2.96484 0
M  V30 3040 H 271.965 2.95108 4.02135 0
M  V30 3041 H 271.119 1.50151 5.87826 0
M  V30 3042 H 269.858 0.830327 4.8058 0
M  V30 3043 H 268.863 3.1184 4.52809 0
M  V30 3044 H 270.088 3.79002 5.63502 0
M  V30 3045 H 268.034 1.66163 6.34607 0
M  V30 3046 H 267.951 3.3365 6.7839 0
M  V30 3047 H 269.219 2.34143 7.43503 0
M  V30 3048 N 273.449 -1.08991 1.13837 0
M  V30 3049 C 274.677 -1.85011 0.926202 0
M  V30 3050 C 275.092 -1.8135 -0.525127 0
M  V30 3051 O 274.449 -1.21287 -1.36366 0
M  V30 3052 C 274.5 -3.32802 1.41155 0
M  V30 3053 O 274.221 -3.36444 2.80601 0
M  V30 3054 C 275.722 -4.25649 1.23847 0
M  V30 3055 H 272.942 -0.584249 0.32999 0
M  V30 3056 H 275.486 -1.37688 1.51202 0
M  V30 3057 H 273.641 -3.77536 0.868631 0
M  V30 3058 H 274.055 -4.28657 3.02248 0
M  V30 3059 H 275.529 -5.27485 1.62675 0
M  V30 3060 H 276.006 -4.38828 0.18065 0
M  V30 3061 H 276.612 -3.86735 1.76964 0
M  V30 3062 N 274.927 -0.932562 -1.27047 0
M  V30 3063 C 276.343 -0.633544 -1.46487 0
M  V30 3064 C 276.543 0.815746 -1.84249 0
M  V30 3065 O 275.599 1.59319 -1.95892 0
M  V30 3066 C 276.912 -1.58758 -2.55375 0
M  V30 3067 C 278.46 -1.59634 -2.69232 0
M  V30 3068 C 278.935 -2.53747 -3.81283 0
M  V30 3069 N 280.426 -2.51982 -3.88664 0
M  V30 3070 C 281.161 -3.21491 -4.74796 0
M  V30 3071 N 280.657 -4.00395 -5.65381 0
M  V30 3072 N 282.45 -3.10485 -4.68568 0
M  V30 3073 H 274.601 -1.86946 -1.00821 0
M  V30 3074 H 276.864 -0.802897 -0.504044 0
M  V30 3075 H 276.57 -2.62172 -2.34432 0
M  V30 3076 H 276.444 -1.33301 -3.52861 0
M  V30 3077 H 278.831 -0.569488 -2.89553 0
M  V30 3078 H 278.912 -1.89142 -1.72218 0
M  V30 3079 H 278.556 -3.56545 -3.61715 0
M  V30 3080 H 278.486 -2.21532 -4.77735 0
M  V30 3081 H 280.977 -1.94681 -3.23895 0
M  V30 3082 H 281.29 -4.50406 -6.27976 0
M  V30 3083 H 279.635 -4.04498 -5.65161 0
M  V30 3084 H 282.826 -2.48331 -3.96799 0
M  V30 3085 H 282.999 -3.64925 -5.35475 0
M  V30 3086 N 276.405 1.4127 -0.698611 0
M  V30 3087 C 277.654 2.00408 -0.227949 0
M  V30 3088 C 277.967 1.55981 1.18023 0
M  V30 3089 O 279.173 2.07699 1.74852 0
M  V30 3090 C 277.629 3.58129 -0.356636 0
M  V30 3091 C 277.237 4.11536 -1.77037 0
M  V30 3092 C 278.981 4.24466 0.0540969 0
M  V30 3093 C 276.888 5.61701 -1.85055 0
M  V30 3094 H 275.818 0.749586 -0.0814657 0
M  V30 3095 H 278.469 1.61713 -0.867249 0
M  V30 3096 H 276.851 3.94442 0.350965 0
M  V30 3097 H 278.025 3.86636 -2.50698 0
M  V30 3098 H 276.34 3.57736 -2.13105 0
M  V30 3099 H 278.937 5.34698 0.0146723 0
M  V30 3100 H 279.28 4.01687 1.09332 0
M  V30 3101 H 279.813 3.93198 -0.603337 0
M  V30 3102 H 276.552 5.89312 -2.8704 0
M  V30 3103 H 276.072 5.88519 -1.15783 0
M  V30 3104 H 277.751 6.26524 -1.61484 0
M  V30 3105 N 277.883 0.443576 1.51229 0
M  V30 3106 C 279.108 -0.121648 2.07043 0
M  V30 3107 C 279.533 -1.35156 1.30823 0
M  V30 3108 O 278.891 -1.7793 0.347934 0
M  V30 3109 C 278.939 -0.41624 3.5819 0
M  V30 3110 O 278.043 -1.50163 3.8409 0
M  V30 3111 H 277.384 0.000871367 0.663999 0
M  V30 3112 H 279.914 0.626706 1.94765 0
M  V30 3113 H 279.924 -0.664867 4.02546 0
M  V30 3114 H 278.599 0.482653 4.1309 0
M  V30 3115 H 277.176 -1.24248 3.51592 0
M  V30 3116 N 279.361 -1.56624 0.175154 0
M  V30 3117 C 280.309 -2.19468 -0.770495 0
M  V30 3118 C 281.303 -1.15985 -1.23466 0
M  V30 3119 O 282.509 -1.34176 -1.19987 0
M  V30 3120 H 278.884 -0.703095 -0.266761 0
M  V30 3121 H 280.855 -2.97613 -0.216542 0
M  V30 3122 C 279.604 -2.85264 -1.98796 0
M  V30 3123 H 278.927 -3.64623 -1.63983 0
M  V30 3124 H 280.367 -3.327 -2.62843 0
M  V30 3125 C 278.826 -1.85239 -2.81404 0
M  V30 3126 O 279.356 -1.34024 -3.78682 0
M  V30 3127 N 277.562 -1.53911 -2.46495 0
M  V30 3128 H 277.109 -1.95751 -1.67449 0
M  V30 3129 H 277.067 -0.872382 -3.02054 0
M  V30 3130 N 280.839 0.0985539 -1.57292 0
M  V30 3131 C 281.769 1.12064 -2.04851 0
M  V30 3132 C 282.75 1.41981 -0.936767 0
M  V30 3133 O 283.935 1.52071 -1.20781 0
M  V30 3134 C 281.065 2.44144 -2.47004 0
M  V30 3135 C 280.019 2.28643 -3.6181 0
M  V30 3136 C 279.345 3.65869 -3.89929 0
M  V30 3137 C 280.645 1.72986 -4.92822 0
M  V30 3138 H 282.339 0.724979 -2.9049 0
M  V30 3139 H 279.885 0.34729 -1.39749 0
M  V30 3140 H 281.838 3.15914 -2.78884 0
M  V30 3141 H 280.562 2.85639 -1.5836 0
M  V30 3142 H 279.221 1.59318 -3.30172 0
M  V30 3143 H 278.869 4.04885 -2.98458 0
M  V30 3144 H 278.569 3.56344 -4.67218 0
M  V30 3145 H 280.093 4.39112 -4.2428 0
M  V30 3146 H 281.507 2.34593 -5.23105 0
M  V30 3147 H 279.904 1.74229 -5.74251 0
M  V30 3148 H 280.974 0.689007 -4.7998 0
M  V30 3149 N 282.317 1.53212 0.369288 0
M  V30 3150 C 283.728 1.60943 0.946276 0
M  V30 3151 C 284.079 0.47452 1.90375 0
M  V30 3152 O 283.204 -0.399597 2.12679 0
M  V30 3153 C 283.799 2.91715 1.72302 0
M  V30 3154 C 282.358 3.01792 2.24941 0
M  V30 3155 C 281.505 2.56211 1.06072 0
M  V30 3156 H 284.456 1.58007 0.148198 0
M  V30 3157 H 284.477 2.79309 2.58393 0
M  V30 3158 H 283.989 3.74295 1.0259 0
M  V30 3159 H 282.09 2.23791 2.97906 0
M  V30 3160 H 282.203 4.06803 2.53077 0
M  V30 3161 H 280.567 2.10998 1.4266 0
M  V30 3162 H 281.35 3.41206 0.378639 0
M  V30 3163 N 283.795 -0.628877 1.44509 0
M  V30 3164 C 285.023 -1.41554 1.50897 0
M  V30 3165 C 285.438 -1.8832 0.134564 0
M  V30 3166 O 284.795 -1.60969 -0.859965 0
M  V30 3167 C 284.846 -2.63435 2.47556 0
M  V30 3168 O 284.567 -2.18619 3.79654 0
M  V30 3169 C 286.068 -3.56537 2.63431 0
M  V30 3170 H 283.288 -0.434044 0.511709 0
M  V30 3171 H 285.832 -0.768895 1.89495 0
M  V30 3172 H 283.987 -3.24187 2.12089 0
M  V30 3173 H 284.401 -2.97652 4.31861 0
M  V30 3174 H 285.875 -4.38657 3.35088 0
M  V30 3175 H 286.352 -4.05493 1.68738 0
M  V30 3176 H 286.958 -3.01653 2.9981 0
M  V30 3177 N 285.273 -1.31445 -0.869486 0
M  V30 3178 C 286.519 -1.21337 -1.62496 0
M  V30 3179 C 286.852 0.227872 -1.92858 0
M  V30 3180 O 286.127 1.16094 -1.56053 0
M  V30 3181 C 286.41 -2.05814 -2.95487 0
M  V30 3182 C 286.263 -3.5824 -2.72 0
M  V30 3183 C 287.582 -1.9079 -3.96594 0
M  V30 3184 H 284.701 -0.442135 -0.589649 0
M  V30 3185 H 287.343 -1.6124 -1.00507 0
M  V30 3186 H 285.493 -1.71913 -3.48394 0
M  V30 3187 H 287.165 -4.0228 -2.25762 0
M  V30 3188 H 285.408 -3.81647 -2.06224 0
M  V30 3189 H 286.079 -4.12657 -3.66631 0
M  V30 3190 H 288.555 -2.20459 -3.52898 0
M  V30 3191 H 287.431 -2.52199 -4.87531 0
M  V30 3192 H 287.692 -0.871341 -4.33428 0
M  V30 3193 N 286.751 1.08385 -1.14413 0
M  V30 3194 C 287.698 2.15311 -0.831265 0
M  V30 3195 C 288.668 1.64751 0.211292 0
M  V30 3196 O 289.853 1.90627 0.0811674 0
M  V30 3197 C 286.993 3.43658 -0.315143 0
M  V30 3198 C 286.106 4.08064 -1.41802 0
M  V30 3199 C 285.241 5.24207 -0.859126 0
M  V30 3200 C 284.28 5.80554 -1.93967 0
M  V30 3201 N 283.417 6.88042 -1.39793 0
M  V30 3202 H 288.257 2.41415 -1.74708 0
M  V30 3203 H 285.794 1.18474 -0.871909 0
M  V30 3204 H 287.752 4.172 0.00230884 0
M  V30 3205 H 286.382 3.17839 0.56378 0
M  V30 3206 H 285.434 3.3228 -1.85187 0
M  V30 3207 H 286.746 4.45962 -2.23427 0
M  V30 3208 H 285.9 6.04689 -0.49359 0
M  V30 3209 H 284.639 4.87699 -0.011932 0
M  V30 3210 H 283.644 4.98725 -2.31415 0
M  V30 3211 H 284.869 6.19121 -2.79046 0
M  V30 3212 H 282.815 6.53493 -0.572919 0
M  V30 3213 H 282.732 7.24767 -2.15054 0
M  V30 3214 H 284 7.72255 -1.0603 0
M  V30 3215 N 288.23 0.939286 1.26551 0
M  V30 3216 C 289.177 0.446088 2.26448 0
M  V30 3217 C 290.147 -0.493234 1.58608 0
M  V30 3218 O 291.332 -0.409857 1.86346 0
M  V30 3219 C 288.472 -0.284375 3.43926 0
M  V30 3220 C 287.585 0.690399 4.26448 0
M  V30 3221 C 286.72 -0.0610712 5.31165 0
M  V30 3222 C 285.759 0.905649 6.05363 0
M  V30 3223 N 284.896 0.186055 7.01853 0
M  V30 3224 H 289.736 1.30291 2.68008 0
M  V30 3225 H 287.273 0.65371 1.31776 0
M  V30 3226 H 289.231 -0.724313 4.10864 0
M  V30 3227 H 287.861 -1.10535 3.03285 0
M  V30 3228 H 286.913 1.24885 3.59316 0
M  V30 3229 H 288.225 1.42873 4.779 0
M  V30 3230 H 287.379 -0.56038 6.04106 0
M  V30 3231 H 286.118 -0.832297 4.80546 0
M  V30 3232 H 285.123 1.4161 5.3125 0
M  V30 3233 H 286.348 1.67685 6.58072 0
M  V30 3234 H 284.294 -0.566714 6.53548 0
M  V30 3235 H 284.211 0.863752 7.51049 0
M  V30 3236 H 285.479 -0.292221 7.78952 0
M  V30 3237 N 289.708 -1.40897 0.706093 0
M  V30 3238 C 290.955 -2.01054 0.241531 0
M  V30 3239 C 291.283 -1.55956 -1.16223 0
M  V30 3240 O 290.538 -0.766336 -1.80072 0
M  V30 3241 C 290.837 -3.5646 0.259099 0
M  V30 3242 C 290.503 -4.21106 1.61184 0
M  V30 3243 C 289.165 -4.38479 1.98216 0
M  V30 3244 C 291.517 -4.57256 2.50132 0
M  V30 3245 C 288.845 -4.89282 3.2376 0
M  V30 3246 C 291.197 -5.09454 3.7502 0
M  V30 3247 C 289.861 -5.25037 4.12181 0
M  V30 3248 H 289.131 -0.73571 0.0883825 0
M  V30 3249 H 291.778 -1.68645 0.907257 0
M  V30 3250 H 290.083 -3.88721 -0.490189 0
M  V30 3251 H 291.78 -4.00826 -0.11804 0
M  V30 3252 H 288.37 -4.07966 1.31384 0
M  V30 3253 H 292.554 -4.43479 2.228 0
M  V30 3254 H 287.81 -4.99531 3.52532 0
M  V30 3255 H 291.984 -5.36404 4.44121 0
M  V30 3256 H 289.611 -5.64164 5.09532 0
M  V30 3257 N 291.186 -0.45159 -1.50991 0
M  V30 3258 C 292.116 0.342898 -2.30969 0
M  V30 3259 C 293.097 1.00815 -1.37005 0
M  V30 3260 O 294.282 1.00907 -1.65926 0
M  V30 3261 C 291.412 1.43637 -3.16205 0
M  V30 3262 C 290.366 0.893818 -4.18563 0
M  V30 3263 C 289.692 2.08411 -4.92411 0
M  V30 3264 C 290.992 -0.0815568 -5.22236 0
M  V30 3265 H 292.686 -0.324556 -2.97636 0
M  V30 3266 H 290.232 -0.157531 -1.43136 0
M  V30 3267 H 292.185 1.9995 -3.70942 0
M  V30 3268 H 290.909 2.13232 -2.47386 0
M  V30 3269 H 289.568 0.352798 -3.64898 0
M  V30 3270 H 289.216 2.76658 -4.20082 0
M  V30 3271 H 288.916 1.72741 -5.61636 0
M  V30 3272 H 290.44 2.65251 -5.49976 0
M  V30 3273 H 291.854 0.391742 -5.7196 0
M  V30 3274 H 290.251 -0.351551 -5.99069 0
M  V30 3275 H 291.321 -1.01374 -4.74185 0
M  V30 3276 N 292.664 1.56529 -0.183458 0
M  V30 3277 C 293.596 2.15747 0.773697 0
M  V30 3278 C 294.609 1.1162 1.1851 0
M  V30 3279 O 295.798 1.3876 1.12285 0
M  V30 3280 C 292.898 2.6952 2.05456 0
M  V30 3281 C 292.071 3.98429 1.8048 0
M  V30 3282 C 291.13 4.37145 2.92901 0
M  V30 3283 O 290.156 5.04791 2.6301 0
M  V30 3284 N 291.358 3.99695 4.2098 0
M  V30 3285 H 294.123 2.98505 0.26736 0
M  V30 3286 H 291.684 1.619 -0.0010878 0
M  V30 3287 H 293.676 2.92412 2.79781 0
M  V30 3288 H 292.246 1.91282 2.47245 0
M  V30 3289 H 291.466 3.8379 0.899947 0
M  V30 3290 H 292.754 4.82597 1.61175 0
M  V30 3291 H 292.152 3.4526 4.48121 0
M  V30 3292 H 290.709 4.27562 4.9197 0
M  V30 3293 N 294.142 -0.090211 1.57342 0
M  V30 3294 C 295.553 -0.644173 1.75235 0
M  V30 3295 C 295.904 -1.78865 0.806335 0
M  V30 3296 O 295.029 -2.16395 -0.0140128 0
M  V30 3297 C 295.624 -1.17532 3.1776 0
M  V30 3298 C 294.183 -1.67531 3.37061 0
M  V30 3299 C 293.33 -0.58693 2.71017 0
M  V30 3300 H 296.281 0.135884 1.58117 0
M  V30 3301 H 296.302 -2.04455 3.20902 0
M  V30 3302 H 295.814 -0.342138 3.86589 0
M  V30 3303 H 293.915 -2.53234 2.73319 0
M  V30 3304 H 294.028 -1.76493 4.45406 0
M  V30 3305 H 292.392 -1.02756 2.33052 0
M  V30 3306 H 293.175 0.235758 3.4249 0
M  V30 3307 N 295.62 -1.53406 -0.361157 0
M  V30 3308 C 296.868 -1.69467 -1.10115 0
M  V30 3309 C 297.189 -0.451352 -1.89705 0
M  V30 3310 O 296.459 0.534636 -1.88463 0
M  V30 3311 H 295.039 -0.624749 -0.409508 0
M  V30 3312 H 297.701 -1.90609 -0.406699 0
M  V30 3313 H 296.797 -2.55774 -1.78847 0
M  V30 3314 N 297.098 0.621204 -1.44841 0
M  V30 3315 C 298.323 1.41244 -1.51871 0
M  V30 3316 C 298.748 1.87519 -0.147764 0
M  V30 3317 O 298.106 1.59334 0.865 0
M  V30 3318 C 298.154 2.60221 -2.49634 0
M  V30 3319 O 297.258 3.60395 -2.00473 0
M  V30 3320 H 296.599 0.42223 -0.512463 0
M  V30 3321 H 299.129 0.757305 -1.90069 0
M  V30 3322 H 299.139 3.0764 -2.67996 0
M  V30 3323 H 297.814 2.25887 -3.4921 0
M  V30 3324 H 296.391 3.19717 -1.91925 0
M  V30 3325 N 298.576 1.31904 0.862503 0
M  V30 3326 C 299.987 1.19803 1.43193 0
M  V30 3327 C 300.338 -0.192567 1.95253 0
M  V30 3328 O 299.463 -1.09081 1.86896 0
M  V30 3329 C 300.058 2.16883 2.60283 0
M  V30 3330 C 298.617 2.08692 3.13248 0
M  V30 3331 C 297.764 2.05691 1.85975 0
M  V30 3332 H 300.715 1.43846 0.670365 0
M  V30 3333 H 300.736 1.76278 3.37204 0
M  V30 3334 H 300.248 3.18083 2.22363 0
M  V30 3335 H 298.349 1.10713 3.55771 0
M  V30 3336 H 298.462 2.9815 3.75025 0
M  V30 3337 H 296.826 1.50814 2.05249 0
M  V30 3338 H 297.609 3.08659 1.50282 0
M  V30 3339 N 300.054 -1.07777 1.14986 0
M  V30 3340 C 301.47 -1.32373 0.891596 0
M  V30 3341 C 301.67 -1.9609 -0.463788 0
M  V30 3342 O 300.726 -2.21801 -1.20667 0
M  V30 3343 C 302.039 -2.21905 2.02925 0
M  V30 3344 C 303.587 -2.35367 2.06329 0
M  V30 3345 C 304.062 -3.28245 3.19405 0
M  V30 3346 N 305.553 -3.35824 3.19024 0
M  V30 3347 C 306.288 -4.07739 4.03158 0
M  V30 3348 N 305.784 -4.82306 4.97346 0
M  V30 3349 N 307.577 -4.03635 3.91197 0
M  V30 3350 H 299.728 -0.648039 2.02273 0
M  V30 3351 H 301.991 -0.348149 0.881757 0
M  V30 3352 H 301.697 -1.82342 3.0074 0
M  V30 3353 H 301.571 -3.22407 1.95789 0
M  V30 3354 H 303.958 -2.74186 1.09116 0
M  V30 3355 H 304.039 -1.34585 2.17533 0
M  V30 3356 H 303.683 -2.90146 4.16867 0
M  V30 3357 H 303.613 -4.28971 3.05437 0
M  V30 3358 H 306.104 -2.8267 2.50811 0
M  V30 3359 H 306.417 -5.34661 5.57994 0
M  V30 3360 H 304.762 -4.81337 5.01338 0
M  V30 3361 H 307.953 -3.44491 3.16928 0
M  V30 3362 H 308.126 -4.59417 4.5699 0
M  V30 3363 N 301.532 -0.945985 -1.26051 0
M  V30 3364 C 302.479 -0.45809 -2.26208 0
M  V30 3365 C 303.449 0.484816 -1.58867 0
M  V30 3366 O 304.634 0.399969 -1.86561 0
M  V30 3367 C 301.774 0.266131 -3.44072 0
M  V30 3368 C 300.887 -0.713005 -4.26075 0
M  V30 3369 C 300.022 0.0329013 -5.3119 0
M  V30 3370 C 299.061 -0.93774 -6.04874 0
M  V30 3371 N 298.198 -0.223274 -7.01745 0
M  V30 3372 H 303.038 -1.3171 -2.67313 0
M  V30 3373 H 300.575 -0.66069 -1.31428 0
M  V30 3374 H 302.533 0.702514 -4.11243 0
M  V30 3375 H 301.163 1.08925 -3.03867 0
M  V30 3376 H 300.215 -1.26789 -3.58648 0
M  V30 3377 H 301.527 -1.45406 -4.77136 0
M  V30 3378 H 300.681 0.528335 -6.04395 0
M  V30 3379 H 299.42 0.806801 -4.8098 0
M  V30 3380 H 298.425 -1.44425 -5.30492 0
M  V30 3381 H 299.65 -1.71172 -6.57173 0
M  V30 3382 H 297.596 0.532046 -6.53839 0
M  V30 3383 H 297.513 -0.90357 -7.50581 0
M  V30 3384 H 298.781 0.250907 -7.79096 0
M  V30 3385 N 303.011 1.40521 -0.713556 0
M  V30 3386 C 304.422 1.83853 -0.324807 0
M  V30 3387 C 304.773 1.59667 1.14021 0
M  V30 3388 O 303.898 1.07649 1.87725 0
M  V30 3389 C 304.493 3.33751 -0.582746 0
M  V30 3390 C 303.052 3.75584 -0.247727 0
M  V30 3391 C 302.199 2.63753 -0.856121 0
M  V30 3392 H 305.15 1.29817 -0.91286 0
M  V30 3393 H 305.171 3.80194 0.152682 0
M  V30 3394 H 304.683 3.51322 -1.64908 0
M  V30 3395 H 302.784 3.63608 0.813624 0
M  V30 3396 H 302.897 4.7373 -0.715307 0
M  V30 3397 H 301.261 2.53108 -0.28432 0
M  V30 3398 H 302.044 2.84137 -1.92668 0
M  V30 3399 N 304.489 0.459591 1.5075 0
M  V30 3400 C 305.9 0.00171547 1.867 0
M  V30 3401 C 306.251 -1.39934 1.37525 0
M  V30 3402 O 305.376 -2.03523 0.735349 0
M  V30 3403 C 305.971 -0.00366298 3.388 0
M  V30 3404 C 304.53 -0.406026 3.74204 0
M  V30 3405 C 303.677 0.38673 2.7459 0
M  V30 3406 H 306.628 0.674413 1.43657 0
M  V30 3407 H 306.649 -0.808371 3.71814 0
M  V30 3408 H 306.161 1.01617 3.74561 0
M  V30 3409 H 304.262 -1.43063 3.4404 0
M  V30 3410 H 304.375 -0.115362 4.78961 0
M  V30 3411 H 302.739 -0.158019 2.54209 0
M  V30 3412 H 303.522 1.40585 3.13194 0
M  V30 3413 N 305.967 -1.56429 0.191757 0
M  V30 3414 C 306.9 -2.14829 -0.76967 0
M  V30 3415 C 307.878 -1.08405 -1.2119 0
M  V30 3416 O 309.062 -1.36498 -1.30002 0
M  V30 3417 C 306.189 -2.70446 -2.03903 0
M  V30 3418 C 305.235 -3.89428 -1.7392 0
M  V30 3419 S 306.068 -5.28048 -0.890265 0
M  V30 3420 C 307.224 -5.87085 -2.16984 0
M  V30 3421 H 307.457 -2.96042 -0.273204 0
M  V30 3422 H 304.99 -1.54383 -0.0231975 0
M  V30 3423 H 306.948 -3.03134 -2.76803 0
M  V30 3424 H 305.609 -1.89281 -2.50662 0
M  V30 3425 H 304.802 -4.26742 -2.68155 0
M  V30 3426 H 304.404 -3.57732 -1.09103 0
M  V30 3427 H 306.696 -6.01244 -3.12269 0
M  V30 3428 H 307.639 -6.83747 -1.84108 0
M  V30 3429 H 308.047 -5.15663 -2.29678 0
M  V30 3430 N 307.445 0.0818655 -1.57387 0
M  V30 3431 C 308.722 0.815343 -1.77796 0
M  V30 3432 C 309.102 1.96289 -0.77679 0
M  V30 3433 O 308.45 2.27691 0.192106 0
M  V30 3434 C 308.66 1.29765 -3.23978 0
M  V30 3435 C 310.008 1.7351 -3.8753 0
M  V30 3436 O 311.032 1.39356 -3.27808 0
M  V30 3437 O 309.891 2.36708 -4.92576 0
M  V30 3438 H 306.985 0.389914 -0.729312 0
M  V30 3439 H 309.531 0.0627213 -1.69584 0
M  V30 3440 H 308.303 0.47608 -3.88393 0
M  V30 3441 H 307.926 2.11189 -3.36875 0
M  V30 3442 N 308.923 1.53595 0.353017 0
M  V30 3443 C 309.833 1.83897 1.45667 0
M  V30 3444 C 310.849 0.728334 1.58023 0
M  V30 3445 O 312.025 1.01968 1.73679 0
M  V30 3446 C 309.09 2.03383 2.80778 0
M  V30 3447 C 308.151 3.27262 2.77845 0
M  V30 3448 C 307.384 3.45809 4.06512 0
M  V30 3449 O 307.607 2.68387 5.03314 0
M  V30 3450 O 306.541 4.39207 4.11559 0
M  V30 3451 H 310.367 2.77686 1.2298 0
M  V30 3452 H 307.952 1.39132 0.544308 0
M  V30 3453 H 309.834 2.17698 3.60812 0
M  V30 3454 H 308.509 1.12783 3.03417 0
M  V30 3455 H 307.416 3.18359 1.96465 0
M  V30 3456 H 308.749 4.17824 2.60161 0
M  V30 3457 N 310.401 -0.613514 1.45168 0
M  V30 3458 C 311.348 -1.72456 1.53387 0
M  V30 3459 C 312.318 -1.6169 0.380191 0
M  V30 3460 O 313.503 -1.81356 0.592836 0
M  V30 3461 C 310.643 -3.10753 1.50088 0
M  V30 3462 C 309.756 -3.32368 2.75963 0
M  V30 3463 C 308.891 -4.60737 2.64376 0
M  V30 3464 C 307.93 -4.7559 3.85332 0
M  V30 3465 N 307.067 -5.95253 3.72315 0
M  V30 3466 H 311.907 -1.64768 2.48305 0
M  V30 3467 H 309.444 -0.803503 1.23216 0
M  V30 3468 H 311.402 -3.90758 1.46164 0
M  V30 3469 H 310.032 -3.17413 0.587243 0
M  V30 3470 H 309.084 -2.4618 2.89999 0
M  V30 3471 H 310.396 -3.39218 3.65695 0
M  V30 3472 H 309.55 -5.48928 2.58385 0
M  V30 3473 H 308.289 -4.56275 1.72233 0
M  V30 3474 H 307.294 -3.85824 3.91688 0
M  V30 3475 H 308.519 -4.81854 4.78533 0
M  V30 3476 H 306.465 -5.91847 2.82937 0
M  V30 3477 H 306.382 -6.03236 4.55677 0
M  V30 3478 H 307.65 -6.85958 3.70246 0
M  V30 3479 N 311.879 -1.3236 -0.855495 0
M  V30 3480 C 313.104 -1.2601 -1.64731 0
M  V30 3481 C 313.529 0.169068 -1.87339 0
M  V30 3482 O 312.887 1.12016 -1.42556 0
M  V30 3483 C 312.935 -2.02417 -2.98429 0
M  V30 3484 O 312.039 -1.3714 -3.8893 0
M  V30 3485 H 311.38 -0.434325 -0.502253 0
M  V30 3486 H 313.91 -1.74661 -1.06558 0
M  V30 3487 H 313.92 -2.12559 -3.48257 0
M  V30 3488 H 312.595 -3.06343 -2.81295 0
M  V30 3489 H 311.172 -1.3554 -3.47395 0
M  V30 3490 N 313.357 1.07166 -1.15556 0
M  V30 3491 C 314.287 2.16403 -0.877046 0
M  V30 3492 C 315.268 1.69217 0.173111 0
M  V30 3493 O 316.453 1.94181 0.027084 0
M  V30 3494 C 313.583 3.45349 -0.367632 0
M  V30 3495 C 312.537 4.05995 -1.35468 0
M  V30 3496 C 311.863 5.30045 -0.704038 0
M  V30 3497 C 313.163 4.45804 -2.72132 0
M  V30 3498 H 314.857 2.39959 -1.79053 0
M  V30 3499 H 312.403 1.15325 -0.862331 0
M  V30 3500 H 314.356 4.21095 -0.160317 0
M  V30 3501 H 313.08 3.21385 0.581326 0
M  V30 3502 H 311.739 3.32296 -1.54839 0
M  V30 3503 H 311.387 5.02373 0.251128 0
M  V30 3504 H 311.087 5.71579 -1.36277 0
M  V30 3505 H 312.611 6.08495 -0.50654 0
M  V30 3506 H 314.025 5.12671 -2.56595 0
M  V30 3507 H 312.422 4.98296 -3.34397 0
M  V30 3508 H 313.492 3.57083 -3.28054 0
M  V30 3509 N 314.835 0.952656 1.25548 0
M  V30 3510 C 315.745 0.47782 2.29682 0
M  V30 3511 C 316.761 -0.453859 1.67977 0
M  V30 3512 O 317.937 -0.330587 1.98668 0
M  V30 3513 C 315.002 -0.238655 3.45878 0
M  V30 3514 C 314.063 0.730994 4.23031 0
M  V30 3515 C 313.296 0.0486165 5.33678 0
M  V30 3516 O 313.519 -1.16612 5.58353 0
M  V30 3517 O 312.453 0.733152 5.97418 0
M  V30 3518 H 316.279 1.34312 2.72386 0
M  V30 3519 H 313.864 0.719026 1.30959 0
M  V30 3520 H 315.746 -0.641774 4.16484 0
M  V30 3521 H 314.421 -1.07916 3.05181 0
M  V30 3522 H 313.328 1.18428 3.5486 0
M  V30 3523 H 314.661 1.53946 4.67506 0
M  V30 3524 N 316.313 -1.40141 0.720998 0
M  V30 3525 C 317.223 -2.34486 0.0731031 0
M  V30 3526 C 318.239 -1.57587 -0.737723 0
M  V30 3527 O 319.415 -1.89949 -0.669429 0
M  V30 3528 C 316.48 -3.36528 -0.833656 0
M  V30 3529 C 315.541 -4.29298 -0.0121673 0
M  V30 3530 C 314.774 -5.26466 -0.875742 0
M  V30 3531 O 314.997 -5.29745 -2.11485 0
M  V30 3532 O 313.931 -6.01092 -0.31185 0
M  V30 3533 H 317.757 -2.9152 0.851444 0
M  V30 3534 H 315.342 -1.41427 0.481527 0
M  V30 3535 H 317.224 -3.99093 -1.35289 0
M  V30 3536 H 315.899 -2.81899 -1.59105 0
M  V30 3537 H 314.806 -3.70001 0.552262 0
M  V30 3538 H 316.139 -4.87094 0.707129 0
M  V30 3539 N 317.792 -0.46758 -1.50504 0
M  V30 3540 C 318.755 0.317059 -2.26996 0
M  V30 3541 C 319.755 0.923513 -1.31635 0
M  V30 3542 O 320.945 0.793239 -1.55091 0
M  V30 3543 C 318.077 1.45134 -3.08462 0
M  V30 3544 H 319.27 -0.353723 -2.97807 0
M  V30 3545 H 316.823 -0.221545 -1.54722 0
M  V30 3546 H 317.558 2.15728 -2.4214 0
M  V30 3547 H 317.343 1.02232 -3.78538 0
M  V30 3548 H 318.833 2.00493 -3.66323 0
M  V30 3549 N 319.27 1.56325 -0.20005 0
M  V30 3550 C 320.686 1.58839 0.155716 0
M  V30 3551 C 320.886 1.21636 1.60645 0
M  V30 3552 O 319.942 0.941437 2.34293 0
M  V30 3553 C 321.255 3.0032 -0.151124 0
M  V30 3554 C 322.803 3.12866 -0.0916284 0
M  V30 3555 C 323.278 4.56488 -0.371845 0
M  V30 3556 N 324.769 4.62089 -0.320641 0
M  V30 3557 C 325.504 5.71116 -0.511243 0
M  V30 3558 N 325 6.88592 -0.762461 0
M  V30 3559 N 326.793 5.60335 -0.445157 0
M  V30 3560 H 318.944 1.78788 -1.14668 0
M  V30 3561 H 321.207 0.829996 -0.458051 0
M  V30 3562 H 320.913 3.32117 -1.15721 0
M  V30 3563 H 320.787 3.73257 0.543986 0
M  V30 3564 H 323.174 2.80878 0.905065 0
M  V30 3565 H 323.255 2.42304 -0.81989 0
M  V30 3566 H 322.899 4.89189 -1.36588 0
M  V30 3567 H 322.829 5.25246 0.377362 0
M  V30 3568 H 325.32 3.77665 -0.13329 0
M  V30 3569 H 325.633 7.67581 -0.896576 0
M  V30 3570 H 323.978 6.90387 -0.799412 0
M  V30 3571 H 327.169 4.67436 -0.249278 0
M  V30 3572 H 327.342 6.45243 -0.597116 0
M  V30 3573 N 320.748 -0.0735177 1.57428 0
M  V30 3574 C 321.695 -1.08756 2.0357 0
M  V30 3575 C 322.665 -1.38559 0.916 0
M  V30 3576 O 323.85 -1.49656 1.18354 0
M  V30 3577 C 320.99 -2.39657 2.48311 0
M  V30 3578 C 320.103 -2.16399 3.73892 0
M  V30 3579 C 319.238 -3.40852 4.07423 0
M  V30 3580 C 318.277 -3.1295 5.2605 0
M  V30 3581 N 317.414 -4.29729 5.55228 0
M  V30 3582 H 322.254 -0.687104 2.8997 0
M  V30 3583 H 319.791 -0.327709 1.43403 0
M  V30 3584 H 321.749 -3.16081 2.72303 0
M  V30 3585 H 320.379 -2.77508 1.64891 0
M  V30 3586 H 319.431 -1.30676 3.57251 0
M  V30 3587 H 320.743 -1.91788 4.60455 0
M  V30 3588 H 319.897 -4.25671 4.32306 0
M  V30 3589 H 318.636 -3.68537 3.19425 0
M  V30 3590 H 317.641 -2.26526 5.00965 0
M  V30 3591 H 318.866 -2.86589 6.15665 0
M  V30 3592 H 316.812 -4.57448 4.70188 0
M  V30 3593 H 316.729 -4.08385 6.36206 0
M  V30 3594 H 317.997 -5.1555 5.84661 0
M  V30 3595 N 322.226 -1.5378 -0.344866 0
M  V30 3596 C 323.475 -1.7018 -1.08267 0
M  V30 3597 C 323.788 -0.471 -1.89845 0
M  V30 3598 O 324.994 -0.515917 -2.66553 0
M  V30 3599 C 323.45 -3.00923 -1.97417 0
M  V30 3600 C 323.058 -4.31335 -1.21053 0
M  V30 3601 C 324.802 -3.26688 -2.71063 0
M  V30 3602 C 322.709 -5.53153 -2.09225 0
M  V30 3603 H 321.639 -0.634138 -0.407903 0
M  V30 3604 H 324.29 -1.8028 -0.342246 0
M  V30 3605 H 322.672 -2.84676 -2.75274 0
M  V30 3606 H 323.846 -4.58281 -0.481159 0
M  V30 3607 H 322.161 -4.12173 -0.591813 0
M  V30 3608 H 324.758 -4.1489 -3.37299 0
M  V30 3609 H 325.101 -2.43639 -3.37558 0
M  V30 3610 H 325.634 -3.43705 -2.0028 0
M  V30 3611 H 322.373 -6.38741 -1.47274 0
M  V30 3612 H 321.893 -5.30458 -2.79955 0
M  V30 3613 H 323.572 -5.88744 -2.68308 0
M  V30 3614 N 323.704 0.605807 -1.45491 0
M  V30 3615 C 324.951 1.36476 -1.49601 0
M  V30 3616 C 325.279 1.94007 -0.138452 0
M  V30 3617 O 324.534 1.75638 0.863114 0
M  V30 3618 C 324.833 2.53012 -2.52428 0
M  V30 3619 C 324.499 2.13617 -3.97087 0
M  V30 3620 C 323.161 2.02587 -4.36477 0
M  V30 3621 C 325.513 1.82899 -4.88055 0
M  V30 3622 C 322.841 1.59064 -5.64726 0
M  V30 3623 C 325.193 1.40861 -6.16718 0
M  V30 3624 C 323.857 1.28391 -6.55036 0
M  V30 3625 H 323.127 0.499402 -0.547429 0
M  V30 3626 H 325.774 0.684546 -1.78847 0
M  V30 3627 H 324.079 3.26379 -2.16758 0
M  V30 3628 H 325.776 3.1124 -2.52845 0
M  V30 3629 H 322.366 2.23129 -3.65939 0
M  V30 3630 H 326.55 1.90317 -4.58359 0
M  V30 3631 H 321.806 1.48034 -5.93208 0
M  V30 3632 H 325.98 1.16138 -6.86648 0
M  V30 3633 H 323.607 0.944403 -7.54311 0
M  V30 3634 N 325.182 1.32811 0.848464 0
M  V30 3635 C 326.598 1.11937 1.13764 0
M  V30 3636 C 326.798 -0.0960789 2.01271 0
M  V30 3637 O 325.854 -0.779165 2.40178 0
M  V30 3638 C 327.167 2.402 1.809 0
M  V30 3639 C 328.715 2.46016 1.93508 0
M  V30 3640 C 329.19 3.74215 2.64059 0
M  V30 3641 N 330.681 3.75232 2.71579 0
M  V30 3642 C 331.416 4.71134 3.26833 0
M  V30 3643 N 330.912 5.77406 3.8285 0
M  V30 3644 N 332.705 4.58623 3.24995 0
M  V30 3645 H 324.856 2.1073 0.265855 0
M  V30 3646 H 327.119 0.930671 0.180431 0
M  V30 3647 H 326.825 3.29093 1.24058 0
M  V30 3648 H 326.699 2.51628 2.81004 0
M  V30 3649 H 329.086 1.57577 2.49506 0
M  V30 3650 H 329.167 2.38536 0.923811 0
M  V30 3651 H 328.811 4.63031 2.08722 0
M  V30 3652 H 328.741 3.78968 3.65637 0
M  V30 3653 H 331.232 2.98423 2.31845 0
M  V30 3654 H 331.545 6.46632 4.23187 0
M  V30 3655 H 329.89 5.81152 3.81165 0
M  V30 3656 H 333.081 3.74762 2.80484 0
M  V30 3657 H 333.254 5.33535 3.67756 0
M  V30 3658 N 326.66 -1.06551 1.16123 0
M  V30 3659 C 327.907 -1.79302 0.941126 0
M  V30 3660 C 328.235 -1.87105 -0.531235 0
M  V30 3661 O 327.49 -1.35692 -1.41018 0
M  V30 3662 C 327.789 -3.23911 1.51052 0
M  V30 3663 C 327.455 -3.36193 3.00475 0
M  V30 3664 C 326.117 -3.39252 3.41265 0
M  V30 3665 C 328.469 -3.38326 3.96465 0
M  V30 3666 C 325.797 -3.42057 4.76669 0
M  V30 3667 C 328.149 -3.4267 5.31752 0
M  V30 3668 C 326.813 -3.4401 5.72026 0
M  V30 3669 H 326.083 -0.656111 0.344382 0
M  V30 3670 H 328.73 -1.25325 1.44796 0
M  V30 3671 H 327.035 -3.80723 0.925063 0
M  V30 3672 H 328.732 -3.78793 1.31593 0
M  V30 3673 H 325.322 -3.34516 2.6795 0
M  V30 3674 H 329.506 -3.35176 3.6602 0
M  V30 3675 H 324.762 -3.41398 5.07206 0
M  V30 3676 H 328.936 -3.43268 6.05921 0
M  V30 3677 H 326.563 -3.45937 6.76928 0
M  V30 3678 O 328.177 -1.08916 -1.19246 0
M  V30 3679 H 328.868 -0.783022 -1.77168 0
M  V30 END ATOM
M  V30 BEGIN BOND
M  V30 END BOND
M  V30 END CTAB
M  END
$$$$
