drugbank_target|P12883 Myosin-7 (DB08378)
 OpenBabel12092120503D

  0  0  0     0  0            999 V3000
M  V30 BEGIN CTAB
M  V30 COUNTS 31424 31607 0 0 0
M  V30 BEGIN ATOM
M  V30 1 H -0.908 1.98254 -0.117106 0
M  V30 2 N 0 1.576 0 0
M  V30 3 C 0.933 2.03868 1.02534 0
M  V30 4 C 1.911 0.928543 1.3348 0
M  V30 5 O 3.095 1.19667 1.45644 0
M  V30 6 C 0.222 2.43627 2.35294 0
M  V30 7 C -0.732 3.65373 2.2001 0
M  V30 8 S 0.101 5.13292 1.52614 0
M  V30 9 C 1.257 5.56322 2.86805 0
M  V30 10 H 1.49 2.90518 0.631377 0
M  V30 11 H -0.977 1.52953 0.210867 0
M  V30 12 H 0.981 2.67203 3.11629 0
M  V30 13 H -0.358 1.57376 2.7183 0
M  V30 14 H -1.165 3.90944 3.18086 0
M  V30 15 H -1.563 3.418 1.51819 0
M  V30 16 H 0.729 5.58782 3.83104 0
M  V30 17 H 1.672 6.56266 2.65933 0
M  V30 18 H 2.08 4.83886 2.90714 0
M  V30 19 N 1.4781 -0.272755 1.55222 0
M  V30 20 C 2.7261 -1.00234 1.75492 0
M  V30 21 C 3.0471 -1.8681 0.5592 0
M  V30 22 O 2.3171 -1.91215 -0.425882 0
M  V30 23 H 0.8971 -0.373076 0.647166 0
M  V30 24 H 3.5591 -0.296926 1.92625 0
M  V30 25 H 2.6551 -1.63913 2.65592 0
M  V30 26 N 2.9562 -1.48159 -0.537278 0
M  V30 27 C 4.2332 -1.46291 -1.29839 0
M  V30 28 C 4.6132 -0.170613 -2.10409 0
M  V30 29 O 3.9612 0.847746 -2.12192 0
M  V30 30 C 4.1712 -2.72055 -2.18603 0
M  V30 31 C 5.5192 -3.20087 -2.7898 0
M  V30 32 O 6.5432 -2.72921 -2.28894 0
M  V30 33 O 5.4022 -4.02138 -3.70064 0
M  V30 34 H 2.4962 -0.583906 -0.585647 0
M  V30 35 H 5.0422 -1.60384 -0.554534 0
M  V30 36 H 3.8142 -3.57628 -1.58801 0
M  V30 37 H 3.4372 -2.60646 -3.00249 0
M  V30 38 N 4.4343 0.785586 -1.36625 0
M  V30 39 C 5.6593 1.57963 -1.34397 0
M  V30 40 C 6.0843 1.87964 0.071526 0
M  V30 41 O 5.4423 1.48182 1.0446 0
M  V30 42 C 5.4903 2.87511 -2.17646 0
M  V30 43 O 4.5943 3.81281 -1.57158 0
M  V30 44 H 3.9353 0.479014 -0.459828 0
M  V30 45 H 6.4653 0.973411 -1.79961 0
M  V30 46 H 6.4753 3.36745 -2.30362 0
M  V30 47 H 5.1503 2.65002 -3.20541 0
M  V30 48 H 3.7273 3.39885 -1.53403 0
M  V30 49 N 5.9124 1.20967 1.01018 0
M  V30 50 C 6.8224 0.980157 2.13143 0
M  V30 51 C 7.8384 -0.0660665 1.73875 0
M  V30 52 O 9.0144 0.122821 2.01025 0
M  V30 53 C 6.0794 0.54216 3.42435 0
M  V30 54 C 5.1404 1.65999 3.95908 0
M  V30 55 C 4.3734 1.2428 5.19028 0
M  V30 56 O 4.5964 0.114196 5.70286 0
M  V30 57 O 3.5304 2.05271 5.65816 0
M  V30 58 H 7.3564 1.91913 2.35379 0
M  V30 59 H 4.9414 0.994099 1.11526 0
M  V30 60 H 6.8234 0.30744 4.20277 0
M  V30 61 H 5.4984 -0.36815 3.216 0
M  V30 62 H 4.4054 1.94906 3.19316 0
M  V30 63 H 5.7384 2.54753 4.21143 0
M  V30 64 N 7.3905 -1.2043 1.01659 0
M  V30 65 C 8.3235 -2.21924 0.531521 0
M  V30 66 C 9.3015 -1.57054 -0.421032 0
M  V30 67 O 10.4855 -1.85389 -0.341035 0
M  V30 68 C 7.6125 -3.37942 -0.226496 0
M  V30 69 C 6.6585 -4.21115 0.67561 0
M  V30 70 S 7.4915 -4.90674 2.14475 0
M  V30 71 C 8.6475 -6.10113 1.3969 0
M  V30 72 H 8.8805 -2.62725 1.3915 0
M  V30 73 H 6.4135 -1.30481 0.825479 0
M  V30 74 H 8.3715 -4.05196 -0.657738 0
M  V30 75 H 7.0325 -2.956 -1.06205 0
M  V30 76 H 6.2255 -5.03918 0.091108 0
M  V30 77 H 5.8275 -3.59115 1.04463 0
M  V30 78 H 8.1195 -6.7411 0.676897 0
M  V30 79 H 9.0625 -6.73022 2.20107 0
M  V30 80 H 9.4705 -5.57283 0.899786 0
M  V30 81 N 8.8686 -0.792821 -1.36206 0
M  V30 82 C 9.8316 -0.199459 -2.2833 0
M  V30 83 C 10.8316 0.605189 -1.48977 0
M  V30 84 O 12.0216 0.425685 -1.68919 0
M  V30 85 C 9.1536 0.723523 -3.33134 0
M  V30 86 H 10.3466 -1.01181 -2.82316 0
M  V30 87 H 7.8996 -0.562485 -1.45828 0
M  V30 88 H 8.6346 1.56008 -2.84309 0
M  V30 89 H 8.4196 0.148436 -3.91819 0
M  V30 90 H 9.9096 1.13344 -4.01924 0
M  V30 91 N 10.3467 1.47872 -0.545128 0
M  V30 92 C 11.5927 2.02793 -0.0166104 0
M  V30 93 C 11.9257 1.41987 1.32489 0
M  V30 94 O 11.2007 0.571045 1.85928 0
M  V30 95 C 11.4837 3.59989 0.0893294 0
M  V30 96 C 11.3367 4.3125 -1.27841 0
M  V30 97 C 12.6557 4.32606 0.808724 0
M  V30 98 H 9.7747 0.736962 -0.00751035 0
M  V30 99 H 12.4167 1.76433 -0.705085 0
M  V30 100 H 10.5667 3.82579 0.675681 0
M  V30 101 H 12.2387 4.20035 -1.90704 0
M  V30 102 H 10.4817 3.92076 -1.85632 0
M  V30 103 H 11.1527 5.39736 -1.15713 0
M  V30 104 H 13.6287 4.14936 0.310992 0
M  V30 105 H 12.5047 5.42251 0.851782 0
M  V30 106 H 12.7657 4.00963 1.86229 0
M  V30 107 N 11.8248 0.280983 1.55075 0
M  V30 108 C 13.0718 -0.334115 1.99725 0
M  V30 109 C 13.3998 -1.5542 1.1694 0
M  V30 110 O 12.6548 -1.94361 0.228531 0
M  V30 111 C 12.9538 -0.754656 3.49342 0
M  V30 112 C 12.6198 0.361445 4.49449 0
M  V30 113 C 11.2818 0.667893 4.76542 0
M  V30 114 C 13.6338 1.11322 5.09173 0
M  V30 115 C 10.9618 1.7296 5.60626 0
M  V30 116 C 13.3138 2.1647 5.9441 0
M  V30 117 C 11.9778 2.47742 6.19822 0
M  V30 118 H 11.2478 -0.122261 0.730844 0
M  V30 119 H 13.8948 0.395917 1.87363 0
M  V30 120 H 12.1998 -1.56446 3.5921 0
M  V30 121 H 13.8968 -1.24142 3.813 0
M  V30 122 H 10.4868 0.112481 4.28452 0
M  V30 123 H 14.6708 0.88973 4.8826 0
M  V30 124 H 9.9268 1.97684 5.78559 0
M  V30 125 H 14.1008 2.75193 6.3972 0
M  V30 126 H 11.7278 3.30145 6.84769 0
M  V30 127 N 13.3029 -1.57598 0.00835791 0
M  V30 128 C 14.5509 -1.90551 -0.6734 0
M  V30 129 C 14.8719 -0.883301 -1.73847 0
M  V30 130 O 14.1419 0.0781442 -1.95744 0
M  V30 131 H 12.7219 -0.703312 -0.251717 0
M  V30 132 H 15.3839 -1.94833 0.0512592 0
M  V30 133 H 14.4799 -2.9056 -1.13935 0
M  V30 134 N 14.781 0.264519 -1.55364 0
M  V30 135 C 15.744 1.31046 -1.88042 0
M  V30 136 C 16.744 1.41943 -0.755569 0
M  V30 137 O 17.934 1.40947 -1.02369 0
M  V30 138 C 15.066 2.69067 -2.09323 0
M  V30 139 H 16.259 1.03297 -2.81549 0
M  V30 140 H 13.812 0.502989 -1.47986 0
M  V30 141 H 14.547 3.01982 -1.18226 0
M  V30 142 H 14.332 2.62542 -2.91229 0
M  V30 143 H 15.822 3.44623 -2.35848 0
M  V30 144 N 16.2591 1.48442 0.529413 0
M  V30 145 C 17.2221 1.62524 1.61612 0
M  V30 146 C 18.2221 0.498509 1.52877 0
M  V30 147 O 19.4121 0.76431 1.56537 0
M  V30 148 C 16.5441 1.59597 3.01233 0
M  V30 149 H 17.7371 2.59423 1.50465 0
M  V30 150 H 15.2901 1.37047 0.751514 0
M  V30 151 H 16.0251 0.641781 3.17886 0
M  V30 152 H 15.8101 2.41397 3.08982 0
M  V30 153 H 17.3001 1.72646 3.80241 0
M  V30 154 N 17.7372 -0.778329 1.37039 0
M  V30 155 C 18.7002 -1.87301 1.32102 0
M  V30 156 C 19.7002 -1.59198 0.226405 0
M  V30 157 O 20.8902 -1.67403 0.481861 0
M  V30 158 C 18.0222 -3.24309 1.05055 0
M  V30 159 H 19.2152 -1.93093 2.29467 0
M  V30 160 H 16.7682 -0.977358 1.21973 0
M  V30 161 H 17.5032 -3.24196 0.0819373 0
M  V30 162 H 17.2882 -3.46098 1.84279 0
M  V30 163 H 18.7782 -4.04382 1.04234 0
M  V30 164 N 19.2153 -1.21501 -1.00376 0
M  V30 165 C 20.6263 -1.03146 -1.55621 0
M  V30 166 C 20.9773 0.408375 -1.91903 0
M  V30 167 O 20.1023 1.29177 -1.73616 0
M  V30 168 C 20.6973 -1.86612 -2.82775 0
M  V30 169 C 19.2563 -1.72586 -3.34501 0
M  V30 170 C 18.4033 -1.83747 -2.07683 0
M  V30 171 H 21.3543 -1.35505 -0.826081 0
M  V30 172 H 21.3753 -1.3771 -3.54706 0
M  V30 173 H 20.8873 -2.91399 -2.56336 0
M  V30 174 H 18.9883 -0.704877 -3.65872 0
M  V30 175 H 19.1013 -2.54623 -4.05837 0
M  V30 176 H 17.4653 -1.27069 -2.20739 0
M  V30 177 H 18.2483 -2.90044 -1.83655 0
M  V30 178 N 20.6934 1.19889 -1.02296 0
M  V30 179 C 21.9234 1.93109 -0.734332 0
M  V30 180 C 22.3314 1.75377 0.709889 0
M  V30 181 O 21.6744 1.06912 1.49384 0
M  V30 182 C 21.7364 3.45362 -0.99827 0
M  V30 183 C 21.4004 3.8686 -2.43287 0
M  V30 184 C 22.3974 3.92102 -3.41397 0
M  V30 185 C 20.0824 4.18668 -2.77529 0
M  V30 186 C 22.0764 4.28573 -4.71809 0
M  V30 187 C 19.7634 4.54813 -4.08153 0
M  V30 188 C 20.7614 4.59739 -5.05103 0
M  V30 189 O 20.4494 4.95051 -6.33388 0
M  V30 190 H 20.1814 0.620409 -0.268456 0
M  V30 191 H 22.7354 1.53144 -1.3688 0
M  V30 192 H 20.9654 3.85482 -0.306645 0
M  V30 193 H 22.6544 3.99814 -0.700234 0
M  V30 194 H 23.4204 3.67685 -3.1628 0
M  V30 195 H 19.2994 4.14021 -2.0275 0
M  V30 196 H 22.8434 4.32333 -5.4748 0
M  V30 197 H 18.7404 4.78687 -4.33047 0
M  V30 198 H 19.5084 5.1302 -6.37772 0
M  V30 199 N 22.1715 0.800033 1.35784 0
M  V30 200 C 23.1015 0.220184 2.3246 0
M  V30 201 C 24.0825 -0.65073 1.57161 0
M  V30 202 O 25.2675 -0.582359 1.85263 0
M  V30 203 C 22.3975 -0.637353 3.41402 0
M  V30 204 C 21.3515 0.134531 4.27789 0
M  V30 205 C 20.6775 -0.844285 5.27992 0
M  V30 206 C 21.9775 1.32979 5.05088 0
M  V30 207 H 23.6715 1.02787 2.81203 0
M  V30 208 H 21.2175 0.495717 1.35199 0
M  V30 209 H 23.1705 -1.05302 4.08031 0
M  V30 210 H 21.8945 -1.47785 2.91251 0
M  V30 211 H 20.5535 0.531296 3.6273 0
M  V30 212 H 20.2015 -1.68011 4.74111 0
M  V30 213 H 19.9015 -0.332184 5.8666 0
M  V30 214 H 21.4255 -1.2583 5.97494 0
M  V30 215 H 22.8395 0.98934 5.64699 0
M  V30 216 H 21.2365 1.77593 5.7322 0
M  V30 217 H 22.3065 2.11978 4.36111 0
M  V30 218 N 23.6496 -1.47581 0.552962 0
M  V30 219 C 25.0656 -1.5818 0.212424 0
M  V30 220 C 25.2656 -1.55213 -1.28496 0
M  V30 221 O 24.3216 -1.45329 -2.06484 0
M  V30 222 C 25.6346 -2.88865 0.835318 0
M  V30 223 C 27.1826 -3.0244 0.806156 0
M  V30 224 C 27.6576 -4.35819 1.40804 0
M  V30 225 N 29.1486 -4.42444 1.37103 0
M  V30 226 C 29.8836 -5.44202 1.80641 0
M  V30 227 N 29.3796 -6.52795 2.32015 0
M  V30 228 N 31.1726 -5.35222 1.71738 0
M  V30 229 H 23.3236 -1.47753 1.52587 0
M  V30 230 H 25.5866 -0.702941 0.636064 0
M  V30 231 H 25.2926 -2.9676 1.88749 0
M  V30 232 H 25.1666 -3.7579 0.325848 0
M  V30 233 H 27.5536 -2.94144 -0.237317 0
M  V30 234 H 27.6346 -2.17068 1.35334 0
M  V30 235 H 27.2786 -4.44871 2.45056 0
M  V30 236 H 27.2086 -5.19916 0.836338 0
M  V30 237 H 29.6996 -3.6456 0.995202 0
M  V30 238 H 30.0126 -7.26609 2.63171 0
M  V30 239 H 28.3576 -6.53696 2.36023 0
M  V30 240 H 31.5486 -4.49284 1.31382 0
M  V30 241 H 31.7216 -6.14389 2.05987 0
M  V30 242 N 25.1277 -0.289203 -1.54924 0
M  V30 243 C 26.0747 0.592115 -2.23075 0
M  V30 244 C 27.0447 1.13881 -1.20915 0
M  V30 245 O 28.2297 1.18551 -1.495 0
M  V30 246 C 25.3697 1.76376 -2.96623 0
M  V30 247 C 24.4827 1.24959 -4.13533 0
M  V30 248 C 23.6177 2.38416 -4.74691 0
M  V30 249 C 22.6567 1.84072 -5.83767 0
M  V30 250 N 21.7937 2.91057 -6.38929 0
M  V30 251 H 26.6337 0.00432038 -2.98 0
M  V30 252 H 24.1707 -0.00963529 -1.47097 0
M  V30 253 H 26.1287 2.45268 -3.3749 0
M  V30 254 H 24.7587 2.32337 -2.24097 0
M  V30 255 H 23.8107 0.453307 -3.77689 0
M  V30 256 H 25.1227 0.811662 -4.92152 0
M  V30 257 H 24.2767 3.15276 -5.18349 0
M  V30 258 H 23.0157 2.8553 -3.95378 0
M  V30 259 H 22.0207 1.05697 -5.39545 0
M  V30 260 H 23.2457 1.37877 -6.64956 0
M  V30 261 H 21.1917 3.37526 -5.62505 0
M  V30 262 H 21.1087 2.51724 -7.12861 0
M  V30 263 H 22.3767 3.6785 -6.87246 0
M  V30 264 N 26.6058 1.57591 -0.0167156 0
M  V30 265 C 27.8308 1.9598 0.67872 0
M  V30 266 C 28.2558 0.892546 1.65575 0
M  V30 267 O 27.6138 -0.147772 1.80697 0
M  V30 268 C 27.6618 3.33468 1.37227 0
M  V30 269 O 26.7658 3.28954 2.48722 0
M  V30 270 H 26.1068 0.639339 0.17928 0
M  V30 271 H 28.6368 2.04463 -0.0748802 0
M  V30 272 H 28.6468 3.69417 1.7319 0
M  V30 273 H 27.3218 4.10694 0.656007 0
M  V30 274 H 25.8988 3.04705 2.14963 0
M  V30 275 N 28.0839 -0.256276 1.55502 0
M  V30 276 C 28.9939 -1.33882 1.92647 0
M  V30 277 C 30.0099 -1.53159 0.825727 0
M  V30 278 O 31.1859 -1.66963 1.12629 0
M  V30 279 C 28.2509 -2.6751 2.20543 0
M  V30 280 C 27.3119 -2.56836 3.43997 0
M  V30 281 C 26.5449 -3.84092 3.70553 0
M  V30 282 O 26.7679 -4.85545 2.99336 0
M  V30 283 O 25.7019 -3.83288 4.64084 0
M  V30 284 H 29.5279 -1.05374 2.84833 0
M  V30 285 H 27.1129 -0.456237 1.42263 0
M  V30 286 H 28.9949 -3.46492 2.39835 0
M  V30 287 H 27.6699 -2.9577 1.31536 0
M  V30 288 H 26.5769 -1.76172 3.30021 0
M  V30 289 H 27.9099 -2.33523 4.33275 0
M  V30 290 N 29.562 -1.4872 -0.521534 0
M  V30 291 C 30.509 -1.63871 -1.62527 0
M  V30 292 C 31.479 -0.480559 -1.58996 0
M  V30 293 O 32.664 -0.705085 -1.77294 0
M  V30 294 C 29.804 -1.69227 -3.00759 0
M  V30 295 C 28.917 -2.96207 -3.14461 0
M  V30 296 C 28.052 -2.92671 -4.43303 0
M  V30 297 C 27.091 -4.14318 -4.50563 0
M  V30 298 N 26.228 -4.0881 -5.70805 0
M  V30 299 H 31.068 -2.58123 -1.48918 0
M  V30 300 H 28.605 -1.28 -0.724878 0
M  V30 301 H 30.563 -1.70314 -3.80853 0
M  V30 302 H 29.193 -0.784586 -3.1312 0
M  V30 303 H 28.245 -3.04826 -2.27564 0
M  V30 304 H 29.557 -3.86192 -3.15686 0
M  V30 305 H 28.711 -2.92206 -5.31696 0
M  V30 306 H 27.45 -2.00429 -4.44612 0
M  V30 307 H 26.455 -4.15049 -3.60575 0
M  V30 308 H 27.68 -5.07729 -4.50986 0
M  V30 309 H 25.626 -3.19394 -5.72995 0
M  V30 310 H 25.543 -4.92509 -5.7356 0
M  V30 311 H 26.811 -4.12418 -6.61462 0
M  V30 312 N 31.0401 0.771051 -1.3745 0
M  V30 313 C 31.9501 1.91538 -1.35464 0
M  V30 314 C 32.9661 1.72134 -0.254123 0
M  V30 315 O 34.1421 1.95358 -0.489626 0
M  V30 316 C 31.2071 3.26671 -1.16134 0
M  V30 317 C 30.2681 3.58723 -2.35831 0
M  V30 318 C 29.5011 4.87409 -2.17413 0
M  V30 319 O 29.7241 5.58506 -1.15876 0
M  V30 320 O 28.6581 5.18539 -3.05615 0
M  V30 321 H 32.4841 1.96165 -2.31847 0
M  V30 322 H 30.0691 0.9139 -1.18187 0
M  V30 323 H 31.9511 4.07499 -1.07345 0
M  V30 324 H 30.6261 3.22894 -0.228251 0
M  V30 325 H 29.5331 2.78127 -2.50192 0
M  V30 326 H 30.8661 3.67243 -3.27709 0
M  V30 327 N 32.5182 1.22032 0.997298 0
M  V30 328 C 33.9342 0.979326 1.26021 0
M  V30 329 C 34.1342 -0.32972 1.98784 0
M  V30 330 O 33.1902 -1.05345 2.29475 0
M  V30 331 C 34.5032 2.17509 2.07631 0
M  V30 332 C 36.0512 2.21817 2.2083 0
M  V30 333 C 36.5262 3.40933 3.05825 0
M  V30 334 N 38.0172 3.41067 3.13412 0
M  V30 335 C 38.7522 4.29885 3.79455 0
M  V30 336 N 38.2482 5.28914 4.47462 0
M  V30 337 N 40.0412 4.17673 3.76173 0
M  V30 338 H 32.1922 2.06202 0.509352 0
M  V30 339 H 34.4552 0.90334 0.287541 0
M  V30 340 H 34.1612 3.12415 1.61524 0
M  V30 341 H 34.0352 2.17206 3.08385 0
M  V30 342 H 36.4222 1.27462 2.66153 0
M  V30 343 H 36.5032 2.2616 1.1952 0
M  V30 344 H 36.1472 4.35586 2.61203 0
M  V30 345 H 36.0772 3.33829 4.07266 0
M  V30 346 H 38.5682 2.69406 2.65007 0
M  V30 347 H 38.8812 5.92973 4.95583 0
M  V30 348 H 37.2262 5.32831 4.46224 0
M  V30 349 H 40.4172 3.39564 3.22202 0
M  V30 350 H 40.5902 4.87098 4.27363 0
M  V30 351 N 33.9963 -1.19345 1.0293 0
M  V30 352 C 34.9263 -2.2481 0.631105 0
M  V30 353 C 35.9073 -1.66245 -0.360104 0
M  V30 354 O 37.0923 -1.92677 -0.242726 0
M  V30 355 C 34.2223 -3.47295 -0.0184607 0
M  V30 356 C 33.1763 -4.18536 0.895073 0
M  V30 357 C 32.5023 -5.34586 0.110592 0
M  V30 358 C 33.8023 -4.73287 2.209 0
M  V30 359 H 35.4963 -2.58372 1.51275 0
M  V30 360 H 33.0423 -1.24194 0.728818 0
M  V30 361 H 34.9953 -4.20268 -0.308675 0
M  V30 362 H 33.7193 -3.12933 -0.934907 0
M  V30 363 H 32.3783 -3.47446 1.16949 0
M  V30 364 H 32.0263 -4.96469 -0.807902 0
M  V30 365 H 31.7263 -5.83183 0.719087 0
M  V30 366 H 33.2503 -6.10355 -0.172871 0
M  V30 367 H 34.6643 -5.38013 1.98028 0
M  V30 368 H 33.0613 -5.32373 2.76946 0
M  V30 369 H 34.1313 -3.91331 2.86336 0
M  V30 370 N 35.4744 -0.807222 -1.35358 0
M  V30 371 C 36.3844 -0.219594 -2.3357 0
M  V30 372 C 37.4004 0.637734 -1.61892 0
M  V30 373 O 38.5764 0.549336 -1.93763 0
M  V30 374 C 35.6414 0.62158 -3.41083 0
M  V30 375 C 34.7024 -0.256315 -4.28534 0
M  V30 376 C 33.9354 0.544807 -5.30912 0
M  V30 377 O 34.1584 1.77944 -5.41934 0
M  V30 378 O 33.0924 -0.0646478 -6.01865 0
M  V30 379 H 36.9184 -1.03208 -2.85625 0
M  V30 380 H 34.5034 -0.569025 -1.38139 0
M  V30 381 H 36.3854 1.10067 -4.06772 0
M  V30 382 H 35.0604 1.41165 -2.91297 0
M  V30 383 H 33.9674 -0.782559 -3.65823 0
M  V30 384 H 35.3004 -1.01034 -4.81719 0
M  V30 385 N 36.9525 1.47285 -0.560781 0
M  V30 386 C 37.9155 2.28535 0.174488 0
M  V30 387 C 38.9155 1.37153 0.839388 0
M  V30 388 O 40.1055 1.59748 0.694702 0
M  V30 389 C 37.2375 3.16934 1.25561 0
M  V30 390 H 38.4305 2.95012 -0.539262 0
M  V30 391 H 35.9835 1.53034 -0.317865 0
M  V30 392 H 36.7185 2.55157 2.00164 0
M  V30 393 H 36.5035 3.8419 0.783604 0
M  V30 394 H 37.9935 3.78143 1.77193 0
M  V30 395 N 38.4306 0.297415 1.54768 0
M  V30 396 C 39.3626 -0.613881 2.20826 0
M  V30 397 C 40.3756 -1.10032 1.19987 0
M  V30 398 O 41.5646 -1.01839 1.46598 0
M  V30 399 C 38.6646 -1.852 2.83821 0
M  V30 400 C 37.8376 -1.50865 4.10559 0
M  V30 401 C 36.8966 -2.60154 4.57391 0
M  V30 402 O 35.9226 -2.25398 5.2267 0
M  V30 403 N 37.1246 -3.90629 4.29406 0
M  V30 404 H 39.8896 -0.048389 2.99661 0
M  V30 405 H 37.4506 0.11946 1.61459 0
M  V30 406 H 39.4426 -2.57652 3.12086 0
M  V30 407 H 38.0126 -2.32597 2.08847 0
M  V30 408 H 37.2326 -0.616925 3.89343 0
M  V30 409 H 38.5206 -1.25458 4.9309 0
M  V30 410 H 37.9186 -4.21677 3.77101 0
M  V30 411 H 36.4756 -4.59391 4.62388 0
M  V30 412 N 39.9087 -1.5758 0.0250728 0
M  V30 413 C 41.1367 -1.9593 -0.664747 0
M  V30 414 C 41.5517 -0.901352 -1.65895 0
M  V30 415 O 40.9087 0.117255 -1.82123 0
M  V30 416 C 40.9597 -3.34342 -1.37468 0
M  V30 417 O 40.6807 -4.36079 -0.420324 0
M  V30 418 C 42.1817 -3.873 -2.1567 0
M  V30 419 H 39.4017 -0.645405 -0.183557 0
M  V30 420 H 41.9457 -2.04329 0.0836372 0
M  V30 421 H 40.1007 -3.27175 -2.0745 0
M  V30 422 H 40.5147 -5.16297 -0.923991 0
M  V30 423 H 41.9887 -4.86504 -2.60803 0
M  V30 424 H 42.4657 -3.21331 -2.99405 0
M  V30 425 H 43.0717 -3.97723 -1.50654 0
M  V30 426 N 41.3868 0.248026 -1.55636 0
M  V30 427 C 42.8028 0.596483 -1.48035 0
M  V30 428 C 43.0028 1.88386 -0.715039 0
M  V30 429 O 42.0588 2.51319 -0.243944 0
M  V30 430 C 43.3718 0.700258 -2.92433 0
M  V30 431 C 44.9198 0.792659 -3.02797 0
M  V30 432 C 45.3948 0.928005 -4.485 0
M  V30 433 N 46.8858 0.992903 -4.52433 0
M  V30 434 C 47.6208 1.11687 -5.62418 0
M  V30 435 N 47.1168 1.20645 -6.82214 0
M  V30 436 N 48.9098 1.14994 -5.50212 0
M  V30 437 H 41.0608 -0.597109 -2.03834 0
M  V30 438 H 43.3238 -0.205925 -0.925364 0
M  V30 439 H 43.0298 -0.175658 -3.51261 0
M  V30 440 H 42.9038 1.57255 -3.42857 0
M  V30 441 H 45.2908 1.65903 -2.4405 0
M  V30 442 H 45.3718 -0.104762 -2.55585 0
M  V30 443 H 45.0158 0.0661971 -5.07857 0
M  V30 444 H 44.9458 1.84045 -4.93391 0
M  V30 445 H 47.4368 0.935064 -3.66149 0
M  V30 446 H 47.7498 1.30008 -7.61786 0
M  V30 447 H 46.0948 1.17605 -6.84977 0
M  V30 448 H 49.2858 1.07643 -4.55555 0
M  V30 449 H 49.4588 1.24311 -6.35965 0
M  V30 450 N 42.8649 1.48995 0.513639 0
M  V30 451 C 44.2759 1.5119 1.09537 0
M  V30 452 C 44.6269 0.290906 1.94031 0
M  V30 453 O 43.7519 -0.60049 2.07902 0
M  V30 454 C 44.3469 2.73964 1.99322 0
M  V30 455 C 42.9059 2.78978 2.52682 0
M  V30 456 C 42.0529 2.44934 1.30009 0
M  V30 457 H 45.0039 1.55875 0.298125 0
M  V30 458 H 45.0249 2.53409 2.83838 0
M  V30 459 H 44.5369 3.62813 1.37799 0
M  V30 460 H 42.6379 1.94378 3.1788 0
M  V30 461 H 42.7509 3.8083 2.90698 0
M  V30 462 H 41.1149 1.9644 1.62122 0
M  V30 463 H 41.8979 3.36043 0.702131 0
M  V30 464 N 44.343 -0.763751 1.37857 0
M  V30 465 C 45.59 -1.52257 1.33506 0
M  V30 466 C 45.918 -1.94343 -0.078022 0
M  V30 467 O 45.173 -1.64958 -1.05297 0
M  V30 468 C 45.472 -2.79499 2.22745 0
M  V30 469 C 45.138 -2.56426 3.70886 0
M  V30 470 C 43.8 -2.49842 4.11257 0
M  V30 471 C 46.152 -2.36008 4.64704 0
M  V30 472 C 43.48 -2.20841 5.43549 0
M  V30 473 C 45.832 -2.0853 5.97242 0
M  V30 474 C 44.496 -2.00396 6.36709 0
M  V30 475 H 43.766 -0.557149 0.488534 0
M  V30 476 H 46.413 -0.879073 1.70131 0
M  V30 477 H 44.718 -3.48447 1.79142 0
M  V30 478 H 46.415 -3.37413 2.16688 0
M  V30 479 H 43.005 -2.62416 3.38874 0
M  V30 480 H 47.189 -2.40079 4.34368 0
M  V30 481 H 42.445 -2.13045 5.73081 0
M  V30 482 H 46.619 -1.91732 6.69486 0
M  V30 483 H 44.246 -1.77688 7.39142 0
M  V30 484 N 45.8211 -1.22559 -0.990812 0
M  V30 485 C 47.0981 -0.959875 -1.70428 0
M  V30 486 C 47.4781 0.524455 -2.04481 0
M  V30 487 O 46.8261 1.49302 -1.72977 0
M  V30 488 C 47.0361 -1.85955 -2.95333 0
M  V30 489 C 48.3841 -2.11687 -3.68068 0
M  V30 490 O 49.4081 -1.8342 -3.05345 0
M  V30 491 O 48.2671 -2.59572 -4.80921 0
M  V30 492 H 45.3611 -0.361154 -0.743974 0
M  V30 493 H 47.9071 -1.33554 -1.04697 0
M  V30 494 H 46.6791 -2.86346 -2.66687 0
M  V30 495 H 46.3021 -1.4856 -3.68803 0
M  V30 496 N 47.2992 1.18797 -1.03562 0
M  V30 497 C 48.2292 2.24472 -0.643019 0
M  V30 498 C 49.2102 1.66433 0.351283 0
M  V30 499 O 50.3952 1.92803 0.232505 0
M  V30 500 C 47.5252 3.473 4.24935e-05 0
M  V30 501 C 46.4792 4.18055 -0.917257 0
M  V30 502 C 45.8052 5.34519 -0.138941 0
M  V30 503 C 47.1052 4.72109 -2.23407 0
M  V30 504 H 48.7992 2.57566 -1.52643 0
M  V30 505 H 46.3452 1.23806 -0.735394 0
M  V30 506 H 48.2982 4.20426 0.286383 0
M  V30 507 H 47.0222 3.13424 0.918299 0
M  V30 508 H 45.6812 3.46821 -1.1879 0
M  V30 509 H 45.3292 4.96891 0.781562 0
M  V30 510 H 45.0292 5.82794 -0.750005 0
M  V30 511 H 46.5532 6.10438 0.1405 0
M  V30 512 H 47.9672 5.36955 -2.00879 0
M  V30 513 H 46.3642 5.30897 -2.79765 0
M  V30 514 H 47.4342 3.89807 -2.88407 0
M  V30 515 N 48.7773 0.814389 1.34928 0
M  V30 516 C 49.7243 0.22822 2.29669 0
M  V30 517 C 50.6943 -0.642164 1.53184 0
M  V30 518 O 51.8793 -0.585605 1.81591 0
M  V30 519 C 49.0193 -0.61089 3.3965 0
M  V30 520 C 48.1323 0.280792 4.31086 0
M  V30 521 C 47.2673 -0.567067 5.28165 0
M  V30 522 C 46.3063 0.324531 6.11239 0
M  V30 523 N 45.4433 -0.483756 7.00431 0
M  V30 524 H 50.2833 1.04153 2.79206 0
M  V30 525 H 47.8203 0.525133 1.37407 0
M  V30 526 H 49.7783 -1.11263 4.0209 0
M  V30 527 H 48.4083 -1.38939 2.91369 0
M  V30 528 H 47.4603 0.900688 3.69583 0
M  V30 529 H 48.7723 0.966723 4.89342 0
M  V30 530 H 47.9263 -1.13363 5.96015 0
M  V30 531 H 46.6653 -1.28654 4.70425 0
M  V30 532 H 45.6703 0.903298 5.42329 0
M  V30 533 H 46.8953 1.04198 6.71059 0
M  V30 534 H 44.8413 -1.18706 6.45171 0
M  V30 535 H 44.7583 0.143965 7.55863 0
M  V30 536 H 46.0263 -1.03334 7.7262 0
M  V30 537 N 50.2554 -1.46986 0.568584 0
M  V30 538 C 51.2024 -2.30153 -0.172707 0
M  V30 539 C 52.1724 -1.39759 -0.897586 0
M  V30 540 O 53.3574 -1.68716 -0.891044 0
M  V30 541 C 50.4974 -3.23952 -1.1895 0
M  V30 542 C 49.6104 -4.29441 -0.469517 0
M  V30 543 C 48.7454 -5.1038 -1.47259 0
M  V30 544 C 47.7844 -6.07632 -0.738225 0
M  V30 545 N 46.9214 -6.8149 -1.68868 0
M  V30 546 H 51.7614 -2.93019 0.542596 0
M  V30 547 H 49.2984 -1.44422 0.279401 0
M  V30 548 H 51.2564 -3.76767 -1.79173 0
M  V30 549 H 49.8864 -2.62926 -1.87269 0
M  V30 550 H 48.9384 -3.79594 0.247467 0
M  V30 551 H 50.2504 -4.98689 0.105241 0
M  V30 552 H 49.4044 -5.67402 -2.14803 0
M  V30 553 H 48.1434 -4.4106 -2.08128 0
M  V30 554 H 47.1484 -5.49778 -0.0489293 0
M  V30 555 H 48.3734 -6.78966 -0.135129 0
M  V30 556 H 46.3194 -6.14891 -2.28573 0
M  V30 557 H 46.2364 -7.46948 -1.16636 0
M  V30 558 H 47.5044 -7.43078 -2.3549 0
M  V30 559 N 51.7335 -0.305618 -1.54608 0
M  V30 560 C 53.0105 0.355652 -1.92339 0
M  V30 561 C 53.3905 1.71324 -1.23335 0
M  V30 562 O 52.7385 2.25473 -0.370702 0
M  V30 563 C 52.9485 0.46572 -3.45879 0
M  V30 564 C 54.2965 0.734426 -4.182 0
M  V30 565 O 55.3205 0.54935 -3.51938 0
M  V30 566 O 54.1795 1.09024 -5.35515 0
M  V30 567 H 51.2735 0.199666 -0.802535 0
M  V30 568 H 53.8195 -0.354017 -1.65966 0
M  V30 569 H 52.5915 -0.488461 -3.88239 0
M  V30 570 H 52.2145 1.22367 -3.78301 0
M  V30 571 N 53.2116 1.57565 -0.0334293 0
M  V30 572 C 54.4576 1.92262 0.645226 0
M  V30 573 C 54.7906 0.910543 1.71531 0
M  V30 574 O 54.0656 -0.066099 1.94388 0
M  V30 575 C 54.3486 3.37422 1.2577 0
M  V30 576 C 54.2016 4.49369 0.196891 0
M  V30 577 C 55.5206 3.82628 2.17449 0
M  V30 578 H 52.6396 0.699171 0.233085 0
M  V30 579 H 55.2816 1.89779 -0.0915694 0
M  V30 580 H 53.4316 3.39669 1.88566 0
M  V30 581 H 55.1036 4.59254 -0.433962 0
M  V30 582 H 53.3466 4.31168 -0.477137 0
M  V30 583 H 54.0176 5.47978 0.665124 0
M  V30 584 H 56.4936 3.82145 1.64634 0
M  V30 585 H 55.3696 4.84883 2.57254 0
M  V30 586 H 55.6306 3.18376 3.0674 0
M  V30 587 N 54.6897 -0.239769 1.55765 0
M  V30 588 C 55.9367 -0.966801 1.7793 0
M  V30 589 C 56.2647 -1.85046 0.599015 0
M  V30 590 O 55.5197 -1.91197 -0.417395 0
M  V30 591 C 55.8187 -1.852 3.05672 0
M  V30 592 C 55.4847 -1.1231 4.36689 0
M  V30 593 C 54.1467 -0.921689 4.72291 0
M  V30 594 C 56.4987 -0.607019 5.17653 0
M  V30 595 C 53.8267 -0.191996 5.86386 0
M  V30 596 C 56.1787 0.109241 6.32506 0
M  V30 597 C 54.8427 0.322073 6.66723 0
M  V30 598 H 54.1127 -0.353778 0.651093 0
M  V30 599 H 56.7597 -0.23634 1.90036 0
M  V30 600 H 55.0647 -2.64975 2.8861 0
M  V30 601 H 56.7617 -2.41635 3.20021 0
M  V30 602 H 53.3517 -1.29004 4.08725 0
M  V30 603 H 57.5357 -0.750153 4.90598 0
M  V30 604 H 52.7917 -0.0166949 6.11398 0
M  V30 605 H 56.9657 0.516737 6.9448 0
M  V30 606 H 54.5927 0.88944 7.54979 0
M  V30 607 N 56.1678 -1.49265 -0.50573 0
M  V30 608 C 57.4138 -1.58748 -1.26202 0
M  V30 609 C 57.7468 -0.271227 -1.92297 0
M  V30 610 O 57.0218 0.724831 -1.80489 0
M  V30 611 C 57.3048 -2.74332 -2.33268 0
M  V30 612 C 57.1578 -4.15737 -1.71705 0
M  V30 613 C 58.4768 -2.85576 -3.34865 0
M  V30 614 H 55.5958 -0.577826 -0.457478 0
M  V30 615 H 58.2378 -1.81532 -0.560897 0
M  V30 616 H 56.3878 -2.55036 -2.93068 0
M  V30 617 H 58.0598 -4.46537 -1.15769 0
M  V30 618 H 56.3028 -4.21605 -1.02135 0
M  V30 619 H 56.9738 -4.92477 -2.49341 0
M  V30 620 H 59.4498 -3.03127 -2.8505 0
M  V30 621 H 58.3258 -3.68135 -4.07146 0
M  V30 622 H 58.5868 -1.94732 -3.96903 0
M  V30 623 N 57.6459 0.756429 -1.3826 0
M  V30 624 C 59.0569 1.33359 -1.30661 0
M  V30 625 C 59.4079 1.96161 0.0388875 0
M  V30 626 O 58.5329 1.94874 0.940918 0
M  V30 627 C 59.1279 2.42477 -2.36622 0
M  V30 628 C 57.6869 2.95922 -2.3261 0
M  V30 629 C 56.8339 1.69275 -2.19639 0
M  V30 630 H 59.7849 0.55552 -1.4866 0
M  V30 631 H 59.8059 3.22345 -2.02174 0
M  V30 632 H 59.3179 1.96739 -3.34538 0
M  V30 633 H 57.4189 3.45996 -1.38267 0
M  V30 634 H 57.5319 3.50494 -3.26636 0
M  V30 635 H 55.8959 1.92793 -1.66442 0
M  V30 636 H 56.6789 1.25619 -3.19491 0
M  V30 637 N 59.124 1.23083 0.984299 0
M  V30 638 C 60.401 0.9689 1.69917 0
M  V30 639 C 60.781 -0.513604 2.04757 0
M  V30 640 O 60.129 -1.48383 1.73767 0
M  V30 641 C 60.339 1.87518 2.94343 0
M  V30 642 C 61.687 2.13636 3.6694 0
M  V30 643 O 62.711 1.85036 3.04368 0
M  V30 644 O 61.57 2.62119 4.79537 0
M  V30 645 H 58.664 0.365095 0.742048 0
M  V30 646 H 61.21 1.34107 1.03987 0
M  V30 647 H 59.982 2.87756 2.65164 0
M  V30 648 H 59.605 1.50514 3.6801 0
M  V30 649 N 60.6021 -1.18246 1.0419 0
M  V30 650 C 61.8791 -1.84121 0.660208 0
M  V30 651 C 62.2591 -1.92778 -0.860221 0
M  V30 652 O 61.6071 -1.45464 -1.76217 0
M  V30 653 C 61.8171 -3.22355 1.33747 0
M  V30 654 C 63.1651 -3.98376 1.46906 0
M  V30 655 O 64.1891 -3.31799 1.29568 0
M  V30 656 O 63.0481 -5.17665 1.75171 0
M  V30 657 H 60.1421 -0.794036 0.231161 0
M  V30 658 H 62.6881 -1.25628 1.14087 0
M  V30 659 H 61.4601 -3.10964 2.37522 0
M  V30 660 H 61.0831 -3.88506 0.845515 0
M  V30 661 N 62.0802 -0.821533 -1.34494 0
M  V30 662 C 63.0272 -0.240397 -2.29545 0
M  V30 663 C 63.9972 0.634031 -1.53523 0
M  V30 664 O 65.1822 0.575966 -1.81899 0
M  V30 665 C 62.3222 0.592869 -3.39969 0
M  V30 666 C 61.4352 -0.30365 -4.30932 0
M  V30 667 C 60.5702 0.539049 -5.28458 0
M  V30 668 C 59.6092 -0.356942 -6.11058 0
M  V30 669 N 58.7462 0.446603 -7.00678 0
M  V30 670 H 63.5862 -1.05632 -2.7865 0
M  V30 671 H 61.1232 -0.532413 -1.37127 0
M  V30 672 H 63.0812 1.09129 -4.02675 0
M  V30 673 H 61.7112 1.37392 -2.92102 0
M  V30 674 H 60.7632 -0.920276 -3.691 0
M  V30 675 H 62.0752 -0.992661 -4.88823 0
M  V30 676 H 61.2292 1.102 -5.96608 0
M  V30 677 H 59.9682 1.26157 -4.71101 0
M  V30 678 H 58.9732 -0.932047 -5.41842 0
M  V30 679 H 60.1982 -1.07755 -6.70497 0
M  V30 680 H 58.1442 1.15282 -6.45791 0
M  V30 681 H 58.0612 -0.184048 -7.55776 0
M  V30 682 H 59.3292 0.992352 -7.73158 0
M  V30 683 N 63.5583 1.46682 -0.576371 0
M  V30 684 C 64.4903 2.28341 0.198231 0
M  V30 685 C 65.5033 1.38141 0.861453 0
M  V30 686 O 66.6923 1.62797 0.732082 0
M  V30 687 C 63.7923 3.12986 1.29972 0
M  V30 688 C 62.9653 4.31271 0.729639 0
M  V30 689 C 62.0243 4.97363 1.71803 0
M  V30 690 O 61.0503 5.55156 1.25658 0
M  V30 691 N 62.2523 4.93796 3.05198 0
M  V30 692 H 65.0173 2.9546 -0.502324 0
M  V30 693 H 62.5783 1.56525 -0.413715 0
M  V30 694 H 64.5703 3.54066 1.96008 0
M  V30 695 H 63.1403 2.47984 1.90323 0
M  V30 696 H 62.3603 3.94052 -0.108012 0
M  V30 697 H 63.6483 5.07739 0.328438 0
M  V30 698 H 63.0463 4.48077 3.45317 0
M  V30 699 H 61.6033 5.38837 3.6674 0
M  V30 700 N 65.0364 0.313813 1.54444 0
M  V30 701 C 65.9464 -0.565714 2.27677 0
M  V30 702 C 66.9624 -1.13754 1.31666 0
M  V30 703 O 68.1384 -1.15959 1.64668 0
M  V30 704 C 65.2034 -1.71528 3.01296 0
M  V30 705 C 64.2644 -1.17624 4.12872 0
M  V30 706 C 63.4974 -2.27102 4.8297 0
M  V30 707 O 63.7204 -3.47256 4.52514 0
M  V30 708 O 62.6544 -1.9307 5.70094 0
M  V30 709 H 66.4804 0.0287296 3.03686 0
M  V30 710 H 64.0654 0.0798312 1.49187 0
M  V30 711 H 65.9474 -2.38476 3.4743 0
M  V30 712 H 64.6224 -2.29608 2.2817 0
M  V30 713 H 63.5294 -0.472124 3.71109 0
M  V30 714 H 64.8624 -0.640695 4.88012 0
M  V30 715 N 66.5145 -1.57545 0.0417849 0
M  V30 716 C 67.7615 -1.92317 -0.634082 0
M  V30 717 C 68.0895 -0.919334 -1.71402 0
M  V30 718 O 67.3445 0.0698253 -1.95575 0
M  V30 719 C 67.6435 -3.33794 -1.27735 0
M  V30 720 C 67.3095 -4.49716 -0.326543 0
M  V30 721 C 65.9715 -4.81156 -0.0648814 0
M  V30 722 C 68.3235 -5.20182 0.325623 0
M  V30 723 C 65.6515 -5.80414 0.856539 0
M  V30 724 C 68.0035 -6.20424 1.23518 0
M  V30 725 C 66.6675 -6.50298 1.5056 0
M  V30 726 H 65.9375 -0.703736 -0.232027 0
M  V30 727 H 68.5845 -1.91205 0.106259 0
M  V30 728 H 66.8895 -3.31228 -2.09274 0
M  V30 729 H 68.5865 -3.57975 -1.80707 0
M  V30 730 H 65.1765 -4.25176 -0.540665 0
M  V30 731 H 69.3605 -4.96112 0.136546 0
M  V30 732 H 64.6165 -6.019 1.07363 0
M  V30 733 H 68.7905 -6.74141 1.74664 0
M  V30 734 H 66.4175 -7.27025 2.22123 0
M  V30 735 N 67.9926 0.231505 -1.5589 0
M  V30 736 C 69.2386 0.95877 -1.78705 0
M  V30 737 C 69.5716 1.8438 -0.609725 0
M  V30 738 O 68.8466 1.90521 0.391426 0
M  V30 739 C 69.1296 1.8062 -3.11526 0
M  V30 740 C 68.9826 0.948328 -4.39689 0
M  V30 741 C 70.3016 2.78585 -3.40703 0
M  V30 742 H 67.4206 0.347129 -0.650131 0
M  V30 743 H 70.0626 0.228259 -1.88624 0
M  V30 744 H 68.2126 2.42902 -3.03201 0
M  V30 745 H 69.8846 0.343016 -4.60023 0
M  V30 746 H 68.1276 0.253314 -4.3306 0
M  V30 747 H 68.7986 1.57543 -5.29041 0
M  V30 748 H 71.2746 2.26439 -3.49091 0
M  V30 749 H 70.1506 3.34988 -4.34826 0
M  V30 750 H 70.4116 3.55825 -2.62375 0
M  V30 751 N 69.4707 1.49531 0.497807 0
M  V30 752 C 70.4177 1.66436 1.59899 0
M  V30 753 C 71.3877 0.505793 1.58212 0
M  V30 754 O 72.5727 0.733202 1.7615 0
M  V30 755 C 69.7127 1.7399 2.98029 0
M  V30 756 C 68.8257 3.01172 3.09708 0
M  V30 757 C 67.9607 2.99686 4.38591 0
M  V30 758 C 66.9997 4.21434 4.43914 0
M  V30 759 N 66.1367 4.1784 5.64229 0
M  V30 760 H 70.9767 2.60459 1.44793 0
M  V30 761 H 68.5137 1.29137 0.704423 0
M  V30 762 H 70.4717 1.76352 3.78095 0
M  V30 763 H 69.1017 0.834301 3.11832 0
M  V30 764 H 68.1537 3.08408 2.22685 0
M  V30 765 H 69.4657 3.91165 3.09502 0
M  V30 766 H 68.6197 3.00628 5.2698 0
M  V30 767 H 67.3587 2.07477 4.41367 0
M  V30 768 H 66.3637 4.20733 3.53926 0
M  V30 769 H 67.5887 5.14839 4.42851 0
M  V30 770 H 65.5347 3.28469 5.67841 0
M  V30 771 H 65.4517 5.01571 5.65652 0
M  V30 772 H 66.7197 4.22889 6.54817 0
M  V30 773 N 70.9488 -0.749086 1.3866 0
M  V30 774 C 71.9118 -1.84457 1.36045 0
M  V30 775 C 72.9118 -1.58682 0.260122 0
M  V30 776 O 74.1018 -1.66343 0.517261 0
M  V30 777 C 71.2338 -3.22008 1.11911 0
M  V30 778 H 72.4268 -1.88182 2.33512 0
M  V30 779 H 69.9798 -0.951266 1.24019 0
M  V30 780 H 70.7148 -3.2395 0.150686 0
M  V30 781 H 70.4998 -3.42111 1.91579 0
M  V30 782 H 71.9898 -4.0208 1.12788 0
M  V30 783 N 72.4269 -1.23603 -0.977757 0
M  V30 784 C 73.3739 -1.01954 -2.07061 0
M  V30 785 C 74.3439 0.0638697 -1.65977 0
M  V30 786 O 75.5289 -0.0887624 -1.90593 0
M  V30 787 C 72.6689 -0.619658 -3.39491 0
M  V30 788 C 71.7819 -1.77547 -3.93829 0
M  V30 789 C 70.9169 -1.32212 -5.14484 0
M  V30 790 C 69.9559 -2.44852 -5.60994 0
M  V30 791 N 69.0929 -2.00456 -6.72876 0
M  V30 792 H 73.9329 -1.95495 -2.24913 0
M  V30 793 H 71.4699 -0.973861 -1.10247 0
M  V30 794 H 73.4279 -0.368898 -4.15566 0
M  V30 795 H 72.0579 0.278752 -3.21594 0
M  V30 796 H 71.1099 -2.14016 -3.14486 0
M  V30 797 H 72.4219 -2.62219 -4.24314 0
M  V30 798 H 71.5759 -1.02965 -5.97899 0
M  V30 799 H 70.3149 -0.445808 -4.85658 0
M  V30 800 H 69.3199 -2.74871 -4.76157 0
M  V30 801 H 70.5449 -3.33024 -5.91837 0
M  V30 802 H 68.4909 -1.15208 -6.45804 0
M  V30 803 H 68.4079 -2.78687 -7.02759 0
M  V30 804 H 69.6759 -1.7432 -7.59758 0
M  V30 805 N 73.905 1.17692 -1.04816 0
M  V30 806 C 75.154 1.87192 -0.751132 0
M  V30 807 C 75.467 1.8169 0.724441 0
M  V30 808 O 76.673 2.46625 1.13527 0
M  V30 809 C 75.129 3.35857 -1.29338 0
M  V30 810 C 74.737 3.4987 -2.79812 0
M  V30 811 C 76.481 4.10709 -1.07322 0
M  V30 812 C 74.388 4.92536 -3.27356 0
M  V30 813 H 73.318 0.701162 -0.277288 0
M  V30 814 H 75.969 1.32932 -1.26496 0
M  V30 815 H 74.351 3.89631 -0.707376 0
M  V30 816 H 75.525 3.06332 -3.44235 0
M  V30 817 H 73.84 2.88433 -3.00325 0
M  V30 818 H 76.437 5.15952 -1.4035 0
M  V30 819 H 76.78 4.16299 -0.0108001 0
M  V30 820 H 77.313 3.6313 -1.62423 0
M  V30 821 H 74.052 4.92119 -4.33012 0
M  V30 822 H 73.572 5.3676 -2.67673 0
M  V30 823 H 75.251 5.61288 -3.21815 0
M  V30 824 N 75.3831 0.828654 1.34056 0
M  V30 825 C 76.6291 0.42008 1.98402 0
M  V30 826 C 76.9621 -1.01564 1.65525 0
M  V30 827 O 76.2371 -1.70834 0.929831 0
M  V30 828 C 76.5201 0.62927 3.54559 0
M  V30 829 C 76.3731 2.11152 3.97159 0
M  V30 830 C 77.6921 0.0688756 4.40046 0
M  V30 831 H 74.8111 0.154104 0.720709 0
M  V30 832 H 77.4531 1.04228 1.5886 0
M  V30 833 H 75.6031 0.0996418 3.88372 0
M  V30 834 H 77.2751 2.70522 3.73651 0
M  V30 835 H 75.5181 2.59985 3.47261 0
M  V30 836 H 76.1891 2.20868 5.05887 0
M  V30 837 H 78.6651 0.521458 4.1282 0
M  V30 838 H 77.5411 0.245006 5.48353 0
M  V30 839 H 77.8021 -1.0266 4.30015 0
M  V30 840 N 76.8612 -1.46375 0.584142 0
M  V30 841 C 78.0862 -2.07268 0.0740405 0
M  V30 842 C 78.5112 -1.42979 -1.22223 0
M  V30 843 O 77.8692 -0.514092 -1.73859 0
M  V30 844 C 77.9172 -3.60518 -0.0767769 0
M  V30 845 O 77.0212 -3.96533 -1.13292 0
M  V30 846 H 76.3622 -0.660961 0.0634524 0
M  V30 847 H 78.8922 -1.87991 0.807492 0
M  V30 848 H 78.9022 -4.07021 -0.282489 0
M  V30 849 H 77.5772 -4.06702 0.86986 0
M  V30 850 H 76.1542 -3.61738 -0.905553 0
M  V30 851 N 78.3393 -0.321999 -1.54275 0
M  V30 852 C 79.7553 0.0306999 -1.5957 0
M  V30 853 C 79.9553 1.50614 -1.33857 0
M  V30 854 O 79.0113 2.2619 -1.12223 0
M  V30 855 C 80.3243 -0.386122 -2.98211 0
M  V30 856 C 81.8723 -0.336647 -3.11184 0
M  V30 857 C 82.3473 -0.728607 -4.52167 0
M  V30 858 N 83.8383 -0.681952 -4.58152 0
M  V30 859 C 84.5733 -0.957449 -5.6535 0
M  V30 860 N 84.0693 -1.3 -6.80494 0
M  V30 861 N 85.8623 -0.883113 -5.55119 0
M  V30 862 H 78.0133 -1.28332 -1.69247 0
M  V30 863 H 80.2763 -0.521716 -0.791528 0
M  V30 864 H 79.9823 -1.41404 -3.22022 0
M  V30 865 H 79.8563 0.249662 -3.76373 0
M  V30 866 H 82.2433 0.682058 -2.8711 0
M  V30 867 H 82.3243 -1.00734 -2.3513 0
M  V30 868 H 81.9683 -1.74522 -4.76974 0
M  V30 869 H 81.8983 -0.0356152 -5.26588 0
M  V30 870 H 84.3893 -0.428985 -3.75457 0
M  V30 871 H 84.7023 -1.49563 -7.58189 0
M  V30 872 H 83.0473 -1.33824 -6.81994 0
M  V30 873 H 86.2383 -0.615001 -4.64042 0
M  V30 874 H 86.4113 -1.10118 -6.38575 0
M  V30 875 N 79.8174 1.5752 -0.0501392 0
M  V30 876 C 80.7274 2.14952 0.939827 0
M  V30 877 C 81.7434 1.10706 1.34239 0
M  V30 878 O 82.9194 1.42869 1.41952 0
M  V30 879 C 79.9844 2.68232 2.19665 0
M  V30 880 C 79.0454 3.87272 1.85253 0
M  V30 881 C 78.2784 4.38002 3.04943 0
M  V30 882 O 78.5014 3.87811 4.18281 0
M  V30 883 O 77.4354 5.29602 2.86017 0
M  V30 884 H 81.2614 2.9986 0.481392 0
M  V30 885 H 78.8464 1.4841 0.171699 0
M  V30 886 H 80.7284 3.02475 2.93406 0
M  V30 887 H 79.4034 1.86395 2.64648 0
M  V30 888 H 78.3104 3.5792 1.0883 0
M  V30 889 H 79.6434 4.70336 1.4507 0
M  V30 890 N 81.2955 -0.223234 1.56011 0
M  V30 891 C 82.5435 -0.946003 1.78592 0
M  V30 892 C 82.8645 -1.84936 0.618349 0
M  V30 893 O 82.1345 -1.92473 -0.364833 0
M  V30 894 H 80.7145 -0.352298 0.658707 0
M  V30 895 H 83.3765 -0.235494 1.93472 0
M  V30 896 H 82.4725 -1.55381 2.70672 0
M  V30 897 N 82.7736 -1.49793 -0.48987 0
M  V30 898 C 84.0216 -1.59525 -1.24081 0
M  V30 899 C 84.3426 -0.288953 -1.92847 0
M  V30 900 O 83.6126 0.692436 -1.83254 0
M  V30 901 H 82.1926 -0.587796 -0.460983 0
M  V30 902 H 84.8546 -1.86477 -0.566778 0
M  V30 903 H 83.9506 -2.39696 -1.99881 0
M  V30 904 N 84.2517 0.741722 -1.39055 0
M  V30 905 C 85.1987 1.85566 -1.37237 0
M  V30 906 C 86.1687 1.64457 -0.233072 0
M  V30 907 O 87.3537 1.85957 -0.427147 0
M  V30 908 C 84.4937 3.23004 -1.215 0
M  V30 909 C 83.6067 3.55864 -2.44918 0
M  V30 910 C 82.7417 4.82669 -2.21821 0
M  V30 911 C 81.7807 5.08351 -3.40948 0
M  V30 912 N 80.9177 6.26356 -3.17211 0
M  V30 913 H 85.7577 1.86455 -2.32462 0
M  V30 914 H 83.2947 0.911176 -1.15482 0
M  V30 915 H 85.2527 4.02331 -1.10389 0
M  V30 916 H 83.8827 3.21411 -0.29908 0
M  V30 917 H 82.9347 2.7129 -2.66657 0
M  V30 918 H 84.2467 3.70765 -3.33668 0
M  V30 919 H 83.4007 5.69962 -2.07914 0
M  V30 920 H 82.1397 4.69929 -1.30454 0
M  V30 921 H 81.1447 4.19522 -3.55361 0
M  V30 922 H 82.3697 5.22981 -4.33207 0
M  V30 923 H 80.3157 6.14917 -2.28502 0
M  V30 924 H 80.2327 6.41813 -3.99515 0
M  V30 925 H 81.5007 7.16506 -3.06984 0
M  V30 926 N 85.7298 1.2412 0.971189 0
M  V30 927 C 86.9758 1.08041 1.71625 0
M  V30 928 C 87.3088 -0.380407 1.90438 0
M  V30 929 O 86.5838 -1.28127 1.46334 0
M  V30 930 C 86.8668 1.81682 3.10908 0
M  V30 931 C 86.7198 3.35493 2.99608 0
M  V30 932 C 88.0388 1.58671 4.10501 0
M  V30 933 H 85.1578 0.39388 0.622919 0
M  V30 934 H 87.7998 1.52743 1.13003 0
M  V30 935 H 85.9498 1.43684 3.60953 0
M  V30 936 H 87.6218 3.83068 2.57015 0
M  V30 937 H 85.8648 3.64052 2.35899 0
M  V30 938 H 86.5358 3.82217 3.98264 0
M  V30 939 H 89.0118 1.91719 3.69301 0
M  V30 940 H 87.8878 2.1266 5.06031 0
M  V30 941 H 88.1488 0.524161 4.38982 0
M  V30 942 N 87.2079 -1.17134 1.05439 0
M  V30 943 C 88.4359 -1.91372 0.786414 0
M  V30 944 C 88.8509 -1.76955 -0.658202 0
M  V30 945 O 88.2079 -1.10838 -1.44987 0
M  V30 946 C 88.2589 -3.42356 1.1608 0
M  V30 947 O 87.9799 -3.56332 2.54871 0
M  V30 948 C 89.4809 -4.33663 0.919322 0
M  V30 949 H 86.7009 -0.607118 0.285743 0
M  V30 950 H 89.2449 -1.48525 1.40572 0
M  V30 951 H 87.3999 -3.82939 0.586191 0
M  V30 952 H 87.8139 -4.49896 2.69618 0
M  V30 953 H 89.2879 -5.38099 1.231 0
M  V30 954 H 89.7649 -4.38959 -0.145359 0
M  V30 955 H 90.3709 -3.98796 1.47789 0
M  V30 956 N 88.686 -0.835752 -1.33615 0
M  V30 957 C 89.649 -0.272 -2.2758 0
M  V30 958 C 90.649 0.557487 -1.50827 0
M  V30 959 O 91.839 0.37173 -1.70188 0
M  V30 960 C 88.971 0.617173 -3.35267 0
M  V30 961 H 90.164 -1.10111 -2.78954 0
M  V30 962 H 87.717 -0.608594 -1.43965 0
M  V30 963 H 88.452 1.46884 -2.89129 0
M  V30 964 H 88.237 0.0237066 -3.92093 0
M  V30 965 H 89.727 1.005 -4.05326 0
M  V30 966 N 90.1641 1.46063 -0.591896 0
M  V30 967 C 91.0741 2.34192 0.13831 0
M  V30 968 C 92.0901 1.50305 0.876608 0
M  V30 969 O 93.2661 1.8315 0.837728 0
M  V30 970 C 90.3311 3.27656 1.13326 0
M  V30 971 C 89.3921 4.27445 0.39863 0
M  V30 972 C 88.6251 5.16443 1.34618 0
M  V30 973 O 88.8481 5.08553 2.58321 0
M  V30 974 O 87.7821 5.95843 0.851768 0
M  V30 975 H 91.6081 2.98002 -0.58552 0
M  V30 976 H 89.1931 1.45188 -0.352239 0
M  V30 977 H 91.0751 3.85291 1.70671 0
M  V30 978 H 89.7501 2.6643 1.83839 0
M  V30 979 H 88.6571 3.73471 -0.216895 0
M  V30 980 H 89.9901 4.91482 -0.265709 0
M  V30 981 N 91.6422 0.330177 1.54103 0
M  V30 982 C 92.8702 -0.272179 2.05102 0
M  V30 983 C 93.2852 -1.45267 1.20595 0
M  V30 984 O 92.6422 -1.8094 0.238144 0
M  V30 985 C 92.6932 -0.70023 3.54653 0
M  V30 986 O 92.4142 0.433301 4.35952 0
M  V30 987 C 93.9152 -1.3647 4.21771 0
M  V30 988 H 91.1352 -0.0549159 0.668749 0
M  V30 989 H 93.6792 0.478285 1.98828 0
M  V30 990 H 91.8342 -1.40066 3.61193 0
M  V30 991 H 92.2482 0.0947539 5.24414 0
M  V30 992 H 93.7222 -1.61509 5.27843 0
M  V30 993 H 94.1992 -2.31409 3.73292 0
M  V30 994 H 94.8052 -0.706675 4.19388 0
M  V30 995 N 93.1203 -1.57491 0.0584922 0
M  V30 996 C 94.0303 -2.15448 -0.928414 0
M  V30 997 C 95.0463 -1.11416 -1.3365 0
M  V30 998 O 96.2223 -1.4362 -1.41193 0
M  V30 999 C 93.2873 -2.69393 -2.18239 0
M  V30 1000 C 92.3483 -3.88249 -1.83196 0
M  V30 1001 C 91.5813 -4.39613 -3.02616 0
M  V30 1002 O 91.8043 -3.90023 -4.16219 0
M  V30 1003 O 90.7383 -5.31111 -2.83204 0
M  V30 1004 H 94.5643 -3.00112 -0.465483 0
M  V30 1005 H 92.1493 -1.48499 -0.163826 0
M  V30 1006 H 94.0313 -3.04026 -2.91798 0
M  V30 1007 H 92.7063 -1.87796 -2.63656 0
M  V30 1008 H 91.6133 -3.58492 -1.06931 0
M  V30 1009 H 92.9463 -4.71098 -1.42573 0
M  V30 1010 N 94.5984 0.214957 -1.56127 0
M  V30 1011 C 95.8284 0.953707 -1.8327 0
M  V30 1012 C 96.2364 1.78181 -0.636262 0
M  V30 1013 O 95.5794 1.79191 0.404516 0
M  V30 1014 C 95.6414 1.91516 -3.0424 0
M  V30 1015 C 95.3054 1.27094 -4.38972 0
M  V30 1016 C 96.3024 0.657575 -5.15725 0
M  V30 1017 C 93.9874 1.28073 -4.85698 0
M  V30 1018 C 95.9814 0.0625968 -6.37369 0
M  V30 1019 C 93.6684 0.681914 -6.07283 0
M  V30 1020 C 94.6664 0.0739046 -6.8296 0
M  V30 1021 O 94.3544 -0.515582 -8.02245 0
M  V30 1022 H 94.0864 0.284764 -0.613095 0
M  V30 1023 H 96.6404 0.233283 -2.04071 0
M  V30 1024 H 94.8704 2.67475 -2.79274 0
M  V30 1025 H 96.5594 2.52001 -3.18198 0
M  V30 1026 H 97.3254 0.642288 -4.80728 0
M  V30 1027 H 93.2044 1.74337 -4.26764 0
M  V30 1028 H 96.7484 -0.412593 -6.96379 0
M  V30 1029 H 92.6454 0.694636 -6.41752 0
M  V30 1030 H 93.4134 -0.410544 -8.1747 0
M  V30 1031 N 96.0765 1.50051 0.48192 0
M  V30 1032 C 97.3245 1.60181 1.23234 0
M  V30 1033 C 97.6455 0.299176 1.92691 0
M  V30 1034 O 96.9155 -0.682708 1.83619 0
M  V30 1035 H 95.4955 0.590232 0.457859 0
M  V30 1036 H 98.1575 1.86775 0.556881 0
M  V30 1037 H 97.2535 2.40753 1.98607 0
M  V30 1038 N 97.5546 -0.734337 1.39446 0
M  V30 1039 C 98.5016 -1.84835 1.38219 0
M  V30 1040 C 99.4716 -1.64331 0.24179 0
M  V30 1041 O 100.657 -1.85728 0.437002 0
M  V30 1042 C 97.7966 -3.22355 1.23212 0
M  V30 1043 C 96.9096 -3.5456 2.46801 0
M  V30 1044 C 96.0446 -4.81485 2.24377 0
M  V30 1045 C 95.0836 -5.06536 3.43639 0
M  V30 1046 N 94.2206 -6.24665 3.20528 0
M  V30 1047 H 99.0606 -1.85219 2.33448 0
M  V30 1048 H 96.5976 -0.905039 1.15963 0
M  V30 1049 H 98.5556 -4.0174 1.12522 0
M  V30 1050 H 97.1856 -3.21248 0.316121 0
M  V30 1051 H 96.2376 -2.69872 2.68092 0
M  V30 1052 H 97.5496 -3.6899 3.3563 0
M  V30 1053 H 96.7036 -5.68852 2.10933 0
M  V30 1054 H 95.4426 -4.6923 1.32944 0
M  V30 1055 H 94.4476 -4.17632 3.5758 0
M  V30 1056 H 95.6726 -5.20676 4.35974 0
M  V30 1057 H 93.6186 -6.13696 2.3176 0
M  V30 1058 H 93.5356 -6.39685 4.02913 0
M  V30 1059 H 94.8036 -7.14868 3.10779 0
M  V30 1060 N 99.0327 -1.24633 -0.964593 0
M  V30 1061 C 100.261 -1.11501 -1.74285 0
M  V30 1062 C 100.676 0.332165 -1.85855 0
M  V30 1063 O 100.033 1.22903 -1.34911 0
M  V30 1064 C 100.084 -1.75258 -3.16175 0
M  V30 1065 O 99.8047 -3.14318 -3.05182 0
M  V30 1066 C 101.306 -1.67776 -4.10324 0
M  V30 1067 H 98.5257 -0.389407 -0.546446 0
M  V30 1068 H 101.07 -1.64801 -1.21083 0
M  V30 1069 H 99.2247 -1.25954 -3.66353 0
M  V30 1070 H 99.6387 -3.4551 -3.94618 0
M  V30 1071 H 101.113 -2.17064 -5.0753 0
M  V30 1072 H 101.59 -0.639584 -4.34518 0
M  V30 1073 H 102.196 -2.16522 -3.66058 0
M  V30 1074 N 100.511 1.16574 -1.06058 0
M  V30 1075 C 101.757 1.87324 -0.777022 0
M  V30 1076 C 102.09 1.81351 0.694645 0
M  V30 1077 O 101.365 1.22753 1.50871 0
M  V30 1078 C 101.648 3.36991 -1.26922 0
M  V30 1079 C 101.501 3.51667 -2.80447 0
M  V30 1080 C 102.82 4.3131 -0.87521 0
M  V30 1081 H 99.9388 0.680191 -0.28374 0
M  V30 1082 H 102.581 1.37036 -1.3161 0
M  V30 1083 H 100.731 3.79949 -0.81063 0
M  V30 1084 H 102.403 3.17664 -3.34495 0
M  V30 1085 H 100.646 2.93656 -3.19294 0
M  V30 1086 H 101.317 4.56766 -3.0995 0
M  V30 1087 H 103.793 3.9624 -1.27014 0
M  V30 1088 H 102.669 5.34545 -1.2471 0
M  V30 1089 H 102.93 4.41552 0.220071 0
M  V30 1090 N 101.989 0.842826 1.3317 0
M  V30 1091 C 103.217 0.454055 2.01856 0
M  V30 1092 C 103.632 -0.94587 1.63397 0
M  V30 1093 O 102.989 -1.61534 0.849302 0
M  V30 1094 C 103.04 0.569715 3.56982 0
M  V30 1095 O 102.761 1.91448 3.94055 0
M  V30 1096 C 104.262 0.178412 4.42941 0
M  V30 1097 H 101.482 0.17979 0.646465 0
M  V30 1098 H 104.026 1.1365 1.70012 0
M  V30 1099 H 102.181 -0.0648587 3.87346 0
M  V30 1100 H 102.595 1.90282 4.88767 0
M  V30 1101 H 104.069 0.310376 5.51127 0
M  V30 1102 H 104.546 -0.880056 4.30293 0
M  V30 1103 H 105.152 0.787579 4.17944 0
M  V30 1104 N 103.467 -1.45747 0.599634 0
M  V30 1105 C 104.713 -2.02592 0.0918643 0
M  V30 1106 C 105.046 -1.46806 -1.27128 0
M  V30 1107 O 104.321 -0.639658 -1.83681 0
M  V30 1108 C 104.604 -3.60073 0.0443398 0
M  V30 1109 C 104.457 -4.26208 1.43759 0
M  V30 1110 C 105.776 -4.35309 -0.647608 0
M  V30 1111 H 102.895 -0.736175 0.034857 0
M  V30 1112 H 105.537 -1.73694 0.770081 0
M  V30 1113 H 103.687 -3.84823 -0.533224 0
M  V30 1114 H 105.359 -4.12668 2.06162 0
M  V30 1115 H 103.602 -3.84916 2.00056 0
M  V30 1116 H 104.273 -5.35069 1.35665 0
M  V30 1117 H 106.749 -4.15805 -0.156776 0
M  V30 1118 H 105.625 -5.45038 -0.649942 0
M  V30 1119 H 105.886 -4.07598 -1.71219 0
M  V30 1120 N 104.945 -0.338344 -1.53925 0
M  V30 1121 C 105.892 0.520845 -2.24846 0
M  V30 1122 C 106.862 1.09976 -1.24477 0
M  V30 1123 O 108.047 1.13735 -1.53196 0
M  V30 1124 C 105.187 1.6685 -3.02084 0
M  V30 1125 C 104.3 1.11739 -4.17299 0
M  V30 1126 C 103.435 2.23193 -4.82036 0
M  V30 1127 C 102.474 1.65407 -5.89328 0
M  V30 1128 N 101.611 2.70582 -6.47866 0
M  V30 1129 H 106.451 -0.0904881 -2.97863 0
M  V30 1130 H 103.988 -0.0564282 -1.46992 0
M  V30 1131 H 105.946 2.34407 -3.45122 0
M  V30 1132 H 104.576 2.2509 -2.31375 0
M  V30 1133 H 103.628 0.332919 -3.7894 0
M  V30 1134 H 104.94 0.654677 -4.94485 0
M  V30 1135 H 104.094 2.98626 -5.28117 0
M  V30 1136 H 102.833 2.72807 -4.04262 0
M  V30 1137 H 101.838 0.884779 -5.42634 0
M  V30 1138 H 103.063 1.16652 -6.69006 0
M  V30 1139 H 101.009 3.1946 -5.72959 0
M  V30 1140 H 100.926 2.28917 -7.20509 0
M  V30 1141 H 102.194 3.45799 -6.98601 0
M  V30 1142 N 106.423 1.57458 -0.0668435 0
M  V30 1143 C 107.333 2.15937 0.916975 0
M  V30 1144 C 108.349 1.12123 1.33058 0
M  V30 1145 O 109.525 1.44366 1.40429 0
M  V30 1146 C 106.59 2.70547 2.16807 0
M  V30 1147 C 105.651 3.89215 1.81135 0
M  V30 1148 C 104.884 4.41211 3.0028 0
M  V30 1149 O 105.107 3.92225 4.14144 0
M  V30 1150 O 104.041 5.32605 2.80384 0
M  V30 1151 H 107.867 3.00354 0.449561 0
M  V30 1152 H 105.452 1.48584 0.155949 0
M  V30 1153 H 107.334 3.0557 2.90181 0
M  V30 1154 H 106.009 1.89192 2.62656 0
M  V30 1155 H 104.916 3.59054 1.05028 0
M  V30 1156 H 106.249 4.71848 1.40073 0
M  V30 1157 N 107.901 -0.206675 1.56239 0
M  V30 1158 C 109.178 -0.954051 1.70755 0
M  V30 1159 C 109.558 -2.01841 0.618353 0
M  V30 1160 O 108.906 -2.25444 -0.372434 0
M  V30 1161 C 109.116 -1.551 3.12642 0
M  V30 1162 C 110.464 -2.03757 3.72516 0
M  V30 1163 O 111.488 -1.64965 3.15698 0
M  V30 1164 O 110.347 -2.75103 4.72208 0
M  V30 1165 H 107.441 -0.446636 0.696021 0
M  V30 1166 H 109.987 -0.197283 1.68549 0
M  V30 1167 H 108.759 -0.783212 3.83382 0
M  V30 1168 H 108.382 -2.37291 3.19028 0
M  V30 1169 N 109.379 -1.50304 -0.473955 0
M  V30 1170 C 110.311 -1.65109 -1.58971 0
M  V30 1171 C 111.324 -0.532676 -1.53839 0
M  V30 1172 O 112.513 -0.805751 -1.59279 0
M  V30 1173 C 109.613 -1.61684 -2.97845 0
M  V30 1174 C 108.786 -2.8951 -3.27876 0
M  V30 1175 C 107.845 -2.78768 -4.4629 0
M  V30 1176 O 106.871 -3.52722 -4.46739 0
M  V30 1177 N 108.073 -1.9213 -5.47783 0
M  V30 1178 H 110.838 -2.61347 -1.46689 0
M  V30 1179 H 108.399 -1.47732 -0.662324 0
M  V30 1180 H 110.391 -1.52114 -3.75024 0
M  V30 1181 H 108.961 -0.731925 -3.03911 0
M  V30 1182 H 108.181 -3.13228 -2.39336 0
M  V30 1183 H 109.469 -3.74199 -3.4475 0
M  V30 1184 H 108.867 -1.31353 -5.50239 0
M  V30 1185 H 107.424 -1.88466 -6.23958 0
M  V30 1186 N 110.857 0.726932 -1.39834 0
M  V30 1187 C 112.103 1.48884 -1.377 0
M  V30 1188 C 112.436 1.94185 0.0244852 0
M  V30 1189 O 111.711 1.67361 0.990986 0
M  V30 1190 C 111.994 2.72288 -2.3565 0
M  V30 1191 C 111.847 2.32956 -3.84775 0
M  V30 1192 C 113.166 3.74414 -2.31306 0
M  V30 1193 H 110.285 0.540062 -0.5015 0
M  V30 1194 H 112.927 0.830547 -1.70886 0
M  V30 1195 H 111.077 3.28457 -2.07481 0
M  V30 1196 H 112.749 1.82356 -4.23726 0
M  V30 1197 H 110.992 1.65088 -4.01159 0
M  V30 1198 H 111.663 3.21362 -4.4881 0
M  V30 1199 H 114.139 3.27849 -2.56231 0
M  V30 1200 H 113.015 4.58414 -3.01907 0
M  V30 1201 H 113.276 4.21909 -1.32081 0
M  V30 1202 N 112.336 1.25143 0.95797 0
M  V30 1203 C 113.269 0.995565 2.05338 0
M  V30 1204 C 114.247 -0.0740423 1.62431 0
M  V30 1205 O 115.431 0.0649212 1.88388 0
M  V30 1206 C 112.558 0.504298 3.34925 0
M  V30 1207 C 111.604 1.56393 3.96792 0
M  V30 1208 S 112.437 3.14815 4.33188 0
M  V30 1209 C 113.593 2.67415 5.65898 0
M  V30 1210 H 113.826 1.92309 2.26726 0
M  V30 1211 H 111.359 1.08635 1.09716 0
M  V30 1212 H 113.317 0.227497 4.09869 0
M  V30 1213 H 111.978 -0.402671 3.11508 0
M  V30 1214 H 111.171 1.17082 4.90212 0
M  V30 1215 H 110.773 1.79124 3.28315 0
M  V30 1216 H 113.065 2.10833 6.4386 0
M  V30 1217 H 114.008 3.59463 6.10076 0
M  V30 1218 H 114.416 2.07521 5.24972 0
M  V30 1219 N 113.814 -1.1601 1.06675 0
M  V30 1220 C 114.746 -2.20115 0.638921 0
M  V30 1221 C 115.759 -1.59916 -0.305057 0
M  V30 1222 O 116.948 -1.78245 -0.0954446 0
M  V30 1223 C 114.048 -3.38798 -0.0830083 0
M  V30 1224 C 113.221 -4.2855 0.875426 0
M  V30 1225 C 112.28 -5.25849 0.192042 0
M  V30 1226 O 111.306 -5.63102 0.830921 0
M  V30 1227 N 112.508 -5.70648 -1.06493 0
M  V30 1228 H 115.273 -2.57439 1.53444 0
M  V30 1229 H 112.834 -1.31057 0.950557 0
M  V30 1230 H 114.826 -4.00936 -0.550685 0
M  V30 1231 H 113.396 -2.99947 -0.880386 0
M  V30 1232 H 112.616 -3.63617 1.52238 0
M  V30 1233 H 113.904 -4.85393 1.52548 0
M  V30 1234 H 113.302 -5.42482 -1.60405 0
M  V30 1235 H 111.859 -6.34859 -1.47641 0
M  V30 1236 N 115.292 -0.849877 -1.32721 0
M  V30 1237 C 116.224 -0.248332 -2.27851 0
M  V30 1238 C 117.237 0.577218 -1.52224 0
M  V30 1239 O 118.426 0.402489 -1.73903 0
M  V30 1240 C 115.526 0.668107 -3.32249 0
M  V30 1241 C 114.699 -0.120534 -4.37234 0
M  V30 1242 C 113.758 0.720932 -5.21238 0
M  V30 1243 O 112.784 0.156166 -5.68986 0
M  V30 1244 N 113.986 2.03647 -5.43607 0
M  V30 1245 H 116.751 -1.06575 -2.80111 0
M  V30 1246 H 114.312 -0.709395 -1.45531 0
M  V30 1247 H 116.304 1.23627 -3.85355 0
M  V30 1248 H 114.874 1.38621 -2.80184 0
M  V30 1249 H 114.094 -0.870108 -3.84477 0
M  V30 1250 H 115.382 -0.662406 -5.0447 0
M  V30 1251 H 114.78 2.51871 -5.06535 0
M  V30 1252 H 113.337 2.55287 -5.99727 0
M  V30 1253 N 116.77 1.45427 -0.607355 0
M  V30 1254 C 117.718 2.32269 0.12411 0
M  V30 1255 C 118.712 1.45955 0.859854 0
M  V30 1256 O 119.918 1.6244 0.775447 0
M  V30 1257 H 116.293 0.749691 0.0588839 0
M  V30 1258 H 118.264 2.91743 -0.626762 0
M  V30 1259 C 117.013 3.29567 1.1082 0
M  V30 1260 H 116.336 3.95978 0.551492 0
M  V30 1261 H 117.776 3.93061 1.58995 0
M  V30 1262 C 116.235 2.56722 2.18164 0
M  V30 1263 O 116.765 2.34842 3.25902 0
M  V30 1264 N 114.971 2.16861 1.93442 0
M  V30 1265 H 114.518 2.34855 1.05834 0
M  V30 1266 H 114.476 1.68444 2.65469 0
M  V30 1267 N 118.248 0.346503 1.53744 0
M  V30 1268 C 119.659 -0.136779 1.86198 0
M  V30 1269 C 120.01 -1.49749 1.26766 0
M  V30 1270 O 119.135 -2.08417 0.582355 0
M  V30 1271 C 119.73 -0.254966 3.37839 0
M  V30 1272 C 118.289 -0.682482 3.70161 0
M  V30 1273 C 117.436 0.181981 2.76702 0
M  V30 1274 H 120.387 0.565994 1.48264 0
M  V30 1275 H 120.408 -1.08195 3.64793 0
M  V30 1276 H 119.92 0.735526 3.81066 0
M  V30 1277 H 118.021 -1.68189 3.3248 0
M  V30 1278 H 118.134 -0.470326 4.76786 0
M  V30 1279 H 116.498 -0.34615 2.52337 0
M  V30 1280 H 117.281 1.16966 3.2276 0
M  V30 1281 N 119.726 -1.57421 0.075193 0
M  V30 1282 C 121.137 -1.81021 -0.456964 0
M  V30 1283 C 121.488 -0.98936 -1.69429 0
M  V30 1284 O 120.613 -0.212865 -2.15351 0
M  V30 1285 C 121.208 -3.28329 -0.83581 0
M  V30 1286 C 119.767 -3.52764 -1.31281 0
M  V30 1287 C 118.914 -2.75676 -0.299648 0
M  V30 1288 H 121.865 -1.55822 0.300856 0
M  V30 1289 H 121.886 -3.40564 -1.69696 0
M  V30 1290 H 121.398 -3.88046 0.0649238 0
M  V30 1291 H 119.499 -2.98355 -2.23193 0
M  V30 1292 H 119.612 -4.61451 -1.28839 0
M  V30 1293 H 117.976 -2.42538 -0.777641 0
M  V30 1294 H 118.759 -3.38132 0.593417 0
M  V30 1295 N 121.204 0.198386 -1.56346 0
M  V30 1296 C 122.151 1.24589 -1.94284 0
M  V30 1297 C 123.121 1.454 -0.802997 0
M  V30 1298 O 124.306 1.58588 -1.06087 0
M  V30 1299 C 121.446 2.58631 -2.28482 0
M  V30 1300 C 120.559 2.45426 -3.55514 0
M  V30 1301 C 119.694 3.7215 -3.79049 0
M  V30 1302 C 118.733 3.53763 -4.99518 0
M  V30 1303 N 117.87 4.72491 -5.19323 0
M  V30 1304 H 122.71 0.915356 -2.83593 0
M  V30 1305 H 120.247 0.440629 -1.40346 0
M  V30 1306 H 122.205 3.3672 -2.46324 0
M  V30 1307 H 120.835 2.89734 -1.42317 0
M  V30 1308 H 119.887 1.58652 -3.45737 0
M  V30 1309 H 121.199 2.27772 -4.43758 0
M  V30 1310 H 120.353 4.58679 -3.97113 0
M  V30 1311 H 119.092 3.92754 -2.89129 0
M  V30 1312 H 118.097 2.65619 -4.8138 0
M  V30 1313 H 119.322 3.34607 -5.90944 0
M  V30 1314 H 117.268 4.93365 -4.3235 0
M  V30 1315 H 117.185 4.5765 -6.01741 0
M  V30 1316 H 118.453 5.6038 -5.41843 0
M  V30 1317 N 122.682 1.50554 0.465978 0
M  V30 1318 C 123.929 1.61798 1.21768 0
M  V30 1319 C 124.257 0.320696 1.91838 0
M  V30 1320 O 123.512 -0.693724 1.82992 0
M  V30 1321 C 123.811 2.75152 2.28093 0
M  V30 1322 C 123.477 4.15454 1.75239 0
M  V30 1323 C 122.139 4.53628 1.60546 0
M  V30 1324 C 124.491 5.03121 1.36083 0
M  V30 1325 C 121.819 5.77204 1.05128 0
M  V30 1326 C 124.171 6.27249 0.821056 0
M  V30 1327 C 122.835 6.64221 0.660795 0
M  V30 1328 H 122.105 0.592063 0.445582 0
M  V30 1329 H 124.752 1.84503 0.512927 0
M  V30 1330 H 123.057 2.46556 3.04496 0
M  V30 1331 H 124.754 2.81055 2.86023 0
M  V30 1332 H 121.344 3.85341 1.87644 0
M  V30 1333 H 125.528 4.74257 1.46267 0
M  V30 1334 H 120.784 6.0452 0.91462 0
M  V30 1335 H 124.958 6.94537 0.509018 0
M  V30 1336 H 122.585 7.59854 0.229226 0
M  V30 1337 N 124.16 -0.719506 1.40217 0
M  V30 1338 C 125.437 -1.47221 1.28784 0
M  V30 1339 C 125.817 -2.10883 -0.0956067 0
M  V30 1340 O 125.165 -1.99833 -1.10811 0
M  V30 1341 C 125.375 -2.5111 2.42373 0
M  V30 1342 C 126.723 -3.17053 2.82423 0
M  V30 1343 O 127.747 -2.61429 2.41937 0
M  V30 1344 O 126.606 -4.17742 3.52355 0
M  V30 1345 H 123.7 -0.654491 0.50554 0
M  V30 1346 H 126.246 -0.752014 1.52128 0
M  V30 1347 H 125.018 -2.02556 3.34793 0
M  V30 1348 H 124.641 -3.3067 2.20778 0
M  V30 1349 N 125.638 -1.25649 -0.95132 0
M  V30 1350 C 126.585 -1.06323 -2.04851 0
M  V30 1351 C 127.555 0.0286491 -1.66075 0
M  V30 1352 O 128.74 -0.12917 -1.90362 0
M  V30 1353 C 125.88 -0.691529 -3.381 0
M  V30 1354 C 124.993 -1.85861 -3.89974 0
M  V30 1355 C 124.128 -1.43096 -5.11563 0
M  V30 1356 C 123.167 -2.56696 -5.55674 0
M  V30 1357 N 122.304 -2.14684 -6.68472 0
M  V30 1358 H 127.144 -2.00222 -2.20715 0
M  V30 1359 H 124.681 -0.997027 -1.08156 0
M  V30 1360 H 126.639 -0.456963 -4.1469 0
M  V30 1361 H 125.269 0.210474 -3.22113 0
M  V30 1362 H 124.321 -2.20639 -3.09875 0
M  V30 1363 H 125.633 -2.71161 -4.18657 0
M  V30 1364 H 124.787 -1.15624 -5.9558 0
M  V30 1365 H 123.526 -0.548722 -4.84603 0
M  V30 1366 H 122.531 -2.84909 -4.7022 0
M  V30 1367 H 123.756 -3.45503 -5.8464 0
M  V30 1368 H 121.702 -1.28881 -6.43215 0
M  V30 1369 H 121.619 -2.9353 -6.96689 0
M  V30 1370 H 122.887 -1.90397 -7.5589 0
M  V30 1371 N 127.117 1.15442 -1.07289 0
M  V30 1372 C 128.366 1.85557 -0.790669 0
M  V30 1373 C 128.679 1.83186 0.685739 0
M  V30 1374 O 129.885 2.48977 1.0827 0
M  V30 1375 C 128.341 3.33038 -1.36433 0
M  V30 1376 C 127.949 3.43856 -2.8717 0
M  V30 1377 C 129.693 4.0834 -1.1601 0
M  V30 1378 C 127.6 4.85482 -3.3773 0
M  V30 1379 H 126.53 0.695122 -0.292098 0
M  V30 1380 H 129.181 1.30219 -1.29287 0
M  V30 1381 H 127.563 3.88043 -0.789864 0
M  V30 1382 H 128.737 2.98961 -3.50655 0
M  V30 1383 H 127.052 2.81998 -3.06376 0
M  V30 1384 H 129.649 5.12859 -1.51262 0
M  V30 1385 H 129.992 4.16182 -0.0991007 0
M  V30 1386 H 130.525 3.59603 -1.70089 0
M  V30 1387 H 127.264 4.82823 -4.43353 0
M  V30 1388 H 126.784 5.30961 -2.78999 0
M  V30 1389 H 128.463 5.54335 -3.33648 0
M  V30 1390 N 128.595 0.856903 1.32268 0
M  V30 1391 C 129.505 0.306131 2.32594 0
M  V30 1392 C 130.521 -0.577209 1.64147 0
M  V30 1393 O 131.697 -0.477043 1.95669 0
M  V30 1394 C 128.762 -0.494561 3.43154 0
M  V30 1395 C 127.823 0.415186 4.27288 0
M  V30 1396 C 127.056 -0.347387 5.32568 0
M  V30 1397 O 127.279 -1.57708 5.48165 0
M  V30 1398 O 126.213 0.287982 6.01211 0
M  V30 1399 H 130.039 1.13737 2.81598 0
M  V30 1400 H 127.624 0.619902 1.35932 0
M  V30 1401 H 129.506 -0.948944 4.10576 0
M  V30 1402 H 128.181 -1.30257 2.96336 0
M  V30 1403 H 127.088 0.917793 3.62667 0
M  V30 1404 H 128.421 1.18844 4.77637 0
M  V30 1405 N 130.073 -1.45103 0.615059 0
M  V30 1406 C 131.35 -1.95549 0.0448276 0
M  V30 1407 C 131.73 -1.55737 -1.4251 0
M  V30 1408 O 131.078 -0.823556 -2.13143 0
M  V30 1409 C 131.288 -3.48098 0.250785 0
M  V30 1410 C 132.636 -4.24384 0.135509 0
M  V30 1411 O 133.66 -3.55738 0.181299 0
M  V30 1412 O 132.519 -5.46493 0.0268878 0
M  V30 1413 H 129.613 -0.8264 -0.0314845 0
M  V30 1414 H 132.159 -1.55232 0.685642 0
M  V30 1415 H 130.931 -3.7007 1.27139 0
M  V30 1416 H 130.554 -3.95323 -0.424937 0
M  V30 1417 N 131.551 -0.354651 -1.53558 0
M  V30 1418 C 132.484 0.540273 -2.21712 0
M  V30 1419 C 133.462 1.09161 -1.2051 0
M  V30 1420 O 134.646 1.14979 -1.49372 0
M  V30 1421 C 131.773 1.74435 -2.90328 0
M  V30 1422 C 130.819 1.32146 -4.05512 0
M  V30 1423 S 131.652 0.331924 -5.3447 0
M  V30 1424 C 132.808 1.54258 -6.06593 0
M  V30 1425 H 133.041 -0.0385776 -2.97275 0
M  V30 1426 H 130.574 -0.138736 -1.53775 0
M  V30 1427 H 132.532 2.43507 -3.30476 0
M  V30 1428 H 131.193 2.29444 -2.1451 0
M  V30 1429 H 130.386 2.21952 -4.52497 0
M  V30 1430 H 129.988 0.710091 -3.67197 0
M  V30 1431 H 132.28 2.47534 -6.30661 0
M  V30 1432 H 133.223 1.11431 -6.99277 0
M  V30 1433 H 133.631 1.74367 -5.36895 0
M  V30 1434 N 133.029 1.57378 -0.0835403 0
M  V30 1435 C 133.992 2.12252 0.864959 0
M  V30 1436 C 134.992 1.04916 1.21858 0
M  V30 1437 O 136.182 1.30853 1.14991 0
M  V30 1438 C 133.314 2.63358 2.16461 0
M  V30 1439 H 134.507 2.97371 0.388676 0
M  V30 1440 H 132.06 1.55423 0.165317 0
M  V30 1441 H 132.795 1.81727 2.686 0
M  V30 1442 H 132.58 3.41826 1.92087 0
M  V30 1443 H 134.07 3.05847 2.84337 0
M  V30 1444 N 134.507 -0.190092 1.56449 0
M  V30 1445 C 135.44 -1.26375 1.90012 0
M  V30 1446 C 136.418 -1.43705 0.760765 0
M  V30 1447 O 137.602 -1.59014 1.01226 0
M  V30 1448 C 134.729 -2.62962 2.13468 0
M  V30 1449 C 133.775 -2.62474 3.36169 0
M  V30 1450 S 134.608 -2.13412 4.91137 0
M  V30 1451 C 135.764 -3.51812 5.17667 0
M  V30 1452 H 135.997 -0.977181 2.80782 0
M  V30 1453 H 133.53 -0.393814 1.49293 0
M  V30 1454 H 135.488 -3.41583 2.27664 0
M  V30 1455 H 134.149 -2.88828 1.23439 0
M  V30 1456 H 133.342 -3.62918 3.49723 0
M  V30 1457 H 132.944 -1.91937 3.20992 0
M  V30 1458 H 135.236 -4.47706 5.08494 0
M  V30 1459 H 136.179 -3.43148 6.19399 0
M  V30 1460 H 136.587 -3.46956 4.45288 0
M  V30 1461 N 135.985 -1.50799 -0.457987 0
M  V30 1462 C 136.915 -1.73553 -1.5621 0
M  V30 1463 C 137.896 -0.584774 -1.59732 0
M  V30 1464 O 139.081 -0.825314 -1.7579 0
M  V30 1465 C 136.211 -1.84169 -2.94447 0
M  V30 1466 C 135.165 -2.99461 -3.0579 0
M  V30 1467 C 134.491 -2.95235 -4.45803 0
M  V30 1468 C 135.791 -4.39766 -2.81786 0
M  V30 1469 H 137.485 -2.66 -1.37421 0
M  V30 1470 H 135.031 -1.28002 -0.659662 0
M  V30 1471 H 136.984 -1.98672 -3.71628 0
M  V30 1472 H 135.708 -0.883545 -3.14422 0
M  V30 1473 H 134.367 -2.8463 -2.31044 0
M  V30 1474 H 134.015 -1.97239 -4.62715 0
M  V30 1475 H 133.715 -3.72642 -4.54326 0
M  V30 1476 H 135.239 -3.11803 -5.24987 0
M  V30 1477 H 136.653 -4.55054 -3.4871 0
M  V30 1478 H 135.05 -5.18722 -3.0174 0
M  V30 1479 H 136.12 -4.51229 -1.7754 0
M  V30 1480 N 137.463 0.71206 -1.40597 0
M  V30 1481 C 138.691 1.50111 -1.42388 0
M  V30 1482 C 139.106 1.88784 -0.0245395 0
M  V30 1483 O 138.463 1.55681 0.952351 0
M  V30 1484 C 138.514 2.7742 -2.31776 0
M  V30 1485 O 138.235 2.40382 -3.66262 0
M  V30 1486 C 139.736 3.7129 -2.42196 0
M  V30 1487 H 136.956 0.46314 -0.485533 0
M  V30 1488 H 139.5 0.878068 -1.8469 0
M  V30 1489 H 137.655 3.36001 -1.92827 0
M  V30 1490 H 138.069 3.22324 -4.13772 0
M  V30 1491 H 139.543 4.57448 -3.08943 0
M  V30 1492 H 140.02 4.14641 -1.44809 0
M  V30 1493 H 140.626 3.18619 -2.81712 0
M  V30 1494 N 138.941 1.26152 0.944643 0
M  V30 1495 C 140.188 1.11492 1.69044 0
M  V30 1496 C 140.516 -0.342366 1.91463 0
M  V30 1497 O 139.771 -1.26812 1.49054 0
M  V30 1498 C 140.07 1.82541 3.07268 0
M  V30 1499 C 139.736 3.32445 3.04616 0
M  V30 1500 C 138.398 3.73337 3.036 0
M  V30 1501 C 140.75 4.28171 2.97185 0
M  V30 1502 C 138.078 5.08348 2.92915 0
M  V30 1503 C 140.43 5.63218 2.88041 0
M  V30 1504 C 139.094 6.03426 2.85366 0
M  V30 1505 H 138.364 0.407977 0.618576 0
M  V30 1506 H 141.011 1.56551 1.10291 0
M  V30 1507 H 139.316 1.29941 3.69625 0
M  V30 1508 H 141.013 1.68642 3.63815 0
M  V30 1509 H 137.603 2.99915 3.06185 0
M  V30 1510 H 141.787 3.97563 2.97081 0
M  V30 1511 H 137.043 5.38667 2.89219 0
M  V30 1512 H 141.217 6.37078 2.81254 0
M  V30 1513 H 138.844 7.07999 2.76842 0
M  V30 1514 N 140.419 -1.14872 1.07899 0
M  V30 1515 C 141.349 -2.2193 0.725887 0
M  V30 1516 C 142.33 -1.67622 -0.28927 0
M  V30 1517 O 143.515 -1.93533 -0.160787 0
M  V30 1518 C 140.645 -3.47061 0.128856 0
M  V30 1519 C 139.599 -4.14363 1.07178 0
M  V30 1520 C 138.925 -5.33636 0.337229 0
M  V30 1521 C 140.225 -4.63492 2.40775 0
M  V30 1522 H 141.919 -2.51724 1.62097 0
M  V30 1523 H 139.465 -1.20991 0.780838 0
M  V30 1524 H 141.418 -4.21199 -0.130147 0
M  V30 1525 H 140.142 -3.16617 -0.80134 0
M  V30 1526 H 138.801 -3.42173 1.3158 0
M  V30 1527 H 138.449 -4.99449 -0.596606 0
M  V30 1528 H 138.149 -5.79609 0.965788 0
M  V30 1529 H 139.673 -6.10539 0.0861567 0
M  V30 1530 H 141.087 -5.2913 2.20669 0
M  V30 1531 H 139.484 -5.20148 2.99276 0
M  V30 1532 H 140.554 -3.78834 3.02676 0
M  V30 1533 N 141.898 -0.863906 -1.31812 0
M  V30 1534 C 142.848 -0.286898 -2.26188 0
M  V30 1535 C 143.832 0.572577 -1.50367 0
M  V30 1536 O 145.024 0.420447 -1.71934 0
M  V30 1537 C 142.153 0.515849 -3.39402 0
M  V30 1538 C 141.239 -0.356531 -4.22599 0
M  V30 1539 N 141.63 -1.44716 -4.84656 0
M  V30 1540 C 139.928 -0.147898 -4.45755 0
M  V30 1541 C 140.629 -1.98462 -5.46798 0
M  V30 1542 N 139.605 -1.28247 -5.28255 0
M  V30 1543 H 143.407 -1.12055 -2.717 0
M  V30 1544 H 140.921 -0.711012 -1.46008 0
M  V30 1545 H 142.918 0.945701 -4.06032 0
M  V30 1546 H 141.578 1.34718 -2.95434 0
M  V30 1547 H 142.589 -1.83008 -4.84488 0
M  V30 1548 H 139.266 0.647973 -4.12441 0
M  V30 1549 H 140.656 -2.89932 -6.06126 0
M  V30 1550 N 143.376 1.44774 -0.622745 0
M  V30 1551 C 144.286 2.34433 0.0886031 0
M  V30 1552 C 145.302 1.52131 0.844529 0
M  V30 1553 O 146.478 1.84886 0.798691 0
M  V30 1554 C 143.543 3.29986 1.0635 0
M  V30 1555 C 142.604 4.28195 0.307873 0
M  V30 1556 C 141.837 5.19183 1.23633 0
M  V30 1557 O 142.06 5.13918 2.47476 0
M  V30 1558 O 140.994 5.97515 0.725189 0
M  V30 1559 H 144.82 2.96693 -0.648599 0
M  V30 1560 H 142.405 1.44408 -0.382957 0
M  V30 1561 H 144.287 3.88825 1.6246 0
M  V30 1562 H 142.962 2.70269 1.78146 0
M  V30 1563 H 141.869 3.72927 -0.296064 0
M  V30 1564 H 143.202 4.90808 -0.3699 0
M  V30 1565 N 144.854 0.36279 1.53368 0
M  V30 1566 C 146.265 -0.117022 1.86333 0
M  V30 1567 C 146.616 -1.48397 1.28347 0
M  V30 1568 O 145.741 -2.07787 0.604428 0
M  V30 1569 C 146.336 -0.21912 3.38091 0
M  V30 1570 C 144.895 -0.643184 3.70864 0
M  V30 1571 C 144.042 0.211318 2.76494 0
M  V30 1572 H 146.993 0.581687 1.47655 0
M  V30 1573 H 147.014 -1.04319 3.6592 0
M  V30 1574 H 146.526 0.775902 3.80265 0
M  V30 1575 H 144.627 -1.64654 3.34245 0
M  V30 1576 H 144.74 -0.41973 4.77258 0
M  V30 1577 H 143.104 -0.319367 2.5269 0
M  V30 1578 H 143.887 1.20383 3.21501 0
M  V30 1579 N 146.332 -1.57332 0.0918853 0
M  V30 1580 C 147.295 -2.12708 -0.85369 0
M  V30 1581 C 148.295 -1.05561 -1.213 0
M  V30 1582 O 149.485 -1.31461 -1.14296 0
M  V30 1583 C 146.617 -2.64503 -2.15061 0
M  V30 1584 H 147.81 -2.97573 -0.3729 0
M  V30 1585 H 145.363 -1.55509 -0.157072 0
M  V30 1586 H 146.098 -1.83149 -2.67632 0
M  V30 1587 H 145.883 -3.4284 -1.90272 0
M  V30 1588 H 147.373 -3.07351 -2.82711 0
M  V30 1589 N 147.81 0.181792 -1.56548 0
M  V30 1590 C 149.056 0.901431 -1.81665 0
M  V30 1591 C 149.389 1.82347 -0.668075 0
M  V30 1592 O 148.664 1.91669 0.330615 0
M  V30 1593 C 148.947 1.70618 -3.17115 0
M  V30 1594 C 148.8 0.807964 -4.42484 0
M  V30 1595 C 150.119 2.67605 -3.49393 0
M  V30 1596 H 147.238 0.32627 -0.660846 0
M  V30 1597 H 149.88 0.168134 -1.89255 0
M  V30 1598 H 148.03 2.33133 -3.10775 0
M  V30 1599 H 149.702 0.19649 -4.60881 0
M  V30 1600 H 147.945 0.115411 -4.33646 0
M  V30 1601 H 148.616 1.40632 -5.33785 0
M  V30 1602 H 151.092 2.15218 -3.56118 0
M  V30 1603 H 149.968 3.20985 -4.45264 0
M  V30 1604 H 150.229 3.47298 -2.73563 0
M  V30 1605 N 149.288 1.51039 0.449983 0
M  V30 1606 C 150.218 1.74379 1.55288 0
M  V30 1607 C 151.199 0.593236 1.5942 0
M  V30 1608 O 152.384 0.834625 1.7535 0
M  V30 1609 C 149.514 1.85728 2.93466 0
M  V30 1610 C 148.468 3.01078 3.04197 0
M  V30 1611 C 147.794 2.97595 4.44231 0
M  V30 1612 C 149.094 4.41254 2.7945 0
M  V30 1613 H 150.788 2.66725 1.36008 0
M  V30 1614 H 148.334 1.2835 0.652864 0
M  V30 1615 H 150.287 2.0064 3.70569 0
M  V30 1616 H 149.011 0.900207 3.13949 0
M  V30 1617 H 147.67 2.85851 2.29531 0
M  V30 1618 H 147.318 1.99691 4.61663 0
M  V30 1619 H 147.018 3.75046 4.52343 0
M  V30 1620 H 148.542 3.14583 5.23326 0
M  V30 1621 H 149.956 4.56897 3.46292 0
M  V30 1622 H 148.353 5.20315 2.98985 0
M  V30 1623 H 149.423 4.52164 1.75144 0
M  V30 1624 N 150.766 -0.704594 1.40972 0
M  V30 1625 C 151.996 -1.49138 1.42974 0
M  V30 1626 C 152.404 -1.89175 0.0308406 0
M  V30 1627 O 151.747 -1.56734 -0.958138 0
M  V30 1628 C 151.809 -2.79016 2.26694 0
M  V30 1629 C 151.473 -2.61236 3.74973 0
M  V30 1630 C 152.47 -2.27773 4.67349 0
M  V30 1631 C 150.155 -2.77158 4.18914 0
M  V30 1632 C 152.149 -2.10457 6.01653 0
M  V30 1633 C 149.836 -2.59459 5.53285 0
M  V30 1634 C 150.834 -2.26158 6.4447 0
M  V30 1635 O 150.522 -2.08605 7.76363 0
M  V30 1636 H 150.254 -0.466443 0.489292 0
M  V30 1637 H 152.808 -0.8758 1.85793 0
M  V30 1638 H 151.038 -3.42947 1.78673 0
M  V30 1639 H 152.727 -3.40782 2.20504 0
M  V30 1640 H 153.493 -2.15095 4.34694 0
M  V30 1641 H 149.372 -3.02064 3.48251 0
M  V30 1642 H 152.916 -1.84387 6.72791 0
M  V30 1643 H 148.813 -2.71725 5.85522 0
M  V30 1644 H 149.581 -2.23439 7.87412 0
M  V30 1645 N 152.244 -1.26651 -0.937939 0
M  V30 1646 C 153.192 -1.08308 -2.05845 0
M  V30 1647 C 154.186 -0.0090757 -1.69398 0
M  V30 1648 O 155.392 -0.166007 -1.79233 0
M  V30 1649 H 151.767 -0.333416 -0.674046 0
M  V30 1650 H 153.738 -2.03261 -2.18467 0
M  V30 1651 C 152.487 -0.736229 -3.39816 0
M  V30 1652 H 151.81 -1.55453 -3.6834 0
M  V30 1653 H 153.25 -0.64769 -4.19024 0
M  V30 1654 C 151.709 0.558824 -3.32233 0
M  V30 1655 O 152.239 1.59621 -3.68624 0
M  V30 1656 N 150.445 0.550657 -2.85335 0
M  V30 1657 H 149.992 -0.293943 -2.55917 0
M  V30 1658 H 149.95 1.41726 -2.80644 0
M  V30 1659 N 153.722 1.14298 -1.08507 0
M  V30 1660 C 154.652 2.21542 -0.737646 0
M  V30 1661 C 155.633 1.67773 0.280377 0
M  V30 1662 O 156.818 1.93616 0.150521 0
M  V30 1663 C 153.948 3.46988 -0.147259 0
M  V30 1664 C 152.902 4.13789 -1.09374 0
M  V30 1665 C 152.228 5.33449 -0.365524 0
M  V30 1666 C 153.528 4.62208 -2.4323 0
M  V30 1667 H 155.222 2.5086 -1.6343 0
M  V30 1668 H 152.768 1.20576 -0.787243 0
M  V30 1669 H 154.721 4.21262 0.107808 0
M  V30 1670 H 153.445 3.17037 0.784538 0
M  V30 1671 H 152.104 3.4147 -1.33393 0
M  V30 1672 H 151.752 4.99759 0.57011 0
M  V30 1673 H 151.452 5.79088 -0.996512 0
M  V30 1674 H 152.976 6.10485 -0.118534 0
M  V30 1675 H 154.39 5.27952 -2.23472 0
M  V30 1676 H 152.787 5.18553 -3.02031 0
M  V30 1677 H 153.857 3.77224 -3.04681 0
M  V30 1678 N 155.201 0.870884 1.31352 0
M  V30 1679 C 156.148 0.325425 2.28494 0
M  V30 1680 C 157.118 -0.576615 1.5577 0
M  V30 1681 O 158.303 -0.508059 1.83911 0
M  V30 1682 C 155.443 -0.466283 3.41935 0
M  V30 1683 C 154.556 0.463378 4.29508 0
M  V30 1684 C 153.691 -0.342544 5.30094 0
M  V30 1685 C 152.73 0.583486 6.09313 0
M  V30 1686 N 151.867 -0.186244 7.01853 0
M  V30 1687 H 156.707 1.15901 2.74538 0
M  V30 1688 H 154.244 0.58294 1.35056 0
M  V30 1689 H 156.202 -0.941085 4.06447 0
M  V30 1690 H 154.832 -1.26456 2.97 0
M  V30 1691 H 153.884 1.05663 3.65431 0
M  V30 1692 H 155.196 1.1734 4.84802 0
M  V30 1693 H 154.35 -0.879816 6.00287 0
M  V30 1694 H 153.089 -1.08585 4.75458 0
M  V30 1695 H 152.094 1.13251 5.3801 0
M  V30 1696 H 153.319 1.32566 6.66035 0
M  V30 1697 H 151.265 -0.912348 6.49625 0
M  V30 1698 H 151.182 0.464422 7.54572 0
M  V30 1699 H 152.45 -0.704716 7.76308 0
M  V30 1700 N 156.679 -1.44442 0.630414 0
M  V30 1701 C 157.956 -1.9549 0.0655657 0
M  V30 1702 C 158.336 -1.5724 -1.40851 0
M  V30 1703 O 157.684 -0.846116 -2.12257 0
M  V30 1704 C 157.894 -3.47812 0.287691 0
M  V30 1705 C 159.242 -4.24216 0.180513 0
M  V30 1706 O 160.266 -3.55526 0.219019 0
M  V30 1707 O 159.125 -5.46434 0.0848493 0
M  V30 1708 H 156.219 -0.826688 -0.0227177 0
M  V30 1709 H 158.765 -1.54496 0.702068 0
M  V30 1710 H 157.537 -3.687 1.31056 0
M  V30 1711 H 157.16 -3.95751 -0.382984 0
M  V30 1712 N 158.157 -0.370918 -1.53173 0
M  V30 1713 C 159.573 -0.0200818 -1.59587 0
M  V30 1714 C 159.773 1.46279 -1.38581 0
M  V30 1715 O 158.829 2.22506 -1.19363 0
M  V30 1716 C 160.142 -0.4808 -2.96831 0
M  V30 1717 C 161.69 -0.435477 -3.09956 0
M  V30 1718 C 162.165 -0.872092 -4.4962 0
M  V30 1719 N 163.656 -0.827364 -4.55751 0
M  V30 1720 C 164.391 -1.13683 -5.62018 0
M  V30 1721 N 163.887 -1.51584 -6.76014 0
M  V30 1722 N 165.68 -1.05927 -5.52029 0
M  V30 1723 H 157.831 -1.33652 -1.65079 0
M  V30 1724 H 160.094 -0.546634 -0.774529 0
M  V30 1725 H 159.8 -1.51577 -3.1736 0
M  V30 1726 H 159.674 0.129796 -3.76977 0
M  V30 1727 H 162.061 0.590371 -2.89134 0
M  V30 1728 H 162.142 -1.08164 -2.31806 0
M  V30 1729 H 161.786 -1.89608 -4.71181 0
M  V30 1730 H 161.716 -0.203127 -5.26208 0
M  V30 1731 H 164.207 -0.548216 -3.73902 0
M  V30 1732 H 164.52 -1.73609 -7.53047 0
M  V30 1733 H 162.865 -1.55454 -6.77391 0
M  V30 1734 H 166.056 -0.762321 -4.61851 0
M  V30 1735 H 166.229 -1.30378 -6.34749 0
M  V30 1736 N 159.635 1.57281 -0.100228 0
M  V30 1737 C 160.865 1.98591 0.569681 0
M  V30 1738 C 161.273 0.978315 1.61943 0
M  V30 1739 O 160.616 -0.0396108 1.83657 0
M  V30 1740 C 160.678 3.36282 1.271 0
M  V30 1741 C 160.342 4.55488 0.371409 0
M  V30 1742 C 161.339 5.18491 -0.382504 0
M  V30 1743 C 159.024 5.01474 0.287965 0
M  V30 1744 C 161.018 6.25852 -1.20779 0
M  V30 1745 C 158.705 6.08701 -0.540965 0
M  V30 1746 C 159.703 6.70755 -1.28749 0
M  V30 1747 O 159.391 7.75914 -2.10269 0
M  V30 1748 H 159.123 0.65752 0.156982 0
M  V30 1749 H 161.677 2.0463 -0.177734 0
M  V30 1750 H 159.907 3.26941 2.0651 0
M  V30 1751 H 161.596 3.62005 1.83595 0
M  V30 1752 H 162.362 4.83891 -0.3278 0
M  V30 1753 H 158.241 4.52932 0.858689 0
M  V30 1754 H 161.785 6.74218 -1.79096 0
M  V30 1755 H 157.682 6.42732 -0.597131 0
M  V30 1756 H 158.45 7.92925 -2.03007 0
M  V30 1757 N 161.113 -0.173488 1.56642 0
M  V30 1758 C 162.361 -0.888706 1.81512 0
M  V30 1759 C 162.682 -1.82875 0.676872 0
M  V30 1760 O 161.952 -1.93536 -0.303414 0
M  V30 1761 H 160.532 -0.331164 0.669582 0
M  V30 1762 H 163.194 -0.173823 1.94123 0
M  V30 1763 H 162.29 -1.46691 2.75478 0
M  V30 1764 N 162.591 -1.51276 -0.441967 0
M  V30 1765 C 163.816 -1.67799 -1.21895 0
M  V30 1766 C 164.241 -0.372864 -1.84367 0
M  V30 1767 O 163.599 0.666501 -1.68604 0
M  V30 1768 C 163.647 -2.79199 -2.28211 0
M  V30 1769 O 162.751 -2.42479 -3.33583 0
M  V30 1770 H 162.092 -0.559649 -0.357336 0
M  V30 1771 H 164.622 -1.97815 -0.522522 0
M  V30 1772 H 164.632 -3.03146 -2.73069 0
M  V30 1773 H 163.307 -3.73906 -1.82118 0
M  V30 1774 H 161.884 -2.29087 -2.94234 0
M  V30 1775 N 164.069 0.697108 -1.41344 0
M  V30 1776 C 165.315 1.45796 -1.41828 0
M  V30 1777 C 165.67 1.92382 -0.0261743 0
M  V30 1778 O 164.963 1.66522 0.947688 0
M  V30 1779 C 165.157 2.68553 -2.35826 0
M  V30 1780 C 164.986 2.33975 -3.84039 0
M  V30 1781 C 163.756 2.24414 -4.52732 0
M  V30 1782 C 165.954 1.97048 -4.75054 0
M  V30 1783 N 163.936 1.82705 -5.86082 0
M  V30 1784 C 165.307 1.66086 -5.9734 0
M  V30 1785 C 167.362 1.83845 -4.62715 0
M  V30 1786 C 166.065 1.23246 -7.08663 0
M  V30 1787 C 168.091 1.4241 -5.73998 0
M  V30 1788 C 167.453 1.12357 -6.95381 0
M  V30 1789 H 163.552 0.530859 -0.574206 0
M  V30 1790 H 166.136 0.806674 -1.77203 0
M  V30 1791 H 164.307 3.31404 -2.02549 0
M  V30 1792 H 166.039 3.35015 -2.2704 0
M  V30 1793 H 162.794 2.4276 -4.0665 0
M  V30 1794 H 163.218 1.64337 -6.56751 0
M  V30 1795 H 167.86 2.05734 -3.69369 0
M  V30 1796 H 165.578 1.00102 -8.01876 0
M  V30 1797 H 169.164 1.32746 -5.66454 0
M  V30 1798 H 168.044 0.807795 -7.80028 0
M  V30 1799 N 165.547 1.27147 0.931209 0
M  V30 1800 C 166.48 1.0389 2.0318 0
M  V30 1801 C 167.458 -0.0395716 1.62552 0
M  V30 1802 O 168.642 0.104867 1.88208 0
M  V30 1803 C 165.769 0.575227 3.3378 0
M  V30 1804 C 164.815 1.64774 3.93385 0
M  V30 1805 S 165.648 3.23933 4.26413 0
M  V30 1806 C 166.804 2.79358 5.60098 0
M  V30 1807 H 167.037 1.97075 2.22596 0
M  V30 1808 H 164.57 1.10938 1.07387 0
M  V30 1809 H 166.528 0.314385 4.09294 0
M  V30 1810 H 165.189 -0.336505 3.12292 0
M  V30 1811 H 164.382 1.27454 4.87618 0
M  V30 1812 H 163.984 1.86048 3.24441 0
M  V30 1813 H 166.276 2.24443 6.39243 0
M  V30 1814 H 167.219 3.72322 6.02314 0
M  V30 1815 H 167.627 2.1861 5.20452 0
M  V30 1816 N 167.025 -1.13721 1.09112 0
M  V30 1817 C 168.274 -1.84275 0.82009 0
M  V30 1818 C 168.587 -1.84253 -0.656509 0
M  V30 1819 O 169.793 -2.50668 -1.04296 0
M  V30 1820 C 168.249 -3.30825 1.41714 0
M  V30 1821 C 167.857 -3.39244 2.92605 0
M  V30 1822 C 169.601 -4.06443 1.22492 0
M  V30 1823 C 167.508 -4.80047 3.45411 0
M  V30 1824 H 166.438 -0.690387 0.30312 0
M  V30 1825 H 169.089 -1.28146 1.31343 0
M  V30 1826 H 167.471 -3.86737 0.851498 0
M  V30 1827 H 168.645 -2.93344 3.55367 0
M  V30 1828 H 166.96 -2.77088 3.10823 0
M  V30 1829 H 169.557 -5.10387 1.59402 0
M  V30 1830 H 169.9 -4.15972 0.165299 0
M  V30 1831 H 170.433 -3.56852 1.75788 0
M  V30 1832 H 167.172 -4.75709 4.50978 0
M  V30 1833 H 166.692 -5.26455 2.87411 0
M  V30 1834 H 168.371 -5.48957 3.42425 0
M  V30 1835 N 168.503 -0.877838 -1.30888 0
M  V30 1836 C 169.733 -0.506678 -2.00291 0
M  V30 1837 C 170.141 0.907449 -1.66018 0
M  V30 1838 O 169.484 1.60719 -0.88967 0
M  V30 1839 C 169.546 -0.59323 -3.54572 0
M  V30 1840 C 169.21 -1.97038 -4.12341 0
M  V30 1841 C 170.207 -2.93889 -4.28865 0
M  V30 1842 C 167.892 -2.27383 -4.47886 0
M  V30 1843 C 169.886 -4.19224 -4.80136 0
M  V30 1844 C 167.573 -3.52965 -4.98857 0
M  V30 1845 C 168.571 -4.48701 -5.14934 0
M  V30 1846 O 168.259 -5.72056 -5.64808 0
M  V30 1847 H 167.991 -0.1951 -0.647234 0
M  V30 1848 H 170.545 -1.18301 -1.6791 0
M  V30 1849 H 168.775 0.140057 -3.86446 0
M  V30 1850 H 170.464 -0.234372 -4.05223 0
M  V30 1851 H 171.23 -2.71756 -4.01714 0
M  V30 1852 H 167.109 -1.53639 -4.34645 0
M  V30 1853 H 170.653 -4.93956 -4.92599 0
M  V30 1854 H 166.55 -3.74939 -5.25443 0
M  V30 1855 H 167.318 -5.74337 -5.83163 0
M  V30 1856 N 169.982 1.44106 -0.638065 0
M  V30 1857 C 171.21 2.06336 -0.152615 0
M  V30 1858 C 171.625 1.47731 1.17563 0
M  V30 1859 O 170.982 0.602806 1.72257 0
M  V30 1860 C 171.033 3.61479 -0.0391491 0
M  V30 1861 O 170.754 4.17903 -1.31487 0
M  V30 1862 C 172.255 4.40757 0.474176 0
M  V30 1863 H 169.475 0.665862 -0.0828776 0
M  V30 1864 H 172.019 1.84862 -0.87443 0
M  V30 1865 H 170.174 3.82191 0.633142 0
M  V30 1866 H 170.588 5.11416 -1.16421 0
M  V30 1867 H 172.062 5.49707 0.502562 0
M  V30 1868 H 172.539 4.12697 1.50258 0
M  V30 1869 H 173.145 4.24979 -0.165102 0
M  V30 1870 N 171.46 0.379036 1.52974 0
M  V30 1871 C 172.69 -0.20649 2.05566 0
M  V30 1872 C 173.098 -1.41906 1.25137 0
M  V30 1873 O 172.441 -1.81421 0.288464 0
M  V30 1874 C 172.503 -0.651086 3.53555 0
M  V30 1875 C 172.167 0.446626 4.54812 0
M  V30 1876 C 173.164 1.30079 5.03364 0
M  V30 1877 C 170.849 0.610719 4.98573 0
M  V30 1878 C 172.843 2.30426 5.94292 0
M  V30 1879 C 170.53 1.61754 5.89304 0
M  V30 1880 C 171.528 2.46274 6.37054 0
M  V30 1881 O 171.216 3.45237 7.25994 0
M  V30 1882 H 170.948 -0.0372381 0.674974 0
M  V30 1883 H 173.502 0.539718 1.98182 0
M  V30 1884 H 171.732 -1.44911 3.58522 0
M  V30 1885 H 173.421 -1.16112 3.88938 0
M  V30 1886 H 174.187 1.18527 4.70294 0
M  V30 1887 H 170.066 -0.0374044 4.60985 0
M  V30 1888 H 173.61 2.96432 6.31485 0
M  V30 1889 H 169.507 1.73348 6.21788 0
M  V30 1890 H 170.275 3.41124 7.44027 0
M  V30 1891 N 172.938 -1.57226 0.108567 0
M  V30 1892 C 174.163 -1.99604 -0.563303 0
M  V30 1893 C 174.588 -0.987563 -1.6009 0
M  V30 1894 O 173.946 0.0421687 -1.81251 0
M  V30 1895 C 173.994 -3.40902 -1.17552 0
M  V30 1896 O 173.098 -3.42896 -2.2912 0
M  V30 1897 H 172.439 -0.648704 -0.1417 0
M  V30 1898 H 174.969 -2.03679 0.193961 0
M  V30 1899 H 174.979 -3.78886 -1.51357 0
M  V30 1900 H 173.654 -4.1382 -0.415445 0
M  V30 1901 H 172.231 -3.1672 -1.96832 0
M  V30 1902 N 174.416 0.165178 -1.56732 0
M  V30 1903 C 175.664 0.879068 -1.8198 0
M  V30 1904 C 175.985 1.82514 -0.686561 0
M  V30 1905 O 175.255 1.93694 0.293146 0
M  V30 1906 H 173.835 0.327608 -0.671329 0
M  V30 1907 H 176.497 0.163526 -1.94213 0
M  V30 1908 H 175.593 1.45228 -2.76252 0
M  V30 1909 N 175.894 1.51508 0.433938 0
M  V30 1910 C 176.824 1.76016 1.53429 0
M  V30 1911 C 177.805 0.610112 1.58782 0
M  V30 1912 O 178.99 0.853177 1.74455 0
M  V30 1913 C 176.12 1.88831 2.9148 0
M  V30 1914 C 175.074 3.04288 3.00987 0
M  V30 1915 C 174.4 3.0229 4.4105 0
M  V30 1916 C 175.7 4.44193 2.74754 0
M  V30 1917 H 177.394 2.68152 1.33171 0
M  V30 1918 H 174.94 1.29035 0.639214 0
M  V30 1919 H 176.893 2.04559 3.6842 0
M  V30 1920 H 175.617 0.933455 3.12976 0
M  V30 1921 H 174.276 2.8827 2.26486 0
M  V30 1922 H 173.924 2.04576 4.59519 0
M  V30 1923 H 173.624 3.79822 4.4834 0
M  V30 1924 H 175.148 3.20116 5.1996 0
M  V30 1925 H 176.562 4.60544 3.41426 0
M  V30 1926 H 174.959 5.23457 2.9345 0
M  V30 1927 H 176.029 4.53996 1.70339 0
M  V30 1928 N 177.372 -0.689602 1.41712 0
M  V30 1929 C 178.619 -1.44966 1.4139 0
M  V30 1930 C 178.947 -1.94484 0.025105 0
M  V30 1931 O 178.202 -1.70307 -0.964048 0
M  V30 1932 C 178.501 -2.67298 2.37247 0
M  V30 1933 C 178.167 -2.36405 3.83958 0
M  V30 1934 C 176.829 -2.27691 4.23923 0
M  V30 1935 C 179.181 -2.11043 4.76561 0
M  V30 1936 C 176.509 -1.91719 5.54492 0
M  V30 1937 C 178.861 -1.76578 6.07456 0
M  V30 1938 C 177.525 -1.66363 6.46436 0
M  V30 1939 H 176.795 -0.53047 0.517381 0
M  V30 1940 H 179.442 -0.787655 1.74552 0
M  V30 1941 H 177.747 -3.38461 1.9736 0
M  V30 1942 H 179.444 -3.25452 2.34269 0
M  V30 1943 H 176.034 -2.44085 3.52308 0
M  V30 1944 H 180.218 -2.16717 4.46483 0
M  V30 1945 H 175.474 -1.82367 5.83568 0
M  V30 1946 H 179.648 -1.55974 6.78708 0
M  V30 1947 H 177.275 -1.38258 7.47522 0
M  V30 1948 N 178.85 -1.27639 -0.924453 0
M  V30 1949 C 180.09 -1.15407 -1.68703 0
M  V30 1950 C 180.454 0.294581 -1.89727 0
M  V30 1951 O 181.655 0.539385 -2.63333 0
M  V30 1952 C 179.926 -1.9195 -3.0148 0
M  V30 1953 S 181.485 -1.95969 -3.92609 0
M  V30 1954 H 178.303 -0.411937 -0.579507 0
M  V30 1955 H 180.905 -1.61592 -1.10038 0
M  V30 1956 H 179.609 -2.96387 -2.83871 0
M  V30 1957 H 179.14 -1.46272 -3.65196 0
M  V30 1958 H 181.155 -1.05846 -4.84779 0
M  V30 1959 N 180.328 1.1314 -1.09713 0
M  V30 1960 C 181.574 1.84757 -0.836224 0
M  V30 1961 C 181.907 1.8347 0.636598 0
M  V30 1962 O 181.182 1.27491 1.46889 0
M  V30 1963 C 181.465 3.32782 -1.37578 0
M  V30 1964 C 181.318 3.42567 -2.91493 0
M  V30 1965 C 182.637 4.28307 -1.01198 0
M  V30 1966 H 179.756 0.67082 -0.305236 0
M  V30 1967 H 182.398 1.3278 -1.35903 0
M  V30 1968 H 180.548 3.77177 -0.931097 0
M  V30 1969 H 182.22 3.06862 -3.44432 0
M  V30 1970 H 180.463 2.83349 -3.28475 0
M  V30 1971 H 181.134 4.46674 -3.24324 0
M  V30 1972 H 183.61 3.91999 -1.39556 0
M  V30 1973 H 182.486 5.30307 -1.41653 0
M  V30 1974 H 182.747 4.42029 0.0794833 0
M  V30 1975 N 181.806 0.884767 1.30421 0
M  V30 1976 C 183.034 0.518044 2.0031 0
M  V30 1977 C 183.449 -0.893408 1.66324 0
M  V30 1978 O 182.806 -1.5875 0.900262 0
M  V30 1979 C 182.857 0.682997 3.54989 0
M  V30 1980 O 182.578 2.03888 3.87764 0
M  V30 1981 C 184.079 0.31924 4.42149 0
M  V30 1982 H 181.299 0.200265 0.640418 0
M  V30 1983 H 183.843 1.19001 1.6631 0
M  V30 1984 H 181.998 0.0584052 3.87356 0
M  V30 1985 H 182.412 2.05735 4.82466 0
M  V30 1986 H 183.886 0.485555 5.4986 0
M  V30 1987 H 184.363 -0.742717 4.32875 0
M  V30 1988 H 184.969 0.920147 4.15227 0
M  V30 1989 N 183.284 -1.43765 0.645699 0
M  V30 1990 C 184.53 -2.02197 0.156271 0
M  V30 1991 C 184.863 -1.50776 -1.22393 0
M  V30 1992 O 184.138 -0.697771 -1.81553 0
M  V30 1993 C 184.421 -3.59749 0.158872 0
M  V30 1994 C 184.274 -4.21419 1.57245 0
M  V30 1995 C 185.593 -4.37149 -0.50879 0
M  V30 1996 H 182.712 -0.734694 0.0582602 0
M  V30 1997 H 185.354 -1.71157 0.824951 0
M  V30 1998 H 183.504 -3.86325 -0.410525 0
M  V30 1999 H 185.176 -4.059 2.19186 0
M  V30 2000 H 183.419 -3.78356 2.122 0
M  V30 2001 H 184.09 -5.30482 1.52619 0
M  V30 2002 H 186.566 -4.16093 -0.024412 0
M  V30 2003 H 185.442 -5.4683 -0.476213 0
M  V30 2004 H 185.703 -4.12839 -1.58165 0
M  V30 2005 N 184.763 -0.387143 -1.52771 0
M  V30 2006 C 185.711 0.463953 -2.27926 0
M  V30 2007 C 186.705 1.06493 -1.31741 0
M  V30 2008 O 187.911 1.00565 -1.49287 0
M  V30 2009 H 184.286 0.16837 -0.732909 0
M  V30 2010 H 186.257 -0.19141 -2.97785 0
M  V30 2011 C 185.006 1.5803 -3.09713 0
M  V30 2012 H 184.329 1.12718 -3.83581 0
M  V30 2013 H 185.769 2.15008 -3.65442 0
M  V30 2014 C 184.228 2.53509 -2.2189 0
M  V30 2015 O 184.758 3.56863 -1.84422 0
M  V30 2016 N 182.964 2.23199 -1.86093 0
M  V30 2017 H 182.511 1.39185 -2.16761 0
M  V30 2018 H 182.469 2.87333 -1.27621 0
M  V30 2019 N 186.241 1.57166 -0.116904 0
M  V30 2020 C 187.652 1.82169 0.408809 0
M  V30 2021 C 188.003 1.03393 1.66746 0
M  V30 2022 O 187.128 0.269886 2.1471 0
M  V30 2023 C 187.723 3.30429 0.748466 0
M  V30 2024 C 186.282 3.5612 1.21882 0
M  V30 2025 C 185.429 2.76374 0.226452 0
M  V30 2026 H 188.38 1.5497 -0.342063 0
M  V30 2027 H 188.401 3.44943 1.60607 0
M  V30 2028 H 187.913 3.87737 -0.167784 0
M  V30 2029 H 186.014 3.04168 2.15204 0
M  V30 2030 H 186.127 4.64705 1.16559 0
M  V30 2031 H 184.491 2.44515 0.713063 0
M  V30 2032 H 185.274 3.3644 -0.682859 0
M  V30 2033 N 187.719 -0.156864 1.56817 0
M  V30 2034 C 188.949 -0.885031 1.86684 0
M  V30 2035 C 189.357 -1.75696 0.701954 0
M  V30 2036 O 188.7 -1.80569 -0.337732 0
M  V30 2037 C 188.762 -1.80092 3.11138 0
M  V30 2038 C 188.426 -1.10714 4.43386 0
M  V30 2039 C 189.423 -0.465714 5.1781 0
M  V30 2040 C 187.108 -1.09959 4.90117 0
M  V30 2041 C 189.102 0.174002 6.37162 0
M  V30 2042 C 186.789 -0.456055 6.09396 0
M  V30 2043 C 187.787 0.179622 6.82764 0
M  V30 2044 O 187.475 0.812975 7.99779 0
M  V30 2045 H 187.207 -0.261813 0.623242 0
M  V30 2046 H 189.761 -0.157383 2.04796 0
M  V30 2047 H 187.991 -2.56926 2.89009 0
M  V30 2048 H 189.68 -2.40018 3.27332 0
M  V30 2049 H 190.446 -0.463427 4.82781 0
M  V30 2050 H 186.325 -1.58378 4.3294 0
M  V30 2051 H 189.869 0.670765 6.94368 0
M  V30 2052 H 185.766 -0.455975 6.43888 0
M  V30 2053 H 186.534 0.71366 8.15383 0
M  V30 2054 N 189.197 -1.51736 -0.425897 0
M  V30 2055 C 190.144 -1.73875 -1.51776 0
M  V30 2056 C 191.114 -0.580702 -1.55618 0
M  V30 2057 O 192.299 -0.81641 -1.72451 0
M  V30 2058 C 189.439 -1.88012 -2.89388 0
M  V30 2059 C 188.552 -3.15606 -2.94986 0
M  V30 2060 C 187.687 -3.20271 -4.23793 0
M  V30 2061 C 186.726 -4.42134 -4.23302 0
M  V30 2062 N 185.863 -4.44284 -5.43651 0
M  V30 2063 H 190.703 -2.67071 -1.32201 0
M  V30 2064 H 188.24 -1.32351 -0.642008 0
M  V30 2065 H 190.198 -1.9419 -3.69251 0
M  V30 2066 H 188.828 -0.98213 -3.07496 0
M  V30 2067 H 187.88 -3.18681 -2.07717 0
M  V30 2068 H 189.192 -4.05486 -2.90486 0
M  V30 2069 H 188.346 -3.25428 -5.12036 0
M  V30 2070 H 187.085 -2.28299 -4.30965 0
M  V30 2071 H 186.09 -4.3714 -3.3345 0
M  V30 2072 H 187.315 -5.35382 -4.17783 0
M  V30 2073 H 185.261 -3.55188 -5.51523 0
M  V30 2074 H 185.178 -5.27988 -5.41078 0
M  V30 2075 H 186.446 -4.53649 -6.33895 0
M  V30 2076 N 190.675 0.682077 -1.42076 0
M  V30 2077 C 191.921 1.44283 -1.43366 0
M  V30 2078 C 192.276 1.92344 -0.0465775 0
M  V30 2079 O 191.569 1.67517 0.929973 0
M  V30 2080 C 191.763 2.66036 -2.38662 0
M  V30 2081 C 191.592 2.29889 -3.86499 0
M  V30 2082 C 190.362 2.19599 -4.55087 0
M  V30 2083 C 192.56 1.91999 -4.77117 0
M  V30 2084 N 190.542 1.76478 -5.87987 0
M  V30 2085 C 191.913 1.59741 -5.99068 0
M  V30 2086 C 193.968 1.78927 -4.64639 0
M  V30 2087 C 192.671 1.15723 -7.0993 0
M  V30 2088 C 194.697 1.36314 -5.75476 0
M  V30 2089 C 194.059 1.04975 -6.96534 0
M  V30 2090 H 190.158 0.524739 -0.579805 0
M  V30 2091 H 192.742 0.787834 -1.78048 0
M  V30 2092 H 190.913 3.29237 -2.06053 0
M  V30 2093 H 192.645 3.32588 -2.30581 0
M  V30 2094 H 189.4 2.38433 -4.09202 0
M  V30 2095 H 189.824 1.57362 -6.58458 0
M  V30 2096 H 194.466 2.01805 -3.7153 0
M  V30 2097 H 192.184 0.91591 -8.02893 0
M  V30 2098 H 195.77 1.26731 -5.6783 0
M  V30 2099 H 194.65 0.725017 -7.80841 0
M  V30 2100 N 192.153 1.28127 0.917671 0
M  V30 2101 C 193.083 1.14248 2.03641 0
M  V30 2102 C 194.064 0.0412748 1.7005 0
M  V30 2103 O 195.249 0.217566 1.92977 0
M  V30 2104 C 192.379 0.799431 3.37974 0
M  V30 2105 C 191.333 1.85497 3.85713 0
M  V30 2106 C 190.659 1.36565 5.16966 0
M  V30 2107 C 191.959 3.26085 4.08002 0
M  V30 2108 H 193.653 2.07835 2.15511 0
M  V30 2109 H 191.199 1.00064 1.03553 0
M  V30 2110 H 193.152 0.689114 4.15727 0
M  V30 2111 H 191.876 -0.172145 3.26146 0
M  V30 2112 H 190.535 1.95437 3.10161 0
M  V30 2113 H 190.183 0.383253 5.01538 0
M  V30 2114 H 189.883 2.07143 5.49878 0
M  V30 2115 H 191.407 1.26848 5.97279 0
M  V30 2116 H 192.821 3.19089 4.76293 0
M  V30 2117 H 191.218 3.94462 4.52238 0
M  V30 2118 H 192.288 3.70394 3.12948 0
M  V30 2119 N 193.631 -1.12557 1.10312 0
M  V30 2120 C 195.042 -1.65574 0.862678 0
M  V30 2121 C 195.393 -1.86566 -0.607256 0
M  V30 2122 O 194.518 -1.59121 -1.46662 0
M  V30 2123 C 195.113 -3.00776 1.55947 0
M  V30 2124 C 193.672 -3.50748 1.36576 0
M  V30 2125 C 192.819 -2.25797 1.60968 0
M  V30 2126 H 195.77 -0.963552 1.26101 0
M  V30 2127 H 195.791 -3.67185 0.997753 0
M  V30 2128 H 195.303 -2.85465 2.62928 0
M  V30 2129 H 193.404 -3.71245 0.317531 0
M  V30 2130 H 193.517 -4.30289 2.10686 0
M  V30 2131 H 191.881 -2.32841 1.03234 0
M  V30 2132 H 192.664 -2.13043 2.69198 0
M  V30 2133 N 195.109 -0.891671 -1.2995 0
M  V30 2134 C 196.355 -0.514261 -1.96171 0
M  V30 2135 C 196.688 0.935506 -1.70182 0
M  V30 2136 O 195.963 1.66204 -1.01028 0
M  V30 2137 C 196.246 -0.797719 -3.51153 0
M  V30 2138 C 196.099 -2.2986 -3.86632 0
M  V30 2139 C 197.418 -0.278749 -4.39216 0
M  V30 2140 H 194.537 -0.188314 -0.712535 0
M  V30 2141 H 197.179 -1.11689 -1.53706 0
M  V30 2142 H 195.329 -0.284826 -3.87455 0
M  V30 2143 H 197.001 -2.88042 -3.60319 0
M  V30 2144 H 195.244 -2.76257 -3.34462 0
M  V30 2145 H 195.915 -2.44753 -4.94773 0
M  V30 2146 H 198.391 -0.717825 -4.09862 0
M  V30 2147 H 197.267 -0.506353 -5.46559 0
M  V30 2148 H 197.528 0.820266 -4.34424 0
M  V30 2149 N 196.587 1.43421 -0.653314 0
M  V30 2150 C 197.817 2.05864 -0.174238 0
M  V30 2151 C 198.225 1.49052 1.16534 0
M  V30 2152 O 197.568 0.616481 1.73047 0
M  V30 2153 C 197.63 3.59499 -0.00875873 0
M  V30 2154 C 197.294 4.38893 -1.27364 0
M  V30 2155 C 198.291 4.70947 -2.20239 0
M  V30 2156 C 195.976 4.789 -1.51525 0
M  V30 2157 C 197.97 5.41916 -3.35568 0
M  V30 2158 C 195.657 5.49614 -2.67147 0
M  V30 2159 C 196.655 5.81044 -3.58994 0
M  V30 2160 O 196.343 6.50313 -4.72597 0
M  V30 2161 H 196.075 0.670345 -0.0872549 0
M  V30 2162 H 198.629 1.84913 -0.894226 0
M  V30 2163 H 196.859 3.79025 0.7666 0
M  V30 2164 H 198.548 4.0364 0.427687 0
M  V30 2165 H 199.314 4.40558 -2.02815 0
M  V30 2166 H 195.193 4.53843 -0.809158 0
M  V30 2167 H 198.737 5.66365 -4.07279 0
M  V30 2168 H 194.634 5.79419 -2.84505 0
M  V30 2169 H 195.402 6.68795 -4.71864 0
M  V30 2170 N 198.065 0.39524 1.52563 0
M  V30 2171 C 199.293 -0.184943 2.06072 0
M  V30 2172 C 199.708 -1.40021 1.26647 0
M  V30 2173 O 199.065 -1.79767 0.314672 0
M  V30 2174 C 199.116 -0.549179 3.57304 0
M  V30 2175 O 198.837 0.617813 4.33722 0
M  V30 2176 C 200.338 -1.18459 4.2718 0
M  V30 2177 H 197.558 -0.0265025 0.670476 0
M  V30 2178 H 200.102 0.562184 1.96621 0
M  V30 2179 H 198.257 -1.2462 3.66809 0
M  V30 2180 H 198.671 0.317091 5.23541 0
M  V30 2181 H 200.145 -1.38976 5.34219 0
M  V30 2182 H 200.622 -2.15368 3.82771 0
M  V30 2183 H 201.228 -0.528163 4.22008 0
M  V30 2184 N 199.544 -1.57102 0.125237 0
M  V30 2185 C 200.955 -1.82384 -0.399142 0
M  V30 2186 C 201.306 -1.04276 -1.66195 0
M  V30 2187 O 200.431 -0.281269 -2.14564 0
M  V30 2188 C 201.026 -3.30821 -0.730932 0
M  V30 2189 C 199.585 -3.56762 -1.19992 0
M  V30 2190 C 198.732 -2.7649 -0.211792 0
M  V30 2191 H 201.683 -1.54786 0.350277 0
M  V30 2192 H 201.704 -3.4579 -1.58775 0
M  V30 2193 H 201.216 -3.87643 0.188345 0
M  V30 2194 H 199.317 -3.05305 -2.13588 0
M  V30 2195 H 199.43 -4.65317 -1.14093 0
M  V30 2196 H 197.794 -2.4489 -0.700085 0
M  V30 2197 H 198.577 -3.36073 0.700691 0
M  V30 2198 N 201.022 0.148545 -1.56898 0
M  V30 2199 C 201.932 1.20293 -2.01412 0
M  V30 2200 C 202.948 1.47107 -0.929273 0
M  V30 2201 O 204.124 1.58807 -1.23863 0
M  V30 2202 C 201.189 2.51682 -2.38447 0
M  V30 2203 C 200.25 2.32529 -3.60872 0
M  V30 2204 C 199.483 3.57653 -3.96132 0
M  V30 2205 O 199.706 4.63771 -3.32073 0
M  V30 2206 O 198.64 3.50408 -4.89385 0
M  V30 2207 H 202.466 0.855025 -2.91416 0
M  V30 2208 H 200.051 0.357151 -1.45068 0
M  V30 2209 H 201.933 3.29147 -2.63135 0
M  V30 2210 H 200.608 2.86006 -1.51599 0
M  V30 2211 H 199.515 1.53019 -3.41373 0
M  V30 2212 H 200.848 2.03121 -4.48333 0
M  V30 2213 N 202.5 1.5196 0.417844 0
M  V30 2214 C 203.746 1.65836 1.16732 0
M  V30 2215 C 204.079 0.382881 1.90388 0
M  V30 2216 O 203.354 -0.618368 1.84408 0
M  V30 2217 C 203.637 2.87466 2.16876 0
M  V30 2218 C 203.49 4.25041 1.47174 0
M  V30 2219 C 204.809 3.04613 3.17646 0
M  V30 2220 H 201.928 0.603515 0.423011 0
M  V30 2221 H 204.57 1.84494 0.454105 0
M  V30 2222 H 202.72 2.71689 2.777 0
M  V30 2223 H 204.392 4.52527 0.895376 0
M  V30 2224 H 202.635 4.26843 0.773806 0
M  V30 2225 H 203.306 5.06176 2.20204 0
M  V30 2226 H 205.782 3.1923 2.66892 0
M  V30 2227 H 204.658 3.91247 3.8499 0
M  V30 2228 H 204.919 2.17541 3.84874 0
M  V30 2229 N 203.978 -0.674533 1.42435 0
M  V30 2230 C 205.224 -1.43671 1.43131 0
M  V30 2231 C 205.557 -1.94142 0.0476021 0
M  V30 2232 O 204.832 -1.70924 -0.928188 0
M  V30 2233 C 205.115 -2.63355 2.45594 0
M  V30 2234 C 204.968 -2.18514 3.93156 0
M  V30 2235 C 206.287 -3.65571 2.45043 0
M  V30 2236 H 203.406 -0.521077 0.521198 0
M  V30 2237 H 206.048 -0.766551 1.7385 0
M  V30 2238 H 204.198 -3.2053 2.19528 0
M  V30 2239 H 205.87 -1.66504 4.30202 0
M  V30 2240 H 204.113 -1.50086 4.07009 0
M  V30 2241 H 204.784 -3.04484 4.60428 0
M  V30 2242 H 207.26 -3.18113 2.68223 0
M  V30 2243 H 206.136 -4.46893 3.18713 0
M  V30 2244 H 206.397 -4.16716 1.47649 0
M  V30 2245 N 205.456 -1.28612 -0.910864 0
M  V30 2246 C 206.419 -1.12803 -1.9952 0
M  V30 2247 C 207.419 -0.0668264 -1.60661 0
M  V30 2248 O 208.609 -0.312847 -1.71368 0
M  V30 2249 C 205.741 -0.72254 -3.33155 0
M  V30 2250 H 206.934 -2.09109 -2.14973 0
M  V30 2251 H 204.487 -1.11639 -1.09391 0
M  V30 2252 H 205.222 0.241152 -3.23402 0
M  V30 2253 H 205.007 -1.48916 -3.62721 0
M  V30 2254 H 206.497 -0.634666 -4.12749 0
M  V30 2255 N 206.934 1.1197 -1.10907 0
M  V30 2256 C 207.897 2.16031 -0.765707 0
M  V30 2257 C 208.897 1.59393 0.212235 0
M  V30 2258 O 210.087 1.74196 -0.0115441 0
M  V30 2259 C 207.219 3.40632 -0.135053 0
M  V30 2260 H 208.412 2.47919 -1.68748 0
M  V30 2261 H 205.965 1.27061 -0.910226 0
M  V30 2262 H 206.7 3.14348 0.797218 0
M  V30 2263 H 206.485 3.8302 -0.838937 0
M  V30 2264 H 207.975 4.17505 0.0892469 0
M  V30 2265 N 208.412 0.89855 1.29475 0
M  V30 2266 C 209.642 0.538479 1.99459 0
M  V30 2267 C 210.05 -0.880922 1.67441 0
M  V30 2268 O 209.393 -1.59283 0.915127 0
M  V30 2269 C 209.455 0.649564 3.53583 0
M  V30 2270 C 209.119 2.03573 4.09154 0
M  V30 2271 C 210.116 3.00675 4.24135 0
M  V30 2272 C 207.801 2.3448 4.44212 0
M  V30 2273 C 209.795 4.26809 4.73405 0
M  V30 2274 C 207.482 3.60857 4.93179 0
M  V30 2275 C 208.48 4.56836 5.0773 0
M  V30 2276 O 208.168 5.80969 5.55635 0
M  V30 2277 H 207.9 0.205372 0.644048 0
M  V30 2278 H 210.454 1.20958 1.66007 0
M  V30 2279 H 208.684 -0.0785592 3.8662 0
M  V30 2280 H 210.373 0.29881 4.04799 0
M  V30 2281 H 211.139 2.78112 3.97339 0
M  V30 2282 H 207.018 1.60534 4.32145 0
M  V30 2283 H 210.562 5.0173 4.84678 0
M  V30 2284 H 206.459 3.83251 5.19412 0
M  V30 2285 H 207.227 5.83542 5.73952 0
M  V30 2286 N 209.89 -1.43072 0.660911 0
M  V30 2287 C 211.306 -1.56169 0.329173 0
M  V30 2288 C 211.506 -1.64317 -1.16629 0
M  V30 2289 O 210.562 -1.60245 -1.95135 0
M  V30 2290 C 211.875 -2.81873 1.04729 0
M  V30 2291 C 213.423 -2.95627 1.02828 0
M  V30 2292 C 213.898 -4.24174 1.72744 0
M  V30 2293 N 215.389 -4.31055 1.69545 0
M  V30 2294 C 216.124 -5.29304 2.20511 0
M  V30 2295 N 215.62 -6.33786 2.79799 0
M  V30 2296 N 217.413 -5.21008 2.10966 0
M  V30 2297 H 209.564 -1.36027 1.63127 0
M  V30 2298 H 211.827 -0.653823 0.686454 0
M  V30 2299 H 211.533 -2.81942 2.10242 0
M  V30 2300 H 211.407 -3.72338 0.603702 0
M  V30 2301 H 213.794 -2.95094 -0.0184742 0
M  V30 2302 H 213.875 -2.06431 1.51063 0
M  V30 2303 H 213.519 -4.25467 2.7738 0
M  V30 2304 H 213.449 -5.1228 1.2197 0
M  V30 2305 H 215.94 -3.56174 1.26288 0
M  V30 2306 H 216.253 -7.05086 3.16344 0
M  V30 2307 H 214.598 -6.34387 2.83863 0
M  V30 2308 H 217.789 -4.38301 1.64347 0
M  V30 2309 H 217.962 -5.97416 2.50993 0
M  V30 2310 N 211.368 -0.403325 -1.52352 0
M  V30 2311 C 212.616 0.174003 -2.0135 0
M  V30 2312 C 212.937 1.46139 -1.29106 0
M  V30 2313 O 212.207 1.91448 -0.415253 0
M  V30 2314 H 210.787 0.0672911 -0.743963 0
M  V30 2315 H 213.449 -0.538235 -1.87321 0
M  V30 2316 H 212.545 0.374254 -3.09848 0
M  V30 2317 N 212.846 1.57033 -0.133567 0
M  V30 2318 C 213.793 2.16074 0.811208 0
M  V30 2319 C 214.763 1.08979 1.2535 0
M  V30 2320 O 215.948 1.36958 1.32843 0
M  V30 2321 C 213.088 2.77595 2.05024 0
M  V30 2322 C 212.201 3.99042 1.65498 0
M  V30 2323 C 211.336 4.48603 2.84479 0
M  V30 2324 C 210.375 5.62547 2.41262 0
M  V30 2325 N 209.512 6.06787 3.53206 0
M  V30 2326 H 214.352 2.96477 0.300906 0
M  V30 2327 H 211.889 1.46462 0.136822 0
M  V30 2328 H 213.847 3.11402 2.77642 0
M  V30 2329 H 212.477 1.99859 2.53488 0
M  V30 2330 H 211.529 3.71302 0.826981 0
M  V30 2331 H 212.841 4.81629 1.29748 0
M  V30 2332 H 211.995 4.84395 3.65303 0
M  V30 2333 H 210.734 3.64995 3.23465 0
M  V30 2334 H 209.739 5.26345 1.58874 0
M  V30 2335 H 210.964 6.47931 2.03377 0
M  V30 2336 H 208.91 5.26117 3.91838 0
M  V30 2337 H 208.827 6.84266 3.21427 0
M  V30 2338 H 210.095 6.4722 4.34427 0
M  V30 2339 N 214.325 -0.140222 1.56975 0
M  V30 2340 C 215.272 -1.17292 1.98774 0
M  V30 2341 C 216.242 -1.4232 0.856408 0
M  V30 2342 O 217.427 -1.54541 1.119 0
M  V30 2343 C 214.567 -2.49973 2.37923 0
M  V30 2344 C 213.68 -2.32062 3.64378 0
M  V30 2345 C 212.815 -3.57825 3.926 0
M  V30 2346 C 211.854 -3.3498 5.12303 0
M  V30 2347 N 210.991 -4.52891 5.36502 0
M  V30 2348 H 215.831 -0.809472 2.86795 0
M  V30 2349 H 213.368 -0.388237 1.41884 0
M  V30 2350 H 215.326 -3.27346 2.58652 0
M  V30 2351 H 213.956 -2.84252 1.52972 0
M  V30 2352 H 213.008 -1.45711 3.51387 0
M  V30 2353 H 214.32 -2.11145 4.51906 0
M  V30 2354 H 213.474 -4.43624 4.13863 0
M  V30 2355 H 212.213 -3.81753 3.03506 0
M  V30 2356 H 211.218 -2.4757 4.90906 0
M  V30 2357 H 212.443 -3.12444 6.02956 0
M  V30 2358 H 210.389 -4.76979 4.50363 0
M  V30 2359 H 210.306 -4.35001 6.18312 0
M  V30 2360 H 211.574 -5.39884 5.62268 0
M  V30 2361 N 215.803 -1.52179 -0.40978 0
M  V30 2362 C 217.219 -1.40968 -0.74835 0
M  V30 2363 C 217.419 -0.513657 -1.94843 0
M  V30 2364 O 216.475 0.0208026 -2.52491 0
M  V30 2365 C 217.788 -2.83483 -1.0029 0
M  V30 2366 C 219.336 -2.92821 -1.10565 0
M  V30 2367 C 219.811 -4.36303 -1.39296 0
M  V30 2368 N 221.302 -4.39535 -1.46162 0
M  V30 2369 C 222.037 -5.47614 -1.70018 0
M  V30 2370 N 221.533 -6.65812 -1.91483 0
M  V30 2371 N 223.326 -5.35129 -1.72027 0
M  V30 2372 H 215.477 -2.0897 0.380186 0
M  V30 2373 H 217.74 -0.94185 0.107805 0
M  V30 2374 H 217.446 -3.51168 -0.193461 0
M  V30 2375 H 217.32 -3.24487 -1.92323 0
M  V30 2376 H 219.707 -2.25318 -1.90568 0
M  V30 2377 H 219.788 -2.55276 -0.16369 0
M  V30 2378 H 219.432 -5.04366 -0.598109 0
M  V30 2379 H 219.362 -4.71385 -2.34743 0
M  V30 2380 H 221.853 -3.54332 -1.31367 0
M  V30 2381 H 222.166 -7.43964 -2.09134 0
M  V30 2382 H 220.511 -6.68879 -1.88749 0
M  V30 2383 H 223.702 -4.41764 -1.54796 0
M  V30 2384 H 223.875 -6.19433 -1.9028 0
M  V30 2385 N 217.281 0.66697 -1.42791 0
M  V30 2386 C 218.506 1.46004 -1.47301 0
M  V30 2387 C 218.931 1.87894 -0.0880317 0
M  V30 2388 O 218.289 1.56502 0.915253 0
M  V30 2389 C 218.337 2.68031 -2.41229 0
M  V30 2390 O 217.441 3.6659 -1.88906 0
M  V30 2391 H 216.782 0.43832 -0.49877 0
M  V30 2392 H 219.312 0.817391 -1.87563 0
M  V30 2393 H 219.322 3.1601 -2.58073 0
M  V30 2394 H 217.997 2.36883 -3.41847 0
M  V30 2395 H 216.574 3.25661 -1.81656 0
M  V30 2396 N 218.759 1.29093 0.90403 0
M  V30 2397 C 219.669 1.15727 2.0407 0
M  V30 2398 C 220.685 0.0815308 1.73809 0
M  V30 2399 O 221.861 0.292749 1.99261 0
M  V30 2400 C 218.926 0.830424 3.36608 0
M  V30 2401 C 217.987 1.98955 3.80415 0
M  V30 2402 C 217.22 1.6782 5.06628 0
M  V30 2403 O 217.443 0.597105 5.67266 0
M  V30 2404 O 216.377 2.52486 5.46383 0
M  V30 2405 H 220.203 2.11171 2.18267 0
M  V30 2406 H 217.788 1.08504 1.027 0
M  V30 2407 H 219.67 0.662521 4.16159 0
M  V30 2408 H 218.345 -0.0942678 3.23563 0
M  V30 2409 H 217.252 2.21267 3.01648 0
M  V30 2410 H 218.585 2.89529 3.98037 0
M  V30 2411 N 220.237 -1.11381 1.11499 0
M  V30 2412 C 221.2 -2.15622 0.777153 0
M  V30 2413 C 222.2 -1.59504 -0.203779 0
M  V30 2414 O 223.39 -1.74188 0.020782 0
M  V30 2415 C 220.522 -3.40556 0.153116 0
M  V30 2416 H 221.715 -2.47021 1.70061 0
M  V30 2417 H 219.268 -1.26577 0.916952 0
M  V30 2418 H 220.003 -3.14767 -0.780536 0
M  V30 2419 H 219.788 -3.8257 0.859238 0
M  V30 2420 H 221.278 -4.17546 -0.0671044 0
M  V30 2421 N 221.715 -0.905404 -1.28997 0
M  V30 2422 C 223.126 -0.581953 -1.77398 0
M  V30 2423 C 223.477 0.902552 -1.74208 0
M  V30 2424 O 222.602 1.70584 -1.33154 0
M  V30 2425 C 223.197 -1.04961 -3.22131 0
M  V30 2426 C 221.756 -0.777229 -3.68288 0
M  V30 2427 C 220.903 -1.22109 -2.48967 0
M  V30 2428 H 223.854 -1.08754 -1.15578 0
M  V30 2429 H 223.875 -0.387387 -3.78523 0
M  V30 2430 H 223.387 -2.13008 -3.24421 0
M  V30 2431 H 221.488 0.290383 -3.71467 0
M  V30 2432 H 221.601 -1.37911 -4.58822 0
M  V30 2433 H 219.965 -0.639971 -2.46529 0
M  V30 2434 H 220.748 -2.30972 -2.53982 0
M  V30 2435 N 223.193 1.4272 -0.668489 0
M  V30 2436 C 224.604 1.84793 -0.266151 0
M  V30 2437 C 224.955 1.55959 1.19043 0
M  V30 2438 O 224.08 1.01622 1.91055 0
M  V30 2439 C 224.675 3.35436 -0.476271 0
M  V30 2440 C 223.234 3.76182 -0.128113 0
M  V30 2441 C 222.381 2.66344 -0.771777 0
M  V30 2442 H 225.332 1.32656 -0.871098 0
M  V30 2443 H 225.353 3.79515 0.273561 0
M  V30 2444 H 224.865 3.5639 -1.53647 0
M  V30 2445 H 222.966 3.60836 0.928891 0
M  V30 2446 H 223.079 4.75766 -0.564231 0
M  V30 2447 H 221.443 2.53885 -0.203652 0
M  V30 2448 H 222.226 2.90123 -1.83531 0
M  V30 2449 N 224.671 0.411399 1.52136 0
M  V30 2450 C 225.621 -0.430376 2.23901 0
M  V30 2451 C 226.605 -1.0116 1.25121 0
M  V30 2452 O 227.797 -0.934044 1.50348 0
M  V30 2453 C 224.926 -1.54527 3.06556 0
M  V30 2454 C 224.012 -0.9747 4.12747 0
M  V30 2455 N 224.403 -0.130991 5.0563 0
M  V30 2456 C 222.701 -1.24497 4.28271 0
M  V30 2457 C 223.402 0.186689 5.814 0
M  V30 2458 N 222.378 -0.42304 5.41951 0
M  V30 2459 H 226.18 0.220509 2.93072 0
M  V30 2460 H 223.694 0.221952 1.60876 0
M  V30 2461 H 225.691 -2.16093 3.56524 0
M  V30 2462 H 224.351 -2.19875 2.38925 0
M  V30 2463 H 225.362 0.23349 5.17373 0
M  V30 2464 H 222.039 -1.89787 3.7187 0
M  V30 2465 H 223.429 0.871673 6.66222 0
M  V30 2466 N 226.149 -1.5696 0.141893 0
M  V30 2467 C 227.398 -1.95135 -0.510427 0
M  V30 2468 C 227.711 -1.02896 -1.66348 0
M  V30 2469 O 228.917 -1.30629 -2.38009 0
M  V30 2470 C 227.373 -3.46876 -0.959427 0
M  V30 2471 C 226.981 -4.47691 0.166419 0
M  V30 2472 C 228.725 -3.93927 -1.58183 0
M  V30 2473 C 226.632 -5.90636 -0.300565 0
M  V30 2474 H 225.562 -0.728494 -0.194454 0
M  V30 2475 H 228.213 -1.8211 0.22542 0
M  V30 2476 H 226.595 -3.55215 -1.75038 0
M  V30 2477 H 227.769 -4.51043 0.94325 0
M  V30 2478 H 226.084 -4.10527 0.696905 0
M  V30 2479 H 228.681 -4.98158 -1.94275 0
M  V30 2480 H 229.024 -3.3519 -2.46888 0
M  V30 2481 H 229.557 -3.88484 -0.855863 0
M  V30 2482 H 226.296 -6.5318 0.550989 0
M  V30 2483 H 225.816 -5.90655 -1.04338 0
M  V30 2484 H 227.495 -6.42588 -0.754265 0
M  V30 2485 N 227.627 0.131896 -1.57047 0
M  V30 2486 C 228.874 0.841932 -1.84168 0
M  V30 2487 C 229.202 1.8048 -0.725066 0
M  V30 2488 O 228.457 1.93618 0.284692 0
M  V30 2489 C 228.756 1.63703 -3.17704 0
M  V30 2490 C 228.422 0.81961 -4.43388 0
M  V30 2491 C 227.084 0.594148 -4.77518 0
M  V30 2492 C 229.436 0.248977 -5.20605 0
M  V30 2493 C 226.764 -0.212409 -5.86315 0
M  V30 2494 C 229.116 -0.544701 -6.30251 0
M  V30 2495 C 227.78 -0.780599 -6.6292 0
M  V30 2496 H 227.05 0.308085 -0.673917 0
M  V30 2497 H 229.697 0.104867 -1.91213 0
M  V30 2498 H 228.002 2.44464 -3.06177 0
M  V30 2499 H 229.699 2.19015 -3.35907 0
M  V30 2500 H 226.289 1.00542 -4.16641 0
M  V30 2501 H 230.473 0.410408 -4.946 0
M  V30 2502 H 225.729 -0.404524 -6.1006 0
M  V30 2503 H 229.903 -0.993922 -6.89271 0
M  V30 2504 H 227.53 -1.40742 -7.47058 0
M  V30 2505 N 229.106 1.52395 0.401703 0
M  V30 2506 C 230.331 1.70972 1.17403 0
M  V30 2507 C 230.756 0.421615 1.83314 0
M  V30 2508 O 230.114 -0.621564 1.70312 0
M  V30 2509 C 230.162 2.85151 2.20728 0
M  V30 2510 O 229.266 2.51238 3.27037 0
M  V30 2511 H 228.607 0.568927 0.342372 0
M  V30 2512 H 231.137 1.99131 0.469891 0
M  V30 2513 H 231.147 3.10279 2.64936 0
M  V30 2514 H 229.822 3.78603 1.7214 0
M  V30 2515 H 228.399 2.36808 2.88057 0
M  V30 2516 N 230.584 -0.659388 1.43143 0
M  V30 2517 C 231.833 -1.41518 1.43721 0
M  V30 2518 C 232.146 -1.95499 0.0628176 0
M  V30 2519 O 233.352 -2.71446 -0.0539683 0
M  V30 2520 C 231.808 -2.5608 2.52885 0
M  V30 2521 C 231.416 -2.08733 3.96402 0
M  V30 2522 C 233.16 -3.3349 2.62649 0
M  V30 2523 C 231.067 -3.20469 4.97045 0
M  V30 2524 H 229.997 -0.531705 0.534608 0
M  V30 2525 H 232.648 -0.712343 1.69109 0
M  V30 2526 H 231.03 -3.28805 2.20688 0
M  V30 2527 H 232.204 -1.43059 4.3803 0
M  V30 2528 H 230.519 -1.44219 3.90627 0
M  V30 2529 H 233.116 -4.16734 3.35017 0
M  V30 2530 H 233.459 -3.8111 1.67513 0
M  V30 2531 H 233.992 -2.67842 2.94118 0
M  V30 2532 H 230.731 -2.77824 5.93712 0
M  V30 2533 H 230.251 -3.84874 4.60034 0
M  V30 2534 H 231.93 -3.85698 5.19467 0
M  V30 2535 N 232.062 -1.29571 -0.897171 0
M  V30 2536 C 233.287 -1.20705 -1.68656 0
M  V30 2537 C 233.712 0.228582 -1.86706 0
M  V30 2538 O 233.07 1.16494 -1.3892 0
M  V30 2539 C 233.118 -1.9282 -3.04717 0
M  V30 2540 O 232.222 -1.24697 -3.93096 0
M  V30 2541 H 231.563 -0.418126 -0.515816 0
M  V30 2542 H 234.093 -1.71183 -1.12061 0
M  V30 2543 H 234.103 -2.01372 -3.54843 0
M  V30 2544 H 232.778 -2.97239 -2.90899 0
M  V30 2545 H 231.355 -1.2442 -3.51531 0
M  V30 2546 N 233.54 1.10788 -1.12088 0
M  V30 2547 C 234.817 1.79136 -0.785476 0
M  V30 2548 C 235.197 1.98246 0.725377 0
M  V30 2549 O 234.545 1.57258 1.65778 0
M  V30 2550 C 234.755 3.12375 -1.55636 0
M  V30 2551 C 236.103 3.8731 -1.74001 0
M  V30 2552 O 237.127 3.22085 -1.52117 0
M  V30 2553 O 235.986 5.04369 -2.10415 0
M  V30 2554 H 233.08 0.776226 -0.285311 0
M  V30 2555 H 235.626 1.1747 -1.2247 0
M  V30 2556 H 234.398 2.93863 -2.5838 0
M  V30 2557 H 234.021 3.81758 -1.11114 0
M  V30 2558 N 235.018 0.912232 1.28515 0
M  V30 2559 C 235.966 0.389597 2.29314 0
M  V30 2560 C 236.96 -0.517915 1.61289 0
M  V30 2561 O 238.166 -0.399328 1.75515 0
M  V30 2562 H 234.541 0.107386 0.744293 0
M  V30 2563 H 236.512 1.25286 2.70825 0
M  V30 2564 C 235.261 -0.356496 3.45868 0
M  V30 2565 H 234.584 0.332608 3.98414 0
M  V30 2566 H 236.024 -0.686851 4.184 0
M  V30 2567 C 234.483 -1.56383 2.98406 0
M  V30 2568 O 235.013 -2.66294 3.00749 0
M  V30 2569 N 233.219 -1.41029 2.54085 0
M  V30 2570 H 232.766 -0.516089 2.52377 0
M  V30 2571 H 232.724 -2.21939 2.22689 0
M  V30 2572 N 236.496 -1.42363 0.676048 0
M  V30 2573 C 237.459 -2.29199 0.00766941 0
M  V30 2574 C 238.459 -1.43389 -0.727745 0
M  V30 2575 O 239.649 -1.64764 -0.56556 0
M  V30 2576 C 236.781 -3.2591 -0.999785 0
M  V30 2577 H 237.974 -2.89794 0.771988 0
M  V30 2578 H 235.527 -1.50024 0.438468 0
M  V30 2579 H 236.262 -2.70256 -1.79255 0
M  V30 2580 H 236.047 -3.89202 -0.475829 0
M  V30 2581 H 237.537 -3.91028 -1.46583 0
M  V30 2582 N 237.974 -0.419461 -1.51915 0
M  V30 2583 C 239.204 0.151915 -2.06041 0
M  V30 2584 C 239.612 1.38539 -1.28855 0
M  V30 2585 O 238.955 1.80592 -0.336463 0
M  V30 2586 C 239.017 0.557119 -3.55157 0
M  V30 2587 C 238.681 -0.567054 -4.53468 0
M  V30 2588 C 239.678 -1.43379 -4.99738 0
M  V30 2589 C 237.363 -0.742693 -4.96779 0
M  V30 2590 C 239.357 -2.46102 -5.87973 0
M  V30 2591 C 237.044 -1.77322 -5.84808 0
M  V30 2592 C 238.042 -2.63078 -6.30301 0
M  V30 2593 O 237.73 -3.64364 -7.16585 0
M  V30 2594 H 237.462 0.0193293 -0.675724 0
M  V30 2595 H 240.016 -0.592073 -1.96682 0
M  V30 2596 H 238.246 1.35355 -3.62238 0
M  V30 2597 H 239.935 1.05759 -3.9188 0
M  V30 2598 H 240.701 -1.30954 -4.66986 0
M  V30 2599 H 236.58 -0.0848307 -4.60922 0
M  V30 2600 H 240.124 -3.13071 -6.23404 0
M  V30 2601 H 236.021 -1.89773 -6.16974 0
M  V30 2602 H 236.789 -3.60731 -7.34721 0
M  V30 2603 N 239.452 1.56882 -0.150215 0
M  V30 2604 C 240.384 2.14057 0.819286 0
M  V30 2605 C 241.397 1.09082 1.20851 0
M  V30 2606 O 242.586 1.36347 1.15203 0
M  V30 2607 C 239.686 2.65102 2.11127 0
M  V30 2608 C 238.859 3.94511 1.88891 0
M  V30 2609 C 237.918 4.30834 3.02107 0
M  V30 2610 O 236.944 4.99099 2.73659 0
M  V30 2611 N 238.146 3.90676 4.29363 0
M  V30 2612 H 240.911 2.97871 0.330618 0
M  V30 2613 H 238.472 1.61866 0.0332538 0
M  V30 2614 H 240.464 2.86411 2.85921 0
M  V30 2615 H 239.034 1.85994 2.51247 0
M  V30 2616 H 238.254 3.81795 0.981152 0
M  V30 2617 H 239.542 4.7907 1.71376 0
M  V30 2618 H 238.94 3.35677 4.55343 0
M  V30 2619 H 237.497 4.1703 5.00928 0
M  V30 2620 N 240.93 -0.123565 1.57115 0
M  V30 2621 C 242.16 -0.845233 1.88519 0
M  V30 2622 C 242.568 -1.74168 0.739064 0
M  V30 2623 O 241.911 -1.81244 -0.299355 0
M  V30 2624 C 241.973 -1.73452 3.14888 0
M  V30 2625 C 241.637 -1.01285 4.45635 0
M  V30 2626 C 242.634 -0.355774 5.18681 0
M  V30 2627 C 240.319 -0.99538 4.92339 0
M  V30 2628 C 242.313 0.309114 6.3665 0
M  V30 2629 C 240 -0.32669 6.10226 0
M  V30 2630 C 240.998 0.324406 6.82229 0
M  V30 2631 O 240.686 0.982437 7.97874 0
M  V30 2632 H 240.418 -0.248534 0.628655 0
M  V30 2633 H 242.972 -0.113907 2.05084 0
M  V30 2634 H 241.202 -2.50737 2.94394 0
M  V30 2635 H 242.891 -2.33021 3.32349 0
M  V30 2636 H 243.657 -0.360918 4.83655 0
M  V30 2637 H 239.536 -1.49159 4.36202 0
M  V30 2638 H 243.08 0.8179 6.92789 0
M  V30 2639 H 238.977 -0.319294 6.4471 0
M  V30 2640 H 239.745 0.886454 8.13686 0
M  V30 2641 N 242.408 -1.52605 -0.393616 0
M  V30 2642 C 243.341 -1.71798 -1.50202 0
M  V30 2643 C 244.319 -0.565743 -1.52441 0
M  V30 2644 O 245.503 -0.794987 -1.70916 0
M  V30 2645 C 242.63 -1.7714 -2.88685 0
M  V30 2646 C 241.676 -2.98845 -3.04292 0
M  V30 2647 S 242.509 -4.58909 -2.75976 0
M  V30 2648 C 243.665 -4.6706 -4.1666 0
M  V30 2649 H 243.898 -2.65542 -1.33696 0
M  V30 2650 H 241.431 -1.42839 -0.586195 0
M  V30 2651 H 243.389 -1.80903 -3.68489 0
M  V30 2652 H 242.05 -0.844969 -3.02521 0
M  V30 2653 H 241.243 -2.99111 -4.05646 0
M  V30 2654 H 240.845 -2.9305 -2.32374 0
M  V30 2655 H 243.137 -4.45391 -5.10523 0
M  V30 2656 H 244.08 -5.6905 -4.21412 0
M  V30 2657 H 244.488 -3.95944 -4.02354 0
M  V30 2658 N 243.887 0.651787 -1.4349 0
M  V30 2659 C 244.817 1.77621 -1.51569 0
M  V30 2660 C 245.798 1.66022 -0.370253 0
M  V30 2661 O 246.983 1.85095 -0.587658 0
M  V30 2662 C 244.113 3.16056 -1.43966 0
M  V30 2663 C 243.067 3.4242 -2.56774 0
M  V30 2664 C 242.393 4.8067 -2.34223 0
M  V30 2665 C 243.693 3.37023 -3.99015 0
M  V30 2666 H 245.387 1.71117 -2.45681 0
M  V30 2667 H 242.933 0.821825 -1.18246 0
M  V30 2668 H 244.886 3.94472 -1.48221 0
M  V30 2669 H 243.61 3.23293 -0.463586 0
M  V30 2670 H 242.269 2.66375 -2.51873 0
M  V30 2671 H 241.917 4.84585 -1.34856 0
M  V30 2672 H 241.617 4.9927 -3.09844 0
M  V30 2673 H 243.141 5.61342 -2.40265 0
M  V30 2674 H 244.555 4.05374 -4.05395 0
M  V30 2675 H 242.952 3.67159 -4.74673 0
M  V30 2676 H 244.022 2.3518 -4.2405 0
M  V30 2677 N 245.365 1.30045 0.890287 0
M  V30 2678 C 246.593 1.21472 1.67487 0
M  V30 2679 C 247.008 -0.223241 1.87476 0
M  V30 2680 O 246.365 -1.14828 1.41847 0
M  V30 2681 C 246.416 1.93394 3.05419 0
M  V30 2682 O 246.137 3.31576 2.86337 0
M  V30 2683 C 247.638 1.91414 3.99844 0
M  V30 2684 H 244.858 0.420604 0.522813 0
M  V30 2685 H 247.402 1.7158 1.11268 0
M  V30 2686 H 245.557 1.47099 3.58386 0
M  V30 2687 H 245.971 3.67929 3.73802 0
M  V30 2688 H 247.445 2.46285 4.94012 0
M  V30 2689 H 247.922 0.891833 4.3005 0
M  V30 2690 H 248.528 2.37496 3.52811 0
M  V30 2691 N 246.843 -1.10192 1.12674 0
M  V30 2692 C 248.12 -1.78717 0.794965 0
M  V30 2693 C 248.5 -1.98628 -0.714853 0
M  V30 2694 O 247.848 -1.58135 -1.64941 0
M  V30 2695 C 248.058 -3.11546 1.5729 0
M  V30 2696 C 249.406 -3.86382 1.76052 0
M  V30 2697 O 250.43 -3.21274 1.53823 0
M  V30 2698 O 249.289 -5.03246 2.13087 0
M  V30 2699 H 246.383 -0.774702 0.289423 0
M  V30 2700 H 248.929 -1.16819 1.23091 0
M  V30 2701 H 247.701 -2.92489 2.59935 0
M  V30 2702 H 247.324 -3.81164 1.13137 0
M  V30 2703 N 248.321 -0.919034 -1.28029 0
M  V30 2704 C 249.737 -0.617972 -1.4715 0
M  V30 2705 C 249.937 0.835242 -1.83374 0
M  V30 2706 O 248.993 1.61388 -1.94191 0
M  V30 2707 C 250.306 -1.56041 -2.57044 0
M  V30 2708 C 251.854 -1.56769 -2.7091 0
M  V30 2709 C 252.329 -2.49688 -3.83953 0
M  V30 2710 N 253.82 -2.47845 -3.91314 0
M  V30 2711 C 254.555 -3.16437 -4.78179 0
M  V30 2712 N 254.051 -3.94376 -5.69596 0
M  V30 2713 N 255.844 -3.05498 -4.71834 0
M  V30 2714 H 247.995 -1.85866 -1.02798 0
M  V30 2715 H 250.258 -0.797506 -0.512531 0
M  V30 2716 H 249.964 -2.59671 -2.372 0
M  V30 2717 H 249.838 -1.29551 -3.54255 0
M  V30 2718 H 252.225 -0.538745 -2.90141 0
M  V30 2719 H 252.306 -1.87305 -1.74214 0
M  V30 2720 H 251.95 -3.52688 -3.65477 0
M  V30 2721 H 251.88 -2.16453 -4.80058 0
M  V30 2722 H 254.371 -1.91234 -3.25941 0
M  V30 2723 H 254.684 -4.43721 -6.32718 0
M  V30 2724 H 253.029 -3.98481 -5.69419 0
M  V30 2725 H 256.22 -2.44108 -3.99411 0
M  V30 2726 H 256.393 -3.59225 -5.39316 0
M  V30 2727 N 249.799 1.42003 -0.683588 0
M  V30 2728 C 250.709 2.34597 -0.0109075 0
M  V30 2729 C 251.725 1.55576 0.779245 0
M  V30 2730 O 252.901 1.88107 0.719555 0
M  V30 2731 C 249.966 3.34199 0.922588 0
M  V30 2732 C 249.027 4.29115 0.125984 0
M  V30 2733 C 248.26 5.23959 1.01502 0
M  V30 2734 O 248.483 5.23952 2.25456 0
M  V30 2735 O 247.417 6.00053 0.47111 0
M  V30 2736 H 251.243 2.93675 -0.773853 0
M  V30 2737 H 248.828 1.42654 -0.443861 0
M  V30 2738 H 250.71 3.95365 1.45823 0
M  V30 2739 H 249.385 2.77582 1.66523 0
M  V30 2740 H 248.292 3.71335 -0.453969 0
M  V30 2741 H 249.625 4.88798 -0.577736 0
M  V30 2742 N 251.277 0.427512 1.51691 0
M  V30 2743 C 252.225 -0.403359 2.29076 0
M  V30 2744 C 253.219 -1.02962 1.34518 0
M  V30 2745 O 254.425 -0.965715 1.51901 0
M  V30 2746 H 250.8 -0.148879 0.737115 0
M  V30 2747 H 252.771 0.270295 2.97173 0
M  V30 2748 C 251.52 -1.49763 3.13794 0
M  V30 2749 H 250.843 -1.02508 3.86435 0
M  V30 2750 H 252.283 -2.05244 3.71014 0
M  V30 2751 C 250.742 -2.47536 2.28533 0
M  V30 2752 O 251.272 -3.51848 1.93819 0
M  V30 2753 N 249.478 -2.18187 1.91945 0
M  V30 2754 H 249.025 -1.33389 2.20375 0
M  V30 2755 H 248.983 -2.83848 1.35195 0
M  V30 2756 N 252.755 -1.56801 0.158532 0
M  V30 2757 C 253.687 -2.14488 -0.807923 0
M  V30 2758 C 254.7 -1.09721 -1.20271 0
M  V30 2759 O 255.889 -1.36956 -1.14478 0
M  V30 2760 C 252.989 -2.66217 -2.09718 0
M  V30 2761 C 252.162 -3.95507 -1.86796 0
M  V30 2762 C 251.221 -4.3243 -2.99818 0
M  V30 2763 O 250.247 -5.00543 -2.71008 0
M  V30 2764 N 251.449 -3.92947 -4.27285 0
M  V30 2765 H 254.214 -2.98042 -0.314816 0
M  V30 2766 H 251.775 -1.61881 -0.0246692 0
M  V30 2767 H 253.767 -2.87924 -2.84398 0
M  V30 2768 H 252.337 -1.87324 -2.50257 0
M  V30 2769 H 251.557 -3.82309 -0.96089 0
M  V30 2770 H 252.845 -4.79972 -1.68833 0
M  V30 2771 H 252.243 -3.38087 -4.53557 0
M  V30 2772 H 250.8 -4.19681 -4.9871 0
M  V30 2773 N 254.233 0.115231 -1.57178 0
M  V30 2774 C 255.458 0.840354 -1.89612 0
M  V30 2775 C 255.883 1.72464 -0.750845 0
M  V30 2776 O 255.241 1.78826 0.298478 0
M  V30 2777 C 255.289 1.64654 -3.20814 0
M  V30 2778 O 254.393 2.7538 -3.06985 0
M  V30 2779 H 253.734 0.232158 -0.622092 0
M  V30 2780 H 256.264 0.0964977 -2.04372 0
M  V30 2781 H 256.274 2.03499 -3.53627 0
M  V30 2782 H 254.949 0.997416 -4.03763 0
M  V30 2783 H 253.526 2.3971 -2.85646 0
M  V30 2784 N 255.711 1.52812 0.385517 0
M  V30 2785 C 256.96 1.67249 1.12741 0
M  V30 2786 C 257.273 0.4205 1.91027 0
M  V30 2787 O 258.479 0.445064 2.67827 0
M  V30 2788 C 256.935 2.95583 2.05326 0
M  V30 2789 C 256.543 4.27974 1.32447 0
M  V30 2790 C 258.287 3.19386 2.7963 0
M  V30 2791 C 256.194 5.47412 2.23818 0
M  V30 2792 H 255.124 0.6231 0.424573 0
M  V30 2793 H 257.775 1.79309 0.389924 0
M  V30 2794 H 256.157 2.77277 2.82725 0
M  V30 2795 H 257.331 4.56844 0.602495 0
M  V30 2796 H 255.646 4.10459 0.700885 0
M  V30 2797 H 258.243 4.05801 3.48181 0
M  V30 2798 H 258.586 2.34604 3.43899 0
M  V30 2799 H 259.119 3.38274 2.09322 0
M  V30 2800 H 255.858 6.34612 1.64157 0
M  V30 2801 H 255.378 5.22849 2.93921 0
M  V30 2802 H 257.057 5.81423 2.83824 0
M  V30 2803 N 257.189 -0.644168 1.43834 0
M  V30 2804 C 258.119 -1.76814 1.52509 0
M  V30 2805 C 259.1 -1.65823 0.379052 0
M  V30 2806 O 260.285 -1.84781 0.597466 0
M  V30 2807 C 257.415 -3.15288 1.4564 0
M  V30 2808 C 256.369 -3.41053 2.58586 0
M  V30 2809 C 255.695 -4.79421 2.36769 0
M  V30 2810 C 256.995 -3.34902 4.00797 0
M  V30 2811 H 258.689 -1.69812 2.46586 0
M  V30 2812 H 256.235 -0.815542 1.1868 0
M  V30 2813 H 258.188 -3.93681 1.50311 0
M  V30 2814 H 256.912 -3.23043 0.480725 0
M  V30 2815 H 255.571 -2.65035 2.53282 0
M  V30 2816 H 255.219 -4.83863 1.37424 0
M  V30 2817 H 254.919 -4.9762 3.12487 0
M  V30 2818 H 256.443 -5.6006 2.43238 0
M  V30 2819 H 257.857 -4.03218 4.07539 0
M  V30 2820 H 256.254 -3.64637 4.76613 0
M  V30 2821 H 257.324 -2.32928 4.25291 0
M  V30 2822 N 258.668 -1.30515 -0.883378 0
M  V30 2823 C 259.917 -1.18795 -1.63005 0
M  V30 2824 C 260.23 0.255923 -1.93919 0
M  V30 2825 O 261.436 0.494654 -2.66956 0
M  V30 2826 C 259.892 -2.07878 -2.93794 0
M  V30 2827 C 259.5 -3.57184 -2.70414 0
M  V30 2828 C 261.244 -2.04924 -3.71761 0
M  V30 2829 C 259.151 -4.38317 -3.97029 0
M  V30 2830 H 258.081 -0.441031 -0.611562 0
M  V30 2831 H 260.732 -1.55275 -0.977854 0
M  V30 2832 H 259.114 -1.64283 -3.60315 0
M  V30 2833 H 260.288 -4.08937 -2.12384 0
M  V30 2834 H 258.603 -3.61976 -2.0582 0
M  V30 2835 H 261.2 -2.62792 -4.65665 0
M  V30 2836 H 261.543 -1.0331 -4.03277 0
M  V30 2837 H 262.076 -2.46649 -3.12104 0
M  V30 2838 H 258.815 -5.40632 -3.70671 0
M  V30 2839 H 258.335 -3.91326 -4.54559 0
M  V30 2840 H 260.014 -4.49834 -4.65036 0
M  V30 2841 N 260.146 1.09593 -1.13257 0
M  V30 2842 C 261.374 1.855 -0.916378 0
M  V30 2843 C 261.789 1.81069 0.534738 0
M  V30 2844 O 261.146 1.20562 1.37007 0
M  V30 2845 C 261.197 3.33546 -1.39388 0
M  V30 2846 O 260.918 3.37927 -2.78813 0
M  V30 2847 C 262.419 4.26299 -1.21588 0
M  V30 2848 H 259.639 0.585991 -0.326887 0
M  V30 2849 H 262.183 1.38488 -1.5047 0
M  V30 2850 H 260.338 3.77992 -0.848597 0
M  V30 2851 H 260.752 4.30254 -2.9997 0
M  V30 2852 H 262.226 5.28341 -1.59876 0
M  V30 2853 H 262.703 4.38918 -0.157376 0
M  V30 2854 H 263.309 3.87668 -1.7491 0
M  V30 2855 N 261.624 0.925811 1.2754 0
M  V30 2856 C 262.872 0.564138 1.94067 0
M  V30 2857 C 263.193 -0.897188 1.73134 0
M  V30 2858 O 262.463 -1.63573 1.07799 0
M  V30 2859 H 261.043 0.205645 0.718136 0
M  V30 2860 H 263.705 1.1778 1.55287 0
M  V30 2861 H 262.801 0.76881 3.02483 0
M  V30 2862 N 263.102 -1.41638 0.69111 0
M  V30 2863 C 264.012 -2.34588 0.0233487 0
M  V30 2864 C 265.028 -1.55987 -0.770984 0
M  V30 2865 O 266.204 -1.88486 -0.709569 0
M  V30 2866 C 263.269 -3.34684 -0.904851 0
M  V30 2867 C 262.33 -4.29176 -0.103225 0
M  V30 2868 C 261.563 -5.2449 -0.987216 0
M  V30 2869 O 261.786 -5.2514 -2.22674 0
M  V30 2870 O 260.72 -6.00295 -0.439281 0
M  V30 2871 H 264.546 -2.93261 0.789416 0
M  V30 2872 H 262.131 -1.42417 0.45142 0
M  V30 2873 H 264.013 -3.96133 -1.43724 0
M  V30 2874 H 262.688 -2.78461 -1.65049 0
M  V30 2875 H 261.595 -3.71089 0.473655 0
M  V30 2876 H 262.928 -4.88484 0.60365 0
M  V30 2877 N 264.58 -0.43555 -1.51462 0
M  V30 2878 C 265.805 0.132627 -2.06976 0
M  V30 2879 C 266.23 1.35848 -1.30104 0
M  V30 2880 O 265.588 1.78112 -0.338493 0
M  V30 2881 C 265.636 0.43523 -3.57964 0
M  V30 2882 O 264.74 1.52198 -3.83288 0
M  V30 2883 H 264.081 0.00265 -0.663995 0
M  V30 2884 H 266.611 -0.616369 -1.95095 0
M  V30 2885 H 266.621 0.686206 -4.02188 0
M  V30 2886 H 265.296 -0.460739 -4.1334 0
M  V30 2887 H 263.873 1.2611 -3.50928 0
M  V30 2888 N 266.058 1.56714 -0.166846 0
M  V30 2889 C 267.306 1.96358 0.478305 0
M  V30 2890 C 267.627 1.0537 1.6408 0
M  V30 2891 O 266.897 0.119154 1.95537 0
M  V30 2892 H 265.477 0.725065 0.179692 0
M  V30 2893 H 268.139 1.93329 -0.246985 0
M  V30 2894 H 267.235 3.00547 0.841292 0
M  V30 2895 N 267.536 -0.106894 1.57237 0
M  V30 2896 C 268.499 -1.11466 2.0027 0
M  V30 2897 C 269.499 -1.33623 0.894519 0
M  V30 2898 O 270.689 -1.29935 1.16028 0
M  V30 2899 C 267.821 -2.46646 2.35327 0
M  V30 2900 H 269.014 -0.744516 2.90512 0
M  V30 2901 H 266.567 -0.351576 1.52295 0
M  V30 2902 H 267.302 -2.88558 1.48003 0
M  V30 2903 H 267.087 -2.31915 3.16161 0
M  V30 2904 H 268.577 -3.19151 2.69318 0
M  V30 2905 N 269.014 -1.53014 -0.377408 0
M  V30 2906 C 270.262 -1.6829 -1.11906 0
M  V30 2907 C 270.583 -0.431206 -1.90173 0
M  V30 2908 O 269.853 0.554595 -1.87886 0
M  V30 2909 H 268.433 -0.620371 -0.416112 0
M  V30 2910 H 271.095 -1.90167 -0.426893 0
M  V30 2911 H 270.191 -2.53862 -1.8155 0
M  V30 2912 N 270.492 0.636531 -1.44174 0
M  V30 2913 C 271.439 1.74875 -1.50624 0
M  V30 2914 C 272.409 1.62275 -0.35442 0
M  V30 2915 O 273.594 1.82276 -0.563908 0
M  V30 2916 C 270.734 3.13102 -1.45125 0
M  V30 2917 C 269.847 3.36717 -2.7064 0
M  V30 2918 C 268.982 4.64885 -2.57013 0
M  V30 2919 C 268.021 4.8166 -3.77717 0
M  V30 2920 N 267.158 6.01101 -3.62798 0
M  V30 2921 H 271.998 1.68697 -2.45653 0
M  V30 2922 H 269.535 0.823004 -1.21922 0
M  V30 2923 H 271.493 3.93034 -1.39929 0
M  V30 2924 H 270.123 3.18308 -0.536671 0
M  V30 2925 H 269.175 2.50763 -2.86046 0
M  V30 2926 H 270.487 3.44993 -3.60252 0
M  V30 2927 H 269.641 5.52969 -2.49619 0
M  V30 2928 H 268.38 4.58957 -1.64953 0
M  V30 2929 H 267.385 3.92007 -3.85501 0
M  V30 2930 H 268.61 4.89406 -4.70807 0
M  V30 2931 H 266.556 5.96273 -2.73486 0
M  V30 2932 H 266.473 6.10409 -4.46023 0
M  V30 2933 H 267.741 6.91761 -3.59286 0
M  V30 2934 N 271.97 1.30982 0.876444 0
M  V30 2935 C 273.198 1.23242 1.6619 0
M  V30 2936 C 273.613 -0.203345 1.87702 0
M  V30 2937 O 272.97 -1.13317 1.43057 0
M  V30 2938 C 273.021 1.96623 3.03351 0
M  V30 2939 O 272.742 3.34594 2.82804 0
M  V30 2940 C 274.243 1.95644 3.97792 0
M  V30 2941 H 271.463 0.426126 0.518322 0
M  V30 2942 H 274.007 1.7275 1.09442 0
M  V30 2943 H 272.162 1.50892 3.56806 0
M  V30 2944 H 272.576 3.71873 3.69879 0
M  V30 2945 H 274.05 2.51511 4.91372 0
M  V30 2946 H 274.527 0.937395 4.2908 0
M  V30 2947 H 275.133 2.41225 3.50272 0
M  V30 2948 N 273.449 -1.08991 1.13837 0
M  V30 2949 C 274.695 -1.81526 0.90422 0
M  V30 2950 C 275.028 -1.85706 -0.568066 0
M  V30 2951 O 274.303 -1.32855 -1.42056 0
M  V30 2952 C 274.586 -3.27447 1.49835 0
M  V30 2953 C 274.439 -3.31512 3.04006 0
M  V30 2954 C 275.758 -4.24256 1.17025 0
M  V30 2955 H 272.877 -0.659029 0.329923 0
M  V30 2956 H 275.519 -1.27644 1.40737 0
M  V30 2957 H 273.669 -3.73462 1.07044 0
M  V30 2958 H 275.341 -2.93867 3.55584 0
M  V30 2959 H 273.584 -2.70963 3.38765 0
M  V30 2960 H 274.255 -4.34329 3.40679 0
M  V30 2961 H 276.731 -3.86549 1.54009 0
M  V30 2962 H 275.607 -5.24684 1.61237 0
M  V30 2963 H 275.868 -4.42019 0.0846274 0
M  V30 2964 N 274.927 -0.932562 -1.27047 0
M  V30 2965 C 275.875 -0.42603 -2.28665 0
M  V30 2966 C 276.869 0.49219 -1.62092 0
M  V30 2967 O 278.075 0.371355 -1.76128 0
M  V30 2968 H 274.45 -0.119213 -0.742491 0
M  V30 2969 H 276.421 -1.29579 -2.68797 0
M  V30 2970 C 275.17 0.301426 -3.46391 0
M  V30 2971 H 274.493 -0.39595 -3.97834 0
M  V30 2972 H 275.933 0.6202 -4.1944 0
M  V30 2973 C 274.392 1.51616 -3.00856 0
M  V30 2974 O 274.922 2.61476 -3.04948 0
M  V30 2975 N 273.128 1.36969 -2.56296 0
M  V30 2976 H 272.675 0.475873 -2.53166 0
M  V30 2977 H 272.633 2.18368 -2.26192 0
M  V30 2978 N 276.405 1.4127 -0.698611 0
M  V30 2979 C 277.633 2.05503 -0.239992 0
M  V30 2980 C 278.048 1.52584 1.11191 0
M  V30 2981 O 277.405 0.675323 1.69545 0
M  V30 2982 C 277.456 3.60987 -0.192429 0
M  V30 2983 O 277.177 4.1195 -1.49094 0
M  V30 2984 C 278.678 4.42371 0.28681 0
M  V30 2985 H 275.898 0.661748 -0.111045 0
M  V30 2986 H 278.442 1.80987 -0.95205 0
M  V30 2987 H 276.597 3.84533 0.470472 0
M  V30 2988 H 277.011 5.06018 -1.38007 0
M  V30 2989 H 278.485 5.51344 0.26896 0
M  V30 2990 H 278.962 4.18699 1.32619 0
M  V30 2991 H 279.568 4.23897 -0.345201 0
M  V30 2992 N 277.883 0.443576 1.51229 0
M  V30 2993 C 278.83 -0.364716 2.279 0
M  V30 2994 C 279.8 -1.0114 1.31757 0
M  V30 2995 O 280.985 -1.02912 1.60667 0
M  V30 2996 C 278.125 -1.45644 3.12861 0
M  V30 2997 C 277.238 -0.827269 4.24005 0
M  V30 2998 C 276.373 -1.89456 4.96266 0
M  V30 2999 C 275.412 -1.24416 5.99322 0
M  V30 3000 N 274.549 -2.25309 6.64966 0
M  V30 3001 H 279.389 0.295464 2.96532 0
M  V30 3002 H 276.926 0.157554 1.46254 0
M  V30 3003 H 278.884 -2.10076 3.6045 0
M  V30 3004 H 277.514 -2.08616 2.46331 0
M  V30 3005 H 276.566 -0.0710839 3.80334 0
M  V30 3006 H 277.878 -0.312481 4.9782 0
M  V30 3007 H 277.032 -2.61535 5.47434 0
M  V30 3008 H 275.771 -2.4431 4.22095 0
M  V30 3009 H 274.776 -0.508868 5.4744 0
M  V30 3010 H 276.001 -0.702882 6.75453 0
M  V30 3011 H 273.947 -2.79231 5.93604 0
M  V30 3012 H 273.864 -1.78739 7.34567 0
M  V30 3013 H 275.132 -2.96853 7.20763 0
M  V30 3014 N 279.361 -1.56624 0.175154 0
M  V30 3015 C 280.777 -1.58571 -0.180966 0
M  V30 3016 C 280.977 -1.19065 -1.6256 0
M  V30 3017 O 280.033 -0.904044 -2.35761 0
M  V30 3018 C 281.346 -3.00522 0.103326 0
M  V30 3019 C 282.894 -3.12972 0.0418426 0
M  V30 3020 C 283.369 -4.57022 0.299175 0
M  V30 3021 N 284.86 -4.62541 0.247086 0
M  V30 3022 C 285.595 -5.71857 0.420318 0
M  V30 3023 N 285.091 -6.89717 0.652816 0
M  V30 3024 N 286.884 -5.60972 0.355957 0
M  V30 3025 H 279.035 -1.80589 1.11809 0
M  V30 3026 H 281.298 -0.837178 0.444788 0
M  V30 3027 H 281.004 -3.33916 1.10422 0
M  V30 3028 H 280.878 -3.72344 -0.603299 0
M  V30 3029 H 283.265 -2.79403 -0.949636 0
M  V30 3030 H 283.346 -2.43578 0.781238 0
M  V30 3031 H 282.99 -4.913 1.28788 0
M  V30 3032 H 282.92 -5.24579 -0.460876 0
M  V30 3033 H 285.411 -3.77829 0.0731895 0
M  V30 3034 H 285.724 -7.68911 0.774347 0
M  V30 3035 H 284.069 -6.91572 0.689476 0
M  V30 3036 H 287.26 -4.67773 0.174882 0
M  V30 3037 H 287.433 -6.46111 0.494388 0
M  V30 3038 N 280.839 0.0985539 -1.57292 0
M  V30 3039 C 282.085 0.803867 -1.86188 0
M  V30 3040 C 282.418 1.78549 -0.763794 0
M  V30 3041 O 281.693 1.93153 0.22855 0
M  V30 3042 C 281.976 1.53568 -3.25713 0
M  V30 3043 C 281.829 0.572277 -4.46145 0
M  V30 3044 C 283.148 2.48708 -3.63087 0
M  V30 3045 H 280.267 0.290781 -0.677211 0
M  V30 3046 H 282.909 0.0675783 -1.8988 0
M  V30 3047 H 281.059 2.16332 -3.22696 0
M  V30 3048 H 282.731 -0.0480894 -4.61275 0
M  V30 3049 H 280.974 -0.114618 -4.33649 0
M  V30 3050 H 281.645 1.12139 -5.40489 0
M  V30 3051 H 284.121 1.96039 -3.67026 0
M  V30 3052 H 282.997 2.96932 -4.61652 0
M  V30 3053 H 283.258 3.32309 -2.91588 0
M  V30 3054 N 282.317 1.53212 0.369288 0
M  V30 3055 C 283.566 1.68436 1.10961 0
M  V30 3056 C 283.879 0.440738 1.9057 0
M  V30 3057 O 285.085 0.473446 2.6734 0
M  V30 3058 C 283.541 2.97744 2.0218 0
M  V30 3059 C 283.149 4.29355 1.279 0
M  V30 3060 C 284.893 3.22334 2.76226 0
M  V30 3061 C 282.8 5.49755 2.17999 0
M  V30 3062 H 281.73 0.627568 0.41794 0
M  V30 3063 H 284.381 1.79713 0.370884 0
M  V30 3064 H 282.763 2.8026 2.79768 0
M  V30 3065 H 283.937 4.57458 0.554007 0
M  V30 3066 H 282.252 4.11179 0.657311 0
M  V30 3067 H 284.849 4.09471 3.43857 0
M  V30 3068 H 285.192 2.38238 3.41392 0
M  V30 3069 H 285.725 3.40475 2.05723 0
M  V30 3070 H 282.464 6.36318 1.57417 0
M  V30 3071 H 281.984 5.25937 2.88359 0
M  V30 3072 H 283.663 5.84401 2.77641 0
M  V30 3073 N 283.795 -0.628877 1.44509 0
M  V30 3074 C 284.727 -1.754 1.47538 0
M  V30 3075 C 285.74 -1.58575 0.368506 0
M  V30 3076 O 286.929 -1.66847 0.634376 0
M  V30 3077 C 284.029 -3.1315 1.29577 0
M  V30 3078 C 283.202 -3.56413 2.53551 0
M  V30 3079 C 282.261 -4.7305 2.30457 0
M  V30 3080 O 281.287 -4.81247 3.03957 0
M  V30 3081 N 282.489 -5.64903 1.3366 0
M  V30 3082 H 285.254 -1.73272 2.44534 0
M  V30 3083 H 282.815 -0.813512 1.39977 0
M  V30 3084 H 284.807 -3.88902 1.11971 0
M  V30 3085 H 283.377 -3.09908 0.409371 0
M  V30 3086 H 282.597 -2.70847 2.86419 0
M  V30 3087 H 283.885 -3.82071 3.36005 0
M  V30 3088 H 283.283 -5.60975 0.729604 0
M  V30 3089 H 281.84 -6.40275 1.22032 0
M  V30 3090 N 285.273 -1.31445 -0.869486 0
M  V30 3091 C 286.503 -1.23942 -1.65294 0
M  V30 3092 C 286.911 0.197561 -1.88166 0
M  V30 3093 O 286.254 1.14019 -1.44033 0
M  V30 3094 C 286.316 -1.91385 -3.04322 0
M  V30 3095 C 285.98 -3.40726 -3.04557 0
M  V30 3096 C 286.977 -4.36464 -2.82481 0
M  V30 3097 C 284.662 -3.82425 -3.25663 0
M  V30 3098 C 286.656 -5.71876 -2.8149 0
M  V30 3099 C 284.343 -5.1795 -3.243 0
M  V30 3100 C 285.341 -6.12486 -3.02241 0
M  V30 3101 O 285.029 -7.45534 -3.00724 0
M  V30 3102 H 284.761 -0.429459 -0.522054 0
M  V30 3103 H 287.315 -1.73873 -1.0935 0
M  V30 3104 H 285.545 -1.36004 -3.61994 0
M  V30 3105 H 287.234 -1.77791 -3.64891 0
M  V30 3106 H 288 -4.05576 -2.65956 0
M  V30 3107 H 283.879 -3.09274 -3.41863 0
M  V30 3108 H 287.423 -6.45638 -2.64191 0
M  V30 3109 H 283.32 -5.48473 -3.40365 0
M  V30 3110 H 284.088 -7.54713 -3.16782 0
M  V30 3111 N 286.751 1.08385 -1.14413 0
M  V30 3112 C 287.998 1.80776 -0.912482 0
M  V30 3113 C 288.326 1.86236 0.560934 0
M  V30 3114 O 287.581 1.33431 1.43159 0
M  V30 3115 C 287.88 3.26273 -1.45879 0
M  V30 3116 C 287.546 3.4093 -2.95089 0
M  V30 3117 C 286.208 3.44638 -3.35824 0
M  V30 3118 C 288.56 3.44591 -3.91033 0
M  V30 3119 C 285.888 3.49597 -4.71167 0
M  V30 3120 C 288.24 3.51086 -5.26233 0
M  V30 3121 C 286.904 3.53067 -5.6648 0
M  V30 3122 H 286.174 0.661507 -0.333901 0
M  V30 3123 H 288.821 1.27613 -1.42784 0
M  V30 3124 H 287.126 3.82146 -0.864376 0
M  V30 3125 H 288.823 3.80839 -1.2555 0
M  V30 3126 H 285.413 3.38736 -2.62594 0
M  V30 3127 H 289.597 3.40957 -3.60641 0
M  V30 3128 H 284.853 3.49424 -5.0171 0
M  V30 3129 H 289.027 3.52864 -6.00383 0
M  V30 3130 H 286.654 3.56662 -6.71339 0
M  V30 3131 N 288.23 0.939286 1.26551 0
M  V30 3132 C 289.193 0.451987 2.24699 0
M  V30 3133 C 290.193 -0.435869 1.5478 0
M  V30 3134 O 291.383 -0.235314 1.72603 0
M  V30 3135 C 288.515 -0.348801 3.39111 0
M  V30 3136 H 289.708 1.3193 2.69322 0
M  V30 3137 H 287.261 0.721072 1.38673 0
M  V30 3138 H 287.996 -1.23444 2.99887 0
M  V30 3139 H 287.781 0.287945 3.91041 0
M  V30 3140 H 289.271 -0.679726 4.12031 0
M  V30 3141 N 289.708 -1.40897 0.706093 0
M  V30 3142 C 290.954 -2.01352 0.241889 0
M  V30 3143 C 291.287 -1.55832 -1.15888 0
M  V30 3144 O 290.562 -0.774145 -1.7843 0
M  V30 3145 C 290.845 -3.58752 0.311311 0
M  V30 3146 C 290.698 -4.1437 1.74978 0
M  V30 3147 C 292.017 -4.38914 -0.322922 0
M  V30 3148 H 289.136 -0.731562 0.0893687 0
M  V30 3149 H 291.778 -1.67504 0.896802 0
M  V30 3150 H 289.928 -3.87718 -0.246302 0
M  V30 3151 H 291.6 -3.96239 2.36205 0
M  V30 3152 H 289.843 -3.69016 2.28057 0
M  V30 3153 H 290.514 -5.23532 1.74981 0
M  V30 3154 H 292.99 -4.15822 0.152089 0
M  V30 3155 H 291.866 -5.48358 -0.243855 0
M  V30 3156 H 292.127 -4.19176 -1.40513 0
M  V30 3157 N 291.186 -0.45159 -1.50991 0
M  V30 3158 C 292.435 0.111653 -2.01391 0
M  V30 3159 C 292.748 1.42529 -1.33959 0
M  V30 3160 O 293.954 2.07232 -1.75405 0
M  V30 3161 C 292.41 0.249514 -3.59034 0
M  V30 3162 C 292.018 -1.05453 -4.35412 0
M  V30 3163 C 293.762 0.765762 -4.17536 0
M  V30 3164 C 291.669 -0.881529 -5.84793 0
M  V30 3165 H 290.599 0.0455022 -0.752626 0
M  V30 3166 H 293.25 -0.583524 -1.73975 0
M  V30 3167 H 291.632 1.00803 -3.82955 0
M  V30 3168 H 292.806 -1.82248 -4.23229 0
M  V30 3169 H 291.121 -1.50039 -3.88429 0
M  V30 3170 H 293.718 0.911913 -5.26866 0
M  V30 3171 H 294.061 1.75201 -3.77638 0
M  V30 3172 H 294.594 0.0651744 -3.97747 0
M  V30 3173 H 291.333 -1.84057 -6.29129 0
M  V30 3174 H 290.853 -0.153625 -5.99603 0
M  V30 3175 H 292.532 -0.540363 -6.4474 0
M  V30 3176 N 292.664 1.56529 -0.183458 0
M  V30 3177 C 293.627 2.17324 0.728223 0
M  V30 3178 C 294.627 1.12453 1.14939 0
M  V30 3179 O 295.817 1.37902 1.06437 0
M  V30 3180 C 292.949 2.76591 1.99274 0
M  V30 3181 H 294.142 2.99241 0.198772 0
M  V30 3182 H 291.695 1.5616 0.0661391 0
M  V30 3183 H 292.43 1.98441 2.56499 0
M  V30 3184 H 292.215 3.5335 1.69959 0
M  V30 3185 H 293.705 3.23311 2.6431 0
M  V30 3186 N 294.142 -0.090211 1.57342 0
M  V30 3187 C 295.105 -1.09335 2.01441 0
M  V30 3188 C 296.105 -1.32666 0.908641 0
M  V30 3189 O 297.295 -1.28697 1.174 0
M  V30 3190 C 294.427 -2.44136 2.3793 0
M  V30 3191 H 295.62 -0.713662 2.91285 0
M  V30 3192 H 293.173 -0.335404 1.52659 0
M  V30 3193 H 293.908 -2.86972 1.51055 0
M  V30 3194 H 293.693 -2.28548 3.18603 0
M  V30 3195 H 295.183 -3.16277 2.72688 0
M  V30 3196 N 295.62 -1.53406 -0.361157 0
M  V30 3197 C 296.869 -1.69022 -1.10066 0
M  V30 3198 C 297.182 -0.450838 -1.90333 0
M  V30 3199 O 298.388 -0.487617 -2.67085 0
M  V30 3200 C 296.844 -2.98812 -2.00598 0
M  V30 3201 C 296.452 -4.30027 -1.25621 0
M  V30 3202 C 298.196 -3.23795 -2.74513 0
M  V30 3203 C 296.103 -5.50903 -2.1508 0
M  V30 3204 H 295.033 -0.629776 -0.414606 0
M  V30 3205 H 297.684 -1.79907 -0.361348 0
M  V30 3206 H 296.066 -2.8174 -2.78278 0
M  V30 3207 H 297.24 -4.57745 -0.529739 0
M  V30 3208 H 295.555 -4.11522 -0.635496 0
M  V30 3209 H 298.152 -4.11289 -3.41681 0
M  V30 3210 H 298.495 -2.40045 -3.40123 0
M  V30 3211 H 299.028 -3.41561 -2.03914 0
M  V30 3212 H 295.767 -6.37143 -1.54041 0
M  V30 3213 H 295.287 -5.27459 -2.85565 0
M  V30 3214 H 296.966 -5.85865 -2.74538 0
M  V30 3215 N 297.098 0.621204 -1.44841 0
M  V30 3216 C 298.346 1.37783 -1.47852 0
M  V30 3217 C 298.667 1.94653 -0.116224 0
M  V30 3218 O 297.937 1.76367 0.852737 0
M  V30 3219 H 296.517 0.511453 -0.544449 0
M  V30 3220 H 299.179 0.730446 -1.80694 0
M  V30 3221 H 298.275 2.20414 -2.20961 0
M  V30 3222 N 298.576 1.31904 0.862503 0
M  V30 3223 C 299.853 1.12644 1.59908 0
M  V30 3224 C 300.233 -0.316104 2.0872 0
M  V30 3225 O 299.581 -1.31145 1.87118 0
M  V30 3226 C 299.791 2.1472 2.7513 0
M  V30 3227 C 301.139 2.47637 3.44907 0
M  V30 3228 O 302.163 2.13205 2.85346 0
M  V30 3229 O 301.022 3.06632 4.52371 0
M  V30 3230 H 298.116 0.43416 0.703871 0
M  V30 3231 H 300.662 1.43408 0.907314 0
M  V30 3232 H 299.434 3.1172 2.3653 0
M  V30 3233 H 299.057 1.84905 3.51989 0
M  V30 3234 N 300.054 -1.07777 1.14986 0
M  V30 3235 C 301.47 -1.32373 0.891596 0
M  V30 3236 C 301.67 -1.9609 -0.463788 0
M  V30 3237 O 300.726 -2.21801 -1.20667 0
M  V30 3238 C 302.039 -2.21905 2.02925 0
M  V30 3239 C 303.587 -2.35367 2.06329 0
M  V30 3240 C 304.062 -3.28245 3.19405 0
M  V30 3241 N 305.553 -3.35824 3.19024 0
M  V30 3242 C 306.288 -4.07739 4.03158 0
M  V30 3243 N 305.784 -4.82306 4.97346 0
M  V30 3244 N 307.577 -4.03635 3.91197 0
M  V30 3245 H 299.728 -0.648039 2.02273 0
M  V30 3246 H 301.991 -0.348149 0.881757 0
M  V30 3247 H 301.697 -1.82342 3.0074 0
M  V30 3248 H 301.571 -3.22407 1.95789 0
M  V30 3249 H 303.958 -2.74186 1.09116 0
M  V30 3250 H 304.039 -1.34585 2.17533 0
M  V30 3251 H 303.683 -2.90146 4.16867 0
M  V30 3252 H 303.613 -4.28971 3.05437 0
M  V30 3253 H 306.104 -2.8267 2.50811 0
M  V30 3254 H 306.417 -5.34661 5.57994 0
M  V30 3255 H 304.762 -4.81337 5.01338 0
M  V30 3256 H 307.953 -3.44491 3.16928 0
M  V30 3257 H 308.126 -4.59417 4.5699 0
M  V30 3258 N 301.532 -0.945985 -1.26051 0
M  V30 3259 C 302.757 -0.612525 -1.98149 0
M  V30 3260 C 303.182 0.806623 -1.69927 0
M  V30 3261 O 302.54 1.54411 -0.950108 0
M  V30 3262 C 302.588 -0.866981 -3.50023 0
M  V30 3263 O 301.692 0.0585333 -4.12358 0
M  V30 3264 H 301.033 -0.23379 -0.621481 0
M  V30 3265 H 303.563 -1.27023 -1.60395 0
M  V30 3266 H 303.573 -0.789792 -4.00283 0
M  V30 3267 H 302.248 -1.90135 -3.69894 0
M  V30 3268 H 300.825 -0.0701241 -3.72834 0
M  V30 3269 N 303.011 1.40521 -0.713556 0
M  V30 3270 C 303.958 2.30723 -0.059684 0
M  V30 3271 C 304.928 1.48079 0.752448 0
M  V30 3272 O 306.113 1.76823 0.71681 0
M  V30 3273 C 303.253 3.34274 0.857594 0
M  V30 3274 C 302.366 4.31986 0.0351536 0
M  V30 3275 C 301.501 5.22605 0.951724 0
M  V30 3276 C 300.54 6.11976 0.123253 0
M  V30 3277 N 299.677 6.9502 0.99459 0
M  V30 3278 H 304.517 2.86074 -0.834596 0
M  V30 3279 H 302.054 1.40879 -0.42326 0
M  V30 3280 H 304.012 3.92879 1.40364 0
M  V30 3281 H 302.642 2.8043 1.59871 0
M  V30 3282 H 301.694 3.7518 -0.628052 0
M  V30 3283 H 303.006 4.95101 -0.606347 0
M  V30 3284 H 302.16 5.86131 1.56638 0
M  V30 3285 H 300.899 4.59759 1.62705 0
M  V30 3286 H 299.904 5.47482 -0.50435 0
M  V30 3287 H 301.129 6.76881 -0.548539 0
M  V30 3288 H 299.075 6.34764 1.6556 0
M  V30 3289 H 298.992 7.54892 0.40908 0
M  V30 3290 H 300.26 7.62997 1.59549 0
M  V30 3291 N 304.489 0.459591 1.5075 0
M  V30 3292 C 305.436 -0.340524 2.28274 0
M  V30 3293 C 306.406 -0.997371 1.32822 0
M  V30 3294 O 307.591 -1.01202 1.61749 0
M  V30 3295 C 304.731 -1.42317 3.14388 0
M  V30 3296 C 303.844 -0.782251 4.24859 0
M  V30 3297 C 302.979 -1.84182 4.98247 0
M  V30 3298 C 302.018 -1.18053 6.00608 0
M  V30 3299 N 301.155 -2.18244 6.67319 0
M  V30 3300 H 305.995 0.326899 2.96202 0
M  V30 3301 H 303.532 0.173057 1.46078 0
M  V30 3302 H 305.49 -2.06241 3.62658 0
M  V30 3303 H 304.12 -2.05992 2.4853 0
M  V30 3304 H 303.172 -0.0307404 3.80388 0
M  V30 3305 H 304.484 -0.259663 4.98124 0
M  V30 3306 H 303.638 -2.55714 5.50177 0
M  V30 3307 H 302.377 -2.39819 4.24662 0
M  V30 3308 H 301.382 -0.450776 5.47949 0
M  V30 3309 H 302.607 -0.631202 6.7616 0
M  V30 3310 H 300.553 -2.72919 5.96533 0
M  V30 3311 H 300.47 -1.70938 7.36421 0
M  V30 3312 H 301.738 -2.89191 7.23871 0
M  V30 3313 N 305.967 -1.56429 0.191757 0
M  V30 3314 C 307.244 -1.89224 -0.495332 0
M  V30 3315 C 307.624 -1.10478 -1.79883 0
M  V30 3316 O 306.972 -0.204852 -2.2758 0
M  V30 3317 C 307.182 -3.41548 -0.717367 0
M  V30 3318 C 308.53 -4.11711 -1.03823 0
M  V30 3319 O 309.554 -3.4698 -0.805204 0
M  V30 3320 O 308.413 -5.2611 -1.47887 0
M  V30 3321 H 305.507 -0.785788 -0.25781 0
M  V30 3322 H 308.053 -1.68111 0.231721 0
M  V30 3323 H 306.825 -3.90772 0.203287 0
M  V30 3324 H 306.448 -3.68342 -1.497 0
M  V30 3325 N 307.445 0.0818655 -1.57387 0
M  V30 3326 C 308.377 1.12484 -1.997 0
M  V30 3327 C 309.39 1.35564 -0.90146 0
M  V30 3328 O 310.579 1.33982 -1.17945 0
M  V30 3329 C 307.679 2.47778 -2.31213 0
M  V30 3330 C 306.852 2.44793 -3.62485 0
M  V30 3331 C 305.911 3.62117 -3.81782 0
M  V30 3332 O 304.937 3.44005 -4.53486 0
M  V30 3333 N 306.139 4.82094 -3.23367 0
M  V30 3334 H 308.904 0.764585 -2.89783 0
M  V30 3335 H 306.465 0.270664 -1.59621 0
M  V30 3336 H 308.457 3.24891 -2.41304 0
M  V30 3337 H 307.027 2.75843 -1.4707 0
M  V30 3338 H 306.247 1.53134 -3.6324 0
M  V30 3339 H 307.535 2.39889 -4.48699 0
M  V30 3340 H 306.933 4.99713 -2.65148 0
M  V30 3341 H 305.49 5.56753 -3.38923 0
M  V30 3342 N 308.923 1.53595 0.353017 0
M  V30 3343 C 310.148 1.7462 1.11904 0
M  V30 3344 C 310.573 0.479721 1.8188 0
M  V30 3345 O 309.931 -0.567066 1.72204 0
M  V30 3346 C 309.979 2.92029 2.11545 0
M  V30 3347 O 309.083 2.61516 3.18878 0
M  V30 3348 H 308.424 0.579531 0.324099 0
M  V30 3349 H 310.954 2.00525 0.406301 0
M  V30 3350 H 310.964 3.18551 2.5493 0
M  V30 3351 H 309.639 3.83888 1.60008 0
M  V30 3352 H 308.216 2.45852 2.80377 0
M  V30 3353 N 310.401 -0.613514 1.45168 0
M  V30 3354 C 311.812 -1.19539 1.43413 0
M  V30 3355 C 312.163 -1.95558 0.158632 0
M  V30 3356 O 311.288 -2.0335 -0.740119 0
M  V30 3357 C 311.883 -2.17445 2.59813 0
M  V30 3358 C 310.442 -2.71022 2.61197 0
M  V30 3359 C 309.589 -1.46323 2.35552 0
M  V30 3360 H 312.54 -0.403163 1.53494 0
M  V30 3361 H 312.561 -3.00373 2.33574 0
M  V30 3362 H 312.073 -1.62089 3.52631 0
M  V30 3363 H 310.174 -3.30332 1.7237 0
M  V30 3364 H 310.287 -3.15859 3.60236 0
M  V30 3365 H 308.651 -1.75072 1.84992 0
M  V30 3366 H 309.434 -0.92844 3.30507 0
M  V30 3367 N 311.879 -1.3236 -0.855495 0
M  V30 3368 C 313.127 -1.22629 -1.60644 0
M  V30 3369 C 313.448 0.212136 -1.93843 0
M  V30 3370 O 312.718 1.13666 -1.59552 0
M  V30 3371 H 311.298 -0.450882 -0.595579 0
M  V30 3372 H 313.96 -1.65871 -1.02337 0
M  V30 3373 H 313.056 -1.80832 -2.54374 0
M  V30 3374 N 313.357 1.07166 -1.15556 0
M  V30 3375 C 314.304 2.14417 -0.854055 0
M  V30 3376 C 315.274 1.64965 0.193806 0
M  V30 3377 O 316.459 1.90703 0.0609443 0
M  V30 3378 C 313.599 3.43304 -0.351574 0
M  V30 3379 C 312.712 4.06537 -1.46123 0
M  V30 3380 C 311.847 5.23266 -0.914677 0
M  V30 3381 C 310.886 5.78464 -2.00114 0
M  V30 3382 N 310.023 6.86521 -1.47083 0
M  V30 3383 H 314.863 2.39548 -1.77259 0
M  V30 3384 H 312.4 1.17543 -0.884425 0
M  V30 3385 H 314.358 4.17179 -0.0419409 0
M  V30 3386 H 312.988 3.18419 0.530037 0
M  V30 3387 H 312.04 3.30297 -1.88701 0
M  V30 3388 H 313.352 4.43567 -2.28144 0
M  V30 3389 H 312.506 6.04131 -0.557698 0
M  V30 3390 H 311.245 4.87658 -0.0636583 0
M  V30 3391 H 310.25 4.96243 -2.36692 0
M  V30 3392 H 311.475 6.16126 -2.85597 0
M  V30 3393 H 309.421 6.52849 -0.642198 0
M  V30 3394 H 309.338 7.22446 -2.22729 0
M  V30 3395 H 310.606 7.71087 -1.14215 0
M  V30 3396 N 314.835 0.952656 1.25548 0
M  V30 3397 C 316.083 0.605176 1.92826 0
M  V30 3398 C 316.404 -0.860261 1.74999 0
M  V30 3399 O 315.674 -1.6125 1.11244 0
M  V30 3400 H 314.254 0.220832 0.713612 0
M  V30 3401 H 316.916 1.21047 1.52754 0
M  V30 3402 H 316.012 0.832798 3.00784 0
M  V30 3403 N 316.313 -1.40141 0.720998 0
M  V30 3404 C 317.541 -2.05096 0.272656 0
M  V30 3405 C 317.956 -1.54334 -1.0875 0
M  V30 3406 O 317.313 -0.702211 -1.6845 0
M  V30 3407 C 317.364 -3.60636 0.249835 0
M  V30 3408 O 317.085 -4.09526 1.55629 0
M  V30 3409 C 318.586 -4.42772 -0.216396 0
M  V30 3410 H 315.806 -0.659897 0.121558 0
M  V30 3411 H 318.35 -1.79449 0.980723 0
M  V30 3412 H 316.505 -3.85232 -0.409237 0
M  V30 3413 H 316.919 -5.03758 1.4604 0
M  V30 3414 H 318.393 -5.51702 -0.181212 0
M  V30 3415 H 318.87 -4.20756 -1.25941 0
M  V30 3416 H 319.476 -4.23294 0.412596 0
M  V30 3417 N 317.792 -0.46758 -1.50504 0
M  V30 3418 C 318.722 0.318381 -2.31319 0
M  V30 3419 C 319.703 0.993564 -1.38066 0
M  V30 3420 O 320.888 0.991411 -1.66987 0
M  V30 3421 C 318.018 1.40275 -3.17711 0
M  V30 3422 C 316.972 0.849373 -4.19487 0
M  V30 3423 C 316.298 2.03177 -4.94594 0
M  V30 3424 C 317.598 -0.136942 -5.2212 0
M  V30 3425 H 319.292 -0.356106 -2.97275 0
M  V30 3426 H 316.838 -0.172703 -1.42961 0
M  V30 3427 H 318.791 1.96004 -3.73042 0
M  V30 3428 H 317.515 2.10596 -2.49634 0
M  V30 3429 H 316.174 0.314076 -3.65252 0
M  V30 3430 H 315.822 2.72187 -4.22993 0
M  V30 3431 H 315.522 1.66774 -5.63436 0
M  V30 3432 H 317.046 2.59403 -5.52759 0
M  V30 3433 H 318.46 0.331056 -5.72343 0
M  V30 3434 H 316.857 -0.41507 -5.98663 0
M  V30 3435 H 317.927 -1.06398 -4.73083 0
M  V30 3436 N 319.27 1.56325 -0.20005 0
M  V30 3437 C 320.18 2.22931 0.730668 0
M  V30 3438 C 321.196 1.22997 1.23076 0
M  V30 3439 O 322.372 1.55748 1.27689 0
M  V30 3440 C 319.437 2.87948 1.93098 0
M  V30 3441 C 318.498 4.03166 1.47497 0
M  V30 3442 C 317.731 4.65073 2.61807 0
M  V30 3443 O 317.954 4.25913 3.79413 0
M  V30 3444 O 316.888 5.54452 2.34237 0
M  V30 3445 H 320.714 3.03084 0.193391 0
M  V30 3446 H 318.299 1.49371 0.0294621 0
M  V30 3447 H 320.181 3.29063 2.6324 0
M  V30 3448 H 318.856 2.10771 2.45677 0
M  V30 3449 H 317.763 3.66664 0.742201 0
M  V30 3450 H 319.096 4.82022 0.995796 0
M  V30 3451 N 320.748 -0.0735177 1.57428 0
M  V30 3452 C 322.025 -0.805903 1.78226 0
M  V30 3453 C 322.405 -1.95874 0.787189 0
M  V30 3454 O 321.753 -2.2779 -0.180029 0
M  V30 3455 C 321.963 -1.28045 3.24662 0
M  V30 3456 C 323.311 -1.71453 3.88444 0
M  V30 3457 O 324.335 -1.37616 3.28543 0
M  V30 3458 O 323.194 -2.34093 4.93825 0
M  V30 3459 H 320.288 -0.386041 0.73137 0
M  V30 3460 H 322.834 -0.0537269 1.69615 0
M  V30 3461 H 321.606 -0.455476 3.8864 0
M  V30 3462 H 321.229 -2.094 3.37991 0
M  V30 3463 N 322.226 -1.5378 -0.344866 0
M  V30 3464 C 323.158 -1.77988 -1.44406 0
M  V30 3465 C 324.171 -0.661138 -1.48771 0
M  V30 3466 O 325.36 -0.937842 -1.51877 0
M  V30 3467 C 322.46 -1.86345 -2.8307 0
M  V30 3468 C 321.633 -3.16256 -3.0216 0
M  V30 3469 C 320.692 -3.15588 -4.21059 0
M  V30 3470 O 319.718 -3.89314 -4.15239 0
M  V30 3471 N 320.92 -2.37864 -5.29529 0
M  V30 3472 H 323.685 -2.72839 -1.24012 0
M  V30 3473 H 321.246 -1.52814 -0.534737 0
M  V30 3474 H 323.238 -1.83351 -3.60783 0
M  V30 3475 H 321.808 -0.986858 -2.96614 0
M  V30 3476 H 321.028 -3.32385 -2.11929 0
M  V30 3477 H 322.316 -4.0207 -3.11797 0
M  V30 3478 H 321.714 -1.77514 -5.37127 0
M  V30 3479 H 320.271 -2.40668 -6.05741 0
M  V30 3480 N 323.704 0.605807 -1.45491 0
M  V30 3481 C 324.953 1.36086 -1.48874 0
M  V30 3482 C 325.266 1.95131 -0.135333 0
M  V30 3483 O 326.472 2.7146 -0.0468144 0
M  V30 3484 C 324.928 2.46518 -2.62215 0
M  V30 3485 C 324.536 1.93877 -4.03876 0
M  V30 3486 C 326.28 3.23512 -2.74846 0
M  V30 3487 C 324.187 3.01801 -5.08596 0
M  V30 3488 H 323.117 0.511497 -0.553974 0
M  V30 3489 H 325.768 0.649089 -1.71636 0
M  V30 3490 H 324.15 3.20388 -2.32739 0
M  V30 3491 H 325.324 1.26704 -4.43038 0
M  V30 3492 H 323.639 1.29622 -3.95711 0
M  V30 3493 H 326.236 4.04013 -3.50253 0
M  V30 3494 H 326.579 3.74631 -1.81542 0
M  V30 3495 H 327.112 2.56742 -3.03856 0
M  V30 3496 H 323.851 2.55597 -6.03614 0
M  V30 3497 H 323.371 3.67535 -4.74002 0
M  V30 3498 H 325.05 3.66152 -5.33424 0
M  V30 3499 N 325.182 1.32811 0.848464 0
M  V30 3500 C 326.431 1.23075 1.59798 0
M  V30 3501 C 326.744 -0.204419 1.94529 0
M  V30 3502 O 327.95 -0.423701 2.68173 0
M  V30 3503 C 326.406 2.15594 2.88179 0
M  V30 3504 C 326.014 3.64228 2.60849 0
M  V30 3505 C 327.758 2.14709 3.66197 0
M  V30 3506 C 325.665 4.48689 3.85269 0
M  V30 3507 H 324.595 0.457091 0.599653 0
M  V30 3508 H 327.246 1.57813 0.936342 0
M  V30 3509 H 325.628 1.73778 3.55833 0
M  V30 3510 H 326.802 4.14424 2.01467 0
M  V30 3511 H 325.117 3.67306 1.96151 0
M  V30 3512 H 327.714 2.75046 4.58534 0
M  V30 3513 H 328.057 1.13966 4.00397 0
M  V30 3514 H 328.59 2.54837 3.05455 0
M  V30 3515 H 325.329 5.5027 3.56207 0
M  V30 3516 H 324.849 4.03241 4.44024 0
M  V30 3517 H 326.528 4.62006 4.52946 0
M  V30 3518 N 326.66 -1.06551 1.16123 0
M  V30 3519 C 327.592 -2.13908 0.823171 0
M  V30 3520 C 328.605 -1.61926 -0.16843 0
M  V30 3521 O 329.794 -1.78412 0.055962 0
M  V30 3522 C 326.894 -3.38283 0.204424 0
M  V30 3523 C 326.067 -4.19589 1.23548 0
M  V30 3524 C 325.126 -5.2233 0.637011 0
M  V30 3525 O 324.152 -5.54034 1.30516 0
M  V30 3526 N 325.354 -5.77621 -0.577474 0
M  V30 3527 H 328.119 -2.43508 1.74711 0
M  V30 3528 H 325.68 -1.2253 1.05821 0
M  V30 3529 H 327.672 -4.0416 -0.208909 0
M  V30 3530 H 326.242 -3.06329 -0.623012 0
M  V30 3531 H 325.462 -3.49406 1.82507 0
M  V30 3532 H 326.75 -4.70718 1.93137 0
M  V30 3533 H 326.148 -5.54125 -1.13853 0
M  V30 3534 H 324.705 -6.45087 -0.933053 0
M  V30 3535 N 328.138 -0.959301 -1.25041 0
M  V30 3536 C 329.101 -0.487677 -2.23952 0
M  V30 3537 C 330.101 0.41119 -1.55454 0
M  V30 3538 O 331.291 0.207825 -1.72956 0
M  V30 3539 C 328.423 0.294807 -3.39623 0
M  V30 3540 H 329.616 -1.36198 -2.67189 0
M  V30 3541 H 327.169 -0.743042 -1.37508 0
M  V30 3542 H 327.904 1.18658 -3.01813 0
M  V30 3543 H 327.689 -0.35012 -3.90534 0
M  V30 3544 H 329.179 0.614089 -4.1306 0
M  V30 3545 N 329.616 1.39756 -0.72842 0
M  V30 3546 C 330.564 2.32485 -0.0731849 0
M  V30 3547 C 331.558 1.52717 0.733063 0
M  V30 3548 O 332.764 1.68428 0.634988 0
M  V30 3549 H 329.139 0.751984 -0.00486469 0
M  V30 3550 H 331.11 2.85382 -0.871761 0
M  V30 3551 C 329.859 3.37773 0.824908 0
M  V30 3552 H 329.182 3.99227 0.213915 0
M  V30 3553 H 330.622 4.05121 1.25111 0
M  V30 3554 C 329.081 2.74287 1.95622 0
M  V30 3555 O 329.611 2.61618 3.04826 0
M  V30 3556 N 327.817 2.32475 1.74367 0
M  V30 3557 H 327.364 2.4298 0.855494 0
M  V30 3558 H 327.322 1.90337 2.50238 0
M  V30 3559 N 331.094 0.475555 1.50254 0
M  V30 3560 C 332.505 0.0215174 1.86688 0
M  V30 3561 C 332.856 -1.38467 1.39001 0
M  V30 3562 O 331.981 -2.02732 0.756894 0
M  V30 3563 C 332.576 0.0322715 3.38785 0
M  V30 3564 C 331.135 -0.366314 3.74613 0
M  V30 3565 C 330.282 0.415832 2.74164 0
M  V30 3566 H 333.233 0.689612 1.42934 0
M  V30 3567 H 333.254 -0.76889 3.7265 0
M  V30 3568 H 332.766 1.05584 3.73462 0
M  V30 3569 H 330.867 -1.39406 3.45538 0
M  V30 3570 H 330.98 -0.064555 4.79057 0
M  V30 3571 H 329.344 -0.131048 2.54363 0
M  V30 3572 H 330.127 1.43899 3.11686 0
M  V30 3573 N 332.573 -1.56217 0.208337 0
M  V30 3574 C 333.536 -2.18455 -0.693557 0
M  V30 3575 C 334.536 -1.14268 -1.13135 0
M  V30 3576 O 335.726 -1.39577 -1.0423 0
M  V30 3577 C 332.858 -2.79727 -1.94848 0
M  V30 3578 H 334.051 -2.99519 -0.15114 0
M  V30 3579 H 331.604 -1.56245 -0.041287 0
M  V30 3580 H 332.339 -2.02497 -2.53309 0
M  V30 3581 H 332.124 -3.56009 -1.64316 0
M  V30 3582 H 333.614 -3.27475 -2.59133 0
M  V30 3583 N 334.051 0.0651679 -1.57465 0
M  V30 3584 C 334.981 1.07693 -2.07182 0
M  V30 3585 C 335.962 1.39962 -0.966673 0
M  V30 3586 O 337.147 1.49475 -1.2398 0
M  V30 3587 C 334.277 2.3885 -2.52127 0
M  V30 3588 C 333.231 2.20917 -3.66579 0
M  V30 3589 C 332.557 3.57515 -3.97601 0
M  V30 3590 C 333.857 1.62493 -4.9638 0
M  V30 3591 H 335.551 0.663199 -2.91962 0
M  V30 3592 H 333.097 0.317569 -1.40455 0
M  V30 3593 H 335.05 3.09928 -2.85522 0
M  V30 3594 H 333.774 2.82215 -1.64384 0
M  V30 3595 H 332.433 1.52279 -3.33477 0
M  V30 3596 H 332.081 3.98463 -3.06979 0
M  V30 3597 H 331.781 3.46353 -4.74672 0
M  V30 3598 H 333.305 4.30013 -4.33499 0
M  V30 3599 H 334.719 2.23445 -5.27963 0
M  V30 3600 H 333.116 1.62009 -5.77818 0
M  V30 3601 H 334.186 0.587041 -4.81333 0
M  V30 3602 N 335.529 1.53961 0.336706 0
M  V30 3603 C 336.439 1.85432 1.43708 0
M  V30 3604 C 337.455 0.745053 1.57242 0
M  V30 3605 O 338.631 1.03804 1.72588 0
M  V30 3606 C 335.696 2.06349 2.78605 0
M  V30 3607 C 334.757 3.30191 2.74358 0
M  V30 3608 C 333.99 3.50101 4.02822 0
M  V30 3609 O 334.213 2.7371 5.00439 0
M  V30 3610 O 333.147 4.43547 4.06878 0
M  V30 3611 H 336.973 2.78975 1.20028 0
M  V30 3612 H 334.558 1.39701 0.52952 0
M  V30 3613 H 336.44 2.21513 3.58483 0
M  V30 3614 H 335.115 1.15995 3.02203 0
M  V30 3615 H 334.022 3.20425 1.93078 0
M  V30 3616 H 335.355 4.2056 2.55715 0
M  V30 3617 N 337.007 -0.598083 1.45811 0
M  V30 3618 C 337.97 -1.69018 1.54808 0
M  V30 3619 C 338.97 -1.55037 0.426652 0
M  V30 3620 O 340.16 -1.59932 0.690456 0
M  V30 3621 C 337.292 -3.0835 1.45371 0
M  V30 3622 H 338.485 -1.62403 2.52121 0
M  V30 3623 H 336.038 -0.814626 1.33392 0
M  V30 3624 H 336.773 -3.20534 0.492793 0
M  V30 3625 H 336.558 -3.19907 2.26721 0
M  V30 3626 H 338.048 -3.8788 1.54721 0
M  V30 3627 N 338.485 -1.33259 -0.841409 0
M  V30 3628 C 339.732 -1.24572 -1.5965 0
M  V30 3629 C 340.06 0.189137 -1.93578 0
M  V30 3630 O 339.315 1.14566 -1.5866 0
M  V30 3631 C 339.614 -2.06381 -2.9179 0
M  V30 3632 C 339.28 -3.556 -2.77235 0
M  V30 3633 C 337.942 -3.96282 -2.72973 0
M  V30 3634 C 340.294 -4.50433 -2.62221 0
M  V30 3635 C 337.622 -5.30017 -2.51592 0
M  V30 3636 C 339.974 -5.84327 -2.42374 0
M  V30 3637 C 338.638 -6.24194 -2.36512 0
M  V30 3638 H 337.908 -0.455842 -0.5842 0
M  V30 3639 H 340.555 -1.6482 -0.975016 0
M  V30 3640 H 338.86 -1.58903 -3.5813 0
M  V30 3641 H 340.557 -1.97019 -3.49263 0
M  V30 3642 H 337.147 -3.23298 -2.81384 0
M  V30 3643 H 341.331 -4.19914 -2.64549 0
M  V30 3644 H 336.587 -5.59947 -2.45499 0
M  V30 3645 H 340.761 -6.57414 -2.29739 0
M  V30 3646 H 338.388 -7.27759 -2.19706 0
M  V30 3647 N 339.963 1.05934 -1.16686 0
M  V30 3648 C 341.211 1.78447 -0.948744 0
M  V30 3649 C 341.532 1.87813 0.524523 0
M  V30 3650 O 340.802 1.38945 1.38098 0
M  V30 3651 H 339.382 0.660971 -0.348033 0
M  V30 3652 H 342.044 1.27947 -1.47022 0
M  V30 3653 H 341.14 2.80394 -1.37061 0
M  V30 3654 N 341.441 0.965919 1.2453 0
M  V30 3655 C 342.389 0.486506 2.27455 0
M  V30 3656 C 343.383 -0.449041 1.6334 0
M  V30 3657 O 344.589 -0.324527 1.7705 0
M  V30 3658 H 340.964 0.138857 0.739069 0
M  V30 3659 H 342.935 1.3666 2.65267 0
M  V30 3660 C 341.684 -0.209481 3.47068 0
M  V30 3661 H 341.007 0.50129 3.96645 0
M  V30 3662 H 342.447 -0.508775 4.20936 0
M  V30 3663 C 340.906 -1.43586 3.0477 0
M  V30 3664 O 341.436 -2.53299 3.11773 0
M  V30 3665 N 339.642 -1.30126 2.59838 0
M  V30 3666 H 339.189 -0.408583 2.54339 0
M  V30 3667 H 339.147 -2.12294 2.31902 0
M  V30 3668 N 342.919 -1.39368 0.735821 0
M  V30 3669 C 343.882 -2.2896 0.104874 0
M  V30 3670 C 344.882 -1.46347 -0.666274 0
M  V30 3671 O 346.072 -1.67014 -0.49517 0
M  V30 3672 C 343.204 -3.29857 -0.860656 0
M  V30 3673 H 344.397 -2.86259 0.894205 0
M  V30 3674 H 341.95 -1.48029 0.501704 0
M  V30 3675 H 342.685 -2.77615 -1.67631 0
M  V30 3676 H 342.47 -3.9087 -0.310327 0
M  V30 3677 H 343.96 -3.96893 -1.29867 0
M  V30 3678 N 344.397 -0.483516 -1.5 0
M  V30 3679 C 345.344 0.304164 -2.28787 0
M  V30 3680 C 346.314 0.976114 -1.34392 0
M  V30 3681 O 347.499 0.986156 -1.63339 0
M  V30 3682 C 344.639 1.37298 -3.16612 0
M  V30 3683 C 343.752 0.714561 -4.26049 0
M  V30 3684 C 342.887 1.76232 -5.01114 0
M  V30 3685 C 341.926 1.08483 -6.0241 0
M  V30 3686 N 341.063 2.076 -6.70706 0
M  V30 3687 H 345.903 -0.373981 -2.95644 0
M  V30 3688 H 343.44 -0.196275 -1.45785 0
M  V30 3689 H 345.398 2.00445 -3.65893 0
M  V30 3690 H 344.028 2.02012 -2.51776 0
M  V30 3691 H 343.08 -0.0297798 -3.80388 0
M  V30 3692 H 344.392 0.180383 -4.98474 0
M  V30 3693 H 343.546 2.46929 -5.54176 0
M  V30 3694 H 342.285 2.33033 -4.28424 0
M  V30 3695 H 341.29 0.363545 -5.48597 0
M  V30 3696 H 342.515 0.523551 -6.77079 0
M  V30 3697 H 340.461 2.63394 -6.00799 0
M  V30 3698 H 340.378 1.59201 -7.39047 0
M  V30 3699 H 341.646 2.77639 -7.2838 0
M  V30 3700 N 345.875 1.56104 -0.216619 0
M  V30 3701 C 347.103 2.02563 0.421413 0
M  V30 3702 C 347.518 1.0965 1.53695 0
M  V30 3703 O 346.875 0.10521 1.82196 0
M  V30 3704 C 346.926 3.48584 0.957665 0
M  V30 3705 O 346.647 4.37953 -0.113389 0
M  V30 3706 C 348.148 4.10664 1.66943 0
M  V30 3707 H 345.368 0.662944 0.103665 0
M  V30 3708 H 347.912 2.01793 -0.331629 0
M  V30 3709 H 346.067 3.49985 1.661 0
M  V30 3710 H 346.481 5.23704 0.288932 0
M  V30 3711 H 347.955 5.14622 1.99671 0
M  V30 3712 H 348.432 3.55373 2.58083 0
M  V30 3713 H 349.038 4.13098 1.01142 0
M  V30 3714 N 347.353 -0.0568162 1.57498 0
M  V30 3715 C 348.599 -0.75422 1.88253 0
M  V30 3716 C 348.932 -1.76461 0.810865 0
M  V30 3717 O 348.207 -1.93691 -0.177259 0
M  V30 3718 C 348.49 -1.44878 3.2967 0
M  V30 3719 C 348.343 -0.453789 4.47505 0
M  V30 3720 C 349.662 -2.38994 3.69554 0
M  V30 3721 H 346.781 -0.272724 0.684683 0
M  V30 3722 H 349.423 -0.0172113 1.89992 0
M  V30 3723 H 347.573 -2.077 3.28318 0
M  V30 3724 H 349.245 0.170371 4.60985 0
M  V30 3725 H 347.488 0.229552 4.33192 0
M  V30 3726 H 348.159 -0.977699 5.43273 0
M  V30 3727 H 350.635 -1.86239 3.72095 0
M  V30 3728 H 349.511 -2.84587 4.69363 0
M  V30 3729 H 349.772 -3.24461 3.00296 0
M  V30 3730 N 348.832 -1.54138 -0.328536 0
M  V30 3731 C 350.248 -1.44736 -0.672574 0
M  V30 3732 C 350.448 -0.616217 -1.91846 0
M  V30 3733 O 349.504 -0.113067 -2.52247 0
M  V30 3734 C 350.817 -2.884 -0.851217 0
M  V30 3735 C 352.365 -2.98271 -0.948877 0
M  V30 3736 C 352.84 -4.43074 -1.15973 0
M  V30 3737 N 354.331 -4.46665 -1.22658 0
M  V30 3738 C 355.066 -5.55857 -1.40751 0
M  V30 3739 N 354.562 -6.75026 -1.5592 0
M  V30 3740 N 356.355 -5.43495 -1.4342 0
M  V30 3741 H 348.506 -2.06661 0.490421 0
M  V30 3742 H 350.769 -0.934812 0.157579 0
M  V30 3743 H 350.475 -3.51699 -0.00704236 0
M  V30 3744 H 350.349 -3.34225 -1.74853 0
M  V30 3745 H 352.736 -2.35102 -1.78356 0
M  V30 3746 H 352.817 -2.55785 -0.0281435 0
M  V30 3747 H 352.461 -5.06827 -0.329915 0
M  V30 3748 H 352.391 -4.83165 -2.09426 0
M  V30 3749 H 354.882 -3.60797 -1.124 0
M  V30 3750 H 355.195 -7.54004 -1.69404 0
M  V30 3751 H 353.54 -6.77944 -1.53027 0
M  V30 3752 H 356.731 -4.49349 -1.31162 0
M  V30 3753 H 356.904 -6.28649 -1.57178 0
M  V30 3754 N 350.31 0.590341 -1.46126 0
M  V30 3755 C 351.258 1.72105 -1.5647 0
M  V30 3756 C 352.252 1.63756 -0.433612 0
M  V30 3757 O 353.458 1.69342 -0.610194 0
M  V30 3758 H 349.833 0.568889 -0.491802 0
M  V30 3759 H 351.804 1.6051 -2.51553 0
M  V30 3760 C 350.553 3.10493 -1.56491 0
M  V30 3761 H 349.876 3.17583 -2.4286 0
M  V30 3762 H 351.316 3.8939 -1.67785 0
M  V30 3763 C 349.775 3.3563 -0.292231 0
M  V30 3764 O 350.305 3.96875 0.620739 0
M  V30 3765 N 348.511 2.90026 -0.182523 0
M  V30 3766 H 348.058 2.40367 -0.926356 0
M  V30 3767 H 348.016 3.07218 0.668152 0
M  V30 3768 N 351.788 1.33704 0.83433 0
M  V30 3769 C 353.065 1.16011 1.57483 0
M  V30 3770 C 353.445 -0.27176 2.09343 0
M  V30 3771 O 352.793 -1.27146 1.89858 0
M  V30 3772 C 353.003 2.20507 2.70514 0
M  V30 3773 C 354.351 2.54898 3.39577 0
M  V30 3774 O 355.375 2.19209 2.80759 0
M  V30 3775 O 354.234 3.16158 4.45765 0
M  V30 3776 H 351.328 0.448992 0.694503 0
M  V30 3777 H 353.874 1.453 0.876691 0
M  V30 3778 H 352.646 3.16667 2.29865 0
M  V30 3779 H 352.269 1.92329 3.47987 0
M  V30 3780 N 353.266 -1.05314 1.17247 0
M  V30 3781 C 354.214 -2.15137 0.884238 0
M  V30 3782 C 355.208 -1.68729 -0.15063 0
M  V30 3783 O 356.414 -1.8 -0.00366673 0
M  V30 3784 H 352.789 -0.702471 0.2684 0
M  V30 3785 H 354.76 -2.36652 1.81764 0
M  V30 3786 C 353.509 -3.45243 0.412659 0
M  V30 3787 H 352.832 -3.81352 1.20043 0
M  V30 3788 H 354.272 -4.23263 0.249858 0
M  V30 3789 C 352.731 -3.25487 -0.86948 0
M  V30 3790 O 353.261 -3.51938 -1.93655 0
M  V30 3791 N 351.467 -2.78875 -0.817147 0
M  V30 3792 H 351.014 -2.57549 0.0514211 0
M  V30 3793 H 350.972 -2.66036 -1.67547 0
M  V30 3794 N 354.744 -0.972509 -1.24016 0
M  V30 3795 C 355.969 -0.654417 -1.96805 0
M  V30 3796 C 356.394 0.770398 -1.716 0
M  V30 3797 O 355.752 1.52361 -0.982647 0
M  V30 3798 C 355.8 -0.941031 -3.48105 0
M  V30 3799 O 354.904 -0.0289472 -4.1239 0
M  V30 3800 H 354.245 -0.24692 -0.616382 0
M  V30 3801 H 356.775 -1.30396 -1.57664 0
M  V30 3802 H 356.785 -0.87452 -3.98517 0
M  V30 3803 H 355.46 -1.97939 -3.65777 0
M  V30 3804 H 354.037 -0.149192 -3.72601 0
M  V30 3805 N 356.222 1.38976 -0.743202 0
M  V30 3806 C 357.447 2.05161 -0.303936 0
M  V30 3807 C 357.872 1.55677 1.05576 0
M  V30 3808 O 357.23 0.704131 1.67068 0
M  V30 3809 C 357.278 3.59138 -0.324373 0
M  V30 3810 O 356.382 4.06668 0.685204 0
M  V30 3811 H 355.723 0.649815 -0.136518 0
M  V30 3812 H 358.253 1.77852 -1.01142 0
M  V30 3813 H 358.263 4.07639 -0.171618 0
M  V30 3814 H 356.938 3.94515 -1.31647 0
M  V30 3815 H 355.515 3.69561 0.497913 0
M  V30 3816 N 357.7 0.491464 1.49741 0
M  V30 3817 C 359.116 0.146835 1.58923 0
M  V30 3818 C 359.316 -1.34804 1.49767 0
M  V30 3819 O 358.372 -2.12317 1.36667 0
M  V30 3820 C 359.685 0.715157 2.92072 0
M  V30 3821 C 361.233 0.680407 3.05515 0
M  V30 3822 C 361.708 1.22663 4.41269 0
M  V30 3823 N 363.199 1.18691 4.47735 0
M  V30 3824 C 363.934 1.57984 5.51207 0
M  V30 3825 N 363.43 2.04824 6.6183 0
M  V30 3826 N 365.223 1.49459 5.41866 0
M  V30 3827 H 357.374 1.46347 1.53936 0
M  V30 3828 H 359.637 0.606453 0.728642 0
M  V30 3829 H 359.343 1.76317 3.04311 0
M  V30 3830 H 359.217 0.17018 3.76816 0
M  V30 3831 H 361.604 -0.358743 2.92911 0
M  V30 3832 H 361.685 1.26242 2.22478 0
M  V30 3833 H 361.329 2.26451 4.54623 0
M  V30 3834 H 361.259 0.620637 5.2293 0
M  V30 3835 H 363.75 0.843605 3.68364 0
M  V30 3836 H 364.063 2.32901 7.3687 0
M  V30 3837 H 362.408 2.08791 6.62896 0
M  V30 3838 H 365.599 1.12692 4.54333 0
M  V30 3839 H 365.772 1.80406 6.22381 0
M  V30 3840 N 359.178 -1.55987 0.224894 0
M  V30 3841 C 360.425 -1.9839 -0.4059 0
M  V30 3842 C 360.753 -1.11261 -1.59535 0
M  V30 3843 O 360.008 -0.158314 -1.95059 0
M  V30 3844 C 360.307 -3.46394 -0.880106 0
M  V30 3845 C 359.973 -4.5046 0.19918 0
M  V30 3846 C 358.635 -4.7864 0.495661 0
M  V30 3847 C 360.987 -5.12855 0.928939 0
M  V30 3848 C 358.315 -5.66497 1.52636 0
M  V30 3849 C 360.667 -6.01828 1.949 0
M  V30 3850 C 359.331 -6.28351 2.25236 0
M  V30 3851 H 358.601 -0.725961 -0.148529 0
M  V30 3852 H 361.248 -1.88668 0.328113 0
M  V30 3853 H 359.553 -3.53337 -1.69294 0
M  V30 3854 H 361.25 -3.76577 -1.37808 0
M  V30 3855 H 357.84 -4.28579 -0.0420526 0
M  V30 3856 H 362.024 -4.9115 0.713129 0
M  V30 3857 H 357.28 -5.8531 1.76698 0
M  V30 3858 H 361.454 -6.49225 2.51951 0
M  V30 3859 H 359.081 -6.96226 3.05244 0
M  V30 3860 N 360.656 0.0484629 -1.57525 0
M  V30 3861 C 361.904 0.741657 -1.88 0
M  V30 3862 C 362.225 1.76918 -0.820054 0
M  V30 3863 O 361.495 1.95335 0.148661 0
M  V30 3864 H 360.075 0.276908 -0.69378 0
M  V30 3865 H 362.737 0.019013 -1.94891 0
M  V30 3866 H 361.833 1.24336 -2.86264 0
M  V30 3867 N 362.134 1.5431 0.320358 0
M  V30 3868 C 363.081 1.83918 1.39438 0
M  V30 3869 C 364.051 0.686525 1.51248 0
M  V30 3870 O 365.236 0.933269 1.66417 0
M  V30 3871 C 362.376 2.075 2.75749 0
M  V30 3872 C 361.489 3.35177 2.72544 0
M  V30 3873 C 360.624 3.48704 4.00723 0
M  V30 3874 C 359.663 4.70244 3.91838 0
M  V30 3875 N 358.8 4.80679 5.11754 0
M  V30 3876 H 363.64 2.75544 1.13489 0
M  V30 3877 H 361.177 1.36459 0.549309 0
M  V30 3878 H 363.135 2.19166 3.54996 0
M  V30 3879 H 361.765 1.19163 3 0
M  V30 3880 H 360.817 3.32233 1.85271 0
M  V30 3881 H 362.129 4.24534 2.61863 0
M  V30 3882 H 361.283 3.59928 4.88402 0
M  V30 3883 H 360.022 2.57445 4.14214 0
M  V30 3884 H 359.027 4.59072 3.02544 0
M  V30 3885 H 360.252 5.6289 3.7991 0
M  V30 3886 H 358.198 3.92337 5.25745 0
M  V30 3887 H 358.115 5.64007 5.0342 0
M  V30 3888 H 359.383 4.96239 6.01138 0
M  V30 3889 N 363.613 -0.582584 1.46437 0
M  V30 3890 C 364.86 -1.34079 1.51753 0
M  V30 3891 C 365.188 -1.93762 0.169299 0
M  V30 3892 O 364.443 -1.76989 -0.835062 0
M  V30 3893 C 364.742 -2.48964 2.56421 0
M  V30 3894 C 364.408 -2.07273 4.00436 0
M  V30 3895 C 363.07 -1.95618 4.39644 0
M  V30 3896 C 365.422 -1.75111 4.90903 0
M  V30 3897 C 362.75 -1.5006 5.67185 0
M  V30 3898 C 365.102 -1.31032 6.18881 0
M  V30 3899 C 363.766 -1.17954 6.56996 0
M  V30 3900 H 363.036 -0.49063 0.555304 0
M  V30 3901 H 365.683 -0.656007 1.79913 0
M  V30 3902 H 363.988 -3.22889 2.21923 0
M  V30 3903 H 365.685 -3.07178 2.57765 0
M  V30 3904 H 362.275 -2.17279 3.69443 0
M  V30 3905 H 366.459 -1.83001 4.61329 0
M  V30 3906 H 361.715 -1.38577 5.95488 0
M  V30 3907 H 365.889 -1.052 6.88408 0
M  V30 3908 H 363.516 -0.824279 7.55718 0
M  V30 3909 N 365.091 -1.34144 -0.827227 0
M  V30 3910 C 366.34 -1.25602 -1.5782 0
M  V30 3911 C 366.653 0.173445 -1.94829 0
M  V30 3912 O 367.859 0.380984 -2.68814 0
M  V30 3913 C 366.315 -2.20151 -2.84713 0
M  V30 3914 C 365.923 -3.68331 -2.55021 0
M  V30 3915 C 367.667 -2.20508 -3.62735 0
M  V30 3916 C 365.574 -4.54762 -3.78082 0
M  V30 3917 H 364.504 -0.466573 -0.592306 0
M  V30 3918 H 367.155 -1.59283 -0.911116 0
M  V30 3919 H 365.537 -1.79417 -3.53023 0
M  V30 3920 H 366.711 -4.17577 -1.94849 0
M  V30 3921 H 365.026 -3.7038 -1.90283 0
M  V30 3922 H 367.623 -2.82306 -4.54101 0
M  V30 3923 H 367.966 -1.20322 -3.98533 0
M  V30 3924 H 368.499 -2.59664 -3.01362 0
M  V30 3925 H 365.238 -5.55867 -3.47407 0
M  V30 3926 H 364.758 -4.10254 -4.37552 0
M  V30 3927 H 366.437 -4.69153 -4.45538 0
M  V30 3928 N 366.569 1.04691 -1.17803 0
M  V30 3929 C 367.985 1.29963 -0.926379 0
M  V30 3930 C 368.185 1.97251 0.411635 0
M  V30 3931 O 367.241 2.24922 1.14744 0
M  V30 3932 C 368.554 2.16447 -2.08737 0
M  V30 3933 C 370.102 2.29814 -2.12496 0
M  V30 3934 C 370.577 3.19661 -3.27995 0
M  V30 3935 N 372.068 3.27247 -3.27816 0
M  V30 3936 C 372.803 3.96906 -4.13827 0
M  V30 3937 N 372.299 4.6895 -5.09959 0
M  V30 3938 N 374.092 3.93122 -4.01761 0
M  V30 3939 H 366.243 0.594182 -2.0392 0
M  V30 3940 H 368.506 0.324649 -0.890678 0
M  V30 3941 H 368.212 1.74304 -3.05469 0
M  V30 3942 H 368.086 3.17103 -2.04268 0
M  V30 3943 H 370.473 2.71196 -1.16347 0
M  V30 3944 H 370.554 1.2877 -2.21025 0
M  V30 3945 H 370.198 2.78991 -4.24413 0
M  V30 3946 H 370.128 4.20722 -3.16703 0
M  V30 3947 H 372.619 2.75921 -2.58217 0
M  V30 3948 H 372.932 5.19679 -5.71974 0
M  V30 3949 H 371.277 4.67875 -5.13924 0
M  V30 3950 H 374.468 3.35967 -3.2595 0
M  V30 3951 H 374.641 4.47139 -4.6901 0
M  V30 3952 N 368.047 0.979072 1.23499 0
M  V30 3953 C 369.296 0.642751 1.91185 0
M  V30 3954 C 369.609 -0.827253 1.77245 0
M  V30 3955 O 370.815 -1.27458 2.39722 0
M  V30 3956 C 369.271 1.09901 3.42709 0
M  V30 3957 C 368.879 2.59327 3.65313 0
M  V30 3958 C 370.623 0.836371 4.16179 0
M  V30 3959 C 368.53 2.98627 5.10467 0
M  V30 3960 H 367.46 0.236698 0.715884 0
M  V30 3961 H 370.111 1.1868 1.39955 0
M  V30 3962 H 368.493 0.48319 3.93041 0
M  V30 3963 H 369.667 3.26136 3.25533 0
M  V30 3964 H 367.982 2.83323 3.05151 0
M  V30 3965 H 370.579 1.10586 5.23139 0
M  V30 3966 H 370.922 -0.227509 4.15678 0
M  V30 3967 H 371.455 1.41371 3.71832 0
M  V30 3968 H 368.194 4.04133 5.16098 0
M  V30 3969 H 367.714 2.3651 5.51201 0
M  V30 3970 H 369.393 2.89159 5.78788 0
M  V30 3971 N 369.525 -1.3858 0.750561 0
M  V30 3972 C 370.475 -2.27795 0.0965949 0
M  V30 3973 C 371.459 -1.45048 -0.696411 0
M  V30 3974 O 372.651 -1.67812 -0.562863 0
M  V30 3975 C 369.78 -3.33894 -0.798085 0
M  V30 3976 C 368.866 -4.241 0.0016067 0
M  V30 3977 N 369.257 -4.95067 1.03647 0
M  V30 3978 C 367.555 -4.45429 -0.225674 0
M  V30 3979 C 368.256 -5.61489 1.52004 0
M  V30 3980 N 367.232 -5.37135 0.835874 0
M  V30 3981 H 371.034 -2.80125 0.889228 0
M  V30 3982 H 368.548 -1.51446 0.586323 0
M  V30 3983 H 370.545 -3.96693 -1.28219 0
M  V30 3984 H 369.205 -2.83123 -1.5897 0
M  V30 3985 H 370.216 -4.98104 1.41819 0
M  V30 3986 H 366.893 -4.05571 -0.990872 0
M  V30 3987 H 368.283 -6.28264 2.38188 0
M  V30 3988 N 371.003 -0.499398 -1.49478 0
M  V30 3989 C 372.25 0.0456899 -2.02448 0
M  V30 3990 C 372.578 1.37142 -1.37921 0
M  V30 3991 O 371.833 1.89111 -0.503544 0
M  V30 3992 C 372.132 0.248424 -3.56536 0
M  V30 3993 C 371.798 -0.999107 -4.39692 0
M  V30 3994 C 370.46 -1.34108 -4.62135 0
M  V30 3995 C 372.812 -1.82842 -4.88076 0
M  V30 3996 C 370.14 -2.51191 -5.30208 0
M  V30 3997 C 372.492 -2.99076 -5.57437 0
M  V30 3998 C 371.156 -3.33655 -5.78127 0
M  V30 3999 H 370.426 0.0167191 -0.740811 0
M  V30 4000 H 373.073 -0.65923 -1.79795 0
M  V30 4001 H 371.378 1.03586 -3.77859 0
M  V30 4002 H 373.075 0.684605 -3.95113 0
M  V30 4003 H 369.665 -0.722729 -4.22463 0
M  V30 4004 H 373.849 -1.57737 -4.70566 0
M  V30 4005 H 369.105 -2.78221 -5.44429 0
M  V30 4006 H 373.279 -3.63664 -5.93904 0
M  V30 4007 H 370.906 -4.24483 -6.30649 0
M  V30 4008 N 372.481 1.55866 -0.233164 0
M  V30 4009 C 373.729 1.9821 0.394593 0
M  V30 4010 C 374.05 1.12234 1.59463 0
M  V30 4011 O 373.32 0.201981 1.94856 0
M  V30 4012 H 371.9 0.732034 0.148778 0
M  V30 4013 H 374.562 1.92107 -0.32876 0
M  V30 4014 H 373.658 3.03845 0.713063 0
M  V30 4015 N 373.959 -0.0401083 1.57549 0
M  V30 4016 C 374.922 -1.02871 2.04817 0
M  V30 4017 C 375.922 -1.29708 0.950388 0
M  V30 4018 O 377.112 -1.24897 1.21435 0
M  V30 4019 C 374.244 -2.36443 2.45576 0
M  V30 4020 H 375.437 -0.620631 2.93408 0
M  V30 4021 H 372.99 -0.286667 1.53649 0
M  V30 4022 H 373.725 -2.82021 1.60108 0
M  V30 4023 H 373.51 -2.18296 3.25713 0
M  V30 4024 H 375 -3.07441 2.82612 0
M  V30 4025 N 375.437 -1.54477 -0.31217 0
M  V30 4026 C 376.665 -1.77205 -1.068 0
M  V30 4027 C 377.08 -0.526114 -1.81321 0
M  V30 4028 O 376.437 0.503647 -1.75413 0
M  V30 4029 C 376.488 -2.97253 -2.05725 0
M  V30 4030 O 376.209 -4.1703 -1.34228 0
M  V30 4031 C 377.71 -3.32281 -2.93435 0
M  V30 4032 H 374.93 -0.591287 -0.317208 0
M  V30 4033 H 377.474 -2.01398 -0.354834 0
M  V30 4034 H 375.629 -2.753 -2.72559 0
M  V30 4035 H 376.043 -4.84636 -2.00571 0
M  V30 4036 H 377.517 -4.19551 -3.58721 0
M  V30 4037 H 377.994 -2.49945 -3.61143 0
M  V30 4038 H 378.6 -3.56353 -2.32147 0
M  V30 4039 N 376.915 0.57481 -1.46744 0
M  V30 4040 C 378.163 1.33009 -1.52161 0
M  V30 4041 C 378.484 1.94185 -0.178092 0
M  V30 4042 O 377.754 1.7899 0.796196 0
M  V30 4043 H 376.334 0.493873 -0.560445 0
M  V30 4044 H 378.996 0.672589 -1.82927 0
M  V30 4045 H 378.092 2.13273 -2.27862 0
M  V30 4046 N 378.394 1.34581 0.820102 0
M  V30 4047 C 379.341 1.2639 1.93117 0
M  V30 4048 C 380.311 0.138554 1.65521 0
M  V30 4049 O 381.496 0.320004 1.88097 0
M  V30 4050 C 378.636 1.02812 3.29429 0
M  V30 4051 C 377.749 2.24146 3.693 0
M  V30 4052 C 376.884 1.93829 4.94574 0
M  V30 4053 C 375.923 3.1129 5.27034 0
M  V30 4054 N 375.06 2.80838 6.43486 0
M  V30 4055 H 379.9 2.21408 1.99455 0
M  V30 4056 H 377.437 1.10077 0.975784 0
M  V30 4057 H 379.395 0.871788 4.0799 0
M  V30 4058 H 378.025 0.114612 3.22596 0
M  V30 4059 H 377.077 2.50691 2.86109 0
M  V30 4060 H 378.389 3.11899 3.89257 0
M  V30 4061 H 377.543 1.74948 5.80929 0
M  V30 4062 H 376.282 1.03341 4.76626 0
M  V30 4063 H 375.287 3.30764 4.39175 0
M  V30 4064 H 376.512 4.02561 5.4692 0
M  V30 4065 H 374.458 1.92929 6.26988 0
M  V30 4066 H 374.375 3.62123 6.63629 0
M  V30 4067 H 375.643 2.65467 7.32903 0
M  V30 4068 N 379.872 -1.04064 1.18357 0
M  V30 4069 C 380.802 -2.14001 0.934113 0
M  V30 4070 C 381.783 -1.69616 -0.128186 0
M  V30 4071 O 382.968 -1.94185 0.0244093 0
M  V30 4072 C 380.098 -3.44253 0.459066 0
M  V30 4073 C 379.052 -4.02261 1.46185 0
M  V30 4074 C 378.378 -5.27992 0.844322 0
M  V30 4075 C 379.678 -4.38432 2.83856 0
M  V30 4076 H 381.372 -2.35127 1.85352 0
M  V30 4077 H 378.918 -1.12998 0.892604 0
M  V30 4078 H 380.871 -4.20522 0.271907 0
M  V30 4079 H 379.595 -3.22813 -0.495912 0
M  V30 4080 H 378.254 -3.28074 1.63595 0
M  V30 4081 H 377.902 -5.02862 -0.117845 0
M  V30 4082 H 377.602 -5.67765 1.51384 0
M  V30 4083 H 379.126 -6.06938 0.667693 0
M  V30 4084 H 380.54 -5.05688 2.70098 0
M  V30 4085 H 378.937 -4.89254 3.47491 0
M  V30 4086 H 380.007 -3.4826 3.37406 0
M  V30 4087 N 381.35 -0.985608 -1.22978 0
M  V30 4088 C 382.313 -0.535071 -2.22867 0
M  V30 4089 C 383.313 0.378123 -1.56291 0
M  V30 4090 O 384.503 0.171092 -1.73358 0
M  V30 4091 C 381.635 0.222702 -3.40172 0
M  V30 4092 H 382.828 -1.41835 -2.6424 0
M  V30 4093 H 380.381 -0.772042 -1.35901 0
M  V30 4094 H 381.116 1.12229 -3.04262 0
M  V30 4095 H 380.901 -0.43288 -3.89703 0
M  V30 4096 H 382.391 0.526335 -4.1427 0
M  V30 4097 N 382.828 1.3818 -0.7579 0
M  V30 4098 C 384.053 2.04827 -0.325679 0
M  V30 4099 C 384.478 1.56788 1.03919 0
M  V30 4100 O 383.836 0.721811 1.66312 0
M  V30 4101 C 383.884 3.58774 -0.362447 0
M  V30 4102 O 382.988 4.07372 0.642033 0
M  V30 4103 H 382.329 0.64833 -0.143402 0
M  V30 4104 H 384.859 1.7677 -1.03023 0
M  V30 4105 H 384.869 4.07434 -0.214844 0
M  V30 4106 H 383.544 3.93096 -1.35824 0
M  V30 4107 H 382.121 3.70068 0.458688 0
M  V30 4108 N 384.306 0.507319 1.49211 0
M  V30 4109 C 385.269 -0.256763 2.27757 0
M  V30 4110 C 386.269 -0.888287 1.34038 0
M  V30 4111 O 387.459 -0.751841 1.5714 0
M  V30 4112 C 384.591 -1.36905 3.12202 0
M  V30 4113 H 385.784 0.432557 2.96764 0
M  V30 4114 H 383.337 0.262488 1.5408 0
M  V30 4115 H 384.072 -2.09233 2.47775 0
M  V30 4116 H 383.857 -0.921599 3.81115 0
M  V30 4117 H 385.347 -1.9071 3.7151 0
M  V30 4118 N 385.784 -1.5574 0.241426 0
M  V30 4119 C 387.061 -1.90704 -0.434881 0
M  V30 4120 C 387.441 -1.16145 -1.76277 0
M  V30 4121 O 386.789 -0.277152 -2.26813 0
M  V30 4122 C 386.999 -3.43657 -0.608343 0
M  V30 4123 C 388.347 -4.14806 -0.906725 0
M  V30 4124 O 389.371 -3.49366 -0.694408 0
M  V30 4125 O 388.23 -5.30548 -1.31075 0
M  V30 4126 H 385.324 -0.793592 -0.23268 0
M  V30 4127 H 387.87 -1.67288 0.285086 0
M  V30 4128 H 386.642 -3.89927 0.327505 0
M  V30 4129 H 386.265 -3.72918 -1.37906 0
M  V30 4130 N 387.262 0.0317525 -1.57568 0
M  V30 4131 C 388.511 0.722131 -1.8833 0
M  V30 4132 C 388.824 1.76664 -0.839587 0
M  V30 4133 O 390.03 2.50942 -1.03635 0
M  V30 4134 C 388.486 1.33544 -3.34207 0
M  V30 4135 C 388.094 0.327415 -4.46802 0
M  V30 4136 C 389.838 2.00585 -3.7412 0
M  V30 4137 C 387.745 0.948915 -5.83738 0
M  V30 4138 H 386.675 0.273466 -0.702661 0
M  V30 4139 H 389.326 -0.0235811 -1.83485 0
M  V30 4140 H 387.708 2.13077 -3.33788 0
M  V30 4141 H 388.882 -0.441006 -4.58685 0
M  V30 4142 H 387.197 -0.240758 -4.15703 0
M  V30 4143 H 389.794 2.47932 -4.73744 0
M  V30 4144 H 390.137 2.82285 -3.05975 0
M  V30 4145 H 390.67 1.27831 -3.76702 0
M  V30 4146 H 387.409 0.171387 -6.55276 0
M  V30 4147 H 386.929 1.68724 -5.7558 0
M  V30 4148 H 388.608 1.45705 -6.3038 0
M  V30 4149 N 388.74 1.54641 0.303973 0
M  V30 4150 C 389.65 1.88439 1.39743 0
M  V30 4151 C 390.666 0.778239 1.55626 0
M  V30 4152 O 391.842 1.07442 1.70347 0
M  V30 4153 C 388.907 2.12212 2.74166 0
M  V30 4154 C 387.968 3.35936 2.67293 0
M  V30 4155 C 387.201 3.58566 3.95305 0
M  V30 4156 O 387.424 2.84263 4.9452 0
M  V30 4157 O 386.358 4.52078 3.97378 0
M  V30 4158 H 390.184 2.81458 1.14083 0
M  V30 4159 H 387.769 1.40793 0.499768 0
M  V30 4160 H 389.651 2.29067 3.53704 0
M  V30 4161 H 388.326 1.22379 2.99675 0
M  V30 4162 H 387.233 3.24448 1.86237 0
M  V30 4163 H 388.566 4.2589 2.46736 0
M  V30 4164 N 390.218 -0.567019 1.47046 0
M  V30 4165 C 391.446 -1.35027 1.56765 0
M  V30 4166 C 391.861 -1.8758 0.214316 0
M  V30 4167 O 391.218 -1.64471 -0.790919 0
M  V30 4168 C 391.269 -2.52698 2.58507 0
M  V30 4169 O 390.99 -2.0232 3.88585 0
M  V30 4170 C 392.491 -3.45043 2.78316 0
M  V30 4171 H 389.711 -0.41195 0.529658 0
M  V30 4172 H 392.255 -0.687832 1.92585 0
M  V30 4173 H 390.41 -3.149 2.25648 0
M  V30 4174 H 390.824 -2.79068 4.44096 0
M  V30 4175 H 392.298 -4.2405 3.53391 0
M  V30 4176 H 392.775 -3.97971 1.85784 0
M  V30 4177 H 393.381 -2.88665 3.12334 0
M  V30 4178 N 391.696 -1.35014 -0.812953 0
M  V30 4179 C 392.926 -1.30841 -1.59888 0
M  V30 4180 C 393.334 0.117576 -1.88834 0
M  V30 4181 O 392.677 1.07807 -1.48739 0
M  V30 4182 C 392.739 -2.0412 -2.95931 0
M  V30 4183 C 392.403 -3.53336 -2.89832 0
M  V30 4184 C 393.4 -4.48052 -2.63714 0
M  V30 4185 C 391.085 -3.95894 -3.0915 0
M  V30 4186 C 393.079 -5.833 -2.56982 0
M  V30 4187 C 390.766 -5.31239 -3.0204 0
M  V30 4188 C 391.764 -6.24754 -2.75991 0
M  V30 4189 O 391.452 -7.57617 -2.68833 0
M  V30 4190 H 391.184 -0.451215 -0.50337 0
M  V30 4191 H 393.738 -1.78354 -1.01877 0
M  V30 4192 H 391.968 -1.51235 -3.559 0
M  V30 4193 H 393.657 -1.93107 -3.57022 0
M  V30 4194 H 394.423 -4.16492 -2.48515 0
M  V30 4195 H 390.302 -3.23495 -3.28438 0
M  V30 4196 H 393.846 -6.56263 -2.36569 0
M  V30 4197 H 389.743 -5.62415 -3.16796 0
M  V30 4198 H 390.511 -7.67469 -2.84487 0
M  V30 4199 N 393.175 1.03435 -1.18907 0
M  V30 4200 C 394.105 2.13503 -0.945448 0
M  V30 4201 C 395.086 1.69682 0.119189 0
M  V30 4202 O 396.271 1.94169 -0.034707 0
M  V30 4203 C 393.401 3.44004 -0.477316 0
M  V30 4204 C 392.355 4.0148 -1.48316 0
M  V30 4205 C 391.681 5.27537 -0.872311 0
M  V30 4206 C 392.981 4.36921 -2.86177 0
M  V30 4207 H 394.675 2.34141 -1.86597 0
M  V30 4208 H 392.221 1.12523 -0.898584 0
M  V30 4209 H 394.174 4.20372 -0.294204 0
M  V30 4210 H 392.898 3.23072 0.478786 0
M  V30 4211 H 391.557 3.27201 -1.65332 0
M  V30 4212 H 391.205 5.02917 0.0911752 0
M  V30 4213 H 390.905 5.66954 -1.54393 0
M  V30 4214 H 392.429 6.06576 -0.699871 0
M  V30 4215 H 393.843 5.04248 -2.72776 0
M  V30 4216 H 392.24 4.87405 -3.50081 0
M  V30 4217 H 393.31 3.46466 -3.39248 0
M  V30 4218 N 394.653 0.992116 1.22453 0
M  V30 4219 C 395.583 0.561677 2.26644 0
M  V30 4220 C 396.564 -0.411055 1.65059 0
M  V30 4221 O 397.749 -0.301861 1.9184 0
M  V30 4222 C 394.879 -0.125247 3.47074 0
M  V30 4223 C 393.833 0.765948 4.21091 0
M  V30 4224 C 393.159 -0.0538484 5.34673 0
M  V30 4225 C 394.459 2.06242 4.79856 0
M  V30 4226 H 396.153 1.43259 2.62902 0
M  V30 4227 H 393.699 0.690283 1.26377 0
M  V30 4228 H 395.652 -0.437764 4.1912 0
M  V30 4229 H 394.376 -1.03069 3.0991 0
M  V30 4230 H 393.035 1.0621 3.50878 0
M  V30 4231 H 392.683 -0.960188 4.9375 0
M  V30 4232 H 392.383 0.539415 5.85119 0
M  V30 4233 H 393.907 -0.360477 6.09535 0
M  V30 4234 H 395.321 1.8139 5.43848 0
M  V30 4235 H 393.718 2.60444 5.40638 0
M  V30 4236 H 394.788 2.74167 3.99951 0
M  V30 4237 N 396.131 -1.37776 0.765217 0
M  V30 4238 C 397.041 -2.34135 0.147666 0
M  V30 4239 C 398.057 -1.59854 -0.687215 0
M  V30 4240 O 399.233 -1.91983 -0.608659 0
M  V30 4241 C 396.298 -3.3901 -0.72617 0
M  V30 4242 C 395.359 -4.2912 0.124417 0
M  V30 4243 C 394.592 -5.28986 -0.707807 0
M  V30 4244 O 394.815 -5.36205 -1.94525 0
M  V30 4245 O 393.749 -6.01779 -0.12046 0
M  V30 4246 H 397.575 -2.88664 0.943758 0
M  V30 4247 H 395.16 -1.39824 0.526277 0
M  V30 4248 H 397.042 -4.03195 -1.22524 0
M  V30 4249 H 395.717 -2.86819 -1.50056 0
M  V30 4250 H 394.624 -3.68057 0.669696 0
M  V30 4251 H 395.957 -4.84598 0.861736 0
M  V30 4252 N 397.609 -0.515225 -1.4894 0
M  V30 4253 C 398.556 0.255567 -2.29381 0
M  V30 4254 C 399.526 0.947387 -1.36432 0
M  V30 4255 O 400.711 0.951288 -1.65394 0
M  V30 4256 C 397.851 1.30551 -3.19453 0
M  V30 4257 C 396.964 0.624029 -4.27469 0
M  V30 4258 C 396.099 1.65563 -5.0474 0
M  V30 4259 C 395.138 0.956802 -6.04576 0
M  V30 4260 N 394.275 1.93326 -6.74959 0
M  V30 4261 H 399.115 -0.436607 -2.94784 0
M  V30 4262 H 396.652 -0.227154 -1.45336 0
M  V30 4263 H 398.61 1.92639 -3.70062 0
M  V30 4264 H 397.24 1.96626 -2.56004 0
M  V30 4265 H 396.292 -0.110459 -3.8024 0
M  V30 4266 H 397.604 0.0746092 -4.98744 0
M  V30 4267 H 396.758 2.35119 -5.59289 0
M  V30 4268 H 395.497 2.23893 -4.3327 0
M  V30 4269 H 394.502 0.247097 -5.49244 0
M  V30 4270 H 395.727 0.379814 -6.78037 0
M  V30 4271 H 393.673 2.50591 -6.06251 0
M  V30 4272 H 393.59 1.43489 -7.42258 0
M  V30 4273 H 394.858 2.62126 -7.34105 0
M  V30 4274 N 399.087 1.5561 -0.249682 0
M  V30 4275 C 400.312 2.03865 0.381305 0
M  V30 4276 C 400.737 1.12769 1.50548 0
M  V30 4277 O 400.095 0.121189 1.80895 0
M  V30 4278 C 400.143 3.50101 0.863816 0
M  V30 4279 O 399.247 3.62132 1.97318 0
M  V30 4280 H 398.588 0.658827 0.0827194 0
M  V30 4281 H 401.118 2.01105 -0.376552 0
M  V30 4282 H 401.128 3.90975 1.1663 0
M  V30 4283 H 399.803 4.1588 0.0411816 0
M  V30 4284 H 398.38 3.33155 1.67517 0
M  V30 4285 N 400.565 -0.0233959 1.57583 0
M  V30 4286 C 401.981 -0.379134 1.55031 0
M  V30 4287 C 402.181 -1.76255 0.976548 0
M  V30 4288 O 401.237 -2.45266 0.600078 0
M  V30 4289 C 402.55 -0.275792 2.99433 0
M  V30 4290 C 404.098 -0.352458 3.11009 0
M  V30 4291 C 404.573 -0.278501 4.57152 0
M  V30 4292 N 406.064 -0.337123 4.61972 0
M  V30 4293 C 406.799 -0.302876 5.726 0
M  V30 4294 N 406.295 -0.220589 6.92449 0
M  V30 4295 N 408.088 -0.353023 5.6099 0
M  V30 4296 H 400.239 0.881869 1.93227 0
M  V30 4297 H 402.502 0.335867 0.886509 0
M  V30 4298 H 402.208 0.675108 3.4516 0
M  V30 4299 H 402.082 -1.06721 3.61788 0
M  V30 4300 H 404.469 -1.29379 2.65226 0
M  V30 4301 H 404.55 0.468409 2.51475 0
M  V30 4302 H 404.194 0.659189 5.03604 0
M  V30 4303 H 404.124 -1.11755 5.14605 0
M  V30 4304 H 406.615 -0.403002 3.75745 0
M  V30 4305 H 406.928 -0.199713 7.72542 0
M  V30 4306 H 405.273 -0.186555 6.9475 0
M  V30 4307 H 408.464 -0.415339 4.66254 0
M  V30 4308 H 408.637 -0.322866 6.47195 0
M  V30 4309 N 402.043 -1.548 -0.295768 0
M  V30 4310 C 403.289 -1.74588 -1.03184 0
M  V30 4311 C 403.622 -0.532962 -1.86744 0
M  V30 4312 O 402.897 0.469872 -1.88739 0
M  V30 4313 C 403.18 -3.03791 -1.93347 0
M  V30 4314 C 403.033 -4.35392 -1.12933 0
M  V30 4315 C 404.352 -3.28892 -2.92435 0
M  V30 4316 H 401.471 -0.635221 -0.373715 0
M  V30 4317 H 404.113 -1.87519 -0.30606 0
M  V30 4318 H 402.263 -2.92898 -2.55232 0
M  V30 4319 H 403.935 -4.58211 -0.532943 0
M  V30 4320 H 402.178 -4.31642 -0.432168 0
M  V30 4321 H 402.849 -5.22074 -1.79284 0
M  V30 4322 H 405.325 -3.39429 -2.4068 0
M  V30 4323 H 404.201 -4.20603 -3.52682 0
M  V30 4324 H 404.462 -2.47437 -3.6637 0
M  V30 4325 N 403.521 0.559213 -1.47345 0
M  V30 4326 C 404.77 1.31281 -1.53128 0
M  V30 4327 C 405.083 1.94602 -0.197344 0
M  V30 4328 O 406.289 2.71173 -0.133154 0
M  V30 4329 C 404.745 2.38051 -2.69925 0
M  V30 4330 C 404.353 1.8093 -4.0984 0
M  V30 4331 C 406.097 3.14604 -2.84999 0
M  V30 4332 C 404.004 2.85468 -5.1794 0
M  V30 4333 H 402.934 0.493614 -0.569966 0
M  V30 4334 H 405.585 0.594155 -1.73615 0
M  V30 4335 H 403.967 3.12822 -2.42814 0
M  V30 4336 H 405.141 1.12544 -4.46845 0
M  V30 4337 H 403.456 1.16967 -3.99634 0
M  V30 4338 H 406.053 3.92666 -3.62929 0
M  V30 4339 H 406.396 3.68665 -1.93369 0
M  V30 4340 H 406.929 2.46945 -3.1187 0
M  V30 4341 H 403.668 2.36264 -6.1144 0
M  V30 4342 H 403.188 3.52269 -4.85455 0
M  V30 4343 H 404.867 3.48996 -5.44803 0
M  V30 4344 N 404.999 1.35443 0.805782 0
M  V30 4345 C 406.246 1.28761 1.56291 0
M  V30 4346 C 406.574 -0.137747 1.94012 0
M  V30 4347 O 405.829 -1.1032 1.61642 0
M  V30 4348 C 406.128 2.14045 2.86216 0
M  V30 4349 C 405.794 3.62826 2.67709 0
M  V30 4350 C 404.456 4.0338 2.6237 0
M  V30 4351 C 406.808 4.57227 2.50186 0
M  V30 4352 C 404.136 5.36501 2.37451 0
M  V30 4353 C 406.488 5.90547 2.26797 0
M  V30 4354 C 405.152 6.30245 2.1988 0
M  V30 4355 H 404.422 0.471171 0.571908 0
M  V30 4356 H 407.069 1.67347 0.930974 0
M  V30 4357 H 405.374 1.68342 3.53791 0
M  V30 4358 H 407.071 2.0621 3.43917 0
M  V30 4359 H 403.661 3.30644 2.72713 0
M  V30 4360 H 407.845 4.2678 2.53323 0
M  V30 4361 H 403.101 5.66259 2.30567 0
M  V30 4362 H 407.275 6.63274 2.12228 0
M  V30 4363 H 404.902 7.33328 2.00333 0
M  V30 4364 N 406.477 -1.02803 1.19454 0
M  V30 4365 C 407.409 -2.11181 0.890807 0
M  V30 4366 C 408.422 -1.6238 -0.116829 0
M  V30 4367 O 409.611 -1.78144 0.112694 0
M  V30 4368 C 406.711 -3.37461 0.311942 0
M  V30 4369 C 405.884 -4.15446 1.36834 0
M  V30 4370 C 404.943 -5.20039 0.802864 0
M  V30 4371 O 403.969 -5.49602 1.48077 0
M  V30 4372 N 405.171 -5.79165 -0.393417 0
M  V30 4373 H 407.936 -2.37827 1.82369 0
M  V30 4374 H 405.497 -1.19101 1.09666 0
M  V30 4375 H 407.489 -4.0462 -0.0802225 0
M  V30 4376 H 406.059 -3.08156 -0.52524 0
M  V30 4377 H 405.279 -3.43423 1.93531 0
M  V30 4378 H 406.567 -4.64335 2.08015 0
M  V30 4379 H 405.965 -5.57466 -0.961658 0
M  V30 4380 H 404.522 -6.47729 -0.727351 0
M  V30 4381 N 407.956 -0.998596 -1.21925 0
M  V30 4382 C 408.886 -0.573688 -2.26343 0
M  V30 4383 C 409.867 0.402296 -1.65274 0
M  V30 4384 O 411.052 0.291683 -1.91997 0
M  V30 4385 C 408.182 0.106839 -3.47136 0
M  V30 4386 C 407.136 -0.788269 -4.20678 0
M  V30 4387 C 406.462 0.0254927 -5.34694 0
M  V30 4388 C 407.762 -2.08784 -4.78755 0
M  V30 4389 H 409.456 -1.44651 -2.62138 0
M  V30 4390 H 407.002 -0.696975 -1.26009 0
M  V30 4391 H 408.955 0.415531 -4.19346 0
M  V30 4392 H 407.679 1.01424 -3.10452 0
M  V30 4393 H 406.338 -1.08069 -3.50309 0
M  V30 4394 H 405.986 0.933989 -4.94253 0
M  V30 4395 H 405.686 -0.570437 -5.84825 0
M  V30 4396 H 407.21 0.328147 -6.09718 0
M  V30 4397 H 408.624 -1.84272 -5.42878 0
M  V30 4398 H 407.021 -2.63307 -5.39249 0
M  V30 4399 H 408.091 -2.76284 -3.98491 0
M  V30 4400 N 409.434 1.37368 -0.772513 0
M  V30 4401 C 410.381 2.30262 -0.157488 0
M  V30 4402 C 411.351 1.51137 0.688965 0
M  V30 4403 O 412.536 1.79704 0.641168 0
M  V30 4404 C 409.676 3.37611 0.715045 0
M  V30 4405 C 408.789 4.31746 -0.148098 0
M  V30 4406 C 407.924 5.26171 0.729213 0
M  V30 4407 C 406.963 6.11948 -0.136418 0
M  V30 4408 N 406.1 6.98613 0.698914 0
M  V30 4409 H 410.94 2.82277 -0.955179 0
M  V30 4410 H 408.477 1.38957 -0.482631 0
M  V30 4411 H 410.435 3.98479 1.23575 0
M  V30 4412 H 409.065 2.86959 1.47833 0
M  V30 4413 H 408.117 3.72178 -0.786613 0
M  V30 4414 H 409.429 4.92084 -0.81579 0
M  V30 4415 H 408.583 5.92247 1.31637 0
M  V30 4416 H 407.322 4.66246 1.43059 0
M  V30 4417 H 406.327 5.4485 -0.736102 0
M  V30 4418 H 407.552 6.73945 -0.835134 0
M  V30 4419 H 405.498 6.41215 1.38489 0
M  V30 4420 H 405.415 7.55948 0.0885358 0
M  V30 4421 H 406.683 7.69077 1.27044 0
M  V30 4422 N 410.912 0.523116 1.48665 0
M  V30 4423 C 411.875 -0.232592 2.28017 0
M  V30 4424 C 412.875 -0.874021 1.34972 0
M  V30 4425 O 414.065 -0.735132 1.57929 0
M  V30 4426 C 411.197 -1.33586 3.13636 0
M  V30 4427 H 412.39 0.464008 2.96289 0
M  V30 4428 H 409.943 0.278816 1.53793 0
M  V30 4429 H 410.678 -2.06593 2.4998 0
M  V30 4430 H 410.463 -0.881125 3.82071 0
M  V30 4431 H 411.953 -1.86759 3.73511 0
M  V30 4432 N 412.39 -1.55475 0.257931 0
M  V30 4433 C 413.3 -2.2549 -0.647425 0
M  V30 4434 C 414.316 -1.2748 -1.18427 0
M  V30 4435 O 415.492 -1.6038 -1.2182 0
M  V30 4436 C 412.557 -2.94916 -1.82278 0
M  V30 4437 C 411.618 -4.08363 -1.32432 0
M  V30 4438 C 410.851 -4.74469 -2.44366 0
M  V30 4439 O 411.074 -4.39701 -3.63344 0
M  V30 4440 O 410.008 -5.62763 -2.13497 0
M  V30 4441 H 413.834 -3.03593 -0.0807707 0
M  V30 4442 H 411.419 -1.49377 0.0259962 0
M  V30 4443 H 413.301 -3.38606 -2.50846 0
M  V30 4444 H 411.976 -2.19744 -2.37685 0
M  V30 4445 H 410.883 -3.69166 -0.605605 0
M  V30 4446 H 412.216 -4.85385 -0.816211 0
M  V30 4447 N 413.868 0.0150385 -1.57593 0
M  V30 4448 C 415.284 0.370907 -1.5523 0
M  V30 4449 C 415.484 1.75735 -0.985882 0
M  V30 4450 O 414.54 2.44944 -0.613077 0
M  V30 4451 C 415.853 0.259908 -2.99575 0
M  V30 4452 C 417.401 0.335959 -3.11192 0
M  V30 4453 C 417.876 0.254253 -4.57294 0
M  V30 4454 N 419.367 0.312618 -4.62144 0
M  V30 4455 C 420.102 0.272505 -5.72752 0
M  V30 4456 N 419.598 0.183864 -6.92556 0
M  V30 4457 N 421.391 0.323267 -5.6117 0
M  V30 4458 H 413.542 -0.892104 -1.92757 0
M  V30 4459 H 415.805 -0.340563 -0.884715 0
M  V30 4460 H 415.511 -0.693403 -3.44797 0
M  V30 4461 H 415.385 1.048 -3.62349 0
M  V30 4462 H 417.772 1.27971 -2.65909 0
M  V30 4463 H 417.853 -0.481739 -2.51223 0
M  V30 4464 H 417.497 -0.685887 -5.03247 0
M  V30 4465 H 417.427 1.09024 -5.15191 0
M  V30 4466 H 419.918 0.38307 -3.75953 0
M  V30 4467 H 420.231 0.15874 -7.72637 0
M  V30 4468 H 418.576 0.149708 -6.94839 0
M  V30 4469 H 421.767 0.390607 -4.66467 0
M  V30 4470 H 421.94 0.288539 -6.47357 0
M  V30 4471 N 415.346 1.54954 0.287554 0
M  V30 4472 C 416.623 1.65569 1.04146 0
M  V30 4473 C 417.003 0.512672 2.0478 0
M  V30 4474 O 416.351 -0.489038 2.23205 0
M  V30 4475 C 416.561 3.04163 1.71131 0
M  V30 4476 C 417.909 3.61429 2.22832 0
M  V30 4477 O 418.933 3.06702 1.81141 0
M  V30 4478 O 417.792 4.57281 2.9926 0
M  V30 4479 H 414.886 0.671881 0.482188 0
M  V30 4480 H 417.432 1.67297 0.28457 0
M  V30 4481 H 416.204 3.78796 0.981303 0
M  V30 4482 H 415.827 3.06271 2.53543 0
M  V30 4483 N 416.824 -0.551391 1.4764 0
M  V30 4484 C 418.054 -1.33163 1.57959 0
M  V30 4485 C 418.462 -1.87785 0.23094 0
M  V30 4486 O 417.805 -1.65996 -0.786825 0
M  V30 4487 C 417.867 -2.53449 2.54958 0
M  V30 4488 C 417.531 -2.20071 4.00522 0
M  V30 4489 C 418.528 -1.77017 4.88836 0
M  V30 4490 C 416.213 -2.31252 4.45901 0
M  V30 4491 C 418.207 -1.4558 6.20552 0
M  V30 4492 C 415.894 -1.99427 5.77644 0
M  V30 4493 C 416.892 -1.56659 6.64791 0
M  V30 4494 O 416.58 -1.25242 7.94084 0
M  V30 4495 H 416.312 -0.412022 0.535923 0
M  V30 4496 H 418.866 -0.674186 1.9402 0
M  V30 4497 H 417.096 -3.22104 2.13976 0
M  V30 4498 H 418.785 -3.15523 2.55343 0
M  V30 4499 H 419.551 -1.67867 4.55023 0
M  V30 4500 H 415.43 -2.63498 3.78272 0
M  V30 4501 H 418.974 -1.12125 6.8853 0
M  V30 4502 H 414.871 -2.08211 6.10998 0
M  V30 4503 H 415.639 -1.38822 8.06642 0
M  V30 4504 N 418.302 -1.35869 -0.798587 0
M  V30 4505 C 419.252 -1.25982 -1.90033 0
M  V30 4506 C 420.236 -0.153303 -1.60168 0
M  V30 4507 O 421.428 -0.38527 -1.72756 0
M  V30 4508 C 418.557 -1.04211 -3.27101 0
M  V30 4509 C 417.643 -2.19289 -3.63006 0
M  V30 4510 N 418.034 -3.44559 -3.70287 0
M  V30 4511 C 416.332 -2.10852 -3.93011 0
M  V30 4512 C 417.033 -4.20283 -4.02166 0
M  V30 4513 N 416.009 -3.49124 -4.16669 0
M  V30 4514 H 419.811 -2.20883 -1.93876 0
M  V30 4515 H 417.325 -1.28457 -0.993614 0
M  V30 4516 H 419.322 -0.952155 -4.05881 0
M  V30 4517 H 417.982 -0.102013 -3.2454 0
M  V30 4518 H 418.993 -3.7881 -3.53162 0
M  V30 4519 H 415.67 -1.24744 -3.98428 0
M  V30 4520 H 417.06 -5.28575 -4.14799 0
M  V30 4521 N 419.78 1.02168 -1.19998 0
M  V30 4522 C 421.029 1.75091 -1.0013 0
M  V30 4523 C 421.342 1.89923 0.467835 0
M  V30 4524 O 422.548 2.59888 0.785515 0
M  V30 4525 C 421.004 3.14892 -1.74273 0
M  V30 4526 C 420.612 3.0809 -3.25245 0
M  V30 4527 C 422.356 3.9206 -1.62755 0
M  V30 4528 C 420.263 4.42867 -3.91948 0
M  V30 4529 H 419.193 0.656394 -0.37103 0
M  V30 4530 H 421.844 1.14284 -1.43567 0
M  V30 4531 H 420.226 3.7621 -1.2362 0
M  V30 4532 H 421.4 2.5611 -3.83072 0
M  V30 4533 H 419.715 2.44416 -3.3712 0
M  V30 4534 H 422.312 4.91764 -2.09934 0
M  V30 4535 H 422.655 4.12199 -0.582894 0
M  V30 4536 H 423.188 3.37359 -2.10793 0
M  V30 4537 H 419.927 4.27931 -4.96543 0
M  V30 4538 H 419.447 4.94874 -3.3891 0
M  V30 4539 H 421.126 5.11728 -3.95909 0
M  V30 4540 N 421.258 1.00505 1.21394 0
M  V30 4541 C 422.505 0.687774 1.90462 0
M  V30 4542 C 422.833 -0.78147 1.7811 0
M  V30 4543 O 422.088 -1.58208 1.1519 0
M  V30 4544 C 422.387 1.0546 3.41486 0
M  V30 4545 C 422.053 2.51812 3.74034 0
M  V30 4546 C 420.715 2.91804 3.82628 0
M  V30 4547 C 423.067 3.46614 3.8924 0
M  V30 4548 C 420.395 4.2556 4.03876 0
M  V30 4549 C 422.747 4.80044 4.11995 0
M  V30 4550 C 421.411 5.19759 4.18816 0
M  V30 4551 H 420.681 0.251674 0.696951 0
M  V30 4552 H 423.328 1.26349 1.43903 0
M  V30 4553 H 421.633 0.397133 3.89782 0
M  V30 4554 H 423.33 0.786976 3.93202 0
M  V30 4555 H 419.92 2.1982 3.67936 0
M  V30 4556 H 424.104 3.16883 3.81967 0
M  V30 4557 H 419.36 4.55901 4.07387 0
M  V30 4558 H 423.534 5.53439 4.22704 0
M  V30 4559 H 421.161 6.23418 4.35033 0
M  V30 4560 N 422.737 -1.36956 0.779787 0
M  V30 4561 C 423.967 -2.03459 0.358877 0
M  V30 4562 C 424.375 -1.58939 -1.02641 0
M  V30 4563 O 423.718 -0.769777 -1.66794 0
M  V30 4564 C 423.78 -3.5796 0.332393 0
M  V30 4565 C 423.444 -4.25644 1.66362 0
M  V30 4566 C 424.441 -4.49205 2.61746 0
M  V30 4567 C 422.126 -4.63313 1.94027 0
M  V30 4568 C 424.12 -5.09503 3.82996 0
M  V30 4569 C 421.807 -5.2333 3.15546 0
M  V30 4570 C 422.805 -5.46363 4.0985 0
M  V30 4571 O 422.493 -6.05122 5.29228 0
M  V30 4572 H 422.225 -0.659767 0.147254 0
M  V30 4573 H 424.779 -1.76111 1.05708 0
M  V30 4574 H 423.009 -3.84388 -0.422237 0
M  V30 4575 H 424.698 -4.05852 -0.0625389 0
M  V30 4576 H 425.464 -4.20508 2.41657 0
M  V30 4577 H 421.343 -4.44715 1.21448 0
M  V30 4578 H 424.887 -5.27397 4.56617 0
M  V30 4579 H 420.784 -5.51451 3.35517 0
M  V30 4580 H 421.552 -6.23595 5.30161 0
M  V30 4581 N 424.215 -0.530993 -1.48385 0
M  V30 4582 C 425.147 0.268353 -2.27624 0
M  V30 4583 C 426.16 0.903525 -1.35426 0
M  V30 4584 O 427.349 0.781796 -1.60469 0
M  V30 4585 C 424.449 1.39535 -3.08842 0
M  V30 4586 C 423.622 0.861913 -4.28824 0
M  V30 4587 C 422.681 1.87016 -4.91845 0
M  V30 4588 O 421.707 1.4267 -5.5103 0
M  V30 4589 N 422.909 3.20238 -4.84178 0
M  V30 4590 H 425.674 -0.41123 -2.96865 0
M  V30 4591 H 423.235 -0.365387 -1.57723 0
M  V30 4592 H 425.227 2.06803 -3.47871 0
M  V30 4593 H 423.797 1.97859 -2.42014 0
M  V30 4594 H 423.017 0.0132126 -3.94198 0
M  V30 4595 H 424.305 0.484415 -5.06489 0
M  V30 4596 H 423.703 3.58932 -4.37246 0
M  V30 4597 H 422.26 3.83136 -5.27305 0
M  V30 4598 N 425.693 1.55336 -0.266172 0
M  V30 4599 C 426.942 1.98574 0.353749 0
M  V30 4600 C 427.255 1.15789 1.57646 0
M  V30 4601 O 428.461 1.49129 2.26876 0
M  V30 4602 C 426.917 3.53403 0.680747 0
M  V30 4603 C 426.525 4.44953 -0.52165 0
M  V30 4604 C 428.269 4.05251 1.26379 0
M  V30 4605 C 426.176 5.91156 -0.169736 0
M  V30 4606 H 425.106 0.741643 0.135949 0
M  V30 4607 H 427.757 1.79743 -0.369421 0
M  V30 4608 H 426.139 3.68001 1.46257 0
M  V30 4609 H 427.313 4.42121 -1.29869 0
M  V30 4610 H 425.628 4.03691 -1.02093 0
M  V30 4611 H 428.225 5.12021 1.54074 0
M  V30 4612 H 428.568 3.53749 2.19471 0
M  V30 4613 H 429.101 3.94057 0.544447 0
M  V30 4614 H 425.84 6.46736 -1.0683 0
M  V30 4615 H 425.36 5.97079 0.570717 0
M  V30 4616 H 427.039 6.4655 0.241245 0
M  V30 4617 N 427.171 -0.0066808 1.57599 0
M  V30 4618 C 428.101 -0.999296 2.11036 0
M  V30 4619 C 429.082 -1.36278 1.01795 0
M  V30 4620 O 430.267 -1.4477 1.29442 0
M  V30 4621 C 427.397 -2.29328 2.60818 0
M  V30 4622 C 426.351 -2.07159 3.74525 0
M  V30 4623 C 425.677 -3.42512 4.10596 0
M  V30 4624 C 426.977 -1.43959 5.02069 0
M  V30 4625 H 428.671 -0.554382 2.94223 0
M  V30 4626 H 426.217 -0.265221 1.41536 0
M  V30 4627 H 428.17 -2.99117 2.96828 0
M  V30 4628 H 426.894 -2.7592 1.74745 0
M  V30 4629 H 425.553 -1.39797 3.38899 0
M  V30 4630 H 425.201 -3.86795 3.21556 0
M  V30 4631 H 424.901 -3.28498 4.87199 0
M  V30 4632 H 426.425 -4.13628 4.4916 0
M  V30 4633 H 427.839 -2.03696 5.35893 0
M  V30 4634 H 426.236 -1.40452 5.83432 0
M  V30 4635 H 427.306 -0.407992 4.83181 0
M  V30 4636 N 428.649 -1.55105 -0.279332 0
M  V30 4637 C 429.874 -1.7976 -1.03446 0
M  V30 4638 C 430.299 -0.565952 -1.79384 0
M  V30 4639 O 429.657 0.484259 -1.74713 0
M  V30 4640 C 429.705 -3.0179 -1.97371 0
M  V30 4641 O 428.809 -2.76432 -3.06038 0
M  V30 4642 H 428.15 -0.594334 -0.29608 0
M  V30 4643 H 430.68 -2.02235 -0.310165 0
M  V30 4644 H 430.69 -3.30351 -2.39441 0
M  V30 4645 H 429.365 -3.91085 -1.4151 0
M  V30 4646 H 427.942 -2.58949 -2.68328 0
M  V30 4647 N 430.127 0.543554 -1.4793 0
M  V30 4648 C 431.075 1.67039 -1.61866 0
M  V30 4649 C 432.069 1.62294 -0.48549 0
M  V30 4650 O 433.275 1.67315 -0.66376 0
M  V30 4651 H 429.65 0.552954 -0.509652 0
M  V30 4652 H 431.621 1.52426 -2.56533 0
M  V30 4653 C 430.37 3.05357 -1.6629 0
M  V30 4654 H 429.693 3.09696 -2.5284 0
M  V30 4655 H 431.133 3.83855 -1.80088 0
M  V30 4656 C 429.592 3.34531 -0.398861 0
M  V30 4657 O 430.122 3.98649 0.494162 0
M  V30 4658 N 428.328 2.89299 -0.2747 0
M  V30 4659 H 427.875 2.37298 -1.00236 0
M  V30 4660 H 427.833 3.09188 0.570075 0
M  V30 4661 N 431.605 1.3629 0.791371 0
M  V30 4662 C 432.552 1.30458 1.90393 0
M  V30 4663 C 433.522 0.173632 1.6519 0
M  V30 4664 O 434.707 0.35983 1.87376 0
M  V30 4665 C 431.847 1.09777 3.27174 0
M  V30 4666 C 430.96 2.31929 3.64462 0
M  V30 4667 C 430.095 2.04276 4.90352 0
M  V30 4668 C 429.134 3.224 5.20312 0
M  V30 4669 N 428.271 2.94424 6.37385 0
M  V30 4670 H 433.111 2.25589 1.94714 0
M  V30 4671 H 430.648 1.12122 0.952216 0
M  V30 4672 H 432.606 0.958133 4.06049 0
M  V30 4673 H 431.236 0.183014 3.22281 0
M  V30 4674 H 430.288 2.56703 2.80727 0
M  V30 4675 H 431.6 3.20085 3.82553 0
M  V30 4676 H 430.754 1.87231 5.77087 0
M  V30 4677 H 429.493 1.13428 4.74326 0
M  V30 4678 H 428.498 3.40005 4.32061 0
M  V30 4679 H 429.723 4.14071 5.38258 0
M  V30 4680 H 427.669 2.06185 6.22755 0
M  V30 4681 H 427.586 3.76118 6.55798 0
M  V30 4682 H 428.854 2.80953 7.27108 0
M  V30 4683 N 433.083 -1.0153 1.20538 0
M  V30 4684 C 434.03 -2.10098 0.955383 0
M  V30 4685 C 435 -1.65702 -0.114878 0
M  V30 4686 O 436.185 -1.90776 0.0301118 0
M  V30 4687 C 433.325 -3.41236 0.514969 0
M  V30 4688 C 432.438 -3.99102 1.65353 0
M  V30 4689 C 431.573 -5.18306 1.16329 0
M  V30 4690 C 430.612 -5.68258 2.27485 0
M  V30 4691 N 429.749 -6.78722 1.7967 0
M  V30 4692 H 434.589 -2.30818 1.88486 0
M  V30 4693 H 432.126 -1.13189 0.939499 0
M  V30 4694 H 434.084 -4.16504 0.240935 0
M  V30 4695 H 432.714 -3.20585 -0.377512 0
M  V30 4696 H 431.766 -3.20918 2.04245 0
M  V30 4697 H 433.078 -4.32177 2.49047 0
M  V30 4698 H 432.232 -6.00782 0.845302 0
M  V30 4699 H 430.971 -4.86799 0.296254 0
M  V30 4700 H 429.976 -4.84385 2.60099 0
M  V30 4701 H 431.201 -6.01798 3.14667 0
M  V30 4702 H 429.147 -6.49042 0.95295 0
M  V30 4703 H 429.064 -7.10996 2.56944 0
M  V30 4704 H 430.332 -7.64759 1.50875 0
M  V30 4705 N 434.561 -1.01147 -1.20859 0
M  V30 4706 C 435.972 -0.730205 -1.71828 0
M  V30 4707 C 436.323 0.751662 -1.8123 0
M  V30 4708 O 435.448 1.58686 -1.47132 0
M  V30 4709 C 436.043 -1.31885 -3.12077 0
M  V30 4710 C 434.602 -1.08656 -3.60376 0
M  V30 4711 C 433.749 -1.42769 -2.37723 0
M  V30 4712 H 436.7 -1.18158 -1.05945 0
M  V30 4713 H 436.721 -0.706793 -3.73878 0
M  V30 4714 H 436.233 -2.39737 -3.05201 0
M  V30 4715 H 434.334 -0.0254814 -3.72591 0
M  V30 4716 H 434.447 -1.76301 -4.45483 0
M  V30 4717 H 432.811 -0.846603 -2.40218 0
M  V30 4718 H 433.594 -2.51666 -2.33493 0
M  V30 4719 N 436.039 1.36541 -0.78704 0
M  V30 4720 C 436.949 2.3387 -0.184896 0
M  V30 4721 C 437.965 1.60927 0.661697 0
M  V30 4722 O 439.141 1.92927 0.57804 0
M  V30 4723 C 436.206 3.40122 0.672145 0
M  V30 4724 C 435.267 4.28867 -0.19267 0
M  V30 4725 C 434.5 5.30045 0.623561 0
M  V30 4726 O 434.723 5.39232 1.8597 0
M  V30 4727 O 433.657 6.01895 0.0247068 0
M  V30 4728 H 437.483 2.87126 -0.989562 0
M  V30 4729 H 435.068 1.38969 -0.548455 0
M  V30 4730 H 436.95 4.05093 1.16094 0
M  V30 4731 H 435.625 2.89169 1.45474 0
M  V30 4732 H 434.532 3.66945 -0.728166 0
M  V30 4733 H 435.865 4.83165 -0.938722 0
M  V30 4734 N 437.518 0.538854 1.48102 0
M  V30 4735 C 438.448 -0.207654 2.32575 0
M  V30 4736 C 439.429 -0.926559 1.4265 0
M  V30 4737 O 440.614 -0.91061 1.71527 0
M  V30 4738 C 437.744 -1.24957 3.24042 0
M  V30 4739 C 436.698 -0.648263 4.23062 0
M  V30 4740 C 436.024 -1.79348 5.03725 0
M  V30 4741 C 437.324 0.385897 5.20872 0
M  V30 4742 H 439.018 0.497534 2.95237 0
M  V30 4743 H 436.564 0.240715 1.41974 0
M  V30 4744 H 438.517 -1.77983 3.81969 0
M  V30 4745 H 437.241 -1.98446 2.59397 0
M  V30 4746 H 435.9 -0.139452 3.66335 0
M  V30 4747 H 435.548 -2.51696 4.35498 0
M  V30 4748 H 435.248 -1.39702 5.70751 0
M  V30 4749 H 436.772 -2.32735 5.64506 0
M  V30 4750 H 438.186 -0.057607 5.73271 0
M  V30 4751 H 436.583 0.700227 5.96001 0
M  V30 4752 H 437.653 1.28848 4.67468 0
M  V30 4753 N 438.996 -1.55193 0.274407 0
M  V30 4754 C 439.926 -2.25471 -0.607032 0
M  V30 4755 C 440.907 -1.24461 -1.15946 0
M  V30 4756 O 442.092 -1.53179 -1.19373 0
M  V30 4757 C 439.222 -2.97526 -1.79153 0
M  V30 4758 C 438.176 -4.05459 -1.37067 0
M  V30 4759 C 437.502 -4.65084 -2.6382 0
M  V30 4760 C 438.802 -5.19691 -0.521389 0
M  V30 4761 H 440.496 -2.99393 -0.0209343 0
M  V30 4762 H 438.042 -1.43997 -0.00862866 0
M  V30 4763 H 439.995 -3.45402 -2.41404 0
M  V30 4764 H 438.719 -2.21138 -2.40344 0
M  V30 4765 H 437.378 -3.58393 -0.771355 0
M  V30 4766 H 437.026 -3.85365 -3.23268 0
M  V30 4767 H 436.726 -5.37961 -2.36372 0
M  V30 4768 H 438.25 -5.15708 -3.26921 0
M  V30 4769 H 439.664 -5.63623 -1.04889 0
M  V30 4770 H 438.061 -5.99126 -0.341825 0
M  V30 4771 H 439.131 -4.82713 0.46 0
M  V30 4772 N 440.474 -0.00167713 -1.576 0
M  V30 4773 C 441.751 0.719951 -1.81868 0
M  V30 4774 C 442.131 1.91895 -0.879747 0
M  V30 4775 O 441.479 2.28389 0.0711423 0
M  V30 4776 C 441.689 1.12409 -3.30402 0
M  V30 4777 C 443.037 1.52724 -3.96182 0
M  V30 4778 O 444.061 1.21784 -3.34734 0
M  V30 4779 O 442.92 2.10265 -5.04431 0
M  V30 4780 H 440.014 0.350707 -0.748955 0
M  V30 4781 H 442.56 -0.0272597 -1.69678 0
M  V30 4782 H 441.332 0.269532 -3.90371 0
M  V30 4783 H 440.955 1.93035 -3.47596 0
M  V30 4784 N 441.952 1.55251 0.271103 0
M  V30 4785 C 442.885 1.83191 1.36075 0
M  V30 4786 C 443.863 0.685091 1.47463 0
M  V30 4787 O 445.047 0.928292 1.64058 0
M  V30 4788 C 442.174 1.99521 2.73696 0
M  V30 4789 C 441.22 3.22081 2.79582 0
M  V30 4790 S 442.053 4.79388 2.38636 0
M  V30 4791 C 443.209 4.98693 3.78228 0
M  V30 4792 H 443.442 2.75327 1.12171 0
M  V30 4793 H 440.975 1.47046 0.470833 0
M  V30 4794 H 442.933 2.09613 3.52948 0
M  V30 4795 H 441.594 1.0827 2.9485 0
M  V30 4796 H 440.787 3.304 3.80594 0
M  V30 4797 H 440.389 3.10589 2.08352 0
M  V30 4798 H 442.681 4.84551 4.73515 0
M  V30 4799 H 443.624 6.00738 3.7486 0
M  V30 4800 H 444.032 4.26665 3.69618 0
M  V30 4801 N 443.43 -0.535701 1.48216 0
M  V30 4802 C 444.36 -1.65014 1.65204 0
M  V30 4803 C 445.341 -1.62554 0.501011 0
M  V30 4804 O 446.526 -1.7984 0.732886 0
M  V30 4805 C 443.656 -3.03616 1.68626 0
M  V30 4806 C 442.61 -3.20932 2.83172 0
M  V30 4807 C 441.936 -4.60537 2.71679 0
M  V30 4808 C 443.236 -3.04249 4.24535 0
M  V30 4809 H 444.93 -1.51053 2.58502 0
M  V30 4810 H 442.476 -0.725262 1.24402 0
M  V30 4811 H 444.429 -3.81446 1.79099 0
M  V30 4812 H 443.153 -3.18587 0.719026 0
M  V30 4813 H 441.812 -2.45517 2.72244 0
M  V30 4814 H 441.46 -4.72336 1.72937 0
M  V30 4815 H 441.16 -4.73069 3.48538 0
M  V30 4816 H 442.684 -5.40475 2.84112 0
M  V30 4817 H 444.098 -3.71877 4.36326 0
M  V30 4818 H 442.495 -3.28278 5.02348 0
M  V30 4819 H 443.565 -2.00739 4.41397 0
M  V30 4820 N 444.908 -1.36708 -0.784132 0
M  V30 4821 C 445.838 -1.34153 -1.91116 0
M  V30 4822 C 446.819 -0.212121 -1.68772 0
M  V30 4823 O 448.004 -0.410581 -1.8981 0
M  V30 4824 C 445.134 -1.13535 -3.28218 0
M  V30 4825 C 444.088 -2.23356 -3.65097 0
M  V30 4826 C 443.414 -1.87875 -5.00607 0
M  V30 4827 C 444.714 -3.65473 -3.73131 0
M  V30 4828 H 446.408 -2.28459 -1.93512 0
M  V30 4829 H 443.954 -1.09973 -0.929618 0
M  V30 4830 H 445.907 -1.10381 -4.06687 0
M  V30 4831 H 444.631 -0.156804 -3.26223 0
M  V30 4832 H 443.29 -2.25645 -2.88929 0
M  V30 4833 H 442.938 -0.885814 -4.95139 0
M  V30 4834 H 442.638 -2.61406 -5.26252 0
M  V30 4835 H 444.162 -1.86286 -5.81489 0
M  V30 4836 H 445.576 -3.65382 -4.41779 0
M  V30 4837 H 443.973 -4.37953 -4.10265 0
M  V30 4838 H 445.043 -3.99995 -2.74102 0
M  V30 4839 N 446.386 1.0089 -1.21074 0
M  V30 4840 C 447.635 1.74019 -1.01981 0
M  V30 4841 C 447.948 1.90408 0.447665 0
M  V30 4842 O 449.154 2.60707 0.757906 0
M  V30 4843 C 447.61 3.13026 -1.77603 0
M  V30 4844 C 447.218 3.04623 -3.28495 0
M  V30 4845 C 448.962 3.90312 -1.66904 0
M  V30 4846 C 446.869 4.38685 -3.96623 0
M  V30 4847 H 445.799 0.652422 -0.377971 0
M  V30 4848 H 448.45 1.12755 -1.44771 0
M  V30 4849 H 446.832 3.74878 -1.27604 0
M  V30 4850 H 448.006 2.52032 -3.85767 0
M  V30 4851 H 446.321 2.40827 -3.39693 0
M  V30 4852 H 448.918 4.8951 -2.15138 0
M  V30 4853 H 449.261 4.11558 -0.62658 0
M  V30 4854 H 449.794 3.35104 -2.14359 0
M  V30 4855 H 446.533 4.22641 -5.01054 0
M  V30 4856 H 446.053 4.91252 -3.4414 0
M  V30 4857 H 447.732 5.075 -4.01314 0
M  V30 4858 N 447.864 1.01787 1.20321 0
M  V30 4859 C 449.092 0.727194 1.937 0
M  V30 4860 C 449.507 -0.712305 1.74848 0
M  V30 4861 O 448.864 -1.48327 1.06327 0
M  V30 4862 C 448.915 1.05497 3.45764 0
M  V30 4863 O 448.636 2.43794 3.64 0
M  V30 4864 C 450.137 0.785534 4.36285 0
M  V30 4865 H 447.357 0.266939 0.615617 0
M  V30 4866 H 449.901 1.35939 1.52777 0
M  V30 4867 H 448.056 0.468158 3.84561 0
M  V30 4868 H 448.47 2.55656 4.57974 0
M  V30 4869 H 449.944 1.06495 5.4163 0
M  V30 4870 H 450.421 -0.280273 4.38305 0
M  V30 4871 H 451.027 1.35456 4.03152 0
M  V30 4872 N 449.342 -1.36122 0.79427 0
M  V30 4873 C 450.29 -2.31871 0.184023 0
M  V30 4874 C 451.284 -1.56041 -0.659365 0
M  V30 4875 O 452.49 -1.71266 -0.553906 0
M  V30 4876 H 448.865 -0.750896 0.0407373 0
M  V30 4877 H 450.836 -2.80898 1.00693 0
M  V30 4878 C 449.585 -3.41324 -0.662813 0
M  V30 4879 H 448.908 -3.99793 -0.0231944 0
M  V30 4880 H 450.348 -4.10629 -1.05639 0
M  V30 4881 C 448.807 -2.83308 -1.82313 0
M  V30 4882 O 449.337 -2.75863 -2.91997 0
M  V30 4883 N 447.543 -2.40529 -1.63077 0
M  V30 4884 H 447.09 -2.46785 -0.738591 0
M  V30 4885 H 447.048 -2.02059 -2.40872 0
M  V30 4886 N 450.82 -0.546701 -1.47814 0
M  V30 4887 C 451.768 0.220048 -2.31557 0
M  V30 4888 C 452.762 0.919472 -1.42275 0
M  V30 4889 O 453.968 0.841953 -1.59095 0
M  V30 4890 H 450.343 0.0898334 -0.746615 0
M  V30 4891 H 452.314 -0.505589 -2.94086 0
M  V30 4892 C 451.063 1.24353 -3.24702 0
M  V30 4893 H 450.386 0.714758 -3.93359 0
M  V30 4894 H 451.826 1.75112 -3.8615 0
M  V30 4895 C 450.285 2.28593 -2.47481 0
M  V30 4896 O 450.815 3.35334 -2.21165 0
M  V30 4897 N 449.021 2.02244 -2.08676 0
M  V30 4898 H 448.568 1.15455 -2.30278 0
M  V30 4899 H 448.526 2.72207 -1.57323 0
M  V30 4900 N 452.299 1.55045 -0.282633 0
M  V30 4901 C 453.71 1.85473 0.213655 0
M  V30 4902 C 454.061 1.20465 1.54863 0
M  V30 4903 O 453.186 0.495676 2.10647 0
M  V30 4904 C 453.781 3.36496 0.394445 0
M  V30 4905 C 452.34 3.67022 0.834961 0
M  V30 4906 C 451.487 2.77218 -0.0674081 0
M  V30 4907 H 454.438 1.50478 -0.504202 0
M  V30 4908 H 454.459 3.60007 1.23186 0
M  V30 4909 H 453.971 3.83782 -0.577326 0
M  V30 4910 H 452.072 3.25241 1.81794 0
M  V30 4911 H 452.185 4.74433 0.667075 0
M  V30 4912 H 450.549 2.5069 0.450196 0
M  V30 4913 H 451.332 3.2732 -1.0352 0
M  V30 4914 N 453.777 0.010035 1.57597 0
M  V30 4915 C 455.007 -0.682422 1.95004 0
M  V30 4916 C 455.415 -1.67278 0.884014 0
M  V30 4917 O 454.758 -1.83129 -0.144672 0
M  V30 4918 C 454.82 -1.46141 3.28456 0
M  V30 4919 C 454.484 -0.631523 4.52615 0
M  V30 4920 C 455.481 0.0850905 5.1983 0
M  V30 4921 C 453.166 -0.574539 4.99003 0
M  V30 4922 C 455.16 0.847566 6.3174 0
M  V30 4923 C 452.847 0.191655 6.10799 0
M  V30 4924 C 453.845 0.901432 6.77025 0
M  V30 4925 O 453.533 1.65511 7.86677 0
M  V30 4926 H 453.265 -0.194361 0.647456 0
M  V30 4927 H 455.819 0.060312 2.05311 0
M  V30 4928 H 454.049 -2.24885 3.14585 0
M  V30 4929 H 455.738 -2.04016 3.50902 0
M  V30 4930 H 456.504 0.0502812 4.84974 0
M  V30 4931 H 452.383 -1.11654 4.47274 0
M  V30 4932 H 455.927 1.4021 6.83364 0
M  V30 4933 H 451.824 0.228249 6.45096 0
M  V30 4934 H 452.592 1.57287 8.03245 0
M  V30 4935 N 455.255 -1.55392 -0.262866 0
M  V30 4936 C 456.532 -1.67204 -1.01499 0
M  V30 4937 C 456.912 -0.545186 -2.03939 0
M  V30 4938 O 456.26 0.453467 -2.23955 0
M  V30 4939 C 456.47 -3.06847 -1.6627 0
M  V30 4940 C 457.818 -3.64928 -2.17054 0
M  V30 4941 O 458.842 -3.09545 -1.76239 0
M  V30 4942 O 457.701 -4.61984 -2.91947 0
M  V30 4943 H 454.795 -0.679467 -0.471438 0
M  V30 4944 H 457.341 -1.67729 -0.257918 0
M  V30 4945 H 456.113 -3.80309 -0.920915 0
M  V30 4946 H 455.736 -3.10266 -2.48638 0
M  V30 4947 N 456.733 0.527833 -1.48498 0
M  V30 4948 C 457.963 1.30633 -1.60058 0
M  V30 4949 C 458.371 1.87394 -0.260786 0
M  V30 4950 O 457.714 1.67227 0.760317 0
M  V30 4951 C 457.776 2.49361 -2.58958 0
M  V30 4952 C 457.44 2.13671 -4.03972 0
M  V30 4953 C 458.437 1.69217 -4.91591 0
M  V30 4954 C 456.122 2.24129 -4.49524 0
M  V30 4955 C 458.116 1.35689 -6.2279 0
M  V30 4956 C 455.803 1.90212 -5.80743 0
M  V30 4957 C 456.801 1.46063 -6.67199 0
M  V30 4958 O 456.489 1.12593 -7.95976 0
M  V30 4959 H 456.221 0.403444 -0.54241 0
M  V30 4960 H 458.775 0.643233 -1.95068 0
M  V30 4961 H 457.005 3.18659 -2.19073 0
M  V30 4962 H 458.694 3.11421 -2.6033 0
M  V30 4963 H 459.46 1.60607 -4.57636 0
M  V30 4964 H 455.339 2.57447 -3.82416 0
M  V30 4965 H 458.883 1.01157 -6.90227 0
M  V30 4966 H 454.78 1.98464 -6.14233 0
M  V30 4967 H 455.548 1.25972 -8.08748 0
M  V30 4968 N 458.211 1.37122 0.776871 0
M  V30 4969 C 459.174 1.32301 1.8716 0
M  V30 4970 C 460.174 0.228099 1.59174 0
M  V30 4971 O 461.364 0.483642 1.67352 0
M  V30 4972 C 458.496 1.054 3.24197 0
M  V30 4973 H 459.689 2.29673 1.92848 0
M  V30 4974 H 457.242 1.22077 0.97606 0
M  V30 4975 H 457.977 0.0853872 3.24188 0
M  V30 4976 H 457.762 1.84648 3.45901 0
M  V30 4977 H 459.252 1.04664 4.04271 0
M  V30 4978 N 459.689 -1.00246 1.21608 0
M  V30 4979 C 460.936 -1.74061 1.03485 0
M  V30 4980 C 461.264 -1.89658 -0.431308 0
M  V30 4981 O 460.519 -1.42976 -1.33627 0
M  V30 4982 C 460.818 -3.15448 1.68009 0
M  V30 4983 C 460.484 -3.19792 3.17874 0
M  V30 4984 C 459.146 -3.20685 3.58768 0
M  V30 4985 C 461.498 -3.16835 4.13842 0
M  V30 4986 C 458.826 -3.16309 4.94131 0
M  V30 4987 C 461.178 -3.14001 5.49169 0
M  V30 4988 C 459.842 -3.13204 5.89457 0
M  V30 4989 H 459.112 -0.636934 0.378677 0
M  V30 4990 H 461.759 -1.17473 1.51236 0
M  V30 4991 H 460.064 -3.75284 1.12557 0
M  V30 4992 H 461.761 -3.71285 1.51487 0
M  V30 4993 H 458.351 -3.19842 2.85305 0
M  V30 4994 H 462.535 -3.15303 3.83272 0
M  V30 4995 H 457.791 -3.14032 5.24589 0
M  V30 4996 H 461.965 -3.10667 6.23265 0
M  V30 4997 H 459.592 -3.09568 6.94314 0
M  V30 4998 N 461.167 -1.02423 -1.1978 0
M  V30 4999 C 462.416 -0.713265 -1.88667 0
M  V30 5000 C 462.729 0.7609 -1.80193 0
M  V30 5001 O 463.935 1.18473 -2.44288 0
M  V30 5002 C 462.391 -1.22545 -3.38394 0
M  V30 5003 C 461.999 -2.72706 -3.55437 0
M  V30 5004 C 463.743 -0.990257 -4.12788 0
M  V30 5005 C 461.65 -3.17367 -4.99031 0
M  V30 5006 H 460.58 -0.263105 -0.706606 0
M  V30 5007 H 463.231 -1.23792 -1.35454 0
M  V30 5008 H 461.613 -0.628732 -3.90977 0
M  V30 5009 H 462.787 -3.37993 -3.13205 0
M  V30 5010 H 461.102 -2.94453 -2.94425 0
M  V30 5011 H 463.699 -1.29926 -5.18675 0
M  V30 5012 H 464.042 0.0730761 -4.16236 0
M  V30 5013 H 464.575 -1.55074 -3.66329 0
M  V30 5014 H 461.314 -4.23009 -5.00743 0
M  V30 5015 H 460.834 -2.56805 -5.42044 0
M  V30 5016 H 462.513 -3.10441 -5.67658 0
M  V30 5017 N 462.645 1.35699 -0.801477 0
M  V30 5018 C 463.87 2.03687 -0.390678 0
M  V30 5019 C 464.295 1.60015 0.988778 0
M  V30 5020 O 463.653 0.774357 1.63931 0
M  V30 5021 C 463.701 3.57439 -0.476404 0
M  V30 5022 O 462.805 4.09208 0.512106 0
M  V30 5023 H 462.146 0.64344 -0.163956 0
M  V30 5024 H 464.676 1.73403 -1.08594 0
M  V30 5025 H 464.686 4.06544 -0.344357 0
M  V30 5026 H 463.361 3.88576 -1.48262 0
M  V30 5027 H 461.938 3.7134 0.340721 0
M  V30 5028 N 464.123 0.554532 1.47522 0
M  V30 5029 C 465.055 -0.232106 2.28022 0
M  V30 5030 C 466.068 -0.881865 1.36847 0
M  V30 5031 O 467.257 -0.756168 1.61692 0
M  V30 5032 C 464.357 -1.34604 3.11022 0
M  V30 5033 C 463.53 -0.793582 4.30141 0
M  V30 5034 C 462.589 -1.79168 4.94758 0
M  V30 5035 O 461.615 -1.33886 5.5323 0
M  V30 5036 N 462.817 -3.12495 4.89211 0
M  V30 5037 H 465.582 0.458407 2.96173 0
M  V30 5038 H 463.143 0.390433 1.57122 0
M  V30 5039 H 465.135 -2.01243 3.51118 0
M  V30 5040 H 463.705 -1.93983 2.45131 0
M  V30 5041 H 462.925 0.0495025 3.94169 0
M  V30 5042 H 464.213 -0.403776 5.07195 0
M  V30 5043 H 463.611 -3.51931 4.42901 0
M  V30 5044 H 462.168 -3.74698 5.33333 0
M  V30 5045 N 465.601 -1.54893 0.290851 0
M  V30 5046 C 466.849 -1.99538 -0.320756 0
M  V30 5047 C 467.17 -1.18075 -1.55188 0
M  V30 5048 O 466.44 -0.274162 -1.93972 0
M  V30 5049 H 465.02 -0.737052 -0.121507 0
M  V30 5050 H 467.682 -1.90755 0.399832 0
M  V30 5051 H 466.778 -3.06282 -0.599802 0
M  V30 5052 N 467.08 -0.0183926 -1.57589 0
M  V30 5053 C 467.99 0.982943 -2.13015 0
M  V30 5054 C 469.006 1.36443 -1.07979 0
M  V30 5055 O 470.182 1.44802 -1.3998 0
M  V30 5056 C 467.247 2.25024 -2.63752 0
M  V30 5057 C 466.308 1.93018 -3.83461 0
M  V30 5058 C 465.541 3.13706 -4.31769 0
M  V30 5059 O 465.764 4.2601 -3.79305 0
M  V30 5060 O 464.698 2.96629 -5.23732 0
M  V30 5061 H 468.524 0.541709 -2.9883 0
M  V30 5062 H 466.109 0.201565 -1.48034 0
M  V30 5063 H 467.991 2.99441 -2.96502 0
M  V30 5064 H 466.666 2.68349 -1.81026 0
M  V30 5065 H 465.573 1.16019 -3.55655 0
M  V30 5066 H 466.906 1.54516 -4.67317 0
M  V30 5067 N 468.558 1.5553 0.254621 0
M  V30 5068 C 469.786 1.81046 1.00149 0
M  V30 5069 C 470.201 0.593047 1.79244 0
M  V30 5070 O 469.558 -0.438196 1.77161 0
M  V30 5071 C 469.609 3.04684 1.94551 0
M  V30 5072 O 469.33 4.21725 1.18658 0
M  V30 5073 C 470.831 3.42943 2.80901 0
M  V30 5074 H 468.051 0.602653 0.295044 0
M  V30 5075 H 470.595 2.02576 0.279842 0
M  V30 5076 H 468.75 2.85226 2.62154 0
M  V30 5077 H 469.164 4.91746 1.82445 0
M  V30 5078 H 470.638 4.32576 3.42902 0
M  V30 5079 H 471.115 2.63176 3.51617 0
M  V30 5080 H 471.721 3.64724 2.18762 0
M  V30 5081 N 470.036 -0.519951 1.48776 0
M  V30 5082 C 471.264 -1.29971 1.60982 0
M  V30 5083 C 471.679 -1.86803 0.273885 0
M  V30 5084 O 471.036 -1.66904 -0.738193 0
M  V30 5085 C 471.087 -2.44346 2.66415 0
M  V30 5086 O 470.808 -1.89855 3.94825 0
M  V30 5087 C 472.309 -3.36014 2.89153 0
M  V30 5088 H 469.529 -0.394891 0.542496 0
M  V30 5089 H 472.073 -0.626214 1.94676 0
M  V30 5090 H 470.228 -3.07562 2.35552 0
M  V30 5091 H 470.642 -2.64798 4.5275 0
M  V30 5092 H 472.116 -4.12593 3.66703 0
M  V30 5093 H 472.593 -3.91859 1.98351 0
M  V30 5094 H 473.199 -2.78582 3.21359 0
M  V30 5095 N 471.514 -1.37532 -0.769588 0
M  V30 5096 C 472.76 -1.33057 -1.53048 0
M  V30 5097 C 473.093 0.0841865 -1.94017 0
M  V30 5098 O 472.368 1.04198 -1.64235 0
M  V30 5099 C 472.651 -2.27166 -2.79406 0
M  V30 5100 C 472.504 -3.77429 -2.44677 0
M  V30 5101 C 473.823 -2.19683 -3.81349 0
M  V30 5102 H 470.942 -0.484655 -0.555228 0
M  V30 5103 H 473.584 -1.68251 -0.882702 0
M  V30 5104 H 471.734 -1.97283 -3.34682 0
M  V30 5105 H 473.406 -4.17918 -1.953 0
M  V30 5106 H 471.649 -3.95892 -1.77346 0
M  V30 5107 H 472.32 -4.38716 -3.35011 0
M  V30 5108 H 474.796 -2.46029 -3.35573 0
M  V30 5109 H 473.672 -2.87668 -4.67481 0
M  V30 5110 H 473.933 -1.19045 -4.25771 0
M  V30 5111 N 472.992 0.995999 -1.22138 0
M  V30 5112 C 473.955 2.06711 -0.990109 0
M  V30 5113 C 474.955 1.60744 0.0422978 0
M  V30 5114 O 476.145 1.73095 -0.195895 0
M  V30 5115 C 473.277 3.37288 -0.49491 0
M  V30 5116 H 474.47 2.28661 -1.94047 0
M  V30 5117 H 472.023 1.16711 -1.03963 0
M  V30 5118 H 472.758 3.21022 0.459948 0
M  V30 5119 H 472.543 3.71986 -1.23971 0
M  V30 5120 H 474.033 4.16103 -0.353253 0
M  V30 5121 N 474.47 1.03057 1.19235 0
M  V30 5122 C 475.695 0.74757 1.93458 0
M  V30 5123 C 476.12 -0.687648 1.7508 0
M  V30 5124 O 475.478 -1.47499 1.05422 0
M  V30 5125 C 475.526 1.10604 3.43219 0
M  V30 5126 O 474.63 0.225671 4.11782 0
M  V30 5127 H 473.971 0.276047 0.603899 0
M  V30 5128 H 476.501 1.3777 1.51263 0
M  V30 5129 H 476.511 1.06366 3.93891 0
M  V30 5130 H 475.186 2.15165 3.55917 0
M  V30 5131 H 473.763 0.326795 3.71465 0
M  V30 5132 N 475.948 -1.35272 0.808662 0
M  V30 5133 C 477.197 -1.97963 0.386483 0
M  V30 5134 C 477.51 -1.64866 -1.05255 0
M  V30 5135 O 478.716 -2.20937 -1.57794 0
M  V30 5136 C 477.172 -3.54162 0.640096 0
M  V30 5137 C 476.78 -3.96166 2.0918 0
M  V30 5138 C 478.524 -4.23553 0.283376 0
M  V30 5139 C 476.431 -5.4522 2.29106 0
M  V30 5140 H 475.361 -0.740742 0.140774 0
M  V30 5141 H 478.012 -1.5431 0.993012 0
M  V30 5142 H 476.394 -3.95983 -0.0364117 0
M  V30 5143 H 477.568 -3.65491 2.80629 0
M  V30 5144 H 475.883 -3.3967 2.40859 0
M  V30 5145 H 478.48 -5.33124 0.410273 0
M  V30 5146 H 478.823 -4.09105 -0.770659 0
M  V30 5147 H 479.356 -3.8716 0.913884 0
M  V30 5148 H 476.095 -5.64638 3.32962 0
M  V30 5149 H 475.615 -5.77457 1.62184 0
M  V30 5150 H 477.294 -6.1171 2.1076 0
M  V30 5151 N 477.426 -0.562348 -1.47226 0
M  V30 5152 C 478.703 0.0256985 -1.95583 0
M  V30 5153 C 479.083 1.48032 -1.50498 0
M  V30 5154 O 478.431 2.15973 -0.746181 0
M  V30 5155 C 478.641 -0.125129 -3.48776 0
M  V30 5156 C 479.989 0.0175728 -4.24596 0
M  V30 5157 O 481.013 -0.0529341 -3.56161 0
M  V30 5158 O 479.872 0.170145 -5.46235 0
M  V30 5159 H 476.966 0.0612565 -0.824728 0
M  V30 5160 H 479.512 -0.629233 -1.57603 0
M  V30 5161 H 478.284 -1.13715 -3.74412 0
M  V30 5162 H 477.907 0.567178 -3.93534 0
M  V30 5163 N 478.904 1.54736 -0.299062 0
M  V30 5164 C 480.181 1.92187 0.363802 0
M  V30 5165 C 480.561 1.22607 1.71845 0
M  V30 5166 O 479.909 0.361141 2.25628 0
M  V30 5167 C 480.119 3.45678 0.480377 0
M  V30 5168 C 481.467 4.17885 0.752147 0
M  V30 5169 O 482.491 3.51702 0.564264 0
M  V30 5170 O 481.35 5.35048 1.11294 0
M  V30 5171 H 478.444 0.801681 0.203066 0
M  V30 5172 H 480.99 1.66115 -0.346978 0
M  V30 5173 H 479.762 3.88443 -0.471999 0
M  V30 5174 H 479.385 3.77779 1.2397 0
M  V30 5175 N 480.382 0.0267497 1.57577 0
M  V30 5176 C 481.345 -0.940916 2.08996 0
M  V30 5177 C 482.345 -1.25561 1.00455 0
M  V30 5178 O 483.535 -1.19634 1.26623 0
M  V30 5179 C 480.667 -2.25814 2.55384 0
M  V30 5180 H 481.86 -0.495628 2.95776 0
M  V30 5181 H 479.413 -0.221241 1.54726 0
M  V30 5182 H 480.148 -2.74976 1.71926 0
M  V30 5183 H 479.933 -2.04285 3.34679 0
M  V30 5184 H 481.423 -2.95178 2.95398 0
M  V30 5185 N 481.861 -1.55662 -0.24637 0
M  V30 5186 C 482.771 -1.93495 -1.32653 0
M  V30 5187 C 483.787 -0.835462 -1.5263 0
M  V30 5188 O 484.963 -1.1369 -1.66242 0
M  V30 5189 C 482.028 -2.22242 -2.66101 0
M  V30 5190 C 481.089 -3.45625 -2.54641 0
M  V30 5191 C 480.322 -3.72991 -3.81724 0
M  V30 5192 O 480.545 -3.02421 -4.8363 0
M  V30 5193 O 479.479 -4.66515 -3.80325 0
M  V30 5194 H 483.305 -2.85498 -1.03559 0
M  V30 5195 H 480.89 -1.42551 -0.44717 0
M  V30 5196 H 482.772 -2.42037 -3.44958 0
M  V30 5197 H 481.447 -1.33417 -2.94926 0
M  V30 5198 H 480.354 -3.31136 -1.74067 0
M  V30 5199 H 481.687 -4.34754 -2.3076 0
M  V30 5200 N 483.339 0.512053 -1.4905 0
M  V30 5201 C 484.249 1.64139 -1.67617 0
M  V30 5202 C 485.265 1.64786 -0.558701 0
M  V30 5203 O 486.441 1.8341 -0.832034 0
M  V30 5204 C 483.506 3.00548 -1.72835 0
M  V30 5205 C 482.567 3.10615 -2.96339 0
M  V30 5206 C 481.8 4.40517 -3.01298 0
M  V30 5207 O 482.023 5.28671 -2.14157 0
M  V30 5208 O 480.957 4.55325 -3.93653 0
M  V30 5209 H 484.783 1.51407 -2.63267 0
M  V30 5210 H 482.368 0.687131 -1.32661 0
M  V30 5211 H 484.25 3.81641 -1.78683 0
M  V30 5212 H 482.925 3.13566 -0.803616 0
M  V30 5213 H 481.832 2.2875 -2.96014 0
M  V30 5214 H 483.165 3.0252 -3.88256 0
M  V30 5215 N 484.817 1.37938 0.762283 0
M  V30 5216 C 485.747 1.37176 1.88958 0
M  V30 5217 C 486.728 0.238945 1.68413 0
M  V30 5218 O 487.913 0.440726 1.89133 0
M  V30 5219 C 485.043 1.18742 3.2637 0
M  V30 5220 C 483.997 2.29136 3.61498 0
M  V30 5221 C 483.323 1.95816 4.97554 0
M  V30 5222 C 484.623 3.71363 3.6727 0
M  V30 5223 H 486.317 2.31509 1.89853 0
M  V30 5224 H 483.863 1.11438 0.912005 0
M  V30 5225 H 485.816 1.16837 4.04879 0
M  V30 5226 H 484.54 0.208683 3.25933 0
M  V30 5227 H 483.199 2.30213 2.85303 0
M  V30 5228 H 482.847 0.964475 4.93667 0
M  V30 5229 H 482.547 2.69745 5.22026 0
M  V30 5230 H 484.071 1.95513 5.78452 0
M  V30 5231 H 485.485 3.72364 4.35911 0
M  V30 5232 H 483.882 4.44425 4.03245 0
M  V30 5233 H 484.952 4.04305 2.67704 0
M  V30 5234 N 486.295 -0.989507 1.22664 0
M  V30 5235 C 487.228 -2.07805 0.942985 0
M  V30 5236 C 488.206 -1.6219 -0.115356 0
M  V30 5237 O 489.39 -1.88492 0.0169565 0
M  V30 5238 C 486.517 -3.361 0.418898 0
M  V30 5239 C 485.563 -4.00643 1.46244 0
M  V30 5240 S 486.396 -4.41059 3.03689 0
M  V30 5241 C 487.552 -5.7252 2.52927 0
M  V30 5242 H 487.785 -2.31547 1.86476 0
M  V30 5243 H 485.318 -1.12446 1.05808 0
M  V30 5244 H 487.276 -4.10315 0.123114 0
M  V30 5245 H 485.937 -3.10383 -0.481818 0
M  V30 5246 H 485.13 -4.93033 1.04569 0
M  V30 5247 H 484.732 -3.32767 1.7071 0
M  V30 5248 H 487.024 -6.49017 1.94379 0
M  V30 5249 H 487.967 -6.19026 3.4382 0
M  V30 5250 H 488.375 -5.30083 1.94094 0
M  V30 5251 N 487.773 -1.03688 -1.18687 0
M  V30 5252 C 488.736 -0.629115 -2.20397 0
M  V30 5253 C 489.736 0.311495 -1.57754 0
M  V30 5254 O 490.926 0.0974107 -1.73927 0
M  V30 5255 C 488.058 0.0782231 -3.4081 0
M  V30 5256 H 489.251 -1.52915 -2.57987 0
M  V30 5257 H 486.804 -0.828988 -1.32505 0
M  V30 5258 H 487.539 0.992233 -3.08748 0
M  V30 5259 H 487.324 -0.597776 -3.87517 0
M  V30 5260 H 488.814 0.350156 -4.16129 0
M  V30 5261 N 489.251 1.34841 -0.815825 0
M  V30 5262 C 490.479 2.0273 -0.413294 0
M  V30 5263 C 490.894 1.61459 0.978599 0
M  V30 5264 O 490.251 0.816584 1.63212 0
M  V30 5265 C 490.302 3.58058 -0.497676 0
M  V30 5266 O 490.023 3.97832 -1.8347 0
M  V30 5267 C 491.524 4.4321 -0.0891339 0
M  V30 5268 H 488.744 0.649956 -0.166728 0
M  V30 5269 H 491.288 1.72267 -1.10201 0
M  V30 5270 H 489.443 3.87136 0.142886 0
M  V30 5271 H 489.857 4.92501 -1.80396 0
M  V30 5272 H 491.331 5.5164 -0.199274 0
M  V30 5273 H 491.808 4.28432 0.966571 0
M  V30 5274 H 492.414 4.19446 -0.703214 0
M  V30 5275 N 490.729 0.570148 1.46925 0
M  V30 5276 C 492.006 -0.0153259 1.95594 0
M  V30 5277 C 492.386 -1.47232 1.51281 0
M  V30 5278 O 491.734 -2.15574 0.757624 0
M  V30 5279 C 491.944 0.143624 3.48704 0
M  V30 5280 C 493.292 0.00494484 4.246 0
M  V30 5281 O 494.316 0.0718214 3.56128 0
M  V30 5282 O 493.175 -0.141175 5.46318 0
M  V30 5283 H 490.269 -0.0568819 0.825041 0
M  V30 5284 H 492.815 0.637583 1.57267 0
M  V30 5285 H 491.587 1.15699 3.73804 0
M  V30 5286 H 491.21 -0.5463 3.93829 0
M  V30 5287 N 492.207 -1.54576 0.307264 0
M  V30 5288 C 493.155 -2.25208 -0.581723 0
M  V30 5289 C 494.149 -1.26031 -1.13192 0
M  V30 5290 O 495.355 -1.43862 -1.08184 0
M  V30 5291 H 491.73 -0.723173 -0.206214 0
M  V30 5292 H 493.701 -2.98378 0.0364663 0
M  V30 5293 C 492.45 -3.01086 -1.73904 0
M  V30 5294 H 491.773 -3.77208 -1.32491 0
M  V30 5295 H 493.213 -3.5378 -2.33701 0
M  V30 5296 C 491.672 -2.08422 -2.64692 0
M  V30 5297 O 492.202 -1.65636 -3.65961 0
M  V30 5298 N 490.408 -1.74247 -2.32564 0
M  V30 5299 H 489.955 -2.09238 -1.50257 0
M  V30 5300 H 489.913 -1.12524 -2.93574 0
M  V30 5301 N 493.685 -0.035106 -1.57561 0
M  V30 5302 C 494.648 0.929819 -2.09492 0
M  V30 5303 C 495.648 1.25026 -1.01119 0
M  V30 5304 O 496.838 1.18961 -1.27255 0
M  V30 5305 C 493.97 2.24457 -2.56577 0
M  V30 5306 H 495.163 0.479935 -2.96035 0
M  V30 5307 H 492.716 0.213033 -1.54841 0
M  V30 5308 H 493.451 2.74061 -1.73382 0
M  V30 5309 H 493.236 2.02508 -3.35757 0
M  V30 5310 H 494.726 2.93607 -2.96959 0
M  V30 5311 N 495.163 1.55791 0.238111 0
M  V30 5312 C 496.41 1.78033 0.964907 0
M  V30 5313 C 496.738 0.600984 1.84982 0
M  V30 5314 O 495.993 -0.41536 1.91241 0
M  V30 5315 C 496.292 3.05869 1.84875 0
M  V30 5316 C 495.958 4.36808 1.11846 0
M  V30 5317 C 494.62 4.72388 0.916662 0
M  V30 5318 C 496.972 5.17717 0.60151 0
M  V30 5319 C 494.3 5.86406 0.185756 0
M  V30 5320 C 496.652 6.32494 -0.115972 0
M  V30 5321 C 495.316 6.66688 -0.329168 0
M  V30 5322 H 494.586 0.651469 0.353085 0
M  V30 5323 H 497.233 1.90061 0.234318 0
M  V30 5324 H 495.538 2.88891 2.64668 0
M  V30 5325 H 497.235 3.20278 2.41294 0
M  V30 5326 H 493.825 4.08862 1.28569 0
M  V30 5327 H 498.009 4.90678 0.744932 0
M  V30 5328 H 493.265 6.11399 0.0101886 0
M  V30 5329 H 497.439 6.94425 -0.524127 0
M  V30 5330 H 495.066 7.54884 -0.897474 0
M  V30 5331 N 496.642 -0.504142 1.49319 0
M  V30 5332 C 497.919 -1.26548 1.49147 0
M  V30 5333 C 498.299 -2.09977 0.21744 0
M  V30 5334 O 497.647 -2.14028 -0.800269 0
M  V30 5335 C 497.857 -2.12489 2.76857 0
M  V30 5336 C 499.205 -2.7178 3.26222 0
M  V30 5337 O 500.229 -2.22758 2.77952 0
M  V30 5338 O 499.088 -3.61015 4.10281 0
M  V30 5339 H 496.182 -0.572495 0.596806 0
M  V30 5340 H 498.728 -0.51867 1.61579 0
M  V30 5341 H 497.5 -1.50796 3.61077 0
M  V30 5342 H 497.123 -2.94368 2.6727 0
M  V30 5343 N 498.12 -1.38341 -0.754957 0
M  V30 5344 C 499.366 -1.34672 -1.51628 0
M  V30 5345 C 499.699 0.0636036 -1.94096 0
M  V30 5346 O 498.974 1.0245 -1.6533 0
M  V30 5347 C 499.257 -2.30116 -2.76981 0
M  V30 5348 C 499.11 -3.80003 -2.4066 0
M  V30 5349 C 500.429 -2.23715 -3.78998 0
M  V30 5350 H 497.548 -0.490517 -0.550056 0
M  V30 5351 H 500.19 -1.69178 -0.864807 0
M  V30 5352 H 498.34 -2.00821 -3.3257 0
M  V30 5353 H 500.012 -4.19966 -1.90856 0
M  V30 5354 H 498.255 -3.97751 -1.73137 0
M  V30 5355 H 498.926 -4.42244 -3.30339 0
M  V30 5356 H 501.402 -2.49574 -3.32945 0
M  V30 5357 H 500.278 -2.9261 -4.64403 0
M  V30 5358 H 500.539 -1.23554 -4.24484 0
M  V30 5359 N 499.598 0.982988 -1.23187 0
M  V30 5360 C 500.528 2.09301 -1.03515 0
M  V30 5361 C 501.509 1.70035 0.0471136 0
M  V30 5362 O 502.694 1.93847 -0.117029 0
M  V30 5363 C 499.824 3.4167 -0.622791 0
M  V30 5364 C 498.778 3.94828 -1.65211 0
M  V30 5365 C 498.104 5.23362 -1.09527 0
M  V30 5366 C 499.404 4.2439 -3.04451 0
M  V30 5367 H 501.098 2.26016 -1.96359 0
M  V30 5368 H 498.644 1.08611 -0.945501 0
M  V30 5369 H 500.597 4.18746 -0.472233 0
M  V30 5370 H 499.321 3.24811 0.341329 0
M  V30 5371 H 497.98 3.19895 -1.79061 0
M  V30 5372 H 497.628 5.02852 -0.122211 0
M  V30 5373 H 497.328 5.59895 -1.783 0
M  V30 5374 H 498.852 6.03062 -0.956511 0
M  V30 5375 H 500.266 4.92225 -2.93917 0
M  V30 5376 H 498.663 4.72118 -3.70438 0
M  V30 5377 H 499.733 3.31765 -3.53638 0
M  V30 5378 N 501.076 1.04316 1.18135 0
M  V30 5379 C 502.324 0.746542 1.87806 0
M  V30 5380 C 502.645 -0.728082 1.80898 0
M  V30 5381 O 501.915 -1.52554 1.22899 0
M  V30 5382 H 500.495 0.273157 0.695265 0
M  V30 5383 H 503.157 1.32044 1.43354 0
M  V30 5384 H 502.253 1.05362 2.93778 0
M  V30 5385 N 502.554 -1.34406 0.822964 0
M  V30 5386 C 503.801 -1.98284 0.411057 0
M  V30 5387 C 504.129 -1.65245 -1.02588 0
M  V30 5388 O 503.384 -0.91619 -1.72929 0
M  V30 5389 C 503.683 -3.52981 0.560268 0
M  V30 5390 C 503.349 -4.05931 1.96293 0
M  V30 5391 C 502.011 -4.20103 2.34664 0
M  V30 5392 C 504.363 -4.34412 2.87985 0
M  V30 5393 C 501.691 -4.60082 3.64062 0
M  V30 5394 C 504.043 -4.75838 4.16847 0
M  V30 5395 C 502.707 -4.88215 4.55195 0
M  V30 5396 H 501.977 -0.725573 0.150416 0
M  V30 5397 H 504.624 -1.60349 1.04692 0
M  V30 5398 H 502.929 -3.91477 -0.158982 0
M  V30 5399 H 504.626 -4.00385 0.222087 0
M  V30 5400 H 501.216 -3.95363 1.65487 0
M  V30 5401 H 505.4 -4.23001 2.59584 0
M  V30 5402 H 500.656 -4.67856 3.93599 0
M  V30 5403 H 504.83 -4.96834 4.87984 0
M  V30 5404 H 502.457 -5.18952 5.55512 0
M  V30 5405 N 504.032 -0.577932 -1.46621 0
M  V30 5406 C 505.26 -0.0671642 -2.06791 0
M  V30 5407 C 505.675 1.23571 -1.42743 0
M  V30 5408 O 505.032 1.74602 -0.531062 0
M  V30 5409 C 505.083 0.110357 -3.61332 0
M  V30 5410 O 504.804 -1.14095 -4.22982 0
M  V30 5411 C 506.305 0.656025 -4.38419 0
M  V30 5412 H 503.525 -0.0552732 -0.66872 0
M  V30 5413 H 506.069 -0.797242 -1.8832 0
M  V30 5414 H 504.224 0.790637 -3.79246 0
M  V30 5415 H 504.638 -0.951742 -5.15793 0
M  V30 5416 H 506.112 0.729438 -5.47159 0
M  V30 5417 H 506.589 1.67195 -4.06131 0
M  V30 5418 H 507.195 0.0107692 -4.25299 0
M  V30 5419 N 505.51 1.54411 -0.315457 0
M  V30 5420 C 506.735 2.05299 0.294496 0
M  V30 5421 C 507.16 1.19052 1.4563 0
M  V30 5422 O 506.518 0.197804 1.80218 0
M  V30 5423 C 506.566 3.5345 0.714549 0
M  V30 5424 O 505.67 3.70175 1.81781 0
M  V30 5425 H 505.011 0.661743 0.0547019 0
M  V30 5426 H 507.541 1.99327 -0.461508 0
M  V30 5427 H 507.551 3.9557 0.999426 0
M  V30 5428 H 506.226 4.1568 -0.135244 0
M  V30 5429 H 504.803 3.3996 1.53236 0
M  V30 5430 N 506.988 0.0434614 1.5754 0
M  V30 5431 C 507.898 -0.94893 2.14552 0
M  V30 5432 C 508.914 -1.34707 1.10136 0
M  V30 5433 O 510.09 -1.42557 1.42266 0
M  V30 5434 C 507.155 -2.208 2.67298 0
M  V30 5435 C 506.216 -1.86893 3.86484 0
M  V30 5436 C 505.449 -3.06797 4.36705 0
M  V30 5437 O 505.672 -4.19921 3.86034 0
M  V30 5438 O 504.606 -2.8826 5.28384 0
M  V30 5439 H 508.432 -0.494099 2.99654 0
M  V30 5440 H 506.017 -0.177989 1.48336 0
M  V30 5441 H 507.899 -2.94686 3.01228 0
M  V30 5442 H 506.574 -2.65436 1.85272 0
M  V30 5443 H 505.481 -1.10347 3.57455 0
M  V30 5444 H 506.814 -1.47062 4.69716 0
M  V30 5445 N 508.466 -1.55915 -0.229846 0
M  V30 5446 C 509.376 -1.94891 -1.30593 0
M  V30 5447 C 510.392 -0.851604 -1.51736 0
M  V30 5448 O 511.568 -1.15447 -1.65027 0
M  V30 5449 C 508.633 -2.25052 -2.63728 0
M  V30 5450 C 507.694 -3.48306 -2.5096 0
M  V30 5451 C 506.927 -3.77019 -3.77747 0
M  V30 5452 O 507.15 -3.07534 -4.80395 0
M  V30 5453 O 506.084 -4.70523 -3.75356 0
M  V30 5454 H 509.91 -2.86581 -1.00525 0
M  V30 5455 H 507.495 -1.43017 -0.432025 0
M  V30 5456 H 509.377 -2.45682 -3.42372 0
M  V30 5457 H 508.052 -1.36538 -2.93495 0
M  V30 5458 H 506.959 -3.32964 -1.70546 0
M  V30 5459 H 508.292 -4.37177 -2.26136 0
M  V30 5460 N 509.944 0.496216 -1.49584 0
M  V30 5461 C 510.891 1.59722 -1.66606 0
M  V30 5462 C 511.861 1.58158 -0.507477 0
M  V30 5463 O 513.046 1.76072 -0.735076 0
M  V30 5464 C 510.186 2.97844 -1.74308 0
M  V30 5465 C 509.299 3.09388 -3.01502 0
M  V30 5466 C 508.434 4.38271 -3.00153 0
M  V30 5467 C 507.473 4.43466 -4.21906 0
M  V30 5468 N 506.61 5.63784 -4.1844 0
M  V30 5469 H 511.45 1.44515 -2.60613 0
M  V30 5470 H 508.987 0.703048 -1.29212 0
M  V30 5471 H 510.945 3.77907 -1.76754 0
M  V30 5472 H 509.575 3.11743 -0.837619 0
M  V30 5473 H 508.627 2.22357 -3.08645 0
M  V30 5474 H 509.939 3.09085 -3.91494 0
M  V30 5475 H 509.093 5.2666 -3.01188 0
M  V30 5476 H 507.832 4.41146 -2.07947 0
M  V30 5477 H 506.837 3.53478 -4.21109 0
M  V30 5478 H 508.062 4.42303 -5.1531 0
M  V30 5479 H 506.008 5.67491 -3.29074 0
M  V30 5480 H 505.925 5.65118 -5.02173 0
M  V30 5481 H 507.193 6.54367 -4.23585 0
M  V30 5482 N 511.423 1.38739 0.74761 0
M  V30 5483 C 512.371 1.36573 1.88283 0
M  V30 5484 C 513.365 0.250712 1.67534 0
M  V30 5485 O 514.571 0.420073 1.7503 0
M  V30 5486 H 510.946 0.42619 0.619569 0
M  V30 5487 H 512.917 2.32356 1.87226 0
M  V30 5488 C 511.666 1.21361 3.25832 0
M  V30 5489 H 510.989 2.06424 3.42388 0
M  V30 5490 H 512.429 1.23901 4.05493 0
M  V30 5491 C 510.888 -0.0790099 3.36807 0
M  V30 5492 O 511.418 -1.05385 3.8763 0
M  V30 5493 N 509.624 -0.13785 2.90273 0
M  V30 5494 H 509.171 0.656128 2.49104 0
M  V30 5495 H 509.129 -1.00228 2.97996 0
M  V30 5496 N 512.901 -0.976442 1.23707 0
M  V30 5497 C 514.126 -1.75875 1.09922 0
M  V30 5498 C 514.551 -1.84911 -0.34489 0
M  V30 5499 O 513.909 -1.31363 -1.24954 0
M  V30 5500 C 513.957 -3.16179 1.73388 0
M  V30 5501 O 513.061 -4.00124 0.99871 0
M  V30 5502 H 512.402 -0.540954 0.385052 0
M  V30 5503 H 514.932 -1.22546 1.6384 0
M  V30 5504 H 514.942 -3.66741 1.78788 0
M  V30 5505 H 513.617 -3.08917 2.78466 0
M  V30 5506 H 512.194 -3.58624 1.02193 0
M  V30 5507 N 514.379 -1.04941 -1.1758 0
M  V30 5508 C 515.312 -0.592518 -2.20373 0
M  V30 5509 C 516.29 0.377561 -1.58156 0
M  V30 5510 O 517.474 0.28978 -1.86259 0
M  V30 5511 C 514.601 0.133215 -3.38438 0
M  V30 5512 C 513.647 -0.791484 -4.19092 0
M  V30 5513 S 514.48 -2.27925 -4.84572 0
M  V30 5514 C 515.636 -1.56462 -6.06028 0
M  V30 5515 H 515.869 -1.46342 -2.58788 0
M  V30 5516 H 513.402 -0.861148 -1.28155 0
M  V30 5517 H 515.36 0.545746 -4.06856 0
M  V30 5518 H 514.021 0.980124 -2.98416 0
M  V30 5519 H 513.214 -0.230039 -5.03475 0
M  V30 5520 H 512.816 -1.14326 -3.56098 0
M  V30 5521 H 515.108 -0.862539 -6.71987 0
M  V30 5522 H 516.051 -2.38583 -6.66696 0
M  V30 5523 H 516.459 -1.05313 -5.5459 0
M  V30 5524 N 515.857 1.33968 -0.830081 0
M  V30 5525 C 517.087 2.01987 -0.434142 0
M  V30 5526 C 517.495 1.62639 0.96671 0
M  V30 5527 O 516.838 0.831151 1.63822 0
M  V30 5528 C 516.9 3.5648 -0.465018 0
M  V30 5529 C 516.564 4.19176 -1.82045 0
M  V30 5530 C 517.561 4.39181 -2.78237 0
M  V30 5531 C 515.246 4.55792 -2.11089 0
M  V30 5532 C 517.24 4.94937 -4.01642 0
M  V30 5533 C 514.927 5.11258 -3.34752 0
M  V30 5534 C 515.925 5.30775 -4.29845 0
M  V30 5535 O 515.613 5.85064 -5.51322 0
M  V30 5536 H 515.345 0.653847 -0.171639 0
M  V30 5537 H 517.899 1.72066 -1.12171 0
M  V30 5538 H 516.129 3.8569 0.279284 0
M  V30 5539 H 517.818 4.05804 -0.0881334 0
M  V30 5540 H 518.584 4.11249 -2.57097 0
M  V30 5541 H 514.463 4.39901 -1.3787 0
M  V30 5542 H 518.007 5.10086 -4.75876 0
M  V30 5543 H 513.904 5.38619 -3.55753 0
M  V30 5544 H 514.672 6.03489 -5.5294 0
M  V30 5545 N 517.335 0.585699 1.46312 0
M  V30 5546 C 518.282 -0.145835 2.30339 0
M  V30 5547 C 519.252 -0.881215 1.40797 0
M  V30 5548 O 520.437 -0.871293 1.69744 0
M  V30 5549 C 517.577 -1.15161 3.25318 0
M  V30 5550 C 516.69 -0.419367 4.2996 0
M  V30 5551 C 515.825 -1.41293 5.12064 0
M  V30 5552 C 514.864 -0.667261 6.08452 0
M  V30 5553 N 514.001 -1.60903 6.83414 0
M  V30 5554 H 518.841 0.576755 2.92365 0
M  V30 5555 H 516.378 0.296237 1.44086 0
M  V30 5556 H 518.336 -1.74763 3.78832 0
M  V30 5557 H 516.966 -1.84188 2.65094 0
M  V30 5558 H 516.018 0.291751 3.7928 0
M  V30 5559 H 517.33 0.163433 4.98532 0
M  V30 5560 H 516.484 -2.08167 5.6987 0
M  V30 5561 H 515.223 -2.02966 4.43459 0
M  V30 5562 H 514.228 0.0152356 5.49798 0
M  V30 5563 H 515.453 -0.0558817 6.79077 0
M  V30 5564 H 513.399 -2.21381 6.17516 0
M  V30 5565 H 513.316 -1.07911 7.48259 0
M  V30 5566 H 514.584 -2.26802 7.45775 0
M  V30 5567 N 518.813 -1.54241 0.323641 0
M  V30 5568 C 519.743 -2.27289 -0.534993 0
M  V30 5569 C 520.724 -1.28087 -1.11927 0
M  V30 5570 O 521.909 -1.56899 -1.14439 0
M  V30 5571 C 519.039 -3.03075 -1.69596 0
M  V30 5572 C 517.993 -4.09614 -1.24098 0
M  V30 5573 C 517.319 -4.73242 -2.4889 0
M  V30 5574 C 518.619 -5.21087 -0.355789 0
M  V30 5575 H 520.313 -2.99308 0.0743257 0
M  V30 5576 H 517.859 -1.43952 0.0371874 0
M  V30 5577 H 519.812 -3.52907 -2.30293 0
M  V30 5578 H 518.536 -2.28673 -2.33187 0
M  V30 5579 H 517.195 -3.60666 -0.656945 0
M  V30 5580 H 516.843 -3.95455 -3.10845 0
M  V30 5581 H 516.543 -5.45209 -2.19138 0
M  V30 5582 H 518.067 -5.25848 -3.10348 0
M  V30 5583 H 519.481 -5.66675 -0.869042 0
M  V30 5584 H 517.878 -5.9991 -0.151045 0
M  V30 5585 H 518.948 -4.81005 0.613339 0
M  V30 5586 N 520.291 -0.0518155 -1.57515 0
M  V30 5587 C 521.519 0.631395 -1.9703 0
M  V30 5588 C 521.934 1.64341 -0.92938 0
M  V30 5589 O 521.291 1.82296 0.0863266 0
M  V30 5590 C 521.342 1.31774 -3.36627 0
M  V30 5591 O 521.063 0.346247 -4.3673 0
M  V30 5592 C 522.564 2.09065 -3.90905 0
M  V30 5593 H 519.784 0.172576 -0.648428 0
M  V30 5594 H 522.328 -0.118306 -2.04158 0
M  V30 5595 H 520.483 2.01867 -3.30649 0
M  V30 5596 H 520.897 0.836226 -5.17791 0
M  V30 5597 H 522.371 2.52508 -4.9086 0
M  V30 5598 H 522.848 2.93908 -3.26366 0
M  V30 5599 H 523.454 1.43882 -4.00223 0
M  V30 5600 N 521.769 1.56035 0.221574 0
M  V30 5601 C 523.017 1.78693 0.944102 0
M  V30 5602 C 523.338 0.620317 1.8487 0
M  V30 5603 O 522.608 -0.362784 1.92512 0
M  V30 5604 H 521.188 0.659082 0.351597 0
M  V30 5605 H 523.85 1.93497 0.233435 0
M  V30 5606 H 522.946 2.70837 1.55093 0
M  V30 5607 N 523.247 -0.488276 1.49845 0
M  V30 5608 C 524.21 -1.57069 1.66919 0
M  V30 5609 C 525.21 -1.51445 0.540479 0
M  V30 5610 O 526.4 -1.5437 0.807188 0
M  V30 5611 C 523.532 -2.96718 1.67844 0
M  V30 5612 H 524.725 -1.43254 2.63474 0
M  V30 5613 H 522.278 -0.713435 1.39068 0
M  V30 5614 H 523.013 -3.15996 0.7292 0
M  V30 5615 H 522.798 -3.02208 2.49826 0
M  V30 5616 H 524.288 -3.75335 1.83066 0
M  V30 5617 N 524.725 -1.39134 -0.740242 0
M  V30 5618 C 525.974 -1.35384 -1.49512 0
M  V30 5619 C 526.287 0.04919 -1.95538 0
M  V30 5620 O 527.493 0.209257 -2.70692 0
M  V30 5621 C 525.949 -2.37812 -2.70136 0
M  V30 5622 C 525.557 -3.83804 -2.31081 0
M  V30 5623 C 527.301 -2.4313 -3.47977 0
M  V30 5624 C 525.208 -4.77886 -3.48395 0
M  V30 5625 H 524.138 -0.503297 -0.561434 0
M  V30 5626 H 526.789 -1.64754 -0.807974 0
M  V30 5627 H 525.171 -2.01505 -3.40899 0
M  V30 5628 H 526.345 -4.29123 -1.67898 0
M  V30 5629 H 524.66 -3.81732 -1.66343 0
M  V30 5630 H 527.257 -3.10614 -4.35228 0
M  V30 5631 H 527.6 -1.45423 -3.90074 0
M  V30 5632 H 528.133 -2.78304 -2.84239 0
M  V30 5633 H 524.872 -5.76836 -3.11353 0
M  V30 5634 H 524.392 -4.3725 -4.10576 0
M  V30 5635 H 526.071 -4.96538 -4.148 0
M  V30 5636 N 526.204 0.969867 -1.24223 0
M  V30 5637 C 527.137 2.06279 -0.975926 0
M  V30 5638 C 528.115 1.62353 0.0895385 0
M  V30 5639 O 529.299 1.88442 -0.0469418 0
M  V30 5640 C 526.426 3.35391 -0.472315 0
M  V30 5641 C 525.472 3.98266 -1.526 0
M  V30 5642 S 526.305 4.36172 -3.10667 0
M  V30 5643 C 527.461 5.68423 -2.62003 0
M  V30 5644 H 527.694 2.28551 -1.90137 0
M  V30 5645 H 525.227 1.10748 -1.07584 0
M  V30 5646 H 527.185 4.10068 -0.188376 0
M  V30 5647 H 525.846 3.1111 0.432378 0
M  V30 5648 H 525.039 4.91307 -1.12399 0
M  V30 5649 H 524.641 3.30009 -1.75983 0
M  V30 5650 H 526.933 6.45842 -2.0468 0
M  V30 5651 H 527.876 6.13478 -3.53625 0
M  V30 5652 H 528.284 5.26928 -2.02502 0
M  V30 5653 N 527.682 1.05563 1.17022 0
M  V30 5654 C 528.632 0.630007 2.19123 0
M  V30 5655 C 529.616 -0.335472 1.57364 0
M  V30 5656 O 530.808 -0.1521 1.76345 0
M  V30 5657 C 527.937 0.0101676 3.43298 0
M  V30 5658 C 527.023 0.999698 4.12149 0
M  V30 5659 N 527.414 2.17251 4.56766 0
M  V30 5660 C 525.712 0.829 4.38228 0
M  V30 5661 C 526.413 2.79883 5.09942 0
M  V30 5662 N 525.389 2.07656 5.02374 0
M  V30 5663 H 529.191 1.52353 2.51328 0
M  V30 5664 H 526.705 0.926288 1.33393 0
M  V30 5665 H 528.702 -0.312541 4.15727 0
M  V30 5666 H 527.362 -0.878707 3.12584 0
M  V30 5667 H 528.373 2.55067 4.50734 0
M  V30 5668 H 525.05 -0.00850974 4.17499 0
M  V30 5669 H 526.44 3.79362 5.54558 0
M  V30 5670 N 529.16 -1.33526 0.837174 0
M  V30 5671 C 530.407 -1.97837 0.432064 0
M  V30 5672 C 530.735 -1.66324 -1.00829 0
M  V30 5673 O 529.99 -0.93448 -1.71948 0
M  V30 5674 C 530.289 -3.52367 0.597675 0
M  V30 5675 C 529.955 -4.03826 2.00587 0
M  V30 5676 C 528.617 -4.1759 2.39106 0
M  V30 5677 C 530.969 -4.31333 2.92576 0
M  V30 5678 C 528.297 -4.56195 3.68921 0
M  V30 5679 C 530.649 -4.7139 4.2187 0
M  V30 5680 C 529.313 -4.8336 4.60347 0
M  V30 5681 H 528.583 -0.723937 0.158104 0
M  V30 5682 H 531.23 -1.5923 1.06387 0
M  V30 5683 H 529.535 -3.91624 -0.117452 0
M  V30 5684 H 531.232 -4.00126 0.26454 0
M  V30 5685 H 527.822 -3.93586 1.69671 0
M  V30 5686 H 532.006 -4.20224 2.64056 0
M  V30 5687 H 527.262 -4.63655 3.9854 0
M  V30 5688 H 531.436 -4.91631 4.93226 0
M  V30 5689 H 529.063 -5.1303 5.60985 0
M  V30 5690 N 530.638 -0.59345 -1.46 0
M  V30 5691 C 531.886 -0.082988 -2.0193 0
M  V30 5692 C 532.207 1.28569 -1.46612 0
M  V30 5693 O 531.477 1.84629 -0.654909 0
M  V30 5694 H 530.057 -0.0276882 -0.746487 0
M  V30 5695 H 532.719 -0.771657 -1.78973 0
M  V30 5696 H 531.815 -0.022079 -3.12092 0
M  V30 5697 N 532.116 1.54067 -0.331816 0
M  V30 5698 C 533.064 2.26105 0.54582 0
M  V30 5699 C 534.058 1.27816 1.11173 0
M  V30 5700 O 535.264 1.45565 1.05882 0
M  V30 5701 H 531.639 0.726363 0.194683 0
M  V30 5702 H 533.61 2.98282 -0.083931 0
M  V30 5703 C 532.359 3.03814 1.69092 0
M  V30 5704 H 531.682 3.79269 1.26473 0
M  V30 5705 H 533.122 3.57453 2.28043 0
M  V30 5706 C 531.581 2.12606 2.61343 0
M  V30 5707 O 532.111 1.71437 3.6328 0
M  V30 5708 N 530.317 1.77925 2.29763 0
M  V30 5709 H 529.864 2.11602 1.46909 0
M  V30 5710 H 529.822 1.1718 2.91747 0
M  V30 5711 N 533.594 0.0601682 1.57485 0
M  V30 5712 C 534.527 -0.94676 2.07634 0
M  V30 5713 C 535.505 -1.29837 0.978826 0
M  V30 5714 O 536.689 -1.40969 1.2514 0
M  V30 5715 C 533.816 -2.25822 2.52433 0
M  V30 5716 C 532.862 -2.05901 3.73507 0
M  V30 5717 S 533.695 -1.32907 5.18745 0
M  V30 5718 C 534.851 -2.65356 5.66866 0
M  V30 5719 H 535.084 -0.520003 2.92717 0
M  V30 5720 H 532.617 -0.152319 1.53647 0
M  V30 5721 H 534.575 -3.01201 2.78905 0
M  V30 5722 H 533.236 -2.65624 1.67639 0
M  V30 5723 H 532.429 -3.02929 4.02803 0
M  V30 5724 H 532.031 -1.38659 3.47347 0
M  V30 5725 H 534.323 -3.61492 5.73001 0
M  V30 5726 H 535.266 -2.40685 6.6594 0
M  V30 5727 H 535.674 -2.72028 4.94632 0
M  V30 5728 N 535.072 -1.5615 -0.213296 0
M  V30 5729 C 536.019 -1.93086 -1.26437 0
M  V30 5730 C 536.989 -0.789086 -1.4616 0
M  V30 5731 O 538.174 -1.04569 -1.59593 0
M  V30 5732 C 535.314 -2.26003 -2.608 0
M  V30 5733 C 534.427 -3.53156 -2.48807 0
M  V30 5734 C 533.562 -3.7548 -3.7575 0
M  V30 5735 C 532.601 -4.96119 -3.58514 0
M  V30 5736 N 531.738 -5.14791 -4.77425 0
M  V30 5737 H 536.578 -2.82707 -0.942376 0
M  V30 5738 H 534.115 -1.39919 -0.454001 0
M  V30 5739 H 536.073 -2.431 -3.39055 0
M  V30 5740 H 534.703 -1.39546 -2.91079 0
M  V30 5741 H 533.755 -3.44207 -1.61944 0
M  V30 5742 H 535.067 -4.41565 -2.31996 0
M  V30 5743 H 534.221 -3.92718 -4.62447 0
M  V30 5744 H 532.96 -2.85368 -3.95495 0
M  V30 5745 H 531.965 -4.78823 -2.70201 0
M  V30 5746 H 533.19 -5.87724 -3.40231 0
M  V30 5747 H 531.136 -4.27623 -4.97468 0
M  V30 5748 H 531.053 -5.97347 -4.63371 0
M  V30 5749 H 532.321 -5.36471 -5.65525 0
M  V30 5750 N 536.55 0.480323 -1.50102 0
M  V30 5751 C 537.797 1.23307 -1.60629 0
M  V30 5752 C 538.125 1.92135 -0.302375 0
M  V30 5753 O 537.38 1.82321 0.711154 0
M  V30 5754 C 537.679 2.30708 -2.72963 0
M  V30 5755 C 537.345 1.79195 -4.13763 0
M  V30 5756 C 536.007 1.64867 -4.52076 0
M  V30 5757 C 538.359 1.40878 -5.018 0
M  V30 5758 C 535.687 1.10631 -5.76175 0
M  V30 5759 C 538.039 0.880872 -6.26437 0
M  V30 5760 C 536.703 0.724146 -6.6356 0
M  V30 5761 H 535.973 0.451211 -0.587784 0
M  V30 5762 H 538.62 0.53051 -1.84005 0
M  V30 5763 H 536.925 3.06834 -2.43639 0
M  V30 5764 H 538.622 2.88692 -2.78313 0
M  V30 5765 H 535.212 1.91313 -3.83533 0
M  V30 5766 H 539.396 1.50786 -4.7284 0
M  V30 5767 H 534.652 0.972263 -6.0362 0
M  V30 5768 H 538.826 0.575269 -6.9402 0
M  V30 5769 H 536.453 0.301722 -7.59601 0
M  V30 5770 N 538.028 1.39524 0.732853 0
M  V30 5771 C 538.975 1.38416 1.84688 0
M  V30 5772 C 539.945 0.243539 1.64305 0
M  V30 5773 O 541.13 0.438979 1.85681 0
M  V30 5774 C 538.27 1.23555 3.22224 0
M  V30 5775 C 537.383 2.47179 3.54298 0
M  V30 5776 C 536.518 2.2489 4.81246 0
M  V30 5777 C 535.557 3.44178 5.0617 0
M  V30 5778 N 534.694 3.21192 6.24323 0
M  V30 5779 H 539.534 2.33645 1.84971 0
M  V30 5780 H 537.071 1.16059 0.903804 0
M  V30 5781 H 539.029 1.12949 4.0162 0
M  V30 5782 H 537.659 0.31954 3.21215 0
M  V30 5783 H 536.711 2.68379 2.69587 0
M  V30 5784 H 538.023 3.36022 3.68633 0
M  V30 5785 H 537.177 2.11538 5.68627 0
M  V30 5786 H 535.916 1.33443 4.69089 0
M  V30 5787 H 534.921 3.58025 4.17251 0
M  V30 5788 H 536.146 4.36528 5.20212 0
M  V30 5789 H 534.092 2.32413 6.1345 0
M  V30 5790 H 534.009 4.03594 6.39256 0
M  V30 5791 H 535.277 3.1154 7.14537 0
M  V30 5792 N 539.506 -0.963266 1.24736 0
M  V30 5793 C 540.436 -2.07628 1.06832 0
M  V30 5794 C 541.417 -1.70088 -0.0200566 0
M  V30 5795 O 542.602 -1.93636 0.147854 0
M  V30 5796 C 539.732 -3.40636 0.677069 0
M  V30 5797 C 538.686 -3.9215 1.71471 0
M  V30 5798 C 538.012 -5.21553 1.1784 0
M  V30 5799 C 539.312 -4.19493 3.11164 0
M  V30 5800 H 541.006 -2.22864 1.9993 0
M  V30 5801 H 538.552 -1.07093 0.96266 0
M  V30 5802 H 540.505 -4.17941 0.538792 0
M  V30 5803 H 539.229 -3.25313 -0.289612 0
M  V30 5804 H 537.888 -3.17005 1.84128 0
M  V30 5805 H 537.536 -5.02593 0.202195 0
M  V30 5806 H 537.236 -5.56988 1.87185 0
M  V30 5807 H 538.76 -6.01463 1.05233 0
M  V30 5808 H 540.174 -4.87487 3.01711 0
M  V30 5809 H 538.571 -4.66165 3.77902 0
M  V30 5810 H 539.641 -3.26097 3.58871 0
M  V30 5811 N 540.985 -1.06182 -1.16461 0
M  V30 5812 C 541.932 -0.671613 -2.20812 0
M  V30 5813 C 542.902 0.331186 -1.62765 0
M  V30 5814 O 544.087 0.22033 -1.89524 0
M  V30 5815 C 541.227 -0.063029 -3.45042 0
M  V30 5816 C 540.34 -1.11587 -4.1734 0
M  V30 5817 C 539.475 -0.473546 -5.29085 0
M  V30 5818 C 538.514 -1.51 -5.93182 0
M  V30 5819 N 537.651 -0.891118 -6.96422 0
M  V30 5820 H 542.491 -1.56589 -2.53542 0
M  V30 5821 H 540.028 -0.782951 -1.24532 0
M  V30 5822 H 541.986 0.307344 -4.16066 0
M  V30 5823 H 540.616 0.794663 -3.12866 0
M  V30 5824 H 539.668 -1.60396 -3.44931 0
M  V30 5825 H 540.98 -1.90221 -4.61104 0
M  V30 5826 H 540.134 -0.0501432 -6.06679 0
M  V30 5827 H 538.873 0.344687 -4.8648 0
M  V30 5828 H 537.878 -1.94331 -5.14311 0
M  V30 5829 H 539.103 -2.33031 -6.37866 0
M  V30 5830 H 537.049 -0.0935753 -6.55933 0
M  V30 5831 H 536.966 -1.61486 -7.38551 0
M  V30 5832 H 538.234 -0.492822 -7.77941 0
M  V30 5833 N 542.463 1.3308 -0.844243 0
M  V30 5834 C 543.395 2.27954 -0.238671 0
M  V30 5835 C 544.408 1.51978 0.583665 0
M  V30 5836 O 545.597 1.73731 0.409857 0
M  V30 5837 C 542.697 3.31963 0.682185 0
M  V30 5838 C 541.87 4.37281 -0.101998 0
M  V30 5839 C 540.929 5.20928 0.743022 0
M  V30 5840 O 539.955 5.68914 0.180285 0
M  V30 5841 N 541.157 5.42738 2.0595 0
M  V30 5842 H 543.922 2.8056 -1.05386 0
M  V30 5843 H 541.483 1.4583 -0.70322 0
M  V30 5844 H 543.475 3.84828 1.25259 0
M  V30 5845 H 542.045 2.79594 1.39808 0
M  V30 5846 H 541.265 3.84843 -0.853802 0
M  V30 5847 H 542.553 5.04746 -0.641015 0
M  V30 5848 H 541.951 5.05463 2.54016 0
M  V30 5849 H 540.508 5.98639 2.57827 0
M  V30 5850 N 543.941 0.601185 1.45683 0
M  V30 5851 C 545.357 0.264315 1.57396 0
M  V30 5852 C 545.557 -1.23324 1.59353 0
M  V30 5853 O 544.613 -2.01594 1.52039 0
M  V30 5854 C 545.926 0.929839 2.85962 0
M  V30 5855 C 547.474 0.905156 2.99626 0
M  V30 5856 C 547.949 1.55057 4.30954 0
M  V30 5857 N 549.44 1.51576 4.37697 0
M  V30 5858 C 550.175 1.98436 5.37969 0
M  V30 5859 N 549.671 2.53352 6.44813 0
M  V30 5860 N 551.464 1.89242 5.29286 0
M  V30 5861 H 543.615 1.57363 1.42656 0
M  V30 5862 H 545.878 0.658831 0.681649 0
M  V30 5863 H 545.584 1.98404 2.90394 0
M  V30 5864 H 545.458 0.449224 3.74515 0
M  V30 5865 H 547.845 -0.14048 2.94765 0
M  V30 5866 H 547.926 1.42397 2.12501 0
M  V30 5867 H 547.57 2.5955 4.36573 0
M  V30 5868 H 547.5 1.00682 5.16886 0
M  V30 5869 H 549.991 1.11452 3.61091 0
M  V30 5870 H 550.304 2.86918 7.17564 0
M  V30 5871 H 548.649 2.57388 6.45582 0
M  V30 5872 H 551.84 1.46083 4.44722 0
M  V30 5873 H 552.013 2.26075 6.07284 0
M  V30 5874 N 545.419 -1.53889 0.339982 0
M  V30 5875 C 546.329 -2.28604 -0.526988 0
M  V30 5876 C 547.345 -1.33578 -1.11503 0
M  V30 5877 O 548.521 -1.66612 -1.13148 0
M  V30 5878 C 545.586 -3.04164 -1.66389 0
M  V30 5879 C 544.647 -4.14809 -1.10599 0
M  V30 5880 C 543.88 -4.86756 -2.18871 0
M  V30 5881 O 544.103 -4.58343 -3.39526 0
M  V30 5882 O 543.037 -5.73289 -1.83366 0
M  V30 5883 H 546.863 -3.03594 0.0802707 0
M  V30 5884 H 544.448 -1.4903 0.105141 0
M  V30 5885 H 546.33 -3.51427 -2.32544 0
M  V30 5886 H 545.005 -2.32035 -2.25703 0
M  V30 5887 H 543.912 -3.71857 -0.409067 0
M  V30 5888 H 545.245 -4.89029 -0.557771 0
M  V30 5889 N 546.897 -0.0685191 -1.57451 0
M  V30 5890 C 547.807 0.914677 -2.16034 0
M  V30 5891 C 548.823 1.32938 -1.12265 0
M  V30 5892 O 549.999 1.40275 -1.44516 0
M  V30 5893 C 547.064 2.16519 -2.70777 0
M  V30 5894 C 546.125 1.80721 -3.89408 0
M  V30 5895 C 545.358 2.9981 -4.41531 0
M  V30 5896 O 545.581 4.13727 -3.92666 0
M  V30 5897 O 544.515 2.79817 -5.32903 0
M  V30 5898 H 548.341 0.446364 -3.00402 0
M  V30 5899 H 545.926 0.154367 -1.486 0
M  V30 5900 H 547.808 2.89856 -3.05878 0
M  V30 5901 H 546.483 2.62454 -1.89471 0
M  V30 5902 H 545.39 1.04646 -3.59166 0
M  V30 5903 H 546.723 1.39571 -4.71997 0
M  V30 5904 N 548.375 1.56261 0.205012 0
M  V30 5905 C 549.307 1.90266 1.27795 0
M  V30 5906 C 550.32 0.792397 1.42214 0
M  V30 5907 O 551.509 1.07077 1.42817 0
M  V30 5908 C 548.609 2.11074 2.65143 0
M  V30 5909 C 547.782 3.42176 2.7246 0
M  V30 5910 C 546.841 3.52216 3.90936 0
M  V30 5911 O 545.867 4.25119 3.78501 0
M  V30 5912 N 547.069 2.84573 5.05963 0
M  V30 5913 H 549.834 2.82896 0.989434 0
M  V30 5914 H 547.395 1.57008 0.394981 0
M  V30 5915 H 549.387 2.15089 3.4281 0
M  V30 5916 H 547.957 1.2499 2.86524 0
M  V30 5917 H 547.177 3.50116 1.81142 0
M  V30 5918 H 548.465 4.28509 2.74331 0
M  V30 5919 H 547.863 2.25152 5.18963 0
M  V30 5920 H 546.42 2.94228 5.81613 0
M  V30 5921 N 549.853 -0.472356 1.50355 0
M  V30 5922 C 550.816 -1.5529 1.68576 0
M  V30 5923 C 551.816 -1.50863 0.556511 0
M  V30 5924 O 553.006 -1.53505 0.823516 0
M  V30 5925 C 550.138 -2.94921 1.70981 0
M  V30 5926 H 551.331 -1.40451 2.64978 0
M  V30 5927 H 548.884 -0.698645 1.39816 0
M  V30 5928 H 549.619 -3.15204 0.762675 0
M  V30 5929 H 549.404 -2.99541 2.53017 0
M  V30 5930 H 550.894 -3.73372 1.87037 0
M  V30 5931 N 551.331 -1.39911 -0.725443 0
M  V30 5932 C 552.241 -1.41688 -1.8698 0
M  V30 5933 C 553.257 -0.310579 -1.71206 0
M  V30 5934 O 554.433 -0.55359 -1.93642 0
M  V30 5935 C 551.498 -1.26811 -3.22676 0
M  V30 5936 C 550.559 -2.47497 -3.50776 0
M  V30 5937 C 549.792 -2.3332 -4.79997 0
M  V30 5938 O 550.015 -1.34175 -5.54394 0
M  V30 5939 O 548.949 -3.22498 -5.08211 0
M  V30 5940 H 552.775 -2.38171 -1.88436 0
M  V30 5941 H 550.36 -1.21128 -0.874548 0
M  V30 5942 H 552.242 -1.20684 -4.03749 0
M  V30 5943 H 550.917 -0.334289 -3.21969 0
M  V30 5944 H 549.824 -2.59201 -2.69751 0
M  V30 5945 H 551.157 -3.39606 -3.5627 0
M  V30 5946 N 552.809 0.956637 -1.25245 0
M  V30 5947 C 554.22 1.51569 -1.09012 0
M  V30 5948 C 554.571 1.93322 0.334813 0
M  V30 5949 O 553.696 1.78421 1.22454 0
M  V30 5950 C 554.291 2.75444 -1.97271 0
M  V30 5951 C 552.85 3.27669 -1.8523 0
M  V30 5952 C 551.997 2.00517 -1.91542 0
M  V30 5953 H 554.948 0.773746 -1.3856 0
M  V30 5954 H 554.969 3.4919 -1.51151 0
M  V30 5955 H 554.481 2.45024 -3.00973 0
M  V30 5956 H 552.582 3.62914 -0.844045 0
M  V30 5957 H 552.695 3.9582 -2.69932 0
M  V30 5958 H 551.059 2.15727 -1.35404 0
M  V30 5959 H 551.842 1.72448 -2.96844 0
M  V30 5960 N 554.287 1.06798 1.15896 0
M  V30 5961 C 555.564 0.701057 1.82605 0
M  V30 5962 C 555.944 -0.817066 1.94646 0
M  V30 5963 O 555.292 -1.72933 1.49353 0
M  V30 5964 C 555.502 1.40895 3.19296 0
M  V30 5965 C 556.85 1.55744 3.95005 0
M  V30 5966 O 557.874 1.36927 3.28831 0
M  V30 5967 O 556.733 1.86658 5.13635 0
M  V30 5968 H 553.827 0.248791 0.78869 0
M  V30 5969 H 556.373 1.16857 1.23055 0
M  V30 5970 H 555.145 2.4439 3.05596 0
M  V30 5971 H 554.768 0.931847 3.86526 0
M  V30 5972 N 555.766 -1.3263 0.851289 0
M  V30 5973 C 557.014 -1.96978 0.452128 0
M  V30 5974 C 557.335 -1.67715 -0.99482 0
M  V30 5975 O 556.605 -0.98259 -1.69476 0
M  V30 5976 H 555.185 -0.72873 0.164202 0
M  V30 5977 H 557.847 -1.61774 1.08698 0
M  V30 5978 H 556.943 -3.06387 0.594407 0
M  V30 5979 N 557.244 -0.608902 -1.45362 0
M  V30 5980 C 558.472 -0.111013 -2.06602 0
M  V30 5981 C 558.887 1.20516 -1.45332 0
M  V30 5982 O 558.244 1.73437 -0.567978 0
M  V30 5983 C 558.295 0.033688 -3.61484 0
M  V30 5984 O 558.016 -1.23041 -4.20467 0
M  V30 5985 C 559.517 0.562882 -4.39712 0
M  V30 5986 H 556.737 -0.0694453 -0.667397 0
M  V30 5987 H 559.281 -0.837008 -1.86586 0
M  V30 5988 H 557.436 0.710016 -3.80838 0
M  V30 5989 H 557.85 -1.06094 -5.13658 0
M  V30 5990 H 559.324 0.613213 -5.48583 0
M  V30 5991 H 559.801 1.58543 -4.09586 0
M  V30 5992 H 560.407 -0.0794454 -4.25226 0
M  V30 5993 N 558.722 1.53707 -0.348139 0
M  V30 5994 C 559.632 2.28881 0.514857 0
M  V30 5995 C 560.648 1.34168 1.10793 0
M  V30 5996 O 561.824 1.6721 1.12262 0
M  V30 5997 C 558.889 3.05042 1.64774 0
M  V30 5998 C 557.95 4.15389 1.08398 0
M  V30 5999 C 557.183 4.87909 2.16287 0
M  V30 6000 O 557.406 4.60137 3.3709 0
M  V30 6001 O 556.34 5.74254 1.80323 0
M  V30 6002 H 560.166 3.03547 -0.0963699 0
M  V30 6003 H 557.751 1.48972 -0.113043 0
M  V30 6004 H 559.633 3.52656 2.30677 0
M  V30 6005 H 558.308 2.33228 2.24469 0
M  V30 6006 H 557.215 3.72068 0.389341 0
M  V30 6007 H 558.548 4.89318 0.531829 0
M  V30 6008 N 560.2 0.0768682 1.57412 0
M  V30 6009 C 561.11 -0.903207 2.16516 0
M  V30 6010 C 562.126 -1.32341 1.12968 0
M  V30 6011 O 563.302 -1.39507 1.45258 0
M  V30 6012 C 560.367 -2.1508 2.71922 0
M  V30 6013 C 559.428 -1.78653 3.90361 0
M  V30 6014 C 558.661 -2.97465 4.43114 0
M  V30 6015 O 558.884 -4.11638 3.94854 0
M  V30 6016 O 557.818 -2.76987 5.3438 0
M  V30 6017 H 561.644 -0.430427 3.00634 0
M  V30 6018 H 559.229 -0.146485 1.4868 0
M  V30 6019 H 561.111 -2.8823 3.07411 0
M  V30 6020 H 559.786 -2.61446 1.9086 0
M  V30 6021 H 558.693 -1.0274 3.59716 0
M  V30 6022 H 560.026 -1.37066 4.7273 0
M  V30 6023 N 561.678 -1.56367 -0.196722 0
M  V30 6024 C 562.641 -1.93561 -1.22746 0
M  V30 6025 C 563.641 -0.816566 -1.38524 0
M  V30 6026 O 564.831 -1.084 -1.36363 0
M  V30 6027 C 561.963 -2.20823 -2.59712 0
M  V30 6028 H 563.156 -2.85774 -0.909586 0
M  V30 6029 H 560.709 -1.50032 -0.438174 0
M  V30 6030 H 561.444 -1.31243 -2.96557 0
M  V30 6031 H 561.229 -3.02368 -2.49632 0
M  V30 6032 H 562.719 -2.50608 -3.34044 0
M  V30 6033 N 563.156 0.464375 -1.50603 0
M  V30 6034 C 564.433 1.22549 -1.5245 0
M  V30 6035 C 564.813 2.09327 -0.273035 0
M  V30 6036 O 564.161 2.16074 0.743242 0
M  V30 6037 C 564.371 2.05074 -2.82393 0
M  V30 6038 C 565.719 2.63036 -3.33313 0
M  V30 6039 O 566.743 2.1531 -2.8376 0
M  V30 6040 O 565.602 3.5001 -4.19709 0
M  V30 6041 H 562.696 0.556471 -0.611775 0
M  V30 6042 H 565.242 0.475648 -1.62898 0
M  V30 6043 H 564.014 1.41169 -3.64948 0
M  V30 6044 H 563.637 2.87179 -2.7498 0
M  V30 6045 N 564.634 1.40294 0.718013 0
M  V30 6046 C 565.581 1.40367 1.8321 0
M  V30 6047 C 566.551 0.260952 1.64037 0
M  V30 6048 O 567.736 0.458648 1.85205 0
M  V30 6049 C 564.876 1.26965 3.20895 0
M  V30 6050 C 563.989 2.50922 3.51656 0
M  V30 6051 C 563.124 2.29981 4.78834 0
M  V30 6052 C 562.163 3.49527 5.02491 0
M  V30 6053 N 561.3 3.27796 6.20882 0
M  V30 6054 H 566.14 2.35593 1.82482 0
M  V30 6055 H 563.677 1.17012 0.891444 0
M  V30 6056 H 565.635 1.17202 4.00399 0
M  V30 6057 H 564.265 0.353591 3.20858 0
M  V30 6058 H 563.317 2.71223 2.66725 0
M  V30 6059 H 564.629 3.39913 3.65048 0
M  V30 6060 H 563.783 2.17558 5.66351 0
M  V30 6061 H 562.522 1.38411 4.67647 0
M  V30 6062 H 561.527 3.6243 4.1343 0
M  V30 6063 H 562.752 4.42021 5.15553 0
M  V30 6064 H 560.698 2.38906 6.1095 0
M  V30 6065 H 560.615 4.10351 6.34939 0
M  V30 6066 H 561.883 3.19101 7.11193 0
M  V30 6067 N 566.112 -0.949982 1.2575 0
M  V30 6068 C 567.337 -1.73503 1.13628 0
M  V30 6069 C 567.762 -1.85601 -0.30559 0
M  V30 6070 O 567.12 -1.33984 -1.22139 0
M  V30 6071 C 567.168 -3.1243 1.80055 0
M  V30 6072 O 566.272 -3.97916 1.08336 0
M  V30 6073 H 565.613 -0.532665 0.396439 0
M  V30 6074 H 568.143 -1.19043 1.66403 0
M  V30 6075 H 568.153 -3.62866 1.86527 0
M  V30 6076 H 566.828 -3.02941 2.84956 0
M  V30 6077 H 565.405 -3.56375 1.09777 0
M  V30 6078 N 567.59 -1.07411 -1.15328 0
M  V30 6079 C 568.553 -0.698914 -2.18284 0
M  V30 6080 C 569.553 0.261149 -1.58665 0
M  V30 6081 O 570.743 0.0420277 -1.74149 0
M  V30 6082 C 567.875 -0.0302427 -3.40887 0
M  V30 6083 H 569.068 -1.61045 -2.52991 0
M  V30 6084 H 566.621 -0.870724 -1.298 0
M  V30 6085 H 567.356 0.893505 -3.11748 0
M  V30 6086 H 567.141 -0.720759 -3.85419 0
M  V30 6087 H 568.631 0.21759 -4.17033 0
M  V30 6088 N 569.068 1.32177 -0.85831 0
M  V30 6089 C 570.298 2.01021 -0.476889 0
M  V30 6090 C 570.706 1.64653 0.931995 0
M  V30 6091 O 570.049 0.865713 1.62022 0
M  V30 6092 C 570.111 3.55413 -0.540528 0
M  V30 6093 C 569.775 4.1522 -1.90895 0
M  V30 6094 C 570.772 4.3318 -2.87491 0
M  V30 6095 C 568.457 4.51212 -2.20709 0
M  V30 6096 C 570.451 4.86306 -4.1205 0
M  V30 6097 C 568.138 5.04042 -3.45521 0
M  V30 6098 C 569.136 5.21538 -4.41007 0
M  V30 6099 O 568.824 5.73238 -5.63608 0
M  V30 6100 H 568.556 0.650059 -0.18547 0
M  V30 6101 H 571.11 1.69648 -1.15796 0
M  V30 6102 H 569.34 3.86196 0.19741 0
M  V30 6103 H 571.029 4.05526 -0.174191 0
M  V30 6104 H 571.795 4.05704 -2.65762 0
M  V30 6105 H 567.674 4.36878 -1.4717 0
M  V30 6106 H 571.218 4.99877 -4.86589 0
M  V30 6107 H 567.115 5.30952 -3.67098 0
M  V30 6108 H 567.883 5.91625 -5.65617 0
M  V30 6109 N 570.547 0.616602 1.45037 0
M  V30 6110 C 571.477 -0.0840787 2.33349 0
M  V30 6111 C 572.458 -0.849641 1.4736 0
M  V30 6112 O 573.643 -0.818407 1.76113 0
M  V30 6113 C 570.773 -1.07604 3.3021 0
M  V30 6114 C 569.727 -0.423096 4.25904 0
M  V30 6115 C 569.053 -1.52394 5.12523 0
M  V30 6116 C 570.353 0.661457 5.18095 0
M  V30 6117 H 572.047 0.653333 2.92185 0
M  V30 6118 H 569.593 0.315634 1.40498 0
M  V30 6119 H 571.546 -1.57485 3.90866 0
M  V30 6120 H 570.27 -1.84416 2.69552 0
M  V30 6121 H 568.929 0.05493 3.66559 0
M  V30 6122 H 568.577 -2.28257 4.48227 0
M  V30 6123 H 568.277 -1.09251 5.77354 0
M  V30 6124 H 569.801 -2.02485 5.76049 0
M  V30 6125 H 571.215 0.246353 5.7277 0
M  V30 6126 H 569.612 1.01517 5.91451 0
M  V30 6127 H 570.682 1.53446 4.59981 0
M  V30 6128 N 572.025 -1.5352 0.356285 0
M  V30 6129 C 572.958 -2.2177 -0.537913 0
M  V30 6130 C 573.936 -1.20626 -1.09033 0
M  V30 6131 O 575.12 -1.49494 -1.1482 0
M  V30 6132 C 572.247 -2.90513 -1.74126 0
M  V30 6133 C 571.293 -4.05652 -1.31715 0
M  V30 6134 S 572.126 -5.34505 -0.326236 0
M  V30 6135 C 573.282 -6.06757 -1.53612 0
M  V30 6136 H 573.515 -2.97271 0.0417411 0
M  V30 6137 H 571.048 -1.53761 0.140372 0
M  V30 6138 H 573.006 -3.30735 -2.43155 0
M  V30 6139 H 571.667 -2.14754 -2.29215 0
M  V30 6140 H 570.86 -4.52733 -2.21471 0
M  V30 6141 H 570.462 -3.67272 -0.706183 0
M  V30 6142 H 572.754 -6.30924 -2.46863 0
M  V30 6143 H 573.697 -6.99395 -1.10687 0
M  V30 6144 H 574.105 -5.3708 -1.73796 0
M  V30 6145 N 573.503 -0.0852151 -1.57369 0
M  V30 6146 C 574.751 0.579658 -1.93609 0
M  V30 6147 C 575.072 1.69332 -0.967043 0
M  V30 6148 O 574.342 1.95892 -0.0174215 0
M  V30 6149 H 572.922 0.217113 -0.714752 0
M  V30 6150 H 575.584 -0.146226 -1.94351 0
M  V30 6151 H 574.68 0.996276 -2.95771 0
M  V30 6152 N 574.981 1.5647 0.188427 0
M  V30 6153 C 575.911 1.98101 1.23606 0
M  V30 6154 C 576.892 0.853961 1.47111 0
M  V30 6155 O 578.077 1.11879 1.58735 0
M  V30 6156 C 575.207 2.32624 2.57882 0
M  V30 6157 C 574.161 3.48129 2.48978 0
M  V30 6158 C 573.487 3.68347 3.87588 0
M  V30 6159 C 574.787 4.82112 2.00911 0
M  V30 6160 H 576.481 2.85864 0.890068 0
M  V30 6161 H 574.027 1.37532 0.426714 0
M  V30 6162 H 575.98 2.60343 3.3136 0
M  V30 6163 H 574.704 1.41751 2.94235 0
M  V30 6164 H 573.363 3.20511 1.77956 0
M  V30 6165 H 573.011 2.74793 4.21305 0
M  V30 6166 H 572.711 4.46055 3.82503 0
M  V30 6167 H 574.235 3.98449 4.62678 0
M  V30 6168 H 575.649 5.08819 2.64151 0
M  V30 6169 H 574.046 5.63337 2.06814 0
M  V30 6170 H 575.116 4.75249 0.96262 0
M  V30 6171 N 576.459 -0.456382 1.50847 0
M  V30 6172 C 577.407 -1.57318 1.71329 0
M  V30 6173 C 578.401 -1.59187 0.579287 0
M  V30 6174 O 579.607 -1.6316 0.76018 0
M  V30 6175 H 575.982 -0.5223 0.541024 0
M  V30 6176 H 577.953 -1.3721 2.64983 0
M  V30 6177 C 576.702 -2.95142 1.83811 0
M  V30 6178 H 576.025 -2.94428 2.70467 0
M  V30 6179 H 577.465 -3.72702 2.02161 0
M  V30 6180 C 575.924 -3.31636 0.593224 0
M  V30 6181 O 576.454 -4.00852 -0.260898 0
M  V30 6182 N 574.66 -2.87205 0.442902 0
M  V30 6183 H 574.207 -2.31051 1.13901 0
M  V30 6184 H 574.165 -3.11986 -0.38884 0
M  V30 6185 N 577.937 -1.40673 -0.710563 0
M  V30 6186 C 579.162 -1.42741 -1.50465 0
M  V30 6187 C 579.587 -0.0302116 -1.88076 0
M  V30 6188 O 578.945 0.962945 -1.53613 0
M  V30 6189 C 578.993 -2.32873 -2.75322 0
M  V30 6190 O 578.097 -1.77544 -3.72226 0
M  V30 6191 H 577.438 -0.485056 -0.45345 0
M  V30 6192 H 579.968 -1.84961 -0.874681 0
M  V30 6193 H 579.978 -2.48233 -3.23797 0
M  V30 6194 H 578.653 -3.34401 -2.47283 0
M  V30 6195 H 577.23 -1.71556 -3.31093 0
M  V30 6196 N 579.415 0.9433 -1.26252 0
M  V30 6197 C 580.378 2.02326 -1.07689 0
M  V30 6198 C 581.378 1.60779 -0.0259174 0
M  V30 6199 O 582.568 1.72108 -0.269134 0
M  V30 6200 C 579.7 3.34886 -0.63752 0
M  V30 6201 H 580.893 2.20225 -2.0357 0
M  V30 6202 H 578.446 1.12197 -1.08819 0
M  V30 6203 H 579.181 3.22684 0.323377 0
M  V30 6204 H 578.966 3.66393 -1.39637 0
M  V30 6205 H 580.456 4.14231 -0.529418 0
M  V30 6206 N 580.893 1.08022 1.14757 0
M  V30 6207 C 582.17 0.720386 1.81851 0
M  V30 6208 C 582.55 -0.796375 1.95502 0
M  V30 6209 O 581.898 -1.71339 1.51179 0
M  V30 6210 C 582.108 1.44273 3.17783 0
M  V30 6211 C 583.456 1.59925 3.93331 0
M  V30 6212 O 584.48 1.40407 3.2736 0
M  V30 6213 O 583.339 1.92096 5.11626 0
M  V30 6214 H 580.433 0.257142 0.786007 0
M  V30 6215 H 582.979 1.18155 1.21809 0
M  V30 6216 H 581.751 2.47618 3.02987 0
M  V30 6217 H 581.374 0.97279 3.85516 0
M  V30 6218 N 582.371 -1.3172 0.865308 0
M  V30 6219 C 583.301 -2.31109 0.333302 0
M  V30 6220 C 584.282 -1.60148 -0.573301 0
M  V30 6221 O 585.467 -1.87882 -0.491305 0
M  V30 6222 C 582.597 -3.44104 -0.470078 0
M  V30 6223 C 581.551 -4.26623 0.343021 0
M  V30 6224 C 580.877 -5.31482 -0.585756 0
M  V30 6225 C 582.177 -4.98001 1.57456 0
M  V30 6226 H 583.871 -2.75855 1.1638 0
M  V30 6227 H 581.417 -1.3262 0.561069 0
M  V30 6228 H 583.37 -4.12682 -0.852752 0
M  V30 6229 H 582.094 -2.98112 -1.33404 0
M  V30 6230 H 580.753 -3.59707 0.707583 0
M  V30 6231 H 580.401 -4.81741 -1.44686 0
M  V30 6232 H 580.101 -5.87582 -0.0456494 0
M  V30 6233 H 581.625 -6.0292 -0.965375 0
M  V30 6234 H 583.039 -5.59201 1.26359 0
M  V30 6235 H 581.436 -5.63876 2.05339 0
M  V30 6236 H 582.506 -4.25253 2.32997 0
M  V30 6237 N 583.85 -0.624285 -1.44708 0
M  V30 6238 C 584.779 0.0717025 -2.3339 0
M  V30 6239 C 585.76 0.841814 -1.47809 0
M  V30 6240 O 586.946 0.809056 -1.76544 0
M  V30 6241 C 584.076 1.05852 -3.30776 0
M  V30 6242 C 583.029 0.400503 -4.26122 0
M  V30 6243 C 582.356 1.49674 -5.13324 0
M  V30 6244 C 583.656 -0.688924 -5.17737 0
M  V30 6245 H 585.35 -0.668819 -2.91834 0
M  V30 6246 H 582.896 -0.32308 -1.40329 0
M  V30 6247 H 584.849 1.5541 -3.91696 0
M  V30 6248 H 583.572 1.82984 -2.70526 0
M  V30 6249 H 582.231 -0.0743687 -3.66525 0
M  V30 6250 H 581.88 2.25877 -4.49431 0
M  V30 6251 H 581.58 1.06188 -5.77926 0
M  V30 6252 H 583.104 1.99427 -5.77115 0
M  V30 6253 H 584.518 -0.276724 -5.72632 0
M  V30 6254 H 582.915 -1.04652 -5.90904 0
M  V30 6255 H 583.985 -1.55884 -4.5916 0
M  V30 6256 N 585.328 1.53329 -0.364422 0
M  V30 6257 C 586.275 2.25698 0.482607 0
M  V30 6258 C 587.245 1.26325 1.07848 0
M  V30 6259 O 588.43 1.55104 1.11119 0
M  V30 6260 C 585.57 3.04873 1.61699 0
M  V30 6261 C 584.683 4.19135 1.0464 0
M  V30 6262 C 583.818 4.85754 2.14979 0
M  V30 6263 C 582.857 5.9205 1.5538 0
M  V30 6264 N 581.994 6.52365 2.59547 0
M  V30 6265 H 586.834 2.97666 -0.141032 0
M  V30 6266 H 584.371 1.46875 -0.0813692 0
M  V30 6267 H 586.329 3.49051 2.28516 0
M  V30 6268 H 584.959 2.35162 2.2113 0
M  V30 6269 H 584.011 3.79451 0.268553 0
M  V30 6270 H 585.323 4.95525 0.570653 0
M  V30 6271 H 584.477 5.3311 2.89619 0
M  V30 6272 H 583.216 4.08834 2.65906 0
M  V30 6273 H 582.221 5.44058 0.792549 0
M  V30 6274 H 583.446 6.7089 1.0528 0
M  V30 6275 H 581.392 5.78298 3.09689 0
M  V30 6276 H 581.309 7.2429 2.16655 0
M  V30 6277 H 582.577 7.0437 3.33892 0
M  V30 6278 N 586.806 0.0935595 1.57322 0
M  V30 6279 C 588.054 -0.569383 1.93913 0
M  V30 6280 C 588.375 -1.68817 0.976009 0
M  V30 6281 O 587.645 -1.9588 0.0278099 0
M  V30 6282 H 586.225 -0.21332 0.715894 0
M  V30 6283 H 588.887 0.156531 1.9427 0
M  V30 6284 H 587.983 -0.980577 2.96296 0
M  V30 6285 N 588.284 -1.56567 -0.180126 0
M  V30 6286 C 589.214 -1.98753 -1.22553 0
M  V30 6287 C 590.195 -0.86175 -1.46656 0
M  V30 6288 O 591.38 -1.12719 -1.58139 0
M  V30 6289 C 588.51 -2.33988 -2.56645 0
M  V30 6290 C 587.464 -3.49445 -2.47128 0
M  V30 6291 C 586.79 -3.70397 -3.8563 0
M  V30 6292 C 588.09 -4.83171 -1.98352 0
M  V30 6293 H 589.784 -2.86332 -0.874896 0
M  V30 6294 H 587.33 -1.37757 -0.419414 0
M  V30 6295 H 589.283 -2.62097 -3.29974 0
M  V30 6296 H 588.007 -1.43309 -2.93479 0
M  V30 6297 H 586.666 -3.2145 -1.76254 0
M  V30 6298 H 586.314 -2.77023 -4.19842 0
M  V30 6299 H 586.014 -4.48077 -3.80132 0
M  V30 6300 H 587.538 -4.00897 -4.60558 0
M  V30 6301 H 588.952 -5.10213 -2.61449 0
M  V30 6302 H 587.349 -5.64425 -2.03823 0
M  V30 6303 H 588.419 -4.75753 -0.937402 0
M  V30 6304 N 589.762 0.448376 -1.51087 0
M  V30 6305 C 591.002 1.20832 -1.64861 0
M  V30 6306 C 591.366 1.88748 -0.351873 0
M  V30 6307 O 592.567 2.66307 -0.365265 0
M  V30 6308 C 590.838 2.20674 -2.81137 0
M  V30 6309 S 592.397 3.05303 -3.15176 0
M  V30 6310 H 589.215 0.40992 -0.580936 0
M  V30 6311 H 591.817 0.501624 -1.88955 0
M  V30 6312 H 590.521 1.69399 -3.73808 0
M  V30 6313 H 590.052 2.9594 -2.59198 0
M  V30 6314 H 592.067 4.22162 -2.60756 0
M  V30 6315 N 591.24 1.41047 0.703093 0
M  V30 6316 C 592.19 1.38774 1.80903 0
M  V30 6317 C 593.174 0.263275 1.58731 0
M  V30 6318 O 594.366 0.503362 1.69692 0
M  V30 6319 C 591.495 1.26497 3.19145 0
M  V30 6320 C 590.581 2.43775 3.47037 0
M  V30 6321 N 590.972 3.69249 3.45672 0
M  V30 6322 C 589.27 2.37425 3.77552 0
M  V30 6323 C 589.971 4.46989 3.72258 0
M  V30 6324 N 588.947 3.76998 3.91629 0
M  V30 6325 H 592.749 2.33714 1.78199 0
M  V30 6326 H 590.263 1.34996 0.902762 0
M  V30 6327 H 592.26 1.2295 3.98358 0
M  V30 6328 H 590.92 0.32534 3.23066 0
M  V30 6329 H 591.931 4.02239 3.26228 0
M  V30 6330 H 588.608 1.51895 3.88888 0
M  V30 6331 H 589.998 5.55894 3.77402 0
M  V30 6332 N 592.718 -0.936591 1.26751 0
M  V30 6333 C 594.129 -1.49816 1.1141 0
M  V30 6334 C 594.48 -1.9383 -0.304015 0
M  V30 6335 O 593.605 -1.80346 -1.196 0
M  V30 6336 C 594.2 -2.72271 2.01629 0
M  V30 6337 C 592.759 -3.2468 1.9042 0
M  V30 6338 C 591.906 -1.97444 1.94708 0
M  V30 6339 H 594.857 -0.751604 1.39773 0
M  V30 6340 H 594.878 -3.46741 1.56688 0
M  V30 6341 H 594.39 -2.40205 3.04833 0
M  V30 6342 H 592.491 -3.61525 0.901674 0
M  V30 6343 H 592.604 -3.91476 2.76195 0
M  V30 6344 H 590.968 -2.13545 1.38818 0
M  V30 6345 H 591.751 -1.67703 2.9955 0
M  V30 6346 N 594.196 -1.08629 -1.14182 0
M  V30 6347 C 595.612 -0.814363 -1.3726 0
M  V30 6348 C 595.812 0.575271 -1.93114 0
M  V30 6349 O 594.868 1.33165 -2.1453 0
M  V30 6350 C 596.181 -1.8989 -2.33157 0
M  V30 6351 C 597.729 -1.92518 -2.46791 0
M  V30 6352 C 598.204 -3.00092 -3.45989 0
M  V30 6353 N 599.695 -2.99279 -3.53534 0
M  V30 6354 C 600.43 -3.79158 -4.30147 0
M  V30 6355 N 599.926 -4.68923 -5.09983 0
M  V30 6356 N 601.719 -3.67451 -4.25366 0
M  V30 6357 H 593.87 -1.98232 -0.762758 0
M  V30 6358 H 596.133 -0.860383 -0.398051 0
M  V30 6359 H 595.839 -2.89809 -1.99257 0
M  V30 6360 H 595.713 -1.77013 -3.33086 0
M  V30 6361 H 598.1 -0.932425 -2.79982 0
M  V30 6362 H 598.181 -2.09473 -1.46816 0
M  V30 6363 H 597.825 -3.99575 -3.13532 0
M  V30 6364 H 597.755 -2.80382 -4.45751 0
M  V30 6365 H 600.246 -2.3422 -2.96563 0
M  V30 6366 H 600.559 -5.26475 -5.65724 0
M  V30 6367 H 598.904 -4.72964 -5.09244 0
M  V30 6368 H 602.095 -2.9669 -3.62067 0
M  V30 6369 H 602.268 -4.29944 -4.84822 0
M  V30 6370 N 595.674 1.31259 -0.872281 0
M  V30 6371 C 596.92 1.96913 -0.485083 0
M  V30 6372 C 597.253 1.68774 0.960667 0
M  V30 6373 O 596.528 0.985495 1.67685 0
M  V30 6374 C 596.811 3.52299 -0.745502 0
M  V30 6375 C 596.664 3.90002 -2.24095 0
M  V30 6376 C 597.983 4.39582 -0.213516 0
M  V30 6377 H 595.102 0.715252 -0.177716 0
M  V30 6378 H 597.744 1.55347 -1.09395 0
M  V30 6379 H 595.894 3.87835 -0.227276 0
M  V30 6380 H 597.566 3.64555 -2.82661 0
M  V30 6381 H 595.809 3.38526 -2.71261 0
M  V30 6382 H 596.48 4.98352 -2.37381 0
M  V30 6383 H 598.956 4.10882 -0.656902 0
M  V30 6384 H 597.832 5.47251 -0.42516 0
M  V30 6385 H 598.093 4.33158 0.884666 0
M  V30 6386 N 597.152 0.631951 1.44375 0
M  V30 6387 C 598.099 -0.0724807 2.30686 0
M  V30 6388 C 599.069 -0.835975 1.43529 0
M  V30 6389 O 600.254 -0.816849 1.7243 0
M  V30 6390 C 597.394 -1.04753 3.28817 0
M  V30 6391 C 596.507 -0.282367 4.31076 0
M  V30 6392 C 595.642 -1.2493 5.163 0
M  V30 6393 C 594.681 -0.473349 6.10267 0
M  V30 6394 N 593.818 -1.39079 6.88187 0
M  V30 6395 H 598.658 0.669477 2.90383 0
M  V30 6396 H 596.195 0.341927 1.43071 0
M  V30 6397 H 598.153 -1.62623 3.842 0
M  V30 6398 H 596.783 -1.75661 2.70819 0
M  V30 6399 H 595.835 0.412268 3.78159 0
M  V30 6400 H 597.147 0.321955 4.9776 0
M  V30 6401 H 596.301 -1.89931 5.76204 0
M  V30 6402 H 595.04 -1.88755 4.49692 0
M  V30 6403 H 594.045 0.190142 5.49471 0
M  V30 6404 H 595.27 0.16019 6.78911 0
M  V30 6405 H 593.216 -2.01623 6.24247 0
M  V30 6406 H 593.133 -0.840513 7.51313 0
M  V30 6407 H 594.401 -2.02961 7.52613 0
M  V30 6408 N 598.631 -1.53133 0.372548 0
M  V30 6409 C 599.877 -2.01654 -0.215277 0
M  V30 6410 C 600.21 -1.25914 -1.47849 0
M  V30 6411 O 599.485 -0.3548 -1.91237 0
M  V30 6412 C 599.768 -3.56609 -0.500187 0
M  V30 6413 C 599.621 -4.43036 0.777145 0
M  V30 6414 C 600.94 -4.20528 -1.29786 0
M  V30 6415 H 598.059 -0.732991 -0.0767686 0
M  V30 6416 H 600.701 -1.83335 0.498814 0
M  V30 6417 H 598.851 -3.7235 -1.10852 0
M  V30 6418 H 600.523 -4.39079 1.41447 0
M  V30 6419 H 598.766 -4.10723 1.39604 0
M  V30 6420 H 599.437 -5.49424 0.532662 0
M  V30 6421 H 601.913 -4.08663 -0.783198 0
M  V30 6422 H 600.789 -5.28962 -1.46596 0
M  V30 6423 H 601.05 -3.77051 -2.30836 0
M  V30 6424 N 600.109 -0.101901 -1.5727 0
M  V30 6425 C 601.357 0.559091 -1.94213 0
M  V30 6426 C 601.678 1.68297 -0.984948 0
M  V30 6427 O 600.948 1.95863 -0.0381975 0
M  V30 6428 H 599.528 0.20952 -0.717015 0
M  V30 6429 H 602.19 -0.166831 -1.94185 0
M  V30 6430 H 601.286 0.96485 -2.96811 0
M  V30 6431 N 601.587 1.56661 0.17182 0
M  V30 6432 C 602.535 1.97289 1.23207 0
M  V30 6433 C 603.529 0.861566 1.45854 0
M  V30 6434 O 604.735 1.04668 1.4644 0
M  V30 6435 H 601.11 0.627681 0.41415 0
M  V30 6436 H 603.081 2.85662 0.862542 0
M  V30 6437 C 601.83 2.34849 2.564 0
M  V30 6438 H 601.153 3.19903 2.39797 0
M  V30 6439 H 602.593 2.67121 3.29276 0
M  V30 6440 C 601.052 1.19172 3.15119 0
M  V30 6441 O 601.582 0.479113 3.98833 0
M  V30 6442 N 599.788 0.962415 2.74201 0
M  V30 6443 H 599.335 1.54365 2.06226 0
M  V30 6444 H 599.293 0.190272 3.13824 0
M  V30 6445 N 603.065 -0.440357 1.51323 0
M  V30 6446 C 603.975 -1.55955 1.75258 0
M  V30 6447 C 604.991 -1.61933 0.636687 0
M  V30 6448 O 606.167 -1.79231 0.918593 0
M  V30 6449 C 603.232 -2.9196 1.86977 0
M  V30 6450 C 602.293 -2.96122 3.10822 0
M  V30 6451 C 601.526 -4.2564 3.21973 0
M  V30 6452 O 601.749 -5.17851 2.39137 0
M  V30 6453 O 600.683 -4.36025 4.14929 0
M  V30 6454 H 604.509 -1.38673 2.70191 0
M  V30 6455 H 602.094 -0.623055 1.35788 0
M  V30 6456 H 603.976 -3.72682 1.96688 0
M  V30 6457 H 602.651 -3.09375 0.952307 0
M  V30 6458 H 601.558 -2.14366 3.06591 0
M  V30 6459 H 602.891 -2.83651 4.02247 0
M  V30 6460 N 604.543 -1.41418 -0.695603 0
M  V30 6461 C 605.773 -1.43921 -1.48224 0
M  V30 6462 C 606.181 -0.0428855 -1.89151 0
M  V30 6463 O 605.524 0.948138 -1.5734 0
M  V30 6464 C 605.586 -2.28466 -2.77567 0
M  V30 6465 C 605.25 -3.76629 -2.58844 0
M  V30 6466 C 606.247 -4.6879 -2.24793 0
M  V30 6467 C 603.932 -4.2067 -2.74485 0
M  V30 6468 C 605.926 -6.02981 -2.06622 0
M  V30 6469 C 603.613 -5.54926 -2.55931 0
M  V30 6470 C 604.611 -6.45897 -2.2205 0
M  V30 6471 O 604.299 -7.77675 -2.03657 0
M  V30 6472 H 604.031 -0.492252 -0.463318 0
M  V30 6473 H 606.585 -1.86347 -0.863952 0
M  V30 6474 H 604.815 -1.80853 -3.41802 0
M  V30 6475 H 606.504 -2.2267 -3.39371 0
M  V30 6476 H 607.27 -4.36055 -2.12323 0
M  V30 6477 H 603.149 -3.50167 -2.9984 0
M  V30 6478 H 606.693 -6.73951 -1.80099 0
M  V30 6479 H 602.59 -5.8724 -2.67991 0
M  V30 6480 H 603.358 -7.88819 -2.1842 0
M  V30 6481 N 606.021 0.929856 -1.27246 0
M  V30 6482 C 607.267 1.6798 -1.13625 0
M  V30 6483 C 607.6 1.91586 0.317589 0
M  V30 6484 O 606.875 1.50467 1.23247 0
M  V30 6485 C 607.158 3.04766 -1.91806 0
M  V30 6486 C 607.011 2.88415 -3.45162 0
M  V30 6487 C 608.33 4.05063 -1.72082 0
M  V30 6488 H 605.449 0.609632 -0.414147 0
M  V30 6489 H 608.091 1.0792 -1.56376 0
M  V30 6490 H 606.241 3.56034 -1.55474 0
M  V30 6491 H 607.913 2.44282 -3.91311 0
M  V30 6492 H 606.156 2.23802 -3.71611 0
M  V30 6493 H 606.827 3.85482 -3.95105 0
M  V30 6494 H 609.303 3.62798 -2.03757 0
M  V30 6495 H 608.179 4.98765 -2.29182 0
M  V30 6496 H 608.44 4.37021 -0.668206 0
M  V30 6497 N 607.499 1.09233 1.13605 0
M  V30 6498 C 608.727 0.848908 1.88683 0
M  V30 6499 C 609.142 -0.599667 1.79024 0
M  V30 6500 O 608.499 -1.41265 1.15544 0
M  V30 6501 C 608.55 1.27273 3.38355 0
M  V30 6502 O 608.271 2.66449 3.47759 0
M  V30 6503 C 609.772 1.0614 4.30406 0
M  V30 6504 H 606.992 0.305549 0.597395 0
M  V30 6505 H 609.536 1.4538 1.43823 0
M  V30 6506 H 607.691 0.711776 3.80805 0
M  V30 6507 H 608.105 2.84264 4.40788 0
M  V30 6508 H 609.579 1.40725 5.33761 0
M  V30 6509 H 610.056 -0.000960332 4.392 0
M  V30 6510 H 610.662 1.60821 3.93722 0
M  V30 6511 N 608.977 -1.30795 0.87923 0
M  V30 6512 C 609.924 -2.28282 0.339968 0
M  V30 6513 C 610.894 -1.56134 -0.566685 0
M  V30 6514 O 612.079 -1.84231 -0.496338 0
M  V30 6515 C 609.219 -3.42225 -0.444501 0
M  V30 6516 C 608.332 -4.29204 0.490717 0
M  V30 6517 C 607.467 -5.30302 -0.308784 0
M  V30 6518 C 606.506 -6.08929 0.622272 0
M  V30 6519 N 605.643 -7.01957 -0.14155 0
M  V30 6520 H 610.483 -2.73794 1.17647 0
M  V30 6521 H 608.02 -1.34682 0.591527 0
M  V30 6522 H 609.978 -4.07038 -0.915186 0
M  V30 6523 H 608.608 -2.97799 -1.24562 0
M  V30 6524 H 607.66 -3.6475 1.07988 0
M  V30 6525 H 608.972 -4.84045 1.20425 0
M  V30 6526 H 608.126 -6.00835 -0.841575 0
M  V30 6527 H 606.865 -4.7614 -1.05556 0
M  V30 6528 H 605.87 -5.37278 1.16674 0
M  V30 6529 H 607.095 -6.65178 1.36804 0
M  V30 6530 H 605.041 -6.50192 -0.870966 0
M  V30 6531 H 604.958 -7.54261 0.51246 0
M  V30 6532 H 606.226 -7.76741 -0.655271 0
M  V30 6533 N 610.455 -0.639598 -1.44038 0
M  V30 6534 C 611.703 -0.147188 -2.01563 0
M  V30 6535 C 612.024 1.2384 -1.50628 0
M  V30 6536 O 611.294 1.82452 -0.713316 0
M  V30 6537 H 609.874 -0.0514231 -0.745228 0
M  V30 6538 H 612.536 -0.828205 -1.76428 0
M  V30 6539 H 611.632 -0.121358 -3.11864 0
M  V30 6540 N 611.933 1.52934 -0.380664 0
M  V30 6541 C 612.865 2.23822 0.493581 0
M  V30 6542 C 613.878 1.25761 1.03383 0
M  V30 6543 O 615.067 1.5189 0.937633 0
M  V30 6544 C 612.167 2.9342 1.69582 0
M  V30 6545 C 611.34 4.18115 1.28445 0
M  V30 6546 C 610.399 4.70788 2.35042 0
M  V30 6547 O 609.425 5.34093 1.96807 0
M  V30 6548 N 610.627 4.49899 3.66839 0
M  V30 6549 H 613.392 2.99484 -0.11371 0
M  V30 6550 H 610.953 1.60577 -0.206587 0
M  V30 6551 H 612.945 3.2556 2.40401 0
M  V30 6552 H 611.515 2.21119 2.20965 0
M  V30 6553 H 610.735 3.92109 0.405503 0
M  V30 6554 H 612.023 4.99152 0.986132 0
M  V30 6555 H 611.421 3.99349 4.0067 0
M  V30 6556 H 609.978 4.86551 4.33718 0
M  V30 6557 N 613.412 0.11024 1.57214 0
M  V30 6558 C 614.36 -0.860586 2.16094 0
M  V30 6559 C 615.354 -1.28156 1.1078 0
M  V30 6560 O 616.56 -1.25433 1.29099 0
M  V30 6561 H 612.935 -0.295606 0.691463 0
M  V30 6562 H 614.906 -0.33942 2.96463 0
M  V30 6563 C 613.655 -2.10421 2.768 0
M  V30 6564 H 612.978 -1.7892 3.5753 0
M  V30 6565 H 614.418 -2.76375 3.21547 0
M  V30 6566 C 612.877 -2.88823 1.73444 0
M  V30 6567 O 613.407 -3.839 1.18251 0
M  V30 6568 N 611.613 -2.52649 1.43586 0
M  V30 6569 H 611.16 -1.754 1.8866 0
M  V30 6570 H 611.118 -3.05403 0.746735 0
M  V30 6571 N 614.89 -1.56749 -0.16351 0
M  V30 6572 C 616.136 -1.82704 -0.880168 0
M  V30 6573 C 616.469 -0.689311 -1.81555 0
M  V30 6574 O 615.744 0.308224 -1.92042 0
M  V30 6575 C 616.027 -3.19084 -1.66905 0
M  V30 6576 C 615.88 -4.43397 -0.756269 0
M  V30 6577 C 617.199 -3.52493 -2.63509 0
M  V30 6578 H 614.318 -0.664608 -0.318535 0
M  V30 6579 H 616.96 -1.89438 -0.146036 0
M  V30 6580 H 615.11 -3.13475 -2.2949 0
M  V30 6581 H 616.782 -4.61079 -0.14269 0
M  V30 6582 H 615.025 -4.33752 -0.0647944 0
M  V30 6583 H 615.696 -5.3539 -1.34393 0
M  V30 6584 H 618.172 -3.58606 -2.11047 0
M  V30 6585 H 617.048 -4.48979 -3.15767 0
M  V30 6586 H 617.309 -2.77597 -3.44082 0
M  V30 6587 N 616.368 0.432326 -1.51554 0
M  V30 6588 C 617.3 1.54357 -1.6943 0
M  V30 6589 C 618.313 1.52311 -0.574897 0
M  V30 6590 O 619.502 1.56997 -0.849369 0
M  V30 6591 C 616.602 2.93273 -1.69836 0
M  V30 6592 C 615.775 3.19768 -2.98442 0
M  V30 6593 C 614.834 4.38433 -2.90969 0
M  V30 6594 O 613.86 4.36842 -3.64908 0
M  V30 6595 N 615.062 5.42276 -2.07163 0
M  V30 6596 H 617.827 1.39426 -2.65293 0
M  V30 6597 H 615.388 0.621331 -1.49503 0
M  V30 6598 H 617.38 3.70687 -1.62399 0
M  V30 6599 H 615.95 3.01777 -0.815456 0
M  V30 6600 H 615.17 2.30607 -3.19709 0
M  V30 6601 H 616.458 3.343 -3.83563 0
M  V30 6602 H 615.856 5.46407 -1.46477 0
M  V30 6603 H 614.413 6.18524 -2.05601 0
M  V30 6604 N 617.846 1.41785 0.688094 0
M  V30 6605 C 618.778 1.40159 1.81351 0
M  V30 6606 C 619.791 0.30262 1.59963 0
M  V30 6607 O 620.98 0.564841 1.69327 0
M  V30 6608 C 618.08 1.16517 3.1824 0
M  V30 6609 C 617.253 2.38597 3.66593 0
M  V30 6610 C 616.312 2.10699 4.82174 0
M  V30 6611 O 615.338 2.83798 4.93404 0
M  V30 6612 N 616.54 1.10187 5.69947 0
M  V30 6613 H 619.305 2.3716 1.83236 0
M  V30 6614 H 616.866 1.36494 0.870697 0
M  V30 6615 H 618.858 0.957941 3.93199 0
M  V30 6616 H 617.428 0.280873 3.11336 0
M  V30 6617 H 616.648 2.74974 2.82459 0
M  V30 6618 H 617.936 3.19919 3.95638 0
M  V30 6619 H 617.334 0.497016 5.63512 0
M  V30 6620 H 615.891 0.954518 6.44773 0
M  V30 6621 N 619.324 -0.923095 1.27737 0
M  V30 6622 C 620.57 -1.67375 1.14514 0
M  V30 6623 C 620.903 -1.91751 -0.307424 0
M  V30 6624 O 620.178 -1.51119 -1.22447 0
M  V30 6625 C 620.461 -3.03745 1.9342 0
M  V30 6626 C 620.314 -2.86581 3.46686 0
M  V30 6627 C 621.633 -4.04144 1.74228 0
M  V30 6628 H 618.752 -0.607427 0.417374 0
M  V30 6629 H 621.394 -1.07089 1.56946 0
M  V30 6630 H 619.544 -3.55204 1.5736 0
M  V30 6631 H 621.216 -2.42203 3.92601 0
M  V30 6632 H 619.459 -2.21829 3.72793 0
M  V30 6633 H 620.13 -3.83381 3.97143 0
M  V30 6634 H 622.606 -3.61712 2.05678 0
M  V30 6635 H 621.482 -4.97543 2.31824 0
M  V30 6636 H 621.743 -4.36661 0.691373 0
M  V30 6637 N 620.802 -1.09834 -1.13024 0
M  V30 6638 C 622.051 -0.831806 -1.83749 0
M  V30 6639 C 622.364 0.644763 -1.84668 0
M  V30 6640 O 623.57 1.02697 -2.51327 0
M  V30 6641 C 622.026 -1.43817 -3.29916 0
M  V30 6642 C 621.634 -2.94759 -3.37374 0
M  V30 6643 C 623.378 -1.25077 -4.05655 0
M  V30 6644 C 621.285 -3.48461 -4.77838 0
M  V30 6645 H 620.215 -0.30751 -0.688443 0
M  V30 6646 H 622.866 -1.32156 -1.27307 0
M  V30 6647 H 621.248 -0.876106 -3.86187 0
M  V30 6648 H 622.422 -3.57228 -2.91076 0
M  V30 6649 H 620.737 -3.12581 -2.75103 0
M  V30 6650 H 623.334 -1.62649 -5.09362 0
M  V30 6651 H 623.677 -0.191782 -4.15858 0
M  V30 6652 H 624.21 -1.78057 -3.55725 0
M  V30 6653 H 620.949 -4.53998 -4.72828 0
M  V30 6654 H 620.469 -2.90757 -5.24615 0
M  V30 6655 H 622.148 -3.45914 -5.46766 0
M  V30 6656 N 622.28 1.30327 -0.886154 0
M  V30 6657 C 623.51 1.99964 -0.519421 0
M  V30 6658 C 623.918 1.66593 0.89686 0
M  V30 6659 O 623.261 0.899886 1.60149 0
M  V30 6660 C 623.323 3.54187 -0.615795 0
M  V30 6661 C 622.987 4.11078 -1.9966 0
M  V30 6662 C 623.984 4.26985 -2.96614 0
M  V30 6663 C 621.669 4.46429 -2.30231 0
M  V30 6664 C 623.663 4.77456 -4.22273 0
M  V30 6665 C 621.35 4.966 -3.56135 0
M  V30 6666 C 622.348 5.12066 -4.5197 0
M  V30 6667 O 622.036 5.61154 -5.7564 0
M  V30 6668 H 621.768 0.645979 -0.199217 0
M  V30 6669 H 624.322 1.67154 -1.19368 0
M  V30 6670 H 622.552 3.86528 0.115448 0
M  V30 6671 H 624.241 4.05065 -0.26017 0
M  V30 6672 H 625.007 3.99975 -2.74308 0
M  V30 6673 H 620.886 4.33658 -1.56404 0
M  V30 6674 H 624.43 4.89444 -4.97082 0
M  V30 6675 H 620.327 5.23045 -3.78277 0
M  V30 6676 H 621.095 5.79494 -5.78039 0
M  V30 6677 N 623.758 0.647228 1.43697 0
M  V30 6678 C 624.721 -0.0385101 2.29168 0
M  V30 6679 C 625.721 -0.756487 1.41894 0
M  V30 6680 O 626.911 -0.598641 1.63591 0
M  V30 6681 C 624.043 -1.06524 3.23829 0
M  V30 6682 H 625.236 0.713445 2.9129 0
M  V30 6683 H 622.789 0.408153 1.50877 0
M  V30 6684 H 623.524 -1.84664 2.66589 0
M  V30 6685 H 623.309 -0.554147 3.88164 0
M  V30 6686 H 624.799 -1.54432 3.87996 0
M  V30 6687 N 625.236 -1.5273 0.388769 0
M  V30 6688 C 626.464 -2.05992 -0.193677 0
M  V30 6689 C 626.879 -1.26053 -1.40557 0
M  V30 6690 O 626.236 -0.307049 -1.79898 0
M  V30 6691 C 626.287 -3.57068 -0.564321 0
M  V30 6692 O 626.008 -4.3398 0.599422 0
M  V30 6693 C 627.509 -4.26674 -1.20269 0
M  V30 6694 H 624.729 -0.670358 -0.0293445 0
M  V30 6695 H 627.273 -1.96857 0.553844 0
M  V30 6696 H 625.428 -3.66277 -1.26174 0
M  V30 6697 H 625.842 -5.2367 0.294895 0
M  V30 6698 H 627.316 -5.33625 -1.4124 0
M  V30 6699 H 627.793 -3.81854 -2.16989 0
M  V30 6700 H 628.399 -4.2178 -0.546047 0
M  V30 6701 N 626.714 -0.118576 -1.57153 0
M  V30 6702 C 627.962 0.538461 -1.94795 0
M  V30 6703 C 628.283 1.67243 -1.00274 0
M  V30 6704 O 627.553 1.95811 -0.0589692 0
M  V30 6705 H 626.133 0.201904 -0.719197 0
M  V30 6706 H 628.795 -0.187418 -1.93997 0
M  V30 6707 H 627.891 0.933315 -2.97818 0
M  V30 6708 N 628.193 1.56834 0.155195 0
M  V30 6709 C 629.156 1.96748 1.17571 0
M  V30 6710 C 630.156 0.853006 1.3631 0
M  V30 6711 O 631.346 1.11978 1.33441 0
M  V30 6712 C 628.478 2.27631 2.53765 0
M  V30 6713 H 629.671 2.88085 0.833498 0
M  V30 6714 H 627.224 1.51141 0.398242 0
M  V30 6715 H 627.959 1.39059 2.92973 0
M  V30 6716 H 627.744 3.0888 2.41527 0
M  V30 6717 H 629.234 2.59377 3.27282 0
M  V30 6718 N 629.671 -0.424282 1.51781 0
M  V30 6719 C 630.601 -1.52305 1.7699 0
M  V30 6720 C 631.582 -1.5839 0.620209 0
M  V30 6721 O 632.767 -1.73908 0.864268 0
M  V30 6722 C 629.897 -2.90271 1.90683 0
M  V30 6723 C 628.851 -2.99043 3.06198 0
M  V30 6724 C 628.177 -4.39116 3.05092 0
M  V30 6725 C 629.477 -2.7192 4.45934 0
M  V30 6726 H 631.171 -1.31461 2.68995 0
M  V30 6727 H 628.717 -0.630985 1.29439 0
M  V30 6728 H 630.67 -3.6711 2.06901 0
M  V30 6729 H 629.394 -3.12376 0.953365 0
M  V30 6730 H 628.053 -2.24646 2.89706 0
M  V30 6731 H 627.701 -4.58207 2.07498 0
M  V30 6732 H 627.401 -4.45912 3.82669 0
M  V30 6733 H 628.925 -5.17911 3.2342 0
M  V30 6734 H 630.339 -3.38487 4.62709 0
M  V30 6735 H 628.736 -2.90111 5.25315 0
M  V30 6736 H 629.806 -1.67445 4.55072 0
M  V30 6737 N 631.149 -1.42148 -0.680565 0
M  V30 6738 C 632.112 -1.4488 -1.77602 0
M  V30 6739 C 633.112 -0.337209 -1.57224 0
M  V30 6740 O 634.302 -0.597778 -1.63622 0
M  V30 6741 C 631.434 -1.27483 -3.16166 0
M  V30 6742 H 632.627 -2.42412 -1.76568 0
M  V30 6743 H 630.18 -1.28511 -0.889645 0
M  V30 6744 H 630.915 -0.30851 -3.22829 0
M  V30 6745 H 630.7 -2.08037 -3.3236 0
M  V30 6746 H 632.19 -1.32265 -3.96101 0
M  V30 6747 N 632.627 0.916307 -1.28225 0
M  V30 6748 C 633.574 2.01841 -1.11932 0
M  V30 6749 C 634.544 1.66091 -0.0171604 0
M  V30 6750 O 635.729 1.89934 -0.181617 0
M  V30 6751 C 632.869 3.36065 -0.784504 0
M  V30 6752 C 631.982 3.847 -1.96544 0
M  V30 6753 C 631.117 5.07423 -1.57149 0
M  V30 6754 C 630.156 5.48384 -2.71922 0
M  V30 6755 N 629.293 6.62298 -2.33037 0
M  V30 6756 H 634.133 2.1511 -2.06232 0
M  V30 6757 H 631.67 1.05366 -1.02647 0
M  V30 6758 H 633.628 4.13272 -0.571148 0
M  V30 6759 H 632.258 3.22571 0.121565 0
M  V30 6760 H 631.31 3.03673 -2.291 0
M  V30 6761 H 632.622 4.1102 -2.82603 0
M  V30 6762 H 631.776 5.92165 -1.32004 0
M  V30 6763 H 630.515 4.82906 -0.682153 0
M  V30 6764 H 629.52 4.62184 -2.97768 0
M  V30 6765 H 630.745 5.7489 -3.61494 0
M  V30 6766 H 628.691 6.39416 -1.4657 0
M  V30 6767 H 628.608 6.8833 -3.12631 0
M  V30 6768 H 629.876 7.50352 -2.11169 0
M  V30 6769 N 634.105 1.10431 1.1244 0
M  V30 6770 C 635.068 0.756542 2.16354 0
M  V30 6771 C 636.068 -0.21899 1.59302 0
M  V30 6772 O 637.258 0.00415969 1.742 0
M  V30 6773 C 634.39 0.120612 3.40687 0
M  V30 6774 H 635.583 1.67696 2.48632 0
M  V30 6775 H 633.136 0.904832 1.27446 0
M  V30 6776 H 633.871 -0.810536 3.14008 0
M  V30 6777 H 633.656 0.822693 3.83372 0
M  V30 6778 H 635.146 -0.106945 4.17463 0
M  V30 6779 N 635.583 -1.29855 0.893053 0
M  V30 6780 C 636.829 -1.96116 0.516349 0
M  V30 6781 C 637.162 -1.70281 -0.933695 0
M  V30 6782 O 636.437 -1.01205 -1.66096 0
M  V30 6783 C 636.72 -3.51068 0.801455 0
M  V30 6784 C 636.573 -3.86387 2.30272 0
M  V30 6785 C 637.892 -4.39186 0.283423 0
M  V30 6786 H 635.011 -0.712335 0.189072 0
M  V30 6787 H 637.653 -1.53587 1.11852 0
M  V30 6788 H 635.803 -3.87424 0.288949 0
M  V30 6789 H 637.475 -3.60012 2.88425 0
M  V30 6790 H 635.718 -3.34167 2.76613 0
M  V30 6791 H 636.389 -4.94512 2.45279 0
M  V30 6792 H 638.865 -4.09785 0.722187 0
M  V30 6793 H 637.741 -5.46505 0.512169 0
M  V30 6794 H 638.002 -4.34511 -0.815643 0
M  V30 6795 N 637.061 -0.65484 -1.43351 0
M  V30 6796 C 638.291 -0.176429 -2.05845 0
M  V30 6797 C 638.699 1.16375 -1.49176 0
M  V30 6798 O 638.042 1.72981 -0.618322 0
M  V30 6799 C 638.104 -0.0125844 -3.59498 0
M  V30 6800 C 637.768 -1.27831 -4.38758 0
M  V30 6801 C 638.765 -2.2074 -4.70712 0
M  V30 6802 C 636.45 -1.52035 -4.78739 0
M  V30 6803 C 638.444 -3.36145 -5.41558 0
M  V30 6804 C 636.131 -2.67732 -5.49329 0
M  V30 6805 C 637.129 -3.59612 -5.80662 0
M  V30 6806 O 636.817 -4.73289 -6.4981 0
M  V30 6807 H 636.549 -0.0879682 -0.670252 0
M  V30 6808 H 639.103 -0.896193 -1.84818 0
M  V30 6809 H 637.333 0.762567 -3.79107 0
M  V30 6810 H 639.022 0.423392 -4.03686 0
M  V30 6811 H 639.788 -2.03284 -4.40341 0
M  V30 6812 H 635.667 -0.813987 -4.53757 0
M  V30 6813 H 639.211 -4.07881 -5.65932 0
M  V30 6814 H 635.108 -2.85122 -5.79116 0
M  V30 6815 H 635.876 -4.72575 -6.68293 0
M  V30 6816 N 638.539 1.52521 -0.396863 0
M  V30 6817 C 639.449 2.30403 0.44178 0
M  V30 6818 C 640.465 1.37625 1.06468 0
M  V30 6819 O 641.641 1.70697 1.06886 0
M  V30 6820 C 638.706 3.1013 1.54986 0
M  V30 6821 C 637.767 4.18628 0.951279 0
M  V30 6822 C 637 4.94543 2.00655 0
M  V30 6823 O 637.223 4.70629 3.22281 0
M  V30 6824 O 636.157 5.797 1.61962 0
M  V30 6825 H 639.983 3.03087 -0.192892 0
M  V30 6826 H 637.568 1.48537 -0.16038 0
M  V30 6827 H 639.45 3.59816 2.19341 0
M  V30 6828 H 638.125 2.40251 2.16935 0
M  V30 6829 H 637.032 3.73119 0.270773 0
M  V30 6830 H 638.365 4.90763 0.375887 0
M  V30 6831 N 640.017 0.126909 1.57088 0
M  V30 6832 C 641.433 -0.229641 1.57939 0
M  V30 6833 C 641.633 -1.66145 1.1401 0
M  V30 6834 O 640.689 -2.3843 0.831119 0
M  V30 6835 C 642.002 0.0108648 3.00698 0
M  V30 6836 C 643.55 -0.054418 3.12953 0
M  V30 6837 C 644.025 0.158497 4.57726 0
M  V30 6838 N 645.516 0.104735 4.63082 0
M  V30 6839 C 646.251 0.24427 5.72879 0
M  V30 6840 N 645.747 0.440415 6.91399 0
M  V30 6841 N 647.54 0.183286 5.61801 0
M  V30 6842 H 639.691 1.06203 1.83942 0
M  V30 6843 H 641.954 0.418834 0.85046 0
M  V30 6844 H 641.66 1.00102 3.37154 0
M  V30 6845 H 641.534 -0.717512 3.70313 0
M  V30 6846 H 643.921 -1.0351 2.7635 0
M  V30 6847 H 644.002 0.705967 2.45865 0
M  V30 6848 H 643.646 1.13619 4.95028 0
M  V30 6849 H 643.576 -0.62197 5.22914 0
M  V30 6850 H 646.067 -0.0430298 3.77876 0
M  V30 6851 H 646.38 0.537536 7.70928 0
M  V30 6852 H 644.725 0.476488 6.93365 0
M  V30 6853 H 647.916 0.0309561 4.6809 0
M  V30 6854 H 648.089 0.295471 6.47326 0
M  V30 6855 N 641.495 -1.56914 -0.146875 0
M  V30 6856 C 642.428 -1.93425 -1.21087 0
M  V30 6857 C 643.406 -0.800106 -1.41552 0
M  V30 6858 O 644.59 -1.05572 -1.56162 0
M  V30 6859 C 641.717 -2.20639 -2.56975 0
M  V30 6860 C 640.763 -3.43279 -2.53104 0
M  V30 6861 S 641.596 -4.96836 -1.99786 0
M  V30 6862 C 642.752 -5.27172 -3.37403 0
M  V30 6863 H 642.985 -2.8337 -0.899378 0
M  V30 6864 H 640.518 -1.50322 -0.352494 0
M  V30 6865 H 642.476 -2.36998 -3.35175 0
M  V30 6866 H 641.137 -1.31357 -2.85314 0
M  V30 6867 H 640.33 -3.59599 -3.53136 0
M  V30 6868 H 639.932 -3.26163 -1.83012 0
M  V30 6869 H 642.224 -5.20647 -4.33513 0
M  V30 6870 H 643.167 -6.28626 -3.25937 0
M  V30 6871 H 643.575 -4.54687 -3.34544 0
M  V30 6872 N 642.974 0.416227 -1.52004 0
M  V30 6873 C 644.221 1.16383 -1.65714 0
M  V30 6874 C 644.549 1.9068 -0.383594 0
M  V30 6875 O 643.804 1.85174 0.633185 0
M  V30 6876 C 644.103 2.18923 -2.82502 0
M  V30 6877 C 643.769 1.61485 -4.20991 0
M  V30 6878 C 642.431 1.45545 -4.58661 0
M  V30 6879 C 644.783 1.19468 -5.07323 0
M  V30 6880 C 642.111 0.860937 -5.80349 0
M  V30 6881 C 644.463 0.614386 -6.29609 0
M  V30 6882 C 643.127 0.442056 -6.66035 0
M  V30 6883 H 642.397 0.425875 -0.606392 0
M  V30 6884 H 645.044 0.45199 -1.8609 0
M  V30 6885 H 643.349 2.96225 -2.56433 0
M  V30 6886 H 645.046 2.76628 -2.90307 0
M  V30 6887 H 641.636 1.74873 -3.91302 0
M  V30 6888 H 645.82 1.30596 -4.78809 0
M  V30 6889 H 641.076 0.715372 -6.072 0
M  V30 6890 H 645.25 0.280393 -6.95835 0
M  V30 6891 H 642.877 -0.0207218 -7.60197 0
M  V30 6892 N 644.452 1.42507 0.673017 0
M  V30 6893 C 645.4 1.46362 1.80779 0
M  V30 6894 C 646.394 0.339166 1.6597 0
M  V30 6895 O 647.6 0.512262 1.72557 0
M  V30 6896 H 643.975 0.458433 0.596107 0
M  V30 6897 H 645.946 2.41953 1.74646 0
M  V30 6898 C 644.695 1.38462 3.18941 0
M  V30 6899 H 644.018 2.24283 3.30964 0
M  V30 6900 H 645.458 1.45221 3.98355 0
M  V30 6901 C 643.917 0.0996354 3.36753 0
M  V30 6902 O 644.447 -0.846894 3.92671 0
M  V30 6903 N 642.653 0.016211 2.90595 0
M  V30 6904 H 642.2 0.78725 2.45276 0
M  V30 6905 H 642.158 -0.84291 3.0289 0
M  V30 6906 N 645.93 -0.909495 1.28709 0
M  V30 6907 C 647.176 -1.66175 1.17293 0
M  V30 6908 C 647.531 -1.90426 -0.274891 0
M  V30 6909 O 646.824 -1.49659 -1.19635 0
M  V30 6910 C 647.018 -3.02117 1.90945 0
M  V30 6911 C 646.847 -2.91134 3.42741 0
M  V30 6912 C 645.617 -2.92429 4.12085 0
M  V30 6913 C 647.815 -2.68889 4.3841 0
M  V30 6914 N 645.797 -2.72078 5.50315 0
M  V30 6915 C 647.168 -2.57423 5.64033 0
M  V30 6916 C 649.223 -2.53919 4.28287 0
M  V30 6917 C 647.926 -2.32513 6.80683 0
M  V30 6918 C 649.952 -2.3039 5.44678 0
M  V30 6919 C 649.314 -2.19682 6.69268 0
M  V30 6920 H 645.413 -0.614095 0.48416 0
M  V30 6921 H 647.997 -1.07377 1.62414 0
M  V30 6922 H 646.168 -3.58993 1.48252 0
M  V30 6923 H 647.9 -3.66388 1.71878 0
M  V30 6924 H 644.655 -3.03345 3.63701 0
M  V30 6925 H 645.079 -2.64983 6.22987 0
M  V30 6926 H 649.721 -2.60946 3.32666 0
M  V30 6927 H 647.439 -2.24225 7.76369 0
M  V30 6928 H 651.025 -2.19665 5.38738 0
M  V30 6929 H 649.905 -2.01725 7.5781 0
M  V30 6930 N 647.408 -1.11026 -1.11852 0
M  V30 6931 C 648.341 -0.708501 -2.16923 0
M  V30 6932 C 649.319 0.293196 -1.59935 0
M  V30 6933 O 650.503 0.190641 -1.87533 0
M  V30 6934 C 647.63 -0.0463705 -3.38668 0
M  V30 6935 C 646.676 -1.01252 -4.14307 0
M  V30 6936 S 647.509 -2.53291 -4.71809 0
M  V30 6937 C 648.665 -1.88366 -5.96883 0
M  V30 6938 H 648.898 -1.59854 -2.50667 0
M  V30 6939 H 646.431 -0.927869 -1.2341 0
M  V30 6940 H 648.389 0.329314 -4.09177 0
M  V30 6941 H 647.05 0.820562 -3.03192 0
M  V30 6942 H 646.243 -0.496596 -5.01548 0
M  V30 6943 H 645.845 -1.33042 -3.49537 0
M  V30 6944 H 648.137 -1.21753 -6.6647 0
M  V30 6945 H 649.08 -2.73588 -6.53112 0
M  V30 6946 H 649.488 -1.34562 -5.48227 0
M  V30 6947 N 648.886 1.2938 -0.899927 0
M  V30 6948 C 650.132 1.9584 -0.526742 0
M  V30 6949 C 650.465 1.70774 0.924651 0
M  V30 6950 O 649.74 1.02084 1.65557 0
M  V30 6951 C 650.023 3.50638 -0.820062 0
M  V30 6952 C 649.876 3.85161 -2.32317 0
M  V30 6953 C 651.195 4.3903 -0.30671 0
M  V30 6954 H 648.314 0.711322 -0.192848 0
M  V30 6955 H 650.956 1.52992 -1.12665 0
M  V30 6956 H 649.106 3.87265 -0.309491 0
M  V30 6957 H 650.778 3.58477 -2.9033 0
M  V30 6958 H 649.021 3.32696 -2.78381 0
M  V30 6959 H 649.692 4.93204 -2.47898 0
M  V30 6960 H 652.168 4.09396 -0.743908 0
M  V30 6961 H 651.044 5.46226 -0.541144 0
M  V30 6962 H 651.305 4.34937 0.792588 0
M  V30 6963 N 650.364 0.662433 1.43002 0
M  V30 6964 C 651.592 0.187615 2.06048 0
M  V30 6965 C 652.007 -1.15039 1.49705 0
M  V30 6966 O 651.364 -1.71209 0.631956 0
M  V30 6967 C 651.415 0.100498 3.6136 0
M  V30 6968 O 651.136 1.38562 4.15611 0
M  V30 6969 C 652.637 -0.399298 4.41498 0
M  V30 6970 H 649.857 0.0941675 0.664359 0
M  V30 6971 H 652.401 0.905681 1.83351 0
M  V30 6972 H 650.556 -0.568181 3.83211 0
M  V30 6973 H 650.97 1.25084 5.09366 0
M  V30 6974 H 652.444 -0.409187 5.50481 0
M  V30 6975 H 652.921 -1.43232 4.15188 0
M  V30 6976 H 653.527 0.23721 4.24638 0
M  V30 6977 N 651.842 -1.52309 0.404946 0
M  V30 6978 C 653.258 -1.59503 0.0556255 0
M  V30 6979 C 653.458 -1.41805 -1.43156 0
M  V30 6980 O 652.514 -1.2429 -2.19792 0
M  V30 6981 C 653.827 -2.95687 0.546801 0
M  V30 6982 C 655.375 -3.08909 0.504413 0
M  V30 6983 C 655.85 -4.47566 0.97203 0
M  V30 6984 N 657.341 -4.53795 0.928679 0
M  V30 6985 C 658.076 -5.59346 1.26174 0
M  V30 6986 N 657.572 -6.72469 1.66604 0
M  V30 6987 N 659.365 -5.49532 1.18198 0
M  V30 6988 H 651.516 -1.6206 1.37296 0
M  V30 6989 H 653.779 -0.762161 0.563751 0
M  V30 6990 H 653.485 -3.13905 1.58609 0
M  V30 6991 H 653.359 -3.77172 -0.0457905 0
M  V30 6992 H 655.746 -2.90378 -0.525819 0
M  V30 6993 H 655.827 -2.2934 1.13301 0
M  V30 6994 H 655.471 -4.6684 2.00057 0
M  V30 6995 H 655.401 -5.25625 0.320292 0
M  V30 6996 H 657.892 -3.72588 0.631369 0
M  V30 6997 H 658.205 -7.48993 1.9034 0
M  V30 6998 H 656.55 -6.73761 1.70504 0
M  V30 6999 H 659.741 -4.60038 0.865011 0
M  V30 7000 H 659.914 -6.31687 1.44485 0
M  V30 7001 N 653.32 -0.135238 -1.57019 0
M  V30 7002 C 654.569 0.518694 -1.94917 0
M  V30 7003 C 654.882 1.66783 -1.0219 0
M  V30 7004 O 656.088 2.38561 -1.29619 0
M  V30 7005 C 654.544 0.974123 -3.46466 0
M  V30 7006 C 654.152 -0.147439 -4.47757 0
M  V30 7007 C 655.896 1.59851 -3.93253 0
M  V30 7008 C 653.803 0.325599 -5.90503 0
M  V30 7009 H 652.733 0.19754 -0.727663 0
M  V30 7010 H 655.384 -0.217698 -1.82204 0
M  V30 7011 H 653.766 1.76542 -3.5447 0
M  V30 7012 H 654.94 -0.924122 -4.51438 0
M  V30 7013 H 653.255 -0.679496 -4.10818 0
M  V30 7014 H 655.852 1.96385 -4.9733 0
M  V30 7015 H 656.195 2.48306 -3.3414 0
M  V30 7016 H 656.728 0.872323 -3.88118 0
M  V30 7017 H 653.467 -0.523295 -6.53408 0
M  V30 7018 H 652.987 1.06841 -5.90208 0
M  V30 7019 H 654.666 0.781498 -6.42263 0
M  V30 7020 N 654.798 1.5699 0.138552 0
M  V30 7021 C 655.746 1.99858 1.18994 0
M  V30 7022 C 656.74 0.89231 1.43994 0
M  V30 7023 O 657.946 1.0775 1.44187 0
M  V30 7024 H 654.321 0.636325 0.400743 0
M  V30 7025 H 656.292 2.87427 0.801755 0
M  V30 7026 C 655.041 2.40235 2.51361 0
M  V30 7027 H 654.364 3.24917 2.32957 0
M  V30 7028 H 655.804 2.74045 3.23535 0
M  V30 7029 C 654.263 1.25829 3.1252 0
M  V30 7030 O 654.793 0.563604 3.97727 0
M  V30 7031 N 652.999 1.02036 2.72097 0
M  V30 7032 H 652.546 1.58705 2.02905 0
M  V30 7033 H 652.504 0.256796 3.1335 0
M  V30 7034 N 656.276 -0.40816 1.52223 0
M  V30 7035 C 657.239 -1.48 1.7501 0
M  V30 7036 C 658.239 -1.48367 0.619996 0
M  V30 7037 O 659.429 -1.49874 0.887881 0
M  V30 7038 C 656.561 -2.87403 1.83336 0
M  V30 7039 H 657.754 -1.29086 2.70697 0
M  V30 7040 H 655.307 -0.638715 1.42654 0
M  V30 7041 H 656.042 -3.11686 0.895677 0
M  V30 7042 H 655.827 -2.8854 2.65494 0
M  V30 7043 H 657.317 -3.65103 2.02705 0
M  V30 7044 N 657.755 -1.42862 -0.66545 0
M  V30 7045 C 658.983 -1.47246 -1.45349 0
M  V30 7046 C 659.398 -0.0865944 -1.88601 0
M  V30 7047 O 658.755 0.900652 -1.58728 0
M  V30 7048 C 658.806 -2.40772 -2.6965 0
M  V30 7049 O 658.527 -3.73968 -2.2821 0
M  V30 7050 C 660.028 -2.54272 -3.63126 0
M  V30 7051 H 657.248 -0.500497 -0.446927 0
M  V30 7052 H 659.792 -1.87477 -0.816871 0
M  V30 7053 H 657.947 -2.0377 -3.29479 0
M  V30 7054 H 658.361 -4.24146 -3.08546 0
M  V30 7055 H 659.835 -3.23815 -4.47043 0
M  V30 7056 H 660.312 -1.58364 -4.09656 0
M  V30 7057 H 660.918 -2.92036 -3.09185 0
M  V30 7058 N 659.233 0.902656 -1.29189 0
M  V30 7059 C 660.163 2.02294 -1.16616 0
M  V30 7060 C 661.144 1.6999 -0.0611175 0
M  V30 7061 O 662.329 1.9271 -0.240072 0
M  V30 7062 C 659.459 3.37018 -0.83882 0
M  V30 7063 C 658.413 3.83522 -1.89986 0
M  V30 7064 C 657.739 5.15337 -1.42589 0
M  V30 7065 C 659.039 4.04169 -3.30824 0
M  V30 7066 H 660.733 2.13071 -2.10336 0
M  V30 7067 H 658.279 1.02378 -1.01266 0
M  V30 7068 H 660.232 4.14895 -0.737584 0
M  V30 7069 H 658.956 3.26325 0.134071 0
M  V30 7070 H 657.615 3.07859 -1.99043 0
M  V30 7071 H 657.263 5.01056 -0.441759 0
M  V30 7072 H 656.963 5.47423 -2.13547 0
M  V30 7073 H 658.487 5.95758 -1.3381 0
M  V30 7074 H 659.901 4.72537 -3.24626 0
M  V30 7075 H 658.298 4.47604 -3.99713 0
M  V30 7076 H 659.368 3.08604 -3.74021 0
M  V30 7077 N 660.711 1.11618 1.11262 0
M  V30 7078 C 661.621 0.78898 2.20935 0
M  V30 7079 C 662.637 -0.21867 1.7262 0
M  V30 7080 O 663.813 -0.0543826 2.01327 0
M  V30 7081 C 660.878 0.239014 3.45875 0
M  V30 7082 C 659.939 1.3055 4.08968 0
M  V30 7083 C 659.172 0.781687 5.27944 0
M  V30 7084 O 659.395 -0.387605 5.69082 0
M  V30 7085 O 658.329 1.54734 5.81671 0
M  V30 7086 H 662.155 1.70477 2.51339 0
M  V30 7087 H 659.74 0.892203 1.19834 0
M  V30 7088 H 661.622 -0.0632312 4.21353 0
M  V30 7089 H 660.297 -0.649454 3.17118 0
M  V30 7090 H 659.204 1.66079 3.35214 0
M  V30 7091 H 660.537 2.16743 4.41909 0
M  V30 7092 N 662.189 -1.289 0.906776 0
M  V30 7093 C 663.417 -1.99401 0.551969 0
M  V30 7094 C 663.832 -1.67816 -0.865048 0
M  V30 7095 O 663.189 -0.927078 -1.57199 0
M  V30 7096 C 663.24 -3.53779 0.743152 0
M  V30 7097 O 662.961 -3.84248 2.1044 0
M  V30 7098 C 664.462 -4.41543 0.39424 0
M  V30 7099 H 661.682 -0.636926 0.211106 0
M  V30 7100 H 664.226 -1.64266 1.21807 0
M  V30 7101 H 662.381 -3.87201 0.124143 0
M  V30 7102 H 662.795 -4.78904 2.13895 0
M  V30 7103 H 664.269 -5.48957 0.578814 0
M  V30 7104 H 664.746 -4.34073 -0.669137 0
M  V30 7105 H 665.352 -4.13605 0.990491 0
M  V30 7106 N 663.667 -0.670007 -1.42649 0
M  V30 7107 C 664.614 0.0112928 -2.30797 0
M  V30 7108 C 665.584 0.797627 -1.45695 0
M  V30 7109 O 666.769 0.770845 -1.74535 0
M  V30 7110 C 663.909 0.95998 -3.31479 0
M  V30 7111 C 663.022 0.167975 -4.31673 0
M  V30 7112 C 662.157 1.11198 -5.19431 0
M  V30 7113 C 661.196 0.311381 -6.11307 0
M  V30 7114 N 660.333 1.20784 -6.91633 0
M  V30 7115 H 665.173 -0.746231 -2.88505 0
M  V30 7116 H 662.71 -0.379739 -1.42114 0
M  V30 7117 H 664.668 1.52379 -3.88377 0
M  V30 7118 H 663.298 1.68419 -2.75382 0
M  V30 7119 H 662.35 -0.512385 -3.76933 0
M  V30 7120 H 663.662 -0.453814 -4.96731 0
M  V30 7121 H 662.816 1.74587 -5.81037 0
M  V30 7122 H 661.555 1.76766 -4.54538 0
M  V30 7123 H 660.56 -0.335758 -5.48774 0
M  V30 7124 H 661.785 -0.340135 -6.78248 0
M  V30 7125 H 659.731 1.85001 -6.29373 0
M  V30 7126 H 659.648 0.64102 -7.53277 0
M  V30 7127 H 660.916 1.82936 -7.5773 0
M  V30 7128 N 665.145 1.52092 -0.413018 0
M  V30 7129 C 666.077 2.24819 0.445994 0
M  V30 7130 C 667.09 1.27925 1.00692 0
M  V30 7131 O 668.279 1.53845 0.905204 0
M  V30 7132 C 665.379 2.96951 1.6332 0
M  V30 7133 C 664.552 4.20746 1.19548 0
M  V30 7134 C 663.611 4.75668 2.25003 0
M  V30 7135 O 662.637 5.38148 1.85434 0
M  V30 7136 N 663.839 4.57579 3.57214 0
M  V30 7137 H 666.604 2.99176 -0.177209 0
M  V30 7138 H 664.165 1.60102 -0.240601 0
M  V30 7139 H 666.157 3.30586 2.33441 0
M  V30 7140 H 664.727 2.25756 2.16225 0
M  V30 7141 H 663.947 3.92881 0.32224 0
M  V30 7142 H 665.235 5.01132 0.880033 0
M  V30 7143 H 664.633 4.07758 3.92109 0
M  V30 7144 H 663.19 4.95642 4.23299 0
M  V30 7145 N 666.623 0.143563 1.56945 0
M  V30 7146 C 668.034 -0.37783 1.82837 0
M  V30 7147 C 668.385 -1.64967 1.06209 0
M  V30 7148 O 667.51 -2.14221 0.306291 0
M  V30 7149 C 668.105 -0.692274 3.31652 0
M  V30 7150 C 666.664 -1.1582 3.58138 0
M  V30 7151 C 665.811 -0.17951 2.76718 0
M  V30 7152 H 668.762 0.368317 1.54367 0
M  V30 7153 H 668.783 -1.54729 3.47619 0
M  V30 7154 H 668.295 0.233572 3.87397 0
M  V30 7155 H 666.396 -2.10011 3.07776 0
M  V30 7156 H 666.509 -1.08655 4.66616 0
M  V30 7157 H 664.873 -0.671458 2.4569 0
M  V30 7158 H 665.656 0.739865 3.35233 0
M  V30 7159 N 668.101 -1.57061 -0.130224 0
M  V30 7160 C 669.517 -1.52103 -0.483413 0
M  V30 7161 C 669.717 -0.854752 -1.82473 0
M  V30 7162 O 668.773 -0.432342 -2.48771 0
M  V30 7163 C 670.086 -2.96872 -0.47825 0
M  V30 7164 C 671.634 -3.07902 -0.562592 0
M  V30 7165 C 672.109 -4.54211 -0.587929 0
M  V30 7166 N 673.6 -4.58621 -0.649684 0
M  V30 7167 C 674.335 -5.69227 -0.690551 0
M  V30 7168 N 673.831 -6.89358 -0.689743 0
M  V30 7169 N 675.624 -5.57304 -0.732708 0
M  V30 7170 H 667.775 -1.98764 0.748779 0
M  V30 7171 H 670.038 -0.907248 0.274965 0
M  V30 7172 H 669.744 -3.48944 0.439444 0
M  V30 7173 H 669.618 -3.53716 -1.31013 0
M  V30 7174 H 672.005 -2.5584 -1.47071 0
M  V30 7175 H 672.086 -2.54073 0.296764 0
M  V30 7176 H 671.73 -5.06915 0.316096 0
M  V30 7177 H 671.66 -5.0584 -1.46401 0
M  V30 7178 H 674.151 -3.72146 -0.656927 0
M  V30 7179 H 674.464 -7.69408 -0.723239 0
M  V30 7180 H 672.809 -6.91884 -0.657347 0
M  V30 7181 H 676 -4.62363 -0.730625 0
M  V30 7182 H 676.173 -6.43515 -0.76109 0
M  V30 7183 N 669.579 0.400081 -1.52437 0
M  V30 7184 C 670.511 1.50729 -1.72666 0
M  V30 7185 C 671.524 1.51058 -0.607075 0
M  V30 7186 O 672.713 1.5516 -0.88248 0
M  V30 7187 C 669.813 2.89604 -1.76019 0
M  V30 7188 C 668.986 3.13365 -3.05157 0
M  V30 7189 C 668.045 4.32163 -3.00203 0
M  V30 7190 O 667.071 4.29004 -3.74092 0
M  V30 7191 N 668.273 5.3776 -2.18619 0
M  V30 7192 H 671.038 1.33767 -2.68191 0
M  V30 7193 H 668.599 0.58948 -1.50787 0
M  V30 7194 H 670.591 3.67159 -1.70225 0
M  V30 7195 H 669.161 2.99979 -0.879284 0
M  V30 7196 H 668.381 2.23774 -3.24529 0
M  V30 7197 H 669.669 3.26089 -3.90568 0
M  V30 7198 H 669.067 5.43177 -1.58035 0
M  V30 7199 H 667.624 6.14023 -2.18674 0
M  V30 7200 N 671.057 1.43213 0.657864 0
M  V30 7201 C 672.287 1.478 1.44356 0
M  V30 7202 C 672.695 0.0930206 1.88971 0
M  V30 7203 O 672.038 -0.906089 1.59799 0
M  V30 7204 C 672.1 2.35745 2.71412 0
M  V30 7205 C 671.764 3.83359 2.48767 0
M  V30 7206 C 672.761 4.74585 2.12285 0
M  V30 7207 C 670.446 4.27799 2.63235 0
M  V30 7208 C 672.44 6.08247 1.90562 0
M  V30 7209 C 670.127 5.61516 2.41128 0
M  V30 7210 C 671.125 6.51557 2.04847 0
M  V30 7211 O 670.813 7.82802 1.82967 0
M  V30 7212 H 670.545 0.504363 0.450104 0
M  V30 7213 H 673.099 1.88572 0.814241 0
M  V30 7214 H 671.329 1.89852 3.36887 0
M  V30 7215 H 673.018 2.31589 3.33348 0
M  V30 7216 H 673.784 4.41531 2.00687 0
M  V30 7217 H 669.663 3.57993 2.90451 0
M  V30 7218 H 673.207 6.78489 1.62168 0
M  V30 7219 H 669.104 5.94139 2.52327 0
M  V30 7220 H 669.872 7.94332 1.97429 0
M  V30 7221 N 672.536 -0.895792 1.29666 0
M  V30 7222 C 673.783 -1.64664 1.17864 0
M  V30 7223 C 674.111 -1.92631 -0.26902 0
M  V30 7224 O 673.366 -1.53787 -1.21029 0
M  V30 7225 C 673.665 -3.00075 1.94139 0
M  V30 7226 C 673.331 -2.91702 3.43833 0
M  V30 7227 C 671.993 -2.89126 3.84656 0
M  V30 7228 C 674.345 -2.80622 4.39205 0
M  V30 7229 C 671.673 -2.73293 5.1916 0
M  V30 7230 C 674.025 -2.66329 5.73805 0
M  V30 7231 C 672.689 -2.62121 6.1388 0
M  V30 7232 H 671.959 -0.602549 0.431295 0
M  V30 7233 H 674.606 -1.04234 1.60648 0
M  V30 7234 H 672.911 -3.64394 1.43958 0
M  V30 7235 H 674.608 -3.57111 1.82408 0
M  V30 7236 H 671.198 -2.94511 3.11386 0
M  V30 7237 H 675.382 -2.81686 4.08615 0
M  V30 7238 H 670.638 -2.68443 5.49316 0
M  V30 7239 H 674.812 -2.56727 6.47352 0
M  V30 7240 H 672.439 -2.49611 7.18052 0
M  V30 7241 N 674.014 -1.12206 -1.10668 0
M  V30 7242 C 675.263 -0.870595 -1.81944 0
M  V30 7243 C 675.576 0.605447 -1.85994 0
M  V30 7244 O 676.782 0.973433 -2.53449 0
M  V30 7245 C 675.238 -1.50783 -3.26791 0
M  V30 7246 C 674.846 -3.01849 -3.31046 0
M  V30 7247 C 676.59 -1.33653 -4.02911 0
M  V30 7248 C 674.497 -3.58518 -4.70339 0
M  V30 7249 H 673.427 -0.322043 -0.681765 0
M  V30 7250 H 676.078 -1.34827 -1.24475 0
M  V30 7251 H 674.46 -0.957825 -3.84242 0
M  V30 7252 H 675.634 -3.63321 -2.83433 0
M  V30 7253 H 673.949 -3.18346 -2.68411 0
M  V30 7254 H 676.546 -1.73416 -5.05797 0
M  V30 7255 H 676.889 -0.279949 -4.15358 0
M  V30 7256 H 677.422 -1.85562 -3.51868 0
M  V30 7257 H 674.161 -4.63925 -4.63091 0
M  V30 7258 H 673.681 -3.01819 -5.18329 0
M  V30 7259 H 675.36 -3.57434 -5.39305 0
M  V30 7260 N 675.492 1.28418 -0.913599 0
M  V30 7261 C 676.74 1.94596 -0.545594 0
M  V30 7262 C 677.061 1.7227 0.913668 0
M  V30 7263 O 676.331 1.06233 1.64595 0
M  V30 7264 H 674.911 0.720065 -0.198783 0
M  V30 7265 H 677.573 1.56404 -1.16292 0
M  V30 7266 H 676.669 3.03202 -0.739911 0
M  V30 7267 N 676.97 0.677563 1.42291 0
M  V30 7268 C 678.216 0.201272 2.01799 0
M  V30 7269 C 678.549 -1.19004 1.53465 0
M  V30 7270 O 677.824 -1.79953 0.738039 0
M  V30 7271 C 678.107 0.238968 3.59306 0
M  V30 7272 C 677.96 1.66594 4.17812 0
M  V30 7273 C 679.279 -0.411287 4.38174 0
M  V30 7274 H 676.398 0.0746114 0.733214 0
M  V30 7275 H 679.04 0.862872 1.69276 0
M  V30 7276 H 677.19 -0.324368 3.87144 0
M  V30 7277 H 678.862 2.28173 4.00917 0
M  V30 7278 H 677.105 2.20576 3.73536 0
M  V30 7279 H 677.776 1.64398 5.26951 0
M  V30 7280 H 680.252 0.0682804 4.16044 0
M  V30 7281 H 679.128 -0.354286 5.47755 0
M  V30 7282 H 679.389 -1.4893 4.1626 0
M  V30 7283 N 678.448 -1.51871 0.421078 0
M  V30 7284 C 679.378 -2.30231 -0.389363 0
M  V30 7285 C 680.359 -1.34946 -1.03555 0
M  V30 7286 O 681.544 -1.63859 -1.04229 0
M  V30 7287 C 678.674 -3.13247 -1.49979 0
M  V30 7288 C 677.628 -4.16677 -0.977966 0
M  V30 7289 C 676.954 -4.88112 -2.1829 0
M  V30 7290 C 678.254 -5.22295 -0.0236775 0
M  V30 7291 H 679.948 -2.98229 0.264524 0
M  V30 7292 H 677.494 -1.43424 0.12866 0
M  V30 7293 H 679.447 -3.66838 -2.07383 0
M  V30 7294 H 678.171 -2.4304 -2.18173 0
M  V30 7295 H 676.83 -3.64114 -0.426245 0
M  V30 7296 H 676.478 -4.14423 -2.85066 0
M  V30 7297 H 676.178 -5.58041 -1.84021 0
M  V30 7298 H 677.702 -5.44521 -2.76278 0
M  V30 7299 H 679.116 -5.71055 -0.506899 0
M  V30 7300 H 677.513 -5.99656 0.230782 0
M  V30 7301 H 678.583 -4.76131 0.917999 0
M  V30 7302 N 679.926 -0.151884 -1.56866 0
M  V30 7303 C 681.203 0.543328 -1.87902 0
M  V30 7304 C 681.583 1.82636 -1.05864 0
M  V30 7305 O 680.931 2.28028 -0.146868 0
M  V30 7306 C 681.141 0.804056 -3.39611 0
M  V30 7307 C 682.489 1.14267 -4.08935 0
M  V30 7308 O 683.513 0.893248 -3.44818 0
M  V30 7309 O 682.372 1.61229 -5.22176 0
M  V30 7310 H 679.466 0.277724 -0.778973 0
M  V30 7311 H 682.012 -0.188862 -1.68646 0
M  V30 7312 H 680.784 -0.103772 -3.91162 0
M  V30 7313 H 680.407 1.59025 -3.64413 0
M  V30 7314 N 681.404 1.57128 0.121893 0
M  V30 7315 C 682.653 1.83888 0.828748 0
M  V30 7316 C 682.966 0.737087 1.81181 0
M  V30 7317 O 684.172 0.891007 2.56463 0
M  V30 7318 C 682.628 3.26014 1.52455 0
M  V30 7319 C 682.236 4.44195 0.58263 0
M  V30 7320 C 683.98 3.62025 2.21671 0
M  V30 7321 C 681.887 5.77349 1.28149 0
M  V30 7322 H 680.817 0.685856 0.313238 0
M  V30 7323 H 683.468 1.83319 0.0814851 0
M  V30 7324 H 681.85 3.21044 2.31834 0
M  V30 7325 H 683.024 4.60457 -0.177729 0
M  V30 7326 H 681.339 4.164 -0.00241228 0
M  V30 7327 H 683.936 4.58776 2.74643 0
M  V30 7328 H 684.279 2.89315 2.99337 0
M  V30 7329 H 684.812 3.68767 1.49184 0
M  V30 7330 H 681.551 6.53221 0.546189 0
M  V30 7331 H 681.071 5.64978 2.01394 0
M  V30 7332 H 682.75 6.21006 1.81549 0
M  V30 7333 N 682.882 -0.391992 1.52647 0
M  V30 7334 C 683.845 -1.46135 1.7657 0
M  V30 7335 C 684.845 -1.47701 0.635698 0
M  V30 7336 O 686.035 -1.48924 0.903728 0
M  V30 7337 C 683.167 -2.85443 1.86374 0
M  V30 7338 H 684.36 -1.26208 2.72051 0
M  V30 7339 H 681.913 -0.623549 1.43323 0
M  V30 7340 H 682.648 -3.10718 0.928685 0
M  V30 7341 H 682.433 -2.85708 2.68539 0
M  V30 7342 H 683.923 -3.62933 2.06566 0
M  V30 7343 N 684.36 -1.4356 -0.65026 0
M  V30 7344 C 685.608 -1.45046 -1.40734 0
M  V30 7345 C 685.929 -0.0769822 -1.94848 0
M  V30 7346 O 685.199 0.888098 -1.74613 0
M  V30 7347 H 683.779 -0.534034 -0.522318 0
M  V30 7348 H 686.441 -1.79186 -0.766703 0
M  V30 7349 H 685.537 -2.16476 -2.24822 0
M  V30 7350 N 685.838 0.888903 -1.30139 0
M  V30 7351 C 687.085 1.64037 -1.18736 0
M  V30 7352 C 687.413 1.92771 0.258801 0
M  V30 7353 O 686.668 1.54427 1.20212 0
M  V30 7354 C 686.967 2.99041 -1.95728 0
M  V30 7355 C 686.633 2.89874 -3.45375 0
M  V30 7356 C 685.295 2.87082 -3.86183 0
M  V30 7357 C 687.647 2.78289 -4.40687 0
M  V30 7358 C 684.975 2.70536 -5.20603 0
M  V30 7359 C 687.327 2.63282 -5.75209 0
M  V30 7360 C 685.991 2.58861 -6.15262 0
M  V30 7361 H 685.261 0.600253 -0.434485 0
M  V30 7362 H 687.908 1.0338 -1.61198 0
M  V30 7363 H 686.213 3.63626 -1.45888 0
M  V30 7364 H 687.91 3.56139 -1.843 0
M  V30 7365 H 684.5 2.92856 -3.12943 0
M  V30 7366 H 688.684 2.79516 -4.10103 0
M  V30 7367 H 683.94 2.65526 -5.50732 0
M  V30 7368 H 688.114 2.5329 -6.48704 0
M  V30 7369 H 685.741 2.45799 -7.19366 0
M  V30 7370 N 687.317 1.12792 1.10072 0
M  V30 7371 C 688.227 0.812369 2.20086 0
M  V30 7372 C 689.243 -0.200349 1.72843 0
M  V30 7373 O 690.419 -0.0330262 2.01373 0
M  V30 7374 C 687.484 0.275685 3.45602 0
M  V30 7375 C 686.545 1.34881 4.07561 0
M  V30 7376 C 685.778 0.837639 5.27086 0
M  V30 7377 O 686.001 -0.327224 5.69461 0
M  V30 7378 O 684.935 1.60894 5.79997 0
M  V30 7379 H 688.761 1.73133 2.49517 0
M  V30 7380 H 686.346 0.904863 1.18881 0
M  V30 7381 H 688.228 -0.0185375 4.21396 0
M  V30 7382 H 686.903 -0.615783 3.17789 0
M  V30 7383 H 685.81 1.69625 3.33434 0
M  V30 7384 H 687.143 2.21418 4.39585 0
M  V30 7385 N 688.795 -1.27931 0.920396 0
M  V30 7386 C 690.044 -1.93975 0.552867 0
M  V30 7387 C 690.357 -1.73193 -0.909035 0
M  V30 7388 O 691.563 -2.33515 -1.38502 0
M  V30 7389 C 690.019 -3.47463 0.937947 0
M  V30 7390 C 689.627 -3.77013 2.42003 0
M  V30 7391 C 691.371 -4.19628 0.64132 0
M  V30 7392 C 689.278 -5.23841 2.74489 0
M  V30 7393 H 688.208 -0.726146 0.203046 0
M  V30 7394 H 690.859 -1.45339 1.12022 0
M  V30 7395 H 689.241 -3.94867 0.299317 0
M  V30 7396 H 690.415 -3.40393 3.10595 0
M  V30 7397 H 688.73 -3.18035 2.6878 0
M  V30 7398 H 691.327 -5.27729 0.860622 0
M  V30 7399 H 691.67 -4.14164 -0.421168 0
M  V30 7400 H 692.203 -3.78022 1.23872 0
M  V30 7401 H 688.942 -5.34388 3.79618 0
M  V30 7402 H 688.462 -5.61634 2.1054 0
M  V30 7403 H 690.141 -5.91647 2.61845 0
M  V30 7404 N 690.273 -0.685099 -1.4193 0
M  V30 7405 C 691.52 -0.211658 -2.01391 0
M  V30 7406 C 691.848 1.18526 -1.54214 0
M  V30 7407 O 691.103 1.81189 -0.739519 0
M  V30 7408 C 691.402 -0.206154 -3.56805 0
M  V30 7409 C 691.068 -1.54915 -4.23453 0
M  V30 7410 C 689.73 -1.91684 -4.41373 0
M  V30 7411 C 692.082 -2.43317 -4.60919 0
M  V30 7412 C 689.41 -3.16461 -4.94034 0
M  V30 7413 C 691.762 -3.67415 -5.14965 0
M  V30 7414 C 690.426 -4.04341 -5.31098 0
M  V30 7415 H 689.696 -0.0774511 -0.736941 0
M  V30 7416 H 692.343 -0.882121 -1.69973 0
M  V30 7417 H 690.648 0.547841 -3.87951 0
M  V30 7418 H 692.345 0.17753 -4.00607 0
M  V30 7419 H 688.935 -1.25314 -4.09871 0
M  V30 7420 H 693.119 -2.16192 -4.46738 0
M  V30 7421 H 688.375 -3.45078 -5.04709 0
M  V30 7422 H 692.549 -4.3611 -5.42938 0
M  V30 7423 H 690.176 -5.01101 -5.71666 0
M  V30 7424 N 691.751 1.51645 -0.429126 0
M  V30 7425 C 693.028 1.94579 0.199614 0
M  V30 7426 C 693.408 1.3673 1.60836 0
M  V30 7427 O 692.756 0.551062 2.21756 0
M  V30 7428 C 692.966 3.48506 0.185685 0
M  V30 7429 C 694.314 4.22756 0.395282 0
M  V30 7430 O 695.338 3.55219 0.264165 0
M  V30 7431 O 694.197 5.42555 0.655475 0
M  V30 7432 H 691.291 0.816007 0.134393 0
M  V30 7433 H 693.837 1.62577 -0.486513 0
M  V30 7434 H 692.609 3.83045 -0.799508 0
M  V30 7435 H 692.232 3.86927 0.91507 0
M  V30 7436 N 693.229 0.160201 1.56784 0
M  V30 7437 C 694.476 -0.487588 1.96542 0
M  V30 7438 C 694.804 -1.63999 1.04569 0
M  V30 7439 O 694.059 -1.95546 0.0775211 0
M  V30 7440 C 694.358 -1.02259 3.42459 0
M  V30 7441 C 694.024 0.0127436 4.50898 0
M  V30 7442 C 692.686 0.297318 4.80281 0
M  V30 7443 C 695.038 0.716078 5.16257 0
M  V30 7444 C 692.366 1.29081 5.72324 0
M  V30 7445 C 694.718 1.69847 6.09372 0
M  V30 7446 C 693.382 1.99061 6.37127 0
M  V30 7447 H 692.652 -0.178421 0.719199 0
M  V30 7448 H 695.299 0.249818 1.89864 0
M  V30 7449 H 693.604 -1.8376 3.46034 0
M  V30 7450 H 695.301 -1.53261 3.70556 0
M  V30 7451 H 691.891 -0.219235 4.28039 0
M  V30 7452 H 696.075 0.509428 4.93679 0
M  V30 7453 H 691.331 1.52344 5.92116 0
M  V30 7454 H 695.505 2.2489 6.59088 0
M  V30 7455 H 693.132 2.76194 7.08252 0
M  V30 7456 N 694.707 -1.5719 -0.113559 0
M  V30 7457 C 695.655 -2.01725 -1.158 0
M  V30 7458 C 696.649 -0.915105 -1.42556 0
M  V30 7459 O 697.855 -1.10031 -1.42454 0
M  V30 7460 H 694.23 -0.64262 -0.390569 0
M  V30 7461 H 696.201 -2.88666 -0.755926 0
M  V30 7462 C 694.95 -2.44203 -2.47507 0
M  V30 7463 H 694.273 -3.28582 -2.27758 0
M  V30 7464 H 695.713 -2.79158 -3.19135 0
M  V30 7465 C 694.172 -1.30785 -3.10478 0
M  V30 7466 O 694.702 -0.626807 -3.9678 0
M  V30 7467 N 692.908 -1.06352 -2.7044 0
M  V30 7468 H 692.455 -1.61913 -2.00355 0
M  V30 7469 H 692.413 -0.306614 -3.12901 0
M  V30 7470 N 696.185 0.383891 -1.52853 0
M  V30 7471 C 697.41 1.154 -1.7233 0
M  V30 7472 C 697.835 1.82809 -0.44298 0
M  V30 7473 O 697.193 1.71026 0.601645 0
M  V30 7474 C 697.241 2.17386 -2.87708 0
M  V30 7475 O 696.345 3.24082 -2.55038 0
M  V30 7476 H 695.686 0.335709 -0.572883 0
M  V30 7477 H 698.216 0.44662 -1.99666 0
M  V30 7478 H 698.226 2.61296 -3.1335 0
M  V30 7479 H 696.901 1.6771 -3.80587 0
M  V30 7480 H 695.478 2.85273 -2.40153 0
M  V30 7481 N 697.663 1.43903 0.642637 0
M  V30 7482 C 698.91 1.46079 1.40239 0
M  V30 7483 C 699.238 0.0890335 1.94296 0
M  V30 7484 O 698.493 -0.907533 1.73385 0
M  V30 7485 C 698.792 2.45907 2.59354 0
M  V30 7486 C 698.458 3.91522 2.23654 0
M  V30 7487 C 697.12 4.31179 2.1363 0
M  V30 7488 C 699.472 4.83242 1.95261 0
M  V30 7489 C 696.8 5.60495 1.73384 0
M  V30 7490 C 699.152 6.12933 1.56511 0
M  V30 7491 C 697.816 6.51556 1.4502 0
M  V30 7492 H 697.086 0.534542 0.513172 0
M  V30 7493 H 699.733 1.77047 0.72984 0
M  V30 7494 H 698.038 2.08381 3.3179 0
M  V30 7495 H 699.735 2.44842 3.17574 0
M  V30 7496 H 696.325 3.60142 2.32369 0
M  V30 7497 H 700.509 4.53367 2.0192 0
M  V30 7498 H 695.765 5.89249 1.63082 0
M  V30 7499 H 699.939 6.83469 1.33576 0
M  V30 7500 H 697.566 7.51663 1.13606 0
M  V30 7501 N 699.141 -0.881989 1.30609 0
M  V30 7502 C 700.051 -2.02076 1.19174 0
M  V30 7503 C 701.067 -1.73645 0.11102 0
M  V30 7504 O 702.243 -1.98735 0.326528 0
M  V30 7505 C 699.308 -3.3515 0.887438 0
M  V30 7506 C 698.369 -3.76983 2.05383 0
M  V30 7507 C 697.602 -5.03707 1.76395 0
M  V30 7508 O 697.825 -5.66171 0.693302 0
M  V30 7509 O 696.759 -5.42019 2.61723 0
M  V30 7510 H 700.585 -2.14652 2.14845 0
M  V30 7511 H 698.17 -1.00843 1.10232 0
M  V30 7512 H 700.052 -4.14975 0.73306 0
M  V30 7513 H 698.727 -3.23676 -0.0393354 0
M  V30 7514 H 697.634 -2.97849 2.26355 0
M  V30 7515 H 698.967 -3.93066 2.96243 0
M  V30 7516 N 700.619 -1.13374 -1.09472 0
M  V30 7517 C 701.551 -0.768466 -2.15933 0
M  V30 7518 C 702.564 0.209585 -1.61445 0
M  V30 7519 O 703.753 -0.010539 -1.78497 0
M  V30 7520 C 700.853 -0.118266 -3.38694 0
M  V30 7521 C 700.026 -1.12829 -4.22597 0
M  V30 7522 C 699.085 -0.503875 -5.23782 0
M  V30 7523 O 698.111 -1.16374 -5.57177 0
M  V30 7524 N 699.313 0.724288 -5.75964 0
M  V30 7525 H 702.078 -1.68457 -2.47876 0
M  V30 7526 H 699.639 -1.02668 -1.25183 0
M  V30 7527 H 701.631 0.311698 -4.03498 0
M  V30 7528 H 700.201 0.700769 -3.04644 0
M  V30 7529 H 699.421 -1.73556 -3.53938 0
M  V30 7530 H 700.709 -1.81095 -4.75481 0
M  V30 7531 H 700.107 1.27918 -5.51048 0
M  V30 7532 H 698.664 1.09692 -6.42504 0
M  V30 7533 N 702.098 1.27442 -0.927168 0
M  V30 7534 C 703.028 2.29256 -0.443188 0
M  V30 7535 C 704.009 1.62701 0.49624 0
M  V30 7536 O 705.194 1.90013 0.401105 0
M  V30 7537 C 702.324 3.45955 0.305366 0
M  V30 7538 C 701.278 4.24501 -0.546178 0
M  V30 7539 C 700.604 5.33671 0.331512 0
M  V30 7540 C 701.904 4.89921 -1.81037 0
M  V30 7541 H 703.598 2.69988 -1.29409 0
M  V30 7542 H 701.144 1.29792 -0.623705 0
M  V30 7543 H 703.097 4.1628 0.654885 0
M  V30 7544 H 701.821 3.04138 1.19029 0
M  V30 7545 H 700.48 3.55921 -0.878398 0
M  V30 7546 H 700.128 4.88096 1.21537 0
M  V30 7547 H 699.828 5.87131 -0.234746 0
M  V30 7548 H 701.352 6.0684 0.676614 0
M  V30 7549 H 702.766 5.52536 -1.52895 0
M  V30 7550 H 701.163 5.53436 -2.32009 0
M  V30 7551 H 702.233 4.13652 -2.53021 0
M  V30 7552 N 703.576 0.692616 1.41565 0
M  V30 7553 C 704.816 0.226453 2.03142 0
M  V30 7554 C 705.18 -1.1512 1.5366 0
M  V30 7555 O 706.381 -1.71305 2.07143 0
M  V30 7556 C 704.652 0.27855 3.56313 0
M  V30 7557 S 706.211 -0.114001 4.38652 0
M  V30 7558 H 703.029 0.0914767 0.705091 0
M  V30 7559 H 705.631 0.909737 1.73043 0
M  V30 7560 H 704.335 1.28325 3.89821 0
M  V30 7561 H 703.866 -0.423981 3.91109 0
M  V30 7562 H 705.881 -1.34256 4.77692 0
M  V30 7563 N 705.054 -1.51416 0.437162 0
M  V30 7564 C 706.303 -2.01275 -0.130865 0
M  V30 7565 C 706.616 -1.32593 -1.438 0
M  V30 7566 O 707.822 -1.7342 -2.08897 0
M  V30 7567 C 706.278 -3.5878 -0.283763 0
M  V30 7568 C 705.886 -4.36399 1.01293 0
M  V30 7569 C 707.63 -4.16786 -0.805569 0
M  V30 7570 C 705.537 -5.85608 0.825687 0
M  V30 7571 H 704.467 -0.752157 -0.0526818 0
M  V30 7572 H 707.118 -1.74524 0.566896 0
M  V30 7573 H 705.5 -3.81976 -1.04452 0
M  V30 7574 H 706.674 -4.24948 1.78201 0
M  V30 7575 H 704.989 -3.89843 1.46326 0
M  V30 7576 H 707.586 -5.25972 -0.962146 0
M  V30 7577 H 707.929 -3.75949 -1.78796 0
M  V30 7578 H 708.462 -3.97666 -0.103125 0
M  V30 7579 H 705.201 -6.30857 1.78045 0
M  V30 7580 H 704.721 -5.99723 0.0964029 0
M  V30 7581 H 706.4 -6.45226 0.478815 0
M  V30 7582 N 706.532 -0.168513 -1.56696 0
M  V30 7583 C 707.48 0.779791 -2.19139 0
M  V30 7584 C 708.474 1.23957 -1.1546 0
M  V30 7585 O 709.68 1.20555 -1.33666 0
M  V30 7586 H 706.055 0.269739 -0.701958 0
M  V30 7587 H 708.026 0.229156 -2.97519 0
M  V30 7588 C 706.775 2.00003 -2.84419 0
M  V30 7589 H 706.098 1.65527 -3.63924 0
M  V30 7590 H 707.538 2.64251 -3.31583 0
M  V30 7591 C 705.997 2.82187 -1.84044 0
M  V30 7592 O 706.527 3.79247 -1.32418 0
M  V30 7593 N 704.733 2.47145 -1.52864 0
M  V30 7594 H 704.28 1.68277 -1.9504 0
M  V30 7595 H 704.238 3.02422 -0.859569 0
M  V30 7596 N 708.01 1.57248 0.105221 0
M  V30 7597 C 709.257 1.8557 0.810552 0
M  V30 7598 C 709.585 0.755595 1.79223 0
M  V30 7599 O 708.84 -0.251788 1.94073 0
M  V30 7600 C 709.139 3.20437 1.58287 0
M  V30 7601 C 708.805 4.44716 0.744235 0
M  V30 7602 C 707.467 4.78458 0.513013 0
M  V30 7603 C 709.819 5.20953 0.160578 0
M  V30 7604 C 707.147 5.8587 -0.311894 0
M  V30 7605 C 709.499 6.29235 -0.651596 0
M  V30 7606 C 708.163 6.615 -0.893005 0
M  V30 7607 H 707.433 0.67905 0.296602 0
M  V30 7608 H 710.08 1.91363 0.0723968 0
M  V30 7609 H 708.385 3.10283 2.39232 0
M  V30 7610 H 710.082 3.39576 2.13282 0
M  V30 7611 H 706.672 4.18287 0.934555 0
M  V30 7612 H 710.856 4.95226 0.3264 0
M  V30 7613 H 706.112 6.09286 -0.508012 0
M  V30 7614 H 710.286 6.87484 -1.11077 0
M  V30 7615 H 707.913 7.44562 -1.53401 0
M  V30 7616 N 709.488 -0.375779 1.53054 0
M  V30 7617 C 710.716 -1.14036 1.72637 0
M  V30 7618 C 711.131 -1.83342 0.450687 0
M  V30 7619 O 710.488 -1.7318 -0.575749 0
M  V30 7620 C 710.539 -2.17841 2.88492 0
M  V30 7621 O 710.26 -1.51358 4.11123 0
M  V30 7622 C 711.761 -3.06924 3.19863 0
M  V30 7623 H 708.981 -0.341386 0.577665 0
M  V30 7624 H 711.525 -0.437809 1.99759 0
M  V30 7625 H 709.68 -2.8371 2.63794 0
M  V30 7626 H 710.094 -2.20439 4.75928 0
M  V30 7627 H 711.568 -3.75763 4.04359 0
M  V30 7628 H 712.045 -3.71169 2.34798 0
M  V30 7629 H 712.651 -2.46684 3.46449 0
M  V30 7630 N 710.966 -1.44241 -0.634997 0
M  V30 7631 C 711.914 -1.51103 -1.76835 0
M  V30 7632 C 712.908 -0.383051 -1.65012 0
M  V30 7633 O 714.114 -0.557832 -1.71138 0
M  V30 7634 H 710.489 -0.474076 -0.583743 0
M  V30 7635 H 712.46 -2.46499 -1.68169 0
M  V30 7636 C 711.209 -1.4687 -3.15158 0
M  V30 7637 H 710.532 -2.32979 -3.24901 0
M  V30 7638 H 711.972 -1.55731 -3.94365 0
M  V30 7639 C 710.431 -0.188884 -3.3637 0
M  V30 7640 O 710.961 0.742487 -3.94778 0
M  V30 7641 N 709.167 -0.0932516 -2.9045 0
M  V30 7642 H 708.714 -0.852004 -2.43102 0
M  V30 7643 H 708.672 0.762308 -3.05018 0
M  V30 7644 N 712.444 0.87505 -1.31075 0
M  V30 7645 C 713.354 2.01441 -1.20244 0
M  V30 7646 C 714.37 1.73584 -0.120227 0
M  V30 7647 O 715.546 1.98559 -0.337063 0
M  V30 7648 C 712.611 3.34675 -0.905199 0
M  V30 7649 C 711.672 3.75889 -2.0738 0
M  V30 7650 C 710.905 5.02764 -1.79064 0
M  V30 7651 O 711.128 5.65795 -0.723318 0
M  V30 7652 O 710.062 5.40623 -2.64594 0
M  V30 7653 H 713.888 2.13509 -2.1598 0
M  V30 7654 H 711.473 1.00257 -1.10765 0
M  V30 7655 H 713.355 4.1458 -0.755057 0
M  V30 7656 H 712.03 3.23692 0.0221695 0
M  V30 7657 H 710.937 2.96645 -2.27931 0
M  V30 7658 H 712.27 3.91489 -2.98324 0
M  V30 7659 N 713.922 1.13953 1.08869 0
M  V30 7660 C 714.869 0.82213 2.15661 0
M  V30 7661 C 715.839 -0.218274 1.6466 0
M  V30 7662 O 717.024 -0.0892475 1.90591 0
M  V30 7663 C 714.164 0.300572 3.43789 0
M  V30 7664 C 713.277 1.40071 4.08661 0
M  V30 7665 C 712.412 0.836897 5.24566 0
M  V30 7666 C 711.451 1.91504 5.81371 0
M  V30 7667 N 710.588 1.36875 6.88629 0
M  V30 7668 H 715.428 1.73683 2.42153 0
M  V30 7669 H 712.965 0.866879 1.18843 0
M  V30 7670 H 714.923 -0.0199943 4.17195 0
M  V30 7671 H 713.553 -0.577248 3.17597 0
M  V30 7672 H 712.605 1.83776 3.33062 0
M  V30 7673 H 713.917 2.21534 4.46905 0
M  V30 7674 H 713.071 0.467953 6.04893 0
M  V30 7675 H 711.81 -0.00874207 4.87699 0
M  V30 7676 H 710.815 2.29299 4.99702 0
M  V30 7677 H 712.04 2.76419 6.20298 0
M  V30 7678 H 709.986 0.545211 6.5373 0
M  V30 7679 H 709.903 2.1198 7.25672 0
M  V30 7680 H 711.171 1.02756 7.72698 0
M  V30 7681 N 715.4 -1.26948 0.933913 0
M  V30 7682 C 716.33 -2.29017 0.45534 0
M  V30 7683 C 717.311 -1.62961 -0.487605 0
M  V30 7684 O 718.496 -1.90223 -0.391022 0
M  V30 7685 C 715.626 -3.46112 -0.287015 0
M  V30 7686 C 714.58 -4.24205 0.568682 0
M  V30 7687 C 713.906 -5.3384 -0.303206 0
M  V30 7688 C 715.206 -4.88954 1.83633 0
M  V30 7689 H 716.9 -2.69298 1.30839 0
M  V30 7690 H 714.446 -1.29459 0.630579 0
M  V30 7691 H 716.399 -4.16622 -0.6328 0
M  V30 7692 H 715.123 -3.04765 -1.17414 0
M  V30 7693 H 713.782 -3.5545 0.897261 0
M  V30 7694 H 713.43 -4.88734 -1.18947 0
M  V30 7695 H 713.13 -5.86998 0.265879 0
M  V30 7696 H 714.654 -6.0719 -0.644423 0
M  V30 7697 H 716.068 -5.51717 1.55823 0
M  V30 7698 H 714.465 -5.52198 2.34941 0
M  V30 7699 H 715.535 -4.12305 2.55211 0
M  V30 7700 N 716.879 -0.700114 -1.41195 0
M  V30 7701 C 717.811 0.00155823 -2.292 0
M  V30 7702 C 718.824 0.739736 -1.45023 0
M  V30 7703 O 720.013 0.589684 -1.68478 0
M  V30 7704 C 717.113 1.02635 -3.22985 0
M  V30 7705 C 716.286 0.356871 -4.35942 0
M  V30 7706 C 715.345 1.28491 -5.10271 0
M  V30 7707 O 714.371 0.775562 -5.63892 0
M  V30 7708 N 715.573 2.61699 -5.18164 0
M  V30 7709 H 718.338 -0.754008 -2.9006 0
M  V30 7710 H 715.899 -0.546504 -1.52397 0
M  V30 7711 H 717.891 1.64902 -3.6958 0
M  V30 7712 H 716.461 1.68341 -2.63401 0
M  V30 7713 H 715.681 -0.445753 -3.91672 0
M  V30 7714 H 716.969 -0.108469 -5.08684 0
M  V30 7715 H 716.367 3.05594 -4.76056 0
M  V30 7716 H 714.924 3.19149 -5.6832 0
M  V30 7717 N 718.357 1.51182 -0.445186 0
M  V30 7718 C 719.289 2.25714 0.398206 0
M  V30 7719 C 720.302 1.30032 0.979562 0
M  V30 7720 O 721.491 1.55731 0.872368 0
M  V30 7721 C 718.591 3.00348 1.56985 0
M  V30 7722 C 717.764 4.23187 1.10596 0
M  V30 7723 C 716.823 4.80334 2.14863 0
M  V30 7724 O 715.849 5.4196 1.73977 0
M  V30 7725 N 717.051 4.65053 3.47427 0
M  V30 7726 H 719.816 2.98732 -0.240629 0
M  V30 7727 H 717.377 1.59556 -0.274507 0
M  V30 7728 H 719.369 3.35464 2.26376 0
M  V30 7729 H 717.939 2.30291 2.11387 0
M  V30 7730 H 717.159 3.93476 0.238832 0
M  V30 7731 H 718.447 5.02886 0.773537 0
M  V30 7732 H 717.845 4.15984 3.83372 0
M  V30 7733 H 716.402 5.04509 4.12691 0
M  V30 7734 N 719.835 0.176821 1.56605 0
M  V30 7735 C 721.082 -0.466715 1.97048 0
M  V30 7736 C 721.41 -1.6288 1.06302 0
M  V30 7737 O 720.665 -1.95453 0.0982571 0
M  V30 7738 C 720.964 -0.986208 3.43524 0
M  V30 7739 C 720.63 0.0605667 4.50859 0
M  V30 7740 C 719.292 0.348242 4.79938 0
M  V30 7741 C 721.644 0.770794 5.15469 0
M  V30 7742 C 718.972 1.35144 5.70923 0
M  V30 7743 C 721.324 1.76301 6.07537 0
M  V30 7744 C 719.988 2.05808 6.3498 0
M  V30 7745 H 719.258 -0.170783 0.721051 0
M  V30 7746 H 721.905 0.269942 1.89588 0
M  V30 7747 H 720.21 -1.80079 3.47964 0
M  V30 7748 H 721.907 -1.49323 3.72161 0
M  V30 7749 H 718.497 -0.173823 4.28247 0
M  V30 7750 H 722.681 0.56176 4.9311 0
M  V30 7751 H 717.937 1.58616 5.90467 0
M  V30 7752 H 722.111 2.31868 6.56666 0
M  V30 7753 H 719.738 2.8369 7.05283 0
M  V30 7754 N 721.313 -1.57302 -0.09688 0
M  V30 7755 C 722.56 -1.85997 -0.800699 0
M  V30 7756 C 722.888 -0.765089 -1.7882 0
M  V30 7757 O 722.143 0.241492 -1.94204 0
M  V30 7758 C 722.442 -3.21272 -1.56586 0
M  V30 7759 C 722.108 -4.45104 -0.72064 0
M  V30 7760 C 720.77 -4.78723 -0.487632 0
M  V30 7761 C 723.122 -5.2103 -0.132948 0
M  V30 7762 C 720.45 -5.85697 0.34296 0
M  V30 7763 C 722.802 -6.28881 0.684957 0
M  V30 7764 C 721.466 -6.61017 0.928073 0
M  V30 7765 H 720.736 -0.680613 -0.292997 0
M  V30 7766 H 723.383 -1.91399 -0.0622474 0
M  V30 7767 H 721.688 -3.11547 -2.37583 0
M  V30 7768 H 723.385 -3.40702 -2.11478 0
M  V30 7769 H 719.975 -4.18777 -0.912359 0
M  V30 7770 H 724.159 -4.95392 -0.300132 0
M  V30 7771 H 719.415 -6.09008 0.540317 0
M  V30 7772 H 723.589 -6.86886 1.14721 0
M  V30 7773 H 721.216 -7.43738 1.57348 0
M  V30 7774 N 722.791 0.367657 -1.53252 0
M  V30 7775 C 723.739 1.47061 -1.8021 0
M  V30 7776 C 724.733 1.55539 -0.671112 0
M  V30 7777 O 725.939 1.58451 -0.854014 0
M  V30 7778 H 722.314 0.489868 -0.570555 0
M  V30 7779 H 724.285 1.21527 -2.72532 0
M  V30 7780 C 723.034 2.83924 -2.00706 0
M  V30 7781 H 722.357 2.78158 -2.87172 0
M  V30 7782 H 723.797 3.60281 -2.23547 0
M  V30 7783 C 722.256 3.27613 -0.785568 0
M  V30 7784 O 722.786 4.01691 0.0267459 0
M  V30 7785 N 720.992 2.84134 -0.609597 0
M  V30 7786 H 720.539 2.24017 -1.27178 0
M  V30 7787 H 720.497 3.13723 0.206281 0
M  V30 7788 N 724.269 1.44576 0.627338 0
M  V30 7789 C 725.219 1.48168 1.73293 0
M  V30 7790 C 726.203 0.347045 1.57113 0
M  V30 7791 O 727.395 0.592605 1.66785 0
M  V30 7792 C 724.524 1.43236 3.11991 0
M  V30 7793 C 723.61 2.61828 3.33627 0
M  V30 7794 N 724.001 3.87053 3.25612 0
M  V30 7795 C 722.299 2.57104 3.64436 0
M  V30 7796 C 723 4.66093 3.48041 0
M  V30 7797 N 721.976 3.97228 3.71095 0
M  V30 7798 H 725.778 2.42832 1.6556 0
M  V30 7799 H 723.292 1.39592 0.829934 0
M  V30 7800 H 725.289 1.43893 3.91281 0
M  V30 7801 H 723.949 0.496133 3.20887 0
M  V30 7802 H 724.96 4.18966 3.04447 0
M  V30 7803 H 721.637 1.72295 3.8029 0
M  V30 7804 H 723.027 5.75117 3.47404 0
M  V30 7805 N 725.747 -0.868086 1.31537 0
M  V30 7806 C 726.697 -1.96321 1.1594 0
M  V30 7807 C 727.681 -1.60748 0.0698962 0
M  V30 7808 O 728.873 -1.74524 0.295011 0
M  V30 7809 C 726.002 -3.32073 0.870789 0
M  V30 7810 C 725.088 -3.73907 2.00136 0
M  V30 7811 N 725.479 -3.87685 3.24859 0
M  V30 7812 C 723.777 -4.03433 1.90152 0
M  V30 7813 C 724.478 -4.23454 3.98825 0
M  V30 7814 N 723.454 -4.34242 3.27009 0
M  V30 7815 H 727.256 -2.05088 2.10514 0
M  V30 7816 H 724.77 -1.059 1.23122 0
M  V30 7817 H 726.767 -4.10279 0.740034 0
M  V30 7818 H 725.427 -3.24631 -0.0667068 0
M  V30 7819 H 726.438 -3.72363 3.59953 0
M  V30 7820 H 723.115 -4.0437 1.03879 0
M  V30 7821 H 724.505 -4.41696 5.06314 0
M  V30 7822 N 727.225 -1.14528 -1.08264 0
M  V30 7823 C 728.158 -0.777154 -2.14559 0
M  V30 7824 C 729.136 0.242165 -1.60787 0
M  V30 7825 O 730.32 0.130882 -1.88045 0
M  V30 7826 C 727.447 -0.154092 -3.38349 0
M  V30 7827 C 726.493 -1.14382 -4.10876 0
M  V30 7828 S 727.326 -2.68173 -4.63512 0
M  V30 7829 C 728.482 -2.0726 -5.90588 0
M  V30 7830 H 728.715 -1.67748 -2.45454 0
M  V30 7831 H 726.248 -0.966661 -1.20395 0
M  V30 7832 H 728.206 0.19897 -4.10018 0
M  V30 7833 H 726.867 0.723688 -3.05649 0
M  V30 7834 H 726.06 -0.655908 -4.99714 0
M  V30 7835 H 725.662 -1.44095 -3.45127 0
M  V30 7836 H 727.954 -1.42895 -6.62259 0
M  V30 7837 H 728.897 -2.94227 -6.44078 0
M  V30 7838 H 729.305 -1.51935 -5.43669 0
M  V30 7839 N 728.703 1.26451 -0.940633 0
M  V30 7840 C 729.95 1.93778 -0.587909 0
M  V30 7841 C 730.278 1.73811 0.872935 0
M  V30 7842 O 729.533 1.06816 1.63978 0
M  V30 7843 C 729.832 3.46503 -0.875794 0
M  V30 7844 C 729.498 3.86609 -2.32043 0
M  V30 7845 C 728.16 3.97269 -2.71534 0
M  V30 7846 C 730.512 4.0672 -3.25927 0
M  V30 7847 C 727.84 4.25436 -4.04006 0
M  V30 7848 C 730.192 4.36375 -4.57995 0
M  V30 7849 C 728.856 4.45249 -4.97302 0
M  V30 7850 H 728.126 0.709084 -0.215131 0
M  V30 7851 H 730.773 1.50272 -1.18704 0
M  V30 7852 H 729.078 3.91319 -0.194124 0
M  V30 7853 H 730.775 3.96759 -0.581665 0
M  V30 7854 H 727.365 3.78858 -2.00411 0
M  V30 7855 H 731.549 3.97912 -2.96614 0
M  V30 7856 H 726.805 4.30519 -4.34124 0
M  V30 7857 H 730.979 4.50882 -5.30734 0
M  V30 7858 H 728.606 4.66829 -5.99979 0
M  V30 7859 N 730.181 0.707592 1.40822 0
M  V30 7860 C 731.427 0.244031 2.01326 0
M  V30 7861 C 731.76 -1.15722 1.55955 0
M  V30 7862 O 731.035 -1.78347 0.776044 0
M  V30 7863 C 731.318 0.315128 3.58718 0
M  V30 7864 C 731.171 1.75419 4.14184 0
M  V30 7865 C 732.49 -0.318251 4.38948 0
M  V30 7866 H 729.609 0.0901471 0.731466 0
M  V30 7867 H 732.251 0.898584 1.67408 0
M  V30 7868 H 730.401 -0.242176 3.87744 0
M  V30 7869 H 732.073 2.36626 3.95987 0
M  V30 7870 H 730.316 2.28449 3.68773 0
M  V30 7871 H 730.987 1.75538 5.23345 0
M  V30 7872 H 733.463 0.156514 4.15806 0
M  V30 7873 H 732.339 -0.238019 5.48384 0
M  V30 7874 H 732.6 -1.40067 4.19325 0
M  V30 7875 N 731.66 -1.50943 0.453197 0
M  V30 7876 C 732.59 -2.31005 -0.34044 0
M  V30 7877 C 733.571 -1.37112 -1.00669 0
M  V30 7878 O 734.756 -1.66033 -1.0073 0
M  V30 7879 C 731.886 -3.16358 -1.433 0
M  V30 7880 C 730.84 -4.18658 -0.889363 0
M  V30 7881 C 730.166 -4.92633 -2.07887 0
M  V30 7882 C 731.466 -5.22227 0.0871142 0
M  V30 7883 H 733.16 -2.97601 0.327723 0
M  V30 7884 H 730.706 -1.43119 0.159054 0
M  V30 7885 H 732.659 -3.71155 -1.99555 0
M  V30 7886 H 731.383 -2.47613 -2.12968 0
M  V30 7887 H 730.042 -3.64936 -0.348915 0
M  V30 7888 H 729.69 -4.20376 -2.76211 0
M  V30 7889 H 729.39 -5.61819 -1.72143 0
M  V30 7890 H 730.914 -5.50258 -2.64666 0
M  V30 7891 H 732.328 -5.72001 -0.385656 0
M  V30 7892 H 730.725 -5.99032 0.357926 0
M  V30 7893 H 731.795 -4.74077 1.01879 0
M  V30 7894 N 733.138 -0.185124 -1.56509 0
M  V30 7895 C 734.048 0.751908 -2.22224 0
M  V30 7896 C 735.064 1.24244 -1.21817 0
M  V30 7897 O 736.24 1.29169 -1.54523 0
M  V30 7898 C 733.305 1.95837 -2.86092 0
M  V30 7899 C 732.366 1.51337 -4.01741 0
M  V30 7900 C 731.599 2.66233 -4.62554 0
M  V30 7901 O 731.822 3.8346 -4.22273 0
M  V30 7902 O 730.756 2.39517 -5.52191 0
M  V30 7903 H 734.582 0.222304 -3.02885 0
M  V30 7904 H 732.167 0.0437141 -1.49336 0
M  V30 7905 H 734.049 2.66368 -3.26536 0
M  V30 7906 H 732.724 2.47677 -2.08417 0
M  V30 7907 H 731.631 0.777155 -3.65939 0
M  V30 7908 H 732.964 1.04175 -4.81049 0
M  V30 7909 N 734.616 1.57351 0.0885366 0
M  V30 7910 C 735.548 1.99221 1.13329 0
M  V30 7911 C 736.561 0.895705 1.35945 0
M  V30 7912 O 737.75 1.17376 1.34481 0
M  V30 7913 C 734.85 2.3016 2.48756 0
M  V30 7914 C 734.023 3.61444 2.46327 0
M  V30 7915 C 733.082 3.80244 3.63732 0
M  V30 7916 O 732.108 4.52024 3.45924 0
M  V30 7917 N 733.31 3.2132 4.8346 0
M  V30 7918 H 736.075 2.89456 0.776862 0
M  V30 7919 H 733.636 1.59505 0.277428 0
M  V30 7920 H 735.628 2.39925 3.25911 0
M  V30 7921 H 734.198 1.459 2.76464 0
M  V30 7922 H 733.418 3.62588 1.54673 0
M  V30 7923 H 734.706 4.47678 2.41789 0
M  V30 7924 H 734.104 2.63028 5.00832 0
M  V30 7925 H 732.661 3.3656 5.58185 0
M  V30 7926 N 736.094 -0.359525 1.53444 0
M  V30 7927 C 737.004 -1.46445 1.83278 0
M  V30 7928 C 738.02 -1.5833 0.721629 0
M  V30 7929 O 739.196 -1.7411 1.01231 0
M  V30 7930 C 736.261 -2.81638 2.02191 0
M  V30 7931 C 735.322 -2.7923 3.26082 0
M  V30 7932 C 734.555 -4.07974 3.44082 0
M  V30 7933 O 734.778 -5.04447 2.66251 0
M  V30 7934 O 733.712 -4.13417 4.37458 0
M  V30 7935 H 737.538 -1.24156 2.77162 0
M  V30 7936 H 735.123 -0.550201 1.389 0
M  V30 7937 H 737.005 -3.61732 2.16167 0
M  V30 7938 H 735.68 -3.03892 1.11496 0
M  V30 7939 H 734.587 -1.97813 3.17523 0
M  V30 7940 H 735.92 -2.6193 4.16718 0
M  V30 7941 N 737.572 -1.44907 -0.619662 0
M  V30 7942 C 738.482 -1.55168 -1.75955 0
M  V30 7943 C 739.498 -0.43672 -1.6843 0
M  V30 7944 O 740.674 -0.695704 -1.89002 0
M  V30 7945 C 737.739 -1.50397 -3.12381 0
M  V30 7946 C 736.8 -2.72835 -3.31451 0
M  V30 7947 C 736.033 -2.68283 -4.61368 0
M  V30 7948 O 736.256 -1.74929 -5.42914 0
M  V30 7949 O 735.19 -3.59308 -4.82889 0
M  V30 7950 H 739.016 -2.51493 -1.7025 0
M  V30 7951 H 736.601 -1.27282 -0.782289 0
M  V30 7952 H 738.483 -1.50301 -3.93685 0
M  V30 7953 H 737.158 -0.572197 -3.18603 0
M  V30 7954 H 736.065 -2.78496 -2.49781 0
M  V30 7955 H 737.398 -3.65098 -3.30098 0
M  V30 7956 N 739.05 0.861098 -1.31996 0
M  V30 7957 C 740.28 1.64501 -1.24992 0
M  V30 7958 C 740.688 1.88288 0.185576 0
M  V30 7959 O 740.031 1.44756 1.131 0
M  V30 7960 C 740.093 3.03098 -1.93319 0
M  V30 7961 C 739.757 3.02381 -3.42658 0
M  V30 7962 C 740.754 2.79696 -4.38254 0
M  V30 7963 C 738.439 3.23221 -3.84491 0
M  V30 7964 C 740.433 2.77843 -5.73657 0
M  V30 7965 C 738.12 3.20996 -5.20005 0
M  V30 7966 C 739.118 2.98335 -6.14398 0
M  V30 7967 O 738.806 2.95971 -7.47433 0
M  V30 7968 H 738.538 0.519309 -0.432775 0
M  V30 7969 H 741.092 1.08241 -1.74565 0
M  V30 7970 H 739.322 3.61121 -1.38306 0
M  V30 7971 H 741.011 3.63751 -1.8011 0
M  V30 7972 H 741.777 2.63368 -4.07262 0
M  V30 7973 H 737.656 3.39887 -3.11445 0
M  V30 7974 H 741.2 2.60074 -6.47308 0
M  V30 7975 H 737.097 3.36865 -5.50629 0
M  V30 7976 H 737.865 3.1197 -7.56714 0
M  V30 7977 N 740.528 1.15101 1.07655 0
M  V30 7978 C 741.475 0.844958 2.14777 0
M  V30 7979 C 742.445 -0.200798 1.64882 0
M  V30 7980 O 743.63 -0.0690278 1.90675 0
M  V30 7981 C 740.77 0.337018 3.4345 0
M  V30 7982 C 739.883 1.44398 4.07153 0
M  V30 7983 C 739.018 0.892487 5.23649 0
M  V30 7984 C 738.057 1.9766 5.79307 0
M  V30 7985 N 737.194 1.44171 6.87138 0
M  V30 7986 H 742.034 1.76242 2.40297 0
M  V30 7987 H 739.571 0.879435 1.17917 0
M  V30 7988 H 741.529 0.024256 4.17193 0
M  V30 7989 H 740.159 -0.543531 3.18191 0
M  V30 7990 H 739.211 1.87299 3.31094 0
M  V30 7991 H 740.523 2.26262 4.4453 0
M  V30 7992 H 739.677 0.532083 6.04362 0
M  V30 7993 H 738.416 0.0429854 4.87681 0
M  V30 7994 H 737.421 2.34586 4.97242 0
M  V30 7995 H 738.646 2.82982 6.17331 0
M  V30 7996 H 736.592 0.614518 6.53115 0
M  V30 7997 H 736.509 2.19665 7.23383 0
M  V30 7998 H 737.777 1.10945 7.71564 0
M  V30 7999 N 742.006 -1.2595 0.947325 0
M  V30 8000 C 742.953 -2.26159 0.460497 0
M  V30 8001 C 743.923 -1.58919 -0.483125 0
M  V30 8002 O 745.108 -1.86603 -0.397983 0
M  V30 8003 C 742.248 -3.441 -0.26247 0
M  V30 8004 C 741.361 -4.25999 0.717539 0
M  V30 8005 C 740.496 -5.31193 -0.0272486 0
M  V30 8006 C 739.535 -6.04774 0.944177 0
M  V30 8007 N 738.672 -7.01721 0.230741 0
M  V30 8008 H 743.512 -2.67173 1.31995 0
M  V30 8009 H 741.049 -1.31358 0.662088 0
M  V30 8010 H 743.007 -4.11317 -0.698137 0
M  V30 8011 H 741.637 -3.03983 -1.08602 0
M  V30 8012 H 740.689 -3.58513 1.27171 0
M  V30 8013 H 742.001 -4.76981 1.45913 0
M  V30 8014 H 741.155 -6.04451 -0.521903 0
M  V30 8015 H 739.894 -4.81066 -0.801682 0
M  V30 8016 H 738.899 -5.30338 1.4499 0
M  V30 8017 H 740.124 -6.56991 1.71872 0
M  V30 8018 H 738.07 -6.53895 -0.525088 0
M  V30 8019 H 737.987 -7.50484 0.911556 0
M  V30 8020 H 739.255 -7.79122 -0.242616 0
M  V30 8021 N 743.484 -0.715051 -1.40445 0
M  V30 8022 C 744.394 -0.0631624 -2.34515 0
M  V30 8023 C 745.41 0.744397 -1.57273 0
M  V30 8024 O 746.586 0.677475 -1.89663 0
M  V30 8025 C 743.651 0.847915 -3.36172 0
M  V30 8026 C 742.712 0.0303655 -4.29289 0
M  V30 8027 C 741.945 0.898051 -5.2609 0
M  V30 8028 O 742.168 2.13729 -5.28844 0
M  V30 8029 O 741.102 0.337328 -6.00954 0
M  V30 8030 H 744.928 -0.839078 -2.91879 0
M  V30 8031 H 742.513 -0.475527 -1.4163 0
M  V30 8032 H 744.395 1.3698 -3.98515 0
M  V30 8033 H 743.07 1.60299 -2.81222 0
M  V30 8034 H 741.977 -0.536573 -3.70232 0
M  V30 8035 H 743.31 -0.686474 -4.87389 0
M  V30 8036 N 744.962 1.50701 -0.461195 0
M  V30 8037 C 746.21 2.01867 0.0970051 0
M  V30 8038 C 746.531 1.34591 1.41104 0
M  V30 8039 O 745.801 0.488041 1.89723 0
M  V30 8040 H 744.381 0.74599 0.0388392 0
M  V30 8041 H 747.043 1.85129 -0.609357 0
M  V30 8042 H 746.139 3.11051 0.255688 0
M  V30 8043 N 746.441 0.193421 1.56409 0
M  V30 8044 C 747.69 -0.445995 1.96707 0
M  V30 8045 C 748.003 -1.62876 1.08309 0
M  V30 8046 O 749.209 -2.33586 1.38383 0
M  V30 8047 C 747.665 -0.844863 3.49843 0
M  V30 8048 C 747.273 0.31352 4.46902 0
M  V30 8049 C 749.017 -1.45146 3.98915 0
M  V30 8050 C 746.924 -0.106214 5.91305 0
M  V30 8051 H 745.854 -0.170398 0.734493 0
M  V30 8052 H 748.505 0.285172 1.81271 0
M  V30 8053 H 746.887 -1.63265 3.60778 0
M  V30 8054 H 748.061 1.09103 4.47698 0
M  V30 8055 H 746.376 0.8315 4.08014 0
M  V30 8056 H 748.973 -1.77792 5.04276 0
M  V30 8057 H 749.316 -2.35734 3.43126 0
M  V30 8058 H 749.849 -0.727675 3.91088 0
M  V30 8059 H 746.588 0.765442 6.51016 0
M  V30 8060 H 746.108 -0.848623 5.93766 0
M  V30 8061 H 747.787 -0.542588 6.44721 0
M  V30 8062 N 747.919 -1.57396 -0.0801906 0
M  V30 8063 C 748.829 -2.06451 -1.11423 0
M  V30 8064 C 749.845 -0.992352 -1.42928 0
M  V30 8065 O 751.021 -1.30651 -1.53272 0
M  V30 8066 C 748.086 -2.49164 -2.41077 0
M  V30 8067 C 747.147 -3.70641 -2.16619 0
M  V30 8068 C 746.38 -4.11307 -3.40092 0
M  V30 8069 O 746.603 -3.51922 -4.48895 0
M  V30 8070 O 745.537 -5.04157 -3.288 0
M  V30 8071 H 749.363 -2.94857 -0.727519 0
M  V30 8072 H 746.948 -1.46484 -0.293743 0
M  V30 8073 H 748.83 -2.77196 -3.17396 0
M  V30 8074 H 747.505 -1.6389 -2.79145 0
M  V30 8075 H 746.412 -3.47703 -1.38033 0
M  V30 8076 H 747.745 -4.5674 -1.83437 0
M  V30 8077 N 749.397 0.351382 -1.53633 0
M  V30 8078 C 750.643 1.09049 -1.71697 0
M  V30 8079 C 750.998 1.86563 -0.470314 0
M  V30 8080 O 750.291 1.83922 0.536954 0
M  V30 8081 C 750.485 2.06744 -2.91533 0
M  V30 8082 C 750.314 1.38832 -4.27733 0
M  V30 8083 C 749.084 1.13646 -4.92354 0
M  V30 8084 C 751.282 0.818602 -5.07743 0
M  V30 8085 N 749.264 0.422324 -6.12446 0
M  V30 8086 C 750.635 0.234602 -6.19556 0
M  V30 8087 C 752.69 0.718679 -4.92686 0
M  V30 8088 C 751.393 -0.439592 -7.17955 0
M  V30 8089 C 753.419 0.0582402 -5.91371 0
M  V30 8090 C 752.781 -0.514823 -7.02516 0
M  V30 8091 H 748.88 0.383697 -0.681396 0
M  V30 8092 H 751.464 0.375063 -1.91053 0
M  V30 8093 H 749.635 2.75586 -2.73691 0
M  V30 8094 H 751.367 2.73436 -2.98353 0
M  V30 8095 H 748.122 1.4215 -4.51764 0
M  V30 8096 H 748.546 0.0802092 -6.76952 0
M  V30 8097 H 753.188 1.14748 -4.06931 0
M  V30 8098 H 750.906 -0.880307 -8.03291 0
M  V30 8099 H 754.492 -0.0183382 -5.81797 0
M  V30 8100 H 753.372 -1.01777 -7.77567 0
M  V30 8101 N 750.875 1.45233 0.611969 0
M  V30 8102 C 752.103 1.52539 1.39784 0
M  V30 8103 C 752.518 0.156533 1.8815 0
M  V30 8104 O 751.875 -0.84112 1.61961 0
M  V30 8105 C 751.926 2.50614 2.60528 0
M  V30 8106 O 751.647 3.8218 2.14173 0
M  V30 8107 C 753.148 2.67574 3.53439 0
M  V30 8108 H 750.368 0.51674 0.428043 0
M  V30 8109 H 752.912 1.90379 0.746727 0
M  V30 8110 H 751.067 2.15858 3.2169 0
M  V30 8111 H 751.481 4.35305 2.92592 0
M  V30 8112 H 752.955 3.40184 4.34717 0
M  V30 8113 H 753.432 1.73458 4.03496 0
M  V30 8114 H 754.038 3.0331 2.98133 0
M  V30 8115 N 752.353 -0.854086 1.3245 0
M  V30 8116 C 753.6 -1.60831 1.23043 0
M  V30 8117 C 753.928 -1.93389 -0.2076 0
M  V30 8118 O 753.183 -1.5756 -1.16075 0
M  V30 8119 C 753.482 -2.93746 2.03587 0
M  V30 8120 C 753.148 -2.80615 3.52939 0
M  V30 8121 C 751.81 -2.76742 3.93659 0
M  V30 8122 C 754.162 -2.66507 4.4791 0
M  V30 8123 C 751.49 -2.56638 5.27592 0
M  V30 8124 C 753.842 -2.47939 5.81987 0
M  V30 8125 C 752.506 -2.42458 6.21909 0
M  V30 8126 H 751.776 -0.588523 0.450247 0
M  V30 8127 H 754.423 -0.990699 1.63882 0
M  V30 8128 H 752.728 -3.5963 1.55478 0
M  V30 8129 H 754.425 -3.51127 1.93677 0
M  V30 8130 H 751.015 -2.84456 3.20598 0
M  V30 8131 H 755.199 -2.68544 4.1737 0
M  V30 8132 H 750.455 -2.50831 5.57579 0
M  V30 8133 H 754.629 -2.36002 6.55192 0
M  V30 8134 H 752.256 -2.2664 7.2563 0
M  V30 8135 N 753.831 -1.1567 -1.07043 0
M  V30 8136 C 755.08 -0.928039 -1.79082 0
M  V30 8137 C 755.393 0.545968 -1.87826 0
M  V30 8138 O 756.599 0.892308 -2.56418 0
M  V30 8139 C 755.055 -1.61103 -3.21829 0
M  V30 8140 C 754.663 -3.12228 -3.21275 0
M  V30 8141 C 756.407 -1.46404 -3.98455 0
M  V30 8142 C 754.314 -3.733 -4.58695 0
M  V30 8143 H 753.244 -0.34357 -0.671175 0
M  V30 8144 H 755.895 -1.38718 -1.20123 0
M  V30 8145 H 754.277 -1.07958 -3.81 0
M  V30 8146 H 755.451 -3.72155 -2.71731 0
M  V30 8147 H 753.766 -3.26725 -2.58147 0
M  V30 8148 H 756.363 -1.8942 -5.00024 0
M  V30 8149 H 756.706 -0.41195 -4.14257 0
M  V30 8150 H 757.239 -1.96663 -3.45787 0
M  V30 8151 H 753.978 -4.78423 -4.48098 0
M  V30 8152 H 753.498 -3.18157 -5.08465 0
M  V30 8153 H 755.177 -3.7441 -5.27661 0
M  V30 8154 N 755.309 1.25446 -0.953992 0
M  V30 8155 C 756.586 1.884 -0.525823 0
M  V30 8156 C 756.966 1.86079 0.996891 0
M  V30 8157 O 756.314 1.32389 1.8624 0
M  V30 8158 C 756.524 3.31154 -1.10172 0
M  V30 8159 C 757.872 4.07926 -1.17819 0
M  V30 8160 O 758.896 3.40273 -1.05323 0
M  V30 8161 O 757.755 5.28942 -1.37415 0
M  V30 8162 H 754.849 0.808629 -0.173345 0
M  V30 8163 H 757.395 1.33522 -1.04738 0
M  V30 8164 H 756.167 3.27271 -2.14499 0
M  V30 8165 H 755.79 3.93588 -0.56338 0
M  V30 8166 N 756.787 0.722489 1.40064 0
M  V30 8167 C 758.034 0.264979 2.00759 0
M  V30 8168 C 758.362 -1.14395 1.57302 0
M  V30 8169 O 757.617 -1.79165 0.787298 0
M  V30 8170 C 757.916 0.300682 3.56133 0
M  V30 8171 C 757.582 1.66087 4.19197 0
M  V30 8172 C 756.244 2.03319 4.36136 0
M  V30 8173 C 758.596 2.55452 4.54306 0
M  V30 8174 C 755.924 3.29448 4.8547 0
M  V30 8175 C 758.276 3.8094 5.05042 0
M  V30 8176 C 756.94 4.1828 5.2019 0
M  V30 8177 H 756.21 0.0969625 0.734629 0
M  V30 8178 H 758.857 0.926877 1.67575 0
M  V30 8179 H 757.162 -0.44479 3.89267 0
M  V30 8180 H 758.859 -0.0712542 4.00937 0
M  V30 8181 H 755.449 1.36137 4.06405 0
M  V30 8182 H 759.633 2.27961 4.40849 0
M  V30 8183 H 754.889 3.58338 4.95382 0
M  V30 8184 H 759.063 4.50351 5.31184 0
M  V30 8185 H 756.69 5.16081 5.58179 0
M  V30 8186 N 758.265 -1.50454 0.469181 0
M  V30 8187 C 759.513 -2.01916 -0.0862982 0
M  V30 8188 C 759.834 -1.35337 -1.40388 0
M  V30 8189 O 759.104 -0.498096 -1.89462 0
M  V30 8190 H 757.684 -0.746185 -0.0348825 0
M  V30 8191 H 760.346 -1.84804 0.619167 0
M  V30 8192 H 759.442 -3.11182 -0.239189 0
M  V30 8193 N 759.743 -0.201713 -1.56304 0
M  V30 8194 C 760.676 0.755976 -2.15314 0
M  V30 8195 C 761.654 1.20497 -1.09175 0
M  V30 8196 O 762.838 1.2913 -1.37323 0
M  V30 8197 C 759.965 2.02177 -2.71739 0
M  V30 8198 C 759.011 1.71436 -3.90528 0
M  V30 8199 S 759.844 0.856624 -5.28604 0
M  V30 8200 C 761 2.13242 -5.88455 0
M  V30 8201 H 761.233 0.254348 -2.9621 0
M  V30 8202 H 758.766 0.0133669 -1.54394 0
M  V30 8203 H 760.724 2.74867 -3.04891 0
M  V30 8204 H 759.385 2.49452 -1.90873 0
M  V30 8205 H 758.578 2.65433 -4.28441 0
M  V30 8206 H 758.18 1.06823 -3.5842 0
M  V30 8207 H 760.472 3.08435 -6.0322 0
M  V30 8208 H 761.415 1.7975 -6.84905 0
M  V30 8209 H 761.823 2.2639 -5.17115 0
M  V30 8210 N 761.222 1.57436 0.0718424 0
M  V30 8211 C 762.499 1.78312 0.804006 0
M  V30 8212 C 762.879 0.789273 1.9579 0
M  V30 8213 O 762.227 -0.177605 2.27809 0
M  V30 8214 C 762.437 3.24798 1.277 0
M  V30 8215 C 763.785 3.88627 1.71039 0
M  V30 8216 O 764.809 3.28689 1.37266 0
M  V30 8217 O 763.668 4.94073 2.33567 0
M  V30 8218 H 760.762 0.73178 0.385262 0
M  V30 8219 H 763.308 1.69621 0.0519219 0
M  V30 8220 H 762.08 3.88688 0.45134 0
M  V30 8221 H 761.703 3.38213 2.0904 0
M  V30 8222 N 762.7 -0.34323 1.53817 0
M  V30 8223 C 763.63 -1.42709 1.84814 0
M  V30 8224 C 764.611 -1.5488 0.703297 0
M  V30 8225 O 765.796 -1.69082 0.955237 0
M  V30 8226 C 762.926 -2.79756 2.05801 0
M  V30 8227 C 761.88 -2.82392 3.21619 0
M  V30 8228 C 761.206 -4.22326 3.2794 0
M  V30 8229 C 762.506 -2.479 4.59721 0
M  V30 8230 H 764.2 -1.17018 2.75585 0
M  V30 8231 H 761.746 -0.561485 1.32602 0
M  V30 8232 H 763.699 -3.55627 2.26069 0
M  V30 8233 H 762.423 -3.06883 1.11761 0
M  V30 8234 H 761.082 -2.08974 3.01207 0
M  V30 8235 H 760.73 -4.46564 2.31494 0
M  V30 8236 H 760.43 -4.25001 4.05768 0
M  V30 8237 H 761.954 -5.00039 3.50419 0
M  V30 8238 H 763.368 -3.13484 4.80001 0
M  V30 8239 H 761.765 -2.61857 5.39954 0
M  V30 8240 H 762.835 -1.43087 4.63308 0
M  V30 8241 N 764.178 -1.45556 -0.604258 0
M  V30 8242 C 765.11 -1.50494 -1.72871 0
M  V30 8243 C 766.123 -0.395368 -1.57926 0
M  V30 8244 O 767.312 -0.662603 -1.65746 0
M  V30 8245 C 764.412 -1.34874 -3.10906 0
M  V30 8246 C 763.585 -2.59564 -3.52058 0
M  V30 8247 C 762.644 -2.38453 -4.6907 0
M  V30 8248 O 761.67 -3.12082 -4.76018 0
M  V30 8249 N 762.872 -1.43229 -5.62553 0
M  V30 8250 H 765.637 -2.4744 -1.69097 0
M  V30 8251 H 763.198 -1.41338 -0.789636 0
M  V30 8252 H 765.19 -1.18556 -3.86945 0
M  V30 8253 H 763.76 -0.461913 -3.09168 0
M  V30 8254 H 762.98 -2.90974 -2.65946 0
M  V30 8255 H 764.268 -3.42441 -3.76313 0
M  V30 8256 H 763.666 -0.824714 -5.59656 0
M  V30 8257 H 762.223 -1.32882 -6.38111 0
M  V30 8258 N 765.656 0.84705 -1.32902 0
M  V30 8259 C 766.619 1.9378 -1.224 0
M  V30 8260 C 767.619 1.60144 -0.145108 0
M  V30 8261 O 768.809 1.69638 -0.396058 0
M  V30 8262 C 765.941 3.29234 -0.884174 0
M  V30 8263 H 767.134 2.04518 -2.19345 0
M  V30 8264 H 764.687 1.03816 -1.16842 0
M  V30 8265 H 765.422 3.24193 0.0831277 0
M  V30 8266 H 765.207 3.55026 -1.6643 0
M  V30 8267 H 766.697 4.09162 -0.835226 0
M  V30 8268 N 767.134 1.16236 1.06428 0
M  V30 8269 C 768.374 0.95369 1.80787 0
M  V30 8270 C 768.738 -0.509495 1.85117 0
M  V30 8271 O 769.939 -0.836822 2.55442 0
M  V30 8272 C 768.21 1.56235 3.21443 0
M  V30 8273 S 769.769 1.49812 4.12434 0
M  V30 8274 H 766.587 0.343004 0.622792 0
M  V30 8275 H 769.189 1.47957 1.27785 0
M  V30 8276 H 767.893 2.62 3.15886 0
M  V30 8277 H 767.424 1.03574 3.79521 0
M  V30 8278 H 769.439 0.49745 4.937 0
M  V30 8279 N 768.612 -1.24939 0.960631 0
M  V30 8280 C 769.861 -1.92118 0.614298 0
M  V30 8281 C 770.174 -1.75998 -0.853474 0
M  V30 8282 O 771.38 -2.37804 -1.31003 0
M  V30 8283 C 769.836 -3.44303 1.04801 0
M  V30 8284 C 769.444 -3.69123 2.53875 0
M  V30 8285 C 771.188 -4.17375 0.774497 0
M  V30 8286 C 769.095 -5.14843 2.91016 0
M  V30 8287 H 768.025 -0.719319 0.226045 0
M  V30 8288 H 770.676 -1.41701 1.16589 0
M  V30 8289 H 769.058 -3.93715 0.42479 0
M  V30 8290 H 770.232 -3.30339 3.21267 0
M  V30 8291 H 768.547 -3.09323 2.78762 0
M  V30 8292 H 771.144 -5.24723 1.02808 0
M  V30 8293 H 771.487 -4.15294 -0.289192 0
M  V30 8294 H 772.02 -3.7389 1.35835 0
M  V30 8295 H 768.759 -5.2204 3.96427 0
M  V30 8296 H 768.279 -5.54652 2.28302 0
M  V30 8297 H 769.958 -5.83017 2.80535 0
M  V30 8298 N 770.09 -0.729906 -1.39679 0
M  V30 8299 C 771.367 -0.202149 -1.94553 0
M  V30 8300 C 771.747 1.29507 -1.66707 0
M  V30 8301 O 771.095 2.05819 -0.992517 0
M  V30 8302 C 771.305 -0.530279 -3.44948 0
M  V30 8303 C 772.653 -0.476808 -4.21914 0
M  V30 8304 O 773.677 -0.467171 -3.53123 0
M  V30 8305 O 772.536 -0.466869 -5.44502 0
M  V30 8306 H 769.63 -0.0351644 -0.826252 0
M  V30 8307 H 772.176 -0.808417 -1.49207 0
M  V30 8308 H 770.948 -1.56526 -3.5863 0
M  V30 8309 H 770.571 0.10522 -3.97461 0
M  V30 8310 N 771.568 1.50203 -0.477153 0
M  V30 8311 C 772.498 2.31517 0.303646 0
M  V30 8312 C 773.479 1.38696 0.984753 0
M  V30 8313 O 774.664 1.67615 0.980758 0
M  V30 8314 C 771.794 3.18598 1.38249 0
M  V30 8315 C 770.748 4.2002 0.822645 0
M  V30 8316 C 770.074 4.95878 2.00024 0
M  V30 8317 C 771.374 5.22023 -0.170185 0
M  V30 8318 H 773.068 2.97042 -0.375027 0
M  V30 8319 H 770.614 1.42848 -0.181802 0
M  V30 8320 H 772.567 3.74282 1.93625 0
M  V30 8321 H 771.291 2.5097 2.09002 0
M  V30 8322 H 769.95 3.65445 0.290813 0
M  V30 8323 H 769.598 4.24717 2.69489 0
M  V30 8324 H 769.298 5.64487 1.63183 0
M  V30 8325 H 770.822 5.54399 2.55878 0
M  V30 8326 H 772.236 5.72543 0.294606 0
M  V30 8327 H 770.633 5.98386 -0.453181 0
M  V30 8328 H 771.703 4.72396 -1.09408 0
M  V30 8329 N 773.046 0.209999 1.56195 0
M  V30 8330 C 774.295 -0.425106 1.97169 0
M  V30 8331 C 774.608 -1.61718 1.10031 0
M  V30 8332 O 775.814 -2.32105 1.40853 0
M  V30 8333 C 774.27 -0.80771 3.50719 0
M  V30 8334 C 773.878 0.360902 4.46544 0
M  V30 8335 C 775.622 -1.40906 4.00432 0
M  V30 8336 C 773.529 -0.0434919 5.91384 0
M  V30 8337 H 772.459 -0.162598 0.736259 0
M  V30 8338 H 775.11 0.304382 1.80958 0
M  V30 8339 H 773.492 -1.59429 3.62489 0
M  V30 8340 H 774.666 1.13846 4.46515 0
M  V30 8341 H 772.981 0.874729 4.07109 0
M  V30 8342 H 775.578 -1.72433 5.06133 0
M  V30 8343 H 775.921 -2.32081 3.45607 0
M  V30 8344 H 776.454 -0.686154 3.91838 0
M  V30 8345 H 773.193 0.834448 6.50167 0
M  V30 8346 H 772.713 -0.785598 5.94633 0
M  V30 8347 H 774.392 -0.474176 6.4526 0
M  V30 8348 N 774.524 -1.57472 -0.0634922 0
M  V30 8349 C 775.434 -2.07621 -1.09227 0
M  V30 8350 C 776.45 -1.00746 -1.41867 0
M  V30 8351 O 777.626 -1.32269 -1.51878 0
M  V30 8352 C 774.691 -2.51707 -2.38421 0
M  V30 8353 C 773.752 -3.72917 -2.12676 0
M  V30 8354 C 772.985 -4.14891 -3.3571 0
M  V30 8355 O 773.208 -3.56663 -4.45137 0
M  V30 8356 O 772.142 -5.07616 -3.23434 0
M  V30 8357 H 775.968 -2.95612 -0.696205 0
M  V30 8358 H 773.553 -1.46787 -0.27819 0
M  V30 8359 H 775.435 -2.80547 -3.14438 0
M  V30 8360 H 774.11 -1.66842 -2.77391 0
M  V30 8361 H 773.017 -3.49148 -1.34337 0
M  V30 8362 H 774.35 -4.5866 -1.78583 0
M  V30 8363 N 776.003 0.335068 -1.53997 0
M  V30 8364 C 776.95 1.41187 -1.82579 0
M  V30 8365 C 777.92 1.51897 -0.672061 0
M  V30 8366 O 779.105 1.673 -0.917346 0
M  V30 8367 C 776.245 2.77717 -2.0486 0
M  V30 8368 C 775.358 2.7573 -3.32561 0
M  V30 8369 C 774.493 4.04032 -3.44864 0
M  V30 8370 C 773.532 3.96308 -4.66483 0
M  V30 8371 N 772.669 5.16317 -4.75774 0
M  V30 8372 H 777.509 1.16113 -2.74448 0
M  V30 8373 H 775.046 0.562305 -1.35928 0
M  V30 8374 H 777.004 3.57071 -2.15768 0
M  V30 8375 H 775.634 3.01124 -1.16294 0
M  V30 8376 H 774.686 1.88432 -3.3045 0
M  V30 8377 H 775.998 2.65902 -4.22016 0
M  V30 8378 H 775.152 4.91814 -3.55251 0
M  V30 8379 H 773.891 4.16652 -2.53481 0
M  V30 8380 H 772.896 3.06911 -4.56164 0
M  V30 8381 H 774.121 3.85263 -5.5924 0
M  V30 8382 H 772.067 5.29464 -3.87303 0
M  V30 8383 H 771.984 5.08779 -5.59178 0
M  V30 8384 H 773.252 6.05846 -4.9048 0
M  V30 8385 N 777.481 1.45874 0.596531 0
M  V30 8386 C 778.892 1.44798 1.17857 0
M  V30 8387 C 779.243 0.181443 1.95359 0
M  V30 8388 O 778.368 -0.716336 2.042 0
M  V30 8389 C 778.963 2.62333 2.14398 0
M  V30 8390 C 777.522 2.64342 2.67955 0
M  V30 8391 C 776.669 2.37244 1.43564 0
M  V30 8392 H 779.62 1.53954 0.385222 0
M  V30 8393 H 779.641 2.37063 2.97626 0
M  V30 8394 H 779.153 3.54499 1.57963 0
M  V30 8395 H 777.254 1.76213 3.28298 0
M  V30 8396 H 777.367 3.63897 3.11634 0
M  V30 8397 H 775.731 1.87022 1.72901 0
M  V30 8398 H 776.514 3.31568 0.889805 0
M  V30 8399 N 778.959 -0.83999 1.33349 0
M  V30 8400 C 779.892 -1.95415 1.17848 0
M  V30 8401 C 780.87 -1.6243 0.0742296 0
M  V30 8402 O 782.054 -1.87014 0.23626 0
M  V30 8403 C 779.181 -3.28938 0.807295 0
M  V30 8404 C 778.227 -3.80895 1.91888 0
M  V30 8405 S 779.06 -4.02709 3.52967 0
M  V30 8406 C 780.216 -5.39185 3.17853 0
M  V30 8407 H 780.449 -2.08265 2.12162 0
M  V30 8408 H 777.982 -0.993643 1.18178 0
M  V30 8409 H 779.94 -4.06093 0.599914 0
M  V30 8410 H 778.601 -3.13881 -0.117234 0
M  V30 8411 H 777.794 -4.77508 1.6125 0
M  V30 8412 H 777.396 -3.10633 2.08286 0
M  V30 8413 H 779.688 -6.21978 2.68608 0
M  V30 8414 H 780.631 -5.74795 4.13542 0
M  V30 8415 H 781.039 -5.03885 2.5448 0
M  V30 8416 N 780.437 -1.16799 -1.0581 0
M  V30 8417 C 781.685 -0.950642 -1.78346 0
M  V30 8418 C 782.006 0.522524 -1.87869 0
M  V30 8419 O 781.276 1.3795 -1.39092 0
M  V30 8420 H 779.856 -0.348736 -0.6606 0
M  V30 8421 H 782.518 -1.47158 -1.27791 0
M  V30 8422 H 781.614 -1.37359 -2.80248 0
M  V30 8423 N 781.915 1.24427 -0.967243 0
M  V30 8424 C 783.164 1.91789 -0.624478 0
M  V30 8425 C 783.477 1.76448 0.844129 0
M  V30 8426 O 784.683 2.38495 1.2974 0
M  V30 8427 C 783.139 3.43743 -1.06626 0
M  V30 8428 C 782.747 3.67771 -2.55829 0
M  V30 8429 C 784.491 4.16958 -0.79662 0
M  V30 8430 C 782.398 5.13293 -2.93742 0
M  V30 8431 H 781.328 0.71811 -0.229856 0
M  V30 8432 H 783.979 1.41081 -1.17339 0
M  V30 8433 H 782.361 3.93484 -0.445663 0
M  V30 8434 H 783.535 3.28631 -3.23015 0
M  V30 8435 H 781.85 3.07841 -2.80398 0
M  V30 8436 H 784.447 5.24171 -1.05589 0
M  V30 8437 H 784.79 4.15442 0.267163 0
M  V30 8438 H 785.323 3.73164 -1.37816 0
M  V30 8439 H 782.062 5.19931 -3.9919 0
M  V30 8440 H 781.582 5.53433 -2.3124 0
M  V30 8441 H 783.261 5.81521 -2.83623 0
M  V30 8442 N 783.393 0.737304 1.3929 0
M  V30 8443 C 784.326 0.0475454 2.2815 0
M  V30 8444 C 785.304 -0.745314 1.44512 0
M  V30 8445 O 786.488 -0.727387 1.739 0
M  V30 8446 C 783.615 -0.939803 3.254 0
M  V30 8447 C 782.661 -0.235153 4.25851 0
M  V30 8448 S 783.494 1.05252 5.25055 0
M  V30 8449 C 784.65 0.0678242 6.25863 0
M  V30 8450 H 784.883 0.801117 2.86303 0
M  V30 8451 H 782.416 0.529197 1.45048 0
M  V30 8452 H 784.374 -1.50417 3.81949 0
M  V30 8453 H 783.035 -1.66623 2.66262 0
M  V30 8454 H 782.228 -0.982336 4.94334 0
M  V30 8455 H 781.83 0.257245 3.73114 0
M  V30 8456 H 784.122 -0.771779 6.7309 0
M  V30 8457 H 785.065 0.719858 7.04431 0
M  V30 8458 H 785.473 -0.305604 5.63672 0
M  V30 8459 N 784.871 -1.49948 0.485112 0
M  V30 8460 C 786.096 -2.073 -0.0645059 0
M  V30 8461 C 786.521 -1.345 -1.31497 0
M  V30 8462 O 785.879 -0.39687 -1.76903 0
M  V30 8463 C 785.927 -3.59201 -0.317304 0
M  V30 8464 O 785.031 -3.88085 -1.39514 0
M  V30 8465 H 784.372 -0.663723 0.0191822 0
M  V30 8466 H 786.902 -1.92963 0.680179 0
M  V30 8467 H 786.912 -4.04227 -0.553604 0
M  V30 8468 H 785.587 -4.11602 0.596387 0
M  V30 8469 H 784.164 -3.54885 -1.14504 0
M  V30 8470 N 786.349 -0.21828 -1.56081 0
M  V30 8471 C 787.598 0.414644 -1.97392 0
M  V30 8472 C 787.911 1.61132 -1.10887 0
M  V30 8473 O 789.117 2.31355 -1.42082 0
M  V30 8474 C 787.573 0.789099 -3.51143 0
M  V30 8475 C 787.181 -0.384578 -4.46346 0
M  V30 8476 C 788.925 1.38781 -4.01173 0
M  V30 8477 C 786.832 0.0121288 -5.91399 0
M  V30 8478 H 785.762 0.158691 -0.737111 0
M  V30 8479 H 788.413 -0.313974 -1.80794 0
M  V30 8480 H 786.795 1.57505 -3.6333 0
M  V30 8481 H 787.969 -1.16212 -4.45905 0
M  V30 8482 H 786.284 -0.896306 -4.06639 0
M  V30 8483 H 788.881 1.69746 -5.07041 0
M  V30 8484 H 789.224 2.30245 -3.46833 0
M  V30 8485 H 789.757 0.665364 -3.92196 0
M  V30 8486 H 786.496 -0.868917 -6.49715 0
M  V30 8487 H 786.016 0.754053 -5.95041 0
M  V30 8488 H 787.695 0.439949 -6.45502 0
M  V30 8489 N 787.827 1.57504 0.0551401 0
M  V30 8490 C 788.757 2.07864 1.06372 0
M  V30 8491 C 789.738 0.975565 1.39344 0
M  V30 8492 O 790.923 1.24929 1.48682 0
M  V30 8493 C 788.053 2.53643 2.3724 0
M  V30 8494 C 787.007 3.67978 2.18578 0
M  V30 8495 C 786.333 3.9987 3.54976 0
M  V30 8496 C 787.633 4.97405 1.59329 0
M  V30 8497 H 789.327 2.92379 0.644595 0
M  V30 8498 H 786.873 1.40654 0.308619 0
M  V30 8499 H 788.826 2.8749 3.08103 0
M  V30 8500 H 787.55 1.66177 2.81163 0
M  V30 8501 H 786.209 3.3444 1.50152 0
M  V30 8502 H 785.857 3.0951 3.965 0
M  V30 8503 H 785.557 4.76867 3.43324 0
M  V30 8504 H 787.081 4.36228 4.27244 0
M  V30 8505 H 788.495 5.29375 2.20078 0
M  V30 8506 H 786.892 5.78837 1.58327 0
M  V30 8507 H 787.962 4.81697 0.55638 0
M  V30 8508 N 789.305 -0.326896 1.54172 0
M  V30 8509 C 790.215 -1.42525 1.86343 0
M  V30 8510 C 791.231 -1.56764 0.75505 0
M  V30 8511 O 792.407 -1.71924 1.04901 0
M  V30 8512 C 789.472 -2.77286 2.08119 0
M  V30 8513 C 788.533 -2.7225 3.31931 0
M  V30 8514 C 787.766 -4.00584 3.52659 0
M  V30 8515 O 787.989 -4.98686 2.76891 0
M  V30 8516 O 786.923 -4.04045 4.46129 0
M  V30 8517 H 790.749 -1.18249 2.79734 0
M  V30 8518 H 788.334 -0.520614 1.40036 0
M  V30 8519 H 790.216 -3.57065 2.23791 0
M  V30 8520 H 788.891 -3.01459 1.17917 0
M  V30 8521 H 787.798 -1.91033 3.21647 0
M  V30 8522 H 789.131 -2.53032 4.2218 0
M  V30 8523 N 790.784 -1.46188 -0.588786 0
M  V30 8524 C 791.694 -1.58865 -1.72624 0
M  V30 8525 C 792.71 -0.472348 -1.67466 0
M  V30 8526 O 793.886 -0.735638 -1.87484 0
M  V30 8527 C 790.951 -1.56989 -3.0912 0
M  V30 8528 C 790.012 -2.79804 -3.25589 0
M  V30 8529 C 789.245 -2.78009 -4.55573 0
M  V30 8530 O 789.468 -1.86406 -5.39082 0
M  V30 8531 O 788.402 -3.6947 -4.75159 0
M  V30 8532 H 792.228 -2.55047 -1.64878 0
M  V30 8533 H 789.813 -1.28912 -0.755115 0
M  V30 8534 H 791.695 -1.58618 -3.90408 0
M  V30 8535 H 790.37 -0.639648 -3.17317 0
M  V30 8536 H 789.277 -2.83732 -2.43818 0
M  V30 8537 H 790.61 -3.72017 -3.22279 0
M  V30 8538 N 792.262 0.832906 -1.33792 0
M  V30 8539 C 793.172 1.97514 -1.26592 0
M  V30 8540 C 794.188 1.73114 -0.175391 0
M  V30 8541 O 795.364 1.97387 -0.400062 0
M  V30 8542 C 792.429 3.31625 -1.01121 0
M  V30 8543 C 791.49 3.69101 -2.19233 0
M  V30 8544 C 790.723 4.96813 -1.94968 0
M  V30 8545 O 790.946 5.63208 -0.902955 0
M  V30 8546 O 789.88 5.31932 -2.8166 0
M  V30 8547 H 793.706 2.0653 -2.22664 0
M  V30 8548 H 791.291 0.966826 -1.13898 0
M  V30 8549 H 793.173 4.11968 -0.886571 0
M  V30 8550 H 791.848 3.23599 -0.080822 0
M  V30 8551 H 790.755 2.89243 -2.37253 0
M  V30 8552 H 792.088 3.818 -3.10628 0
M  V30 8553 N 793.74 1.17359 1.05189 0
M  V30 8554 C 794.98 0.972812 1.79766 0
M  V30 8555 C 795.344 -0.489832 1.85647 0
M  V30 8556 O 796.545 -0.809682 2.56315 0
M  V30 8557 C 794.816 1.59636 3.19767 0
M  V30 8558 S 796.375 1.54178 4.10822 0
M  V30 8559 H 793.193 0.34959 0.619119 0
M  V30 8560 H 795.795 1.49304 1.26209 0
M  V30 8561 H 794.499 2.65336 3.13089 0
M  V30 8562 H 794.03 1.07594 3.78401 0
M  V30 8563 H 796.045 0.549785 4.93145 0
M  V30 8564 N 795.218 -1.23913 0.973828 0
M  V30 8565 C 796.151 -2.23647 0.45355 0
M  V30 8566 C 797.129 -1.55485 -0.475724 0
M  V30 8567 O 798.313 -1.84083 -0.405689 0
M  V30 8568 C 795.44 -3.36942 -0.344594 0
M  V30 8569 C 794.486 -4.23221 0.527859 0
M  V30 8570 S 795.319 -4.97877 1.97177 0
M  V30 8571 C 796.475 -6.14627 1.18258 0
M  V30 8572 H 796.708 -2.67433 1.29873 0
M  V30 8573 H 794.241 -1.33289 0.779322 0
M  V30 8574 H 796.199 -4.02647 -0.799103 0
M  V30 8575 H 794.86 -2.91703 -1.16482 0
M  V30 8576 H 794.053 -5.03928 -0.0852555 0
M  V30 8577 H 793.655 -3.6255 0.918344 0
M  V30 8578 H 795.947 -6.76066 0.440629 0
M  V30 8579 H 796.89 -6.80311 1.96425 0
M  V30 8580 H 797.298 -5.6009 0.704256 0
M  V30 8581 N 796.696 -0.74468 -1.38897 0
M  V30 8582 C 797.943 -0.296884 -2.00312 0
M  V30 8583 C 798.271 1.11878 -1.59102 0
M  V30 8584 O 797.526 1.7789 -0.815702 0
M  V30 8585 C 797.825 -0.357302 -3.55609 0
M  V30 8586 C 797.491 -1.72736 -4.16501 0
M  V30 8587 C 796.153 -2.10232 -4.32846 0
M  V30 8588 C 798.505 -2.62647 -4.50184 0
M  V30 8589 C 795.833 -3.3713 -4.80167 0
M  V30 8590 C 798.185 -3.88926 -4.98918 0
M  V30 8591 C 796.849 -4.26503 -5.1347 0
M  V30 8592 H 796.119 -0.108638 -0.732993 0
M  V30 8593 H 798.766 -0.953419 -1.66079 0
M  V30 8594 H 797.071 0.382805 -3.89925 0
M  V30 8595 H 798.768 0.0074596 -4.00999 0
M  V30 8596 H 795.358 -1.42585 -4.04187 0
M  V30 8597 H 799.542 -2.34945 -4.37166 0
M  V30 8598 H 794.798 -3.66174 -4.89619 0
M  V30 8599 H 798.972 -4.58745 -5.23952 0
M  V30 8600 H 796.599 -5.24896 -5.49898 0
M  V30 8601 N 798.174 1.49689 -0.493057 0
M  V30 8602 C 799.585 1.8665 -0.0433032 0
M  V30 8603 C 799.936 1.40607 1.36836 0
M  V30 8604 O 799.061 0.780503 2.01834 0
M  V30 8605 C 799.656 3.38724 -0.0718069 0
M  V30 8606 C 798.215 3.75015 0.32257 0
M  V30 8607 C 797.362 2.7366 -0.4478 0
M  V30 8608 H 800.313 1.42119 -0.706246 0
M  V30 8609 H 800.334 3.73522 0.725347 0
M  V30 8610 H 799.846 3.72204 -1.09935 0
M  V30 8611 H 797.947 3.47142 1.35364 0
M  V30 8612 H 798.06 4.79099 0.00864259 0
M  V30 8613 H 796.424 2.54498 0.101354 0
M  V30 8614 H 797.207 3.09985 -1.47527 0
M  V30 8615 N 799.652 0.226554 1.55963 0
M  V30 8616 C 800.599 -0.681504 2.20509 0
M  V30 8617 C 801.569 -1.1866 1.16229 0
M  V30 8618 O 802.754 -1.24478 1.44602 0
M  V30 8619 C 799.894 -1.88183 2.89277 0
M  V30 8620 C 799.007 -1.41517 4.08163 0
M  V30 8621 C 798.142 -2.57346 4.647 0
M  V30 8622 C 797.181 -2.07441 5.75877 0
M  V30 8623 N 796.318 -3.16561 6.26685 0
M  V30 8624 H 801.158 -0.124372 2.9774 0
M  V30 8625 H 798.695 -0.0496333 1.47016 0
M  V30 8626 H 800.653 -2.58666 3.27335 0
M  V30 8627 H 799.283 -2.41177 2.14555 0
M  V30 8628 H 798.335 -0.605099 3.75557 0
M  V30 8629 H 799.647 -1.00928 4.88482 0
M  V30 8630 H 798.801 -3.35903 5.05227 0
M  V30 8631 H 797.54 -3.01227 3.83554 0
M  V30 8632 H 796.545 -1.27347 5.34848 0
M  V30 8633 H 797.77 -1.64554 6.58862 0
M  V30 8634 H 795.716 -3.59914 5.48451 0
M  V30 8635 H 795.633 -2.80239 7.02141 0
M  V30 8636 H 796.901 -3.95238 6.71868 0
M  V30 8637 N 801.13 -1.57531 -0.0467866 0
M  V30 8638 C 802.093 -2.04379 -1.03738 0
M  V30 8639 C 803.093 -0.944881 -1.3011 0
M  V30 8640 O 804.283 -1.20904 -1.25411 0
M  V30 8641 C 801.415 -2.44572 -2.37482 0
M  V30 8642 H 802.608 -2.93142 -0.633063 0
M  V30 8643 H 800.161 -1.53526 -0.293177 0
M  V30 8644 H 800.896 -1.58911 -2.82697 0
M  V30 8645 H 800.681 -3.24785 -2.19675 0
M  V30 8646 H 802.171 -2.81307 -3.08636 0
M  V30 8647 N 802.608 0.318715 -1.54344 0
M  V30 8648 C 803.836 1.0755 -1.7675 0
M  V30 8649 C 804.251 1.81543 -0.518422 0
M  V30 8650 O 803.608 1.75198 0.511078 0
M  V30 8651 C 803.659 2.06983 -2.96378 0
M  V30 8652 O 803.38 1.35995 -4.16458 0
M  V30 8653 C 804.881 2.94841 -3.31034 0
M  V30 8654 H 802.101 0.319711 -0.589937 0
M  V30 8655 H 804.645 0.363369 -2.01246 0
M  V30 8656 H 802.8 2.73724 -2.74142 0
M  V30 8657 H 803.214 2.02623 -4.83781 0
M  V30 8658 H 804.688 3.60496 -4.18027 0
M  V30 8659 H 805.165 3.62199 -2.48412 0
M  V30 8660 H 805.771 2.33656 -3.55366 0
M  V30 8661 N 804.086 1.46499 0.581025 0
M  V30 8662 C 805.363 1.42372 1.34125 0
M  V30 8663 C 805.743 0.108073 2.10823 0
M  V30 8664 O 805.091 -0.910366 2.09582 0
M  V30 8665 C 805.301 2.65445 2.26583 0
M  V30 8666 C 806.649 3.11664 2.88359 0
M  V30 8667 O 807.673 2.66006 2.36896 0
M  V30 8668 O 806.532 3.90974 3.81839 0
M  V30 8669 H 803.626 0.566262 0.602724 0
M  V30 8670 H 806.172 1.58667 0.601903 0
M  V30 8671 H 804.944 3.52756 1.69348 0
M  V30 8672 H 804.567 2.51618 3.07854 0
M  V30 8673 N 805.565 -0.825799 1.34232 0
M  V30 8674 C 806.498 -1.94155 1.19914 0
M  V30 8675 C 807.476 -1.62343 0.0914533 0
M  V30 8676 O 808.66 -1.86752 0.256082 0
M  V30 8677 C 805.787 -3.28064 0.842138 0
M  V30 8678 C 804.833 -3.78839 1.95917 0
M  V30 8679 S 805.666 -3.98943 3.57218 0
M  V30 8680 C 806.822 -5.35783 3.23554 0
M  V30 8681 H 807.055 -2.06003 2.14359 0
M  V30 8682 H 804.588 -0.981053 1.19225 0
M  V30 8683 H 806.546 -4.05434 0.642952 0
M  V30 8684 H 805.207 -3.13988 -0.0839363 0
M  V30 8685 H 804.4 -4.75771 1.66306 0
M  V30 8686 H 804.002 -3.08406 2.11569 0
M  V30 8687 H 806.294 -6.19094 2.7519 0
M  V30 8688 H 807.237 -5.70376 4.19615 0
M  V30 8689 H 807.645 -5.01158 2.5981 0
M  V30 8690 N 807.043 -1.17915 -1.04565 0
M  V30 8691 C 808.271 -0.99616 -1.8134 0
M  V30 8692 C 808.686 0.455509 -1.83223 0
M  V30 8693 O 808.043 1.31636 -1.26405 0
M  V30 8694 C 808.094 -1.53758 -3.27171 0
M  V30 8695 O 807.815 -2.93241 -3.25486 0
M  V30 8696 C 809.316 -1.40007 -4.2061 0
M  V30 8697 H 806.536 -0.352055 -0.571225 0
M  V30 8698 H 809.08 -1.56349 -1.31815 0
M  V30 8699 H 807.235 -1.01213 -3.73945 0
M  V30 8700 H 807.649 -3.18392 -4.16805 0
M  V30 8701 H 809.123 -1.82695 -5.2089 0
M  V30 8702 H 809.6 -0.348054 -4.37819 0
M  V30 8703 H 810.206 -1.916 -3.79697 0
M  V30 8704 N 808.521 1.23394 -0.980386 0
M  V30 8705 C 809.768 1.91809 -0.649261 0
M  V30 8706 C 810.096 1.765 0.817197 0
M  V30 8707 O 809.351 1.11979 1.60497 0
M  V30 8708 C 809.65 3.43542 -0.985588 0
M  V30 8709 C 809.316 3.79031 -2.44225 0
M  V30 8710 C 807.978 3.88429 -2.84035 0
M  V30 8711 C 810.33 3.96145 -3.38702 0
M  V30 8712 C 807.658 4.12368 -4.17336 0
M  V30 8713 C 810.01 4.21583 -4.71646 0
M  V30 8714 C 808.674 4.29203 -5.11215 0
M  V30 8715 H 807.944 0.70188 -0.237581 0
M  V30 8716 H 810.591 1.4642 -1.23424 0
M  V30 8717 H 808.896 3.90503 -0.318521 0
M  V30 8718 H 810.593 3.94708 -0.707596 0
M  V30 8719 H 807.183 3.7229 -2.12362 0
M  V30 8720 H 811.367 3.88274 -3.09123 0
M  V30 8721 H 806.623 4.1649 -4.47601 0
M  V30 8722 H 810.797 4.33769 -5.4481 0
M  V30 8723 H 808.424 4.47505 -6.14527 0
M  V30 8724 N 809.999 0.752036 1.385 0
M  V30 8725 C 810.946 0.123288 2.3047 0
M  V30 8726 C 811.916 -0.711326 1.50098 0
M  V30 8727 O 813.101 -0.667775 1.78733 0
M  V30 8728 C 810.241 -0.765085 3.36512 0
M  V30 8729 C 809.354 0.0839885 4.31918 0
M  V30 8730 C 808.489 -0.807243 5.25031 0
M  V30 8731 C 807.528 0.0455583 6.12083 0
M  V30 8732 N 806.665 -0.802547 6.97498 0
M  V30 8733 H 811.505 0.913169 2.83664 0
M  V30 8734 H 809.042 0.46195 1.39658 0
M  V30 8735 H 811 -1.29476 3.966 0
M  V30 8736 H 809.63 -1.52077 2.84732 0
M  V30 8737 H 808.682 0.731276 3.73305 0
M  V30 8738 H 809.994 0.74265 4.9324 0
M  V30 8739 H 809.148 -1.40414 5.90228 0
M  V30 8740 H 807.887 -1.49964 4.64071 0
M  V30 8741 H 806.892 0.655137 5.45883 0
M  V30 8742 H 808.117 0.734994 6.75111 0
M  V30 8743 H 806.063 -1.47992 6.39089 0
M  V30 8744 H 805.98 -0.200747 7.55733 0
M  V30 8745 H 807.248 -1.38447 7.67107 0
M  V30 8746 N 811.477 -1.49425 0.500989 0
M  V30 8747 C 812.44 -2.27646 -0.266416 0
M  V30 8748 C 813.44 -1.3366 -0.893961 0
M  V30 8749 O 814.63 -1.5682 -0.758495 0
M  V30 8750 C 811.762 -3.11618 -1.38227 0
M  V30 8751 H 812.955 -2.96945 0.419973 0
M  V30 8752 H 810.508 -1.5419 0.255954 0
M  V30 8753 H 811.243 -2.46885 -2.10281 0
M  V30 8754 H 811.028 -3.80721 -0.937746 0
M  V30 8755 H 812.518 -3.70698 -1.92283 0
M  V30 8756 N 812.955 -0.234822 -1.55841 0
M  V30 8757 C 813.902 0.6698 -2.20867 0
M  V30 8758 C 814.872 1.18042 -1.16856 0
M  V30 8759 O 816.057 1.23709 -1.45261 0
M  V30 8760 C 813.197 1.86646 -2.90271 0
M  V30 8761 C 812.31 1.39351 -4.08908 0
M  V30 8762 C 811.445 2.54878 -4.66059 0
M  V30 8763 C 810.484 2.04384 -5.76969 0
M  V30 8764 N 809.621 3.13233 -6.28355 0
M  V30 8765 H 814.461 0.10858 -2.97802 0
M  V30 8766 H 811.998 0.041836 -1.4704 0
M  V30 8767 H 813.956 2.56926 -3.28702 0
M  V30 8768 H 812.586 2.40035 -2.15831 0
M  V30 8769 H 811.638 0.585173 -3.75872 0
M  V30 8770 H 812.95 0.983356 -4.89011 0
M  V30 8771 H 812.104 3.33219 -5.07001 0
M  V30 8772 H 810.843 2.99188 -3.85146 0
M  V30 8773 H 809.848 1.24509 -5.35516 0
M  V30 8774 H 811.073 1.61057 -6.59725 0
M  V30 8775 H 809.019 3.57 -5.50352 0
M  V30 8776 H 808.936 2.76511 -7.03618 0
M  V30 8777 H 810.204 3.91669 -6.73955 0
M  V30 8778 N 814.433 1.57553 0.0384317 0
M  V30 8779 C 815.363 2.0898 1.04161 0
M  V30 8780 C 816.344 0.99029 1.38301 0
M  V30 8781 O 817.529 1.26499 1.47349 0
M  V30 8782 C 814.659 2.56145 2.34536 0
M  V30 8783 C 813.613 3.70275 2.14663 0
M  V30 8784 C 812.939 4.03612 3.50715 0
M  V30 8785 C 814.239 4.99067 1.54045 0
M  V30 8786 H 815.933 2.93046 0.613548 0
M  V30 8787 H 813.479 1.40973 0.293684 0
M  V30 8788 H 815.432 2.90741 3.05037 0
M  V30 8789 H 814.156 1.6915 2.79385 0
M  V30 8790 H 812.815 3.36013 1.46597 0
M  V30 8791 H 812.463 3.13698 3.93195 0
M  V30 8792 H 812.163 4.80482 3.38247 0
M  V30 8793 H 813.687 4.40735 4.22593 0
M  V30 8794 H 815.101 5.3168 2.14451 0
M  V30 8795 H 813.498 5.80484 1.52178 0
M  V30 8796 H 814.568 4.8226 0.505259 0
M  V30 8797 N 815.911 -0.310526 1.54511 0
M  V30 8798 C 817.158 -1.04691 1.73338 0
M  V30 8799 C 817.486 -1.87584 0.514038 0
M  V30 8800 O 816.741 -1.89096 -0.504119 0
M  V30 8801 C 817.04 -1.98942 2.96912 0
M  V30 8802 C 816.706 -1.321 4.31115 0
M  V30 8803 C 815.368 -1.13603 4.67598 0
M  V30 8804 C 817.72 -0.842362 5.14348 0
M  V30 8805 C 815.048 -0.459102 5.84901 0
M  V30 8806 C 817.4 -0.179202 6.32346 0
M  V30 8807 C 816.064 0.0178111 6.67498 0
M  V30 8808 H 815.334 -0.38309 0.634289 0
M  V30 8809 H 817.981 -0.322723 1.88761 0
M  V30 8810 H 816.286 -2.77856 2.76231 0
M  V30 8811 H 817.983 -2.55972 3.08674 0
M  V30 8812 H 814.573 -1.47502 4.02419 0
M  V30 8813 H 818.757 -0.973013 4.86668 0
M  V30 8814 H 814.013 -0.295385 6.10686 0
M  V30 8815 H 818.187 0.199619 6.96114 0
M  V30 8816 H 815.814 0.544356 7.58249 0
M  V30 8817 N 817.389 -1.46805 -0.573248 0
M  V30 8818 C 818.666 -1.43082 -1.33368 0
M  V30 8819 C 819.046 -0.119252 -2.10763 0
M  V30 8820 O 818.394 0.899239 -2.10062 0
M  V30 8821 C 818.604 -2.66643 -2.25172 0
M  V30 8822 C 819.952 -3.13188 -2.86702 0
M  V30 8823 O 820.976 -2.67258 -2.35482 0
M  V30 8824 O 819.835 -3.92994 -3.79761 0
M  V30 8825 H 816.929 -0.569451 -0.599712 0
M  V30 8826 H 819.475 -1.58984 -0.59348 0
M  V30 8827 H 818.247 -3.53649 -1.67475 0
M  V30 8828 H 817.87 -2.53247 -3.06516 0
M  V30 8829 N 818.867 0.818669 -1.34668 0
M  V30 8830 C 819.815 1.95123 -1.26609 0
M  V30 8831 C 820.809 1.68611 -0.163348 0
M  V30 8832 O 822.015 1.76975 -0.328586 0
M  V30 8833 H 818.39 0.640871 -0.393431 0
M  V30 8834 H 820.361 1.99043 -2.22316 0
M  V30 8835 C 819.11 3.31697 -1.04272 0
M  V30 8836 H 818.433 3.52648 -1.8836 0
M  V30 8837 H 819.873 4.11382 -1.0267 0
M  V30 8838 C 818.332 3.35942 0.253858 0
M  V30 8839 O 818.862 3.81632 1.25378 0
M  V30 8840 N 817.068 2.89165 0.288447 0
M  V30 8841 H 816.615 2.52176 -0.525845 0
M  V30 8842 H 816.573 2.92387 1.15572 0
M  V30 8843 N 820.346 1.18468 1.03938 0
M  V30 8844 C 821.296 0.880799 2.103 0
M  V30 8845 C 822.28 -0.150008 1.60199 0
M  V30 8846 O 823.472 0.054213 1.76917 0
M  V30 8847 C 820.601 0.409723 3.40846 0
M  V30 8848 C 819.687 1.47267 3.9771 0
M  V30 8849 N 820.078 2.68945 4.28371 0
M  V30 8850 C 818.376 1.33349 4.25598 0
M  V30 8851 C 819.077 3.37341 4.73894 0
M  V30 8852 N 818.053 2.64725 4.74786 0
M  V30 8853 H 821.855 1.80574 2.31884 0
M  V30 8854 H 819.369 1.07527 1.21703 0
M  V30 8855 H 821.366 0.17352 4.16539 0
M  V30 8856 H 820.026 -0.508862 3.20688 0
M  V30 8857 H 821.037 3.05801 4.17978 0
M  V30 8858 H 817.714 0.477548 4.1476 0
M  V30 8859 H 819.104 4.41338 5.06627 0
M  V30 8860 N 821.824 -1.22873 0.986916 0
M  V30 8861 C 822.754 -2.2688 0.552064 0
M  V30 8862 C 823.735 -1.64883 -0.418048 0
M  V30 8863 O 824.92 -1.9171 -0.30999 0
M  V30 8864 C 822.05 -3.47018 -0.139959 0
M  V30 8865 C 821.004 -4.21411 0.748091 0
M  V30 8866 C 820.33 -5.34645 -0.0765132 0
M  V30 8867 C 821.63 -4.80726 2.04206 0
M  V30 8868 H 823.324 -2.63507 1.42143 0
M  V30 8869 H 820.87 -1.26668 0.68492 0
M  V30 8870 H 822.823 -4.18931 -0.455527 0
M  V30 8871 H 821.547 -3.0947 -1.04382 0
M  V30 8872 H 820.206 -3.51325 1.04721 0
M  V30 8873 H 819.854 -4.93339 -0.981109 0
M  V30 8874 H 819.554 -5.85342 0.514606 0
M  V30 8875 H 821.078 -6.09377 -0.386313 0
M  V30 8876 H 822.492 -5.44612 1.79083 0
M  V30 8877 H 820.889 -5.41737 2.5815 0
M  V30 8878 H 821.959 -4.01109 2.72469 0
M  V30 8879 N 823.302 -0.75937 -1.38099 0
M  V30 8880 C 824.55 -0.317485 -1.99591 0
M  V30 8881 C 824.871 1.10628 -1.60581 0
M  V30 8882 O 824.141 1.7575 -0.865378 0
M  V30 8883 H 822.721 -0.114397 -0.738189 0
M  V30 8884 H 825.383 -0.974749 -1.68774 0
M  V30 8885 H 824.479 -0.385227 -3.09713 0
M  V30 8886 N 824.78 1.49157 -0.508906 0
M  V30 8887 C 825.727 2.2927 0.265288 0
M  V30 8888 C 826.697 1.3603 0.953162 0
M  V30 8889 O 827.882 1.64989 0.958291 0
M  V30 8890 C 825.022 3.18897 1.31904 0
M  V30 8891 C 824.135 4.27201 0.642144 0
M  V30 8892 C 823.27 5.04033 1.67701 0
M  V30 8893 C 822.309 6.04165 0.982422 0
M  V30 8894 N 821.446 6.74133 1.96186 0
M  V30 8895 H 826.286 2.94967 -0.424107 0
M  V30 8896 H 823.823 1.45431 -0.220991 0
M  V30 8897 H 825.781 3.69242 1.94206 0
M  V30 8898 H 824.411 2.55168 1.97709 0
M  V30 8899 H 823.463 3.80283 -0.0943395 0
M  V30 8900 H 824.775 4.98708 0.0957507 0
M  V30 8901 H 823.929 5.58287 2.37487 0
M  V30 8902 H 822.668 4.32317 2.25728 0
M  V30 8903 H 821.673 5.49135 0.270378 0
M  V30 8904 H 822.898 6.7787 0.408554 0
M  V30 8905 H 820.844 6.05183 2.53159 0
M  V30 8906 H 820.761 7.41643 1.46634 0
M  V30 8907 H 822.029 7.32987 2.65236 0
M  V30 8908 N 826.258 0.243083 1.55714 0
M  V30 8909 C 827.483 -0.389944 2.03701 0
M  V30 8910 C 827.908 -1.51025 1.12129 0
M  V30 8911 O 827.266 -1.80944 0.11352 0
M  V30 8912 C 827.314 -0.878649 3.49731 0
M  V30 8913 O 826.418 -1.98851 3.61292 0
M  V30 8914 H 825.759 -0.0855115 0.658471 0
M  V30 8915 H 828.289 0.368023 2.01263 0
M  V30 8916 H 828.299 -1.18287 3.90477 0
M  V30 8917 H 826.974 -0.0588107 4.15858 0
M  V30 8918 H 825.551 -1.68928 3.32442 0
M  V30 8919 N 827.736 -1.57571 -0.0300757 0
M  V30 8920 C 828.699 -2.05468 -1.01565 0
M  V30 8921 C 829.699 -0.958628 -1.29101 0
M  V30 8922 O 830.889 -1.22228 -1.24121 0
M  V30 8923 C 828.021 -2.47077 -2.34874 0
M  V30 8924 H 829.214 -2.93797 -0.601936 0
M  V30 8925 H 826.767 -1.53828 -0.276878 0
M  V30 8926 H 827.502 -1.61901 -2.80996 0
M  V30 8927 H 827.287 -3.27097 -2.16218 0
M  V30 8928 H 828.777 -2.84564 -3.05635 0
M  V30 8929 N 829.214 0.302327 -1.54673 0
M  V30 8930 C 830.162 1.39286 -1.86285 0
M  V30 8931 C 831.156 1.52553 -0.736478 0
M  V30 8932 O 832.362 1.54686 -0.92045 0
M  V30 8933 H 828.737 0.465228 -0.590819 0
M  V30 8934 H 830.708 1.09859 -2.77441 0
M  V30 8935 C 829.457 2.75155 -2.12567 0
M  V30 8936 H 828.78 2.65728 -2.98712 0
M  V30 8937 H 830.22 3.50476 -2.38627 0
M  V30 8938 C 828.679 3.23987 -0.923813 0
M  V30 8939 O 829.209 4.01443 -0.143649 0
M  V30 8940 N 827.415 2.81293 -0.72956 0
M  V30 8941 H 826.962 2.18421 -1.36565 0
M  V30 8942 H 826.92 3.14315 0.0730351 0
M  V30 8943 N 830.692 1.47107 0.565454 0
M  V30 8944 C 831.939 1.53308 1.32299 0
M  V30 8945 C 832.267 0.1919 1.93551 0
M  V30 8946 O 831.522 -0.81435 1.77952 0
M  V30 8947 C 831.821 2.59309 2.45954 0
M  V30 8948 C 831.487 4.02827 2.02586 0
M  V30 8949 C 830.149 4.41897 1.90474 0
M  V30 8950 C 832.501 4.92913 1.6937 0
M  V30 8951 C 829.829 5.68898 1.4343 0
M  V30 8952 C 832.181 6.20368 1.238 0
M  V30 8953 C 830.845 6.58327 1.10278 0
M  V30 8954 H 830.115 0.560993 0.484116 0
M  V30 8955 H 832.762 1.80667 0.634965 0
M  V30 8956 H 831.067 2.25676 3.20277 0
M  V30 8957 H 832.764 2.61332 3.04149 0
M  V30 8958 H 829.354 3.71953 2.12952 0
M  V30 8959 H 833.538 4.63433 1.77605 0
M  V30 8960 H 828.794 5.97065 1.31618 0
M  V30 8961 H 832.968 6.89589 0.971586 0
M  V30 8962 H 830.595 7.56628 0.736027 0
M  V30 8963 N 832.17 -0.811516 1.35101 0
M  V30 8964 C 833.102 -1.93102 1.23468 0
M  V30 8965 C 834.115 -1.62021 0.159095 0
M  V30 8966 O 835.304 -1.73682 0.411945 0
M  V30 8967 C 832.404 -3.27345 0.877404 0
M  V30 8968 C 831.577 -3.86368 2.05033 0
M  V30 8969 C 830.636 -4.99009 1.66963 0
M  V30 8970 O 829.662 -5.16698 2.38772 0
M  V30 8971 N 830.864 -5.7749 0.590394 0
M  V30 8972 H 833.629 -2.0361 2.19916 0
M  V30 8973 H 831.19 -0.988687 1.28205 0
M  V30 8974 H 833.182 -4.00163 0.604298 0
M  V30 8975 H 831.752 -3.126 0.00275267 0
M  V30 8976 H 830.972 -3.05804 2.48752 0
M  V30 8977 H 832.26 -4.22533 2.83449 0
M  V30 8978 H 831.658 -5.657 -0.00633259 0
M  V30 8979 H 830.215 -6.50708 0.377055 0
M  V30 8980 N 833.648 -1.19017 -1.03309 0
M  V30 8981 C 834.595 -0.924088 -2.11493 0
M  V30 8982 C 835.565 0.139464 -1.65513 0
M  V30 8983 O 836.75 -0.00178761 -1.908 0
M  V30 8984 C 833.89 -0.464255 -3.41963 0
M  V30 8985 C 833.003 -1.5941 -4.01513 0
M  V30 8986 C 832.138 -1.08622 -5.19976 0
M  V30 8987 C 831.177 -2.19024 -5.71572 0
M  V30 8988 N 830.314 -1.69575 -6.81314 0
M  V30 8989 H 835.154 -1.85039 -2.33591 0
M  V30 8990 H 832.691 -0.922593 -1.14572 0
M  V30 8991 H 834.649 -0.179078 -4.16815 0
M  V30 8992 H 833.279 0.425062 -3.19989 0
M  V30 8993 H 832.331 -1.99458 -3.23915 0
M  V30 8994 H 833.643 -2.42604 -4.35826 0
M  V30 8995 H 832.797 -0.756022 -6.01971 0
M  V30 8996 H 831.536 -0.223955 -4.87186 0
M  V30 8997 H 830.541 -2.5288 -4.88193 0
M  V30 8998 H 831.766 -3.05699 -6.06403 0
M  V30 8999 H 829.712 -0.856494 -6.50385 0
M  V30 9000 H 829.629 -2.46361 -7.14732 0
M  V30 9001 H 830.897 -1.39505 -7.66915 0
M  V30 9002 N 835.127 1.22348 -0.993418 0
M  V30 9003 C 836.538 1.72893 -0.704616 0
M  V30 9004 C 836.889 1.80095 0.778483 0
M  V30 9005 O 836.014 1.4476 1.60853 0
M  V30 9006 C 836.609 3.14 -1.27237 0
M  V30 9007 C 835.168 3.61949 -1.03294 0
M  V30 9008 C 834.315 2.39816 -1.39225 0
M  V30 9009 H 837.266 1.07688 -1.16572 0
M  V30 9010 H 837.287 3.74886 -0.651212 0
M  V30 9011 H 836.799 3.08727 -2.3518 0
M  V30 9012 H 834.9 3.72588 0.0298329 0
M  V30 9013 H 835.013 4.48051 -1.69668 0
M  V30 9014 H 833.377 2.41448 -0.810849 0
M  V30 9015 H 834.16 2.37203 -2.48172 0
M  V30 9016 N 836.605 0.766683 1.37694 0
M  V30 9017 C 838.021 0.445739 1.53249 0
M  V30 9018 C 838.221 -1.03935 1.72626 0
M  V30 9019 O 837.277 -1.82525 1.74473 0
M  V30 9020 C 838.59 1.2564 2.73194 0
M  V30 9021 C 840.138 1.24779 2.87053 0
M  V30 9022 C 840.613 2.04169 4.09974 0
M  V30 9023 N 842.104 2.01497 4.17077 0
M  V30 9024 C 842.839 2.5971 5.11212 0
M  V30 9025 N 842.335 3.26691 6.10938 0
M  V30 9026 N 844.128 2.49568 5.03659 0
M  V30 9027 H 836.279 1.72899 1.23368 0
M  V30 9028 H 838.542 0.733701 0.600322 0
M  V30 9029 H 838.248 2.30859 2.65324 0
M  V30 9030 H 838.122 0.882133 3.6674 0
M  V30 9031 H 840.509 0.203603 2.94397 0
M  V30 9032 H 840.59 1.66166 1.9448 0
M  V30 9033 H 840.234 3.08606 4.03392 0
M  V30 9034 H 840.164 1.60167 5.01651 0
M  V30 9035 H 842.655 1.52728 3.45662 0
M  V30 9036 H 842.968 3.68497 6.79286 0
M  V30 9037 H 841.313 3.30789 6.11231 0
M  V30 9038 H 844.504 1.96859 4.24693 0
M  V30 9039 H 844.677 2.95231 5.76839 0
M  V30 9040 N 838.083 -1.48885 0.516809 0
M  V30 9041 C 839.031 -2.31066 -0.266656 0
M  V30 9042 C 840.025 -1.40393 -0.94795 0
M  V30 9043 O 841.231 -1.57366 -0.873836 0
M  V30 9044 H 837.606 -0.744654 -0.104858 0
M  V30 9045 H 839.577 -2.95045 0.446236 0
M  V30 9046 C 838.326 -3.22131 -1.3087 0
M  V30 9047 H 837.649 -3.91839 -0.793865 0
M  V30 9048 H 839.089 -3.82544 -1.82856 0
M  V30 9049 C 837.548 -2.42825 -2.33533 0
M  V30 9050 O 838.078 -2.14364 -3.39722 0
M  V30 9051 N 836.284 -2.04559 -2.06407 0
M  V30 9052 H 835.831 -2.27905 -1.20071 0
M  V30 9053 H 835.789 -1.51807 -2.75322 0
M  V30 9054 N 839.561 -0.251338 -1.55583 0
M  V30 9055 C 840.81 0.372681 -1.98227 0
M  V30 9056 C 841.123 1.58743 -1.1428 0
M  V30 9057 O 842.329 2.28289 -1.46957 0
M  V30 9058 C 840.785 0.714439 -3.52738 0
M  V30 9059 C 840.393 -0.479168 -4.4543 0
M  V30 9060 C 842.137 1.3024 -4.04027 0
M  V30 9061 C 840.044 -0.113318 -5.91291 0
M  V30 9062 H 838.974 0.14302 -0.740312 0
M  V30 9063 H 841.625 -0.352253 -1.80087 0
M  V30 9064 H 840.007 1.49762 -3.66589 0
M  V30 9065 H 841.181 -1.25644 -4.4334 0
M  V30 9066 H 839.496 -0.982359 -4.04646 0
M  V30 9067 H 842.093 1.58953 -5.10527 0
M  V30 9068 H 842.436 2.22837 -3.51638 0
M  V30 9069 H 842.969 0.582024 -3.93519 0
M  V30 9070 H 839.708 -1.00654 -6.47726 0
M  V30 9071 H 839.228 0.627666 -5.96507 0
M  V30 9072 H 840.907 0.30293 -6.4629 0
M  V30 9073 N 841.039 1.57585 0.0217189 0
M  V30 9074 C 841.986 2.07036 1.02004 0
M  V30 9075 C 842.956 0.96106 1.35473 0
M  V30 9076 O 844.141 1.23211 1.45684 0
M  V30 9077 C 841.281 2.56056 2.31364 0
M  V30 9078 C 840.394 3.80805 2.03989 0
M  V30 9079 C 839.529 4.18409 3.27272 0
M  V30 9080 C 838.568 5.36055 2.95486 0
M  V30 9081 N 837.705 5.69056 4.11242 0
M  V30 9082 H 842.545 2.92073 0.591396 0
M  V30 9083 H 840.082 1.44403 0.280384 0
M  V30 9084 H 842.04 2.82548 3.06957 0
M  V30 9085 H 840.67 1.73925 2.71937 0
M  V30 9086 H 839.722 3.61354 1.1886 0
M  V30 9087 H 841.034 4.66512 1.76546 0
M  V30 9088 H 840.188 4.46068 4.11228 0
M  V30 9089 H 838.927 3.31369 3.57835 0
M  V30 9090 H 837.932 5.08142 2.09933 0
M  V30 9091 H 839.157 6.24755 2.66193 0
M  V30 9092 H 837.103 4.84974 4.41742 0
M  V30 9093 H 837.02 6.49288 3.87247 0
M  V30 9094 H 838.288 6.01295 4.96049 0
M  V30 9095 N 842.517 -0.29412 1.54831 0
M  V30 9096 C 843.765 -1.02643 1.74094 0
M  V30 9097 C 844.086 -1.87563 0.533402 0
M  V30 9098 O 843.356 -1.9061 -0.452192 0
M  V30 9099 H 841.936 -0.381959 0.641963 0
M  V30 9100 H 844.598 -0.323444 1.92197 0
M  V30 9101 H 843.694 -1.67558 2.63307 0
M  V30 9102 N 843.995 -1.47404 -0.557645 0
M  V30 9103 C 844.942 -1.59859 -1.66475 0
M  V30 9104 C 845.912 -0.441644 -1.60121 0
M  V30 9105 O 847.097 -0.661641 -1.78961 0
M  V30 9106 C 844.237 -1.61843 -3.04797 0
M  V30 9107 C 843.35 -2.8845 -3.2159 0
M  V30 9108 C 842.485 -2.81773 -4.50308 0
M  V30 9109 C 841.524 -4.03208 -4.60532 0
M  V30 9110 N 840.661 -3.94769 -5.80604 0
M  V30 9111 H 845.501 -2.54415 -1.55168 0
M  V30 9112 H 843.038 -1.26194 -0.755876 0
M  V30 9113 H 844.996 -1.60976 -3.84893 0
M  V30 9114 H 843.626 -0.707997 -3.1494 0
M  V30 9115 H 842.678 -2.99186 -2.34929 0
M  V30 9116 H 843.99 -3.78379 -3.25009 0
M  V30 9117 H 843.144 -2.79153 -5.38663 0
M  V30 9118 H 841.883 -1.89527 -4.49367 0
M  V30 9119 H 840.888 -4.06133 -3.70589 0
M  V30 9120 H 842.113 -4.9658 -4.63233 0
M  V30 9121 H 840.059 -3.05326 -5.80613 0
M  V30 9122 H 839.976 -4.78375 -5.854 0
M  V30 9123 H 841.244 -3.96165 -6.71322 0
M  V30 9124 N 845.473 0.80434 -1.35529 0
M  V30 9125 C 846.884 1.37849 -1.25915 0
M  V30 9126 C 847.235 1.95905 0.107495 0
M  V30 9127 O 846.36 1.91462 1.00852 0
M  V30 9128 C 846.955 2.50608 -2.27994 0
M  V30 9129 C 845.514 3.03879 -2.22114 0
M  V30 9130 C 844.661 1.76856 -2.13582 0
M  V30 9131 H 847.612 0.607192 -1.46625 0
M  V30 9132 H 847.633 3.29221 -1.90772 0
M  V30 9133 H 847.145 2.08323 -3.27449 0
M  V30 9134 H 845.246 3.50622 -1.26077 0
M  V30 9135 H 845.359 3.61707 -3.14173 0
M  V30 9136 H 843.723 1.98498 -1.59595 0
M  V30 9137 H 844.506 1.36721 -3.14901 0
M  V30 9138 N 846.951 1.19563 1.02676 0
M  V30 9139 C 847.861 0.950691 2.14474 0
M  V30 9140 C 848.877 -0.0900219 1.73767 0
M  V30 9141 O 850.053 0.0951063 2.01175 0
M  V30 9142 C 847.118 0.494917 3.43149 0
M  V30 9143 C 846.179 1.60527 3.98158 0
M  V30 9144 C 845.412 1.17115 5.20692 0
M  V30 9145 O 845.635 0.0355937 5.70389 0
M  V30 9146 O 844.569 1.97454 5.68591 0
M  V30 9147 H 848.395 1.88651 2.38001 0
M  V30 9148 H 845.98 0.978635 1.12885 0
M  V30 9149 H 847.862 0.249492 4.20661 0
M  V30 9150 H 846.537 -0.412434 3.21062 0
M  V30 9151 H 845.444 1.90487 3.21971 0
M  V30 9152 H 846.777 2.48925 4.24614 0
M  V30 9153 N 848.429 -1.21819 0.999893 0
M  V30 9154 C 849.392 -2.22227 0.561044 0
M  V30 9155 C 850.392 -1.56722 -0.359858 0
M  V30 9156 O 851.582 -1.73546 -0.150848 0
M  V30 9157 C 848.714 -3.40409 -0.182987 0
M  V30 9158 H 849.907 -2.62567 1.44909 0
M  V30 9159 H 847.46 -1.34991 0.78785 0
M  V30 9160 H 848.195 -3.05551 -1.08671 0
M  V30 9161 H 847.98 -3.89171 0.47833 0
M  V30 9162 H 849.47 -4.14856 -0.477952 0
M  V30 9163 N 849.908 -0.773975 -1.37286 0
M  V30 9164 C 850.858 -0.135245 -2.27599 0
M  V30 9165 C 851.842 0.671691 -1.46209 0
M  V30 9166 O 853.034 0.534299 -1.68743 0
M  V30 9167 C 850.163 0.741298 -3.35201 0
M  V30 9168 C 849.249 -0.0735896 -4.24036 0
M  V30 9169 N 849.64 -1.12035 -4.93236 0
M  V30 9170 C 847.938 0.150038 -4.45748 0
M  V30 9171 C 848.639 -1.61512 -5.58828 0
M  V30 9172 N 847.615 -0.926922 -5.35639 0
M  V30 9173 H 851.417 -0.936646 -2.78575 0
M  V30 9174 H 848.931 -0.611944 -1.50429 0
M  V30 9175 H 850.928 1.21468 -3.98812 0
M  V30 9176 H 849.588 1.54142 -2.8578 0
M  V30 9177 H 850.599 -1.50253 -4.95625 0
M  V30 9178 H 847.276 0.921891 -4.07195 0
M  V30 9179 H 848.666 -2.48818 -6.24131 0
M  V30 9180 N 851.386 1.48609 -0.524698 0
M  V30 9181 C 852.633 2.02497 0.0113214 0
M  V30 9182 C 852.961 1.40229 1.34781 0
M  V30 9183 O 852.216 0.53557 1.88229 0
M  V30 9184 C 852.515 3.56906 0.187873 0
M  V30 9185 C 852.181 4.37932 -1.07359 0
M  V30 9186 C 850.843 4.59792 -1.41933 0
M  V30 9187 C 853.195 4.84902 -1.911 0
M  V30 9188 C 850.523 5.25868 -2.60154 0
M  V30 9189 C 852.875 5.52281 -3.08495 0
M  V30 9190 C 851.539 5.7238 -3.4342 0
M  V30 9191 H 850.809 0.740988 0.0041428 0
M  V30 9192 H 853.456 1.78651 -0.689652 0
M  V30 9193 H 851.761 3.79563 0.971572 0
M  V30 9194 H 853.458 3.96218 0.617443 0
M  V30 9195 H 850.048 4.21175 -0.794331 0
M  V30 9196 H 854.232 4.67821 -1.65701 0
M  V30 9197 H 849.488 5.39628 -2.87422 0
M  V30 9198 H 853.662 5.87645 -3.73692 0
M  V30 9199 H 851.289 6.23354 -4.35126 0
M  V30 9200 N 852.864 0.259585 1.55447 0
M  V30 9201 C 854.089 -0.368317 2.04103 0
M  V30 9202 C 854.514 -1.49827 1.13725 0
M  V30 9203 O 853.872 -1.80814 0.132705 0
M  V30 9204 C 853.92 -0.841506 3.50644 0
M  V30 9205 O 853.024 -1.95008 3.63381 0
M  V30 9206 H 852.365 -0.0785227 0.659341 0
M  V30 9207 H 854.895 0.389349 2.00861 0
M  V30 9208 H 854.905 -1.14138 3.9171 0
M  V30 9209 H 853.58 -0.0147001 4.15897 0
M  V30 9210 H 852.157 -1.65393 3.34215 0
M  V30 9211 N 854.342 -1.57594 -0.0133615 0
M  V30 9212 C 855.272 -2.10611 -1.00823 0
M  V30 9213 C 856.253 -1.01217 -1.36708 0
M  V30 9214 O 857.438 -1.28827 -1.45318 0
M  V30 9215 C 854.568 -2.59844 -2.30431 0
M  V30 9216 C 853.522 -3.73644 -2.08745 0
M  V30 9217 C 852.848 -4.09141 -3.4425 0
M  V30 9218 C 854.148 -5.01454 -1.46086 0
M  V30 9219 H 855.842 -2.93985 -0.566849 0
M  V30 9220 H 853.388 -1.41423 -0.271219 0
M  V30 9221 H 855.341 -2.95557 -3.00373 0
M  V30 9222 H 854.065 -1.73573 -2.76658 0
M  V30 9223 H 852.724 -3.38303 -1.41232 0
M  V30 9224 H 852.372 -3.19914 -3.88155 0
M  V30 9225 H 852.072 -4.85802 -3.3056 0
M  V30 9226 H 853.596 -4.47402 -4.15528 0
M  V30 9227 H 855.01 -5.35024 -2.05966 0
M  V30 9228 H 853.407 -5.82832 -1.42924 0
M  V30 9229 H 854.477 -4.83003 -0.428471 0
M  V30 9230 N 855.82 0.285905 -1.54985 0
M  V30 9231 C 857.069 1.01691 -1.74189 0
M  V30 9232 C 857.382 1.87908 -0.543135 0
M  V30 9233 O 858.588 2.64389 -0.617305 0
M  V30 9234 C 857.044 1.85785 -3.0824 0
M  V30 9235 C 856.652 1.04497 -4.35642 0
M  V30 9236 C 858.396 2.58393 -3.36798 0
M  V30 9237 C 856.303 1.87955 -5.60738 0
M  V30 9238 H 855.233 0.383396 -0.649248 0
M  V30 9239 H 857.884 0.27317 -1.81455 0
M  V30 9240 H 856.266 2.64205 -2.94978 0
M  V30 9241 H 857.44 0.305847 -4.59784 0
M  V30 9242 H 855.755 0.434023 -4.14132 0
M  V30 9243 H 858.352 3.21214 -4.27464 0
M  V30 9244 H 858.695 3.28011 -2.56349 0
M  V30 9245 H 859.228 1.87012 -3.511 0
M  V30 9246 H 855.967 1.22781 -6.43898 0
M  V30 9247 H 855.487 2.59499 -5.40759 0
M  V30 9248 H 857.166 2.45636 -5.98558 0
M  V30 9249 N 857.298 1.47698 0.54982 0
M  V30 9250 C 858.248 1.57145 1.65195 0
M  V30 9251 C 859.232 0.429839 1.55052 0
M  V30 9252 O 860.424 0.68018 1.63409 0
M  V30 9253 C 857.553 1.59573 3.0396 0
M  V30 9254 C 856.639 2.79144 3.19279 0
M  V30 9255 N 857.03 4.03769 3.04638 0
M  V30 9256 C 855.328 2.76061 3.50295 0
M  V30 9257 C 856.029 4.83887 3.22845 0
M  V30 9258 N 855.005 4.1634 3.49517 0
M  V30 9259 H 858.807 2.51266 1.52455 0
M  V30 9260 H 856.321 1.43795 0.754773 0
M  V30 9261 H 858.318 1.64431 3.83103 0
M  V30 9262 H 856.978 0.66553 3.17806 0
M  V30 9263 H 857.989 4.34515 2.81811 0
M  V30 9264 H 854.666 1.92211 3.70622 0
M  V30 9265 H 856.056 5.92724 3.1643 0
M  V30 9266 N 858.776 -0.797141 1.35954 0
M  V30 9267 C 860.006 -1.5835 1.32698 0
M  V30 9268 C 860.414 -1.88959 -0.0955298 0
M  V30 9269 O 859.757 -1.49987 -1.06064 0
M  V30 9270 C 859.819 -2.93529 2.0756 0
M  V30 9271 C 859.483 -2.85688 3.56695 0
M  V30 9272 C 860.48 -2.58467 4.51099 0
M  V30 9273 C 858.165 -3.04508 3.99475 0
M  V30 9274 C 860.159 -2.50157 5.8626 0
M  V30 9275 C 857.846 -2.9582 5.34728 0
M  V30 9276 C 858.844 -2.68681 6.27933 0
M  V30 9277 O 858.532 -2.59973 7.60703 0
M  V30 9278 H 858.264 -0.49807 0.457059 0
M  V30 9279 H 860.818 -0.997889 1.79531 0
M  V30 9280 H 859.048 -3.54111 1.55378 0
M  V30 9281 H 860.737 -3.54744 1.9726 0
M  V30 9282 H 861.503 -2.43638 4.19363 0
M  V30 9283 H 857.382 -3.24641 3.27306 0
M  V30 9284 H 860.926 -2.28894 6.58979 0
M  V30 9285 H 856.823 -3.10211 5.66074 0
M  V30 9286 H 857.591 -2.75511 7.70737 0
M  V30 9287 N 860.254 -1.20106 -1.0204 0
M  V30 9288 C 861.217 -0.948261 -2.08664 0
M  V30 9289 C 862.217 0.0746753 -1.60627 0
M  V30 9290 O 863.407 -0.160981 -1.73455 0
M  V30 9291 C 860.539 -0.426854 -3.38217 0
M  V30 9292 H 861.732 -1.894 -2.32524 0
M  V30 9293 H 859.285 -1.0159 -1.18782 0
M  V30 9294 H 860.02 0.524532 -3.2003 0
M  V30 9295 H 859.805 -1.16451 -3.74408 0
M  V30 9296 H 861.295 -0.269346 -4.1673 0
M  V30 9297 N 861.732 1.21287 -1.00634 0
M  V30 9298 C 862.98 1.90013 -0.688438 0
M  V30 9299 C 863.301 1.78573 0.783365 0
M  V30 9300 O 862.571 1.1815 1.56261 0
M  V30 9301 H 861.151 0.703336 -0.251648 0
M  V30 9302 H 863.813 1.47346 -1.27574 0
M  V30 9303 H 862.909 2.96879 -0.962781 0
M  V30 9304 N 863.21 0.781244 1.36873 0
M  V30 9305 C 864.459 0.34652 1.98701 0
M  V30 9306 C 864.772 -1.08555 1.62712 0
M  V30 9307 O 865.978 -1.62213 2.17713 0
M  V30 9308 C 864.434 0.568611 3.5538 0
M  V30 9309 C 864.042 2.01156 4.003 0
M  V30 9310 C 865.786 0.197983 4.24038 0
M  V30 9311 C 863.693 2.18074 5.49725 0
M  V30 9312 H 862.623 0.125821 0.743428 0
M  V30 9313 H 865.274 0.961721 1.56279 0
M  V30 9314 H 863.656 -0.116185 3.9583 0
M  V30 9315 H 864.83 2.73209 3.71071 0
M  V30 9316 H 863.145 2.33967 3.44454 0
M  V30 9317 H 865.742 0.302778 5.33842 0
M  V30 9318 H 866.085 -0.852927 4.07469 0
M  V30 9319 H 866.618 0.835696 3.88923 0
M  V30 9320 H 863.357 3.21519 5.71232 0
M  V30 9321 H 862.877 1.50517 5.80607 0
M  V30 9322 H 864.556 1.98393 6.15832 0
M  V30 9323 N 864.689 -1.48329 0.532571 0
M  V30 9324 C 865.935 -2.028 -0.000583219 0
M  V30 9325 C 866.268 -1.40858 -1.33688 0
M  V30 9326 O 865.543 -0.555261 -1.86406 0
M  V30 9327 C 865.826 -3.59901 -0.119846 0
M  V30 9328 C 865.679 -4.32318 1.2418 0
M  V30 9329 C 866.998 -4.31904 -0.845372 0
M  V30 9330 H 864.117 -0.736999 0.00126205 0
M  V30 9331 H 866.759 -1.77024 0.690102 0
M  V30 9332 H 864.909 -3.81993 -0.708092 0
M  V30 9333 H 866.581 -4.21637 1.87136 0
M  V30 9334 H 864.824 -3.93635 1.82301 0
M  V30 9335 H 865.495 -5.40697 1.11132 0
M  V30 9336 H 867.971 -4.14658 -0.346159 0
M  V30 9337 H 866.847 -5.41509 -0.897723 0
M  V30 9338 H 867.108 -3.99369 -1.89622 0
M  V30 9339 N 866.167 -0.267825 -1.55308 0
M  V30 9340 C 867.444 0.402449 -1.91415 0
M  V30 9341 C 867.824 1.7428 -1.1912 0
M  V30 9342 O 867.172 2.2631 -0.315609 0
M  V30 9343 C 867.382 0.549926 -3.4464 0
M  V30 9344 C 868.73 0.836188 -4.16285 0
M  V30 9345 O 869.754 0.635009 -3.50494 0
M  V30 9346 O 868.613 1.22051 -5.32697 0
M  V30 9347 H 865.707 0.219177 -0.797427 0
M  V30 9348 H 868.253 -0.313439 -1.6678 0
M  V30 9349 H 867.025 -0.393641 -3.89315 0
M  V30 9350 H 866.648 1.31556 -3.75205 0
M  V30 9351 N 867.645 1.57599 0.00500368 0
M  V30 9352 C 868.875 1.94344 0.700998 0
M  V30 9353 C 869.283 0.868011 1.68114 0
M  V30 9354 O 868.626 -0.16214 1.82983 0
M  V30 9355 C 868.688 3.27046 1.49268 0
M  V30 9356 C 868.352 4.51992 0.674684 0
M  V30 9357 C 869.349 5.19888 -0.0354833 0
M  V30 9358 C 867.034 4.98432 0.622129 0
M  V30 9359 C 869.028 6.3252 -0.787246 0
M  V30 9360 C 866.715 6.10954 -0.133362 0
M  V30 9361 C 867.713 6.77855 -0.836788 0
M  V30 9362 O 867.401 7.88221 -1.57996 0
M  V30 9363 H 867.133 0.645572 0.20053 0
M  V30 9364 H 869.687 2.0536 -0.040718 0
M  V30 9365 H 867.917 3.12424 2.27877 0
M  V30 9366 H 869.606 3.4894 2.07355 0
M  V30 9367 H 870.372 4.85 -0.00400159 0
M  V30 9368 H 866.251 4.46189 1.15917 0
M  V30 9369 H 869.795 6.84671 -1.33683 0
M  V30 9370 H 865.692 6.45285 -0.166682 0
M  V30 9371 H 866.46 8.0471 -1.49615 0
M  V30 9372 N 869.123 -0.277682 1.55134 0
M  V30 9373 C 870.071 -1.36305 1.88478 0
M  V30 9374 C 871.065 -1.51362 0.760654 0
M  V30 9375 O 872.271 -1.53202 0.944943 0
M  V30 9376 H 868.646 -0.45577 0.598146 0
M  V30 9377 H 870.617 -1.05431 2.79154 0
M  V30 9378 C 869.366 -2.71739 2.16918 0
M  V30 9379 H 868.689 -2.60942 3.02901 0
M  V30 9380 H 870.129 -3.46635 2.44172 0
M  V30 9381 C 868.588 -3.22476 0.975239 0
M  V30 9382 O 869.118 -4.01164 0.207497 0
M  V30 9383 N 867.324 -2.80097 0.774219 0
M  V30 9384 H 866.871 -2.16221 1.40022 0
M  V30 9385 H 866.829 -3.14392 -0.023021 0
M  V30 9386 N 870.601 -1.47988 -0.541979 0
M  V30 9387 C 871.85 -1.5465 -1.29485 0
M  V30 9388 C 872.163 -0.220041 -1.94358 0
M  V30 9389 O 873.369 -0.164792 -2.70999 0
M  V30 9390 C 871.825 -2.72685 -2.34885 0
M  V30 9391 C 871.433 -4.11923 -1.76134 0
M  V30 9392 C 873.177 -2.88651 -3.11257 0
M  V30 9393 C 871.084 -5.21237 -2.79404 0
M  V30 9394 H 870.014 -0.575688 -0.486928 0
M  V30 9395 H 872.665 -1.74296 -0.573853 0
M  V30 9396 H 871.047 -2.46448 -3.09966 0
M  V30 9397 H 872.221 -4.48128 -1.07322 0
M  V30 9398 H 870.536 -4.00972 -1.12295 0
M  V30 9399 H 873.133 -3.67487 -3.88404 0
M  V30 9400 H 873.476 -1.97658 -3.66384 0
M  V30 9401 H 874.009 -3.14731 -2.43288 0
M  V30 9402 H 870.748 -6.14156 -2.29113 0
M  V30 9403 H 870.268 -4.89533 -3.4658 0
M  V30 9404 H 871.947 -5.48839 -3.42615 0
M  V30 9405 N 872.079 0.78992 -1.36375 0
M  V30 9406 C 873.328 1.54296 -1.29906 0
M  V30 9407 C 873.641 1.95234 0.119651 0
M  V30 9408 O 874.847 2.69762 0.306708 0
M  V30 9409 C 873.303 2.78533 -2.27919 0
M  V30 9410 C 872.911 2.44767 -3.75224 0
M  V30 9411 C 874.655 3.56516 -2.30427 0
M  V30 9412 C 872.562 3.65397 -4.65015 0
M  V30 9413 H 871.492 0.579214 -0.482729 0
M  V30 9414 H 874.143 0.866845 -1.61735 0
M  V30 9415 H 872.525 3.47941 -1.89084 0
M  V30 9416 H 873.699 1.83259 -4.22792 0
M  V30 9417 H 872.014 1.79996 -3.75487 0
M  V30 9418 H 874.611 4.46143 -2.94722 0
M  V30 9419 H 874.954 3.95063 -1.31266 0
M  V30 9420 H 875.487 2.94087 -2.67876 0
M  V30 9421 H 872.226 3.31946 -5.65236 0
M  V30 9422 H 871.746 4.26072 -4.22164 0
M  V30 9423 H 873.425 4.32431 -4.81261 0
M  V30 9424 N 873.557 1.20646 1.01402 0
M  V30 9425 C 874.805 1.01618 1.74695 0
M  V30 9426 C 875.126 -0.452438 1.89679 0
M  V30 9427 O 874.396 -1.32693 1.44116 0
M  V30 9428 H 872.976 0.373013 0.647202 0
M  V30 9429 H 875.638 1.518 1.22241 0
M  V30 9430 H 874.734 1.47666 2.74957 0
M  V30 9431 N 875.035 -1.20752 1.01276 0
M  V30 9432 C 876.281 -1.90582 0.710627 0
M  V30 9433 C 876.636 -1.7713 -0.751184 0
M  V30 9434 O 875.929 -1.14223 -1.5383 0
M  V30 9435 C 876.123 -3.40808 1.07633 0
M  V30 9436 C 875.952 -3.68878 2.57214 0
M  V30 9437 C 874.722 -3.87805 3.23937 0
M  V30 9438 C 876.92 -3.71753 3.55393 0
M  V30 9439 N 874.902 -4.0336 4.62789 0
M  V30 9440 C 876.273 -3.92686 4.79789 0
M  V30 9441 C 878.328 -3.54697 3.4942 0
M  V30 9442 C 877.031 -3.98332 5.98936 0
M  V30 9443 C 879.057 -3.61612 4.67964 0
M  V30 9444 C 878.419 -3.83014 5.91168 0
M  V30 9445 H 874.518 -0.717219 0.311643 0
M  V30 9446 H 877.102 -1.45228 1.2968 0
M  V30 9447 H 875.273 -3.84923 0.518527 0
M  V30 9448 H 877.005 -3.98096 0.728128 0
M  V30 9449 H 873.76 -3.86029 2.74369 0
M  V30 9450 H 874.184 -4.15023 5.34869 0
M  V30 9451 H 878.826 -3.3712 2.55166 0
M  V30 9452 H 876.544 -4.14706 6.93574 0
M  V30 9453 H 880.13 -3.49728 4.64954 0
M  V30 9454 H 879.01 -3.88219 6.81363 0
M  V30 9455 N 876.513 -0.788492 -1.36457 0
M  V30 9456 C 877.443 -0.200468 -2.32638 0
M  V30 9457 C 878.424 0.664031 -1.56603 0
M  V30 9458 O 879.609 0.598045 -1.84762 0
M  V30 9459 C 876.739 0.666274 -3.40849 0
M  V30 9460 C 875.693 -0.0982574 -4.27887 0
M  V30 9461 C 875.019 0.889018 -5.27258 0
M  V30 9462 C 876.319 -1.28692 -5.06197 0
M  V30 9463 H 878.013 -1.00399 -2.82065 0
M  V30 9464 H 875.559 -0.484237 -1.35614 0
M  V30 9465 H 877.512 1.08757 -4.07124 0
M  V30 9466 H 876.236 1.50249 -2.89987 0
M  V30 9467 H 874.895 -0.500525 -3.63167 0
M  V30 9468 H 874.543 1.72024 -4.7267 0
M  V30 9469 H 874.243 0.381909 -5.86358 0
M  V30 9470 H 875.767 1.30891 -5.96406 0
M  V30 9471 H 877.181 -0.941429 -5.65517 0
M  V30 9472 H 875.578 -1.72726 -5.74705 0
M  V30 9473 H 876.648 -2.08273 -4.37893 0
M  V30 9474 N 877.991 1.48044 -0.54043 0
M  V30 9475 C 878.923 2.2779 0.253854 0
M  V30 9476 C 879.936 1.35999 0.894883 0
M  V30 9477 O 881.125 1.60963 0.771563 0
M  V30 9478 C 878.225 3.09724 1.37566 0
M  V30 9479 C 877.398 4.29364 0.83459 0
M  V30 9480 C 876.457 4.93026 1.83881 0
M  V30 9481 O 875.483 5.51927 1.39159 0
M  V30 9482 N 876.685 4.86207 3.17149 0
M  V30 9483 H 879.45 2.96597 -0.430125 0
M  V30 9484 H 877.011 1.57487 -0.375423 0
M  V30 9485 H 879.003 3.49181 2.04584 0
M  V30 9486 H 877.573 2.43269 1.96314 0
M  V30 9487 H 876.793 3.94198 -0.0118878 0
M  V30 9488 H 878.081 5.06787 0.452155 0
M  V30 9489 H 877.479 4.39523 3.56141 0
M  V30 9490 H 876.036 5.29733 3.79771 0
M  V30 9491 N 879.47 0.276058 1.55163 0
M  V30 9492 C 880.417 -0.611006 2.22565 0
M  V30 9493 C 881.387 -1.14902 1.19945 0
M  V30 9494 O 882.572 -1.19815 1.48489 0
M  V30 9495 C 879.712 -1.78885 2.95117 0
M  V30 9496 C 878.825 -1.2846 4.12458 0
M  V30 9497 C 877.96 -2.42432 4.72652 0
M  V30 9498 C 876.999 -1.89015 5.82185 0
M  V30 9499 N 876.136 -2.96463 6.36439 0
M  V30 9500 H 880.976 -0.0295849 2.97985 0
M  V30 9501 H 878.513 -0.00283607 1.471 0
M  V30 9502 H 880.471 -2.48121 3.35398 0
M  V30 9503 H 879.101 -2.34229 2.22119 0
M  V30 9504 H 878.153 -0.485312 3.77292 0
M  V30 9505 H 879.465 -0.853358 4.91446 0
M  V30 9506 H 878.619 -3.19659 5.15658 0
M  V30 9507 H 877.358 -2.88872 3.92943 0
M  V30 9508 H 876.363 -1.10267 5.38629 0
M  V30 9509 H 877.588 -1.43509 6.63763 0
M  V30 9510 H 875.534 -3.42283 5.59623 0
M  V30 9511 H 875.451 -2.57759 7.10701 0
M  V30 9512 H 876.719 -3.73663 6.84103 0
M  V30 9513 N 880.948 -1.576 0.00335426 0
M  V30 9514 C 881.896 -2.09759 -1.00517 0
M  V30 9515 C 882.89 -1.01833 -1.35375 0
M  V30 9516 O 884.096 -1.20294 -1.339 0
M  V30 9517 H 880.471 -0.669821 -0.341825 0
M  V30 9518 H 882.442 -2.93478 -0.539718 0
M  V30 9519 C 881.191 -2.6189 -2.28711 0
M  V30 9520 H 880.514 -3.44571 -2.02758 0
M  V30 9521 H 881.954 -3.02061 -2.97548 0
M  V30 9522 C 880.413 -1.53455 -2.99922 0
M  V30 9523 O 880.943 -0.919402 -3.91037 0
M  V30 9524 N 879.149 -1.2612 -2.61806 0
M  V30 9525 H 878.696 -1.76329 -1.87792 0
M  V30 9526 H 878.654 -0.537872 -3.09765 0
M  V30 9527 N 882.426 0.269451 -1.5528 0
M  V30 9528 C 883.373 1.33316 -1.88403 0
M  V30 9529 C 884.343 1.48909 -0.735881 0
M  V30 9530 O 885.528 1.63259 -0.987479 0
M  V30 9531 C 882.668 2.68778 -2.16454 0
M  V30 9532 C 881.781 2.61377 -3.43956 0
M  V30 9533 C 880.916 3.89042 -3.6169 0
M  V30 9534 C 879.955 3.76166 -4.82872 0
M  V30 9535 N 879.092 4.95673 -4.97245 0
M  V30 9536 H 883.932 1.04368 -2.79126 0
M  V30 9537 H 881.469 0.504147 -1.38191 0
M  V30 9538 H 883.427 3.47599 -2.30719 0
M  V30 9539 H 882.057 2.9592 -1.28961 0
M  V30 9540 H 881.109 1.74247 -3.38145 0
M  V30 9541 H 882.421 2.47764 -4.32914 0
M  V30 9542 H 881.575 4.76304 -3.75791 0
M  V30 9543 H 880.314 4.05526 -2.70924 0
M  V30 9544 H 879.319 2.87287 -4.68771 0
M  V30 9545 H 880.544 3.61198 -5.75077 0
M  V30 9546 H 878.49 5.12561 -4.09411 0
M  V30 9547 H 878.407 4.84605 -5.80254 0
M  V30 9548 H 879.675 5.84498 -5.15735 0
M  V30 9549 N 883.904 1.48273 0.534124 0
M  V30 9550 C 885.181 1.46567 1.29528 0
M  V30 9551 C 885.561 0.17509 2.10373 0
M  V30 9552 O 884.909 -0.843228 2.12372 0
M  V30 9553 C 885.119 2.72519 2.18023 0
M  V30 9554 C 886.467 3.2068 2.78298 0
M  V30 9555 O 887.491 2.73408 2.28313 0
M  V30 9556 O 886.35 4.02924 3.69208 0
M  V30 9557 H 883.444 0.585151 0.584403 0
M  V30 9558 H 885.99 1.60502 0.551119 0
M  V30 9559 H 884.762 3.57965 1.5804 0
M  V30 9560 H 884.385 2.61285 2.99693 0
M  V30 9561 N 885.382 -0.782676 1.36792 0
M  V30 9562 C 886.793 -1.35828 1.28092 0
M  V30 9563 C 887.144 -1.96052 -0.076315 0
M  V30 9564 O 886.269 -1.93042 -0.977935 0
M  V30 9565 C 886.864 -2.46949 2.31952 0
M  V30 9566 C 885.423 -3.00307 2.2692 0
M  V30 9567 C 884.57 -1.73436 2.16368 0
M  V30 9568 H 887.521 -0.583788 1.47572 0
M  V30 9569 H 887.542 -3.26144 1.95986 0
M  V30 9570 H 887.054 -2.03087 3.30722 0
M  V30 9571 H 885.155 -3.48571 1.31639 0
M  V30 9572 H 885.268 -3.56663 3.19887 0
M  V30 9573 H 883.632 -1.95934 1.62733 0
M  V30 9574 H 884.415 -1.31693 3.17036 0
M  V30 9575 N 886.86 -1.21182 -1.00761 0
M  V30 9576 C 887.79 -0.992773 -2.11344 0
M  V30 9577 C 888.771 0.0813618 -1.69905 0
M  V30 9578 O 889.956 -0.0779503 -1.94043 0
M  V30 9579 C 887.086 -0.553826 -3.42856 0
M  V30 9580 C 886.04 -1.57223 -3.98077 0
M  V30 9581 C 885.366 -0.989605 -5.25463 0
M  V30 9582 C 886.666 -2.95839 -4.30438 0
M  V30 9583 H 888.36 -1.91766 -2.29927 0
M  V30 9584 H 885.906 -0.923426 -1.10494 0
M  V30 9585 H 887.859 -0.387771 -4.19612 0
M  V30 9586 H 886.583 0.406702 -3.24058 0
M  V30 9587 H 885.242 -1.7258 -3.23437 0
M  V30 9588 H 884.89 -0.0208743 -5.02996 0
M  V30 9589 H 884.59 -1.66984 -5.63374 0
M  V30 9590 H 886.114 -0.834815 -6.04866 0
M  V30 9591 H 887.528 -2.8394 -4.98047 0
M  V30 9592 H 885.925 -3.60851 -4.79486 0
M  V30 9593 H 886.995 -3.46882 -3.38823 0
M  V30 9594 N 888.338 1.20213 -1.01915 0
M  V30 9595 C 889.286 2.25125 -0.584936 0
M  V30 9596 C 890.28 1.65138 0.377602 0
M  V30 9597 O 891.486 1.78294 0.247245 0
M  V30 9598 H 887.861 0.732333 -0.170858 0
M  V30 9599 H 889.832 2.59075 -1.48063 0
M  V30 9600 C 888.581 3.47651 0.058389 0
M  V30 9601 H 887.904 3.9409 -0.673263 0
M  V30 9602 H 889.344 4.2275 0.325285 0
M  V30 9603 C 887.803 3.10725 1.30199 0
M  V30 9604 O 888.333 3.22491 2.39505 0
M  V30 9605 N 886.539 2.6525 1.18706 0
M  V30 9606 H 886.086 2.55875 0.297618 0
M  V30 9607 H 886.044 2.40913 2.02011 0
M  V30 9608 N 889.816 0.795718 1.36037 0
M  V30 9609 C 890.726 0.199784 2.33748 0
M  V30 9610 C 891.742 -0.651436 1.61345 0
M  V30 9611 O 892.918 -0.565743 1.93291 0
M  V30 9612 C 889.983 -0.650475 3.40543 0
M  V30 9613 C 889.044 0.219974 4.28736 0
M  V30 9614 C 888.277 -0.589798 5.30431 0
M  V30 9615 O 888.5 -1.82532 5.40406 0
M  V30 9616 O 887.434 0.0136187 6.01898 0
M  V30 9617 H 891.26 1.00782 2.8649 0
M  V30 9618 H 888.845 0.557293 1.38617 0
M  V30 9619 H 890.727 -1.13512 4.05824 0
M  V30 9620 H 889.402 -1.4363 2.9009 0
M  V30 9621 H 888.309 0.751516 3.66474 0
M  V30 9622 H 889.642 0.969468 4.82558 0
M  V30 9623 N 891.294 -1.47756 0.548274 0
M  V30 9624 C 892.522 -2.06884 0.0254873 0
M  V30 9625 C 892.937 -1.40225 -1.26422 0
M  V30 9626 O 892.294 -0.495776 -1.75637 0
M  V30 9627 C 892.345 -3.61036 -0.183134 0
M  V30 9628 O 892.066 -4.25195 1.05549 0
M  V30 9629 C 893.567 -4.37008 -0.744222 0
M  V30 9630 H 890.787 -0.669697 0.041789 0
M  V30 9631 H 893.331 -1.89888 0.759138 0
M  V30 9632 H 891.486 -3.77576 -0.866886 0
M  V30 9633 H 891.9 -5.17606 0.847629 0
M  V30 9634 H 893.374 -5.45579 -0.839529 0
M  V30 9635 H 893.851 -4.0268 -1.75344 0
M  V30 9636 H 894.457 -4.25191 -0.0964542 0
M  V30 9637 N 892.772 -0.284283 -1.55015 0
M  V30 9638 C 894.018 0.330352 -2.00091 0
M  V30 9639 C 894.351 1.54814 -1.17244 0
M  V30 9640 O 893.626 1.92954 -0.244753 0
M  V30 9641 C 893.909 0.703492 -3.53161 0
M  V30 9642 C 893.762 -0.522275 -4.46758 0
M  V30 9643 C 895.081 1.53645 -4.12409 0
M  V30 9644 H 892.2 0.118599 -0.727395 0
M  V30 9645 H 894.842 -0.393054 -1.8589 0
M  V30 9646 H 892.992 1.31983 -3.65394 0
M  V30 9647 H 894.664 -1.16082 -4.46456 0
M  V30 9648 H 892.907 -1.15865 -4.1804 0
M  V30 9649 H 893.578 -0.217295 -5.51572 0
M  V30 9650 H 896.054 1.01583 -4.0351 0
M  V30 9651 H 894.93 1.76633 -5.19704 0
M  V30 9652 H 895.191 2.5204 -3.63219 0
M  V30 9653 N 894.251 1.57596 -0.0117121 0
M  V30 9654 C 895.497 1.91355 0.671661 0
M  V30 9655 C 895.83 0.886818 1.72769 0
M  V30 9656 O 895.105 -0.0928813 1.94278 0
M  V30 9657 C 895.388 3.35657 1.30409 0
M  V30 9658 C 895.241 4.49055 0.2588 0
M  V30 9659 C 896.56 3.79595 2.22701 0
M  V30 9660 H 893.679 0.695893 0.242698 0
M  V30 9661 H 896.321 1.89887 -0.0654071 0
M  V30 9662 H 894.471 3.37038 1.9323 0
M  V30 9663 H 896.143 4.59809 -0.370631 0
M  V30 9664 H 894.386 4.31785 -0.417672 0
M  V30 9665 H 895.057 5.4701 0.740578 0
M  V30 9666 H 897.533 3.7984 1.69885 0
M  V30 9667 H 896.409 4.81292 2.63912 0
M  V30 9668 H 896.67 3.14118 3.11098 0
M  V30 9669 N 895.729 -0.261212 1.5542 0
M  V30 9670 C 896.977 -0.989272 1.76232 0
M  V30 9671 C 897.298 -1.86389 0.573067 0
M  V30 9672 O 896.568 -1.91526 -0.41166 0
M  V30 9673 H 895.148 -0.368256 0.64992 0
M  V30 9674 H 897.81 -0.282603 1.9284 0
M  V30 9675 H 896.906 -1.61935 2.66802 0
M  V30 9676 N 897.207 -1.48554 -0.526253 0
M  V30 9677 C 898.137 -1.66252 -1.63959 0
M  V30 9678 C 899.118 -0.511351 -1.62232 0
M  V30 9679 O 900.303 -0.744322 -1.7937 0
M  V30 9680 C 897.433 -1.70556 -3.02536 0
M  V30 9681 C 896.387 -2.8521 -3.19123 0
M  V30 9682 C 895.713 -2.74606 -4.58798 0
M  V30 9683 C 897.013 -4.26463 -3.0154 0
M  V30 9684 H 898.707 -2.59459 -1.49404 0
M  V30 9685 H 896.253 -1.24862 -0.717326 0
M  V30 9686 H 898.206 -1.81524 -3.80298 0
M  V30 9687 H 896.93 -0.739297 -3.18123 0
M  V30 9688 H 895.589 -2.73802 -2.43779 0
M  V30 9689 H 895.237 -1.75941 -4.71226 0
M  V30 9690 H 894.937 -3.51544 -4.70841 0
M  V30 9691 H 896.461 -2.87548 -5.38655 0
M  V30 9692 H 897.875 -4.38685 -3.69091 0
M  V30 9693 H 896.272 -5.04428 -3.25073 0
M  V30 9694 H 897.342 -4.42667 -1.97925 0
M  V30 9695 N 898.685 0.775411 -1.37205 0
M  V30 9696 C 899.915 1.56219 -1.352 0
M  V30 9697 C 900.323 1.89087 0.065456 0
M  V30 9698 O 899.666 1.51655 1.03665 0
M  V30 9699 C 899.728 2.9019 -2.12203 0
M  V30 9700 C 899.392 2.79978 -3.61195 0
M  V30 9701 C 900.389 2.51258 -4.55154 0
M  V30 9702 C 898.074 2.98115 -4.04268 0
M  V30 9703 C 900.068 2.40798 -5.90165 0
M  V30 9704 C 897.755 2.87276 -5.39366 0
M  V30 9705 C 898.753 2.58657 -6.32128 0
M  V30 9706 O 898.441 2.47838 -7.64743 0
M  V30 9707 H 898.173 0.490735 -0.464925 0
M  V30 9708 H 900.727 0.969201 -1.81096 0
M  V30 9709 H 898.957 3.51594 -1.60992 0
M  V30 9710 H 900.646 3.51561 -2.02879 0
M  V30 9711 H 901.412 2.36935 -4.23186 0
M  V30 9712 H 897.291 3.19392 -3.3243 0
M  V30 9713 H 900.835 2.18381 -6.62537 0
M  V30 9714 H 896.732 3.01166 -5.70937 0
M  V30 9715 H 897.5 2.63215 -7.75023 0
M  V30 9716 N 900.163 1.21714 1.00117 0
M  V30 9717 C 901.095 0.937627 2.09144 0
M  V30 9718 C 902.108 -0.0806291 1.626 0
M  V30 9719 O 903.297 0.152348 1.77849 0
M  V30 9720 C 900.397 0.387036 3.36683 0
M  V30 9721 C 899.57 1.46054 4.12295 0
M  V30 9722 C 898.629 0.918505 5.18122 0
M  V30 9723 O 897.655 1.60282 5.46167 0
M  V30 9724 N 898.857 -0.264308 5.79898 0
M  V30 9725 H 901.622 1.87622 2.33705 0
M  V30 9726 H 899.183 1.12291 1.16629 0
M  V30 9727 H 901.175 0.00992825 4.04699 0
M  V30 9728 H 899.745 -0.456467 3.09249 0
M  V30 9729 H 898.965 2.01133 3.39027 0
M  V30 9730 H 900.253 2.18306 4.59587 0
M  V30 9731 H 899.651 -0.837242 5.5947 0
M  V30 9732 H 898.208 -0.582886 6.49188 0
M  V30 9733 N 901.641 -1.19671 1.02551 0
M  V30 9734 C 902.588 -2.22773 0.603394 0
M  V30 9735 C 903.558 -1.61669 -0.381081 0
M  V30 9736 O 904.743 -1.88756 -0.278505 0
M  V30 9737 C 901.883 -3.45073 -0.0431034 0
M  V30 9738 C 900.996 -4.20574 0.987006 0
M  V30 9739 C 900.131 -5.30291 0.310626 0
M  V30 9740 C 899.17 -5.97545 1.32688 0
M  V30 9741 N 898.307 -6.98833 0.676542 0
M  V30 9742 H 903.147 -2.58238 1.48719 0
M  V30 9743 H 900.684 -1.26881 0.744286 0
M  V30 9744 H 902.642 -4.14925 -0.435141 0
M  V30 9745 H 901.272 -3.10274 -0.890495 0
M  V30 9746 H 900.324 -3.497 1.49713 0
M  V30 9747 H 901.636 -4.66736 1.75952 0
M  V30 9748 H 900.79 -6.06547 -0.136438 0
M  V30 9749 H 899.529 -4.8519 -0.49412 0
M  V30 9750 H 898.534 -5.20043 1.78424 0
M  V30 9751 H 899.759 -6.4473 2.13306 0
M  V30 9752 H 897.705 -6.55911 -0.108172 0
M  V30 9753 H 897.622 -7.43168 1.38699 0
M  V30 9754 H 898.89 -7.79088 0.253367 0
M  V30 9755 N 903.119 -0.802921 -1.35613 0
M  V30 9756 C 904.344 -0.392846 -2.03645 0
M  V30 9757 C 904.769 0.987075 -1.6012 0
M  V30 9758 O 904.127 1.63849 -0.776101 0
M  V30 9759 C 904.175 -0.480208 -3.57388 0
M  V30 9760 O 903.279 0.507751 -4.09262 0
M  V30 9761 H 902.62 -0.16464 -0.643265 0
M  V30 9762 H 905.15 -1.08779 -1.73287 0
M  V30 9763 H 905.16 -0.348683 -4.06507 0
M  V30 9764 H 903.835 -1.48675 -3.88418 0
M  V30 9765 H 902.412 0.336769 -3.71376 0
M  V30 9766 N 904.597 1.47463 -0.556102 0
M  V30 9767 C 905.822 2.07371 -0.0344729 0
M  V30 9768 C 906.247 1.40621 1.2493 0
M  V30 9769 O 905.605 0.48082 1.74808 0
M  V30 9770 C 905.653 3.60306 0.145563 0
M  V30 9771 O 904.757 3.94299 1.20839 0
M  V30 9772 H 904.098 0.662052 -0.0508274 0
M  V30 9773 H 906.628 1.89498 -0.771469 0
M  V30 9774 H 906.638 4.06408 0.360112 0
M  V30 9775 H 905.313 4.08288 -0.792089 0
M  V30 9776 H 903.89 3.59944 0.97442 0
M  V30 9777 N 906.075 0.2925 1.54862 0
M  V30 9778 C 907.005 -0.580677 2.26165 0
M  V30 9779 C 907.986 -1.14485 1.25806 0
M  V30 9780 O 909.171 -1.17577 1.54562 0
M  V30 9781 C 906.301 -1.75668 2.99596 0
M  V30 9782 C 905.255 -1.32325 4.07031 0
M  V30 9783 C 904.581 -2.58374 4.68131 0
M  V30 9784 C 905.881 -0.460703 5.20264 0
M  V30 9785 H 907.575 0.0140075 2.99397 0
M  V30 9786 H 905.121 0.00817706 1.43998 0
M  V30 9787 H 907.074 -2.37356 3.48195 0
M  V30 9788 H 905.798 -2.37747 2.23928 0
M  V30 9789 H 904.457 -0.729477 3.59269 0
M  V30 9790 H 904.105 -3.18749 3.89112 0
M  V30 9791 H 903.805 -2.30078 5.40683 0
M  V30 9792 H 905.329 -3.2088 5.19489 0
M  V30 9793 H 906.743 -0.983037 5.64809 0
M  V30 9794 H 905.14 -0.271881 5.99484 0
M  V30 9795 H 906.21 0.516304 4.82143 0
M  V30 9796 N 907.553 -1.57587 0.0200696 0
M  V30 9797 C 908.5 -2.09667 -0.964791 0
M  V30 9798 C 909.47 -0.99664 -1.32877 0
M  V30 9799 O 910.655 -1.2703 -1.42366 0
M  V30 9800 C 907.795 -2.62101 -2.24493 0
M  V30 9801 C 906.908 -3.8608 -1.93821 0
M  V30 9802 C 906.043 -4.26939 -3.16064 0
M  V30 9803 C 905.082 -5.43701 -2.81169 0
M  V30 9804 N 904.219 -5.79759 -3.9601 0
M  V30 9805 H 909.059 -2.93538 -0.513751 0
M  V30 9806 H 906.596 -1.45096 -0.242 0
M  V30 9807 H 908.554 -2.90587 -2.99358 0
M  V30 9808 H 907.184 -1.81074 -2.6723 0
M  V30 9809 H 906.236 -3.64378 -1.09237 0
M  V30 9810 H 907.548 -4.71028 -1.64115 0
M  V30 9811 H 906.702 -4.56814 -3.99257 0
M  V30 9812 H 905.441 -3.40739 -3.48924 0
M  V30 9813 H 904.446 -5.13529 -1.96387 0
M  V30 9814 H 905.671 -6.31593 -2.49535 0
M  V30 9815 H 903.617 -4.96516 -4.28729 0
M  V30 9816 H 903.534 -6.59327 -3.69896 0
M  V30 9817 H 904.802 -6.14235 -4.79933 0
M  V30 9818 N 909.032 0.252966 -1.55557 0
M  V30 9819 C 909.962 1.31691 -1.9282 0
M  V30 9820 C 910.943 1.50516 -0.7924 0
M  V30 9821 O 912.128 1.63225 -1.05219 0
M  V30 9822 C 909.258 2.67281 -2.21762 0
M  V30 9823 C 908.212 2.6316 -3.37536 0
M  V30 9824 C 907.538 4.02488 -3.52005 0
M  V30 9825 C 908.838 2.20675 -4.73392 0
M  V30 9826 H 910.532 1.00751 -2.81939 0
M  V30 9827 H 908.078 0.483219 -1.3565 0
M  V30 9828 H 910.031 3.41842 -2.46419 0
M  V30 9829 H 908.755 2.99845 -1.29463 0
M  V30 9830 H 907.414 1.91057 -3.12878 0
M  V30 9831 H 907.062 4.32307 -2.57137 0
M  V30 9832 H 906.762 4.00621 -4.29857 0
M  V30 9833 H 908.286 4.78758 -3.78977 0
M  V30 9834 H 909.7 2.84965 -4.97461 0
M  V30 9835 H 908.097 2.29931 -5.54303 0
M  V30 9836 H 909.167 1.15831 -4.70862 0
M  V30 9837 N 910.51 1.48831 0.518367 0
M  V30 9838 C 911.44 1.67119 1.63075 0
M  V30 9839 C 912.421 0.519948 1.61958 0
M  V30 9840 O 913.606 0.753824 1.78972 0
M  V30 9841 C 910.736 1.72158 3.01627 0
M  V30 9842 C 909.69 2.86898 3.17606 0
M  V30 9843 C 909.016 2.77035 4.57335 0
M  V30 9844 C 910.316 4.28057 2.99274 0
M  V30 9845 H 912.01 2.60248 1.48025 0
M  V30 9846 H 909.556 1.2524 0.710694 0
M  V30 9847 H 911.509 1.83539 3.7933 0
M  V30 9848 H 910.233 0.756157 3.17726 0
M  V30 9849 H 908.892 2.75091 2.42323 0
M  V30 9850 H 908.54 1.78438 4.70286 0
M  V30 9851 H 908.24 3.54036 4.6897 0
M  V30 9852 H 909.764 2.904 5.37122 0
M  V30 9853 H 911.178 4.40636 3.6676 0
M  V30 9854 H 909.575 5.06145 3.22393 0
M  V30 9855 H 910.645 4.4371 1.95574 0
M  V30 9856 N 911.988 -0.768124 1.37614 0
M  V30 9857 C 913.213 -1.56239 1.36397 0
M  V30 9858 C 913.638 -1.8804 -0.0475839 0
M  V30 9859 O 912.996 -1.495 -1.02564 0
M  V30 9860 C 913.044 -2.84716 2.21289 0
M  V30 9861 O 912.148 -3.79249 1.62001 0
M  V30 9862 H 911.489 -0.473119 0.465891 0
M  V30 9863 H 914.019 -0.950415 1.81186 0
M  V30 9864 H 914.029 -3.33784 2.34632 0
M  V30 9865 H 912.704 -2.60899 3.2389 0
M  V30 9866 H 911.281 -3.37904 1.57719 0
M  V30 9867 N 913.466 -1.22244 -0.994698 0
M  V30 9868 C 914.694 -1.07218 -1.76952 0
M  V30 9869 C 915.109 0.377388 -1.8499 0
M  V30 9870 O 914.466 1.26157 -1.31874 0
M  V30 9871 C 914.517 -1.67496 -3.20355 0
M  V30 9872 O 914.238 -3.06782 -3.12756 0
M  V30 9873 C 915.739 -1.57721 -4.14294 0
M  V30 9874 H 912.959 -0.375966 -0.555779 0
M  V30 9875 H 915.503 -1.61799 -1.25065 0
M  V30 9876 H 913.658 -1.16982 -3.69315 0
M  V30 9877 H 914.072 -3.35784 -4.02926 0
M  V30 9878 H 915.546 -2.04623 -5.12673 0
M  V30 9879 H 916.023 -0.533434 -4.35949 0
M  V30 9880 H 916.629 -2.07531 -3.71229 0
M  V30 9881 N 914.944 1.19125 -1.03184 0
M  V30 9882 C 915.874 2.24675 -0.635889 0
M  V30 9883 C 916.855 1.66321 0.356565 0
M  V30 9884 O 918.04 1.92728 0.238625 0
M  V30 9885 C 915.17 3.47298 0.011069 0
M  V30 9886 C 914.124 4.18345 -0.903979 0
M  V30 9887 C 913.45 5.34561 -0.12197 0
M  V30 9888 C 914.75 4.72816 -2.21907 0
M  V30 9889 H 916.444 2.5805 -1.51825 0
M  V30 9890 H 913.99 1.24039 -0.73146 0
M  V30 9891 H 915.943 4.20333 0.299729 0
M  V30 9892 H 914.667 3.13131 0.928245 0
M  V30 9893 H 913.326 3.47196 -1.17688 0
M  V30 9894 H 912.974 4.9664 0.797334 0
M  V30 9895 H 912.674 5.83029 -0.731498 0
M  V30 9896 H 914.198 6.10391 0.159881 0
M  V30 9897 H 915.612 5.3759 -1.99173 0
M  V30 9898 H 914.009 5.31782 -2.78078 0
M  V30 9899 H 915.079 3.9072 -2.87168 0
M  V30 9900 N 916.422 0.810101 1.35185 0
M  V30 9901 C 917.669 0.392117 1.98667 0
M  V30 9902 C 917.997 -1.0416 1.64259 0
M  V30 9903 O 917.252 -1.73795 0.899647 0
M  V30 9904 C 917.551 0.526561 3.535 0
M  V30 9905 C 917.217 1.92411 4.07785 0
M  V30 9906 C 915.879 2.30644 4.22323 0
M  V30 9907 C 918.231 2.83827 4.37141 0
M  V30 9908 C 915.559 3.59655 4.63536 0
M  V30 9909 C 917.911 4.12287 4.79794 0
M  V30 9910 C 916.575 4.50515 4.92536 0
M  V30 9911 H 915.845 0.143486 0.726975 0
M  V30 9912 H 918.492 1.03157 1.61341 0
M  V30 9913 H 916.797 -0.19633 3.91308 0
M  V30 9914 H 918.494 0.183871 4.00578 0
M  V30 9915 H 915.084 1.61707 3.96924 0
M  V30 9916 H 919.268 2.55536 4.25459 0
M  V30 9917 H 914.524 3.89117 4.71591 0
M  V30 9918 H 918.698 4.83221 5.01468 0
M  V30 9919 H 916.325 5.50535 5.24229 0
M  V30 9920 N 917.9 -1.47166 0.563914 0
M  V30 9921 C 918.863 -2.28571 -0.169624 0
M  V30 9922 C 919.863 -1.37331 -0.836467 0
M  V30 9923 O 921.053 -1.59896 -0.6913 0
M  V30 9924 C 918.185 -3.17201 -1.24886 0
M  V30 9925 H 919.378 -2.94896 0.545539 0
M  V30 9926 H 916.931 -1.52966 0.321121 0
M  V30 9927 H 917.666 -2.55582 -1.99621 0
M  V30 9928 H 917.451 -3.84356 -0.775426 0
M  V30 9929 H 918.941 -3.7852 -1.76388 0
M  V30 9930 N 919.378 -0.300708 -1.54705 0
M  V30 9931 C 920.326 0.591264 -2.2496 0
M  V30 9932 C 921.32 1.13725 -1.2555 0
M  V30 9933 O 922.526 1.08793 -1.43402 0
M  V30 9934 H 918.901 0.209278 -0.722293 0
M  V30 9935 H 920.872 -0.0238175 -2.9839 0
M  V30 9936 C 919.621 1.75179 -3.00346 0
M  V30 9937 H 918.944 1.34089 -3.76643 0
M  V30 9938 H 920.384 2.35198 -3.52786 0
M  V30 9939 C 918.843 2.65574 -2.07298 0
M  V30 9940 O 919.373 3.6666 -1.64083 0
M  V30 9941 N 917.579 2.33301 -1.7326 0
M  V30 9942 H 917.126 1.51142 -2.08599 0
M  V30 9943 H 917.084 2.94049 -1.11278 0
M  V30 9944 N 920.856 1.57574 -0.0284266 0
M  V30 9945 C 922.086 1.95787 0.659617 0
M  V30 9946 C 922.494 0.903475 1.66235 0
M  V30 9947 O 921.837 -0.12329 1.83286 0
M  V30 9948 C 921.899 3.30139 1.42298 0
M  V30 9949 C 921.563 4.53322 0.578658 0
M  V30 9950 C 922.56 5.19696 -0.145751 0
M  V30 9951 C 920.245 4.9964 0.516264 0
M  V30 9952 C 922.239 6.30708 -0.921235 0
M  V30 9953 C 919.926 6.10534 -0.262925 0
M  V30 9954 C 920.924 6.75927 -0.980382 0
M  V30 9955 O 920.612 7.84692 -1.7468 0
M  V30 9956 H 920.344 0.649681 0.186792 0
M  V30 9957 H 922.898 2.05227 -0.0842687 0
M  V30 9958 H 921.128 3.17188 2.21199 0
M  V30 9959 H 922.817 3.53259 1.99906 0
M  V30 9960 H 923.583 4.84882 -0.106876 0
M  V30 9961 H 919.462 4.48547 1.06427 0
M  V30 9962 H 923.006 6.81682 -1.48176 0
M  V30 9963 H 918.903 6.44786 -0.303519 0
M  V30 9964 H 919.671 8.01355 -1.6665 0
M  V30 9965 N 922.334 -0.244713 1.55689 0
M  V30 9966 C 923.297 -1.2864 1.89695 0
M  V30 9967 C 924.297 -1.40969 0.773583 0
M  V30 9968 O 925.487 -1.39632 1.04156 0
M  V30 9969 C 922.619 -2.66379 2.12732 0
M  V30 9970 H 923.812 -0.997033 2.82841 0
M  V30 9971 H 921.365 -0.484103 1.48614 0
M  V30 9972 H 922.1 -3.00452 1.22062 0
M  V30 9973 H 921.885 -2.58812 2.94549 0
M  V30 9974 H 923.375 -3.41592 2.40218 0
M  V30 9975 N 923.813 -1.49104 -0.510467 0
M  V30 9976 C 925.061 -1.578 -1.26268 0
M  V30 9977 C 925.382 -0.262349 -1.93227 0
M  V30 9978 O 924.652 0.717624 -1.82283 0
M  V30 9979 H 923.232 -0.581387 -0.46904 0
M  V30 9980 H 925.894 -1.85678 -0.592423 0
M  V30 9981 H 924.99 -2.36919 -2.03165 0
M  V30 9982 N 925.291 0.760815 -1.38019 0
M  V30 9983 C 926.254 1.85604 -1.34476 0
M  V30 9984 C 927.254 1.58897 -0.24666 0
M  V30 9985 O 928.444 1.66776 -0.50314 0
M  V30 9986 C 925.576 3.22945 -1.09176 0
M  V30 9987 H 926.769 1.90155 -2.31908 0
M  V30 9988 H 924.322 0.961746 -1.23208 0
M  V30 9989 H 925.057 3.24066 -0.123216 0
M  V30 9990 H 924.842 3.43723 -1.88672 0
M  V30 9991 H 926.332 4.03022 -1.09375 0
M  V30 9992 N 926.769 1.22769 0.988202 0
M  V30 9993 C 928.046 0.9635 1.70223 0
M  V30 9994 C 928.426 -0.520102 2.04593 0
M  V30 9995 O 927.774 -1.48934 1.73295 0
M  V30 9996 C 927.984 1.86583 2.94937 0
M  V30 9997 C 929.332 2.12469 3.67616 0
M  V30 9998 O 930.356 1.84069 3.04954 0
M  V30 9999 O 929.215 2.60595 4.80367 0
M  V30 10000 H 926.309 0.362737 0.743203 0
M  V30 10001 H 928.855 1.33776 1.04412 0
M  V30 10002 H 927.627 2.86913 2.66077 0
M  V30 10003 H 927.25 1.49344 3.68486 0
M  V30 10004 N 928.247 -1.18576 1.03814 0
M  V30 10005 C 929.21 -2.2033 0.63146 0
M  V30 10006 C 930.21 -1.57787 -0.309816 0
M  V30 10007 O 931.4 -1.73938 -0.0955598 0
M  V30 10008 C 928.532 -3.40818 -0.0745963 0
M  V30 10009 H 929.725 -2.57824 1.53189 0
M  V30 10010 H 927.278 -1.32416 0.830398 0
M  V30 10011 H 928.013 -3.08853 -0.988947 0
M  V30 10012 H 927.798 -3.87453 0.6019 0
M  V30 10013 H 929.288 -4.16166 -0.345727 0
M  V30 10014 N 929.725 -0.817259 -1.34754 0
M  V30 10015 C 931.136 -0.462215 -1.80888 0
M  V30 10016 C 931.487 1.01685 -1.67794 0
M  V30 10017 O 930.612 1.79094 -1.21468 0
M  V30 10018 C 931.207 -0.832204 -3.2842 0
M  V30 10019 C 929.766 -0.52961 -3.72655 0
M  V30 10020 C 928.913 -1.05214 -2.56564 0
M  V30 10021 H 931.864 -1.00795 -1.22581 0
M  V30 10022 H 931.885 -0.133804 -3.80265 0
M  V30 10023 H 931.397 -1.90873 -3.37919 0
M  V30 10024 H 929.498 0.537743 -3.68699 0
M  V30 10025 H 929.611 -1.06971 -4.67005 0
M  V30 10026 H 927.975 -0.473949 -2.50251 0
M  V30 10027 H 928.758 -2.135 -2.68836 0
M  V30 10028 N 931.203 1.46865 -0.571711 0
M  V30 10029 C 932.452 2.01636 -0.050881 0
M  V30 10030 C 932.765 1.45001 1.31279 0
M  V30 10031 O 933.971 1.91523 1.92435 0
M  V30 10032 C 932.427 3.59877 -0.0404114 0
M  V30 10033 C 932.035 4.25506 -1.40172 0
M  V30 10034 C 933.779 4.22346 0.42705 0
M  V30 10035 C 931.686 5.75795 -1.34958 0
M  V30 10036 H 930.616 0.753846 -0.0152514 0
M  V30 10037 H 933.267 1.68711 -0.721723 0
M  V30 10038 H 931.649 3.89829 0.696374 0
M  V30 10039 H 932.823 4.07178 -2.15737 0
M  V30 10040 H 931.138 3.75086 -1.8083 0
M  V30 10041 H 933.735 5.32499 0.484688 0
M  V30 10042 H 934.078 3.9052 1.44222 0
M  V30 10043 H 934.611 3.9698 -0.255326 0
M  V30 10044 H 931.35 6.12265 -2.3412 0
M  V30 10045 H 930.87 5.96419 -0.635962 0
M  V30 10046 H 932.549 6.38294 -1.05779 0
M  V30 10047 N 932.681 0.308908 1.54543 0
M  V30 10048 C 933.591 -0.572939 2.27496 0
M  V30 10049 C 934.607 -1.14171 1.31305 0
M  V30 10050 O 935.783 -1.16481 1.64299 0
M  V30 10051 C 932.848 -1.72483 3.0075 0
M  V30 10052 C 931.909 -1.18934 4.12496 0
M  V30 10053 C 931.142 -2.28634 4.82247 0
M  V30 10054 O 931.365 -3.48691 4.5141 0
M  V30 10055 O 930.299 -1.94879 5.69478 0
M  V30 10056 H 934.125 0.0190877 3.03694 0
M  V30 10057 H 931.71 0.0750943 1.49211 0
M  V30 10058 H 933.592 -2.39578 3.46671 0
M  V30 10059 H 932.267 -2.30332 2.2744 0
M  V30 10060 H 931.174 -0.483904 3.70957 0
M  V30 10061 H 932.507 -0.656185 4.87806 0
M  V30 10062 N 934.159 -1.57557 0.0367827 0
M  V30 10063 C 935.106 -2.10679 -0.942499 0
M  V30 10064 C 936.076 -1.01068 -1.31812 0
M  V30 10065 O 937.261 -1.28533 -1.41011 0
M  V30 10066 C 934.401 -2.64467 -2.21701 0
M  V30 10067 C 933.514 -3.88114 -1.89715 0
M  V30 10068 C 932.649 -4.30268 -3.11518 0
M  V30 10069 C 931.688 -5.46652 -2.75387 0
M  V30 10070 N 930.825 -5.83927 -3.89838 0
M  V30 10071 H 935.665 -2.94066 -0.482588 0
M  V30 10072 H 933.202 -1.45344 -0.226597 0
M  V30 10073 H 935.16 -2.93745 -2.96259 0
M  V30 10074 H 933.79 -1.83898 -2.65295 0
M  V30 10075 H 932.842 -3.65516 -1.05366 0
M  V30 10076 H 934.154 -4.72743 -1.5911 0
M  V30 10077 H 933.308 -4.61023 -3.94389 0
M  V30 10078 H 932.047 -3.44421 -3.4529 0
M  V30 10079 H 931.052 -5.15583 -1.90929 0
M  V30 10080 H 932.277 -6.34204 -2.42822 0
M  V30 10081 H 930.223 -5.01035 -4.23438 0
M  V30 10082 H 930.14 -6.63214 -3.62883 0
M  V30 10083 H 931.408 -6.19291 -4.73391 0
M  V30 10084 N 935.637 0.236453 -1.55816 0
M  V30 10085 C 936.885 0.96111 -1.77784 0
M  V30 10086 C 937.206 1.85454 -0.602648 0
M  V30 10087 O 936.476 1.92157 0.381137 0
M  V30 10088 H 935.056 0.35787 -0.655697 0
M  V30 10089 H 937.718 0.251888 -1.93265 0
M  V30 10090 H 936.814 1.5767 -2.69345 0
M  V30 10091 N 937.115 1.49373 0.502552 0
M  V30 10092 C 938.062 1.65927 1.60427 0
M  V30 10093 C 939.032 0.500768 1.58371 0
M  V30 10094 O 940.217 0.727606 1.76382 0
M  V30 10095 C 937.357 1.73043 2.9858 0
M  V30 10096 C 936.47 3.00187 3.10663 0
M  V30 10097 C 935.605 2.98292 4.3954 0
M  V30 10098 C 934.644 4.20022 4.4525 0
M  V30 10099 N 933.781 4.16046 5.65553 0
M  V30 10100 H 938.621 2.59998 1.45619 0
M  V30 10101 H 936.158 1.28912 0.708519 0
M  V30 10102 H 938.116 1.7515 3.78653 0
M  V30 10103 H 936.746 0.824397 3.12095 0
M  V30 10104 H 935.798 3.07699 2.23663 0
M  V30 10105 H 937.11 3.9018 3.10742 0
M  V30 10106 H 936.264 2.98953 5.27932 0
M  V30 10107 H 935.003 2.06075 4.42023 0
M  V30 10108 H 934.008 4.19607 3.5526 0
M  V30 10109 H 935.233 5.13431 4.44484 0
M  V30 10110 H 933.179 3.26665 5.68881 0
M  V30 10111 H 933.096 4.99773 5.67242 0
M  V30 10112 H 934.364 4.20807 6.56156 0
M  V30 10113 N 938.594 -0.753485 1.38421 0
M  V30 10114 C 939.842 -1.50962 1.34368 0
M  V30 10115 C 940.163 -1.94889 -0.0656895 0
M  V30 10116 O 939.433 -1.67652 -1.01339 0
M  V30 10117 H 938.013 -0.559967 0.494415 0
M  V30 10118 H 940.675 -0.895665 1.73101 0
M  V30 10119 H 939.771 -2.40048 1.99458 0
M  V30 10120 N 940.072 -1.23292 -0.981677 0
M  V30 10121 C 941.019 -1.01296 -2.07383 0
M  V30 10122 C 941.989 0.069139 -1.65956 0
M  V30 10123 O 943.174 -0.0827108 -1.90621 0
M  V30 10124 C 940.314 -0.608876 -3.39686 0
M  V30 10125 C 939.427 -1.76296 -3.9439 0
M  V30 10126 C 938.562 -1.30578 -5.14901 0
M  V30 10127 C 937.601 -2.4307 -5.61768 0
M  V30 10128 N 936.738 -1.98319 -6.73509 0
M  V30 10129 H 941.578 -1.9478 -2.25532 0
M  V30 10130 H 939.115 -0.970356 -1.10555 0
M  V30 10131 H 941.073 -0.355702 -4.15681 0
M  V30 10132 H 939.703 0.288961 -3.21504 0
M  V30 10133 H 938.755 -2.13017 -3.15163 0
M  V30 10134 H 940.067 -2.60871 -4.25145 0
M  V30 10135 H 939.221 -1.01066 -5.98223 0
M  V30 10136 H 937.96 -0.430386 -4.85797 0
M  V30 10137 H 936.965 -2.73358 -4.77028 0
M  V30 10138 H 938.19 -3.31144 -5.92892 0
M  V30 10139 H 936.136 -1.13157 -6.46167 0
M  V30 10140 H 936.053 -2.76454 -7.0364 0
M  V30 10141 H 937.321 -1.71907 -7.60308 0
M  V30 10142 N 941.55 1.18024 -1.04442 0
M  V30 10143 C 942.513 2.19992 -0.643136 0
M  V30 10144 C 943.513 1.57949 0.301444 0
M  V30 10145 O 944.703 1.73986 0.0863341 0
M  V30 10146 C 941.835 3.40853 0.0565208 0
M  V30 10147 H 943.028 2.57008 -1.54554 0
M  V30 10148 H 940.581 1.31974 -0.837408 0
M  V30 10149 H 941.316 3.09373 0.972553 0
M  V30 10150 H 941.101 3.87128 -0.622439 0
M  V30 10151 H 942.591 4.16344 0.323652 0
M  V30 10152 N 943.028 0.824394 1.34319 0
M  V30 10153 C 943.975 0.245282 2.29493 0
M  V30 10154 C 944.945 -0.630762 1.53657 0
M  V30 10155 O 946.13 -0.572094 1.82021 0
M  V30 10156 C 943.27 -0.585631 3.40095 0
M  V30 10157 C 942.383 0.312821 4.30866 0
M  V30 10158 C 941.518 -0.527801 5.28571 0
M  V30 10159 C 940.557 0.369946 6.10981 0
M  V30 10160 N 939.694 -0.43169 7.00772 0
M  V30 10161 H 944.534 1.06225 2.78425 0
M  V30 10162 H 942.071 0.53533 1.37013 0
M  V30 10163 H 944.029 -1.08271 4.02906 0
M  V30 10164 H 942.659 -1.3677 2.92393 0
M  V30 10165 H 941.711 0.928129 3.68904 0
M  V30 10166 H 943.023 1.00306 4.8861 0
M  V30 10167 H 942.177 -1.0893 5.96841 0
M  V30 10168 H 940.916 -1.25154 4.71368 0
M  V30 10169 H 939.921 0.943577 5.41643 0
M  V30 10170 H 941.146 1.09182 6.70266 0
M  V30 10171 H 939.092 -1.13908 6.46035 0
M  V30 10172 H 939.009 0.200133 7.55735 0
M  V30 10173 H 940.277 -0.975894 7.73367 0
M  V30 10174 N 944.506 -1.46559 0.579492 0
M  V30 10175 C 945.453 -2.30275 -0.155598 0
M  V30 10176 C 946.423 -1.40422 -0.887175 0
M  V30 10177 O 947.608 -1.69373 -0.878481 0
M  V30 10178 C 944.748 -3.24827 -1.16539 0
M  V30 10179 C 943.861 -4.29778 -0.43759 0
M  V30 10180 C 942.996 -5.11461 -1.43462 0
M  V30 10181 C 942.035 -6.08164 -0.693048 0
M  V30 10182 N 941.172 -6.82726 -1.63799 0
M  V30 10183 H 946.012 -2.92607 0.564356 0
M  V30 10184 H 943.549 -1.44211 0.290126 0
M  V30 10185 H 945.507 -3.78088 -1.76368 0
M  V30 10186 H 944.137 -2.64311 -1.8531 0
M  V30 10187 H 943.189 -3.794 0.27567 0
M  V30 10188 H 944.501 -4.98597 0.142298 0
M  V30 10189 H 943.655 -5.68982 -2.1058 0
M  V30 10190 H 942.394 -4.42595 -2.04844 0
M  V30 10191 H 941.399 -5.49799 -0.00807093 0
M  V30 10192 H 942.624 -6.79047 -0.0846678 0
M  V30 10193 H 940.57 -6.16572 -2.23997 0
M  V30 10194 H 940.487 -7.47795 -1.11082 0
M  V30 10195 H 941.755 -7.44807 -2.29962 0
M  V30 10196 N 945.984 -0.3171 -1.54377 0
M  V30 10197 C 947.232 0.286842 -2.00054 0
M  V30 10198 C 947.553 1.53161 -1.20692 0
M  V30 10199 O 946.823 1.93479 -0.307045 0
M  V30 10200 H 945.403 0.108979 -0.739008 0
M  V30 10201 H 948.065 -0.432152 -1.90049 0
M  V30 10202 H 947.161 0.547729 -3.07256 0
M  V30 10203 N 947.462 1.57535 -0.0451378 0
M  V30 10204 C 948.687 1.97172 0.64326 0
M  V30 10205 C 949.112 0.922266 1.63939 0
M  V30 10206 O 948.47 -0.115155 1.80934 0
M  V30 10207 C 948.518 3.35889 1.3119 0
M  V30 10208 O 947.622 3.33387 2.42748 0
M  V30 10209 H 946.963 0.642469 0.167719 0
M  V30 10210 H 949.493 2.04295 -0.111747 0
M  V30 10211 H 949.503 3.72481 1.66499 0
M  V30 10212 H 948.178 4.1181 0.581823 0
M  V30 10213 H 946.755 3.08533 2.09432 0
M  V30 10214 N 948.94 -0.228186 1.55939 0
M  V30 10215 C 950.165 -0.974795 1.83064 0
M  V30 10216 C 950.59 -1.77426 0.624624 0
M  V30 10217 O 949.948 -1.76211 -0.426556 0
M  V30 10218 C 949.996 -1.87342 3.08116 0
M  V30 10219 O 949.1 -2.96784 2.86344 0
M  V30 10220 H 948.441 -0.276379 0.603747 0
M  V30 10221 H 950.971 -0.243507 2.03146 0
M  V30 10222 H 950.981 -2.28451 3.38045 0
M  V30 10223 H 949.656 -1.28575 3.95526 0
M  V30 10224 H 948.233 -2.59669 2.67631 0
M  V30 10225 N 950.418 -1.49637 -0.494624 0
M  V30 10226 C 951.665 -1.59445 -1.24834 0
M  V30 10227 C 951.993 -0.284028 -1.92415 0
M  V30 10228 O 951.248 0.728519 -1.81634 0
M  V30 10229 C 951.547 -2.70749 -2.33302 0
M  V30 10230 C 951.213 -4.12034 -1.83135 0
M  V30 10231 C 949.875 -4.50482 -1.69173 0
M  V30 10232 C 952.227 -5.00432 -1.4566 0
M  V30 10233 C 949.555 -5.75093 -1.16124 0
M  V30 10234 C 951.907 -6.25568 -0.940608 0
M  V30 10235 C 950.571 -6.62839 -0.787432 0
M  V30 10236 H 949.841 -0.583451 -0.456799 0
M  V30 10237 H 952.488 -1.8349 -0.548044 0
M  V30 10238 H 950.793 -2.407 -3.09145 0
M  V30 10239 H 952.49 -2.75546 -2.91334 0
M  V30 10240 H 949.08 -3.8169 -1.94964 0
M  V30 10241 H 953.264 -4.71379 -1.55291 0
M  V30 10242 H 948.52 -6.02665 -1.02982 0
M  V30 10243 H 952.694 -6.93439 -0.641467 0
M  V30 10244 H 950.321 -7.59279 -0.374191 0
M  V30 10245 N 951.896 0.746133 -1.38819 0
M  V30 10246 C 952.828 1.86991 -1.3254 0
M  V30 10247 C 953.841 1.61077 -0.236216 0
M  V30 10248 O 955.03 1.71518 -0.494341 0
M  V30 10249 C 952.13 3.22786 -1.03258 0
M  V30 10250 C 951.303 3.76145 -2.23234 0
M  V30 10251 C 950.362 4.90474 -1.90581 0
M  V30 10252 O 949.388 5.04717 -2.63153 0
M  V30 10253 N 950.59 5.74015 -0.86525 0
M  V30 10254 H 953.355 1.92885 -2.2938 0
M  V30 10255 H 950.916 0.926392 -1.32776 0
M  V30 10256 H 952.908 3.96824 -0.794533 0
M  V30 10257 H 951.478 3.12231 -0.151895 0
M  V30 10258 H 950.698 2.93587 -2.63059 0
M  V30 10259 H 951.986 4.08528 -3.03285 0
M  V30 10260 H 951.384 5.65086 -0.263577 0
M  V30 10261 H 949.941 6.48168 -0.687087 0
M  V30 10262 N 953.375 1.23811 0.975125 0
M  V30 10263 C 954.603 1.10019 1.75224 0
M  V30 10264 C 955.018 -0.34791 1.85567 0
M  V30 10265 O 954.375 -1.24043 1.33864 0
M  V30 10266 C 954.426 1.72572 3.1765 0
M  V30 10267 O 954.147 3.11719 3.07836 0
M  V30 10268 C 955.648 1.64292 4.11732 0
M  V30 10269 H 952.868 0.38476 0.549728 0
M  V30 10270 H 955.412 1.63768 1.22476 0
M  V30 10271 H 953.567 1.22843 3.67408 0
M  V30 10272 H 953.981 3.42152 3.97533 0
M  V30 10273 H 955.455 2.12754 5.09352 0
M  V30 10274 H 955.932 0.602722 4.35045 0
M  V30 10275 H 956.538 2.13411 3.6788 0
M  V30 10276 N 954.853 -1.17469 1.05066 0
M  V30 10277 C 956.099 -1.87976 0.761113 0
M  V30 10278 C 956.432 -1.80756 -0.709995 0
M  V30 10279 O 955.707 -1.21469 -1.51906 0
M  V30 10280 C 955.99 -3.38055 1.2406 0
M  V30 10281 C 955.843 -3.54032 2.77455 0
M  V30 10282 C 957.162 -4.32036 0.838612 0
M  V30 10283 H 954.281 -0.682573 0.277963 0
M  V30 10284 H 956.923 -1.38147 1.30443 0
M  V30 10285 H 955.073 -3.80622 0.778388 0
M  V30 10286 H 956.745 -3.20489 3.3179 0
M  V30 10287 H 954.988 -2.96352 3.16793 0
M  V30 10288 H 955.659 -4.59377 3.06066 0
M  V30 10289 H 958.135 -3.97303 1.23651 0
M  V30 10290 H 957.011 -5.35583 1.20173 0
M  V30 10291 H 957.272 -4.41349 -0.257498 0
M  V30 10292 N 956.331 -0.831506 -1.3388 0
M  V30 10293 C 957.556 -0.435954 -2.02766 0
M  V30 10294 C 957.981 0.952889 -1.62178 0
M  V30 10295 O 957.339 1.62166 -0.810681 0
M  V30 10296 C 957.387 -0.555907 -3.56289 0
M  V30 10297 O 956.491 0.420826 -4.10247 0
M  V30 10298 H 955.832 -0.178248 -0.639628 0
M  V30 10299 H 958.362 -1.1243 -1.70941 0
M  V30 10300 H 958.372 -0.434831 -4.05676 0
M  V30 10301 H 957.047 -1.56881 -3.85177 0
M  V30 10302 H 955.624 0.257919 -3.72007 0
M  V30 10303 N 957.809 1.4625 -0.587256 0
M  V30 10304 C 958.772 2.28812 0.133238 0
M  V30 10305 C 959.772 1.38645 0.814513 0
M  V30 10306 O 960.962 1.60975 0.665774 0
M  V30 10307 C 958.094 3.19147 1.19824 0
M  V30 10308 H 959.287 2.93991 -0.592386 0
M  V30 10309 H 956.84 1.52435 -0.345416 0
M  V30 10310 H 957.575 2.58725 1.95529 0
M  V30 10311 H 957.36 3.85541 0.71418 0
M  V30 10312 H 958.85 3.81278 1.70344 0
M  V30 10313 N 959.287 0.325282 1.54207 0
M  V30 10314 C 960.217 -0.532574 2.27345 0
M  V30 10315 C 961.198 -1.11791 1.28206 0
M  V30 10316 O 962.383 -1.14272 1.57021 0
M  V30 10317 C 959.513 -1.69274 3.03255 0
M  V30 10318 C 958.467 -1.23662 4.09746 0
M  V30 10319 C 957.793 -2.48386 4.73506 0
M  V30 10320 C 959.093 -0.350244 5.21124 0
M  V30 10321 H 960.787 0.0775108 2.993 0
M  V30 10322 H 958.333 0.0387193 1.43948 0
M  V30 10323 H 960.286 -2.29917 3.53152 0
M  V30 10324 H 959.01 -2.32944 2.28921 0
M  V30 10325 H 957.669 -0.653106 3.60735 0
M  V30 10326 H 957.317 -3.10424 3.95786 0
M  V30 10327 H 957.017 -2.18558 5.45441 0
M  V30 10328 H 958.541 -3.09789 5.26178 0
M  V30 10329 H 959.955 -0.863011 5.66767 0
M  V30 10330 H 958.352 -0.14466 5.99926 0
M  V30 10331 H 959.422 0.618457 4.8094 0
M  V30 10332 N 960.765 -1.57509 0.0534917 0
M  V30 10333 C 961.715 -2.08179 -0.929802 0
M  V30 10334 C 962.699 -0.987451 -1.27036 0
M  V30 10335 O 963.891 -1.25076 -1.2524 0
M  V30 10336 C 961.02 -2.63221 -2.20385 0
M  V30 10337 C 960.106 -3.79629 -1.89058 0
M  V30 10338 N 960.497 -4.8931 -1.28101 0
M  V30 10339 C 958.795 -3.88578 -2.18914 0
M  V30 10340 C 959.496 -5.70329 -1.14455 0
M  V30 10341 N 958.472 -5.18011 -1.64821 0
M  V30 10342 H 962.274 -2.90374 -0.453874 0
M  V30 10343 H 959.788 -1.61697 -0.150899 0
M  V30 10344 H 961.785 -2.97827 -2.91727 0
M  V30 10345 H 960.445 -1.82466 -2.68582 0
M  V30 10346 H 961.456 -5.09058 -0.952924 0
M  V30 10347 H 958.133 -3.18769 -2.69616 0
M  V30 10348 H 959.523 -6.6854 -0.671129 0
M  V30 10349 N 962.243 0.219913 -1.56058 0
M  V30 10350 C 963.659 0.569685 -1.49086 0
M  V30 10351 C 963.859 1.87066 -0.748903 0
M  V30 10352 O 962.915 2.50838 -0.289235 0
M  V30 10353 C 964.228 0.647397 -2.93648 0
M  V30 10354 C 965.776 0.737914 -3.04177 0
M  V30 10355 C 966.251 0.846957 -4.50101 0
M  V30 10356 N 967.742 0.911136 -4.5415 0
M  V30 10357 C 968.477 1.01525 -5.64341 0
M  V30 10358 N 967.973 1.0832 -6.8428 0
M  V30 10359 N 969.766 1.05051 -5.52196 0
M  V30 10360 H 961.917 -0.633778 -2.02724 0
M  V30 10361 H 964.18 -0.222583 -0.921499 0
M  V30 10362 H 963.886 -0.238987 -3.50887 0
M  V30 10363 H 963.76 1.51046 -3.45637 0
M  V30 10364 H 966.147 1.61474 -2.47002 0
M  V30 10365 H 966.228 -0.150845 -2.55355 0
M  V30 10366 H 965.872 -0.0254166 -5.07894 0
M  V30 10367 H 965.802 1.75116 -4.96631 0
M  V30 10368 H 968.293 0.868869 -3.67776 0
M  V30 10369 H 968.606 1.16247 -7.64007 0
M  V30 10370 H 966.951 1.05231 -6.86987 0
M  V30 10371 H 970.142 0.994086 -4.57423 0
M  V30 10372 H 970.315 1.12819 -6.38103 0
M  V30 10373 N 963.721 1.49897 0.486681 0
M  V30 10374 C 964.631 1.70379 1.6127 0
M  V30 10375 C 965.647 0.58659 1.63814 0
M  V30 10376 O 966.823 0.863044 1.81971 0
M  V30 10377 C 963.888 1.77911 2.97571 0
M  V30 10378 C 962.949 3.01569 3.0554 0
M  V30 10379 C 962.182 3.08732 4.35339 0
M  V30 10380 O 962.405 2.23099 5.2496 0
M  V30 10381 O 961.339 4.01325 4.48578 0
M  V30 10382 H 965.165 2.65799 1.46916 0
M  V30 10383 H 962.75 1.33808 0.664516 0
M  V30 10384 H 964.632 1.85135 3.78554 0
M  V30 10385 H 963.307 0.856722 3.12157 0
M  V30 10386 H 962.214 2.99854 2.23693 0
M  V30 10387 H 963.547 3.93335 2.95886 0
M  V30 10388 N 965.199 -0.738761 1.39212 0
M  V30 10389 C 966.147 -1.8741 1.3777 0
M  V30 10390 C 967.141 -1.67371 0.261375 0
M  V30 10391 O 968.347 -1.74759 0.431209 0
M  V30 10392 H 964.722 -0.616843 0.430126 0
M  V30 10393 H 966.693 -1.85742 2.33543 0
M  V30 10394 C 965.442 -3.25053 1.23433 0
M  V30 10395 H 964.765 -3.41066 2.086 0
M  V30 10396 H 966.205 -4.04696 1.2648 0
M  V30 10397 C 964.664 -3.36851 -0.0575624 0
M  V30 10398 O 965.194 -3.88293 -1.02915 0
M  V30 10399 N 963.4 -2.90355 -0.119364 0
M  V30 10400 H 962.947 -2.48681 0.671976 0
M  V30 10401 H 962.905 -2.98628 -0.983286 0
M  V30 10402 N 966.677 -1.24326 -0.968545 0
M  V30 10403 C 967.607 -1.05951 -2.08079 0
M  V30 10404 C 968.588 0.0272666 -1.70078 0
M  V30 10405 O 969.773 -0.139644 -1.93697 0
M  V30 10406 C 966.903 -0.662623 -3.4092 0
M  V30 10407 C 965.857 -1.69807 -3.92873 0
M  V30 10408 C 965.183 -1.15628 -5.22048 0
M  V30 10409 C 966.483 -3.09383 -4.20808 0
M  V30 10410 H 968.177 -1.98984 -2.23709 0
M  V30 10411 H 965.723 -0.958112 -1.075 0
M  V30 10412 H 967.676 -0.521071 -4.18166 0
M  V30 10413 H 966.4 0.303399 -3.25188 0
M  V30 10414 H 965.059 -1.82783 -3.17783 0
M  V30 10415 H 964.707 -0.180888 -5.02675 0
M  V30 10416 H 964.407 -1.84822 -5.57776 0
M  V30 10417 H 965.931 -1.02683 -6.01904 0
M  V30 10418 H 967.345 -2.99642 -4.88761 0
M  V30 10419 H 965.742 -3.75923 -4.67763 0
M  V30 10420 H 966.812 -3.57486 -3.27616 0
M  V30 10421 N 968.156 1.1691 -1.05688 0
M  V30 10422 C 969.104 2.2315 -0.656262 0
M  V30 10423 C 970.098 1.66256 0.324873 0
M  V30 10424 O 971.304 1.7899 0.190397 0
M  V30 10425 H 967.679 0.726527 -0.19407 0
M  V30 10426 H 969.65 2.54233 -1.56231 0
M  V30 10427 C 968.399 3.47661 -0.0522431 0
M  V30 10428 H 967.722 3.91749 -0.798299 0
M  V30 10429 H 969.162 4.23571 0.190626 0
M  V30 10430 C 967.621 3.14709 1.20248 0
M  V30 10431 O 968.151 3.29947 2.29124 0
M  V30 10432 N 966.357 2.68892 1.10207 0
M  V30 10433 H 965.904 2.56692 0.216063 0
M  V30 10434 H 965.862 2.47218 1.94244 0
M  V30 10435 N 969.634 0.838594 1.33437 0
M  V30 10436 C 970.581 0.269609 2.2922 0
M  V30 10437 C 971.551 -0.614429 1.54318 0
M  V30 10438 O 972.736 -0.552756 1.82618 0
M  V30 10439 C 969.876 -0.549527 3.40697 0
M  V30 10440 C 968.989 0.358502 4.3051 0
M  V30 10441 C 968.124 -0.471709 5.29101 0
M  V30 10442 C 967.163 0.434728 6.10554 0
M  V30 10443 N 966.3 -0.357339 7.0119 0
M  V30 10444 H 971.14 1.09172 2.77282 0
M  V30 10445 H 968.677 0.549832 1.36438 0
M  V30 10446 H 970.635 -1.03992 4.04032 0
M  V30 10447 H 969.265 -1.33661 2.93828 0
M  V30 10448 H 968.317 0.967204 3.67899 0
M  V30 10449 H 969.629 1.05483 4.87519 0
M  V30 10450 H 968.783 -1.02594 5.97963 0
M  V30 10451 H 967.522 -1.20147 4.72669 0
M  V30 10452 H 966.527 1.00097 5.40611 0
M  V30 10453 H 967.752 1.16285 6.6907 0
M  V30 10454 H 965.698 -1.07049 6.47207 0
M  V30 10455 H 965.615 0.280277 7.5548 0
M  V30 10456 H 966.883 -0.893814 7.74359 0
M  V30 10457 N 971.112 -1.45937 0.595003 0
M  V30 10458 C 972.042 -2.33198 -0.11871 0
M  V30 10459 C 973.023 -1.46083 -0.871423 0
M  V30 10460 O 974.208 -1.74879 -0.844461 0
M  V30 10461 C 971.338 -3.28576 -1.12495 0
M  V30 10462 C 970.292 -4.25229 -0.486275 0
M  V30 10463 C 969.618 -5.10204 -1.59986 0
M  V30 10464 C 970.918 -5.19019 0.584473 0
M  V30 10465 H 972.612 -2.93122 0.609886 0
M  V30 10466 H 970.158 -1.40951 0.294742 0
M  V30 10467 H 972.111 -3.88485 -1.6327 0
M  V30 10468 H 970.835 -2.66784 -1.88398 0
M  V30 10469 H 969.494 -3.666 0.000507962 0
M  V30 10470 H 969.142 -4.44789 -2.34886 0
M  V30 10471 H 968.842 -5.75669 -1.1781 0
M  V30 10472 H 970.366 -5.7298 -2.11014 0
M  V30 10473 H 971.78 -5.73073 0.161297 0
M  V30 10474 H 970.177 -5.92893 0.927256 0
M  V30 10475 H 971.247 -4.62208 1.46601 0
M  V30 10476 N 972.59 -0.333456 -1.54032 0
M  V30 10477 C 973.523 0.570776 -2.20947 0
M  V30 10478 C 974.501 1.10811 -1.18994 0
M  V30 10479 O 975.685 1.17027 -1.47773 0
M  V30 10480 C 972.812 1.7842 -2.87896 0
M  V30 10481 C 971.858 1.37722 -4.03652 0
M  V30 10482 S 972.691 0.405548 -5.33962 0
M  V30 10483 C 973.847 1.62603 -6.0441 0
M  V30 10484 H 974.08 0.0023936 -2.973 0
M  V30 10485 H 971.613 -0.117531 -1.53952 0
M  V30 10486 H 973.571 2.48038 -3.27089 0
M  V30 10487 H 972.232 2.32378 -2.11327 0
M  V30 10488 H 971.425 2.28167 -4.49395 0
M  V30 10489 H 971.027 0.760628 -3.66184 0
M  V30 10490 H 973.319 2.56202 -6.2719 0
M  V30 10491 H 974.262 1.21058 -6.97675 0
M  V30 10492 H 974.67 1.8175 -5.34441 0
M  V30 10493 N 974.068 1.57479 -0.061844 0
M  V30 10494 C 975.296 1.97429 0.618837 0
M  V30 10495 C 975.711 0.939826 1.63746 0
M  V30 10496 O 975.068 -0.0747173 1.82347 0
M  V30 10497 C 975.119 3.3746 1.29628 0
M  V30 10498 O 974.84 4.36941 0.318431 0
M  V30 10499 C 976.341 3.92228 2.06572 0
M  V30 10500 H 973.561 0.649513 0.168444 0
M  V30 10501 H 976.105 2.04078 -0.131303 0
M  V30 10502 H 974.26 3.31928 1.99757 0
M  V30 10503 H 974.674 5.18313 0.803239 0
M  V30 10504 H 976.148 4.92458 2.49377 0
M  V30 10505 H 976.625 3.28231 2.91824 0
M  V30 10506 H 977.231 4.01131 1.4133 0
M  V30 10507 N 975.546 -0.211634 1.56173 0
M  V30 10508 C 976.494 -1.28188 1.94089 0
M  V30 10509 C 977.488 -1.47999 0.824167 0
M  V30 10510 O 978.694 -1.49056 1.00907 0
M  V30 10511 H 975.069 -0.42999 0.616938 0
M  V30 10512 H 977.04 -0.934962 2.83374 0
M  V30 10513 C 975.789 -2.62294 2.28248 0
M  V30 10514 H 975.112 -2.4786 3.13696 0
M  V30 10515 H 976.552 -3.35967 2.58655 0
M  V30 10516 C 975.011 -3.18049 1.11113 0
M  V30 10517 O 975.541 -3.99923 0.377458 0
M  V30 10518 N 973.747 -2.76561 0.892321 0
M  V30 10519 H 973.294 -2.10088 1.49067 0
M  V30 10520 H 973.252 -3.14206 0.110344 0
M  V30 10521 N 977.024 -1.50153 -0.478725 0
M  V30 10522 C 977.954 -1.71384 -1.58587 0
M  V30 10523 C 978.935 -0.562705 -1.60523 0
M  V30 10524 O 980.12 -0.80101 -1.76911 0
M  V30 10525 C 977.25 -1.80094 -2.96957 0
M  V30 10526 C 976.204 -2.95218 -3.09888 0
M  V30 10527 C 975.53 -2.89063 -4.49829 0
M  V30 10528 C 976.83 -4.35841 -2.8782 0
M  V30 10529 H 978.524 -2.64081 -1.41073 0
M  V30 10530 H 976.07 -1.27081 -0.677239 0
M  V30 10531 H 978.023 -1.93531 -3.74331 0
M  V30 10532 H 976.747 -0.840131 -3.1561 0
M  V30 10533 H 975.406 -2.81419 -2.34944 0
M  V30 10534 H 975.054 -1.90844 -4.6539 0
M  V30 10535 H 974.754 -3.66345 -4.59418 0
M  V30 10536 H 976.278 -3.04539 -5.29234 0
M  V30 10537 H 977.692 -4.50205 -3.54948 0
M  V30 10538 H 976.089 -5.14515 -3.0886 0
M  V30 10539 H 977.159 -4.48739 -1.83742 0
M  V30 10540 N 978.502 0.731368 -1.39602 0
M  V30 10541 C 979.918 1.03739 -1.21286 0
M  V30 10542 C 980.118 2.01353 -0.0769875 0
M  V30 10543 O 979.174 2.45978 0.570193 0
M  V30 10544 C 980.487 1.59621 -2.54837 0
M  V30 10545 C 982.035 1.71683 -2.61713 0
M  V30 10546 C 982.51 2.30973 -3.95494 0
M  V30 10547 N 984.001 2.38378 -3.97153 0
M  V30 10548 C 984.736 2.852 -4.97442 0
M  V30 10549 N 984.232 3.31891 -6.08129 0
M  V30 10550 N 986.025 2.84441 -4.84819 0
M  V30 10551 H 978.176 0.0840456 -2.12234 0
M  V30 10552 H 980.439 0.0999038 -0.942721 0
M  V30 10553 H 980.145 0.953608 -3.38525 0
M  V30 10554 H 980.019 2.58375 -2.74813 0
M  V30 10555 H 982.406 2.35064 -1.78406 0
M  V30 10556 H 982.487 0.715714 -2.45583 0
M  V30 10557 H 982.131 1.68219 -4.79234 0
M  V30 10558 H 982.061 3.31769 -4.08946 0
M  V30 10559 H 984.552 2.05382 -3.17217 0
M  V30 10560 H 984.865 3.66138 -6.8056 0
M  V30 10561 H 983.21 3.2989 -6.11717 0
M  V30 10562 H 986.401 2.4729 -3.97448 0
M  V30 10563 H 986.574 3.20616 -5.63124 0
M  V30 10564 N 979.98 1.24838 0.961938 0
M  V30 10565 C 981.205 1.11967 1.7458 0
M  V30 10566 C 981.63 -0.323287 1.85301 0
M  V30 10567 O 980.988 -1.23412 1.32812 0
M  V30 10568 C 981.036 1.77066 3.14134 0
M  V30 10569 O 980.14 1.04534 3.98932 0
M  V30 10570 H 979.481 0.391338 0.536424 0
M  V30 10571 H 982.011 1.65259 1.20626 0
M  V30 10572 H 982.021 1.83056 3.64629 0
M  V30 10573 H 980.696 2.82052 3.05646 0
M  V30 10574 H 979.273 1.06372 3.57407 0
M  V30 10575 N 981.458 -1.16348 1.06306 0
M  V30 10576 C 982.686 -1.90782 0.800614 0
M  V30 10577 C 983.101 -1.77439 -0.645033 0
M  V30 10578 O 982.458 -1.11912 -1.4416 0
M  V30 10579 C 982.509 -3.41484 1.18621 0
M  V30 10580 O 982.23 -3.54428 2.57512 0
M  V30 10581 C 983.731 -4.32968 0.951525 0
M  V30 10582 H 980.951 -0.604977 0.290247 0
M  V30 10583 H 983.495 -1.47476 1.41672 0
M  V30 10584 H 981.65 -3.82493 0.614633 0
M  V30 10585 H 982.064 -4.4788 2.72954 0
M  V30 10586 H 983.538 -5.37169 1.27095 0
M  V30 10587 H 984.015 -4.39055 -0.112734 0
M  V30 10588 H 984.621 -3.97687 1.50749 0
M  V30 10589 N 982.937 -0.845659 -1.3299 0
M  V30 10590 C 983.887 -0.2557 -2.26562 0
M  V30 10591 C 984.871 0.593245 -1.49564 0
M  V30 10592 O 986.063 0.444101 -1.71338 0
M  V30 10593 C 983.192 0.562573 -3.38659 0
M  V30 10594 C 982.278 -0.298259 -4.2305 0
M  V30 10595 N 982.669 -1.38023 -4.86604 0
M  V30 10596 C 980.967 -0.0864539 -4.45916 0
M  V30 10597 C 981.668 -1.90907 -5.49481 0
M  V30 10598 N 980.644 -1.20955 -5.29973 0
M  V30 10599 H 984.446 -1.083 -2.73219 0
M  V30 10600 H 981.96 -0.690823 -1.46974 0
M  V30 10601 H 983.957 1.00157 -4.0469 0
M  V30 10602 H 982.617 1.38777 -2.93549 0
M  V30 10603 H 983.628 -1.76314 -4.86964 0
M  V30 10604 H 980.305 0.70475 -4.11509 0
M  V30 10605 H 981.695 -2.81552 -6.10064 0
M  V30 10606 N 984.415 1.45619 -0.602734 0
M  V30 10607 C 985.826 1.85814 -0.181636 0
M  V30 10608 C 986.177 1.5037 1.26029 0
M  V30 10609 O 985.302 0.928068 1.95489 0
M  V30 10610 C 985.897 3.37258 -0.322866 0
M  V30 10611 C 984.456 3.76375 0.043504 0
M  V30 10612 C 983.603 2.69585 -0.649561 0
M  V30 10613 H 986.554 1.36489 -0.809721 0
M  V30 10614 H 986.575 3.77874 0.446279 0
M  V30 10615 H 986.087 3.63024 -1.37241 0
M  V30 10616 H 984.188 3.56226 1.09241 0
M  V30 10617 H 984.301 4.77843 -0.346765 0
M  V30 10618 H 982.665 2.54549 -0.087706 0
M  V30 10619 H 983.448 2.98188 -1.70115 0
M  V30 10620 N 985.893 0.34162 1.53853 0
M  V30 10621 C 986.843 -0.531995 2.21707 0
M  V30 10622 C 987.827 -1.06759 1.2038 0
M  V30 10623 O 989.019 -1.00161 1.45934 0
M  V30 10624 C 986.148 -1.6834 2.99193 0
M  V30 10625 C 985.234 -1.16184 4.07875 0
M  V30 10626 N 985.625 -0.361348 5.04508 0
M  V30 10627 C 983.923 -1.43891 4.22151 0
M  V30 10628 C 984.624 -0.0785378 5.81647 0
M  V30 10629 N 983.6 -0.669651 5.3946 0
M  V30 10630 H 987.402 0.0866825 2.93772 0
M  V30 10631 H 984.916 0.148386 1.61721 0
M  V30 10632 H 986.913 -2.32121 3.46303 0
M  V30 10633 H 985.573 -2.30538 2.28653 0
M  V30 10634 H 986.584 -0.00259906 5.179 0
M  V30 10635 H 983.261 -2.06542 3.62832 0
M  V30 10636 H 984.651 0.567068 6.69503 0
M  V30 10637 N 987.371 -1.57444 0.0701946 0
M  V30 10638 C 988.618 -1.93429 -0.59929 0
M  V30 10639 C 988.946 -0.9501 -1.69715 0
M  V30 10640 O 988.201 0.0345377 -1.9567 0
M  V30 10641 C 988.5 -3.36044 -1.21694 0
M  V30 10642 C 988.166 -4.50232 -0.245374 0
M  V30 10643 C 986.828 -4.81195 0.0219161 0
M  V30 10644 C 989.18 -5.1951 0.419396 0
M  V30 10645 C 986.508 -5.78775 0.96109 0
M  V30 10646 C 988.86 -6.18095 1.34688 0
M  V30 10647 C 987.524 -6.47477 1.62265 0
M  V30 10648 H 986.794 -0.707807 -0.219296 0
M  V30 10649 H 989.441 -1.90982 0.14073 0
M  V30 10650 H 987.746 -3.34948 -2.03265 0
M  V30 10651 H 989.443 -3.61176 -1.74221 0
M  V30 10652 H 986.033 -4.26082 -0.463887 0
M  V30 10653 H 990.217 -4.95785 0.226009 0
M  V30 10654 H 985.473 -5.99865 1.18202 0
M  V30 10655 H 989.647 -6.7088 1.86795 0
M  V30 10656 H 987.274 -7.229 2.352 0
M  V30 10657 N 988.849 0.203349 -1.56283 0
M  V30 10658 C 990.095 0.926381 -1.80405 0
M  V30 10659 C 990.428 1.8325 -0.642883 0
M  V30 10660 O 989.703 1.91196 0.356998 0
M  V30 10661 C 989.986 1.74972 -3.14733 0
M  V30 10662 C 989.839 0.868866 -4.41328 0
M  V30 10663 C 991.158 2.72394 -3.45672 0
M  V30 10664 H 988.277 0.335346 -0.656286 0
M  V30 10665 H 990.919 0.1942 -1.89005 0
M  V30 10666 H 989.069 2.37394 -3.07533 0
M  V30 10667 H 990.741 0.259986 -4.60567 0
M  V30 10668 H 988.984 0.175161 -4.33446 0
M  V30 10669 H 989.655 1.47975 -5.31796 0
M  V30 10670 H 992.131 2.20105 -3.53119 0
M  V30 10671 H 991.007 3.27091 -4.40798 0
M  V30 10672 H 991.268 3.51035 -2.6875 0
M  V30 10673 N 990.327 1.50405 0.470755 0
M  V30 10674 C 991.743 1.37838 0.804534 0
M  V30 10675 C 991.943 0.434743 1.96754 0
M  V30 10676 O 990.999 -0.122507 2.52203 0
M  V30 10677 C 992.312 2.79212 1.11629 0
M  V30 10678 C 993.86 2.88129 1.22272 0
M  V30 10679 C 994.335 4.30337 1.5676 0
M  V30 10680 N 995.826 4.3329 1.63751 0
M  V30 10681 C 996.561 5.4032 1.91942 0
M  V30 10682 N 996.057 6.57558 2.18151 0
M  V30 10683 N 997.85 5.27764 1.93446 0
M  V30 10684 H 990.001 2.10332 -0.295689 0
M  V30 10685 H 992.264 0.945429 -0.0697733 0
M  V30 10686 H 991.97 3.50103 0.334778 0
M  V30 10687 H 991.844 3.16475 2.0524 0
M  V30 10688 H 994.231 2.17457 1.9949 0
M  V30 10689 H 994.312 2.54409 0.2664 0
M  V30 10690 H 993.956 5.01547 0.800817 0
M  V30 10691 H 993.886 4.61545 2.53543 0
M  V30 10692 H 996.377 3.48752 1.45535 0
M  V30 10693 H 996.69 7.34935 2.38936 0
M  V30 10694 H 995.035 6.60732 2.15542 0
M  V30 10695 H 998.226 4.35169 1.72468 0
M  V30 10696 H 998.399 6.11264 2.15081 0
M  V30 10697 N 991.805 -0.723954 1.39988 0
M  V30 10698 C 993.045 -1.49624 1.39255 0
M  V30 10699 C 993.409 -1.91998 -0.00860198 0
M  V30 10700 O 994.61 -2.6843 -0.141002 0
M  V30 10701 C 992.881 -2.69514 2.34728 0
M  V30 10702 S 994.44 -3.59027 2.5228 0
M  V30 10703 H 991.258 -0.511661 0.493685 0
M  V30 10704 H 993.86 -0.847322 1.76184 0
M  V30 10705 H 992.564 -2.36541 3.35375 0
M  V30 10706 H 992.095 -3.39325 1.99053 0
M  V30 10707 H 994.11 -4.63597 1.76896 0
M  V30 10708 N 993.283 -1.25346 -0.955304 0
M  V30 10709 C 994.532 -1.0945 -1.69421 0
M  V30 10710 C 994.845 0.364459 -1.92175 0
M  V30 10711 O 996.051 0.643843 -2.63755 0
M  V30 10712 C 994.507 -1.91045 -3.05008 0
M  V30 10713 C 994.115 -3.41428 -2.90053 0
M  V30 10714 C 995.859 -1.83716 -3.82686 0
M  V30 10715 C 993.766 -4.1532 -4.21026 0
M  V30 10716 H 992.696 -0.405978 -0.635372 0
M  V30 10717 H 995.347 -1.49536 -1.06354 0
M  V30 10718 H 993.729 -1.43781 -3.68975 0
M  V30 10719 H 994.903 -3.9636 -2.35022 0
M  V30 10720 H 993.218 -3.49842 -2.25831 0
M  V30 10721 H 995.815 -2.36217 -4.79693 0
M  V30 10722 H 996.158 -0.804919 -4.08444 0
M  V30 10723 H 996.691 -2.28726 -3.25468 0
M  V30 10724 H 993.43 -5.18955 -4.00457 0
M  V30 10725 H 992.95 -3.65172 -4.75825 0
M  V30 10726 H 994.629 -4.22999 -4.89572 0
M  V30 10727 N 994.761 1.15782 -1.06922 0
M  V30 10728 C 996.01 1.85807 -0.784774 0
M  V30 10729 C 996.323 1.82967 0.691551 0
M  V30 10730 O 997.529 2.48632 1.0906 0
M  V30 10731 C 995.985 3.33469 -1.35375 0
M  V30 10732 C 995.593 3.44766 -2.86077 0
M  V30 10733 C 997.337 4.08707 -1.14713 0
M  V30 10734 C 995.244 4.86551 -3.36187 0
M  V30 10735 H 994.174 0.696046 -0.28989 0
M  V30 10736 H 996.825 1.30629 -1.28873 0
M  V30 10737 H 995.207 3.88292 -0.77754 0
M  V30 10738 H 996.381 3.00073 -3.49704 0
M  V30 10739 H 994.696 2.82969 -3.05479 0
M  V30 10740 H 997.293 5.13336 -1.49633 0
M  V30 10741 H 997.636 4.16211 -0.0858868 0
M  V30 10742 H 998.169 3.60142 -1.68946 0
M  V30 10743 H 994.908 4.84229 -4.41818 0
M  V30 10744 H 994.428 5.31844 -2.77312 0
M  V30 10745 H 996.107 5.55392 -3.31887 0
M  V30 10746 N 996.239 0.8527 1.3254 0
M  V30 10747 C 997.65 0.510012 1.79599 0
M  V30 10748 C 998.001 -0.972002 1.70431 0
M  V30 10749 O 997.126 -1.7581 1.26173 0
M  V30 10750 C 997.721 0.918986 3.26098 0
M  V30 10751 C 996.28 0.628227 3.7112 0
M  V30 10752 C 995.427 1.11979 2.53685 0
M  V30 10753 H 998.378 1.04009 1.19866 0
M  V30 10754 H 998.399 0.234577 3.79776 0
M  V30 10755 H 997.911 1.99765 3.32739 0
M  V30 10756 H 996.012 -0.4398 3.69995 0
M  V30 10757 H 996.125 1.19315 4.64005 0
M  V30 10758 H 994.489 0.540133 2.48907 0
M  V30 10759 H 995.272 2.20552 2.63081 0
M  V30 10760 N 997.718 -1.45297 0.610449 0
M  V30 10761 C 998.666 -2.32295 -0.119167 0
M  V30 10762 C 999.66 -1.46138 -0.856746 0
M  V30 10763 O 1000.87 -1.62605 -0.771988 0
M  V30 10764 H 997.241 -0.749815 -0.0572881 0
M  V30 10765 H 999.212 -2.91609 0.63297 0
M  V30 10766 C 997.961 -3.29802 -1.10119 0
M  V30 10767 H 997.284 -3.96095 -0.543063 0
M  V30 10768 H 998.724 -3.93398 -1.58158 0
M  V30 10769 C 997.183 -2.57185 -2.17617 0
M  V30 10770 O 997.713 -2.35535 -3.25401 0
M  V30 10771 N 995.919 -2.17272 -1.9298 0
M  V30 10772 H 995.466 -2.3508 -1.05334 0
M  V30 10773 H 995.424 -1.69009 -2.6511 0
M  V30 10774 N 999.196 -0.349774 -1.5367 0
M  V30 10775 C 1000.11 0.512421 -2.28935 0
M  V30 10776 C 1001.12 1.1065 -1.34286 0
M  V30 10777 O 1002.3 1.12084 -1.67329 0
M  V30 10778 C 999.363 1.64449 -3.05217 0
M  V30 10779 C 998.424 1.07956 -4.15505 0
M  V30 10780 C 997.657 2.15768 -4.88139 0
M  V30 10781 O 997.88 3.366 -4.60496 0
M  V30 10782 O 996.814 1.79712 -5.74445 0
M  V30 10783 H 1000.64 -0.0996001 -3.03537 0
M  V30 10784 H 998.225 -0.114629 -1.4896 0
M  V30 10785 H 1000.11 2.30302 -3.52901 0
M  V30 10786 H 998.782 2.24221 -2.33467 0
M  V30 10787 H 997.689 0.385381 -3.7211 0
M  V30 10788 H 999.022 0.526621 -4.89375 0
M  V30 10789 N 1000.67 1.57404 -0.0785433 0
M  V30 10790 C 1001.9 1.98074 0.597862 0
M  V30 10791 C 1002.32 0.95714 1.6274 0
M  V30 10792 O 1001.67 -0.0553728 1.82416 0
M  V30 10793 C 1001.72 3.38815 1.26041 0
M  V30 10794 O 1001.45 4.37254 0.27207 0
M  V30 10795 C 1002.95 3.94397 2.024 0
M  V30 10796 H 1000.17 0.651263 0.161546 0
M  V30 10797 H 1002.71 2.03927 -0.152941 0
M  V30 10798 H 1000.87 3.34028 1.96225 0
M  V30 10799 H 1001.28 5.19136 0.74822 0
M  V30 10800 H 1002.75 4.95075 2.4414 0
M  V30 10801 H 1003.23 3.31308 2.88326 0
M  V30 10802 H 1003.84 4.02607 1.37068 0
M  V30 10803 N 1002.15 -0.195058 1.56388 0
M  V30 10804 C 1003.1 -1.24175 1.94549 0
M  V30 10805 C 1004.07 -1.45229 0.806089 0
M  V30 10806 O 1005.25 -1.58362 1.06425 0
M  V30 10807 C 1002.39 -2.58145 2.29031 0
M  V30 10808 C 1001.51 -2.44669 3.56035 0
M  V30 10809 C 1000.64 -3.71342 3.7984 0
M  V30 10810 C 999.681 -3.52699 5.0027 0
M  V30 10811 N 998.818 -4.71385 5.20328 0
M  V30 10812 H 1003.66 -0.909319 2.83788 0
M  V30 10813 H 1001.19 -0.437641 1.40439 0
M  V30 10814 H 1003.15 -3.36195 2.4704 0
M  V30 10815 H 1001.78 -2.8943 1.42933 0
M  V30 10816 H 1000.83 -1.57916 3.46073 0
M  V30 10817 H 1002.15 -2.26827 4.44242 0
M  V30 10818 H 1001.3 -4.57832 3.98088 0
M  V30 10819 H 1000.04 -3.92138 2.89964 0
M  V30 10820 H 999.045 -2.64594 4.81944 0
M  V30 10821 H 1000.27 -3.33349 5.91655 0
M  V30 10822 H 998.216 -4.92444 4.33399 0
M  V30 10823 H 998.133 -4.56368 6.02714 0
M  V30 10824 H 999.401 -5.59226 5.43035 0
M  V30 10825 N 1003.63 -1.50653 -0.462772 0
M  V30 10826 C 1004.85 -1.66103 -1.24196 0
M  V30 10827 C 1005.28 -0.347421 -1.84864 0
M  V30 10828 O 1004.64 0.689673 -1.6767 0
M  V30 10829 C 1004.69 -2.76027 -2.32037 0
M  V30 10830 O 1003.79 -2.37859 -3.36893 0
M  V30 10831 H 1003.13 -0.554672 -0.365014 0
M  V30 10832 H 1005.66 -1.97076 -0.549734 0
M  V30 10833 H 1005.67 -2.99354 -2.77221 0
M  V30 10834 H 1004.35 -3.71361 -1.87253 0
M  V30 10835 H 1002.92 -2.2501 -2.97363 0
M  V30 10836 N 1005.11 0.71652 -1.4037 0
M  V30 10837 C 1006.52 1.29562 -1.34427 0
M  V30 10838 C 1006.87 1.96192 -0.0173106 0
M  V30 10839 O 1006 1.97488 0.884719 0
M  V30 10840 C 1006.59 2.35601 -2.4347 0
M  V30 10841 C 1005.15 2.89138 -2.4099 0
M  V30 10842 C 1004.3 1.62915 -2.24397 0
M  V30 10843 H 1007.25 0.512715 -1.5019 0
M  V30 10844 H 1007.27 3.16422 -2.11323 0
M  V30 10845 H 1006.78 1.87077 -3.40035 0
M  V30 10846 H 1004.88 3.41894 -1.4812 0
M  V30 10847 H 1004.99 3.40995 -3.3654 0
M  V30 10848 H 1003.36 1.87947 -1.71896 0
M  V30 10849 H 1004.14 1.16417 -3.22958 0
M  V30 10850 N 1006.59 1.25851 0.948643 0
M  V30 10851 C 1007.83 1.10735 1.69062 0
M  V30 10852 C 1008.16 -0.351257 1.9181 0
M  V30 10853 O 1007.43 -1.24867 1.50947 0
M  V30 10854 H 1006.01 0.406796 0.626519 0
M  V30 10855 H 1008.67 1.58066 1.14022 0
M  V30 10856 H 1007.76 1.62033 2.66743 0
M  V30 10857 N 1008.06 -1.15214 1.07534 0
M  V30 10858 C 1009.31 -1.86319 0.800814 0
M  V30 10859 C 1009.64 -1.82221 -0.671494 0
M  V30 10860 O 1008.92 -1.24664 -1.49295 0
M  V30 10861 C 1009.2 -3.35347 1.31203 0
M  V30 10862 C 1009.05 -3.48067 2.84902 0
M  V30 10863 C 1010.37 -4.3016 0.930064 0
M  V30 10864 H 1007.49 -0.676523 0.292379 0
M  V30 10865 H 1010.13 -1.35349 1.33344 0
M  V30 10866 H 1008.28 -3.78886 0.858949 0
M  V30 10867 H 1009.96 -3.13379 3.38514 0
M  V30 10868 H 1008.2 -2.89566 3.23008 0
M  V30 10869 H 1008.87 -4.52782 3.15741 0
M  V30 10870 H 1011.35 -3.94591 1.3205 0
M  V30 10871 H 1010.22 -5.32914 1.31507 0
M  V30 10872 H 1010.48 -4.41796 -0.163824 0
M  V30 10873 N 1009.54 -0.859717 -1.32086 0
M  V30 10874 C 1010.48 -0.252764 -2.26796 0
M  V30 10875 C 1011.45 0.612178 -1.50636 0
M  V30 10876 O 1012.64 0.567865 -1.79743 0
M  V30 10877 C 1009.76 0.643017 -3.3254 0
M  V30 10878 C 1008.81 -0.149211 -4.26239 0
M  V30 10879 S 1009.64 -1.52097 -5.13446 0
M  V30 10880 C 1010.8 -0.631035 -6.22711 0
M  V30 10881 H 1011.03 -1.05563 -2.77928 0
M  V30 10882 H 1008.57 -0.657639 -1.39694 0
M  V30 10883 H 1010.52 1.15418 -3.9394 0
M  V30 10884 H 1009.18 1.41974 -2.80183 0
M  V30 10885 H 1008.38 0.53328 -5.01171 0
M  V30 10886 H 1007.98 -0.592128 -3.69283 0
M  V30 10887 H 1010.27 0.162638 -6.77305 0
M  V30 10888 H 1011.21 -1.35116 -6.95089 0
M  V30 10889 H 1011.62 -0.203131 -5.64134 0
M  V30 10890 N 1011.02 1.44971 -0.618145 0
M  V30 10891 C 1012.3 1.95539 -0.0489895 0
M  V30 10892 C 1012.68 1.5604 1.42179 0
M  V30 10893 O 1012.03 0.82809 2.12967 0
M  V30 10894 C 1012.24 3.48044 -0.258193 0
M  V30 10895 C 1013.58 4.24354 -0.144541 0
M  V30 10896 O 1014.61 3.55699 -0.18887 0
M  V30 10897 O 1013.47 5.46486 -0.038519 0
M  V30 10898 H 1010.56 0.826466 0.0297256 0
M  V30 10899 H 1013.11 1.55086 -0.688944 0
M  V30 10900 H 1011.88 3.69798 -1.27926 0
M  V30 10901 H 1011.5 3.95412 0.416522 0
M  V30 10902 N 1012.5 0.357919 1.53482 0
M  V30 10903 C 1013.45 -0.507364 2.26999 0
M  V30 10904 C 1014.44 -1.08987 1.29685 0
M  V30 10905 O 1015.65 -1.03396 1.47341 0
M  V30 10906 H 1012.02 -0.182326 0.729562 0
M  V30 10907 H 1013.99 0.134547 2.98097 0
M  V30 10908 C 1012.74 -1.63911 3.06641 0
M  V30 10909 H 1012.06 -1.20017 3.81361 0
M  V30 10910 H 1013.5 -2.21943 3.61272 0
M  V30 10911 C 1011.96 -2.57697 2.17011 0
M  V30 10912 O 1012.49 -3.60318 1.77578 0
M  V30 10913 N 1010.7 -2.2671 1.818 0
M  V30 10914 H 1010.25 -1.43296 2.14065 0
M  V30 10915 H 1010.2 -2.89716 1.22115 0
M  V30 10916 N 1013.98 -1.5736 0.0868897 0
M  V30 10917 C 1015.39 -1.81356 -0.443499 0
M  V30 10918 C 1015.74 -1.00192 -1.68689 0
M  V30 10919 O 1014.86 -0.228863 -2.15186 0
M  V30 10920 C 1015.46 -3.28941 -0.811387 0
M  V30 10921 C 1014.02 -3.53729 -1.28656 0
M  V30 10922 C 1013.16 -2.75891 -0.279153 0
M  V30 10923 H 1016.12 -1.55594 0.312427 0
M  V30 10924 H 1016.14 -3.41815 -1.6716 0
M  V30 10925 H 1015.65 -3.87987 0.0937598 0
M  V30 10926 H 1013.75 -3.00005 -2.2097 0
M  V30 10927 H 1013.86 -4.62396 -1.25406 0
M  V30 10928 H 1012.23 -2.4311 -0.759595 0
M  V30 10929 H 1013.01 -3.37682 0.618529 0
M  V30 10930 N 1015.45 0.186762 -1.56489 0
M  V30 10931 C 1016.38 1.23395 -1.98232 0
M  V30 10932 C 1017.37 1.4702 -0.855526 0
M  V30 10933 O 1018.55 1.58616 -1.12048 0
M  V30 10934 C 1015.68 2.57635 -2.32898 0
M  V30 10935 C 1014.63 2.48607 -3.48394 0
M  V30 10936 C 1013.96 3.87196 -3.68759 0
M  V30 10937 C 1015.26 2.00398 -4.82325 0
M  V30 10938 H 1016.95 0.887026 -2.85958 0
M  V30 10939 H 1014.5 0.42525 -1.37578 0
M  V30 10940 H 1016.45 3.31082 -2.60696 0
M  V30 10941 H 1015.18 2.94084 -1.42064 0
M  V30 10942 H 1013.84 1.77615 -3.207 0
M  V30 10943 H 1013.48 4.21012 -2.75241 0
M  V30 10944 H 1013.18 3.82029 -4.46462 0
M  V30 10945 H 1014.71 4.62253 -3.98941 0
M  V30 10946 H 1016.12 2.6361 -5.091 0
M  V30 10947 H 1014.52 2.06214 -5.63556 0
M  V30 10948 H 1015.59 0.957562 -4.75351 0
M  V30 10949 N 1016.93 1.50896 0.454776 0
M  V30 10950 C 1018.18 1.6294 1.20741 0
M  V30 10951 C 1018.51 0.336339 1.91265 0
M  V30 10952 O 1017.79 -0.663153 1.82846 0
M  V30 10953 C 1018.07 2.82092 2.23822 0
M  V30 10954 C 1017.92 4.21326 1.57495 0
M  V30 10955 C 1019.24 2.96777 3.24979 0
M  V30 10956 H 1016.36 0.59302 0.437603 0
M  V30 10957 H 1019 1.83331 0.498959 0
M  V30 10958 H 1017.15 2.64837 2.84243 0
M  V30 10959 H 1018.82 4.50209 1.00546 0
M  V30 10960 H 1017.07 4.24829 0.877664 0
M  V30 10961 H 1017.74 5.00656 2.32482 0
M  V30 10962 H 1020.21 3.12627 2.74597 0
M  V30 10963 H 1019.09 3.81742 3.94416 0
M  V30 10964 H 1019.35 2.08091 3.90065 0
M  V30 10965 N 1018.41 -0.709066 1.40748 0
M  V30 10966 C 1019.34 -1.83293 1.35937 0
M  V30 10967 C 1020.32 -1.60983 0.22871 0
M  V30 10968 O 1021.51 -1.8391 0.413435 0
M  V30 10969 C 1018.63 -3.19746 1.11714 0
M  V30 10970 C 1017.68 -3.60872 2.27319 0
M  V30 10971 S 1018.51 -3.67233 3.89743 0
M  V30 10972 C 1019.67 -5.06434 3.67797 0
M  V30 10973 H 1019.9 -1.87095 2.31047 0
M  V30 10974 H 1017.43 -0.876479 1.27111 0
M  V30 10975 H 1019.39 -3.98526 0.984245 0
M  V30 10976 H 1018.05 -3.1357 0.182472 0
M  V30 10977 H 1017.25 -4.59965 2.06029 0
M  V30 10978 H 1016.85 -2.89366 2.36946 0
M  V30 10979 H 1019.14 -5.93544 3.26668 0
M  V30 10980 H 1020.08 -5.32761 4.66445 0
M  V30 10981 H 1020.49 -4.77336 3.01348 0
M  V30 10982 N 1019.89 -1.26353 -0.941956 0
M  V30 10983 C 1020.84 -1.04513 -2.02635 0
M  V30 10984 C 1021.82 0.0222314 -1.60885 0
M  V30 10985 O 1023.02 -0.194629 -1.75927 0
M  V30 10986 C 1020.14 -0.679282 -3.36512 0
M  V30 10987 C 1019.23 -1.78406 -3.8475 0
M  V30 10988 N 1019.62 -3.02136 -4.05645 0
M  V30 10989 C 1017.92 -1.66748 -4.13656 0
M  V30 10990 C 1018.62 -3.73932 -4.45589 0
M  V30 10991 N 1017.6 -3.01616 -4.52248 0
M  V30 10992 H 1021.4 -1.9843 -2.16801 0
M  V30 10993 H 1018.91 -1.16858 -1.12774 0
M  V30 10994 H 1020.91 -0.503975 -4.13843 0
M  V30 10995 H 1019.57 0.252418 -3.23717 0
M  V30 10996 H 1020.58 -3.38049 -3.92356 0
M  V30 10997 H 1017.26 -0.805627 -4.09653 0
M  V30 10998 H 1018.65 -4.80201 -4.69954 0
M  V30 10999 N 1021.37 1.14642 -1.08144 0
M  V30 11000 C 1022.3 2.19283 -0.6669 0
M  V30 11001 C 1023.31 1.60292 0.284668 0
M  V30 11002 O 1024.5 1.78352 0.0727383 0
M  V30 11003 C 1021.6 3.38877 0.0398572 0
M  V30 11004 C 1020.77 4.274 -0.929929 0
M  V30 11005 C 1019.83 5.25562 -0.258991 0
M  V30 11006 O 1018.86 5.61999 -0.902563 0
M  V30 11007 N 1020.06 5.71958 0.992177 0
M  V30 11008 H 1022.83 2.55464 -1.5671 0
M  V30 11009 H 1020.39 1.29836 -0.96717 0
M  V30 11010 H 1022.38 4.01605 0.499583 0
M  V30 11011 H 1020.95 3.01043 0.842118 0
M  V30 11012 H 1020.17 3.61649 -1.56857 0
M  V30 11013 H 1021.46 4.83411 -1.58717 0
M  V30 11014 H 1020.86 5.44481 1.53484 0
M  V30 11015 H 1019.41 6.36687 1.39544 0
M  V30 11016 N 1022.85 0.866709 1.31628 0
M  V30 11017 C 1023.78 0.335762 2.31073 0
M  V30 11018 C 1024.76 -0.571597 1.60209 0
M  V30 11019 O 1025.94 -0.489306 1.87935 0
M  V30 11020 C 1023.07 -0.466416 3.44154 0
M  V30 11021 C 1022.03 0.347561 4.26586 0
M  V30 11022 C 1021.35 -0.5801 5.31544 0
M  V30 11023 C 1022.65 1.57986 4.97833 0
M  V30 11024 H 1024.35 1.16673 2.75731 0
M  V30 11025 H 1021.89 0.56248 1.3256 0
M  V30 11026 H 1023.84 -0.84836 4.12772 0
M  V30 11027 H 1022.57 -1.33086 2.98254 0
M  V30 11028 H 1021.23 0.71141 3.59631 0
M  V30 11029 H 1020.88 -1.44174 4.81895 0
M  V30 11030 H 1020.58 -0.0393965 5.87587 0
M  V30 11031 H 1022.1 -0.958958 6.03023 0
M  V30 11032 H 1023.51 1.26954 5.59067 0
M  V30 11033 H 1021.91 2.05939 5.63657 0
M  V30 11034 H 1022.98 2.3345 4.25005 0
M  V30 11035 N 1024.32 -1.44642 0.625825 0
M  V30 11036 C 1025.74 -1.56925 0.290992 0
M  V30 11037 C 1025.94 -1.61424 -1.20601 0
M  V30 11038 O 1025 -1.55439 -1.98985 0
M  V30 11039 C 1026.31 -2.84343 0.978242 0
M  V30 11040 C 1027.86 -2.98047 0.955882 0
M  V30 11041 C 1028.33 -4.2826 1.62349 0
M  V30 11042 N 1029.82 -4.35062 1.58983 0
M  V30 11043 C 1030.56 -5.34524 2.07538 0
M  V30 11044 N 1030.05 -6.4042 2.6426 0
M  V30 11045 N 1031.85 -5.25998 1.98198 0
M  V30 11046 H 1024 -1.39965 1.59761 0
M  V30 11047 H 1026.26 -0.670368 0.670306 0
M  V30 11048 H 1025.97 -2.86985 2.03304 0
M  V30 11049 H 1025.84 -3.73699 0.512726 0
M  V30 11050 H 1028.23 -2.94961 -0.0904292 0
M  V30 11051 H 1028.31 -2.10053 1.45984 0
M  V30 11052 H 1027.95 -4.32105 2.66923 0
M  V30 11053 H 1027.88 -5.15102 1.09441 0
M  V30 11054 H 1030.37 -3.59147 1.17565 0
M  V30 11055 H 1030.69 -7.1259 2.99056 0
M  V30 11056 H 1029.03 -6.41121 2.68308 0
M  V30 11057 H 1032.22 -4.42178 1.5361 0
M  V30 11058 H 1032.4 -6.03359 2.3635 0
M  V30 11059 N 1025.8 -0.366053 -1.5329 0
M  V30 11060 C 1027.04 0.223558 -2.03174 0
M  V30 11061 C 1027.41 1.45955 -1.24745 0
M  V30 11062 O 1028.61 2.12481 -1.64637 0
M  V30 11063 C 1026.88 0.507899 -3.53773 0
M  V30 11064 S 1028.44 1.07111 -4.25526 0
M  V30 11065 H 1025.25 0.0650309 -0.70802 0
M  V30 11066 H 1027.86 -0.509028 -1.88757 0
M  V30 11067 H 1026.56 -0.39913 -4.08455 0
M  V30 11068 H 1026.09 1.26954 -3.72352 0
M  V30 11069 H 1028.11 2.35533 -4.36737 0
M  V30 11070 N 1027.28 1.57312 -0.0952337 0
M  V30 11071 C 1028.23 2.15263 0.881167 0
M  V30 11072 C 1029.22 1.09552 1.29208 0
M  V30 11073 O 1030.43 1.27897 1.26659 0
M  V30 11074 H 1026.8 0.688611 0.302191 0
M  V30 11075 H 1028.77 2.96126 0.367694 0
M  V30 11076 C 1027.52 2.74779 2.13053 0
M  V30 11077 H 1026.85 3.55807 1.82323 0
M  V30 11078 H 1028.29 3.18895 2.79431 0
M  V30 11079 C 1026.74 1.7068 2.90465 0
M  V30 11080 O 1027.27 1.14582 3.85011 0
M  V30 11081 N 1025.48 1.41169 2.54007 0
M  V30 11082 H 1025.03 1.86977 1.77193 0
M  V30 11083 H 1024.99 0.717559 3.06102 0
M  V30 11084 N 1028.76 -0.17846 1.56586 0
M  V30 11085 C 1030.01 -0.894464 1.81228 0
M  V30 11086 C 1030.33 -1.83089 0.671062 0
M  V30 11087 O 1029.6 -1.93439 -0.309557 0
M  V30 11088 H 1028.18 -0.333288 0.668527 0
M  V30 11089 H 1030.84 -0.179986 1.94067 0
M  V30 11090 H 1029.93 -1.47565 2.75011 0
M  V30 11091 N 1030.24 -1.51135 -0.446768 0
M  V30 11092 C 1031.48 -1.63578 -1.19875 0
M  V30 11093 C 1031.81 -0.346478 -1.91084 0
M  V30 11094 O 1031.09 0.653447 -1.83195 0
M  V30 11095 C 1031.37 -2.83275 -2.22323 0
M  V30 11096 C 1031.23 -4.22155 -1.55259 0
M  V30 11097 C 1032.54 -2.98496 -3.23401 0
M  V30 11098 H 1029.66 -0.595333 -0.434452 0
M  V30 11099 H 1032.31 -1.83593 -0.48923 0
M  V30 11100 H 1030.46 -2.6634 -2.82834 0
M  V30 11101 H 1032.13 -4.50736 -0.981571 0
M  V30 11102 H 1030.37 -4.25288 -0.855122 0
M  V30 11103 H 1031.04 -5.01882 -2.29823 0
M  V30 11104 H 1033.52 -3.14079 -2.72935 0
M  V30 11105 H 1032.39 -3.83828 -3.92386 0
M  V30 11106 H 1032.65 -2.10157 -3.88956 0
M  V30 11107 N 1031.71 0.701592 -1.41122 0
M  V30 11108 C 1032.64 1.82815 -1.45262 0
M  V30 11109 C 1033.62 1.67215 -0.311939 0
M  V30 11110 O 1034.81 1.87038 -0.522538 0
M  V30 11111 C 1031.94 3.20899 -1.32819 0
M  V30 11112 C 1030.89 3.51194 -2.44636 0
M  V30 11113 C 1030.22 4.8857 -2.17263 0
M  V30 11114 C 1031.52 3.50777 -3.86979 0
M  V30 11115 H 1033.21 1.79608 -2.39544 0
M  V30 11116 H 1030.76 0.862693 -1.15298 0
M  V30 11117 H 1032.71 3.99417 -1.34329 0
M  V30 11118 H 1031.44 3.24717 -0.350191 0
M  V30 11119 H 1030.1 2.75024 -2.42399 0
M  V30 11120 H 1029.74 4.89007 -1.17819 0
M  V30 11121 H 1029.44 5.09805 -2.92186 0
M  V30 11122 H 1030.97 5.69405 -2.20478 0
M  V30 11123 H 1032.38 4.19309 -3.90964 0
M  V30 11124 H 1030.78 3.83542 -4.61536 0
M  V30 11125 H 1031.85 2.49873 -4.15562 0
M  V30 11126 N 1033.19 1.2685 0.935242 0
M  V30 11127 C 1034.1 1.10716 2.06831 0
M  V30 11128 C 1035.12 0.0391222 1.73956 0
M  V30 11129 O 1036.29 0.244071 1.99916 0
M  V30 11130 C 1033.36 0.748093 3.38533 0
M  V30 11131 C 1032.42 1.89619 3.85153 0
M  V30 11132 C 1031.65 1.55416 5.1057 0
M  V30 11133 O 1031.88 0.458596 5.68553 0
M  V30 11134 O 1030.81 2.39087 5.52378 0
M  V30 11135 H 1034.64 2.05785 2.23352 0
M  V30 11136 H 1032.22 1.05967 1.05315 0
M  V30 11137 H 1034.1 0.560841 4.17651 0
M  V30 11138 H 1032.78 -0.173142 3.23237 0
M  V30 11139 H 1031.68 2.13845 3.06954 0
M  V30 11140 H 1033.02 2.79737 4.04979 0
M  V30 11141 N 1034.67 -1.14067 1.0875 0
M  V30 11142 C 1035.92 -1.84819 0.817698 0
M  V30 11143 C 1036.24 -1.83545 -0.658488 0
M  V30 11144 O 1035.51 -1.28633 -1.47751 0
M  V30 11145 H 1034.09 -0.68433 0.299502 0
M  V30 11146 H 1036.75 -1.38208 1.37421 0
M  V30 11147 H 1035.85 -2.89541 1.16501 0
M  V30 11148 N 1036.15 -0.873678 -1.31166 0
M  V30 11149 C 1037.4 -0.482577 -1.95842 0
M  V30 11150 C 1037.71 0.970881 -1.69804 0
M  V30 11151 O 1038.92 1.4683 -2.28371 0
M  V30 11152 C 1037.37 -0.812074 -3.50619 0
M  V30 11153 C 1036.98 -2.28254 -3.85492 0
M  V30 11154 C 1038.72 -0.489624 -4.21667 0
M  V30 11155 C 1036.63 -2.55426 -5.33396 0
M  V30 11156 H 1035.56 -0.176736 -0.732994 0
M  V30 11157 H 1038.21 -1.06709 -1.49283 0
M  V30 11158 H 1036.59 -0.156769 -3.9569 0
M  V30 11159 H 1037.77 -2.98122 -3.51369 0
M  V30 11160 H 1036.08 -2.5714 -3.27518 0
M  V30 11161 H 1038.68 -0.669811 -5.30488 0
M  V30 11162 H 1039.02 0.570204 -4.12376 0
M  V30 11163 H 1039.56 -1.10163 -3.82242 0
M  V30 11164 H 1036.3 -3.60106 -5.47726 0
M  V30 11165 H 1035.82 -1.90156 -5.68859 0
M  V30 11166 H 1037.49 -2.40345 -6.00702 0
M  V30 11167 N 1037.63 1.44308 -0.633487 0
M  V30 11168 C 1039.04 1.56768 -0.29931 0
M  V30 11169 C 1039.24 1.62061 1.19743 0
M  V30 11170 O 1038.3 1.56492 1.98158 0
M  V30 11171 C 1039.61 2.8382 -0.993307 0
M  V30 11172 C 1041.16 2.97536 -0.971674 0
M  V30 11173 C 1041.63 4.27393 -1.64618 0
M  V30 11174 N 1043.13 4.34212 -1.61288 0
M  V30 11175 C 1043.86 5.33415 -2.1037 0
M  V30 11176 N 1043.36 6.3901 -2.67653 0
M  V30 11177 N 1045.15 5.24939 -2.00985 0
M  V30 11178 H 1037.3 1.39115 -1.60501 0
M  V30 11179 H 1039.56 0.666804 -0.673852 0
M  V30 11180 H 1039.27 2.85902 -2.04823 0
M  V30 11181 H 1039.14 3.73422 -0.532537 0
M  V30 11182 H 1041.53 2.95005 0.0747854 0
M  V30 11183 H 1041.61 2.09276 -1.47096 0
M  V30 11184 H 1041.26 4.30683 -2.6921 0
M  V30 11185 H 1041.19 5.14515 -1.12171 0
M  V30 11186 H 1043.68 3.58519 -1.19468 0
M  V30 11187 H 1043.99 7.10994 -3.02831 0
M  V30 11188 H 1042.33 6.39689 -2.71705 0
M  V30 11189 H 1045.53 4.41357 -1.55953 0
M  V30 11190 H 1045.7 6.02097 -2.39547 0
M  V30 11191 N 1039.1 0.374177 1.53094 0
M  V30 11192 C 1040.35 -0.213981 2.00562 0
M  V30 11193 C 1040.67 -1.4916 1.26533 0
M  V30 11194 O 1041.87 -2.15889 1.64634 0
M  V30 11195 C 1040.33 -0.431876 3.57299 0
M  V30 11196 C 1039.94 0.831615 4.40214 0
M  V30 11197 C 1041.68 -0.977222 4.13099 0
M  V30 11198 C 1039.59 0.582831 5.88521 0
M  V30 11199 H 1038.52 -0.0837386 0.749336 0
M  V30 11200 H 1041.17 0.494245 1.76719 0
M  V30 11201 H 1039.55 -1.20158 3.7733 0
M  V30 11202 H 1040.72 1.60477 4.31953 0
M  V30 11203 H 1039.04 1.30081 3.9556 0
M  V30 11204 H 1041.64 -1.17881 5.21544 0
M  V30 11205 H 1041.98 -1.94189 3.68234 0
M  V30 11206 H 1042.51 -0.267473 3.969 0
M  V30 11207 H 1039.25 1.51807 6.37679 0
M  V30 11208 H 1038.77 -0.151666 5.99608 0
M  V30 11209 H 1040.45 0.211604 6.46654 0
M  V30 11210 N 1040.58 -1.57259 0.103575 0
M  V30 11211 C 1041.82 -1.96539 -0.561398 0
M  V30 11212 C 1042.19 -0.984775 -1.64822 0
M  V30 11213 O 1043.39 -1.26638 -2.371 0
M  V30 11214 C 1041.66 -3.40229 -1.09447 0
M  V30 11215 S 1043.22 -4.01512 -1.77013 0
M  V30 11216 H 1040.04 -0.687061 -0.182944 0
M  V30 11217 H 1042.64 -1.94623 0.184993 0
M  V30 11218 H 1041.34 -4.09359 -0.292091 0
M  V30 11219 H 1040.87 -3.45762 -1.8765 0
M  V30 11220 H 1042.89 -3.91009 -3.05494 0
M  V30 11221 N 1042.06 0.170153 -1.56679 0
M  V30 11222 C 1043.48 0.521966 -1.50823 0
M  V30 11223 C 1043.68 1.84589 -0.808037 0
M  V30 11224 O 1042.73 2.49791 -0.368891 0
M  V30 11225 C 1044.05 0.553648 -2.95559 0
M  V30 11226 C 1045.59 0.640769 -3.06371 0
M  V30 11227 C 1046.07 0.703332 -4.52567 0
M  V30 11228 N 1047.56 0.76619 -4.56819 0
M  V30 11229 C 1048.29 0.835192 -5.67285 0
M  V30 11230 N 1047.79 0.864957 -6.87379 0
M  V30 11231 N 1049.58 0.874302 -5.55259 0
M  V30 11232 H 1041.73 -0.697952 -2.00605 0
M  V30 11233 H 1044 -0.251787 -0.913952 0
M  V30 11234 H 1043.7 -0.350498 -3.49949 0
M  V30 11235 H 1043.58 1.39973 -3.50268 0
M  V30 11236 H 1045.96 1.53534 -2.52015 0
M  V30 11237 H 1046.05 -0.232008 -2.54746 0
M  V30 11238 H 1045.69 -0.186986 -5.07556 0
M  V30 11239 H 1045.62 1.59227 -5.0195 0
M  V30 11240 H 1048.11 0.751424 -3.70354 0
M  V30 11241 H 1048.42 0.918814 -7.67318 0
M  V30 11242 H 1046.77 0.833215 -6.89987 0
M  V30 11243 H 1049.96 0.848057 -4.60354 0
M  V30 11244 H 1050.13 0.924615 -6.4137 0
M  V30 11245 N 1043.54 1.5137 0.438746 0
M  V30 11246 C 1044.49 1.72582 1.53245 0
M  V30 11247 C 1045.46 0.567488 1.56105 0
M  V30 11248 O 1046.64 0.80176 1.73137 0
M  V30 11249 C 1043.78 1.85551 2.90972 0
M  V30 11250 C 1042.89 3.13094 2.97652 0
M  V30 11251 C 1042.03 3.16666 4.26493 0
M  V30 11252 C 1041.07 4.38529 4.27035 0
M  V30 11253 N 1040.2 4.39659 5.47398 0
M  V30 11254 H 1045.04 2.65941 1.3446 0
M  V30 11255 H 1042.58 1.31801 0.653206 0
M  V30 11256 H 1044.54 1.91053 3.70884 0
M  V30 11257 H 1043.17 0.956025 3.08318 0
M  V30 11258 H 1042.22 3.16909 2.10412 0
M  V30 11259 H 1043.53 4.03009 2.93914 0
M  V30 11260 H 1042.69 3.21075 5.14777 0
M  V30 11261 H 1041.43 2.24637 4.32885 0
M  V30 11262 H 1040.43 4.34297 3.37144 0
M  V30 11263 H 1041.66 5.31821 4.22307 0
M  V30 11264 H 1039.6 3.50499 5.54514 0
M  V30 11265 H 1039.52 5.23382 5.45534 0
M  V30 11266 H 1040.79 4.48259 6.37718 0
M  V30 11267 N 1045.02 -0.694098 1.41492 0
M  V30 11268 C 1046.26 -1.45127 1.4065 0
M  V30 11269 C 1046.59 -1.94993 0.0170289 0
M  V30 11270 O 1045.86 -1.71799 -0.941372 0
M  V30 11271 H 1044.44 -0.538493 0.51772 0
M  V30 11272 H 1047.1 -0.821441 1.76744 0
M  V30 11273 H 1046.19 -2.31372 2.0946 0
M  V30 11274 N 1046.49 -1.27344 -0.928501 0
M  V30 11275 C 1047.74 -1.13635 -1.6761 0
M  V30 11276 C 1048.07 0.317957 -1.91884 0
M  V30 11277 O 1047.32 1.24904 -1.50657 0
M  V30 11278 C 1047.62 -1.86439 -3.04918 0
M  V30 11279 C 1047.29 -3.36298 -3.00358 0
M  V30 11280 C 1045.95 -3.77173 -2.98821 0
M  V30 11281 C 1048.3 -4.31921 -2.91708 0
M  V30 11282 C 1045.63 -5.12037 -2.86417 0
M  V30 11283 C 1047.98 -5.66841 -2.80846 0
M  V30 11284 C 1046.65 -6.07011 -2.77659 0
M  V30 11285 H 1045.92 -0.415821 -0.61333 0
M  V30 11286 H 1048.56 -1.57943 -1.08288 0
M  V30 11287 H 1046.87 -1.34638 -3.6794 0
M  V30 11288 H 1048.57 -1.73261 -3.61637 0
M  V30 11289 H 1045.16 -3.0379 -3.0234 0
M  V30 11290 H 1049.34 -4.01314 -2.91994 0
M  V30 11291 H 1044.6 -5.42307 -2.82336 0
M  V30 11292 H 1048.77 -6.40608 -2.73119 0
M  V30 11293 H 1046.4 -7.11467 -2.67804 0
M  V30 11294 N 1047.97 1.13488 -1.09353 0
M  V30 11295 C 1049.38 1.66299 -0.848609 0
M  V30 11296 C 1049.73 1.86044 0.623051 0
M  V30 11297 O 1048.86 1.57871 1.48005 0
M  V30 11298 C 1049.45 3.02087 -1.53391 0
M  V30 11299 C 1048.01 3.51893 -1.33598 0
M  V30 11300 C 1047.16 2.27154 -1.59048 0
M  V30 11301 H 1050.11 0.974208 -1.25279 0
M  V30 11302 H 1050.13 3.68018 -0.966587 0
M  V30 11303 H 1049.64 2.87684 -2.60498 0
M  V30 11304 H 1047.75 3.715 -0.286045 0
M  V30 11305 H 1047.86 4.32059 -2.0703 0
M  V30 11306 H 1046.22 2.33708 -1.01256 0
M  V30 11307 H 1047.01 2.15317 -2.67383 0
M  V30 11308 N 1049.45 0.880621 1.30701 0
M  V30 11309 C 1050.4 0.333562 2.30196 0
M  V30 11310 C 1051.39 -0.557092 1.59978 0
M  V30 11311 O 1052.6 -0.442009 1.74489 0
M  V30 11312 H 1048.97 0.0892036 0.746691 0
M  V30 11313 H 1050.95 1.18644 2.73799 0
M  V30 11314 C 1049.69 -0.440731 3.44895 0
M  V30 11315 H 1049.02 0.235353 3.99107 0
M  V30 11316 H 1050.46 -0.788676 4.166 0
M  V30 11317 C 1048.92 -1.63613 2.94504 0
M  V30 11318 O 1049.45 -2.73549 2.94166 0
M  V30 11319 N 1047.65 -1.47183 2.5057 0
M  V30 11320 H 1047.2 -0.577479 2.51044 0
M  V30 11321 H 1047.16 -2.27303 2.17211 0
M  V30 11322 N 1050.93 -1.4397 0.641131 0
M  V30 11323 C 1052.35 -1.56607 0.30762 0
M  V30 11324 C 1052.55 -1.62694 -1.18882 0
M  V30 11325 O 1051.6 -1.57541 -1.97325 0
M  V30 11326 C 1052.91 -2.83289 1.00834 0
M  V30 11327 C 1054.46 -2.97016 0.98744 0
M  V30 11328 C 1054.94 -4.26514 1.66882 0
M  V30 11329 N 1056.43 -4.33351 1.63589 0
M  V30 11330 C 1057.16 -5.32292 2.13196 0
M  V30 11331 N 1056.66 -6.37582 2.71038 0
M  V30 11332 N 1058.45 -5.23866 2.03766 0
M  V30 11333 H 1050.6 -1.38262 1.61237 0
M  V30 11334 H 1052.87 -0.663221 0.677378 0
M  V30 11335 H 1052.57 -2.84812 2.06337 0
M  V30 11336 H 1052.45 -3.73134 0.552333 0
M  V30 11337 H 1054.83 -2.95041 -0.0591395 0
M  V30 11338 H 1054.91 -2.08493 1.48203 0
M  V30 11339 H 1054.56 -4.2925 2.71491 0
M  V30 11340 H 1054.49 -5.13912 1.14898 0
M  V30 11341 H 1056.98 -3.5788 1.21368 0
M  V30 11342 H 1057.29 -7.09378 3.06597 0
M  V30 11343 H 1055.64 -6.38239 2.75093 0
M  V30 11344 H 1058.83 -4.40524 1.58291 0
M  V30 11345 H 1059 -6.00819 2.42737 0
M  V30 11346 N 1052.41 -0.382291 -1.52893 0
M  V30 11347 C 1053.66 0.203342 -2.00672 0
M  V30 11348 C 1053.97 1.48487 -1.27322 0
M  V30 11349 O 1055.18 2.15013 -1.65776 0
M  V30 11350 C 1053.63 0.412922 -3.57523 0
M  V30 11351 C 1053.24 -0.854949 -4.39767 0
M  V30 11352 C 1054.98 0.955301 -4.13611 0
M  V30 11353 C 1052.89 -0.614033 -5.88204 0
M  V30 11354 H 1051.82 0.0797635 -0.749769 0
M  V30 11355 H 1054.47 -0.50361 -1.76454 0
M  V30 11356 H 1052.85 1.18155 -3.77962 0
M  V30 11357 H 1054.03 -1.62765 -4.31096 0
M  V30 11358 H 1052.34 -1.32176 -3.94865 0
M  V30 11359 H 1054.94 1.15114 -5.22162 0
M  V30 11360 H 1055.28 1.92233 -3.69259 0
M  V30 11361 H 1055.82 0.24642 -3.97036 0
M  V30 11362 H 1052.55 -1.55187 -6.36865 0
M  V30 11363 H 1052.07 0.119865 -5.9968 0
M  V30 11364 H 1053.75 -0.245895 -6.46533 0
M  V30 11365 N 1053.89 1.57202 -0.111913 0
M  V30 11366 C 1054.82 2.17957 0.837683 0
M  V30 11367 C 1055.8 1.1176 1.28233 0
M  V30 11368 O 1056.98 1.39967 1.34621 0
M  V30 11369 C 1054.11 2.77333 2.09054 0
M  V30 11370 C 1053.07 3.8905 1.78393 0
M  V30 11371 C 1052.39 4.35203 3.10649 0
M  V30 11372 C 1053.69 5.11477 1.05775 0
M  V30 11373 H 1055.39 2.9756 0.331441 0
M  V30 11374 H 1052.93 1.43131 0.157979 0
M  V30 11375 H 1054.88 3.18492 2.75936 0
M  V30 11376 H 1053.61 1.95009 2.6199 0
M  V30 11377 H 1052.27 3.48456 1.13903 0
M  V30 11378 H 1051.92 3.49747 3.61506 0
M  V30 11379 H 1051.62 5.10534 2.9091 0
M  V30 11380 H 1053.14 4.79007 3.78661 0
M  V30 11381 H 1054.55 5.497 1.62798 0
M  V30 11382 H 1052.95 5.92346 0.961573 0
M  V30 11383 H 1054.02 4.84881 0.043297 0
M  V30 11384 N 1055.36 -0.161842 1.56767 0
M  V30 11385 C 1056.59 -0.890953 1.86402 0
M  V30 11386 C 1057 -1.75918 0.696373 0
M  V30 11387 O 1056.34 -1.80461 -0.343463 0
M  V30 11388 C 1056.41 -1.81079 3.10565 0
M  V30 11389 C 1056.07 -1.12121 4.43032 0
M  V30 11390 C 1057.07 -0.482152 5.17659 0
M  V30 11391 C 1054.75 -1.11514 4.89765 0
M  V30 11392 C 1056.75 0.153772 6.37214 0
M  V30 11393 C 1054.43 -0.4754 6.09248 0
M  V30 11394 C 1055.43 0.157944 6.82817 0
M  V30 11395 O 1055.12 0.787579 8.00033 0
M  V30 11396 H 1054.85 -0.26379 0.622407 0
M  V30 11397 H 1057.41 -0.163884 2.04745 0
M  V30 11398 H 1055.64 -2.57842 2.88192 0
M  V30 11399 H 1057.32 -2.41056 3.26568 0
M  V30 11400 H 1058.09 -0.478752 4.82631 0
M  V30 11401 H 1053.97 -1.59752 4.32435 0
M  V30 11402 H 1057.51 0.648716 6.94577 0
M  V30 11403 H 1053.41 -0.476416 6.43739 0
M  V30 11404 H 1054.18 0.687769 8.15605 0
M  V30 11405 N 1056.84 -1.516 -0.430713 0
M  V30 11406 C 1058.09 -1.64271 -1.17726 0
M  V30 11407 C 1058.41 -0.364406 -1.91565 0
M  V30 11408 O 1057.68 0.619991 -1.8583 0
M  V30 11409 H 1056.26 -0.605432 -0.437562 0
M  V30 11410 H 1058.92 -1.88557 -0.493166 0
M  V30 11411 H 1058.02 -2.47355 -1.90321 0
M  V30 11412 N 1058.32 0.686584 -1.41858 0
M  V30 11413 C 1059.6 1.44176 -1.32185 0
M  V30 11414 C 1059.98 2.11049 0.046362 0
M  V30 11415 O 1059.32 2.02365 1.06117 0
M  V30 11416 C 1059.53 2.45385 -2.48168 0
M  V30 11417 C 1060.88 3.10375 -2.89746 0
M  V30 11418 O 1061.91 2.55711 -2.47973 0
M  V30 11419 O 1060.77 4.09404 -3.62009 0
M  V30 11420 H 1057.86 0.642513 -0.520678 0
M  V30 11421 H 1060.41 0.716303 -1.53841 0
M  V30 11422 H 1059.18 1.94687 -3.3943 0
M  V30 11423 H 1058.8 3.25428 -2.28435 0
M  V30 11424 N 1059.8 1.27835 0.921735 0
M  V30 11425 C 1061.04 1.14523 1.67005 0
M  V30 11426 C 1061.37 -0.307776 1.92049 0
M  V30 11427 O 1060.63 -1.24103 1.51317 0
M  V30 11428 C 1060.93 1.88054 3.03925 0
M  V30 11429 C 1060.59 3.37886 2.9857 0
M  V30 11430 C 1059.25 3.78752 2.96817 0
M  V30 11431 C 1061.61 4.33462 2.89414 0
M  V30 11432 C 1058.93 5.13549 2.83698 0
M  V30 11433 C 1061.29 5.68322 2.77836 0
M  V30 11434 C 1059.95 6.08475 2.74436 0
M  V30 11435 H 1059.22 0.419068 0.611116 0
M  V30 11436 H 1061.87 1.58515 1.07449 0
M  V30 11437 H 1060.17 1.36587 3.67221 0
M  V30 11438 H 1061.87 1.75176 3.60714 0
M  V30 11439 H 1058.46 3.05389 3.00725 0
M  V30 11440 H 1062.64 4.02857 2.89862 0
M  V30 11441 H 1057.9 5.43796 2.79456 0
M  V30 11442 H 1062.07 6.42048 2.69717 0
M  V30 11443 H 1059.7 7.12877 2.64027 0
M  V30 11444 N 1061.28 -1.12907 1.09954 0
M  V30 11445 C 1062.69 -1.363 0.830326 0
M  V30 11446 C 1062.89 -1.93772 -0.552694 0
M  V30 11447 O 1061.95 -2.1607 -1.30652 0
M  V30 11448 C 1063.26 -2.30925 1.92598 0
M  V30 11449 C 1064.81 -2.44528 1.95385 0
M  V30 11450 C 1065.28 -3.42464 3.0411 0
M  V30 11451 N 1066.77 -3.50018 3.03384 0
M  V30 11452 C 1067.51 -4.25693 3.84152 0
M  V30 11453 N 1067.01 -5.04476 4.74843 0
M  V30 11454 N 1068.8 -4.21049 3.7239 0
M  V30 11455 H 1060.95 -0.739571 1.99108 0
M  V30 11456 H 1063.21 -0.387983 0.86497 0
M  V30 11457 H 1062.92 -1.95861 2.92115 0
M  V30 11458 H 1062.79 -3.30997 1.80889 0
M  V30 11459 H 1065.18 -2.78875 0.965037 0
M  V30 11460 H 1065.26 -1.44361 2.11172 0
M  V30 11461 H 1064.9 -3.08847 4.03207 0
M  V30 11462 H 1064.83 -4.42448 2.85565 0
M  V30 11463 H 1067.33 -2.93809 2.37665 0
M  V30 11464 H 1067.64 -5.59541 5.33042 0
M  V30 11465 H 1065.98 -5.0369 4.78875 0
M  V30 11466 H 1069.17 -3.5858 3.00895 0
M  V30 11467 H 1069.35 -4.79771 4.35572 0
M  V30 11468 N 1062.75 -0.88754 -1.30232 0
M  V30 11469 C 1063.69 -0.313488 -2.27046 0
M  V30 11470 C 1064.7 0.533383 -1.53814 0
M  V30 11471 O 1065.89 0.352516 -1.74984 0
M  V30 11472 C 1062.99 0.572674 -3.34026 0
M  V30 11473 C 1062.16 -0.245712 -4.36709 0
M  V30 11474 C 1061.22 0.57135 -5.23089 0
M  V30 11475 O 1060.25 -0.00685948 -5.692 0
M  V30 11476 N 1061.45 1.87994 -5.49216 0
M  V30 11477 H 1064.21 -1.14553 -2.76943 0
M  V30 11478 H 1061.77 -0.750785 -1.43439 0
M  V30 11479 H 1063.77 1.12539 -3.88738 0
M  V30 11480 H 1062.34 1.3054 -2.84039 0
M  V30 11481 H 1061.56 -0.979869 -3.81827 0
M  V30 11482 H 1062.84 -0.806618 -5.02366 0
M  V30 11483 H 1062.24 2.3726 -5.13541 0
M  V30 11484 H 1060.8 2.38005 -6.06792 0
M  V30 11485 N 1064.23 1.43628 -0.648757 0
M  V30 11486 C 1065.65 1.56442 -0.315921 0
M  V30 11487 C 1065.85 1.63322 1.18018 0
M  V30 11488 O 1064.9 1.58585 1.96487 0
M  V30 11489 C 1066.22 2.82751 -1.02335 0
M  V30 11490 C 1067.77 2.96488 -1.00318 0
M  V30 11491 C 1068.24 4.25623 -1.69142 0
M  V30 11492 N 1069.73 4.32477 -1.65885 0
M  V30 11493 C 1070.47 5.31154 -2.16016 0
M  V30 11494 N 1069.96 6.36135 -2.74415 0
M  V30 11495 N 1071.76 5.22778 -2.06541 0
M  V30 11496 H 1063.91 1.37405 -1.61968 0
M  V30 11497 H 1066.17 0.65962 -0.680886 0
M  V30 11498 H 1065.88 2.83714 -2.07844 0
M  V30 11499 H 1065.75 3.72836 -0.572114 0
M  V30 11500 H 1068.14 2.95068 0.0434919 0
M  V30 11501 H 1068.22 2.07704 -1.49307 0
M  V30 11502 H 1067.86 4.27804 -2.73763 0
M  V30 11503 H 1067.79 5.13296 -1.17622 0
M  V30 11504 H 1070.28 3.57232 -1.23264 0
M  V30 11505 H 1070.6 7.07743 -3.10355 0
M  V30 11506 H 1068.94 6.36771 -2.78474 0
M  V30 11507 H 1072.13 4.39678 -1.60625 0
M  V30 11508 H 1072.3 5.99523 -2.45919 0
M  V30 11509 N 1065.71 0.390394 1.52688 0
M  V30 11510 C 1066.94 -0.191207 2.05713 0
M  V30 11511 C 1067.35 -1.40973 1.26188 0
M  V30 11512 O 1066.69 -1.81202 0.301938 0
M  V30 11513 C 1066.75 -0.624794 3.54029 0
M  V30 11514 C 1066.42 0.480413 4.54468 0
M  V30 11515 C 1067.41 1.33816 5.02384 0
M  V30 11516 C 1065.1 0.647754 4.98106 0
M  V30 11517 C 1067.09 2.34836 5.92563 0
M  V30 11518 C 1064.78 1.66129 5.88085 0
M  V30 11519 C 1065.78 2.51001 6.35206 0
M  V30 11520 O 1065.47 3.50622 7.23408 0
M  V30 11521 H 1065.2 -0.032221 0.675232 0
M  V30 11522 H 1067.75 0.554431 1.97776 0
M  V30 11523 H 1065.98 -1.42243 3.59589 0
M  V30 11524 H 1067.67 -1.13219 3.8979 0
M  V30 11525 H 1068.44 1.22019 4.694 0
M  V30 11526 H 1064.32 -0.00314511 4.61 0
M  V30 11527 H 1067.86 3.01117 6.29265 0
M  V30 11528 H 1063.76 1.77964 6.20483 0
M  V30 11529 H 1064.53 3.46644 7.41472 0
M  V30 11530 N 1067.19 -1.57141 0.120249 0
M  V30 11531 C 1068.6 -1.5784 -0.236335 0
M  V30 11532 C 1068.8 -1.13304 -1.66626 0
M  V30 11533 O 1067.86 -0.821004 -2.3878 0
M  V30 11534 C 1069.17 -3.007 -0.00188211 0
M  V30 11535 C 1070.72 -3.12927 -0.0676838 0
M  V30 11536 C 1071.2 -4.57789 0.139092 0
M  V30 11537 N 1072.69 -4.63122 0.085104 0
M  V30 11538 C 1073.42 -5.72978 0.219983 0
M  V30 11539 N 1072.92 -6.91579 0.411102 0
M  V30 11540 N 1074.71 -5.61874 0.159469 0
M  V30 11541 H 1066.86 -1.84391 1.05422 0
M  V30 11542 H 1069.13 -0.852228 0.415225 0
M  V30 11543 H 1068.83 -3.37575 0.986718 0
M  V30 11544 H 1068.71 -3.70005 -0.733203 0
M  V30 11545 H 1071.09 -2.75909 -1.04681 0
M  V30 11546 H 1071.17 -2.46162 0.695538 0
M  V30 11547 H 1070.82 -4.95506 1.1152 0
M  V30 11548 H 1070.75 -5.22646 -0.644131 0
M  V30 11549 H 1073.24 -3.77854 -0.0590479 0
M  V30 11550 H 1073.55 -7.71149 0.504851 0
M  V30 11551 H 1071.9 -6.9356 0.447091 0
M  V30 11552 H 1075.09 -4.68099 0.0111131 0
M  V30 11553 H 1075.26 -6.47445 0.268028 0
M  V30 11554 N 1068.67 0.153526 -1.5685 0
M  V30 11555 C 1069.92 0.865628 -1.82181 0
M  V30 11556 C 1070.23 1.82629 -0.700434 0
M  V30 11557 O 1071.43 2.58206 -0.839155 0
M  V30 11558 C 1069.89 1.58993 -3.22877 0
M  V30 11559 C 1069.5 0.672006 -4.42931 0
M  V30 11560 C 1071.24 2.2892 -3.57486 0
M  V30 11561 C 1069.15 1.39755 -5.7465 0
M  V30 11562 H 1068.08 0.326993 -0.679406 0
M  V30 11563 H 1070.73 0.118403 -1.83118 0
M  V30 11564 H 1069.11 2.38255 -3.16308 0
M  V30 11565 H 1070.29 -0.0849226 -4.60722 0
M  V30 11566 H 1068.6 0.0814825 -4.1632 0
M  V30 11567 H 1071.2 2.8383 -4.5315 0
M  V30 11568 H 1071.54 3.05105 -2.83226 0
M  V30 11569 H 1072.07 1.56583 -3.65686 0
M  V30 11570 H 1068.81 0.677686 -6.51987 0
M  V30 11571 H 1068.33 2.12736 -5.60806 0
M  V30 11572 H 1070.01 1.94024 -6.17223 0
M  V30 11573 N 1070.14 1.51827 0.422667 0
M  V30 11574 C 1071.07 1.77152 1.52117 0
M  V30 11575 C 1072.06 0.621895 1.58324 0
M  V30 11576 O 1073.24 0.866118 1.73816 0
M  V30 11577 C 1070.37 1.90991 2.90068 0
M  V30 11578 C 1069.32 3.06516 2.98717 0
M  V30 11579 C 1068.65 3.05559 4.38791 0
M  V30 11580 C 1069.95 4.46223 2.71445 0
M  V30 11581 H 1071.64 2.69135 1.31175 0
M  V30 11582 H 1069.19 1.29507 0.629607 0
M  V30 11583 H 1071.14 2.07291 3.6689 0
M  V30 11584 H 1069.87 0.956688 3.12274 0
M  V30 11585 H 1068.53 2.89945 2.24338 0
M  V30 11586 H 1068.17 2.07985 4.57986 0
M  V30 11587 H 1067.87 3.83144 4.45505 0
M  V30 11588 H 1069.4 3.23971 5.17566 0
M  V30 11589 H 1070.81 4.63069 3.37994 0
M  V30 11590 H 1069.21 5.25623 2.89552 0
M  V30 11591 H 1070.28 4.5525 1.6696 0
M  V30 11592 N 1071.62 -0.679052 1.4222 0
M  V30 11593 C 1072.57 -1.81398 1.45594 0
M  V30 11594 C 1073.56 -1.66112 0.332127 0
M  V30 11595 O 1074.77 -1.72772 0.504942 0
M  V30 11596 H 1071.15 -0.598045 0.455902 0
M  V30 11597 H 1073.12 -1.7567 2.41211 0
M  V30 11598 C 1071.87 -3.19525 1.37109 0
M  V30 11599 H 1071.19 -3.31912 2.22878 0
M  V30 11600 H 1072.63 -3.98967 1.43531 0
M  V30 11601 C 1071.09 -3.36792 0.0853593 0
M  V30 11602 O 1071.62 -3.92309 -0.863532 0
M  V30 11603 N 1069.82 -2.906 0.00389229 0
M  V30 11604 H 1069.37 -2.45607 0.776846 0
M  V30 11605 H 1069.33 -3.0253 -0.855742 0
M  V30 11606 N 1073.1 -1.28322 -0.914942 0
M  V30 11607 C 1074.51 -1.13937 -1.47903 0
M  V30 11608 C 1074.86 0.271072 -1.94318 0
M  V30 11609 O 1073.99 1.16522 -1.8235 0
M  V30 11610 C 1074.58 -2.06221 -2.68809 0
M  V30 11611 C 1073.14 -1.95903 -3.21402 0
M  V30 11612 C 1072.29 -1.98031 -1.94111 0
M  V30 11613 H 1075.24 -1.41029 -0.727772 0
M  V30 11614 H 1075.26 -1.6255 -3.44031 0
M  V30 11615 H 1074.77 -3.08866 -2.34997 0
M  V30 11616 H 1072.87 -0.962907 -3.59943 0
M  V30 11617 H 1072.99 -2.82799 -3.86732 0
M  V30 11618 H 1071.35 -1.42423 -2.11158 0
M  V30 11619 H 1072.13 -3.02354 -1.62595 0
M  V30 11620 N 1074.58 1.12322 -1.10551 0
M  V30 11621 C 1075.54 2.16273 -0.758844 0
M  V30 11622 C 1076.54 1.59325 0.217294 0
M  V30 11623 O 1077.73 1.74199 -0.00601346 0
M  V30 11624 C 1074.86 3.40674 -0.124238 0
M  V30 11625 H 1076.06 2.48454 -1.6796 0
M  V30 11626 H 1073.61 1.2735 -0.906188 0
M  V30 11627 H 1074.34 3.14094 0.807194 0
M  V30 11628 H 1074.13 3.83284 -0.826772 0
M  V30 11629 H 1075.62 4.17474 0.102502 0
M  V30 11630 N 1076.06 0.894434 1.2976 0
M  V30 11631 C 1077.02 0.373094 2.26143 0
M  V30 11632 C 1078.02 -0.489756 1.5316 0
M  V30 11633 O 1079.21 -0.29556 1.71674 0
M  V30 11634 C 1076.34 -0.467234 3.37683 0
M  V30 11635 H 1077.53 1.22427 2.73773 0
M  V30 11636 H 1075.09 0.672112 1.41111 0
M  V30 11637 H 1075.82 -1.33861 2.95384 0
M  V30 11638 H 1075.61 0.150954 3.91809 0
M  V30 11639 H 1077.1 -0.823469 4.094 0
M  V30 11640 N 1077.53 -1.43282 0.656365 0
M  V30 11641 C 1078.78 -2.00996 0.168354 0
M  V30 11642 C 1079.1 -1.52408 -1.22601 0
M  V30 11643 O 1080.3 -2.02417 -1.80941 0
M  V30 11644 C 1078.76 -3.5903 0.250161 0
M  V30 11645 C 1078.37 -4.1661 1.64742 0
M  V30 11646 C 1080.11 -4.24118 -0.180084 0
M  V30 11647 C 1078.02 -5.66948 1.68299 0
M  V30 11648 H 1076.95 -0.751674 0.0591769 0
M  V30 11649 H 1079.6 -1.64216 0.818859 0
M  V30 11650 H 1077.98 -3.93226 -0.467908 0
M  V30 11651 H 1079.15 -3.93908 2.3911 0
M  V30 11652 H 1077.47 -3.63905 2.02391 0
M  V30 11653 H 1080.07 -5.34419 -0.173401 0
M  V30 11654 H 1080.41 -3.98264 -1.21208 0
M  V30 11655 H 1080.94 -3.94816 0.486343 0
M  V30 11656 H 1077.68 -5.97573 2.69419 0
M  V30 11657 H 1077.2 -5.91697 0.98261 0
M  V30 11658 H 1078.88 -6.31041 1.42813 0
M  V30 11659 N 1079.01 -0.398486 -1.52479 0
M  V30 11660 C 1080.42 0.0735015 -1.86555 0
M  V30 11661 C 1080.78 1.45361 -1.31775 0
M  V30 11662 O 1079.9 2.0632 -0.652759 0
M  V30 11663 C 1080.5 0.140152 -3.3851 0
M  V30 11664 C 1079.05 0.556451 -3.72264 0
M  V30 11665 C 1078.2 -0.275792 -2.75925 0
M  V30 11666 H 1081.15 -0.615991 -1.46257 0
M  V30 11667 H 1081.17 0.957507 -3.68255 0
M  V30 11668 H 1080.69 -0.864442 -3.7835 0
M  V30 11669 H 1078.79 1.56808 -3.37997 0
M  V30 11670 H 1078.9 0.308227 -4.78107 0
M  V30 11671 H 1077.26 0.260304 -2.53366 0
M  V30 11672 H 1078.05 -1.27854 -3.18604 0
M  V30 11673 N 1080.49 1.57075 -0.12858 0
M  V30 11674 C 1081.4 2.19369 0.831533 0
M  V30 11675 C 1082.42 1.17258 1.28555 0
M  V30 11676 O 1083.59 1.49766 1.34656 0
M  V30 11677 C 1080.66 2.78846 2.06024 0
M  V30 11678 C 1079.72 3.96024 1.65722 0
M  V30 11679 C 1078.95 4.52655 2.82735 0
M  V30 11680 O 1079.18 4.08175 3.98434 0
M  V30 11681 O 1078.11 5.43198 2.59268 0
M  V30 11682 H 1081.94 3.01887 0.331352 0
M  V30 11683 H 1079.52 1.49081 0.0975226 0
M  V30 11684 H 1081.4 3.16721 2.77967 0
M  V30 11685 H 1080.08 1.99353 2.5503 0
M  V30 11686 H 1078.98 3.62899 0.908574 0
M  V30 11687 H 1080.32 4.76981 1.21449 0
M  V30 11688 N 1081.97 -0.145205 1.5693 0
M  V30 11689 C 1083.22 -0.855822 1.83085 0
M  V30 11690 C 1083.54 -1.81625 0.709747 0
M  V30 11691 O 1082.81 -1.94052 -0.268456 0
M  V30 11692 H 1081.39 -0.319032 0.675446 0
M  V30 11693 H 1084.05 -0.138781 1.94405 0
M  V30 11694 H 1083.15 -1.41698 2.78079 0
M  V30 11695 N 1083.45 -1.52049 -0.414609 0
M  V30 11696 C 1084.38 -1.7122 -1.52369 0
M  V30 11697 C 1085.39 -0.592634 -1.5163 0
M  V30 11698 O 1086.58 -0.867634 -1.55995 0
M  V30 11699 C 1083.68 -1.73247 -2.91271 0
M  V30 11700 C 1082.85 -3.02153 -3.16263 0
M  V30 11701 C 1081.91 -2.96066 -4.35007 0
M  V30 11702 O 1080.94 -3.69981 -4.32554 0
M  V30 11703 N 1082.14 -2.13478 -5.39822 0
M  V30 11704 H 1084.91 -2.66902 -1.3632 0
M  V30 11705 H 1082.47 -1.50218 -0.603842 0
M  V30 11706 H 1084.46 -1.66714 -3.68766 0
M  V30 11707 H 1083.03 -0.85062 -3.00804 0
M  V30 11708 H 1082.25 -3.22379 -2.2686 0
M  V30 11709 H 1083.54 -3.87439 -3.29801 0
M  V30 11710 H 1082.94 -1.52844 -5.44661 0
M  V30 11711 H 1081.49 -2.12805 -6.16082 0
M  V30 11712 N 1084.93 0.6715 -1.42579 0
M  V30 11713 C 1086.17 1.43154 -1.43224 0
M  V30 11714 C 1086.5 1.94436 -0.0498695 0
M  V30 11715 O 1085.76 1.71521 0.942282 0
M  V30 11716 C 1086.05 2.64256 -2.40632 0
M  V30 11717 C 1085.72 2.31497 -3.86937 0
M  V30 11718 C 1084.38 2.22274 -4.26788 0
M  V30 11719 C 1086.73 2.04957 -4.7921 0
M  V30 11720 C 1084.06 1.84642 -5.56888 0
M  V30 11721 C 1086.41 1.68828 -6.09656 0
M  V30 11722 C 1085.08 1.58118 -6.48502 0
M  V30 11723 H 1084.35 0.523838 -0.524094 0
M  V30 11724 H 1087 0.765363 -1.7554 0
M  V30 11725 H 1085.3 3.35921 -2.01654 0
M  V30 11726 H 1087 3.22443 -2.38394 0
M  V30 11727 H 1083.59 2.39578 -3.55387 0
M  V30 11728 H 1087.77 2.11014 -4.49207 0
M  V30 11729 H 1083.03 1.74921 -5.85843 0
M  V30 11730 H 1087.2 1.47319 -6.8064 0
M  V30 11731 H 1084.83 1.28728 -7.49222 0
M  V30 11732 N 1086.4 1.28806 0.908124 0
M  V30 11733 C 1087.65 1.15663 1.65242 0
M  V30 11734 C 1087.97 -0.292883 1.93395 0
M  V30 11735 O 1089.17 -0.545509 2.65963 0
M  V30 11736 C 1087.63 2.02233 2.97707 0
M  V30 11737 C 1087.24 3.51958 2.77181 0
M  V30 11738 C 1088.98 1.97792 3.75604 0
M  V30 11739 C 1086.89 4.3066 4.05322 0
M  V30 11740 H 1085.82 0.42928 0.619867 0
M  V30 11741 H 1088.47 1.5338 1.00731 0
M  V30 11742 H 1086.85 1.57377 3.63385 0
M  V30 11743 H 1088.02 4.0481 2.20149 0
M  V30 11744 H 1086.34 3.57983 2.12691 0
M  V30 11745 H 1088.94 2.53858 4.70596 0
M  V30 11746 H 1089.28 0.955956 4.05175 0
M  V30 11747 H 1089.81 2.40648 3.16755 0
M  V30 11748 H 1086.55 5.3346 3.8092 0
M  V30 11749 H 1086.07 3.8258 4.61944 0
M  V30 11750 H 1087.75 4.40878 4.73535 0
M  V30 11751 N 1087.88 -1.11734 1.11145 0
M  V30 11752 C 1089.16 -1.79795 0.770261 0
M  V30 11753 C 1089.54 -1.97624 -0.742158 0
M  V30 11754 O 1088.89 -1.55847 -1.67105 0
M  V30 11755 C 1089.1 -3.13684 1.52982 0
M  V30 11756 C 1090.44 -3.88771 1.70711 0
M  V30 11757 O 1091.47 -3.23363 1.49381 0
M  V30 11758 O 1090.33 -5.06134 2.06132 0
M  V30 11759 H 1087.42 -0.778617 0.27872 0
M  V30 11760 H 1089.97 -1.18504 1.2147 0
M  V30 11761 H 1088.74 -2.96043 2.55879 0
M  V30 11762 H 1088.36 -3.82687 1.07873 0
M  V30 11763 N 1089.36 -0.901303 -1.29284 0
M  V30 11764 C 1090.58 -0.542823 -2.0017 0
M  V30 11765 C 1091.01 0.865583 -1.67001 0
M  V30 11766 O 1090.37 1.5764 -0.895502 0
M  V30 11767 C 1090.42 -0.743987 -3.52842 0
M  V30 11768 O 1089.52 0.202771 -4.11901 0
M  V30 11769 H 1088.86 -0.211903 -0.62928 0
M  V30 11770 H 1091.39 -1.21333 -1.64741 0
M  V30 11771 H 1091.4 -0.64926 -4.02801 0
M  V30 11772 H 1090.08 -1.77077 -3.7632 0
M  V30 11773 H 1088.65 0.0603637 -3.72851 0
M  V30 11774 N 1090.84 1.42931 -0.663954 0
M  V30 11775 C 1092.25 1.56098 -0.332496 0
M  V30 11776 C 1092.45 1.64564 1.16279 0
M  V30 11777 O 1091.51 1.6066 1.94794 0
M  V30 11778 C 1092.82 2.81649 -1.05329 0
M  V30 11779 C 1094.37 2.95408 -1.03457 0
M  V30 11780 C 1094.85 4.23805 -1.73647 0
M  V30 11781 N 1096.34 4.30693 -1.70462 0
M  V30 11782 C 1097.07 5.28833 -2.21637 0
M  V30 11783 N 1096.57 6.33189 -2.81147 0
M  V30 11784 N 1098.36 5.20558 -2.12075 0
M  V30 11785 H 1090.51 1.3568 -1.63416 0
M  V30 11786 H 1092.77 0.652361 -0.687844 0
M  V30 11787 H 1092.48 2.81494 -2.10842 0
M  V30 11788 H 1092.35 3.72208 -0.611626 0
M  V30 11789 H 1094.74 2.95097 0.0121936 0
M  V30 11790 H 1094.82 2.06109 -1.51502 0
M  V30 11791 H 1094.47 4.24876 -2.78285 0
M  V30 11792 H 1094.4 5.12019 -1.2306 0
M  V30 11793 H 1096.89 3.55904 -1.27046 0
M  V30 11794 H 1097.2 7.04411 -3.17844 0
M  V30 11795 H 1095.55 6.33781 -2.85212 0
M  V30 11796 H 1098.74 4.3795 -1.6528 0
M  V30 11797 H 1098.91 5.96881 -2.52264 0
M  V30 11798 N 1092.32 0.406567 1.52266 0
M  V30 11799 C 1093.26 -0.420182 2.26943 0
M  V30 11800 C 1094.23 -1.04323 1.29251 0
M  V30 11801 O 1095.42 -1.06799 1.5811 0
M  V30 11802 C 1092.56 -1.5323 3.09216 0
M  V30 11803 C 1091.67 -0.930419 4.21862 0
M  V30 11804 C 1090.81 -2.01502 4.91498 0
M  V30 11805 C 1089.84 -1.38994 5.9611 0
M  V30 11806 N 1088.98 -2.41458 6.59274 0
M  V30 11807 H 1093.82 0.223066 2.97164 0
M  V30 11808 H 1091.36 0.121842 1.46595 0
M  V30 11809 H 1093.32 -2.18803 3.5522 0
M  V30 11810 H 1091.95 -2.14561 2.41171 0
M  V30 11811 H 1091 -0.163809 3.80047 0
M  V30 11812 H 1092.31 -0.433785 4.9691 0
M  V30 11813 H 1091.46 -2.74807 5.40894 0
M  V30 11814 H 1090.2 -2.5453 4.16012 0
M  V30 11815 H 1089.21 -0.642213 5.46036 0
M  V30 11816 H 1090.43 -0.867386 6.73538 0
M  V30 11817 H 1088.38 -2.93623 5.86619 0
M  V30 11818 H 1088.3 -1.96599 7.2999 0
M  V30 11819 H 1089.56 -3.14341 7.13309 0
M  V30 11820 N 1093.79 -1.57004 0.136909 0
M  V30 11821 C 1095.04 -1.9541 -0.51569 0
M  V30 11822 C 1095.36 -1.02219 -1.66061 0
M  V30 11823 O 1094.63 -0.0818172 -1.95729 0
M  V30 11824 H 1093.21 -0.721504 -0.193497 0
M  V30 11825 H 1095.88 -1.93765 0.210046 0
M  V30 11826 H 1094.97 -2.98887 -0.898494 0
M  V30 11827 N 1095.27 0.136881 -1.57004 0
M  V30 11828 C 1096.24 1.15267 -1.98106 0
M  V30 11829 C 1097.24 1.35305 -0.868856 0
M  V30 11830 O 1098.43 1.32126 -1.13527 0
M  V30 11831 C 1095.56 2.51092 -2.30577 0
M  V30 11832 H 1096.75 0.799821 -2.89038 0
M  V30 11833 H 1094.3 0.380576 -1.51596 0
M  V30 11834 H 1095.04 2.9133 -1.42469 0
M  V30 11835 H 1094.82 2.37906 -3.11678 0
M  V30 11836 H 1096.31 3.24232 -2.63179 0
M  V30 11837 N 1096.75 1.52266 0.40654 0
M  V30 11838 C 1097.66 1.78688 1.52012 0
M  V30 11839 C 1098.68 0.6726 1.60475 0
M  V30 11840 O 1099.85 0.95829 1.77141 0
M  V30 11841 C 1096.92 1.93434 2.87722 0
M  V30 11842 C 1095.98 3.17341 2.89125 0
M  V30 11843 C 1095.21 3.31374 4.18362 0
M  V30 11844 O 1095.43 2.50613 5.12396 0
M  V30 11845 O 1094.37 4.24539 4.26674 0
M  V30 11846 H 1098.19 2.73213 1.3262 0
M  V30 11847 H 1095.78 1.37142 0.592653 0
M  V30 11848 H 1097.66 2.04941 3.68208 0
M  V30 11849 H 1096.34 1.02099 3.07177 0
M  V30 11850 H 1095.24 3.1129 2.07483 0
M  V30 11851 H 1096.58 4.08466 2.7462 0
M  V30 11852 N 1098.23 -0.663929 1.42933 0
M  V30 11853 C 1099.18 -1.77717 1.47259 0
M  V30 11854 C 1100.15 -1.62922 0.323387 0
M  V30 11855 O 1101.33 -1.83319 0.529021 0
M  V30 11856 C 1098.47 -3.15814 1.39124 0
M  V30 11857 C 1097.58 -3.4182 2.64165 0
M  V30 11858 C 1096.72 -4.69705 2.48094 0
M  V30 11859 C 1095.76 -4.88781 3.68456 0
M  V30 11860 N 1094.89 -6.07915 3.51261 0
M  V30 11861 H 1099.73 -1.73355 2.42388 0
M  V30 11862 H 1097.27 -0.846121 1.2033 0
M  V30 11863 H 1099.23 -3.95633 1.32403 0
M  V30 11864 H 1097.86 -3.19274 0.475829 0
M  V30 11865 H 1096.91 -2.56176 2.81208 0
M  V30 11866 H 1098.22 -3.51805 3.53602 0
M  V30 11867 H 1097.38 -5.57632 2.39021 0
M  V30 11868 H 1096.12 -4.62022 1.56164 0
M  V30 11869 H 1095.12 -3.99292 3.7795 0
M  V30 11870 H 1096.35 -4.98301 4.61381 0
M  V30 11871 H 1094.29 -6.01384 2.62057 0
M  V30 11872 H 1094.21 -6.1881 4.34293 0
M  V30 11873 H 1095.48 -6.98492 3.4602 0
M  V30 11874 N 1099.71 -1.29285 -0.901281 0
M  V30 11875 C 1100.64 -1.16832 -2.0217 0
M  V30 11876 C 1101.62 -0.0629265 -1.69984 0
M  V30 11877 O 1102.8 -0.242123 -1.92685 0
M  V30 11878 C 1099.93 -0.842406 -3.36929 0
M  V30 11879 C 1098.89 -1.90394 -3.8332 0
M  V30 11880 C 1098.21 -1.43138 -5.15185 0
M  V30 11881 C 1099.51 -3.31254 -4.03817 0
M  V30 11882 H 1101.21 -2.10562 -2.12847 0
M  V30 11883 H 1098.75 -1.01375 -1.0227 0
M  V30 11884 H 1100.71 -0.741999 -4.14816 0
M  V30 11885 H 1099.43 0.130598 -3.26339 0
M  V30 11886 H 1098.09 -1.99371 -3.07647 0
M  V30 11887 H 1097.74 -0.447091 -5.01009 0
M  V30 11888 H 1097.44 -2.14129 -5.47195 0
M  V30 11889 H 1098.96 -1.34444 -5.95615 0
M  V30 11890 H 1100.37 -3.25129 -4.72191 0
M  V30 11891 H 1098.77 -4.00189 -4.47178 0
M  V30 11892 H 1099.84 -3.74349 -3.08206 0
M  V30 11893 N 1101.18 1.11143 -1.11736 0
M  V30 11894 C 1102.11 2.19339 -0.800795 0
M  V30 11895 C 1103.1 1.68508 0.23221 0
M  V30 11896 O 1104.28 1.93967 0.0950063 0
M  V30 11897 C 1101.41 3.46424 -0.246579 0
M  V30 11898 C 1100.36 4.10487 -1.21181 0
M  V30 11899 C 1099.69 5.32183 -0.518158 0
M  V30 11900 C 1100.99 4.55052 -2.56368 0
M  V30 11901 H 1102.68 2.46077 -1.70548 0
M  V30 11902 H 1100.23 1.18271 -0.821454 0
M  V30 11903 H 1102.18 4.21398 -0.0128889 0
M  V30 11904 H 1100.91 3.19154 0.693415 0
M  V30 11905 H 1099.57 3.3751 -1.43118 0
M  V30 11906 H 1099.21 5.01187 0.426742 0
M  V30 11907 H 1098.91 5.75997 -1.16196 0
M  V30 11908 H 1100.44 6.09895 -0.293333 0
M  V30 11909 H 1101.85 5.21335 -2.38501 0
M  V30 11910 H 1100.25 5.0969 -3.16758 0
M  V30 11911 H 1101.32 3.68343 -3.1536 0
M  V30 11912 N 1102.66 0.908147 1.28804 0
M  V30 11913 C 1103.89 0.553431 1.9988 0
M  V30 11914 C 1104.31 -0.856714 1.67458 0
M  V30 11915 O 1103.67 -1.57163 0.903849 0
M  V30 11916 C 1103.72 0.762688 3.52442 0
M  V30 11917 O 1102.82 -0.180924 4.12003 0
M  V30 11918 H 1102.16 0.215237 0.628147 0
M  V30 11919 H 1104.69 1.22205 1.64095 0
M  V30 11920 H 1104.7 0.670612 4.02451 0
M  V30 11921 H 1103.38 1.79071 3.75375 0
M  V30 11922 H 1101.96 -0.0405897 3.72878 0
M  V30 11923 N 1104.14 -1.42577 0.671525 0
M  V30 11924 C 1105.37 -2.06442 0.199152 0
M  V30 11925 C 1105.79 -1.50104 -1.1336 0
M  V30 11926 O 1105.15 -0.618211 -1.70434 0
M  V30 11927 C 1105.2 -3.60323 0.141215 0
M  V30 11928 O 1104.3 -4.02655 -0.891238 0
M  V30 11929 H 1103.64 -0.655919 0.103277 0
M  V30 11930 H 1106.17 -1.82768 0.919614 0
M  V30 11931 H 1106.18 -4.07984 -0.0360209 0
M  V30 11932 H 1104.86 -4.00702 1.11403 0
M  V30 11933 H 1103.43 -3.66549 -0.685309 0
M  V30 11934 N 1105.62 -0.414636 -1.52048 0
M  V30 11935 C 1106.55 0.399119 -2.30064 0
M  V30 11936 C 1107.53 1.04126 -1.34506 0
M  V30 11937 O 1108.71 1.04923 -1.63416 0
M  V30 11938 C 1105.84 1.51305 -3.12608 0
M  V30 11939 C 1104.8 0.995621 -4.16259 0
M  V30 11940 C 1104.12 2.20357 -4.87183 0
M  V30 11941 C 1105.42 0.0458178 -5.2228 0
M  V30 11942 H 1107.12 -0.251879 -2.98339 0
M  V30 11943 H 1104.66 -0.122579 -1.43477 0
M  V30 11944 H 1106.62 2.08936 -3.65956 0
M  V30 11945 H 1105.34 2.19201 -2.42113 0
M  V30 11946 H 1104 0.441676 -3.6393 0
M  V30 11947 H 1103.65 2.8682 -4.13211 0
M  V30 11948 H 1103.35 1.86385 -5.57256 0
M  V30 11949 H 1104.87 2.78584 -5.43345 0
M  V30 11950 H 1106.29 0.531102 -5.70835 0
M  V30 11951 H 1104.68 -0.20536 -5.99749 0
M  V30 11952 H 1105.75 -0.897807 -4.76516 0
M  V30 11953 N 1107.1 1.56929 -0.145233 0
M  V30 11954 C 1108.37 1.8767 0.551288 0
M  V30 11955 C 1108.75 1.05089 1.83083 0
M  V30 11956 O 1108.1 0.137201 2.28088 0
M  V30 11957 C 1108.31 3.39268 0.818445 0
M  V30 11958 C 1109.66 4.08447 1.16 0
M  V30 11959 O 1110.68 3.44436 0.907857 0
M  V30 11960 O 1109.54 5.21488 1.63441 0
M  V30 11961 H 1106.64 0.777788 0.281024 0
M  V30 11962 H 1109.18 1.68724 -0.181712 0
M  V30 11963 H 1107.95 3.91203 -0.0871897 0
M  V30 11964 H 1107.58 3.63735 1.60569 0
M  V30 11965 N 1108.58 -0.128553 1.57075 0
M  V30 11966 C 1109.82 -0.836536 1.83535 0
M  V30 11967 C 1110.14 -1.81491 0.7294 0
M  V30 11968 O 1111.34 -2.56838 0.880128 0
M  V30 11969 C 1109.8 -1.53836 3.25365 0
M  V30 11970 C 1109.41 -0.601454 4.43944 0
M  V30 11971 C 1111.15 -2.23204 3.61082 0
M  V30 11972 C 1109.06 -1.30596 5.768 0
M  V30 11973 H 1107.99 -0.316142 0.684522 0
M  V30 11974 H 1110.64 -0.0892555 1.83283 0
M  V30 11975 H 1109.02 -2.33192 3.20058 0
M  V30 11976 H 1110.2 0.158209 4.60528 0
M  V30 11977 H 1108.51 -0.0152393 4.16397 0
M  V30 11978 H 1111.11 -2.76585 4.57608 0
M  V30 11979 H 1111.45 -3.0056 2.88044 0
M  V30 11980 H 1111.98 -1.50746 3.68131 0
M  V30 11981 H 1108.72 -0.573874 6.52983 0
M  V30 11982 H 1108.24 -2.03787 5.6412 0
M  V30 11983 H 1109.92 -1.8418 6.20231 0
M  V30 11984 N 1110.05 -1.5248 -0.398459 0
M  V30 11985 C 1111.33 -1.57634 -1.15805 0
M  V30 11986 C 1111.71 -0.363785 -2.07942 0
M  V30 11987 O 1111.06 0.648598 -2.19101 0
M  V30 11988 C 1111.27 -2.91042 -1.92602 0
M  V30 11989 C 1112.62 -3.44433 -2.48296 0
M  V30 11990 O 1113.64 -2.92853 -2.0277 0
M  V30 11991 O 1112.5 -4.34529 -3.31432 0
M  V30 11992 H 1109.59 -0.63539 -0.529347 0
M  V30 11993 H 1112.14 -1.64812 -0.404376 0
M  V30 11994 H 1110.91 -3.7074 -1.25169 0
M  V30 11995 H 1110.53 -2.87206 -2.74952 0
M  V30 11996 N 1111.53 0.65634 -1.43283 0
M  V30 11997 C 1112.48 1.76243 -1.44646 0
M  V30 11998 C 1113.47 1.5778 -0.31532 0
M  V30 11999 O 1114.66 1.67945 -0.558881 0
M  V30 12000 C 1111.79 3.14813 -1.36921 0
M  V30 12001 C 1110.87 3.38835 -2.55053 0
M  V30 12002 N 1111.26 3.33345 -3.80414 0
M  V30 12003 C 1109.56 3.69542 -2.4971 0
M  V30 12004 C 1110.26 3.57361 -4.58986 0
M  V30 12005 N 1109.24 3.79022 -3.8967 0
M  V30 12006 H 1113.04 1.70419 -2.39447 0
M  V30 12007 H 1110.55 0.85789 -1.37891 0
M  V30 12008 H 1112.55 3.941 -1.3598 0
M  V30 12009 H 1111.21 3.21822 -0.431381 0
M  V30 12010 H 1112.22 3.12827 -4.12747 0
M  V30 12011 H 1108.9 3.83684 -1.64598 0
M  V30 12012 H 1110.29 3.58921 -5.68001 0
M  V30 12013 N 1113.01 1.29761 0.894412 0
M  V30 12014 C 1113.96 1.15232 2.0205 0
M  V30 12015 C 1114.95 0.0665664 1.69269 0
M  V30 12016 O 1116.16 0.226746 1.78566 0
M  V30 12017 H 1112.53 0.356102 0.662341 0
M  V30 12018 H 1114.5 2.10559 2.11442 0
M  V30 12019 C 1113.25 0.851143 3.37121 0
M  V30 12020 H 1112.58 1.67865 3.62852 0
M  V30 12021 H 1114.02 0.78954 4.16584 0
M  V30 12022 C 1112.47 -0.445737 3.33938 0
M  V30 12023 O 1113 -1.47017 3.7383 0
M  V30 12024 N 1111.21 -0.453493 2.8704 0
M  V30 12025 H 1110.76 0.380636 2.54772 0
M  V30 12026 H 1110.72 -1.32119 2.85293 0
M  V30 12027 N 1114.49 -1.10549 1.12324 0
M  V30 12028 C 1115.42 -2.16657 0.747826 0
M  V30 12029 C 1116.43 -1.61238 -0.224981 0
M  V30 12030 O 1117.62 -1.78499 -0.00649408 0
M  V30 12031 C 1114.72 -3.38791 0.0859421 0
M  V30 12032 C 1113.89 -4.23655 1.08792 0
M  V30 12033 C 1112.95 -5.24239 0.453871 0
M  V30 12034 O 1111.98 -5.58262 1.11052 0
M  V30 12035 N 1113.18 -5.75246 -0.779215 0
M  V30 12036 H 1115.95 -2.49472 1.66084 0
M  V30 12037 H 1113.51 -1.26157 1.01469 0
M  V30 12038 H 1115.5 -4.03182 -0.350186 0
M  V30 12039 H 1114.07 -3.03961 -0.729807 0
M  V30 12040 H 1113.29 -3.55578 1.70171 0
M  V30 12041 H 1114.58 -4.77187 1.76549 0
M  V30 12042 H 1113.98 -5.49802 -1.3317 0
M  V30 12043 H 1112.53 -6.41428 -1.15818 0
M  V30 12044 N 1115.97 -0.914965 -1.28321 0
M  V30 12045 C 1117.2 -0.563835 -1.98757 0
M  V30 12046 C 1117.6 0.859528 -1.68549 0
M  V30 12047 O 1116.95 1.58105 -0.935336 0
M  V30 12048 C 1117.01 -0.694539 -3.52727 0
M  V30 12049 C 1116.67 -2.08767 -4.06528 0
M  V30 12050 C 1117.67 -3.06052 -4.20272 0
M  V30 12051 C 1115.35 -2.40118 -4.4119 0
M  V30 12052 C 1117.35 -4.32803 -4.67932 0
M  V30 12053 C 1115.04 -3.67108 -4.88544 0
M  V30 12054 C 1116.03 -4.63265 -5.01871 0
M  V30 12055 O 1115.72 -5.87997 -5.48192 0
M  V30 12056 H 1115.45 -0.213557 -0.641381 0
M  V30 12057 H 1118.01 -1.23062 -1.64453 0
M  V30 12058 H 1116.24 0.0293186 -3.86689 0
M  V30 12059 H 1117.93 -0.350335 -4.04385 0
M  V30 12060 H 1118.69 -2.8315 -3.93765 0
M  V30 12061 H 1114.57 -1.66025 -4.30066 0
M  V30 12062 H 1118.12 -5.07861 -4.78249 0
M  V30 12063 H 1114.01 -3.89834 -5.14489 0
M  V30 12064 H 1114.78 -5.90804 -5.66474 0
M  V30 12065 N 1117.44 1.42219 -0.679077 0
M  V30 12066 C 1118.39 2.308 -0.00340316 0
M  V30 12067 C 1119.36 1.462 0.788334 0
M  V30 12068 O 1120.55 1.75023 0.759716 0
M  V30 12069 C 1117.69 3.32084 0.938854 0
M  V30 12070 C 1116.8 4.31772 0.140485 0
M  V30 12071 C 1115.93 5.20128 1.07888 0
M  V30 12072 C 1114.97 6.11493 0.27245 0
M  V30 12073 N 1114.11 6.92388 1.16378 0
M  V30 12074 H 1118.95 2.88024 -0.764587 0
M  V30 12075 H 1116.49 1.41869 -0.38878 0
M  V30 12076 H 1118.44 3.89339 1.49903 0
M  V30 12077 H 1117.07 2.76448 1.66662 0
M  V30 12078 H 1116.13 3.76599 -0.536376 0
M  V30 12079 H 1117.44 4.96432 -0.485433 0
M  V30 12080 H 1116.59 5.82137 1.70884 0
M  V30 12081 H 1115.33 4.55655 1.73868 0
M  V30 12082 H 1114.34 5.48549 -0.370693 0
M  V30 12083 H 1115.56 6.78017 -0.383315 0
M  V30 12084 H 1113.51 6.30538 1.8099 0
M  V30 12085 H 1113.42 7.5367 0.593043 0
M  V30 12086 H 1114.69 7.58879 1.78107 0
M  V30 12087 N 1118.92 0.422693 1.51826 0
M  V30 12088 C 1120.17 -0.148641 2.01954 0
M  V30 12089 C 1120.5 -1.43982 1.30765 0
M  V30 12090 O 1119.75 -1.91428 0.406668 0
M  V30 12091 C 1120.05 -0.429516 3.5481 0
M  V30 12092 C 1119.72 0.774088 4.44206 0
M  V30 12093 C 1118.38 1.1042 4.6836 0
M  V30 12094 C 1120.73 1.5777 4.96747 0
M  V30 12095 C 1118.06 2.23887 5.42302 0
M  V30 12096 C 1120.41 2.70325 5.71933 0
M  V30 12097 C 1119.07 3.03807 5.94355 0
M  V30 12098 H 1118.34 -0.0543917 0.739001 0
M  V30 12099 H 1120.99 0.566892 1.82917 0
M  V30 12100 H 1119.3 -1.22678 3.72099 0
M  V30 12101 H 1120.99 -0.884761 3.91118 0
M  V30 12102 H 1117.58 0.506834 4.25593 0
M  V30 12103 H 1121.77 1.33589 4.77983 0
M  V30 12104 H 1117.02 2.50159 5.5788 0
M  V30 12105 H 1121.2 3.32974 6.11638 0
M  V30 12106 H 1118.82 3.91844 6.51431 0
M  V30 12107 N 1120.4 -1.5685 0.153553 0
M  V30 12108 C 1121.65 -1.95946 -0.494936 0
M  V30 12109 C 1121.97 -1.03975 -1.64967 0
M  V30 12110 O 1121.24 -0.102572 -1.95631 0
M  V30 12111 H 1119.82 -0.723516 -0.185833 0
M  V30 12112 H 1122.48 -1.93531 0.230585 0
M  V30 12113 H 1121.58 -2.99823 -0.866743 0
M  V30 12114 N 1121.88 0.120221 -1.57141 0
M  V30 12115 C 1122.83 1.15332 -1.96679 0
M  V30 12116 C 1123.81 1.37134 -0.841607 0
M  V30 12117 O 1125 1.38247 -1.10529 0
M  V30 12118 C 1122.13 2.48021 -2.37361 0
M  V30 12119 C 1121.22 2.29699 -3.5651 0
M  V30 12120 N 1121.61 1.81186 -4.72234 0
M  V30 12121 C 1119.91 2.60359 -3.62118 0
M  V30 12122 C 1120.61 1.76542 -5.54263 0
M  V30 12123 N 1119.58 2.20843 -4.96719 0
M  V30 12124 H 1123.39 0.770763 -2.83613 0
M  V30 12125 H 1120.9 0.327979 -1.59054 0
M  V30 12126 H 1122.9 3.22739 -2.63903 0
M  V30 12127 H 1121.56 2.87036 -1.51791 0
M  V30 12128 H 1122.57 1.50751 -4.95474 0
M  V30 12129 H 1119.25 3.03067 -2.87152 0
M  V30 12130 H 1120.64 1.40298 -6.57089 0
M  V30 12131 N 1123.36 1.52689 0.390367 0
M  V30 12132 C 1124.58 1.71541 1.15678 0
M  V30 12133 C 1125 0.433171 1.83764 0
M  V30 12134 O 1124.36 -0.592248 1.72623 0
M  V30 12135 C 1124.41 2.864 2.20584 0
M  V30 12136 O 1124.13 4.0966 1.55274 0
M  V30 12137 C 1125.63 3.1692 3.09962 0
M  V30 12138 H 1122.85 0.574381 0.346883 0
M  V30 12139 H 1125.39 1.99332 0.456851 0
M  V30 12140 H 1123.55 2.61075 2.86214 0
M  V30 12141 H 1123.96 4.73802 2.2497 0
M  V30 12142 H 1125.44 4.00755 3.79604 0
M  V30 12143 H 1125.91 2.31245 3.73393 0
M  V30 12144 H 1126.52 3.4408 2.49979 0
M  V30 12145 N 1124.83 -0.648732 1.43629 0
M  V30 12146 C 1125.78 -1.76145 1.49136 0
M  V30 12147 C 1126.75 -1.62569 0.340649 0
M  V30 12148 O 1127.94 -1.82748 0.548435 0
M  V30 12149 C 1125.08 -3.14321 1.42466 0
M  V30 12150 C 1124.19 -3.38999 2.67776 0
M  V30 12151 C 1123.32 -4.67047 2.53062 0
M  V30 12152 C 1122.36 -4.84845 3.7362 0
M  V30 12153 N 1121.5 -6.04155 3.57689 0
M  V30 12154 H 1126.34 -1.70774 2.44213 0
M  V30 12155 H 1123.88 -0.833311 1.2122 0
M  V30 12156 H 1125.84 -3.94206 1.36592 0
M  V30 12157 H 1124.47 -3.18751 0.509666 0
M  V30 12158 H 1123.52 -2.53179 2.83909 0
M  V30 12159 H 1124.83 -3.48035 3.57314 0
M  V30 12160 H 1123.98 -5.55066 2.44922 0
M  V30 12161 H 1122.72 -4.60339 1.61056 0
M  V30 12162 H 1121.73 -3.95261 3.82163 0
M  V30 12163 H 1122.95 -4.9338 4.6664 0
M  V30 12164 H 1120.9 -5.9857 2.6842 0
M  V30 12165 H 1120.82 -6.14169 4.40832 0
M  V30 12166 H 1122.08 -6.94782 3.53409 0
M  V30 12167 N 1126.31 -1.30234 -0.887518 0
M  V30 12168 C 1127.56 -1.19086 -1.64153 0
M  V30 12169 C 1127.89 0.254428 -1.92526 0
M  V30 12170 O 1127.17 1.18233 -1.54438 0
M  V30 12171 C 1127.45 -2.01723 -2.98295 0
M  V30 12172 C 1127.3 -3.54458 -2.76911 0
M  V30 12173 C 1128.62 -1.85307 -3.99186 0
M  V30 12174 H 1125.74 -0.433967 -0.595686 0
M  V30 12175 H 1128.38 -1.59839 -1.0272 0
M  V30 12176 H 1126.53 -1.67096 -3.5073 0
M  V30 12177 H 1128.2 -3.99131 -2.31284 0
M  V30 12178 H 1126.45 -3.78768 -2.11464 0
M  V30 12179 H 1127.12 -4.07565 -3.72283 0
M  V30 12180 H 1129.59 -2.15575 -3.55903 0
M  V30 12181 H 1128.47 -2.45456 -4.90961 0
M  V30 12182 H 1128.73 -0.811528 -4.34588 0
M  V30 12183 N 1127.79 1.09952 -1.12909 0
M  V30 12184 C 1129.04 1.82016 -0.887482 0
M  V30 12185 C 1129.37 1.85445 0.586546 0
M  V30 12186 O 1128.62 1.31446 1.44984 0
M  V30 12187 C 1128.92 3.28252 -1.41369 0
M  V30 12188 C 1128.59 3.44965 -2.90362 0
M  V30 12189 C 1127.25 3.49233 -3.31043 0
M  V30 12190 C 1129.6 3.49947 -3.86247 0
M  V30 12191 C 1126.93 3.56057 -4.66305 0
M  V30 12192 C 1129.28 3.58305 -5.21345 0
M  V30 12193 C 1127.94 3.6084 -5.61561 0
M  V30 12194 H 1127.21 0.666046 -0.324753 0
M  V30 12195 H 1129.86 1.29568 -1.41012 0
M  V30 12196 H 1128.17 3.83301 -0.81163 0
M  V30 12197 H 1129.86 3.82533 -1.20289 0
M  V30 12198 H 1126.45 3.42323 -2.57901 0
M  V30 12199 H 1130.64 3.45895 -3.55908 0
M  V30 12200 H 1125.89 3.56305 -4.96847 0
M  V30 12201 H 1130.07 3.61104 -5.95463 0
M  V30 12202 H 1127.69 3.6588 -6.6636 0
M  V30 12203 N 1129.27 0.921757 1.27833 0
M  V30 12204 C 1130.52 0.559078 1.94629 0
M  V30 12205 C 1130.84 -0.898641 1.72495 0
M  V30 12206 O 1130.1 -1.65546 1.0437 0
M  V30 12207 C 1130.4 0.824259 3.47765 0
M  V30 12208 C 1130.06 2.26278 3.90011 0
M  V30 12209 C 1128.73 2.65607 4.01256 0
M  V30 12210 C 1131.08 3.19853 4.11513 0
M  V30 12211 C 1128.41 3.97646 4.31387 0
M  V30 12212 C 1130.76 4.51467 4.43126 0
M  V30 12213 C 1129.42 4.90637 4.52583 0
M  V30 12214 H 1128.69 0.204581 0.712199 0
M  V30 12215 H 1131.34 1.1646 1.52018 0
M  V30 12216 H 1129.64 0.136011 3.91564 0
M  V30 12217 H 1131.34 0.522701 3.97579 0
M  V30 12218 H 1127.93 1.94765 3.81791 0
M  V30 12219 H 1132.11 2.90674 4.02271 0
M  V30 12220 H 1127.37 4.27685 4.36916 0
M  V30 12221 H 1131.54 5.23982 4.58711 0
M  V30 12222 H 1129.17 5.92982 4.75685 0
M  V30 12223 N 1130.75 -1.41857 0.686609 0
M  V30 12224 C 1131.69 -2.30795 0.015643 0
M  V30 12225 C 1132.66 -1.46616 -0.780569 0
M  V30 12226 O 1133.85 -1.75423 -0.750424 0
M  V30 12227 C 1130.99 -3.32577 -0.921229 0
M  V30 12228 C 1130.1 -4.3184 -0.117585 0
M  V30 12229 C 1129.24 -5.20693 -1.05128 0
M  V30 12230 C 1128.28 -6.11629 -0.240018 0
M  V30 12231 N 1127.41 -6.92995 -1.12704 0
M  V30 12232 H 1132.25 -2.87615 0.77985 0
M  V30 12233 H 1129.79 -1.41661 0.396298 0
M  V30 12234 H 1131.75 -3.90129 -1.47836 0
M  V30 12235 H 1130.38 -2.77328 -1.65193 0
M  V30 12236 H 1129.43 -3.7631 0.55634 0
M  V30 12237 H 1130.74 -4.96168 0.511753 0
M  V30 12238 H 1129.9 -5.83035 -1.67795 0
M  V30 12239 H 1128.63 -4.5657 -1.71449 0
M  V30 12240 H 1127.64 -5.48345 0.399779 0
M  V30 12241 H 1128.86 -6.77805 0.419266 0
M  V30 12242 H 1126.81 -6.31489 -1.77644 0
M  V30 12243 H 1126.73 -7.53974 -0.553065 0
M  V30 12244 H 1128 -7.59813 -1.7408 0
M  V30 12245 N 1132.22 -0.430739 -1.51599 0
M  V30 12246 C 1133.19 0.372319 -2.26156 0
M  V30 12247 C 1134.19 0.955338 -1.29344 0
M  V30 12248 O 1135.38 0.830823 -1.53111 0
M  V30 12249 C 1132.51 1.52613 -3.04831 0
M  V30 12250 H 1133.7 -0.280996 -2.98581 0
M  V30 12251 H 1131.26 -0.183749 -1.55216 0
M  V30 12252 H 1131.99 2.21569 -2.36807 0
M  V30 12253 H 1131.78 1.11433 -3.75932 0
M  V30 12254 H 1133.27 2.09366 -3.61325 0
M  V30 12255 N 1133.7 1.56767 -0.161869 0
M  V30 12256 C 1134.95 1.96206 0.484537 0
M  V30 12257 C 1135.27 1.04848 1.64414 0
M  V30 12258 O 1134.54 0.112946 1.95574 0
M  V30 12259 H 1133.12 0.724491 0.181994 0
M  V30 12260 H 1135.78 1.93406 -0.240845 0
M  V30 12261 H 1134.88 3.00279 0.85083 0
M  V30 12262 N 1135.18 -0.111886 1.57202 0
M  V30 12263 C 1136.11 -1.13796 2.03894 0
M  V30 12264 C 1137.09 -1.4277 0.924696 0
M  V30 12265 O 1138.28 -1.53089 1.19488 0
M  V30 12266 C 1135.41 -2.46229 2.44925 0
M  V30 12267 C 1134.36 -2.31702 3.59859 0
M  V30 12268 C 1133.69 -3.69161 3.86813 0
M  V30 12269 C 1134.99 -1.77158 4.91337 0
M  V30 12270 H 1136.68 -0.749581 2.89865 0
M  V30 12271 H 1134.23 -0.359126 1.3945 0
M  V30 12272 H 1136.18 -3.18267 2.76195 0
M  V30 12273 H 1134.9 -2.86971 1.55933 0
M  V30 12274 H 1133.56 -1.62112 3.28809 0
M  V30 12275 H 1133.21 -4.07401 2.95015 0
M  V30 12276 H 1132.91 -3.60292 4.6418 0
M  V30 12277 H 1134.43 -4.42693 4.20542 0
M  V30 12278 H 1135.85 -2.3902 5.21097 0
M  V30 12279 H 1134.25 -1.79091 5.72753 0
M  V30 12280 H 1135.32 -0.729675 4.79379 0
M  V30 12281 N 1136.66 -1.52894 -0.382264 0
M  V30 12282 C 1137.59 -1.81122 -1.47367 0
M  V30 12283 C 1138.57 -0.663653 -1.56619 0
M  V30 12284 O 1139.75 -0.911898 -1.71459 0
M  V30 12285 C 1136.88 -1.98615 -2.84902 0
M  V30 12286 C 1135.84 -3.14328 -2.90485 0
M  V30 12287 C 1135.16 -3.17086 -4.30535 0
M  V30 12288 C 1136.46 -4.53263 -2.59519 0
M  V30 12289 H 1138.16 -2.72518 -1.23993 0
M  V30 12290 H 1135.7 -1.3113 -0.595049 0
M  V30 12291 H 1137.66 -2.16946 -3.61265 0
M  V30 12292 H 1136.38 -1.03915 -3.09628 0
M  V30 12293 H 1135.04 -2.95791 -2.16572 0
M  V30 12294 H 1134.69 -2.20055 -4.52311 0
M  V30 12295 H 1134.39 -3.94821 -4.3519 0
M  V30 12296 H 1135.91 -3.3758 -5.08795 0
M  V30 12297 H 1137.33 -4.71867 -3.25598 0
M  V30 12298 H 1135.72 -5.33115 -2.75514 0
M  V30 12299 H 1136.79 -4.59516 -1.54831 0
M  V30 12300 N 1138.14 0.641106 -1.43971 0
M  V30 12301 C 1139.39 1.39807 -1.4594 0
M  V30 12302 C 1139.71 1.94795 -0.0893874 0
M  V30 12303 O 1138.98 1.75175 0.876962 0
M  V30 12304 H 1137.56 0.518908 -0.537349 0
M  V30 12305 H 1140.22 0.755278 -1.79671 0
M  V30 12306 H 1139.31 2.23439 -2.17903 0
M  V30 12307 N 1139.62 1.30703 0.880598 0
M  V30 12308 C 1140.55 1.20033 2.00286 0
M  V30 12309 C 1141.53 0.0899614 1.69862 0
M  V30 12310 O 1142.71 0.272747 1.92275 0
M  V30 12311 C 1139.84 0.895902 3.35546 0
M  V30 12312 C 1138.8 1.96468 3.80242 0
M  V30 12313 C 1138.12 1.51316 5.12843 0
M  V30 12314 C 1139.42 3.37637 3.98496 0
M  V30 12315 H 1141.12 2.13922 2.0947 0
M  V30 12316 H 1138.66 1.02989 1.00644 0
M  V30 12317 H 1140.61 0.807899 4.13583 0
M  V30 12318 H 1139.34 -0.0786636 3.26505 0
M  V30 12319 H 1138 2.0424 3.04437 0
M  V30 12320 H 1137.65 0.52674 5.00234 0
M  V30 12321 H 1137.35 2.22807 5.43719 0
M  V30 12322 H 1138.87 1.43903 5.93401 0
M  V30 12323 H 1140.28 3.326 4.66959 0
M  V30 12324 H 1138.68 4.07253 4.40755 0
M  V30 12325 H 1139.75 3.79205 3.02211 0
M  V30 12326 N 1141.09 -1.09351 1.1349 0
M  V30 12327 C 1142.02 -2.18037 0.835588 0
M  V30 12328 C 1143 -1.68856 -0.205373 0
M  V30 12329 O 1144.19 -1.94094 -0.0641357 0
M  V30 12330 C 1141.32 -3.45987 0.301661 0
M  V30 12331 C 1140.27 -4.08507 1.27696 0
M  V30 12332 C 1139.6 -5.31292 0.602758 0
M  V30 12333 C 1140.9 -4.50916 2.63575 0
M  V30 12334 H 1142.59 -2.43332 1.74441 0
M  V30 12335 H 1140.14 -1.1695 0.840166 0
M  V30 12336 H 1142.09 -4.21324 0.079928 0
M  V30 12337 H 1140.82 -3.20217 -0.642552 0
M  V30 12338 H 1139.48 -3.3519 1.4847 0
M  V30 12339 H 1139.12 -5.01802 -0.346953 0
M  V30 12340 H 1138.82 -5.74075 1.25345 0
M  V30 12341 H 1140.35 -6.09351 0.390325 0
M  V30 12342 H 1141.76 -5.17474 2.46765 0
M  V30 12343 H 1140.16 -5.04586 3.24827 0
M  V30 12344 H 1141.23 -3.63279 3.2118 0
M  V30 12345 N 1142.57 -0.928524 -1.27343 0
M  V30 12346 C 1143.48 -0.433901 -2.30553 0
M  V30 12347 C 1144.5 0.485832 -1.6708 0
M  V30 12348 O 1145.67 0.36844 -1.98001 0
M  V30 12349 C 1142.74 0.304617 -3.45359 0
M  V30 12350 C 1141.8 -0.650131 -4.24349 0
M  V30 12351 C 1141.03 0.0532372 -5.33673 0
M  V30 12352 O 1141.26 1.27246 -5.56026 0
M  V30 12353 O 1140.19 -0.619009 -5.98709 0
M  V30 12354 H 1144.02 -1.2909 -2.74899 0
M  V30 12355 H 1141.6 -0.693903 -1.32308 0
M  V30 12356 H 1143.48 0.721137 -4.15184 0
M  V30 12357 H 1142.16 1.13721 -3.03066 0
M  V30 12358 H 1141.06 -1.11635 -3.57055 0
M  V30 12359 H 1142.4 -1.44996 -4.70358 0
M  V30 12360 N 1144.05 1.41491 -0.694123 0
M  V30 12361 C 1144.96 2.34583 -0.0283414 0
M  V30 12362 C 1145.98 1.5615 0.767662 0
M  V30 12363 O 1147.15 1.88637 0.705556 0
M  V30 12364 C 1144.22 3.34876 0.897726 0
M  V30 12365 C 1143.28 4.29197 0.0940905 0
M  V30 12366 C 1142.51 5.24699 0.976051 0
M  V30 12367 O 1142.73 5.25613 2.21556 0
M  V30 12368 O 1141.67 6.00387 0.426503 0
M  V30 12369 H 1145.49 2.93092 -0.795656 0
M  V30 12370 H 1143.08 1.4232 -0.45445 0
M  V30 12371 H 1144.96 3.96438 1.4288 0
M  V30 12372 H 1143.64 2.78812 1.64456 0
M  V30 12373 H 1142.54 3.70988 -0.481552 0
M  V30 12374 H 1143.88 4.88355 -0.614045 0
M  V30 12375 N 1145.53 0.438773 1.51369 0
M  V30 12376 C 1146.46 -0.417215 2.24354 0
M  V30 12377 C 1147.44 -1.02351 1.26345 0
M  V30 12378 O 1148.62 -1.06569 1.55484 0
M  V30 12379 C 1145.75 -1.58163 2.99503 0
M  V30 12380 C 1144.8 -1.09588 4.1218 0
M  V30 12381 S 1145.63 -0.0367491 5.35487 0
M  V30 12382 C 1146.78 -1.2058 6.14175 0
M  V30 12383 H 1147.02 0.202416 2.9661 0
M  V30 12384 H 1144.55 0.223306 1.52777 0
M  V30 12385 H 1146.51 -2.24917 3.43399 0
M  V30 12386 H 1145.17 -2.17268 2.26833 0
M  V30 12387 H 1144.36 -1.96667 4.64045 0
M  V30 12388 H 1143.96 -0.506564 3.70554 0
M  V30 12389 H 1146.26 -2.12387 6.43349 0
M  V30 12390 H 1147.2 -0.727087 7.04357 0
M  V30 12391 H 1147.61 -1.44501 5.45692 0
M  V30 12392 N 1147.01 -1.56678 0.170181 0
M  V30 12393 C 1148.42 -1.58512 -0.185999 0
M  V30 12394 C 1148.62 -1.18548 -1.62937 0
M  V30 12395 O 1147.68 -0.896554 -2.36047 0
M  V30 12396 C 1148.99 -3.00554 0.0937842 0
M  V30 12397 C 1150.54 -3.12984 0.0319057 0
M  V30 12398 C 1151.01 -4.57115 0.284664 0
M  V30 12399 N 1152.5 -4.62617 0.2324 0
M  V30 12400 C 1153.24 -5.71988 0.40216 0
M  V30 12401 N 1152.74 -6.89921 0.630915 0
M  V30 12402 N 1154.53 -5.61082 0.338144 0
M  V30 12403 H 1146.68 -1.80944 1.11235 0
M  V30 12404 H 1148.94 -0.838586 0.442128 0
M  V30 12405 H 1148.65 -3.34265 1.09362 0
M  V30 12406 H 1148.52 -3.72151 -0.615118 0
M  V30 12407 H 1150.91 -2.791 -0.958502 0
M  V30 12408 H 1150.99 -2.43825 0.773501 0
M  V30 12409 H 1150.63 -4.91707 1.27227 0
M  V30 12410 H 1150.56 -5.2443 -0.477529 0
M  V30 12411 H 1153.06 -3.7785 0.0611933 0
M  V30 12412 H 1153.37 -7.69153 0.749931 0
M  V30 12413 H 1151.71 -6.91787 0.667516 0
M  V30 12414 H 1154.9 -4.67826 0.16003 0
M  V30 12415 H 1155.08 -6.46265 0.473872 0
M  V30 12416 N 1148.48 0.103547 -1.57259 0
M  V30 12417 C 1149.76 0.839768 -1.76656 0
M  V30 12418 C 1150.14 1.9734 -0.749666 0
M  V30 12419 O 1149.49 2.27405 0.223466 0
M  V30 12420 C 1149.7 1.34218 -3.22159 0
M  V30 12421 C 1151.05 1.78835 -3.85102 0
M  V30 12422 O 1152.07 1.43861 -3.25857 0
M  V30 12423 O 1150.93 2.43474 -4.89267 0
M  V30 12424 H 1148.02 0.399928 -0.723869 0
M  V30 12425 H 1150.57 0.0860857 -1.69482 0
M  V30 12426 H 1149.34 0.52956 -3.877 0
M  V30 12427 H 1148.96 2.15811 -3.33933 0
M  V30 12428 N 1149.96 1.53094 0.37415 0
M  V30 12429 C 1150.87 1.81872 1.48188 0
M  V30 12430 C 1151.89 0.706487 1.59012 0
M  V30 12431 O 1153.06 0.995648 1.75068 0
M  V30 12432 C 1150.13 1.99494 2.83554 0
M  V30 12433 C 1149.19 3.23402 2.82329 0
M  V30 12434 C 1148.42 3.40174 4.11239 0
M  V30 12435 O 1148.65 2.61425 5.06965 0
M  V30 12436 O 1147.58 4.33493 4.17573 0
M  V30 12437 H 1151.41 2.75965 1.26795 0
M  V30 12438 H 1148.99 1.38368 0.56343 0
M  V30 12439 H 1150.87 2.12705 3.63778 0
M  V30 12440 H 1149.55 1.08591 3.04942 0
M  V30 12441 H 1148.45 3.15621 2.00834 0
M  V30 12442 H 1149.79 4.14199 2.65894 0
M  V30 12443 N 1151.44 -0.633461 1.44309 0
M  V30 12444 C 1152.86 -0.951379 1.28144 0
M  V30 12445 C 1153.06 -2.00344 0.215512 0
M  V30 12446 O 1152.11 -2.49321 -0.399389 0
M  V30 12447 C 1153.42 -1.41686 2.65227 0
M  V30 12448 C 1154.97 -1.53247 2.72918 0
M  V30 12449 C 1155.45 -2.03179 4.10466 0
M  V30 12450 N 1156.94 -2.10453 4.1263 0
M  V30 12451 C 1157.67 -2.50254 5.15907 0
M  V30 12452 N 1157.17 -2.89209 6.29547 0
M  V30 12453 N 1158.96 -2.50368 5.03262 0
M  V30 12454 H 1151.11 0.0623574 2.12308 0
M  V30 12455 H 1153.38 -0.0347244 0.947364 0
M  V30 12456 H 1153.08 -0.71814 3.4429 0
M  V30 12457 H 1152.96 -2.3883 2.91959 0
M  V30 12458 H 1155.34 -2.22216 1.94176 0
M  V30 12459 H 1155.42 -0.544836 2.4993 0
M  V30 12460 H 1155.07 -1.34806 4.89683 0
M  V30 12461 H 1155 -3.02809 4.3083 0
M  V30 12462 H 1157.49 -1.83042 3.30612 0
M  V30 12463 H 1157.8 -3.18386 7.04166 0
M  V30 12464 H 1156.15 -2.86966 6.32989 0
M  V30 12465 H 1159.34 -2.19324 4.13539 0
M  V30 12466 H 1159.51 -2.81062 5.83873 0
M  V30 12467 N 1152.92 -1.31168 -0.873655 0
M  V30 12468 C 1153.85 -1.21094 -1.99646 0
M  V30 12469 C 1154.83 -0.0989684 -1.69812 0
M  V30 12470 O 1156.01 -0.282939 -1.92128 0
M  V30 12471 C 1153.14 -0.913684 -3.35066 0
M  V30 12472 C 1152.1 -1.98482 -3.79195 0
M  V30 12473 C 1151.42 -1.54033 -5.12033 0
M  V30 12474 C 1152.72 -3.39745 -3.96699 0
M  V30 12475 H 1154.42 -2.1503 -2.08333 0
M  V30 12476 H 1151.96 -1.03521 -1.00097 0
M  V30 12477 H 1153.92 -0.829821 -4.13149 0
M  V30 12478 H 1152.64 0.0613471 -3.26542 0
M  V30 12479 H 1151.3 -2.05851 -3.03349 0
M  V30 12480 H 1150.95 -0.553261 -4.99948 0
M  V30 12481 H 1150.65 -2.25688 -5.4253 0
M  V30 12482 H 1152.17 -1.47047 -5.92629 0
M  V30 12483 H 1153.59 -3.35071 -4.65188 0
M  V30 12484 H 1151.98 -4.09585 -4.38589 0
M  V30 12485 H 1153.05 -3.80802 -3.00196 0
M  V30 12486 N 1154.4 1.08748 -1.14068 0
M  V30 12487 C 1155.62 1.85353 -0.930532 0
M  V30 12488 C 1156.05 1.80892 0.515717 0
M  V30 12489 O 1155.4 1.19146 1.36652 0
M  V30 12490 C 1155.45 3.30962 -1.43167 0
M  V30 12491 O 1154.56 4.0769 -0.621468 0
M  V30 12492 H 1153.9 0.574485 -0.332962 0
M  V30 12493 H 1156.43 1.37282 -1.51707 0
M  V30 12494 H 1156.44 3.81807 -1.43832 0
M  V30 12495 H 1155.11 3.33524 -2.48464 0
M  V30 12496 H 1153.69 3.66587 -0.683267 0
M  V30 12497 N 1155.87 0.935264 1.26849 0
M  V30 12498 C 1157.29 0.636661 1.46352 0
M  V30 12499 C 1157.49 -0.811823 1.84423 0
M  V30 12500 O 1156.55 -1.58902 1.9623 0
M  V30 12501 C 1157.86 1.59301 2.55036 0
M  V30 12502 C 1159.41 1.60207 2.68892 0
M  V30 12503 C 1159.88 2.54558 3.80742 0
M  V30 12504 N 1161.37 2.52809 3.88126 0
M  V30 12505 C 1162.11 3.225 4.74111 0
M  V30 12506 N 1161.6 4.01598 5.64527 0
M  V30 12507 N 1163.4 3.11481 4.67906 0
M  V30 12508 H 1155.55 1.8716 1.00423 0
M  V30 12509 H 1157.81 0.803968 0.502334 0
M  V30 12510 H 1157.52 2.62671 2.33874 0
M  V30 12511 H 1157.39 1.34052 3.52576 0
M  V30 12512 H 1159.78 0.575649 2.89431 0
M  V30 12513 H 1159.86 1.89508 1.71815 0
M  V30 12514 H 1159.5 3.57314 3.60956 0
M  V30 12515 H 1159.43 2.22549 4.77263 0
M  V30 12516 H 1161.92 1.9537 3.2348 0
M  V30 12517 H 1162.24 4.51742 6.27016 0
M  V30 12518 H 1160.58 4.057 5.64298 0
M  V30 12519 H 1163.77 2.49175 3.9627 0
M  V30 12520 H 1163.95 3.66064 5.34697 0
M  V30 12521 N 1157.35 -1.41121 0.701616 0
M  V30 12522 C 1158.6 -2.00359 0.232214 0
M  V30 12523 C 1158.91 -1.56231 -1.17691 0
M  V30 12524 O 1160.12 -2.08071 -1.74409 0
M  V30 12525 C 1158.58 -3.58052 0.364257 0
M  V30 12526 C 1158.18 -4.11158 1.77913 0
M  V30 12527 C 1159.93 -4.24476 -0.0450628 0
M  V30 12528 C 1157.84 -5.61306 1.8625 0
M  V30 12529 H 1156.77 -0.749411 0.0830609 0
M  V30 12530 H 1159.42 -1.61528 0.870689 0
M  V30 12531 H 1157.8 -3.94515 -0.342569 0
M  V30 12532 H 1158.97 -3.86101 2.5152 0
M  V30 12533 H 1157.29 -3.57282 2.13866 0
M  V30 12534 H 1159.88 -5.347 -0.00329209 0
M  V30 12535 H 1160.23 -4.01919 -1.08477 0
M  V30 12536 H 1160.76 -3.93069 0.611704 0
M  V30 12537 H 1157.5 -5.88699 2.88294 0
M  V30 12538 H 1157.02 -5.88271 1.17036 0
M  V30 12539 H 1158.7 -6.26179 1.62817 0
M  V30 12540 N 1158.83 -0.446794 -1.51134 0
M  V30 12541 C 1160.08 0.118047 -2.01354 0
M  V30 12542 C 1160.39 1.42953 -1.33505 0
M  V30 12543 O 1161.6 2.07788 -1.74747 0
M  V30 12544 C 1160.05 0.260912 -3.58953 0
M  V30 12545 C 1159.66 -1.0407 -4.35745 0
M  V30 12546 C 1161.41 0.779014 -4.17291 0
M  V30 12547 C 1159.31 -0.862958 -5.8507 0
M  V30 12548 H 1158.24 0.0478915 -0.752478 0
M  V30 12549 H 1160.89 -0.577997 -1.74159 0
M  V30 12550 H 1159.28 1.02018 -3.82633 0
M  V30 12551 H 1160.45 -1.80903 -4.23805 0
M  V30 12552 H 1158.77 -1.48805 -3.88904 0
M  V30 12553 H 1161.36 0.928636 -5.26574 0
M  V30 12554 H 1161.71 1.76399 -3.7708 0
M  V30 12555 H 1162.24 0.0778022 -3.97724 0
M  V30 12556 H 1158.98 -1.82059 -6.2971 0
M  V30 12557 H 1158.5 -0.134588 -5.99649 0
M  V30 12558 H 1160.18 -0.51989 -6.44908 0
M  V30 12559 N 1160.31 1.56586 -0.178487 0
M  V30 12560 C 1161.54 2.01475 0.470684 0
M  V30 12561 C 1161.95 1.0587 1.56323 0
M  V30 12562 O 1161.31 0.060749 1.82399 0
M  V30 12563 C 1161.36 3.46145 1.04238 0
M  V30 12564 O 1161.08 4.381 -0.0065582 0
M  V30 12565 C 1162.58 4.06471 1.76908 0
M  V30 12566 H 1159.8 0.660219 0.119801 0
M  V30 12567 H 1162.35 2.02542 -0.282322 0
M  V30 12568 H 1160.5 3.45831 1.74585 0
M  V30 12569 H 1160.91 5.22843 0.416554 0
M  V30 12570 H 1162.39 5.096 2.12161 0
M  V30 12571 H 1162.87 3.48974 2.66672 0
M  V30 12572 H 1163.47 4.10509 1.11186 0
M  V30 12573 N 1161.79 -0.095206 1.57312 0
M  V30 12574 C 1163.2 -0.449411 1.53142 0
M  V30 12575 C 1163.4 -1.80523 0.895187 0
M  V30 12576 O 1162.46 -2.47746 0.487649 0
M  V30 12577 C 1163.77 -0.412002 2.97864 0
M  V30 12578 C 1165.32 -0.493866 3.09079 0
M  V30 12579 C 1165.79 -0.486606 4.55408 0
M  V30 12580 N 1167.29 -0.547363 4.59955 0
M  V30 12581 C 1168.02 -0.563582 5.70624 0
M  V30 12582 N 1167.52 -0.536015 6.90723 0
M  V30 12583 N 1169.31 -0.608385 5.58798 0
M  V30 12584 H 1161.46 0.792869 1.97047 0
M  V30 12585 H 1163.72 0.295106 0.900898 0
M  V30 12586 H 1163.43 0.517064 3.47878 0
M  V30 12587 H 1163.3 -1.23102 3.56547 0
M  V30 12588 H 1165.69 -1.41335 2.59053 0
M  V30 12589 H 1165.77 0.353286 2.53349 0
M  V30 12590 H 1165.42 0.428935 5.06086 0
M  V30 12591 H 1165.35 -1.35097 5.08976 0
M  V30 12592 H 1167.84 -0.573867 3.73517 0
M  V30 12593 H 1168.15 -0.551671 7.70828 0
M  V30 12594 H 1166.49 -0.503064 6.93177 0
M  V30 12595 H 1169.69 -0.627451 4.63876 0
M  V30 12596 H 1169.86 -0.617556 6.45051 0
M  V30 12597 N 1163.26 -1.53291 -0.366026 0
M  V30 12598 C 1164.51 -1.68671 -1.10602 0
M  V30 12599 C 1164.83 -0.444793 -1.90476 0
M  V30 12600 O 1166.03 -0.479135 -2.67239 0
M  V30 12601 C 1164.49 -2.98174 -2.01545 0
M  V30 12602 C 1164.1 -4.29626 -1.26986 0
M  V30 12603 C 1165.84 -3.22921 -2.7554 0
M  V30 12604 C 1163.75 -5.50218 -2.16828 0
M  V30 12605 H 1162.68 -0.628456 -0.416604 0
M  V30 12606 H 1165.33 -1.79791 -0.367058 0
M  V30 12607 H 1163.71 -2.80855 -2.79171 0
M  V30 12608 H 1164.88 -4.57574 -0.544269 0
M  V30 12609 H 1163.2 -4.11318 -0.648558 0
M  V30 12610 H 1165.8 -4.10202 -3.42985 0
M  V30 12611 H 1166.14 -2.38964 -3.40884 0
M  V30 12612 H 1166.67 -3.40912 -2.04997 0
M  V30 12613 H 1163.41 -6.36651 -1.56063 0
M  V30 12614 H 1162.93 -5.26549 -2.87238 0
M  V30 12615 H 1164.61 -5.84991 -2.76396 0
M  V30 12616 N 1164.74 0.6258 -1.44643 0
M  V30 12617 C 1165.67 1.75086 -1.47911 0
M  V30 12618 C 1166.69 1.58496 -0.37188 0
M  V30 12619 O 1167.88 1.66712 -0.637925 0
M  V30 12620 C 1164.98 3.12874 -1.30243 0
M  V30 12621 C 1164.15 3.55873 -2.54309 0
M  V30 12622 C 1163.21 4.72558 -2.31464 0
M  V30 12623 O 1162.23 4.80599 -3.04981 0
M  V30 12624 N 1163.44 5.64617 -1.34862 0
M  V30 12625 H 1166.2 1.72751 -2.44902 0
M  V30 12626 H 1163.76 0.810531 -1.4015 0
M  V30 12627 H 1165.75 3.88663 -1.12798 0
M  V30 12628 H 1164.32 3.0982 -0.415966 0
M  V30 12629 H 1163.54 2.70237 -2.86994 0
M  V30 12630 H 1164.83 3.81355 -3.36817 0
M  V30 12631 H 1164.23 5.60819 -0.741542 0
M  V30 12632 H 1162.79 6.40013 -1.23394 0
M  V30 12633 N 1166.22 1.31629 0.866686 0
M  V30 12634 C 1167.18 1.1951 1.95576 0
M  V30 12635 C 1168.18 0.121319 1.60342 0
M  V30 12636 O 1169.37 0.370832 1.70207 0
M  V30 12637 C 1166.51 0.835201 3.30511 0
M  V30 12638 H 1167.7 2.16285 2.07752 0
M  V30 12639 H 1165.25 1.15288 1.05539 0
M  V30 12640 H 1165.99 -0.131245 3.24034 0
M  V30 12641 H 1165.77 1.61142 3.57457 0
M  V30 12642 H 1167.26 0.774393 4.10357 0
M  V30 12643 N 1167.7 -1.08142 1.14644 0
M  V30 12644 C 1168.63 -2.15022 0.793614 0
M  V30 12645 C 1169.64 -1.61679 -0.190729 0
M  V30 12646 O 1170.83 -1.78472 0.0313696 0
M  V30 12647 C 1167.93 -3.38532 0.157785 0
M  V30 12648 C 1167.11 -4.21252 1.17753 0
M  V30 12649 C 1166.17 -5.23158 0.564968 0
M  V30 12650 O 1165.19 -5.5578 1.22869 0
M  V30 12651 N 1166.39 -5.7677 -0.657022 0
M  V30 12652 H 1169.16 -2.45893 1.71338 0
M  V30 12653 H 1166.72 -1.23976 1.04122 0
M  V30 12654 H 1168.71 -4.03834 -0.264586 0
M  V30 12655 H 1167.28 -3.05441 -0.665168 0
M  V30 12656 H 1166.5 -3.51888 1.77675 0
M  V30 12657 H 1167.79 -4.73335 1.86632 0
M  V30 12658 H 1167.19 -5.52503 -1.21478 0
M  V30 12659 H 1165.74 -6.4374 -1.02186 0
M  V30 12660 N 1169.18 -0.941978 -1.26351 0
M  V30 12661 C 1170.4 -0.606231 -1.98342 0
M  V30 12662 C 1170.83 0.812014 -1.6967 0
M  V30 12663 O 1170.19 1.54712 -0.9452 0
M  V30 12664 C 1170.23 -0.855864 -3.50296 0
M  V30 12665 O 1169.34 0.0716251 -4.12338 0
M  V30 12666 H 1168.68 -0.231815 -0.62222 0
M  V30 12667 H 1171.21 -1.26513 -1.60797 0
M  V30 12668 H 1171.22 -0.777079 -4.00531 0
M  V30 12669 H 1169.89 -1.8896 -3.70496 0
M  V30 12670 H 1168.47 -0.0582866 -3.72854 0
M  V30 12671 N 1170.66 1.40747 -0.709091 0
M  V30 12672 C 1172.07 1.54961 -0.381989 0
M  V30 12673 C 1172.27 1.68181 1.10985 0
M  V30 12674 O 1171.33 1.66776 1.89584 0
M  V30 12675 C 1172.64 2.78156 -1.14236 0
M  V30 12676 C 1174.19 2.91967 -1.12803 0
M  V30 12677 C 1174.66 4.18066 -1.87042 0
M  V30 12678 N 1176.15 4.25052 -1.84078 0
M  V30 12679 C 1176.89 5.21514 -2.38349 0
M  V30 12680 N 1176.39 6.23924 -3.01149 0
M  V30 12681 N 1178.18 5.13548 -2.28528 0
M  V30 12682 H 1170.33 1.30412 -1.6765 0
M  V30 12683 H 1172.59 0.630147 -0.70825 0
M  V30 12684 H 1172.3 2.74643 -2.19691 0
M  V30 12685 H 1172.17 3.70074 -0.729731 0
M  V30 12686 H 1174.56 2.94987 -0.0816956 0
M  V30 12687 H 1174.64 2.01185 -1.57982 0
M  V30 12688 H 1174.28 4.15808 -2.91662 0
M  V30 12689 H 1174.21 5.07845 -1.39287 0
M  V30 12690 H 1176.71 3.51682 -1.38305 0
M  V30 12691 H 1177.02 6.93942 -3.40094 0
M  V30 12692 H 1175.36 6.24387 -3.05231 0
M  V30 12693 H 1178.55 4.3247 -1.79129 0
M  V30 12694 H 1178.73 5.88553 -2.71126 0
M  V30 12695 N 1172.13 0.454803 1.50895 0
M  V30 12696 C 1173.38 -0.105562 2.01824 0
M  V30 12697 C 1173.7 -1.41673 1.33992 0
M  V30 12698 O 1172.97 -1.89929 0.479994 0
M  V30 12699 H 1171.55 -0.0420011 0.745818 0
M  V30 12700 H 1174.21 0.601504 1.85386 0
M  V30 12701 H 1173.31 -0.268872 3.1094 0
M  V30 12702 N 1173.61 -1.56489 0.186789 0
M  V30 12703 C 1174.86 -1.97634 -0.454831 0
M  V30 12704 C 1175.19 -1.07334 -1.61843 0
M  V30 12705 O 1174.47 -0.123612 -1.94107 0
M  V30 12706 C 1174.75 -3.48071 -0.922962 0
M  V30 12707 C 1174.6 -4.49149 0.241877 0
M  V30 12708 C 1175.92 -4.01994 -1.79134 0
M  V30 12709 H 1173.04 -0.718555 -0.163854 0
M  V30 12710 H 1175.68 -1.87984 0.27604 0
M  V30 12711 H 1173.83 -3.56425 -1.54575 0
M  V30 12712 H 1175.5 -4.52841 0.87936 0
M  V30 12713 H 1173.75 -4.24468 0.894964 0
M  V30 12714 H 1174.42 -5.51851 -0.128051 0
M  V30 12715 H 1176.89 -3.96367 -1.26618 0
M  V30 12716 H 1175.77 -5.07641 -2.08787 0
M  V30 12717 H 1176.03 -3.46747 -2.74261 0
M  V30 12718 N 1175.09 0.086862 -1.5736 0
M  V30 12719 C 1176.02 1.10538 -2.05678 0
M  V30 12720 C 1177 1.41281 -0.947293 0
M  V30 12721 O 1178.19 1.51169 -1.21908 0
M  V30 12722 C 1175.32 2.42302 -2.48812 0
M  V30 12723 C 1174.27 2.25948 -3.63499 0
M  V30 12724 C 1173.6 3.62961 -3.92637 0
M  V30 12725 C 1174.9 1.69319 -4.94094 0
M  V30 12726 H 1176.59 0.703371 -2.91021 0
M  V30 12727 H 1174.14 0.336895 -1.40004 0
M  V30 12728 H 1176.09 3.13833 -2.81224 0
M  V30 12729 H 1174.81 2.84454 -1.60479 0
M  V30 12730 H 1173.47 1.5686 -3.31347 0
M  V30 12731 H 1173.12 4.02656 -3.01459 0
M  V30 12732 H 1172.82 3.52862 -4.69853 0
M  V30 12733 H 1174.34 4.35946 -4.27531 0
M  V30 12734 H 1175.76 2.30699 -5.24834 0
M  V30 12735 H 1174.15 1.69957 -5.7553 0
M  V30 12736 H 1175.22 0.653318 -4.80479 0
M  V30 12737 N 1176.57 1.53483 0.357892 0
M  V30 12738 C 1177.53 1.79782 1.42166 0
M  V30 12739 C 1178.53 0.668441 1.46248 0
M  V30 12740 O 1179.72 0.936677 1.46874 0
M  V30 12741 C 1176.85 1.92686 2.8122 0
M  V30 12742 H 1178.05 2.74794 1.20117 0
M  V30 12743 H 1175.6 1.44677 0.591468 0
M  V30 12744 H 1176.33 0.997669 3.08573 0
M  V30 12745 H 1176.12 2.74837 2.79655 0
M  V30 12746 H 1177.61 2.14599 3.58242 0
M  V30 12747 N 1178.05 -0.61812 1.44973 0
M  V30 12748 C 1179.46 -0.937734 1.29146 0
M  V30 12749 C 1179.66 -2.00104 0.236749 0
M  V30 12750 O 1178.72 -2.49731 -0.372923 0
M  V30 12751 C 1180.03 -1.38865 2.66715 0
M  V30 12752 C 1181.58 -1.50343 2.74529 0
M  V30 12753 C 1182.05 -1.98814 4.12598 0
M  V30 12754 N 1183.54 -2.06064 4.14839 0
M  V30 12755 C 1184.28 -2.44768 5.18533 0
M  V30 12756 N 1183.78 -2.82516 6.32579 0
M  V30 12757 N 1185.57 -2.45016 5.05889 0
M  V30 12758 H 1177.72 0.084872 2.1223 0
M  V30 12759 H 1179.98 -0.0246744 0.947679 0
M  V30 12760 H 1179.69 -0.681583 3.45032 0
M  V30 12761 H 1179.56 -2.3572 2.94475 0
M  V30 12762 H 1181.95 -2.20144 1.96522 0
M  V30 12763 H 1182.03 -0.518297 2.50494 0
M  V30 12764 H 1181.67 -1.29604 4.91086 0
M  V30 12765 H 1181.6 -2.98223 4.34017 0
M  V30 12766 H 1184.1 -1.79525 3.32535 0
M  V30 12767 H 1184.41 -3.109 7.07504 0
M  V30 12768 H 1182.75 -2.80237 6.35997 0
M  V30 12769 H 1185.94 -2.14925 4.15842 0
M  V30 12770 H 1186.12 -2.74854 5.86821 0
M  V30 12771 N 1179.52 -1.32087 -0.859693 0
M  V30 12772 C 1180.46 -1.14934 -1.97143 0
M  V30 12773 C 1181.43 -0.0501084 -1.62523 0
M  V30 12774 O 1182.62 -0.208472 -1.87344 0
M  V30 12775 C 1179.75 -0.758374 -3.30101 0
M  V30 12776 C 1178.79 -1.86212 -3.83702 0
M  V30 12777 S 1179.62 -3.46949 -4.07905 0
M  V30 12778 C 1180.78 -3.09813 -5.43844 0
M  V30 12779 H 1181.01 -2.09047 -2.11392 0
M  V30 12780 H 1178.55 -1.1669 -1.01108 0
M  V30 12781 H 1180.5 -0.539563 -4.06939 0
M  V30 12782 H 1179.17 0.163817 -3.13673 0
M  V30 12783 H 1178.36 -1.54144 -4.7985 0
M  V30 12784 H 1177.96 -2.03652 -3.13691 0
M  V30 12785 H 1180.25 -2.59345 -6.25897 0
M  V30 12786 H 1181.2 -4.04963 -5.8087 0
M  V30 12787 H 1181.6 -2.46971 -5.07607 0
M  V30 12788 N 1181 1.07532 -1.15215 0
M  V30 12789 C 1181.91 2.18222 -0.861192 0
M  V30 12790 C 1182.93 1.73246 0.161798 0
M  V30 12791 O 1184.1 2.01397 -0.0118386 0
M  V30 12792 C 1181.17 3.44902 -0.352601 0
M  V30 12793 C 1180.23 4.04455 -1.43926 0
M  V30 12794 C 1179.46 5.25089 -0.954841 0
M  V30 12795 O 1179.69 5.70048 0.200294 0
M  V30 12796 O 1178.62 5.76269 -1.73774 0
M  V30 12797 H 1182.45 2.45599 -1.78648 0
M  V30 12798 H 1180.03 1.16835 -0.93112 0
M  V30 12799 H 1181.91 4.21333 -0.0753347 0
M  V30 12800 H 1180.59 3.19082 0.544841 0
M  V30 12801 H 1179.49 3.29573 -1.7701 0
M  V30 12802 H 1180.83 4.34544 -2.31155 0
M  V30 12803 N 1182.48 0.948665 1.2585 0
M  V30 12804 C 1183.71 0.616334 1.97193 0
M  V30 12805 C 1184.12 -0.814538 1.70769 0
M  V30 12806 O 1183.46 -1.55569 0.976926 0
M  V30 12807 C 1183.52 0.787814 3.50762 0
M  V30 12808 C 1183.19 2.19472 4.0085 0
M  V30 12809 C 1184.18 3.17087 4.12009 0
M  V30 12810 C 1181.87 2.51731 4.34669 0
M  V30 12811 C 1183.86 4.45058 4.56292 0
M  V30 12812 C 1181.55 3.79932 4.78639 0
M  V30 12813 C 1182.55 4.76408 4.89412 0
M  V30 12814 O 1182.24 6.02325 5.32409 0
M  V30 12815 H 1181.97 0.230487 0.635493 0
M  V30 12816 H 1184.52 1.27379 1.61133 0
M  V30 12817 H 1182.75 0.0732154 3.86631 0
M  V30 12818 H 1184.44 0.457427 4.03314 0
M  V30 12819 H 1185.21 2.9349 3.8612 0
M  V30 12820 H 1181.09 1.77369 4.25513 0
M  V30 12821 H 1184.63 5.20363 4.64616 0
M  V30 12822 H 1180.53 4.03338 5.03973 0
M  V30 12823 H 1181.3 6.05615 5.50611 0
M  V30 12824 N 1183.96 -1.40369 0.716545 0
M  V30 12825 C 1184.91 -2.3071 0.0645944 0
M  V30 12826 C 1185.88 -1.48239 -0.749294 0
M  V30 12827 O 1187.06 -1.76975 -0.713045 0
M  V30 12828 C 1184.2 -3.34456 -0.850478 0
M  V30 12829 C 1183.31 -4.31992 -0.0259594 0
M  V30 12830 C 1182.45 -5.22806 -0.940599 0
M  V30 12831 C 1181.49 -6.12001 -0.110228 0
M  V30 12832 N 1180.62 -6.9523 -0.979796 0
M  V30 12833 H 1185.46 -2.85896 0.840682 0
M  V30 12834 H 1183 -1.40789 0.426258 0
M  V30 12835 H 1184.96 -3.93177 -1.39528 0
M  V30 12836 H 1183.59 -2.8077 -1.59274 0
M  V30 12837 H 1182.64 -3.75045 0.636036 0
M  V30 12838 H 1183.95 -4.94971 0.616883 0
M  V30 12839 H 1183.11 -5.86463 -1.5539 0
M  V30 12840 H 1181.85 -4.60104 -1.61726 0
M  V30 12841 H 1180.85 -5.47373 0.516001 0
M  V30 12842 H 1182.08 -6.76763 0.562944 0
M  V30 12843 H 1180.02 -6.35115 -1.64209 0
M  V30 12844 H 1179.94 -7.54978 -0.393012 0
M  V30 12845 H 1181.21 -7.63335 -1.57924 0
M  V30 12846 N 1185.44 -0.462799 -1.50652 0
M  V30 12847 C 1186.38 0.335664 -2.28346 0
M  V30 12848 C 1187.35 0.994541 -1.33034 0
M  V30 12849 O 1188.54 1.00857 -1.61964 0
M  V30 12850 C 1185.68 1.41648 -3.1469 0
M  V30 12851 C 1184.79 0.773207 -4.25024 0
M  V30 12852 C 1183.93 1.83121 -4.98638 0
M  V30 12853 C 1182.97 1.16774 -6.00858 0
M  V30 12854 N 1182.1 2.16823 -6.67782 0
M  V30 12855 H 1186.94 -0.333202 -2.96131 0
M  V30 12856 H 1184.48 -0.176166 -1.46041 0
M  V30 12857 H 1186.44 2.05468 -3.63096 0
M  V30 12858 H 1185.07 2.05462 -2.48968 0
M  V30 12859 H 1184.12 0.0226444 -3.80393 0
M  V30 12860 H 1185.43 0.249061 -4.98178 0
M  V30 12861 H 1184.59 2.54543 -5.5072 0
M  V30 12862 H 1183.32 2.38915 -4.25172 0
M  V30 12863 H 1182.33 0.439112 -5.48044 0
M  V30 12864 H 1183.55 0.616809 -6.76293 0
M  V30 12865 H 1181.5 2.71649 -5.97112 0
M  V30 12866 H 1181.42 1.69371 -7.36783 0
M  V30 12867 H 1182.69 2.8765 -7.24484 0
M  V30 12868 N 1186.91 1.56388 -0.195085 0
M  V30 12869 C 1187.84 2.22091 0.720971 0
M  V30 12870 C 1188.83 1.184 1.22128 0
M  V30 12871 O 1190.01 1.46907 1.27012 0
M  V30 12872 C 1187.14 2.88025 1.94059 0
M  V30 12873 C 1186.09 3.97959 1.5752 0
M  V30 12874 C 1185.42 4.51058 2.87143 0
M  V30 12875 C 1186.72 5.16365 0.785145 0
M  V30 12876 H 1188.41 2.98898 0.173245 0
M  V30 12877 H 1185.96 1.43767 0.0818868 0
M  V30 12878 H 1187.91 3.32671 2.58666 0
M  V30 12879 H 1186.64 2.08623 2.51285 0
M  V30 12880 H 1185.3 3.54004 0.952715 0
M  V30 12881 H 1184.94 3.68418 3.42458 0
M  V30 12882 H 1184.64 5.25237 2.63439 0
M  V30 12883 H 1186.17 4.98406 3.52738 0
M  V30 12884 H 1187.58 5.57556 1.33431 0
M  V30 12885 H 1185.98 5.9661 0.646231 0
M  V30 12886 H 1187.05 4.84428 -0.213789 0
M  V30 12887 N 1188.39 -0.0785156 1.57404 0
M  V30 12888 C 1189.32 -1.09446 2.06262 0
M  V30 12889 C 1190.3 -1.40777 0.954772 0
M  V30 12890 O 1191.49 -1.5052 1.22708 0
M  V30 12891 C 1188.62 -2.40979 2.50093 0
M  V30 12892 C 1187.57 -2.24017 3.64692 0
M  V30 12893 C 1186.9 -3.60873 3.94556 0
M  V30 12894 C 1188.2 -1.66696 4.94985 0
M  V30 12895 H 1189.89 -0.687928 2.9139 0
M  V30 12896 H 1187.44 -0.329466 1.4018 0
M  V30 12897 H 1189.39 -3.12337 2.82884 0
M  V30 12898 H 1188.12 -2.83599 1.61985 0
M  V30 12899 H 1186.77 -1.55101 3.32174 0
M  V30 12900 H 1186.42 -4.01051 3.0359 0
M  V30 12901 H 1186.12 -3.50365 4.71718 0
M  V30 12902 H 1187.65 -4.33673 4.29837 0
M  V30 12903 H 1189.06 -2.27913 5.2605 0
M  V30 12904 H 1187.46 -1.66902 5.76423 0
M  V30 12905 H 1188.53 -0.627827 4.80818 0
M  V30 12906 N 1189.87 -1.5367 -0.349747 0
M  V30 12907 C 1190.78 -1.84207 -1.45275 0
M  V30 12908 C 1191.8 -0.731695 -1.57868 0
M  V30 12909 O 1192.97 -1.02337 -1.73462 0
M  V30 12910 C 1190.04 -2.0398 -2.80345 0
M  V30 12911 C 1189.1 -3.27853 -2.77148 0
M  V30 12912 C 1188.33 -3.46673 -4.05775 0
M  V30 12913 O 1188.55 -2.69457 -5.02741 0
M  V30 12914 O 1187.49 -4.40082 -4.10623 0
M  V30 12915 H 1191.31 -2.77947 -1.22389 0
M  V30 12916 H 1188.9 -1.39247 -0.541345 0
M  V30 12917 H 1190.78 -2.18466 -3.60348 0
M  V30 12918 H 1189.46 -1.13429 -3.03176 0
M  V30 12919 H 1188.36 -3.18776 -1.95787 0
M  V30 12920 H 1189.7 -4.18377 -2.59271 0
M  V30 12921 N 1191.35 0.610423 -1.45298 0
M  V30 12922 C 1192.76 0.930872 -1.29642 0
M  V30 12923 C 1192.96 1.99976 -0.247358 0
M  V30 12924 O 1192.02 2.49925 0.359674 0
M  V30 12925 C 1193.33 1.37449 -2.67448 0
M  V30 12926 C 1194.88 1.48885 -2.75322 0
M  V30 12927 C 1195.36 1.96624 -4.13646 0
M  V30 12928 N 1196.85 2.03862 -4.15926 0
M  V30 12929 C 1197.58 2.42015 -5.19823 0
M  V30 12930 N 1197.08 2.79157 -6.34069 0
M  V30 12931 N 1198.87 2.42329 -5.07181 0
M  V30 12932 H 1191.02 -0.0961259 -2.12182 0
M  V30 12933 H 1193.29 0.0196483 -0.947796 0
M  V30 12934 H 1192.99 0.663276 -3.45389 0
M  V30 12935 H 1192.87 2.34155 -2.95721 0
M  V30 12936 H 1195.25 2.19098 -1.97686 0
M  V30 12937 H 1195.33 0.505006 -2.50765 0
M  V30 12938 H 1194.98 1.26998 -4.91766 0
M  V30 12939 H 1194.91 2.95917 -4.35592 0
M  V30 12940 H 1197.4 1.77759 -3.33482 0
M  V30 12941 H 1197.71 3.07143 -7.09142 0
M  V30 12942 H 1196.06 2.7686 -6.37474 0
M  V30 12943 H 1199.25 2.12717 -4.16976 0
M  V30 12944 H 1199.42 2.71738 -5.88271 0
M  V30 12945 N 1192.83 1.32541 0.852676 0
M  V30 12946 C 1194.24 1.11575 1.14119 0
M  V30 12947 C 1194.44 -0.102469 2.01239 0
M  V30 12948 O 1193.5 -0.786786 2.39929 0
M  V30 12949 C 1194.81 2.39624 1.81661 0
M  V30 12950 C 1196.36 2.454 1.94288 0
M  V30 12951 C 1196.83 3.73375 2.65245 0
M  V30 12952 N 1198.33 3.74368 2.72769 0
M  V30 12953 C 1199.06 4.70094 3.28328 0
M  V30 12954 N 1198.56 5.76187 3.84682 0
M  V30 12955 N 1200.35 4.57588 3.26449 0
M  V30 12956 H 1192.5 2.10644 0.272544 0
M  V30 12957 H 1194.76 0.930094 0.183385 0
M  V30 12958 H 1194.47 3.28698 1.25102 0
M  V30 12959 H 1194.34 2.50734 2.81802 0
M  V30 12960 H 1196.73 1.56784 2.50005 0
M  V30 12961 H 1196.81 2.38241 0.931379 0
M  V30 12962 H 1196.46 4.62366 2.10191 0
M  V30 12963 H 1196.39 3.77806 3.66838 0
M  V30 12964 H 1198.88 2.97685 2.32791 0
M  V30 12965 H 1199.19 6.45285 4.25238 0
M  V30 12966 H 1197.53 5.79939 3.83008 0
M  V30 12967 H 1200.73 3.7387 2.81672 0
M  V30 12968 H 1200.9 5.32365 3.69448 0
M  V30 12969 N 1194.3 -1.0692 1.15784 0
M  V30 12970 C 1195.58 -1.76367 0.845825 0
M  V30 12971 C 1195.96 -2.00594 -0.657672 0
M  V30 12972 O 1195.31 -1.62794 -1.60345 0
M  V30 12973 C 1195.52 -3.06913 1.66149 0
M  V30 12974 C 1196.87 -3.81181 1.87046 0
M  V30 12975 O 1197.89 -3.16737 1.62961 0
M  V30 12976 O 1196.75 -4.96936 2.27413 0
M  V30 12977 H 1193.84 -0.766095 0.311493 0
M  V30 12978 H 1196.39 -1.13246 1.26386 0
M  V30 12979 H 1195.16 -2.84924 2.68205 0
M  V30 12980 H 1194.79 -3.77767 1.24007 0
M  V30 12981 N 1195.78 -0.955326 -1.25345 0
M  V30 12982 C 1197.01 -0.627233 -1.97688 0
M  V30 12983 C 1197.43 0.793973 -1.70522 0
M  V30 12984 O 1196.79 1.537 -0.961556 0
M  V30 12985 C 1196.84 -0.892969 -3.49369 0
M  V30 12986 O 1195.94 0.0278871 -4.12391 0
M  V30 12987 H 1195.28 -0.238402 -0.619726 0
M  V30 12988 H 1197.81 -1.28211 -1.59446 0
M  V30 12989 H 1197.82 -0.819517 -3.99685 0
M  V30 12990 H 1196.5 -1.92879 -3.6847 0
M  V30 12991 H 1195.08 -0.0978295 -3.72772 0
M  V30 12992 N 1197.26 1.39987 -0.723979 0
M  V30 12993 C 1198.19 2.3332 -0.0917282 0
M  V30 12994 C 1199.17 1.53335 0.736361 0
M  V30 12995 O 1200.36 1.81771 0.683582 0
M  V30 12996 C 1197.49 3.3737 0.824549 0
M  V30 12997 C 1196.44 4.2788 0.101452 0
M  V30 12998 C 1195.77 5.22536 1.13401 0
M  V30 12999 C 1197.07 5.11649 -1.04939 0
M  V30 13000 H 1198.76 2.86441 -0.871318 0
M  V30 13001 H 1196.31 1.37725 -0.420448 0
M  V30 13002 H 1198.26 4.01607 1.27631 0
M  V30 13003 H 1196.98 2.82663 1.63613 0
M  V30 13004 H 1195.64 3.65107 -0.330569 0
M  V30 13005 H 1195.29 4.64131 1.93886 0
M  V30 13006 H 1194.99 5.83938 0.65502 0
M  V30 13007 H 1196.52 5.89651 1.58569 0
M  V30 13008 H 1197.93 5.69293 -0.6766 0
M  V30 13009 H 1196.33 5.82137 -1.45729 0
M  V30 13010 H 1197.4 4.47132 -1.8762 0
M  V30 13011 N 1198.74 0.470782 1.50404 0
M  V30 13012 C 1199.67 -0.313458 2.31386 0
M  V30 13013 C 1200.65 -0.990623 1.38278 0
M  V30 13014 O 1201.84 -0.987854 1.67198 0
M  V30 13015 C 1198.97 -1.39599 3.18009 0
M  V30 13016 C 1197.92 -0.840443 4.19667 0
M  V30 13017 C 1197.25 -2.02124 4.95025 0
M  V30 13018 C 1198.55 0.148055 5.2209 0
M  V30 13019 H 1200.24 0.362432 2.97198 0
M  V30 13020 H 1197.79 0.175745 1.42924 0
M  V30 13021 H 1199.74 -1.9521 3.73458 0
M  V30 13022 H 1198.46 -2.10064 2.50081 0
M  V30 13023 H 1197.12 -0.306302 3.65318 0
M  V30 13024 H 1196.77 -2.71286 4.23571 0
M  V30 13025 H 1196.47 -1.65574 5.6379 0
M  V30 13026 H 1197.99 -2.58226 5.5331 0
M  V30 13027 H 1199.41 -0.318874 5.72413 0
M  V30 13028 H 1197.8 0.427811 5.98573 0
M  V30 13029 H 1198.87 1.07404 4.72855 0
M  V30 13030 N 1200.22 -1.56282 0.203376 0
M  V30 13031 C 1201.46 -1.98105 -0.433844 0
M  V30 13032 C 1201.8 -1.09044 -1.60695 0
M  V30 13033 O 1201.07 -0.144193 -1.93965 0
M  V30 13034 C 1201.35 -3.4903 -0.885992 0
M  V30 13035 C 1201.21 -4.48867 0.289501 0
M  V30 13036 C 1202.53 -4.03871 -1.7486 0
M  V30 13037 H 1199.65 -0.720252 -0.156224 0
M  V30 13038 H 1202.29 -1.87681 0.295963 0
M  V30 13039 H 1200.44 -3.58045 -1.50785 0
M  V30 13040 H 1202.11 -4.51883 0.92734 0
M  V30 13041 H 1200.35 -4.23495 0.939934 0
M  V30 13042 H 1201.02 -5.51956 -0.0695128 0
M  V30 13043 H 1203.5 -3.97688 -1.22407 0
M  V30 13044 H 1202.38 -5.09827 -2.03391 0
M  V30 13045 H 1202.64 -3.49637 -2.70567 0
M  V30 13046 N 1201.7 0.070167 -1.57444 0
M  V30 13047 C 1202.94 0.767842 -1.86513 0
M  V30 13048 C 1203.26 1.78659 -0.796257 0
M  V30 13049 O 1204.46 2.53395 -0.974845 0
M  V30 13050 C 1202.92 1.41654 -3.30851 0
M  V30 13051 C 1202.53 0.436273 -4.45871 0
M  V30 13052 C 1204.27 2.09649 -3.69117 0
M  V30 13053 C 1202.18 1.09098 -5.8125 0
M  V30 13054 H 1201.11 0.290519 -0.695784 0
M  V30 13055 H 1203.76 0.0211697 -1.83488 0
M  V30 13056 H 1202.14 2.21153 -3.28493 0
M  V30 13057 H 1203.32 -0.329022 -4.59624 0
M  V30 13058 H 1201.63 -0.139314 -4.16167 0
M  V30 13059 H 1204.23 2.59411 -4.67558 0
M  V30 13060 H 1204.57 2.89663 -2.99 0
M  V30 13061 H 1205.1 1.36979 -3.73472 0
M  V30 13062 H 1201.84 0.331128 -6.54663 0
M  V30 13063 H 1201.36 1.8271 -5.71294 0
M  V30 13064 H 1203.04 1.61034 -6.2664 0
M  V30 13065 N 1203.17 1.53854 0.341593 0
M  V30 13066 C 1204.11 1.78295 1.44027 0
M  V30 13067 C 1205.12 0.664303 1.4863 0
M  V30 13068 O 1206.31 0.941073 1.51678 0
M  V30 13069 C 1203.41 1.86947 2.82673 0
M  V30 13070 C 1202.58 3.16898 3.01487 0
M  V30 13071 C 1201.64 3.16483 4.20386 0
M  V30 13072 O 1200.67 3.90197 4.14409 0
M  V30 13073 N 1201.87 2.3899 5.29022 0
M  V30 13074 H 1204.63 2.73102 1.23431 0
M  V30 13075 H 1202.19 1.52928 0.531483 0
M  V30 13076 H 1204.19 1.84118 3.60392 0
M  V30 13077 H 1202.76 0.993169 2.96403 0
M  V30 13078 H 1201.98 3.32835 2.11221 0
M  V30 13079 H 1203.26 4.02733 3.1094 0
M  V30 13080 H 1202.66 1.78657 5.36748 0
M  V30 13081 H 1201.22 2.41957 6.05227 0
M  V30 13082 N 1204.65 -0.602709 1.4562 0
M  V30 13083 C 1205.9 -1.36159 1.51103 0
M  V30 13084 C 1206.25 -1.91794 0.152552 0
M  V30 13085 O 1205.55 -1.7239 -0.836201 0
M  V30 13086 C 1205.74 -2.52474 2.52966 0
M  V30 13087 C 1205.57 -2.0823 3.98585 0
M  V30 13088 C 1204.34 -1.94175 4.66502 0
M  V30 13089 C 1206.54 -1.65402 4.86977 0
M  V30 13090 N 1204.52 -1.43792 5.96822 0
M  V30 13091 C 1205.89 -1.26469 6.06964 0
M  V30 13092 C 1207.94 -1.53038 4.73797 0
M  V30 13093 C 1206.65 -0.764065 7.1523 0
M  V30 13094 C 1208.67 -1.04379 5.82116 0
M  V30 13095 C 1208.04 -0.664136 7.01262 0
M  V30 13096 H 1204.13 -0.491974 0.607853 0
M  V30 13097 H 1206.72 -0.688472 1.82121 0
M  V30 13098 H 1204.89 -3.17375 2.23891 0
M  V30 13099 H 1206.62 -3.19369 2.48567 0
M  V30 13100 H 1203.38 -2.1551 4.21726 0
M  V30 13101 H 1203.8 -1.2082 6.66132 0
M  V30 13102 H 1208.44 -1.81014 3.82091 0
M  V30 13103 H 1206.16 -0.471858 8.06721 0
M  V30 13104 H 1209.75 -0.952316 5.73953 0
M  V30 13105 H 1208.63 -0.293412 7.83651 0
M  V30 13106 N 1206.13 -1.32992 -0.845635 0
M  V30 13107 C 1207.08 -1.22652 -1.97634 0
M  V30 13108 C 1208.07 -0.129344 -1.68905 0
M  V30 13109 O 1209.28 -0.292863 -1.77602 0
M  V30 13110 H 1205.65 -0.380439 -0.648668 0
M  V30 13111 H 1207.62 -2.18261 -2.03481 0
M  V30 13112 C 1206.37 -0.975677 -3.3373 0
M  V30 13113 H 1205.7 -1.81217 -3.56371 0
M  V30 13114 H 1207.14 -0.943608 -4.13367 0
M  V30 13115 C 1205.59 0.321491 -3.35363 0
M  V30 13116 O 1206.12 1.33042 -3.79029 0
M  V30 13117 N 1204.33 0.346648 -2.88525 0
M  V30 13118 H 1203.88 -0.474931 -2.53184 0
M  V30 13119 H 1203.84 1.2144 -2.9 0
M  V30 13120 N 1207.61 1.06304 -1.1635 0
M  V30 13121 C 1208.86 1.78487 -0.939423 0
M  V30 13122 C 1209.17 1.8817 0.533998 0
M  V30 13123 O 1210.38 2.56981 0.875962 0
M  V30 13124 C 1208.83 3.20796 -1.63149 0
M  V30 13125 C 1208.44 3.19281 -3.14267 0
M  V30 13126 C 1210.18 3.97514 -1.48938 0
M  V30 13127 C 1208.09 4.56309 -3.76213 0
M  V30 13128 H 1207.02 0.668973 -0.347837 0
M  V30 13129 H 1209.67 1.19237 -1.3948 0
M  V30 13130 H 1208.05 3.80305 -1.10382 0
M  V30 13131 H 1209.23 2.69356 -3.73877 0
M  V30 13132 H 1207.54 2.56062 -3.28362 0
M  V30 13133 H 1210.14 4.98808 -1.926 0
M  V30 13134 H 1210.48 4.13986 -0.438319 0
M  V30 13135 H 1211.02 3.44528 -1.98861 0
M  V30 13136 H 1207.75 4.45042 -4.81267 0
M  V30 13137 H 1207.27 5.06429 -3.21388 0
M  V30 13138 H 1208.95 5.25266 -3.77762 0
M  V30 13139 N 1209.09 0.96196 1.24836 0
M  V30 13140 C 1210.5 0.667561 1.44968 0
M  V30 13141 C 1210.7 -0.772521 1.86103 0
M  V30 13142 O 1209.76 -1.54704 1.99557 0
M  V30 13143 C 1211.07 1.64675 2.516 0
M  V30 13144 C 1212.62 1.65874 2.65433 0
M  V30 13145 C 1213.09 2.62576 3.75257 0
M  V30 13146 N 1214.58 2.60984 3.82677 0
M  V30 13147 C 1215.32 3.32484 4.67163 0
M  V30 13148 N 1214.82 4.13482 5.55882 0
M  V30 13149 N 1216.61 3.21336 4.61193 0
M  V30 13150 H 1208.76 1.89248 0.964307 0
M  V30 13151 H 1211.02 0.814443 0.485167 0
M  V30 13152 H 1210.73 2.67572 2.2825 0
M  V30 13153 H 1210.6 1.415 3.49653 0
M  V30 13154 H 1212.99 0.636912 2.88145 0
M  V30 13155 H 1213.07 1.9311 1.67756 0
M  V30 13156 H 1212.71 3.6489 3.53295 0
M  V30 13157 H 1212.64 2.32622 4.72435 0
M  V30 13158 H 1215.14 2.02187 3.19263 0
M  V30 13159 H 1215.45 4.6494 6.17293 0
M  V30 13160 H 1213.79 4.17578 5.55566 0
M  V30 13161 H 1216.98 2.57524 3.90895 0
M  V30 13162 H 1217.16 3.77323 5.26812 0
M  V30 13163 N 1210.56 -1.39601 0.731392 0
M  V30 13164 C 1211.53 -2.28992 0.0976037 0
M  V30 13165 C 1212.53 -1.46135 -0.670917 0
M  V30 13166 O 1213.72 -1.66856 -0.50047 0
M  V30 13167 C 1210.85 -3.29582 -0.871124 0
M  V30 13168 H 1212.04 -2.86541 0.885112 0
M  V30 13169 H 1209.59 -1.48188 0.497002 0
M  V30 13170 H 1210.33 -2.77082 -1.68512 0
M  V30 13171 H 1210.11 -3.9077 -0.322735 0
M  V30 13172 H 1211.6 -3.96479 -1.31126 0
M  V30 13173 N 1212.04 -0.478751 -1.50152 0
M  V30 13174 C 1213.29 0.073585 -2.02366 0
M  V30 13175 C 1213.62 1.3903 -1.36018 0
M  V30 13176 O 1212.87 1.89787 -0.477435 0
M  V30 13177 C 1213.17 0.297535 -3.56159 0
M  V30 13178 C 1212.84 -0.938419 -4.41027 0
M  V30 13179 C 1211.5 -1.27727 -4.63939 0
M  V30 13180 C 1213.85 -1.76098 -4.9055 0
M  V30 13181 C 1211.18 -2.4386 -5.33619 0
M  V30 13182 C 1213.53 -2.91366 -5.61506 0
M  V30 13183 C 1212.2 -3.25657 -5.8267 0
M  V30 13184 H 1211.47 0.0269267 -0.740511 0
M  V30 13185 H 1214.11 -0.63439 -1.80687 0
M  V30 13186 H 1212.42 1.08783 -3.76395 0
M  V30 13187 H 1214.11 0.73899 -3.94132 0
M  V30 13188 H 1210.7 -0.664441 -4.23418 0
M  V30 13189 H 1214.89 -1.51237 -4.72696 0
M  V30 13190 H 1210.14 -2.70692 -5.48211 0
M  V30 13191 H 1214.32 -3.55445 -5.98859 0
M  V30 13192 H 1211.95 -4.15751 -6.36439 0
M  V30 13193 N 1213.52 1.56172 -0.211661 0
M  V30 13194 C 1214.45 2.15791 0.74225 0
M  V30 13195 C 1215.43 1.0994 1.198 0
M  V30 13196 O 1216.62 1.38143 1.28253 0
M  V30 13197 C 1213.74 2.73021 2.00443 0
M  V30 13198 C 1212.79 3.91611 1.68946 0
M  V30 13199 S 1213.62 5.29139 0.822949 0
M  V30 13200 C 1214.78 5.898 2.09491 0
M  V30 13201 H 1215.01 2.96366 0.235482 0
M  V30 13202 H 1212.54 1.544 0.0035357 0
M  V30 13203 H 1214.5 3.06635 2.7292 0
M  V30 13204 H 1213.16 1.92457 2.48232 0
M  V30 13205 H 1212.36 4.30122 2.62699 0
M  V30 13206 H 1211.96 3.59093 1.04539 0
M  V30 13207 H 1214.25 6.05172 3.04587 0
M  V30 13208 H 1215.19 6.86036 1.75386 0
M  V30 13209 H 1215.6 5.18546 2.23093 0
M  V30 13210 N 1215 -0.0618163 1.57479 0
M  V30 13211 C 1216.25 -0.757569 1.87364 0
M  V30 13212 C 1216.57 -1.77607 0.805025 0
M  V30 13213 O 1215.84 -1.95202 -0.165216 0
M  V30 13214 H 1214.42 -0.28278 0.691408 0
M  V30 13215 H 1217.08 -0.0355354 1.94868 0
M  V30 13216 H 1216.18 -1.26758 2.85199 0
M  V30 13217 N 1216.48 -1.54033 -0.333429 0
M  V30 13218 C 1217.72 -1.72019 -1.07411 0
M  V30 13219 C 1218.06 -0.487265 -1.87988 0
M  V30 13220 O 1217.33 0.515757 -1.87537 0
M  V30 13221 C 1217.61 -2.98986 -2.00698 0
M  V30 13222 C 1217.47 -4.32509 -1.23517 0
M  V30 13223 C 1218.79 -3.21663 -3.00368 0
M  V30 13224 H 1215.9 -0.625919 -0.389094 0
M  V30 13225 H 1218.55 -1.86717 -0.351697 0
M  V30 13226 H 1216.7 -2.86586 -2.62298 0
M  V30 13227 H 1218.37 -4.56775 -0.644522 0
M  V30 13228 H 1216.61 -4.3046 -0.537298 0
M  V30 13229 H 1217.28 -5.17547 -1.91962 0
M  V30 13230 H 1219.76 -3.33459 -2.48886 0
M  V30 13231 H 1218.63 -4.11877 -3.62834 0
M  V30 13232 H 1218.9 -2.3843 -3.72295 0
M  V30 13233 N 1217.95 0.594978 -1.45938 0
M  V30 13234 C 1218.9 1.70489 -1.5557 0
M  V30 13235 C 1219.87 1.61193 -0.400751 0
M  V30 13236 O 1221.06 1.80587 -0.615882 0
M  V30 13237 C 1218.2 3.08817 -1.54033 0
M  V30 13238 C 1217.31 3.28827 -2.80173 0
M  V30 13239 C 1216.44 4.57333 -2.70222 0
M  V30 13240 C 1215.48 4.70644 -3.91357 0
M  V30 13241 N 1214.62 5.90463 -3.79865 0
M  V30 13242 H 1219.46 1.61593 -2.50383 0
M  V30 13243 H 1217 0.787747 -1.24229 0
M  V30 13244 H 1218.96 3.88865 -1.51129 0
M  V30 13245 H 1217.59 3.1664 -0.627617 0
M  V30 13246 H 1216.64 2.42467 -2.9311 0
M  V30 13247 H 1217.95 3.34534 -3.69985 0
M  V30 13248 H 1217.1 5.45593 -2.65354 0
M  V30 13249 H 1215.84 4.54045 -1.7803 0
M  V30 13250 H 1214.85 3.80805 -3.9657 0
M  V30 13251 H 1216.07 4.75721 -4.8463 0
M  V30 13252 H 1214.02 5.88196 -2.90451 0
M  V30 13253 H 1213.94 5.97385 -4.63322 0
M  V30 13254 H 1215.2 6.81187 -3.78952 0
M  V30 13255 N 1219.43 1.33438 0.838571 0
M  V30 13256 C 1220.38 1.23698 1.96981 0
M  V30 13257 C 1221.37 0.138299 1.68835 0
M  V30 13258 O 1222.58 0.302278 1.77444 0
M  V30 13259 H 1218.96 0.383874 0.646641 0
M  V30 13260 H 1220.93 2.19337 2.02321 0
M  V30 13261 C 1219.68 0.993362 3.33208 0
M  V30 13262 H 1219 1.83104 3.55405 0
M  V30 13263 H 1220.44 0.965517 4.1286 0
M  V30 13264 C 1218.9 -0.303701 3.35528 0
M  V30 13265 O 1219.43 -1.3103 3.79729 0
M  V30 13266 N 1217.63 -0.331342 2.88705 0
M  V30 13267 H 1217.18 0.488351 2.52929 0
M  V30 13268 H 1217.14 -1.199 2.9064 0
M  V30 13269 N 1220.91 -1.05686 1.16912 0
M  V30 13270 C 1222.16 -1.79006 0.965835 0
M  V30 13271 C 1222.51 -1.85774 -0.500593 0
M  V30 13272 O 1221.8 -1.34282 -1.3667 0
M  V30 13273 C 1222 -3.22779 1.53455 0
M  V30 13274 C 1221.83 -3.30023 3.05474 0
M  V30 13275 C 1220.6 -3.396 3.74166 0
M  V30 13276 C 1222.8 -3.19376 4.03117 0
M  V30 13277 N 1220.78 -3.35923 5.13838 0
M  V30 13278 C 1222.15 -3.23013 5.2921 0
M  V30 13279 C 1224.2 -3.03304 3.94856 0
M  V30 13280 C 1222.91 -3.12228 6.48002 0
M  V30 13281 C 1224.93 -2.93859 5.13226 0
M  V30 13282 C 1224.29 -2.98124 6.38202 0
M  V30 13283 H 1220.39 -0.667577 0.407266 0
M  V30 13284 H 1222.98 -1.26025 1.48411 0
M  V30 13285 H 1221.15 -3.74143 1.04268 0
M  V30 13286 H 1222.88 -3.8431 1.26839 0
M  V30 13287 H 1219.64 -3.44654 3.24824 0
M  V30 13288 H 1220.06 -3.37567 5.86837 0
M  V30 13289 H 1224.7 -2.98848 2.99081 0
M  V30 13290 H 1222.42 -3.15439 7.43992 0
M  V30 13291 H 1226.01 -2.82501 5.0861 0
M  V30 13292 H 1224.89 -2.90882 7.28256 0
M  V30 13293 N 1222.39 -0.968567 -1.24324 0
M  V30 13294 C 1223.8 -0.66964 -1.74278 0
M  V30 13295 C 1224.15 0.81461 -1.7849 0
M  V30 13296 O 1223.28 1.63736 -1.4149 0
M  V30 13297 C 1223.87 -1.20885 -3.165 0
M  V30 13298 C 1222.43 -0.959808 -3.63957 0
M  V30 13299 C 1221.58 -1.34365 -2.42573 0
M  V30 13300 H 1224.53 -1.14379 -1.10015 0
M  V30 13301 H 1224.55 -0.57555 -3.76122 0
M  V30 13302 H 1224.06 -2.28912 -3.13402 0
M  V30 13303 H 1222.16 0.104894 -3.72452 0
M  V30 13304 H 1222.27 -1.60606 -4.51378 0
M  V30 13305 H 1220.64 -0.762039 -2.43033 0
M  V30 13306 H 1221.42 -2.43343 -2.42155 0
M  V30 13307 N 1223.87 1.39211 -0.738786 0
M  V30 13308 C 1225.11 2.01209 -0.297722 0
M  V30 13309 C 1225.47 1.57579 1.10393 0
M  V30 13310 O 1224.76 0.796454 1.74262 0
M  V30 13311 C 1224.95 3.55758 -0.342224 0
M  V30 13312 C 1224.78 4.14393 -1.74666 0
M  V30 13313 C 1223.55 4.46814 -2.35978 0
M  V30 13314 C 1225.75 4.37672 -2.70089 0
M  V30 13315 N 1223.73 4.90973 -3.68536 0
M  V30 13316 C 1225.1 4.84077 -3.87388 0
M  V30 13317 C 1227.16 4.19746 -2.67802 0
M  V30 13318 C 1225.86 5.14436 -5.02741 0
M  V30 13319 C 1227.89 4.51221 -3.82301 0
M  V30 13320 C 1227.25 4.97836 -4.98336 0
M  V30 13321 H 1223.35 0.766427 -0.155283 0
M  V30 13322 H 1225.93 1.69071 -0.965568 0
M  V30 13323 H 1224.1 3.87276 0.295285 0
M  V30 13324 H 1225.84 4.04529 0.117748 0
M  V30 13325 H 1222.59 4.34744 -1.87869 0
M  V30 13326 H 1223.02 5.17405 -4.36602 0
M  V30 13327 H 1227.66 3.82906 -1.79284 0
M  V30 13328 H 1225.38 5.50179 -5.91886 0
M  V30 13329 H 1228.96 4.3897 -3.81834 0
M  V30 13330 H 1227.84 5.21728 -5.85465 0
M  V30 13331 N 1225.34 0.486708 1.49896 0
M  V30 13332 C 1226.28 -0.345627 2.25567 0
M  V30 13333 C 1227.26 -0.982794 1.29537 0
M  V30 13334 O 1228.44 -1.01569 1.58796 0
M  V30 13335 C 1225.57 -1.48555 3.04383 0
M  V30 13336 C 1224.61 -0.964196 4.15458 0
M  V30 13337 S 1225.45 0.133631 5.35333 0
M  V30 13338 C 1226.6 -1.00979 6.17701 0
M  V30 13339 H 1226.83 0.296677 2.95816 0
M  V30 13340 H 1224.37 0.271798 1.51989 0
M  V30 13341 H 1226.33 -2.13878 3.50381 0
M  V30 13342 H 1224.99 -2.09942 2.33631 0
M  V30 13343 H 1224.18 -1.81804 4.70067 0
M  V30 13344 H 1223.78 -0.388419 3.71978 0
M  V30 13345 H 1226.07 -1.91812 6.4978 0
M  V30 13346 H 1227.02 -0.502633 7.06314 0
M  V30 13347 H 1227.42 -1.27067 5.50013 0
M  V30 13348 N 1226.82 -1.56058 0.219941 0
M  V30 13349 C 1227.77 -2.20218 -0.690846 0
M  V30 13350 C 1228.74 -1.15725 -1.19151 0
M  V30 13351 O 1229.93 -1.44073 -1.2509 0
M  V30 13352 C 1227.07 -2.88477 -1.89408 0
M  V30 13353 C 1226.18 -4.07559 -1.43246 0
M  V30 13354 C 1225.31 -4.63605 -2.59314 0
M  V30 13355 C 1224.35 -5.74993 -2.0988 0
M  V30 13356 N 1223.49 -6.25337 -3.19214 0
M  V30 13357 H 1228.33 -2.97685 -0.136992 0
M  V30 13358 H 1225.87 -1.46994 -0.055865 0
M  V30 13359 H 1227.82 -3.26235 -2.60051 0
M  V30 13360 H 1226.45 -2.1353 -2.42084 0
M  V30 13361 H 1225.51 -3.75297 -0.621013 0
M  V30 13362 H 1226.82 -4.8805 -1.02997 0
M  V30 13363 H 1225.97 -5.03798 -3.38041 0
M  V30 13364 H 1224.71 -3.82274 -3.0285 0
M  V30 13365 H 1223.72 -5.34304 -1.29613 0
M  V30 13366 H 1224.94 -6.58158 -1.67345 0
M  V30 13367 H 1222.89 -5.4692 -3.62236 0
M  V30 13368 H 1222.8 -7.00947 -2.83213 0
M  V30 13369 H 1224.07 -6.70187 -3.98083 0
M  V30 13370 N 1228.3 0.053464 -1.57509 0
M  V30 13371 C 1229.23 1.06151 -2.07977 0
M  V30 13372 C 1230.21 1.3924 -0.977047 0
M  V30 13373 O 1231.4 1.48549 -1.25087 0
M  V30 13374 C 1228.53 2.36969 -2.53895 0
M  V30 13375 C 1227.48 2.18186 -3.6821 0
M  V30 13376 C 1226.81 3.54551 -4.00247 0
M  V30 13377 C 1228.11 1.588 -4.97574 0
M  V30 13378 H 1229.8 0.641483 -2.92447 0
M  V30 13379 H 1227.35 0.307122 -1.40687 0
M  V30 13380 H 1229.3 3.07797 -2.87817 0
M  V30 13381 H 1228.02 2.80986 -1.66476 0
M  V30 13382 H 1226.68 1.49796 -3.34599 0
M  V30 13383 H 1226.33 3.96171 -3.09932 0
M  V30 13384 H 1226.03 3.42816 -4.77232 0
M  V30 13385 H 1227.56 4.2678 -4.36682 0
M  V30 13386 H 1228.97 2.19515 -5.29609 0
M  V30 13387 H 1227.37 1.57711 -5.79006 0
M  V30 13388 H 1228.44 0.551254 -4.81756 0
M  V30 13389 N 1229.78 1.54207 0.325255 0
M  V30 13390 C 1231.01 1.76037 1.08141 0
M  V30 13391 C 1231.42 0.50816 1.82248 0
M  V30 13392 O 1230.76 -0.530709 1.75867 0
M  V30 13393 C 1230.82 2.89876 2.12632 0
M  V30 13394 C 1230.49 4.28841 1.57937 0
M  V30 13395 C 1231.48 5.09755 1.02205 0
M  V30 13396 C 1229.17 4.7538 1.62232 0
M  V30 13397 C 1231.16 6.35317 0.514929 0
M  V30 13398 C 1228.85 6.0091 1.11132 0
M  V30 13399 C 1229.85 6.80712 0.558575 0
M  V30 13400 O 1229.54 8.03881 0.05526 0
M  V30 13401 H 1229.27 0.591332 0.327571 0
M  V30 13402 H 1231.82 2.019 0.377572 0
M  V30 13403 H 1230.05 2.59581 2.86627 0
M  V30 13404 H 1231.74 2.99505 2.73955 0
M  V30 13405 H 1232.51 4.74955 0.981954 0
M  V30 13406 H 1228.39 4.1331 2.04195 0
M  V30 13407 H 1231.93 6.97551 0.0828314 0
M  V30 13408 H 1227.83 6.35201 1.14848 0
M  V30 13409 H 1228.59 8.18322 0.170842 0
M  V30 13410 N 1231.26 -0.58723 1.46251 0
M  V30 13411 C 1232.5 -1.3456 1.51327 0
M  V30 13412 C 1232.83 -1.93815 0.163146 0
M  V30 13413 O 1232.09 -1.76723 -0.840677 0
M  V30 13414 C 1232.39 -2.49776 2.5563 0
M  V30 13415 C 1232.05 -2.08543 3.99776 0
M  V30 13416 C 1230.71 -1.97013 4.39021 0
M  V30 13417 C 1233.07 -1.76669 4.90344 0
M  V30 13418 C 1230.39 -1.5186 5.66706 0
M  V30 13419 C 1232.75 -1.32996 6.18462 0
M  V30 13420 C 1231.41 -1.20039 6.56618 0
M  V30 13421 H 1230.68 -0.492391 0.553744 0
M  V30 13422 H 1233.33 -0.661715 1.79704 0
M  V30 13423 H 1231.63 -3.23592 2.20897 0
M  V30 13424 H 1233.33 -3.07995 2.56788 0
M  V30 13425 H 1229.92 -2.18451 3.68751 0
M  V30 13426 H 1234.1 -1.84465 4.60746 0
M  V30 13427 H 1229.36 -1.40467 5.95045 0
M  V30 13428 H 1233.53 -1.07385 6.88071 0
M  V30 13429 H 1231.16 -0.848268 7.55452 0
M  V30 13430 N 1232.74 -1.33881 -0.831482 0
M  V30 13431 C 1233.68 -1.24748 -1.94182 0
M  V30 13432 C 1234.65 -0.124516 -1.65633 0
M  V30 13433 O 1235.84 -0.304045 -1.88362 0
M  V30 13434 C 1232.98 -1.00016 -3.30289 0
M  V30 13435 C 1232.09 -2.21007 -3.71187 0
M  V30 13436 C 1231.23 -1.89629 -4.962 0
M  V30 13437 C 1230.26 -3.06811 -5.29654 0
M  V30 13438 N 1229.4 -2.75372 -6.45844 0
M  V30 13439 H 1234.24 -2.19709 -2.01325 0
M  V30 13440 H 1231.78 -1.09245 -0.985081 0
M  V30 13441 H 1233.74 -0.837167 -4.08714 0
M  V30 13442 H 1232.37 -0.0872582 -3.22682 0
M  V30 13443 H 1231.42 -2.48256 -2.88224 0
M  V30 13444 H 1232.73 -3.08587 -3.91887 0
M  V30 13445 H 1231.88 -1.70016 -5.82391 0
M  V30 13446 H 1230.62 -0.992964 -4.77485 0
M  V30 13447 H 1229.63 -3.27029 -4.41964 0
M  V30 13448 H 1230.85 -3.97909 -5.50314 0
M  V30 13449 H 1228.8 -1.87607 -6.28601 0
M  V30 13450 H 1228.72 -3.56483 -6.66675 0
M  V30 13451 H 1229.98 -2.59244 -7.35128 0
M  V30 13452 N 1234.21 1.05064 -1.1747 0
M  V30 13453 C 1235.46 1.77481 -0.958301 0
M  V30 13454 C 1235.78 1.88725 0.51401 0
M  V30 13455 O 1236.98 2.57895 0.848657 0
M  V30 13456 C 1235.44 3.19048 -1.66543 0
M  V30 13457 C 1235.05 3.1593 -3.17636 0
M  V30 13458 C 1236.79 3.95912 -1.53146 0
M  V30 13459 C 1234.7 4.52293 -3.81032 0
M  V30 13460 H 1233.63 0.665247 -0.354913 0
M  V30 13461 H 1236.28 1.17751 -1.40737 0
M  V30 13462 H 1234.66 3.79113 -1.1441 0
M  V30 13463 H 1235.83 2.65375 -3.76713 0
M  V30 13464 H 1234.15 2.52564 -3.31059 0
M  V30 13465 H 1236.75 4.96737 -1.9788 0
M  V30 13466 H 1237.09 4.13498 -0.482203 0
M  V30 13467 H 1237.62 3.42399 -2.02504 0
M  V30 13468 H 1234.36 4.39913 -4.8596 0
M  V30 13469 H 1233.88 5.02991 -3.26741 0
M  V30 13470 H 1235.56 5.2123 -3.83312 0
M  V30 13471 N 1235.69 0.975146 1.23809 0
M  V30 13472 C 1236.64 0.510761 2.25077 0
M  V30 13473 C 1237.61 -0.447605 1.59955 0
M  V30 13474 O 1238.79 -0.356318 1.87443 0
M  V30 13475 C 1235.93 -0.185755 3.446 0
M  V30 13476 C 1235.05 0.812254 4.24295 0
M  V30 13477 C 1234.18 0.0910835 5.31122 0
M  V30 13478 C 1233.22 1.07866 6.02521 0
M  V30 13479 N 1232.36 0.386995 7.01033 0
M  V30 13480 H 1237.2 1.37913 2.64166 0
M  V30 13481 H 1234.73 0.691184 1.2985 0
M  V30 13482 H 1236.69 -0.606341 4.1277 0
M  V30 13483 H 1235.32 -1.01803 3.06327 0
M  V30 13484 H 1234.37 1.35125 3.55592 0
M  V30 13485 H 1235.69 1.56502 4.73612 0
M  V30 13486 H 1234.84 -0.387129 6.05464 0
M  V30 13487 H 1233.58 -0.694324 4.82732 0
M  V30 13488 H 1232.58 1.56767 5.26976 0
M  V30 13489 H 1233.81 1.86464 6.52999 0
M  V30 13490 H 1231.76 -0.3793 6.54903 0
M  V30 13491 H 1231.67 1.0785 7.48268 0
M  V30 13492 H 1232.94 -0.0690036 7.79469 0
M  V30 13493 N 1237.17 -1.38817 0.746158 0
M  V30 13494 C 1238.58 -1.83045 0.367629 0
M  V30 13495 C 1238.93 -1.62285 -1.10263 0
M  V30 13496 O 1238.06 -1.12001 -1.85162 0
M  V30 13497 C 1238.65 -3.323 0.660482 0
M  V30 13498 C 1237.21 -3.74903 0.335318 0
M  V30 13499 C 1236.36 -2.61683 0.917446 0
M  V30 13500 H 1239.31 -1.27651 0.94291 0
M  V30 13501 H 1239.33 -3.80446 -0.0639061 0
M  V30 13502 H 1238.84 -3.47377 1.73062 0
M  V30 13503 H 1236.94 -3.65408 -0.728538 0
M  V30 13504 H 1237.06 -4.71932 0.825677 0
M  V30 13505 H 1235.42 -2.52376 0.343316 0
M  V30 13506 H 1236.2 -2.79563 1.99247 0
M  V30 13507 N 1238.65 -0.49465 -1.49636 0
M  V30 13508 C 1239.58 0.276606 -2.31856 0
M  V30 13509 C 1240.56 0.968499 -1.39836 0
M  V30 13510 O 1241.74 0.96113 -1.68748 0
M  V30 13511 C 1238.87 1.34522 -3.20189 0
M  V30 13512 C 1237.83 0.773571 -4.20951 0
M  V30 13513 C 1237.15 1.94223 -4.98178 0
M  V30 13514 C 1238.45 -0.231096 -5.21788 0
M  V30 13515 H 1240.15 -0.409668 -2.96584 0
M  V30 13516 H 1237.69 -0.198461 -1.42626 0
M  V30 13517 H 1239.65 1.89244 -3.76517 0
M  V30 13518 H 1238.37 2.06059 -2.53392 0
M  V30 13519 H 1237.03 0.248144 -3.65759 0
M  V30 13520 H 1236.68 2.64514 -4.27834 0
M  V30 13521 H 1236.38 1.56584 -5.66353 0
M  V30 13522 H 1237.9 2.49391 -5.57348 0
M  V30 13523 H 1239.32 0.227768 -5.72847 0
M  V30 13524 H 1237.71 -0.522984 -5.97817 0
M  V30 13525 H 1238.78 -1.14914 -4.71087 0
M  V30 13526 N 1240.13 1.55939 -0.228214 0
M  V30 13527 C 1241.06 2.2357 0.6737 0
M  V30 13528 C 1242.04 1.20964 1.1959 0
M  V30 13529 O 1243.22 1.49568 1.23867 0
M  V30 13530 C 1240.35 2.92076 1.87906 0
M  V30 13531 C 1239.31 4.01211 1.49043 0
M  V30 13532 C 1238.63 4.57047 2.77511 0
M  V30 13533 C 1239.93 5.17914 0.67544 0
M  V30 13534 H 1241.63 2.99199 0.109806 0
M  V30 13535 H 1239.17 1.43908 0.0513732 0
M  V30 13536 H 1241.12 3.38083 2.51551 0
M  V30 13537 H 1239.85 2.13906 2.46803 0
M  V30 13538 H 1238.51 3.55945 0.877411 0
M  V30 13539 H 1238.16 3.75599 3.34566 0
M  V30 13540 H 1237.86 5.30707 2.52239 0
M  V30 13541 H 1239.38 5.05776 3.42087 0
M  V30 13542 H 1240.79 5.60261 1.21575 0
M  V30 13543 H 1239.19 5.97847 0.519536 0
M  V30 13544 H 1240.26 4.83866 -0.316495 0
M  V30 13545 N 1241.6 -0.0451101 1.57535 0
M  V30 13546 C 1242.55 -1.05066 2.05499 0
M  V30 13547 C 1243.52 -1.36884 0.940843 0
M  V30 13548 O 1244.71 -1.47497 1.21034 0
M  V30 13549 C 1241.85 -2.35139 2.52594 0
M  V30 13550 C 1240.96 -2.0962 3.77735 0
M  V30 13551 C 1240.09 -3.33447 4.13505 0
M  V30 13552 C 1239.13 -3.03411 5.31609 0
M  V30 13553 N 1238.27 -4.19644 5.62888 0
M  V30 13554 H 1243.11 -0.63469 2.91163 0
M  V30 13555 H 1240.65 -0.30179 1.43971 0
M  V30 13556 H 1242.61 -3.11118 2.7796 0
M  V30 13557 H 1241.24 -2.74489 1.69869 0
M  V30 13558 H 1240.29 -1.24211 3.59549 0
M  V30 13559 H 1241.6 -1.83452 4.63839 0
M  V30 13560 H 1240.75 -4.17805 4.39914 0
M  V30 13561 H 1239.49 -3.62715 3.2602 0
M  V30 13562 H 1238.5 -2.17453 5.04969 0
M  V30 13563 H 1239.72 -2.75438 6.20734 0
M  V30 13564 H 1237.67 -4.48893 4.78363 0
M  V30 13565 H 1237.59 -3.96843 6.43468 0
M  V30 13566 H 1238.85 -5.04921 5.93865 0
M  V30 13567 N 1243.08 -1.54377 -0.317073 0
M  V30 13568 C 1244.31 -1.77184 -1.07798 0
M  V30 13569 C 1244.73 -0.52204 -1.80711 0
M  V30 13570 O 1244.09 0.52672 -1.7348 0
M  V30 13571 C 1244.14 -2.96887 -2.04671 0
M  V30 13572 O 1243.24 -2.68887 -3.12688 0
M  V30 13573 H 1242.58 -0.586937 -0.310485 0
M  V30 13574 H 1245.11 -2.01419 -0.35939 0
M  V30 13575 H 1245.12 -3.24414 -2.47426 0
M  V30 13576 H 1243.8 -3.87518 -1.51005 0
M  V30 13577 H 1242.38 -2.52329 -2.74562 0
M  V30 13578 N 1244.56 0.579466 -1.4656 0
M  V30 13579 C 1245.52 1.67033 -1.56948 0
M  V30 13580 C 1246.52 1.54481 -0.446361 0
M  V30 13581 O 1247.71 1.5904 -0.710767 0
M  V30 13582 C 1244.85 3.06474 -1.49286 0
M  V30 13583 H 1246.04 1.59179 -2.54169 0
M  V30 13584 H 1243.59 0.797573 -1.34419 0
M  V30 13585 H 1244.33 3.1988 -0.533572 0
M  V30 13586 H 1244.11 3.16993 -2.30776 0
M  V30 13587 H 1245.6 3.85879 -1.59648 0
M  V30 13588 N 1246.04 1.3432 0.824371 0
M  V30 13589 C 1246.95 1.27847 1.96704 0
M  V30 13590 C 1247.96 0.18641 1.72999 0
M  V30 13591 O 1249.14 0.412623 1.97128 0
M  V30 13592 C 1246.21 1.03231 3.30975 0
M  V30 13593 C 1245.27 2.21579 3.67697 0
M  V30 13594 C 1244.5 1.98128 4.95561 0
M  V30 13595 O 1244.72 0.938798 5.62621 0
M  V30 13596 O 1243.66 2.85041 5.30128 0
M  V30 13597 H 1247.48 2.23974 2.05108 0
M  V30 13598 H 1245.07 1.14512 0.959554 0
M  V30 13599 H 1246.95 0.912784 4.11395 0
M  V30 13600 H 1245.62 0.101425 3.23541 0
M  V30 13601 H 1244.53 2.3909 2.87727 0
M  V30 13602 H 1245.86 3.13052 3.79815 0
M  V30 13603 N 1247.52 -1.0444 1.18026 0
M  V30 13604 C 1248.93 -1.29766 0.929143 0
M  V30 13605 C 1249.13 -1.97338 -0.407436 0
M  V30 13606 O 1248.19 -2.25166 -1.14265 0
M  V30 13607 C 1249.5 -2.16002 2.09197 0
M  V30 13608 C 1251.05 -2.29361 2.12985 0
M  V30 13609 C 1251.52 -3.18962 3.28675 0
M  V30 13610 N 1253.02 -3.26549 3.28512 0
M  V30 13611 C 1253.75 -3.96025 4.14671 0
M  V30 13612 N 1253.25 -4.67863 5.10956 0
M  V30 13613 N 1255.04 -3.92266 4.02597 0
M  V30 13614 H 1247.19 -0.58984 2.04046 0
M  V30 13615 H 1249.45 -0.322752 0.891367 0
M  V30 13616 H 1249.16 -1.73653 3.05839 0
M  V30 13617 H 1249.03 -3.16667 2.04943 0
M  V30 13618 H 1251.42 -2.70948 1.16924 0
M  V30 13619 H 1251.5 -1.28299 2.21298 0
M  V30 13620 H 1251.15 -2.78087 4.25006 0
M  V30 13621 H 1251.08 -4.20047 3.17598 0
M  V30 13622 H 1253.57 -2.75371 2.58804 0
M  V30 13623 H 1253.88 -5.1846 5.73079 0
M  V30 13624 H 1252.22 -4.6678 5.14919 0
M  V30 13625 H 1255.42 -3.35273 3.26665 0
M  V30 13626 H 1255.59 -4.4614 4.69961 0
M  V30 13627 N 1248.99 -0.981699 -1.2329 0
M  V30 13628 C 1249.9 -0.531296 -2.28505 0
M  V30 13629 C 1250.92 0.414531 -1.6899 0
M  V30 13630 O 1252.1 0.284129 -1.99386 0
M  V30 13631 C 1249.16 0.157864 -3.4634 0
M  V30 13632 C 1248.22 -0.829527 -4.21209 0
M  V30 13633 C 1247.46 -0.17316 -5.33419 0
M  V30 13634 O 1247.68 1.03549 -5.60922 0
M  V30 13635 O 1246.61 -0.872385 -5.95544 0
M  V30 13636 H 1250.44 -1.40633 -2.69177 0
M  V30 13637 H 1248.02 -0.749395 -1.29246 0
M  V30 13638 H 1249.91 0.544394 -4.17869 0
M  V30 13639 H 1248.58 1.00764 -3.07617 0
M  V30 13640 H 1247.49 -1.26678 -3.51999 0
M  V30 13641 H 1248.82 -1.64815 -4.63785 0
M  V30 13642 N 1250.47 1.3842 -0.753509 0
M  V30 13643 C 1251.42 2.30457 -0.12574 0
M  V30 13644 C 1252.39 1.50173 0.709728 0
M  V30 13645 O 1253.57 1.78804 0.665872 0
M  V30 13646 C 1250.71 3.36593 0.761503 0
M  V30 13647 C 1249.83 4.31909 -0.0885848 0
M  V30 13648 C 1248.96 5.25116 0.801655 0
M  V30 13649 C 1248 6.12078 -0.0520719 0
M  V30 13650 N 1247.14 6.97583 0.795124 0
M  V30 13651 H 1251.98 2.83567 -0.916187 0
M  V30 13652 H 1249.52 1.39609 -0.463436 0
M  V30 13653 H 1251.47 3.96738 1.29054 0
M  V30 13654 H 1250.1 2.84894 1.51774 0
M  V30 13655 H 1249.16 3.73227 -0.735249 0
M  V30 13656 H 1250.47 4.93161 -0.747899 0
M  V30 13657 H 1249.62 5.90377 1.39786 0
M  V30 13658 H 1248.36 4.6423 1.4947 0
M  V30 13659 H 1247.37 5.45813 -0.660946 0
M  V30 13660 H 1248.59 6.75032 -0.742178 0
M  V30 13661 H 1246.54 6.39246 1.47312 0
M  V30 13662 H 1246.45 7.55754 0.192705 0
M  V30 13663 H 1247.72 7.67254 1.3763 0
M  V30 13664 N 1251.95 0.502579 1.49372 0
M  V30 13665 C 1252.86 -0.279532 2.32929 0
M  V30 13666 C 1253.88 -0.965806 1.44735 0
M  V30 13667 O 1255.05 -0.946839 1.77755 0
M  V30 13668 C 1252.12 -1.32913 3.20211 0
M  V30 13669 C 1251.18 -0.656121 4.24256 0
M  V30 13670 C 1250.41 -1.65571 5.07368 0
M  V30 13671 O 1250.63 -2.88571 4.92019 0
M  V30 13672 O 1249.57 -1.21016 5.89609 0
M  V30 13673 H 1253.39 0.404427 3.00995 0
M  V30 13674 H 1250.98 0.263888 1.47051 0
M  V30 13675 H 1252.86 -1.93635 3.74277 0
M  V30 13676 H 1251.54 -1.99598 2.54837 0
M  V30 13677 H 1250.44 -0.00911489 3.74099 0
M  V30 13678 H 1251.78 -0.0316802 4.9219 0
M  V30 13679 N 1253.43 -1.55816 0.23648 0
M  V30 13680 C 1254.36 -2.16945 -0.707826 0
M  V30 13681 C 1255.34 -1.11832 -1.18036 0
M  V30 13682 O 1256.52 -1.40166 -1.26039 0
M  V30 13683 C 1253.65 -2.76175 -1.96074 0
M  V30 13684 C 1252.7 -3.9425 -1.62695 0
M  V30 13685 S 1253.53 -5.30381 -0.738663 0
M  V30 13686 C 1254.69 -5.93059 -2.00081 0
M  V30 13687 H 1254.92 -2.96703 -0.188303 0
M  V30 13688 H 1252.45 -1.54386 0.0210284 0
M  V30 13689 H 1254.41 -3.10938 -2.68007 0
M  V30 13690 H 1253.07 -1.96382 -2.45138 0
M  V30 13691 H 1252.26 -4.34247 -2.55823 0
M  V30 13692 H 1251.87 -3.6071 -0.988129 0
M  V30 13693 H 1254.16 -6.09941 -2.94921 0
M  V30 13694 H 1255.1 -6.88739 -1.64449 0
M  V30 13695 H 1255.51 -5.2203 -2.14815 0
M  V30 13696 N 1254.91 0.036755 -1.57557 0
M  V30 13697 C 1255.87 1.02435 -2.05036 0
M  V30 13698 C 1256.87 1.29506 -0.953146 0
M  V30 13699 O 1258.06 1.24638 -1.217 0
M  V30 13700 C 1255.19 2.3592 -2.46079 0
M  V30 13701 H 1256.38 0.614384 -2.93539 0
M  V30 13702 H 1253.94 0.283396 -1.53709 0
M  V30 13703 H 1254.67 2.8168 -1.60708 0
M  V30 13704 H 1254.46 2.17603 -3.26177 0
M  V30 13705 H 1255.95 3.06839 -2.83266 0
M  V30 13706 N 1256.39 1.54543 0.308881 0
M  V30 13707 C 1257.61 1.77753 1.06857 0
M  V30 13708 C 1258.04 0.531616 1.80431 0
M  V30 13709 O 1257.39 -0.517513 1.73757 0
M  V30 13710 C 1257.44 2.97968 2.03094 0
M  V30 13711 O 1256.55 2.70541 3.11257 0
M  V30 13712 H 1255.89 0.588576 0.307368 0
M  V30 13713 H 1258.42 2.01607 0.348703 0
M  V30 13714 H 1258.43 3.25722 2.45702 0
M  V30 13715 H 1257.1 3.88314 1.48948 0
M  V30 13716 H 1255.68 2.53781 2.7322 0
M  V30 13717 N 1257.86 -0.571685 1.46866 0
M  V30 13718 C 1258.8 -1.69502 1.52788 0
M  V30 13719 C 1259.77 -1.58071 0.381109 0
M  V30 13720 O 1260.96 -1.79132 0.586844 0
M  V30 13721 C 1258.09 -3.07642 1.41682 0
M  V30 13722 C 1257.13 -3.37562 2.6068 0
M  V30 13723 S 1257.96 -3.28413 4.22971 0
M  V30 13724 C 1259.12 -4.69073 4.14393 0
M  V30 13725 H 1259.35 -1.64221 2.47828 0
M  V30 13726 H 1256.89 -0.751334 1.34886 0
M  V30 13727 H 1258.84 -3.8733 1.35962 0
M  V30 13728 H 1257.51 -3.10403 0.480517 0
M  V30 13729 H 1256.7 -4.38233 2.48933 0
M  V30 13730 H 1256.3 -2.65464 2.63448 0
M  V30 13731 H 1258.59 -5.59706 3.81754 0
M  V30 13732 H 1259.54 -4.85877 5.15101 0
M  V30 13733 H 1259.94 -4.4644 3.45473 0
M  V30 13734 N 1259.34 -1.34755 -0.817236 0
M  V30 13735 C 1260.29 -1.26801 -1.92848 0
M  V30 13736 C 1261.26 -0.142077 -1.65491 0
M  V30 13737 O 1262.44 -0.324006 -1.88029 0
M  V30 13738 C 1259.58 -1.03513 -3.2921 0
M  V30 13739 C 1258.7 -2.24932 -3.68822 0
M  V30 13740 C 1257.83 -1.94881 -4.94161 0
M  V30 13741 C 1256.87 -3.12411 -5.2637 0
M  V30 13742 N 1256.01 -2.82207 -6.42887 0
M  V30 13743 H 1260.85 -2.21832 -1.98983 0
M  V30 13744 H 1258.38 -1.10284 -0.973439 0
M  V30 13745 H 1260.34 -0.88047 -4.07803 0
M  V30 13746 H 1258.97 -0.121478 -3.22571 0
M  V30 13747 H 1258.02 -2.51299 -2.85575 0
M  V30 13748 H 1259.34 -3.12726 -3.88592 0
M  V30 13749 H 1258.49 -1.76184 -5.80555 0
M  V30 13750 H 1257.23 -1.04355 -4.76405 0
M  V30 13751 H 1256.23 -3.31698 -4.3847 0
M  V30 13752 H 1257.46 -4.03724 -5.46062 0
M  V30 13753 H 1255.41 -1.94263 -6.26576 0
M  V30 13754 H 1255.32 -3.63534 -6.62857 0
M  V30 13755 H 1256.59 -2.67026 -7.32337 0
M  V30 13756 N 1260.82 1.03812 -1.18578 0
M  V30 13757 C 1261.73 2.15371 -0.930182 0
M  V30 13758 C 1262.75 1.73673 0.106599 0
M  V30 13759 O 1263.92 2.01257 -0.0759054 0
M  V30 13760 C 1260.99 3.43606 -0.462151 0
M  V30 13761 C 1260.05 3.99671 -1.5672 0
M  V30 13762 C 1259.28 5.21785 -1.12141 0
M  V30 13763 O 1259.5 5.70397 0.0188357 0
M  V30 13764 O 1258.44 5.70449 -1.9202 0
M  V30 13765 H 1262.26 2.39791 -1.86371 0
M  V30 13766 H 1259.85 1.13814 -0.967819 0
M  V30 13767 H 1261.73 4.2088 -0.20934 0
M  V30 13768 H 1260.41 3.20654 0.443052 0
M  V30 13769 H 1259.31 3.23774 -1.87406 0
M  V30 13770 H 1260.65 4.2697 -2.44862 0
M  V30 13771 N 1262.3 0.988223 1.22768 0
M  V30 13772 C 1263.21 0.543407 2.2822 0
M  V30 13773 C 1264.22 -0.405563 1.69208 0
M  V30 13774 O 1265.4 -0.273551 1.99534 0
M  V30 13775 C 1262.46 -0.139495 3.46419 0
M  V30 13776 C 1261.53 0.851853 4.20764 0
M  V30 13777 C 1260.76 0.201446 5.3332 0
M  V30 13778 O 1260.98 -1.00573 5.61464 0
M  V30 13779 O 1259.92 0.903956 5.95073 0
M  V30 13780 H 1263.74 1.42059 2.68427 0
M  V30 13781 H 1261.33 0.756239 1.28846 0
M  V30 13782 H 1263.21 -0.522226 4.18152 0
M  V30 13783 H 1261.88 -0.991315 3.08147 0
M  V30 13784 H 1260.79 1.28543 3.51322 0
M  V30 13785 H 1262.12 1.67273 4.62905 0
M  V30 13786 N 1263.78 -1.38018 0.760839 0
M  V30 13787 C 1265.02 -1.99952 0.320241 0
M  V30 13788 C 1265.35 -1.60397 -1.10014 0
M  V30 13789 O 1264.61 -0.836407 -1.76926 0
M  V30 13790 C 1264.9 -3.55168 0.398778 0
M  V30 13791 C 1264.57 -4.14457 1.77585 0
M  V30 13792 C 1263.23 -4.30363 2.15269 0
M  V30 13793 C 1265.58 -4.47089 2.67883 0
M  V30 13794 C 1262.91 -4.762 3.4271 0
M  V30 13795 C 1265.26 -4.94345 3.94722 0
M  V30 13796 C 1263.93 -5.08458 4.32466 0
M  V30 13797 H 1263.2 -0.731675 0.117185 0
M  V30 13798 H 1265.85 -1.64955 0.972736 0
M  V30 13799 H 1264.15 -3.90346 -0.337273 0
M  V30 13800 H 1265.85 -4.00981 0.0393393 0
M  V30 13801 H 1262.44 -4.02496 1.47292 0
M  V30 13802 H 1266.62 -4.34395 2.40031 0
M  V30 13803 H 1261.88 -4.85312 3.71863 0
M  V30 13804 H 1266.05 -5.18563 4.64828 0
M  V30 13805 H 1263.68 -5.43735 5.31278 0
M  V30 13806 N 1265.25 -0.510493 -1.49103 0
M  V30 13807 C 1266.48 0.0271718 -2.06882 0
M  V30 13808 C 1266.9 1.2995 -1.36962 0
M  V30 13809 O 1266.25 1.76842 -0.450916 0
M  V30 13810 C 1266.3 0.274956 -3.60453 0
M  V30 13811 O 1266.03 -0.946941 -4.27744 0
M  V30 13812 C 1267.53 0.855197 -4.34973 0
M  V30 13813 H 1264.75 -0.024732 -0.670544 0
M  V30 13814 H 1267.29 -0.710567 -1.91758 0
M  V30 13815 H 1265.45 0.962696 -3.75248 0
M  V30 13816 H 1265.86 -0.715627 -5.19595 0
M  V30 13817 H 1267.33 0.978103 -5.43265 0
M  V30 13818 H 1267.81 1.85535 -3.98087 0
M  V30 13819 H 1268.42 0.204632 -4.24807 0
M  V30 13820 N 1266.73 1.55688 -0.24474 0
M  V30 13821 C 1268.15 1.59219 0.110159 0
M  V30 13822 C 1268.35 1.26187 1.57096 0
M  V30 13823 O 1267.4 1.00815 2.31501 0
M  V30 13824 C 1268.72 2.99764 -0.237075 0
M  V30 13825 C 1270.26 3.12475 -0.181198 0
M  V30 13826 C 1270.74 4.55236 -0.502435 0
M  V30 13827 N 1272.23 4.60981 -0.452855 0
M  V30 13828 C 1272.97 5.69418 -0.674605 0
M  V30 13829 N 1272.46 6.86125 -0.959366 0
M  V30 13830 N 1274.25 5.5883 -0.605459 0
M  V30 13831 H 1266.41 1.7543 -1.19741 0
M  V30 13832 H 1268.67 0.816537 -0.481634 0
M  V30 13833 H 1268.37 3.28666 -1.25185 0
M  V30 13834 H 1268.25 3.74662 0.436859 0
M  V30 13835 H 1270.64 2.83355 0.824248 0
M  V30 13836 H 1270.72 2.39857 -0.888952 0
M  V30 13837 H 1270.36 4.85077 -1.50543 0
M  V30 13838 H 1270.29 5.26111 0.226773 0
M  V30 13839 H 1272.78 3.77128 -0.241401 0
M  V30 13840 H 1273.09 7.64699 -1.11605 0
M  V30 13841 H 1271.44 6.87814 -0.996816 0
M  V30 13842 H 1274.63 4.6653 -0.383053 0
M  V30 13843 H 1274.8 6.43268 -0.781673 0
M  V30 13844 N 1268.21 -0.0283989 1.57574 0
M  V30 13845 C 1269.14 -1.02828 2.09639 0
M  V30 13846 C 1270.12 -1.37668 0.999076 0
M  V30 13847 O 1271.31 -1.4654 1.27435 0
M  V30 13848 C 1268.44 -2.329 2.57633 0
M  V30 13849 C 1267.39 -2.12301 3.71635 0
M  V30 13850 C 1266.72 -3.48138 4.05837 0
M  V30 13851 C 1268.02 -1.50864 5.00037 0
M  V30 13852 H 1269.71 -0.594876 2.93431 0
M  V30 13853 H 1267.26 -0.284701 1.41158 0
M  V30 13854 H 1269.21 -3.03179 2.92678 0
M  V30 13855 H 1267.93 -2.78302 1.70926 0
M  V30 13856 H 1266.59 -1.44454 3.3694 0
M  V30 13857 H 1266.24 -3.9119 3.16195 0
M  V30 13858 H 1265.94 -3.3518 4.82626 0
M  V30 13859 H 1267.46 -4.19779 4.43417 0
M  V30 13860 H 1268.88 -2.11062 5.33035 0
M  V30 13861 H 1267.27 -1.48479 5.81441 0
M  V30 13862 H 1268.34 -0.474541 4.82572 0
M  V30 13863 N 1269.69 -1.54705 -0.300681 0
M  V30 13864 C 1270.63 -1.85678 -1.37084 0
M  V30 13865 C 1271.6 -0.70573 -1.50362 0
M  V30 13866 O 1272.79 -0.954385 -1.65215 0
M  V30 13867 C 1269.93 -2.10995 -2.73084 0
M  V30 13868 C 1269.04 -3.38621 -2.68254 0
M  V30 13869 C 1268.18 -3.53779 -3.9625 0
M  V30 13870 C 1267.22 -4.75195 -3.85818 0
M  V30 13871 N 1266.35 -4.87157 -5.05591 0
M  V30 13872 H 1271.19 -2.76967 -1.09971 0
M  V30 13873 H 1268.73 -1.37147 -0.531887 0
M  V30 13874 H 1270.69 -2.23669 -3.52176 0
M  V30 13875 H 1269.32 -1.22973 -2.98458 0
M  V30 13876 H 1268.37 -3.34566 -1.81025 0
M  V30 13877 H 1269.68 -4.27834 -2.56436 0
M  V30 13878 H 1268.84 -3.66119 -4.83779 0
M  V30 13879 H 1267.58 -2.62699 -4.10902 0
M  V30 13880 H 1266.58 -4.62888 -2.96673 0
M  V30 13881 H 1267.81 -5.67683 -3.72711 0
M  V30 13882 H 1265.75 -3.99001 -5.20706 0
M  V30 13883 H 1265.67 -5.70372 -4.96197 0
M  V30 13884 H 1266.94 -5.03854 -5.9477 0
M  V30 13885 N 1271.17 0.563888 -1.47167 0
M  V30 13886 C 1272.08 1.69903 -1.61772 0
M  V30 13887 C 1273.09 1.6664 -0.500705 0
M  V30 13888 O 1274.27 1.86209 -0.767354 0
M  V30 13889 C 1271.33 3.06411 -1.62213 0
M  V30 13890 C 1270.39 3.20793 -2.8529 0
M  V30 13891 C 1269.63 4.50789 -2.85701 0
M  V30 13892 O 1269.85 5.3584 -1.95529 0
M  V30 13893 O 1268.78 4.68819 -3.77481 0
M  V30 13894 H 1272.61 1.60525 -2.57809 0
M  V30 13895 H 1270.2 0.733125 -1.30175 0
M  V30 13896 H 1272.08 3.87659 -1.65221 0
M  V30 13897 H 1270.75 3.16186 -0.693415 0
M  V30 13898 H 1269.66 2.38967 -2.87829 0
M  V30 13899 H 1270.99 3.15918 -3.77434 0
M  V30 13900 N 1272.64 1.35187 0.810078 0
M  V30 13901 C 1273.61 1.27698 1.90331 0
M  V30 13902 C 1274.61 0.189216 1.59683 0
M  V30 13903 O 1275.8 0.442689 1.68481 0
M  V30 13904 C 1272.93 0.974631 3.26671 0
M  V30 13905 H 1274.12 2.24902 1.98392 0
M  V30 13906 H 1271.68 1.1966 1.00554 0
M  V30 13907 H 1272.41 0.0063068 3.24299 0
M  V30 13908 H 1272.2 1.76158 3.50301 0
M  V30 13909 H 1273.69 0.947743 4.06703 0
M  V30 13910 N 1274.12 -1.03182 1.19127 0
M  V30 13911 C 1275.05 -2.13301 0.94999 0
M  V30 13912 C 1276.03 -1.69707 -0.115577 0
M  V30 13913 O 1277.22 -1.94161 0.0388395 0
M  V30 13914 C 1274.35 -3.43902 0.484637 0
M  V30 13915 C 1273.3 -4.01164 1.4917 0
M  V30 13916 C 1272.63 -5.2735 0.883537 0
M  V30 13917 C 1273.93 -4.36311 2.87107 0
M  V30 13918 H 1275.62 -2.33743 1.87095 0
M  V30 13919 H 1273.17 -1.12332 0.900977 0
M  V30 13920 H 1275.12 -4.20308 0.30315 0
M  V30 13921 H 1273.85 -3.23173 -0.471909 0
M  V30 13922 H 1272.5 -3.26849 1.66028 0
M  V30 13923 H 1272.15 -5.02936 -0.0804712 0
M  V30 13924 H 1271.85 -5.66624 1.55599 0
M  V30 13925 H 1273.38 -6.06425 0.71278 0
M  V30 13926 H 1274.79 -5.03666 2.73848 0
M  V30 13927 H 1273.19 -4.86659 3.51117 0
M  V30 13928 H 1274.26 -3.45743 3.39985 0
M  V30 13929 N 1275.6 -0.99472 -1.22242 0
M  V30 13930 C 1276.51 -0.555502 -2.27928 0
M  V30 13931 C 1277.53 0.396584 -1.6942 0
M  V30 13932 O 1278.7 0.262965 -1.99676 0
M  V30 13933 C 1275.77 0.121121 -3.46488 0
M  V30 13934 C 1274.83 -0.874155 -4.20306 0
M  V30 13935 C 1274.06 -0.229726 -5.33205 0
M  V30 13936 O 1274.28 0.975935 -5.61989 0
M  V30 13937 O 1273.22 -0.935501 -5.94586 0
M  V30 13938 H 1277.04 -1.4348 -2.6767 0
M  V30 13939 H 1274.63 -0.763061 -1.28444 0
M  V30 13940 H 1276.51 0.500043 -4.18423 0
M  V30 13941 H 1275.19 0.974959 -3.08668 0
M  V30 13942 H 1274.09 -1.30404 -3.50636 0
M  V30 13943 H 1275.43 -1.69725 -4.62011 0
M  V30 13944 N 1277.08 1.37613 -0.768148 0
M  V30 13945 C 1278.03 2.30311 -0.150176 0
M  V30 13946 C 1279 1.50918 0.69376 0
M  V30 13947 O 1280.18 1.795 0.64687 0
M  V30 13948 C 1277.32 3.37382 0.72576 0
M  V30 13949 C 1276.43 4.31791 -0.13439 0
M  V30 13950 C 1275.57 5.25937 0.745915 0
M  V30 13951 C 1274.61 6.11988 -0.116988 0
M  V30 13952 N 1273.74 6.98387 0.721091 0
M  V30 13953 H 1278.58 2.82579 -0.946212 0
M  V30 13954 H 1276.12 1.3911 -0.478217 0
M  V30 13955 H 1278.08 3.98084 1.24839 0
M  V30 13956 H 1276.71 2.86488 1.48743 0
M  V30 13957 H 1275.76 3.72426 -0.774793 0
M  V30 13958 H 1277.07 4.9234 -0.800163 0
M  V30 13959 H 1276.23 5.91826 1.33516 0
M  V30 13960 H 1274.97 4.6579 1.44538 0
M  V30 13961 H 1273.97 5.45081 -0.7188 0
M  V30 13962 H 1275.2 6.74207 -0.813732 0
M  V30 13963 H 1273.14 6.40772 1.40524 0
M  V30 13964 H 1273.06 7.55916 0.112536 0
M  V30 13965 H 1274.33 7.6867 1.29485 0
M  V30 13966 N 1278.56 0.518393 1.4883 0
M  V30 13967 C 1279.78 -0.0183131 2.07392 0
M  V30 13968 C 1280.21 -1.28468 1.37396 0
M  V30 13969 O 1279.56 -1.75975 0.436177 0
M  V30 13970 C 1279.61 -0.237211 3.59819 0
M  V30 13971 O 1278.72 -1.30835 3.91096 0
M  V30 13972 H 1278.06 0.0339621 0.663131 0
M  V30 13973 H 1280.59 0.722993 1.914 0
M  V30 13974 H 1280.6 -0.463424 4.0536 0
M  V30 13975 H 1279.27 0.687925 4.10171 0
M  V30 13976 H 1277.85 -1.06571 3.57347 0
M  V30 13977 N 1280.03 -1.55556 0.252993 0
M  V30 13978 C 1280.94 -2.25283 -0.654581 0
M  V30 13979 C 1281.96 -1.27103 -1.18831 0
M  V30 13980 O 1283.14 -1.59993 -1.22329 0
M  V30 13981 C 1280.2 -2.94336 -1.83214 0
M  V30 13982 C 1279.26 -4.0794 -1.33728 0
M  V30 13983 C 1278.5 -4.73691 -2.45871 0
M  V30 13984 O 1278.72 -4.38545 -3.64738 0
M  V30 13985 O 1277.65 -5.62083 -2.15283 0
M  V30 13986 H 1281.48 -3.03565 -0.0904091 0
M  V30 13987 H 1279.06 -1.49385 0.0212535 0
M  V30 13988 H 1280.95 -3.37808 -2.5192 0
M  V30 13989 H 1279.62 -2.18989 -2.38381 0
M  V30 13990 H 1278.53 -3.68971 -0.617323 0
M  V30 13991 H 1279.86 -4.85124 -0.831617 0
M  V30 13992 N 1281.51 0.0200419 -1.57587 0
M  V30 13993 C 1282.48 1.00255 -2.06111 0
M  V30 13994 C 1283.48 1.28488 -0.966829 0
M  V30 13995 O 1284.67 1.2334 -1.23015 0
M  V30 13996 C 1281.8 2.33296 -2.48567 0
M  V30 13997 H 1282.99 0.583216 -2.94174 0
M  V30 13998 H 1280.54 0.267077 -1.54001 0
M  V30 13999 H 1281.28 2.79959 -1.63687 0
M  V30 14000 H 1281.06 2.14131 -3.28467 0
M  V30 14001 H 1282.55 3.03817 -2.86505 0
M  V30 14002 N 1282.99 1.54862 0.292472 0
M  V30 14003 C 1284.41 1.46267 0.638611 0
M  V30 14004 C 1284.61 0.660824 1.90356 0
M  V30 14005 O 1283.66 0.171909 2.51914 0
M  V30 14006 C 1284.98 2.90309 0.783675 0
M  V30 14007 C 1286.52 3.00404 0.879004 0
M  V30 14008 C 1287 4.4566 1.056 0
M  V30 14009 N 1288.49 4.49406 1.122 0
M  V30 14010 C 1289.22 5.5899 1.2774 0
M  V30 14011 N 1288.72 6.78482 1.40123 0
M  V30 14012 N 1290.51 5.46695 1.30696 0
M  V30 14013 H 1282.66 2.0546 -0.538521 0
M  V30 14014 H 1284.93 0.930879 -0.179354 0
M  V30 14015 H 1284.63 3.5162 -0.0750437 0
M  V30 14016 H 1284.51 3.38215 1.67004 0
M  V30 14017 H 1286.89 2.39201 1.7282 0
M  V30 14018 H 1286.98 2.55781 -0.0315624 0
M  V30 14019 H 1286.62 5.07459 0.211535 0
M  V30 14020 H 1286.55 4.87921 1.98092 0
M  V30 14021 H 1289.04 3.63322 1.03948 0
M  V30 14022 H 1289.35 7.57752 1.5176 0
M  V30 14023 H 1287.7 6.81331 1.37163 0
M  V30 14024 H 1290.89 4.52288 1.20638 0
M  V30 14025 H 1291.06 6.32146 1.42463 0
M  V30 14026 N 1284.47 -0.556076 1.47464 0
M  V30 14027 C 1285.88 -0.882115 1.33007 0
M  V30 14028 C 1286.08 -1.9892 0.321407 0
M  V30 14029 O 1285.14 -2.51088 -0.266668 0
M  V30 14030 C 1286.45 -1.27428 2.72365 0
M  V30 14031 C 1288 -1.38564 2.80658 0
M  V30 14032 C 1288.48 -1.81136 4.20659 0
M  V30 14033 N 1289.97 -1.88284 4.23206 0
M  V30 14034 C 1290.7 -2.22555 5.28447 0
M  V30 14035 N 1290.2 -2.55432 6.43993 0
M  V30 14036 N 1291.99 -2.23339 5.15826 0
M  V30 14037 H 1284.14 0.17481 2.11679 0
M  V30 14038 H 1286.41 0.0155421 0.947873 0
M  V30 14039 H 1286.11 -0.53463 3.47613 0
M  V30 14040 H 1285.99 -2.23019 3.04208 0
M  V30 14041 H 1288.37 -2.1161 2.05682 0
M  V30 14042 H 1288.45 -0.411588 2.52467 0
M  V30 14043 H 1288.1 -1.08659 4.96141 0
M  V30 14044 H 1288.03 -2.79546 4.46275 0
M  V30 14045 H 1290.52 -1.65259 3.3985 0
M  V30 14046 H 1290.83 -2.80612 7.20053 0
M  V30 14047 H 1289.18 -2.5301 6.47311 0
M  V30 14048 H 1292.37 -1.97094 4.24584 0
M  V30 14049 H 1292.54 -2.49717 5.97951 0
M  V30 14050 N 1285.95 -1.35615 -0.802897 0
M  V30 14051 C 1286.89 -1.28839 -1.91492 0
M  V30 14052 C 1287.86 -0.159621 -1.65331 0
M  V30 14053 O 1289.05 -0.343931 -1.87675 0
M  V30 14054 C 1286.19 -1.06999 -3.28093 0
M  V30 14055 C 1285.3 -2.28831 -3.66416 0
M  V30 14056 C 1284.44 -2.00111 -4.92066 0
M  V30 14057 C 1283.48 -3.17977 -5.23027 0
M  V30 14058 N 1282.61 -2.89009 -6.39858 0
M  V30 14059 H 1287.45 -2.2393 -1.96619 0
M  V30 14060 H 1284.99 -1.1131 -0.961687 0
M  V30 14061 H 1286.95 -0.923673 -4.06847 0
M  V30 14062 H 1285.58 -0.155684 -3.22424 0
M  V30 14063 H 1284.63 -2.54314 -2.82893 0
M  V30 14064 H 1285.94 -3.1683 -3.85253 0
M  V30 14065 H 1285.1 -1.82331 -5.78654 0
M  V30 14066 H 1283.84 -1.09402 -4.75271 0
M  V30 14067 H 1282.84 -3.3633 -4.34928 0
M  V30 14068 H 1284.07 -4.09493 -5.41749 0
M  V30 14069 H 1282.01 -2.00898 -6.24481 0
M  V30 14070 H 1281.93 -3.70544 -6.58964 0
M  V30 14071 H 1283.2 -2.74779 -7.29463 0
M  V30 14072 N 1287.43 1.02549 -1.19673 0
M  V30 14073 C 1288.34 2.14373 -0.952972 0
M  V30 14074 C 1289.35 1.73776 0.0881727 0
M  V30 14075 O 1290.53 2.01165 -0.0972471 0
M  V30 14076 C 1287.59 3.43096 -0.498569 0
M  V30 14077 C 1286.65 3.97987 -1.60951 0
M  V30 14078 C 1285.89 5.20567 -1.17669 0
M  V30 14079 O 1286.11 5.70385 -0.0416636 0
M  V30 14080 O 1285.04 5.6838 -1.98059 0
M  V30 14081 H 1288.87 2.378 -1.88904 0
M  V30 14082 H 1286.45 1.12781 -0.979836 0
M  V30 14083 H 1288.34 4.20634 -0.253968 0
M  V30 14084 H 1287.01 3.21105 0.409018 0
M  V30 14085 H 1285.92 3.21768 -1.90829 0
M  V30 14086 H 1287.25 4.24349 -2.49377 0
M  V30 14087 N 1288.9 1.00119 1.21713 0
M  V30 14088 C 1289.83 0.578504 2.2622 0
M  V30 14089 C 1290.81 -0.398777 1.6536 0
M  V30 14090 O 1292 -0.287596 1.92059 0
M  V30 14091 C 1289.13 -0.0994508 3.47158 0
M  V30 14092 C 1288.08 0.79722 4.2051 0
M  V30 14093 C 1287.41 -0.0141125 5.34698 0
M  V30 14094 C 1288.71 2.09802 4.7831 0
M  V30 14095 H 1290.4 1.45208 2.6183 0
M  V30 14096 H 1287.95 0.699656 1.2586 0
M  V30 14097 H 1289.9 -0.406605 4.19434 0
M  V30 14098 H 1288.63 -1.00763 3.10667 0
M  V30 14099 H 1287.29 1.08814 3.50079 0
M  V30 14100 H 1286.93 -0.923468 4.9445 0
M  V30 14101 H 1286.63 0.582883 5.84702 0
M  V30 14102 H 1288.16 -0.31517 6.09786 0
M  V30 14103 H 1289.57 1.85427 5.42485 0
M  V30 14104 H 1287.97 2.64455 5.38687 0
M  V30 14105 H 1289.04 2.77132 3.97902 0
M  V30 14106 N 1290.38 -1.37203 0.775435 0
M  V30 14107 C 1291.29 -2.34019 0.165062 0
M  V30 14108 C 1292.31 -1.6036 -0.675316 0
M  V30 14109 O 1293.48 -1.9243 -0.594375 0
M  V30 14110 C 1290.55 -3.3954 -0.700957 0
M  V30 14111 C 1289.61 -4.29015 0.156304 0
M  V30 14112 C 1288.84 -5.29497 -0.668476 0
M  V30 14113 O 1289.07 -5.37636 -1.90535 0
M  V30 14114 O 1288 -6.01852 -0.0757351 0
M  V30 14115 H 1291.83 -2.87955 0.965184 0
M  V30 14116 H 1289.41 -1.39429 0.536654 0
M  V30 14117 H 1291.29 -4.04094 -1.19524 0
M  V30 14118 H 1289.97 -2.87926 -1.4792 0
M  V30 14119 H 1288.87 -3.67549 0.69703 0
M  V30 14120 H 1290.21 -4.83944 0.897725 0
M  V30 14121 N 1291.86 -0.526279 -1.48553 0
M  V30 14122 C 1292.77 0.24244 -2.33344 0
M  V30 14123 C 1293.79 0.942658 -1.46253 0
M  V30 14124 O 1294.96 0.91844 -1.79239 0
M  V30 14125 C 1292.03 1.27801 -3.22285 0
M  V30 14126 C 1291.09 0.588543 -4.25247 0
M  V30 14127 C 1290.32 1.57478 -5.09938 0
M  V30 14128 O 1290.54 2.80707 -4.96548 0
M  V30 14129 O 1289.48 1.11621 -5.9146 0
M  V30 14130 H 1293.3 -0.452262 -3.00314 0
M  V30 14131 H 1290.89 -0.287249 -1.46613 0
M  V30 14132 H 1292.77 1.87656 -3.7731 0
M  V30 14133 H 1291.45 1.95519 -2.57981 0
M  V30 14134 H 1290.35 -0.0504022 -3.74066 0
M  V30 14135 H 1291.69 -0.046627 -4.92178 0
M  V30 14136 N 1293.34 1.5542 -0.261239 0
M  V30 14137 C 1294.28 2.21972 0.632216 0
M  V30 14138 C 1295.25 1.18843 1.16041 0
M  V30 14139 O 1296.44 1.47339 1.21226 0
M  V30 14140 C 1293.58 2.93397 1.81693 0
M  V30 14141 C 1292.69 4.11214 1.3239 0
M  V30 14142 C 1291.83 4.70318 2.46931 0
M  V30 14143 C 1290.87 5.80355 1.94561 0
M  V30 14144 N 1290 6.33581 3.02523 0
M  V30 14145 H 1294.84 2.97944 0.058018 0
M  V30 14146 H 1292.38 1.4709 0.0168725 0
M  V30 14147 H 1294.34 3.33015 2.5131 0
M  V30 14148 H 1292.97 2.19874 2.36337 0
M  V30 14149 H 1292.02 3.76811 0.521292 0
M  V30 14150 H 1293.33 4.90609 0.900214 0
M  V30 14151 H 1292.49 5.12584 3.24565 0
M  V30 14152 H 1291.23 3.90169 2.92608 0
M  V30 14153 H 1290.23 5.37552 1.15402 0
M  V30 14154 H 1291.46 6.62364 1.49836 0
M  V30 14155 H 1289.4 5.56332 3.47608 0
M  V30 14156 H 1289.32 7.08209 2.64529 0
M  V30 14157 H 1290.59 6.80506 3.80174 0
M  V30 14158 N 1294.82 -0.0116844 1.57596 0
M  V30 14159 C 1295.75 -1.04043 2.03102 0
M  V30 14160 C 1296.73 -1.34164 0.918622 0
M  V30 14161 O 1297.91 -1.46527 1.18584 0
M  V30 14162 C 1295.04 -2.37094 2.41876 0
M  V30 14163 C 1294.08 -2.22713 3.63732 0
M  V30 14164 S 1294.92 -1.56416 5.12147 0
M  V30 14165 C 1296.07 -2.90921 5.5418 0
M  V30 14166 H 1296.31 -0.652899 2.90042 0
M  V30 14167 H 1293.84 -0.222201 1.52793 0
M  V30 14168 H 1295.8 -3.13602 2.64885 0
M  V30 14169 H 1294.46 -2.7299 1.55356 0
M  V30 14170 H 1293.65 -3.20976 3.88575 0
M  V30 14171 H 1293.25 -1.54349 3.40665 0
M  V30 14172 H 1295.54 -3.87237 5.55926 0
M  V30 14173 H 1296.49 -2.70792 6.54276 0
M  V30 14174 H 1296.9 -2.94293 4.81717 0
M  V30 14175 N 1296.29 -1.55015 -0.284256 0
M  V30 14176 C 1297.54 -1.7535 -1.01884 0
M  V30 14177 C 1297.87 -0.546825 -1.86342 0
M  V30 14178 O 1297.15 0.455832 -1.89083 0
M  V30 14179 C 1297.43 -3.05219 -1.91084 0
M  V30 14180 C 1297.28 -4.36219 -1.09694 0
M  V30 14181 C 1298.6 -3.31056 -2.89983 0
M  V30 14182 H 1295.72 -0.637981 -0.368984 0
M  V30 14183 H 1298.36 -1.87741 -0.292116 0
M  V30 14184 H 1296.51 -2.94786 -2.53048 0
M  V30 14185 H 1298.19 -4.58594 -0.498876 0
M  V30 14186 H 1296.43 -4.31951 -0.400078 0
M  V30 14187 H 1297.1 -5.23392 -1.75399 0
M  V30 14188 H 1299.58 -3.41209 -2.38151 0
M  V30 14189 H 1298.45 -4.23212 -3.49547 0
M  V30 14190 H 1298.71 -2.50153 -3.64521 0
M  V30 14191 N 1297.77 0.548248 -1.47757 0
M  V30 14192 C 1299 1.335 -1.58722 0
M  V30 14193 C 1299.42 1.86549 -0.241034 0
M  V30 14194 O 1298.78 1.63447 0.784517 0
M  V30 14195 C 1298.83 2.47457 -2.62293 0
M  V30 14196 O 1297.93 3.49956 -2.18185 0
M  V30 14197 H 1297.27 0.396166 -0.532868 0
M  V30 14198 H 1299.8 0.66164 -1.93607 0
M  V30 14199 H 1299.81 2.93901 -2.82995 0
M  V30 14200 H 1298.49 2.08203 -3.60034 0
M  V30 14201 H 1297.06 3.09755 -2.0762 0
M  V30 14202 N 1299.25 1.36039 0.795694 0
M  V30 14203 C 1300.18 1.32528 1.92246 0
M  V30 14204 C 1301.16 0.197805 1.68946 0
M  V30 14205 O 1302.35 0.394474 1.90151 0
M  V30 14206 C 1299.48 1.10748 3.29169 0
M  V30 14207 C 1298.43 2.20253 3.66978 0
M  V30 14208 C 1297.76 1.83624 5.02181 0
M  V30 14209 C 1299.06 3.62296 3.76216 0
M  V30 14210 H 1300.75 2.2681 1.95442 0
M  V30 14211 H 1298.3 1.09181 0.938908 0
M  V30 14212 H 1300.25 1.06929 4.07608 0
M  V30 14213 H 1298.97 0.129141 3.26345 0
M  V30 14214 H 1297.63 2.23187 2.90832 0
M  V30 14215 H 1297.28 0.843804 4.95872 0
M  V30 14216 H 1296.98 2.56935 5.28449 0
M  V30 14217 H 1298.5 1.81349 5.83048 0
M  V30 14218 H 1299.92 3.61623 4.44861 0
M  V30 14219 H 1298.31 4.34459 4.13963 0
M  V30 14220 H 1299.38 3.97657 2.77483 0
M  V30 14221 N 1300.73 -1.01913 1.20215 0
M  V30 14222 C 1301.66 -2.12282 0.97256 0
M  V30 14223 C 1302.64 -1.6982 -0.0975709 0
M  V30 14224 O 1303.82 -1.94109 0.0594307 0
M  V30 14225 C 1300.95 -3.43369 0.521085 0
M  V30 14226 C 1299.91 -3.99559 1.53417 0
M  V30 14227 C 1299.23 -5.26383 0.93942 0
M  V30 14228 C 1300.53 -4.33241 2.91718 0
M  V30 14229 H 1302.23 -2.31746 1.89563 0
M  V30 14230 H 1299.77 -1.1137 0.912841 0
M  V30 14231 H 1301.73 -4.19963 0.347713 0
M  V30 14232 H 1300.45 -3.23655 -0.437605 0
M  V30 14233 H 1299.11 -3.25069 1.69486 0
M  V30 14234 H 1298.76 -5.02993 -0.0271236 0
M  V30 14235 H 1298.46 -5.64942 1.616 0
M  V30 14236 H 1299.98 -6.05635 0.777059 0
M  V30 14237 H 1301.4 -5.00734 2.79175 0
M  V30 14238 H 1299.79 -4.82907 3.56259 0
M  V30 14239 H 1300.86 -3.42118 3.43633 0
M  V30 14240 N 1302.21 -1.00763 -1.2118 0
M  V30 14241 C 1303.14 -0.528468 -2.23024 0
M  V30 14242 C 1304.15 0.384348 -1.58198 0
M  V30 14243 O 1305.34 0.184127 -1.77548 0
M  V30 14244 C 1302.44 0.251693 -3.37964 0
M  V30 14245 C 1301.61 -0.660838 -4.32379 0
M  V30 14246 C 1300.67 0.0701723 -5.26153 0
M  V30 14247 O 1299.7 -0.549355 -5.66543 0
M  V30 14248 N 1300.9 1.34791 -5.64634 0
M  V30 14249 H 1303.67 -1.40428 -2.64764 0
M  V30 14250 H 1301.23 -0.884085 -1.3563 0
M  V30 14251 H 1303.22 0.749746 -3.97694 0
M  V30 14252 H 1301.79 1.02872 -2.95188 0
M  V30 14253 H 1301.01 -1.33934 -3.7075 0
M  V30 14254 H 1302.3 -1.28177 -4.9239 0
M  V30 14255 H 1301.69 1.87232 -5.33817 0
M  V30 14256 H 1300.25 1.79086 -6.26715 0
M  V30 14257 N 1303.68 1.3679 -0.7827 0
M  V30 14258 C 1304.59 2.33928 -0.17747 0
M  V30 14259 C 1305.61 1.60716 0.666802 0
M  V30 14260 O 1306.79 1.92742 0.584162 0
M  V30 14261 C 1303.85 3.39907 0.68294 0
M  V30 14262 C 1302.91 4.28926 -0.179053 0
M  V30 14263 C 1302.15 5.29844 0.640386 0
M  V30 14264 O 1302.37 5.38639 1.87681 0
M  V30 14265 O 1301.3 6.01884 0.0438164 0
M  V30 14266 H 1305.13 2.87439 -0.980441 0
M  V30 14267 H 1302.71 1.39142 -0.54404 0
M  V30 14268 H 1304.6 4.04722 1.17379 0
M  V30 14269 H 1303.27 2.88706 1.46391 0
M  V30 14270 H 1302.18 3.67174 -0.716512 0
M  V30 14271 H 1303.51 4.83461 -0.923377 0
M  V30 14272 N 1305.16 0.53415 1.48272 0
M  V30 14273 C 1306.11 -0.226335 2.29688 0
M  V30 14274 C 1307.08 -0.929937 1.37628 0
M  V30 14275 O 1308.26 -0.930149 1.66592 0
M  V30 14276 C 1305.4 -1.26472 3.2109 0
M  V30 14277 C 1304.52 -0.569542 4.28229 0
M  V30 14278 C 1303.65 -1.59122 5.06807 0
M  V30 14279 C 1302.69 -0.879734 6.05745 0
M  V30 14280 N 1301.83 -1.84715 6.77366 0
M  V30 14281 H 1306.67 0.474111 2.94204 0
M  V30 14282 H 1304.21 0.245643 1.45034 0
M  V30 14283 H 1306.16 -1.87911 3.72485 0
M  V30 14284 H 1304.79 -1.9335 2.58487 0
M  V30 14285 H 1303.85 0.158872 3.80068 0
M  V30 14286 H 1305.16 -0.0110904 4.98799 0
M  V30 14287 H 1304.31 -2.27977 5.62238 0
M  V30 14288 H 1303.05 -2.18357 4.36086 0
M  V30 14289 H 1302.06 -0.177134 5.49515 0
M  V30 14290 H 1303.28 -0.293439 6.78466 0
M  V30 14291 H 1301.23 -2.42851 6.09393 0
M  V30 14292 H 1301.14 -1.34025 7.44025 0
M  V30 14293 H 1302.41 -2.52756 7.37384 0
M  V30 14294 N 1306.64 -1.55279 0.269478 0
M  V30 14295 C 1307.59 -2.23723 -0.636468 0
M  V30 14296 C 1308.58 -1.23234 -1.16232 0
M  V30 14297 O 1309.79 -1.41181 -1.1166 0
M  V30 14298 H 1306.16 -0.71793 -0.223788 0
M  V30 14299 H 1308.13 -2.98378 -0.0363057 0
M  V30 14300 C 1306.88 -2.96755 -1.81195 0
M  V30 14301 H 1306.21 -3.73865 -1.4165 0
M  V30 14302 H 1307.65 -3.47975 -2.42258 0
M  V30 14303 C 1306.11 -2.01905 -2.69696 0
M  V30 14304 O 1306.64 -1.56662 -3.69892 0
M  V30 14305 N 1304.84 -1.68524 -2.36744 0
M  V30 14306 H 1304.39 -2.05512 -1.55314 0
M  V30 14307 H 1304.35 -1.05331 -2.96231 0
M  V30 14308 N 1308.12 0.00332656 -1.576 0
M  V30 14309 C 1309.4 0.725722 -1.81639 0
M  V30 14310 C 1309.78 1.92173 -0.87365 0
M  V30 14311 O 1309.12 2.28365 0.0783931 0
M  V30 14312 C 1309.33 1.13458 -3.30043 0
M  V30 14313 C 1310.68 1.53982 -3.95695 0
M  V30 14314 O 1311.71 1.22846 -3.34346 0
M  V30 14315 O 1310.56 2.11866 -5.03761 0
M  V30 14316 H 1307.66 0.353083 -0.747838 0
M  V30 14317 H 1310.2 -0.0218724 -1.69686 0
M  V30 14318 H 1308.98 0.281925 -3.90283 0
M  V30 14319 H 1308.6 1.94138 -3.46982 0
M  V30 14320 N 1309.6 1.55164 0.276031 0
M  V30 14321 C 1310.53 1.90844 1.34539 0
M  V30 14322 C 1311.51 0.769968 1.51676 0
M  V30 14323 O 1312.69 1.02785 1.64769 0
M  V30 14324 C 1309.82 2.17769 2.70543 0
M  V30 14325 C 1308.78 3.33592 2.68142 0
M  V30 14326 C 1308.1 3.45991 4.07669 0
M  V30 14327 C 1309.4 4.70064 2.27678 0
M  V30 14328 H 1311.1 2.80412 1.04926 0
M  V30 14329 H 1308.64 1.34918 0.503303 0
M  V30 14330 H 1310.6 2.41317 3.45462 0
M  V30 14331 H 1309.32 1.24997 3.01734 0
M  V30 14332 H 1307.98 3.10007 1.95681 0
M  V30 14333 H 1307.63 2.50691 4.36077 0
M  V30 14334 H 1307.33 4.23862 4.06958 0
M  V30 14335 H 1308.85 3.71828 4.84331 0
M  V30 14336 H 1310.26 4.93176 2.92319 0
M  V30 14337 H 1308.66 5.50829 2.38134 0
M  V30 14338 H 1309.73 4.69091 1.22808 0
M  V30 14339 N 1311.07 -0.540404 1.48045 0
M  V30 14340 C 1312.01 -1.66164 1.57867 0
M  V30 14341 C 1313.02 -1.56058 0.463655 0
M  V30 14342 O 1314.21 -1.62709 0.734038 0
M  V30 14343 C 1311.31 -3.04748 1.48263 0
M  V30 14344 C 1310.48 -3.40441 2.74625 0
M  V30 14345 C 1309.54 -4.58259 2.58621 0
M  V30 14346 O 1308.57 -4.62 3.32482 0
M  V30 14347 N 1309.77 -5.55794 1.67551 0
M  V30 14348 H 1312.53 -1.58179 2.54557 0
M  V30 14349 H 1310.09 -0.727441 1.44637 0
M  V30 14350 H 1312.09 -3.81425 1.35267 0
M  V30 14351 H 1310.66 -3.06868 0.595892 0
M  V30 14352 H 1309.88 -2.53044 3.02262 0
M  V30 14353 H 1311.16 -3.61069 3.58478 0
M  V30 14354 H 1310.56 -5.55541 1.06725 0
M  V30 14355 H 1309.12 -6.3173 1.60499 0
M  V30 14356 N 1312.55 -1.36459 -0.788468 0
M  V30 14357 C 1313.48 -1.33545 -1.91541 0
M  V30 14358 C 1314.46 -0.206762 -1.68839 0
M  V30 14359 O 1315.65 -0.404553 -1.89939 0
M  V30 14360 C 1312.78 -1.12492 -3.28577 0
M  V30 14361 C 1311.73 -2.22196 -3.65805 0
M  V30 14362 C 1311.06 -1.86285 -5.01201 0
M  V30 14363 C 1312.36 -3.64286 -3.7429 0
M  V30 14364 H 1314.05 -2.27844 -1.94236 0
M  V30 14365 H 1311.6 -1.09677 -0.933105 0
M  V30 14366 H 1313.55 -1.09089 -4.07035 0
M  V30 14367 H 1312.28 -0.146446 -3.26272 0
M  V30 14368 H 1310.93 -2.24727 -2.89644 0
M  V30 14369 H 1310.58 -0.87009 -4.95417 0
M  V30 14370 H 1310.28 -2.59734 -5.27079 0
M  V30 14371 H 1311.81 -1.84439 -5.82078 0
M  V30 14372 H 1313.22 -3.63977 -4.42937 0
M  V30 14373 H 1311.62 -4.36648 -4.11653 0
M  V30 14374 H 1312.69 -3.99123 -2.75371 0
M  V30 14375 N 1314.03 1.01274 -1.20754 0
M  V30 14376 C 1314.96 2.10029 -0.917628 0
M  V30 14377 C 1315.98 1.62516 0.0961411 0
M  V30 14378 O 1317.16 1.77986 -0.135371 0
M  V30 14379 C 1314.26 3.37037 -0.354891 0
M  V30 14380 C 1313.44 4.1367 -1.42113 0
M  V30 14381 C 1312.5 5.18974 -0.869023 0
M  V30 14382 O 1311.52 5.47671 -1.55063 0
M  V30 14383 N 1312.72 5.79619 0.319631 0
M  V30 14384 H 1315.49 2.35485 -1.85383 0
M  V30 14385 H 1313.05 1.17695 -1.11173 0
M  V30 14386 H 1315.04 4.0469 0.0286895 0
M  V30 14387 H 1313.61 3.088 0.485956 0
M  V30 14388 H 1312.83 3.40931 -1.97889 0
M  V30 14389 H 1314.12 4.61649 -2.13911 0
M  V30 14390 H 1313.52 5.58646 0.89059 0
M  V30 14391 H 1312.08 6.48603 0.644807 0
M  V30 14392 N 1315.51 1.01404 1.20644 0
M  V30 14393 C 1316.76 0.702949 1.90227 0
M  V30 14394 C 1317.09 -0.765243 1.78487 0
M  V30 14395 O 1316.36 -1.55569 1.16741 0
M  V30 14396 C 1316.65 1.13606 3.4171 0
M  V30 14397 C 1316.5 2.66437 3.62397 0
M  V30 14398 C 1317.82 0.705361 4.34411 0
M  V30 14399 H 1314.94 0.256842 0.690797 0
M  V30 14400 H 1317.58 1.26133 1.42093 0
M  V30 14401 H 1315.73 0.660977 3.82836 0
M  V30 14402 H 1317.4 3.21778 3.3054 0
M  V30 14403 H 1315.64 3.0753 3.05954 0
M  V30 14404 H 1316.32 2.91795 4.68572 0
M  V30 14405 H 1318.79 1.11375 4.00918 0
M  V30 14406 H 1317.67 1.03647 5.39026 0
M  V30 14407 H 1317.93 -0.393094 4.40349 0
M  V30 14408 N 1316.99 -1.36373 0.789944 0
M  V30 14409 C 1317.92 -2.2873 0.146642 0
M  V30 14410 C 1318.93 -1.49503 -0.644419 0
M  V30 14411 O 1320.12 -1.71939 -0.479515 0
M  V30 14412 C 1317.22 -3.28945 -0.815369 0
M  V30 14413 C 1316.39 -4.37337 -0.0742515 0
M  V30 14414 C 1315.45 -5.17511 -0.952284 0
M  V30 14415 O 1314.48 -5.67726 -0.409336 0
M  V30 14416 N 1315.68 -5.34001 -2.27648 0
M  V30 14417 H 1318.45 -2.84578 0.939978 0
M  V30 14418 H 1316.01 -1.48545 0.643898 0
M  V30 14419 H 1318 -3.79469 -1.40661 0
M  V30 14420 H 1316.57 -2.73734 -1.50958 0
M  V30 14421 H 1315.79 -3.8797 0.698068 0
M  V30 14422 H 1317.08 -5.06919 0.437148 0
M  V30 14423 H 1316.48 -4.94819 -2.74173 0
M  V30 14424 H 1315.03 -5.87766 -2.81735 0
M  V30 14425 N 1318.47 -0.542005 -1.47987 0
M  V30 14426 C 1319.43 0.203537 -2.28294 0
M  V30 14427 C 1320.43 0.856762 -1.36074 0
M  V30 14428 O 1321.62 0.71496 -1.58852 0
M  V30 14429 C 1318.75 1.29581 -3.15312 0
M  V30 14430 H 1319.94 -0.501701 -2.95674 0
M  V30 14431 H 1317.5 -0.298378 -1.53426 0
M  V30 14432 H 1318.23 2.03393 -2.5259 0
M  V30 14433 H 1318.02 0.832398 -3.83163 0
M  V30 14434 H 1319.51 1.81988 -3.75859 0
M  V30 14435 N 1319.94 1.55134 -0.277709 0
M  V30 14436 C 1320.85 2.26296 0.618658 0
M  V30 14437 C 1321.87 1.28978 1.16794 0
M  V30 14438 O 1323.05 1.61918 1.19768 0
M  V30 14439 C 1320.11 2.97214 1.78508 0
M  V30 14440 C 1319.17 4.10016 1.27221 0
M  V30 14441 C 1318.4 4.77543 2.38304 0
M  V30 14442 O 1318.63 4.44293 3.57715 0
M  V30 14443 O 1317.56 5.65437 2.06313 0
M  V30 14444 H 1321.39 3.03671 0.0421031 0
M  V30 14445 H 1318.97 1.49332 -0.0450166 0
M  V30 14446 H 1320.85 3.41773 2.46513 0
M  V30 14447 H 1319.53 2.22753 2.34867 0
M  V30 14448 H 1318.44 3.69907 0.558544 0
M  V30 14449 H 1319.77 4.86385 0.754333 0
M  V30 14450 N 1321.42 0.00503138 1.57599 0
M  V30 14451 C 1322.35 -1.01302 2.05598 0
M  V30 14452 C 1323.37 -1.30388 0.974829 0
M  V30 14453 O 1324.56 -1.27275 1.25153 0
M  V30 14454 C 1321.66 -2.34654 2.44522 0
M  V30 14455 C 1320.83 -2.24436 3.7543 0
M  V30 14456 C 1319.89 -3.40517 4.01166 0
M  V30 14457 O 1318.91 -3.18479 4.71762 0
M  V30 14458 N 1320.12 -4.63532 3.49454 0
M  V30 14459 H 1322.88 -0.603656 2.93558 0
M  V30 14460 H 1320.44 -0.182248 1.60871 0
M  V30 14461 H 1322.43 -3.11093 2.5885 0
M  V30 14462 H 1321 -2.67315 1.62055 0
M  V30 14463 H 1320.22 -1.32875 3.71131 0
M  V30 14464 H 1321.51 -2.14786 4.61242 0
M  V30 14465 H 1320.91 -4.84334 2.92296 0
M  V30 14466 H 1319.47 -5.37221 3.69103 0
M  V30 14467 N 1322.9 -1.55308 -0.267798 0
M  V30 14468 C 1324.18 -1.66881 -1.02029 0
M  V30 14469 C 1324.56 -0.538708 -2.04111 0
M  V30 14470 O 1323.9 0.460575 -2.2381 0
M  V30 14471 C 1324.11 -3.06318 -1.67243 0
M  V30 14472 C 1325.46 -3.64237 -2.18212 0
M  V30 14473 O 1326.49 -3.08984 -1.77221 0
M  V30 14474 O 1325.35 -4.61055 -2.93413 0
M  V30 14475 H 1322.44 -0.677967 -0.473593 0
M  V30 14476 H 1324.99 -1.67646 -0.263242 0
M  V30 14477 H 1323.76 -3.80015 -0.932985 0
M  V30 14478 H 1323.38 -3.09475 -2.49622 0
M  V30 14479 N 1324.38 0.532545 -1.4833 0
M  V30 14480 C 1325.33 1.65832 -1.63103 0
M  V30 14481 C 1326.32 1.61929 -0.497538 0
M  V30 14482 O 1327.53 1.66817 -0.676176 0
M  V30 14483 H 1323.9 0.549152 -0.513748 0
M  V30 14484 H 1325.87 1.50515 -2.57658 0
M  V30 14485 C 1324.62 3.04113 -1.68555 0
M  V30 14486 H 1323.94 3.07809 -2.55135 0
M  V30 14487 H 1325.38 3.82506 -1.82936 0
M  V30 14488 C 1323.84 3.34225 -0.423711 0
M  V30 14489 O 1324.37 3.99005 0.464523 0
M  V30 14490 N 1322.58 2.89087 -0.296192 0
M  V30 14491 H 1322.13 2.36547 -1.01997 0
M  V30 14492 H 1322.08 3.09604 0.547082 0
M  V30 14493 N 1325.86 1.36875 0.78122 0
M  V30 14494 C 1326.79 1.34559 1.9083 0
M  V30 14495 C 1327.77 0.215713 1.68727 0
M  V30 14496 O 1328.95 0.41462 1.89722 0
M  V30 14497 C 1326.08 1.14233 3.27976 0
M  V30 14498 C 1325.04 2.24132 3.64621 0
M  V30 14499 C 1324.36 1.8894 5.00206 0
M  V30 14500 C 1325.66 3.66266 3.72353 0
M  V30 14501 H 1327.36 2.28871 1.93025 0
M  V30 14502 H 1324.9 1.10171 0.927275 0
M  V30 14503 H 1326.85 1.11246 4.06451 0
M  V30 14504 H 1325.58 0.163747 3.26189 0
M  V30 14505 H 1324.24 2.26259 2.88448 0
M  V30 14506 H 1323.89 0.896351 4.94949 0
M  V30 14507 H 1323.59 2.62525 5.25694 0
M  V30 14508 H 1325.11 1.87523 5.81092 0
M  V30 14509 H 1326.52 3.66321 4.41001 0
M  V30 14510 H 1324.92 4.38825 4.09332 0
M  V30 14511 H 1325.99 4.00578 2.7325 0
M  V30 14512 N 1327.33 -1.00632 1.21289 0
M  V30 14513 C 1328.3 -2.07543 0.972548 0
M  V30 14514 C 1329.3 -1.60703 -0.0559244 0
M  V30 14515 O 1330.49 -1.73255 0.181213 0
M  V30 14516 C 1327.62 -3.37696 0.466297 0
M  V30 14517 H 1328.81 -2.30298 1.92101 0
M  V30 14518 H 1326.36 -1.17588 1.02969 0
M  V30 14519 H 1327.1 -3.2062 -0.487148 0
M  V30 14520 H 1326.88 -3.73024 1.20813 0
M  V30 14521 H 1328.37 -4.16388 0.317962 0
M  V30 14522 N 1328.81 -1.02043 -1.20104 0
M  V30 14523 C 1330.09 -0.626922 -1.85281 0
M  V30 14524 C 1330.47 0.894819 -1.91197 0
M  V30 14525 O 1329.82 1.7881 -1.42265 0
M  V30 14526 C 1330.03 -1.27917 -3.24713 0
M  V30 14527 C 1331.37 -1.39704 -4.00959 0
M  V30 14528 O 1332.4 -1.23568 -3.3408 0
M  V30 14529 O 1331.26 -1.65814 -5.20738 0
M  V30 14530 H 1328.35 -0.216815 -0.798073 0
M  V30 14531 H 1330.9 -1.11804 -1.27663 0
M  V30 14532 H 1329.67 -2.3188 -3.15194 0
M  V30 14533 H 1329.29 -0.775371 -3.89966 0
M  V30 14534 N 1330.29 1.35952 -0.797165 0
M  V30 14535 C 1331.25 2.28266 -0.206748 0
M  V30 14536 C 1332.25 1.49169 0.60043 0
M  V30 14537 O 1333.44 1.69054 0.42029 0
M  V30 14538 C 1330.58 3.33363 0.712884 0
M  V30 14539 H 1331.77 2.81992 -1.02082 0
M  V30 14540 H 1329.32 1.45648 -0.567138 0
M  V30 14541 H 1330.06 2.84806 1.551 0
M  V30 14542 H 1329.84 3.91864 0.135926 0
M  V30 14543 H 1331.33 4.02284 1.1206 0
M  V30 14544 N 1331.77 0.549846 1.47697 0
M  V30 14545 C 1332.68 -0.205286 2.337 0
M  V30 14546 C 1333.69 -0.919271 1.47734 0
M  V30 14547 O 1334.87 -0.889808 1.80678 0
M  V30 14548 C 1331.94 -1.22658 3.24278 0
M  V30 14549 C 1331 -0.520815 4.26129 0
M  V30 14550 C 1330.23 -1.49345 5.12378 0
M  V30 14551 O 1330.45 -2.72772 5.00951 0
M  V30 14552 O 1329.39 -1.02197 5.93161 0
M  V30 14553 H 1333.21 0.499982 2.99556 0
M  V30 14554 H 1330.8 0.310538 1.46137 0
M  V30 14555 H 1332.68 -1.8163 3.80248 0
M  V30 14556 H 1331.35 -1.9139 2.61059 0
M  V30 14557 H 1330.26 0.109906 3.73939 0
M  V30 14558 H 1331.59 0.124922 4.92041 0
M  V30 14559 N 1333.25 -1.54984 0.285932 0
M  V30 14560 C 1334.16 -2.26621 -0.606648 0
M  V30 14561 C 1335.17 -1.29595 -1.16108 0
M  V30 14562 O 1336.35 -1.62551 -1.18908 0
M  V30 14563 C 1333.41 -2.98156 -1.76929 0
M  V30 14564 C 1332.47 -4.10685 -1.25045 0
M  V30 14565 C 1331.71 -4.788 -2.35768 0
M  V30 14566 O 1331.93 -4.46183 -3.55354 0
M  V30 14567 O 1330.86 -5.66523 -2.03312 0
M  V30 14568 H 1334.69 -3.03689 -0.0259981 0
M  V30 14569 H 1332.28 -1.49306 0.0529355 0
M  V30 14570 H 1334.16 -3.43076 -2.44697 0
M  V30 14571 H 1332.83 -2.23996 -2.33683 0
M  V30 14572 H 1331.74 -3.70198 -0.538919 0
M  V30 14573 H 1333.07 -4.86778 -0.728528 0
M  V30 14574 N 1334.72 -0.0133892 -1.57594 0
M  V30 14575 C 1336.14 0.342848 -1.55874 0
M  V30 14576 C 1336.34 1.73928 -1.01742 0
M  V30 14577 O 1335.4 2.43798 -0.657158 0
M  V30 14578 C 1336.71 0.205831 -2.99995 0
M  V30 14579 C 1338.26 0.279774 -3.11747 0
M  V30 14580 C 1338.73 0.171729 -4.57678 0
M  V30 14581 N 1340.22 0.22921 -4.62633 0
M  V30 14582 C 1340.96 0.169153 -5.7315 0
M  V30 14583 N 1340.45 0.0589166 -6.92775 0
M  V30 14584 N 1342.25 0.221995 -5.61661 0
M  V30 14585 H 1334.4 -0.926727 -1.91117 0
M  V30 14586 H 1336.66 -0.356466 -0.878428 0
M  V30 14587 H 1336.37 -0.755482 -3.4349 0
M  V30 14588 H 1336.24 0.982476 -3.6418 0
M  V30 14589 H 1338.63 1.23154 -2.68174 0
M  V30 14590 H 1338.71 -0.526974 -2.50313 0
M  V30 14591 H 1338.35 -0.776547 -5.01928 0
M  V30 14592 H 1338.28 0.997138 -5.17073 0
M  V30 14593 H 1340.77 0.315196 -3.76583 0
M  V30 14594 H 1341.09 0.0193526 -7.72798 0
M  V30 14595 H 1339.43 0.0243543 -6.94996 0
M  V30 14596 H 1342.62 0.306406 -4.67096 0
M  V30 14597 H 1342.8 0.171727 -6.47772 0
M  V30 14598 N 1336.2 1.55448 0.259558 0
M  V30 14599 C 1337.44 1.78444 0.996849 0
M  V30 14600 C 1337.81 0.580862 1.83003 0
M  V30 14601 O 1339.01 0.68934 2.59811 0
M  V30 14602 C 1337.28 3.06094 1.84502 0
M  V30 14603 S 1338.84 3.50263 2.64313 0
M  V30 14604 H 1335.66 0.626854 0.335523 0
M  V30 14605 H 1338.26 1.93683 0.265929 0
M  V30 14606 H 1336.96 3.91772 1.22241 0
M  V30 14607 H 1336.49 2.93558 2.61891 0
M  V30 14608 H 1338.51 3.10596 3.86968 0
M  V30 14609 N 1337.68 -0.524672 1.4861 0
M  V30 14610 C 1338.96 -1.28592 1.47389 0
M  V30 14611 C 1339.34 -2.10257 0.188482 0
M  V30 14612 O 1338.69 -2.12905 -0.829689 0
M  V30 14613 C 1338.9 -2.16284 2.73902 0
M  V30 14614 C 1340.24 -2.7625 3.22445 0
M  V30 14615 O 1341.27 -2.26567 2.74856 0
M  V30 14616 O 1340.13 -3.66635 4.05267 0
M  V30 14617 H 1337.22 -0.580666 0.58886 0
M  V30 14618 H 1339.77 -0.540888 1.60849 0
M  V30 14619 H 1338.54 -1.55757 3.58964 0
M  V30 14620 H 1338.16 -2.98024 2.63188 0
M  V30 14621 N 1339.16 -1.37287 -0.77395 0
M  V30 14622 C 1340.09 -1.28746 -1.89624 0
M  V30 14623 C 1341.1 -0.203715 -1.6152 0
M  V30 14624 O 1342.29 -0.459684 -1.72479 0
M  V30 14625 C 1339.39 -0.967342 -3.24801 0
M  V30 14626 C 1338.57 -2.1561 -3.80567 0
M  V30 14627 C 1337.62 -1.80661 -4.94215 0
M  V30 14628 O 1336.65 -2.5293 -5.09917 0
M  V30 14629 N 1337.85 -0.749424 -5.75642 0
M  V30 14630 H 1340.62 -2.25447 -1.97468 0
M  V30 14631 H 1338.18 -1.30883 -0.952956 0
M  V30 14632 H 1340.17 -0.714421 -3.98344 0
M  V30 14633 H 1338.74 -0.0889573 -3.12473 0
M  V30 14634 H 1337.96 -2.57091 -2.98828 0
M  V30 14635 H 1339.25 -2.94993 -4.14556 0
M  V30 14636 H 1338.65 -0.149673 -5.65502 0
M  V30 14637 H 1337.2 -0.556358 -6.49421 0
M  V30 14638 N 1340.64 0.999871 -1.21821 0
M  V30 14639 C 1341.57 2.10708 -1.00621 0
M  V30 14640 C 1342.55 1.69954 0.0705417 0
M  V30 14641 O 1343.73 1.9399 -0.0903042 0
M  V30 14642 C 1340.86 3.42496 -0.575646 0
M  V30 14643 C 1339.82 3.97068 -1.59754 0
M  V30 14644 C 1339.14 5.24822 -1.02304 0
M  V30 14645 C 1340.44 4.28545 -2.98574 0
M  V30 14646 H 1342.14 2.28701 -1.93226 0
M  V30 14647 H 1339.68 1.09903 -0.930443 0
M  V30 14648 H 1341.64 4.19357 -0.414481 0
M  V30 14649 H 1340.36 3.2431 0.386059 0
M  V30 14650 H 1339.02 3.22332 -1.74636 0
M  V30 14651 H 1338.67 5.02972 -0.0529016 0
M  V30 14652 H 1338.37 5.62299 -1.70567 0
M  V30 14653 H 1339.89 6.04322 -0.873312 0
M  V30 14654 H 1341.3 4.96229 -2.87106 0
M  V30 14655 H 1339.7 4.77178 -3.63897 0
M  V30 14656 H 1340.77 3.36607 -3.49032 0
M  V30 14657 N 1342.11 1.02678 1.19562 0
M  V30 14658 C 1343.36 0.717279 1.88515 0
M  V30 14659 C 1343.68 -0.757063 1.80355 0
M  V30 14660 O 1344.88 -1.17953 2.44539 0
M  V30 14661 C 1343.34 1.23265 3.38133 0
M  V30 14662 C 1342.95 2.73462 3.54856 0
M  V30 14663 C 1344.69 0.99904 4.12577 0
M  V30 14664 C 1342.6 3.18428 4.98355 0
M  V30 14665 H 1341.53 0.264608 0.706044 0
M  V30 14666 H 1344.18 1.2408 1.3519 0
M  V30 14667 H 1342.56 0.637052 3.90842 0
M  V30 14668 H 1343.73 3.38659 3.12485 0
M  V30 14669 H 1342.05 2.95079 2.93798 0
M  V30 14670 H 1344.65 1.3103 5.18397 0
M  V30 14671 H 1344.99 -0.064217 4.1625 0
M  V30 14672 H 1345.52 1.55853 3.65998 0
M  V30 14673 H 1342.26 4.24074 4.99842 0
M  V30 14674 H 1341.78 2.57958 5.41496 0
M  V30 14675 H 1343.46 3.11649 5.66996 0
M  V30 14676 N 1343.59 -1.35528 0.804364 0
M  V30 14677 C 1344.54 -2.29832 0.211186 0
M  V30 14678 C 1345.51 -1.52704 -0.653503 0
M  V30 14679 O 1346.69 -1.81152 -0.599052 0
M  V30 14680 C 1343.83 -3.39188 -0.636054 0
M  V30 14681 C 1342.95 -4.31283 0.248824 0
M  V30 14682 C 1342.08 -5.2773 -0.60621 0
M  V30 14683 C 1341.12 -6.11463 0.279205 0
M  V30 14684 N 1340.26 -7.00054 -0.535672 0
M  V30 14685 H 1345.1 -2.79971 1.0208 0
M  V30 14686 H 1342.64 -1.37793 0.514931 0
M  V30 14687 H 1344.59 -4.01254 -1.14241 0
M  V30 14688 H 1343.22 -2.90331 -1.41095 0
M  V30 14689 H 1342.28 -3.70241 0.873263 0
M  V30 14690 H 1343.59 -4.90046 0.930417 0
M  V30 14691 H 1342.74 -5.95158 -1.17778 0
M  V30 14692 H 1341.48 -4.69458 -1.32138 0
M  V30 14693 H 1340.49 -5.42984 0.863066 0
M  V30 14694 H 1341.71 -6.71813 0.9922 0
M  V30 14695 H 1339.66 -6.44273 -1.23486 0
M  V30 14696 H 1339.57 -7.55949 0.0879213 0
M  V30 14697 H 1340.84 -7.71833 -1.09059 0
M  V30 14698 N 1345.07 -0.557671 -1.47404 0
M  V30 14699 C 1346.02 0.202834 -2.31714 0
M  V30 14700 C 1347.01 0.908873 -1.42954 0
M  V30 14701 O 1348.22 0.830106 -1.59716 0
M  V30 14702 H 1344.59 0.0842824 -0.747262 0
M  V30 14703 H 1346.57 -0.527431 -2.93702 0
M  V30 14704 C 1345.31 1.21937 -3.25617 0
M  V30 14705 H 1344.64 0.685506 -3.93879 0
M  V30 14706 H 1346.08 1.72237 -3.87441 0
M  V30 14707 C 1344.54 2.26748 -2.49173 0
M  V30 14708 O 1345.07 3.33681 -2.23651 0
M  V30 14709 N 1343.27 2.00687 -2.10174 0
M  V30 14710 H 1342.82 1.13741 -2.3113 0
M  V30 14711 H 1342.78 2.71031 -1.59342 0
M  V30 14712 N 1346.55 1.54831 -0.294147 0
M  V30 14713 C 1347.5 2.23263 0.58499 0
M  V30 14714 C 1348.47 1.21278 1.13494 0
M  V30 14715 O 1349.65 1.49878 1.18073 0
M  V30 14716 C 1346.79 2.97185 1.75429 0
M  V30 14717 C 1345.9 4.1393 1.23638 0
M  V30 14718 C 1345.04 4.7545 2.36899 0
M  V30 14719 C 1344.08 5.84352 1.82207 0
M  V30 14720 N 1343.22 6.39855 2.89015 0
M  V30 14721 H 1348.06 2.98 -0.00519329 0
M  V30 14722 H 1345.59 1.47093 -0.0143313 0
M  V30 14723 H 1347.55 3.38271 2.4419 0
M  V30 14724 H 1346.18 2.24837 2.3162 0
M  V30 14725 H 1345.23 3.77832 0.441247 0
M  V30 14726 H 1346.54 4.92409 0.795946 0
M  V30 14727 H 1345.7 5.19353 3.1362 0
M  V30 14728 H 1344.44 3.96288 2.84266 0
M  V30 14729 H 1343.44 5.39879 1.03974 0
M  V30 14730 H 1344.67 6.65393 1.35753 0
M  V30 14731 H 1342.61 5.6358 3.35729 0
M  V30 14732 H 1342.53 7.13661 2.49447 0
M  V30 14733 H 1343.8 6.88417 3.65654 0
M  V30 14734 N 1348.03 0.0217466 1.57585 0
M  V30 14735 C 1349.28 -0.657793 1.90672 0
M  V30 14736 C 1349.59 -1.73713 0.899066 0
M  V30 14737 O 1350.8 -2.4728 1.12092 0
M  V30 14738 C 1349.25 -1.22124 3.38547 0
M  V30 14739 C 1348.86 -0.175575 4.47656 0
M  V30 14740 C 1350.6 -1.87771 3.80713 0
M  V30 14741 C 1348.51 -0.750239 5.86622 0
M  V30 14742 H 1347.44 -0.249459 0.711538 0
M  V30 14743 H 1350.09 0.0858449 1.83299 0
M  V30 14744 H 1348.47 -2.01625 3.40828 0
M  V30 14745 H 1349.65 0.596436 4.56924 0
M  V30 14746 H 1347.96 0.381715 4.14647 0
M  V30 14747 H 1350.56 -2.3171 4.81887 0
M  V30 14748 H 1350.9 -2.71737 3.1538 0
M  V30 14749 H 1351.44 -1.14971 3.80823 0
M  V30 14750 H 1348.17 0.0511222 6.5548 0
M  V30 14751 H 1347.69 -1.49091 5.80975 0
M  V30 14752 H 1349.37 -1.24225 6.34962 0
M  V30 14753 N 1349.51 -1.55583 -0.251311 0
M  V30 14754 C 1350.44 -1.86388 -1.33387 0
M  V30 14755 C 1351.45 -0.749829 -1.44504 0
M  V30 14756 O 1352.64 -1.0279 -1.45933 0
M  V30 14757 C 1349.74 -2.0311 -2.71293 0
M  V30 14758 C 1348.91 -3.33937 -2.82498 0
M  V30 14759 C 1347.97 -3.40455 -4.01219 0
M  V30 14760 O 1347 -4.13695 -3.90954 0
M  V30 14761 N 1348.2 -2.69427 -5.14188 0
M  V30 14762 H 1350.96 -2.79834 -1.07298 0
M  V30 14763 H 1348.53 -1.55766 -0.441418 0
M  V30 14764 H 1350.52 -2.04817 -3.49045 0
M  V30 14765 H 1349.09 -1.16429 -2.90109 0
M  V30 14766 H 1348.31 -3.44584 -1.91456 0
M  V30 14767 H 1349.6 -4.20176 -2.86931 0
M  V30 14768 H 1348.99 -2.09647 -5.25419 0
M  V30 14769 H 1347.55 -2.76832 -5.90091 0
M  V30 14770 N 1350.98 0.516783 -1.48886 0
M  V30 14771 C 1351.91 1.62897 -1.67292 0
M  V30 14772 C 1352.89 1.61903 -0.521671 0
M  V30 14773 O 1354.08 1.78892 -0.755728 0
M  V30 14774 C 1351.21 3.01444 -1.72478 0
M  V30 14775 C 1350.16 3.173 -2.87236 0
M  V30 14776 C 1349.49 4.5704 -2.77522 0
M  V30 14777 C 1350.79 2.98818 -4.28375 0
M  V30 14778 H 1352.48 1.47748 -2.60405 0
M  V30 14779 H 1350.03 0.709361 -1.25316 0
M  V30 14780 H 1351.98 3.79135 -1.83942 0
M  V30 14781 H 1350.71 3.17645 -0.759538 0
M  V30 14782 H 1349.37 2.4203 -2.75349 0
M  V30 14783 H 1349.01 4.70096 -1.78938 0
M  V30 14784 H 1348.71 4.68593 -3.54534 0
M  V30 14785 H 1350.24 5.36813 -2.90972 0
M  V30 14786 H 1351.65 3.66291 -4.41026 0
M  V30 14787 H 1350.05 3.21854 -5.06488 0
M  V30 14788 H 1351.12 1.95102 -4.43918 0
M  V30 14789 N 1352.46 1.37696 0.766659 0
M  V30 14790 C 1353.37 1.36075 1.91104 0
M  V30 14791 C 1354.39 0.259617 1.72052 0
M  V30 14792 O 1355.56 0.49586 1.952 0
M  V30 14793 C 1352.63 1.17176 3.26298 0
M  V30 14794 C 1351.69 2.36975 3.57968 0
M  V30 14795 C 1350.92 2.18968 4.86712 0
M  V30 14796 O 1351.15 1.17658 5.58133 0
M  V30 14797 O 1350.08 3.07269 5.17561 0
M  V30 14798 H 1353.91 2.32472 1.95424 0
M  V30 14799 H 1351.49 1.18478 0.910122 0
M  V30 14800 H 1353.37 1.08645 4.07154 0
M  V30 14801 H 1352.05 0.238559 3.2282 0
M  V30 14802 H 1350.95 2.51079 2.77327 0
M  V30 14803 H 1352.29 3.2888 3.66195 0
M  V30 14804 N 1353.94 -0.993397 1.22349 0
M  V30 14805 C 1354.9 -2.065 0.994506 0
M  V30 14806 C 1355.9 -1.60753 -0.0388766 0
M  V30 14807 O 1357.09 -1.73053 0.199578 0
M  V30 14808 C 1354.22 -3.37182 0.502088 0
M  V30 14809 H 1355.42 -2.28248 1.94533 0
M  V30 14810 H 1352.97 -1.16489 1.04211 0
M  V30 14811 H 1353.71 -3.21119 -0.453114 0
M  V30 14812 H 1353.49 -3.71721 1.24763 0
M  V30 14813 H 1354.98 -4.16027 0.362108 0
M  V30 14814 N 1355.42 -1.03311 -1.19015 0
M  V30 14815 C 1356.36 -0.617567 -2.22384 0
M  V30 14816 C 1357.33 0.370779 -1.61909 0
M  V30 14817 O 1358.52 0.266481 -1.8893 0
M  V30 14818 C 1355.66 0.0211303 -3.45094 0
M  V30 14819 C 1354.77 -1.01377 -4.19937 0
M  V30 14820 C 1353.91 -0.344385 -5.30082 0
M  V30 14821 C 1352.95 -1.3649 -5.96688 0
M  V30 14822 N 1352.08 -0.721026 -6.98388 0
M  V30 14823 H 1356.92 -1.5036 -2.57286 0
M  V30 14824 H 1354.46 -0.75235 -1.26405 0
M  V30 14825 H 1356.42 0.408713 -4.15193 0
M  V30 14826 H 1355.05 0.870721 -3.10835 0
M  V30 14827 H 1354.1 -1.51937 -3.4874 0
M  V30 14828 H 1355.41 -1.78921 -4.65606 0
M  V30 14829 H 1354.57 0.097814 -6.06621 0
M  V30 14830 H 1353.31 0.463216 -4.85495 0
M  V30 14831 H 1352.31 -1.81732 -5.18897 0
M  V30 14832 H 1353.54 -2.17407 -6.43359 0
M  V30 14833 H 1351.48 0.0664057 -6.55966 0
M  V30 14834 H 1351.4 -1.43428 -7.4227 0
M  V30 14835 H 1352.67 -0.30297 -7.78911 0
M  V30 14836 N 1356.9 1.35099 -0.81154 0
M  V30 14837 C 1358.14 1.9892 -0.394815 0
M  V30 14838 C 1358.47 1.6422 1.0366 0
M  V30 14839 O 1357.75 0.908031 1.72003 0
M  V30 14840 C 1358.03 3.55331 -0.58413 0
M  V30 14841 C 1357.89 3.99812 -2.06084 0
M  V30 14842 C 1359.2 4.40098 -0.0129096 0
M  V30 14843 H 1356.32 0.72261 -0.144926 0
M  V30 14844 H 1358.97 1.60173 -1.02199 0
M  V30 14845 H 1357.12 3.88468 -0.0502446 0
M  V30 14846 H 1358.79 3.77061 -2.65749 0
M  V30 14847 H 1357.03 3.50539 -2.55548 0
M  V30 14848 H 1357.7 5.08655 -2.14416 0
M  V30 14849 H 1360.18 4.13449 -0.468917 0
M  V30 14850 H 1359.05 5.4862 -0.175252 0
M  V30 14851 H 1359.31 4.28675 1.0812 0
M  V30 14852 N 1358.37 0.56548 1.47106 0
M  V30 14853 C 1359.32 -0.177564 2.30116 0
M  V30 14854 C 1360.29 -0.900534 1.39569 0
M  V30 14855 O 1361.48 -0.894603 1.68527 0
M  V30 14856 C 1358.62 -1.19633 3.237 0
M  V30 14857 C 1357.73 -0.47858 4.29341 0
M  V30 14858 C 1356.86 -1.48336 5.10068 0
M  V30 14859 C 1355.9 -0.751049 6.07475 0
M  V30 14860 N 1355.04 -1.70306 6.81132 0
M  V30 14861 H 1359.88 0.536409 2.93132 0
M  V30 14862 H 1357.42 0.276352 1.44481 0
M  V30 14863 H 1359.37 -1.79967 3.76388 0
M  V30 14864 H 1358 -1.87823 2.6253 0
M  V30 14865 H 1357.06 0.239454 3.79646 0
M  V30 14866 H 1358.37 0.0947147 4.9871 0
M  V30 14867 H 1357.52 -2.16 5.66947 0
M  V30 14868 H 1356.26 -2.09058 4.4062 0
M  V30 14869 H 1355.27 -0.0605336 5.49767 0
M  V30 14870 H 1356.49 -0.14946 6.78936 0
M  V30 14871 H 1354.44 -2.2987 6.14407 0
M  V30 14872 H 1354.35 -1.18213 7.46701 0
M  V30 14873 H 1355.62 -2.37058 7.42579 0
M  V30 14874 N 1359.85 -1.54672 0.302354 0
M  V30 14875 C 1360.76 -2.27251 -0.582578 0
M  V30 14876 C 1361.78 -1.30819 -1.14727 0
M  V30 14877 O 1362.95 -1.63803 -1.17177 0
M  V30 14878 C 1360.02 -3.00016 -1.73757 0
M  V30 14879 C 1359.08 -4.11988 -1.20682 0
M  V30 14880 C 1358.31 -4.81273 -2.30676 0
M  V30 14881 O 1358.54 -4.49927 -3.50602 0
M  V30 14882 O 1357.47 -5.68647 -1.97291 0
M  V30 14883 H 1361.3 -3.03699 0.00621365 0
M  V30 14884 H 1358.88 -1.49242 0.0687684 0
M  V30 14885 H 1360.76 -3.45652 -2.41045 0
M  V30 14886 H 1359.44 -2.26462 -2.31294 0
M  V30 14887 H 1358.35 -3.70749 -0.499625 0
M  V30 14888 H 1359.68 -4.87524 -0.676858 0
M  V30 14889 N 1361.33 -0.0301034 -1.57571 0
M  V30 14890 C 1362.26 0.986212 -2.05789 0
M  V30 14891 C 1363.24 1.31682 -0.95387 0
M  V30 14892 O 1364.43 1.43332 -1.22427 0
M  V30 14893 C 1361.55 2.30598 -2.48077 0
M  V30 14894 C 1360.6 2.12991 -3.69509 0
M  V30 14895 S 1361.43 1.42782 -5.16114 0
M  V30 14896 C 1362.59 2.76126 -5.61699 0
M  V30 14897 H 1362.82 0.575769 -2.91671 0
M  V30 14898 H 1360.35 0.181613 -1.53328 0
M  V30 14899 H 1362.31 3.06469 -2.73107 0
M  V30 14900 H 1360.97 2.68775 -1.62539 0
M  V30 14901 H 1360.17 3.1056 -3.96949 0
M  V30 14902 H 1359.77 1.45263 -3.44637 0
M  V30 14903 H 1362.06 3.72361 -5.65998 0
M  V30 14904 H 1363 2.53349 -6.61226 0
M  V30 14905 H 1363.41 2.81418 -4.89351 0
M  V30 14906 N 1362.81 1.55714 0.243056 0
M  V30 14907 C 1363.76 1.91467 1.32072 0
M  V30 14908 C 1364.75 0.794182 1.4963 0
M  V30 14909 O 1365.96 0.978835 1.51059 0
M  V30 14910 H 1362.33 0.60815 0.442333 0
M  V30 14911 H 1364.3 2.81433 0.991865 0
M  V30 14912 C 1363.05 2.22917 2.6684 0
M  V30 14913 H 1362.37 3.08639 2.5413 0
M  V30 14914 H 1363.81 2.51833 3.4111 0
M  V30 14915 C 1362.27 1.04683 3.20223 0
M  V30 14916 O 1362.8 0.296806 4.00602 0
M  V30 14917 N 1361.01 0.836419 2.78303 0
M  V30 14918 H 1360.56 1.44804 2.13048 0
M  V30 14919 H 1360.51 0.0470167 3.14365 0
M  V30 14920 N 1364.29 -0.50888 1.49158 0
M  V30 14921 C 1365.2 -1.63782 1.67966 0
M  V30 14922 C 1366.21 -1.64667 0.562207 0
M  V30 14923 O 1367.39 -1.83232 0.835935 0
M  V30 14924 C 1364.45 -3.00179 1.73474 0
M  V30 14925 C 1363.51 -3.09983 2.97 0
M  V30 14926 C 1362.75 -4.39875 3.02235 0
M  V30 14927 O 1362.97 -5.28214 2.15282 0
M  V30 14928 O 1361.9 -4.54486 3.94621 0
M  V30 14929 H 1365.73 -1.50846 2.63589 0
M  V30 14930 H 1363.32 -0.684306 1.32807 0
M  V30 14931 H 1365.2 -3.8126 1.79495 0
M  V30 14932 H 1363.87 -3.13394 0.810287 0
M  V30 14933 H 1362.78 -2.28119 2.965 0
M  V30 14934 H 1364.11 -3.01693 3.88899 0
M  V30 14935 N 1365.76 -1.381 -0.759346 0
M  V30 14936 C 1367.18 -1.19171 -1.06162 0
M  V30 14937 C 1367.38 -0.0364043 -2.01467 0
M  V30 14938 O 1366.44 0.619635 -2.44779 0
M  V30 14939 C 1367.75 -2.51569 -1.64723 0
M  V30 14940 C 1369.3 -2.58201 -1.76921 0
M  V30 14941 C 1369.77 -3.9076 -2.38894 0
M  V30 14942 N 1371.26 -3.92269 -2.46331 0
M  V30 14943 C 1372 -4.91595 -2.95164 0
M  V30 14944 N 1371.49 -6.01318 -3.44075 0
M  V30 14945 N 1373.29 -4.7899 -2.94152 0
M  V30 14946 H 1365.44 -2.12021 -0.126788 0
M  V30 14947 H 1367.7 -0.940517 -0.118877 0
M  V30 14948 H 1367.41 -3.36535 -1.02162 0
M  V30 14949 H 1367.28 -2.69551 -2.6386 0
M  V30 14950 H 1369.67 -1.73634 -2.38611 0
M  V30 14951 H 1369.75 -2.44092 -0.765047 0
M  V30 14952 H 1369.39 -4.75747 -1.7784 0
M  V30 14953 H 1369.32 -4.02179 -3.39941 0
M  V30 14954 H 1371.81 -3.13015 -2.11731 0
M  V30 14955 H 1372.13 -6.73046 -3.79776 0
M  V30 14956 H 1370.47 -6.04946 -3.42148 0
M  V30 14957 H 1373.66 -3.92385 -2.55248 0
M  V30 14958 H 1373.84 -5.5655 -3.31897 0
M  V30 14959 N 1367.24 0.986894 -1.22875 0
M  V30 14960 C 1368.17 2.09628 -1.0285 0
M  V30 14961 C 1369.15 1.70019 0.0525118 0
M  V30 14962 O 1370.34 1.93883 -0.110874 0
M  V30 14963 C 1367.47 3.41866 -0.61194 0
M  V30 14964 C 1366.42 3.95351 -1.63956 0
M  V30 14965 C 1365.75 5.23707 -1.07865 0
M  V30 14966 C 1367.05 4.25354 -3.03102 0
M  V30 14967 H 1368.74 2.26639 -1.95641 0
M  V30 14968 H 1366.29 1.0891 -0.942048 0
M  V30 14969 H 1368.24 4.18893 -0.458936 0
M  V30 14970 H 1366.97 3.24701 0.35164 0
M  V30 14971 H 1365.62 3.20462 -1.78045 0
M  V30 14972 H 1365.27 5.02888 -0.106246 0
M  V30 14973 H 1364.97 5.60459 -1.76522 0
M  V30 14974 H 1366.5 6.03362 -0.937359 0
M  V30 14975 H 1367.91 4.93156 -2.92353 0
M  V30 14976 H 1366.31 4.73292 -3.68938 0
M  V30 14977 H 1367.38 3.32887 -3.52583 0
M  V30 14978 N 1368.72 1.0394 1.18466 0
M  V30 14979 C 1369.63 0.639714 2.2571 0
M  V30 14980 C 1370.65 -0.333431 1.70775 0
M  V30 14981 O 1371.82 -0.188676 2.00514 0
M  V30 14982 C 1368.89 0.007559 3.46699 0
M  V30 14983 C 1367.95 1.02955 4.16772 0
M  V30 14984 C 1367.18 0.427464 5.31985 0
M  V30 14985 O 1367.4 -0.766684 5.65224 0
M  V30 14986 O 1366.34 1.15553 5.90704 0
M  V30 14987 H 1370.16 1.53316 2.6216 0
M  V30 14988 H 1367.75 0.810206 1.25523 0
M  V30 14989 H 1369.63 -0.344404 4.1999 0
M  V30 14990 H 1368.31 -0.859727 3.12074 0
M  V30 14991 H 1367.21 1.43328 3.45554 0
M  V30 14992 H 1368.55 1.86756 4.55393 0
M  V30 14993 N 1370.2 -1.34667 0.818693 0
M  V30 14994 C 1371.48 -1.92838 0.327521 0
M  V30 14995 C 1371.86 -1.74732 -1.18457 0
M  V30 14996 O 1371.2 -1.12352 -1.98971 0
M  V30 14997 C 1371.41 -3.40797 0.752207 0
M  V30 14998 C 1372.76 -4.17948 0.748613 0
M  V30 14999 O 1373.79 -3.49364 0.694517 0
M  V30 15000 O 1372.64 -5.40344 0.817958 0
M  V30 15001 H 1369.74 -0.822249 0.0885148 0
M  V30 15002 H 1372.28 -1.43668 0.9032 0
M  V30 15003 H 1371.06 -3.47759 1.79387 0
M  V30 15004 H 1370.68 -3.97309 0.151992 0
M  V30 15005 N 1371.68 -0.573274 -1.46804 0
M  V30 15006 C 1372.59 0.168081 -2.33997 0
M  V30 15007 C 1373.6 0.895652 -1.49178 0
M  V30 15008 O 1374.78 0.860951 -1.8207 0
M  V30 15009 C 1371.84 1.17483 -3.26188 0
M  V30 15010 C 1370.9 0.452956 -4.26904 0
M  V30 15011 C 1370.14 1.41175 -5.1469 0
M  V30 15012 O 1370.36 2.64767 -5.05227 0
M  V30 15013 O 1369.29 0.927472 -5.94711 0
M  V30 15014 H 1373.12 -0.547576 -2.98723 0
M  V30 15015 H 1370.71 -0.333747 -1.45624 0
M  V30 15016 H 1372.59 1.75557 -3.8309 0
M  V30 15017 H 1371.26 1.87213 -2.6407 0
M  V30 15018 H 1370.17 -0.169383 -3.73716 0
M  V30 15019 H 1371.5 -0.203186 -4.9178 0
M  V30 15020 N 1373.15 1.5451 -0.310553 0
M  V30 15021 C 1374.06 2.27557 0.570518 0
M  V30 15022 C 1375.08 1.31426 1.14032 0
M  V30 15023 O 1376.26 1.64423 1.16306 0
M  V30 15024 C 1373.32 3.00933 1.72163 0
M  V30 15025 C 1372.38 4.12623 1.18495 0
M  V30 15026 C 1371.62 4.8249 2.28121 0
M  V30 15027 O 1371.84 4.5178 3.48211 0
M  V30 15028 O 1370.77 5.69686 1.94273 0
M  V30 15029 H 1374.6 3.03692 -0.0223195 0
M  V30 15030 H 1372.18 1.49203 -0.0766821 0
M  V30 15031 H 1374.07 3.46925 2.39208 0
M  V30 15032 H 1372.74 2.27685 2.3009 0
M  V30 15033 H 1371.65 3.71008 0.479956 0
M  V30 15034 H 1372.98 4.87876 0.650994 0
M  V30 15035 N 1374.63 0.0384594 1.57553 0
M  V30 15036 C 1375.54 -0.955737 2.14249 0
M  V30 15037 C 1376.56 -1.35056 1.09708 0
M  V30 15038 O 1377.74 -1.43008 1.41812 0
M  V30 15039 C 1374.8 -2.21647 2.66596 0
M  V30 15040 C 1373.86 -1.88119 3.85888 0
M  V30 15041 C 1373.09 -3.08182 4.35729 0
M  V30 15042 O 1373.32 -4.21145 3.84699 0
M  V30 15043 O 1372.25 -2.89936 5.27467 0
M  V30 15044 H 1376.08 -0.50361 2.99495 0
M  V30 15045 H 1373.66 -0.182698 1.48279 0
M  V30 15046 H 1375.54 -2.9564 3.00291 0
M  V30 15047 H 1374.22 -2.66022 1.84428 0
M  V30 15048 H 1373.13 -1.11481 3.57103 0
M  V30 15049 H 1374.46 -1.48553 4.69247 0
M  V30 15050 N 1376.11 -1.55841 -0.234795 0
M  V30 15051 C 1377.04 -1.86317 -1.31762 0
M  V30 15052 C 1378.02 -0.719321 -1.45824 0
M  V30 15053 O 1379.21 -0.966329 -1.61847 0
M  V30 15054 C 1376.33 -2.05854 -2.68964 0
M  V30 15055 C 1375.38 -3.28518 -2.71989 0
M  V30 15056 S 1376.21 -4.84827 -2.27382 0
M  V30 15057 C 1377.37 -5.07385 -3.66485 0
M  V30 15058 H 1377.6 -2.7787 -1.05715 0
M  V30 15059 H 1375.13 -1.48105 -0.436386 0
M  V30 15060 H 1377.09 -2.17794 -3.4796 0
M  V30 15061 H 1375.75 -1.15122 -2.92243 0
M  V30 15062 H 1374.95 -3.39192 -3.7278 0
M  V30 15063 H 1374.55 -3.15367 -2.01047 0
M  V30 15064 H 1376.84 -4.95471 -4.62077 0
M  V30 15065 H 1377.78 -6.09323 -3.60737 0
M  V30 15066 H 1378.19 -4.35175 -3.59559 0
M  V30 15067 N 1377.59 0.500963 -1.49426 0
M  V30 15068 C 1378.54 1.62335 -1.66584 0
M  V30 15069 C 1379.53 1.60837 -0.531773 0
M  V30 15070 O 1380.74 1.65345 -0.711408 0
M  V30 15071 H 1377.11 0.538131 -0.52528 0
M  V30 15072 H 1379.08 1.45016 -2.60793 0
M  V30 15073 C 1377.83 3.00469 -1.74968 0
M  V30 15074 H 1377.16 3.02328 -2.61607 0
M  V30 15075 H 1378.6 3.78539 -1.91008 0
M  V30 15076 C 1377.05 3.33251 -0.49451 0
M  V30 15077 O 1377.58 3.99901 0.379783 0
M  V30 15078 N 1375.79 2.88393 -0.357445 0
M  V30 15079 H 1375.34 2.3433 -1.06991 0
M  V30 15080 H 1375.3 3.10694 0.481287 0
M  V30 15081 N 1379.07 1.38501 0.752011 0
M  V30 15082 C 1380.03 1.35655 1.84744 0
M  V30 15083 C 1381.03 0.256772 1.58737 0
M  V30 15084 O 1382.22 0.513749 1.66452 0
M  V30 15085 C 1379.35 1.11231 3.22243 0
M  V30 15086 H 1380.55 2.33114 1.88674 0
M  V30 15087 H 1378.1 1.23818 0.953882 0
M  V30 15088 H 1378.83 0.143848 3.23981 0
M  V30 15089 H 1378.62 1.90857 3.42515 0
M  V30 15090 H 1380.11 1.11939 4.02318 0
M  V30 15091 N 1380.55 -0.980364 1.23396 0
M  V30 15092 C 1381.46 -2.10688 1.03188 0
M  V30 15093 C 1382.47 -1.73984 -0.0236159 0
M  V30 15094 O 1383.65 -2.00666 0.171841 0
M  V30 15095 C 1380.71 -3.4101 0.625563 0
M  V30 15096 C 1379.77 -3.91739 1.75611 0
M  V30 15097 C 1379.01 -5.15841 1.36908 0
M  V30 15098 O 1379.23 -5.69837 0.253329 0
M  V30 15099 O 1378.16 -5.60638 2.19018 0
M  V30 15100 H 1381.99 -2.30626 1.97599 0
M  V30 15101 H 1379.57 -1.09067 1.02102 0
M  V30 15102 H 1381.46 -4.19402 0.409909 0
M  V30 15103 H 1380.13 -3.22402 -0.28956 0
M  V30 15104 H 1379.04 -3.14464 2.0264 0
M  V30 15105 H 1380.37 -4.14801 2.64955 0
M  V30 15106 N 1382.02 -1.04567 -1.17913 0
M  V30 15107 C 1382.95 -0.662066 -2.23917 0
M  V30 15108 C 1383.93 0.33713 -1.66726 0
M  V30 15109 O 1385.12 0.216116 -1.92994 0
M  V30 15110 C 1382.25 -0.029463 -3.47288 0
M  V30 15111 C 1381.2 -0.95274 -4.17261 0
M  V30 15112 C 1380.53 -0.184347 -5.34382 0
M  V30 15113 C 1381.83 -2.2741 -4.70194 0
M  V30 15114 H 1383.52 -1.54826 -2.5626 0
M  V30 15115 H 1381.07 -0.745886 -1.23177 0
M  V30 15116 H 1383.02 0.250654 -4.20654 0
M  V30 15117 H 1381.75 0.891638 -3.14193 0
M  V30 15118 H 1380.41 -1.21732 -3.45799 0
M  V30 15119 H 1380.05 0.73932 -4.97537 0
M  V30 15120 H 1379.75 -0.79949 -5.82136 0
M  V30 15121 H 1381.28 0.0886344 -6.10536 0
M  V30 15122 H 1382.69 -2.05433 -5.35229 0
M  V30 15123 H 1381.09 -2.84265 -5.28501 0
M  V30 15124 H 1382.16 -2.91708 -3.87342 0
M  V30 15125 N 1383.5 1.34231 -0.825823 0
M  V30 15126 C 1384.73 2.02417 -0.428348 0
M  V30 15127 C 1385.14 1.62181 0.966573 0
M  V30 15128 O 1384.5 0.828691 1.62601 0
M  V30 15129 C 1384.55 3.57678 -0.524271 0
M  V30 15130 O 1384.27 3.96458 -1.86422 0
M  V30 15131 C 1385.77 4.43132 -0.122069 0
M  V30 15132 H 1382.99 0.648699 -0.171554 0
M  V30 15133 H 1385.54 1.71443 -1.11478 0
M  V30 15134 H 1383.69 3.87232 0.114112 0
M  V30 15135 H 1384.11 4.91147 -1.84051 0
M  V30 15136 H 1385.58 5.51477 -0.240264 0
M  V30 15137 H 1386.06 4.29139 0.934705 0
M  V30 15138 H 1386.66 4.18912 -0.734366 0
M  V30 15139 N 1384.98 0.581051 1.46498 0
M  V30 15140 C 1385.94 -0.142937 2.28754 0
M  V30 15141 C 1386.94 -0.820383 1.38298 0
M  V30 15142 O 1388.13 -0.672592 1.60692 0
M  V30 15143 C 1385.26 -1.21176 3.18637 0
M  V30 15144 H 1386.46 0.579918 2.9424 0
M  V30 15145 H 1384.01 0.338951 1.52581 0
M  V30 15146 H 1384.75 -1.96624 2.57894 0
M  V30 15147 H 1384.53 -0.730517 3.85235 0
M  V30 15148 H 1386.02 -1.71958 3.80552 0
M  V30 15149 N 1386.46 -1.54343 0.318742 0
M  V30 15150 C 1387.4 -2.24166 -0.549397 0
M  V30 15151 C 1388.37 -1.23068 -1.1155 0
M  V30 15152 O 1389.56 -1.51737 -1.15674 0
M  V30 15153 C 1386.7 -2.99938 -1.70678 0
M  V30 15154 C 1385.81 -4.15844 -1.17037 0
M  V30 15155 C 1384.95 -4.79158 -2.29305 0
M  V30 15156 C 1383.99 -5.87176 -1.72888 0
M  V30 15157 N 1383.12 -6.44372 -2.78799 0
M  V30 15158 H 1387.96 -2.97954 0.0526018 0
M  V30 15159 H 1385.5 -1.47052 0.0377307 0
M  V30 15160 H 1387.46 -3.42113 -2.38777 0
M  V30 15161 H 1386.09 -2.28494 -2.28014 0
M  V30 15162 H 1385.14 -3.78486 -0.381082 0
M  V30 15163 H 1386.45 -4.93612 -0.717507 0
M  V30 15164 H 1385.61 -5.24277 -3.05317 0
M  V30 15165 H 1384.35 -4.0076 -2.77926 0
M  V30 15166 H 1383.35 -5.41465 -0.953714 0
M  V30 15167 H 1384.58 -6.67469 -1.2515 0
M  V30 15168 H 1382.52 -5.6885 -3.2672 0
M  V30 15169 H 1382.44 -7.17539 -2.38062 0
M  V30 15170 H 1383.71 -6.94147 -3.54655 0
M  V30 15171 N 1387.94 -0.0468143 -1.5753 0
M  V30 15172 C 1388.88 0.929065 -2.11275 0
M  V30 15173 C 1389.85 1.31166 -1.01905 0
M  V30 15174 O 1391.04 1.40189 -1.29428 0
M  V30 15175 C 1388.18 2.20012 -2.65873 0
M  V30 15176 C 1387.29 1.8724 -3.89314 0
M  V30 15177 C 1386.43 3.08772 -4.32242 0
M  V30 15178 C 1385.46 2.719 -5.48395 0
M  V30 15179 N 1384.6 3.86112 -5.86397 0
M  V30 15180 H 1389.44 0.463854 -2.94368 0
M  V30 15181 H 1386.98 0.217338 -1.45486 0
M  V30 15182 H 1388.94 2.94383 -2.95626 0
M  V30 15183 H 1387.57 2.64118 -1.85584 0
M  V30 15184 H 1386.62 1.03037 -3.6618 0
M  V30 15185 H 1387.93 1.56096 -4.73746 0
M  V30 15186 H 1387.08 3.91446 -4.63525 0
M  V30 15187 H 1385.82 3.4309 -3.46613 0
M  V30 15188 H 1384.83 1.87642 -5.16789 0
M  V30 15189 H 1386.05 2.38779 -6.35737 0
M  V30 15190 H 1384 4.2024 -5.03721 0
M  V30 15191 H 1383.92 3.58652 -6.65511 0
M  V30 15192 H 1385.18 4.69438 -6.22293 0
M  V30 15193 N 1389.41 1.55964 0.226527 0
M  V30 15194 C 1390.83 1.48844 0.575999 0
M  V30 15195 C 1391.03 0.740966 1.87382 0
M  V30 15196 O 1390.09 0.278599 2.50958 0
M  V30 15197 C 1391.4 2.93371 0.65984 0
M  V30 15198 C 1392.95 3.03862 0.750802 0
M  V30 15199 C 1393.42 4.49738 0.86603 0
M  V30 15200 N 1394.91 4.5376 0.930379 0
M  V30 15201 C 1395.65 5.63905 1.03916 0
M  V30 15202 N 1395.14 6.83814 1.1122 0
M  V30 15203 N 1396.94 5.51746 1.07391 0
M  V30 15204 H 1389.09 2.02991 -0.625179 0
M  V30 15205 H 1391.35 0.922435 -0.218674 0
M  V30 15206 H 1391.06 3.50985 -0.22411 0
M  V30 15207 H 1390.93 3.44994 1.52509 0
M  V30 15208 H 1393.32 2.46316 1.6252 0
M  V30 15209 H 1393.4 2.55416 -0.140019 0
M  V30 15210 H 1393.04 5.079 -0.00388632 0
M  V30 15211 H 1392.97 4.95884 1.77219 0
M  V30 15212 H 1395.46 3.67404 0.884451 0
M  V30 15213 H 1395.78 7.63507 1.19484 0
M  V30 15214 H 1394.12 6.86535 1.08142 0
M  V30 15215 H 1397.31 4.56997 1.01347 0
M  V30 15216 H 1397.49 6.37619 1.15523 0
M  V30 15217 N 1390.89 -0.493031 1.4969 0
M  V30 15218 C 1391.84 -1.59367 1.66945 0
M  V30 15219 C 1392.81 -1.58049 0.510842 0
M  V30 15220 O 1393.99 -1.75915 0.738822 0
M  V30 15221 C 1391.13 -2.97472 1.74941 0
M  V30 15222 C 1390.25 -3.08745 3.02159 0
M  V30 15223 C 1389.38 -4.37632 3.01085 0
M  V30 15224 C 1388.42 -4.42567 4.22849 0
M  V30 15225 N 1387.56 -5.62892 4.19639 0
M  V30 15226 H 1392.4 -1.4396 2.6092 0
M  V30 15227 H 1389.94 -0.700297 1.29361 0
M  V30 15228 H 1391.89 -3.7753 1.77558 0
M  V30 15229 H 1390.52 -3.11564 0.844252 0
M  V30 15230 H 1389.58 -2.217 3.09117 0
M  V30 15231 H 1390.89 -3.08251 3.92151 0
M  V30 15232 H 1390.04 -5.26018 3.02309 0
M  V30 15233 H 1388.78 -4.40702 2.08885 0
M  V30 15234 H 1387.79 -3.52581 4.21861 0
M  V30 15235 H 1389.01 -4.41205 5.1625 0
M  V30 15236 H 1386.96 -5.6679 3.30281 0
M  V30 15237 H 1386.87 -5.64048 5.03374 0
M  V30 15238 H 1388.14 -6.53464 4.24977 0
M  V30 15239 N 1392.37 -1.38898 -0.744656 0
M  V30 15240 C 1393.3 -1.39571 -1.87195 0
M  V30 15241 C 1394.28 -0.260372 -1.68095 0
M  V30 15242 O 1395.47 -0.464776 -1.88556 0
M  V30 15243 C 1392.6 -1.22889 -3.24832 0
M  V30 15244 C 1391.55 -2.33721 -3.58551 0
M  V30 15245 C 1390.88 -2.02136 -4.9502 0
M  V30 15246 C 1392.18 -3.7601 -3.62511 0
M  V30 15247 H 1393.87 -2.33908 -1.86889 0
M  V30 15248 H 1391.42 -1.12591 -0.897739 0
M  V30 15249 H 1393.37 -1.21983 -4.03359 0
M  V30 15250 H 1392.09 -0.250172 -3.2564 0
M  V30 15251 H 1390.75 -2.33828 -2.82348 0
M  V30 15252 H 1390.4 -1.02726 -4.92399 0
M  V30 15253 H 1390.1 -2.76371 -5.18549 0
M  V30 15254 H 1391.62 -2.02864 -5.75915 0
M  V30 15255 H 1393.04 -3.77885 -4.31133 0
M  V30 15256 H 1391.44 -4.49524 -3.97553 0
M  V30 15257 H 1392.51 -4.07682 -2.62533 0
M  V30 15258 N 1393.85 0.973806 -1.23914 0
M  V30 15259 C 1394.76 2.10138 -1.04304 0
M  V30 15260 C 1395.77 1.73994 0.0143888 0
M  V30 15261 O 1396.95 2.00572 -0.182481 0
M  V30 15262 C 1394.02 3.40673 -0.643639 0
M  V30 15263 C 1393.08 3.90802 -1.77686 0
M  V30 15264 C 1392.31 5.15108 -1.39642 0
M  V30 15265 O 1392.53 5.69695 -0.283546 0
M  V30 15266 O 1391.47 5.59468 -2.21988 0
M  V30 15267 H 1395.29 2.29574 -1.9882 0
M  V30 15268 H 1392.88 1.08524 -1.02679 0
M  V30 15269 H 1394.76 4.19178 -0.432145 0
M  V30 15270 H 1393.43 3.22551 0.272458 0
M  V30 15271 H 1392.34 3.13385 -2.04305 0
M  V30 15272 H 1393.67 4.1339 -2.67151 0
M  V30 15273 N 1395.33 1.05191 1.17357 0
M  V30 15274 C 1396.6 0.675826 1.83554 0
M  V30 15275 C 1396.98 -0.843812 1.93502 0
M  V30 15276 O 1396.33 -1.74975 1.46956 0
M  V30 15277 C 1396.54 1.36481 3.21207 0
M  V30 15278 C 1397.89 1.50285 3.97114 0
M  V30 15279 O 1398.91 1.32382 3.30686 0
M  V30 15280 O 1397.77 1.79562 5.16159 0
M  V30 15281 H 1394.87 0.237898 0.792044 0
M  V30 15282 H 1397.41 1.1515 1.24654 0
M  V30 15283 H 1396.18 2.40156 3.08935 0
M  V30 15284 H 1395.81 0.878491 3.87774 0
M  V30 15285 N 1396.8 -1.33791 0.83293 0
M  V30 15286 C 1397.71 -2.33108 0.264169 0
M  V30 15287 C 1398.73 -1.6308 -0.606694 0
M  V30 15288 O 1399.91 -1.94777 -0.512225 0
M  V30 15289 C 1396.97 -3.42208 -0.556315 0
M  V30 15290 C 1396.03 -4.27966 0.338123 0
M  V30 15291 C 1395.27 -5.31856 -0.443297 0
M  V30 15292 O 1395.49 -5.45234 -1.6756 0
M  V30 15293 O 1394.42 -6.01632 0.179599 0
M  V30 15294 H 1398.25 -2.83602 1.08645 0
M  V30 15295 H 1395.83 -1.37027 0.595307 0
M  V30 15296 H 1397.72 -4.088 -1.02277 0
M  V30 15297 H 1396.39 -2.9394 -1.35575 0
M  V30 15298 H 1395.3 -3.64262 0.852293 0
M  V30 15299 H 1396.63 -4.79701 1.10217 0
M  V30 15300 N 1398.28 -0.588812 -1.46187 0
M  V30 15301 C 1399.52 -0.0794904 -2.04245 0
M  V30 15302 C 1399.89 1.25893 -1.44965 0
M  V30 15303 O 1401.09 1.85785 -1.94261 0
M  V30 15304 C 1399.36 -0.0210846 -3.57394 0
M  V30 15305 S 1400.92 0.429775 -4.3669 0
M  V30 15306 H 1397.74 -0.0404337 -0.709849 0
M  V30 15307 H 1400.34 -0.782686 -1.79149 0
M  V30 15308 H 1399.04 -0.999032 -3.98055 0
M  V30 15309 H 1398.57 0.704691 -3.87037 0
M  V30 15310 H 1400.59 1.68327 -4.66777 0
M  V30 15311 N 1399.76 1.54172 -0.326923 0
M  V30 15312 C 1400.99 2.05512 0.279231 0
M  V30 15313 C 1401.41 1.20131 1.44741 0
M  V30 15314 O 1400.77 0.211191 1.80066 0
M  V30 15315 C 1400.82 3.53971 0.688263 0
M  V30 15316 O 1399.92 3.71516 1.79025 0
M  V30 15317 H 1399.26 0.662131 0.0497826 0
M  V30 15318 H 1401.79 1.98979 -0.476309 0
M  V30 15319 H 1401.8 3.96302 0.970002 0
M  V30 15320 H 1400.48 4.15568 -0.166132 0
M  V30 15321 H 1399.05 3.4109 1.50706 0
M  V30 15322 N 1401.24 0.0551678 1.57503 0
M  V30 15323 C 1402.15 -0.932959 2.15251 0
M  V30 15324 C 1403.16 -1.33885 1.11134 0
M  V30 15325 O 1404.34 -1.41495 1.43321 0
M  V30 15326 C 1401.41 -2.18807 2.68932 0
M  V30 15327 C 1400.47 -1.84016 3.87862 0
M  V30 15328 C 1399.7 -3.03543 4.38973 0
M  V30 15329 O 1399.92 -4.17041 3.89144 0
M  V30 15330 O 1398.86 -2.84325 5.30512 0
M  V30 15331 H 1402.68 -0.471816 3.00013 0
M  V30 15332 H 1400.27 -0.16696 1.48464 0
M  V30 15333 H 1402.15 -2.92439 3.0341 0
M  V30 15334 H 1400.82 -2.64051 1.87239 0
M  V30 15335 H 1399.73 -1.07687 3.58266 0
M  V30 15336 H 1401.06 -1.43567 4.70796 0
M  V30 15337 N 1402.72 -1.56081 -0.218252 0
M  V30 15338 C 1403.65 -1.95706 -1.27364 0
M  V30 15339 C 1404.63 -0.825731 -1.48713 0
M  V30 15340 O 1405.81 -1.08829 -1.60841 0
M  V30 15341 C 1402.94 -2.2766 -2.62275 0
M  V30 15342 C 1401.9 -3.43314 -2.55576 0
M  V30 15343 C 1401.22 -3.60883 -3.94547 0
M  V30 15344 C 1402.52 -4.7819 -2.10075 0
M  V30 15345 H 1404.22 -2.84113 -0.944459 0
M  V30 15346 H 1401.76 -1.36693 -0.452882 0
M  V30 15347 H 1403.72 -2.53973 -3.36268 0
M  V30 15348 H 1402.44 -1.3611 -2.96887 0
M  V30 15349 H 1401.1 -3.17056 -1.8404 0
M  V30 15350 H 1400.75 -2.66703 -4.26472 0
M  V30 15351 H 1400.45 -4.38674 -3.90946 0
M  V30 15352 H 1401.97 -3.89547 -4.70197 0
M  V30 15353 H 1403.38 -5.03686 -2.73813 0
M  V30 15354 H 1401.78 -5.59287 -2.17527 0
M  V30 15355 H 1402.85 -4.73325 -1.05314 0
M  V30 15356 N 1404.2 0.485086 -1.49949 0
M  V30 15357 C 1405.14 1.5848 -1.67788 0
M  V30 15358 C 1406.11 1.57776 -0.519216 0
M  V30 15359 O 1407.3 1.75521 -0.748141 0
M  V30 15360 C 1404.44 2.9654 -1.76516 0
M  V30 15361 C 1403.55 3.07139 -3.03792 0
M  V30 15362 C 1402.69 4.36029 -3.03401 0
M  V30 15363 C 1401.72 4.40318 -4.2519 0
M  V30 15364 N 1400.86 5.60659 -4.22618 0
M  V30 15365 H 1405.7 1.42575 -2.6168 0
M  V30 15366 H 1403.24 0.693426 -1.29731 0
M  V30 15367 H 1405.2 3.76583 -1.79557 0
M  V30 15368 H 1403.83 3.11112 -0.860764 0
M  V30 15369 H 1402.88 2.20057 -3.10289 0
M  V30 15370 H 1404.19 3.06167 -3.9378 0
M  V30 15371 H 1403.34 5.24407 -3.05094 0
M  V30 15372 H 1402.08 4.39588 -2.11219 0
M  V30 15373 H 1401.09 3.50339 -4.23725 0
M  V30 15374 H 1402.31 4.38461 -5.18583 0
M  V30 15375 H 1400.26 5.6503 -3.33282 0
M  V30 15376 H 1400.18 5.61371 -5.06359 0
M  V30 15377 H 1401.44 6.51201 -4.28436 0
M  V30 15378 N 1405.67 1.39291 0.737279 0
M  V30 15379 C 1407.09 1.20845 1.04253 0
M  V30 15380 C 1407.29 0.0684513 2.01384 0
M  V30 15381 O 1406.35 -0.580615 2.45734 0
M  V30 15382 C 1407.66 2.54158 1.60699 0
M  V30 15383 C 1409.21 2.60983 1.72791 0
M  V30 15384 C 1409.68 3.94511 2.32647 0
M  V30 15385 N 1411.17 3.96138 2.4006 0
M  V30 15386 C 1411.91 4.96229 2.87306 0
M  V30 15387 N 1411.4 6.06716 3.34465 0
M  V30 15388 N 1413.2 4.83609 2.86494 0
M  V30 15389 H 1405.35 2.12196 0.0930416 0
M  V30 15390 H 1407.61 0.942289 0.103899 0
M  V30 15391 H 1407.32 3.38118 0.96795 0
M  V30 15392 H 1407.19 2.73715 2.59538 0
M  V30 15393 H 1409.58 1.77408 2.35818 0
M  V30 15394 H 1409.66 2.45278 0.726118 0
M  V30 15395 H 1409.3 4.78516 1.70249 0
M  V30 15396 H 1409.23 4.07536 3.33499 0
M  V30 15397 H 1411.72 3.16344 2.06725 0
M  V30 15398 H 1412.04 6.79002 3.6902 0
M  V30 15399 H 1410.38 6.10313 3.3248 0
M  V30 15400 H 1413.57 3.96396 2.48973 0
M  V30 15401 H 1413.75 5.6176 3.23001 0
M  V30 15402 N 1407.15 -0.967221 1.24429 0
M  V30 15403 C 1408.43 -1.68564 0.992253 0
M  V30 15404 C 1408.81 -2.05446 -0.485301 0
M  V30 15405 O 1408.16 -1.75798 -1.45971 0
M  V30 15406 C 1408.37 -2.91728 1.91562 0
M  V30 15407 C 1409.71 -3.63957 2.18678 0
M  V30 15408 O 1410.74 -3.01786 1.89219 0
M  V30 15409 O 1409.6 -4.75875 2.68711 0
M  V30 15410 H 1406.69 -0.736939 0.375299 0
M  V30 15411 H 1409.24 -1.02127 1.35529 0
M  V30 15412 H 1408.01 -2.61168 2.91388 0
M  V30 15413 H 1407.63 -3.65898 1.55577 0
M  V30 15414 N 1408.63 -1.05812 -1.16797 0
M  V30 15415 C 1409.88 -0.767008 -1.86547 0
M  V30 15416 C 1410.19 0.708979 -1.82299 0
M  V30 15417 O 1411.4 1.11428 -2.4758 0
M  V30 15418 C 1409.85 -1.32186 -3.34746 0
M  V30 15419 C 1409.46 -2.82774 -3.4748 0
M  V30 15420 C 1411.21 -1.10808 -4.09783 0
M  V30 15421 C 1409.11 -3.31529 -4.89737 0
M  V30 15422 H 1408.04 -0.283235 -0.698781 0
M  V30 15423 H 1410.69 -1.27621 -1.31853 0
M  V30 15424 H 1409.08 -0.740453 -3.89016 0
M  V30 15425 H 1410.25 -3.46825 -3.03396 0
M  V30 15426 H 1408.56 -3.02765 -2.85871 0
M  V30 15427 H 1411.16 -1.44728 -5.14741 0
M  V30 15428 H 1411.5 -0.046167 -4.16274 0
M  V30 15429 H 1412.04 -1.65502 -3.61737 0
M  V30 15430 H 1408.78 -4.37177 -4.88422 0
M  V30 15431 H 1408.3 -2.72224 -5.34466 0
M  V30 15432 H 1409.98 -3.26572 -5.58534 0
M  V30 15433 N 1410.11 1.33347 -0.840014 0
M  V30 15434 C 1411.38 1.92293 -0.358158 0
M  V30 15435 C 1411.76 1.76594 1.15662 0
M  V30 15436 O 1411.11 1.15503 1.97158 0
M  V30 15437 C 1411.32 3.39558 -0.806329 0
M  V30 15438 C 1412.67 4.16705 -0.81501 0
M  V30 15439 O 1413.69 3.48214 -0.75001 0
M  V30 15440 O 1412.55 5.38974 -0.903818 0
M  V30 15441 H 1409.65 0.820737 -0.101585 0
M  V30 15442 H 1412.19 1.42213 -0.925942 0
M  V30 15443 H 1410.97 3.44861 -1.84897 0
M  V30 15444 H 1410.59 3.97017 -0.215181 0
M  V30 15445 N 1411.59 0.596556 1.45873 0
M  V30 15446 C 1412.86 0.0199562 1.9559 0
M  V30 15447 C 1413.24 -1.44479 1.53912 0
M  V30 15448 O 1412.59 -2.14173 0.796384 0
M  V30 15449 C 1412.8 0.206497 3.48389 0
M  V30 15450 C 1414.15 0.0815298 4.24522 0
M  V30 15451 O 1415.17 0.136045 3.5594 0
M  V30 15452 O 1414.03 -0.0426117 5.46483 0
M  V30 15453 H 1411.13 -0.0419913 0.825933 0
M  V30 15454 H 1413.67 0.665846 1.56092 0
M  V30 15455 H 1412.44 1.22422 3.71656 0
M  V30 15456 H 1412.07 -0.475175 3.9475 0
M  V30 15457 N 1413.06 -1.53996 0.335095 0
M  V30 15458 C 1413.99 -2.2768 -0.518087 0
M  V30 15459 C 1414.97 -1.28915 -1.10972 0
M  V30 15460 O 1416.16 -1.57745 -1.1327 0
M  V30 15461 C 1413.29 -3.04327 -1.67339 0
M  V30 15462 C 1412.24 -4.10525 -1.2105 0
M  V30 15463 C 1411.57 -4.75078 -2.45366 0
M  V30 15464 C 1412.87 -5.21337 -0.317055 0
M  V30 15465 H 1414.56 -2.99244 0.0965669 0
M  V30 15466 H 1412.11 -1.4392 0.0478842 0
M  V30 15467 H 1414.06 -3.54608 -2.27664 0
M  V30 15468 H 1412.79 -2.30399 -2.31481 0
M  V30 15469 H 1411.45 -3.61144 -0.630124 0
M  V30 15470 H 1411.09 -3.97754 -3.07897 0
M  V30 15471 H 1410.79 -5.46822 -2.1508 0
M  V30 15472 H 1412.32 -5.2814 -3.06432 0
M  V30 15473 H 1413.73 -5.67305 -0.826905 0
M  V30 15474 H 1412.13 -6.00006 -0.106458 0
M  V30 15475 H 1413.2 -4.80536 0.649068 0
M  V30 15476 N 1414.54 -0.0635198 -1.57472 0
M  V30 15477 C 1415.45 0.921531 -2.15743 0
M  V30 15478 C 1416.47 1.33294 -1.11842 0
M  V30 15479 O 1417.64 1.40733 -1.4407 0
M  V30 15480 C 1414.71 2.17378 -2.70088 0
M  V30 15481 C 1413.77 1.81956 -3.88832 0
M  V30 15482 C 1413 3.01211 -4.40577 0
M  V30 15483 O 1413.23 4.14971 -3.9135 0
M  V30 15484 O 1412.16 2.81507 -5.32012 0
M  V30 15485 H 1415.99 0.455899 -3.00259 0
M  V30 15486 H 1413.57 0.159085 -1.48551 0
M  V30 15487 H 1415.45 2.90826 -3.04956 0
M  V30 15488 H 1414.13 2.63055 -1.88637 0
M  V30 15489 H 1413.03 1.05786 -3.58832 0
M  V30 15490 H 1414.37 1.41069 -4.71551 0
M  V30 15491 N 1416.02 1.56195 0.209972 0
M  V30 15492 C 1416.95 1.96378 1.26324 0
M  V30 15493 C 1417.93 0.833606 1.48273 0
M  V30 15494 O 1419.12 1.0968 1.60262 0
M  V30 15495 C 1416.25 2.29048 2.61064 0
M  V30 15496 C 1415.2 3.44665 2.53752 0
M  V30 15497 C 1414.53 3.6297 3.92628 0
M  V30 15498 C 1415.83 4.79297 2.07536 0
M  V30 15499 H 1417.52 2.8461 0.929379 0
M  V30 15500 H 1415.07 1.36931 0.445627 0
M  V30 15501 H 1417.02 2.55752 3.34916 0
M  V30 15502 H 1415.74 1.37682 2.96161 0
M  V30 15503 H 1414.4 3.18028 1.82356 0
M  V30 15504 H 1414.05 2.68961 4.25052 0
M  V30 15505 H 1413.75 4.40741 3.88614 0
M  V30 15506 H 1415.27 3.92035 4.68125 0
M  V30 15507 H 1416.69 5.05131 2.71138 0
M  V30 15508 H 1415.08 5.60433 2.14557 0
M  V30 15509 H 1416.15 4.73877 1.02802 0
M  V30 15510 N 1417.5 -0.477127 1.50204 0
M  V30 15511 C 1418.73 -1.25307 1.64638 0
M  V30 15512 C 1419.14 -1.85942 0.327274 0
M  V30 15513 O 1418.5 -1.6895 -0.690088 0
M  V30 15514 C 1418.55 -2.36616 2.73304 0
M  V30 15515 O 1418.27 -1.78469 4.00101 0
M  V30 15516 C 1419.77 -3.27595 2.98658 0
M  V30 15517 H 1416.99 -0.379192 0.553583 0
M  V30 15518 H 1419.53 -0.5702 1.9639 0
M  V30 15519 H 1417.69 -3.00689 2.44264 0
M  V30 15520 H 1418.1 -2.51722 4.60148 0
M  V30 15521 H 1419.58 -4.01921 3.7837 0
M  V30 15522 H 1420.05 -3.86017 2.09493 0
M  V30 15523 H 1420.66 -2.69264 3.29206 0
M  V30 15524 N 1418.98 -1.3968 -0.729882 0
M  V30 15525 C 1419.91 -1.41549 -1.85704 0
M  V30 15526 C 1420.89 -0.278186 -1.6781 0
M  V30 15527 O 1422.07 -0.484749 -1.88053 0
M  V30 15528 C 1419.2 -1.26327 -3.2351 0
M  V30 15529 C 1418.16 -2.37511 -3.56051 0
M  V30 15530 C 1417.48 -2.07375 -4.92849 0
M  V30 15531 C 1418.78 -3.79833 -3.58502 0
M  V30 15532 H 1420.48 -2.35877 -1.84398 0
M  V30 15533 H 1418.02 -1.13536 -0.885747 0
M  V30 15534 H 1419.98 -1.26254 -4.02042 0
M  V30 15535 H 1418.7 -0.284697 -3.25357 0
M  V30 15536 H 1417.36 -2.36809 -2.79852 0
M  V30 15537 H 1417.01 -1.07943 -4.91281 0
M  V30 15538 H 1416.71 -2.81855 -5.15588 0
M  V30 15539 H 1418.23 -2.08961 -5.73731 0
M  V30 15540 H 1419.64 -3.82436 -4.27101 0
M  V30 15541 H 1418.04 -4.53715 -3.92763 0
M  V30 15542 H 1419.11 -4.10443 -2.58195 0
M  V30 15543 N 1420.45 0.960609 -1.2494 0
M  V30 15544 C 1421.42 2.03791 -1.04891 0
M  V30 15545 C 1422.42 1.608 -0.00375792 0
M  V30 15546 O 1423.61 1.72463 -0.24539 0
M  V30 15547 C 1420.74 3.35733 -0.591309 0
M  V30 15548 H 1421.93 2.2301 -2.00516 0
M  V30 15549 H 1419.49 1.13686 -1.07263 0
M  V30 15550 H 1420.22 3.22207 0.367816 0
M  V30 15551 H 1420.01 3.68283 -1.34574 0
M  V30 15552 H 1421.5 4.14921 -0.472283 0
M  V30 15553 N 1421.93 1.0643 1.16234 0
M  V30 15554 C 1422.88 0.676311 2.20669 0
M  V30 15555 C 1423.85 -0.327721 1.62835 0
M  V30 15556 O 1425.03 -0.216296 1.8957 0
M  V30 15557 C 1422.17 0.0703726 3.45028 0
M  V30 15558 C 1421.29 1.12475 4.17101 0
M  V30 15559 C 1420.42 0.484806 5.28983 0
M  V30 15560 C 1419.46 1.52262 5.9286 0
M  V30 15561 N 1418.6 0.905938 6.96231 0
M  V30 15562 H 1423.44 1.57129 2.53209 0
M  V30 15563 H 1420.98 0.7856 1.24365 0
M  V30 15564 H 1422.93 -0.298488 4.16131 0
M  V30 15565 H 1421.56 -0.788002 3.13034 0
M  V30 15566 H 1420.62 1.6113 3.44589 0
M  V30 15567 H 1421.93 1.91202 4.60698 0
M  V30 15568 H 1421.08 0.0630553 6.06667 0
M  V30 15569 H 1419.82 -0.334332 4.86553 0
M  V30 15570 H 1418.83 1.95425 5.13896 0
M  V30 15571 H 1420.05 2.34388 6.37369 0
M  V30 15572 H 1418 0.107536 6.55912 0
M  V30 15573 H 1417.91 1.63058 7.38206 0
M  V30 15574 H 1419.18 0.509378 7.77834 0
M  V30 15575 N 1423.41 -1.329 0.847073 0
M  V30 15576 C 1424.66 -1.97803 0.447417 0
M  V30 15577 C 1424.99 -1.6691 -0.9927 0
M  V30 15578 O 1424.26 -0.953315 -1.69535 0
M  V30 15579 C 1424.55 -3.53657 0.678135 0
M  V30 15580 C 1424.4 -3.94207 2.16612 0
M  V30 15581 C 1425.72 -4.39909 0.129589 0
M  V30 15582 H 1422.84 -0.718514 0.164034 0
M  V30 15583 H 1425.48 -1.57407 1.0641 0
M  V30 15584 H 1423.63 -3.88198 0.153222 0
M  V30 15585 H 1425.3 -3.69883 2.75653 0
M  V30 15586 H 1423.55 -3.43641 2.64752 0
M  V30 15587 H 1424.22 -5.02791 2.27827 0
M  V30 15588 H 1426.69 -4.12061 0.578371 0
M  V30 15589 H 1425.57 -5.47963 0.320648 0
M  V30 15590 H 1425.83 -4.31391 -0.967167 0
M  V30 15591 N 1424.89 -0.604284 -1.45555 0
M  V30 15592 C 1425.8 0.118409 -2.34301 0
M  V30 15593 C 1426.81 0.863807 -1.51044 0
M  V30 15594 O 1427.99 0.822138 -1.83856 0
M  V30 15595 C 1425.06 1.10538 -3.28606 0
M  V30 15596 C 1424.12 0.362301 -4.27768 0
M  V30 15597 C 1423.35 1.30226 -5.17568 0
M  V30 15598 O 1423.57 2.53991 -5.10729 0
M  V30 15599 O 1422.51 0.801116 -5.96545 0
M  V30 15600 H 1426.33 -0.610816 -2.97494 0
M  V30 15601 H 1423.92 -0.364562 -1.44884 0
M  V30 15602 H 1425.8 1.67392 -3.86727 0
M  V30 15603 H 1424.47 1.81569 -2.67982 0
M  V30 15604 H 1423.38 -0.248616 -3.73273 0
M  V30 15605 H 1424.71 -0.307454 -4.91239 0
M  V30 15606 N 1426.37 1.53816 -0.343257 0
M  V30 15607 C 1427.31 2.25011 0.513664 0
M  V30 15608 C 1428.28 1.24827 1.09578 0
M  V30 15609 O 1429.47 1.53558 1.13245 0
M  V30 15610 C 1426.61 3.02616 1.65885 0
M  V30 15611 C 1425.72 4.17653 1.10406 0
M  V30 15612 C 1424.86 4.82746 2.21653 0
M  V30 15613 C 1423.9 5.89853 1.63524 0
M  V30 15614 N 1423.03 6.48726 2.68512 0
M  V30 15615 H 1427.87 2.97832 -0.099997 0
M  V30 15616 H 1425.41 1.46973 -0.0611206 0
M  V30 15617 H 1427.37 3.45868 2.33304 0
M  V30 15618 H 1426 2.32092 2.2435 0
M  V30 15619 H 1425.05 3.79045 0.320819 0
M  V30 15620 H 1426.36 4.94691 0.638887 0
M  V30 15621 H 1425.52 5.29068 2.96938 0
M  V30 15622 H 1424.25 4.05131 2.71515 0
M  V30 15623 H 1423.26 5.42914 0.86745 0
M  V30 15624 H 1424.48 6.69375 1.14515 0
M  V30 15625 H 1422.43 5.73975 3.17629 0
M  V30 15626 H 1422.35 7.21236 2.26616 0
M  V30 15627 H 1423.62 6.99701 3.43567 0
M  V30 15628 N 1427.84 0.0718701 1.57436 0
M  V30 15629 C 1428.75 -0.910077 2.16229 0
M  V30 15630 C 1429.77 -1.32699 1.12548 0
M  V30 15631 O 1430.95 -1.39967 1.44814 0
M  V30 15632 C 1428.01 -2.15942 2.71238 0
M  V30 15633 C 1427.07 -1.79891 3.89792 0
M  V30 15634 C 1426.31 -2.9887 4.42168 0
M  V30 15635 O 1426.53 -4.1289 3.93545 0
M  V30 15636 O 1425.46 -2.78682 5.33498 0
M  V30 15637 H 1429.29 -0.439969 3.00496 0
M  V30 15638 H 1426.87 -0.151204 1.48633 0
M  V30 15639 H 1428.76 -2.89204 3.06494 0
M  V30 15640 H 1427.43 -2.62051 1.90029 0
M  V30 15641 H 1426.34 -1.03881 3.59388 0
M  V30 15642 H 1427.67 -1.38566 4.72293 0
M  V30 15643 N 1429.32 -1.56304 -0.201686 0
M  V30 15644 C 1430.27 -1.94021 -1.24999 0
M  V30 15645 C 1431.24 -0.799926 -1.45569 0
M  V30 15646 O 1432.42 -1.05752 -1.58811 0
M  V30 15647 C 1429.56 -2.27935 -2.59113 0
M  V30 15648 C 1428.68 -3.54995 -2.46176 0
M  V30 15649 C 1427.81 -3.78262 -3.72949 0
M  V30 15650 C 1426.85 -4.9877 -3.54817 0
M  V30 15651 N 1425.99 -5.18325 -4.73586 0
M  V30 15652 H 1430.83 -2.834 -0.92134 0
M  V30 15653 H 1428.37 -1.40252 -0.44359 0
M  V30 15654 H 1430.32 -2.45613 -3.37239 0
M  V30 15655 H 1428.95 -1.41705 -2.90034 0
M  V30 15656 H 1428.01 -3.45401 -1.59381 0
M  V30 15657 H 1429.32 -4.43277 -2.28708 0
M  V30 15658 H 1428.47 -3.96144 -4.59516 0
M  V30 15659 H 1427.21 -2.88299 -3.93364 0
M  V30 15660 H 1426.22 -4.80818 -2.66635 0
M  V30 15661 H 1427.44 -5.90237 -3.35854 0
M  V30 15662 H 1425.39 -4.31308 -4.94277 0
M  V30 15663 H 1425.3 -6.00774 -4.58919 0
M  V30 15664 H 1426.57 -5.40659 -5.61523 0
M  V30 15665 N 1430.8 0.469154 -1.50455 0
M  V30 15666 C 1431.75 1.56456 -1.65848 0
M  V30 15667 C 1432.73 1.52501 -0.513048 0
M  V30 15668 O 1433.93 1.59492 -0.767542 0
M  V30 15669 C 1431.06 2.94887 -1.75774 0
M  V30 15670 C 1430.14 3.03719 -2.96 0
M  V30 15671 N 1430.53 2.8236 -4.1965 0
M  V30 15672 C 1428.83 3.34856 -2.94597 0
M  V30 15673 C 1429.53 2.96208 -5.00635 0
M  V30 15674 N 1428.51 3.26494 -4.3463 0
M  V30 15675 H 1432.31 1.38646 -2.59142 0
M  V30 15676 H 1429.82 0.675918 -1.47666 0
M  V30 15677 H 1431.82 3.73652 -1.84905 0
M  V30 15678 H 1430.48 3.13743 -0.836396 0
M  V30 15679 H 1431.49 2.57904 -4.49117 0
M  V30 15680 H 1428.17 3.59687 -2.1197 0
M  V30 15681 H 1429.56 2.83918 -6.08966 0
M  V30 15682 N 1432.28 1.40065 0.722464 0
M  V30 15683 C 1433.24 1.39544 1.81825 0
M  V30 15684 C 1434.24 0.290385 1.58156 0
M  V30 15685 O 1435.43 0.54894 1.65325 0
M  V30 15686 C 1432.56 1.18041 3.19811 0
M  V30 15687 H 1433.76 2.37063 1.83687 0
M  V30 15688 H 1431.31 1.25813 0.927404 0
M  V30 15689 H 1432.04 0.212536 3.23603 0
M  V30 15690 H 1431.83 1.98079 3.38389 0
M  V30 15691 H 1433.32 1.20447 3.99853 0
M  V30 15692 N 1433.76 -0.95397 1.25448 0
M  V30 15693 C 1434.99 -1.73331 1.12977 0
M  V30 15694 C 1435.4 -1.86131 -0.316364 0
M  V30 15695 O 1434.76 -1.35951 -1.21753 0
M  V30 15696 C 1434.81 -3.14675 1.77938 0
M  V30 15697 O 1434.53 -3.025 3.16899 0
M  V30 15698 C 1436.03 -4.08884 1.71256 0
M  V30 15699 H 1433.25 -0.543118 0.394036 0
M  V30 15700 H 1435.79 -1.19678 1.65823 0
M  V30 15701 H 1433.95 -3.6527 1.29062 0
M  V30 15702 H 1434.36 -3.91668 3.4885 0
M  V30 15703 H 1435.84 -5.05668 2.21368 0
M  V30 15704 H 1436.31 -4.33959 0.676476 0
M  V30 15705 H 1436.92 -3.64205 2.19624 0
M  V30 15706 N 1435.24 -1.07045 -1.15668 0
M  V30 15707 C 1436.15 -0.699332 -2.23934 0
M  V30 15708 C 1437.16 0.288036 -1.71599 0
M  V30 15709 O 1438.34 0.135447 -2.00944 0
M  V30 15710 C 1435.4 -0.0994775 -3.46557 0
M  V30 15711 C 1434.46 -1.13968 -4.13896 0
M  V30 15712 C 1433.7 -0.56836 -5.30665 0
M  V30 15713 O 1433.92 0.616556 -5.67058 0
M  V30 15714 O 1432.85 -1.31174 -5.87432 0
M  V30 15715 H 1436.68 -1.60212 -2.58003 0
M  V30 15716 H 1434.26 -0.843202 -1.23331 0
M  V30 15717 H 1436.15 0.23293 -4.20756 0
M  V30 15718 H 1434.82 0.776684 -3.14244 0
M  V30 15719 H 1433.73 -1.5244 -3.41633 0
M  V30 15720 H 1435.06 -1.98764 -4.50282 0
M  V30 15721 N 1436.71 1.32449 -0.85411 0
M  V30 15722 C 1437.66 2.30821 -0.287115 0
M  V30 15723 C 1438.66 1.58823 0.58921 0
M  V30 15724 O 1439.86 1.73563 0.477075 0
M  V30 15725 H 1436.24 0.748336 -0.0741416 0
M  V30 15726 H 1438.21 2.76134 -1.13104 0
M  V30 15727 C 1436.96 3.43937 0.51013 0
M  V30 15728 H 1436.28 3.995 -0.154895 0
M  V30 15729 H 1437.72 4.14927 0.872451 0
M  V30 15730 C 1436.18 2.91147 1.69513 0
M  V30 15731 O 1436.71 2.88595 2.7942 0
M  V30 15732 N 1434.91 2.47554 1.52202 0
M  V30 15733 H 1434.46 2.49829 0.627941 0
M  V30 15734 H 1434.42 2.12587 2.31633 0
M  V30 15735 N 1438.19 0.611994 1.45232 0
M  V30 15736 C 1439.14 -0.104265 2.30564 0
M  V30 15737 C 1440.11 -0.855676 1.42364 0
M  V30 15738 O 1441.29 -0.840534 1.71288 0
M  V30 15739 C 1438.43 -1.09274 3.27343 0
M  V30 15740 C 1437.55 -0.341747 4.30646 0
M  V30 15741 C 1436.68 -1.32034 5.14529 0
M  V30 15742 C 1435.72 -0.557405 6.09557 0
M  V30 15743 N 1434.86 -1.4855 6.86205 0
M  V30 15744 H 1439.7 0.629396 2.91278 0
M  V30 15745 H 1437.23 0.322177 1.43528 0
M  V30 15746 H 1439.19 -1.67902 3.81923 0
M  V30 15747 H 1437.82 -1.79376 2.68373 0
M  V30 15748 H 1436.87 0.360114 3.78692 0
M  V30 15749 H 1438.19 0.253328 4.98156 0
M  V30 15750 H 1437.34 -1.97854 5.73532 0
M  V30 15751 H 1436.08 -1.94934 4.47048 0
M  V30 15752 H 1435.08 0.114401 5.49681 0
M  V30 15753 H 1436.31 0.0666137 6.79067 0
M  V30 15754 H 1434.26 -2.10207 6.21409 0
M  V30 15755 H 1434.17 -0.943972 7.50083 0
M  V30 15756 H 1435.44 -2.13314 7.49745 0
M  V30 15757 N 1439.67 -1.53632 0.351409 0
M  V30 15758 C 1440.92 -2.01338 -0.243047 0
M  V30 15759 C 1441.25 -1.23864 -1.4957 0
M  V30 15760 O 1440.52 -0.328412 -1.91707 0
M  V30 15761 C 1440.81 -3.55886 -0.549284 0
M  V30 15762 C 1440.66 -4.44064 0.716016 0
M  V30 15763 C 1441.98 -4.18699 -1.35569 0
M  V30 15764 H 1439.1 -0.731863 -0.0868627 0
M  V30 15765 H 1441.74 -1.84005 0.473501 0
M  V30 15766 H 1439.89 -3.70787 -1.15972 0
M  V30 15767 H 1441.56 -4.40987 1.35383 0
M  V30 15768 H 1439.8 -4.12608 1.3393 0
M  V30 15769 H 1440.48 -5.50106 0.456895 0
M  V30 15770 H 1442.95 -4.07545 -0.839441 0
M  V30 15771 H 1441.83 -5.26892 -1.53871 0
M  V30 15772 H 1442.09 -3.73834 -2.3601 0
M  V30 15773 N 1441.15 -0.0802183 -1.57396 0
M  V30 15774 C 1442.09 0.884041 -2.13198 0
M  V30 15775 C 1443.06 1.28975 -1.04664 0
M  V30 15776 O 1444.25 1.37413 -1.32372 0
M  V30 15777 C 1441.39 2.14323 -2.7048 0
M  V30 15778 C 1440.5 1.7894 -3.93198 0
M  V30 15779 C 1439.64 2.99534 -4.38695 0
M  V30 15780 C 1438.68 2.60207 -5.54039 0
M  V30 15781 N 1437.81 3.73587 -5.94455 0
M  V30 15782 H 1442.65 0.40131 -2.95285 0
M  V30 15783 H 1440.19 0.186429 -1.45914 0
M  V30 15784 H 1442.15 2.88046 -3.01804 0
M  V30 15785 H 1440.78 2.60122 -1.91144 0
M  V30 15786 H 1439.83 0.952465 -3.68283 0
M  V30 15787 H 1441.14 1.46012 -4.76951 0
M  V30 15788 H 1440.3 3.81526 -4.71724 0
M  V30 15789 H 1439.04 3.35661 -3.53812 0
M  V30 15790 H 1438.04 1.76638 -5.20652 0
M  V30 15791 H 1439.27 2.2524 -6.40659 0
M  V30 15792 H 1437.21 4.0946 -5.12521 0
M  V30 15793 H 1437.13 3.44455 -6.72969 0
M  V30 15794 H 1438.4 4.56133 -6.3211 0
M  V30 15795 N 1442.63 1.56409 0.193394 0
M  V30 15796 C 1443.57 1.95572 1.25914 0
M  V30 15797 C 1444.57 0.841384 1.47028 0
M  V30 15798 O 1445.77 1.0264 1.47868 0
M  V30 15799 H 1442.15 0.621914 0.422761 0
M  V30 15800 H 1444.12 2.84446 0.901827 0
M  V30 15801 C 1442.87 2.31293 2.59613 0
M  V30 15802 H 1442.19 3.16568 2.44182 0
M  V30 15803 H 1443.63 2.62558 3.32926 0
M  V30 15804 C 1442.09 1.14818 3.16731 0
M  V30 15805 O 1442.62 0.424105 3.99455 0
M  V30 15806 N 1440.83 0.924536 2.75501 0
M  V30 15807 H 1440.37 1.51509 2.08334 0
M  V30 15808 H 1440.33 0.147006 3.14056 0
M  V30 15809 N 1444.1 -0.461169 1.50702 0
M  V30 15810 C 1445.03 -1.56576 1.73223 0
M  V30 15811 C 1446.01 -1.59855 0.581401 0
M  V30 15812 O 1447.2 -1.75964 0.821602 0
M  V30 15813 C 1444.33 -2.94835 1.83548 0
M  V30 15814 C 1443.28 -3.06421 2.98815 0
M  V30 15815 C 1442.61 -4.46425 2.94293 0
M  V30 15816 C 1443.91 -2.82714 4.3917 0
M  V30 15817 H 1445.6 -1.37982 2.65709 0
M  V30 15818 H 1443.15 -0.662362 1.27862 0
M  V30 15819 H 1445.1 -3.72047 1.97887 0
M  V30 15820 H 1443.83 -3.14608 0.876906 0
M  V30 15821 H 1442.49 -2.31644 2.84142 0
M  V30 15822 H 1442.13 -4.63131 1.96262 0
M  V30 15823 H 1441.83 -4.55111 3.71682 0
M  V30 15824 H 1443.36 -5.25644 3.10695 0
M  V30 15825 H 1444.77 -3.4967 4.54317 0
M  V30 15826 H 1443.17 -3.02835 5.18084 0
M  V30 15827 H 1444.24 -1.78492 4.50853 0
M  V30 15828 N 1445.58 -1.40446 -0.715026 0
M  V30 15829 C 1446.81 -1.4207 -1.50412 0
M  V30 15830 C 1447.22 -0.0205547 -1.88789 0
M  V30 15831 O 1446.58 0.955635 -1.55479 0
M  V30 15832 C 1446.63 -2.3119 -2.77909 0
M  V30 15833 O 1446.35 -3.65754 -2.41154 0
M  V30 15834 C 1447.85 -2.41412 -3.718 0
M  V30 15835 H 1445.07 -0.484554 -0.464164 0
M  V30 15836 H 1447.62 -1.84504 -0.881964 0
M  V30 15837 H 1445.77 -1.92117 -3.36407 0
M  V30 15838 H 1446.19 -4.13091 -3.23197 0
M  V30 15839 H 1447.66 -3.07976 -4.58099 0
M  V30 15840 H 1448.14 -1.43934 -4.14945 0
M  V30 15841 H 1448.74 -2.81039 -3.19213 0
M  V30 15842 N 1447.06 0.947303 -1.25952 0
M  V30 15843 C 1447.97 2.07878 -1.08738 0
M  V30 15844 C 1448.99 1.73985 -0.0225212 0
M  V30 15845 O 1450.16 2.00139 -0.224984 0
M  V30 15846 C 1447.23 3.39231 -0.715756 0
M  V30 15847 C 1446.29 3.86945 -1.85935 0
M  V30 15848 C 1445.52 5.1203 -1.50537 0
M  V30 15849 O 1445.74 5.68965 -0.404323 0
M  V30 15850 O 1444.68 5.54634 -2.33805 0
M  V30 15851 H 1448.5 2.25305 -2.03645 0
M  V30 15852 H 1446.09 1.06321 -1.04958 0
M  V30 15853 H 1447.97 4.18167 -0.520962 0
M  V30 15854 H 1446.65 3.23057 0.203978 0
M  V30 15855 H 1445.55 3.08981 -2.10906 0
M  V30 15856 H 1446.89 4.0763 -2.75859 0
M  V30 15857 N 1448.54 1.07657 1.15099 0
M  V30 15858 C 1449.45 0.711198 2.2356 0
M  V30 15859 C 1450.46 -0.278932 1.7175 0
M  V30 15860 O 1451.64 -0.124788 2.01013 0
M  V30 15861 C 1448.71 0.117855 3.465 0
M  V30 15862 C 1447.77 1.16162 4.13286 0
M  V30 15863 C 1447 0.596494 5.30356 0
M  V30 15864 O 1447.22 -0.586474 5.67377 0
M  V30 15865 O 1446.16 1.34288 5.86729 0
M  V30 15866 H 1449.98 1.61578 2.5715 0
M  V30 15867 H 1447.57 0.84973 1.22882 0
M  V30 15868 H 1449.45 -0.210613 4.20873 0
M  V30 15869 H 1448.12 -0.760008 3.14652 0
M  V30 15870 H 1447.03 1.54249 3.4082 0
M  V30 15871 H 1448.36 2.01149 4.49221 0
M  V30 15872 N 1450.02 -1.31994 0.861122 0
M  V30 15873 C 1450.95 -2.26769 0.255177 0
M  V30 15874 C 1451.93 -1.50701 -0.610574 0
M  V30 15875 O 1453.11 -1.79803 -0.565952 0
M  V30 15876 C 1450.24 -3.32608 -0.639478 0
M  V30 15877 C 1449.28 -4.26223 0.153746 0
M  V30 15878 S 1450.12 -5.13284 1.52643 0
M  V30 15879 C 1451.27 -6.22643 0.637662 0
M  V30 15880 H 1451.51 -2.77815 1.05859 0
M  V30 15881 H 1449.04 -1.39624 0.659126 0
M  V30 15882 H 1451 -3.94063 -1.14999 0
M  V30 15883 H 1449.66 -2.80334 -1.41675 0
M  V30 15884 H 1448.85 -5.01227 -0.527946 0
M  V30 15885 H 1448.45 -3.6922 0.596058 0
M  V30 15886 H 1450.75 -6.77322 -0.155431 0
M  V30 15887 H 1451.69 -6.94945 1.35856 0
M  V30 15888 H 1452.1 -5.64112 0.209134 0
M  V30 15889 N 1451.49 -0.619688 -1.44906 0
M  V30 15890 C 1452.46 0.0822364 -2.29052 0
M  V30 15891 C 1453.46 0.783427 -1.40425 0
M  V30 15892 O 1454.65 0.629751 -1.62419 0
M  V30 15893 C 1451.78 1.12685 -3.21737 0
M  V30 15894 H 1452.97 -0.657726 -2.92599 0
M  V30 15895 H 1450.53 -0.379286 -1.51628 0
M  V30 15896 H 1451.26 1.89717 -2.63017 0
M  V30 15897 H 1451.05 0.628122 -3.87036 0
M  V30 15898 H 1452.54 1.61808 -3.84978 0
M  V30 15899 N 1452.97 1.53444 -0.359552 0
M  V30 15900 C 1454.22 2.00769 0.231564 0
M  V30 15901 C 1454.54 1.2487 1.49775 0
M  V30 15902 O 1453.81 0.360284 1.92558 0
M  V30 15903 H 1452.39 0.741732 0.0885581 0
M  V30 15904 H 1455.05 1.88785 -0.484397 0
M  V30 15905 H 1454.15 3.0865 0.462789 0
M  V30 15906 N 1454.45 0.0885642 1.57351 0
M  V30 15907 C 1455.38 -0.869946 2.16689 0
M  V30 15908 C 1456.36 -1.29878 1.09844 0
M  V30 15909 O 1457.55 -1.36684 1.37954 0
M  V30 15910 C 1454.68 -2.13148 2.74199 0
M  V30 15911 C 1453.63 -1.84149 3.86359 0
M  V30 15912 C 1452.96 -3.17075 4.30543 0
M  V30 15913 C 1454.26 -1.13357 5.09851 0
M  V30 15914 H 1455.95 -0.375578 2.97035 0
M  V30 15915 H 1453.5 -0.17921 1.42881 0
M  V30 15916 H 1455.45 -2.80634 3.14361 0
M  V30 15917 H 1454.17 -2.64856 1.91098 0
M  V30 15918 H 1452.83 -1.19063 3.46727 0
M  V30 15919 H 1452.48 -3.66658 3.44342 0
M  V30 15920 H 1452.18 -2.98457 5.06159 0
M  V30 15921 H 1453.7 -3.85731 4.73333 0
M  V30 15922 H 1455.12 -1.70941 5.47222 0
M  V30 15923 H 1453.52 -1.0494 5.90853 0
M  V30 15924 H 1454.59 -0.115273 4.84763 0
M  V30 15925 N 1455.93 -1.56509 -0.185096 0
M  V30 15926 C 1457.21 -1.72055 -0.930398 0
M  V30 15927 C 1457.59 -0.646145 -2.00968 0
M  V30 15928 O 1456.93 0.34129 -2.25937 0
M  V30 15929 C 1457.14 -3.14752 -1.50771 0
M  V30 15930 C 1458.49 -3.75292 -1.98597 0
M  V30 15931 O 1459.52 -3.17944 -1.60593 0
M  V30 15932 O 1458.37 -4.7596 -2.68561 0
M  V30 15933 H 1455.47 -0.702118 -0.436989 0
M  V30 15934 H 1458.01 -1.68806 -0.174007 0
M  V30 15935 H 1456.79 -3.84426 -0.730236 0
M  V30 15936 H 1456.41 -3.22272 -2.32866 0
M  V30 15937 N 1457.41 0.45317 -1.50944 0
M  V30 15938 C 1458.32 1.57435 -1.73929 0
M  V30 15939 C 1459.33 1.62467 -0.622935 0
M  V30 15940 O 1460.51 1.80004 -0.903365 0
M  V30 15941 C 1457.57 2.93534 -1.84495 0
M  V30 15942 C 1456.63 2.98747 -3.083 0
M  V30 15943 C 1455.87 4.28354 -3.18352 0
M  V30 15944 O 1456.09 5.1986 -2.34738 0
M  V30 15945 O 1455.02 4.39527 -4.11217 0
M  V30 15946 H 1458.85 1.40959 -2.69006 0
M  V30 15947 H 1456.44 0.634545 -1.35255 0
M  V30 15948 H 1458.32 3.74336 -1.93522 0
M  V30 15949 H 1456.99 3.10171 -0.926044 0
M  V30 15950 H 1455.9 2.16958 -3.04762 0
M  V30 15951 H 1457.23 2.87051 -3.99828 0
M  V30 15952 N 1458.88 1.40823 0.707568 0
M  V30 15953 C 1460.13 1.38837 1.46312 0
M  V30 15954 C 1460.45 -0.00353939 1.956 0
M  V30 15955 O 1461.65 -0.146022 2.71107 0
M  V30 15956 C 1460.11 2.44052 2.64512 0
M  V30 15957 C 1459.72 3.89093 2.2206 0
M  V30 15958 C 1461.46 2.51185 3.42208 0
M  V30 15959 C 1459.37 4.85887 3.37147 0
M  V30 15960 H 1458.3 0.516263 0.549535 0
M  V30 15961 H 1460.95 1.66595 0.769302 0
M  V30 15962 H 1459.33 2.09406 3.36103 0
M  V30 15963 H 1460.5 4.32925 1.57837 0
M  V30 15964 H 1458.82 3.8551 1.57388 0
M  V30 15965 H 1461.42 3.20687 4.2786 0
M  V30 15966 H 1461.76 1.54488 3.86574 0
M  V30 15967 H 1462.29 2.84862 2.77666 0
M  V30 15968 H 1459.03 5.83946 2.97805 0
M  V30 15969 H 1458.55 4.46713 4.00259 0
M  V30 15970 H 1460.23 5.06084 4.03098 0
M  V30 15971 N 1460.36 -0.94061 1.26453 0
M  V30 15972 C 1461.61 -1.68132 1.1142 0
M  V30 15973 C 1461.92 -1.92587 -0.342006 0
M  V30 15974 O 1463.13 -2.64489 -0.613018 0
M  V30 15975 C 1461.59 -3.02758 1.94591 0
M  V30 15976 C 1461.19 -2.86049 3.4479 0
M  V30 15977 C 1462.94 -3.80516 1.88169 0
M  V30 15978 C 1460.85 -4.1615 4.20206 0
M  V30 15979 H 1459.78 -0.630591 0.413366 0
M  V30 15980 H 1462.43 -1.04602 1.50767 0
M  V30 15981 H 1460.81 -3.67272 1.48078 0
M  V30 15982 H 1461.98 -2.3038 3.99076 0
M  V30 15983 H 1460.3 -2.21732 3.52454 0
M  V30 15984 H 1462.89 -4.76904 2.41799 0
M  V30 15985 H 1463.24 -4.07477 0.852531 0
M  V30 15986 H 1463.77 -3.22776 2.32509 0
M  V30 15987 H 1460.51 -3.94373 5.23593 0
M  V30 15988 H 1460.03 -4.71531 3.707 0
M  V30 15989 H 1461.71 -4.84602 4.28684 0
M  V30 15990 N 1461.84 -1.08266 -1.14527 0
M  V30 15991 C 1462.8 -0.715117 -2.17758 0
M  V30 15992 C 1463.8 0.24935 -1.58855 0
M  V30 15993 O 1464.99 0.0290846 -1.74176 0
M  V30 15994 C 1462.13 -0.055575 -3.40855 0
M  V30 15995 H 1463.32 -1.62921 -2.51787 0
M  V30 15996 H 1460.87 -0.880346 -1.2915 0
M  V30 15997 H 1461.61 0.870312 -3.12404 0
M  V30 15998 H 1461.39 -0.749382 -3.84872 0
M  V30 15999 H 1462.88 0.186592 -4.17183 0
M  V30 16000 N 1463.32 1.31536 -0.86811 0
M  V30 16001 C 1464.27 2.28562 -0.320602 0
M  V30 16002 C 1465.24 1.55648 0.579902 0
M  V30 16003 O 1466.42 1.83804 0.51194 0
M  V30 16004 C 1463.56 3.41836 0.473499 0
M  V30 16005 C 1462.67 4.29604 -0.454311 0
M  V30 16006 C 1461.81 5.30021 0.353733 0
M  V30 16007 C 1460.85 6.09434 -0.570624 0
M  V30 16008 N 1459.99 7.01812 0.201058 0
M  V30 16009 H 1464.83 2.74782 -1.15322 0
M  V30 16010 H 1462.36 1.35179 -0.580088 0
M  V30 16011 H 1464.32 4.06248 0.949662 0
M  V30 16012 H 1462.95 2.96732 1.27083 0
M  V30 16013 H 1462 3.65653 -1.04892 0
M  V30 16014 H 1463.31 4.85048 -1.16316 0
M  V30 16015 H 1462.47 6.001 0.892484 0
M  V30 16016 H 1461.21 4.75228 1.09589 0
M  V30 16017 H 1460.21 5.38247 -1.12115 0
M  V30 16018 H 1461.44 6.66314 -1.3116 0
M  V30 16019 H 1459.38 6.49431 0.926058 0
M  V30 16020 H 1459.3 7.54668 -0.448494 0
M  V30 16021 H 1460.57 7.76157 0.7211 0
M  V30 16022 N 1464.8 0.627364 1.44575 0
M  V30 16023 C 1465.73 -0.066735 2.33405 0
M  V30 16024 C 1466.71 -0.838666 1.47988 0
M  V30 16025 O 1467.89 -0.805296 1.76716 0
M  V30 16026 C 1465.02 -1.05148 3.31 0
M  V30 16027 C 1463.98 -0.391433 4.26206 0
M  V30 16028 C 1463.3 -1.48581 5.13642 0
M  V30 16029 C 1464.6 0.699942 5.17589 0
M  V30 16030 H 1466.3 0.675029 2.91691 0
M  V30 16031 H 1463.84 0.326066 1.4026 0
M  V30 16032 H 1465.8 -1.54576 3.92026 0
M  V30 16033 H 1464.52 -1.82408 2.70915 0
M  V30 16034 H 1463.18 0.0821694 3.66508 0
M  V30 16035 H 1462.83 -2.2492 4.49911 0
M  V30 16036 H 1462.53 -1.04957 5.7815 0
M  V30 16037 H 1464.05 -1.98198 5.77538 0
M  V30 16038 H 1465.47 0.288911 5.72572 0
M  V30 16039 H 1463.86 1.0591 5.9068 0
M  V30 16040 H 1464.93 1.5686 4.58828 0
M  V30 16041 N 1466.28 -1.53251 0.367684 0
M  V30 16042 C 1467.5 -2.05705 -0.222047 0
M  V30 16043 C 1467.92 -1.24104 -1.4228 0
M  V30 16044 O 1467.28 -0.282228 -1.80305 0
M  V30 16045 C 1467.33 -3.56257 -0.613475 0
M  V30 16046 O 1467.05 -4.34765 0.539558 0
M  V30 16047 C 1468.55 -4.24976 -1.26137 0
M  V30 16048 H 1465.77 -0.66989 -0.0385799 0
M  V30 16049 H 1468.31 -1.97602 0.526663 0
M  V30 16050 H 1466.47 -3.64503 -1.3121 0
M  V30 16051 H 1466.88 -5.24027 0.222699 0
M  V30 16052 H 1468.36 -5.31628 -1.4858 0
M  V30 16053 H 1468.83 -3.78828 -2.2223 0
M  V30 16054 H 1469.44 -4.20987 -0.604121 0
M  V30 16055 N 1467.75 -0.0969077 -1.57302 0
M  V30 16056 C 1468.7 0.861379 -2.14124 0
M  V30 16057 C 1469.67 1.27858 -1.06026 0
M  V30 16058 O 1470.86 1.36001 -1.33822 0
M  V30 16059 C 1468 2.11443 -2.72738 0
M  V30 16060 C 1467.11 1.7476 -3.95074 0
M  V30 16061 C 1466.24 2.94864 -4.41847 0
M  V30 16062 C 1465.28 2.54316 -5.56767 0
M  V30 16063 N 1464.42 3.67261 -5.98384 0
M  V30 16064 H 1469.26 0.369968 -2.95694 0
M  V30 16065 H 1466.8 0.170943 -1.46103 0
M  V30 16066 H 1468.75 2.84829 -3.04842 0
M  V30 16067 H 1467.38 2.5808 -1.93893 0
M  V30 16068 H 1466.44 0.91335 -3.69272 0
M  V30 16069 H 1467.75 1.40946 -4.78472 0
M  V30 16070 H 1466.9 3.76501 -4.75744 0
M  V30 16071 H 1465.64 3.31889 -3.57352 0
M  V30 16072 H 1464.65 1.71106 -5.22497 0
M  V30 16073 H 1465.87 2.18432 -6.43012 0
M  V30 16074 H 1463.82 4.04001 -5.16836 0
M  V30 16075 H 1463.73 3.37298 -6.76584 0
M  V30 16076 H 1465 4.49403 -6.36912 0
M  V30 16077 N 1469.23 1.56605 0.176793 0
M  V30 16078 C 1470.14 1.99211 1.23903 0
M  V30 16079 C 1471.16 0.902614 1.48758 0
M  V30 16080 O 1472.33 1.20982 1.61014 0
M  V30 16081 C 1469.4 2.33873 2.55938 0
M  V30 16082 C 1468.46 3.56624 2.38994 0
M  V30 16083 C 1467.69 3.89623 3.64733 0
M  V30 16084 O 1467.92 3.23662 4.6968 0
M  V30 16085 O 1466.85 4.82992 3.5917 0
M  V30 16086 H 1470.68 2.89827 0.907398 0
M  V30 16087 H 1468.26 1.44401 0.383234 0
M  V30 16088 H 1470.14 2.57161 3.33836 0
M  V30 16089 H 1468.82 1.46421 2.88691 0
M  V30 16090 H 1467.72 3.38561 1.59146 0
M  V30 16091 H 1469.06 4.446 2.11167 0
M  V30 16092 N 1470.71 -0.445159 1.51182 0
M  V30 16093 C 1471.66 -1.53975 1.71931 0
M  V30 16094 C 1472.63 -1.56344 0.560865 0
M  V30 16095 O 1473.81 -1.73475 0.794414 0
M  V30 16096 C 1470.95 -2.91756 1.84316 0
M  V30 16097 C 1470.06 -2.98976 3.11829 0
M  V30 16098 C 1469.2 -4.27831 3.14855 0
M  V30 16099 C 1468.24 -4.2889 4.36715 0
M  V30 16100 N 1467.38 -5.49257 4.37334 0
M  V30 16101 H 1472.22 -1.35586 2.65368 0
M  V30 16102 H 1469.75 -0.658787 1.31523 0
M  V30 16103 H 1471.71 -3.7169 1.89479 0
M  V30 16104 H 1470.34 -3.08721 0.942947 0
M  V30 16105 H 1469.39 -2.11753 3.16014 0
M  V30 16106 H 1470.7 -2.95619 4.01759 0
M  V30 16107 H 1469.86 -5.16134 3.1889 0
M  V30 16108 H 1468.6 -4.33833 2.228 0
M  V30 16109 H 1467.6 -3.38982 4.32864 0
M  V30 16110 H 1468.83 -4.24558 5.30026 0
M  V30 16111 H 1466.77 -5.55995 3.48145 0
M  V30 16112 H 1466.69 -5.47748 5.21064 0
M  V30 16113 H 1467.96 -6.39613 4.45551 0
M  V30 16114 N 1472.19 -1.41197 -0.700089 0
M  V30 16115 C 1473.13 -1.42688 -1.81407 0
M  V30 16116 C 1474.1 -0.28182 -1.63692 0
M  V30 16117 O 1475.29 -0.482196 -1.84606 0
M  V30 16118 C 1472.43 -1.31041 -3.19252 0
M  V30 16119 C 1471.54 -2.5538 -3.48432 0
M  V30 16120 C 1470.68 -2.3606 -4.75867 0
M  V30 16121 C 1469.72 -3.55898 -4.97999 0
M  V30 16122 N 1468.85 -3.35676 -6.16657 0
M  V30 16123 H 1473.69 -2.37898 -1.79467 0
M  V30 16124 H 1471.23 -1.18137 -0.87647 0
M  V30 16125 H 1473.19 -1.22292 -3.98874 0
M  V30 16126 H 1471.82 -0.394422 -3.20381 0
M  V30 16127 H 1470.87 -2.74598 -2.6325 0
M  V30 16128 H 1472.18 -3.44535 -3.6069 0
M  V30 16129 H 1471.34 -2.24752 -5.63535 0
M  V30 16130 H 1470.08 -1.44355 -4.65846 0
M  V30 16131 H 1469.08 -3.67665 -4.08781 0
M  V30 16132 H 1470.31 -4.4855 -5.09882 0
M  V30 16133 H 1468.25 -2.46667 -6.07858 0
M  V30 16134 H 1468.17 -4.18404 -6.29662 0
M  V30 16135 H 1469.44 -3.28132 -7.07071 0
M  V30 16136 N 1473.67 0.933891 -1.2695 0
M  V30 16137 C 1474.63 2.0152 -1.0919 0
M  V30 16138 C 1475.63 1.60755 -0.037865 0
M  V30 16139 O 1476.82 1.71904 -0.281917 0
M  V30 16140 C 1473.95 3.34403 -0.66239 0
M  V30 16141 H 1475.14 2.18706 -2.05201 0
M  V30 16142 H 1472.7 1.11385 -1.0965 0
M  V30 16143 H 1473.43 3.22915 0.299388 0
M  V30 16144 H 1473.22 3.65345 -1.42356 0
M  V30 16145 H 1474.71 4.13826 -0.560187 0
M  V30 16146 N 1475.14 1.08871 1.13951 0
M  V30 16147 C 1476.07 0.744715 2.21306 0
M  V30 16148 C 1477.05 -0.275019 1.67862 0
M  V30 16149 O 1478.24 -0.144339 1.93663 0
M  V30 16150 C 1475.37 0.158336 3.46939 0
M  V30 16151 C 1474.32 1.10695 4.13438 0
M  V30 16152 C 1473.65 0.382552 5.3333 0
M  V30 16153 C 1474.95 2.44704 4.61429 0
M  V30 16154 H 1476.64 1.6423 2.50337 0
M  V30 16155 H 1474.19 0.791088 1.20324 0
M  V30 16156 H 1476.14 -0.0943587 4.21294 0
M  V30 16157 H 1474.87 -0.774413 3.17286 0
M  V30 16158 H 1473.53 1.34482 3.41043 0
M  V30 16159 H 1473.17 -0.554153 4.99938 0
M  V30 16160 H 1472.87 1.01499 5.78767 0
M  V30 16161 H 1474.4 0.138023 6.10444 0
M  V30 16162 H 1475.81 2.25156 5.27236 0
M  V30 16163 H 1474.21 3.03684 5.17586 0
M  V30 16164 H 1475.28 3.05883 3.76249 0
M  V30 16165 N 1476.62 -1.31073 0.875073 0
M  V30 16166 C 1477.55 -2.27335 0.291809 0
M  V30 16167 C 1478.57 -1.53298 -0.548036 0
M  V30 16168 O 1479.76 -1.7464 -0.369198 0
M  V30 16169 C 1476.86 -3.33465 -0.604521 0
M  V30 16170 C 1476.03 -4.36924 0.204029 0
M  V30 16171 C 1475.09 -5.2252 -0.621238 0
M  V30 16172 O 1474.11 -5.6918 -0.0474551 0
M  V30 16173 N 1475.32 -5.47397 -1.93227 0
M  V30 16174 H 1478.08 -2.78024 1.11906 0
M  V30 16175 H 1475.64 -1.44149 0.737064 0
M  V30 16176 H 1477.63 -3.87646 -1.16243 0
M  V30 16177 H 1476.2 -2.8278 -1.33244 0
M  V30 16178 H 1475.42 -3.82745 0.943389 0
M  V30 16179 H 1476.71 -5.03112 0.758644 0
M  V30 16180 H 1476.11 -5.11253 -2.4215 0
M  V30 16181 H 1474.67 -6.04493 -2.43785 0
M  V30 16182 N 1478.1 -0.635022 -1.4424 0
M  V30 16183 C 1479.01 0.0686832 -2.34499 0
M  V30 16184 C 1480.03 0.831574 -1.52843 0
M  V30 16185 O 1481.2 0.782954 -1.85558 0
M  V30 16186 C 1478.27 1.03543 -3.30877 0
M  V30 16187 C 1477.33 0.271484 -4.28441 0
M  V30 16188 C 1476.56 1.19218 -5.20214 0
M  V30 16189 O 1476.78 2.43101 -5.16002 0
M  V30 16190 O 1475.72 0.6744 -5.9811 0
M  V30 16191 H 1479.54 -0.673781 -2.96132 0
M  V30 16192 H 1477.13 -0.395211 -1.44078 0
M  V30 16193 H 1479.01 1.59151 -3.90191 0
M  V30 16194 H 1477.69 1.75844 -2.71773 0
M  V30 16195 H 1476.59 -0.327736 -3.72662 0
M  V30 16196 H 1477.93 -0.411584 -4.90476 0
M  V30 16197 N 1479.58 1.53054 -0.375806 0
M  V30 16198 C 1480.54 2.24666 0.453608 0
M  V30 16199 C 1481.54 1.25816 1.00135 0
M  V30 16200 O 1482.73 1.50016 0.885481 0
M  V30 16201 C 1479.86 2.99131 1.63503 0
M  V30 16202 H 1481.06 2.994 -0.173172 0
M  V30 16203 H 1478.61 1.55778 -0.127673 0
M  V30 16204 H 1479.34 2.28666 2.29962 0
M  V30 16205 H 1479.13 3.71671 1.24913 0
M  V30 16206 H 1480.62 3.53542 2.22256 0
M  V30 16207 N 1481.06 0.105248 1.57248 0
M  V30 16208 C 1482.01 -0.860855 2.11124 0
M  V30 16209 C 1482.99 -1.23721 1.02868 0
M  V30 16210 O 1484.18 -1.2106 1.29126 0
M  V30 16211 C 1481.31 -2.11612 2.70325 0
M  V30 16212 C 1480.4 -1.76474 3.85639 0
M  V30 16213 N 1480.79 -1.11944 4.93257 0
M  V30 16214 C 1479.09 -2.0602 3.95565 0
M  V30 16215 C 1479.79 -0.956421 5.73783 0
M  V30 16216 N 1478.76 -1.47701 5.23149 0
M  V30 16217 H 1482.57 -0.35816 2.91709 0
M  V30 16218 H 1480.08 -0.0976543 1.62106 0
M  V30 16219 H 1482.08 -2.81778 3.07257 0
M  V30 16220 H 1480.74 -2.62438 1.91198 0
M  V30 16221 H 1481.75 -0.785042 5.11916 0
M  V30 16222 H 1478.42 -2.58989 3.27461 0
M  V30 16223 H 1479.81 -0.450964 6.70385 0
M  V30 16224 N 1482.53 -1.56697 -0.168486 0
M  V30 16225 C 1483.47 -1.93197 -1.23319 0
M  V30 16226 C 1484.48 -0.825373 -1.40326 0
M  V30 16227 O 1485.67 -1.10381 -1.40279 0
M  V30 16228 C 1482.77 -2.17205 -2.60145 0
M  V30 16229 C 1481.94 -3.48442 -2.64399 0
M  V30 16230 C 1481 -3.61244 -3.82609 0
M  V30 16231 O 1480.03 -4.33837 -3.68476 0
M  V30 16232 N 1481.23 -2.96304 -4.99183 0
M  V30 16233 H 1483.99 -2.85128 -0.923138 0
M  V30 16234 H 1481.55 -1.57887 -0.358229 0
M  V30 16235 H 1483.55 -2.23031 -3.37697 0
M  V30 16236 H 1482.12 -1.31643 -2.83529 0
M  V30 16237 H 1481.34 -3.54248 -1.72922 0
M  V30 16238 H 1482.62 -4.34795 -2.64255 0
M  V30 16239 H 1482.02 -2.37203 -5.13567 0
M  V30 16240 H 1480.58 -3.07722 -5.74587 0
M  V30 16241 N 1484.01 0.437135 -1.51416 0
M  V30 16242 C 1484.94 1.54894 -1.68939 0
M  V30 16243 C 1485.96 1.52493 -0.570059 0
M  V30 16244 O 1487.15 1.57266 -0.844381 0
M  V30 16245 C 1484.25 2.9381 -1.68904 0
M  V30 16246 C 1483.42 3.20714 -2.97425 0
M  V30 16247 C 1482.48 4.39355 -2.89575 0
M  V30 16248 O 1481.5 4.37999 -3.63519 0
M  V30 16249 N 1482.71 5.42931 -2.05441 0
M  V30 16250 H 1485.47 1.40267 -2.64849 0
M  V30 16251 H 1483.03 0.626075 -1.49305 0
M  V30 16252 H 1485.02 3.71201 -1.61221 0
M  V30 16253 H 1483.59 3.02034 -0.805871 0
M  V30 16254 H 1482.81 2.31621 -3.18975 0
M  V30 16255 H 1484.1 3.35516 -3.825 0
M  V30 16256 H 1483.5 5.4687 -1.44742 0
M  V30 16257 H 1482.06 6.19173 -2.03636 0
M  V30 16258 N 1485.49 1.41566 0.692592 0
M  V30 16259 C 1486.45 1.43369 1.78824 0
M  V30 16260 C 1487.45 0.323867 1.57505 0
M  V30 16261 O 1488.64 0.583885 1.64123 0
M  V30 16262 C 1485.78 1.24798 3.17235 0
M  V30 16263 H 1486.97 2.40906 1.78617 0
M  V30 16264 H 1484.52 1.27752 0.900508 0
M  V30 16265 H 1485.26 0.281129 3.23079 0
M  V30 16266 H 1485.04 2.05212 3.34111 0
M  V30 16267 H 1486.53 1.28902 3.97208 0
M  V30 16268 N 1486.97 -0.927146 1.27443 0
M  V30 16269 C 1487.9 -2.04483 1.12735 0
M  V30 16270 C 1488.88 -1.70076 0.0286662 0
M  V30 16271 O 1490.06 -1.93133 0.203252 0
M  V30 16272 C 1487.19 -3.38557 0.774352 0
M  V30 16273 C 1486.15 -3.87078 1.82632 0
M  V30 16274 C 1485.47 -5.17964 1.32729 0
M  V30 16275 C 1486.77 -4.10409 3.23051 0
M  V30 16276 H 1488.47 -2.17046 2.06231 0
M  V30 16277 H 1486.01 -1.04292 0.992937 0
M  V30 16278 H 1487.97 -4.16227 0.658273 0
M  V30 16279 H 1486.69 -3.26009 -0.196321 0
M  V30 16280 H 1485.35 -3.11602 1.93132 0
M  V30 16281 H 1485 -5.01808 0.346059 0
M  V30 16282 H 1484.7 -5.51398 2.03061 0
M  V30 16283 H 1486.22 -5.98203 1.22416 0
M  V30 16284 H 1487.64 -4.78646 3.15549 0
M  V30 16285 H 1486.03 -4.5515 3.91099 0
M  V30 16286 H 1487.1 -3.15685 3.68064 0
M  V30 16287 N 1488.45 -1.09474 -1.13372 0
M  V30 16288 C 1489.72 -0.743485 -1.80919 0
M  V30 16289 C 1490.1 0.771414 -1.965 0
M  V30 16290 O 1489.45 1.694 -1.53349 0
M  V30 16291 C 1489.66 -1.48309 -3.1592 0
M  V30 16292 C 1491.01 -1.64921 -3.91263 0
M  V30 16293 O 1492.03 -1.44564 -3.25545 0
M  V30 16294 O 1490.89 -1.98595 -5.09139 0
M  V30 16295 H 1487.99 -0.26713 -0.782669 0
M  V30 16296 H 1490.53 -1.19697 -1.20294 0
M  V30 16297 H 1489.3 -2.51456 -2.99809 0
M  V30 16298 H 1488.93 -1.02181 -3.84246 0
M  V30 16299 N 1489.92 1.30607 -0.882012 0
M  V30 16300 C 1491.2 1.91056 -0.419153 0
M  V30 16301 C 1491.58 1.80185 1.09985 0
M  V30 16302 O 1490.93 1.21717 1.93384 0
M  V30 16303 C 1491.14 3.3682 -0.913949 0
M  V30 16304 C 1492.49 4.13901 -0.947169 0
M  V30 16305 O 1493.51 3.45652 -0.860412 0
M  V30 16306 O 1492.37 5.35826 -1.07483 0
M  V30 16307 H 1489.46 0.81709 -0.127645 0
M  V30 16308 H 1492.01 1.39195 -0.970717 0
M  V30 16309 H 1490.78 3.38804 -1.95774 0
M  V30 16310 H 1490.41 3.96132 -0.34138 0
M  V30 16311 N 1491.4 0.642663 1.43901 0
M  V30 16312 C 1492.33 -0.0419756 2.33462 0
M  V30 16313 C 1493.31 -0.822923 1.48869 0
M  V30 16314 O 1494.5 -0.786508 1.7756 0
M  V30 16315 C 1491.63 -1.01631 3.32097 0
M  V30 16316 C 1490.58 -0.346206 4.26597 0
M  V30 16317 C 1489.91 -1.43125 5.15189 0
M  V30 16318 C 1491.21 0.754799 5.16817 0
M  V30 16319 H 1492.9 0.705929 2.90959 0
M  V30 16320 H 1490.45 0.340924 1.39906 0
M  V30 16321 H 1492.4 -1.5041 3.93643 0
M  V30 16322 H 1491.13 -1.79525 2.72834 0
M  V30 16323 H 1489.78 0.121038 3.664 0
M  V30 16324 H 1489.43 -2.20135 4.52271 0
M  V30 16325 H 1489.13 -0.988194 5.79231 0
M  V30 16326 H 1490.66 -1.92061 5.79607 0
M  V30 16327 H 1492.07 0.349624 5.72233 0
M  V30 16328 H 1490.47 1.12169 5.89524 0
M  V30 16329 H 1491.54 1.61718 4.57138 0
M  V30 16330 N 1492.88 -1.52852 0.383918 0
M  V30 16331 C 1493.81 -2.23927 -0.488816 0
M  V30 16332 C 1494.83 -1.2598 -1.03115 0
M  V30 16333 O 1496.02 -1.5209 -0.934398 0
M  V30 16334 C 1493.12 -2.9378 -1.68957 0
M  V30 16335 C 1492.29 -4.18388 -1.27555 0
M  V30 16336 C 1491.35 -4.71287 -2.3404 0
M  V30 16337 O 1490.37 -5.34511 -1.9567 0
M  V30 16338 N 1491.58 -4.50679 -3.65881 0
M  V30 16339 H 1494.34 -2.99459 0.120084 0
M  V30 16340 H 1491.9 -1.60532 0.210004 0
M  V30 16341 H 1493.89 -3.26071 -2.39707 0
M  V30 16342 H 1492.46 -2.21588 -2.20493 0
M  V30 16343 H 1491.68 -3.92194 -0.397157 0
M  V30 16344 H 1492.97 -4.99361 -0.975506 0
M  V30 16345 H 1492.37 -4.00201 -3.9982 0
M  V30 16346 H 1490.93 -4.87473 -4.32681 0
M  V30 16347 N 1494.36 -0.113586 -1.5719 0
M  V30 16348 C 1495.32 0.824258 -2.13866 0
M  V30 16349 C 1496.32 1.19831 -1.07224 0
M  V30 16350 O 1497.51 1.12471 -1.33026 0
M  V30 16351 C 1494.64 2.11391 -2.67445 0
M  V30 16352 H 1495.84 0.331803 -2.98059 0
M  V30 16353 H 1493.39 0.135599 -1.55711 0
M  V30 16354 H 1494.13 2.65079 -1.86824 0
M  V30 16355 H 1493.91 1.85523 -3.45433 0
M  V30 16356 H 1495.4 2.78443 -3.11222 0
M  V30 16357 N 1495.84 1.56784 0.160173 0
M  V30 16358 C 1496.75 2.00514 1.21783 0
M  V30 16359 C 1497.76 0.918341 1.47792 0
M  V30 16360 O 1498.94 1.22683 1.59721 0
M  V30 16361 C 1496 2.36575 2.53443 0
M  V30 16362 C 1495.07 3.59138 2.35198 0
M  V30 16363 C 1494.3 3.93469 3.6058 0
M  V30 16364 O 1494.52 3.28625 4.6622 0
M  V30 16365 O 1493.46 4.86774 3.54027 0
M  V30 16366 H 1497.28 2.90774 0.876607 0
M  V30 16367 H 1494.87 1.44799 0.367897 0
M  V30 16368 H 1496.75 2.60687 3.31089 0
M  V30 16369 H 1495.42 1.49474 2.87122 0
M  V30 16370 H 1494.33 3.4023 1.55546 0
M  V30 16371 H 1495.66 4.46815 2.0644 0
M  V30 16372 N 1497.32 -0.429099 1.51646 0
M  V30 16373 C 1498.23 -1.54648 1.76412 0
M  V30 16374 C 1499.24 -1.61455 0.648703 0
M  V30 16375 O 1500.42 -1.78544 0.931888 0
M  V30 16376 C 1497.48 -2.90562 1.89142 0
M  V30 16377 C 1496.54 -2.93804 3.13014 0
M  V30 16378 C 1495.78 -4.23235 3.25127 0
M  V30 16379 O 1496 -5.1606 2.42979 0
M  V30 16380 O 1494.93 -4.32929 4.18158 0
M  V30 16381 H 1498.76 -1.36661 2.71215 0
M  V30 16382 H 1496.34 -0.612946 1.36247 0
M  V30 16383 H 1498.23 -3.7121 1.99453 0
M  V30 16384 H 1496.9 -3.08659 0.975272 0
M  V30 16385 H 1495.81 -2.12082 3.08175 0
M  V30 16386 H 1497.14 -2.80654 4.04344 0
M  V30 16387 N 1498.79 -1.41931 -0.685074 0
M  V30 16388 C 1500.07 -1.32338 -1.44035 0
M  V30 16389 C 1500.45 0.0441161 -2.11054 0
M  V30 16390 O 1499.8 1.05901 -2.02478 0
M  V30 16391 C 1500.01 -2.48429 -2.45121 0
M  V30 16392 C 1501.36 -2.90076 -3.10067 0
M  V30 16393 O 1502.38 -2.48245 -2.55447 0
M  V30 16394 O 1501.24 -3.62445 -4.09019 0
M  V30 16395 H 1498.33 -0.521361 -0.641959 0
M  V30 16396 H 1500.88 -1.53918 -0.714666 0
M  V30 16397 H 1499.65 -3.39637 -1.94326 0
M  V30 16398 H 1499.27 -2.28781 -3.25184 0
M  V30 16399 N 1500.27 0.920374 -1.27933 0
M  V30 16400 C 1501.22 2.02196 -1.1129 0
M  V30 16401 C 1502.19 1.66096 -0.0118871 0
M  V30 16402 O 1503.37 1.8999 -0.175586 0
M  V30 16403 C 1500.51 3.36312 -0.77383 0
M  V30 16404 C 1499.63 3.85322 -1.95322 0
M  V30 16405 C 1498.76 5.07919 -1.55537 0
M  V30 16406 C 1497.8 5.49244 -2.7018 0
M  V30 16407 N 1496.94 6.63034 -2.30933 0
M  V30 16408 H 1501.78 2.15764 -2.05548 0
M  V30 16409 H 1499.31 1.05691 -1.02312 0
M  V30 16410 H 1501.27 4.13451 -0.558024 0
M  V30 16411 H 1499.9 3.22531 0.131806 0
M  V30 16412 H 1498.95 3.04399 -2.28135 0
M  V30 16413 H 1500.27 4.11915 -2.81296 0
M  V30 16414 H 1499.42 5.92581 -1.30123 0
M  V30 16415 H 1498.16 4.8312 -0.666818 0
M  V30 16416 H 1497.16 4.63127 -2.96299 0
M  V30 16417 H 1498.39 5.76035 -3.59667 0
M  V30 16418 H 1496.34 6.39878 -1.44539 0
M  V30 16419 H 1496.25 6.89319 -3.10444 0
M  V30 16420 H 1497.52 7.51018 -2.08786 0
M  V30 16421 N 1501.75 1.10074 1.1279 0
M  V30 16422 C 1503 0.842118 1.84489 0
M  V30 16423 C 1503.33 -0.630737 1.83672 0
M  V30 16424 O 1502.6 -1.46481 1.27959 0
M  V30 16425 C 1502.89 1.3864 3.32342 0
M  V30 16426 C 1502.74 2.92585 3.41635 0
M  V30 16427 C 1504.06 1.02565 4.27982 0
M  V30 16428 H 1501.18 0.307376 0.669842 0
M  V30 16429 H 1503.82 1.36326 1.32345 0
M  V30 16430 H 1501.97 0.943134 3.76878 0
M  V30 16431 H 1503.64 3.4541 3.0576 0
M  V30 16432 H 1501.88 3.29378 2.82299 0
M  V30 16433 H 1502.56 3.25749 4.45636 0
M  V30 16434 H 1505.03 1.40807 3.91552 0
M  V30 16435 H 1503.91 1.43345 5.29852 0
M  V30 16436 H 1504.17 -0.0653712 4.42052 0
M  V30 16437 N 1503.23 -1.30138 0.888926 0
M  V30 16438 C 1504.18 -2.29979 0.348212 0
M  V30 16439 C 1505.17 -1.60329 -0.546894 0
M  V30 16440 O 1506.38 -1.74767 -0.43089 0
M  V30 16441 H 1502.75 -0.746107 0.0939563 0
M  V30 16442 H 1504.72 -2.73038 1.20385 0
M  V30 16443 C 1503.47 -3.45169 -0.418762 0
M  V30 16444 H 1502.79 -3.98949 0.260761 0
M  V30 16445 H 1504.23 -4.17094 -0.762133 0
M  V30 16446 C 1502.69 -2.95539 -1.61734 0
M  V30 16447 O 1503.22 -2.95902 -2.7167 0
M  V30 16448 N 1501.43 -2.51502 -1.45585 0
M  V30 16449 H 1500.98 -2.51406 -0.561483 0
M  V30 16450 H 1500.93 -2.18654 -2.25916 0
M  V30 16451 N 1504.71 -0.650285 -1.43559 0
M  V30 16452 C 1505.93 -0.170139 -2.06199 0
M  V30 16453 C 1506.35 1.16304 -1.48724 0
M  V30 16454 O 1505.71 1.71739 -0.617418 0
M  V30 16455 C 1505.76 -0.0698577 -3.61432 0
M  V30 16456 O 1505.48 -1.35033 -4.16771 0
M  V30 16457 C 1506.98 0.436714 -4.41144 0
M  V30 16458 H 1504.2 -0.0885316 -0.665134 0
M  V30 16459 H 1506.74 -0.890104 -1.84112 0
M  V30 16460 H 1504.9 0.60065 -3.82715 0
M  V30 16461 H 1505.31 -1.20762 -5.10409 0
M  V30 16462 H 1506.79 0.455843 -5.50115 0
M  V30 16463 H 1507.26 1.46747 -4.13959 0
M  V30 16464 H 1507.87 -0.201201 -4.24824 0
M  V30 16465 N 1506.18 1.52647 -0.392018 0
M  V30 16466 C 1507.11 2.29446 0.433228 0
M  V30 16467 C 1508.09 1.32945 1.06111 0
M  V30 16468 O 1509.28 1.61841 1.07337 0
M  V30 16469 C 1506.41 3.10328 1.55929 0
M  V30 16470 C 1505.36 4.14735 1.05731 0
M  V30 16471 C 1504.69 4.83858 2.27565 0
M  V30 16472 C 1505.99 5.22154 0.123346 0
M  V30 16473 H 1507.68 2.9868 -0.207563 0
M  V30 16474 H 1505.23 1.43643 -0.101266 0
M  V30 16475 H 1507.18 3.62814 2.14346 0
M  V30 16476 H 1505.91 2.38832 2.22771 0
M  V30 16477 H 1504.57 3.63234 0.495653 0
M  V30 16478 H 1504.21 4.08907 2.92923 0
M  V30 16479 H 1503.91 5.54428 1.94637 0
M  V30 16480 H 1505.44 5.39149 2.86619 0
M  V30 16481 H 1506.85 5.69983 0.615784 0
M  V30 16482 H 1505.25 5.99987 -0.116304 0
M  V30 16483 H 1506.32 4.77796 -0.826969 0
M  V30 16484 N 1507.66 0.121921 1.57128 0
M  V30 16485 C 1508.89 -0.543012 1.99647 0
M  V30 16486 C 1509.31 -1.60038 1.00165 0
M  V30 16487 O 1508.66 -1.82499 -0.00504688 0
M  V30 16488 C 1508.71 -1.1665 3.42162 0
M  V30 16489 O 1508.43 -0.151385 4.37838 0
M  V30 16490 C 1509.94 -1.91447 3.99829 0
M  V30 16491 H 1507.16 -0.143524 0.655471 0
M  V30 16492 H 1509.7 0.20912 2.03428 0
M  V30 16493 H 1507.85 -1.86939 3.39312 0
M  V30 16494 H 1508.27 -0.604773 5.21002 0
M  V30 16495 H 1509.74 -2.30394 5.0162 0
M  V30 16496 H 1510.22 -2.7908 3.39133 0
M  V30 16497 H 1510.83 -1.25913 4.06234 0
M  V30 16498 N 1509.14 -1.56867 -0.151857 0
M  V30 16499 C 1510.09 -1.97899 -1.18763 0
M  V30 16500 C 1511.06 -0.845833 -1.42951 0
M  V30 16501 O 1512.24 -1.10751 -1.55367 0
M  V30 16502 C 1509.38 -2.36063 -2.5173 0
M  V30 16503 C 1508.5 -3.62647 -2.34757 0
M  V30 16504 C 1507.63 -3.89936 -3.60726 0
M  V30 16505 C 1506.67 -5.09806 -3.38769 0
M  V30 16506 N 1505.81 -5.33129 -4.56856 0
M  V30 16507 H 1510.65 -2.86187 -0.830713 0
M  V30 16508 H 1508.18 -1.41592 -0.398745 0
M  V30 16509 H 1510.14 -2.56218 -3.29254 0
M  V30 16510 H 1508.77 -1.50861 -2.85379 0
M  V30 16511 H 1507.82 -3.50297 -1.48312 0
M  V30 16512 H 1509.14 -4.50328 -2.1449 0
M  V30 16513 H 1508.29 -4.10563 -4.4668 0
M  V30 16514 H 1507.03 -3.00668 -3.83993 0
M  V30 16515 H 1506.03 -4.89057 -2.51203 0
M  V30 16516 H 1507.26 -6.00623 -3.16906 0
M  V30 16517 H 1505.2 -4.46815 -4.80305 0
M  V30 16518 H 1505.12 -6.1507 -4.39574 0
M  V30 16519 H 1506.39 -5.5825 -5.44038 0
M  V30 16520 N 1510.62 0.421051 -1.51871 0
M  V30 16521 C 1511.58 1.49478 -1.73749 0
M  V30 16522 C 1512.58 1.48887 -0.607395 0
M  V30 16523 O 1513.77 1.50622 -0.875143 0
M  V30 16524 C 1510.9 2.88947 -1.80893 0
M  V30 16525 H 1512.1 1.31377 -2.69593 0
M  V30 16526 H 1509.65 0.650786 -1.42107 0
M  V30 16527 H 1510.38 3.12434 -0.86922 0
M  V30 16528 H 1510.17 2.90781 -2.63038 0
M  V30 16529 H 1511.66 3.66809 -1.99602 0
M  V30 16530 N 1512.1 1.42293 0.677538 0
M  V30 16531 C 1513.04 1.45556 1.79114 0
M  V30 16532 C 1514.01 0.307826 1.63223 0
M  V30 16533 O 1515.2 0.511504 1.83816 0
M  V30 16534 C 1512.34 1.36104 3.17127 0
M  V30 16535 C 1511.45 2.60891 3.44325 0
M  V30 16536 C 1510.59 2.43601 4.72051 0
M  V30 16537 C 1509.63 3.63775 4.92274 0
M  V30 16538 N 1508.76 3.45444 6.11239 0
M  V30 16539 H 1513.6 2.40723 1.7566 0
M  V30 16540 H 1511.14 1.19517 0.857565 0
M  V30 16541 H 1513.1 1.28622 3.96878 0
M  V30 16542 H 1511.73 0.445342 3.19713 0
M  V30 16543 H 1510.78 2.78751 2.58848 0
M  V30 16544 H 1512.09 3.50229 3.55163 0
M  V30 16545 H 1511.25 2.33689 5.59888 0
M  V30 16546 H 1509.98 1.51748 4.63491 0
M  V30 16547 H 1508.99 3.74122 4.0288 0
M  V30 16548 H 1510.21 4.56605 5.02681 0
M  V30 16549 H 1508.16 2.56306 6.03857 0
M  V30 16550 H 1508.08 4.28368 6.22926 0
M  V30 16551 H 1509.35 3.39339 7.01762 0
M  V30 16552 N 1513.57 -0.913576 1.28419 0
M  V30 16553 C 1514.82 -1.66519 1.15755 0
M  V30 16554 C 1515.15 -1.91974 -0.293166 0
M  V30 16555 O 1514.43 -1.52025 -1.21321 0
M  V30 16556 C 1514.71 -3.02299 1.95672 0
M  V30 16557 C 1514.56 -2.83996 3.48807 0
M  V30 16558 C 1515.88 -4.02838 1.77226 0
M  V30 16559 H 1513 -0.604309 0.421877 0
M  V30 16560 H 1515.64 -1.05919 1.57737 0
M  V30 16561 H 1513.79 -3.54025 1.59995 0
M  V30 16562 H 1515.47 -2.39279 3.9439 0
M  V30 16563 H 1513.71 -2.19052 3.74431 0
M  V30 16564 H 1514.38 -3.80419 3.99982 0
M  V30 16565 H 1516.86 -3.60174 2.0836 0
M  V30 16566 H 1515.73 -4.95806 2.35515 0
M  V30 16567 H 1515.99 -4.36135 0.723804 0
M  V30 16568 N 1515.05 -1.1067 -1.12204 0
M  V30 16569 C 1516 -0.757745 -2.18007 0
M  V30 16570 C 1516.97 0.26706 -1.63939 0
M  V30 16571 O 1518.15 0.145789 -1.90242 0
M  V30 16572 C 1515.29 -0.198379 -3.44529 0
M  V30 16573 C 1514.41 -1.27878 -4.12639 0
M  V30 16574 C 1513.54 -0.6808 -5.26819 0
M  V30 16575 C 1512.58 -1.74161 -5.868 0
M  V30 16576 N 1511.72 -1.16372 -6.92389 0
M  V30 16577 H 1516.56 -1.66418 -2.47202 0
M  V30 16578 H 1514.1 -0.831216 -1.21364 0
M  V30 16579 H 1516.05 0.143838 -4.16952 0
M  V30 16580 H 1514.68 0.671279 -3.15743 0
M  V30 16581 H 1513.74 -1.73808 -3.38371 0
M  V30 16582 H 1515.05 -2.08169 -4.53285 0
M  V30 16583 H 1514.2 -0.288172 -6.06015 0
M  V30 16584 H 1512.94 0.153521 -4.87458 0
M  V30 16585 H 1511.95 -2.14364 -5.06289 0
M  V30 16586 H 1513.17 -2.57882 -6.28231 0
M  V30 16587 H 1511.12 -0.350899 -6.55061 0
M  V30 16588 H 1511.03 -1.90344 -7.31646 0
M  V30 16589 H 1512.3 -0.797715 -7.75407 0
M  V30 16590 N 1516.53 1.29665 -0.895815 0
M  V30 16591 C 1517.46 2.30268 -0.387151 0
M  V30 16592 C 1518.44 1.61442 0.535768 0
M  V30 16593 O 1519.63 1.88978 0.447321 0
M  V30 16594 C 1516.76 3.45107 0.389639 0
M  V30 16595 C 1515.71 4.25706 -0.442498 0
M  V30 16596 C 1515.04 5.32704 0.461552 0
M  V30 16597 C 1516.34 4.9419 -1.69036 0
M  V30 16598 H 1518.03 2.73064 -1.22786 0
M  V30 16599 H 1515.58 1.31274 -0.591869 0
M  V30 16600 H 1517.53 4.14559 0.756203 0
M  V30 16601 H 1516.25 3.01145 1.2641 0
M  V30 16602 H 1514.91 3.57957 -0.791343 0
M  V30 16603 H 1514.56 4.84987 1.33403 0
M  V30 16604 H 1514.26 5.87529 -0.0915006 0
M  V30 16605 H 1515.78 6.05009 0.824395 0
M  V30 16606 H 1517.2 5.561 -1.39376 0
M  V30 16607 H 1515.6 5.5893 -2.18444 0
M  V30 16608 H 1516.67 4.19699 -2.42859 0
M  V30 16609 N 1518.01 0.657889 1.43212 0
M  V30 16610 C 1518.92 -0.0313677 2.34579 0
M  V30 16611 C 1519.93 -0.807153 1.54146 0
M  V30 16612 O 1521.11 -0.753335 1.8678 0
M  V30 16613 C 1518.18 -0.982659 3.32483 0
M  V30 16614 C 1517.24 -0.203288 4.28818 0
M  V30 16615 C 1516.47 -1.10927 5.22045 0
M  V30 16616 O 1516.69 -2.34861 5.19804 0
M  V30 16617 O 1515.63 -0.57916 5.99107 0
M  V30 16618 H 1519.45 0.720808 2.95022 0
M  V30 16619 H 1517.04 0.418083 1.43431 0
M  V30 16620 H 1518.92 -1.52923 3.92673 0
M  V30 16621 H 1517.59 -1.71498 2.74536 0
M  V30 16622 H 1516.5 0.386982 3.72093 0
M  V30 16623 H 1517.83 0.489562 4.89759 0
M  V30 16624 N 1519.49 -1.52437 0.400108 0
M  V30 16625 C 1520.42 -2.24433 -0.465038 0
M  V30 16626 C 1521.43 -1.27067 -1.01773 0
M  V30 16627 O 1522.62 -1.53072 -0.918215 0
M  V30 16628 C 1519.72 -2.95555 -1.65832 0
M  V30 16629 C 1518.89 -4.19717 -1.2311 0
M  V30 16630 C 1517.95 -4.73743 -2.29028 0
M  V30 16631 O 1516.98 -5.36556 -1.8999 0
M  V30 16632 N 1518.18 -4.54534 -3.6108 0
M  V30 16633 H 1520.95 -2.99315 0.151839 0
M  V30 16634 H 1518.51 -1.603 0.227019 0
M  V30 16635 H 1520.5 -3.28595 -2.36235 0
M  V30 16636 H 1519.07 -2.23915 -2.18131 0
M  V30 16637 H 1518.29 -3.92593 -0.355537 0
M  V30 16638 H 1519.58 -5.00367 -0.922487 0
M  V30 16639 H 1518.97 -4.04419 -3.95552 0
M  V30 16640 H 1517.53 -4.92035 -4.27486 0
M  V30 16641 N 1520.96 -0.130252 -1.57061 0
M  V30 16642 C 1521.9 0.846442 -2.12998 0
M  V30 16643 C 1522.91 1.22229 -1.07536 0
M  V30 16644 O 1524.1 1.16928 -1.34871 0
M  V30 16645 C 1521.2 2.14481 -2.62395 0
M  V30 16646 C 1520.37 1.93892 -3.92077 0
M  V30 16647 C 1519.43 3.07562 -4.26957 0
M  V30 16648 O 1518.46 2.79983 -4.95578 0
M  V30 16649 N 1519.66 4.34297 -3.85184 0
M  V30 16650 H 1522.42 0.368471 -2.97426 0
M  V30 16651 H 1519.98 0.0538355 -1.6181 0
M  V30 16652 H 1521.98 2.8954 -2.82752 0
M  V30 16653 H 1520.55 2.53592 -1.82784 0
M  V30 16654 H 1519.77 1.02962 -3.80516 0
M  V30 16655 H 1521.05 1.77454 -4.76852 0
M  V30 16656 H 1520.45 4.59575 -3.29859 0
M  V30 16657 H 1519.01 5.06191 -4.10626 0
M  V30 16658 N 1522.44 1.56945 0.143535 0
M  V30 16659 C 1523.69 1.8381 0.856831 0
M  V30 16660 C 1524.02 0.712375 1.80662 0
M  V30 16661 O 1523.3 -0.283743 1.92419 0
M  V30 16662 C 1523.58 3.21184 1.62828 0
M  V30 16663 C 1523.43 4.44324 0.699744 0
M  V30 16664 C 1524.75 3.5582 2.58999 0
M  V30 16665 H 1521.87 0.668611 0.310046 0
M  V30 16666 H 1524.51 1.89609 0.1219 0
M  V30 16667 H 1522.66 3.16372 2.2548 0
M  V30 16668 H 1524.34 4.61224 0.0839619 0
M  V30 16669 H 1522.58 4.33799 0.0095529 0
M  V30 16670 H 1523.25 5.37058 1.27564 0
M  V30 16671 H 1525.73 3.61264 2.06464 0
M  V30 16672 H 1524.6 4.52964 3.10024 0
M  V30 16673 H 1524.86 2.81956 3.40519 0
M  V30 16674 N 1523.92 -0.412991 1.52093 0
M  V30 16675 C 1525.2 -1.17304 1.56522 0
M  V30 16676 C 1525.58 -2.0828 0.343926 0
M  V30 16677 O 1524.93 -2.18473 -0.669475 0
M  V30 16678 C 1525.14 -1.95371 2.89191 0
M  V30 16679 C 1526.48 -2.51571 3.42048 0
M  V30 16680 O 1527.51 -2.05555 2.90905 0
M  V30 16681 O 1526.37 -3.35563 4.31347 0
M  V30 16682 H 1523.46 -0.535386 0.63031 0
M  V30 16683 H 1526.01 -0.420084 1.64418 0
M  V30 16684 H 1524.78 -1.28701 3.69529 0
M  V30 16685 H 1524.4 -2.7768 2.84569 0
M  V30 16686 N 1525.4 -1.4265 -0.669982 0
M  V30 16687 C 1526.68 -1.33858 -1.42623 0
M  V30 16688 C 1527.06 0.0217285 -2.11089 0
M  V30 16689 O 1526.4 1.03748 -2.03589 0
M  V30 16690 C 1526.61 -2.51015 -2.42472 0
M  V30 16691 C 1527.96 -2.93348 -3.06972 0
M  V30 16692 O 1528.99 -2.5094 -2.52799 0
M  V30 16693 O 1527.85 -3.66762 -4.05151 0
M  V30 16694 H 1524.94 -0.528141 -0.636393 0
M  V30 16695 H 1527.49 -1.54667 -0.6983 0
M  V30 16696 H 1526.26 -3.41679 -1.90713 0
M  V30 16697 H 1525.88 -2.32218 -3.2274 0
M  V30 16698 N 1526.88 0.906753 -1.28902 0
M  V30 16699 C 1527.81 2.02663 -1.15974 0
M  V30 16700 C 1528.79 1.70009 -0.0557202 0
M  V30 16701 O 1529.97 1.92786 -0.233952 0
M  V30 16702 C 1527.1 3.37283 -0.828115 0
M  V30 16703 C 1526.06 3.84123 -1.88767 0
M  V30 16704 C 1525.38 5.15787 -1.40953 0
M  V30 16705 C 1526.68 4.05217 -3.2954 0
M  V30 16706 H 1528.38 2.13738 -2.09658 0
M  V30 16707 H 1525.92 1.02699 -1.0094 0
M  V30 16708 H 1527.88 4.15127 -0.724408 0
M  V30 16709 H 1526.6 3.2628 0.14443 0
M  V30 16710 H 1525.26 3.0849 -1.98065 0
M  V30 16711 H 1524.91 5.01194 -0.425848 0
M  V30 16712 H 1524.61 5.48098 -2.11807 0
M  V30 16713 H 1526.13 5.9618 -1.31918 0
M  V30 16714 H 1527.55 4.73565 -3.23124 0
M  V30 16715 H 1525.94 4.48871 -3.9829 0
M  V30 16716 H 1527.01 3.0979 -3.73039 0
M  V30 16717 N 1528.36 1.11264 1.11616 0
M  V30 16718 C 1529.27 0.781961 2.21184 0
M  V30 16719 C 1530.28 -0.224149 1.7255 0
M  V30 16720 O 1531.46 -0.0607743 2.01308 0
M  V30 16721 C 1528.52 0.228031 3.45949 0
M  V30 16722 C 1527.58 1.29251 4.09381 0
M  V30 16723 C 1526.82 0.764921 5.2819 0
M  V30 16724 O 1527.04 -0.405671 5.68956 0
M  V30 16725 O 1525.97 1.52886 5.82159 0
M  V30 16726 H 1529.8 1.69678 2.51879 0
M  V30 16727 H 1527.38 0.888394 1.20116 0
M  V30 16728 H 1529.27 -0.0766085 4.2133 0
M  V30 16729 H 1527.94 -0.659519 3.1691 0
M  V30 16730 H 1526.85 1.65014 3.3574 0
M  V30 16731 H 1528.18 2.15339 4.42595 0
M  V30 16732 N 1529.83 -1.29188 0.902679 0
M  V30 16733 C 1531.08 -1.95052 0.529076 0
M  V30 16734 C 1531.4 -1.7149 -0.92824 0
M  V30 16735 O 1530.67 -1.04834 -1.65489 0
M  V30 16736 H 1529.25 -0.721725 0.192671 0
M  V30 16737 H 1531.91 -1.57384 1.14962 0
M  V30 16738 H 1531.01 -3.03819 0.714179 0
M  V30 16739 N 1531.31 -0.665475 -1.42861 0
M  V30 16740 C 1532.54 -0.190399 -2.06524 0
M  V30 16741 C 1532.96 1.13995 -1.49622 0
M  V30 16742 O 1532.32 1.70695 -0.610981 0
M  V30 16743 C 1532.37 -0.12594 -3.6038 0
M  V30 16744 O 1531.47 0.908299 -4.02273 0
M  V30 16745 H 1530.81 -0.100495 -0.656351 0
M  V30 16746 H 1533.34 -0.911858 -1.83156 0
M  V30 16747 H 1533.35 0.0533153 -4.07965 0
M  V30 16748 H 1532.03 -1.09703 -4.01171 0
M  V30 16749 H 1530.6 0.700841 -3.66255 0
M  V30 16750 N 1532.79 1.52222 -0.408187 0
M  V30 16751 C 1533.72 2.29892 0.408868 0
M  V30 16752 C 1534.7 1.34063 1.04695 0
M  V30 16753 O 1535.89 1.6297 1.05615 0
M  V30 16754 C 1533.02 3.11964 1.52629 0
M  V30 16755 C 1531.97 4.15833 1.01326 0
M  V30 16756 C 1531.3 4.86244 2.2242 0
M  V30 16757 C 1532.6 5.22256 0.0679573 0
M  V30 16758 H 1534.29 2.98443 -0.23923 0
M  V30 16759 H 1531.84 1.43528 -0.116496 0
M  V30 16760 H 1533.79 3.65067 2.10486 0
M  V30 16761 H 1532.51 2.41181 2.20225 0
M  V30 16762 H 1531.17 3.63739 0.4571 0
M  V30 16763 H 1530.82 4.11991 2.88569 0
M  V30 16764 H 1530.52 5.56461 1.88746 0
M  V30 16765 H 1532.04 5.42159 2.80885 0
M  V30 16766 H 1533.46 5.70604 0.555295 0
M  V30 16767 H 1531.85 5.9983 -0.179934 0
M  V30 16768 H 1532.92 4.76892 -0.877599 0
M  V30 16769 N 1534.27 0.138579 1.5699 0
M  V30 16770 C 1535.18 -0.817548 2.19894 0
M  V30 16771 C 1536.19 -1.27806 1.18075 0
M  V30 16772 O 1537.37 -1.33699 1.5062 0
M  V30 16773 C 1534.43 -2.04244 2.80152 0
M  V30 16774 C 1533.5 -1.63197 3.97071 0
M  V30 16775 C 1532.73 -2.79847 4.54446 0
M  V30 16776 O 1532.95 -3.95827 4.10703 0
M  V30 16777 O 1531.89 -2.55804 5.44838 0
M  V30 16778 H 1535.71 -0.312123 3.02092 0
M  V30 16779 H 1533.3 -0.0880281 1.4914 0
M  V30 16780 H 1535.18 -2.75945 3.18485 0
M  V30 16781 H 1533.85 -2.53755 2.00973 0
M  V30 16782 H 1532.76 -0.885448 3.6347 0
M  V30 16783 H 1534.09 -1.1841 4.77745 0
M  V30 16784 N 1535.75 -1.57019 -0.13521 0
M  V30 16785 C 1536.68 -1.95769 -1.19193 0
M  V30 16786 C 1537.69 -0.854953 -1.38544 0
M  V30 16787 O 1538.88 -1.13332 -1.37906 0
M  V30 16788 C 1535.98 -2.22674 -2.55479 0
M  V30 16789 C 1535.15 -3.53972 -2.56949 0
M  V30 16790 C 1534.21 -3.69278 -3.7486 0
M  V30 16791 O 1533.24 -4.41555 -3.59191 0
M  V30 16792 N 1534.44 -3.06826 -4.92786 0
M  V30 16793 H 1537.2 -2.87022 -0.862451 0
M  V30 16794 H 1534.77 -1.58611 -0.324658 0
M  V30 16795 H 1536.76 -2.30144 -3.3289 0
M  V30 16796 H 1535.33 -1.37628 -2.80673 0
M  V30 16797 H 1534.55 -3.57836 -1.65368 0
M  V30 16798 H 1535.84 -4.40303 -2.54973 0
M  V30 16799 H 1535.23 -2.48043 -5.0842 0
M  V30 16800 H 1533.79 -3.19841 -5.67931 0
M  V30 16801 N 1537.22 0.404919 -1.52309 0
M  V30 16802 C 1538.13 1.51822 -1.7885 0
M  V30 16803 C 1539.15 1.60403 -0.674307 0
M  V30 16804 O 1540.33 1.77038 -0.960175 0
M  V30 16805 C 1537.39 2.87516 -1.9374 0
M  V30 16806 C 1536.45 2.88787 -3.17648 0
M  V30 16807 C 1535.69 4.18009 -3.31819 0
M  V30 16808 O 1535.91 5.12129 -2.51158 0
M  V30 16809 O 1534.84 4.26222 -4.24992 0
M  V30 16810 H 1538.67 1.32329 -2.73354 0
M  V30 16811 H 1536.25 0.591193 -1.37205 0
M  V30 16812 H 1538.14 3.6799 -2.05333 0
M  V30 16813 H 1536.81 3.07068 -1.02425 0
M  V30 16814 H 1535.72 2.07152 -3.11511 0
M  V30 16815 H 1537.05 2.74185 -4.08758 0
M  V30 16816 N 1538.7 1.43003 0.662408 0
M  V30 16817 C 1539.65 1.47448 1.77561 0
M  V30 16818 C 1540.62 0.325121 1.62887 0
M  V30 16819 O 1541.8 0.530971 1.83263 0
M  V30 16820 C 1538.94 1.3946 3.15666 0
M  V30 16821 C 1538.06 2.64529 3.41539 0
M  V30 16822 C 1537.19 2.48594 4.69441 0
M  V30 16823 C 1536.23 3.68976 4.88388 0
M  V30 16824 N 1535.37 3.51908 6.0754 0
M  V30 16825 H 1540.21 2.42573 1.73097 0
M  V30 16826 H 1537.75 1.2042 0.84484 0
M  V30 16827 H 1539.7 1.32824 3.95492 0
M  V30 16828 H 1538.33 0.479227 3.19223 0
M  V30 16829 H 1537.39 2.81481 2.55877 0
M  V30 16830 H 1538.7 3.53977 3.51429 0
M  V30 16831 H 1537.85 2.39614 5.57378 0
M  V30 16832 H 1536.59 1.56656 4.61855 0
M  V30 16833 H 1535.6 3.78374 3.9889 0
M  V30 16834 H 1536.82 4.61911 4.9781 0
M  V30 16835 H 1534.77 2.62697 6.01104 0
M  V30 16836 H 1534.68 4.34951 6.18347 0
M  V30 16837 H 1535.95 3.46763 6.98123 0
M  V30 16838 N 1540.18 -0.899904 1.29381 0
M  V30 16839 C 1541.13 -2.004 1.14493 0
M  V30 16840 C 1542.1 -1.66056 0.0383099 0
M  V30 16841 O 1543.28 -1.89687 0.20579 0
M  V30 16842 C 1540.42 -3.35039 0.827237 0
M  V30 16843 C 1539.54 -3.82166 2.01427 0
M  V30 16844 C 1538.67 -5.0538 1.63598 0
M  V30 16845 C 1537.71 -5.44876 2.78884 0
M  V30 16846 N 1536.85 -6.59276 2.41452 0
M  V30 16847 H 1541.69 -2.12466 2.08955 0
M  V30 16848 H 1539.22 -1.0405 1.03981 0
M  V30 16849 H 1541.18 -4.12511 0.62373 0
M  V30 16850 H 1539.81 -3.227 -0.0804772 0
M  V30 16851 H 1538.86 -3.00731 2.32949 0
M  V30 16852 H 1540.18 -4.07387 2.87814 0
M  V30 16853 H 1539.33 -5.90436 1.39534 0
M  V30 16854 H 1538.07 -4.81998 0.743593 0
M  V30 16855 H 1537.07 -4.58355 3.0363 0
M  V30 16856 H 1538.3 -5.7024 3.68786 0
M  V30 16857 H 1536.24 -6.37498 1.54701 0
M  V30 16858 H 1536.16 -6.84293 3.21372 0
M  V30 16859 H 1537.43 -7.47602 2.20708 0
M  V30 16860 N 1541.66 -1.11854 -1.11024 0
M  V30 16861 C 1542.9 -0.871362 -1.83126 0
M  V30 16862 C 1543.24 0.601437 -1.84652 0
M  V30 16863 O 1542.51 1.44427 -1.30273 0
M  V30 16864 C 1542.8 -1.4391 -3.30094 0
M  V30 16865 C 1542.65 -2.97983 -3.36937 0
M  V30 16866 C 1543.97 -1.09361 -4.26296 0
M  V30 16867 H 1541.09 -0.317994 -0.664867 0
M  V30 16868 H 1543.73 -1.38414 -1.3016 0
M  V30 16869 H 1541.88 -1.00297 -3.7533 0
M  V30 16870 H 1543.55 -3.50231 -3.00227 0
M  V30 16871 H 1541.79 -3.33827 -2.77023 0
M  V30 16872 H 1542.46 -3.32797 -4.40398 0
M  V30 16873 H 1544.94 -1.47018 -3.89262 0
M  V30 16874 H 1543.82 -1.51756 -5.27505 0
M  V30 16875 H 1544.08 -0.0049637 -4.421 0
M  V30 16876 N 1543.14 1.28707 -0.909517 0
M  V30 16877 C 1544.55 1.47605 -0.607045 0
M  V30 16878 C 1544.75 1.8275 0.848815 0
M  V30 16879 O 1543.81 1.92989 1.62823 0
M  V30 16880 C 1545.12 2.58194 -1.54131 0
M  V30 16881 C 1546.67 2.72065 -1.54757 0
M  V30 16882 C 1547.14 3.85793 -2.46835 0
M  V30 16883 N 1548.64 3.93141 -2.44937 0
M  V30 16884 C 1549.37 4.80512 -3.12883 0
M  V30 16885 N 1548.87 5.72504 -3.90142 0
M  V30 16886 N 1550.66 4.74086 -3.01991 0
M  V30 16887 H 1542.81 1.04174 -1.85099 0
M  V30 16888 H 1545.07 0.51843 -0.793684 0
M  V30 16889 H 1544.78 2.39119 -2.57905 0
M  V30 16890 H 1544.65 3.55205 -1.26921 0
M  V30 16891 H 1547.04 2.90532 -0.517219 0
M  V30 16892 H 1547.12 1.75598 -1.86008 0
M  V30 16893 H 1546.77 3.68082 -3.49969 0
M  V30 16894 H 1546.7 4.8165 -2.12888 0
M  V30 16895 H 1549.19 3.2735 -1.88813 0
M  V30 16896 H 1549.5 6.3599 -4.39017 0
M  V30 16897 H 1547.84 5.72358 -3.94248 0
M  V30 16898 H 1551.04 4.01209 -2.4114 0
M  V30 16899 H 1551.21 5.41964 -3.55217 0
M  V30 16900 N 1544.61 0.673042 1.42506 0
M  V30 16901 C 1545.55 -0.056507 2.2813 0
M  V30 16902 C 1546.53 -0.810416 1.40965 0
M  V30 16903 O 1547.71 -0.805904 1.70404 0
M  V30 16904 C 1544.84 -1.08716 3.20778 0
M  V30 16905 C 1543.88 -0.429034 4.24337 0
M  V30 16906 S 1544.72 0.812075 5.29307 0
M  V30 16907 C 1545.87 -0.217548 6.25522 0
M  V30 16908 H 1546.1 0.669772 2.89657 0
M  V30 16909 H 1543.64 0.462526 1.47309 0
M  V30 16910 H 1545.6 -1.67672 3.74695 0
M  V30 16911 H 1544.26 -1.78587 2.5839 0
M  V30 16912 H 1543.45 -1.20666 4.89342 0
M  V30 16913 H 1543.05 0.0868926 3.73899 0
M  V30 16914 H 1545.34 -1.07781 6.68872 0
M  V30 16915 H 1546.29 0.397993 7.06981 0
M  V30 16916 H 1546.69 -0.562237 5.61693 0
M  V30 16917 N 1546.09 -1.52004 0.416254 0
M  V30 16918 C 1547.37 -1.94403 -0.216103 0
M  V30 16919 C 1547.75 -1.35362 -1.61989 0
M  V30 16920 O 1547.1 -0.532242 -2.22215 0
M  V30 16921 C 1547.31 -3.48336 -0.215225 0
M  V30 16922 C 1548.66 -4.22406 -0.431109 0
M  V30 16923 O 1549.68 -3.54982 -0.294271 0
M  V30 16924 O 1548.54 -5.4198 -0.70145 0
M  V30 16925 H 1545.63 -0.814838 -0.141306 0
M  V30 16926 H 1548.18 -1.62983 0.472712 0
M  V30 16927 H 1546.95 -3.83709 0.767004 0
M  V30 16928 H 1546.57 -3.86137 -0.947841 0
M  V30 16929 N 1547.57 -0.146903 -1.56914 0
M  V30 16930 C 1548.5 0.788924 -2.19769 0
M  V30 16931 C 1549.48 1.25712 -1.14589 0
M  V30 16932 O 1550.67 1.3147 -1.42931 0
M  V30 16933 C 1547.8 2.02824 -2.81921 0
M  V30 16934 C 1546.75 1.69683 -3.92927 0
M  V30 16935 C 1546.08 3.00877 -4.42015 0
M  V30 16936 C 1547.38 0.943559 -5.13706 0
M  V30 16937 H 1549.07 0.265076 -2.98224 0
M  V30 16938 H 1546.62 0.126057 -1.43447 0
M  V30 16939 H 1548.57 2.68773 -3.2456 0
M  V30 16940 H 1547.29 2.57581 -2.00797 0
M  V30 16941 H 1545.95 1.06112 -3.50907 0
M  V30 16942 H 1545.6 3.53625 -3.57713 0
M  V30 16943 H 1545.3 2.79466 -5.16888 0
M  V30 16944 H 1546.82 3.67897 -4.87323 0
M  V30 16945 H 1548.24 1.50513 -5.5319 0
M  V30 16946 H 1546.64 0.829387 -5.94341 0
M  V30 16947 H 1547.71 -0.0647228 -4.84857 0
M  V30 16948 N 1549.05 1.57088 0.126881 0
M  V30 16949 C 1549.96 2.03053 1.17502 0
M  V30 16950 C 1550.97 0.949484 1.45811 0
M  V30 16951 O 1552.15 1.26043 1.57083 0
M  V30 16952 C 1549.22 2.41897 2.48368 0
M  V30 16953 C 1548.28 3.64047 2.27527 0
M  V30 16954 C 1547.51 4.01029 3.52153 0
M  V30 16955 O 1547.73 3.38441 4.59145 0
M  V30 16956 O 1546.67 4.94174 3.43622 0
M  V30 16957 H 1550.49 2.92568 0.814733 0
M  V30 16958 H 1548.08 1.45547 0.3371 0
M  V30 16959 H 1549.96 2.67652 3.25485 0
M  V30 16960 H 1548.63 1.55531 2.83887 0
M  V30 16961 H 1547.54 3.43452 1.48294 0
M  V30 16962 H 1548.87 4.51093 1.96916 0
M  V30 16963 N 1550.53 -0.396836 1.52522 0
M  V30 16964 C 1551.94 -0.736347 1.41598 0
M  V30 16965 C 1552.14 -1.944 0.530191 0
M  V30 16966 O 1551.2 -2.525 0.000649033 0
M  V30 16967 C 1552.51 -0.978775 2.84325 0
M  V30 16968 C 1554.06 -1.08073 2.9375 0
M  V30 16969 C 1554.53 -1.35584 4.37471 0
M  V30 16970 N 1556.03 -1.42423 4.40761 0
M  V30 16971 C 1556.76 -1.6536 5.49039 0
M  V30 16972 N 1556.26 -1.85819 6.67415 0
M  V30 16973 N 1558.05 -1.67475 5.36571 0
M  V30 16974 H 1550.2 0.397925 2.08639 0
M  V30 16975 H 1552.46 0.115803 0.9409 0
M  V30 16976 H 1552.17 -0.16362 3.51319 0
M  V30 16977 H 1552.04 -1.8956 3.26109 0
M  V30 16978 H 1554.43 -1.88646 2.26928 0
M  V30 16979 H 1554.51 -0.141996 2.55406 0
M  V30 16980 H 1554.16 -0.555238 5.04856 0
M  V30 16981 H 1554.09 -2.3073 4.73362 0
M  V30 16982 H 1556.58 -1.28352 3.55435 0
M  V30 16983 H 1556.89 -2.02806 7.45714 0
M  V30 16984 H 1555.23 -1.83059 6.70458 0
M  V30 16985 H 1558.43 -1.51038 4.43064 0
M  V30 16986 H 1558.6 -1.85011 6.21027 0
M  V30 16987 N 1552.01 -1.43353 -0.654814 0
M  V30 16988 C 1552.97 -1.4806 -1.7496 0
M  V30 16989 C 1553.97 -0.365513 -1.56591 0
M  V30 16990 O 1555.16 -0.627194 -1.62517 0
M  V30 16991 C 1552.29 -1.33165 -3.13815 0
M  V30 16992 H 1553.48 -2.45557 -1.72167 0
M  V30 16993 H 1551.04 -1.30094 -0.86632 0
M  V30 16994 H 1551.77 -0.366689 -3.2222 0
M  V30 16995 H 1551.56 -2.13998 -3.28553 0
M  V30 16996 H 1553.05 -1.39388 -3.93651 0
M  V30 16997 N 1553.48 0.89303 -1.29857 0
M  V30 16998 C 1554.43 1.9979 -1.15554 0
M  V30 16999 C 1555.4 1.66033 -0.0471157 0
M  V30 17000 O 1556.59 1.89575 -0.215846 0
M  V30 17001 C 1553.73 3.34595 -0.844993 0
M  V30 17002 C 1552.84 3.81093 -2.03451 0
M  V30 17003 C 1551.97 5.04506 -1.66275 0
M  V30 17004 C 1551.01 5.4339 -2.8177 0
M  V30 17005 N 1550.15 6.57987 -2.44945 0
M  V30 17006 H 1554.99 2.11355 -2.10079 0
M  V30 17007 H 1552.53 1.03497 -1.04531 0
M  V30 17008 H 1554.48 4.12175 -0.645598 0
M  V30 17009 H 1553.11 3.22738 0.0633626 0
M  V30 17010 H 1552.17 2.99491 -2.34541 0
M  V30 17011 H 1553.48 4.05855 -2.8997 0
M  V30 17012 H 1552.63 5.89688 -1.42664 0
M  V30 17013 H 1551.37 4.81597 -0.769144 0
M  V30 17014 H 1550.38 4.56738 -3.06056 0
M  V30 17015 H 1551.6 5.68276 -3.71805 0
M  V30 17016 H 1549.55 6.36669 -1.58079 0
M  V30 17017 H 1549.46 6.82579 -3.24996 0
M  V30 17018 H 1550.73 7.46421 -2.24669 0
M  V30 17019 N 1554.96 1.12442 1.10429 0
M  V30 17020 C 1556.38 0.860481 1.34417 0
M  V30 17021 C 1556.58 -0.509394 1.94955 0
M  V30 17022 O 1555.63 -1.25807 2.18927 0
M  V30 17023 C 1556.95 1.97694 2.26578 0
M  V30 17024 C 1558.49 2.00783 2.40115 0
M  V30 17025 C 1558.97 3.11663 3.35604 0
M  V30 17026 N 1560.46 3.11106 3.43173 0
M  V30 17027 C 1561.2 3.9354 4.1703 0
M  V30 17028 N 1560.69 4.85963 4.93773 0
M  V30 17029 N 1562.48 3.81677 4.12649 0
M  V30 17030 H 1554.64 2.00706 0.695036 0
M  V30 17031 H 1556.9 0.873398 0.368619 0
M  V30 17032 H 1556.6 2.96405 1.89306 0
M  V30 17033 H 1556.48 1.88217 3.26886 0
M  V30 17034 H 1558.87 1.02692 2.76656 0
M  V30 17035 H 1558.95 2.14335 1.39621 0
M  V30 17036 H 1558.59 4.09987 2.99789 0
M  V30 17037 H 1558.52 2.9535 4.35977 0
M  V30 17038 H 1561.01 2.4415 2.88442 0
M  V30 17039 H 1561.32 5.45373 5.47529 0
M  V30 17040 H 1559.67 4.89976 4.92898 0
M  V30 17041 H 1562.86 3.08808 3.51789 0
M  V30 17042 H 1563.03 4.46151 4.6995 0
M  V30 17043 N 1556.44 -1.28223 0.91633 0
M  V30 17044 C 1557.39 -2.27215 0.40521 0
M  V30 17045 C 1558.36 -1.57693 -0.521734 0
M  V30 17046 O 1559.54 -1.85577 -0.443369 0
M  V30 17047 C 1556.68 -3.43358 -0.346303 0
M  V30 17048 C 1555.79 -4.27622 0.613443 0
M  V30 17049 C 1554.93 -5.30969 -0.156775 0
M  V30 17050 C 1553.97 -6.06897 0.796418 0
M  V30 17051 N 1553.11 -7.02075 0.0595539 0
M  V30 17052 H 1557.95 -2.70312 1.2544 0
M  V30 17053 H 1555.48 -1.32933 0.629859 0
M  V30 17054 H 1557.44 -4.09492 -0.798231 0
M  V30 17055 H 1556.07 -3.01244 -1.15982 0
M  V30 17056 H 1555.12 -3.61508 1.1839 0
M  V30 17057 H 1556.43 -4.80397 1.34239 0
M  V30 17058 H 1555.59 -6.02999 -0.669146 0
M  V30 17059 H 1554.33 -4.78968 -0.918755 0
M  V30 17060 H 1553.33 -5.33716 1.32014 0
M  V30 17061 H 1554.56 -6.60987 1.558 0
M  V30 17062 H 1552.5 -6.5242 -0.684388 0
M  V30 17063 H 1552.42 -7.52484 0.728275 0
M  V30 17064 H 1553.69 -7.78299 -0.432538 0
M  V30 17065 N 1557.92 -0.68059 -1.42147 0
M  V30 17066 C 1558.85 -0.0199376 -2.33491 0
M  V30 17067 C 1559.83 0.783164 -1.50999 0
M  V30 17068 O 1561.01 0.739154 -1.79583 0
M  V30 17069 C 1558.14 0.927902 -3.34675 0
M  V30 17070 C 1557.1 0.232979 -4.27365 0
M  V30 17071 C 1556.42 1.29415 -5.18802 0
M  V30 17072 C 1557.72 -0.891559 -5.14634 0
M  V30 17073 H 1559.42 -0.782823 -2.88985 0
M  V30 17074 H 1556.96 -0.377898 -1.38953 0
M  V30 17075 H 1558.92 1.3992 -3.97493 0
M  V30 17076 H 1557.64 1.72228 -2.77498 0
M  V30 17077 H 1556.3 -0.21814 -3.6595 0
M  V30 17078 H 1555.95 2.08067 -4.57949 0
M  V30 17079 H 1555.65 0.834274 -5.81647 0
M  V30 17080 H 1557.17 1.76627 -5.84496 0
M  V30 17081 H 1558.59 -0.501219 -5.71105 0
M  V30 17082 H 1556.98 -1.27759 -5.86343 0
M  V30 17083 H 1558.05 -1.73781 -4.5269 0
M  V30 17084 N 1559.4 1.51781 -0.424309 0
M  V30 17085 C 1560.31 2.31162 0.40015 0
M  V30 17086 C 1561.32 1.39523 1.03969 0
M  V30 17087 O 1562.5 1.72597 1.0379 0
M  V30 17088 C 1559.56 3.12875 1.49366 0
M  V30 17089 C 1558.62 4.20275 0.875616 0
M  V30 17090 C 1557.86 4.98082 1.91702 0
M  V30 17091 O 1558.08 4.76365 3.13739 0
M  V30 17092 O 1557.01 5.82527 1.5148 0
M  V30 17093 H 1560.84 3.0269 -0.247529 0
M  V30 17094 H 1558.42 1.48223 -0.187146 0
M  V30 17095 H 1560.31 3.63714 2.12815 0
M  V30 17096 H 1558.98 2.44125 2.12567 0
M  V30 17097 H 1557.89 3.73546 0.203429 0
M  V30 17098 H 1559.22 4.91361 0.287306 0
M  V30 17099 N 1560.87 0.155222 1.56834 0
M  V30 17100 C 1562.12 -0.49285 1.95998 0
M  V30 17101 C 1562.44 -1.64857 1.0415 0
M  V30 17102 O 1561.71 -1.9562 0.104654 0
M  V30 17103 H 1560.29 -0.185063 0.723713 0
M  V30 17104 H 1562.95 0.232644 1.93507 0
M  V30 17105 H 1562.05 -0.863552 2.99915 0
M  V30 17106 N 1562.35 -1.57153 -0.118549 0
M  V30 17107 C 1563.63 -1.75846 -0.856587 0
M  V30 17108 C 1564.01 -0.730801 -1.98047 0
M  V30 17109 O 1563.36 0.245156 -2.27181 0
M  V30 17110 C 1563.57 -3.20864 -1.37286 0
M  V30 17111 C 1564.91 -3.83378 -1.82501 0
M  V30 17112 O 1565.94 -3.24469 -1.46964 0
M  V30 17113 O 1564.8 -4.86922 -2.48132 0
M  V30 17114 H 1561.89 -0.72002 -0.406817 0
M  V30 17115 H 1564.44 -1.69392 -0.102254 0
M  V30 17116 H 1563.21 -3.87177 -0.566531 0
M  V30 17117 H 1562.83 -3.31858 -2.18988 0
M  V30 17118 N 1563.83 0.388742 -1.5273 0
M  V30 17119 C 1564.76 1.48133 -1.80496 0
M  V30 17120 C 1565.74 1.56899 -0.657008 0
M  V30 17121 O 1566.93 1.71844 -0.904621 0
M  V30 17122 C 1564.06 2.85742 -1.97405 0
M  V30 17123 C 1563.01 2.91815 -3.13094 0
M  V30 17124 C 1562.34 4.31876 -3.15258 0
M  V30 17125 C 1563.64 2.61438 -4.52159 0
M  V30 17126 H 1565.33 1.25147 -2.7199 0
M  V30 17127 H 1562.88 0.600603 -1.30877 0
M  V30 17128 H 1564.83 3.62182 -2.15412 0
M  V30 17129 H 1563.55 3.10065 -1.02601 0
M  V30 17130 H 1562.21 2.17824 -2.9487 0
M  V30 17131 H 1561.86 4.53239 -2.18135 0
M  V30 17132 H 1561.56 4.3686 -3.92972 0
M  V30 17133 H 1563.08 5.10221 -3.3542 0
M  V30 17134 H 1564.5 3.27596 -4.70483 0
M  V30 17135 H 1562.89 2.77771 -5.31943 0
M  V30 17136 H 1563.96 1.56778 -4.58856 0
M  V30 17137 N 1565.31 1.43698 0.647203 0
M  V30 17138 C 1566.25 1.49323 1.75987 0
M  V30 17139 C 1567.22 0.342379 1.62533 0
M  V30 17140 O 1568.41 0.550379 1.8269 0
M  V30 17141 C 1565.55 1.428 3.14169 0
M  V30 17142 C 1564.66 2.68136 3.38714 0
M  V30 17143 C 1563.8 2.53559 4.66778 0
M  V30 17144 C 1562.84 3.74135 4.84447 0
M  V30 17145 N 1561.97 3.58332 6.03774 0
M  V30 17146 H 1566.81 2.44395 1.70514 0
M  V30 17147 H 1564.35 1.21309 0.832021 0
M  V30 17148 H 1566.31 1.37011 3.94061 0
M  V30 17149 H 1564.94 0.513057 3.18697 0
M  V30 17150 H 1563.99 2.84179 2.52877 0
M  V30 17151 H 1565.3 3.57684 3.47654 0
M  V30 17152 H 1564.46 2.45513 5.54805 0
M  V30 17153 H 1563.2 1.61545 4.60168 0
M  V30 17154 H 1562.2 3.82584 3.94854 0
M  V30 17155 H 1563.43 4.67165 4.92883 0
M  V30 17156 H 1561.37 2.69057 5.98284 0
M  V30 17157 H 1561.29 4.41485 6.13699 0
M  V30 17158 H 1562.56 3.54148 6.94406 0
M  V30 17159 N 1566.79 -0.886131 1.30328 0
M  V30 17160 C 1567.72 -2.00793 1.19183 0
M  V30 17161 C 1568.7 -1.69899 0.08276 0
M  V30 17162 O 1569.88 -1.92389 0.264593 0
M  V30 17163 C 1567.01 -3.35922 0.881669 0
M  V30 17164 C 1565.97 -3.81072 1.94855 0
M  V30 17165 C 1565.29 -5.1348 1.4914 0
M  V30 17166 C 1566.59 -3.99923 3.35944 0
M  V30 17167 H 1568.29 -2.10375 2.13032 0
M  V30 17168 H 1565.83 -1.0108 1.02561 0
M  V30 17169 H 1567.79 -4.13922 0.790359 0
M  V30 17170 H 1566.51 -3.26469 -0.0925037 0
M  V30 17171 H 1565.17 -3.053 2.02947 0
M  V30 17172 H 1564.82 -5.00453 0.50553 0
M  V30 17173 H 1564.52 -5.44659 2.205 0
M  V30 17174 H 1566.04 -5.94005 1.41386 0
M  V30 17175 H 1567.45 -4.68364 3.30617 0
M  V30 17176 H 1565.85 -4.42477 4.05381 0
M  V30 17177 H 1566.92 -3.03816 3.77921 0
M  V30 17178 N 1568.26 -1.13026 -1.09832 0
M  V30 17179 C 1569.49 -0.91246 -1.85693 0
M  V30 17180 C 1569.91 0.538558 -1.80956 0
M  V30 17181 O 1569.26 1.37262 -1.20273 0
M  V30 17182 C 1569.32 -1.38684 -3.3384 0
M  V30 17183 O 1569.04 -2.78099 -3.38515 0
M  V30 17184 C 1570.54 -1.20688 -4.26555 0
M  V30 17185 H 1567.76 -0.32565 -0.58668 0
M  V30 17186 H 1570.3 -1.50177 -1.38806 0
M  V30 17187 H 1568.46 -0.840617 -3.7817 0
M  V30 17188 H 1568.87 -2.99061 -4.30886 0
M  V30 17189 H 1570.34 -1.5876 -5.28677 0
M  V30 17190 H 1570.82 -0.148111 -4.3895 0
M  V30 17191 H 1571.43 -1.74092 -3.88036 0
M  V30 17192 N 1569.74 1.27735 -0.923117 0
M  V30 17193 C 1570.67 2.26095 -0.375982 0
M  V30 17194 C 1571.69 1.55227 0.490763 0
M  V30 17195 O 1572.88 1.7589 0.304127 0
M  V30 17196 C 1569.98 3.35479 0.480342 0
M  V30 17197 C 1569.15 4.35866 -0.36605 0
M  V30 17198 C 1568.21 5.24466 0.42688 0
M  V30 17199 O 1567.23 5.68964 -0.163825 0
M  V30 17200 N 1568.44 5.54192 1.72777 0
M  V30 17201 H 1571.2 2.73679 -1.22147 0
M  V30 17202 H 1568.76 1.41314 -0.790056 0
M  V30 17203 H 1570.75 3.91693 1.01776 0
M  V30 17204 H 1569.32 2.87531 1.22657 0
M  V30 17205 H 1568.54 3.7898 -1.08479 0
M  V30 17206 H 1569.83 4.9995 -0.944849 0
M  V30 17207 H 1569.23 5.19888 2.23008 0
M  V30 17208 H 1567.79 6.13125 2.21181 0
M  V30 17209 N 1571.22 0.688118 1.41784 0
M  V30 17210 C 1572.13 0.018397 2.34593 0
M  V30 17211 C 1573.15 -0.774275 1.55824 0
M  V30 17212 O 1574.32 -0.713546 1.88336 0
M  V30 17213 C 1571.39 -0.911914 3.34492 0
M  V30 17214 C 1570.45 -0.112284 4.29153 0
M  V30 17215 C 1569.68 -0.998285 5.2428 0
M  V30 17216 O 1569.9 -2.23782 5.24669 0
M  V30 17217 O 1568.84 -0.451951 6.00201 0
M  V30 17218 H 1572.66 0.783224 2.93427 0
M  V30 17219 H 1570.25 0.448413 1.42512 0
M  V30 17220 H 1572.13 -1.4456 3.95829 0
M  V30 17221 H 1570.81 -1.65636 2.78112 0
M  V30 17222 H 1569.71 0.465822 3.71189 0
M  V30 17223 H 1571.05 0.593338 4.88611 0
M  V30 17224 N 1572.7 -1.51554 0.432352 0
M  V30 17225 C 1573.92 -2.06947 -0.136995 0
M  V30 17226 C 1574.35 -1.29817 -1.36122 0
M  V30 17227 O 1573.71 -0.334733 -1.78183 0
M  V30 17228 C 1573.75 -3.57871 -0.442785 0
M  V30 17229 O 1572.86 -3.82966 -1.53007 0
M  V30 17230 H 1572.2 -0.663988 -0.00405152 0
M  V30 17231 H 1574.73 -1.95225 0.612249 0
M  V30 17232 H 1574.74 -4.02042 -0.694694 0
M  V30 17233 H 1573.41 -4.13436 0.452013 0
M  V30 17234 H 1571.99 -3.50661 -1.26851 0
M  V30 17235 N 1574.18 -0.163538 -1.56749 0
M  V30 17236 C 1575.43 0.483453 -1.9582 0
M  V30 17237 C 1575.74 1.64913 -1.05181 0
M  V30 17238 O 1576.94 2.36184 -1.33901 0
M  V30 17239 C 1575.4 0.911471 -3.48167 0
M  V30 17240 C 1575.01 -0.228178 -4.47419 0
M  V30 17241 C 1576.75 1.52732 -3.96072 0
M  V30 17242 C 1574.66 0.219036 -5.90994 0
M  V30 17243 H 1573.59 0.184383 -0.731108 0
M  V30 17244 H 1576.24 -0.250527 -1.81782 0
M  V30 17245 H 1574.62 1.7012 -3.57596 0
M  V30 17246 H 1575.8 -1.0054 -4.49698 0
M  V30 17247 H 1574.11 -0.753485 -4.09526 0
M  V30 17248 H 1576.71 1.87383 -5.00791 0
M  V30 17249 H 1577.05 2.42239 -3.38565 0
M  V30 17250 H 1577.58 0.802176 -3.89628 0
M  V30 17251 H 1574.32 -0.641066 -6.52358 0
M  V30 17252 H 1573.84 0.96178 -5.92039 0
M  V30 17253 H 1575.52 0.665524 -6.43568 0
M  V30 17254 N 1575.65 1.57214 0.110213 0
M  V30 17255 C 1576.59 1.96198 1.1654 0
M  V30 17256 C 1577.57 0.832925 1.39646 0
M  V30 17257 O 1578.75 1.09188 1.53656 0
M  V30 17258 C 1575.88 2.26576 2.51756 0
M  V30 17259 C 1574.92 3.49093 2.45023 0
M  V30 17260 S 1575.76 5.01363 1.88136 0
M  V30 17261 C 1576.91 5.34903 3.25007 0
M  V30 17262 H 1577.14 2.85392 0.832996 0
M  V30 17263 H 1574.68 1.51104 0.317314 0
M  V30 17264 H 1576.64 2.44756 3.29552 0
M  V30 17265 H 1575.3 1.37981 2.8217 0
M  V30 17266 H 1574.49 3.67743 3.44647 0
M  V30 17267 H 1574.09 3.30346 1.7535 0
M  V30 17268 H 1576.38 5.30623 4.21243 0
M  V30 17269 H 1577.33 6.36062 3.11176 0
M  V30 17270 H 1577.73 4.62371 3.23841 0
M  V30 17271 N 1577.13 -0.380637 1.52934 0
M  V30 17272 C 1578.41 -1.13958 1.58975 0
M  V30 17273 C 1578.79 -2.07503 0.388028 0
M  V30 17274 O 1578.14 -2.19844 -0.622984 0
M  V30 17275 C 1578.35 -1.89192 2.9327 0
M  V30 17276 C 1579.7 -2.44259 3.47308 0
M  V30 17277 O 1580.72 -1.99338 2.95199 0
M  V30 17278 O 1579.58 -3.26338 4.38367 0
M  V30 17279 H 1576.67 -0.521896 0.641525 0
M  V30 17280 H 1579.22 -0.385114 1.65272 0
M  V30 17281 H 1577.99 -1.20834 3.72176 0
M  V30 17282 H 1577.61 -2.71581 2.90395 0
M  V30 17283 N 1578.61 -1.44039 -0.639573 0
M  V30 17284 C 1579.54 -1.53073 -1.76327 0
M  V30 17285 C 1580.52 -0.384344 -1.65701 0
M  V30 17286 O 1581.71 -0.603362 -1.84589 0
M  V30 17287 C 1578.84 -1.46646 -3.14821 0
M  V30 17288 C 1577.79 -2.59673 -3.40226 0
M  V30 17289 C 1577.12 -2.38298 -4.78663 0
M  V30 17290 C 1578.42 -4.01864 -3.33621 0
M  V30 17291 H 1580.11 -2.47126 -1.69023 0
M  V30 17292 H 1577.66 -1.1894 -0.811749 0
M  V30 17293 H 1579.61 -1.51567 -3.93199 0
M  V30 17294 H 1578.33 -0.491035 -3.22888 0
M  V30 17295 H 1576.99 -2.54127 -2.64225 0
M  V30 17296 H 1576.64 -1.38968 -4.83422 0
M  V30 17297 H 1576.34 -3.14074 -4.9662 0
M  V30 17298 H 1577.86 -2.45025 -5.59281 0
M  V30 17299 H 1579.28 -4.08824 -4.01915 0
M  V30 17300 H 1577.68 -4.77775 -3.63113 0
M  V30 17301 H 1578.75 -4.26033 -2.31569 0
M  V30 17302 N 1580.09 0.879207 -1.30796 0
M  V30 17303 C 1581 2.01822 -1.19604 0
M  V30 17304 C 1582.01 1.73621 -0.114715 0
M  V30 17305 O 1583.19 1.98665 -0.330757 0
M  V30 17306 C 1580.26 3.3496 -0.894569 0
M  V30 17307 C 1579.32 3.76545 -2.06185 0
M  V30 17308 C 1578.55 5.0333 -1.77467 0
M  V30 17309 O 1578.77 5.66022 -0.70535 0
M  V30 17310 O 1577.71 5.41461 -2.62876 0
M  V30 17311 H 1581.53 2.14194 -2.15301 0
M  V30 17312 H 1579.12 1.00608 -1.10446 0
M  V30 17313 H 1581 4.14818 -0.741891 0
M  V30 17314 H 1579.67 3.23684 0.0324464 0
M  V30 17315 H 1578.58 2.97367 -2.26988 0
M  V30 17316 H 1579.91 3.92434 -2.97079 0
M  V30 17317 N 1581.57 1.13606 1.09231 0
M  V30 17318 C 1582.52 0.810747 2.18013 0
M  V30 17319 C 1583.51 -0.207782 1.68121 0
M  V30 17320 O 1584.72 -0.0647274 1.79884 0
M  V30 17321 H 1581.09 0.244415 0.711172 0
M  V30 17322 H 1583.06 1.73632 2.42682 0
M  V30 17323 C 1581.81 0.295302 3.46444 0
M  V30 17324 H 1581.13 1.07037 3.85205 0
M  V30 17325 H 1582.57 0.106127 4.23867 0
M  V30 17326 C 1581.03 -0.979398 3.2235 0
M  V30 17327 O 1581.56 -2.05483 3.45166 0
M  V30 17328 N 1579.77 -0.911282 2.75942 0
M  V30 17329 H 1579.32 -0.035979 2.57575 0
M  V30 17330 H 1579.27 -1.76476 2.60199 0
M  V30 17331 N 1583.05 -1.27244 0.929878 0
M  V30 17332 C 1584.32 -1.89369 0.489774 0
M  V30 17333 C 1584.7 -1.84142 -1.03222 0
M  V30 17334 O 1584.05 -1.2881 -1.88733 0
M  V30 17335 C 1584.26 -3.33196 1.03833 0
M  V30 17336 C 1585.61 -4.101 1.10013 0
M  V30 17337 O 1586.63 -3.42221 0.988106 0
M  V30 17338 O 1585.49 -5.31468 1.27296 0
M  V30 17339 H 1582.59 -0.811789 0.157882 0
M  V30 17340 H 1585.13 -1.35496 1.02171 0
M  V30 17341 H 1583.9 -3.31304 2.08214 0
M  V30 17342 H 1583.53 -3.94592 0.488167 0
M  V30 17343 N 1584.52 -0.695628 -1.41417 0
M  V30 17344 C 1585.47 -0.0303383 -2.3078 0
M  V30 17345 C 1586.44 0.771218 -1.4711 0
M  V30 17346 O 1587.63 0.739239 -1.75897 0
M  V30 17347 C 1584.77 0.900034 -3.33157 0
M  V30 17348 C 1583.88 0.0900862 -4.31906 0
M  V30 17349 C 1583.01 1.01811 -5.21352 0
M  V30 17350 C 1582.05 0.201068 -6.1177 0
M  V30 17351 N 1581.19 1.0829 -6.93699 0
M  V30 17352 H 1586.03 -0.798148 -2.87113 0
M  V30 17353 H 1583.57 -0.405311 -1.41406 0
M  V30 17354 H 1585.52 1.45349 -3.91062 0
M  V30 17355 H 1584.15 1.63424 -2.78375 0
M  V30 17356 H 1583.21 -0.58029 -3.75948 0
M  V30 17357 H 1584.52 -0.543336 -4.95832 0
M  V30 17358 H 1583.67 1.64079 -5.84092 0
M  V30 17359 H 1582.41 1.68538 -4.57653 0
M  V30 17360 H 1581.42 -0.434686 -5.48079 0
M  V30 17361 H 1582.64 -0.462416 -6.77524 0
M  V30 17362 H 1580.59 1.73619 -6.32608 0
M  V30 17363 H 1580.5 0.505046 -7.54311 0
M  V30 17364 H 1581.77 1.69239 -7.60906 0
M  V30 17365 N 1586 1.51322 -0.440383 0
M  V30 17366 C 1586.93 2.25587 0.40537 0
M  V30 17367 C 1587.95 1.29721 0.983686 0
M  V30 17368 O 1589.14 1.55453 0.877308 0
M  V30 17369 C 1586.24 2.99848 1.57938 0
M  V30 17370 C 1585.41 4.22834 1.11939 0
M  V30 17371 C 1584.47 4.79649 2.16387 0
M  V30 17372 O 1583.49 5.41405 1.75697 0
M  V30 17373 N 1584.7 4.63948 3.48902 0
M  V30 17374 H 1587.46 2.98807 -0.231143 0
M  V30 17375 H 1585.02 1.59642 -0.26944 0
M  V30 17376 H 1587.01 3.34743 2.2744 0
M  V30 17377 H 1585.58 2.29619 2.12117 0
M  V30 17378 H 1584.8 3.93398 0.251323 0
M  V30 17379 H 1586.09 5.02637 0.7895 0
M  V30 17380 H 1585.49 4.14764 3.84691 0
M  V30 17381 H 1584.05 5.03196 4.14291 0
M  V30 17382 N 1587.48 0.171848 1.5666 0
M  V30 17383 C 1588.41 -0.789671 2.15167 0
M  V30 17384 C 1589.42 -1.19335 1.10739 0
M  V30 17385 O 1590.61 -1.13311 1.37924 0
M  V30 17386 C 1587.71 -2.07448 2.6799 0
M  V30 17387 C 1586.89 -1.83429 3.9708 0
M  V30 17388 C 1585.95 -2.96134 4.34961 0
M  V30 17389 O 1584.97 -2.66746 5.02827 0
M  V30 17390 N 1586.17 -4.23932 3.96563 0
M  V30 17391 H 1588.94 -0.289484 2.98299 0
M  V30 17392 H 1586.5 -0.0109154 1.61896 0
M  V30 17393 H 1588.49 -2.81941 2.90329 0
M  V30 17394 H 1587.06 -2.48656 1.89444 0
M  V30 17395 H 1586.28 -0.928376 3.83112 0
M  V30 17396 H 1587.57 -1.64749 4.81389 0
M  V30 17397 H 1586.97 -4.50668 3.41928 0
M  V30 17398 H 1585.52 -4.95126 4.23903 0
M  V30 17399 N 1588.96 -1.5727 -0.101874 0
M  V30 17400 C 1589.89 -2.04614 -1.12496 0
M  V30 17401 C 1590.87 -0.933768 -1.42179 0
M  V30 17402 O 1592.05 -1.2046 -1.52325 0
M  V30 17403 C 1589.18 -2.46488 -2.44665 0
M  V30 17404 C 1588.14 -3.61327 -2.29406 0
M  V30 17405 C 1587.46 -3.89155 -3.66691 0
M  V30 17406 C 1588.76 -4.92455 -1.74026 0
M  V30 17407 H 1590.46 -2.90336 -0.731109 0
M  V30 17408 H 1588 -1.39676 -0.350239 0
M  V30 17409 H 1589.96 -2.78216 -3.16502 0
M  V30 17410 H 1588.68 -1.57757 -2.85972 0
M  V30 17411 H 1587.34 -3.29835 -1.60015 0
M  V30 17412 H 1586.99 -2.97603 -4.05514 0
M  V30 17413 H 1586.69 -4.66465 -3.57329 0
M  V30 17414 H 1588.21 -4.23352 -4.40006 0
M  V30 17415 H 1589.63 -5.22609 -2.35697 0
M  V30 17416 H 1588.02 -5.73882 -1.75441 0
M  V30 17417 H 1589.09 -4.79833 -0.699136 0
M  V30 17418 N 1590.44 0.372521 -1.53134 0
M  V30 17419 C 1591.71 1.13113 -1.59577 0
M  V30 17420 C 1592.09 2.07294 -0.399027 0
M  V30 17421 O 1591.44 2.20171 0.611316 0
M  V30 17422 C 1591.65 1.87635 -2.94269 0
M  V30 17423 C 1593 2.42414 -3.48598 0
M  V30 17424 O 1594.02 1.9777 -2.96252 0
M  V30 17425 O 1592.88 3.24008 -4.40092 0
M  V30 17426 H 1589.98 0.518486 -0.644284 0
M  V30 17427 H 1592.52 0.376344 -1.65474 0
M  V30 17428 H 1591.29 1.18859 -3.72811 0
M  V30 17429 H 1590.92 2.70037 -2.91831 0
M  V30 17430 N 1591.91 1.44376 0.631925 0
M  V30 17431 C 1592.82 1.5367 1.77264 0
M  V30 17432 C 1593.84 0.422425 1.68794 0
M  V30 17433 O 1595.02 0.679656 1.89585 0
M  V30 17434 C 1592.08 1.47743 3.13644 0
M  V30 17435 C 1591.14 2.70015 3.33752 0
M  V30 17436 C 1590.37 2.64362 4.63626 0
M  V30 17437 O 1590.6 1.7032 5.44378 0
M  V30 17438 O 1589.53 3.55201 4.85918 0
M  V30 17439 H 1593.36 2.5004 1.72376 0
M  V30 17440 H 1590.94 1.26614 0.793052 0
M  V30 17441 H 1592.82 1.46958 3.94945 0
M  V30 17442 H 1591.5 0.545165 3.19076 0
M  V30 17443 H 1590.41 2.76369 2.52133 0
M  V30 17444 H 1591.74 3.62286 3.33181 0
M  V30 17445 N 1593.39 -0.872258 1.31261 0
M  V30 17446 C 1594.81 -1.15763 1.09868 0
M  V30 17447 C 1595.01 -2.01065 -0.132331 0
M  V30 17448 O 1594.06 -2.38735 -0.822317 0
M  V30 17449 C 1595.38 -1.85199 2.36901 0
M  V30 17450 C 1596.92 -1.9791 2.42489 0
M  V30 17451 C 1597.4 -2.70759 3.69396 0
M  V30 17452 N 1598.89 -2.78296 3.70278 0
M  V30 17453 C 1599.63 -3.3527 4.65168 0
M  V30 17454 N 1599.12 -3.93193 5.70413 0
M  V30 17455 N 1600.91 -3.33206 4.52692 0
M  V30 17456 H 1593.07 -0.303784 2.10216 0
M  V30 17457 H 1595.33 -0.197172 0.927269 0
M  V30 17458 H 1595.03 -1.29968 3.26804 0
M  V30 17459 H 1594.91 -2.85493 2.46523 0
M  V30 17460 H 1597.3 -2.52305 1.53056 0
M  V30 17461 H 1597.38 -0.966644 2.36833 0
M  V30 17462 H 1597.02 -2.17031 4.59195 0
M  V30 17463 H 1596.95 -3.72407 3.72318 0
M  V30 17464 H 1599.44 -2.37185 2.94197 0
M  V30 17465 H 1599.75 -4.34771 6.38901 0
M  V30 17466 H 1598.1 -3.91575 5.7419 0
M  V30 17467 H 1601.29 -2.87191 3.69647 0
M  V30 17468 H 1601.46 -3.7731 5.26822 0
M  V30 17469 N 1594.87 -1.14184 -1.08627 0
M  V30 17470 C 1595.8 -0.849455 -2.17501 0
M  V30 17471 C 1596.78 0.194617 -1.68983 0
M  V30 17472 O 1597.97 0.0517757 -1.94131 0
M  V30 17473 C 1595.1 -0.323685 -3.45788 0
M  V30 17474 C 1594.05 -1.30294 -4.07685 0
M  V30 17475 C 1593.38 -0.636575 -5.30897 0
M  V30 17476 C 1594.68 -2.66441 -4.49229 0
M  V30 17477 H 1596.37 -1.75987 -2.42217 0
M  V30 17478 H 1593.92 -0.847595 -1.16412 0
M  V30 17479 H 1595.87 -0.106754 -4.21265 0
M  V30 17480 H 1594.59 0.62215 -3.20619 0
M  V30 17481 H 1593.25 -1.50601 -3.34238 0
M  V30 17482 H 1592.9 0.314995 -5.02013 0
M  V30 17483 H 1592.6 -1.28998 -5.73266 0
M  V30 17484 H 1594.12 -0.429117 -6.0909 0
M  V30 17485 H 1595.54 -2.50055 -5.15893 0
M  V30 17486 H 1593.93 -3.28033 -5.02508 0
M  V30 17487 H 1595 -3.23486 -3.61226 0
M  V30 17488 N 1596.35 1.26749 -0.936613 0
M  V30 17489 C 1597.3 2.26542 -0.441307 0
M  V30 17490 C 1598.27 1.58503 0.496581 0
M  V30 17491 O 1599.45 1.86259 0.41379 0
M  V30 17492 C 1596.59 3.43866 0.291633 0
M  V30 17493 C 1595.7 4.26592 -0.681397 0
M  V30 17494 C 1594.84 5.31151 0.0722826 0
M  V30 17495 C 1593.88 6.05553 -0.892869 0
M  V30 17496 N 1593.01 7.01891 -0.17124 0
M  V30 17497 H 1597.85 2.68282 -1.29725 0
M  V30 17498 H 1595.39 1.31914 -0.650928 0
M  V30 17499 H 1597.35 4.10711 0.732984 0
M  V30 17500 H 1595.98 3.03051 1.11175 0
M  V30 17501 H 1595.03 3.59579 -1.24126 0
M  V30 17502 H 1596.34 4.78201 -1.41864 0
M  V30 17503 H 1595.5 6.03987 0.57313 0
M  V30 17504 H 1594.24 4.80369 0.842439 0
M  V30 17505 H 1593.24 5.31548 -1.40488 0
M  V30 17506 H 1594.47 6.58424 -1.66296 0
M  V30 17507 H 1592.41 6.53426 0.580507 0
M  V30 17508 H 1592.33 7.5123 -0.847897 0
M  V30 17509 H 1593.6 7.78889 0.308662 0
M  V30 17510 N 1597.83 0.703118 1.41046 0
M  V30 17511 C 1598.77 0.0425767 2.30761 0
M  V30 17512 C 1599.74 -0.763406 1.47517 0
M  V30 17513 O 1600.93 -0.7299 1.76287 0
M  V30 17514 C 1598.07 -0.882353 3.33629 0
M  V30 17515 C 1597.18 -0.0671799 4.31948 0
M  V30 17516 C 1596.32 -0.990443 5.21885 0
M  V30 17517 C 1595.36 -0.168622 6.11868 0
M  V30 17518 N 1594.49 -1.04609 6.94263 0
M  V30 17519 H 1599.33 0.813363 2.86685 0
M  V30 17520 H 1596.87 0.412804 1.41189 0
M  V30 17521 H 1598.83 -1.43273 3.91827 0
M  V30 17522 H 1597.46 -1.61946 2.79237 0
M  V30 17523 H 1596.51 0.600219 3.75635 0
M  V30 17524 H 1597.82 0.569624 4.95537 0
M  V30 17525 H 1596.98 -1.60979 5.84954 0
M  V30 17526 H 1595.71 -1.66109 4.5854 0
M  V30 17527 H 1594.72 0.463746 5.47841 0
M  V30 17528 H 1595.94 0.49834 6.77269 0
M  V30 17529 H 1593.89 -1.70262 6.33519 0
M  V30 17530 H 1593.81 -0.465036 7.54568 0
M  V30 17531 H 1595.08 -1.65201 7.61793 0
M  V30 17532 N 1599.3 -1.51086 0.448402 0
M  V30 17533 C 1600.25 -2.28015 -0.357438 0
M  V30 17534 C 1601.22 -1.32079 -1.00719 0
M  V30 17535 O 1602.41 -1.60995 -1.02398 0
M  V30 17536 C 1599.55 -3.13324 -1.44644 0
M  V30 17537 C 1598.66 -4.24267 -0.813729 0
M  V30 17538 C 1597.79 -4.96868 -1.87871 0
M  V30 17539 C 1596.83 -5.99716 -1.22502 0
M  V30 17540 N 1595.97 -6.65682 -2.23185 0
M  V30 17541 H 1600.81 -2.96436 0.30493 0
M  V30 17542 H 1598.35 -1.46203 0.162222 0
M  V30 17543 H 1600.31 -3.61119 -2.08924 0
M  V30 17544 H 1598.94 -2.46996 -2.07829 0
M  V30 17545 H 1597.99 -3.80354 -0.0589414 0
M  V30 17546 H 1599.3 -4.97917 -0.296587 0
M  V30 17547 H 1598.45 -5.48266 -2.59786 0
M  V30 17548 H 1597.19 -4.22873 -2.42961 0
M  V30 17549 H 1596.2 -5.476 -0.491388 0
M  V30 17550 H 1597.42 -6.75674 -0.681315 0
M  V30 17551 H 1595.37 -5.94493 -2.77334 0
M  V30 17552 H 1595.29 -7.35134 -1.76393 0
M  V30 17553 H 1596.55 -7.21707 -2.9455 0
M  V30 17554 N 1600.78 -0.180154 -1.56567 0
M  V30 17555 C 1602.06 0.509347 -1.88852 0
M  V30 17556 C 1602.44 1.80697 -1.09141 0
M  V30 17557 O 1601.79 2.27726 -0.187974 0
M  V30 17558 C 1602 0.742669 -3.41006 0
M  V30 17559 C 1603.35 1.06873 -4.1093 0
M  V30 17560 O 1604.37 0.830907 -3.46373 0
M  V30 17561 O 1603.23 1.51784 -5.24999 0
M  V30 17562 H 1600.32 0.263629 -0.783855 0
M  V30 17563 H 1602.87 -0.219251 -1.68278 0
M  V30 17564 H 1601.64 -0.17431 -3.90912 0
M  V30 17565 H 1601.26 1.52427 -3.67222 0
M  V30 17566 N 1602.26 1.57322 0.0935319 0
M  V30 17567 C 1603.51 1.86167 0.796739 0
M  V30 17568 C 1603.84 0.768893 1.78657 0
M  V30 17569 O 1603.09 -0.237358 1.94255 0
M  V30 17570 C 1603.39 3.21605 1.55901 0
M  V30 17571 C 1603.06 4.45256 0.711165 0
M  V30 17572 C 1601.72 4.78826 0.477442 0
M  V30 17573 C 1604.07 5.21058 0.121859 0
M  V30 17574 C 1601.4 5.85622 -0.355425 0
M  V30 17575 C 1603.75 6.28734 -0.69834 0
M  V30 17576 C 1602.41 6.60818 -0.94214 0
M  V30 17577 H 1601.68 0.681235 0.291547 0
M  V30 17578 H 1604.33 1.91412 0.0581736 0
M  V30 17579 H 1602.64 3.12052 2.36919 0
M  V30 17580 H 1604.33 3.41151 2.10753 0
M  V30 17581 H 1600.92 4.1897 0.903444 0
M  V30 17582 H 1605.11 4.95454 0.289588 0
M  V30 17583 H 1600.36 6.08891 -0.553277 0
M  V30 17584 H 1604.54 6.8664 -1.16183 0
M  V30 17585 H 1602.16 7.43401 -1.5893 0
M  V30 17586 N 1603.74 -0.364395 1.53329 0
M  V30 17587 C 1604.65 -1.47027 1.82812 0
M  V30 17588 C 1605.66 -1.58559 0.716598 0
M  V30 17589 O 1606.84 -1.7443 1.00678 0
M  V30 17590 C 1603.91 -2.82278 2.01295 0
M  V30 17591 C 1602.97 -2.80264 3.25193 0
M  V30 17592 C 1602.2 -4.09065 3.42785 0
M  V30 17593 O 1602.42 -5.0529 2.64648 0
M  V30 17594 O 1601.36 -4.14804 4.36144 0
M  V30 17595 H 1605.18 -1.25035 2.76767 0
M  V30 17596 H 1602.77 -0.554608 1.38724 0
M  V30 17597 H 1604.65 -3.62416 2.15017 0
M  V30 17598 H 1603.32 -3.04244 1.10531 0
M  V30 17599 H 1602.23 -1.9882 3.16893 0
M  V30 17600 H 1603.56 -2.63252 4.15884 0
M  V30 17601 N 1605.22 -1.44709 -0.62426 0
M  V30 17602 C 1606.15 -1.54934 -1.74693 0
M  V30 17603 C 1607.13 -0.401897 -1.65284 0
M  V30 17604 O 1608.31 -0.622906 -1.83939 0
M  V30 17605 C 1605.44 -1.49976 -3.13248 0
M  V30 17606 C 1604.4 -2.63267 -3.37453 0
M  V30 17607 C 1603.72 -2.43362 -4.76108 0
M  V30 17608 C 1605.02 -4.0538 -3.2934 0
M  V30 17609 H 1606.72 -2.48905 -1.66393 0
M  V30 17610 H 1604.26 -1.19794 -0.799088 0
M  V30 17611 H 1606.22 -1.55729 -3.91569 0
M  V30 17612 H 1604.94 -0.525254 -3.22349 0
M  V30 17613 H 1603.6 -2.56915 -2.61515 0
M  V30 17614 H 1603.25 -1.44088 -4.81921 0
M  V30 17615 H 1602.95 -3.19324 -4.93261 0
M  V30 17616 H 1604.47 -2.50943 -5.56651 0
M  V30 17617 H 1605.88 -4.13064 -3.97556 0
M  V30 17618 H 1604.28 -4.81599 -3.58025 0
M  V30 17619 H 1605.35 -4.28465 -2.27038 0
M  V30 17620 N 1606.69 0.865285 -1.31722 0
M  V30 17621 C 1607.64 1.99433 -1.19704 0
M  V30 17622 C 1608.64 1.69079 -0.104255 0
M  V30 17623 O 1609.84 1.78017 -0.266466 0
M  V30 17624 H 1606.22 0.654244 -0.370768 0
M  V30 17625 H 1608.19 2.06699 -2.15216 0
M  V30 17626 C 1606.94 3.35142 -0.926027 0
M  V30 17627 H 1606.26 3.59022 -1.75906 0
M  V30 17628 H 1607.7 4.14722 -0.88214 0
M  V30 17629 C 1606.16 3.34848 0.37124 0
M  V30 17630 O 1606.69 3.77012 1.38654 0
M  V30 17631 N 1604.9 2.87979 0.389441 0
M  V30 17632 H 1604.44 2.53861 -0.437293 0
M  V30 17633 H 1604.4 2.88165 1.25731 0
M  V30 17634 N 1608.17 1.14759 1.0802 0
M  V30 17635 C 1609.14 0.840859 2.13219 0
M  V30 17636 C 1610.14 -0.156309 1.60038 0
M  V30 17637 O 1611.33 0.0725143 1.74049 0
M  V30 17638 C 1608.46 0.254208 3.39951 0
M  V30 17639 H 1609.65 1.77323 2.4186 0
M  V30 17640 H 1607.2 0.954146 1.23797 0
M  V30 17641 H 1607.94 -0.686692 3.16946 0
M  V30 17642 H 1607.72 0.972499 3.79848 0
M  V30 17643 H 1609.21 0.0569551 4.17561 0
M  V30 17644 N 1609.65 -1.26251 0.943322 0
M  V30 17645 C 1610.58 -2.28673 0.472347 0
M  V30 17646 C 1611.56 -1.63319 -0.475481 0
M  V30 17647 O 1612.75 -1.90508 -0.376875 0
M  V30 17648 C 1609.88 -3.46316 -0.261286 0
M  V30 17649 C 1608.83 -4.23771 0.600192 0
M  V30 17650 C 1608.16 -5.3405 -0.263525 0
M  V30 17651 C 1609.46 -4.87576 1.87262 0
M  V30 17652 H 1611.15 -2.68319 1.32836 0
M  V30 17653 H 1608.7 -1.28987 0.640182 0
M  V30 17654 H 1610.65 -4.1708 -0.601821 0
M  V30 17655 H 1609.37 -3.05629 -1.15146 0
M  V30 17656 H 1608.03 -3.54774 0.923651 0
M  V30 17657 H 1607.68 -4.89604 -1.15312 0
M  V30 17658 H 1607.38 -5.86784 0.309495 0
M  V30 17659 H 1608.9 -6.07652 -0.599281 0
M  V30 17660 H 1610.32 -5.50544 1.59919 0
M  V30 17661 H 1608.72 -5.50437 2.39038 0
M  V30 17662 H 1609.79 -4.10397 2.58268 0
M  V30 17663 N 1611.13 -0.710588 -1.40671 0
M  V30 17664 C 1612.08 -0.043614 -2.32559 0
M  V30 17665 C 1613.07 0.752425 -1.51773 0
M  V30 17666 O 1614.28 0.656356 -1.67607 0
M  V30 17667 H 1610.65 0.00469865 -0.751985 0
M  V30 17668 H 1612.62 -0.835399 -2.86468 0
M  V30 17669 C 1611.37 0.867796 -3.36697 0
M  V30 17670 H 1610.7 0.264667 -3.98923 0
M  V30 17671 H 1612.14 1.30252 -4.03498 0
M  V30 17672 C 1610.59 1.99094 -2.71778 0
M  V30 17673 O 1611.12 3.08129 -2.5772 0
M  V30 17674 N 1609.33 1.77309 -2.30239 0
M  V30 17675 H 1608.88 0.886325 -2.41872 0
M  V30 17676 H 1608.84 2.52639 -1.87139 0
M  V30 17677 N 1612.61 1.50847 -0.456408 0
M  V30 17678 C 1613.57 2.26755 0.33388 0
M  V30 17679 C 1614.57 1.30947 0.933247 0
M  V30 17680 O 1615.76 1.54499 0.804716 0
M  V30 17681 C 1612.89 3.07378 1.47417 0
M  V30 17682 H 1614.09 2.98061 -0.331634 0
M  V30 17683 H 1611.64 1.54882 -0.210067 0
M  V30 17684 H 1612.37 2.40534 2.17518 0
M  V30 17685 H 1612.16 3.7777 1.05036 0
M  V30 17686 H 1613.65 3.64826 2.03204 0
M  V30 17687 N 1614.09 0.188454 1.56469 0
M  V30 17688 C 1615.5 -0.167487 1.58719 0
M  V30 17689 C 1615.7 -1.61543 1.20442 0
M  V30 17690 O 1614.76 -2.34985 0.924041 0
M  V30 17691 C 1616.07 0.128854 3.00424 0
M  V30 17692 C 1617.62 0.0684301 3.12925 0
M  V30 17693 C 1618.09 0.337991 4.56751 0
M  V30 17694 N 1619.58 0.286373 4.62314 0
M  V30 17695 C 1620.32 0.468886 5.7148 0
M  V30 17696 N 1619.82 0.711388 6.89138 0
M  V30 17697 N 1621.61 0.403602 5.60649 0
M  V30 17698 H 1613.76 1.13339 1.79633 0
M  V30 17699 H 1616.02 0.451885 0.833369 0
M  V30 17700 H 1615.73 1.13255 3.32966 0
M  V30 17701 H 1615.6 -0.571644 3.72843 0
M  V30 17702 H 1617.99 -0.925864 2.802 0
M  V30 17703 H 1618.07 0.801903 2.42906 0
M  V30 17704 H 1617.71 1.32957 4.90189 0
M  V30 17705 H 1617.64 -0.416293 5.24952 0
M  V30 17706 H 1620.14 0.105286 3.77753 0
M  V30 17707 H 1620.45 0.839643 7.68225 0
M  V30 17708 H 1618.79 0.748205 6.90961 0
M  V30 17709 H 1621.98 0.214616 4.67608 0
M  V30 17710 H 1622.16 0.549261 6.45668 0
M  V30 17711 N 1615.56 -1.5737 -0.0851874 0
M  V30 17712 C 1616.81 -1.85772 -0.785604 0
M  V30 17713 C 1617.13 -0.779172 -1.79411 0
M  V30 17714 O 1618.33 -0.950621 -2.54314 0
M  V30 17715 C 1616.79 -3.29484 -1.44805 0
M  V30 17716 C 1616.4 -4.45434 -0.478799 0
M  V30 17717 C 1618.14 -3.671 -2.13161 0
M  V30 17718 C 1616.05 -5.80183 -1.1464 0
M  V30 17719 H 1614.98 -0.69298 -0.297145 0
M  V30 17720 H 1617.63 -1.83459 -0.0386776 0
M  V30 17721 H 1616.01 -3.26367 -2.24278 0
M  V30 17722 H 1617.18 -4.59917 0.285148 0
M  V30 17723 H 1615.5 -4.16281 0.0995964 0
M  V30 17724 H 1618.1 -4.65061 -2.6386 0
M  V30 17725 H 1618.44 -2.96223 -2.92503 0
M  V30 17726 H 1618.97 -3.72148 -1.40536 0
M  V30 17727 H 1615.71 -6.54317 -0.393583 0
M  V30 17728 H 1615.23 -5.69525 -1.88153 0
M  V30 17729 H 1616.91 -6.25074 -1.67006 0
M  V30 17730 N 1617.04 0.356258 -1.53521 0
M  V30 17731 C 1617.95 1.46055 -1.83589 0
M  V30 17732 C 1618.97 1.58176 -0.724997 0
M  V30 17733 O 1620.14 1.73894 -1.01601 0
M  V30 17734 C 1617.21 2.81207 -2.0279 0
M  V30 17735 C 1616.27 2.78535 -3.26675 0
M  V30 17736 C 1615.5 4.07241 -3.4495 0
M  V30 17737 O 1615.73 5.03879 -2.67324 0
M  V30 17738 O 1614.66 4.12485 -4.38337 0
M  V30 17739 H 1618.49 1.23566 -2.77426 0
M  V30 17740 H 1616.07 0.547243 -1.39017 0
M  V30 17741 H 1617.95 3.61271 -2.16936 0
M  V30 17742 H 1616.63 3.03654 -1.12143 0
M  V30 17743 H 1615.53 1.97137 -3.17943 0
M  V30 17744 H 1616.87 2.61042 -4.17274 0
M  V30 17745 N 1618.52 1.45038 0.616577 0
M  V30 17746 C 1619.8 1.39059 1.37557 0
M  V30 17747 C 1620.18 0.0566307 2.11024 0
M  V30 17748 O 1619.52 -0.961203 2.073 0
M  V30 17749 C 1619.73 2.59841 2.32989 0
M  V30 17750 C 1621.08 3.04539 2.95874 0
M  V30 17751 O 1622.11 2.6015 2.43312 0
M  V30 17752 O 1620.97 3.81547 3.9126 0
M  V30 17753 H 1618.06 0.551396 0.616353 0
M  V30 17754 H 1620.61 1.57152 0.640416 0
M  V30 17755 H 1619.38 3.48521 1.779 0
M  V30 17756 H 1619 2.44036 3.13899 0
M  V30 17757 N 1620 -0.858287 1.32179 0
M  V30 17758 C 1620.91 -1.99894 1.228 0
M  V30 17759 C 1621.92 -1.73417 0.142323 0
M  V30 17760 O 1623.1 -1.98114 0.362321 0
M  V30 17761 C 1620.16 -3.33495 0.947745 0
M  V30 17762 C 1619.23 -3.73217 2.12149 0
M  V30 17763 C 1618.46 -5.00443 1.85452 0
M  V30 17764 O 1618.68 -5.64828 0.79531 0
M  V30 17765 O 1617.62 -5.3721 2.71457 0
M  V30 17766 H 1621.44 -2.10742 2.18682 0
M  V30 17767 H 1619.03 -0.988385 1.12033 0
M  V30 17768 H 1620.91 -4.13585 0.807791 0
M  V30 17769 H 1619.58 -3.23694 0.019053 0
M  V30 17770 H 1618.49 -2.93718 2.3169 0
M  V30 17771 H 1619.82 -3.87659 3.03285 0
M  V30 17772 N 1621.48 -1.1533 -1.07409 0
M  V30 17773 C 1622.41 -0.807289 -2.14512 0
M  V30 17774 C 1623.42 0.18043 -1.61797 0
M  V30 17775 O 1624.61 -0.042733 -1.78449 0
M  V30 17776 C 1621.71 -0.179338 -3.38425 0
M  V30 17777 C 1620.88 -1.20433 -4.20493 0
M  V30 17778 C 1619.94 -0.598268 -5.22788 0
M  V30 17779 O 1618.97 -1.26405 -5.54987 0
M  V30 17780 N 1620.17 0.620283 -5.77177 0
M  V30 17781 H 1622.93 -1.729 -2.44797 0
M  V30 17782 H 1620.5 -1.0491 -1.23311 0
M  V30 17783 H 1622.49 0.238867 -4.03994 0
M  V30 17784 H 1621.06 0.645706 -3.05858 0
M  V30 17785 H 1620.28 -1.79912 -3.5075 0
M  V30 17786 H 1621.57 -1.89642 -4.72137 0
M  V30 17787 H 1620.96 1.17958 -5.53265 0
M  V30 17788 H 1619.52 0.980853 -6.44378 0
M  V30 17789 N 1622.95 1.25748 -0.950004 0
M  V30 17790 C 1623.92 2.24307 -0.47106 0
M  V30 17791 C 1624.92 1.55145 0.422704 0
M  V30 17792 O 1626.11 1.72797 0.220642 0
M  V30 17793 C 1623.24 3.39395 0.319979 0
M  V30 17794 H 1624.43 2.68192 -1.34214 0
M  V30 17795 H 1621.98 1.38056 -0.732827 0
M  V30 17796 H 1622.72 3.00925 1.20892 0
M  V30 17797 H 1622.5 3.90783 -0.321157 0
M  V30 17798 H 1623.99 4.12594 0.644697 0
M  V30 17799 N 1624.43 0.718038 1.40292 0
M  V30 17800 C 1625.36 0.0818367 2.33357 0
M  V30 17801 C 1626.34 -0.742854 1.53022 0
M  V30 17802 O 1627.53 -0.691281 1.8148 0
M  V30 17803 C 1624.66 -0.838843 3.37017 0
M  V30 17804 C 1623.61 -0.119589 4.27833 0
M  V30 17805 C 1622.94 -1.15615 5.22051 0
M  V30 17806 C 1624.24 1.02769 5.1209 0
M  V30 17807 H 1625.93 0.859167 2.86808 0
M  V30 17808 H 1623.48 0.414606 1.37902 0
M  V30 17809 H 1625.43 -1.29332 4.01063 0
M  V30 17810 H 1624.15 -1.6481 2.81967 0
M  V30 17811 H 1622.81 0.315088 3.65243 0
M  V30 17812 H 1622.46 -1.95852 4.63304 0
M  V30 17813 H 1622.16 -0.679767 5.83655 0
M  V30 17814 H 1623.69 -1.61068 5.88973 0
M  V30 17815 H 1625.1 0.652461 5.69575 0
M  V30 17816 H 1623.5 1.4326 5.82749 0
M  V30 17817 H 1624.57 1.85723 4.47923 0
M  V30 17818 N 1625.91 -1.50602 0.464402 0
M  V30 17819 C 1627.16 -2.01887 -0.0927084 0
M  V30 17820 C 1627.48 -1.34891 -1.40817 0
M  V30 17821 O 1626.75 -0.492078 -1.89619 0
M  V30 17822 H 1625.33 -0.746071 -0.0372514 0
M  V30 17823 H 1627.99 -1.84999 0.613296 0
M  V30 17824 H 1627.09 -3.11105 -0.249067 0
M  V30 17825 N 1627.39 -0.19675 -1.56367 0
M  V30 17826 C 1628.61 0.450245 -2.02454 0
M  V30 17827 C 1629.04 1.54287 -1.07597 0
M  V30 17828 O 1628.4 1.81202 -0.0597529 0
M  V30 17829 C 1628.44 0.982087 -3.46969 0
M  V30 17830 O 1627.55 2.09489 -3.5523 0
M  V30 17831 H 1626.89 0.105022 -0.655642 0
M  V30 17832 H 1629.42 -0.308112 -2.02267 0
M  V30 17833 H 1629.43 1.29826 -3.86793 0
M  V30 17834 H 1628.1 0.18224 -4.15501 0
M  V30 17835 H 1626.68 1.78723 -3.27281 0
M  V30 17836 N 1628.87 1.57413 0.0768405 0
M  V30 17837 C 1629.8 2.00058 1.11845 0
M  V30 17838 C 1630.81 0.905783 1.35275 0
M  V30 17839 O 1632 1.18372 1.33605 0
M  V30 17840 C 1629.1 2.32002 2.47039 0
M  V30 17841 C 1628.27 3.63265 2.43634 0
M  V30 17842 C 1627.33 3.82937 3.60896 0
M  V30 17843 O 1626.36 4.54582 3.42555 0
M  V30 17844 N 1627.56 3.24904 4.81059 0
M  V30 17845 H 1630.33 2.90026 0.75533 0
M  V30 17846 H 1627.89 1.59707 0.265567 0
M  V30 17847 H 1629.88 2.4234 3.24119 0
M  V30 17848 H 1628.45 1.4795 2.75372 0
M  V30 17849 H 1627.67 3.63727 1.51974 0
M  V30 17850 H 1628.96 4.49462 2.38455 0
M  V30 17851 H 1628.35 2.66742 4.98864 0
M  V30 17852 H 1626.91 3.40699 5.55669 0
M  V30 17853 N 1630.34 -0.348112 1.53707 0
M  V30 17854 C 1631.27 -1.43296 1.8436 0
M  V30 17855 C 1632.26 -1.55102 0.698376 0
M  V30 17856 O 1633.44 -1.69385 0.949864 0
M  V30 17857 C 1630.57 -2.80407 2.04912 0
M  V30 17858 C 1629.52 -2.83412 3.20721 0
M  V30 17859 C 1628.85 -4.23365 3.26597 0
M  V30 17860 C 1630.15 -2.49358 4.58931 0
M  V30 17861 H 1631.84 -1.17892 2.75212 0
M  V30 17862 H 1629.39 -0.565692 1.32423 0
M  V30 17863 H 1631.34 -3.56343 2.24939 0
M  V30 17864 H 1630.07 -3.07236 1.10786 0
M  V30 17865 H 1628.73 -2.09929 3.00542 0
M  V30 17866 H 1628.37 -4.47297 2.30076 0
M  V30 17867 H 1628.07 -4.26287 4.04417 0
M  V30 17868 H 1629.6 -5.01149 3.4883 0
M  V30 17869 H 1631.01 -3.15006 4.79003 0
M  V30 17870 H 1629.41 -2.6357 5.3912 0
M  V30 17871 H 1630.48 -1.44557 4.62851 0
M  V30 17872 N 1631.82 -1.45363 -0.608876 0
M  V30 17873 C 1632.75 -1.49944 -1.73348 0
M  V30 17874 C 1633.77 -0.390352 -1.58051 0
M  V30 17875 O 1634.96 -0.657338 -1.65956 0
M  V30 17876 C 1632.06 -1.33886 -3.11332 0
M  V30 17877 C 1631.23 -2.58445 -3.52881 0
M  V30 17878 C 1630.29 -2.36963 -4.69825 0
M  V30 17879 O 1629.31 -3.10569 -4.77007 0
M  V30 17880 N 1630.52 -1.41442 -5.63005 0
M  V30 17881 H 1633.28 -2.46902 -1.69882 0
M  V30 17882 H 1630.84 -1.41086 -0.794119 0
M  V30 17883 H 1632.83 -1.17327 -3.8732 0
M  V30 17884 H 1631.4 -0.452095 -3.09314 0
M  V30 17885 H 1630.62 -2.90129 -2.66869 0
M  V30 17886 H 1631.91 -3.41245 -3.77398 0
M  V30 17887 H 1631.31 -0.806941 -5.59915 0
M  V30 17888 H 1629.87 -1.30855 -6.3853 0
M  V30 17889 N 1633.3 0.851265 -1.32632 0
M  V30 17890 C 1634.25 1.96012 -1.21852 0
M  V30 17891 C 1635.22 1.65799 -0.0999141 0
M  V30 17892 O 1636.4 1.88793 -0.276049 0
M  V30 17893 C 1633.54 3.31737 -0.951014 0
M  V30 17894 C 1632.66 3.74427 -2.15472 0
M  V30 17895 C 1631.79 4.9896 -1.82242 0
M  V30 17896 C 1630.83 5.3415 -2.98914 0
M  V30 17897 N 1629.97 6.49861 -2.65754 0
M  V30 17898 H 1634.81 2.04565 -2.16696 0
M  V30 17899 H 1632.34 1.00119 -1.07771 0
M  V30 17900 H 1634.3 4.09912 -0.776401 0
M  V30 17901 H 1632.93 3.22776 -0.0393461 0
M  V30 17902 H 1631.98 2.91878 -2.4395 0
M  V30 17903 H 1633.3 3.96425 -3.02736 0
M  V30 17904 H 1632.45 5.84851 -1.61352 0
M  V30 17905 H 1631.19 4.78906 -0.921971 0
M  V30 17906 H 1630.19 4.4677 -3.20432 0
M  V30 17907 H 1631.42 5.5616 -3.89696 0
M  V30 17908 H 1629.36 6.31317 -1.78254 0
M  V30 17909 H 1629.28 6.71894 -3.46547 0
M  V30 17910 H 1630.55 7.38895 -2.48302 0
M  V30 17911 N 1634.78 1.15898 1.06796 0
M  V30 17912 C 1635.73 0.860895 2.14143 0
M  V30 17913 C 1636.7 -0.188539 1.65026 0
M  V30 17914 O 1637.88 -0.0548558 1.90721 0
M  V30 17915 C 1635.02 0.362533 3.4319 0
M  V30 17916 C 1634.13 1.4742 4.06068 0
M  V30 17917 C 1633.27 0.931377 5.22971 0
M  V30 17918 C 1632.31 2.0196 5.77822 0
M  V30 17919 N 1631.44 1.49274 6.86048 0
M  V30 17920 H 1636.28 1.78023 2.38981 0
M  V30 17921 H 1633.82 0.888173 1.1726 0
M  V30 17922 H 1635.78 0.0552592 4.17163 0
M  V30 17923 H 1634.41 -0.519869 3.18586 0
M  V30 17924 H 1633.46 1.89754 3.29693 0
M  V30 17925 H 1634.77 2.29559 4.42836 0
M  V30 17926 H 1633.93 0.576982 6.0395 0
M  V30 17927 H 1632.67 0.0792265 4.87636 0
M  V30 17928 H 1631.67 2.38275 4.95485 0
M  V30 17929 H 1632.9 2.87562 6.15211 0
M  V30 17930 H 1630.84 0.663037 6.52641 0
M  V30 17931 H 1630.76 2.25035 7.21731 0
M  V30 17932 H 1632.03 1.16676 7.70718 0
M  V30 17933 N 1636.26 -1.25243 0.956659 0
M  V30 17934 C 1637.19 -2.28159 0.496574 0
M  V30 17935 C 1638.17 -1.63814 -0.458132 0
M  V30 17936 O 1639.35 -1.90897 -0.356648 0
M  V30 17937 C 1636.48 -3.46573 -0.22454 0
M  V30 17938 C 1635.44 -4.2311 0.645104 0
M  V30 17939 C 1634.76 -5.343 -0.206867 0
M  V30 17940 C 1636.06 -4.85562 1.92422 0
M  V30 17941 H 1637.76 -2.66895 1.35675 0
M  V30 17942 H 1635.3 -1.28301 0.653827 0
M  V30 17943 H 1637.26 -4.17695 -0.55755 0
M  V30 17944 H 1635.98 -3.06833 -1.11898 0
M  V30 17945 H 1634.64 -3.53774 0.961228 0
M  V30 17946 H 1634.29 -4.908 -1.10112 0
M  V30 17947 H 1633.99 -5.86423 0.371714 0
M  V30 17948 H 1635.51 -6.08253 -0.534798 0
M  V30 17949 H 1636.92 -5.48817 1.65749 0
M  V30 17950 H 1635.32 -5.47871 2.44862 0
M  V30 17951 H 1636.39 -4.07634 2.62607 0
M  V30 17952 N 1637.73 -0.725468 -1.3991 0
M  V30 17953 C 1638.68 -0.0792833 -2.30664 0
M  V30 17954 C 1639.65 0.73984 -1.48713 0
M  V30 17955 O 1640.84 0.701762 -1.77426 0
M  V30 17956 C 1637.98 0.829164 -3.34991 0
M  V30 17957 C 1637.09 -0.00154779 -4.32 0
M  V30 17958 C 1636.22 0.907291 -5.23394 0
M  V30 17959 C 1635.26 0.0712573 -6.12059 0
M  V30 17960 N 1634.4 0.935508 -6.9584 0
M  V30 17961 H 1639.24 -0.858869 -2.85355 0
M  V30 17962 H 1636.78 -0.435214 -1.40514 0
M  V30 17963 H 1638.74 1.37021 -3.94057 0
M  V30 17964 H 1637.37 1.57483 -2.81778 0
M  V30 17965 H 1636.42 -0.659903 -3.74632 0
M  V30 17966 H 1637.73 -0.648387 -4.94568 0
M  V30 17967 H 1636.88 1.51652 -5.87441 0
M  V30 17968 H 1635.62 1.58793 -4.61125 0
M  V30 17969 H 1634.63 -0.550844 -5.47034 0
M  V30 17970 H 1635.85 -0.606025 -6.76391 0
M  V30 17971 H 1633.8 1.60162 -6.36148 0
M  V30 17972 H 1633.72 0.344932 -7.55213 0
M  V30 17973 H 1634.98 1.53061 -7.64325 0
M  V30 17974 N 1639.21 1.50354 -0.472382 0
M  V30 17975 C 1640.12 2.32318 0.326405 0
M  V30 17976 C 1641.14 1.4276 0.994771 0
M  V30 17977 O 1642.31 1.75811 0.98246 0
M  V30 17978 C 1639.38 3.17468 1.39337 0
M  V30 17979 C 1638.44 4.22848 0.741465 0
M  V30 17980 C 1637.67 5.03929 1.75759 0
M  V30 17981 O 1637.9 4.86105 2.98425 0
M  V30 17982 O 1636.83 5.87051 1.32871 0
M  V30 17983 H 1640.66 3.01749 -0.343702 0
M  V30 17984 H 1638.24 1.47553 -0.234207 0
M  V30 17985 H 1640.12 3.703 2.01136 0
M  V30 17986 H 1638.8 2.50764 2.04692 0
M  V30 17987 H 1637.71 3.74005 0.0844848 0
M  V30 17988 H 1639.04 4.92026 0.130838 0
M  V30 17989 N 1640.69 0.205039 1.56261 0
M  V30 17990 C 1641.62 -0.706815 2.22545 0
M  V30 17991 C 1642.6 -1.21372 1.19176 0
M  V30 17992 O 1643.79 -1.26074 1.47712 0
M  V30 17993 C 1640.92 -1.92221 2.89255 0
M  V30 17994 C 1639.87 -1.54982 3.98954 0
M  V30 17995 C 1639.2 -2.84265 4.52877 0
M  V30 17996 C 1640.5 -0.75225 5.16854 0
M  V30 17997 H 1642.19 -0.15421 2.99003 0
M  V30 17998 H 1639.74 -0.0727309 1.43816 0
M  V30 17999 H 1641.69 -2.56542 3.34311 0
M  V30 18000 H 1640.41 -2.49952 2.10218 0
M  V30 18001 H 1639.07 -0.930155 3.54604 0
M  V30 18002 H 1638.72 -3.40105 3.70591 0
M  V30 18003 H 1638.42 -2.60089 5.26904 0
M  V30 18004 H 1639.95 -3.49557 5.00642 0
M  V30 18005 H 1641.36 -1.29878 5.58395 0
M  V30 18006 H 1639.76 -0.60823 5.9701 0
M  V30 18007 H 1640.83 0.24463 4.84283 0
M  V30 18008 N 1642.17 -1.57451 -0.0684915 0
M  V30 18009 C 1643.1 -2.00648 -1.10783 0
M  V30 18010 C 1644.11 -0.912944 -1.34793 0
M  V30 18011 O 1645.3 -1.19079 -1.32975 0
M  V30 18012 C 1642.4 -2.33309 -2.45805 0
M  V30 18013 C 1641.58 -3.64551 -2.41704 0
M  V30 18014 C 1640.64 -3.84845 -3.5886 0
M  V30 18015 O 1639.66 -4.56392 -3.40139 0
M  V30 18016 N 1640.86 -3.27451 -4.79329 0
M  V30 18017 H 1643.63 -2.90422 -0.739938 0
M  V30 18018 H 1641.19 -1.59846 -0.257093 0
M  V30 18019 H 1643.18 -2.44056 -3.22829 0
M  V30 18020 H 1641.75 -1.49408 -2.74583 0
M  V30 18021 H 1640.97 -3.64528 -1.50043 0
M  V30 18022 H 1642.26 -4.50721 -2.36068 0
M  V30 18023 H 1641.66 -2.69384 -4.97442 0
M  V30 18024 H 1640.21 -3.43641 -5.53854 0
M  V30 18025 N 1643.65 0.339955 -1.5389 0
M  V30 18026 C 1644.61 1.40058 -1.81429 0
M  V30 18027 C 1645.61 1.45458 -0.685463 0
M  V30 18028 O 1646.8 1.45771 -0.953754 0
M  V30 18029 C 1643.93 2.78952 -1.95955 0
M  V30 18030 H 1645.13 1.16902 -2.76178 0
M  V30 18031 H 1642.68 0.574543 -1.45357 0
M  V30 18032 H 1643.41 3.07387 -1.03361 0
M  V30 18033 H 1643.2 2.76429 -2.78082 0
M  V30 18034 H 1644.69 3.55713 -2.18765 0
M  V30 18035 N 1645.13 1.45684 0.601159 0
M  V30 18036 C 1646.54 1.30232 0.922598 0
M  V30 18037 C 1646.74 0.260086 1.99814 0
M  V30 18038 O 1645.8 -0.343753 2.50149 0
M  V30 18039 C 1647.11 2.68318 1.35743 0
M  V30 18040 C 1648.66 2.76264 1.47129 0
M  V30 18041 C 1649.13 4.1489 1.93986 0
M  V30 18042 N 1650.62 4.17216 2.01209 0
M  V30 18043 C 1651.36 5.21354 2.387 0
M  V30 18044 N 1650.86 6.35833 2.75114 0
M  V30 18045 N 1652.65 5.08714 2.39095 0
M  V30 18046 H 1644.8 2.12117 -0.109634 0
M  V30 18047 H 1647.06 0.947902 0.0136129 0
M  V30 18048 H 1646.77 3.45804 0.64127 0
M  V30 18049 H 1646.64 2.97206 2.32268 0
M  V30 18050 H 1649.03 1.99077 2.17835 0
M  V30 18051 H 1649.11 2.51082 0.489028 0
M  V30 18052 H 1648.75 4.92565 1.23864 0
M  V30 18053 H 1648.68 4.37468 2.93137 0
M  V30 18054 H 1651.18 3.34607 1.75632 0
M  V30 18055 H 1651.49 7.11084 3.02622 0
M  V30 18056 H 1649.83 6.39224 2.72795 0
M  V30 18057 H 1653.02 4.18322 2.10057 0
M  V30 18058 H 1653.2 5.89989 2.67987 0
M  V30 18059 N 1646.6 -0.84422 1.33082 0
M  V30 18060 C 1647.85 -1.59404 1.23585 0
M  V30 18061 C 1648.17 -1.94593 -0.198208 0
M  V30 18062 O 1649.37 -2.68307 -0.415138 0
M  V30 18063 C 1647.83 -2.87489 2.16513 0
M  V30 18064 C 1647.44 -2.59685 3.65059 0
M  V30 18065 C 1649.18 -3.6551 2.15877 0
M  V30 18066 C 1647.09 -3.83834 4.49917 0
M  V30 18067 H 1646.02 -0.598191 0.459003 0
M  V30 18068 H 1648.67 -0.931299 1.58111 0
M  V30 18069 H 1647.05 -3.55276 1.74913 0
M  V30 18070 H 1648.22 -2.00143 4.15065 0
M  V30 18071 H 1646.54 -1.94977 3.6793 0
M  V30 18072 H 1649.14 -4.57654 2.76509 0
M  V30 18073 H 1649.48 -4.00031 1.15244 0
M  V30 18074 H 1650.01 -3.0464 2.55811 0
M  V30 18075 H 1646.75 -3.54448 5.51404 0
M  V30 18076 H 1646.27 -4.42734 4.04656 0
M  V30 18077 H 1647.95 -4.51468 4.63449 0
M  V30 18078 N 1648.08 -1.16463 -1.0618 0
M  V30 18079 C 1648.99 -0.886601 -2.17202 0
M  V30 18080 C 1650.01 0.141568 -1.73423 0
M  V30 18081 O 1651.18 -0.0353417 -2.01369 0
M  V30 18082 C 1648.25 -0.392829 -3.44467 0
M  V30 18083 C 1647.31 -1.48636 -4.02748 0
M  V30 18084 C 1646.54 -1.01606 -5.23939 0
M  V30 18085 O 1646.77 0.133753 -5.70243 0
M  V30 18086 O 1645.7 -1.80487 -5.74202 0
M  V30 18087 H 1649.53 -1.81502 -2.43497 0
M  V30 18088 H 1647.11 -0.944691 -1.15741 0
M  V30 18089 H 1648.99 -0.124501 -4.21216 0
M  V30 18090 H 1647.67 0.507566 -3.19696 0
M  V30 18091 H 1646.57 -1.80845 -3.27484 0
M  V30 18092 H 1647.91 -2.3621 -4.31817 0
M  V30 18093 N 1649.56 1.24734 -0.963288 0
M  V30 18094 C 1650.47 2.29268 -0.497316 0
M  V30 18095 C 1651.49 1.68356 0.439572 0
M  V30 18096 O 1652.66 1.98942 0.313697 0
M  V30 18097 C 1649.73 3.46068 0.209261 0
M  V30 18098 C 1648.79 4.22394 -0.766907 0
M  V30 18099 C 1648.02 5.33617 -0.0939542 0
M  V30 18100 O 1648.24 5.59323 1.11864 0
M  V30 18101 O 1647.18 5.96774 -0.78388 0
M  V30 18102 H 1651 2.71235 -1.36622 0
M  V30 18103 H 1648.59 1.30344 -0.730126 0
M  V30 18104 H 1650.47 4.17015 0.606367 0
M  V30 18105 H 1649.15 3.06087 1.0532 0
M  V30 18106 H 1648.05 3.53841 -1.21439 0
M  V30 18107 H 1649.39 4.66181 -1.57912 0
M  V30 18108 N 1651.04 0.732878 1.39523 0
M  V30 18109 C 1651.97 0.106583 2.33257 0
M  V30 18110 C 1652.95 -0.726582 1.53801 0
M  V30 18111 O 1654.13 -0.671994 1.82203 0
M  V30 18112 C 1651.26 -0.803051 3.37888 0
M  V30 18113 C 1650.22 -0.0742048 4.27936 0
M  V30 18114 C 1649.54 -1.10071 5.23248 0
M  V30 18115 C 1650.84 1.08195 5.10971 0
M  V30 18116 H 1652.54 0.889539 2.8588 0
M  V30 18117 H 1650.08 0.429209 1.37455 0
M  V30 18118 H 1652.04 -1.25071 4.02412 0
M  V30 18119 H 1650.76 -1.6181 2.83699 0
M  V30 18120 H 1649.42 0.35381 3.64889 0
M  V30 18121 H 1649.07 -1.90927 4.65356 0
M  V30 18122 H 1648.77 -0.617825 5.84343 0
M  V30 18123 H 1650.29 -1.54812 5.90649 0
M  V30 18124 H 1651.71 0.712835 5.68851 0
M  V30 18125 H 1650.1 1.49433 5.81197 0
M  V30 18126 H 1651.17 1.90463 4.45928 0
M  V30 18127 N 1652.52 -1.50101 0.480349 0
M  V30 18128 C 1653.43 -2.32488 -0.31408 0
M  V30 18129 C 1654.44 -1.43285 -0.987186 0
M  V30 18130 O 1655.62 -1.7633 -0.973123 0
M  V30 18131 C 1652.68 -3.18203 -1.37651 0
M  V30 18132 C 1651.74 -4.23236 -0.71903 0
M  V30 18133 C 1650.98 -5.04854 -1.73084 0
M  V30 18134 O 1651.2 -4.87681 -2.95843 0
M  V30 18135 O 1650.13 -5.87748 -1.29755 0
M  V30 18136 H 1653.96 -3.01562 0.3597 0
M  V30 18137 H 1651.54 -1.47427 0.242029 0
M  V30 18138 H 1653.43 -3.71362 -1.9917 0
M  V30 18139 H 1652.1 -2.51846 -2.0336 0
M  V30 18140 H 1651.01 -3.74044 -0.0646492 0
M  V30 18141 H 1652.34 -4.92089 -0.104743 0
M  V30 18142 N 1653.99 -0.213323 -1.5615 0
M  V30 18143 C 1654.9 0.711703 -2.23544 0
M  V30 18144 C 1655.92 1.22027 -1.24038 0
M  V30 18145 O 1657.1 1.26361 -1.56828 0
M  V30 18146 C 1654.16 1.90645 -2.89578 0
M  V30 18147 C 1653.22 1.44066 -4.04405 0
M  V30 18148 C 1652.45 2.57846 -4.6728 0
M  V30 18149 O 1652.68 3.75781 -4.29121 0
M  V30 18150 O 1651.61 2.29518 -5.56422 0
M  V30 18151 H 1655.44 0.167635 -3.03237 0
M  V30 18152 H 1653.02 0.016771 -1.49391 0
M  V30 18153 H 1654.9 2.60435 -3.31288 0
M  V30 18154 H 1653.58 2.43877 -2.12851 0
M  V30 18155 H 1652.49 0.711024 -3.67281 0
M  V30 18156 H 1653.82 0.954809 -4.8285 0
M  V30 18157 N 1655.47 1.57485 0.0601405 0
M  V30 18158 C 1656.38 2.07853 1.08785 0
M  V30 18159 C 1657.4 1.01047 1.41653 0
M  V30 18160 O 1658.57 1.32592 1.51596 0
M  V30 18161 C 1655.64 2.52214 2.37885 0
M  V30 18162 C 1654.7 3.73369 2.11882 0
M  V30 18163 C 1653.93 4.15604 3.34827 0
M  V30 18164 O 1654.16 3.5761 4.44377 0
M  V30 18165 O 1653.09 5.08303 3.22353 0
M  V30 18166 H 1656.92 2.9576 0.689912 0
M  V30 18167 H 1654.5 1.46846 0.275065 0
M  V30 18168 H 1656.38 2.81216 3.1384 0
M  V30 18169 H 1655.06 1.67432 2.77035 0
M  V30 18170 H 1653.97 3.49433 1.33594 0
M  V30 18171 H 1655.3 4.59039 1.77606 0
M  V30 18172 N 1656.95 -0.331789 1.54068 0
M  V30 18173 C 1657.88 -1.41332 1.8587 0
M  V30 18174 C 1658.86 -1.54353 0.714787 0
M  V30 18175 O 1660.05 -1.68368 0.967777 0
M  V30 18176 C 1657.18 -2.78218 2.07875 0
M  V30 18177 C 1656.13 -2.79994 3.23709 0
M  V30 18178 C 1655.46 -4.19878 3.31069 0
M  V30 18179 C 1656.76 -2.44476 4.6155 0
M  V30 18180 H 1658.45 -1.14966 2.76447 0
M  V30 18181 H 1656 -0.551615 1.33016 0
M  V30 18182 H 1657.95 -3.53937 2.28706 0
M  V30 18183 H 1656.67 -3.06044 1.14038 0
M  V30 18184 H 1655.33 -2.0673 3.02751 0
M  V30 18185 H 1654.98 -4.44831 2.34807 0
M  V30 18186 H 1654.68 -4.21974 4.08915 0
M  V30 18187 H 1656.2 -4.97421 3.54125 0
M  V30 18188 H 1657.62 -3.09908 4.82317 0
M  V30 18189 H 1656.02 -2.57837 5.41886 0
M  V30 18190 H 1657.09 -1.3964 4.64358 0
M  V30 18191 N 1658.43 -1.46001 -0.593424 0
M  V30 18192 C 1659.34 -1.58316 -1.73128 0
M  V30 18193 C 1660.35 -0.467029 -1.67615 0
M  V30 18194 O 1661.53 -0.729682 -1.87717 0
M  V30 18195 C 1658.6 -1.56007 -3.09617 0
M  V30 18196 C 1657.66 -2.78769 -3.26475 0
M  V30 18197 C 1656.89 -2.76561 -4.56453 0
M  V30 18198 O 1657.11 -1.84694 -5.39671 0
M  V30 18199 O 1656.05 -3.67959 -4.76329 0
M  V30 18200 H 1659.87 -2.54522 -1.65686 0
M  V30 18201 H 1657.46 -1.28672 -0.759204 0
M  V30 18202 H 1659.34 -1.57377 -3.9091 0
M  V30 18203 H 1658.01 -0.629571 -3.17519 0
M  V30 18204 H 1656.92 -2.82956 -2.44717 0
M  V30 18205 H 1658.25 -3.70992 -3.23459 0
M  V30 18206 N 1659.91 0.83715 -1.33527 0
M  V30 18207 C 1660.87 1.92865 -1.23837 0
M  V30 18208 C 1661.87 1.60032 -0.157005 0
M  V30 18209 O 1663.06 1.69339 -0.408654 0
M  V30 18210 C 1660.19 3.28568 -0.908617 0
M  V30 18211 H 1661.38 2.02883 -2.20859 0
M  V30 18212 H 1658.94 1.02944 -1.1761 0
M  V30 18213 H 1659.67 3.24246 0.0590328 0
M  V30 18214 H 1659.46 3.53779 -1.69064 0
M  V30 18215 H 1660.95 4.0853 -0.86561 0
M  V30 18216 N 1661.38 1.17024 1.05561 0
M  V30 18217 C 1662.29 0.898107 2.16728 0
M  V30 18218 C 1663.31 -0.132369 1.73496 0
M  V30 18219 O 1664.49 0.0460203 2.01347 0
M  V30 18220 C 1661.55 0.411091 3.44254 0
M  V30 18221 C 1660.61 1.5077 4.01954 0
M  V30 18222 C 1659.85 1.04383 5.23393 0
M  V30 18223 O 1660.07 -0.10351 5.70306 0
M  V30 18224 O 1659 1.8353 5.73237 0
M  V30 18225 H 1662.83 1.82791 2.42531 0
M  V30 18226 H 1660.41 0.950816 1.15238 0
M  V30 18227 H 1662.3 0.146837 4.21144 0
M  V30 18228 H 1660.97 -0.490605 3.19961 0
M  V30 18229 H 1659.88 1.82579 3.26521 0
M  V30 18230 H 1661.21 2.38497 4.30558 0
M  V30 18231 N 1662.86 -1.24221 0.969889 0
M  V30 18232 C 1664.28 -1.4454 0.676778 0
M  V30 18233 C 1664.48 -1.86591 -0.760656 0
M  V30 18234 O 1663.53 -2.00538 -1.5343 0
M  V30 18235 C 1664.85 -2.50546 1.66274 0
M  V30 18236 C 1666.4 -2.64372 1.67561 0
M  V30 18237 C 1666.87 -3.73577 2.6496 0
M  V30 18238 N 1668.36 -3.81007 2.63416 0
M  V30 18239 C 1669.1 -4.65037 3.35452 0
M  V30 18240 N 1668.59 -5.53238 4.17013 0
M  V30 18241 N 1670.39 -4.59138 3.24266 0
M  V30 18242 H 1662.54 -0.952237 1.89858 0
M  V30 18243 H 1664.8 -0.479972 0.817515 0
M  V30 18244 H 1664.51 -2.26541 2.6902 0
M  V30 18245 H 1664.38 -3.48745 1.43724 0
M  V30 18246 H 1666.77 -2.87733 0.655247 0
M  V30 18247 H 1666.85 -1.66523 1.94174 0
M  V30 18248 H 1666.49 -3.50965 3.67132 0
M  V30 18249 H 1666.42 -4.70944 2.35626 0
M  V30 18250 H 1668.91 -3.17969 2.04216 0
M  V30 18251 H 1669.23 -6.1432 4.68861 0
M  V30 18252 H 1667.57 -5.52896 4.21107 0
M  V30 18253 H 1670.76 -3.89247 2.60008 0
M  V30 18254 H 1670.93 -5.24399 3.8067 0
M  V30 18255 N 1664.34 -0.740267 -1.39132 0
M  V30 18256 C 1665.57 -0.30093 -2.047 0
M  V30 18257 C 1665.98 1.0661 -1.5582 0
M  V30 18258 O 1665.34 1.67465 -0.725388 0
M  V30 18259 C 1665.39 -0.299574 -3.60257 0
M  V30 18260 O 1665.11 -1.61265 -4.07339 0
M  V30 18261 C 1666.61 0.155279 -4.43028 0
M  V30 18262 H 1663.83 -0.130652 -0.658157 0
M  V30 18263 H 1666.38 -1.00539 -1.78079 0
M  V30 18264 H 1664.53 0.356041 -3.8576 0
M  V30 18265 H 1664.95 -1.52977 -5.01695 0
M  V30 18266 H 1666.42 0.105068 -5.519 0
M  V30 18267 H 1666.9 1.20123 -4.22454 0
M  V30 18268 H 1667.5 -0.470965 -4.22684 0
M  V30 18269 N 1665.82 1.49844 -0.488302 0
M  V30 18270 C 1666.78 2.27412 0.285706 0
M  V30 18271 C 1667.78 1.32897 0.905261 0
M  V30 18272 O 1668.97 1.56171 0.771763 0
M  V30 18273 C 1666.1 3.10435 1.40864 0
M  V30 18274 H 1667.3 2.9729 -0.394782 0
M  V30 18275 H 1664.85 1.54401 -0.242873 0
M  V30 18276 H 1665.58 2.45094 2.12367 0
M  V30 18277 H 1665.37 3.79913 0.969991 0
M  V30 18278 H 1666.86 3.69054 1.95419 0
M  V30 18279 N 1667.3 0.221601 1.56034 0
M  V30 18280 C 1668.71 -0.133783 1.59038 0
M  V30 18281 C 1668.91 -1.58952 1.23841 0
M  V30 18282 O 1667.97 -2.32972 0.973677 0
M  V30 18283 C 1669.28 0.192549 3.00083 0
M  V30 18284 C 1670.83 0.134791 3.1271 0
M  V30 18285 C 1671.3 0.434799 4.55931 0
M  V30 18286 N 1672.8 0.384372 4.61602 0
M  V30 18287 C 1673.53 0.59 5.70357 0
M  V30 18288 N 1673.03 0.857405 6.87474 0
M  V30 18289 N 1674.82 0.522433 5.59667 0
M  V30 18290 H 1666.97 1.17124 1.77189 0
M  V30 18291 H 1669.23 0.46946 0.823597 0
M  V30 18292 H 1668.94 1.20292 3.30488 0
M  V30 18293 H 1668.81 -0.49243 3.73972 0
M  V30 18294 H 1671.2 -0.866221 2.821 0
M  V30 18295 H 1671.28 0.853247 2.4115 0
M  V30 18296 H 1670.93 1.43325 4.87258 0
M  V30 18297 H 1670.86 -0.304849 5.25717 0
M  V30 18298 H 1673.35 0.185389 3.77445 0
M  V30 18299 H 1673.66 1.00241 7.66271 0
M  V30 18300 H 1672 0.894599 6.89218 0
M  V30 18301 H 1675.2 0.313754 4.67047 0
M  V30 18302 H 1675.37 0.686094 6.44358 0
M  V30 18303 N 1668.77 -1.57515 -0.0517878 0
M  V30 18304 C 1669.74 -2.04049 -1.04387 0
M  V30 18305 C 1670.74 -0.940745 -1.30409 0
M  V30 18306 O 1671.93 -1.20505 -1.25794 0
M  V30 18307 C 1669.06 -2.43816 -2.38257 0
M  V30 18308 H 1670.25 -2.9294 -0.642367 0
M  V30 18309 H 1667.81 -1.53432 -0.29805 0
M  V30 18310 H 1668.54 -1.58013 -2.832 0
M  V30 18311 H 1668.33 -3.24086 -2.20705 0
M  V30 18312 H 1669.82 -2.80325 -3.09528 0
M  V30 18313 N 1670.25 0.323614 -1.54242 0
M  V30 18314 C 1671.2 1.39826 -1.83623 0
M  V30 18315 C 1672.17 1.51393 -0.683331 0
M  V30 18316 O 1673.36 1.66614 -0.929754 0
M  V30 18317 C 1670.5 2.76187 -2.06918 0
M  V30 18318 C 1669.61 2.73251 -3.34601 0
M  V30 18319 C 1668.74 4.01458 -3.47857 0
M  V30 18320 C 1667.78 3.9283 -4.69415 0
M  V30 18321 N 1666.92 5.12767 -4.79598 0
M  V30 18322 H 1671.76 1.1407 -2.75303 0
M  V30 18323 H 1669.3 0.552188 -1.36343 0
M  V30 18324 H 1671.25 3.55458 -2.18416 0
M  V30 18325 H 1669.88 3.00251 -1.18529 0
M  V30 18326 H 1668.94 1.85971 -3.31842 0
M  V30 18327 H 1670.25 2.62759 -4.2398 0
M  V30 18328 H 1669.4 4.89161 -3.58897 0
M  V30 18329 H 1668.14 4.14757 -2.5657 0
M  V30 18330 H 1667.15 3.03512 -4.58433 0
M  V30 18331 H 1668.37 3.81097 -5.62087 0
M  V30 18332 H 1666.32 5.26572 -3.91227 0
M  V30 18333 H 1666.23 5.0461 -5.62943 0
M  V30 18334 H 1667.5 6.02184 -4.94969 0
M  V30 18335 N 1671.73 1.46313 0.585673 0
M  V30 18336 C 1672.98 1.51694 1.34598 0
M  V30 18337 C 1673.31 0.166889 1.93482 0
M  V30 18338 O 1672.59 -0.821331 1.76308 0
M  V30 18339 C 1672.87 2.61322 2.47755 0
M  V30 18340 C 1672.72 4.05848 1.93926 0
M  V30 18341 C 1674.04 2.67058 3.49812 0
M  V30 18342 H 1671.16 0.552253 0.488043 0
M  V30 18343 H 1673.8 1.78235 0.658201 0
M  V30 18344 H 1671.95 2.38822 3.06425 0
M  V30 18345 H 1673.62 4.39626 1.39736 0
M  V30 18346 H 1671.87 4.15468 1.24775 0
M  V30 18347 H 1672.54 4.78279 2.75596 0
M  V30 18348 H 1675.01 2.87276 3.01018 0
M  V30 18349 H 1673.89 3.45589 4.2645 0
M  V30 18350 H 1674.15 1.72993 4.06849 0
M  V30 18351 N 1673.21 -0.830057 1.33969 0
M  V30 18352 C 1674.12 -1.97244 1.27012 0
M  V30 18353 C 1675.14 -1.73076 0.179075 0
M  V30 18354 O 1676.31 -1.97301 0.404262 0
M  V30 18355 C 1673.38 -3.31409 1.01827 0
M  V30 18356 C 1672.44 -3.68633 2.20018 0
M  V30 18357 C 1671.67 -4.96397 1.96025 0
M  V30 18358 O 1671.89 -5.63014 0.91494 0
M  V30 18359 O 1670.83 -5.31331 2.82791 0
M  V30 18360 H 1674.65 -2.06056 2.23103 0
M  V30 18361 H 1672.24 -0.964399 1.14104 0
M  V30 18362 H 1674.12 -4.11779 0.895337 0
M  V30 18363 H 1672.8 -3.23581 0.0877091 0
M  V30 18364 H 1671.7 -2.88738 2.37869 0
M  V30 18365 H 1673.04 -3.81138 3.11439 0
M  V30 18366 N 1674.69 -1.17582 -1.04939 0
M  V30 18367 C 1675.63 -0.894855 -2.12746 0
M  V30 18368 C 1676.6 0.162261 -1.65306 0
M  V30 18369 O 1677.79 0.0245068 -1.90784 0
M  V30 18370 C 1674.93 -0.417085 -3.4257 0
M  V30 18371 C 1674.04 -1.53861 -4.03672 0
M  V30 18372 C 1673.18 -1.01446 -5.21423 0
M  V30 18373 C 1672.22 -2.11127 -5.74536 0
M  V30 18374 N 1671.35 -1.60169 -6.83586 0
M  V30 18375 H 1676.19 -1.81802 -2.36118 0
M  V30 18376 H 1673.73 -0.906716 -1.15832 0
M  V30 18377 H 1675.69 -0.121619 -4.17023 0
M  V30 18378 H 1674.32 0.469119 -3.19373 0
M  V30 18379 H 1673.37 -1.94975 -3.26633 0
M  V30 18380 H 1674.68 -2.36575 -4.39128 0
M  V30 18381 H 1673.84 -0.672992 -6.02956 0
M  V30 18382 H 1672.58 -0.156795 -4.87448 0
M  V30 18383 H 1671.58 -2.46128 -4.91631 0
M  V30 18384 H 1672.81 -2.97313 -6.10559 0
M  V30 18385 H 1670.75 -0.766783 -6.51503 0
M  V30 18386 H 1670.67 -2.36488 -7.18059 0
M  V30 18387 H 1671.94 -1.28923 -7.68765 0
M  V30 18388 N 1676.17 1.23705 -0.976463 0
M  V30 18389 C 1677.1 2.2734 -0.532809 0
M  V30 18390 C 1678.08 1.64523 0.432012 0
M  V30 18391 O 1679.26 1.9144 0.326233 0
M  V30 18392 C 1676.39 3.46887 0.169374 0
M  V30 18393 C 1675.35 4.22031 -0.712336 0
M  V30 18394 C 1674.67 5.34561 0.121838 0
M  V30 18395 C 1675.97 4.8244 -2.00123 0
M  V30 18396 H 1677.67 2.64702 -1.39904 0
M  V30 18397 H 1675.21 1.27244 -0.674156 0
M  V30 18398 H 1677.16 4.18529 0.491028 0
M  V30 18399 H 1675.89 3.08574 1.07002 0
M  V30 18400 H 1674.55 3.522 -1.01739 0
M  V30 18401 H 1674.2 4.92489 1.0229 0
M  V30 18402 H 1673.9 5.85758 -0.464962 0
M  V30 18403 H 1675.42 6.09027 0.437963 0
M  V30 18404 H 1676.83 5.46111 -1.7446 0
M  V30 18405 H 1675.23 5.43906 -2.53548 0
M  V30 18406 H 1676.3 4.03405 -2.69059 0
M  V30 18407 N 1677.64 0.747635 1.38738 0
M  V30 18408 C 1679.06 0.424577 1.53849 0
M  V30 18409 C 1679.26 -1.06304 1.71177 0
M  V30 18410 O 1678.32 -1.84912 1.71941 0
M  V30 18411 C 1679.63 1.21863 2.749 0
M  V30 18412 C 1681.18 1.20811 2.88745 0
M  V30 18413 C 1681.65 1.985 4.12749 0
M  V30 18414 N 1683.14 1.9573 4.19814 0
M  V30 18415 C 1683.88 2.52641 5.14743 0
M  V30 18416 N 1683.37 3.18241 6.15382 0
M  V30 18417 N 1685.17 2.42604 5.0705 0
M  V30 18418 H 1677.32 1.71182 1.25739 0
M  V30 18419 H 1679.58 0.725358 0.610376 0
M  V30 18420 H 1679.29 2.27181 2.6848 0
M  V30 18421 H 1679.16 0.831509 3.67921 0
M  V30 18422 H 1681.55 0.163013 2.94649 0
M  V30 18423 H 1681.63 1.6347 1.96752 0
M  V30 18424 H 1681.27 3.03017 4.07606 0
M  V30 18425 H 1681.2 1.53239 5.03811 0
M  V30 18426 H 1683.69 1.4795 3.47734 0
M  V30 18427 H 1684.01 3.59101 6.843 0
M  V30 18428 H 1682.35 3.22334 6.15732 0
M  V30 18429 H 1685.54 1.90987 4.27366 0
M  V30 18430 H 1685.72 2.87253 5.80852 0
M  V30 18431 N 1679.12 -1.49583 0.496242 0
M  V30 18432 C 1680.35 -2.07342 -0.0490986 0
M  V30 18433 C 1680.77 -1.35474 -1.30493 0
M  V30 18434 O 1680.13 -0.410005 -1.76603 0
M  V30 18435 C 1680.18 -3.59427 -0.290601 0
M  V30 18436 O 1679.28 -3.89111 -1.36626 0
M  V30 18437 H 1678.62 -0.663562 0.0241141 0
M  V30 18438 H 1681.15 -1.92452 0.6945 0
M  V30 18439 H 1681.16 -4.04627 -0.523549 0
M  V30 18440 H 1679.84 -4.11147 0.626959 0
M  V30 18441 H 1678.41 -3.55726 -1.11864 0
M  V30 18442 N 1680.6 -0.229873 -1.55915 0
M  V30 18443 C 1681.88 0.449007 -1.90377 0
M  V30 18444 C 1682.26 1.77133 -1.14835 0
M  V30 18445 O 1681.6 2.27012 -0.260328 0
M  V30 18446 C 1681.81 0.633805 -3.43197 0
M  V30 18447 C 1683.16 0.937453 -4.14122 0
M  V30 18448 O 1684.19 0.72029 -3.48841 0
M  V30 18449 O 1683.05 1.35005 -5.29562 0
M  V30 18450 H 1680.14 0.238557 -0.791846 0
M  V30 18451 H 1682.69 -0.272676 -1.67495 0
M  V30 18452 H 1681.46 -0.298587 -3.90159 0
M  V30 18453 H 1681.08 1.40667 -3.71885 0
M  V30 18454 N 1682.08 1.5754 0.0434337 0
M  V30 18455 C 1683.01 2.08648 1.04824 0
M  V30 18456 C 1683.99 0.985894 1.38615 0
M  V30 18457 O 1685.17 1.2603 1.4775 0
M  V30 18458 C 1682.3 2.55399 2.35348 0
M  V30 18459 C 1681.26 3.69592 2.15837 0
M  V30 18460 C 1680.58 4.02497 3.51995 0
M  V30 18461 C 1681.88 4.98575 1.55629 0
M  V30 18462 H 1683.58 2.9285 0.622849 0
M  V30 18463 H 1681.12 1.40879 0.298158 0
M  V30 18464 H 1683.08 2.89771 3.05958 0
M  V30 18465 H 1681.8 1.68262 2.7992 0
M  V30 18466 H 1680.46 3.35546 1.47663 0
M  V30 18467 H 1680.11 3.12448 3.94189 0
M  V30 18468 H 1679.81 4.79406 3.39771 0
M  V30 18469 H 1681.33 4.39391 4.23991 0
M  V30 18470 H 1682.75 5.30996 2.16138 0
M  V30 18471 H 1681.14 5.79998 1.54021 0
M  V30 18472 H 1682.21 4.82098 0.520567 0
M  V30 18473 N 1683.56 -0.31543 1.54411 0
M  V30 18474 C 1684.78 -1.0761 1.77299 0
M  V30 18475 C 1685.21 -1.80655 0.523963 0
M  V30 18476 O 1684.56 -1.73536 -0.524874 0
M  V30 18477 C 1684.61 -2.04355 2.97105 0
M  V30 18478 O 1683.72 -3.12401 2.69219 0
M  V30 18479 H 1683.06 -0.30986 0.587267 0
M  V30 18480 H 1685.59 -0.357246 2.01457 0
M  V30 18481 H 1685.6 -2.47081 3.24677 0
M  V30 18482 H 1684.27 -1.50592 3.87679 0
M  V30 18483 H 1682.85 -2.74294 2.52621 0
M  V30 18484 N 1685.03 -1.46622 -0.577906 0
M  V30 18485 C 1686.45 -1.31683 -0.901762 0
M  V30 18486 C 1686.65 -0.291842 -1.99375 0
M  V30 18487 O 1685.71 0.303913 -2.50664 0
M  V30 18488 C 1687.02 -2.70443 -1.31457 0
M  V30 18489 C 1688.57 -2.7857 -1.42715 0
M  V30 18490 C 1689.04 -4.17923 -1.87361 0
M  V30 18491 N 1690.53 -4.20364 -1.94546 0
M  V30 18492 C 1691.27 -5.25085 -2.30376 0
M  V30 18493 N 1690.76 -6.4013 -2.64964 0
M  V30 18494 N 1692.56 -5.12453 -2.30972 0
M  V30 18495 H 1684.71 -2.11916 0.143367 0
M  V30 18496 H 1686.97 -0.947999 0.00146914 0
M  V30 18497 H 1686.68 -3.46781 -0.586174 0
M  V30 18498 H 1686.55 -3.00864 -2.2751 0
M  V30 18499 H 1688.94 -2.02518 -2.14641 0
M  V30 18500 H 1689.02 -2.51828 -0.449021 0
M  V30 18501 H 1688.66 -4.94473 -1.16012 0
M  V30 18502 H 1688.59 -4.42076 -2.8614 0
M  V30 18503 H 1691.08 -3.37359 -1.70286 0
M  V30 18504 H 1691.4 -7.15808 -2.91271 0
M  V30 18505 H 1689.74 -6.43483 -2.62591 0
M  V30 18506 H 1692.93 -4.21611 -2.03376 0
M  V30 18507 H 1693.11 -5.94178 -2.58566 0
M  V30 18508 N 1686.51 0.822941 -1.34408 0
M  V30 18509 C 1687.42 1.96567 -1.28056 0
M  V30 18510 C 1688.44 1.72979 -0.188251 0
M  V30 18511 O 1689.61 1.97084 -0.41472 0
M  V30 18512 C 1686.68 3.30865 -1.03583 0
M  V30 18513 C 1685.74 3.67461 -2.2197 0
M  V30 18514 C 1684.97 4.9535 -1.98655 0
M  V30 18515 O 1685.2 5.62521 -0.944785 0
M  V30 18516 O 1684.13 5.29824 -2.85605 0
M  V30 18517 H 1687.96 2.0487 -2.24192 0
M  V30 18518 H 1685.54 0.958334 -1.14614 0
M  V30 18519 H 1687.42 4.11298 -0.917162 0
M  V30 18520 H 1686.1 3.2353 -0.104868 0
M  V30 18521 H 1685.01 2.87472 -2.39396 0
M  V30 18522 H 1686.34 3.79481 -3.13456 0
M  V30 18523 N 1687.99 1.18137 1.04314 0
M  V30 18524 C 1688.92 0.929593 2.14198 0
M  V30 18525 C 1689.9 -0.131766 1.69589 0
M  V30 18526 O 1691.09 0.0203104 1.94189 0
M  V30 18527 C 1688.22 0.451799 3.44349 0
M  V30 18528 C 1687.17 1.45336 4.02569 0
M  V30 18529 C 1686.5 0.833176 5.28169 0
M  V30 18530 C 1687.8 2.8293 4.39031 0
M  V30 18531 H 1689.49 1.84856 2.35518 0
M  V30 18532 H 1687.04 0.890217 1.13186 0
M  V30 18533 H 1688.99 0.26303 4.20578 0
M  V30 18534 H 1687.71 -0.502725 3.22708 0
M  V30 18535 H 1686.37 1.62902 3.28418 0
M  V30 18536 H 1686.02 -0.128459 5.02836 0
M  V30 18537 H 1685.72 1.50185 5.68083 0
M  V30 18538 H 1687.24 0.654881 6.07078 0
M  V30 18539 H 1688.66 2.6903 5.06257 0
M  V30 18540 H 1687.06 3.46458 4.89987 0
M  V30 18541 H 1688.13 3.3667 3.48972 0
M  V30 18542 N 1689.47 -1.23186 0.98301 0
M  V30 18543 C 1690.38 -2.28448 0.533727 0
M  V30 18544 C 1691.39 -1.69034 -0.412732 0
M  V30 18545 O 1692.57 -1.99416 -0.282007 0
M  V30 18546 C 1689.64 -3.46357 -0.154179 0
M  V30 18547 C 1688.7 -4.21121 0.834009 0
M  V30 18548 C 1687.93 -5.334 0.178836 0
M  V30 18549 O 1688.15 -5.61032 -1.02952 0
M  V30 18550 O 1687.09 -5.95451 0.878722 0
M  V30 18551 H 1690.91 -2.69027 1.40919 0
M  V30 18552 H 1688.5 -1.29166 0.75077 0
M  V30 18553 H 1690.38 -4.17926 -0.539947 0
M  V30 18554 H 1689.05 -3.07724 -1.00437 0
M  V30 18555 H 1687.96 -3.51864 1.27053 0
M  V30 18556 H 1689.29 -4.6361 1.65309 0
M  V30 18557 N 1690.95 -0.754982 -1.38339 0
M  V30 18558 C 1691.86 -0.130303 -2.34238 0
M  V30 18559 C 1692.87 0.699048 -1.5934 0
M  V30 18560 O 1694.05 0.622876 -1.91526 0
M  V30 18561 C 1691.11 0.751285 -3.38462 0
M  V30 18562 C 1690.17 -0.0925987 -4.292 0
M  V30 18563 C 1689.41 0.747007 -5.28446 0
M  V30 18564 O 1689.63 1.98495 -5.34749 0
M  V30 18565 O 1688.56 0.165072 -6.01674 0
M  V30 18566 H 1692.39 -0.92233 -2.89356 0
M  V30 18567 H 1689.98 -0.515896 -1.4021 0
M  V30 18568 H 1691.86 1.2551 -4.02275 0
M  V30 18569 H 1690.53 1.52178 -2.85698 0
M  V30 18570 H 1689.44 -0.64239 -3.68543 0
M  V30 18571 H 1690.77 -0.825784 -4.85223 0
M  V30 18572 N 1692.42 1.49318 -0.504168 0
M  V30 18573 C 1693.67 2.01658 0.0410881 0
M  V30 18574 C 1693.99 1.38866 1.37752 0
M  V30 18575 O 1695.19 1.82552 2.00965 0
M  V30 18576 C 1693.65 3.59687 0.123682 0
M  V30 18577 C 1693.26 4.31454 -1.2063 0
M  V30 18578 C 1695 4.19961 0.619134 0
M  V30 18579 C 1692.91 5.81349 -1.0857 0
M  V30 18580 H 1691.84 0.753757 0.0191287 0
M  V30 18581 H 1694.49 1.71826 -0.644066 0
M  V30 18582 H 1692.87 3.86249 0.873355 0
M  V30 18583 H 1694.04 4.1659 -1.96951 0
M  V30 18584 H 1692.36 3.82939 -1.63544 0
M  V30 18585 H 1694.96 5.29736 0.726925 0
M  V30 18586 H 1695.3 3.83539 1.61874 0
M  V30 18587 H 1695.83 3.97731 -0.0740966 0
M  V30 18588 H 1692.57 6.22301 -2.05967 0
M  V30 18589 H 1692.09 5.98698 -0.363422 0
M  V30 18590 H 1693.77 6.42453 -0.765722 0
M  V30 18591 N 1693.9 0.238138 1.5579 0
M  V30 18592 C 1695.13 -0.396409 2.03576 0
M  V30 18593 C 1695.55 -1.5138 1.11649 0
M  V30 18594 O 1694.91 -1.80979 0.107774 0
M  V30 18595 C 1694.96 -0.889749 3.49451 0
M  V30 18596 O 1694.06 -1.99997 3.60659 0
M  V30 18597 H 1693.4 -0.0876017 0.658196 0
M  V30 18598 H 1695.93 0.361632 2.01379 0
M  V30 18599 H 1695.94 -1.19526 3.901 0
M  V30 18600 H 1694.62 -0.0720136 4.15838 0
M  V30 18601 H 1693.2 -1.69983 3.31904 0
M  V30 18602 N 1695.38 -1.57561 -0.0350783 0
M  V30 18603 C 1696.29 -2.09558 -1.05464 0
M  V30 18604 C 1697.31 -1.03288 -1.40027 0
M  V30 18605 O 1698.48 -1.34987 -1.49467 0
M  V30 18606 C 1695.55 -2.55966 -2.33842 0
M  V30 18607 C 1694.61 -3.76693 -2.05915 0
M  V30 18608 C 1693.84 -4.20878 -3.28172 0
M  V30 18609 O 1694.06 -3.64634 -4.38632 0
M  V30 18610 O 1693 -5.13367 -3.14225 0
M  V30 18611 H 1696.82 -2.9682 -0.642771 0
M  V30 18612 H 1694.41 -1.47265 -0.251668 0
M  V30 18613 H 1696.29 -2.86173 -3.09327 0
M  V30 18614 H 1694.97 -1.71818 -2.74336 0
M  V30 18615 H 1693.87 -3.51514 -1.28018 0
M  V30 18616 H 1695.21 -4.61807 -1.70281 0
M  V30 18617 N 1696.86 0.307236 -1.54576 0
M  V30 18618 C 1698.27 0.652539 -1.45651 0
M  V30 18619 C 1698.47 1.90978 -0.64263 0
M  V30 18620 O 1697.53 2.52067 -0.147863 0
M  V30 18621 C 1698.84 0.811341 -2.89547 0
M  V30 18622 C 1700.39 0.90763 -2.99551 0
M  V30 18623 C 1700.87 1.09848 -4.44632 0
M  V30 18624 N 1702.36 1.16483 -4.48315 0
M  V30 18625 C 1703.09 1.33068 -5.57746 0
M  V30 18626 N 1702.59 1.46591 -6.77114 0
M  V30 18627 N 1704.38 1.35906 -5.45423 0
M  V30 18628 H 1696.53 -0.518891 -2.05964 0
M  V30 18629 H 1698.8 -0.170463 -0.932548 0
M  V30 18630 H 1698.5 -0.0414879 -3.51676 0
M  V30 18631 H 1698.38 1.70224 -3.36606 0
M  V30 18632 H 1700.76 1.75095 -2.37541 0
M  V30 18633 H 1700.84 -0.00715386 -2.55799 0
M  V30 18634 H 1700.49 0.259948 -5.07234 0
M  V30 18635 H 1700.42 2.02739 -4.86009 0
M  V30 18636 H 1702.91 1.07411 -3.62314 0
M  V30 18637 H 1703.22 1.58983 -7.5627 0
M  V30 18638 H 1701.57 1.43658 -6.79991 0
M  V30 18639 H 1704.76 1.24949 -4.51116 0
M  V30 18640 H 1704.93 1.48489 -6.30758 0
M  V30 18641 N 1698.34 1.46926 0.570122 0
M  V30 18642 C 1699.27 1.61311 1.68822 0
M  V30 18643 C 1700.25 0.462964 1.63678 0
M  V30 18644 O 1701.43 0.690745 1.815 0
M  V30 18645 C 1698.56 1.61499 3.07466 0
M  V30 18646 C 1697.52 2.7561 3.27449 0
M  V30 18647 C 1696.84 2.60865 4.66748 0
M  V30 18648 C 1698.14 4.17324 3.14067 0
M  V30 18649 H 1699.84 2.54909 1.5704 0
M  V30 18650 H 1697.38 1.22677 0.754077 0
M  V30 18651 H 1699.34 1.70155 3.8552 0
M  V30 18652 H 1698.06 0.64453 3.20177 0
M  V30 18653 H 1696.72 2.66444 2.51799 0
M  V30 18654 H 1696.37 1.61875 4.76241 0
M  V30 18655 H 1696.07 3.37411 4.81069 0
M  V30 18656 H 1697.59 2.7143 5.46954 0
M  V30 18657 H 1699 4.27534 3.81952 0
M  V30 18658 H 1697.4 4.94555 3.39905 0
M  V30 18659 H 1698.47 4.36596 2.10979 0
M  V30 18660 N 1699.82 -0.815801 1.34842 0
M  V30 18661 C 1700.73 -1.95886 1.29097 0
M  V30 18662 C 1701.74 -1.72876 0.197422 0
M  V30 18663 O 1702.92 -1.96861 0.425166 0
M  V30 18664 C 1699.98 -3.30311 1.05336 0
M  V30 18665 C 1699.04 -3.66279 2.23916 0
M  V30 18666 C 1698.28 -4.9429 2.01279 0
M  V30 18667 O 1698.5 -5.62012 0.974603 0
M  V30 18668 O 1697.43 -5.28302 2.88411 0
M  V30 18669 H 1701.26 -2.03678 2.25276 0
M  V30 18670 H 1698.84 -0.952243 1.1512 0
M  V30 18671 H 1700.73 -4.10806 0.938961 0
M  V30 18672 H 1699.4 -3.2347 0.122024 0
M  V30 18673 H 1698.31 -2.86198 2.40918 0
M  V30 18674 H 1699.64 -3.77814 3.15464 0
M  V30 18675 N 1701.29 -1.18689 -1.03686 0
M  V30 18676 C 1702.2 -0.932473 -2.15272 0
M  V30 18677 C 1703.22 0.104751 -1.73684 0
M  V30 18678 O 1704.4 -0.0780471 -2.01249 0
M  V30 18679 C 1701.46 -0.465807 -3.43557 0
M  V30 18680 C 1700.52 -1.57146 -3.99504 0
M  V30 18681 C 1699.75 -1.12696 -5.21666 0
M  V30 18682 O 1699.98 0.0127657 -5.70399 0
M  V30 18683 O 1698.91 -1.92627 -5.70244 0
M  V30 18684 H 1702.74 -1.86626 -2.39592 0
M  V30 18685 H 1700.32 -0.969029 -1.13711 0
M  V30 18686 H 1702.2 -0.213819 -4.20857 0
M  V30 18687 H 1700.88 0.43964 -3.20701 0
M  V30 18688 H 1699.79 -1.8775 -3.23575 0
M  V30 18689 H 1701.12 -2.45317 -4.26709 0
M  V30 18690 N 1702.77 1.22662 -0.989529 0
M  V30 18691 C 1703.73 2.22695 -0.542183 0
M  V30 18692 C 1704.73 1.56411 0.373132 0
M  V30 18693 O 1705.92 1.73412 0.165556 0
M  V30 18694 C 1703.06 3.40241 0.211841 0
M  V30 18695 H 1704.25 2.63786 -1.42678 0
M  V30 18696 H 1701.8 1.35654 -0.776377 0
M  V30 18697 H 1702.54 3.04618 1.11257 0
M  V30 18698 H 1702.32 3.89563 -0.445319 0
M  V30 18699 H 1703.81 4.14436 0.513107 0
M  V30 18700 N 1704.25 0.762308 1.37937 0
M  V30 18701 C 1705.5 0.321732 1.99523 0
M  V30 18702 C 1705.82 -1.10286 1.60816 0
M  V30 18703 O 1705.09 -1.75565 0.869117 0
M  V30 18704 H 1703.67 0.115967 0.737943 0
M  V30 18705 H 1706.33 0.978339 1.68566 0
M  V30 18706 H 1705.43 0.391818 3.09631 0
M  V30 18707 N 1705.73 -1.49049 0.51208 0
M  V30 18708 C 1706.98 -2.0208 -0.0284326 0
M  V30 18709 C 1707.3 -1.39303 -1.36454 0
M  V30 18710 O 1706.57 -0.552155 -1.87958 0
M  V30 18711 H 1705.15 -0.746878 -0.0134968 0
M  V30 18712 H 1707.81 -1.82954 0.671842 0
M  V30 18713 H 1706.9 -3.11739 -0.149966 0
M  V30 18714 N 1707.21 -0.246397 -1.55662 0
M  V30 18715 C 1708.17 0.640041 -2.20082 0
M  V30 18716 C 1709.17 1.10313 -1.16994 0
M  V30 18717 O 1710.36 1.00792 -1.42079 0
M  V30 18718 C 1707.49 1.87964 -2.84398 0
M  V30 18719 H 1708.68 0.0780034 -2.99799 0
M  V30 18720 H 1706.24 0.00314588 -1.563 0
M  V30 18721 H 1706.97 2.48292 -2.08618 0
M  V30 18722 H 1706.76 1.5558 -3.59913 0
M  V30 18723 H 1708.25 2.51065 -3.33701 0
M  V30 18724 N 1708.68 1.57577 0.026722 0
M  V30 18725 C 1709.91 1.9364 0.728771 0
M  V30 18726 C 1710.33 0.846352 1.68767 0
M  V30 18727 O 1709.68 -0.177038 1.81639 0
M  V30 18728 C 1709.73 3.29644 1.48381 0
M  V30 18729 O 1709.46 4.34462 0.563393 0
M  V30 18730 C 1710.96 3.80004 2.2828 0
M  V30 18731 H 1708.18 0.639025 0.204666 0
M  V30 18732 H 1710.72 2.04493 -0.016449 0
M  V30 18733 H 1708.88 3.20181 2.18089 0
M  V30 18734 H 1709.29 5.12982 1.09315 0
M  V30 18735 H 1710.76 4.77671 2.76649 0
M  V30 18736 H 1711.24 3.11319 3.09802 0
M  V30 18737 H 1711.85 3.92558 1.63642 0
M  V30 18738 N 1710.16 -0.299034 1.54737 0
M  V30 18739 C 1711.39 -1.05723 1.7843 0
M  V30 18740 C 1711.81 -1.80089 0.543094 0
M  V30 18741 O 1711.17 -1.74083 -0.506438 0
M  V30 18742 C 1711.22 -2.01193 2.99255 0
M  V30 18743 O 1710.32 -3.09528 2.72518 0
M  V30 18744 H 1709.66 -0.303614 0.590521 0
M  V30 18745 H 1712.19 -0.335859 2.01825 0
M  V30 18746 H 1712.2 -2.43623 3.27279 0
M  V30 18747 H 1710.88 -1.46472 3.89254 0
M  V30 18748 H 1709.45 -2.71599 2.55516 0
M  V30 18749 N 1711.64 -1.47227 -0.562322 0
M  V30 18750 C 1712.89 -1.53816 -1.32168 0
M  V30 18751 C 1713.22 -0.197649 -1.93192 0
M  V30 18752 O 1712.49 0.793178 -1.77592 0
M  V30 18753 C 1712.78 -2.65231 -2.43566 0
M  V30 18754 C 1712.63 -4.08882 -1.87445 0
M  V30 18755 C 1713.95 -2.72589 -3.45519 0
M  V30 18756 H 1711.07 -0.559947 -0.479195 0
M  V30 18757 H 1713.71 -1.7926 -0.629762 0
M  V30 18758 H 1711.86 -2.43667 -3.02587 0
M  V30 18759 H 1713.53 -4.41794 -1.32725 0
M  V30 18760 H 1711.77 -4.17401 -1.18149 0
M  V30 18761 H 1712.45 -4.82603 -2.67952 0
M  V30 18762 H 1714.92 -2.92028 -2.9641 0
M  V30 18763 H 1713.8 -3.5233 -4.20898 0
M  V30 18764 H 1714.06 -1.79444 -4.04045 0
M  V30 18765 N 1713.12 0.808639 -1.35273 0
M  V30 18766 C 1714.05 1.92839 -1.23878 0
M  V30 18767 C 1715.06 1.61987 -0.162543 0
M  V30 18768 O 1716.25 1.73593 -0.41564 0
M  V30 18769 C 1713.35 3.27158 -0.884369 0
M  V30 18770 C 1712.52 3.85931 -2.05855 0
M  V30 18771 C 1711.58 4.98652 -1.68025 0
M  V30 18772 O 1710.61 5.16188 -2.39871 0
M  V30 18773 N 1711.81 5.77363 -0.602684 0
M  V30 18774 H 1714.58 2.03141 -2.20349 0
M  V30 18775 H 1712.14 0.985956 -1.28415 0
M  V30 18776 H 1714.13 4.00033 -0.612814 0
M  V30 18777 H 1712.7 3.12599 -0.00940584 0
M  V30 18778 H 1711.92 3.05274 -2.49402 0
M  V30 18779 H 1713.21 4.21929 -2.84347 0
M  V30 18780 H 1712.61 5.657 -0.00570741 0
M  V30 18781 H 1711.16 6.50627 -0.390903 0
M  V30 18782 N 1714.6 1.19237 1.03055 0
M  V30 18783 C 1715.85 0.988287 1.75829 0
M  V30 18784 C 1716.16 -0.481903 1.89571 0
M  V30 18785 O 1717.36 -0.804762 2.59299 0
M  V30 18786 C 1715.82 1.71934 3.16175 0
M  V30 18787 C 1715.43 3.22952 3.10493 0
M  V30 18788 C 1717.17 1.59844 3.93256 0
M  V30 18789 C 1715.08 3.88654 4.4576 0
M  V30 18790 H 1714.01 0.366153 0.659127 0
M  V30 18791 H 1716.66 1.42716 1.15345 0
M  V30 18792 H 1715.04 1.20828 3.77116 0
M  V30 18793 H 1716.22 3.81163 2.58943 0
M  V30 18794 H 1714.53 3.35298 2.46909 0
M  V30 18795 H 1717.13 2.06283 4.93307 0
M  V30 18796 H 1717.47 0.552317 4.1262 0
M  V30 18797 H 1718 2.08286 3.38913 0
M  V30 18798 H 1714.74 4.93357 4.31601 0
M  V30 18799 H 1714.26 3.35231 4.97373 0
M  V30 18800 H 1715.94 3.92104 5.14649 0
M  V30 18801 N 1716.07 -1.22136 0.99602 0
M  V30 18802 C 1716.98 -2.27869 0.557927 0
M  V30 18803 C 1718 -1.69462 -0.394781 0
M  V30 18804 O 1719.18 -1.99704 -0.26084 0
M  V30 18805 C 1716.24 -3.46501 -0.117434 0
M  V30 18806 C 1715.3 -4.20213 0.878627 0
M  V30 18807 C 1714.54 -5.33181 0.2354 0
M  V30 18808 O 1714.76 -5.62093 -0.969954 0
M  V30 18809 O 1713.69 -5.94486 0.941828 0
M  V30 18810 H 1717.52 -2.67517 1.43765 0
M  V30 18811 H 1715.1 -1.28362 0.764428 0
M  V30 18812 H 1716.99 -4.18476 -0.49559 0
M  V30 18813 H 1715.66 -3.08772 -0.971674 0
M  V30 18814 H 1714.57 -3.50497 1.30777 0
M  V30 18815 H 1715.9 -4.6183 1.70217 0
M  V30 18816 N 1717.55 -0.769612 -1.37531 0
M  V30 18817 C 1718.49 -0.100781 -2.27977 0
M  V30 18818 C 1719.46 0.711383 -1.46213 0
M  V30 18819 O 1720.65 0.686602 -1.75551 0
M  V30 18820 C 1717.77 0.863601 -3.27505 0
M  V30 18821 C 1716.82 0.135698 -4.26284 0
M  V30 18822 S 1717.65 -1.17477 -5.22455 0
M  V30 18823 C 1718.81 -0.213878 -6.25534 0
M  V30 18824 H 1719.04 -0.86772 -2.84355 0
M  V30 18825 H 1716.58 -0.562906 -1.43773 0
M  V30 18826 H 1718.53 1.41462 -3.85355 0
M  V30 18827 H 1717.19 1.60363 -2.70079 0
M  V30 18828 H 1716.39 0.866694 -4.96492 0
M  V30 18829 H 1715.99 -0.344257 -3.72412 0
M  V30 18830 H 1718.28 0.614474 -6.74708 0
M  V30 18831 H 1719.22 -0.884072 -7.02559 0
M  V30 18832 H 1719.63 0.173963 -5.64232 0
M  V30 18833 N 1719.03 1.48775 -0.519977 0
M  V30 18834 C 1719.98 2.31123 0.261738 0
M  V30 18835 C 1720.97 1.40595 0.94496 0
M  V30 18836 O 1722.18 1.57552 0.870484 0
M  V30 18837 H 1718.55 0.744875 0.103272 0
M  V30 18838 H 1720.52 2.94949 -0.452514 0
M  V30 18839 C 1719.27 3.22409 1.30184 0
M  V30 18840 H 1718.6 3.92007 0.785524 0
M  V30 18841 H 1720.04 3.82932 1.82042 0
M  V30 18842 C 1718.5 2.43321 2.33016 0
M  V30 18843 O 1719.03 2.15087 3.39265 0
M  V30 18844 N 1717.23 2.04998 2.05971 0
M  V30 18845 H 1716.78 2.2816 1.19586 0
M  V30 18846 H 1716.74 1.52393 2.74998 0
M  V30 18847 N 1720.51 0.254649 1.55529 0
M  V30 18848 C 1721.46 -0.64162 2.21702 0
M  V30 18849 C 1722.43 -1.16544 1.1835 0
M  V30 18850 O 1723.61 -1.2185 1.46824 0
M  V30 18851 C 1720.75 -1.82935 2.92624 0
M  V30 18852 C 1719.86 -1.34132 4.10649 0
M  V30 18853 C 1719 -2.48922 4.69267 0
M  V30 18854 C 1718.04 -1.9702 5.79525 0
M  V30 18855 N 1717.17 -3.05206 6.32293 0
M  V30 18856 H 1722.01 -0.0706476 2.97916 0
M  V30 18857 H 1719.55 -0.0231077 1.47082 0
M  V30 18858 H 1721.51 -2.52719 3.31947 0
M  V30 18859 H 1720.14 -2.37267 2.1887 0
M  V30 18860 H 1719.19 -0.53726 3.76587 0
M  V30 18861 H 1720.5 -0.921003 4.90223 0
M  V30 18862 H 1719.66 -3.26735 5.11203 0
M  V30 18863 H 1718.4 -2.94259 3.88925 0
M  V30 18864 H 1717.4 -1.17679 5.37058 0
M  V30 18865 H 1718.63 -1.52643 6.61723 0
M  V30 18866 H 1716.57 -3.49963 5.54853 0
M  V30 18867 H 1716.49 -2.67528 7.07082 0
M  V30 18868 H 1717.76 -3.83055 6.78888 0
M  V30 18869 N 1721.99 -1.57589 -0.0183649 0
M  V30 18870 C 1722.93 -2.07252 -1.01563 0
M  V30 18871 C 1723.9 -0.963941 -1.35268 0
M  V30 18872 O 1725.09 -1.2352 -1.45421 0
M  V30 18873 C 1722.23 -2.56548 -2.30818 0
M  V30 18874 C 1721.34 -3.81238 -2.03178 0
M  V30 18875 C 1720.48 -4.19105 -3.26381 0
M  V30 18876 C 1719.52 -5.36682 -2.94344 0
M  V30 18877 N 1718.65 -5.6993 -4.1003 0
M  V30 18878 H 1723.49 -2.92198 -0.585179 0
M  V30 18879 H 1721.03 -1.44462 -0.27731 0
M  V30 18880 H 1722.99 -2.832 -3.06355 0
M  V30 18881 H 1721.62 -1.74504 -2.71566 0
M  V30 18882 H 1720.67 -3.61606 -1.1809 0
M  V30 18883 H 1721.98 -4.66886 -1.75552 0
M  V30 18884 H 1721.14 -4.46942 -4.10278 0
M  V30 18885 H 1719.87 -3.32129 -3.57129 0
M  V30 18886 H 1718.88 -5.08587 -2.08851 0
M  V30 18887 H 1720.1 -6.2532 -2.64862 0
M  V30 18888 H 1718.05 -4.85913 -4.40709 0
M  V30 18889 H 1717.97 -6.50111 -3.85865 0
M  V30 18890 H 1719.24 -6.02349 -4.94768 0
M  V30 18891 N 1723.46 0.290824 -1.54893 0
M  V30 18892 C 1724.88 0.637054 -1.46334 0
M  V30 18893 C 1725.08 1.90285 -0.66285 0
M  V30 18894 O 1724.14 2.51896 -0.174589 0
M  V30 18895 C 1725.45 0.780585 -2.90392 0
M  V30 18896 C 1727 0.875807 -3.00497 0
M  V30 18897 C 1727.47 1.05126 -4.45772 0
M  V30 18898 N 1728.96 1.11721 -4.49525 0
M  V30 18899 C 1729.7 1.27145 -5.59126 0
M  V30 18900 N 1729.19 1.39401 -6.7863 0
M  V30 18901 N 1730.99 1.30114 -5.46833 0
M  V30 18902 H 1723.14 -0.540707 -2.05402 0
M  V30 18903 H 1725.4 -0.180344 -0.930688 0
M  V30 18904 H 1725.11 -0.0787855 -3.51612 0
M  V30 18905 H 1724.98 1.66644 -3.38392 0
M  V30 18906 H 1727.37 1.72566 -2.39385 0
M  V30 18907 H 1727.45 -0.0342844 -2.55777 0
M  V30 18908 H 1727.09 0.206135 -5.07482 0
M  V30 18909 H 1727.02 1.97573 -4.88132 0
M  V30 18910 H 1729.51 1.03562 -3.63433 0
M  V30 18911 H 1729.83 1.50953 -7.57914 0
M  V30 18912 H 1728.17 1.36438 -6.81476 0
M  V30 18913 H 1731.36 1.20157 -4.52416 0
M  V30 18914 H 1731.54 1.4179 -6.32297 0
M  V30 18915 N 1724.94 1.47523 0.554506 0
M  V30 18916 C 1725.85 1.62851 1.68869 0
M  V30 18917 C 1726.87 0.511305 1.66318 0
M  V30 18918 O 1728.04 0.779195 1.85716 0
M  V30 18919 C 1725.11 1.64161 3.05372 0
M  V30 18920 C 1724.17 2.87327 3.1897 0
M  V30 18921 C 1723.4 2.88566 4.48961 0
M  V30 18922 O 1723.63 1.98937 5.34584 0
M  V30 18923 O 1722.56 3.80459 4.66406 0
M  V30 18924 H 1726.39 2.58826 1.5888 0
M  V30 18925 H 1723.97 1.3064 0.724822 0
M  V30 18926 H 1725.85 1.67686 3.866 0
M  V30 18927 H 1724.53 0.713534 3.15738 0
M  V30 18928 H 1723.44 2.89345 2.37129 0
M  V30 18929 H 1724.77 3.79438 3.13509 0
M  V30 18930 N 1726.42 -0.801453 1.357 0
M  V30 18931 C 1727.38 -1.89514 1.28907 0
M  V30 18932 C 1728.38 -1.59559 0.19938 0
M  V30 18933 O 1729.57 -1.68196 0.453408 0
M  V30 18934 C 1726.71 -3.26044 0.995411 0
M  V30 18935 H 1727.9 -1.96956 2.2616 0
M  V30 18936 H 1725.45 -0.997899 1.20298 0
M  V30 18937 H 1726.19 -3.24289 0.0269561 0
M  V30 18938 H 1725.97 -3.49172 1.78385 0
M  V30 18939 H 1727.46 -4.06092 0.97362 0
M  V30 18940 N 1727.9 -1.19782 -1.02421 0
M  V30 18941 C 1728.81 -0.955253 -2.14271 0
M  V30 18942 C 1729.82 0.0863233 -1.73786 0
M  V30 18943 O 1731 -0.0993878 -2.01155 0
M  V30 18944 C 1728.07 -0.502219 -3.43043 0
M  V30 18945 C 1727.13 -1.61374 -3.97815 0
M  V30 18946 C 1726.36 -1.18223 -5.20441 0
M  V30 18947 O 1726.58 -0.0477334 -5.7038 0
M  V30 18948 O 1725.52 -1.98664 -5.68169 0
M  V30 18949 H 1729.34 -1.89157 -2.37599 0
M  V30 18950 H 1726.93 -0.981035 -1.12677 0
M  V30 18951 H 1728.81 -0.258445 -4.20607 0
M  V30 18952 H 1727.48 0.4056 -3.21149 0
M  V30 18953 H 1726.39 -1.91172 -3.21565 0
M  V30 18954 H 1727.72 -2.49829 -4.24083 0
M  V30 18955 N 1729.38 1.21606 -1.00248 0
M  V30 18956 C 1730.62 1.90607 -0.683752 0
M  V30 18957 C 1730.95 1.77945 0.785228 0
M  V30 18958 O 1730.21 1.14856 1.58451 0
M  V30 18959 C 1730.51 3.41708 -1.04739 0
M  V30 18960 C 1730.17 3.74565 -2.51022 0
M  V30 18961 C 1728.83 3.83243 -2.90995 0
M  V30 18962 C 1731.19 3.89971 -3.45792 0
M  V30 18963 C 1728.51 4.04773 -4.24707 0
M  V30 18964 C 1730.87 4.13008 -4.79174 0
M  V30 18965 C 1729.53 4.19912 -5.18874 0
M  V30 18966 H 1728.8 0.697481 -0.250203 0
M  V30 18967 H 1731.45 1.4417 -1.26045 0
M  V30 18968 H 1729.75 3.89865 -0.388905 0
M  V30 18969 H 1731.45 3.93367 -0.778675 0
M  V30 18970 H 1728.04 3.68399 -2.19043 0
M  V30 18971 H 1732.22 3.82635 -3.16076 0
M  V30 18972 H 1727.48 4.08349 -4.5504 0
M  V30 18973 H 1731.65 4.23871 -5.52545 0
M  V30 18974 H 1729.28 4.36348 -6.22499 0
M  V30 18975 N 1730.86 0.776895 1.37121 0
M  V30 18976 C 1731.79 0.124809 2.2886 0
M  V30 18977 C 1732.8 -0.658655 1.48881 0
M  V30 18978 O 1733.99 -0.4959 1.71473 0
M  V30 18979 C 1731.09 -0.84672 3.28152 0
M  V30 18980 C 1730.26 -0.11598 4.37246 0
M  V30 18981 C 1729.32 -1.00162 5.16579 0
M  V30 18982 O 1728.35 -0.463491 5.6731 0
M  V30 18983 N 1729.55 -2.32733 5.31804 0
M  V30 18984 H 1732.31 0.91278 2.85462 0
M  V30 18985 H 1729.88 0.629695 1.49152 0
M  V30 18986 H 1731.87 -1.44275 3.78109 0
M  V30 18987 H 1730.44 -1.53563 2.72281 0
M  V30 18988 H 1729.66 0.661015 3.88618 0
M  V30 18989 H 1730.95 0.388757 5.07313 0
M  V30 18990 H 1730.34 -2.78882 4.9218 0
M  V30 18991 H 1728.9 -2.8733 5.85051 0
M  V30 18992 N 1732.33 -1.48497 0.527859 0
M  V30 18993 C 1733.28 -2.2959 -0.23607 0
M  V30 18994 C 1734.25 -1.37232 -0.935762 0
M  V30 18995 O 1735.44 -1.66196 -0.937202 0
M  V30 18996 C 1732.58 -3.20551 -1.27832 0
M  V30 18997 C 1731.69 -4.27984 -0.58769 0
M  V30 18998 C 1730.82 -5.06128 -1.61269 0
M  V30 18999 C 1729.86 -6.05367 -0.905404 0
M  V30 19000 N 1729 -6.76577 -1.87585 0
M  V30 19001 H 1733.84 -2.94403 0.461635 0
M  V30 19002 H 1731.38 -1.45137 0.239493 0
M  V30 19003 H 1733.33 -3.71686 -1.89488 0
M  V30 19004 H 1731.96 -2.57665 -1.94444 0
M  V30 19005 H 1731.02 -3.80132 0.142759 0
M  V30 19006 H 1732.33 -4.9879 -0.0322348 0
M  V30 19007 H 1731.48 -5.61266 -2.30359 0
M  V30 19008 H 1730.22 -4.35157 -2.20204 0
M  V30 19009 H 1729.23 -5.49435 -0.200426 0
M  V30 19010 H 1730.45 -6.78335 -0.322197 0
M  V30 19011 H 1728.4 -6.08358 -2.45432 0
M  V30 19012 H 1728.31 -7.4345 -1.37178 0
M  V30 19013 H 1729.58 -7.36305 -2.5588 0
M  V30 19014 N 1733.81 -0.262893 -1.55392 0
M  V30 19015 C 1734.74 0.670902 -2.18115 0
M  V30 19016 C 1735.72 1.1612 -1.13819 0
M  V30 19017 O 1736.91 1.23642 -1.42285 0
M  V30 19018 C 1734.03 1.91358 -2.79463 0
M  V30 19019 C 1733.08 1.5598 -3.96954 0
M  V30 19020 S 1733.91 0.648534 -5.31558 0
M  V30 19021 C 1735.07 1.89986 -5.96369 0
M  V30 19022 H 1735.3 0.137916 -2.9698 0
M  V30 19023 H 1732.83 -0.0472295 -1.54328 0
M  V30 19024 H 1734.79 2.62691 -3.15442 0
M  V30 19025 H 1733.45 2.4177 -2.00515 0
M  V30 19026 H 1732.65 2.48416 -4.38527 0
M  V30 19027 H 1732.25 0.926763 -3.62336 0
M  V30 19028 H 1734.54 2.84526 -6.14859 0
M  V30 19029 H 1735.48 1.52735 -6.91431 0
M  V30 19030 H 1735.89 2.05923 -5.256 0
M  V30 19031 N 1735.29 1.57597 0.0100073 0
M  V30 19032 C 1736.71 1.55348 0.365949 0
M  V30 19033 C 1736.91 0.991487 1.75419 0
M  V30 19034 O 1735.96 0.620894 2.44747 0
M  V30 19035 C 1737.27 2.99656 0.250343 0
M  V30 19036 C 1738.82 3.11297 0.326023 0
M  V30 19037 C 1739.3 4.57373 0.239653 0
M  V30 19038 N 1740.79 4.62241 0.297863 0
M  V30 19039 C 1741.52 5.72836 0.254219 0
M  V30 19040 N 1741.02 6.92611 0.161753 0
M  V30 19041 N 1742.81 5.6127 0.30535 0
M  V30 19042 H 1734.96 1.92471 -0.898253 0
M  V30 19043 H 1737.23 0.883623 -0.343386 0
M  V30 19044 H 1736.93 3.44574 -0.704407 0
M  V30 19045 H 1736.81 3.62682 1.03643 0
M  V30 19046 H 1739.19 2.66316 1.27121 0
M  V30 19047 H 1739.27 2.51068 -0.489756 0
M  V30 19048 H 1738.92 5.03026 -0.70195 0
M  V30 19049 H 1738.85 5.15536 1.07379 0
M  V30 19050 H 1741.34 3.76074 0.371065 0
M  V30 19051 H 1741.65 7.72684 0.134073 0
M  V30 19052 H 1740 6.94883 0.127524 0
M  V30 19053 H 1743.19 4.6659 0.375713 0
M  V30 19054 H 1743.36 6.47446 0.267871 0
M  V30 19055 N 1736.77 -0.282606 1.55045 0
M  V30 19056 C 1738.18 -0.629284 1.4667 0
M  V30 19057 C 1738.38 -1.89931 0.672932 0
M  V30 19058 O 1737.44 -2.518 0.187946 0
M  V30 19059 C 1738.75 -0.765174 2.90802 0
M  V30 19060 C 1740.3 -0.859859 3.00958 0
M  V30 19061 C 1740.78 -1.0276 4.46323 0
M  V30 19062 N 1742.27 -1.09336 4.50111 0
M  V30 19063 C 1743 -1.24178 5.59792 0
M  V30 19064 N 1742.5 -1.358 6.7936 0
M  V30 19065 N 1744.29 -1.27212 5.47516 0
M  V30 19066 H 1736.44 0.551592 2.05113 0
M  V30 19067 H 1738.7 0.185277 0.929718 0
M  V30 19068 H 1738.41 0.0974312 3.51565 0
M  V30 19069 H 1738.28 -1.64848 3.39271 0
M  V30 19070 H 1740.67 -1.71294 2.40297 0
M  V30 19071 H 1740.75 0.0478484 2.55755 0
M  V30 19072 H 1740.4 -0.179219 5.07584 0
M  V30 19073 H 1740.33 -1.94981 4.89173 0
M  V30 19074 H 1742.82 -1.01633 3.63977 0
M  V30 19075 H 1743.13 -1.46932 7.58703 0
M  V30 19076 H 1741.48 -1.32822 6.8219 0
M  V30 19077 H 1744.67 -1.17756 4.53046 0
M  V30 19078 H 1744.84 -1.38435 6.3304 0
M  V30 19079 N 1738.25 -1.47815 -0.546675 0
M  V30 19080 C 1739.52 -1.45464 -1.30765 0
M  V30 19081 C 1739.9 -0.157249 -2.10514 0
M  V30 19082 O 1739.25 0.861203 -2.1165 0
M  V30 19083 C 1739.46 -2.70661 -2.20326 0
M  V30 19084 C 1740.81 -3.18309 -2.81007 0
M  V30 19085 O 1741.83 -2.71462 -2.30623 0
M  V30 19086 O 1740.69 -3.9978 -3.7261 0
M  V30 19087 H 1737.79 -0.580175 -0.589343 0
M  V30 19088 H 1740.33 -1.60029 -0.564707 0
M  V30 19089 H 1739.1 -3.56612 -1.61069 0
M  V30 19090 H 1738.73 -2.58734 -3.01898 0
M  V30 19091 N 1739.72 0.794246 -1.36123 0
M  V30 19092 C 1740.65 1.92105 -1.32732 0
M  V30 19093 C 1741.63 1.68925 -0.199603 0
M  V30 19094 O 1742.82 1.90109 -0.396498 0
M  V30 19095 C 1739.95 3.29051 -1.11098 0
M  V30 19096 C 1738.9 3.66743 -2.20643 0
M  V30 19097 C 1738.23 5.01986 -1.84159 0
M  V30 19098 C 1739.53 3.75831 -3.62696 0
M  V30 19099 H 1741.22 1.952 -2.27018 0
M  V30 19100 H 1738.77 0.937746 -1.09281 0
M  V30 19101 H 1740.72 4.07494 -1.07362 0
M  V30 19102 H 1739.45 3.26331 -0.132614 0
M  V30 19103 H 1738.11 2.90594 -2.23497 0
M  V30 19104 H 1737.75 4.95782 -0.849081 0
M  V30 19105 H 1737.45 5.28175 -2.57497 0
M  V30 19106 H 1738.98 5.82855 -1.8197 0
M  V30 19107 H 1740.39 4.44476 -3.62096 0
M  V30 19108 H 1738.79 4.135 -4.34899 0
M  V30 19109 H 1739.86 2.7706 -3.97952 0
M  V30 19110 N 1741.2 1.20323 1.01785 0
M  V30 19111 C 1742.11 0.966603 2.13761 0
M  V30 19112 C 1743.13 -0.0771059 1.73829 0
M  V30 19113 O 1744.3 0.110054 2.01099 0
M  V30 19114 C 1741.37 0.520405 3.42772 0
M  V30 19115 C 1740.43 1.63482 3.96954 0
M  V30 19116 C 1739.66 1.20981 5.19807 0
M  V30 19117 O 1739.89 0.0779814 5.70347 0
M  V30 19118 O 1738.82 2.01674 5.67108 0
M  V30 19119 H 1742.65 1.90414 2.36593 0
M  V30 19120 H 1740.23 0.986997 1.12155 0
M  V30 19121 H 1742.11 0.280747 4.20464 0
M  V30 19122 H 1740.79 -0.388563 3.21359 0
M  V30 19123 H 1739.69 1.92874 3.20547 0
M  V30 19124 H 1741.03 2.52074 4.22752 0
M  V30 19125 N 1742.68 -1.21073 1.00892 0
M  V30 19126 C 1743.59 -2.27265 0.582065 0
M  V30 19127 C 1744.61 -1.69872 -0.376785 0
M  V30 19128 O 1745.78 -1.99969 -0.239644 0
M  V30 19129 C 1742.85 -3.46606 -0.0806764 0
M  V30 19130 C 1741.91 -4.19257 0.923147 0
M  V30 19131 C 1741.14 -5.32901 0.291938 0
M  V30 19132 O 1741.36 -5.6309 -0.910282 0
M  V30 19133 O 1740.3 -5.93453 1.00483 0
M  V30 19134 H 1744.12 -2.65977 1.46594 0
M  V30 19135 H 1741.71 -1.27544 0.777999 0
M  V30 19136 H 1743.59 -4.18978 -0.451177 0
M  V30 19137 H 1742.27 -3.09785 -0.93887 0
M  V30 19138 H 1741.17 -3.4909 1.34488 0
M  V30 19139 H 1742.51 -4.59999 1.75106 0
M  V30 19140 N 1744.16 -0.784156 -1.36707 0
M  V30 19141 C 1745.12 -0.184957 -2.28453 0
M  V30 19142 C 1746.12 0.614637 -1.4859 0
M  V30 19143 O 1747.31 0.436403 -1.68645 0
M  V30 19144 C 1744.44 0.744662 -3.32667 0
M  V30 19145 H 1745.64 -0.993861 -2.82953 0
M  V30 19146 H 1743.19 -0.553214 -1.46182 0
M  V30 19147 H 1743.92 1.57811 -2.83313 0
M  V30 19148 H 1743.71 0.173313 -3.91717 0
M  V30 19149 H 1745.2 1.15894 -4.01196 0
M  V30 19150 N 1745.64 1.48215 -0.535727 0
M  V30 19151 C 1746.86 2.06898 -0.0079465 0
M  V30 19152 C 1747.28 1.39148 1.27606 0
M  V30 19153 O 1746.64 0.480867 1.76051 0
M  V30 19154 C 1746.69 3.60868 0.213736 0
M  V30 19155 O 1746.41 4.26075 -1.01941 0
M  V30 19156 C 1747.91 4.36362 0.781245 0
M  V30 19157 H 1745.13 0.670028 -0.0361097 0
M  V30 19158 H 1747.67 1.90524 -0.743012 0
M  V30 19159 H 1745.83 3.76828 0.898866 0
M  V30 19160 H 1746.24 5.18306 -0.803716 0
M  V30 19161 H 1747.72 5.44847 0.885753 0
M  V30 19162 H 1748.19 4.01179 1.78751 0
M  V30 19163 H 1748.8 4.25094 0.132499 0
M  V30 19164 N 1747.11 0.27113 1.5525 0
M  V30 19165 C 1748.04 -0.61179 2.25343 0
M  V30 19166 C 1749.03 -1.16208 1.24216 0
M  V30 19167 O 1750.21 -1.19696 1.52927 0
M  V30 19168 C 1747.34 -1.7978 2.97147 0
M  V30 19169 C 1746.29 -1.37922 4.05169 0
M  V30 19170 C 1745.62 -2.64801 4.64526 0
M  V30 19171 C 1746.92 -0.532357 5.1958 0
M  V30 19172 H 1748.61 -0.0272538 2.99388 0
M  V30 19173 H 1746.16 -0.0116681 1.43995 0
M  V30 19174 H 1748.11 -2.42132 3.44891 0
M  V30 19175 H 1746.84 -2.40811 2.20631 0
M  V30 19176 H 1745.5 -0.778918 3.5823 0
M  V30 19177 H 1745.14 -3.24081 3.84682 0
M  V30 19178 H 1744.84 -2.37507 5.37461 0
M  V30 19179 H 1746.37 -3.28009 5.15017 0
M  V30 19180 H 1747.78 -1.06078 5.63401 0
M  V30 19181 H 1746.18 -0.35447 5.99052 0
M  V30 19182 H 1747.25 0.44981 4.82809 0
M  V30 19183 N 1748.59 -1.576 -0.00164943 0
M  V30 19184 C 1749.52 -2.05167 -1.02173 0
M  V30 19185 C 1750.54 -0.969293 -1.308 0
M  V30 19186 O 1751.73 -1.24612 -1.27805 0
M  V30 19187 C 1748.83 -2.43525 -2.35688 0
M  V30 19188 C 1748 -3.74475 -2.26025 0
M  V30 19189 C 1747.06 -3.99719 -3.42215 0
M  V30 19190 O 1746.08 -4.70408 -3.20476 0
M  V30 19191 N 1747.29 -3.47486 -4.65009 0
M  V30 19192 H 1750.05 -2.93299 -0.616095 0
M  V30 19193 H 1747.61 -1.60792 -0.189066 0
M  V30 19194 H 1749.6 -2.57528 -3.12188 0
M  V30 19195 H 1748.17 -1.6092 -2.67999 0
M  V30 19196 H 1747.39 -3.70564 -1.34447 0
M  V30 19197 H 1748.68 -4.60328 -2.16739 0
M  V30 19198 H 1748.08 -2.9024 -4.85569 0
M  V30 19199 H 1746.64 -3.66822 -5.38781 0
M  V30 19200 N 1750.07 0.274379 -1.55193 0
M  V30 19201 C 1751.02 1.34139 -1.84366 0
M  V30 19202 C 1752 1.44755 -0.702475 0
M  V30 19203 O 1753.2 1.48459 -0.963785 0
M  V30 19204 C 1750.33 2.7019 -2.11784 0
M  V30 19205 C 1749.41 2.63689 -3.32158 0
M  V30 19206 N 1749.8 2.26808 -4.52097 0
M  V30 19207 C 1748.1 2.94752 -3.34719 0
M  V30 19208 C 1748.8 2.30264 -5.34185 0
M  V30 19209 N 1747.78 2.68683 -4.72557 0
M  V30 19210 H 1751.58 1.0463 -2.74645 0
M  V30 19211 H 1749.09 0.483012 -1.55051 0
M  V30 19212 H 1751.09 3.47158 -2.30839 0
M  V30 19213 H 1749.75 3.00588 -1.22788 0
M  V30 19214 H 1750.76 1.98809 -4.78221 0
M  V30 19215 H 1747.44 3.29871 -2.55912 0
M  V30 19216 H 1748.83 2.04323 -6.4008 0
M  V30 19217 N 1751.55 1.48103 0.538828 0
M  V30 19218 C 1752.46 1.64632 1.67133 0
M  V30 19219 C 1753.47 0.528917 1.65766 0
M  V30 19220 O 1754.65 0.798849 1.84879 0
M  V30 19221 C 1751.72 1.67391 3.03614 0
M  V30 19222 C 1750.78 2.90694 3.15904 0
M  V30 19223 C 1750.01 2.93311 4.45875 0
M  V30 19224 O 1750.23 2.04596 5.32444 0
M  V30 19225 O 1749.17 3.85384 4.62345 0
M  V30 19226 H 1752.99 2.60496 1.56126 0
M  V30 19227 H 1750.58 1.31401 0.710925 0
M  V30 19228 H 1752.46 1.71777 3.84799 0
M  V30 19229 H 1751.13 0.746982 3.14963 0
M  V30 19230 H 1750.04 2.91844 2.34047 0
M  V30 19231 H 1751.37 3.82742 3.09467 0
M  V30 19232 N 1753.03 -0.787016 1.36542 0
M  V30 19233 C 1753.99 -1.88136 1.3091 0
M  V30 19234 C 1754.99 -1.59339 0.216292 0
M  V30 19235 O 1756.18 -1.67706 0.471222 0
M  V30 19236 C 1753.31 -3.24969 1.02994 0
M  V30 19237 H 1754.5 -1.94546 2.28237 0
M  V30 19238 H 1752.06 -0.985084 1.2135 0
M  V30 19239 H 1752.79 -3.24242 0.0613497 0
M  V30 19240 H 1752.58 -3.47261 1.82078 0
M  V30 19241 H 1754.07 -4.05036 1.01664 0
M  V30 19242 N 1754.5 -1.20861 -1.01145 0
M  V30 19243 C 1755.73 -1.04769 -1.78413 0
M  V30 19244 C 1756.15 0.402846 -1.84452 0
M  V30 19245 O 1755.5 1.27962 -1.30123 0
M  V30 19246 C 1755.56 -1.63065 -3.22633 0
M  V30 19247 O 1755.28 -3.02443 -3.16954 0
M  V30 19248 C 1756.78 -1.51996 -4.16428 0
M  V30 19249 H 1754 -0.368271 -0.560908 0
M  V30 19250 H 1756.54 -1.6006 -1.27283 0
M  V30 19251 H 1754.7 -1.11882 -3.70892 0
M  V30 19252 H 1755.11 -3.30199 -4.07515 0
M  V30 19253 H 1756.58 -1.97539 -5.15444 0
M  V30 19254 H 1757.06 -0.473305 -4.36642 0
M  V30 19255 H 1757.67 -2.02396 -3.74054 0
M  V30 19256 N 1755.98 1.20536 -1.01532 0
M  V30 19257 C 1756.95 2.21495 -0.589298 0
M  V30 19258 C 1757.95 1.57167 0.339871 0
M  V30 19259 O 1759.14 1.73724 0.128736 0
M  V30 19260 C 1756.27 3.40614 0.139623 0
M  V30 19261 H 1757.46 2.607 -1.48241 0
M  V30 19262 H 1755.01 1.33977 -0.804977 0
M  V30 19263 H 1755.75 3.0691 1.04771 0
M  V30 19264 H 1755.53 3.88531 -0.52785 0
M  V30 19265 H 1757.02 4.15431 0.425083 0
M  V30 19266 N 1757.46 0.791395 1.36289 0
M  V30 19267 C 1758.42 0.197069 2.28351 0
M  V30 19268 C 1759.42 -0.606748 1.48913 0
M  V30 19269 O 1760.61 -0.427453 1.68874 0
M  V30 19270 C 1757.75 -0.727009 3.33058 0
M  V30 19271 H 1758.94 1.00885 2.82422 0
M  V30 19272 H 1756.49 0.560959 1.45887 0
M  V30 19273 H 1757.23 -1.56306 2.84146 0
M  V30 19274 H 1757.01 -0.152537 3.91803 0
M  V30 19275 H 1758.5 -1.13765 4.01805 0
M  V30 19276 N 1758.94 -1.47929 0.54358 0
M  V30 19277 C 1759.9 -2.28316 -0.201107 0
M  V30 19278 C 1760.9 -1.36165 -0.855313 0
M  V30 19279 O 1762.09 -1.58928 -0.71327 0
M  V30 19280 C 1759.22 -3.1545 -1.29245 0
M  V30 19281 H 1760.42 -2.9562 0.504848 0
M  V30 19282 H 1757.97 -1.53394 0.300011 0
M  V30 19283 H 1758.71 -2.52807 -2.03124 0
M  V30 19284 H 1758.49 -3.83251 -0.82832 0
M  V30 19285 H 1759.98 -3.76053 -1.81587 0
M  V30 19286 N 1760.42 -0.27936 -1.55104 0
M  V30 19287 C 1761.35 0.599831 -2.25664 0
M  V30 19288 C 1762.33 1.15548 -1.24831 0
M  V30 19289 O 1763.51 1.18883 -1.53559 0
M  V30 19290 C 1760.64 1.78202 -2.98096 0
M  V30 19291 C 1759.6 1.35771 -4.05894 0
M  V30 19292 C 1758.92 2.62334 -4.65924 0
M  V30 19293 C 1760.22 0.504795 -5.19855 0
M  V30 19294 H 1761.92 0.0113761 -2.99398 0
M  V30 19295 H 1759.46 0.00403149 -1.43999 0
M  V30 19296 H 1761.42 2.403 -3.4617 0
M  V30 19297 H 1760.14 2.39637 -2.21905 0
M  V30 19298 H 1758.8 0.75991 -3.58638 0
M  V30 19299 H 1758.45 3.22036 -3.86396 0
M  V30 19300 H 1758.15 2.34654 -5.38713 0
M  V30 19301 H 1759.67 3.25273 -5.16749 0
M  V30 19302 H 1761.09 1.03089 -5.63955 0
M  V30 19303 H 1759.48 0.322696 -5.99232 0
M  V30 19304 H 1760.55 -0.475409 -4.82564 0
M  V30 19305 N 1761.9 1.57599 -0.0067085 0
M  V30 19306 C 1763.31 1.55727 0.349452 0
M  V30 19307 C 1763.51 1.01004 1.74357 0
M  V30 19308 O 1762.57 0.646817 2.44075 0
M  V30 19309 C 1763.88 2.99905 0.218546 0
M  V30 19310 C 1765.43 3.11626 0.292987 0
M  V30 19311 C 1765.9 4.57601 0.191129 0
M  V30 19312 N 1767.39 4.62531 0.248819 0
M  V30 19313 C 1768.13 5.73074 0.193448 0
M  V30 19314 N 1767.63 6.92744 0.0882834 0
M  V30 19315 N 1769.42 5.61562 0.245803 0
M  V30 19316 H 1761.57 1.91508 -0.918617 0
M  V30 19317 H 1763.83 0.879931 -0.352739 0
M  V30 19318 H 1763.54 3.43807 -0.740914 0
M  V30 19319 H 1763.41 3.63761 0.997905 0
M  V30 19320 H 1765.8 2.67649 1.2429 0
M  V30 19321 H 1765.88 2.50534 -0.516358 0
M  V30 19322 H 1765.52 5.02253 -0.755263 0
M  V30 19323 H 1765.45 5.16646 1.01905 0
M  V30 19324 H 1767.95 3.76446 0.331157 0
M  V30 19325 H 1768.26 7.72782 0.052112 0
M  V30 19326 H 1766.6 6.94979 0.0538156 0
M  V30 19327 H 1769.79 4.66962 0.326204 0
M  V30 19328 H 1769.97 6.47694 0.199185 0
M  V30 19329 N 1763.37 -0.266145 1.55336 0
M  V30 19330 C 1764.32 -1.32914 1.88686 0
M  V30 19331 C 1765.29 -1.48752 0.739048 0
M  V30 19332 O 1766.48 -1.63048 0.990951 0
M  V30 19333 C 1763.62 -2.68317 2.17026 0
M  V30 19334 C 1762.73 -2.60644 3.44512 0
M  V30 19335 C 1761.86 -3.88271 3.62517 0
M  V30 19336 C 1760.9 -3.75137 4.83672 0
M  V30 19337 N 1760.04 -4.94614 4.98299 0
M  V30 19338 H 1764.88 -1.03774 2.79347 0
M  V30 19339 H 1762.42 -0.501205 1.38298 0
M  V30 19340 H 1764.37 -3.47107 2.31458 0
M  V30 19341 H 1763 -2.95645 1.29591 0
M  V30 19342 H 1762.06 -1.73527 3.38515 0
M  V30 19343 H 1763.37 -2.46842 4.3344 0
M  V30 19344 H 1762.52 -4.75503 3.76804 0
M  V30 19345 H 1761.26 -4.04949 2.71787 0
M  V30 19346 H 1760.27 -2.86289 4.69381 0
M  V30 19347 H 1761.49 -3.59973 5.75844 0
M  V30 19348 H 1759.44 -5.11689 4.10501 0
M  V30 19349 H 1759.35 -4.83369 5.81284 0
M  V30 19350 H 1760.62 -5.83399 5.16978 0
M  V30 19351 N 1764.85 -1.48386 -0.530967 0
M  V30 19352 C 1765.8 -1.62835 -1.63564 0
M  V30 19353 C 1766.77 -0.470453 -1.59298 0
M  V30 19354 O 1767.95 -0.693813 -1.77738 0
M  V30 19355 C 1765.09 -1.67314 -3.01828 0
M  V30 19356 C 1764.21 -2.94204 -3.16335 0
M  V30 19357 C 1763.34 -2.8985 -4.45152 0
M  V30 19358 C 1762.38 -4.11449 -4.53185 0
M  V30 19359 N 1761.52 -4.05178 -5.7339 0
M  V30 19360 H 1766.36 -2.57172 -1.50554 0
M  V30 19361 H 1763.89 -1.27537 -0.732991 0
M  V30 19362 H 1765.85 -1.67892 -3.81927 0
M  V30 19363 H 1764.48 -0.764688 -3.13612 0
M  V30 19364 H 1763.53 -3.03375 -2.29495 0
M  V30 19365 H 1764.85 -3.84179 -3.18132 0
M  V30 19366 H 1764 -2.88824 -5.33541 0
M  V30 19367 H 1762.74 -1.97602 -4.45875 0
M  V30 19368 H 1761.74 -4.12751 -3.63203 0
M  V30 19369 H 1762.97 -5.04855 -4.54201 0
M  V30 19370 H 1760.92 -3.15749 -5.75012 0
M  V30 19371 H 1760.83 -4.88857 -5.76676 0
M  V30 19372 H 1762.1 -4.08209 -6.64067 0
M  V30 19373 N 1766.33 0.779763 -1.36958 0
M  V30 19374 C 1767.28 1.88277 -1.28592 0
M  V30 19375 C 1768.26 1.59941 -0.175389 0
M  V30 19376 O 1769.46 1.72208 -0.409071 0
M  V30 19377 C 1766.58 3.25632 -1.08715 0
M  V30 19378 C 1765.67 3.59945 -2.24277 0
M  V30 19379 N 1766.06 3.65497 -3.49636 0
M  V30 19380 C 1764.36 3.90064 -2.16255 0
M  V30 19381 C 1765.06 3.96328 -4.25792 0
M  V30 19382 N 1764.04 4.11812 -3.5484 0
M  V30 19383 H 1767.84 1.90809 -2.23538 0
M  V30 19384 H 1765.35 0.975794 -1.29815 0
M  V30 19385 H 1767.35 4.04529 -1.00807 0
M  V30 19386 H 1766.01 3.24368 -0.146786 0
M  V30 19387 H 1767.02 3.47902 -3.83647 0
M  V30 19388 H 1763.7 3.96669 -1.3023 0
M  V30 19389 H 1765.09 4.07466 -5.34248 0
M  V30 19390 N 1767.81 1.21396 1.00503 0
M  V30 19391 C 1768.77 0.974756 2.07439 0
M  V30 19392 C 1769.77 -0.0542142 1.60709 0
M  V30 19393 O 1770.96 0.183056 1.73236 0
M  V30 19394 C 1768.09 0.46989 3.37646 0
M  V30 19395 H 1769.29 1.92346 2.30094 0
M  V30 19396 H 1766.84 1.03095 1.17479 0
M  V30 19397 H 1767.57 -0.483735 3.20672 0
M  V30 19398 H 1767.36 1.2121 3.72895 0
M  V30 19399 H 1768.85 0.322393 4.16354 0
M  V30 19400 N 1769.29 -1.19996 1.0217 0
M  V30 19401 C 1770.56 -1.85214 0.628894 0
M  V30 19402 C 1770.94 -1.91292 -0.892784 0
M  V30 19403 O 1770.29 -1.42455 -1.78658 0
M  V30 19404 C 1770.5 -3.24576 1.28262 0
M  V30 19405 C 1771.85 -4.0081 1.4013 0
M  V30 19406 O 1772.87 -3.33948 1.23923 0
M  V30 19407 O 1771.73 -5.20561 1.66368 0
M  V30 19408 H 1768.83 -0.797842 0.217664 0
M  V30 19409 H 1771.37 -1.27544 1.1194 0
M  V30 19410 H 1770.14 -3.14947 2.32216 0
M  V30 19411 H 1769.77 -3.89884 0.77952 0
M  V30 19412 N 1770.76 -0.798611 -1.35867 0
M  V30 19413 C 1771.99 -0.386378 -2.03769 0
M  V30 19414 C 1772.41 0.992154 -1.59806 0
M  V30 19415 O 1771.77 1.64094 -0.770895 0
M  V30 19416 C 1771.82 -0.468859 -3.57539 0
M  V30 19417 O 1770.92 0.520742 -4.09099 0
M  V30 19418 H 1770.26 -0.162597 -0.643784 0
M  V30 19419 H 1772.79 -1.08228 -1.73631 0
M  V30 19420 H 1772.8 -0.335775 -4.06616 0
M  V30 19421 H 1771.48 -1.47441 -3.88888 0
M  V30 19422 H 1770.06 0.348559 -3.71267 0
M  V30 19423 N 1772.24 1.47639 -0.551417 0
M  V30 19424 C 1773.49 2.02784 -0.0252425 0
M  V30 19425 C 1773.82 1.42549 1.31884 0
M  V30 19426 O 1773.1 0.578954 1.85684 0
M  V30 19427 C 1773.38 3.60024 0.0740051 0
M  V30 19428 C 1773.23 4.30702 -1.29676 0
M  V30 19429 C 1774.55 4.32946 0.790302 0
M  V30 19430 H 1771.67 0.736923 -0.0106473 0
M  V30 19431 H 1774.31 1.76131 -0.712589 0
M  V30 19432 H 1772.46 3.82863 0.65939 0
M  V30 19433 H 1774.13 4.1922 -1.9249 0
M  V30 19434 H 1772.38 3.91282 -1.87299 0
M  V30 19435 H 1773.05 5.39238 -1.18009 0
M  V30 19436 H 1775.52 4.15065 0.293326 0
M  V30 19437 H 1774.4 5.42608 0.828692 0
M  V30 19438 H 1774.66 4.01752 1.84521 0
M  V30 19439 N 1773.72 0.287581 1.54954 0
M  V30 19440 C 1774.68 -0.581465 2.21702 0
M  V30 19441 C 1775.68 -1.07172 1.19878 0
M  V30 19442 O 1776.87 -0.969899 1.44702 0
M  V30 19443 C 1774.01 -1.80358 2.89282 0
M  V30 19444 H 1775.2 0.00151035 2.999 0
M  V30 19445 H 1772.75 0.0382953 1.56253 0
M  V30 19446 H 1773.49 -2.42674 2.15128 0
M  V30 19447 H 1773.27 -1.45983 3.63911 0
M  V30 19448 H 1774.76 -2.42129 3.4024 0
M  V30 19449 N 1775.2 -1.57593 0.0150662 0
M  V30 19450 C 1776.11 -2.12807 -0.987437 0
M  V30 19451 C 1777.12 -1.07691 -1.3667 0
M  V30 19452 O 1778.3 -1.39674 -1.45097 0
M  V30 19453 C 1775.37 -2.63276 -2.2558 0
M  V30 19454 C 1774.43 -3.83053 -1.93827 0
M  V30 19455 C 1773.66 -4.31106 -3.14616 0
M  V30 19456 O 1773.88 -3.78405 -4.26809 0
M  V30 19457 O 1772.82 -5.23104 -2.97734 0
M  V30 19458 H 1776.64 -2.98715 -0.548015 0
M  V30 19459 H 1774.23 -1.47991 -0.20469 0
M  V30 19460 H 1776.11 -2.95869 -3.00066 0
M  V30 19461 H 1774.78 -1.80459 -2.68731 0
M  V30 19462 H 1773.69 -3.55409 -1.1677 0
M  V30 19463 H 1775.02 -4.6699 -1.55502 0
M  V30 19464 N 1776.68 0.257904 -1.55475 0
M  V30 19465 C 1777.61 1.32303 -1.92401 0
M  V30 19466 C 1778.59 1.50767 -0.787617 0
M  V30 19467 O 1779.77 1.63559 -1.047 0
M  V30 19468 C 1776.9 2.67984 -2.20912 0
M  V30 19469 C 1775.86 2.64231 -3.36699 0
M  V30 19470 C 1775.18 4.03604 -3.50725 0
M  V30 19471 C 1776.48 2.22177 -4.72689 0
M  V30 19472 H 1778.18 1.01646 -2.81618 0
M  V30 19473 H 1775.72 0.487523 -1.35496 0
M  V30 19474 H 1777.68 3.42622 -2.45332 0
M  V30 19475 H 1776.4 3.00254 -1.2851 0
M  V30 19476 H 1775.06 1.92049 -3.1227 0
M  V30 19477 H 1774.71 4.33122 -2.55763 0
M  V30 19478 H 1774.41 4.01983 -4.28583 0
M  V30 19479 H 1775.93 4.79959 -3.77455 0
M  V30 19480 H 1777.34 2.86543 -4.96554 0
M  V30 19481 H 1775.74 2.3169 -5.5357 0
M  V30 19482 H 1776.81 1.17326 -4.70492 0
M  V30 19483 N 1778.15 1.48666 0.52309 0
M  V30 19484 C 1779.4 1.56724 1.27601 0
M  V30 19485 C 1779.72 0.245958 1.93443 0
M  V30 19486 O 1778.99 -0.733053 1.81668 0
M  V30 19487 H 1777.57 0.57739 0.473952 0
M  V30 19488 H 1780.24 1.85169 0.608144 0
M  V30 19489 H 1779.33 2.35188 2.05166 0
M  V30 19490 N 1779.63 -0.772489 1.37369 0
M  V30 19491 C 1780.54 -1.91679 1.35263 0
M  V30 19492 C 1781.56 -1.72161 0.252321 0
M  V30 19493 O 1782.73 -1.95409 0.487581 0
M  V30 19494 C 1779.8 -3.26792 1.15792 0
M  V30 19495 C 1778.86 -3.5897 2.35455 0
M  V30 19496 C 1778.09 -4.87636 2.16903 0
M  V30 19497 O 1778.32 -5.58627 1.15291 0
M  V30 19498 O 1777.25 -5.18859 3.05072 0
M  V30 19499 H 1781.08 -1.96408 2.31641 0
M  V30 19500 H 1778.66 -0.915136 1.18092 0
M  V30 19501 H 1780.54 -4.07611 1.06918 0
M  V30 19502 H 1779.22 -3.22918 0.224872 0
M  V30 19503 H 1778.13 -2.78389 2.49901 0
M  V30 19504 H 1779.46 -3.67586 3.27325 0
M  V30 19505 N 1781.11 -1.21927 -0.998575 0
M  V30 19506 C 1782.04 -0.942076 -2.08944 0
M  V30 19507 C 1783.06 0.0771683 -1.62617 0
M  V30 19508 O 1784.24 -0.156133 -1.77816 0
M  V30 19509 C 1781.34 -0.394201 -3.366 0
M  V30 19510 C 1780.52 -1.46931 -4.11983 0
M  V30 19511 C 1779.58 -0.929531 -5.17925 0
M  V30 19512 O 1778.6 -1.61444 -5.45824 0
M  V30 19513 N 1779.8 0.251965 -5.79953 0
M  V30 19514 H 1782.57 -1.88119 -2.33306 0
M  V30 19515 H 1780.13 -1.12539 -1.16389 0
M  V30 19516 H 1782.12 -0.0185416 -4.04696 0
M  V30 19517 H 1780.69 0.449884 -3.09346 0
M  V30 19518 H 1779.91 -2.01854 -3.38598 0
M  V30 19519 H 1781.2 -2.19284 -4.59121 0
M  V30 19520 H 1780.6 0.825333 -5.59647 0
M  V30 19521 H 1779.16 0.569068 -6.49311 0
M  V30 19522 N 1782.59 1.19452 -1.02805 0
M  V30 19523 C 1783.84 1.88439 -0.719284 0
M  V30 19524 C 1784.15 1.80435 0.755143 0
M  V30 19525 O 1785.36 2.44664 1.17693 0
M  V30 19526 C 1783.81 3.38001 -1.23625 0
M  V30 19527 C 1783.42 3.54564 -2.7384 0
M  V30 19528 C 1785.16 4.1247 -1.00343 0
M  V30 19529 C 1783.07 4.98016 -3.18958 0
M  V30 19530 H 1782 0.705762 -0.265359 0
M  V30 19531 H 1784.65 1.35058 -1.24224 0
M  V30 19532 H 1783.03 3.90774 -0.641211 0
M  V30 19533 H 1784.21 3.12124 -3.38991 0
M  V30 19534 H 1782.52 2.93484 -2.95392 0
M  V30 19535 H 1785.12 5.18257 -1.31581 0
M  V30 19536 H 1785.46 4.16257 0.0597873 0
M  V30 19537 H 1786 3.65832 -1.56243 0
M  V30 19538 H 1782.74 4.9939 -4.24605 0
M  V30 19539 H 1782.26 5.41221 -2.58534 0
M  V30 19540 H 1783.93 5.66664 -3.12252 0
M  V30 19541 N 1784.07 0.805805 1.35442 0
M  V30 19542 C 1785.34 0.309105 1.93142 0
M  V30 19543 C 1785.72 -1.20119 1.73593 0
M  V30 19544 O 1785.07 -2.00034 1.10448 0
M  V30 19545 C 1785.28 0.719653 3.415 0
M  V30 19546 C 1786.63 0.708697 4.18644 0
M  V30 19547 O 1787.65 0.661148 3.5001 0
M  V30 19548 O 1786.51 0.76636 5.411 0
M  V30 19549 H 1783.61 0.0806647 0.823057 0
M  V30 19550 H 1786.15 0.88945 1.44523 0
M  V30 19551 H 1784.92 1.7606 3.49455 0
M  V30 19552 H 1784.55 0.114073 3.97436 0
M  V30 19553 N 1785.54 -1.47344 0.559239 0
M  V30 19554 C 1786.49 -2.31735 -0.200368 0
M  V30 19555 C 1787.49 -1.43051 -0.907351 0
M  V30 19556 O 1788.69 -1.59804 -0.828406 0
M  V30 19557 H 1785.07 -0.747351 -0.0834871 0
M  V30 19558 H 1787.04 -2.93645 0.530556 0
M  V30 19559 C 1785.79 -3.25747 -1.2159 0
M  V30 19560 H 1785.11 -3.93952 -0.681314 0
M  V30 19561 H 1786.55 -3.87624 -1.71825 0
M  V30 19562 C 1785.01 -2.49414 -2.26482 0
M  V30 19563 O 1785.54 -2.24006 -3.33443 0
M  V30 19564 N 1783.75 -2.10387 -2.00464 0
M  V30 19565 H 1783.29 -2.3125 -1.13495 0
M  V30 19566 H 1783.25 -1.5963 -2.70861 0
M  V30 19567 N 1787.02 -0.295795 -1.54799 0
M  V30 19568 C 1787.95 0.575863 -2.26288 0
M  V30 19569 C 1788.93 1.14217 -1.26049 0
M  V30 19570 O 1790.12 1.17248 -1.54812 0
M  V30 19571 C 1787.25 1.7503 -2.9997 0
M  V30 19572 C 1786.2 1.31459 -4.07311 0
M  V30 19573 C 1785.53 2.57377 -4.6868 0
M  V30 19574 C 1786.83 0.449629 -5.20361 0
M  V30 19575 H 1788.52 -0.0203797 -2.99393 0
M  V30 19576 H 1786.07 -0.0112418 -1.43996 0
M  V30 19577 H 1788.02 2.36615 -3.487 0
M  V30 19578 H 1786.75 2.3727 -2.24434 0
M  V30 19579 H 1785.4 0.721829 -3.59423 0
M  V30 19580 H 1785.05 3.1792 -3.89789 0
M  V30 19581 H 1784.75 2.28927 -5.41171 0
M  V30 19582 H 1786.28 3.19774 -5.2017 0
M  V30 19583 H 1787.69 0.971014 -5.65017 0
M  V30 19584 H 1786.09 0.259121 -5.9954 0
M  V30 19585 H 1787.16 -0.526564 -4.82032 0
M  V30 19586 N 1788.5 1.57583 -0.0234236 0
M  V30 19587 C 1789.43 2.06766 0.988961 0
M  V30 19588 C 1790.45 0.98998 1.29241 0
M  V30 19589 O 1791.64 1.2663 1.25806 0
M  V30 19590 C 1788.74 2.47244 2.31784 0
M  V30 19591 C 1787.91 3.78023 2.20039 0
M  V30 19592 C 1786.97 4.05113 3.35812 0
M  V30 19593 O 1785.99 4.75447 3.12952 0
M  V30 19594 N 1787.2 3.5484 4.59422 0
M  V30 19595 H 1789.96 2.94242 0.569355 0
M  V30 19596 H 1787.52 1.61073 0.163461 0
M  V30 19597 H 1789.51 2.62463 3.08051 0
M  V30 19598 H 1788.08 1.65163 2.65405 0
M  V30 19599 H 1787.3 3.72656 1.28534 0
M  V30 19600 H 1788.59 4.63717 2.09389 0
M  V30 19601 H 1787.99 2.97928 4.8089 0
M  V30 19602 H 1786.55 3.75348 5.32877 0
M  V30 19603 N 1789.98 -0.249655 1.5561 0
M  V30 19604 C 1791.4 -0.598032 1.47972 0
M  V30 19605 C 1791.6 -1.88461 0.713067 0
M  V30 19606 O 1790.65 -2.51344 0.241314 0
M  V30 19607 C 1791.96 -0.703318 2.92359 0
M  V30 19608 C 1793.51 -0.795828 3.02714 0
M  V30 19609 C 1793.99 -0.932698 4.48402 0
M  V30 19610 N 1795.48 -0.997638 4.52329 0
M  V30 19611 C 1796.21 -1.12276 5.623 0
M  V30 19612 N 1795.71 -1.21359 6.82088 0
M  V30 19613 N 1797.5 -1.1557 5.50091 0
M  V30 19614 H 1789.65 0.594976 2.03897 0
M  V30 19615 H 1791.92 0.204956 0.925579 0
M  V30 19616 H 1791.62 0.171981 3.51279 0
M  V30 19617 H 1791.5 -1.57614 3.42692 0
M  V30 19618 H 1793.88 -1.66158 2.43876 0
M  V30 19619 H 1793.96 0.102087 2.55596 0
M  V30 19620 H 1793.61 -0.0715123 5.0785 0
M  V30 19621 H 1793.54 -1.84561 4.93198 0
M  V30 19622 H 1796.03 -0.938895 3.66051 0
M  V30 19623 H 1796.34 -1.30805 7.61649 0
M  V30 19624 H 1794.69 -1.18322 6.84854 0
M  V30 19625 H 1797.88 -1.0812 4.55442 0
M  V30 19626 H 1798.05 -1.24976 6.35834 0
M  V30 19627 N 1791.46 -1.48941 -0.515198 0
M  V30 19628 C 1792.7 -1.57943 -1.27207 0
M  V30 19629 C 1793.04 -0.259011 -1.92465 0
M  V30 19630 O 1792.31 0.736277 -1.80026 0
M  V30 19631 C 1792.59 -2.72846 -2.35005 0
M  V30 19632 C 1792.45 -4.14639 -1.74341 0
M  V30 19633 C 1793.77 -2.83444 -3.36672 0
M  V30 19634 H 1790.89 -0.574909 -0.461138 0
M  V30 19635 H 1793.53 -1.81172 -0.572413 0
M  V30 19636 H 1791.68 -2.5317 -2.94681 0
M  V30 19637 H 1793.35 -4.45793 -1.18602 0
M  V30 19638 H 1791.59 -4.20948 -1.0481 0
M  V30 19639 H 1792.26 -4.90883 -2.52463 0
M  V30 19640 H 1794.74 -3.01311 -2.86969 0
M  V30 19641 H 1793.62 -3.65542 -4.09475 0
M  V30 19642 H 1793.88 -1.92208 -3.98131 0
M  V30 19643 N 1792.94 0.765193 -1.37777 0
M  V30 19644 C 1793.88 1.87866 -1.34071 0
M  V30 19645 C 1794.85 1.64828 -0.205154 0
M  V30 19646 O 1796.04 1.86655 -0.395555 0
M  V30 19647 C 1793.18 3.25018 -1.16006 0
M  V30 19648 C 1792.29 3.59966 -2.38848 0
M  V30 19649 C 1791.43 4.8636 -2.13605 0
M  V30 19650 C 1790.46 5.14059 -3.32279 0
M  V30 19651 N 1789.6 6.31644 -3.06545 0
M  V30 19652 H 1794.44 1.90369 -2.29267 0
M  V30 19653 H 1791.98 0.930625 -1.1392 0
M  V30 19654 H 1793.94 4.04145 -1.03552 0
M  V30 19655 H 1792.57 3.21872 -0.24454 0
M  V30 19656 H 1791.62 2.75773 -2.62018 0
M  V30 19657 H 1792.93 3.76369 -3.27334 0
M  V30 19658 H 1792.08 5.73406 -1.9822 0
M  V30 19659 H 1790.82 4.72073 -1.22467 0
M  V30 19660 H 1789.83 4.25487 -3.48196 0
M  V30 19661 H 1791.05 5.30251 -4.24277 0
M  V30 19662 H 1789 6.18703 -2.18043 0
M  V30 19663 H 1788.92 6.48494 -3.88576 0
M  V30 19664 H 1790.18 7.21608 -2.94791 0
M  V30 19665 N 1794.41 1.22455 0.992094 0
M  V30 19666 C 1795.35 0.953144 2.08441 0
M  V30 19667 C 1796.36 -0.0685432 1.62656 0
M  V30 19668 O 1797.55 0.165561 1.77731 0
M  V30 19669 C 1794.65 0.412046 3.36386 0
M  V30 19670 C 1793.82 1.49114 4.11198 0
M  V30 19671 C 1792.88 0.956984 5.17425 0
M  V30 19672 O 1791.91 1.64337 5.44961 0
M  V30 19673 N 1793.11 -0.221205 5.80078 0
M  V30 19674 H 1795.87 1.89353 2.32305 0
M  V30 19675 H 1793.43 1.13155 1.15791 0
M  V30 19676 H 1795.43 0.0400033 4.0468 0
M  V30 19677 H 1794 -0.433473 3.0958 0
M  V30 19678 H 1793.22 2.03647 3.37523 0
M  V30 19679 H 1794.5 2.21716 4.57951 0
M  V30 19680 H 1793.9 -0.795642 5.60077 0
M  V30 19681 H 1792.46 -0.534625 6.49604 0
M  V30 19682 N 1795.89 -1.18905 1.03437 0
M  V30 19683 C 1796.84 -2.22318 0.619933 0
M  V30 19684 C 1797.81 -1.61948 -0.369056 0
M  V30 19685 O 1798.99 -1.88958 -0.26447 0
M  V30 19686 C 1796.13 -3.45096 -0.0174579 0
M  V30 19687 C 1795.25 -4.19829 1.01823 0
M  V30 19688 C 1794.38 -5.30046 0.350026 0
M  V30 19689 C 1793.42 -5.96543 1.37125 0
M  V30 19690 N 1792.56 -6.98311 0.728458 0
M  V30 19691 H 1797.4 -2.57125 1.50634 0
M  V30 19692 H 1794.93 -1.26324 0.753695 0
M  V30 19693 H 1796.89 -4.15236 -0.404294 0
M  V30 19694 H 1795.52 -3.10927 -0.867412 0
M  V30 19695 H 1794.57 -3.48578 1.52308 0
M  V30 19696 H 1795.89 -4.65415 1.79416 0
M  V30 19697 H 1795.04 -6.06631 -0.0913585 0
M  V30 19698 H 1793.78 -4.85544 -0.458049 0
M  V30 19699 H 1792.78 -5.18703 1.82284 0
M  V30 19700 H 1794.01 -6.43127 2.18091 0
M  V30 19701 H 1791.96 -6.55973 -0.0594251 0
M  V30 19702 H 1791.87 -7.42117 1.44218 0
M  V30 19703 H 1793.14 -7.78878 0.311259 0
M  V30 19704 N 1797.37 -0.812977 -1.35013 0
M  V30 19705 C 1798.3 -0.242397 -2.32238 0
M  V30 19706 C 1799.28 0.635676 -1.57776 0
M  V30 19707 O 1800.47 0.564621 -1.85811 0
M  V30 19708 C 1797.6 0.604686 -3.41995 0
M  V30 19709 C 1796.55 -0.17542 -4.2764 0
M  V30 19710 C 1795.88 0.793772 -5.28775 0
M  V30 19711 C 1797.18 -1.37802 -5.03794 0
M  V30 19712 H 1798.87 -1.0547 -2.80208 0
M  V30 19713 H 1796.42 -0.508619 -1.34718 0
M  V30 19714 H 1798.37 1.01396 -4.09019 0
M  V30 19715 H 1797.09 1.44994 -2.9265 0
M  V30 19716 H 1795.75 -0.565948 -3.62205 0
M  V30 19717 H 1795.4 1.63471 -4.75696 0
M  V30 19718 H 1795.1 0.276085 -5.86951 0
M  V30 19719 H 1796.62 1.20112 -5.9867 0
M  V30 19720 H 1798.04 -1.04328 -5.63727 0
M  V30 19721 H 1796.43 -1.83064 -5.71496 0
M  V30 19722 H 1797.5 -2.16138 -4.34065 0
M  V30 19723 N 1798.85 1.47045 -0.567045 0
M  V30 19724 C 1799.76 2.33924 0.177998 0
M  V30 19725 C 1800.77 1.48797 0.901967 0
M  V30 19726 O 1801.95 1.81704 0.868662 0
M  V30 19727 C 1799.01 3.25687 1.18865 0
M  V30 19728 C 1798.08 4.26708 0.471049 0
M  V30 19729 C 1797.31 5.14087 1.43355 0
M  V30 19730 O 1797.53 5.041 2.66907 0
M  V30 19731 O 1796.47 5.94313 0.952674 0
M  V30 19732 H 1800.29 2.98952 -0.534907 0
M  V30 19733 H 1797.88 1.45765 -0.327571 0
M  V30 19734 H 1799.76 3.82342 1.7718 0
M  V30 19735 H 1798.43 2.63274 1.8833 0
M  V30 19736 H 1797.34 3.73785 -0.153539 0
M  V30 19737 H 1798.67 4.91862 -0.182337 0
M  V30 19738 N 1800.33 0.304 1.5464 0
M  V30 19739 C 1801.27 -0.570762 2.23631 0
M  V30 19740 C 1802.24 -1.1272 1.21998 0
M  V30 19741 O 1803.43 -1.17117 1.50626 0
M  V30 19742 C 1800.57 -1.73533 2.98296 0
M  V30 19743 C 1799.68 -1.21 4.14708 0
M  V30 19744 C 1798.82 -2.33867 4.76948 0
M  V30 19745 C 1797.85 -1.78483 5.855 0
M  V30 19746 N 1796.99 -2.84935 6.41682 0
M  V30 19747 H 1801.83 0.024168 2.9799 0
M  V30 19748 H 1799.37 0.023697 1.47081 0
M  V30 19749 H 1801.33 -2.42031 3.39819 0
M  V30 19750 H 1799.96 -2.30184 2.26308 0
M  V30 19751 H 1799.01 -0.41718 3.78105 0
M  V30 19752 H 1800.32 -0.764576 4.92905 0
M  V30 19753 H 1799.47 -3.10306 5.21339 0
M  V30 19754 H 1798.21 -2.81737 3.9809 0
M  V30 19755 H 1797.22 -1.00534 5.4053 0
M  V30 19756 H 1798.44 -1.31513 6.66244 0
M  V30 19757 H 1796.39 -3.32133 5.65706 0
M  V30 19758 H 1796.31 -2.44898 7.15235 0
M  V30 19759 H 1797.57 -3.61263 6.90731 0
M  V30 19760 N 1801.8 -1.57568 0.0317802 0
M  V30 19761 C 1802.71 -2.13842 -0.964811 0
M  V30 19762 C 1803.73 -1.09134 -1.3552 0
M  V30 19763 O 1804.91 -1.41205 -1.43608 0
M  V30 19764 C 1801.97 -2.65654 -2.22775 0
M  V30 19765 C 1801.03 -3.85087 -1.89753 0
M  V30 19766 C 1800.26 -4.34419 -3.10026 0
M  V30 19767 O 1800.49 -3.8291 -4.22772 0
M  V30 19768 O 1799.42 -5.26233 -2.92169 0
M  V30 19769 H 1803.25 -2.99279 -0.516302 0
M  V30 19770 H 1800.83 -1.482 -0.188982 0
M  V30 19771 H 1802.71 -2.99035 -2.96911 0
M  V30 19772 H 1801.39 -1.83299 -2.66802 0
M  V30 19773 H 1800.3 -3.56628 -1.12994 0
M  V30 19774 H 1801.63 -4.68613 -1.50541 0
M  V30 19775 N 1803.28 0.241399 -1.5574 0
M  V30 19776 C 1804.23 1.29896 -1.90777 0
M  V30 19777 C 1805.2 1.47558 -0.76262 0
M  V30 19778 O 1806.38 1.61451 -1.01677 0
M  V30 19779 C 1803.52 2.6483 -2.21267 0
M  V30 19780 C 1802.64 2.5513 -3.48615 0
M  V30 19781 C 1801.77 3.82455 -3.68649 0
M  V30 19782 C 1800.81 3.67395 -4.89579 0
M  V30 19783 N 1799.95 4.86624 -5.06105 0
M  V30 19784 H 1804.79 0.993166 -2.80963 0
M  V30 19785 H 1802.33 0.47914 -1.39078 0
M  V30 19786 H 1804.28 3.4338 -2.36951 0
M  V30 19787 H 1802.91 2.93546 -1.34278 0
M  V30 19788 H 1801.97 1.6812 -3.41233 0
M  V30 19789 H 1803.28 2.39915 -4.37312 0
M  V30 19790 H 1802.43 4.69449 -3.84321 0
M  V30 19791 H 1801.17 4.00573 -2.78195 0
M  V30 19792 H 1800.18 2.78785 -4.73877 0
M  V30 19793 H 1801.4 3.50766 -5.81498 0
M  V30 19794 H 1799.35 5.05093 -4.18589 0
M  V30 19795 H 1799.26 4.7406 -5.889 0
M  V30 19796 H 1800.53 5.751 -5.26194 0
M  V30 19797 N 1804.76 1.49212 0.507292 0
M  V30 19798 C 1805.99 1.62343 1.29072 0
M  V30 19799 C 1806.41 0.292387 1.85814 0
M  V30 19800 O 1805.77 -0.739145 1.65549 0
M  V30 19801 C 1805.82 2.69017 2.40129 0
M  V30 19802 O 1804.92 2.27753 3.43806 0
M  V30 19803 H 1804.26 0.543591 0.38132 0
M  V30 19804 H 1806.79 1.95358 0.607997 0
M  V30 19805 H 1806.8 2.90992 2.85985 0
M  V30 19806 H 1805.48 3.65638 1.98195 0
M  V30 19807 H 1804.05 2.16084 3.03912 0
M  V30 19808 N 1806.24 -0.757876 1.38181 0
M  V30 19809 C 1807.15 -1.90234 1.37289 0
M  V30 19810 C 1808.16 -1.71883 0.270567 0
M  V30 19811 O 1809.34 -1.94881 0.508279 0
M  V30 19812 C 1806.41 -3.25546 1.19251 0
M  V30 19813 C 1805.47 -3.56452 2.39249 0
M  V30 19814 C 1804.7 -4.85308 2.22063 0
M  V30 19815 O 1804.92 -5.57373 1.2121 0
M  V30 19816 O 1803.86 -5.15594 3.10558 0
M  V30 19817 H 1807.68 -1.9394 2.33711 0
M  V30 19818 H 1805.27 -0.902559 1.19056 0
M  V30 19819 H 1807.15 -4.06454 1.11235 0
M  V30 19820 H 1805.82 -3.22661 0.259109 0
M  V30 19821 H 1804.73 -2.75723 2.52839 0
M  V30 19822 H 1806.06 -3.64094 3.31205 0
M  V30 19823 N 1807.72 -1.22979 -0.985586 0
M  V30 19824 C 1808.96 -1.05877 -1.72616 0
M  V30 19825 C 1809.29 0.405097 -1.90235 0
M  V30 19826 O 1808.55 1.31642 -1.44807 0
M  V30 19827 C 1808.85 -1.72346 -3.131 0
M  V30 19828 C 1808.51 -3.22256 -3.15376 0
M  V30 19829 C 1807.17 -3.63159 -3.15704 0
M  V30 19830 C 1809.53 -4.18174 -3.11094 0
M  V30 19831 C 1806.85 -4.98448 -3.09461 0
M  V30 19832 C 1809.21 -5.53449 -3.06393 0
M  V30 19833 C 1807.87 -5.93722 -3.05041 0
M  V30 19834 H 1807.14 -0.38743 -0.631648 0
M  V30 19835 H 1809.79 -1.52842 -1.15375 0
M  V30 19836 H 1808.09 -1.17725 -3.73695 0
M  V30 19837 H 1809.79 -1.56595 -3.6916 0
M  V30 19838 H 1806.38 -2.89692 -3.15875 0
M  V30 19839 H 1810.56 -3.87586 -3.09985 0
M  V30 19840 H 1805.82 -5.28873 -3.06763 0
M  V30 19841 H 1809.99 -6.27492 -3.02037 0
M  V30 19842 H 1807.62 -6.98519 -2.99958 0
M  V30 19843 N 1809.19 1.18355 -1.04066 0
M  V30 19844 C 1810.14 2.21987 -0.631714 0
M  V30 19845 C 1811.11 1.62142 0.360462 0
M  V30 19846 O 1812.3 1.89096 0.254445 0
M  V30 19847 C 1809.44 3.451 -0.000843566 0
M  V30 19848 C 1808.55 4.19283 -1.04048 0
M  V30 19849 C 1807.68 5.29852 -0.37813 0
M  V30 19850 C 1806.72 5.95807 -1.40287 0
M  V30 19851 N 1805.86 6.97915 -0.765481 0
M  V30 19852 H 1810.7 2.56323 -1.51995 0
M  V30 19853 H 1808.24 1.25923 -0.760384 0
M  V30 19854 H 1810.2 4.15445 0.382267 0
M  V30 19855 H 1808.83 3.11383 0.850911 0
M  V30 19856 H 1807.88 3.47765 -1.54154 0
M  V30 19857 H 1809.19 4.64457 -1.81882 0
M  V30 19858 H 1808.34 6.06671 0.059186 0
M  V30 19859 H 1807.08 4.8578 0.432293 0
M  V30 19860 H 1806.09 5.17729 -1.85032 0
M  V30 19861 H 1807.31 6.41962 -2.21499 0
M  V30 19862 H 1805.26 6.55995 0.0246364 0
M  V30 19863 H 1805.18 7.41341 -1.48152 0
M  V30 19864 H 1806.44 7.78702 -0.35256 0
M  V30 19865 N 1810.67 0.820125 1.3458 0
M  V30 19866 C 1811.6 0.254709 2.32107 0
M  V30 19867 C 1812.58 -0.6273 1.58111 0
M  V30 19868 O 1813.77 -0.554759 1.86108 0
M  V30 19869 C 1810.9 -0.586541 3.42311 0
M  V30 19870 C 1809.85 0.198096 4.27541 0
M  V30 19871 C 1809.18 -0.765718 5.29189 0
M  V30 19872 C 1810.48 1.40472 5.03056 0
M  V30 19873 H 1812.17 1.06955 2.79644 0
M  V30 19874 H 1809.72 0.515756 1.34447 0
M  V30 19875 H 1811.67 -0.992259 4.09551 0
M  V30 19876 H 1810.4 -1.4344 2.93415 0
M  V30 19877 H 1809.05 0.585149 3.619 0
M  V30 19878 H 1808.7 -1.60946 4.76556 0
M  V30 19879 H 1808.4 -0.244954 5.87089 0
M  V30 19880 H 1809.93 -1.16935 5.99298 0
M  V30 19881 H 1811.34 1.07316 5.63166 0
M  V30 19882 H 1809.74 1.86092 5.70517 0
M  V30 19883 H 1810.81 2.18437 4.32913 0
M  V30 19884 N 1812.15 -1.46743 0.574835 0
M  V30 19885 C 1813.06 -2.34015 -0.16559 0
M  V30 19886 C 1814.08 -1.49273 -0.894064 0
M  V30 19887 O 1815.25 -1.82162 -0.859013 0
M  V30 19888 C 1812.32 -3.26313 -1.17136 0
M  V30 19889 C 1811.38 -4.26952 -0.448413 0
M  V30 19890 C 1810.61 -5.1484 -1.40627 0
M  V30 19891 O 1810.83 -5.05508 -2.6423 0
M  V30 19892 O 1809.77 -5.9481 -0.921143 0
M  V30 19893 H 1813.59 -2.98664 0.550754 0
M  V30 19894 H 1811.18 -1.45589 0.335297 0
M  V30 19895 H 1813.06 -3.83276 -1.75149 0
M  V30 19896 H 1811.74 -2.64269 -1.86931 0
M  V30 19897 H 1810.64 -3.73698 0.17336 0
M  V30 19898 H 1811.98 -4.91759 0.208419 0
M  V30 19899 N 1813.63 -0.312197 -1.54477 0
M  V30 19900 C 1814.56 0.551829 -2.26886 0
M  V30 19901 C 1815.54 1.12874 -1.27254 0
M  V30 19902 O 1816.72 1.15599 -1.56046 0
M  V30 19903 C 1813.85 1.71839 -3.01809 0
M  V30 19904 C 1812.81 1.27131 -4.08683 0
M  V30 19905 C 1812.13 2.52392 -4.71384 0
M  V30 19906 C 1813.43 0.394413 -5.20809 0
M  V30 19907 H 1815.13 -0.0521331 -2.99355 0
M  V30 19908 H 1812.67 -0.0265138 -1.43976 0
M  V30 19909 H 1814.63 2.32903 -3.5119 0
M  V30 19910 H 1813.35 2.34876 -2.26938 0
M  V30 19911 H 1812.01 0.683666 -3.60169 0
M  V30 19912 H 1811.66 3.13768 -3.93139 0
M  V30 19913 H 1811.36 2.23174 -5.43569 0
M  V30 19914 H 1812.88 3.14239 -5.23533 0
M  V30 19915 H 1814.3 0.911031 -5.66015 0
M  V30 19916 H 1812.69 0.195517 -5.99781 0
M  V30 19917 H 1813.76 -0.577661 -4.81447 0
M  V30 19918 N 1815.11 1.57549 -0.040136 0
M  V30 19919 C 1816.38 1.83571 0.675355 0
M  V30 19920 C 1816.76 0.926313 1.89691 0
M  V30 19921 O 1816.11 -0.0153869 2.28495 0
M  V30 19922 C 1816.32 3.33046 1.04313 0
M  V30 19923 C 1817.67 3.99791 1.43011 0
M  V30 19924 O 1818.69 3.37607 1.13579 0
M  V30 19925 O 1817.55 5.09412 1.97893 0
M  V30 19926 H 1814.65 0.75729 0.332325 0
M  V30 19927 H 1817.19 1.69561 -0.0686584 0
M  V30 19928 H 1815.96 3.90912 0.174189 0
M  V30 19929 H 1815.59 3.52203 1.84495 0
M  V30 19930 N 1816.58 -0.233136 1.55866 0
M  V30 19931 C 1817.86 -0.982866 1.69113 0
M  V30 19932 C 1818.24 -2.0286 0.584041 0
M  V30 19933 O 1817.59 -2.24781 -0.410606 0
M  V30 19934 C 1817.8 -1.60378 3.09967 0
M  V30 19935 C 1819.15 -2.10044 3.69008 0
M  V30 19936 O 1820.17 -1.70294 3.12855 0
M  V30 19937 O 1819.03 -2.8307 4.67476 0
M  V30 19938 H 1816.12 -0.458373 0.688348 0
M  V30 19939 H 1818.67 -0.225833 1.68191 0
M  V30 19940 H 1817.44 -0.848104 3.81999 0
M  V30 19941 H 1817.07 -2.42666 3.14959 0
M  V30 19942 N 1818.06 -1.49479 -0.499372 0
M  V30 19943 C 1819.31 -1.59284 -1.25525 0
M  V30 19944 C 1819.64 -0.27941 -1.92179 0
M  V30 19945 O 1818.92 0.717142 -1.80796 0
M  V30 19946 C 1819.2 -2.75323 -2.32098 0
M  V30 19947 C 1819.05 -4.16464 -1.69934 0
M  V30 19948 C 1820.37 -2.86998 -3.33646 0
M  V30 19949 H 1817.49 -0.579768 -0.455015 0
M  V30 19950 H 1820.13 -1.81769 -0.553165 0
M  V30 19951 H 1818.28 -2.56282 -2.91979 0
M  V30 19952 H 1819.96 -4.47026 -1.13867 0
M  V30 19953 H 1818.2 -4.22036 -1.0034 0
M  V30 19954 H 1818.87 -4.93534 -2.47242 0
M  V30 19955 H 1821.35 -3.04337 -2.83757 0
M  V30 19956 H 1820.22 -3.69865 -4.05575 0
M  V30 19957 H 1820.48 -1.96419 -3.9607 0
M  V30 19958 N 1819.54 0.750537 -1.38581 0
M  V30 19959 C 1820.77 1.53978 -1.38196 0
M  V30 19960 C 1821.18 1.8878 0.0274976 0
M  V30 19961 O 1820.54 1.52997 0.994894 0
M  V30 19962 C 1820.59 2.83702 -2.24043 0
M  V30 19963 O 1820.31 2.50384 -3.59499 0
M  V30 19964 C 1821.81 3.77823 -2.31872 0
M  V30 19965 H 1819.03 0.476345 -0.472585 0
M  V30 19966 H 1821.58 0.928634 -1.82199 0
M  V30 19967 H 1819.73 3.41187 -1.83494 0
M  V30 19968 H 1820.15 3.33605 -4.04732 0
M  V30 19969 H 1821.62 4.65788 -2.96218 0
M  V30 19970 H 1822.1 4.18474 -1.33327 0
M  V30 19971 H 1822.7 3.26262 -2.72824 0
M  V30 19972 N 1821.02 1.235 0.979051 0
M  V30 19973 C 1822.24 1.09551 1.76106 0
M  V30 19974 C 1822.67 -0.348792 1.84838 0
M  V30 19975 O 1822.03 -1.25231 1.31099 0
M  V30 19976 C 1822.08 1.7272 3.16544 0
M  V30 19977 O 1821.18 0.990263 4.00334 0
M  V30 19978 H 1820.52 0.383909 0.541766 0
M  V30 19979 H 1823.05 1.63581 1.22892 0
M  V30 19980 H 1823.06 1.78014 3.67117 0
M  V30 19981 H 1821.74 2.77813 3.09504 0
M  V30 19982 H 1820.31 1.01436 3.58839 0
M  V30 19983 N 1822.5 -1.17802 1.04693 0
M  V30 19984 C 1823.45 -2.23698 0.637319 0
M  V30 19985 C 1824.44 -1.65974 -0.338957 0
M  V30 19986 O 1825.65 -1.78822 -0.205565 0
M  V30 19987 H 1822.02 -0.728146 0.187903 0
M  V30 19988 H 1823.99 -2.55549 1.5407 0
M  V30 19989 C 1822.74 -3.47693 0.0227662 0
M  V30 19990 H 1822.06 -3.92412 0.765058 0
M  V30 19991 H 1823.5 -4.23394 -0.22653 0
M  V30 19992 C 1821.96 -3.13679 -1.22912 0
M  V30 19993 O 1822.49 -3.27993 -2.31913 0
M  V30 19994 N 1820.7 -2.67948 -1.12483 0
M  V30 19995 H 1820.25 -2.565 -0.237818 0
M  V30 19996 H 1820.2 -2.45562 -1.96333 0
M  V30 19997 N 1823.98 -0.827251 -1.34143 0
M  V30 19998 C 1824.91 -0.197383 -2.27345 0
M  V30 19999 C 1825.89 0.648729 -1.49098 0
M  V30 20000 O 1827.07 0.611527 -1.78305 0
M  V30 20001 C 1824.2 0.723918 -3.30873 0
M  V30 20002 C 1823.24 -0.0452254 -4.26476 0
M  V30 20003 S 1824.08 -1.39531 -5.17002 0
M  V30 20004 C 1825.23 -0.478996 -6.24064 0
M  V30 20005 H 1825.47 -0.987544 -2.80419 0
M  V30 20006 H 1823 -0.623379 -1.41256 0
M  V30 20007 H 1824.96 1.2499 -3.91009 0
M  V30 20008 H 1823.62 1.48764 -2.76637 0
M  V30 20009 H 1822.81 0.655335 -4.99721 0
M  V30 20010 H 1822.41 -0.5019 -3.70617 0
M  V30 20011 H 1824.7 0.327755 -6.76707 0
M  V30 20012 H 1825.65 -1.18126 -6.98178 0
M  V30 20013 H 1826.06 -0.0655033 -5.64462 0
M  V30 20014 N 1825.45 1.46436 -0.582609 0
M  V30 20015 C 1826.36 2.34099 0.153178 0
M  V30 20016 C 1827.38 1.49745 0.886135 0
M  V30 20017 O 1828.56 1.82615 0.849341 0
M  V30 20018 C 1825.62 3.26929 1.15404 0
M  V30 20019 C 1824.68 4.27183 0.425764 0
M  V30 20020 C 1823.91 5.15578 1.37895 0
M  V30 20021 O 1824.14 5.06903 2.61545 0
M  V30 20022 O 1823.07 5.9529 0.889585 0
M  V30 20023 H 1826.9 2.98368 -0.566585 0
M  V30 20024 H 1824.48 1.45409 -0.343013 0
M  V30 20025 H 1826.36 3.842 1.73114 0
M  V30 20026 H 1825.04 2.65257 1.85527 0
M  V30 20027 H 1823.95 3.73601 -0.193175 0
M  V30 20028 H 1825.28 4.91641 -0.234496 0
M  V30 20029 N 1826.93 0.320385 1.54309 0
M  V30 20030 C 1827.86 -0.580992 2.21714 0
M  V30 20031 C 1828.88 -1.08236 1.21609 0
M  V30 20032 O 1830.07 -0.996489 1.48096 0
M  V30 20033 C 1827.17 -1.80961 2.86542 0
M  V30 20034 C 1826.34 -1.44746 4.12756 0
M  V30 20035 C 1825.4 -2.53327 4.61207 0
M  V30 20036 O 1824.42 -2.17605 5.25963 0
M  V30 20037 N 1825.63 -3.84204 4.35164 0
M  V30 20038 H 1828.39 -0.00384608 2.997 0
M  V30 20039 H 1825.95 0.143444 1.61263 0
M  V30 20040 H 1827.94 -2.52985 3.1588 0
M  V30 20041 H 1826.51 -2.29468 2.12281 0
M  V30 20042 H 1825.73 -0.55899 3.90217 0
M  V30 20043 H 1827.02 -1.18116 4.949 0
M  V30 20044 H 1826.42 -4.16026 3.83326 0
M  V30 20045 H 1824.98 -4.52468 4.69165 0
M  V30 20046 N 1828.41 -1.57525 0.0484906 0
M  V30 20047 C 1829.66 -1.91761 -0.625335 0
M  V30 20048 C 1829.97 -0.928421 -1.72162 0
M  V30 20049 O 1831.18 -1.16273 -2.45342 0
M  V30 20050 C 1829.63 -3.40571 -1.1636 0
M  V30 20051 C 1829.24 -4.47889 -0.0995687 0
M  V30 20052 C 1830.99 -3.83845 -1.81282 0
M  V30 20053 C 1828.89 -5.87811 -0.650563 0
M  V30 20054 H 1827.82 -0.71567 -0.237346 0
M  V30 20055 H 1830.47 -1.83127 0.116944 0
M  V30 20056 H 1828.86 -3.44201 -1.95811 0
M  V30 20057 H 1830.03 -4.55846 0.673904 0
M  V30 20058 H 1828.34 -4.13939 0.452038 0
M  V30 20059 H 1830.94 -4.8575 -2.23497 0
M  V30 20060 H 1831.28 -3.19947 -2.66345 0
M  V30 20061 H 1831.82 -3.8272 -1.08491 0
M  V30 20062 H 1828.56 -6.55299 0.162371 0
M  V30 20063 H 1828.08 -5.83422 -1.39208 0
M  V30 20064 H 1829.76 -6.36979 -1.1343 0
M  V30 20065 N 1829.89 0.224867 -1.55988 0
M  V30 20066 C 1831.14 0.947776 -1.78045 0
M  V30 20067 C 1831.45 1.85632 -0.616454 0
M  V30 20068 O 1832.66 2.61763 -0.720579 0
M  V30 20069 C 1831.11 1.73546 -3.15293 0
M  V30 20070 C 1830.72 0.873219 -4.39407 0
M  V30 20071 C 1832.46 2.44978 -3.46679 0
M  V30 20072 C 1830.37 1.65806 -5.67682 0
M  V30 20073 H 1829.3 0.357623 -0.663793 0
M  V30 20074 H 1831.95 0.201754 -1.82388 0
M  V30 20075 H 1830.33 2.52426 -3.05118 0
M  V30 20076 H 1831.51 0.125187 -4.6063 0
M  V30 20077 H 1829.82 0.271179 -4.15516 0
M  V30 20078 H 1832.42 3.04192 -4.3974 0
M  V30 20079 H 1832.76 3.17699 -2.69023 0
M  V30 20080 H 1833.3 1.7309 -3.58168 0
M  V30 20081 H 1830.03 0.974191 -6.4822 0
M  V30 20082 H 1829.55 2.38079 -5.50526 0
M  V30 20083 H 1831.23 2.21959 -6.07736 0
M  V30 20084 N 1831.37 1.49742 0.491438 0
M  V30 20085 C 1832.31 1.67115 1.59189 0
M  V30 20086 C 1833.28 0.512523 1.57995 0
M  V30 20087 O 1834.47 0.740693 1.75836 0
M  V30 20088 C 1831.61 1.75258 2.97286 0
M  V30 20089 C 1830.72 3.02488 3.08424 0
M  V30 20090 C 1829.86 3.0155 4.37311 0
M  V30 20091 C 1828.89 4.2332 4.42116 0
M  V30 20092 N 1828.03 4.20238 5.62445 0
M  V30 20093 H 1832.87 2.61073 1.43683 0
M  V30 20094 H 1830.41 1.29435 0.69892 0
M  V30 20095 H 1832.37 1.77959 3.77341 0
M  V30 20096 H 1831 0.847568 3.11474 0
M  V30 20097 H 1830.05 3.09353 2.21371 0
M  V30 20098 H 1831.36 3.92479 3.07834 0
M  V30 20099 H 1830.51 3.02868 5.25695 0
M  V30 20100 H 1829.25 2.09354 4.4048 0
M  V30 20101 H 1828.26 4.22236 3.52132 0
M  V30 20102 H 1829.48 5.1672 4.40656 0
M  V30 20103 H 1827.43 3.30884 5.66438 0
M  V30 20104 H 1827.35 5.03974 5.63512 0
M  V30 20105 H 1828.61 4.25672 6.53011 0
M  V30 20106 N 1832.84 -0.743177 1.38977 0
M  V30 20107 C 1833.81 -1.83876 1.36829 0
M  V30 20108 C 1834.81 -1.5857 0.266875 0
M  V30 20109 O 1836 -1.66121 0.524337 0
M  V30 20110 C 1833.13 -3.21528 1.1328 0
M  V30 20111 H 1834.32 -1.87186 2.3431 0
M  V30 20112 H 1831.88 -0.945979 1.24422 0
M  V30 20113 H 1832.61 -3.23883 0.164474 0
M  V30 20114 H 1832.4 -3.41292 1.93034 0
M  V30 20115 H 1833.89 -4.01597 1.14498 0
M  V30 20116 N 1834.32 -1.24018 -0.972487 0
M  V30 20117 C 1835.27 -1.02834 -2.06625 0
M  V30 20118 C 1836.24 0.056804 -1.66003 0
M  V30 20119 O 1837.42 -0.0968745 -1.90554 0
M  V30 20120 C 1834.56 -0.634103 -3.39224 0
M  V30 20121 C 1833.68 -1.79222 -3.93069 0
M  V30 20122 C 1832.81 -1.34401 -5.13916 0
M  V30 20123 C 1831.85 -2.47238 -5.59946 0
M  V30 20124 N 1830.99 -2.03319 -6.72016 0
M  V30 20125 H 1835.83 -1.96451 -2.24078 0
M  V30 20126 H 1833.37 -0.978545 -1.09831 0
M  V30 20127 H 1835.32 -0.386584 -4.15405 0
M  V30 20128 H 1833.95 0.26506 -3.2171 0
M  V30 20129 H 1833.01 -2.15353 -3.13572 0
M  V30 20130 H 1834.32 -2.64023 -4.23194 0
M  V30 20131 H 1833.47 -1.05509 -5.97455 0
M  V30 20132 H 1832.21 -0.466476 -4.85464 0
M  V30 20133 H 1831.22 -2.76895 -4.74983 0
M  V30 20134 H 1832.44 -3.35541 -5.90415 0
M  V30 20135 H 1830.39 -1.17956 -6.45308 0
M  V30 20136 H 1830.3 -2.81675 -7.01566 0
M  V30 20137 H 1831.57 -1.77553 -7.59009 0
M  V30 20138 N 1835.8 1.17245 -1.05316 0
M  V30 20139 C 1836.76 2.19508 -0.659467 0
M  V30 20140 C 1837.76 1.58169 0.289697 0
M  V30 20141 O 1838.95 1.74045 0.0734019 0
M  V30 20142 C 1836.09 3.40886 0.0311886 0
M  V30 20143 H 1837.28 2.55852 -1.5646 0
M  V30 20144 H 1834.83 1.31348 -0.847193 0
M  V30 20145 H 1835.57 3.10088 0.949535 0
M  V30 20146 H 1835.35 3.86655 -0.651191 0
M  V30 20147 H 1836.84 4.16573 0.292702 0
M  V30 20148 N 1837.28 0.834353 1.33702 0
M  V30 20149 C 1838.23 0.252818 2.31222 0
M  V30 20150 C 1839.22 -0.612723 1.57931 0
M  V30 20151 O 1840.43 -0.502788 1.72835 0
M  V30 20152 H 1836.8 0.0630243 0.749354 0
M  V30 20153 H 1838.77 1.08992 2.77783 0
M  V30 20154 C 1837.52 -0.561132 3.43142 0
M  V30 20155 H 1836.84 0.0955723 3.99686 0
M  V30 20156 H 1838.28 -0.933951 4.13586 0
M  V30 20157 C 1836.74 -1.73817 2.88599 0
M  V30 20158 O 1837.27 -2.83674 2.84415 0
M  V30 20159 N 1835.48 -1.5586 2.45267 0
M  V30 20160 H 1835.03 -0.664959 2.4887 0
M  V30 20161 H 1834.98 -2.34764 2.09125 0
M  V30 20162 N 1838.76 -1.46125 0.590367 0
M  V30 20163 C 1839.69 -2.33159 -0.126114 0
M  V30 20164 C 1840.67 -1.45806 -0.876057 0
M  V30 20165 O 1841.85 -1.7461 -0.850009 0
M  V30 20166 C 1838.98 -3.28217 -1.13537 0
M  V30 20167 C 1837.94 -4.25072 -0.499773 0
M  V30 20168 C 1837.26 -5.09694 -1.61605 0
M  V30 20169 C 1838.56 -5.19202 0.567992 0
M  V30 20170 H 1840.26 -2.93315 0.600577 0
M  V30 20171 H 1837.8 -1.41044 0.290265 0
M  V30 20172 H 1839.76 -3.87965 -1.64503 0
M  V30 20173 H 1838.48 -2.66185 -1.89244 0
M  V30 20174 H 1837.14 -3.66598 -0.0111313 0
M  V30 20175 H 1836.79 -4.44041 -2.36297 0
M  V30 20176 H 1836.49 -5.75292 -1.19637 0
M  V30 20177 H 1838.01 -5.72307 -2.12832 0
M  V30 20178 H 1839.42 -5.73121 0.143102 0
M  V30 20179 H 1837.82 -5.93184 0.908428 0
M  V30 20180 H 1838.89 -4.62671 1.45133 0
M  V30 20181 N 1840.23 -0.328564 -1.54137 0
M  V30 20182 C 1841.14 0.543922 -2.28207 0
M  V30 20183 C 1842.16 1.1249 -1.32748 0
M  V30 20184 O 1843.34 1.1438 -1.65769 0
M  V30 20185 C 1840.4 1.6864 -3.02922 0
M  V30 20186 C 1839.46 1.13672 -4.13977 0
M  V30 20187 C 1838.7 2.22474 -4.85119 0
M  V30 20188 O 1838.92 3.42914 -4.55813 0
M  V30 20189 O 1837.85 1.87611 -5.71914 0
M  V30 20190 H 1841.68 -0.0577601 -3.03645 0
M  V30 20191 H 1839.26 -0.0940895 -1.49103 0
M  V30 20192 H 1841.15 2.35143 -3.49693 0
M  V30 20193 H 1839.82 2.27417 -2.30355 0
M  V30 20194 H 1838.73 0.436625 -3.71543 0
M  V30 20195 H 1840.06 0.594012 -4.88602 0
M  V30 20196 N 1841.71 1.57497 -0.0568439 0
M  V30 20197 C 1842.66 2.11862 0.915593 0
M  V30 20198 C 1843.63 1.02738 1.30515 0
M  V30 20199 O 1844.81 1.30318 1.39362 0
M  V30 20200 C 1841.95 2.67269 2.18315 0
M  V30 20201 C 1841.07 3.90498 1.84757 0
M  V30 20202 C 1840.2 4.342 3.06013 0
M  V30 20203 C 1839.24 5.50115 2.68403 0
M  V30 20204 N 1838.38 5.88844 3.8237 0
M  V30 20205 H 1843.22 2.94657 0.445101 0
M  V30 20206 H 1840.76 1.45621 0.20807 0
M  V30 20207 H 1842.71 2.97494 2.92494 0
M  V30 20208 H 1841.34 1.87262 2.62931 0
M  V30 20209 H 1840.4 3.66828 1.00703 0
M  V30 20210 H 1841.71 4.7473 1.53077 0
M  V30 20211 H 1840.86 4.66008 3.88486 0
M  V30 20212 H 1839.6 3.4879 3.40876 0
M  V30 20213 H 1838.61 5.17973 1.84348 0
M  V30 20214 H 1839.83 6.37244 2.34726 0
M  V30 20215 H 1837.78 5.06387 4.17024 0
M  V30 20216 H 1837.69 6.67781 3.54407 0
M  V30 20217 H 1838.96 6.25269 4.65466 0
M  V30 20218 N 1843.19 -0.216591 1.56105 0
M  V30 20219 C 1844.12 -1.29579 1.87842 0
M  V30 20220 C 1845.1 -1.44974 0.73629 0
M  V30 20221 O 1846.29 -1.60708 0.985151 0
M  V30 20222 C 1843.41 -2.66544 2.08979 0
M  V30 20223 C 1842.46 -2.68136 3.3167 0
M  V30 20224 S 1843.29 -2.21708 4.87448 0
M  V30 20225 C 1844.45 -3.60539 5.11627 0
M  V30 20226 H 1844.68 -1.02465 2.79085 0
M  V30 20227 H 1842.21 -0.419071 1.48604 0
M  V30 20228 H 1844.17 -3.45394 2.2184 0
M  V30 20229 H 1842.83 -2.90879 1.18524 0
M  V30 20230 H 1842.03 -3.68796 3.4352 0
M  V30 20231 H 1841.63 -1.97352 3.17692 0
M  V30 20232 H 1843.92 -4.56263 5.0083 0
M  V30 20233 H 1844.86 -3.53601 6.13491 0
M  V30 20234 H 1845.27 -3.54456 4.39342 0
M  V30 20235 N 1844.67 -1.5 -0.48349 0
M  V30 20236 C 1845.91 -1.61998 -1.24644 0
M  V30 20237 C 1846.27 -0.307758 -1.89517 0
M  V30 20238 O 1847.47 -0.303059 -2.67086 0
M  V30 20239 C 1845.74 -2.75914 -2.27171 0
M  V30 20240 S 1847.3 -3.0797 -3.1257 0
M  V30 20241 H 1844.12 -0.571218 -0.423357 0
M  V30 20242 H 1846.72 -1.87734 -0.545555 0
M  V30 20243 H 1845.43 -3.69755 -1.7807 0
M  V30 20244 H 1844.96 -2.52225 -3.01904 0
M  V30 20245 H 1846.97 -2.50839 -4.28129 0
M  V30 20246 N 1846.15 0.735796 -1.39369 0
M  V30 20247 C 1847.56 1.04124 -1.20956 0
M  V30 20248 C 1847.76 2.01376 -0.0705944 0
M  V30 20249 O 1846.82 2.45795 0.577999 0
M  V30 20250 C 1848.13 1.60429 -2.54329 0
M  V30 20251 C 1849.68 1.72513 -2.61167 0
M  V30 20252 C 1850.15 2.32227 -3.94759 0
M  V30 20253 N 1851.65 2.39638 -3.96394 0
M  V30 20254 C 1852.38 2.86777 -4.96534 0
M  V30 20255 N 1851.88 3.3382 -6.07072 0
M  V30 20256 N 1853.67 2.85979 -4.83913 0
M  V30 20257 H 1845.82 0.0907834 -2.12206 0
M  V30 20258 H 1848.08 0.102896 -0.942399 0
M  V30 20259 H 1847.79 0.964351 -3.38221 0
M  V30 20260 H 1847.66 2.59247 -2.73991 0
M  V30 20261 H 1850.05 2.35629 -1.77659 0
M  V30 20262 H 1850.13 0.723507 -2.45355 0
M  V30 20263 H 1849.78 1.69739 -4.78697 0
M  V30 20264 H 1849.71 3.33066 -4.07891 0
M  V30 20265 H 1852.2 2.06388 -3.16563 0
M  V30 20266 H 1852.51 3.68297 -6.79395 0
M  V30 20267 H 1850.85 3.3183 -6.10666 0
M  V30 20268 H 1854.05 2.48551 -3.96661 0
M  V30 20269 H 1854.22 3.22403 -5.62104 0
M  V30 20270 N 1847.63 1.24532 0.965897 0
M  V30 20271 C 1848.85 1.11318 1.74401 0
M  V30 20272 C 1849.27 -0.33411 1.8582 0
M  V30 20273 O 1848.63 -1.23044 1.34783 0
M  V30 20274 C 1848.68 1.74927 3.16358 0
M  V30 20275 O 1848.4 3.13998 3.05511 0
M  V30 20276 C 1849.9 1.67347 4.105 0
M  V30 20277 H 1847.12 0.388835 0.546853 0
M  V30 20278 H 1849.66 1.64674 1.21255 0
M  V30 20279 H 1847.82 1.2557 3.66485 0
M  V30 20280 H 1848.23 3.45097 3.94979 0
M  V30 20281 H 1849.71 2.16533 5.07757 0
M  V30 20282 H 1850.18 0.635036 4.34585 0
M  V30 20283 H 1850.79 2.16139 3.66284 0
M  V30 20284 N 1849.1 -1.16685 1.05936 0
M  V30 20285 C 1850.03 -2.23129 0.688153 0
M  V30 20286 C 1851.01 -1.67108 -0.31765 0
M  V30 20287 O 1852.2 -1.93233 -0.193578 0
M  V30 20288 C 1849.33 -3.47229 0.069991 0
M  V30 20289 C 1848.28 -4.16121 1.00137 0
M  V30 20290 C 1847.61 -5.34131 0.246699 0
M  V30 20291 C 1848.91 -4.67508 2.32882 0
M  V30 20292 H 1850.6 -2.54436 1.57806 0
M  V30 20293 H 1848.15 -1.22298 0.76021 0
M  V30 20294 H 1850.1 -4.20918 -0.201545 0
M  V30 20295 H 1848.83 -3.15212 -0.854909 0
M  V30 20296 H 1847.49 -3.44355 1.25759 0
M  V30 20297 H 1847.13 -4.98366 -0.681204 0
M  V30 20298 H 1846.83 -5.81163 0.867373 0
M  V30 20299 H 1848.36 -6.10598 -0.0173762 0
M  V30 20300 H 1849.77 -5.32795 2.11666 0
M  V30 20301 H 1848.17 -5.25147 2.90414 0
M  V30 20302 H 1849.24 -3.83912 2.96209 0
M  V30 20303 N 1850.58 -0.841432 -1.33258 0
M  V30 20304 C 1851.49 -0.279006 -2.32935 0
M  V30 20305 C 1852.51 0.596298 -1.63463 0
M  V30 20306 O 1853.68 0.499812 -1.951 0
M  V30 20307 C 1850.75 0.534514 -3.42555 0
M  V30 20308 C 1849.81 -0.365366 -4.27742 0
M  V30 20309 C 1849.04 0.409423 -5.32127 0
M  V30 20310 O 1849.27 1.64085 -5.4629 0
M  V30 20311 O 1848.2 -0.217904 -6.01505 0
M  V30 20312 H 1852.03 -1.10448 -2.82904 0
M  V30 20313 H 1849.61 -0.60402 -1.36645 0
M  V30 20314 H 1851.49 0.996723 -4.09443 0
M  V30 20315 H 1850.17 1.33701 -2.94798 0
M  V30 20316 H 1849.07 -0.875469 -3.63712 0
M  V30 20317 H 1850.41 -1.1327 -4.78989 0
M  V30 20318 N 1852.06 1.4581 -0.598108 0
M  V30 20319 C 1853.34 1.95588 -0.0220376 0
M  V30 20320 C 1853.72 1.54066 1.44316 0
M  V30 20321 O 1853.06 0.798663 2.14088 0
M  V30 20322 C 1853.27 3.48366 -0.210204 0
M  V30 20323 C 1854.62 4.24513 -0.0860474 0
M  V30 20324 O 1855.65 3.55925 -0.139833 0
M  V30 20325 O 1854.51 5.46488 0.0367961 0
M  V30 20326 H 1851.6 0.825977 0.0411123 0
M  V30 20327 H 1854.15 1.56021 -0.667506 0
M  V30 20328 H 1852.92 3.71526 -1.22818 0
M  V30 20329 H 1852.54 3.94801 0.470974 0
M  V30 20330 N 1853.54 0.336733 1.53961 0
M  V30 20331 C 1854.47 -0.557444 2.22318 0
M  V30 20332 C 1855.48 -1.0694 1.2275 0
M  V30 20333 O 1856.67 -0.980725 1.49144 0
M  V30 20334 C 1853.77 -1.77911 2.88445 0
M  V30 20335 C 1852.94 -1.4036 4.14268 0
M  V30 20336 C 1852 -2.48421 4.63868 0
M  V30 20337 O 1851.03 -2.12014 5.28241 0
M  V30 20338 N 1852.23 -3.79567 4.39215 0
M  V30 20339 H 1855 0.0279413 2.99687 0
M  V30 20340 H 1852.56 0.16054 1.61102 0
M  V30 20341 H 1854.55 -2.49621 3.18546 0
M  V30 20342 H 1853.12 -2.27203 2.14703 0
M  V30 20343 H 1852.34 -0.517571 3.90787 0
M  V30 20344 H 1853.63 -1.1286 4.96125 0
M  V30 20345 H 1853.03 -4.11937 3.87717 0
M  V30 20346 H 1851.58 -4.47466 4.73938 0
M  V30 20347 N 1855.02 -1.57465 0.0651956 0
M  V30 20348 C 1855.95 -2.07935 -0.940127 0
M  V30 20349 C 1856.93 -0.982966 -1.29524 0
M  V30 20350 O 1858.11 -1.25589 -1.40569 0
M  V30 20351 C 1855.24 -2.53152 -2.25014 0
M  V30 20352 C 1854.28 -3.74162 -2.04707 0
M  V30 20353 S 1855.12 -5.19166 -1.3125 0
M  V30 20354 C 1856.27 -5.6771 -2.63545 0
M  V30 20355 H 1856.51 -2.92882 -0.510656 0
M  V30 20356 H 1854.04 -1.53695 -0.147413 0
M  V30 20357 H 1856 -2.79866 -3.00309 0
M  V30 20358 H 1854.66 -1.68486 -2.65087 0
M  V30 20359 H 1853.85 -4.03768 -3.01641 0
M  V30 20360 H 1853.45 -3.47787 -1.3755 0
M  V30 20361 H 1855.74 -5.74152 -3.59661 0
M  V30 20362 H 1856.69 -6.66705 -2.38558 0
M  V30 20363 H 1857.1 -4.95498 -2.70448 0
M  V30 20364 N 1856.49 0.20831 -1.56217 0
M  V30 20365 C 1857.44 1.27775 -1.94362 0
M  V30 20366 C 1858.44 1.47824 -0.827316 0
M  V30 20367 O 1859.64 1.48841 -1.01224 0
M  V30 20368 H 1856.02 0.428676 -0.617852 0
M  V30 20369 H 1857.99 0.928929 -2.83573 0
M  V30 20370 C 1856.74 2.61808 -2.28806 0
M  V30 20371 H 1856.06 2.47192 -3.14223 0
M  V30 20372 H 1857.5 3.35416 -2.59369 0
M  V30 20373 C 1855.96 3.17812 -1.1179 0
M  V30 20374 O 1856.49 3.99841 -0.385968 0
M  V30 20375 N 1854.69 2.7637 -0.898205 0
M  V30 20376 H 1854.24 2.0977 -1.49514 0
M  V30 20377 H 1854.2 3.14182 -0.117031 0
M  V30 20378 N 1857.97 1.50255 0.475528 0
M  V30 20379 C 1858.88 1.71573 1.6 0
M  V30 20380 C 1859.9 0.598748 1.63374 0
M  V30 20381 O 1861.07 0.876544 1.81325 0
M  V30 20382 C 1858.14 1.80117 2.96241 0
M  V30 20383 C 1857.2 3.03831 3.03291 0
M  V30 20384 C 1856.43 3.11958 4.33033 0
M  V30 20385 O 1856.66 2.26995 5.23287 0
M  V30 20386 O 1855.59 4.04647 4.45583 0
M  V30 20387 H 1859.42 2.66884 1.44937 0
M  V30 20388 H 1857 1.34298 0.654553 0
M  V30 20389 H 1858.88 1.87943 3.77167 0
M  V30 20390 H 1857.56 0.879896 3.11512 0
M  V30 20391 H 1856.46 3.01508 2.21458 0
M  V30 20392 H 1857.8 3.95523 2.92955 0
M  V30 20393 N 1859.45 -0.728395 1.39758 0
M  V30 20394 C 1860.4 -1.83374 1.35491 0
M  V30 20395 C 1861.38 -1.5918 0.234629 0
M  V30 20396 O 1862.58 -1.70571 0.472703 0
M  V30 20397 C 1859.7 -3.21373 1.20725 0
M  V30 20398 C 1858.79 -3.51373 2.37482 0
M  V30 20399 N 1859.18 -3.52269 3.6296 0
M  V30 20400 C 1857.48 -3.81769 2.30583 0
M  V30 20401 C 1858.18 -3.80252 4.40208 0
M  V30 20402 N 1857.16 -3.98359 3.6988 0
M  V30 20403 H 1860.96 -1.82381 2.30465 0
M  V30 20404 H 1858.47 -0.926941 1.33348 0
M  V30 20405 H 1860.47 -4.00509 1.15751 0
M  V30 20406 H 1859.13 -3.236 0.267072 0
M  V30 20407 H 1860.14 -3.33423 3.96295 0
M  V30 20408 H 1856.82 -3.91562 1.44862 0
M  V30 20409 H 1858.21 -3.87357 5.49003 0
M  V30 20410 N 1860.93 -1.25042 -0.959279 0
M  V30 20411 C 1862.34 -1.01764 -1.22948 0
M  V30 20412 C 1862.54 0.268402 -1.99704 0
M  V30 20413 O 1861.6 0.982348 -2.32607 0
M  V30 20414 C 1862.91 -2.23794 -2.0084 0
M  V30 20415 C 1864.46 -2.28507 -2.13901 0
M  V30 20416 C 1864.94 -3.50181 -2.9519 0
M  V30 20417 N 1866.43 -3.50549 -3.0277 0
M  V30 20418 C 1867.16 -4.41357 -3.66049 0
M  V30 20419 N 1866.66 -5.42431 -4.30976 0
M  V30 20420 N 1868.45 -4.29049 -3.63143 0
M  V30 20421 H 1860.6 -2.07672 -0.445667 0
M  V30 20422 H 1862.86 -0.91176 -0.259611 0
M  V30 20423 H 1862.57 -3.17237 -1.51835 0
M  V30 20424 H 1862.44 -2.26592 -3.01556 0
M  V30 20425 H 1864.83 -1.3559 -2.62105 0
M  V30 20426 H 1864.91 -2.29731 -1.12505 0
M  V30 20427 H 1864.56 -4.43417 -2.47677 0
M  V30 20428 H 1864.49 -3.46202 -3.96802 0
M  V30 20429 H 1866.98 -2.77432 -2.56593 0
M  V30 20430 H 1867.29 -6.07941 -4.77104 0
M  V30 20431 H 1865.64 -5.46308 -4.29619 0
M  V30 20432 H 1868.83 -3.49317 -3.11601 0
M  V30 20433 H 1869 -5.00017 -4.12174 0
M  V30 20434 N 1862.41 1.16121 -1.06553 0
M  V30 20435 C 1863.63 1.91152 -0.804706 0
M  V30 20436 C 1864.06 1.77045 0.635338 0
M  V30 20437 O 1863.41 1.09757 1.44302 0
M  V30 20438 C 1863.46 3.39782 -1.20751 0
M  V30 20439 O 1862.57 4.1093 -0.347889 0
M  V30 20440 H 1861.91 0.595433 -0.293863 0
M  V30 20441 H 1864.44 1.47104 -1.42203 0
M  V30 20442 H 1864.45 3.90558 -1.1802 0
M  V30 20443 H 1863.12 3.49369 -2.25642 0
M  V30 20444 H 1861.7 3.70331 -0.436993 0
M  V30 20445 N 1863.88 0.848487 1.3281 0
M  V30 20446 C 1864.83 0.286636 2.29013 0
M  V30 20447 C 1865.8 -0.602944 1.5477 0
M  V30 20448 O 1866.99 -0.539169 1.83024 0
M  V30 20449 C 1864.13 -0.524193 3.41096 0
M  V30 20450 C 1863.24 0.390486 4.30232 0
M  V30 20451 C 1862.37 -0.432376 5.29437 0
M  V30 20452 C 1861.41 0.48009 6.10214 0
M  V30 20453 N 1860.55 -0.30522 7.01436 0
M  V30 20454 H 1865.39 1.1123 2.76463 0
M  V30 20455 H 1862.93 0.559956 1.36025 0
M  V30 20456 H 1864.89 -1.00987 4.04793 0
M  V30 20457 H 1863.52 -1.31474 2.94813 0
M  V30 20458 H 1862.57 0.994518 3.6717 0
M  V30 20459 H 1863.88 1.09103 4.86722 0
M  V30 20460 H 1863.03 -0.981471 5.98709 0
M  V30 20461 H 1861.77 -1.16631 4.73549 0
M  V30 20462 H 1860.78 1.04112 5.39853 0
M  V30 20463 H 1862 1.21254 6.68187 0
M  V30 20464 H 1859.95 -1.02236 6.47984 0
M  V30 20465 H 1859.87 0.336414 7.55251 0
M  V30 20466 H 1861.13 -0.836242 7.75001 0
M  V30 20467 N 1865.36 -1.4549 0.605832 0
M  V30 20468 C 1866.33 -2.28964 -0.104089 0
M  V30 20469 C 1867.33 -1.39671 -0.796791 0
M  V30 20470 O 1868.52 -1.6181 -0.645221 0
M  V30 20471 C 1865.65 -3.20647 -1.1575 0
M  V30 20472 H 1866.84 -2.93213 0.629776 0
M  V30 20473 H 1864.39 -1.51983 0.3648 0
M  V30 20474 H 1865.13 -2.61194 -1.92219 0
M  V30 20475 H 1864.91 -3.86419 -0.665025 0
M  V30 20476 H 1866.4 -3.83416 -1.65474 0
M  V30 20477 N 1866.84 -0.344893 -1.5378 0
M  V30 20478 C 1867.75 0.519687 -2.28772 0
M  V30 20479 C 1868.77 1.11076 -1.33934 0
M  V30 20480 O 1869.94 1.12615 -1.66972 0
M  V30 20481 C 1867.01 1.65417 -3.04693 0
M  V30 20482 C 1866.07 1.09275 -4.1516 0
M  V30 20483 C 1865.3 2.17316 -4.87452 0
M  V30 20484 O 1865.52 3.38061 -4.59425 0
M  V30 20485 O 1864.46 1.81535 -5.73872 0
M  V30 20486 H 1868.28 -0.0899625 -3.03567 0
M  V30 20487 H 1865.87 -0.109899 -1.48995 0
M  V30 20488 H 1867.75 2.31421 -3.52168 0
M  V30 20489 H 1866.43 2.24961 -2.32754 0
M  V30 20490 H 1865.33 0.397193 -3.71985 0
M  V30 20491 H 1866.67 0.542156 -4.89205 0
M  V30 20492 N 1868.32 1.57428 -0.0735454 0
M  V30 20493 C 1869.23 2.16325 0.907775 0
M  V30 20494 C 1870.24 1.12689 1.32579 0
M  V30 20495 O 1871.42 1.44963 1.39813 0
M  V30 20496 C 1868.49 2.71467 2.15654 0
M  V30 20497 C 1867.55 3.89983 1.79476 0
M  V30 20498 C 1866.78 4.42486 2.98399 0
M  V30 20499 O 1867 3.93985 4.12471 0
M  V30 20500 O 1865.94 5.33794 2.78114 0
M  V30 20501 H 1869.76 3.00543 0.436771 0
M  V30 20502 H 1867.35 1.48649 0.149623 0
M  V30 20503 H 1869.23 3.06802 2.88878 0
M  V30 20504 H 1867.9 1.90308 2.61848 0
M  V30 20505 H 1866.81 3.59498 1.03499 0
M  V30 20506 H 1868.14 4.7244 1.38063 0
M  V30 20507 N 1869.8 -0.200022 1.56326 0
M  V30 20508 C 1871.02 -0.937503 1.84441 0
M  V30 20509 C 1871.44 -1.77058 0.655428 0
M  V30 20510 O 1870.8 -1.78587 -0.375913 0
M  V30 20511 C 1870.85 -1.83766 3.11307 0
M  V30 20512 O 1870.57 -1.03823 4.2562 0
M  V30 20513 C 1872.07 -2.68724 3.52565 0
M  V30 20514 H 1869.29 -0.273767 0.612611 0
M  V30 20515 H 1871.83 -0.208759 2.03432 0
M  V30 20516 H 1869.99 -2.52009 2.94228 0
M  V30 20517 H 1870.4 -1.6512 4.97831 0
M  V30 20518 H 1871.88 -3.2755 4.44314 0
M  V30 20519 H 1872.35 -3.4219 2.75323 0
M  V30 20520 H 1872.96 -2.0586 3.72158 0
M  V30 20521 N 1871.27 -1.50505 -0.467553 0
M  V30 20522 C 1872.21 -1.65784 -1.58267 0
M  V30 20523 C 1873.22 -0.539219 -1.53611 0
M  V30 20524 O 1874.41 -0.812524 -1.58935 0
M  V30 20525 C 1871.51 -1.62951 -2.97154 0
M  V30 20526 C 1870.68 -2.90903 -3.26641 0
M  V30 20527 C 1869.74 -2.80665 -4.451 0
M  V30 20528 O 1868.77 -3.5462 -4.45234 0
M  V30 20529 N 1869.97 -1.9446 -5.4696 0
M  V30 20530 H 1872.73 -2.6197 -1.45575 0
M  V30 20531 H 1870.29 -1.48013 -0.656029 0
M  V30 20532 H 1872.29 -1.53709 -3.74373 0
M  V30 20533 H 1870.86 -0.744855 -3.03596 0
M  V30 20534 H 1870.08 -3.14244 -2.38001 0
M  V30 20535 H 1871.36 -3.75663 -3.43155 0
M  V30 20536 H 1870.76 -1.33694 -5.49675 0
M  V30 20537 H 1869.32 -1.9112 -6.2315 0
M  V30 20538 N 1872.75 0.720973 -1.40142 0
M  V30 20539 C 1874.17 1.02835 -1.22054 0
M  V30 20540 C 1874.37 2.0129 -0.091949 0
M  V30 20541 O 1873.42 2.46395 0.551897 0
M  V30 20542 C 1874.74 1.57722 -2.56016 0
M  V30 20543 C 1876.29 1.69734 -2.62982 0
M  V30 20544 C 1876.76 2.28027 -3.972 0
M  V30 20545 N 1878.25 2.3542 -3.98913 0
M  V30 20546 C 1878.99 2.81495 -4.99548 0
M  V30 20547 N 1878.48 3.27362 -6.10578 0
M  V30 20548 N 1880.28 2.80831 -4.86919 0
M  V30 20549 H 1872.43 0.068271 -2.1229 0
M  V30 20550 H 1874.69 0.0928952 -0.943438 0
M  V30 20551 H 1874.4 0.928424 -3.39224 0
M  V30 20552 H 1874.27 2.56326 -2.76725 0
M  V30 20553 H 1876.66 2.33732 -1.80148 0
M  V30 20554 H 1876.74 0.697443 -2.46108 0
M  V30 20555 H 1876.38 1.64653 -4.80471 0
M  V30 20556 H 1876.31 3.28721 -4.114 0
M  V30 20557 H 1878.8 2.03019 -3.18735 0
M  V30 20558 H 1879.12 3.61071 -6.83263 0
M  V30 20559 H 1877.46 3.25335 -6.14152 0
M  V30 20560 H 1880.65 2.4433 -3.99275 0
M  V30 20561 H 1880.82 3.16423 -5.65492 0
M  V30 20562 N 1874.23 1.25549 0.952634 0
M  V30 20563 C 1875.46 1.13262 1.73743 0
M  V30 20564 C 1875.88 -0.309507 1.85536 0
M  V30 20565 O 1875.24 -1.22422 1.33726 0
M  V30 20566 C 1875.29 1.79395 3.12809 0
M  V30 20567 O 1874.39 1.07496 3.98144 0
M  V30 20568 H 1873.73 0.395314 0.5335 0
M  V30 20569 H 1876.26 1.66151 1.19394 0
M  V30 20570 H 1876.27 1.85761 3.63259 0
M  V30 20571 H 1874.95 2.84316 3.03542 0
M  V30 20572 H 1873.52 1.09025 3.56606 0
M  V30 20573 N 1875.71 -1.15554 1.07168 0
M  V30 20574 C 1876.95 -1.86572 0.794894 0
M  V30 20575 C 1877.29 -1.82007 -0.677276 0
M  V30 20576 O 1876.56 -1.2419 -1.4969 0
M  V30 20577 C 1876.85 -3.35762 1.30137 0
M  V30 20578 C 1876.7 -3.4897 2.83796 0
M  V30 20579 C 1878.02 -4.30453 0.916402 0
M  V30 20580 H 1875.14 -0.677448 0.29023 0
M  V30 20581 H 1877.78 -1.35772 1.32914 0
M  V30 20582 H 1875.93 -3.79156 0.846915 0
M  V30 20583 H 1877.6 -3.14452 3.37517 0
M  V30 20584 H 1875.84 -2.9059 3.22087 0
M  V30 20585 H 1876.51 -4.53782 3.14302 0
M  V30 20586 H 1878.99 -3.95008 1.30797 0
M  V30 20587 H 1877.87 -5.33329 1.29814 0
M  V30 20588 H 1878.13 -4.41742 -0.17785 0
M  V30 20589 N 1877.19 -0.855519 -1.32358 0
M  V30 20590 C 1878.14 -0.289571 -2.3079 0
M  V30 20591 C 1879.13 0.58752 -1.58885 0
M  V30 20592 O 1880.34 0.475228 -1.73613 0
M  V30 20593 H 1876.71 -0.0749379 -0.748257 0
M  V30 20594 H 1878.68 -1.13398 -2.76014 0
M  V30 20595 C 1877.43 0.50647 -3.43992 0
M  V30 20596 H 1876.75 -0.159147 -3.99483 0
M  V30 20597 H 1878.19 0.868035 -4.15019 0
M  V30 20598 C 1876.65 1.69203 -2.91328 0
M  V30 20599 O 1877.18 2.79113 -2.88892 0
M  V30 20600 N 1875.39 1.51938 -2.47716 0
M  V30 20601 H 1874.94 0.625282 -2.49896 0
M  V30 20602 H 1874.89 2.31407 -2.12834 0
M  V30 20603 N 1878.67 1.45167 -0.61354 0
M  V30 20604 C 1879.94 1.95553 -0.042781 0
M  V30 20605 C 1880.32 1.55588 1.42673 0
M  V30 20606 O 1879.67 0.821325 2.13229 0
M  V30 20607 C 1879.88 3.48124 -0.247141 0
M  V30 20608 C 1881.23 4.24398 -0.131068 0
M  V30 20609 O 1882.25 3.55757 -0.177576 0
M  V30 20610 O 1881.11 5.46496 -0.0211683 0
M  V30 20611 H 1878.21 0.826367 0.0323494 0
M  V30 20612 H 1880.75 1.55304 -0.684017 0
M  V30 20613 H 1879.52 3.70202 -1.26751 0
M  V30 20614 H 1879.15 3.95278 0.429074 0
M  V30 20615 N 1880.14 0.353044 1.53595 0
M  V30 20616 C 1881.07 -0.491481 2.28269 0
M  V30 20617 C 1882.05 -1.0946 1.30201 0
M  V30 20618 O 1883.24 -1.11421 1.59056 0
M  V30 20619 C 1880.37 -1.63776 3.06259 0
M  V30 20620 C 1879.32 -1.16251 4.1191 0
M  V30 20621 C 1878.65 -2.39805 4.7791 0
M  V30 20622 C 1879.95 -0.256191 5.21671 0
M  V30 20623 H 1881.64 0.131483 2.99111 0
M  V30 20624 H 1879.19 0.0646771 1.43855 0
M  V30 20625 H 1881.14 -2.2351 3.57241 0
M  V30 20626 H 1879.87 -2.28777 2.33085 0
M  V30 20627 H 1878.53 -0.587934 3.61855 0
M  V30 20628 H 1878.17 -3.03234 4.0132 0
M  V30 20629 H 1877.87 -2.08684 5.49295 0
M  V30 20630 H 1879.4 -3.00248 5.3168 0
M  V30 20631 H 1880.81 -0.760642 5.68232 0
M  V30 20632 H 1879.21 -0.0364273 6.00089 0
M  V30 20633 H 1880.28 0.705105 4.79746 0
M  V30 20634 N 1881.62 -1.57387 0.0818932 0
M  V30 20635 C 1882.85 -1.98201 -0.593645 0
M  V30 20636 C 1883.26 -0.960602 -1.62536 0
M  V30 20637 O 1882.62 0.0514903 -1.82427 0
M  V30 20638 C 1882.67 -3.39083 -1.2532 0
M  V30 20639 O 1882.39 -4.37311 -0.262763 0
M  V30 20640 C 1883.89 -3.94827 -2.0156 0
M  V30 20641 H 1881.11 -0.651606 -0.160159 0
M  V30 20642 H 1883.66 -2.03894 0.157281 0
M  V30 20643 H 1881.81 -3.34444 -1.95514 0
M  V30 20644 H 1882.23 -5.19294 -0.737169 0
M  V30 20645 H 1883.7 -4.95594 -2.43086 0
M  V30 20646 H 1884.18 -3.31921 -2.8762 0
M  V30 20647 H 1884.78 -4.02898 -1.36211 0
M  V30 20648 N 1883.1 0.191729 -1.56429 0
M  V30 20649 C 1884.32 0.931804 -1.85289 0
M  V30 20650 C 1884.75 1.7592 -0.665864 0
M  V30 20651 O 1884.11 1.77158 0.385313 0
M  V30 20652 C 1884.16 1.801 -3.12404 0
M  V30 20653 O 1883.26 2.9002 -2.93193 0
M  V30 20654 H 1882.6 0.262213 -0.610033 0
M  V30 20655 H 1885.13 0.196028 -2.03659 0
M  V30 20656 H 1885.14 2.20499 -3.43285 0
M  V30 20657 H 1883.82 1.19309 -3.9842 0
M  V30 20658 H 1882.39 2.53352 -2.73619 0
M  V30 20659 N 1884.58 1.50751 0.459565 0
M  V30 20660 C 1885.51 1.66621 1.57385 0
M  V30 20661 C 1886.52 0.547358 1.53323 0
M  V30 20662 O 1887.71 0.820941 1.58502 0
M  V30 20663 C 1884.81 1.64524 2.96285 0
M  V30 20664 C 1883.98 2.92631 3.25093 0
M  V30 20665 C 1883.04 2.83021 4.43605 0
M  V30 20666 O 1882.07 3.56977 4.43347 0
M  V30 20667 N 1883.27 1.97358 5.45921 0
M  V30 20668 H 1886.04 2.62738 1.44184 0
M  V30 20669 H 1883.6 1.48359 0.64817 0
M  V30 20670 H 1885.59 1.55693 3.73553 0
M  V30 20671 H 1884.16 0.760945 3.03197 0
M  V30 20672 H 1883.38 3.15502 2.36331 0
M  V30 20673 H 1884.67 3.77477 3.41157 0
M  V30 20674 H 1884.07 1.36608 5.48958 0
M  V30 20675 H 1882.62 1.94422 6.22128 0
M  V30 20676 N 1886.06 -0.713531 1.40522 0
M  V30 20677 C 1887.47 -1.02187 1.22597 0
M  V30 20678 C 1887.67 -2.01239 0.102623 0
M  V30 20679 O 1886.73 -2.46684 -0.538822 0
M  V30 20680 C 1888.04 -1.56362 2.56849 0
M  V30 20681 C 1889.59 -1.68337 2.63878 0
M  V30 20682 C 1890.06 -2.25918 3.98403 0
M  V30 20683 N 1891.55 -2.33301 4.00156 0
M  V30 20684 C 1892.29 -2.78842 5.01034 0
M  V30 20685 N 1891.79 -3.24119 6.12306 0
M  V30 20686 N 1893.58 -2.78244 4.88402 0
M  V30 20687 H 1885.73 -0.0570118 2.12323 0
M  V30 20688 H 1887.99 -0.0878906 0.943917 0
M  V30 20689 H 1887.7 -0.910421 3.39712 0
M  V30 20690 H 1887.57 -2.54855 2.78081 0
M  V30 20691 H 1889.96 -2.32773 1.81385 0
M  V30 20692 H 1890.04 -0.684382 2.46475 0
M  V30 20693 H 1889.68 -1.62102 4.81337 0
M  V30 20694 H 1889.61 -3.26534 4.13138 0
M  V30 20695 H 1892.11 -2.01326 3.19807 0
M  V30 20696 H 1892.42 -3.57442 6.85168 0
M  V30 20697 H 1890.76 -3.22073 6.15868 0
M  V30 20698 H 1893.95 -2.42209 4.00565 0
M  V30 20699 H 1894.13 -3.13419 5.67162 0
M  V30 20700 N 1887.53 -1.26053 -0.945962 0
M  V30 20701 C 1888.5 -1.07262 -2.02553 0
M  V30 20702 C 1889.5 -0.0225237 -1.60784 0
M  V30 20703 O 1890.69 -0.265501 -1.72165 0
M  V30 20704 C 1887.82 -0.63045 -3.3502 0
M  V30 20705 H 1889.01 -2.03105 -2.20655 0
M  V30 20706 H 1886.56 -1.08582 -1.12426 0
M  V30 20707 H 1887.3 0.330188 -3.22615 0
M  V30 20708 H 1887.08 -1.38863 -3.66687 0
M  V30 20709 H 1888.57 -0.520674 -4.14341 0
M  V30 20710 N 1889.01 1.14984 -1.07779 0
M  V30 20711 C 1889.96 2.19864 -0.702018 0
M  V30 20712 C 1890.93 1.63206 0.308695 0
M  V30 20713 O 1892.11 1.8981 0.194157 0
M  V30 20714 C 1889.25 3.44923 -0.110634 0
M  V30 20715 C 1888.37 4.1576 -1.17335 0
M  V30 20716 C 1887.5 5.28381 -0.546508 0
M  V30 20717 C 1886.54 5.91042 -1.59171 0
M  V30 20718 N 1885.68 6.95126 -0.987129 0
M  V30 20719 H 1890.52 2.51358 -1.60073 0
M  V30 20720 H 1888.05 1.2344 -0.80006 0
M  V30 20721 H 1890.01 4.16451 0.249903 0
M  V30 20722 H 1888.64 3.13932 0.751416 0
M  V30 20723 H 1887.69 3.42685 -1.6514 0
M  V30 20724 H 1889.01 4.58436 -1.96566 0
M  V30 20725 H 1888.16 6.06552 -0.133852 0
M  V30 20726 H 1886.9 4.8691 0.277527 0
M  V30 20727 H 1885.9 5.1158 -2.01409 0
M  V30 20728 H 1887.13 6.3459 -2.4181 0
M  V30 20729 H 1885.08 6.55742 -0.184076 0
M  V30 20730 H 1884.99 7.36253 -1.71662 0
M  V30 20731 H 1886.26 7.77186 -0.60012 0
M  V30 20732 N 1890.49 0.862526 1.31902 0
M  V30 20733 C 1891.42 0.328423 2.31179 0
M  V30 20734 C 1892.4 -0.57668 1.60026 0
M  V30 20735 O 1893.59 -0.49527 1.87778 0
M  V30 20736 C 1890.72 -0.47734 3.44004 0
M  V30 20737 C 1889.67 0.334015 4.26695 0
M  V30 20738 C 1889 -0.596973 5.31357 0
M  V30 20739 C 1890.3 1.56405 4.98332 0
M  V30 20740 H 1891.99 1.15797 2.761 0
M  V30 20741 H 1889.54 0.558268 1.32738 0
M  V30 20742 H 1891.49 -0.861461 4.12501 0
M  V30 20743 H 1890.21 -1.34033 2.9783 0
M  V30 20744 H 1888.87 0.699989 3.59855 0
M  V30 20745 H 1888.52 -1.45703 4.81435 0
M  V30 20746 H 1888.22 -0.0580517 5.87571 0
M  V30 20747 H 1889.74 -0.978099 6.02715 0
M  V30 20748 H 1891.16 1.25178 5.59467 0
M  V30 20749 H 1889.55 2.04149 5.64308 0
M  V30 20750 H 1890.62 2.32099 4.25744 0
M  V30 20751 N 1891.97 -1.4484 0.62123 0
M  V30 20752 C 1892.9 -2.28843 -0.127881 0
M  V30 20753 C 1893.91 -1.40726 -0.818542 0
M  V30 20754 O 1895.1 -1.64972 -0.681645 0
M  V30 20755 C 1892.2 -3.16837 -1.20281 0
M  V30 20756 C 1891.38 -4.33312 -0.5966 0
M  V30 20757 C 1890.43 -5.02414 -1.56419 0
M  V30 20758 O 1889.46 -5.5876 -1.08517 0
M  V30 20759 N 1890.66 -5.02953 -2.8986 0
M  V30 20760 H 1893.43 -2.93775 0.592994 0
M  V30 20761 H 1890.99 -1.55178 0.461679 0
M  V30 20762 H 1892.98 -3.59929 -1.85021 0
M  V30 20763 H 1891.55 -2.53722 -1.82603 0
M  V30 20764 H 1890.77 -3.93533 0.229203 0
M  V30 20765 H 1892.06 -5.08509 -0.17206 0
M  V30 20766 H 1891.46 -4.58489 -3.31367 0
M  V30 20767 H 1890.01 -5.49866 -3.49987 0
M  V30 20768 N 1893.45 -0.361184 -1.53405 0
M  V30 20769 C 1894.67 0.230765 -2.05609 0
M  V30 20770 C 1895.09 1.42805 -1.23499 0
M  V30 20771 O 1894.45 1.80423 -0.274582 0
M  V30 20772 C 1894.5 0.628571 -3.55993 0
M  V30 20773 O 1894.22 -0.521123 -4.3499 0
M  V30 20774 C 1895.72 1.27938 -4.24437 0
M  V30 20775 H 1892.94 0.0414193 -0.66972 0
M  V30 20776 H 1895.48 -0.518281 -1.97823 0
M  V30 20777 H 1893.64 1.32754 -3.63944 0
M  V30 20778 H 1894.05 -0.200483 -5.24117 0
M  V30 20779 H 1895.53 1.50832 -5.30993 0
M  V30 20780 H 1896 2.23834 -3.77882 0
M  V30 20781 H 1896.61 0.621961 -4.20728 0
M  V30 20782 N 1894.92 1.57341 -0.0902386 0
M  V30 20783 C 1895.83 2.17276 0.88478 0
M  V30 20784 C 1896.85 1.14089 1.31376 0
M  V30 20785 O 1898.03 1.46438 1.38268 0
M  V30 20786 C 1895.09 2.73739 2.12762 0
M  V30 20787 C 1894.15 3.91865 1.7533 0
M  V30 20788 C 1893.39 4.45626 2.93689 0
M  V30 20789 O 1893.61 3.98337 4.08269 0
M  V30 20790 O 1892.54 5.36714 2.72437 0
M  V30 20791 H 1896.37 3.00989 0.40487 0
M  V30 20792 H 1893.95 1.48799 0.133848 0
M  V30 20793 H 1895.84 3.09849 2.85608 0
M  V30 20794 H 1894.51 1.93075 2.59815 0
M  V30 20795 H 1893.42 3.60576 0.996799 0
M  V30 20796 H 1894.75 4.73878 1.33045 0
M  V30 20797 N 1896.4 -0.183431 1.56529 0
M  V30 20798 C 1897.35 -1.24666 1.9637 0
M  V30 20799 C 1898.34 -1.46489 0.850728 0
M  V30 20800 O 1899.55 -1.47212 1.03579 0
M  V30 20801 H 1895.93 -0.418792 0.624594 0
M  V30 20802 H 1897.9 -0.883697 2.85015 0
M  V30 20803 C 1896.65 -2.58135 2.32942 0
M  V30 20804 H 1895.97 -2.42162 3.18116 0
M  V30 20805 H 1897.41 -3.31247 2.64672 0
M  V30 20806 C 1895.87 -3.15993 1.16832 0
M  V30 20807 O 1896.4 -3.99177 0.449531 0
M  V30 20808 N 1894.6 -2.74907 0.942059 0
M  V30 20809 H 1894.15 -2.07365 1.52832 0
M  V30 20810 H 1894.11 -3.13956 0.167 0
M  V30 20811 N 1897.88 -1.50992 -0.451564 0
M  V30 20812 C 1899.13 -1.62633 -1.19978 0
M  V30 20813 C 1899.45 -0.337971 -1.92049 0
M  V30 20814 O 1898.72 0.645542 -1.84958 0
M  V30 20815 H 1897.3 -0.599345 -0.445864 0
M  V30 20816 H 1899.96 -1.8786 -0.519104 0
M  V30 20817 H 1899.06 -2.44709 -1.93711 0
M  V30 20818 N 1899.36 0.706069 -1.40899 0
M  V30 20819 C 1900.27 1.85007 -1.44255 0
M  V30 20820 C 1901.28 1.70761 -0.334174 0
M  V30 20821 O 1902.46 1.9286 -0.580258 0
M  V30 20822 C 1899.53 3.20896 -1.31251 0
M  V30 20823 C 1898.59 3.47327 -2.52314 0
M  V30 20824 C 1897.82 4.76732 -2.39922 0
M  V30 20825 O 1898.04 5.5249 -1.41813 0
M  V30 20826 O 1896.98 5.03713 -3.2948 0
M  V30 20827 H 1900.8 1.85132 -2.40748 0
M  V30 20828 H 1898.39 0.857751 -1.22323 0
M  V30 20829 H 1900.27 4.02045 -1.26244 0
M  V30 20830 H 1898.94 3.21477 -0.378684 0
M  V30 20831 H 1897.85 2.66149 -2.62899 0
M  V30 20832 H 1899.18 3.5155 -3.4449 0
M  V30 20833 N 1900.84 1.26553 0.939264 0
M  V30 20834 C 1901.77 1.10778 2.05549 0
M  V30 20835 C 1902.75 0.0124359 1.70095 0
M  V30 20836 O 1903.93 0.184814 1.93319 0
M  V30 20837 C 1901.06 0.742011 3.39281 0
M  V30 20838 C 1900.02 1.78931 3.88803 0
M  V30 20839 C 1899.34 1.2778 5.19207 0
M  V30 20840 C 1900.64 3.1912 4.13473 0
M  V30 20841 H 1902.34 2.04151 2.19004 0
M  V30 20842 H 1899.88 0.98294 1.05234 0
M  V30 20843 H 1901.84 0.618526 4.16836 0
M  V30 20844 H 1900.56 -0.22742 3.25807 0
M  V30 20845 H 1899.22 1.9015 3.13431 0
M  V30 20846 H 1898.87 0.298159 5.02116 0
M  V30 20847 H 1898.57 1.9779 5.53311 0
M  V30 20848 H 1900.09 1.16703 5.99344 0
M  V30 20849 H 1901.5 3.10967 4.81635 0
M  V30 20850 H 1899.9 3.86738 4.58862 0
M  V30 20851 H 1900.97 3.65034 3.19183 0
M  V30 20852 N 1902.31 -1.14411 1.08387 0
M  V30 20853 C 1903.54 -1.89848 0.835015 0
M  V30 20854 C 1903.96 -1.78034 -0.607091 0
M  V30 20855 O 1903.32 -1.12039 -1.42538 0
M  V30 20856 C 1903.37 -3.37818 1.26141 0
M  V30 20857 O 1902.47 -4.10325 0.41322 0
M  V30 20858 H 1901.82 -0.590682 0.303299 0
M  V30 20859 H 1904.35 -1.44823 1.44525 0
M  V30 20860 H 1904.36 -3.88631 1.24218 0
M  V30 20861 H 1903.03 -3.45735 2.31172 0
M  V30 20862 H 1901.61 -3.69589 0.495854 0
M  V30 20863 N 1903.79 -0.869509 -1.31443 0
M  V30 20864 C 1905.21 -0.561369 -1.49402 0
M  V30 20865 C 1905.41 0.90461 -1.80053 0
M  V30 20866 O 1904.46 1.68681 -1.87891 0
M  V30 20867 C 1905.78 -1.46118 -2.62812 0
M  V30 20868 C 1907.33 -1.46317 -2.76695 0
M  V30 20869 C 1907.8 -2.34855 -3.93201 0
M  V30 20870 N 1909.29 -2.32732 -4.00487 0
M  V30 20871 C 1910.03 -2.97959 -4.89906 0
M  V30 20872 N 1909.52 -3.72353 -5.8423 0
M  V30 20873 N 1911.32 -2.8727 -4.83149 0
M  V30 20874 H 1903.47 -1.81808 -1.09816 0
M  V30 20875 H 1905.73 -0.777367 -0.542591 0
M  V30 20876 H 1905.44 -2.5043 -2.46936 0
M  V30 20877 H 1905.31 -1.15938 -3.5894 0
M  V30 20878 H 1907.7 -0.427634 -2.91985 0
M  V30 20879 H 1907.78 -1.8052 -1.81235 0
M  V30 20880 H 1907.42 -3.38485 -3.78669 0
M  V30 20881 H 1907.35 -1.97976 -4.87968 0
M  V30 20882 H 1909.84 -1.78657 -3.33002 0
M  V30 20883 H 1910.16 -4.19253 -6.4919 0
M  V30 20884 H 1908.5 -3.76461 -5.8421 0
M  V30 20885 H 1911.69 -2.28689 -4.08435 0
M  V30 20886 H 1911.86 -3.38383 -5.52631 0
M  V30 20887 N 1905.27 1.44508 -0.628902 0
M  V30 20888 C 1906.2 2.28908 0.115743 0
M  V30 20889 C 1907.22 1.41158 0.811067 0
M  V30 20890 O 1908.4 1.65331 0.672887 0
M  V30 20891 C 1905.5 3.17471 1.18599 0
M  V30 20892 C 1904.68 4.33622 0.573612 0
M  V30 20893 C 1903.74 5.03236 1.53752 0
M  V30 20894 O 1902.76 5.59328 1.05553 0
M  V30 20895 N 1903.96 5.04483 2.87189 0
M  V30 20896 H 1906.73 2.93456 -0.608565 0
M  V30 20897 H 1904.29 1.54931 -0.469902 0
M  V30 20898 H 1906.28 3.60906 1.8311 0
M  V30 20899 H 1904.85 2.54687 1.81255 0
M  V30 20900 H 1904.07 3.93406 -0.25007 0
M  V30 20901 H 1905.36 5.08593 0.14509 0
M  V30 20902 H 1904.76 4.6024 3.28931 0
M  V30 20903 H 1903.32 5.51714 3.47066 0
M  V30 20904 N 1906.75 0.369315 1.53212 0
M  V30 20905 C 1907.68 -0.467242 2.28777 0
M  V30 20906 C 1908.66 -1.08073 1.31355 0
M  V30 20907 O 1909.85 -1.09728 1.60229 0
M  V30 20908 C 1906.98 -1.60519 3.07979 0
M  V30 20909 C 1905.93 -1.11876 4.1312 0
M  V30 20910 C 1905.26 -2.34723 4.80426 0
M  V30 20911 C 1906.56 -0.200846 5.21914 0
M  V30 20912 H 1908.25 0.163201 2.98955 0
M  V30 20913 H 1905.8 0.0799312 1.43778 0
M  V30 20914 H 1907.75 -2.19708 3.59592 0
M  V30 20915 H 1906.47 -2.26292 2.35499 0
M  V30 20916 H 1905.13 -0.549521 3.62458 0
M  V30 20917 H 1904.78 -2.98961 4.04514 0
M  V30 20918 H 1904.48 -2.02846 5.51477 0
M  V30 20919 H 1906 -2.94592 5.34835 0
M  V30 20920 H 1907.42 -0.700331 5.69006 0
M  V30 20921 H 1905.81 0.0272222 6.00094 0
M  V30 20922 H 1906.88 0.755948 4.78971 0
M  V30 20923 N 1908.23 -1.57291 0.0985816 0
M  V30 20924 C 1909.5 -1.85951 -0.606759 0
M  V30 20925 C 1909.88 -0.996077 -1.86122 0
M  V30 20926 O 1909.23 -0.0694281 -2.28394 0
M  V30 20927 C 1909.44 -3.36688 -0.918803 0
M  V30 20928 C 1910.79 -4.04824 -1.28074 0
M  V30 20929 O 1911.81 -3.41589 -1.00971 0
M  V30 20930 O 1910.67 -5.16406 -1.7885 0
M  V30 20931 H 1907.77 -0.769103 -0.30399 0
M  V30 20932 H 1910.31 -1.69189 0.131543 0
M  V30 20933 H 1909.09 -3.91289 -0.0289848 0
M  V30 20934 H 1908.71 -3.58808 -1.71296 0
M  V30 20935 N 1909.71 0.175127 -1.56624 0
M  V30 20936 C 1910.62 1.23691 -1.99343 0
M  V30 20937 C 1911.63 1.48662 -0.904197 0
M  V30 20938 O 1912.81 1.60885 -1.21153 0
M  V30 20939 C 1909.87 2.55689 -2.34145 0
M  V30 20940 C 1908.93 2.38614 -3.56878 0
M  V30 20941 C 1908.17 3.64318 -3.9001 0
M  V30 20942 O 1908.39 4.69335 -3.24162 0
M  V30 20943 O 1907.32 3.58655 -4.83373 0
M  V30 20944 H 1911.15 0.904314 -2.89924 0
M  V30 20945 H 1908.73 0.381697 -1.44442 0
M  V30 20946 H 1910.62 3.33562 -2.57516 0
M  V30 20947 H 1909.29 2.88535 -1.46728 0
M  V30 20948 H 1908.2 1.58786 -3.3873 0
M  V30 20949 H 1909.53 2.10694 -4.44825 0
M  V30 20950 N 1911.18 1.5123 0.44355 0
M  V30 20951 C 1912.13 1.72095 1.53792 0
M  V30 20952 C 1913.1 0.562529 1.56284 0
M  V30 20953 O 1914.29 0.796259 1.73391 0
M  V30 20954 C 1911.43 1.84627 2.9156 0
M  V30 20955 C 1910.54 3.12147 2.98644 0
M  V30 20956 C 1909.67 3.1531 4.27496 0
M  V30 20957 C 1908.71 4.37171 4.28425 0
M  V30 20958 N 1907.85 4.37919 5.48791 0
M  V30 20959 H 1912.69 2.65512 1.35304 0
M  V30 20960 H 1910.23 1.31593 0.657387 0
M  V30 20961 H 1912.18 1.89874 3.71488 0
M  V30 20962 H 1910.81 0.946232 3.0862 0
M  V30 20963 H 1909.87 3.16239 2.11417 0
M  V30 20964 H 1911.18 4.02074 2.95192 0
M  V30 20965 H 1910.33 3.19439 5.15794 0
M  V30 20966 H 1909.07 2.23261 4.33596 0
M  V30 20967 H 1908.08 4.33225 3.38521 0
M  V30 20968 H 1909.3 5.30477 4.23994 0
M  V30 20969 H 1907.25 3.48737 5.55624 0
M  V30 20970 H 1907.16 5.21647 5.47193 0
M  V30 20971 H 1908.43 4.46232 6.39138 0
M  V30 20972 N 1912.66 -0.698586 1.41271 0
M  V30 20973 C 1913.57 -1.8424 1.45234 0
M  V30 20974 C 1914.59 -1.70581 0.343225 0
M  V30 20975 O 1915.76 -1.9255 0.590477 0
M  V30 20976 C 1912.83 -3.20195 1.32951 0
M  V30 20977 C 1911.89 -3.45984 2.54152 0
M  V30 20978 C 1911.12 -4.75453 2.42446 0
M  V30 20979 O 1911.35 -5.5173 1.44741 0
M  V30 20980 O 1910.28 -5.01958 3.32147 0
M  V30 20981 H 1914.11 -1.83853 2.41727 0
M  V30 20982 H 1911.69 -0.851252 1.22776 0
M  V30 20983 H 1913.57 -4.0137 1.28374 0
M  V30 20984 H 1912.25 -3.21272 0.395728 0
M  V30 20985 H 1911.15 -2.64751 2.64306 0
M  V30 20986 H 1912.49 -3.49718 3.46349 0
M  V30 20987 N 1914.14 -1.27049 -0.93254 0
M  V30 20988 C 1915.1 -1.09404 -2.01404 0
M  V30 20989 C 1916.1 -0.0395757 -1.60751 0
M  V30 20990 O 1917.29 -0.283746 -1.71874 0
M  V30 20991 C 1914.42 -0.665948 -3.34332 0
M  V30 20992 H 1915.62 -2.05434 -2.18488 0
M  V30 20993 H 1913.17 -1.09768 -1.11268 0
M  V30 20994 H 1913.91 0.295952 -3.22947 0
M  V30 20995 H 1913.69 -1.42745 -3.65194 0
M  V30 20996 H 1915.18 -0.564591 -4.13766 0
M  V30 20997 N 1915.62 1.13835 -1.08993 0
M  V30 20998 C 1916.55 2.21226 -0.74707 0
M  V30 20999 C 1917.53 1.67891 0.273232 0
M  V30 21000 O 1918.71 1.93678 0.142278 0
M  V30 21001 C 1915.84 3.46922 -0.162028 0
M  V30 21002 C 1914.8 4.1332 -1.11135 0
M  V30 21003 C 1914.12 5.33289 -0.388228 0
M  V30 21004 C 1915.42 4.61169 -2.45195 0
M  V30 21005 H 1917.12 2.50162 -1.64497 0
M  V30 21006 H 1914.66 1.20239 -0.792368 0
M  V30 21007 H 1916.62 4.21304 0.0898753 0
M  V30 21008 H 1915.34 3.17368 0.771036 0
M  V30 21009 H 1914 3.40899 -1.34845 0
M  V30 21010 H 1913.65 4.99997 0.548832 0
M  V30 21011 H 1913.35 5.78659 -1.02115 0
M  V30 21012 H 1914.87 6.10429 -0.144519 0
M  V30 21013 H 1916.29 5.26996 -2.25717 0
M  V30 21014 H 1914.68 5.17263 -3.04235 0
M  V30 21015 H 1915.75 3.75923 -3.06284 0
M  V30 21016 N 1917.1 0.876467 1.3098 0
M  V30 21017 C 1918.34 0.486745 1.95739 0
M  V30 21018 C 1918.66 -0.967265 1.7001 0
M  V30 21019 O 1919.86 -1.46344 2.28683 0
M  V30 21020 C 1918.32 0.819534 3.50445 0
M  V30 21021 C 1917.93 2.29074 3.85005 0
M  V30 21022 C 1919.67 0.498597 4.21562 0
M  V30 21023 C 1917.58 2.5656 5.32851 0
M  V30 21024 H 1916.51 0.178295 0.732616 0
M  V30 21025 H 1919.16 1.07027 1.49055 0
M  V30 21026 H 1917.54 0.165191 3.95655 0
M  V30 21027 H 1918.72 2.98869 3.50733 0
M  V30 21028 H 1917.03 2.57836 3.2697 0
M  V30 21029 H 1919.63 0.6811 5.30344 0
M  V30 21030 H 1919.97 -0.561426 4.12497 0
M  V30 21031 H 1920.5 1.10976 3.82007 0
M  V30 21032 H 1917.24 3.61271 5.46959 0
M  V30 21033 H 1916.76 1.91366 5.68453 0
M  V30 21034 H 1918.44 2.41623 6.00189 0
M  V30 21035 N 1918.57 -1.44173 0.636557 0
M  V30 21036 C 1919.8 -2.06866 0.148751 0
M  V30 21037 C 1920.22 -1.47295 -1.16987 0
M  V30 21038 O 1919.58 -0.576466 -1.71891 0
M  V30 21039 C 1919.63 -3.60561 0.0533064 0
M  V30 21040 O 1918.73 -4.00361 -0.989163 0
M  V30 21041 H 1918.07 -0.658243 0.087251 0
M  V30 21042 H 1920.6 -1.84956 0.874772 0
M  V30 21043 H 1920.61 -4.07775 -0.135499 0
M  V30 21044 H 1919.29 -4.033 1.01599 0
M  V30 21045 H 1917.87 -3.64769 -0.77449 0
M  V30 21046 N 1920.05 -0.377435 -1.53014 0
M  V30 21047 C 1920.98 0.498304 -2.23718 0
M  V30 21048 C 1922 1.03648 -1.25542 0
M  V30 21049 O 1923.19 0.940837 -1.51692 0
M  V30 21050 C 1920.29 1.70201 -2.93061 0
M  V30 21051 C 1919.46 1.29328 -4.17843 0
M  V30 21052 C 1918.52 2.36036 -4.70291 0
M  V30 21053 O 1917.54 1.97934 -5.33677 0
M  V30 21054 N 1918.75 3.67788 -4.49124 0
M  V30 21055 H 1921.51 -0.107388 -2.99508 0
M  V30 21056 H 1919.07 -0.203197 -1.6062 0
M  V30 21057 H 1921.06 2.41087 -3.25052 0
M  V30 21058 H 1919.63 2.21431 -2.20652 0
M  V30 21059 H 1918.85 0.413779 -3.92022 0
M  V30 21060 H 1920.14 0.996666 -4.98943 0
M  V30 21061 H 1919.54 4.01512 -3.98503 0
M  V30 21062 H 1918.1 4.34744 -4.85635 0
M  V30 21063 N 1921.53 1.57237 -0.106922 0
M  V30 21064 C 1922.46 2.1769 0.844599 0
M  V30 21065 C 1923.44 1.11352 1.28587 0
M  V30 21066 O 1924.63 1.39539 1.35065 0
M  V30 21067 C 1921.76 2.76668 2.09933 0
M  V30 21068 C 1920.71 3.88482 1.79627 0
M  V30 21069 C 1920.04 4.34214 3.12029 0
M  V30 21070 C 1921.34 5.11139 1.07399 0
M  V30 21071 H 1923.03 2.97453 0.340887 0
M  V30 21072 H 1920.58 1.4308 0.162523 0
M  V30 21073 H 1922.53 3.17614 2.76946 0
M  V30 21074 H 1921.25 1.94176 2.62608 0
M  V30 21075 H 1919.91 3.48093 1.15008 0
M  V30 21076 H 1919.56 3.48597 3.62614 0
M  V30 21077 H 1919.26 5.09608 2.9253 0
M  V30 21078 H 1920.78 4.77803 3.8018 0
M  V30 21079 H 1922.2 5.4918 1.64543 0
M  V30 21080 H 1920.6 5.92038 0.980375 0
M  V30 21081 H 1921.67 4.84864 0.0586914 0
M  V30 21082 N 1923.01 -0.166818 1.56715 0
M  V30 21083 C 1924.24 -0.898169 1.86388 0
M  V30 21084 C 1924.65 -1.75628 0.692837 0
M  V30 21085 O 1924.01 -1.79344 -0.337947 0
M  V30 21086 C 1924.06 -1.77122 3.15135 0
M  V30 21087 O 1923.78 -0.947716 4.27727 0
M  V30 21088 C 1925.28 -2.61185 3.58186 0
M  V30 21089 H 1922.5 -0.260711 0.61828 0
M  V30 21090 H 1925.05 -0.165561 2.03829 0
M  V30 21091 H 1923.2 -2.45711 2.99507 0
M  V30 21092 H 1923.61 -1.54523 5.01221 0
M  V30 21093 H 1925.09 -3.18052 4.51162 0
M  V30 21094 H 1925.57 -3.36273 2.8252 0
M  V30 21095 H 1926.17 -1.9792 3.76441 0
M  V30 21096 N 1924.49 -1.51463 -0.435524 0
M  V30 21097 C 1925.9 -1.39679 -0.772145 0
M  V30 21098 C 1926.1 -0.480546 -1.95686 0
M  V30 21099 O 1925.16 0.063611 -2.5242 0
M  V30 21100 C 1926.47 -2.81742 -1.05082 0
M  V30 21101 C 1928.02 -2.90905 -1.15514 0
M  V30 21102 C 1928.49 -4.33879 -1.46674 0
M  V30 21103 N 1929.99 -4.36993 -1.53594 0
M  V30 21104 C 1930.72 -5.44653 -1.79279 0
M  V30 21105 N 1930.22 -6.6247 -2.02744 0
M  V30 21106 N 1932.01 -5.32135 -1.81076 0
M  V30 21107 H 1924.16 -2.09584 0.344699 0
M  V30 21108 H 1926.42 -0.943543 0.0918199 0
M  V30 21109 H 1926.13 -3.50789 -0.252975 0
M  V30 21110 H 1926 -3.21179 -1.97798 0
M  V30 21111 H 1928.39 -2.22054 -1.94361 0
M  V30 21112 H 1928.47 -2.54961 -0.20695 0
M  V30 21113 H 1928.12 -5.03279 -0.683541 0
M  V30 21114 H 1928.05 -4.67337 -2.42702 0
M  V30 21115 H 1930.54 -3.52054 -1.37356 0
M  V30 21116 H 1930.85 -7.40311 -2.21718 0
M  V30 21117 H 1929.19 -6.65582 -2.00063 0
M  V30 21118 H 1932.39 -4.39076 -1.62264 0
M  V30 21119 H 1932.56 -6.16118 -2.00756 0
M  V30 21120 N 1925.96 0.691085 -1.4164 0
M  V30 21121 C 1927.21 1.44828 -1.40959 0
M  V30 21122 C 1927.53 1.94988 -0.0211789 0
M  V30 21123 O 1926.8 1.71999 0.937714 0
M  V30 21124 H 1925.38 0.53739 -0.518865 0
M  V30 21125 H 1928.05 0.817677 -1.76918 0
M  V30 21126 H 1927.14 2.30926 -2.09952 0
M  V30 21127 N 1927.44 1.27542 0.925789 0
M  V30 21128 C 1928.39 1.10432 2.02666 0
M  V30 21129 C 1929.36 0.004846 1.66099 0
M  V30 21130 O 1930.54 0.167531 1.90063 0
M  V30 21131 C 1927.68 0.759567 3.36637 0
M  V30 21132 C 1926.8 1.93687 3.86147 0
M  V30 21133 C 1925.93 1.53382 5.08574 0
M  V30 21134 C 1924.97 2.67849 5.50385 0
M  V30 21135 N 1924.11 2.2812 6.64007 0
M  V30 21136 H 1928.95 2.04632 2.16633 0
M  V30 21137 H 1926.49 1.01863 1.06124 0
M  V30 21138 H 1928.44 0.540492 4.13684 0
M  V30 21139 H 1927.07 -0.145477 3.22472 0
M  V30 21140 H 1926.13 2.26843 3.05363 0
M  V30 21141 H 1927.44 2.79548 4.13104 0
M  V30 21142 H 1926.59 1.2761 5.93128 0
M  V30 21143 H 1925.33 0.646332 4.83398 0
M  V30 21144 H 1924.34 2.94333 4.64379 0
M  V30 21145 H 1925.56 3.57222 5.77554 0
M  V30 21146 H 1923.51 1.41825 6.40485 0
M  V30 21147 H 1923.42 3.07519 6.90629 0
M  V30 21148 H 1924.69 2.056 7.51897 0
M  V30 21149 N 1928.92 -1.13255 1.09595 0
M  V30 21150 C 1929.85 -2.20827 0.758791 0
M  V30 21151 C 1930.83 -1.68034 -0.264325 0
M  V30 21152 O 1932.02 -1.93751 -0.132005 0
M  V30 21153 C 1929.15 -3.46831 0.180424 0
M  V30 21154 C 1928.1 -4.12724 1.13325 0
M  V30 21155 C 1927.43 -5.33075 0.416504 0
M  V30 21156 C 1928.73 -4.59862 2.47637 0
M  V30 21157 H 1930.42 -2.49287 1.65821 0
M  V30 21158 H 1927.97 -1.19818 0.798734 0
M  V30 21159 H 1929.92 -4.21346 -0.0675313 0
M  V30 21160 H 1928.64 -3.17773 -0.754194 0
M  V30 21161 H 1927.3 -3.40179 1.36651 0
M  V30 21162 H 1926.95 -5.00281 -0.522308 0
M  V30 21163 H 1926.65 -5.78109 1.05183 0
M  V30 21164 H 1928.17 -6.10344 0.17689 0
M  V30 21165 H 1929.59 -5.25791 2.28509 0
M  V30 21166 H 1927.99 -5.15642 3.06974 0
M  V30 21167 H 1929.06 -3.74294 3.08273 0
M  V30 21168 N 1930.4 -0.883401 -1.30514 0
M  V30 21169 C 1931.63 -0.515948 -2.00364 0
M  V30 21170 C 1932.04 0.895148 -1.6623 0
M  V30 21171 O 1931.4 1.58844 -0.898601 0
M  V30 21172 C 1931.45 -0.679282 -3.55061 0
M  V30 21173 O 1931.17 -2.03482 -3.87978 0
M  V30 21174 C 1932.67 -0.314612 -4.42182 0
M  V30 21175 H 1929.89 -0.199595 -0.640627 0
M  V30 21176 H 1932.44 -1.18827 -1.66435 0
M  V30 21177 H 1930.59 -0.0543511 -3.87362 0
M  V30 21178 H 1931 -2.0523 -4.82681 0
M  V30 21179 H 1932.48 -0.4798 -5.49911 0
M  V30 21180 H 1932.96 0.747247 -4.32797 0
M  V30 21181 H 1933.56 -0.9158 -4.15323 0
M  V30 21182 N 1931.88 1.43833 -0.644194 0
M  V30 21183 C 1933.11 2.0597 -0.161163 0
M  V30 21184 C 1933.51 1.48309 1.17478 0
M  V30 21185 O 1932.86 0.60548 1.73435 0
M  V30 21186 C 1932.92 3.59497 0.014069 0
M  V30 21187 C 1932.58 4.39693 -1.24575 0
M  V30 21188 C 1933.58 4.72336 -2.17244 0
M  V30 21189 C 1931.27 4.79853 -1.48481 0
M  V30 21190 C 1933.26 5.44036 -3.3212 0
M  V30 21191 C 1930.95 5.51299 -2.63652 0
M  V30 21192 C 1931.94 5.83312 -3.55297 0
M  V30 21193 O 1931.63 6.53301 -4.68458 0
M  V30 21194 H 1931.36 0.670886 -0.0829965 0
M  V30 21195 H 1933.92 1.85477 -0.882467 0
M  V30 21196 H 1932.15 3.78531 0.790652 0
M  V30 21197 H 1933.84 4.03361 0.453309 0
M  V30 21198 H 1934.6 4.41836 -2.00014 0
M  V30 21199 H 1930.48 4.54348 -0.780324 0
M  V30 21200 H 1934.03 5.6894 -4.03674 0
M  V30 21201 H 1929.92 5.81214 -2.80821 0
M  V30 21202 H 1930.69 6.71778 -4.67607 0
M  V30 21203 N 1933.35 0.385544 1.52811 0
M  V30 21204 C 1934.58 -0.198025 2.0595 0
M  V30 21205 C 1935 -1.40822 1.25756 0
M  V30 21206 O 1934.35 -1.79963 0.303251 0
M  V30 21207 C 1934.41 -0.571856 3.56948 0
M  V30 21208 O 1934.13 0.59026 4.34105 0
M  V30 21209 C 1935.63 -1.21169 4.26419 0
M  V30 21210 H 1932.85 -0.0307594 0.670295 0
M  V30 21211 H 1935.39 0.549688 1.96974 0
M  V30 21212 H 1933.55 -1.26947 3.6601 0
M  V30 21213 H 1933.96 0.28384 5.23731 0
M  V30 21214 H 1935.43 -1.42366 5.33325 0
M  V30 21215 H 1935.91 -2.17794 3.81395 0
M  V30 21216 H 1936.52 -0.554949 4.21664 0
M  V30 21217 N 1934.83 -1.57178 0.115259 0
M  V30 21218 C 1935.76 -2.1218 -0.866728 0
M  V30 21219 C 1936.78 -1.06365 -1.23249 0
M  V30 21220 O 1937.97 -1.33749 -1.18209 0
M  V30 21221 C 1935.07 -2.60337 -2.16975 0
M  V30 21222 C 1934.24 -3.90209 -1.97625 0
M  V30 21223 C 1933.3 -4.24003 -3.11622 0
M  V30 21224 O 1932.32 -4.92884 -2.847 0
M  V30 21225 N 1933.53 -3.81022 -4.37953 0
M  V30 21226 H 1936.29 -2.97061 -0.396835 0
M  V30 21227 H 1933.85 -1.61752 -0.0692734 0
M  V30 21228 H 1935.84 -2.79976 -2.92225 0
M  V30 21229 H 1934.41 -1.80356 -2.55324 0
M  V30 21230 H 1933.63 -3.79516 -1.06589 0
M  V30 21231 H 1934.92 -4.75137 -1.81996 0
M  V30 21232 H 1934.32 -3.25459 -4.62702 0
M  V30 21233 H 1932.88 -4.05777 -5.10086 0
M  V30 21234 N 1936.31 0.158505 -1.56801 0
M  V30 21235 C 1937.24 1.22086 -1.93978 0
M  V30 21236 C 1938.26 1.39798 -0.834291 0
M  V30 21237 O 1939.45 1.39573 -1.11272 0
M  V30 21238 C 1936.55 2.58757 -2.18857 0
M  V30 21239 C 1935.72 2.62175 -3.50118 0
M  V30 21240 C 1934.78 3.80301 -3.63673 0
M  V30 21241 O 1933.8 3.65706 -4.36174 0
M  V30 21242 N 1935.01 4.97286 -2.99477 0
M  V30 21243 H 1937.77 0.904964 -2.8571 0
M  V30 21244 H 1935.33 0.348168 -1.58112 0
M  V30 21245 H 1937.32 3.3627 -2.25177 0
M  V30 21246 H 1935.89 2.82685 -1.33446 0
M  V30 21247 H 1935.11 1.70662 -3.55342 0
M  V30 21248 H 1936.4 2.61481 -4.36469 0
M  V30 21249 H 1935.8 5.12046 -2.40469 0
M  V30 21250 H 1934.36 5.72616 -3.11375 0
M  V30 21251 N 1937.79 1.51692 0.427485 0
M  V30 21252 C 1938.72 1.76668 1.52679 0
M  V30 21253 C 1939.7 0.616865 1.58521 0
M  V30 21254 O 1940.89 0.860595 1.7409 0
M  V30 21255 C 1938.02 1.9007 2.90673 0
M  V30 21256 C 1936.97 3.05566 2.99689 0
M  V30 21257 C 1936.3 3.04165 4.39759 0
M  V30 21258 C 1937.6 4.45359 2.72861 0
M  V30 21259 H 1939.29 2.68717 1.32029 0
M  V30 21260 H 1936.84 1.29306 0.633716 0
M  V30 21261 H 1938.79 2.06125 3.67546 0
M  V30 21262 H 1937.51 0.946769 3.12576 0
M  V30 21263 H 1936.17 2.89231 2.25257 0
M  V30 21264 H 1935.82 2.0653 4.58644 0
M  V30 21265 H 1935.52 3.81727 4.46719 0
M  V30 21266 H 1937.04 3.22326 5.18592 0
M  V30 21267 H 1938.46 4.61993 3.39463 0
M  V30 21268 H 1936.85 5.24701 2.91219 0
M  V30 21269 H 1937.92 4.54717 1.68405 0
M  V30 21270 N 1939.27 -0.683564 1.42004 0
M  V30 21271 C 1940.18 -1.82689 1.4718 0
M  V30 21272 C 1941.19 -1.70208 0.361298 0
M  V30 21273 O 1942.37 -1.91912 0.610867 0
M  V30 21274 C 1939.43 -3.18767 1.3634 0
M  V30 21275 C 1938.5 -3.43269 2.57808 0
M  V30 21276 C 1937.73 -4.72855 2.47476 0
M  V30 21277 O 1937.95 -5.50164 1.50584 0
M  V30 21278 O 1936.89 -4.98407 3.37452 0
M  V30 21279 H 1940.71 -1.81279 2.43663 0
M  V30 21280 H 1938.3 -0.838182 1.23672 0
M  V30 21281 H 1940.18 -3.99986 1.32624 0
M  V30 21282 H 1938.85 -3.20834 0.429781 0
M  V30 21283 H 1937.76 -2.61933 2.67099 0
M  V30 21284 H 1939.09 -3.46025 3.50039 0
M  V30 21285 N 1940.75 -1.28031 -0.919012 0
M  V30 21286 C 1942.02 -1.05588 -1.64653 0
M  V30 21287 C 1942.4 0.406513 -2.07149 0
M  V30 21288 O 1941.75 1.39153 -1.81242 0
M  V30 21289 C 1941.96 -2.0256 -2.84202 0
M  V30 21290 C 1943.31 -2.32414 -3.55343 0
M  V30 21291 O 1944.33 -2.00602 -2.94342 0
M  V30 21292 O 1943.19 -2.86683 -4.65269 0
M  V30 21293 H 1940.29 -0.40316 -0.722074 0
M  V30 21294 H 1942.83 -1.3933 -0.968781 0
M  V30 21295 H 1941.6 -3.01146 -2.49853 0
M  V30 21296 H 1941.23 -1.69433 -3.59692 0
M  V30 21297 N 1942.22 1.12672 -1.10194 0
M  V30 21298 C 1943.15 2.20422 -0.770492 0
M  V30 21299 C 1944.13 1.68172 0.25541 0
M  V30 21300 O 1945.32 1.93818 0.121728 0
M  V30 21301 C 1942.45 3.4673 -0.198815 0
M  V30 21302 C 1941.4 4.12118 -1.15512 0
M  V30 21303 C 1940.73 5.32847 -0.444768 0
M  V30 21304 C 1942.03 4.58542 -2.50073 0
M  V30 21305 H 1943.72 2.48404 -1.67141 0
M  V30 21306 H 1941.27 1.19392 -0.805077 0
M  V30 21307 H 1943.22 4.21376 0.0451853 0
M  V30 21308 H 1941.95 3.18168 0.737331 0
M  V30 21309 H 1940.61 3.3945 -1.38453 0
M  V30 21310 H 1940.25 5.00551 0.49577 0
M  V30 21311 H 1939.95 5.77543 -1.08247 0
M  V30 21312 H 1941.48 6.10241 -0.209255 0
M  V30 21313 H 1942.89 5.24572 -2.31294 0
M  V30 21314 H 1941.29 5.14007 -3.09704 0
M  V30 21315 H 1942.36 3.72654 -3.10254 0
M  V30 21316 N 1943.7 0.89031 1.30043 0
M  V30 21317 C 1944.65 0.35935 2.27985 0
M  V30 21318 C 1945.62 -0.5534 1.5661 0
M  V30 21319 O 1946.8 -0.480669 1.84646 0
M  V30 21320 C 1943.94 -0.41541 3.42591 0
M  V30 21321 C 1943.06 0.527163 4.28771 0
M  V30 21322 C 1942.19 -0.26372 5.30545 0
M  V30 21323 C 1941.23 0.673982 6.08378 0
M  V30 21324 N 1940.37 -0.081909 7.02052 0
M  V30 21325 H 1945.21 1.19969 2.72785 0
M  V30 21326 H 1942.74 0.602948 1.34175 0
M  V30 21327 H 1944.7 -0.880572 4.07801 0
M  V30 21328 H 1943.33 -1.22028 2.98846 0
M  V30 21329 H 1942.38 1.11083 3.6382 0
M  V30 21330 H 1943.7 1.24532 4.83004 0
M  V30 21331 H 1942.85 -0.7905 6.01528 0
M  V30 21332 H 1941.59 -1.01507 4.7702 0
M  V30 21333 H 1940.59 1.21234 5.36267 0
M  V30 21334 H 1941.82 1.42451 6.63991 0
M  V30 21335 H 1939.77 -0.815696 6.50909 0
M  V30 21336 H 1939.68 0.576521 7.53799 0
M  V30 21337 H 1940.95 -0.589258 7.7727 0
M  V30 21338 N 1945.18 -1.43489 0.651812 0
M  V30 21339 C 1946.6 -1.56374 0.31925 0
M  V30 21340 C 1946.8 -1.63573 -1.1767 0
M  V30 21341 O 1945.85 -1.59003 -1.96149 0
M  V30 21342 C 1947.16 -2.82532 1.02937 0
M  V30 21343 C 1948.71 -2.96274 1.00949 0
M  V30 21344 C 1949.19 -4.25262 1.70047 0
M  V30 21345 N 1950.68 -4.32123 1.66805 0
M  V30 21346 C 1951.41 -5.30693 2.17146 0
M  V30 21347 N 1950.91 -6.3555 2.75769 0
M  V30 21348 N 1952.7 -5.22337 2.07654 0
M  V30 21349 H 1944.85 -1.3706 1.6226 0
M  V30 21350 H 1947.12 -0.658169 0.682289 0
M  V30 21351 H 1946.82 -2.83271 2.08448 0
M  V30 21352 H 1946.7 -3.72713 0.580047 0
M  V30 21353 H 1949.08 -2.95077 -0.0372118 0
M  V30 21354 H 1949.16 -2.07386 1.49749 0
M  V30 21355 H 1948.81 -4.2722 2.74673 0
M  V30 21356 H 1948.74 -5.13044 1.18714 0
M  V30 21357 H 1951.23 -3.56968 1.24024 0
M  V30 21358 H 1951.54 -7.0708 3.11861 0
M  V30 21359 H 1949.89 -6.36177 2.79829 0
M  V30 21360 H 1953.08 -4.39336 1.61561 0
M  V30 21361 H 1953.25 -5.98998 2.47195 0
M  V30 21362 N 1946.66 -0.393643 -1.52605 0
M  V30 21363 C 1947.59 0.474548 -2.24234 0
M  V30 21364 C 1948.6 1.02311 -1.26634 0
M  V30 21365 O 1949.79 0.924695 -1.52681 0
M  V30 21366 C 1946.89 1.67083 -2.9485 0
M  V30 21367 C 1946.06 1.24889 -4.19192 0
M  V30 21368 C 1945.12 2.31034 -4.72768 0
M  V30 21369 O 1944.15 1.92263 -5.35746 0
M  V30 21370 N 1945.35 3.63004 -4.52999 0
M  V30 21371 H 1948.12 -0.139149 -2.99377 0
M  V30 21372 H 1945.68 -0.220221 -1.60395 0
M  V30 21373 H 1947.67 2.37626 -3.27591 0
M  V30 21374 H 1946.24 2.19078 -2.22988 0
M  V30 21375 H 1945.46 0.372176 -3.92439 0
M  V30 21376 H 1946.75 0.94369 -4.99972 0
M  V30 21377 H 1946.15 3.97263 -4.02739 0
M  V30 21378 H 1944.7 4.29568 -4.90219 0
M  V30 21379 N 1948.14 1.57115 -0.123593 0
M  V30 21380 C 1949.07 2.18573 0.821462 0
M  V30 21381 C 1950.05 1.1271 1.27399 0
M  V30 21382 O 1951.23 1.40964 1.33577 0
M  V30 21383 C 1948.36 2.78879 2.06987 0
M  V30 21384 C 1947.32 3.90365 1.75497 0
M  V30 21385 C 1946.64 4.37499 3.07406 0
M  V30 21386 C 1947.94 5.12249 1.01972 0
M  V30 21387 H 1949.64 2.97798 0.309319 0
M  V30 21388 H 1947.18 1.43244 0.147338 0
M  V30 21389 H 1949.13 3.20534 2.73562 0
M  V30 21390 H 1947.86 1.96951 2.60534 0
M  V30 21391 H 1946.52 3.49293 1.1131 0
M  V30 21392 H 1946.17 3.52424 3.58896 0
M  V30 21393 H 1945.87 5.12682 2.87108 0
M  V30 21394 H 1947.39 4.81808 3.75091 0
M  V30 21395 H 1948.8 5.50894 1.58709 0
M  V30 21396 H 1947.2 5.93044 0.917526 0
M  V30 21397 H 1948.27 4.84899 0.00726173 0
M  V30 21398 N 1949.61 -0.150187 1.56883 0
M  V30 21399 C 1950.52 -1.20504 2.01286 0
M  V30 21400 C 1951.54 -1.47204 0.927733 0
M  V30 21401 O 1952.72 -1.58937 1.23697 0
M  V30 21402 C 1949.78 -2.51932 2.38184 0
M  V30 21403 C 1948.84 -2.32906 3.60629 0
M  V30 21404 C 1948.07 -3.58067 3.95757 0
M  V30 21405 O 1948.3 -4.64119 3.31587 0
M  V30 21406 O 1947.23 -3.5092 4.89018 0
M  V30 21407 H 1951.06 -0.858075 2.91326 0
M  V30 21408 H 1948.64 -0.358669 1.45031 0
M  V30 21409 H 1950.52 -3.29423 2.6279 0
M  V30 21410 H 1949.2 -2.86165 1.513 0
M  V30 21411 H 1948.11 -1.53377 3.41213 0
M  V30 21412 H 1949.44 -2.0359 4.4812 0
M  V30 21413 N 1951.09 -1.51916 -0.419434 0
M  V30 21414 C 1952 -1.77393 -1.53522 0
M  V30 21415 C 1953.02 -0.65897 -1.61039 0
M  V30 21416 O 1954.19 -0.943237 -1.77947 0
M  V30 21417 C 1951.26 -1.90988 -2.89352 0
M  V30 21418 C 1950.32 -3.14878 -2.91805 0
M  V30 21419 C 1949.55 -3.27815 -4.21157 0
M  V30 21420 O 1949.78 -2.4626 -5.14502 0
M  V30 21421 O 1948.71 -4.20906 -4.30258 0
M  V30 21422 H 1952.54 -2.72079 -1.34932 0
M  V30 21423 H 1950.12 -1.36635 -0.604259 0
M  V30 21424 H 1952 -2.01812 -3.69932 0
M  V30 21425 H 1950.68 -0.994906 -3.08031 0
M  V30 21426 H 1949.59 -3.0952 -2.10115 0
M  V30 21427 H 1950.92 -4.06123 -2.78073 0
M  V30 21428 N 1952.57 0.676023 -1.42365 0
M  V30 21429 C 1953.48 1.81906 -1.48147 0
M  V30 21430 C 1954.5 1.70014 -0.37032 0
M  V30 21431 O 1955.67 1.91586 -0.621036 0
M  V30 21432 C 1952.74 3.18039 -1.38029 0
M  V30 21433 C 1951.8 3.41897 -2.59625 0
M  V30 21434 C 1951.03 4.71536 -2.4998 0
M  V30 21435 O 1951.25 5.49358 -1.535 0
M  V30 21436 O 1950.19 4.9661 -3.40091 0
M  V30 21437 H 1954.01 1.79984 -2.44621 0
M  V30 21438 H 1951.6 0.831611 -1.24115 0
M  V30 21439 H 1953.48 3.99277 -1.34743 0
M  V30 21440 H 1952.16 3.20602 -0.446789 0
M  V30 21441 H 1951.06 2.60512 -2.68485 0
M  V30 21442 H 1952.4 3.44164 -3.51869 0
M  V30 21443 N 1954.05 1.28517 0.912209 0
M  V30 21444 C 1955.29 1.15932 1.66396 0
M  V30 21445 C 1955.63 -0.291123 1.92006 0
M  V30 21446 O 1954.9 -1.21159 1.52154 0
M  V30 21447 C 1955.19 1.95993 3.0209 0
M  V30 21448 C 1955.04 3.49109 2.83625 0
M  V30 21449 C 1956.36 1.77655 4.0265 0
M  V30 21450 H 1953.48 0.42252 0.603859 0
M  V30 21451 H 1956.12 1.5785 1.05752 0
M  V30 21452 H 1954.27 1.60372 3.53855 0
M  V30 21453 H 1955.94 3.94644 2.38859 0
M  V30 21454 H 1954.18 3.74664 2.18653 0
M  V30 21455 H 1954.85 4.00386 3.79993 0
M  V30 21456 H 1957.33 2.08743 3.59952 0
M  V30 21457 H 1956.21 2.36043 4.95555 0
M  V30 21458 H 1956.47 0.728445 4.36057 0
M  V30 21459 N 1955.53 -1.12086 1.1079 0
M  V30 21460 C 1956.47 -2.17926 0.760064 0
M  V30 21461 C 1957.44 -1.63967 -0.265316 0
M  V30 21462 O 1958.63 -1.90258 -0.143764 0
M  V30 21463 C 1955.77 -3.44508 0.202045 0
M  V30 21464 C 1954.88 -4.12503 1.28317 0
M  V30 21465 C 1954.02 -5.26747 0.686406 0
M  V30 21466 C 1953.06 -5.86614 1.74785 0
M  V30 21467 N 1952.19 -6.92264 1.17108 0
M  V30 21468 H 1957.03 -2.47025 1.66681 0
M  V30 21469 H 1954.57 -1.21275 0.832507 0
M  V30 21470 H 1956.53 -4.16967 -0.139401 0
M  V30 21471 H 1955.16 -3.15814 -0.667918 0
M  V30 21472 H 1954.21 -3.38186 1.74168 0
M  V30 21473 H 1955.52 -4.53063 2.08651 0
M  V30 21474 H 1954.68 -6.05984 0.294621 0
M  V30 21475 H 1953.41 -4.87474 -0.148334 0
M  V30 21476 H 1952.42 -5.0606 2.14902 0
M  V30 21477 H 1953.64 -6.27956 2.5855 0
M  V30 21478 H 1951.59 -6.55023 0.35787 0
M  V30 21479 H 1951.51 -7.31443 1.91122 0
M  V30 21480 H 1952.78 -7.75322 0.805966 0
M  V30 21481 N 1957 -0.897194 -1.29569 0
M  V30 21482 C 1957.97 -0.377906 -2.26063 0
M  V30 21483 C 1958.97 0.486495 -1.53264 0
M  V30 21484 O 1960.16 0.291905 -1.71737 0
M  V30 21485 C 1957.29 0.460046 -3.37782 0
M  V30 21486 H 1958.48 -1.23009 -2.73512 0
M  V30 21487 H 1956.04 -0.675114 -1.40968 0
M  V30 21488 H 1956.77 1.33232 -2.95668 0
M  V30 21489 H 1956.56 -0.159293 -3.91776 0
M  V30 21490 H 1958.05 0.814753 -4.09575 0
M  V30 21491 N 1958.48 1.43142 -0.659413 0
M  V30 21492 C 1959.43 2.30783 0.0284037 0
M  V30 21493 C 1960.4 1.451 0.808407 0
M  V30 21494 O 1961.58 1.73959 0.783764 0
M  V30 21495 C 1958.72 3.30758 0.984529 0
M  V30 21496 C 1957.84 4.31537 0.199975 0
M  V30 21497 C 1956.97 5.18592 1.15046 0
M  V30 21498 C 1956.01 6.1106 0.356695 0
M  V30 21499 N 1955.15 6.90718 1.25909 0
M  V30 21500 H 1959.99 2.89051 -0.724821 0
M  V30 21501 H 1957.53 1.42392 -0.369192 0
M  V30 21502 H 1959.48 3.87236 1.55254 0
M  V30 21503 H 1958.11 2.74125 1.70456 0
M  V30 21504 H 1957.17 3.77303 -0.484425 0
M  V30 21505 H 1958.48 4.97054 -0.416974 0
M  V30 21506 H 1957.63 5.79727 1.7889 0
M  V30 21507 H 1956.37 4.53215 1.80131 0
M  V30 21508 H 1955.38 5.49008 -0.295063 0
M  V30 21509 H 1956.6 6.78481 -0.28984 0
M  V30 21510 H 1954.55 6.27984 1.89662 0
M  V30 21511 H 1954.46 7.52782 0.69685 0
M  V30 21512 H 1955.73 7.56353 1.88549 0
M  V30 21513 N 1959.96 0.40173 1.52394 0
M  V30 21514 C 1960.91 -0.442142 2.28359 0
M  V30 21515 C 1961.9 -1.05228 1.32753 0
M  V30 21516 O 1963.11 -0.991332 1.50242 0
M  V30 21517 H 1959.48 -0.161356 0.734485 0
M  V30 21518 H 1961.45 0.219869 2.97589 0
M  V30 21519 C 1960.2 -1.55062 3.11209 0
M  V30 21520 H 1959.53 -1.09046 3.84642 0
M  V30 21521 H 1960.97 -2.11505 3.6748 0
M  V30 21522 C 1959.43 -2.51376 2.24303 0
M  V30 21523 O 1959.96 -3.55084 1.87825 0
M  V30 21524 N 1958.16 -2.2141 1.88218 0
M  V30 21525 H 1957.71 -1.37106 2.18082 0
M  V30 21526 H 1957.67 -2.861 1.30362 0
M  V30 21527 N 1961.44 -1.57047 0.131923 0
M  V30 21528 C 1962.4 -2.14813 -0.799243 0
M  V30 21529 C 1963.4 -1.08616 -1.18572 0
M  V30 21530 O 1964.59 -1.3433 -1.10911 0
M  V30 21531 C 1961.72 -2.69894 -2.08255 0
M  V30 21532 H 1962.92 -2.98426 -0.296996 0
M  V30 21533 H 1960.47 -1.55858 -0.117418 0
M  V30 21534 H 1961.2 -1.89905 -2.62881 0
M  V30 21535 H 1960.99 -3.47574 -1.81479 0
M  V30 21536 H 1962.48 -3.14451 -2.74792 0
M  V30 21537 N 1962.92 0.141865 -1.5696 0
M  V30 21538 C 1963.85 1.17667 -2.01685 0
M  V30 21539 C 1964.83 1.44509 -0.897282 0
M  V30 21540 O 1966.01 1.55342 -1.16544 0
M  V30 21541 C 1963.14 2.50859 -2.40182 0
M  V30 21542 C 1962.1 2.38527 -3.55371 0
M  V30 21543 C 1961.42 3.76476 -3.79697 0
M  V30 21544 C 1962.72 1.86502 -4.87867 0
M  V30 21545 H 1964.42 0.804761 -2.88382 0
M  V30 21546 H 1961.96 0.385672 -1.38739 0
M  V30 21547 H 1963.92 3.2348 -2.70071 0
M  V30 21548 H 1962.64 2.89895 -1.50428 0
M  V30 21549 H 1961.3 1.68357 -3.25656 0
M  V30 21550 H 1960.95 4.12957 -2.87186 0
M  V30 21551 H 1960.65 3.69085 -4.5722 0
M  V30 21552 H 1962.17 4.50638 -4.12017 0
M  V30 21553 H 1963.58 2.48921 -5.16441 0
M  V30 21554 H 1961.98 1.89989 -5.69231 0
M  V30 21555 H 1963.05 0.821025 -4.77899 0
M  V30 21556 N 1964.39 1.52136 0.411372 0
M  V30 21557 C 1965.36 1.74698 1.48369 0
M  V30 21558 C 1966.36 0.616863 1.48497 0
M  V30 21559 O 1967.55 0.884716 1.50061 0
M  V30 21560 C 1964.68 1.82729 2.8779 0
M  V30 21561 H 1965.87 2.70424 1.29658 0
M  V30 21562 H 1963.43 1.42519 0.641725 0
M  V30 21563 H 1964.16 0.889096 3.11874 0
M  V30 21564 H 1963.95 2.64884 2.891 0
M  V30 21565 H 1965.44 2.01934 3.6553 0
M  V30 21566 N 1965.87 -0.668464 1.42721 0
M  V30 21567 C 1966.82 -1.77463 1.43147 0
M  V30 21568 C 1967.81 -1.58042 0.301932 0
M  V30 21569 O 1969 -1.68413 0.544623 0
M  V30 21570 C 1966.13 -3.15963 1.34247 0
M  V30 21571 C 1965.21 -3.40985 2.52171 0
M  V30 21572 N 1965.61 -3.36558 3.77575 0
M  V30 21573 C 1963.9 -3.71646 2.46568 0
M  V30 21574 C 1964.6 -3.61239 4.5594 0
M  V30 21575 N 1963.58 -3.82312 3.86443 0
M  V30 21576 H 1967.38 -1.72442 2.37993 0
M  V30 21577 H 1964.9 -0.86955 1.37159 0
M  V30 21578 H 1966.89 -3.95239 1.32634 0
M  V30 21579 H 1965.55 -3.22176 0.404081 0
M  V30 21580 H 1966.56 -3.16315 4.1008 0
M  V30 21581 H 1963.24 -3.85066 1.6134 0
M  V30 21582 H 1964.63 -3.63724 5.64938 0
M  V30 21583 N 1967.35 -1.28999 -0.905381 0
M  V30 21584 C 1968.31 -1.13652 -1.99038 0
M  V30 21585 C 1969.31 -0.0736646 -1.60631 0
M  V30 21586 O 1970.5 -0.320139 -1.71233 0
M  V30 21587 C 1967.64 -0.736715 -3.32844 0
M  V30 21588 H 1968.83 -2.10022 -2.14081 0
M  V30 21589 H 1966.38 -1.12104 -1.08915 0
M  V30 21590 H 1967.12 0.227383 -3.23502 0
M  V30 21591 H 1966.9 -1.50459 -3.62084 0
M  V30 21592 H 1968.39 -0.65223 -4.12475 0
M  V30 21593 N 1968.83 1.11497 -1.11383 0
M  V30 21594 C 1969.76 2.19592 -0.793827 0
M  V30 21595 C 1970.74 1.68433 0.237559 0
M  V30 21596 O 1971.93 1.93936 0.101164 0
M  V30 21597 C 1969.06 3.465 -0.235579 0
M  V30 21598 C 1968.01 4.10869 -1.19877 0
M  V30 21599 C 1967.34 5.32345 -0.501259 0
M  V30 21600 C 1968.64 4.55864 -2.54922 0
M  V30 21601 H 1970.33 2.46617 -1.69766 0
M  V30 21602 H 1967.88 1.18532 -0.817695 0
M  V30 21603 H 1969.83 4.214 0.000490272 0
M  V30 21604 H 1968.55 3.18932 0.703544 0
M  V30 21605 H 1967.21 3.37962 -1.42046 0
M  V30 21606 H 1966.86 5.01048 0.442652 0
M  V30 21607 H 1966.56 5.76363 -1.14367 0
M  V30 21608 H 1968.08 6.09985 -0.273968 0
M  V30 21609 H 1969.5 5.22089 -2.36845 0
M  V30 21610 H 1967.89 5.10693 -3.15139 0
M  V30 21611 H 1968.96 3.69342 -3.14189 0
M  V30 21612 N 1970.31 0.904053 1.29092 0
M  V30 21613 C 1971.24 0.342376 2.26628 0
M  V30 21614 C 1972.25 -0.513752 1.54481 0
M  V30 21615 O 1973.44 -0.330204 1.75419 0
M  V30 21616 C 1970.54 -0.530091 3.34729 0
M  V30 21617 C 1969.71 0.301305 4.36361 0
M  V30 21618 C 1968.77 -0.504691 5.23774 0
M  V30 21619 O 1967.8 0.0793438 5.69145 0
M  V30 21620 N 1969 -1.80985 5.51566 0
M  V30 21621 H 1971.77 1.18071 2.75462 0
M  V30 21622 H 1969.33 0.768991 1.42472 0
M  V30 21623 H 1971.32 -1.0758 3.90139 0
M  V30 21624 H 1969.89 -1.26912 2.85678 0
M  V30 21625 H 1969.11 1.02841 3.80549 0
M  V30 21626 H 1970.4 0.870527 5.01298 0
M  V30 21627 H 1969.8 -2.30701 5.16521 0
M  V30 21628 H 1968.35 -2.30259 6.09774 0
M  V30 21629 N 1971.79 -1.4279 0.666995 0
M  V30 21630 C 1973.01 -2.06504 0.192596 0
M  V30 21631 C 1973.44 -1.49743 -1.13836 0
M  V30 21632 O 1972.79 -0.612797 -1.7063 0
M  V30 21633 C 1972.84 -3.60366 0.129775 0
M  V30 21634 O 1971.95 -4.0237 -0.904018 0
M  V30 21635 H 1971.29 -0.656244 0.101194 0
M  V30 21636 H 1973.82 -1.83059 0.913807 0
M  V30 21637 H 1973.83 -4.07971 -0.0489739 0
M  V30 21638 H 1972.5 -4.01054 1.1013 0
M  V30 21639 H 1971.08 -3.66329 -0.696943 0
M  V30 21640 N 1973.26 -0.409806 -1.52179 0
M  V30 21641 C 1974.23 0.40345 -2.25621 0
M  V30 21642 C 1975.23 0.973072 -1.28015 0
M  V30 21643 O 1976.42 0.851845 -1.51951 0
M  V30 21644 C 1973.55 1.568 -3.02699 0
M  V30 21645 H 1974.74 -0.239822 -2.9894 0
M  V30 21646 H 1972.29 -0.162341 -1.55455 0
M  V30 21647 H 1973.03 2.24811 -2.33731 0
M  V30 21648 H 1972.81 1.16603 -3.74361 0
M  V30 21649 H 1974.3 2.14326 -3.58405 0
M  V30 21650 N 1974.74 1.56975 -0.14025 0
M  V30 21651 C 1976.16 1.58129 0.216215 0
M  V30 21652 C 1976.36 1.15417 1.6517 0
M  V30 21653 O 1975.41 0.851345 2.37715 0
M  V30 21654 C 1976.73 3.00678 -0.0364108 0
M  V30 21655 C 1978.27 3.12988 0.0278286 0
M  V30 21656 C 1978.75 4.57574 -0.197378 0
M  V30 21657 N 1980.24 4.62976 -0.144073 0
M  V30 21658 C 1980.98 5.72651 -0.292931 0
M  V30 21659 N 1980.47 6.91 -0.499138 0
M  V30 21660 N 1982.26 5.61625 -0.231008 0
M  V30 21661 H 1974.42 1.83033 -1.07762 0
M  V30 21662 H 1976.68 0.846871 -0.426044 0
M  V30 21663 H 1976.38 3.36291 -1.02963 0
M  V30 21664 H 1976.26 3.70909 0.686026 0
M  V30 21665 H 1978.65 2.7722 1.01159 0
M  V30 21666 H 1978.73 2.45257 -0.726829 0
M  V30 21667 H 1978.37 4.94045 -1.17821 0
M  V30 21668 H 1978.3 5.23424 0.577522 0
M  V30 21669 H 1980.79 3.77898 0.0109252 0
M  V30 21670 H 1981.1 7.70444 -0.603012 0
M  V30 21671 H 1979.45 6.92935 -0.535376 0
M  V30 21672 H 1982.64 4.68047 -0.0707224 0
M  V30 21673 H 1982.81 6.47052 -0.350455 0
M  V30 21674 N 1976.22 -0.133539 1.57033 0
M  V30 21675 C 1977.17 -1.16995 1.95694 0
M  V30 21676 C 1978.15 -1.37843 0.82995 0
M  V30 21677 O 1979.35 -1.39179 1.09353 0
M  V30 21678 C 1976.47 -2.50025 2.3525 0
M  V30 21679 C 1975.56 -2.32713 3.5455 0
M  V30 21680 N 1975.95 -1.85183 4.70681 0
M  V30 21681 C 1974.25 -2.63419 3.59898 0
M  V30 21682 C 1974.95 -1.81235 5.52747 0
M  V30 21683 N 1973.93 -2.25046 4.94829 0
M  V30 21684 H 1977.73 -0.79478 2.8295 0
M  V30 21685 H 1975.24 -0.341452 1.5877 0
M  V30 21686 H 1977.24 -3.24965 2.61158 0
M  V30 21687 H 1975.9 -2.88312 1.49352 0
M  V30 21688 H 1976.91 -1.54946 4.94178 0
M  V30 21689 H 1973.59 -3.05491 2.84572 0
M  V30 21690 H 1974.98 -1.45864 6.55876 0
M  V30 21691 N 1977.7 -1.52352 -0.403298 0
M  V30 21692 C 1978.97 -1.57265 -1.16305 0
M  V30 21693 C 1979.35 -0.357181 -2.08056 0
M  V30 21694 O 1978.7 0.655551 -2.18894 0
M  V30 21695 C 1978.91 -2.90429 -1.93525 0
M  V30 21696 C 1980.26 -3.43643 -2.49388 0
M  V30 21697 O 1981.28 -2.92208 -2.03699 0
M  V30 21698 O 1980.14 -4.33474 -3.32809 0
M  V30 21699 H 1977.24 -0.633707 -0.531361 0
M  V30 21700 H 1979.78 -1.64682 -0.409607 0
M  V30 21701 H 1978.56 -3.70341 -1.26346 0
M  V30 21702 H 1978.18 -2.86331 -2.75862 0
M  V30 21703 N 1979.18 0.660885 -1.43074 0
M  V30 21704 C 1980.42 1.43273 -1.45781 0
M  V30 21705 C 1980.78 1.91846 -0.076922 0
M  V30 21706 O 1981.98 2.68792 0.0213041 0
M  V30 21707 C 1980.25 2.58792 -2.46499 0
M  V30 21708 S 1981.81 3.47434 -2.6802 0
M  V30 21709 H 1978.63 0.489164 -0.515984 0
M  V30 21710 H 1981.23 0.76801 -1.79783 0
M  V30 21711 H 1979.93 2.21369 -3.45578 0
M  V30 21712 H 1979.47 3.30122 -2.13969 0
M  V30 21713 H 1981.48 4.55258 -1.97369 0
M  V30 21714 N 1980.65 1.29477 0.898527 0
M  V30 21715 C 1981.93 1.08195 1.62952 0
M  V30 21716 C 1982.31 -0.373506 2.07769 0
M  V30 21717 O 1981.66 -1.36252 1.83433 0
M  V30 21718 C 1981.87 2.07056 2.80943 0
M  V30 21719 C 1983.22 2.38038 3.51601 0
M  V30 21720 O 1984.24 2.0526 2.91113 0
M  V30 21721 O 1983.1 2.94048 4.60649 0
M  V30 21722 H 1980.19 0.414597 0.715569 0
M  V30 21723 H 1982.74 1.40853 0.946492 0
M  V30 21724 H 1981.51 3.05083 2.45031 0
M  V30 21725 H 1981.14 1.75134 3.56951 0
M  V30 21726 N 1982.13 -1.10905 1.11972 0
M  V30 21727 C 1983.06 -2.19168 0.805461 0
M  V30 21728 C 1984.04 -1.68557 -0.228623 0
M  V30 21729 O 1985.23 -1.93987 -0.0908778 0
M  V30 21730 C 1982.36 -3.4637 0.253951 0
M  V30 21731 C 1981.31 -4.10228 1.22054 0
M  V30 21732 C 1980.64 -5.32072 0.529483 0
M  V30 21733 C 1981.94 -4.54506 2.57336 0
M  V30 21734 H 1983.63 -2.45713 1.71071 0
M  V30 21735 H 1981.18 -1.18096 0.823969 0
M  V30 21736 H 1983.13 -4.21394 0.0218576 0
M  V30 21737 H 1981.86 -3.19301 -0.68662 0
M  V30 21738 H 1980.51 -3.37204 1.43836 0
M  V30 21739 H 1980.16 -5.01276 -0.416074 0
M  V30 21740 H 1979.86 -5.75748 1.17422 0
M  V30 21741 H 1981.39 -6.09831 0.306313 0
M  V30 21742 H 1982.8 -5.20826 2.3961 0
M  V30 21743 H 1981.2 -5.09015 3.17842 0
M  V30 21744 H 1982.27 -3.67671 3.16143 0
M  V30 21745 N 1983.61 -0.910886 -1.2861 0
M  V30 21746 C 1984.54 -0.413998 -2.29801 0
M  V30 21747 C 1985.52 0.51689 -1.62056 0
M  V30 21748 O 1986.71 0.425236 -1.89487 0
M  V30 21749 C 1983.84 0.349336 -3.45539 0
M  V30 21750 C 1982.79 -0.49215 -4.25161 0
M  V30 21751 C 1982.12 0.399352 -5.33207 0
M  V30 21752 C 1983.42 -1.74792 -4.92184 0
M  V30 21753 H 1985.11 -1.25965 -2.71612 0
M  V30 21754 H 1982.66 -0.607149 -1.30575 0
M  V30 21755 H 1984.61 0.70777 -4.15414 0
M  V30 21756 H 1983.33 1.22887 -3.02599 0
M  V30 21757 H 1981.99 -0.833064 -3.57009 0
M  V30 21758 H 1981.64 1.27734 -4.86511 0
M  V30 21759 H 1981.34 -0.160062 -5.87382 0
M  V30 21760 H 1982.86 0.753731 -6.0593 0
M  V30 21761 H 1984.28 -1.45856 -5.54436 0
M  V30 21762 H 1982.68 -2.24952 -5.56342 0
M  V30 21763 H 1983.75 -2.4774 -4.16837 0
M  V30 21764 N 1985.09 1.42434 -0.674558 0
M  V30 21765 C 1986.5 1.55847 -0.344087 0
M  V30 21766 C 1986.7 1.65424 1.15053 0
M  V30 21767 O 1985.76 1.62103 1.93594 0
M  V30 21768 C 1987.07 2.80859 -1.07419 0
M  V30 21769 C 1988.62 2.94631 -1.05649 0
M  V30 21770 C 1989.1 4.22503 -1.76791 0
M  V30 21771 N 1990.59 4.29415 -1.73658 0
M  V30 21772 C 1991.32 5.27171 -2.25561 0
M  V30 21773 N 1990.82 6.31082 -2.85845 0
M  V30 21774 N 1992.61 5.18968 -2.15937 0
M  V30 21775 H 1984.76 1.34461 -1.6442 0
M  V30 21776 H 1987.03 0.647231 -0.692673 0
M  V30 21777 H 1986.73 2.79919 -2.12928 0
M  V30 21778 H 1986.61 3.71743 -0.63927 0
M  V30 21779 H 1988.99 2.95098 -0.00973704 0
M  V30 21780 H 1989.07 2.04977 -1.53029 0
M  V30 21781 H 1988.72 4.22796 -2.81435 0
M  V30 21782 H 1988.65 5.11091 -1.26861 0
M  V30 21783 H 1991.14 3.5495 -1.29687 0
M  V30 21784 H 1991.45 7.02029 -3.2307 0
M  V30 21785 H 1989.8 6.31644 -2.89914 0
M  V30 21786 H 1992.99 4.3671 -1.6853 0
M  V30 21787 H 1993.16 5.9499 -2.56693 0
M  V30 21788 N 1986.57 0.417871 1.51959 0
M  V30 21789 C 1987.48 -0.409946 2.3099 0
M  V30 21790 C 1988.49 -1.04559 1.39081 0
M  V30 21791 O 1989.67 -1.0452 1.72155 0
M  V30 21792 C 1986.73 -1.50691 3.12239 0
M  V30 21793 C 1985.79 -0.893424 4.199 0
M  V30 21794 C 1985.03 -1.93812 4.97265 0
M  V30 21795 O 1985.25 -3.15756 4.75031 0
M  V30 21796 O 1984.18 -1.53948 5.81879 0
M  V30 21797 H 1988.01 0.234696 3.02792 0
M  V30 21798 H 1985.6 0.180861 1.48301 0
M  V30 21799 H 1987.48 -2.14355 3.62808 0
M  V30 21800 H 1986.15 -2.136 2.43222 0
M  V30 21801 H 1985.06 -0.219262 3.73457 0
M  V30 21802 H 1986.39 -0.308133 4.91235 0
M  V30 21803 N 1988.04 -1.56898 0.148573 0
M  V30 21804 C 1988.98 -2.13971 -0.821526 0
M  V30 21805 C 1989.99 -1.08955 -1.20965 0
M  V30 21806 O 1991.18 -1.36226 -1.15346 0
M  V30 21807 C 1988.28 -2.6488 -2.11404 0
M  V30 21808 C 1987.45 -3.94313 -1.89303 0
M  V30 21809 C 1986.51 -4.30517 -3.02558 0
M  V30 21810 O 1985.54 -4.98812 -2.74181 0
M  V30 21811 N 1986.74 -3.90226 -4.29772 0
M  V30 21812 H 1989.5 -2.97836 -0.333735 0
M  V30 21813 H 1987.06 -1.61862 -0.0349479 0
M  V30 21814 H 1989.06 -2.86112 -2.8622 0
M  V30 21815 H 1987.63 -1.85731 -2.51441 0
M  V30 21816 H 1986.85 -3.81692 -0.985147 0
M  V30 21817 H 1988.13 -4.7889 -1.71877 0
M  V30 21818 H 1987.53 -3.352 -4.55694 0
M  V30 21819 H 1986.09 -4.16506 -5.01364 0
M  V30 21820 N 1989.52 0.125209 -1.57102 0
M  V30 21821 C 1990.75 0.847206 -1.8843 0
M  V30 21822 C 1991.16 1.74245 -0.737241 0
M  V30 21823 O 1990.5 1.81213 0.301252 0
M  V30 21824 C 1990.57 1.73781 -3.14707 0
M  V30 21825 C 1990.23 1.01751 -4.45529 0
M  V30 21826 C 1991.23 0.361203 -5.18644 0
M  V30 21827 C 1988.91 1.00053 -4.92234 0
M  V30 21828 C 1990.91 -0.302451 -6.36682 0
M  V30 21829 C 1988.59 0.333077 -6.10192 0
M  V30 21830 C 1989.59 -0.317266 -6.82263 0
M  V30 21831 O 1989.28 -0.974086 -7.97977 0
M  V30 21832 H 1989.01 0.249192 -0.628394 0
M  V30 21833 H 1991.56 0.116054 -2.05072 0
M  V30 21834 H 1989.79 2.51045 -2.94131 0
M  V30 21835 H 1991.48 2.33368 -3.32105 0
M  V30 21836 H 1992.25 0.365979 -4.83617 0
M  V30 21837 H 1988.13 1.49616 -4.36046 0
M  V30 21838 H 1991.67 -0.810649 -6.92874 0
M  V30 21839 H 1987.57 0.326042 -6.44676 0
M  V30 21840 H 1988.34 -0.877938 -8.13778 0
M  V30 21841 N 1991 1.52564 0.395213 0
M  V30 21842 C 1991.91 1.79813 1.5068 0
M  V30 21843 C 1992.93 0.684507 1.5997 0
M  V30 21844 O 1994.1 0.971428 1.76423 0
M  V30 21845 C 1991.17 1.95567 2.86277 0
M  V30 21846 C 1990.23 3.19481 2.86759 0
M  V30 21847 C 1989.46 3.34474 4.15888 0
M  V30 21848 O 1989.68 2.54414 5.10519 0
M  V30 21849 O 1988.62 4.27698 4.23507 0
M  V30 21850 H 1992.44 2.74191 1.30586 0
M  V30 21851 H 1990.03 1.37579 0.582445 0
M  V30 21852 H 1991.91 2.07672 3.66675 0
M  V30 21853 H 1990.59 1.04378 3.0641 0
M  V30 21854 H 1989.49 3.12823 2.05164 0
M  V30 21855 H 1990.83 4.10496 2.71577 0
M  V30 21856 N 1992.48 -0.653289 1.43422 0
M  V30 21857 C 1993.39 -1.79526 1.51022 0
M  V30 21858 C 1994.4 -1.69403 0.39732 0
M  V30 21859 O 1995.58 -1.90574 0.651437 0
M  V30 21860 C 1992.65 -3.15803 1.43071 0
M  V30 21861 C 1991.71 -3.37723 2.65031 0
M  V30 21862 C 1990.94 -4.67499 2.5745 0
M  V30 21863 O 1991.16 -5.46846 1.6222 0
M  V30 21864 O 1990.1 -4.91137 3.47948 0
M  V30 21865 H 1993.92 -1.76069 2.47454 0
M  V30 21866 H 1991.51 -0.81176 1.25423 0
M  V30 21867 H 1993.39 -3.97083 1.41079 0
M  V30 21868 H 1992.06 -3.1985 0.497738 0
M  V30 21869 H 1990.97 -2.56208 2.72595 0
M  V30 21870 H 1992.3 -3.38523 3.573 0
M  V30 21871 N 1993.96 -1.29952 -0.891648 0
M  V30 21872 C 1994.87 -1.17673 -2.02954 0
M  V30 21873 C 1995.88 -0.0981428 -1.73723 0
M  V30 21874 O 1997.06 -0.311785 -1.98972 0
M  V30 21875 C 1994.12 -0.862565 -3.35799 0
M  V30 21876 C 1993.18 -2.02583 -3.78495 0
M  V30 21877 C 1992.42 -1.72656 -5.05001 0
M  V30 21878 O 1992.64 -0.651307 -5.66669 0
M  V30 21879 O 1991.57 -2.57698 -5.43944 0
M  V30 21880 H 1995.4 -2.13248 -2.16239 0
M  V30 21881 H 1992.99 -1.09481 -1.01658 0
M  V30 21882 H 1994.87 -0.702274 -4.15507 0
M  V30 21883 H 1993.54 0.0633315 -3.23638 0
M  V30 21884 H 1992.45 -2.2414 -2.99519 0
M  V30 21885 H 1993.78 -2.93321 -3.95251 0
M  V30 21886 N 1995.44 1.1031 -1.12559 0
M  V30 21887 C 1996.66 1.86078 -0.90458 0
M  V30 21888 C 1997.08 1.80726 0.546224 0
M  V30 21889 O 1996.44 1.1969 1.3777 0
M  V30 21890 C 1996.49 3.34425 -1.37268 0
M  V30 21891 O 1996.21 3.39691 -2.76661 0
M  V30 21892 C 1997.71 4.27063 -1.18879 0
M  V30 21893 H 1994.93 0.588055 -0.32316 0
M  V30 21894 H 1997.47 1.39441 -1.49588 0
M  V30 21895 H 1995.63 3.78523 -0.824578 0
M  V30 21896 H 1996.04 4.3215 -2.97232 0
M  V30 21897 H 1997.52 5.29345 -1.56518 0
M  V30 21898 H 1997.99 4.39009 -0.129502 0
M  V30 21899 H 1998.6 3.88771 -1.72445 0
M  V30 21900 N 1996.91 0.917694 1.28125 0
M  V30 21901 C 1997.82 0.414339 2.30912 0
M  V30 21902 C 1998.84 -0.49998 1.66662 0
M  V30 21903 O 2000.02 -0.385213 1.97682 0
M  V30 21904 C 1997.08 -0.333886 3.45089 0
M  V30 21905 C 1996.14 0.614131 4.24885 0
M  V30 21906 C 1995.37 -0.0984806 5.33609 0
M  V30 21907 O 1995.6 -1.31956 5.54927 0
M  V30 21908 O 1994.53 0.568228 5.99212 0
M  V30 21909 H 1998.36 1.26755 2.75984 0
M  V30 21910 H 1995.94 0.682661 1.32891 0
M  V30 21911 H 1997.82 -0.756311 4.14557 0
M  V30 21912 H 1996.5 -1.16286 3.02091 0
M  V30 21913 H 1995.41 1.08603 3.57989 0
M  V30 21914 H 1996.74 1.41003 4.71571 0
M  V30 21915 N 1998.39 -1.42074 0.682102 0
M  V30 21916 C 1999.35 -2.29193 0.0174256 0
M  V30 21917 C 2000.35 -1.43698 -0.721635 0
M  V30 21918 O 2001.54 -1.65003 -0.558542 0
M  V30 21919 C 1998.68 -3.26332 -0.985903 0
M  V30 21920 H 1999.87 -2.89462 0.784316 0
M  V30 21921 H 1997.42 -1.49836 0.44485 0
M  V30 21922 H 1998.16 -2.71016 -1.78103 0
M  V30 21923 H 1997.94 -3.89401 -0.459258 0
M  V30 21924 H 1999.43 -3.91649 -1.44918 0
M  V30 21925 N 1999.87 -0.425924 -1.51735 0
M  V30 21926 C 2000.82 0.391248 -2.2746 0
M  V30 21927 C 2001.79 1.02669 -1.30569 0
M  V30 21928 O 2002.97 1.04777 -1.59457 0
M  V30 21929 C 2000.11 1.4928 -3.11142 0
M  V30 21930 C 1999.22 0.876622 -4.23012 0
M  V30 21931 C 1998.36 1.95227 -4.94024 0
M  V30 21932 C 1997.4 1.31392 -5.97832 0
M  V30 21933 N 1996.54 2.33043 -6.62296 0
M  V30 21934 H 2001.38 -0.26089 -2.96856 0
M  V30 21935 H 1998.91 -0.1405 -1.46427 0
M  V30 21936 H 2000.87 2.14262 -3.57977 0
M  V30 21937 H 1999.5 2.11473 -2.43884 0
M  V30 21938 H 1998.55 0.115399 -3.80225 0
M  V30 21939 H 1999.86 0.370471 -4.97422 0
M  V30 21940 H 1999.02 2.67897 -5.44349 0
M  V30 21941 H 1997.76 2.49212 -4.19219 0
M  V30 21942 H 1996.76 0.572626 -5.4681 0
M  V30 21943 H 1997.99 0.781544 -6.74588 0
M  V30 21944 H 1995.93 2.86129 -5.9031 0
M  V30 21945 H 1995.85 1.87287 -7.32434 0
M  V30 21946 H 1997.12 3.05231 -7.17255 0
M  V30 21947 N 2001.35 1.56817 -0.156891 0
M  V30 21948 C 2002.31 2.16058 0.764967 0
M  V30 21949 C 2003.31 1.10488 1.16829 0
M  V30 21950 O 2004.5 1.36077 1.0876 0
M  V30 21951 C 2001.63 2.73173 2.03935 0
M  V30 21952 H 2002.83 2.98861 0.249482 0
M  V30 21953 H 2000.38 1.56025 0.0926074 0
M  V30 21954 H 2001.11 1.94064 2.59827 0
M  V30 21955 H 2000.9 3.50417 1.75926 0
M  V30 21956 H 2002.39 3.18783 2.69754 0
M  V30 21957 N 2002.83 -0.116876 1.57166 0
M  V30 21958 C 2003.74 -1.16207 2.03797 0
M  V30 21959 C 2004.75 -1.45203 0.958749 0
M  V30 21960 O 2005.93 -1.56277 1.27041 0
M  V30 21961 C 2002.99 -2.46823 2.43474 0
M  V30 21962 C 2002.05 -2.25205 3.65488 0
M  V30 21963 C 2001.29 -3.49592 4.03263 0
M  V30 21964 O 2001.51 -4.56981 3.41357 0
M  V30 21965 O 2000.44 -3.40468 4.96352 0
M  V30 21966 H 2004.27 -0.796087 2.9308 0
M  V30 21967 H 2001.85 -0.327825 1.45759 0
M  V30 21968 H 2003.74 -3.23774 2.69719 0
M  V30 21969 H 2002.41 -2.82891 1.57335 0
M  V30 21970 H 2001.32 -1.46104 3.4439 0
M  V30 21971 H 2002.65 -1.94039 4.52338 0
M  V30 21972 N 2004.3 -1.52772 -0.387116 0
M  V30 21973 C 2005.23 -1.80654 -1.47941 0
M  V30 21974 C 2006.21 -0.658677 -1.56829 0
M  V30 21975 O 2007.4 -0.906449 -1.71747 0
M  V30 21976 C 2004.53 -1.97709 -2.85532 0
M  V30 21977 C 2003.48 -3.13404 -2.91482 0
M  V30 21978 C 2002.81 -3.15717 -4.3154 0
M  V30 21979 C 2004.11 -4.52437 -2.60957 0
M  V30 21980 H 2005.8 -2.72123 -1.24858 0
M  V30 21981 H 2003.35 -1.30941 -0.59921 0
M  V30 21982 H 2005.3 -2.15798 -3.61952 0
M  V30 21983 H 2004.03 -1.02931 -3.09956 0
M  V30 21984 H 2002.69 -2.95102 -2.1751 0
M  V30 21985 H 2002.33 -2.18618 -4.53007 0
M  V30 21986 H 2002.03 -3.93437 -4.36441 0
M  V30 21987 H 2003.56 -3.35963 -5.09864 0
M  V30 21988 H 2004.97 -4.70831 -3.27095 0
M  V30 21989 H 2003.37 -5.32238 -2.77205 0
M  V30 21990 H 2004.44 -4.59022 -1.5629 0
M  V30 21991 N 2005.78 0.645673 -1.43767 0
M  V30 21992 C 2006.71 1.77107 -1.45484 0
M  V30 21993 C 2007.73 1.58993 -0.350002 0
M  V30 21994 O 2008.92 1.67575 -0.61489 0
M  V30 21995 C 2006.02 3.14639 -1.25919 0
M  V30 21996 C 2005.19 3.59344 -2.49381 0
M  V30 21997 C 2004.25 4.75703 -2.24929 0
M  V30 21998 O 2003.27 4.84756 -2.98329 0
M  V30 21999 N 2004.48 5.66422 -1.27068 0
M  V30 22000 H 2007.24 1.7611 -2.42498 0
M  V30 22001 H 2004.8 0.829768 -1.3902 0
M  V30 22002 H 2006.79 3.9018 -1.07432 0
M  V30 22003 H 2005.36 3.10364 -0.37323 0
M  V30 22004 H 2004.58 2.74166 -2.83243 0
M  V30 22005 H 2005.87 3.8596 -3.3153 0
M  V30 22006 H 2005.27 5.61787 -0.664185 0
M  V30 22007 H 2003.83 6.41653 -1.14562 0
M  V30 22008 N 2007.26 1.30423 0.884744 0
M  V30 22009 C 2008.68 1.08759 1.16806 0
M  V30 22010 C 2008.88 -0.151512 2.0093 0
M  V30 22011 O 2007.93 -0.84506 2.37939 0
M  V30 22012 C 2009.24 2.35123 1.87451 0
M  V30 22013 C 2010.79 2.40589 2.00214 0
M  V30 22014 C 2011.27 3.66796 2.74271 0
M  V30 22015 N 2012.76 3.67605 2.81817 0
M  V30 22016 C 2013.49 4.61948 3.39694 0
M  V30 22017 N 2012.99 5.66635 3.98618 0
M  V30 22018 N 2014.78 4.49492 3.37511 0
M  V30 22019 H 2006.93 2.09917 0.32383 0
M  V30 22020 H 2009.2 0.925345 0.206011 0
M  V30 22021 H 2008.9 3.25549 1.33081 0
M  V30 22022 H 2008.78 2.43788 2.87832 0
M  V30 22023 H 2011.16 1.50641 2.53754 0
M  V30 22024 H 2011.24 2.35899 0.989199 0
M  V30 22025 H 2010.89 4.57103 2.21403 0
M  V30 22026 H 2010.82 3.68748 3.75942 0
M  V30 22027 H 2013.31 2.9192 2.39981 0
M  V30 22028 H 2013.62 6.34723 4.40847 0
M  V30 22029 H 2011.97 5.70427 3.97037 0
M  V30 22030 H 2015.16 3.6689 2.90705 0
M  V30 22031 H 2015.33 5.23197 3.8232 0
M  V30 22032 N 2008.74 -1.09711 1.13142 0
M  V30 22033 C 2009.98 -1.82097 0.892675 0
M  V30 22034 C 2010.32 -1.85341 -0.579846 0
M  V30 22035 O 2009.59 -1.3195 -1.42897 0
M  V30 22036 C 2009.87 -3.28392 1.47752 0
M  V30 22037 C 2009.73 -3.33436 3.01895 0
M  V30 22038 C 2011.05 -4.24991 1.14329 0
M  V30 22039 H 2008.17 -0.661111 0.325732 0
M  V30 22040 H 2010.81 -1.28535 1.39924 0
M  V30 22041 H 2008.96 -3.74134 1.04671 0
M  V30 22042 H 2010.63 -2.96119 3.53711 0
M  V30 22043 H 2008.87 -2.73109 3.37037 0
M  V30 22044 H 2009.54 -4.36484 3.37914 0
M  V30 22045 H 2012.02 -3.8752 1.51551 0
M  V30 22046 H 2010.9 -5.25698 1.57902 0
M  V30 22047 H 2011.16 -4.42064 0.0565583 0
M  V30 22048 N 2010.22 -0.924476 -1.27637 0
M  V30 22049 C 2011.15 -0.438348 -2.29349 0
M  V30 22050 C 2012.13 0.499673 -1.62595 0
M  V30 22051 O 2013.31 0.405114 -1.89928 0
M  V30 22052 C 2010.44 0.312668 -3.4589 0
M  V30 22053 C 2009.4 -0.537216 -4.24615 0
M  V30 22054 C 2008.72 0.342776 -5.336 0
M  V30 22055 C 2010.02 -1.80003 -4.90302 0
M  V30 22056 H 2011.72 -1.28838 -2.70261 0
M  V30 22057 H 2009.26 -0.620964 -1.29923 0
M  V30 22058 H 2011.22 0.66367 -4.16141 0
M  V30 22059 H 2009.94 1.1967 -3.03886 0
M  V30 22060 H 2008.6 -0.870883 -3.56106 0
M  V30 22061 H 2008.25 1.22567 -4.87838 0
M  V30 22062 H 2007.95 -0.222352 -5.87179 0
M  V30 22063 H 2009.47 0.689422 -6.06695 0
M  V30 22064 H 2010.88 -1.51729 -5.52857 0
M  V30 22065 H 2009.28 -2.3084 -5.53925 0
M  V30 22066 H 2010.35 -2.52148 -4.14186 0
M  V30 22067 N 2011.69 1.41711 -0.689627 0
M  V30 22068 C 2012.92 2.06171 -0.225425 0
M  V30 22069 C 2013.34 1.51535 1.11439 0
M  V30 22070 O 2012.7 0.639865 1.69633 0
M  V30 22071 C 2012.75 3.60114 -0.187089 0
M  V30 22072 O 2011.85 4.03757 0.83989 0
M  V30 22073 H 2011.2 0.654551 -0.111621 0
M  V30 22074 H 2013.73 1.81582 -0.942814 0
M  V30 22075 H 2013.74 4.07997 -0.0159369 0
M  V30 22076 H 2012.41 3.99251 -1.16497 0
M  V30 22077 H 2010.99 3.67392 0.638575 0
M  V30 22078 N 2013.17 0.433965 1.51507 0
M  V30 22079 C 2014.12 -0.37918 2.27664 0
M  V30 22080 C 2015.09 -1.01975 1.31112 0
M  V30 22081 O 2016.27 -1.0393 1.6001 0
M  V30 22082 C 2013.41 -1.47628 3.1193 0
M  V30 22083 C 2012.53 -0.854176 4.23471 0
M  V30 22084 C 2011.66 -1.92604 4.95053 0
M  V30 22085 C 2010.7 -1.28219 5.9852 0
M  V30 22086 N 2009.84 -2.29527 6.63522 0
M  V30 22087 H 2014.68 0.276629 2.96713 0
M  V30 22088 H 2012.22 0.148264 1.46351 0
M  V30 22089 H 2014.17 -2.1236 3.59109 0
M  V30 22090 H 2012.8 -2.10176 2.45002 0
M  V30 22091 H 2011.86 -0.0952329 3.80281 0
M  V30 22092 H 2013.17 -0.344086 4.97612 0
M  V30 22093 H 2012.32 -2.65006 5.45762 0
M  V30 22094 H 2011.06 -2.46985 4.20535 0
M  V30 22095 H 2010.07 -0.543619 5.47106 0
M  V30 22096 H 2011.29 -0.745758 6.74993 0
M  V30 22097 H 2009.24 -2.82995 5.91819 0
M  V30 22098 H 2009.15 -1.834 7.33417 0
M  V30 22099 H 2010.42 -3.01423 7.18863 0
M  V30 22100 N 2014.65 -1.56732 0.165206 0
M  V30 22101 C 2015.61 -2.1646 -0.753498 0
M  V30 22102 C 2016.61 -1.11106 -1.16241 0
M  V30 22103 O 2017.8 -1.36652 -1.08037 0
M  V30 22104 C 2014.94 -2.7425 -2.02483 0
M  V30 22105 H 2016.13 -2.98989 -0.233629 0
M  V30 22106 H 2013.68 -1.56072 -0.0843317 0
M  V30 22107 H 2014.42 -1.95439 -2.58794 0
M  V30 22108 H 2014.2 -3.51345 -1.74065 0
M  V30 22109 H 2015.69 -3.20209 -2.6806 0
M  V30 22110 N 2016.13 0.10854 -1.57226 0
M  V30 22111 C 2017.08 1.15155 -2.02094 0
M  V30 22112 C 2018.07 1.42263 -0.919651 0
M  V30 22113 O 2019.28 1.42102 -1.10485 0
M  V30 22114 H 2015.65 0.388515 -0.643863 0
M  V30 22115 H 2017.62 0.746707 -2.88906 0
M  V30 22116 C 2016.37 2.46727 -2.44992 0
M  V30 22117 H 2015.69 2.26708 -3.29307 0
M  V30 22118 H 2017.13 3.18242 -2.80175 0
M  V30 22119 C 2015.59 3.10059 -1.31776 0
M  V30 22120 O 2016.12 3.96577 -0.639471 0
M  V30 22121 N 2014.33 2.70099 -1.07215 0
M  V30 22122 H 2013.88 1.99837 -1.62552 0
M  V30 22123 H 2013.83 3.12802 -0.316602 0
M  V30 22124 N 2017.61 1.52975 0.379009 0
M  V30 22125 C 2018.83 1.72698 1.14849 0
M  V30 22126 C 2019.26 0.448814 1.82667 0
M  V30 22127 O 2018.61 -0.596182 1.71217 0
M  V30 22128 C 2018.66 2.884 2.16466 0
M  V30 22129 O 2017.77 2.56071 3.23267 0
M  V30 22130 H 2017.11 0.573952 0.333878 0
M  V30 22131 H 2019.64 1.99807 0.440243 0
M  V30 22132 H 2019.65 3.14183 2.60295 0
M  V30 22133 H 2018.32 3.8112 1.66494 0
M  V30 22134 H 2016.9 2.41063 2.84505 0
M  V30 22135 N 2019.08 -0.63804 1.44107 0
M  V30 22136 C 2019.99 -1.77914 1.52917 0
M  V30 22137 C 2021.01 -1.68972 0.415266 0
M  V30 22138 O 2022.19 -1.89872 0.671613 0
M  V30 22139 C 2019.25 -3.14268 1.46412 0
M  V30 22140 C 2018.31 -3.34893 2.68598 0
M  V30 22141 C 2017.55 -4.64742 2.62394 0
M  V30 22142 O 2017.77 -5.45095 1.68011 0
M  V30 22143 O 2016.7 -4.87419 3.53138 0
M  V30 22144 H 2020.53 -1.73435 2.49307 0
M  V30 22145 H 2018.11 -0.798412 1.26276 0
M  V30 22146 H 2020 -3.95564 1.45282 0
M  V30 22147 H 2018.67 -3.19304 0.531634 0
M  V30 22148 H 2017.58 -2.53302 2.75297 0
M  V30 22149 H 2018.91 -3.34714 3.6087 0
M  V30 22150 N 2020.56 -1.3089 -0.877815 0
M  V30 22151 C 2021.81 -1.20303 -1.63264 0
M  V30 22152 C 2022.14 0.240114 -1.9271 0
M  V30 22153 O 2021.42 1.17082 -1.55313 0
M  V30 22154 C 2021.7 -2.03934 -2.96788 0
M  V30 22155 C 2021.55 -3.56506 -2.74269 0
M  V30 22156 C 2022.87 -1.88268 -3.97798 0
M  V30 22157 H 2019.99 -0.438382 -0.592445 0
M  V30 22158 H 2022.63 -1.60598 -1.01529 0
M  V30 22159 H 2020.78 -1.69698 -3.49478 0
M  V30 22160 H 2022.45 -4.00838 -2.28312 0
M  V30 22161 H 2020.7 -3.8033 -2.08643 0
M  V30 22162 H 2021.37 -4.1032 -3.69244 0
M  V30 22163 H 2023.84 -2.18214 -3.54291 0
M  V30 22164 H 2022.72 -2.49098 -4.89123 0
M  V30 22165 H 2022.98 -0.843802 -4.33973 0
M  V30 22166 N 2022.04 1.0911 -1.13723 0
M  V30 22167 C 2023 2.14011 -0.820475 0
M  V30 22168 C 2024 1.59882 0.171573 0
M  V30 22169 O 2025.19 1.7411 -0.0559029 0
M  V30 22170 C 2022.33 3.40178 -0.221758 0
M  V30 22171 H 2023.52 2.43541 -1.75007 0
M  V30 22172 H 2021.07 1.24702 -0.94229 0
M  V30 22173 H 2021.81 3.16277 0.716904 0
M  V30 22174 H 2021.59 3.80759 -0.936208 0
M  V30 22175 H 2023.08 4.17596 -0.0171079 0
M  V30 22176 N 2023.52 0.931232 1.27145 0
M  V30 22177 C 2024.45 0.39037 2.25851 0
M  V30 22178 C 2025.46 -0.480869 1.55536 0
M  V30 22179 O 2026.65 -0.292921 1.7608 0
M  V30 22180 C 2023.75 -0.458971 3.35778 0
M  V30 22181 C 2022.93 0.393796 4.35624 0
M  V30 22182 C 2021.98 -0.393477 5.24727 0
M  V30 22183 O 2021.01 0.20005 5.68848 0
M  V30 22184 N 2022.21 -1.69245 5.55281 0
M  V30 22185 H 2024.98 1.23887 2.72896 0
M  V30 22186 H 2022.54 0.799038 1.40808 0
M  V30 22187 H 2024.53 -0.992799 3.92334 0
M  V30 22188 H 2023.1 -1.20824 2.88306 0
M  V30 22189 H 2022.32 1.1089 3.78282 0
M  V30 22190 H 2023.61 0.976663 4.99338 0
M  V30 22191 H 2023.01 -2.19693 5.21298 0
M  V30 22192 H 2021.56 -2.17273 6.14521 0
M  V30 22193 N 2025 -1.41343 0.697132 0
M  V30 22194 C 2026.24 -2.02004 0.237858 0
M  V30 22195 C 2026.6 -1.54232 -1.15022 0
M  V30 22196 O 2025.89 -0.74437 -1.76549 0
M  V30 22197 C 2026.09 -3.56617 0.236459 0
M  V30 22198 C 2025.91 -4.19396 1.62287 0
M  V30 22199 C 2024.68 -4.53622 2.22609 0
M  V30 22200 C 2026.88 -4.45497 2.56977 0
M  V30 22201 N 2024.86 -5.01697 3.53798 0
M  V30 22202 C 2026.24 -4.95364 3.72847 0
M  V30 22203 C 2028.29 -4.27511 2.55223 0
M  V30 22204 C 2026.99 -5.29134 4.87247 0
M  V30 22205 C 2029.02 -4.62371 3.68737 0
M  V30 22206 C 2028.38 -5.1241 4.83337 0
M  V30 22207 H 2024.48 -0.7707 0.132462 0
M  V30 22208 H 2027.06 -1.71863 0.91495 0
M  V30 22209 H 2025.24 -3.86229 -0.410125 0
M  V30 22210 H 2026.97 -4.04001 -0.237789 0
M  V30 22211 H 2023.72 -4.40129 1.7488 0
M  V30 22212 H 2024.15 -5.30138 4.21049 0
M  V30 22213 H 2028.79 -3.8806 1.67837 0
M  V30 22214 H 2026.51 -5.67508 5.75292 0
M  V30 22215 H 2030.09 -4.50112 3.68634 0
M  V30 22216 H 2028.97 -5.38879 5.69718 0
M  V30 22217 N 2026.48 -0.441993 -1.51275 0
M  V30 22218 C 2027.89 -0.0945327 -1.5932 0
M  V30 22219 C 2028.09 1.39653 -1.45256 0
M  V30 22220 O 2027.15 2.16693 -1.29616 0
M  V30 22221 C 2028.46 -0.618795 -2.94264 0
M  V30 22222 C 2030.01 -0.579646 -3.07586 0
M  V30 22223 C 2030.48 -1.08096 -4.45061 0
M  V30 22224 N 2031.97 -1.03914 -4.51393 0
M  V30 22225 C 2032.71 -1.39786 -5.561 0
M  V30 22226 N 2032.21 -1.82965 -6.68203 0
M  V30 22227 N 2034 -1.31573 -5.46484 0
M  V30 22228 H 2026.15 -1.4121 -1.58662 0
M  V30 22229 H 2028.41 -0.582182 -0.748176 0
M  V30 22230 H 2028.12 -1.66222 -3.09941 0
M  V30 22231 H 2027.99 -0.0462651 -3.77172 0
M  V30 22232 H 2030.38 0.454801 -2.91574 0
M  V30 22233 H 2030.46 -1.18863 -2.26506 0
M  V30 22234 H 2030.1 -2.1139 -4.61819 0
M  V30 22235 H 2030.03 -0.448465 -5.24687 0
M  V30 22236 H 2032.53 -0.722104 -3.70937 0
M  V30 22237 H 2032.84 -2.08561 -7.44125 0
M  V30 22238 H 2031.18 -1.86895 -6.69399 0
M  V30 22239 H 2034.37 -0.977017 -4.5779 0
M  V30 22240 H 2034.55 -1.59857 -6.27973 0
M  V30 22241 N 2027.95 1.56642 -0.173515 0
M  V30 22242 C 2029.18 2.01325 0.477079 0
M  V30 22243 C 2029.6 1.05373 1.56659 0
M  V30 22244 O 2028.95 0.0549577 1.82417 0
M  V30 22245 C 2029 3.45813 1.05337 0
M  V30 22246 O 2028.73 4.38099 0.00735116 0
M  V30 22247 C 2030.23 4.05907 1.78198 0
M  V30 22248 H 2027.45 0.659835 0.121896 0
M  V30 22249 H 2029.99 2.0263 -0.27589 0
M  V30 22250 H 2028.15 3.45275 1.75682 0
M  V30 22251 H 2028.56 5.22708 0.433152 0
M  V30 22252 H 2030.03 5.08923 2.13778 0
M  V30 22253 H 2030.51 3.48125 2.67779 0
M  V30 22254 H 2031.12 4.10154 1.12489 0
M  V30 22255 N 2029.43 -0.1002 1.57281 0
M  V30 22256 C 2030.38 -1.12192 2.01697 0
M  V30 22257 C 2031.35 -1.40092 0.892374 0
M  V30 22258 O 2032.53 -1.51641 1.158 0
M  V30 22259 C 2029.67 -2.43833 2.44212 0
M  V30 22260 C 2028.79 -2.22707 3.70169 0
M  V30 22261 C 2027.92 -3.47711 4.01585 0
M  V30 22262 C 2026.96 -3.21825 5.20668 0
M  V30 22263 N 2026.1 -4.39081 5.47862 0
M  V30 22264 H 2030.94 -0.736171 2.88764 0
M  V30 22265 H 2028.47 -0.351977 1.42827 0
M  V30 22266 H 2030.43 -3.20652 2.66904 0
M  V30 22267 H 2029.06 -2.80264 1.60162 0
M  V30 22268 H 2028.11 -1.36715 3.54983 0
M  V30 22269 H 2029.43 -1.99568 4.57137 0
M  V30 22270 H 2028.58 -4.3294 4.25027 0
M  V30 22271 H 2027.32 -3.739 3.1313 0
M  V30 22272 H 2026.32 -2.34988 4.97052 0
M  V30 22273 H 2027.55 -2.96987 6.10717 0
M  V30 22274 H 2025.5 -4.65355 4.62364 0
M  V30 22275 H 2025.41 -4.19114 6.2919 0
M  V30 22276 H 2026.68 -5.2539 5.75835 0
M  V30 22277 N 2030.91 -1.53174 -0.370891 0
M  V30 22278 C 2032.14 -1.72749 -1.13319 0
M  V30 22279 C 2032.55 -0.453832 -1.83676 0
M  V30 22280 O 2031.89 0.582685 -1.74214 0
M  V30 22281 C 2031.95 -2.83436 -2.21143 0
M  V30 22282 C 2031.62 -4.23963 -1.70599 0
M  V30 22283 C 2032.61 -5.06496 -1.17293 0
M  V30 22284 C 2030.3 -4.70354 -1.76273 0
M  V30 22285 C 2032.29 -6.33508 -0.703308 0
M  V30 22286 C 2029.98 -5.97346 -1.28923 0
M  V30 22287 C 2030.98 -6.78754 -0.760411 0
M  V30 22288 O 2030.67 -8.03363 -0.293883 0
M  V30 22289 H 2030.4 -0.581347 -0.344981 0
M  V30 22290 H 2032.95 -2.0069 -0.437343 0
M  V30 22291 H 2031.18 -2.50957 -2.94206 0
M  V30 22292 H 2032.87 -2.9124 -2.82726 0
M  V30 22293 H 2033.64 -4.71831 -1.12252 0
M  V30 22294 H 2029.52 -4.07066 -2.16375 0
M  V30 22295 H 2033.06 -6.96997 -0.289876 0
M  V30 22296 H 2028.96 -6.31511 -1.33655 0
M  V30 22297 H 2029.72 -8.17454 -0.413701 0
M  V30 22298 N 2032.39 0.630389 -1.44443 0
M  V30 22299 C 2033.3 1.77101 -1.53859 0
M  V30 22300 C 2034.31 1.68749 -0.424221 0
M  V30 22301 O 2035.49 1.89513 -0.681673 0
M  V30 22302 C 2032.55 3.13487 -1.48077 0
M  V30 22303 C 2031.62 3.33464 -2.7037 0
M  V30 22304 C 2030.85 4.63344 -2.64855 0
M  V30 22305 O 2031.07 5.44196 -1.70899 0
M  V30 22306 O 2030.01 4.85539 -3.55718 0
M  V30 22307 H 2033.83 1.7211 -2.50223 0
M  V30 22308 H 2031.42 0.791704 -1.26698 0
M  V30 22309 H 2033.3 3.94788 -1.47378 0
M  V30 22310 H 2031.97 3.19018 -0.54856 0
M  V30 22311 H 2030.88 2.51839 -2.76637 0
M  V30 22312 H 2032.21 3.32795 -3.6264 0
M  V30 22313 N 2033.87 1.31354 0.870861 0
M  V30 22314 C 2035.09 1.23948 1.65664 0
M  V30 22315 C 2035.51 -0.195353 1.87787 0
M  V30 22316 O 2034.87 -1.12708 1.43538 0
M  V30 22317 C 2034.92 1.97912 3.02511 0
M  V30 22318 O 2034.64 3.35795 2.81377 0
M  V30 22319 C 2036.14 1.97336 3.96955 0
M  V30 22320 H 2033.36 0.428328 0.516504 0
M  V30 22321 H 2035.9 1.73214 1.08706 0
M  V30 22322 H 2034.06 1.52409 3.5616 0
M  V30 22323 H 2034.47 3.73444 3.68293 0
M  V30 22324 H 2035.95 2.53601 4.90297 0
M  V30 22325 H 2036.42 0.955651 4.28677 0
M  V30 22326 H 2037.03 2.42714 3.49242 0
M  V30 22327 N 2035.34 -1.08505 1.143 0
M  V30 22328 C 2036.62 -1.77515 0.82144 0
M  V30 22329 C 2037 -1.99668 -0.685253 0
M  V30 22330 O 2036.35 -1.60569 -1.62573 0
M  V30 22331 C 2036.56 -3.09174 1.61903 0
M  V30 22332 C 2037.91 -3.83722 1.81775 0
M  V30 22333 O 2038.93 -3.18952 1.58581 0
M  V30 22334 O 2037.79 -5.00023 2.20543 0
M  V30 22335 H 2034.88 -0.770315 0.300906 0
M  V30 22336 H 2037.43 -1.14976 1.24814 0
M  V30 22337 H 2036.2 -2.88593 2.64253 0
M  V30 22338 H 2035.82 -3.7944 1.1879 0
M  V30 22339 N 2036.82 -0.937962 -1.26649 0
M  V30 22340 C 2037.78 -0.449635 -2.24746 0
M  V30 22341 C 2038.78 0.437489 -1.54734 0
M  V30 22342 O 2039.97 0.237121 -1.72579 0
M  V30 22343 C 2037.11 0.35235 -3.39074 0
M  V30 22344 H 2038.3 -1.31648 -2.6946 0
M  V30 22345 H 2035.85 -0.71962 -1.38749 0
M  V30 22346 H 2036.59 1.23758 -2.99757 0
M  V30 22347 H 2036.37 -0.283853 -3.91071 0
M  V30 22348 H 2037.86 0.684038 -4.1196 0
M  V30 22349 N 2038.3 1.40971 -0.704618 0
M  V30 22350 C 2039.55 2.00309 -0.236478 0
M  V30 22351 C 2039.86 1.56482 1.17358 0
M  V30 22352 O 2041.07 2.08442 1.73966 0
M  V30 22353 C 2039.52 3.57974 -0.371877 0
M  V30 22354 C 2039.13 4.10779 -1.78788 0
M  V30 22355 C 2040.88 4.24485 0.0360284 0
M  V30 22356 C 2038.78 5.60909 -1.87445 0
M  V30 22357 H 2037.71 0.749233 -0.0846557 0
M  V30 22358 H 2040.36 1.61342 -0.874125 0
M  V30 22359 H 2038.75 3.94587 0.334172 0
M  V30 22360 H 2039.92 3.85565 -2.52342 0
M  V30 22361 H 2038.23 3.56826 -2.14626 0
M  V30 22362 H 2040.83 5.34699 -0.00808813 0
M  V30 22363 H 2041.17 4.02149 1.07621 0
M  V30 22364 H 2041.71 3.92938 -0.620069 0
M  V30 22365 H 2038.45 5.88084 -2.89546 0
M  V30 22366 H 2037.97 5.88021 -1.18287 0
M  V30 22367 H 2039.65 6.25831 -1.6415 0
M  V30 22368 N 2039.78 0.45001 1.51039 0
M  V30 22369 C 2040.71 -0.390998 2.2584 0
M  V30 22370 C 2041.72 -0.975406 1.30344 0
M  V30 22371 O 2042.91 -0.867391 1.56008 0
M  V30 22372 C 2040.01 -1.56025 3.00848 0
M  V30 22373 C 2039.19 -1.09244 4.23538 0
M  V30 22374 C 2038.24 -2.13329 4.81017 0
M  V30 22375 O 2037.27 -1.72246 5.42513 0
M  V30 22376 N 2038.47 -3.45941 4.6616 0
M  V30 22377 H 2041.24 0.250165 2.98654 0
M  V30 22378 H 2038.8 0.279599 1.59467 0
M  V30 22379 H 2040.79 -2.25304 3.36185 0
M  V30 22380 H 2039.36 -2.10651 2.30965 0
M  V30 22381 H 2038.58 -0.226269 3.9355 0
M  V30 22382 H 2039.87 -0.757479 5.0313 0
M  V30 22383 H 2039.27 -3.82042 4.17205 0
M  V30 22384 H 2037.82 -4.11078 5.05824 0
M  V30 22385 N 2041.26 -1.56548 0.18182 0
M  V30 22386 C 2042.67 -1.58646 -0.174214 0
M  V30 22387 C 2042.87 -1.19756 -1.62052 0
M  V30 22388 O 2041.93 -0.914071 -2.35374 0
M  V30 22389 C 2043.24 -3.00476 0.116117 0
M  V30 22390 C 2044.79 -3.12951 0.0551643 0
M  V30 22391 C 2045.26 -4.5689 0.318626 0
M  V30 22392 N 2046.76 -4.62431 0.266773 0
M  V30 22393 C 2047.49 -5.71673 0.444657 0
M  V30 22394 N 2046.99 -6.89433 0.682169 0
M  V30 22395 N 2048.78 -5.60815 0.379832 0
M  V30 22396 H 2040.93 -1.80112 1.12576 0
M  V30 22397 H 2043.19 -0.835277 0.448348 0
M  V30 22398 H 2042.9 -3.33443 1.11843 0
M  V30 22399 H 2042.77 -3.72598 -0.587444 0
M  V30 22400 H 2045.16 -2.79805 -0.937734 0
M  V30 22401 H 2045.24 -2.43243 0.791599 0
M  V30 22402 H 2044.89 -4.90748 1.30878 0
M  V30 22403 H 2044.82 -5.24771 -0.438543 0
M  V30 22404 H 2047.31 -3.77795 0.0892717 0
M  V30 22405 H 2047.62 -7.68574 0.80707 0
M  V30 22406 H 2045.96 -6.91272 0.718908 0
M  V30 22407 H 2049.16 -4.67695 0.194792 0
M  V30 22408 H 2049.33 -6.45895 0.521886 0
M  V30 22409 N 2042.73 0.0918577 -1.57332 0
M  V30 22410 C 2043.96 0.808218 -1.90461 0
M  V30 22411 C 2044.38 1.72122 -0.775843 0
M  V30 22412 O 2043.73 1.80752 0.251995 0
M  V30 22413 C 2043.79 1.61885 -3.23227 0
M  V30 22414 O 2043.51 0.742563 -4.31761 0
M  V30 22415 C 2045.01 2.43798 -3.7024 0
M  V30 22416 H 2042.23 0.230915 -0.630015 0
M  V30 22417 H 2044.77 0.0681235 -2.04387 0
M  V30 22418 H 2042.93 2.31142 -3.1089 0
M  V30 22419 H 2043.34 1.30433 -5.08023 0
M  V30 22420 H 2044.81 2.96164 -4.65823 0
M  V30 22421 H 2045.29 3.2241 -2.98242 0
M  V30 22422 H 2045.9 1.79734 -3.85455 0
M  V30 22423 N 2044.21 1.53368 0.362763 0
M  V30 22424 C 2045.12 1.82969 1.46832 0
M  V30 22425 C 2046.14 0.718285 1.58482 0
M  V30 22426 O 2047.31 1.00863 1.74323 0
M  V30 22427 C 2044.38 2.01596 2.82064 0
M  V30 22428 C 2043.44 3.25491 2.79918 0
M  V30 22429 C 2042.67 3.4322 4.087 0
M  V30 22430 O 2042.9 2.65185 5.05008 0
M  V30 22431 O 2041.83 4.36585 4.1434 0
M  V30 22432 H 2045.66 2.769 1.24741 0
M  V30 22433 H 2043.24 1.38783 0.553131 0
M  V30 22434 H 2045.12 2.15403 3.62187 0
M  V30 22435 H 2043.8 1.10854 3.04127 0
M  V30 22436 H 2042.71 3.17105 1.98483 0
M  V30 22437 H 2044.04 4.16164 2.62809 0
M  V30 22438 N 2045.69 -0.62272 1.44776 0
M  V30 22439 C 2046.6 -1.76282 1.54796 0
M  V30 22440 C 2047.62 -1.68522 0.433164 0
M  V30 22441 O 2048.79 -1.89149 0.691713 0
M  V30 22442 C 2045.86 -3.12697 1.49737 0
M  V30 22443 C 2044.92 -3.32026 2.72135 0
M  V30 22444 C 2044.15 -4.61933 2.67308 0
M  V30 22445 O 2044.37 -5.43282 1.73783 0
M  V30 22446 O 2043.31 -4.83646 3.58288 0
M  V30 22447 H 2047.13 -1.70781 2.51133 0
M  V30 22448 H 2044.72 -0.784974 1.27116 0
M  V30 22449 H 2046.6 -3.94001 1.4947 0
M  V30 22450 H 2045.28 -3.18723 0.565471 0
M  V30 22451 H 2044.18 -2.50368 2.77969 0
M  V30 22452 H 2045.52 -3.30868 3.644 0
M  V30 22453 N 2047.17 -1.31814 -0.863883 0
M  V30 22454 C 2048.1 -1.22574 -1.98741 0
M  V30 22455 C 2049.08 -0.111585 -1.69734 0
M  V30 22456 O 2050.26 -0.29721 -1.91912 0
M  V30 22457 C 2047.39 -0.938559 -3.34378 0
M  V30 22458 C 2046.35 -2.01295 -3.7771 0
M  V30 22459 C 2045.67 -1.57834 -5.10874 0
M  V30 22460 C 2046.97 -3.42684 -3.94164 0
M  V30 22461 H 2048.67 -2.16572 -2.06729 0
M  V30 22462 H 2046.21 -1.04262 -0.993246 0
M  V30 22463 H 2048.17 -0.860501 -4.12521 0
M  V30 22464 H 2046.89 0.0370783 -3.26579 0
M  V30 22465 H 2045.55 -2.081 -3.01811 0
M  V30 22466 H 2045.2 -0.5904 -4.99523 0
M  V30 22467 H 2044.9 -2.29713 -5.40838 0
M  V30 22468 H 2046.42 -1.51448 -5.9152 0
M  V30 22469 H 2047.84 -3.38519 -4.62685 0
M  V30 22470 H 2046.23 -4.12833 -4.35533 0
M  V30 22471 H 2047.3 -3.83023 -2.97358 0
M  V30 22472 N 2048.65 1.07897 -1.14873 0
M  V30 22473 C 2049.56 2.18494 -0.854259 0
M  V30 22474 C 2050.57 1.73194 0.167297 0
M  V30 22475 O 2051.75 2.01399 -0.00544437 0
M  V30 22476 C 2048.81 3.45013 -0.341649 0
M  V30 22477 C 2047.87 4.0491 -1.42641 0
M  V30 22478 C 2047.11 5.2539 -0.938165 0
M  V30 22479 O 2047.33 5.69982 0.218391 0
M  V30 22480 O 2046.26 5.76818 -1.71943 0
M  V30 22481 H 2050.09 2.46164 -1.77867 0
M  V30 22482 H 2047.68 1.1713 -0.927406 0
M  V30 22483 H 2049.56 4.21354 -0.0619573 0
M  V30 22484 H 2048.23 3.18907 0.554969 0
M  V30 22485 H 2047.14 3.30133 -1.75963 0
M  V30 22486 H 2048.47 4.35276 -2.29774 0
M  V30 22487 N 2050.12 0.944665 1.2615 0
M  V30 22488 C 2051.03 0.463226 2.29981 0
M  V30 22489 C 2052.05 -0.464516 1.67685 0
M  V30 22490 O 2053.23 -0.343195 1.98454 0
M  V30 22491 C 2050.29 -0.260612 3.45719 0
M  V30 22492 C 2049.35 0.704117 4.23486 0
M  V30 22493 C 2048.59 0.0147279 5.33698 0
M  V30 22494 O 2048.81 -1.20155 5.57601 0
M  V30 22495 O 2047.74 0.695202 5.97872 0
M  V30 22496 H 2051.57 1.3258 2.73233 0
M  V30 22497 H 2049.15 0.710696 1.31413 0
M  V30 22498 H 2051.04 -0.668207 4.16068 0
M  V30 22499 H 2049.71 -1.09852 3.0449 0
M  V30 22500 H 2048.62 1.16172 3.55605 0
M  V30 22501 H 2049.95 1.50974 4.68474 0
M  V30 22502 N 2051.6 -1.40596 0.712085 0
M  V30 22503 C 2052.57 -2.29105 0.0660369 0
M  V30 22504 C 2053.57 -1.45196 -0.690992 0
M  V30 22505 O 2054.76 -1.66151 -0.523417 0
M  V30 22506 C 2051.89 -3.2835 -0.916461 0
M  V30 22507 H 2053.08 -2.87734 0.845539 0
M  V30 22508 H 2050.63 -1.48859 0.476533 0
M  V30 22509 H 2051.37 -2.74733 -1.72314 0
M  V30 22510 H 2051.15 -3.90288 -0.376557 0
M  V30 22511 H 2052.64 -3.94634 -1.36578 0
M  V30 22512 N 2053.08 -0.458013 -1.50798 0
M  V30 22513 C 2054.03 0.342913 -2.28238 0
M  V30 22514 C 2055 0.99876 -1.32718 0
M  V30 22515 O 2056.18 1.01371 -1.61643 0
M  V30 22516 C 2053.32 1.42646 -3.14239 0
M  V30 22517 C 2052.44 0.786698 -4.24776 0
M  V30 22518 C 2051.57 1.84704 -4.98054 0
M  V30 22519 C 2050.61 1.18681 -6.00484 0
M  V30 22520 N 2049.75 2.18942 -6.6709 0
M  V30 22521 H 2054.59 -0.323799 -2.96236 0
M  V30 22522 H 2052.12 -0.171528 -1.46097 0
M  V30 22523 H 2054.08 2.0662 -3.62442 0
M  V30 22524 H 2052.71 2.06252 -2.48314 0
M  V30 22525 H 2051.76 0.0347215 -3.80384 0
M  V30 22526 H 2053.08 0.264877 -4.98096 0
M  V30 22527 H 2052.23 2.5629 -5.49909 0
M  V30 22528 H 2050.97 2.40263 -4.24411 0
M  V30 22529 H 2049.97 0.45651 -5.47901 0
M  V30 22530 H 2051.2 0.638278 -6.76094 0
M  V30 22531 H 2049.14 2.73543 -5.96247 0
M  V30 22532 H 2049.06 1.71709 -7.36242 0
M  V30 22533 H 2050.33 2.89949 -7.23568 0
M  V30 22534 N 2054.56 1.56449 -0.190119 0
M  V30 22535 C 2055.51 2.1886 0.732745 0
M  V30 22536 C 2056.48 1.1343 1.21338 0
M  V30 22537 O 2057.66 1.4166 1.27817 0
M  V30 22538 C 2054.8 2.84809 1.94878 0
M  V30 22539 C 2053.91 4.04751 1.50998 0
M  V30 22540 C 2053.05 4.58572 2.68114 0
M  V30 22541 C 2052.09 5.70883 2.20815 0
M  V30 22542 N 2051.23 6.19132 3.3109 0
M  V30 22543 H 2056.07 2.97369 0.193776 0
M  V30 22544 H 2053.6 1.46861 0.0839065 0
M  V30 22545 H 2055.56 3.21213 2.66229 0
M  V30 22546 H 2054.19 2.08872 2.46115 0
M  V30 22547 H 2053.24 3.74043 0.69252 0
M  V30 22548 H 2054.55 4.85996 1.12292 0
M  V30 22549 H 2053.71 4.97256 3.47594 0
M  V30 22550 H 2052.45 3.76425 3.1009 0
M  V30 22551 H 2051.45 5.31733 1.39786 0
M  V30 22552 H 2052.68 6.54845 1.79875 0
M  V30 22553 H 2050.62 5.39908 3.72607 0
M  V30 22554 H 2050.54 6.95415 2.96538 0
M  V30 22555 H 2051.81 6.62468 4.108 0
M  V30 22556 N 2056.04 -0.0835127 1.57379 0
M  V30 22557 C 2056.98 -1.10046 2.02875 0
M  V30 22558 C 2057.95 -1.39138 0.907183 0
M  V30 22559 O 2059.14 -1.50405 1.17401 0
M  V30 22560 C 2056.28 -2.41229 2.46784 0
M  V30 22561 C 2055.39 -2.18769 3.72511 0
M  V30 22562 C 2054.53 -3.43432 4.05251 0
M  V30 22563 C 2053.57 -3.16284 5.24052 0
M  V30 22564 N 2052.7 -4.33246 5.52488 0
M  V30 22565 H 2057.54 -0.705503 2.89528 0
M  V30 22566 H 2055.08 -0.336809 1.43192 0
M  V30 22567 H 2057.04 -3.17803 2.7029 0
M  V30 22568 H 2055.67 -2.7855 1.63125 0
M  V30 22569 H 2054.72 -1.32942 3.56414 0
M  V30 22570 H 2056.03 -1.94708 4.59228 0
M  V30 22571 H 2055.19 -4.28408 4.29595 0
M  V30 22572 H 2053.93 -3.70558 3.17078 0
M  V30 22573 H 2052.93 -2.29703 4.99516 0
M  V30 22574 H 2054.16 -2.90493 6.13833 0
M  V30 22575 H 2052.1 -4.60425 4.67274 0
M  V30 22576 H 2052.02 -4.12417 6.336 0
M  V30 22577 H 2053.29 -5.19253 5.81375 0
M  V30 22578 N 2057.52 -1.53558 -0.354624 0
M  V30 22579 C 2058.45 -1.83751 -1.44076 0
M  V30 22580 C 2059.43 -0.691795 -1.55397 0
M  V30 22581 O 2060.61 -0.942676 -1.69786 0
M  V30 22582 C 2057.74 -2.03721 -2.81274 0
M  V30 22583 C 2056.7 -3.19517 -2.84769 0
M  V30 22584 C 2056.02 -3.248 -4.24746 0
M  V30 22585 C 2057.32 -4.5787 -2.51301 0
M  V30 22586 H 2059.02 -2.7471 -1.19058 0
M  V30 22587 H 2056.56 -1.32182 -0.5713 0
M  V30 22588 H 2058.51 -2.23427 -3.57293 0
M  V30 22589 H 2057.24 -1.09482 -3.07703 0
M  V30 22590 H 2055.9 -2.99649 -2.11201 0
M  V30 22591 H 2055.55 -2.28177 -4.48268 0
M  V30 22592 H 2055.25 -4.02606 -4.27998 0
M  V30 22593 H 2056.77 -3.46702 -5.02623 0
M  V30 22594 H 2058.18 -4.77663 -3.17034 0
M  V30 22595 H 2056.58 -5.37998 -2.65853 0
M  V30 22596 H 2057.65 -4.62234 -1.46518 0
M  V30 22597 N 2058.99 0.615033 -1.45104 0
M  V30 22598 C 2059.96 1.7081 -1.52828 0
M  V30 22599 C 2060.96 1.55523 -0.408557 0
M  V30 22600 O 2062.15 1.60726 -0.671773 0
M  V30 22601 C 2059.28 3.10023 -1.41768 0
M  V30 22602 H 2060.47 1.6533 -2.50212 0
M  V30 22603 H 2058.02 0.830115 -1.32434 0
M  V30 22604 H 2058.76 3.21086 -0.455409 0
M  V30 22605 H 2058.54 3.22527 -2.22977 0
M  V30 22606 H 2060.03 3.89657 -1.5019 0
M  V30 22607 N 2060.47 1.3227 0.85688 0
M  V30 22608 C 2061.4 1.16846 1.97179 0
M  V30 22609 C 2062.42 0.10404 1.62467 0
M  V30 22610 O 2063.61 0.352788 1.74979 0
M  V30 22611 C 2060.71 0.76585 3.30133 0
M  V30 22612 C 2059.88 1.91808 3.93101 0
M  V30 22613 C 2058.94 1.49939 5.04386 0
M  V30 22614 O 2057.96 2.21106 5.245 0
M  V30 22615 N 2059.17 0.394147 5.7916 0
M  V30 22616 H 2061.93 2.12882 2.10953 0
M  V30 22617 H 2059.49 1.24777 1.03161 0
M  V30 22618 H 2061.48 0.4682 4.01983 0
M  V30 22619 H 2060.05 -0.103295 3.12429 0
M  V30 22620 H 2059.27 2.38235 3.14067 0
M  V30 22621 H 2060.56 2.68952 4.31906 0
M  V30 22622 H 2059.96 -0.198236 5.65353 0
M  V30 22623 H 2058.52 0.156093 6.51613 0
M  V30 22624 N 2061.95 -1.07287 1.15444 0
M  V30 22625 C 2063.37 -1.31993 0.897222 0
M  V30 22626 C 2063.57 -1.96286 -0.455437 0
M  V30 22627 O 2062.62 -2.22313 -1.19722 0
M  V30 22628 C 2063.93 -2.2104 2.03868 0
M  V30 22629 C 2065.48 -2.34486 2.07329 0
M  V30 22630 C 2065.96 -3.26882 3.20799 0
M  V30 22631 N 2067.45 -3.34463 3.20451 0
M  V30 22632 C 2068.18 -4.06019 4.0489 0
M  V30 22633 N 2067.68 -4.80184 4.99395 0
M  V30 22634 N 2069.47 -4.01967 3.92911 0
M  V30 22635 H 2061.62 -0.639423 2.02547 0
M  V30 22636 H 2063.89 -0.344393 0.883231 0
M  V30 22637 H 2063.59 -1.8106 3.01513 0
M  V30 22638 H 2063.47 -3.21571 1.9716 0
M  V30 22639 H 2065.85 -2.73719 1.10282 0
M  V30 22640 H 2065.93 -1.33658 2.18104 0
M  V30 22641 H 2065.58 -2.88368 4.18098 0
M  V30 22642 H 2065.51 -4.27667 3.0726 0
M  V30 22643 H 2068 -2.816 2.52012 0
M  V30 22644 H 2068.31 -5.32281 5.60265 0
M  V30 22645 H 2066.66 -4.79198 5.03383 0
M  V30 22646 H 2069.85 -3.43139 3.18392 0
M  V30 22647 H 2070.02 -4.57468 4.58942 0
M  V30 22648 N 2063.43 -0.951342 -1.25647 0
M  V30 22649 C 2064.36 -0.486897 -2.28367 0
M  V30 22650 C 2065.34 0.465072 -1.63619 0
M  V30 22651 O 2066.52 0.364737 -1.90744 0
M  V30 22652 C 2063.65 0.239229 -3.46475 0
M  V30 22653 C 2062.61 -0.627163 -4.2338 0
M  V30 22654 C 2061.93 0.229514 -5.34207 0
M  V30 22655 C 2063.23 -1.90362 -4.86374 0
M  V30 22656 H 2064.93 -1.34542 -2.67467 0
M  V30 22657 H 2062.47 -0.648383 -1.28577 0
M  V30 22658 H 2064.43 0.575251 -4.17455 0
M  V30 22659 H 2063.15 1.13197 -3.06356 0
M  V30 22660 H 2061.81 -0.946222 -3.54178 0
M  V30 22661 H 2061.46 1.12192 -4.90328 0
M  V30 22662 H 2061.16 -0.346852 -5.86575 0
M  V30 22663 H 2062.68 0.560578 -6.08021 0
M  V30 22664 H 2064.1 -1.63422 -5.49515 0
M  V30 22665 H 2062.49 -2.42538 -5.48904 0
M  V30 22666 H 2063.56 -2.60876 -4.08744 0
M  V30 22667 N 2064.91 1.40216 -0.719531 0
M  V30 22668 C 2065.84 2.2918 -0.0300683 0
M  V30 22669 C 2066.85 1.4603 0.719654 0
M  V30 22670 O 2068.04 1.69276 0.56638 0
M  V30 22671 C 2065.14 3.2437 0.981688 0
M  V30 22672 C 2064.31 4.36393 0.296683 0
M  V30 22673 C 2063.37 5.11996 1.21437 0
M  V30 22674 O 2062.4 5.64908 0.697679 0
M  V30 22675 N 2063.6 5.21726 2.54524 0
M  V30 22676 H 2066.36 2.88992 -0.79396 0
M  V30 22677 H 2063.93 1.51629 -0.567481 0
M  V30 22678 H 2065.92 3.7182 1.59787 0
M  V30 22679 H 2064.49 2.65699 1.64691 0
M  V30 22680 H 2063.71 3.91019 -0.499755 0
M  V30 22681 H 2065 5.08486 -0.17865 0
M  V30 22682 H 2064.39 4.80227 2.98996 0
M  V30 22683 H 2062.95 5.72669 3.11277 0
M  V30 22684 N 2066.38 0.466004 1.50553 0
M  V30 22685 C 2067.29 -0.33625 2.32178 0
M  V30 22686 C 2068.31 -1.00081 1.42337 0
M  V30 22687 O 2069.49 -0.989904 1.75393 0
M  V30 22688 C 2066.55 -1.40682 3.16875 0
M  V30 22689 C 2065.61 -0.759384 4.2253 0
M  V30 22690 C 2064.84 -1.77894 5.03179 0
M  V30 22691 O 2065.07 -3.00483 4.84836 0
M  V30 22692 O 2064 -1.35358 5.86483 0
M  V30 22693 H 2067.83 0.330908 3.01892 0
M  V30 22694 H 2065.41 0.22795 1.47651 0
M  V30 22695 H 2067.29 -2.02704 3.69444 0
M  V30 22696 H 2065.97 -2.05753 2.49894 0
M  V30 22697 H 2064.88 -0.100338 3.73965 0
M  V30 22698 H 2066.21 -0.151694 4.91966 0
M  V30 22699 N 2067.86 -1.56346 0.198413 0
M  V30 22700 C 2068.82 -2.1801 -0.707414 0
M  V30 22701 C 2069.82 -1.13547 -1.13858 0
M  V30 22702 O 2071.01 -1.38913 -1.05114 0
M  V30 22703 C 2068.15 -2.78484 -1.96621 0
M  V30 22704 H 2069.34 -2.99417 -0.170156 0
M  V30 22705 H 2066.89 -1.56216 -0.0512075 0
M  V30 22706 H 2067.63 -2.00884 -2.5459 0
M  V30 22707 H 2067.41 -3.54959 -1.66574 0
M  V30 22708 H 2068.9 -3.25823 -2.61207 0
M  V30 22709 N 2069.34 0.0751653 -1.57421 0
M  V30 22710 C 2070.25 1.10763 -2.06806 0
M  V30 22711 C 2071.27 1.4261 -0.99691 0
M  V30 22712 O 2072.44 1.52854 -1.31139 0
M  V30 22713 C 2069.51 2.40281 -2.49932 0
M  V30 22714 C 2068.57 2.15435 -3.7133 0
M  V30 22715 C 2067.8 3.38777 -4.1239 0
M  V30 22716 O 2068.02 4.4777 -3.53353 0
M  V30 22717 O 2066.96 3.27189 -5.05204 0
M  V30 22718 H 2070.78 0.718102 -2.95088 0
M  V30 22719 H 2068.37 0.289065 -1.46577 0
M  V30 22720 H 2070.25 3.16509 -2.78208 0
M  V30 22721 H 2068.93 2.7862 -1.64781 0
M  V30 22722 H 2067.83 1.36922 -3.48142 0
M  V30 22723 H 2069.17 1.81978 -4.57324 0
M  V30 22724 N 2070.82 1.53744 0.346476 0
M  V30 22725 C 2071.73 1.84516 1.44883 0
M  V30 22726 C 2072.74 0.735054 1.57712 0
M  V30 22727 O 2073.92 1.02706 1.73244 0
M  V30 22728 C 2070.99 2.04576 2.7991 0
M  V30 22729 C 2070.05 3.28442 2.7645 0
M  V30 22730 C 2069.28 3.47536 4.05036 0
M  V30 22731 O 2069.5 2.70527 5.02167 0
M  V30 22732 O 2068.44 4.40955 4.09686 0
M  V30 22733 H 2072.26 2.78207 1.21797 0
M  V30 22734 H 2069.85 1.39362 0.53838 0
M  V30 22735 H 2071.73 2.19232 3.59882 0
M  V30 22736 H 2070.4 1.14074 3.02934 0
M  V30 22737 H 2069.31 3.19192 1.95108 0
M  V30 22738 H 2070.64 4.18928 2.5838 0
M  V30 22739 N 2072.3 -0.607329 1.45428 0
M  V30 22740 C 2073.26 -1.69997 1.53732 0
M  V30 22741 C 2074.26 -1.55304 0.416799 0
M  V30 22742 O 2075.45 -1.60367 0.680287 0
M  V30 22743 C 2072.58 -3.09267 1.43411 0
M  V30 22744 H 2073.77 -1.64001 2.51085 0
M  V30 22745 H 2071.33 -0.82308 1.32872 0
M  V30 22746 H 2072.06 -3.2084 0.47243 0
M  V30 22747 H 2071.85 -3.2134 2.24685 0
M  V30 22748 H 2073.34 -3.88855 1.52255 0
M  V30 22749 N 2073.77 -1.32722 -0.849853 0
M  V30 22750 C 2075.02 -1.23739 -1.60675 0
M  V30 22751 C 2075.35 0.199183 -1.93176 0
M  V30 22752 O 2074.63 1.13761 -1.57761 0
M  V30 22753 C 2074.91 -2.10183 -2.92395 0
M  V30 22754 C 2074.76 -3.62243 -2.66646 0
M  V30 22755 C 2076.08 -1.96664 -3.93715 0
M  V30 22756 H 2073.2 -0.45085 -0.583013 0
M  V30 22757 H 2075.84 -1.62716 -0.980999 0
M  V30 22758 H 2073.99 -1.77072 -3.458 0
M  V30 22759 H 2075.67 -4.05591 -2.19758 0
M  V30 22760 H 2073.91 -3.8467 -2.00529 0
M  V30 22761 H 2074.58 -4.1806 -3.60458 0
M  V30 22762 H 2077.06 -2.25679 -3.49583 0
M  V30 22763 H 2075.93 -2.59417 -4.83729 0
M  V30 22764 H 2076.19 -0.935664 -4.32085 0
M  V30 22765 N 2075.25 1.06673 -1.16011 0
M  V30 22766 C 2076.16 2.17576 -0.877386 0
M  V30 22767 C 2077.18 1.73362 0.148919 0
M  V30 22768 O 2078.35 2.01382 -0.0268051 0
M  V30 22769 C 2075.42 3.44631 -0.378223 0
M  V30 22770 C 2074.48 4.03374 -1.46928 0
M  V30 22771 C 2073.71 5.24365 -0.993837 0
M  V30 22772 O 2073.94 5.70181 0.157925 0
M  V30 22773 O 2072.87 5.74962 -1.78052 0
M  V30 22774 H 2076.7 2.44264 -1.80468 0
M  V30 22775 H 2074.28 1.1614 -0.939777 0
M  V30 22776 H 2076.16 4.21265 -0.106644 0
M  V30 22777 H 2074.84 3.19478 0.521114 0
M  V30 22778 H 2073.75 3.28248 -1.79455 0
M  V30 22779 H 2075.08 4.32814 -2.34378 0
M  V30 22780 N 2076.73 0.957992 1.25141 0
M  V30 22781 C 2077.69 0.485333 2.24003 0
M  V30 22782 C 2078.69 -0.412817 1.55411 0
M  V30 22783 O 2079.88 -0.209635 1.72934 0
M  V30 22784 C 2077.02 -0.298362 3.39592 0
M  V30 22785 H 2078.21 1.35918 2.67332 0
M  V30 22786 H 2075.76 0.741602 1.37586 0
M  V30 22787 H 2076.5 -1.18973 3.01688 0
M  V30 22788 H 2076.28 0.346033 3.9057 0
M  V30 22789 H 2077.77 -0.618412 4.12996 0
M  V30 22790 N 2078.21 -1.39832 0.726957 0
M  V30 22791 C 2079.45 -2.00971 0.271788 0
M  V30 22792 C 2079.79 -1.57537 -1.13559 0
M  V30 22793 O 2079.06 -0.800579 -1.7726 0
M  V30 22794 C 2079.35 -3.5825 0.364596 0
M  V30 22795 C 2079.2 -4.11724 1.81117 0
M  V30 22796 C 2080.52 -4.39345 -0.257652 0
M  V30 22797 H 2077.64 -0.730152 0.100232 0
M  V30 22798 H 2080.28 -1.66152 0.921599 0
M  V30 22799 H 2078.43 -3.88042 -0.18865 0
M  V30 22800 H 2080.1 -3.92684 2.42068 0
M  V30 22801 H 2078.34 -3.65585 2.33516 0
M  V30 22802 H 2079.01 -5.20873 1.82743 0
M  V30 22803 H 2081.49 -4.1555 0.213875 0
M  V30 22804 H 2080.37 -5.4866 -0.162327 0
M  V30 22805 H 2080.63 -4.21218 -1.34267 0
M  V30 22806 N 2079.69 -0.473982 -1.50304 0
M  V30 22807 C 2080.63 0.332685 -2.30209 0
M  V30 22808 C 2081.63 0.987746 -1.37622 0
M  V30 22809 O 2082.83 0.918521 -1.548 0
M  V30 22810 H 2079.21 0.126129 -0.741347 0
M  V30 22811 H 2081.18 -0.361602 -2.96201 0
M  V30 22812 C 2079.93 1.40037 -3.18253 0
M  V30 22813 H 2079.25 0.905697 -3.89406 0
M  V30 22814 H 2080.69 1.93731 -3.77153 0
M  V30 22815 C 2079.15 2.40388 -2.36041 0
M  V30 22816 O 2079.68 3.45718 -2.04553 0
M  V30 22817 N 2077.89 2.12178 -1.98567 0
M  V30 22818 H 2077.43 1.26545 -2.24375 0
M  V30 22819 H 2077.39 2.79554 -1.43864 0
M  V30 22820 N 2081.16 1.56239 -0.206702 0
M  V30 22821 C 2082.13 2.18382 0.695843 0
M  V30 22822 C 2083.13 1.14149 1.13255 0
M  V30 22823 O 2084.32 1.39468 1.04376 0
M  V30 22824 C 2081.45 2.79522 1.95141 0
M  V30 22825 H 2082.64 2.99503 0.154275 0
M  V30 22826 H 2080.2 1.56241 0.0429222 0
M  V30 22827 H 2080.93 2.02231 2.53521 0
M  V30 22828 H 2080.72 3.55837 1.64689 0
M  V30 22829 H 2082.21 3.27203 2.59476 0
M  V30 22830 N 2082.64 -0.0668159 1.57458 0
M  V30 22831 C 2083.59 -1.07888 2.04031 0
M  V30 22832 C 2084.56 -1.38168 0.921889 0
M  V30 22833 O 2085.74 -1.49151 1.1899 0
M  V30 22834 C 2082.88 -2.38598 2.49329 0
M  V30 22835 C 2082 -2.14805 3.7481 0
M  V30 22836 C 2081.13 -3.39114 4.0887 0
M  V30 22837 C 2080.17 -3.10708 5.27377 0
M  V30 22838 N 2079.31 -4.27361 5.57052 0
M  V30 22839 H 2084.15 -0.674755 2.9026 0
M  V30 22840 H 2081.69 -0.321602 1.43541 0
M  V30 22841 H 2083.64 -3.14919 2.73646 0
M  V30 22842 H 2082.27 -2.76804 1.6607 0
M  V30 22843 H 2081.33 -1.29154 3.57804 0
M  V30 22844 H 2082.64 -1.89826 4.61267 0
M  V30 22845 H 2081.79 -4.23827 4.34114 0
M  V30 22846 H 2080.53 -3.67174 3.2099 0
M  V30 22847 H 2079.54 -2.24392 5.01925 0
M  V30 22848 H 2080.76 -2.83966 6.16879 0
M  V30 22849 H 2078.71 -4.55443 4.72131 0
M  V30 22850 H 2078.62 -4.05673 6.37938 0
M  V30 22851 H 2079.89 -5.13057 5.8685 0
M  V30 22852 N 2084.12 -1.53926 -0.338317 0
M  V30 22853 C 2085.36 -1.73141 -1.08635 0
M  V30 22854 C 2085.73 -0.486994 -1.85721 0
M  V30 22855 O 2086.93 -0.556249 -2.62982 0
M  V30 22856 C 2085.2 -2.9631 -1.99838 0
M  V30 22857 S 2086.76 -3.3636 -2.81793 0
M  V30 22858 H 2083.57 -0.608969 -0.366984 0
M  V30 22859 H 2086.18 -1.92079 -0.364135 0
M  V30 22860 H 2084.88 -3.85045 -1.42017 0
M  V30 22861 H 2084.41 -2.79853 -2.76489 0
M  V30 22862 H 2086.43 -2.90504 -4.02271 0
M  V30 22863 N 2085.6 0.599608 -1.45748 0
M  V30 22864 C 2086.82 1.38971 -1.53954 0
M  V30 22865 C 2087.25 1.87278 -0.175618 0
M  V30 22866 O 2086.61 1.60602 0.841223 0
M  V30 22867 C 2086.66 2.56482 -2.53474 0
M  V30 22868 O 2085.76 3.57375 -2.05808 0
M  V30 22869 H 2085.1 0.414567 -0.518681 0
M  V30 22870 H 2087.63 0.728972 -1.91173 0
M  V30 22871 H 2087.64 3.03623 -2.72539 0
M  V30 22872 H 2086.32 2.20672 -3.52529 0
M  V30 22873 H 2084.89 3.1683 -1.96656 0
M  V30 22874 N 2087.08 1.33171 0.842803 0
M  V30 22875 C 2088.3 1.27579 1.63519 0
M  V30 22876 C 2088.73 -0.151151 1.87492 0
M  V30 22877 O 2088.09 -1.10648 1.4362 0
M  V30 22878 C 2088.13 2.05261 2.9648 0
M  V30 22879 O 2087.24 1.40852 3.87601 0
M  V30 22880 H 2086.58 0.439106 0.498078 0
M  V30 22881 H 2089.11 1.75672 1.04883 0
M  V30 22882 H 2089.12 2.15879 3.46209 0
M  V30 22883 H 2087.79 3.09018 2.78354 0
M  V30 22884 H 2086.37 1.38855 3.46083 0
M  V30 22885 N 2088.56 -1.06056 1.16576 0
M  V30 22886 C 2089.49 -2.15554 0.897693 0
M  V30 22887 C 2090.47 -1.69375 -0.156927 0
M  V30 22888 O 2091.65 -1.94198 -0.00851939 0
M  V30 22889 C 2088.78 -3.44982 0.40063 0
M  V30 22890 C 2087.74 -4.04682 1.39343 0
M  V30 22891 C 2087.06 -5.29347 0.754677 0
M  V30 22892 C 2088.36 -4.43182 2.76381 0
M  V30 22893 H 2090.06 -2.38236 1.81339 0
M  V30 22894 H 2087.6 -1.14495 0.873316 0
M  V30 22895 H 2089.55 -4.20922 0.200566 0
M  V30 22896 H 2088.28 -3.21926 -0.550576 0
M  V30 22897 H 2086.94 -3.308 1.58009 0
M  V30 22898 H 2086.59 -5.0259 -0.203091 0
M  V30 22899 H 2086.29 -5.7025 1.41735 0
M  V30 22900 H 2087.81 -6.07983 0.564687 0
M  V30 22901 H 2089.22 -5.10195 2.61485 0
M  V30 22902 H 2087.62 -4.95076 3.39146 0
M  V30 22903 H 2088.69 -3.53931 3.31453 0
M  V30 22904 N 2090.03 -0.964615 -1.24631 0
M  V30 22905 C 2090.94 -0.499755 -2.29215 0
M  V30 22906 C 2091.96 0.43778 -1.68403 0
M  V30 22907 O 2093.14 0.311579 -1.98975 0
M  V30 22908 C 2090.2 0.205579 -3.4609 0
M  V30 22909 C 2089.26 -0.771401 -4.22313 0
M  V30 22910 C 2088.49 -0.0996328 -5.33607 0
M  V30 22911 O 2088.72 1.11269 -5.59442 0
M  V30 22912 O 2087.65 -0.79023 -5.9669 0
M  V30 22913 H 2091.48 -1.3691 -2.71089 0
M  V30 22914 H 2089.06 -0.731512 -1.30266 0
M  V30 22915 H 2090.94 0.601929 -4.17079 0
M  V30 22916 H 2089.62 1.04994 -3.06199 0
M  V30 22917 H 2088.53 -1.21815 -3.53712 0
M  V30 22918 H 2089.86 -1.58408 -4.66012 0
M  V30 22919 N 2091.51 1.39445 -0.734362 0
M  V30 22920 C 2092.46 2.30609 -0.093969 0
M  V30 22921 C 2093.43 1.49181 0.730356 0
M  V30 22922 O 2094.61 1.77869 0.69045 0
M  V30 22923 C 2091.75 3.35512 0.807817 0
M  V30 22924 C 2090.87 4.3199 -0.0290549 0
M  V30 22925 C 2090 5.23961 0.873946 0
M  V30 22926 C 2089.04 6.12091 0.0322837 0
M  V30 22927 N 2088.18 6.96421 0.891182 0
M  V30 22928 H 2093.02 2.84802 -0.877022 0
M  V30 22929 H 2090.55 1.40234 -0.444152 0
M  V30 22930 H 2092.51 3.94922 1.34509 0
M  V30 22931 H 2091.14 2.82775 1.55685 0
M  V30 22932 H 2090.19 3.74205 -0.683744 0
M  V30 22933 H 2091.51 4.94145 -0.679865 0
M  V30 22934 H 2090.66 5.88394 1.47909 0
M  V30 22935 H 2089.4 4.62127 1.55854 0
M  V30 22936 H 2088.4 5.46672 -0.585665 0
M  V30 22937 H 2089.63 6.75991 -0.649081 0
M  V30 22938 H 2087.58 6.37155 1.56108 0
M  V30 22939 H 2087.49 7.55417 0.296837 0
M  V30 22940 H 2088.76 7.65284 1.48191 0
M  V30 22941 N 2092.99 0.481946 1.5005 0
M  V30 22942 C 2094.22 -0.0666474 2.06793 0
M  V30 22943 C 2094.63 -1.3254 1.34457 0
M  V30 22944 O 2093.99 -1.7767 0.417087 0
M  V30 22945 C 2094.04 -0.343693 3.59862 0
M  V30 22946 O 2093.76 0.86514 4.29473 0
M  V30 22947 C 2095.26 -0.93805 4.33261 0
M  V30 22948 H 2092.48 0.0119311 0.670894 0
M  V30 22949 H 2095.03 0.673843 1.93079 0
M  V30 22950 H 2093.18 -1.03413 3.73342 0
M  V30 22951 H 2093.6 0.616339 5.20866 0
M  V30 22952 H 2095.07 -1.0816 5.413 0
M  V30 22953 H 2095.55 -1.93098 3.94474 0
M  V30 22954 H 2096.15 -0.285663 4.2434 0
M  V30 22955 N 2094.47 -1.56127 0.214985 0
M  V30 22956 C 2095.41 -2.19998 -0.697834 0
M  V30 22957 C 2096.38 -1.15346 -1.19518 0
M  V30 22958 O 2097.57 -1.43676 -1.25547 0
M  V30 22959 C 2094.71 -2.87874 -1.90323 0
M  V30 22960 C 2093.82 -4.07102 -1.44539 0
M  V30 22961 C 2092.96 -4.6278 -2.60784 0
M  V30 22962 C 2092 -5.74324 -2.11705 0
M  V30 22963 N 2091.13 -6.24321 -3.21198 0
M  V30 22964 H 2095.97 -2.9764 -0.146443 0
M  V30 22965 H 2093.51 -1.46975 -0.0605317 0
M  V30 22966 H 2095.47 -3.25408 -2.61085 0
M  V30 22967 H 2094.1 -2.12761 -2.42761 0
M  V30 22968 H 2093.15 -3.75098 -0.632926 0
M  V30 22969 H 2094.46 -4.87721 -1.04546 0
M  V30 22970 H 2093.62 -5.02723 -3.39639 0
M  V30 22971 H 2092.36 -3.8131 -3.04062 0
M  V30 22972 H 2091.36 -5.33889 -1.31309 0
M  V30 22973 H 2092.59 -6.57624 -1.69434 0
M  V30 22974 H 2090.53 -5.45767 -3.6397 0
M  V30 22975 H 2090.45 -7.00044 -2.85437 0
M  V30 22976 H 2091.72 -6.6892 -4.00208 0
M  V30 22977 N 2095.95 0.0584645 -1.57492 0
M  V30 22978 C 2096.9 1.07525 -2.01053 0
M  V30 22979 C 2097.88 1.33726 -0.894772 0
M  V30 22980 O 2099.07 1.33803 -1.15869 0
M  V30 22981 C 2096.2 2.38516 -2.46911 0
M  V30 22982 C 2095.29 2.15532 -3.65249 0
M  V30 22983 N 2095.68 1.62515 -4.78981 0
M  V30 22984 C 2093.98 2.45948 -3.72056 0
M  V30 22985 C 2094.68 1.54656 -5.60764 0
M  V30 22986 N 2093.65 2.01181 -5.05002 0
M  V30 22987 H 2097.45 0.658876 -2.86419 0
M  V30 22988 H 2094.97 0.265312 -1.60218 0
M  V30 22989 H 2096.97 3.12135 -2.76365 0
M  V30 22990 H 2095.63 2.80858 -1.62938 0
M  V30 22991 H 2096.64 1.31192 -5.01008 0
M  V30 22992 H 2093.31 2.91566 -2.98824 0
M  V30 22993 H 2094.7 1.14405 -6.62088 0
M  V30 22994 N 2097.42 1.54103 0.330149 0
M  V30 22995 C 2098.84 1.44666 0.674089 0
M  V30 22996 C 2099.04 0.614208 1.91911 0
M  V30 22997 O 2098.1 0.110427 2.52258 0
M  V30 22998 C 2099.41 2.88311 0.854235 0
M  V30 22999 C 2100.96 2.98171 0.951998 0
M  V30 23000 C 2101.43 4.42952 1.16436 0
M  V30 23001 N 2102.92 4.46536 1.23125 0
M  V30 23002 C 2103.66 5.55709 1.41333 0
M  V30 23003 N 2103.15 6.74863 1.56626 0
M  V30 23004 N 2104.95 5.43345 1.43988 0
M  V30 23005 H 2097.1 2.06712 -0.488258 0
M  V30 23006 H 2099.36 0.934976 -0.1566 0
M  V30 23007 H 2099.07 3.51698 0.0107232 0
M  V30 23008 H 2098.94 3.34042 1.75202 0
M  V30 23009 H 2101.33 2.34916 1.78602 0
M  V30 23010 H 2101.41 2.55781 0.0308205 0
M  V30 23011 H 2101.05 5.06793 0.335219 0
M  V30 23012 H 2100.98 4.82946 2.09931 0
M  V30 23013 H 2103.47 3.60679 1.12777 0
M  V30 23014 H 2103.79 7.53826 1.70193 0
M  V30 23015 H 2102.13 6.77783 1.53737 0
M  V30 23016 H 2105.32 4.49211 1.31632 0
M  V30 23017 H 2105.5 6.28484 1.57836 0
M  V30 23018 N 2098.9 -0.59187 1.46064 0
M  V30 23019 C 2099.83 -1.71199 1.58787 0
M  V30 23020 C 2100.81 -1.64348 0.438615 0
M  V30 23021 O 2102 -1.82506 0.663725 0
M  V30 23022 C 2099.13 -3.0983 1.56917 0
M  V30 23023 C 2098.08 -3.31505 2.70719 0
M  V30 23024 C 2097.41 -4.70569 2.53907 0
M  V30 23025 C 2098.71 -3.20228 4.12615 0
M  V30 23026 H 2100.4 -1.60807 2.5255 0
M  V30 23027 H 2097.95 -0.772206 1.21544 0
M  V30 23028 H 2099.9 -3.88003 1.64413 0
M  V30 23029 H 2098.63 -3.21099 0.596928 0
M  V30 23030 H 2097.28 -2.55727 2.62677 0
M  V30 23031 H 2096.93 -4.78592 1.54787 0
M  V30 23032 H 2096.63 -4.86025 3.30232 0
M  V30 23033 H 2098.16 -5.50923 2.6328 0
M  V30 23034 H 2099.57 -3.88257 4.21817 0
M  V30 23035 H 2097.97 -3.47209 4.89455 0
M  V30 23036 H 2099.04 -2.17437 4.33416 0
M  V30 23037 N 2100.38 -1.33616 -0.835729 0
M  V30 23038 C 2101.31 -1.19968 -1.95296 0
M  V30 23039 C 2102.33 -0.129874 -1.62281 0
M  V30 23040 O 2103.51 -0.380581 -1.74396 0
M  V30 23041 C 2100.61 -0.818275 -3.28873 0
M  V30 23042 C 2099.79 -1.98038 -3.9 0
M  V30 23043 C 2098.85 -1.57944 -5.01936 0
M  V30 23044 O 2097.87 -2.29423 -5.20916 0
M  V30 23045 N 2099.07 -0.486237 -5.7846 0
M  V30 23046 H 2101.84 -2.16212 -2.0754 0
M  V30 23047 H 2099.4 -1.26403 -1.01163 0
M  V30 23048 H 2101.39 -0.532092 -4.01187 0
M  V30 23049 H 2099.96 0.053577 -3.12554 0
M  V30 23050 H 2099.18 -2.43201 -3.10237 0
M  V30 23051 H 2100.47 -2.75789 -4.27572 0
M  V30 23052 H 2099.87 0.108268 -5.65596 0
M  V30 23053 H 2098.43 -0.259739 -6.51282 0
M  V30 23054 N 2101.86 1.05436 -1.17136 0
M  V30 23055 C 2102.81 2.1523 -0.881986 0
M  V30 23056 C 2103.8 1.68713 0.152395 0
M  V30 23057 O 2105.01 1.79999 0.00555059 0
M  V30 23058 H 2101.38 0.702752 -0.267664 0
M  V30 23059 H 2103.35 2.36842 -1.81517 0
M  V30 23060 C 2102.1 3.45286 -0.409046 0
M  V30 23061 H 2101.42 3.81478 -1.19644 0
M  V30 23062 H 2102.86 4.23289 -0.245428 0
M  V30 23063 C 2101.32 3.25396 0.872886 0
M  V30 23064 O 2101.85 3.51736 1.94023 0
M  V30 23065 N 2100.06 2.78789 0.820065 0
M  V30 23066 H 2099.61 2.57554 -0.0487256 0
M  V30 23067 H 2099.56 2.65861 1.67826 0
M  V30 23068 N 2103.34 0.971211 1.24118 0
M  V30 23069 C 2104.25 0.511904 2.28947 0
M  V30 23070 C 2105.26 -0.428843 1.68633 0
M  V30 23071 O 2106.44 -0.301023 1.99138 0
M  V30 23072 C 2103.5 -0.187222 3.46194 0
M  V30 23073 C 2102.56 0.793786 4.21898 0
M  V30 23074 C 2101.8 0.12793 5.33547 0
M  V30 23075 O 2102.02 -1.08301 5.60024 0
M  V30 23076 O 2100.95 0.821863 5.96263 0
M  V30 23077 H 2104.78 1.38346 2.70359 0
M  V30 23078 H 2102.37 0.738411 1.29876 0
M  V30 23079 H 2104.25 -0.579802 4.17392 0
M  V30 23080 H 2102.92 -1.03369 3.06752 0
M  V30 23081 H 2101.83 1.23689 3.53061 0
M  V30 23082 H 2103.16 1.60877 4.65166 0
M  V30 23083 N 2104.81 -1.39054 0.741747 0
M  V30 23084 C 2106.06 -1.99612 0.289503 0
M  V30 23085 C 2106.38 -1.59538 -1.13168 0
M  V30 23086 O 2107.58 -2.12981 -1.68379 0
M  V30 23087 C 2106.04 -3.56862 0.466657 0
M  V30 23088 C 2105.65 -4.05894 1.89616 0
M  V30 23089 C 2107.39 -4.24431 0.0765289 0
M  V30 23090 C 2105.3 -5.55742 2.0225 0
M  V30 23091 H 2104.23 -0.746725 0.10449 0
M  V30 23092 H 2106.88 -1.58968 0.916594 0
M  V30 23093 H 2105.26 -3.95335 -0.229437 0
M  V30 23094 H 2106.43 -3.78739 2.62475 0
M  V30 23095 H 2104.75 -3.5101 2.24011 0
M  V30 23096 H 2107.35 -5.3449 0.149851 0
M  V30 23097 H 2107.69 -4.04861 -0.969208 0
M  V30 23098 H 2108.22 -3.91156 0.724031 0
M  V30 23099 H 2104.96 -5.80201 3.05036 0
M  V30 23100 H 2104.48 -5.84678 1.33836 0
M  V30 23101 H 2106.16 -6.21258 1.80685 0
M  V30 23102 N 2106.29 -0.489897 -1.49792 0
M  V30 23103 C 2107.2 0.29927 -2.32683 0
M  V30 23104 C 2108.22 0.978042 -1.43911 0
M  V30 23105 O 2109.39 0.961875 -1.76946 0
M  V30 23106 C 2106.46 1.35623 -3.19073 0
M  V30 23107 C 2105.52 0.692067 -4.23685 0
M  V30 23108 C 2104.75 1.69866 -5.05946 0
M  V30 23109 O 2104.98 2.92732 -4.89555 0
M  V30 23110 O 2103.91 1.2601 -5.88562 0
M  V30 23111 H 2107.74 -0.378894 -3.01327 0
M  V30 23112 H 2105.32 -0.251411 -1.47269 0
M  V30 23113 H 2107.2 1.96801 -3.72622 0
M  V30 23114 H 2105.88 2.01752 -2.53136 0
M  V30 23115 H 2104.79 0.040831 -3.74078 0
M  V30 23116 H 2106.12 0.0734074 -4.92145 0
M  V30 23117 N 2107.77 1.56011 -0.223262 0
M  V30 23118 C 2109.05 1.90185 0.457074 0
M  V30 23119 C 2109.43 1.14083 1.77618 0
M  V30 23120 O 2108.78 0.250703 2.27121 0
M  V30 23121 C 2108.99 3.42925 0.648347 0
M  V30 23122 C 2110.33 4.13721 0.955 0
M  V30 23123 O 2111.36 3.48533 0.735072 0
M  V30 23124 O 2110.22 5.28985 1.37248 0
M  V30 23125 H 2107.31 0.790827 0.241912 0
M  V30 23126 H 2109.86 1.67609 -0.265573 0
M  V30 23127 H 2108.63 3.90282 -0.282045 0
M  V30 23128 H 2108.25 3.71286 1.42242 0
M  V30 23129 N 2109.25 -0.0501116 1.5752 0
M  V30 23130 C 2110.18 -1.05708 2.08202 0
M  V30 23131 C 2111.16 -1.39032 0.980009 0
M  V30 23132 O 2112.34 -1.48283 1.25403 0
M  V30 23133 C 2109.47 -2.36429 2.54399 0
M  V30 23134 C 2108.43 -2.17402 3.68674 0
M  V30 23135 C 2107.75 -3.53698 4.01001 0
M  V30 23136 C 2109.05 -1.57741 4.97911 0
M  V30 23137 H 2110.75 -0.635258 2.92583 0
M  V30 23138 H 2108.29 -0.304127 1.40752 0
M  V30 23139 H 2110.25 -3.07184 2.88472 0
M  V30 23140 H 2108.97 -2.80631 1.67074 0
M  V30 23141 H 2107.63 -1.49084 3.34917 0
M  V30 23142 H 2107.28 -3.9551 3.10774 0
M  V30 23143 H 2106.98 -3.418 4.77961 0
M  V30 23144 H 2108.5 -4.25849 4.3759 0
M  V30 23145 H 2109.92 -2.18387 5.30075 0
M  V30 23146 H 2108.31 -1.56478 5.7934 0
M  V30 23147 H 2109.38 -0.540999 4.81873 0
M  V30 23148 N 2110.73 -1.54276 -0.321972 0
M  V30 23149 C 2111.66 -1.7862 -1.42021 0
M  V30 23150 C 2112.64 -0.636264 -1.49634 0
M  V30 23151 O 2113.82 -0.873881 -1.6702 0
M  V30 23152 C 2110.95 -1.90419 -2.80104 0
M  V30 23153 C 2109.99 -3.1272 -2.90015 0
M  V30 23154 S 2110.83 -4.71288 -2.5426 0
M  V30 23155 C 2111.98 -4.85995 -3.94411 0
M  V30 23156 H 2112.22 -2.71492 -1.21158 0
M  V30 23157 H 2109.75 -1.45419 -0.518899 0
M  V30 23158 H 2111.71 -1.97902 -3.59646 0
M  V30 23159 H 2110.37 -0.985223 -2.98249 0
M  V30 23160 H 2109.56 -3.17715 -3.91246 0
M  V30 23161 H 2109.16 -3.03574 -2.18446 0
M  V30 23162 H 2111.46 -4.6873 -4.89182 0
M  V30 23163 H 2112.4 -5.88095 -3.94398 0
M  V30 23164 H 2112.81 -4.14288 -3.83439 0
M  V30 23165 N 2112.2 0.584116 -1.46376 0
M  V30 23166 C 2113.45 1.34437 -1.51837 0
M  V30 23167 C 2113.78 1.93464 -0.168948 0
M  V30 23168 O 2113.06 1.76395 0.819455 0
M  V30 23169 C 2113.34 2.47477 -2.61586 0
M  V30 23170 C 2113.19 1.93494 -4.06054 0
M  V30 23171 C 2114.51 3.49527 -2.6743 0
M  V30 23172 H 2111.63 0.487455 -0.552772 0
M  V30 23173 H 2114.27 0.656303 -1.78305 0
M  V30 23174 H 2112.42 3.0617 -2.39148 0
M  V30 23175 H 2114.1 1.39268 -4.39775 0
M  V30 23176 H 2112.34 1.24333 -4.15601 0
M  V30 23177 H 2113.01 2.75087 -4.78572 0
M  V30 23178 H 2115.49 3.00712 -2.87596 0
M  V30 23179 H 2114.36 4.26082 -3.46043 0
M  V30 23180 H 2114.62 4.06664 -1.73426 0
M  V30 23181 N 2113.68 1.34058 0.828631 0
M  V30 23182 C 2114.96 1.1668 1.56988 0
M  V30 23183 C 2115.34 -0.262846 2.09457 0
M  V30 23184 O 2114.69 -1.26337 1.90398 0
M  V30 23185 C 2114.9 2.21657 2.69572 0
M  V30 23186 C 2116.25 2.56341 3.38489 0
M  V30 23187 O 2117.27 2.20402 2.79824 0
M  V30 23188 O 2116.13 3.18053 4.44415 0
M  V30 23189 H 2113.22 0.451944 0.692586 0
M  V30 23190 H 2115.77 1.45672 0.870498 0
M  V30 23191 H 2114.54 3.17643 2.28515 0
M  V30 23192 H 2114.16 1.93809 3.47166 0
M  V30 23193 N 2115.16 -1.04814 1.17694 0
M  V30 23194 C 2116.41 -1.78147 0.969105 0
M  V30 23195 C 2116.74 -1.87634 -0.500715 0
M  V30 23196 O 2116.02 -1.37892 -1.37172 0
M  V30 23197 C 2116.3 -3.2183 1.61548 0
M  V30 23198 C 2116.15 -3.20332 3.15765 0
M  V30 23199 C 2117.47 -4.19759 1.32251 0
M  V30 23200 H 2114.59 -0.646701 0.353479 0
M  V30 23201 H 2117.23 -1.22485 1.45249 0
M  V30 23202 H 2115.38 -3.69358 1.20445 0
M  V30 23203 H 2117.05 -2.8085 3.65952 0
M  V30 23204 H 2115.3 -2.58568 3.48318 0
M  V30 23205 H 2115.97 -4.21759 3.56123 0
M  V30 23206 H 2118.44 -3.80743 1.67851 0
M  V30 23207 H 2117.32 -5.18527 1.80057 0
M  V30 23208 H 2117.58 -4.41426 0.244002 0
M  V30 23209 N 2116.64 -0.977779 -1.23601 0
M  V30 23210 C 2117.55 -0.524039 -2.28672 0
M  V30 23211 C 2118.57 0.419894 -1.68858 0
M  V30 23212 O 2119.74 0.290458 -1.99295 0
M  V30 23213 C 2116.81 0.16886 -3.46289 0
M  V30 23214 C 2115.87 -0.81615 -4.21471 0
M  V30 23215 C 2115.1 -0.156223 -5.33471 0
M  V30 23216 O 2115.32 1.05329 -5.60591 0
M  V30 23217 O 2114.26 -0.853473 -5.95818 0
M  V30 23218 H 2118.08 -1.39778 -2.69622 0
M  V30 23219 H 2115.67 -0.745288 -1.29483 0
M  V30 23220 H 2117.55 0.557659 -4.17694 0
M  V30 23221 H 2116.23 1.0174 -3.07296 0
M  V30 23222 H 2115.13 -1.2556 -3.524 0
M  V30 23223 H 2116.47 -1.63342 -4.64306 0
M  V30 23224 N 2118.12 1.38658 -0.749111 0
M  V30 23225 C 2119.53 1.53804 -0.426214 0
M  V30 23226 C 2119.73 1.7129 1.06122 0
M  V30 23227 O 2118.79 1.72138 1.84729 0
M  V30 23228 C 2120.1 2.7477 -1.22155 0
M  V30 23229 C 2121.65 2.88616 -1.21118 0
M  V30 23230 C 2122.13 4.12538 -1.98939 0
M  V30 23231 N 2123.62 4.19606 -1.96176 0
M  V30 23232 C 2124.35 5.14474 -2.53188 0
M  V30 23233 N 2123.85 6.15043 -3.18895 0
M  V30 23234 N 2125.64 5.06792 -2.43143 0
M  V30 23235 H 2117.79 1.25557 -1.71316 0
M  V30 23236 H 2120.05 0.609604 -0.726008 0
M  V30 23237 H 2119.76 2.68239 -2.27466 0
M  V30 23238 H 2119.63 3.67832 -0.835424 0
M  V30 23239 H 2122.02 2.94632 -0.166149 0
M  V30 23240 H 2122.1 1.96577 -1.63679 0
M  V30 23241 H 2121.75 4.07284 -3.03451 0
M  V30 23242 H 2121.68 5.03648 -1.53775 0
M  V30 23243 H 2124.17 3.47577 -1.4832 0
M  V30 23244 H 2124.48 6.83917 -3.59829 0
M  V30 23245 H 2122.83 6.15389 -3.22989 0
M  V30 23246 H 2126.02 4.27162 -1.91442 0
M  V30 23247 H 2126.19 5.80546 -2.87871 0
M  V30 23248 N 2119.6 0.497834 1.49531 0
M  V30 23249 C 2120.82 -0.0468921 2.07347 0
M  V30 23250 C 2121.25 -1.30349 1.35612 0
M  V30 23251 O 2120.6 -1.76559 0.411884 0
M  V30 23252 C 2120.65 -0.286776 3.59458 0
M  V30 23253 O 2119.76 -1.36212 3.89256 0
M  V30 23254 H 2119.1 0.0248202 0.663536 0
M  V30 23255 H 2121.63 0.696547 1.92378 0
M  V30 23256 H 2121.64 -0.519243 4.04682 0
M  V30 23257 H 2120.31 0.631334 4.1108 0
M  V30 23258 H 2118.89 -1.11485 3.55845 0
M  V30 23259 N 2121.07 -1.5589 0.231532 0
M  V30 23260 C 2122.02 -2.22104 -0.690835 0
M  V30 23261 C 2123.02 -1.20363 -1.19202 0
M  V30 23262 O 2124.22 -1.38416 -1.1507 0
M  V30 23263 H 2120.6 -0.712259 -0.241228 0
M  V30 23264 H 2122.57 -2.98201 -0.109056 0
M  V30 23265 C 2121.32 -2.92249 -1.88377 0
M  V30 23266 H 2120.64 -3.703 -1.50725 0
M  V30 23267 H 2122.08 -3.41964 -2.50672 0
M  V30 23268 C 2120.54 -1.95268 -2.7454 0
M  V30 23269 O 2121.07 -1.47596 -3.73602 0
M  V30 23270 N 2119.27 -1.62701 -2.40783 0
M  V30 23271 H 2118.82 -2.01663 -1.6028 0
M  V30 23272 H 2118.78 -0.98076 -2.98711 0
M  V30 23273 N 2122.55 0.0417572 -1.57545 0
M  V30 23274 C 2123.51 1.03085 -2.0471 0
M  V30 23275 C 2124.51 1.29808 -0.94903 0
M  V30 23276 O 2125.7 1.25024 -1.21304 0
M  V30 23277 C 2122.84 2.367 -2.45329 0
M  V30 23278 H 2124.03 0.623701 -2.93343 0
M  V30 23279 H 2121.58 0.288275 -1.53619 0
M  V30 23280 H 2122.32 2.82188 -1.59813 0
M  V30 23281 H 2122.1 2.18637 -3.25485 0
M  V30 23282 H 2123.59 3.07737 -2.8229 0
M  V30 23283 N 2124.03 1.54445 0.313786 0
M  V30 23284 C 2124.99 1.8378 1.36959 0
M  V30 23285 C 2125.99 0.710053 1.44274 0
M  V30 23286 O 2127.18 0.978359 1.44131 0
M  V30 23287 C 2124.31 2.00661 2.75586 0
M  V30 23288 H 2125.51 2.78122 1.12197 0
M  V30 23289 H 2123.06 1.46311 0.549789 0
M  V30 23290 H 2123.8 1.08564 3.05589 0
M  V30 23291 H 2123.58 2.82734 2.71669 0
M  V30 23292 H 2125.07 2.24771 3.51948 0
M  V30 23293 N 2125.51 -0.576345 1.46683 0
M  V30 23294 C 2126.47 -1.66698 1.57303 0
M  V30 23295 C 2127.47 -1.54385 0.449647 0
M  V30 23296 O 2128.66 -1.58888 0.71415 0
M  V30 23297 C 2125.79 -3.06156 1.49938 0
M  V30 23298 H 2126.99 -1.58638 2.54507 0
M  V30 23299 H 2124.54 -0.79471 1.34588 0
M  V30 23300 H 2125.27 -3.19766 0.540379 0
M  V30 23301 H 2125.06 -3.16502 2.3145 0
M  V30 23302 H 2126.55 -3.85538 1.60469 0
M  V30 23303 N 2126.99 -1.34495 -0.82151 0
M  V30 23304 C 2127.95 -1.2608 -1.91407 0
M  V30 23305 C 2128.95 -0.175671 -1.59838 0
M  V30 23306 O 2130.14 -0.428389 -1.6885 0
M  V30 23307 C 2127.27 -0.9469 -3.27485 0
M  V30 23308 H 2128.46 -2.23212 -2.00291 0
M  V30 23309 H 2126.02 -1.18804 -1.01565 0
M  V30 23310 H 2126.75 0.0211878 -3.24293 0
M  V30 23311 H 2126.54 -1.73181 -3.51782 0
M  V30 23312 H 2128.03 -0.913228 -4.07492 0
M  V30 23313 N 2128.46 1.04188 -1.18248 0
M  V30 23314 C 2129.43 2.10339 -0.910507 0
M  V30 23315 C 2130.43 1.60466 0.103607 0
M  V30 23316 O 2131.62 1.73717 -0.129699 0
M  V30 23317 C 2128.75 3.38931 -0.36584 0
M  V30 23318 H 2129.94 2.359 -1.85179 0
M  V30 23319 H 2127.5 1.20593 -0.994332 0
M  V30 23320 H 2128.23 3.19033 0.582115 0
M  V30 23321 H 2128.02 3.76446 -1.09686 0
M  V30 23322 H 2129.51 4.17148 -0.194209 0
M  V30 23323 N 2129.94 0.98432 1.23081 0
M  V30 23324 C 2130.87 0.547274 2.26996 0
M  V30 23325 C 2131.85 -0.421528 1.64794 0
M  V30 23326 O 2133.04 -0.314036 1.91644 0
M  V30 23327 C 2130.17 -0.147283 3.46988 0
M  V30 23328 C 2129.12 0.739194 4.21568 0
M  V30 23329 C 2128.45 -0.0877981 5.34628 0
M  V30 23330 C 2129.75 2.03191 4.81156 0
M  V30 23331 H 2131.44 1.41586 2.63806 0
M  V30 23332 H 2128.99 0.682245 1.26813 0
M  V30 23333 H 2130.94 -0.464368 4.18834 0
M  V30 23334 H 2129.67 -1.05035 3.09249 0
M  V30 23335 H 2128.32 1.03979 3.51545 0
M  V30 23336 H 2127.97 -0.99152 4.93131 0
M  V30 23337 H 2127.67 0.50225 5.8545 0
M  V30 23338 H 2129.2 -0.399175 6.09294 0
M  V30 23339 H 2130.61 1.77933 5.44989 0
M  V30 23340 H 2129.01 2.57006 5.4228 0
M  V30 23341 H 2130.08 2.71622 4.01684 0
M  V30 23342 N 2131.42 -1.38259 0.756453 0
M  V30 23343 C 2132.7 -1.94131 0.239274 0
M  V30 23344 C 2133.08 -1.6915 -1.26299 0
M  V30 23345 O 2132.43 -1.03165 -2.03885 0
M  V30 23346 C 2132.64 -3.43872 0.596071 0
M  V30 23347 C 2133.98 -4.20927 0.557312 0
M  V30 23348 O 2135.01 -3.52166 0.534537 0
M  V30 23349 O 2133.87 -5.43511 0.57079 0
M  V30 23350 H 2130.96 -0.82543 0.0509403 0
M  V30 23351 H 2133.51 -1.47636 0.83677 0
M  V30 23352 H 2132.28 -3.55575 1.63348 0
M  V30 23353 H 2131.9 -3.97589 -0.0292809 0
M  V30 23354 N 2132.9 -0.505757 -1.49264 0
M  V30 23355 C 2133.85 0.270127 -2.29214 0
M  V30 23356 C 2134.82 0.956031 -1.35828 0
M  V30 23357 O 2136 0.961771 -1.64787 0
M  V30 23358 C 2133.14 1.32577 -3.18618 0
M  V30 23359 C 2132.25 0.65116 -4.27064 0
M  V30 23360 C 2131.39 1.68765 -5.03678 0
M  V30 23361 C 2130.43 0.995172 -6.03956 0
M  V30 23362 N 2129.56 1.97608 -6.73718 0
M  V30 23363 H 2134.4 -0.41788 -2.95056 0
M  V30 23364 H 2131.94 -0.217921 -1.45477 0
M  V30 23365 H 2133.9 1.94985 -3.68832 0
M  V30 23366 H 2132.53 1.98248 -2.5475 0
M  V30 23367 H 2131.58 -0.0863124 -3.80302 0
M  V30 23368 H 2132.89 0.106277 -4.98687 0
M  V30 23369 H 2132.05 2.38665 -5.57785 0
M  V30 23370 H 2130.79 2.2664 -4.3184 0
M  V30 23371 H 2129.79 0.281968 -5.49076 0
M  V30 23372 H 2131.02 0.422861 -6.77782 0
M  V30 23373 H 2128.96 2.54436 -6.04647 0
M  V30 23374 H 2128.88 1.48199 -7.41332 0
M  V30 23375 H 2130.15 2.66782 -7.32426 0
M  V30 23376 N 2134.38 1.55765 -0.239796 0
M  V30 23377 C 2135.32 2.2108 0.662746 0
M  V30 23378 C 2136.29 1.17233 1.17668 0
M  V30 23379 O 2137.48 1.45655 1.23245 0
M  V30 23380 C 2134.62 2.90865 1.85719 0
M  V30 23381 C 2133.73 4.0935 1.38044 0
M  V30 23382 C 2132.87 4.6687 2.53389 0
M  V30 23383 C 2131.91 5.77619 2.02541 0
M  V30 23384 N 2131.04 6.29351 3.11225 0
M  V30 23385 H 2135.88 2.97835 0.0990722 0
M  V30 23386 H 2133.42 1.47053 0.0371415 0
M  V30 23387 H 2135.38 3.2952 2.55875 0
M  V30 23388 H 2134.01 2.16596 2.39345 0
M  V30 23389 H 2133.06 3.76057 0.573171 0
M  V30 23390 H 2134.37 4.89322 0.96774 0
M  V30 23391 H 2133.53 5.08062 3.31598 0
M  V30 23392 H 2132.26 3.861 2.97957 0
M  V30 23393 H 2131.27 5.35911 1.22799 0
M  V30 23394 H 2132.49 6.60236 1.5895 0
M  V30 23395 H 2130.44 5.51488 3.55241 0
M  V30 23396 H 2130.36 7.04497 2.74263 0
M  V30 23397 H 2131.63 6.75202 3.89516 0
M  V30 23398 N 2135.85 -0.0334016 1.57565 0
M  V30 23399 C 2136.79 -1.06286 2.03066 0
M  V30 23400 C 2137.8 -1.32726 0.942744 0
M  V30 23401 O 2138.99 -1.3029 1.22012 0
M  V30 23402 C 2136.09 -2.40547 2.38727 0
M  V30 23403 C 2135.26 -2.33524 3.69845 0
M  V30 23404 C 2134.32 -3.50199 3.92743 0
M  V30 23405 O 2133.35 -3.29889 4.63856 0
M  V30 23406 N 2134.55 -4.71916 3.38047 0
M  V30 23407 H 2137.31 -0.675062 2.91998 0
M  V30 23408 H 2134.87 -0.221423 1.60379 0
M  V30 23409 H 2136.87 -3.17313 2.51186 0
M  V30 23410 H 2135.44 -2.71187 1.55488 0
M  V30 23411 H 2134.66 -1.41885 3.6778 0
M  V30 23412 H 2135.94 -2.2597 4.55867 0
M  V30 23413 H 2135.34 -4.91318 2.80398 0
M  V30 23414 H 2133.9 -5.46062 3.55893 0
M  V30 23415 N 2137.33 -1.54609 -0.305591 0
M  V30 23416 C 2138.75 -1.4572 -0.650988 0
M  V30 23417 C 2138.95 -0.644662 -1.90909 0
M  V30 23418 O 2138 -0.150545 -2.52051 0
M  V30 23419 C 2139.32 -2.89634 -0.808259 0
M  V30 23420 C 2140.87 -2.99648 -0.904441 0
M  V30 23421 C 2141.34 -4.44748 -1.09375 0
M  V30 23422 N 2142.83 -4.48438 -1.16006 0
M  V30 23423 C 2143.57 -5.57887 -1.32474 0
M  V30 23424 N 2143.06 -6.77269 -1.4587 0
M  V30 23425 N 2144.86 -5.45567 -1.35326 0
M  V30 23426 H 2137.01 -2.05909 0.521082 0
M  V30 23427 H 2139.27 -0.932366 0.171455 0
M  V30 23428 H 2138.98 -3.51671 0.0452303 0
M  V30 23429 H 2138.85 -3.36787 -1.69866 0
M  V30 23430 H 2141.24 -2.37727 -1.74842 0
M  V30 23431 H 2141.32 -2.55798 0.00987599 0
M  V30 23432 H 2140.96 -5.07262 -0.25455 0
M  V30 23433 H 2140.89 -4.86224 -2.02222 0
M  V30 23434 H 2143.38 -3.62428 -1.07025 0
M  V30 23435 H 2143.7 -7.56439 -1.58179 0
M  V30 23436 H 2142.04 -6.80143 -1.42934 0
M  V30 23437 H 2145.23 -4.51248 -1.24469 0
M  V30 23438 H 2145.4 -6.30915 -1.47817 0
M  V30 23439 N 2138.81 0.568558 -1.46987 0
M  V30 23440 C 2139.76 1.6976 -1.5901 0
M  V30 23441 C 2140.75 1.63094 -0.457903 0
M  V30 23442 O 2141.96 1.68416 -0.635295 0
M  V30 23443 H 2138.33 0.561516 -0.500203 0
M  V30 23444 H 2140.3 1.56753 -2.53911 0
M  V30 23445 C 2139.05 3.08133 -1.61089 0
M  V30 23446 H 2138.38 3.13939 -2.47553 0
M  V30 23447 H 2139.82 3.86853 -1.73554 0
M  V30 23448 C 2138.28 3.35159 -0.342082 0
M  V30 23449 O 2138.81 3.97754 0.561684 0
M  V30 23450 N 2137.01 2.89723 -0.225608 0
M  V30 23451 H 2136.56 2.38964 -0.961979 0
M  V30 23452 H 2136.52 3.08177 0.622418 0
M  V30 23453 N 2140.29 1.34929 0.814366 0
M  V30 23454 C 2141.54 1.27766 1.57105 0
M  V30 23455 C 2141.86 -0.150063 1.9392 0
M  V30 23456 O 2141.12 -1.11344 1.60938 0
M  V30 23457 C 2141.42 2.12223 2.87569 0
M  V30 23458 C 2141.08 3.61119 2.70008 0
M  V30 23459 C 2139.75 4.01706 2.64926 0
M  V30 23460 C 2142.1 4.55629 2.53084 0
M  V30 23461 C 2139.43 5.34983 2.40853 0
M  V30 23462 C 2141.78 5.89095 2.30542 0
M  V30 23463 C 2140.44 6.28836 2.23877 0
M  V30 23464 H 2139.71 0.46753 0.574889 0
M  V30 23465 H 2142.36 1.66753 0.941581 0
M  V30 23466 H 2140.66 1.66092 3.54853 0
M  V30 23467 H 2142.36 2.04022 3.45219 0
M  V30 23468 H 2138.95 3.28906 2.74807 0
M  V30 23469 H 2143.13 4.25163 2.56028 0
M  V30 23470 H 2138.39 5.64783 2.34158 0
M  V30 23471 H 2142.56 6.61913 2.16436 0
M  V30 23472 H 2140.19 7.32042 2.04986 0
M  V30 23473 N 2141.77 -1.0356 1.18799 0
M  V30 23474 C 2143.04 -1.73872 0.895991 0
M  V30 23475 C 2143.42 -2.02395 -0.59995 0
M  V30 23476 O 2142.77 -1.6732 -1.55616 0
M  V30 23477 C 2142.98 -3.02028 1.74871 0
M  V30 23478 C 2144.33 -3.75667 1.97887 0
M  V30 23479 O 2145.35 -3.11939 1.71966 0
M  V30 23480 O 2144.21 -4.90219 2.41553 0
M  V30 23481 H 2141.31 -0.756859 0.333306 0
M  V30 23482 H 2143.85 -1.09579 1.29578 0
M  V30 23483 H 2142.62 -2.77126 2.76256 0
M  V30 23484 H 2142.25 -3.7406 1.34776 0
M  V30 23485 N 2143.25 -0.990834 -1.22557 0
M  V30 23486 C 2144.19 -0.539382 -2.24409 0
M  V30 23487 C 2145.16 0.427199 -1.60512 0
M  V30 23488 O 2146.35 0.332419 -1.87882 0
M  V30 23489 C 2143.49 0.141857 -3.44808 0
M  V30 23490 C 2142.6 -0.86622 -4.23226 0
M  V30 23491 C 2141.74 -0.158712 -5.30963 0
M  V30 23492 C 2140.77 -1.1553 -6.01098 0
M  V30 23493 N 2139.91 -0.476237 -7.00483 0
M  V30 23494 H 2144.75 -1.41266 -2.62389 0
M  V30 23495 H 2142.29 -0.707664 -1.28959 0
M  V30 23496 H 2144.25 0.553728 -4.13509 0
M  V30 23497 H 2142.88 0.978941 -3.07598 0
M  V30 23498 H 2141.93 -1.39642 -3.53842 0
M  V30 23499 H 2143.24 -1.62521 -4.71581 0
M  V30 23500 H 2142.39 0.309995 -6.05908 0
M  V30 23501 H 2141.13 0.632794 -4.83577 0
M  V30 23502 H 2140.14 -1.63465 -5.24937 0
M  V30 23503 H 2141.36 -1.94764 -6.50572 0
M  V30 23504 H 2139.31 0.295871 -6.55332 0
M  V30 23505 H 2139.23 -1.1737 -7.46833 0
M  V30 23506 H 2140.49 -0.0302638 -7.79494 0
M  V30 23507 N 2144.72 1.37856 -0.763775 0
M  V30 23508 C 2145.97 1.99126 -0.321223 0
M  V30 23509 C 2146.29 1.61318 1.10615 0
M  V30 23510 O 2147.49 2.15633 1.64969 0
M  V30 23511 C 2145.95 3.56074 -0.523371 0
M  V30 23512 C 2145.56 4.02826 -1.96049 0
M  V30 23513 C 2147.3 4.24256 -0.144043 0
M  V30 23514 C 2145.21 5.52454 -2.11066 0
M  V30 23515 H 2144.14 0.744968 -0.116357 0
M  V30 23516 H 2146.79 1.5749 -0.941769 0
M  V30 23517 H 2145.17 3.9565 0.166513 0
M  V30 23518 H 2146.34 3.74515 -2.68468 0
M  V30 23519 H 2144.66 3.47402 -2.29567 0
M  V30 23520 H 2147.26 5.34184 -0.234865 0
M  V30 23521 H 2147.6 4.06351 0.904676 0
M  V30 23522 H 2148.13 3.89954 -0.786169 0
M  V30 23523 H 2144.87 5.75275 -3.14228 0
M  V30 23524 H 2144.39 5.82474 -1.43121 0
M  V30 23525 H 2146.07 6.18305 -1.90546 0
M  V30 23526 N 2146.2 0.513665 1.48994 0
M  V30 23527 C 2147.13 -0.247058 2.32189 0
M  V30 23528 C 2148.11 -0.950613 1.41058 0
M  V30 23529 O 2149.3 -0.939562 1.69958 0
M  V30 23530 C 2146.43 -1.30433 3.21876 0
M  V30 23531 C 2145.38 -0.719902 4.21902 0
M  V30 23532 C 2144.71 -1.87863 5.00611 0
M  V30 23533 C 2146.01 0.297524 5.21452 0
M  V30 23534 H 2147.7 0.447403 2.96038 0
M  V30 23535 H 2145.25 0.216608 1.42362 0
M  V30 23536 H 2147.2 -1.84434 3.78896 0
M  V30 23537 H 2145.92 -2.02815 2.55995 0
M  V30 23538 H 2144.58 -0.201546 3.66046 0
M  V30 23539 H 2144.23 -2.59044 4.31167 0
M  V30 23540 H 2143.93 -1.49359 5.68301 0
M  V30 23541 H 2145.46 -2.42273 5.60478 0
M  V30 23542 H 2146.87 -0.1548 5.73091 0
M  V30 23543 H 2145.27 0.599071 5.97102 0
M  V30 23544 H 2146.34 1.20903 4.69585 0
M  V30 23545 N 2147.68 -1.55636 0.248053 0
M  V30 23546 C 2148.64 -2.2015 -0.637698 0
M  V30 23547 C 2149.64 -1.17112 -1.10188 0
M  V30 23548 O 2150.83 -1.42187 -1.00641 0
M  V30 23549 C 2147.96 -2.84598 -1.87661 0
M  V30 23550 H 2149.16 -2.99807 -0.0748129 0
M  V30 23551 H 2146.71 -1.563 -0.00148259 0
M  V30 23552 H 2147.45 -2.08882 -2.4807 0
M  V30 23553 H 2147.23 -3.60078 -1.55197 0
M  V30 23554 H 2148.72 -3.33968 -2.50709 0
M  V30 23555 N 2149.16 0.0250451 -1.5758 0
M  V30 23556 C 2150.07 1.04128 -2.10225 0
M  V30 23557 C 2151.08 1.39367 -1.04178 0
M  V30 23558 O 2152.26 1.48605 -1.35936 0
M  V30 23559 C 2149.32 2.32208 -2.5745 0
M  V30 23560 C 2148.39 2.03512 -3.77996 0
M  V30 23561 C 2147.62 3.25486 -4.22959 0
M  V30 23562 O 2147.84 4.36301 -3.6742 0
M  V30 23563 O 2146.78 3.1095 -5.15358 0
M  V30 23564 H 2150.6 0.623859 -2.97223 0
M  V30 23565 H 2148.19 0.242286 -1.47422 0
M  V30 23566 H 2150.07 3.07498 -2.88137 0
M  V30 23567 H 2148.74 2.73237 -1.73561 0
M  V30 23568 H 2147.65 1.25777 -3.52322 0
M  V30 23569 H 2148.98 1.67337 -4.62882 0
M  V30 23570 N 2150.64 1.54769 0.297388 0
M  V30 23571 C 2151.88 1.75409 1.02972 0
M  V30 23572 C 2152.24 0.535332 1.84802 0
M  V30 23573 O 2151.53 -0.472243 1.85689 0
M  V30 23574 C 2151.72 2.98592 1.96412 0
M  V30 23575 C 2151.55 4.32331 1.23774 0
M  V30 23576 C 2150.32 4.96031 0.963412 0
M  V30 23577 C 2152.52 5.10298 0.640365 0
M  V30 23578 N 2150.5 6.13549 0.207679 0
M  V30 23579 C 2151.87 6.19998 0.0175826 0
M  V30 23580 C 2153.93 4.949 0.545774 0
M  V30 23581 C 2152.63 7.15977 -0.690643 0
M  V30 23582 C 2154.66 5.91213 -0.148805 0
M  V30 23583 C 2154.02 7.00283 -0.760423 0
M  V30 23584 H 2150.12 0.69441 0.359609 0
M  V30 23585 H 2152.7 1.92249 0.307955 0
M  V30 23586 H 2150.87 2.8317 2.65837 0
M  V30 23587 H 2152.61 3.07742 2.62825 0
M  V30 23588 H 2149.36 4.56463 1.26249 0
M  V30 23589 H 2149.78 6.76818 -0.156807 0
M  V30 23590 H 2154.43 4.10698 1.00433 0
M  V30 23591 H 2152.14 7.99717 -1.16096 0
M  V30 23592 H 2155.73 5.81376 -0.221985 0
M  V30 23593 H 2154.61 7.73528 -1.28934 0
M  V30 23594 N 2152.11 -0.560755 1.47286 0
M  V30 23595 C 2153.06 -1.66812 1.59507 0
M  V30 23596 C 2154.03 -1.60214 0.438263 0
M  V30 23597 O 2155.22 -1.791 0.657862 0
M  V30 23598 C 2152.36 -3.05138 1.61199 0
M  V30 23599 C 2151.47 -3.22198 2.87771 0
M  V30 23600 C 2150.6 -4.50902 2.80822 0
M  V30 23601 C 2149.64 -4.61382 4.02235 0
M  V30 23602 N 2148.78 -5.81436 3.93543 0
M  V30 23603 H 2153.62 -1.55705 2.54087 0
M  V30 23604 H 2151.16 -0.758538 1.26034 0
M  V30 23605 H 2153.11 -3.85232 1.60163 0
M  V30 23606 H 2151.74 -3.15089 0.701347 0
M  V30 23607 H 2150.8 -2.3556 2.9869 0
M  V30 23608 H 2152.11 -3.25807 3.77692 0
M  V30 23609 H 2151.26 -5.39251 2.78016 0
M  V30 23610 H 2150 -4.49766 1.88578 0
M  V30 23611 H 2149.01 -3.71445 4.0535 0
M  V30 23612 H 2150.23 -4.6428 4.95601 0
M  V30 23613 H 2148.18 -5.81257 3.041 0
M  V30 23614 H 2148.09 -5.86408 4.77139 0
M  V30 23615 H 2149.36 -6.72157 3.94747 0
M  V30 23616 N 2153.59 -1.35359 -0.807199 0
M  V30 23617 C 2154.52 -1.24083 -1.92707 0
M  V30 23618 C 2155.54 -0.164267 -1.61969 0
M  V30 23619 O 2156.73 -0.417487 -1.73549 0
M  V30 23620 C 2153.83 -0.88785 -3.27063 0
M  V30 23621 C 2153 -2.06266 -3.85711 0
M  V30 23622 C 2152.06 -1.68555 -4.98473 0
M  V30 23623 O 2151.08 -2.40421 -5.15933 0
M  V30 23624 N 2152.29 -0.608828 -5.77298 0
M  V30 23625 H 2155.05 -2.20565 -2.02907 0
M  V30 23626 H 2152.61 -1.2852 -0.984589 0
M  V30 23627 H 2154.6 -0.61707 -3.99968 0
M  V30 23628 H 2153.17 -0.0127324 -3.12597 0
M  V30 23629 H 2152.39 -2.49727 -3.05008 0
M  V30 23630 H 2153.68 -2.84796 -4.21626 0
M  V30 23631 H 2153.08 -0.0117274 -5.65699 0
M  V30 23632 H 2151.64 -0.397827 -6.50585 0
M  V30 23633 N 2155.07 1.02928 -1.19346 0
M  V30 23634 C 2156.02 2.11197 -0.930836 0
M  V30 23635 C 2156.99 1.65557 0.13418 0
M  V30 23636 O 2158.17 1.90798 -0.00787889 0
M  V30 23637 C 2155.31 3.41813 -0.47517 0
M  V30 23638 C 2154.42 4.01002 -1.60691 0
M  V30 23639 C 2153.56 5.19626 -1.10282 0
M  V30 23640 C 2152.6 5.7087 -2.20848 0
M  V30 23641 N 2151.74 6.80769 -1.71749 0
M  V30 23642 H 2156.58 2.32999 -1.85784 0
M  V30 23643 H 2154.11 1.14276 -0.926246 0
M  V30 23644 H 2156.07 4.16756 -0.192384 0
M  V30 23645 H 2154.7 3.20123 0.414844 0
M  V30 23646 H 2153.75 3.23276 -2.00491 0
M  V30 23647 H 2155.06 4.3505 -2.43994 0
M  V30 23648 H 2154.22 6.01727 -0.775236 0
M  V30 23649 H 2152.96 4.87112 -0.239508 0
M  V30 23650 H 2151.96 4.87383 -2.54437 0
M  V30 23651 H 2153.19 6.05424 -3.07633 0
M  V30 23652 H 2151.13 6.50108 -0.877253 0
M  V30 23653 H 2151.05 7.13942 -2.48642 0
M  V30 23654 H 2152.32 7.66466 -1.41953 0
M  V30 23655 N 2156.55 0.997319 1.2203 0
M  V30 23656 C 2157.78 0.69324 1.94622 0
M  V30 23657 C 2158.19 -0.746899 1.73833 0
M  V30 23658 O 2157.53 -1.51616 1.03722 0
M  V30 23659 C 2157.59 0.92485 3.474 0
M  V30 23660 C 2157.25 2.35033 3.91929 0
M  V30 23661 C 2158.25 3.33011 3.99249 0
M  V30 23662 C 2155.94 2.68594 4.24456 0
M  V30 23663 C 2157.93 4.6262 4.38476 0
M  V30 23664 C 2155.62 3.98422 4.63361 0
M  V30 23665 C 2156.62 4.95246 4.70341 0
M  V30 23666 O 2156.3 6.22753 5.08363 0
M  V30 23667 H 2156.04 0.255247 0.625959 0
M  V30 23668 H 2158.59 1.33604 1.5601 0
M  V30 23669 H 2156.82 0.224877 3.86046 0
M  V30 23670 H 2158.51 0.61534 4.01209 0
M  V30 23671 H 2159.27 3.08416 3.74306 0
M  V30 23672 H 2155.15 1.9393 4.18225 0
M  V30 23673 H 2158.7 5.38194 4.43839 0
M  V30 23674 H 2154.59 4.22804 4.87757 0
M  V30 23675 H 2155.36 6.26755 5.26422 0
M  V30 23676 N 2158.03 -1.37449 0.771075 0
M  V30 23677 C 2158.94 -2.3407 0.157631 0
M  V30 23678 C 2159.95 -1.60145 -0.680404 0
M  V30 23679 O 2161.13 -1.9224 -0.600482 0
M  V30 23680 C 2158.19 -3.39316 -0.711733 0
M  V30 23681 C 2157.25 -4.29063 0.142682 0
M  V30 23682 C 2156.49 -5.29282 -0.685284 0
M  V30 23683 O 2156.71 -5.37029 -1.92241 0
M  V30 23684 O 2155.64 -6.01825 -0.0948431 0
M  V30 23685 H 2159.47 -2.8826 0.956036 0
M  V30 23686 H 2157.06 -1.39598 0.532224 0
M  V30 23687 H 2158.94 -4.03713 -1.20806 0
M  V30 23688 H 2157.61 -2.87455 -1.48834 0
M  V30 23689 H 2156.52 -3.67769 0.685357 0
M  V30 23690 H 2157.85 -4.84227 0.882356 0
M  V30 23691 N 2159.5 -0.52156 -1.4872 0
M  V30 23692 C 2160.41 0.249847 -2.33266 0
M  V30 23693 C 2161.43 0.947297 -1.45953 0
M  V30 23694 O 2162.61 0.924126 -1.78947 0
M  V30 23695 C 2159.67 1.28824 -3.21878 0
M  V30 23696 C 2158.73 0.602041 -4.25058 0
M  V30 23697 C 2157.97 1.59096 -5.09435 0
M  V30 23698 O 2158.19 2.82282 -4.95654 0
M  V30 23699 O 2157.12 1.13498 -5.91102 0
M  V30 23700 H 2160.95 -0.442725 -3.00456 0
M  V30 23701 H 2158.53 -0.282593 -1.46703 0
M  V30 23702 H 2160.42 1.88853 -3.76713 0
M  V30 23703 H 2159.09 1.96337 -2.57359 0
M  V30 23704 H 2158 -0.0385256 -3.7408 0
M  V30 23705 H 2159.33 -0.0310005 -4.9219 0
M  V30 23706 N 2160.98 1.55502 -0.256304 0
M  V30 23707 C 2162.21 2.04025 0.372624 0
M  V30 23708 C 2162.63 1.13408 1.50067 0
M  V30 23709 O 2161.99 0.128888 1.80841 0
M  V30 23710 C 2162.04 3.50465 0.848906 0
M  V30 23711 O 2161.14 3.62969 1.95774 0
M  V30 23712 H 2160.48 0.659174 0.0799143 0
M  V30 23713 H 2163.01 2.00943 -0.385109 0
M  V30 23714 H 2163.02 3.91468 1.14965 0
M  V30 23715 H 2161.7 4.15893 0.0234786 0
M  V30 23716 H 2160.28 3.33865 1.66098 0
M  V30 23717 N 2162.46 -0.0166879 1.57591 0
M  V30 23718 C 2163.39 -1.04126 2.04182 0
M  V30 23719 C 2164.41 -1.31719 0.956768 0
M  V30 23720 O 2165.59 -1.28988 1.23387 0
M  V30 23721 C 2162.69 -2.38001 2.41265 0
M  V30 23722 C 2161.87 -2.29588 3.72301 0
M  V30 23723 C 2160.93 -3.46013 3.96436 0
M  V30 23724 O 2159.95 -3.2495 4.67328 0
M  V30 23725 N 2161.15 -4.68304 3.43033 0
M  V30 23726 H 2163.92 -0.644054 2.92698 0
M  V30 23727 H 2161.48 -0.204401 1.60605 0
M  V30 23728 H 2163.47 -3.14631 2.54538 0
M  V30 23729 H 2162.04 -2.69522 1.58355 0
M  V30 23730 H 2161.26 -1.37977 3.69264 0
M  V30 23731 H 2162.55 -2.21122 4.58238 0
M  V30 23732 H 2161.95 -4.88316 2.85593 0
M  V30 23733 H 2160.51 -5.42256 3.61665 0
M  V30 23734 N 2163.94 -1.54924 -0.289176 0
M  V30 23735 C 2165.16 -1.791 -1.04585 0
M  V30 23736 C 2165.59 -0.55455 -1.7974 0
M  V30 23737 O 2164.95 0.495343 -1.74402 0
M  V30 23738 C 2164.99 -3.0053 -1.99283 0
M  V30 23739 O 2164.1 -2.74483 -3.07787 0
M  V30 23740 H 2163.44 -0.592442 -0.299847 0
M  V30 23741 H 2165.97 -2.02034 -0.323001 0
M  V30 23742 H 2165.98 -3.28824 -2.41534 0
M  V30 23743 H 2164.65 -3.90179 -1.4399 0
M  V30 23744 H 2163.23 -2.5724 -2.69966 0
M  V30 23745 N 2165.42 0.552936 -1.47582 0
M  V30 23746 C 2166.33 1.68696 -1.6303 0
M  V30 23747 C 2167.34 1.66263 -0.513075 0
M  V30 23748 O 2168.52 1.85633 -0.781171 0
M  V30 23749 C 2165.58 3.05197 -1.64486 0
M  V30 23750 C 2164.64 3.18664 -2.87666 0
M  V30 23751 C 2163.88 4.48653 -2.89043 0
M  V30 23752 O 2164.1 5.34372 -1.99506 0
M  V30 23753 O 2163.03 4.66001 -3.80955 0
M  V30 23754 H 2166.86 1.58604 -2.58995 0
M  V30 23755 H 2164.45 0.723431 -1.30717 0
M  V30 23756 H 2166.33 3.86421 -1.68098 0
M  V30 23757 H 2165 3.15662 -0.716893 0
M  V30 23758 H 2163.91 2.36821 -2.89597 0
M  V30 23759 H 2165.24 3.13105 -3.79771 0
M  V30 23760 N 2166.89 1.35785 0.800009 0
M  V30 23761 C 2167.82 1.31917 1.92666 0
M  V30 23762 C 2168.81 0.19244 1.69008 0
M  V30 23763 O 2169.99 0.388435 1.90276 0
M  V30 23764 C 2167.12 1.09703 3.29519 0
M  V30 23765 C 2166.07 2.19086 3.67675 0
M  V30 23766 C 2165.4 1.82029 5.02762 0
M  V30 23767 C 2166.7 3.611 3.77365 0
M  V30 23768 H 2168.39 2.26189 1.96161 0
M  V30 23769 H 2165.94 1.08882 0.94237 0
M  V30 23770 H 2167.89 1.05634 4.07945 0
M  V30 23771 H 2166.62 0.118779 3.26384 0
M  V30 23772 H 2165.28 2.22263 2.91539 0
M  V30 23773 H 2164.92 0.828056 4.96137 0
M  V30 23774 H 2164.62 2.55256 5.29262 0
M  V30 23775 H 2166.15 1.79497 5.83621 0
M  V30 23776 H 2167.56 3.60209 4.46007 0
M  V30 23777 H 2165.96 4.33143 4.1534 0
M  V30 23778 H 2167.03 3.96774 2.78744 0
M  V30 23779 N 2168.37 -1.02294 1.19891 0
M  V30 23780 C 2169.28 -2.14169 0.957533 0
M  V30 23781 C 2170.3 -1.73795 -0.0844739 0
M  V30 23782 O 2171.47 -2.01144 0.101528 0
M  V30 23783 C 2168.54 -3.4299 0.50587 0
M  V30 23784 C 2167.6 -3.97643 1.61797 0
M  V30 23785 C 2166.83 -5.20315 1.18777 0
M  V30 23786 O 2167.06 -5.70375 0.0538032 0
M  V30 23787 O 2165.99 -5.67957 1.99268 0
M  V30 23788 H 2169.82 -2.37398 1.89409 0
M  V30 23789 H 2167.4 -1.12572 0.982234 0
M  V30 23790 H 2169.28 -4.20579 0.26292 0
M  V30 23791 H 2167.96 -3.21192 -0.402182 0
M  V30 23792 H 2166.87 -3.21362 1.91514 0
M  V30 23793 H 2168.2 -4.23817 2.5028 0
M  V30 23794 N 2169.85 -1.00378 -1.21499 0
M  V30 23795 C 2171.08 -0.704325 -1.95074 0
M  V30 23796 C 2171.5 0.726447 -1.73506 0
M  V30 23797 O 2170.86 1.49809 -1.02113 0
M  V30 23798 C 2170.91 -1.02938 -3.45595 0
M  V30 23799 O 2170.01 -0.133961 -4.12182 0
M  V30 23800 H 2169.35 -0.262537 -0.609894 0
M  V30 23801 H 2171.88 -1.34369 -1.54292 0
M  V30 23802 H 2171.89 -0.975727 -3.96161 0
M  V30 23803 H 2170.57 -2.0719 -3.60618 0
M  V30 23804 H 2169.14 -0.244034 -3.72101 0
M  V30 23805 N 2171.33 1.37038 -0.778354 0
M  V30 23806 C 2172.55 2.0432 -0.356086 0
M  V30 23807 C 2172.98 1.58315 1.01577 0
M  V30 23808 O 2172.34 0.74645 1.65221 0
M  V30 23809 C 2172.38 3.58196 -0.41573 0
M  V30 23810 O 2171.49 4.08281 0.581416 0
M  V30 23811 H 2170.83 0.646127 -0.153022 0
M  V30 23812 H 2173.36 1.75219 -1.05639 0
M  V30 23813 H 2173.37 4.0707 -0.275375 0
M  V30 23814 H 2172.04 3.91034 -1.41652 0
M  V30 23815 H 2170.62 3.70709 0.403635 0
M  V30 23816 N 2172.81 0.529439 1.48441 0
M  V30 23817 C 2173.74 -0.270735 2.27595 0
M  V30 23818 C 2174.75 -0.904942 1.35332 0
M  V30 23819 O 2175.94 -0.783475 1.60387 0
M  V30 23820 C 2173.04 -1.39858 3.08695 0
M  V30 23821 C 2172.21 -0.8664 4.28733 0
M  V30 23822 C 2171.27 -1.87531 4.91649 0
M  V30 23823 O 2170.3 -1.43247 5.5088 0
M  V30 23824 N 2171.5 -3.20745 4.83842 0
M  V30 23825 H 2174.27 0.408123 2.96908 0
M  V30 23826 H 2171.83 0.363736 1.57761 0
M  V30 23827 H 2173.82 -2.07167 3.47655 0
M  V30 23828 H 2172.39 -1.98112 2.41807 0
M  V30 23829 H 2171.61 -0.0173382 3.94196 0
M  V30 23830 H 2172.9 -0.489715 5.06438 0
M  V30 23831 H 2172.3 -3.5939 4.3687 0
M  V30 23832 H 2170.85 -3.83688 5.26903 0
M  V30 23833 N 2174.29 -1.55364 0.264547 0
M  V30 23834 C 2175.23 -2.22106 -0.62749 0
M  V30 23835 C 2176.2 -1.1909 -1.15788 0
M  V30 23836 O 2177.39 -1.47597 -1.20912 0
M  V30 23837 C 2174.53 -2.93783 -1.81068 0
M  V30 23838 C 2173.64 -4.11495 -1.31515 0
M  V30 23839 C 2172.78 -4.70842 -2.45929 0
M  V30 23840 C 2171.81 -5.80768 -1.93326 0
M  V30 23841 N 2170.95 -6.34223 -3.01173 0
M  V30 23842 H 2175.79 -2.97955 -0.0516766 0
M  V30 23843 H 2173.33 -1.47094 -0.0137419 0
M  V30 23844 H 2175.29 -3.33549 -2.50601 0
M  V30 23845 H 2173.92 -2.20376 -2.35869 0
M  V30 23846 H 2172.97 -3.76921 -0.513271 0
M  V30 23847 H 2174.28 -4.908 -0.88977 0
M  V30 23848 H 2173.43 -5.13274 -3.23474 0
M  V30 23849 H 2172.17 -3.90791 -2.91777 0
M  V30 23850 H 2171.18 -5.37797 -1.14257 0
M  V30 23851 H 2172.4 -6.62681 -1.48426 0
M  V30 23852 H 2170.35 -5.5707 -3.46423 0
M  V30 23853 H 2170.27 -7.08771 -2.63021 0
M  V30 23854 H 2171.53 -6.81313 -3.78725 0
M  V30 23855 N 2175.76 0.00833021 -1.57598 0
M  V30 23856 C 2176.67 1.01892 -2.11318 0
M  V30 23857 C 2177.69 1.38254 -1.0565 0
M  V30 23858 O 2178.87 1.47155 -1.37505 0
M  V30 23859 C 2175.93 2.29464 -2.59899 0
M  V30 23860 C 2174.99 1.99492 -3.80134 0
M  V30 23861 C 2174.22 3.20981 -4.26388 0
M  V30 23862 O 2174.45 4.3238 -3.72027 0
M  V30 23863 O 2173.38 3.05467 -5.18627 0
M  V30 23864 H 2177.21 0.592299 -2.97868 0
M  V30 23865 H 2174.79 0.226636 -1.47671 0
M  V30 23866 H 2176.67 3.04425 -2.91382 0
M  V30 23867 H 2175.35 2.7138 -1.76449 0
M  V30 23868 H 2174.26 1.22033 -3.53636 0
M  V30 23869 H 2175.59 1.62418 -4.6463 0
M  V30 23870 N 2177.24 1.55075 0.280956 0
M  V30 23871 C 2178.2 1.86644 1.33029 0
M  V30 23872 C 2179.2 0.740496 1.42735 0
M  V30 23873 O 2180.39 1.00871 1.42023 0
M  V30 23874 C 2177.53 2.06462 2.71268 0
M  V30 23875 H 2178.72 2.80439 1.06273 0
M  V30 23876 H 2176.27 1.47445 0.51863 0
M  V30 23877 H 2177.01 1.15021 3.03217 0
M  V30 23878 H 2176.79 2.88433 2.65611 0
M  V30 23879 H 2178.28 2.32186 3.47101 0
M  V30 23880 N 2178.72 -0.545102 1.47873 0
M  V30 23881 C 2180.14 -0.872206 1.33659 0
M  V30 23882 C 2180.34 -1.98676 0.336181 0
M  V30 23883 O 2179.39 -2.51279 -0.248001 0
M  V30 23884 C 2180.7 -1.254 2.73304 0
M  V30 23885 C 2182.25 -1.36475 2.8168 0
M  V30 23886 C 2182.73 -1.78005 4.21993 0
M  V30 23887 N 2184.22 -1.85134 4.24593 0
M  V30 23888 C 2184.95 -2.18622 5.30087 0
M  V30 23889 N 2184.45 -2.50639 6.45873 0
M  V30 23890 N 2186.24 -2.19499 5.17471 0
M  V30 23891 H 2178.39 0.190536 2.11544 0
M  V30 23892 H 2180.66 0.0225858 0.947731 0
M  V30 23893 H 2180.36 -0.508782 3.48 0
M  V30 23894 H 2180.24 -2.20752 3.05857 0
M  V30 23895 H 2182.62 -2.10076 2.07249 0
M  V30 23896 H 2182.7 -0.392814 2.52766 0
M  V30 23897 H 2182.35 -1.04969 4.96935 0
M  V30 23898 H 2182.28 -2.76222 4.4834 0
M  V30 23899 H 2184.77 -1.62729 3.41068 0
M  V30 23900 H 2185.08 -2.75253 7.22119 0
M  V30 23901 H 2183.43 -2.48192 6.49173 0
M  V30 23902 H 2186.62 -1.93934 4.26037 0
M  V30 23903 H 2186.79 -2.45267 5.9979 0
M  V30 23904 N 2180.2 -1.36208 -0.792797 0
M  V30 23905 C 2181.42 -1.3356 -1.58671 0
M  V30 23906 C 2181.85 0.0814602 -1.87924 0
M  V30 23907 O 2181.21 1.05241 -1.47628 0
M  V30 23908 C 2181.25 -2.16123 -2.88658 0
M  V30 23909 O 2180.36 -1.5514 -3.82106 0
M  V30 23910 H 2179.7 -0.45729 -0.481438 0
M  V30 23911 H 2182.23 -1.79444 -0.982909 0
M  V30 23912 H 2182.24 -2.28579 -3.37958 0
M  V30 23913 H 2180.91 -3.19136 -2.66693 0
M  V30 23914 H 2179.49 -1.51604 -3.40691 0
M  V30 23915 N 2181.68 1.01656 -1.20431 0
M  V30 23916 C 2182.61 2.12074 -0.977076 0
M  V30 23917 C 2183.59 1.6984 0.0939563 0
M  V30 23918 O 2184.77 1.94096 -0.0635618 0
M  V30 23919 C 2181.9 3.43257 -0.528392 0
M  V30 23920 C 2180.86 3.99231 -1.54267 0
M  V30 23921 C 2180.18 5.26182 -0.950621 0
M  V30 23922 C 2181.48 4.32619 -2.92639 0
M  V30 23923 H 2183.18 2.31342 -1.90056 0
M  V30 23924 H 2180.72 1.11175 -0.915209 0
M  V30 23925 H 2182.67 4.19888 -0.35665 0
M  V30 23926 H 2181.4 3.23747 0.430716 0
M  V30 23927 H 2180.06 3.24708 -1.70177 0
M  V30 23928 H 2179.71 5.02997 0.0164182 0
M  V30 23929 H 2179.41 5.64597 -1.62802 0
M  V30 23930 H 2180.93 6.05469 -0.789947 0
M  V30 23931 H 2182.34 5.00138 -2.8024 0
M  V30 23932 H 2180.74 4.82148 -3.57286 0
M  V30 23933 H 2181.81 3.41386 -3.4436 0
M  V30 23934 N 2183.15 1.01021 1.20965 0
M  V30 23935 C 2184.38 0.714661 1.94698 0
M  V30 23936 C 2184.8 -0.717235 1.73889 0
M  V30 23937 O 2184.16 -1.49265 1.02906 0
M  V30 23938 C 2184.21 1.04769 3.45045 0
M  V30 23939 O 2183.31 0.155818 4.12106 0
M  V30 23940 H 2182.65 0.265768 0.608493 0
M  V30 23941 H 2185.18 1.35186 1.53577 0
M  V30 23942 H 2185.19 0.996722 3.95638 0
M  V30 23943 H 2183.87 2.09099 3.59514 0
M  V30 23944 H 2182.45 0.263764 3.71966 0
M  V30 23945 N 2184.63 -1.36623 0.78561 0
M  V30 23946 C 2185.86 -2.036 0.368068 0
M  V30 23947 C 2186.27 -1.5924 -1.01429 0
M  V30 23948 O 2185.63 -0.780055 -1.64989 0
M  V30 23949 C 2185.68 -3.59077 0.417857 0
M  V30 23950 O 2185.4 -4.01817 1.7457 0
M  V30 23951 C 2186.9 -4.43299 -0.00953716 0
M  V30 23952 H 2184.12 -0.653506 0.152221 0
M  V30 23953 H 2186.67 -1.74677 1.0634 0
M  V30 23954 H 2184.82 -3.86722 -0.229019 0
M  V30 23955 H 2185.24 -4.96395 1.69389 0
M  V30 23956 H 2186.71 -5.51947 0.0764418 0
M  V30 23957 H 2187.19 -4.26175 -1.06169 0
M  V30 23958 H 2187.79 -4.20907 0.60968 0
M  V30 23959 N 2186.11 -0.537304 -1.48158 0
M  V30 23960 C 2187.02 0.225092 -2.33518 0
M  V30 23961 C 2188.04 0.931763 -1.4695 0
M  V30 23962 O 2189.21 0.905094 -1.79917 0
M  V30 23963 C 2186.28 1.25403 -3.23226 0
M  V30 23964 C 2185.34 0.556924 -4.25672 0
M  V30 23965 C 2184.57 1.53684 -5.11094 0
M  V30 23966 O 2184.79 2.77009 -4.9862 0
M  V30 23967 O 2183.73 1.07222 -5.92273 0
M  V30 23968 H 2187.55 -0.474567 -2.99969 0
M  V30 23969 H 2185.14 -0.298137 -1.46395 0
M  V30 23970 H 2187.02 1.84847 -3.78695 0
M  V30 23971 H 2185.7 1.93596 -2.59427 0
M  V30 23972 H 2184.6 -0.0781996 -3.74018 0
M  V30 23973 H 2185.94 -0.0832021 -4.9213 0
M  V30 23974 N 2187.59 1.55221 -0.272782 0
M  V30 23975 C 2188.52 2.25408 0.609392 0
M  V30 23976 C 2189.5 1.2434 1.16076 0
M  V30 23977 O 2190.68 1.53054 1.19533 0
M  V30 23978 C 2187.81 2.97338 1.79464 0
M  V30 23979 C 2186.77 4.05315 1.37491 0
M  V30 23980 C 2186.09 4.64808 2.64307 0
M  V30 23981 C 2187.39 5.19636 0.526828 0
M  V30 23982 H 2189.09 2.9939 0.0240678 0
M  V30 23983 H 2186.63 1.43996 0.0101357 0
M  V30 23984 H 2188.59 3.45149 2.41765 0
M  V30 23985 H 2187.31 2.20887 2.40576 0
M  V30 23986 H 2185.97 3.58312 0.775106 0
M  V30 23987 H 2185.62 3.85027 3.23672 0
M  V30 23988 H 2185.32 5.37713 2.36935 0
M  V30 23989 H 2186.84 5.15366 3.2746 0
M  V30 23990 H 2188.26 5.63513 1.05478 0
M  V30 23991 H 2186.65 5.9909 0.348095 0
M  V30 23992 H 2187.72 4.82761 -0.454948 0
M  V30 23993 N 2189.07 2.77022e-05 1.576 0
M  V30 23994 C 2190.31 -0.684815 1.90569 0
M  V30 23995 C 2190.64 -1.73777 0.873597 0
M  V30 23996 O 2189.9 -1.95322 -0.12162 0
M  V30 23997 C 2190.2 -1.36534 3.30292 0
M  V30 23998 C 2189.86 -0.445583 4.48693 0
M  V30 23999 C 2188.52 -0.192344 4.80815 0
M  V30 24000 C 2190.88 0.187683 5.20862 0
M  V30 24001 C 2188.2 0.702454 5.8248 0
M  V30 24002 C 2190.56 1.07036 6.23479 0
M  V30 24003 C 2189.22 1.33277 6.54059 0
M  V30 24004 H 2188.49 -0.250591 0.697341 0
M  V30 24005 H 2191.14 0.0555609 1.91419 0
M  V30 24006 H 2189.44 -2.17977 3.25566 0
M  V30 24007 H 2191.14 -1.90129 3.53061 0
M  V30 24008 H 2187.73 -0.653128 4.23594 0
M  V30 24009 H 2191.91 0.00505024 4.963 0
M  V30 24010 H 2187.17 0.913771 6.04533 0
M  V30 24011 H 2191.34 1.56741 6.78532 0
M  V30 24012 H 2188.97 2.02782 7.32655 0
M  V30 24013 N 2190.54 -1.55222 -0.272728 0
M  V30 24014 C 2191.49 -1.88121 -1.33713 0
M  V30 24015 C 2192.46 -0.732736 -1.49064 0
M  V30 24016 O 2193.65 -0.98403 -1.63467 0
M  V30 24017 C 2190.79 -2.15886 -2.69234 0
M  V30 24018 C 2189.9 -3.43404 -2.62102 0
M  V30 24019 C 2189.03 -3.60868 -3.89804 0
M  V30 24020 C 2188.07 -4.82077 -3.77184 0
M  V30 24021 N 2187.21 -4.96198 -4.96722 0
M  V30 24022 H 2192.05 -2.78905 -1.04957 0
M  V30 24023 H 2189.59 -1.38084 -0.507063 0
M  V30 24024 H 2191.55 -2.29984 -3.48085 0
M  V30 24025 H 2190.18 -1.28337 -2.96192 0
M  V30 24026 H 2189.23 -3.37776 -1.74961 0
M  V30 24027 H 2190.54 -4.3239 -2.48677 0
M  V30 24028 H 2189.69 -3.74785 -4.77096 0
M  V30 24029 H 2188.43 -2.70068 -4.06097 0
M  V30 24030 H 2187.44 -4.68164 -2.88276 0
M  V30 24031 H 2188.66 -5.74313 -3.62411 0
M  V30 24032 H 2186.61 -4.08328 -5.13424 0
M  V30 24033 H 2186.53 -5.7923 -4.85828 0
M  V30 24034 H 2187.79 -5.145 -5.85585 0
M  V30 24035 N 2192.02 0.537252 -1.4816 0
M  V30 24036 C 2192.95 1.65187 -1.65032 0
M  V30 24037 C 2193.93 1.62607 -0.499309 0
M  V30 24038 O 2195.12 1.79917 -0.731003 0
M  V30 24039 C 2192.25 3.03792 -1.68308 0
M  V30 24040 C 2191.2 3.21229 -2.82836 0
M  V30 24041 C 2190.53 4.60821 -2.71197 0
M  V30 24042 C 2191.83 3.04693 -4.24216 0
M  V30 24043 H 2193.52 1.51323 -2.58344 0
M  V30 24044 H 2191.07 0.726563 -1.24326 0
M  V30 24045 H 2193.02 3.81634 -1.787 0
M  V30 24046 H 2191.75 3.18662 -0.715691 0
M  V30 24047 H 2190.4 2.45802 -2.71987 0
M  V30 24048 H 2190.05 4.72517 -1.72443 0
M  V30 24049 H 2189.75 4.73434 -3.48043 0
M  V30 24050 H 2191.28 5.40772 -2.83546 0
M  V30 24051 H 2192.69 3.72334 -4.35936 0
M  V30 24052 H 2191.09 3.28804 -5.02004 0
M  V30 24053 H 2192.16 2.01201 -4.41187 0
M  V30 24054 N 2193.5 1.36626 0.785562 0
M  V30 24055 C 2194.45 1.31267 1.89836 0
M  V30 24056 C 2195.42 0.180662 1.65115 0
M  V30 24057 O 2196.6 0.367802 1.87221 0
M  V30 24058 C 2193.74 1.11168 3.26704 0
M  V30 24059 C 2192.86 2.33478 3.63472 0
M  V30 24060 C 2191.99 2.06361 4.89478 0
M  V30 24061 C 2191.03 3.24611 5.18935 0
M  V30 24062 N 2190.17 2.97134 6.36126 0
M  V30 24063 H 2195.01 2.26416 1.93752 0
M  V30 24064 H 2192.54 1.12526 0.947434 0
M  V30 24065 H 2194.5 0.975408 4.05637 0
M  V30 24066 H 2193.13 0.196731 3.222 0
M  V30 24067 H 2192.18 2.57896 2.79632 0
M  V30 24068 H 2193.5 3.21711 3.81187 0
M  V30 24069 H 2192.65 1.89685 5.76285 0
M  V30 24070 H 2191.39 1.15446 4.73839 0
M  V30 24071 H 2190.39 3.41842 4.30609 0
M  V30 24072 H 2191.62 4.16358 5.36491 0
M  V30 24073 H 2189.56 2.08834 6.21872 0
M  V30 24074 H 2189.48 3.78906 6.54191 0
M  V30 24075 H 2190.75 2.84046 7.25905 0
M  V30 24076 N 2194.98 -1.01016 1.20969 0
M  V30 24077 C 2195.93 -2.11808 0.96126 0
M  V30 24078 C 2196.92 -1.69162 -0.0896736 0
M  V30 24079 O 2198.13 -1.79896 0.0612587 0
M  V30 24080 H 2194.5 -0.692333 0.293562 0
M  V30 24081 H 2196.47 -2.29942 1.90182 0
M  V30 24082 C 2195.22 -3.4353 0.536914 0
M  V30 24083 H 2194.54 -3.76775 1.3372 0
M  V30 24084 H 2195.98 -4.22087 0.40236 0
M  V30 24085 C 2194.44 -3.28411 -0.751517 0
M  V30 24086 O 2194.97 -3.58694 -1.80835 0
M  V30 24087 N 2193.18 -2.81641 -0.716029 0
M  V30 24088 H 2192.73 -2.57196 0.144281 0
M  V30 24089 H 2192.68 -2.71906 -1.57843 0
M  V30 24090 N 2196.46 -1.01661 -1.20428 0
M  V30 24091 C 2197.42 -0.591655 -2.21432 0
M  V30 24092 C 2198.42 0.338198 -1.57203 0
M  V30 24093 O 2199.61 0.126887 -1.73737 0
M  V30 24094 C 2196.74 0.135998 -3.40629 0
M  V30 24095 H 2197.93 -1.48518 -2.60542 0
M  V30 24096 H 2195.49 -0.806402 -1.33891 0
M  V30 24097 H 2196.22 1.04444 -3.07021 0
M  V30 24098 H 2196.01 -0.531985 -3.88474 0
M  V30 24099 H 2197.5 0.420662 -4.15476 0
M  V30 24100 N 2197.93 1.36205 -0.792844 0
M  V30 24101 C 2199.16 2.03107 -0.378311 0
M  V30 24102 C 2199.57 1.59913 1.01117 0
M  V30 24103 O 2198.92 0.785687 1.6605 0
M  V30 24104 C 2198.98 3.57626 -0.366598 0
M  V30 24105 C 2198.64 4.24034 -1.70424 0
M  V30 24106 C 2199.64 4.46682 -2.66028 0
M  V30 24107 C 2197.32 4.61437 -1.98447 0
M  V30 24108 C 2199.32 5.05818 -3.87849 0
M  V30 24109 C 2197 5.20289 -3.20534 0
M  V30 24110 C 2198 5.4242 -4.15054 0
M  V30 24111 O 2197.69 6.00035 -5.34988 0
M  V30 24112 H 2197.42 0.658329 -0.153555 0
M  V30 24113 H 2199.98 1.75092 -1.07387 0
M  V30 24114 H 2198.21 3.84774 0.385471 0
M  V30 24115 H 2199.9 4.05893 0.0237374 0
M  V30 24116 H 2200.66 4.18179 -2.45666 0
M  V30 24117 H 2196.54 4.43534 -1.25694 0
M  V30 24118 H 2200.08 5.23007 -4.61637 0
M  V30 24119 H 2195.98 5.48219 -3.40774 0
M  V30 24120 H 2196.75 6.18499 -5.36098 0
M  V30 24121 N 2199.41 0.545154 1.47871 0
M  V30 24122 C 2200.32 -0.212705 2.33634 0
M  V30 24123 C 2201.34 -0.923957 1.47442 0
M  V30 24124 O 2202.51 -0.89554 1.80394 0
M  V30 24125 C 2199.58 -1.23687 3.23886 0
M  V30 24126 C 2198.64 -0.534342 4.25962 0
M  V30 24127 C 2197.87 -1.50971 5.11902 0
M  V30 24128 O 2198.1 -2.74361 5.00082 0
M  V30 24129 O 2197.03 -1.0408 5.92833 0
M  V30 24130 H 2200.86 0.490469 2.99713 0
M  V30 24131 H 2198.44 0.305896 1.46235 0
M  V30 24132 H 2200.32 -1.82836 3.7967 0
M  V30 24133 H 2199 -1.92218 2.6045 0
M  V30 24134 H 2197.91 0.0980336 3.73972 0
M  V30 24135 H 2199.24 0.1093 4.92079 0
M  V30 24136 N 2200.89 -1.55074 0.28101 0
M  V30 24137 C 2201.8 -2.26427 -0.61384 0
M  V30 24138 C 2202.82 -1.29226 -1.16519 0
M  V30 24139 O 2203.99 -1.62173 -1.19423 0
M  V30 24140 C 2201.06 -2.97593 -1.77875 0
M  V30 24141 C 2200.12 -4.10286 -1.26348 0
M  V30 24142 C 2199.35 -4.78049 -2.37287 0
M  V30 24143 O 2199.57 -4.45053 -3.56769 0
M  V30 24144 O 2198.51 -5.65874 -2.05109 0
M  V30 24145 H 2202.33 -3.03679 -0.0356398 0
M  V30 24146 H 2199.92 -1.49322 0.0481948 0
M  V30 24147 H 2201.8 -3.42297 -2.45785 0
M  V30 24148 H 2200.48 -2.23253 -2.34393 0
M  V30 24149 H 2199.38 -3.70025 -0.55067 0
M  V30 24150 H 2200.72 -4.86545 -0.743979 0
M  V30 24151 N 2202.37 -0.00838561 -1.57598 0
M  V30 24152 C 2203.59 0.689069 -1.95619 0
M  V30 24153 C 2204.02 1.66045 -0.883782 0
M  V30 24154 O 2203.38 1.80616 0.15732 0
M  V30 24155 C 2203.43 1.38988 -3.32738 0
M  V30 24156 O 2202.53 2.50458 -3.27635 0
M  V30 24157 H 2201.87 0.182657 -0.638383 0
M  V30 24158 H 2204.4 -0.064072 -2.045 0
M  V30 24159 H 2204.41 1.7514 -3.68497 0
M  V30 24160 H 2203.09 0.677706 -4.10341 0
M  V30 24161 H 2201.66 2.16571 -3.03565 0
M  V30 24162 N 2203.85 1.55365 0.264492 0
M  V30 24163 C 2204.78 1.91838 1.33117 0
M  V30 24164 C 2205.76 0.781219 1.51099 0
M  V30 24165 O 2206.94 1.04006 1.64001 0
M  V30 24166 C 2204.07 2.19774 2.68918 0
M  V30 24167 C 2203.03 3.35576 2.65655 0
M  V30 24168 C 2202.35 3.49011 4.05087 0
M  V30 24169 C 2203.65 4.71743 2.24179 0
M  V30 24170 H 2205.35 2.81184 1.02839 0
M  V30 24171 H 2202.89 1.35288 0.493263 0
M  V30 24172 H 2204.85 2.43878 3.43659 0
M  V30 24173 H 2203.57 1.27236 3.00796 0
M  V30 24174 H 2202.23 3.11453 1.93371 0
M  V30 24175 H 2201.88 2.53924 4.34202 0
M  V30 24176 H 2201.58 4.26875 4.03797 0
M  V30 24177 H 2203.1 3.75417 4.81554 0
M  V30 24178 H 2204.52 4.95335 2.88646 0
M  V30 24179 H 2202.91 5.52583 2.34034 0
M  V30 24180 H 2203.98 4.6999 1.19319 0
M  V30 24181 N 2205.33 -0.529387 1.48443 0
M  V30 24182 C 2206.24 -1.66081 1.65693 0
M  V30 24183 C 2207.25 -1.65426 0.539461 0
M  V30 24184 O 2208.43 -1.84367 0.810605 0
M  V30 24185 C 2205.49 -3.02542 1.69321 0
M  V30 24186 C 2204.55 -3.14047 2.927 0
M  V30 24187 C 2203.79 -4.43998 2.96144 0
M  V30 24188 O 2204.01 -5.31131 2.07982 0
M  V30 24189 O 2202.94 -4.59881 3.8832 0
M  V30 24190 H 2206.77 -1.54464 2.61485 0
M  V30 24191 H 2204.35 -0.702544 1.31851 0
M  V30 24192 H 2206.24 -3.83698 1.74224 0
M  V30 24193 H 2204.91 -3.14481 0.767022 0
M  V30 24194 H 2203.82 -2.32184 2.93328 0
M  V30 24195 H 2205.15 -3.07023 3.84704 0
M  V30 24196 N 2206.8 -1.37041 -0.778305 0
M  V30 24197 C 2207.75 -1.28792 -1.8814 0
M  V30 24198 C 2208.74 -0.177091 -1.59922 0
M  V30 24199 O 2209.93 -0.410903 -1.72164 0
M  V30 24200 C 2207.06 -1.09061 -3.25516 0
M  V30 24201 C 2206.14 -2.2466 -3.59706 0
M  V30 24202 N 2206.54 -3.50025 -3.65125 0
M  V30 24203 C 2204.83 -2.1667 -3.89833 0
M  V30 24204 C 2205.53 -4.26214 -3.95875 0
M  V30 24205 N 2204.51 -3.55278 -4.11434 0
M  V30 24206 H 2208.31 -2.2374 -1.90571 0
M  V30 24207 H 2205.83 -1.29919 -0.974412 0
M  V30 24208 H 2207.82 -1.01237 -4.04421 0
M  V30 24209 H 2206.48 -0.150237 -3.24352 0
M  V30 24210 H 2207.49 -3.84017 -3.47493 0
M  V30 24211 H 2204.17 -1.30652 -3.9653 0
M  V30 24212 H 2205.56 -5.34681 -4.06898 0
M  V30 24213 N 2208.28 1.00373 -1.21503 0
M  V30 24214 C 2209.21 2.11026 -0.999515 0
M  V30 24215 C 2210.19 1.6993 0.0759372 0
M  V30 24216 O 2211.38 1.94018 -0.0841447 0
M  V30 24217 C 2208.51 3.42677 -0.564769 0
M  V30 24218 C 2207.46 3.97573 -1.58493 0
M  V30 24219 C 2206.79 5.25144 -1.00638 0
M  V30 24220 C 2208.09 4.29491 -2.97212 0
M  V30 24221 H 2209.78 2.29313 -1.92499 0
M  V30 24222 H 2207.33 1.10198 -0.926949 0
M  V30 24223 H 2209.28 4.19486 -0.401165 0
M  V30 24224 H 2208 3.24186 0.396354 0
M  V30 24225 H 2206.66 3.22885 -1.73612 0
M  V30 24226 H 2206.31 5.02986 -0.0369323 0
M  V30 24227 H 2206.01 5.62838 -1.68781 0
M  V30 24228 H 2207.54 6.04597 -0.854121 0
M  V30 24229 H 2208.95 4.97138 -2.85529 0
M  V30 24230 H 2207.35 4.78331 -3.6238 0
M  V30 24231 H 2208.42 3.37714 -3.47962 0
M  V30 24232 N 2209.76 1.02298 1.19887 0
M  V30 24233 C 2210.67 0.608548 2.2657 0
M  V30 24234 C 2211.69 -0.356934 1.703 0
M  V30 24235 O 2212.86 -0.216291 2.00235 0
M  V30 24236 C 2209.93 -0.0402204 3.46677 0
M  V30 24237 C 2208.99 0.972013 4.18151 0
M  V30 24238 C 2208.22 0.35411 5.32524 0
M  V30 24239 O 2208.44 -0.844505 5.64114 0
M  V30 24240 O 2207.38 1.07402 5.9224 0
M  V30 24241 H 2211.2 1.49688 2.64248 0
M  V30 24242 H 2208.79 0.792831 1.26628 0
M  V30 24243 H 2210.67 -0.40225 4.19476 0
M  V30 24244 H 2209.35 -0.902652 3.1086 0
M  V30 24245 H 2208.25 1.38552 3.47497 0
M  V30 24246 H 2209.59 1.80462 4.57924 0
M  V30 24247 N 2211.24 -1.35782 0.800057 0
M  V30 24248 C 2212.47 -2.03198 0.389642 0
M  V30 24249 C 2212.88 -1.60307 -0.997347 0
M  V30 24250 O 2212.24 -0.79751 -1.64152 0
M  V30 24251 C 2212.29 -3.58613 0.455918 0
M  V30 24252 O 2212.01 -3.99943 1.78822 0
M  V30 24253 C 2213.51 -4.43284 0.0374812 0
M  V30 24254 H 2210.73 -0.651855 0.159143 0
M  V30 24255 H 2213.27 -1.7354 1.08186 0
M  V30 24256 H 2211.43 -3.86944 -0.187989 0
M  V30 24257 H 2211.84 -4.9457 1.74645 0
M  V30 24258 H 2213.32 -5.51835 0.134979 0
M  V30 24259 H 2213.79 -4.27277 -1.01643 0
M  V30 24260 H 2214.4 -4.20237 0.654289 0
M  V30 24261 N 2212.72 -0.552988 -1.4758 0
M  V30 24262 C 2213.96 -0.0273599 -2.02482 0
M  V30 24263 C 2214.29 1.32078 -1.42778 0
M  V30 24264 O 2213.55 1.87172 -0.571426 0
M  V30 24265 C 2213.84 0.119666 -3.572 0
M  V30 24266 C 2213.51 -1.15705 -4.35802 0
M  V30 24267 C 2212.17 -1.50689 -4.56997 0
M  V30 24268 C 2214.52 -2.00327 -4.81164 0
M  V30 24269 C 2211.85 -2.70151 -5.20803 0
M  V30 24270 C 2214.2 -3.18988 -5.46287 0
M  V30 24271 C 2212.87 -3.5429 -5.65716 0
M  V30 24272 H 2212.14 -0.0100117 -0.740932 0
M  V30 24273 H 2214.79 -0.723651 -1.77301 0
M  V30 24274 H 2213.09 0.898893 -3.81349 0
M  V30 24275 H 2214.79 0.541648 -3.97325 0
M  V30 24276 H 2211.38 -0.874635 -4.19581 0
M  V30 24277 H 2215.56 -1.74607 -4.64571 0
M  V30 24278 H 2210.82 -2.97677 -5.3404 0
M  V30 24279 H 2214.99 -3.84849 -5.804 0
M  V30 24280 H 2212.62 -4.46953 -6.14929 0
M  V30 24281 N 2214.19 1.54923 -0.28923 0
M  V30 24282 C 2215.14 2.23076 0.592075 0
M  V30 24283 C 2216.11 1.20917 1.13879 0
M  V30 24284 O 2217.3 1.49502 1.18549 0
M  V30 24285 C 2214.44 2.96626 1.76371 0
M  V30 24286 C 2213.55 4.13535 1.24951 0
M  V30 24287 C 2212.68 4.74695 2.38407 0
M  V30 24288 C 2211.72 5.8377 1.84062 0
M  V30 24289 N 2210.86 6.38934 2.91045 0
M  V30 24290 H 2215.7 2.98 0.00426799 0
M  V30 24291 H 2213.24 1.47097 -0.00966114 0
M  V30 24292 H 2215.19 3.37494 2.45262 0
M  V30 24293 H 2213.82 2.24101 2.32333 0
M  V30 24294 H 2212.88 3.7769 0.453241 0
M  V30 24295 H 2214.19 4.92153 0.811576 0
M  V30 24296 H 2213.34 5.18355 3.15267 0
M  V30 24297 H 2212.08 3.95383 2.85523 0
M  V30 24298 H 2211.09 5.39546 1.05687 0
M  V30 24299 H 2212.31 6.64959 1.37865 0
M  V30 24300 H 2210.26 5.62511 3.37516 0
M  V30 24301 H 2210.17 7.12866 2.51712 0
M  V30 24302 H 2211.44 6.87252 3.67838 0
M  V30 24303 N 2215.67 0.0167433 1.57591 0
M  V30 24304 C 2217.09 -0.339529 1.55947 0
M  V30 24305 C 2217.29 -1.73711 1.02112 0
M  V30 24306 O 2216.34 -2.43658 0.662345 0
M  V30 24307 C 2217.66 -0.199446 3.00038 0
M  V30 24308 C 2219.2 -0.273139 3.11806 0
M  V30 24309 C 2219.68 -0.161988 4.57713 0
M  V30 24310 N 2221.17 -0.219363 4.6268 0
M  V30 24311 C 2221.91 -0.156954 5.73185 0
M  V30 24312 N 2221.4 -0.0441718 6.92786 0
M  V30 24313 N 2223.19 -0.210041 5.61707 0
M  V30 24314 H 2215.35 0.930792 1.90919 0
M  V30 24315 H 2217.61 0.358334 0.877668 0
M  V30 24316 H 2217.31 0.76279 3.43328 0
M  V30 24317 H 2217.19 -0.974722 3.64389 0
M  V30 24318 H 2219.58 -1.22583 2.68435 0
M  V30 24319 H 2219.66 0.5323 2.502 0
M  V30 24320 H 2219.3 0.787228 5.01762 0
M  V30 24321 H 2219.23 -0.986131 5.17284 0
M  V30 24322 H 2221.72 -0.30718 3.76649 0
M  V30 24323 H 2222.03 -0.00290485 7.728 0
M  V30 24324 H 2220.38 -0.00956241 6.94999 0
M  V30 24325 H 2223.57 -0.296464 4.6716 0
M  V30 24326 H 2223.74 -0.15794 6.47807 0
M  V30 24327 N 2217.15 -1.55503 -0.256249 0
M  V30 24328 C 2218.06 -1.92649 -1.33879 0
M  V30 24329 C 2219.08 -0.825754 -1.53158 0
M  V30 24330 O 2220.25 -1.12632 -1.66961 0
M  V30 24331 C 2217.32 -2.20548 -2.67506 0
M  V30 24332 C 2216.38 -3.44001 -2.5683 0
M  V30 24333 C 2215.61 -3.70559 -3.84085 0
M  V30 24334 O 2215.83 -2.99344 -4.8554 0
M  V30 24335 O 2214.77 -4.64091 -3.8328 0
M  V30 24336 H 2218.59 -2.84835 -1.05369 0
M  V30 24337 H 2216.18 -1.42264 -0.456212 0
M  V30 24338 H 2218.06 -2.39842 -3.46488 0
M  V30 24339 H 2216.74 -1.31542 -2.95768 0
M  V30 24340 H 2215.64 -3.30024 -1.76167 0
M  V30 24341 H 2216.98 -4.3328 -2.33516 0
M  V30 24342 N 2218.63 0.521507 -1.48721 0
M  V30 24343 C 2219.58 1.64615 -1.64331 0
M  V30 24344 C 2220.57 1.61555 -0.509558 0
M  V30 24345 O 2221.78 1.6631 -0.688554 0
M  V30 24346 H 2218.15 0.545319 -0.517814 0
M  V30 24347 H 2220.12 1.48596 -2.5877 0
M  V30 24348 C 2218.87 3.02852 -1.7081 0
M  V30 24349 H 2218.19 3.05904 -2.57415 0
M  V30 24350 H 2219.63 3.81136 -1.85773 0
M  V30 24351 C 2218.09 3.33901 -0.448537 0
M  V30 24352 O 2218.62 3.99339 0.434858 0
M  V30 24353 N 2216.83 2.88859 -0.317667 0
M  V30 24354 H 2216.38 2.35782 -1.03752 0
M  V30 24355 H 2216.33 3.10002 0.524058 0
M  V30 24356 N 2220.11 1.37452 0.771027 0
M  V30 24357 C 2221.05 1.33273 1.88433 0
M  V30 24358 C 2222.02 0.198165 1.64914 0
M  V30 24359 O 2223.21 0.387639 1.86821 0
M  V30 24360 C 2220.35 1.14627 3.25507 0
M  V30 24361 C 2219.46 2.3732 3.60975 0
M  V30 24362 C 2218.6 2.11541 4.87261 0
M  V30 24363 C 2217.64 3.30097 5.15463 0
M  V30 24364 N 2216.77 3.03864 6.32938 0
M  V30 24365 H 2221.61 2.28458 1.9134 0
M  V30 24366 H 2219.15 1.13525 0.935446 0
M  V30 24367 H 2221.11 1.01838 4.0458 0
M  V30 24368 H 2219.74 0.230893 3.21973 0
M  V30 24369 H 2218.79 2.60847 2.76881 0
M  V30 24370 H 2220.1 3.25736 3.77754 0
M  V30 24371 H 2219.26 1.95787 5.74241 0
M  V30 24372 H 2217.99 1.20465 4.72588 0
M  V30 24373 H 2217 3.46389 4.26959 0
M  V30 24374 H 2218.22 4.22025 5.32045 0
M  V30 24375 H 2216.17 2.15418 6.19622 0
M  V30 24376 H 2216.09 3.85823 6.50136 0
M  V30 24377 H 2217.36 2.91729 7.22852 0
M  V30 24378 N 2221.58 -0.997276 1.22033 0
M  V30 24379 C 2222.53 -2.10776 0.983671 0
M  V30 24380 C 2223.53 -1.69248 -0.0717267 0
M  V30 24381 O 2224.73 -1.79821 0.0803357 0
M  V30 24382 H 2221.11 -0.689181 0.300889 0
M  V30 24383 H 2223.08 -2.27912 1.9261 0
M  V30 24384 C 2221.83 -3.42941 0.57332 0
M  V30 24385 H 2221.15 -3.75335 1.37708 0
M  V30 24386 H 2222.59 -4.21636 0.447105 0
M  V30 24387 C 2221.05 -3.2919 -0.716642 0
M  V30 24388 O 2221.58 -3.60592 -1.77021 0
M  V30 24389 N 2219.79 -2.82384 -0.686117 0
M  V30 24390 H 2219.33 -2.57028 0.171552 0
M  V30 24391 H 2219.29 -2.73565 -1.5495 0
M  V30 24392 N 2223.06 -1.02932 -1.19343 0
M  V30 24393 C 2223.99 -0.631145 -2.24808 0
M  V30 24394 C 2224.97 0.360075 -1.66245 0
M  V30 24395 O 2226.16 0.242692 -1.92678 0
M  V30 24396 C 2223.29 0.0183996 -3.47295 0
M  V30 24397 C 2222.24 -0.895147 -4.18534 0
M  V30 24398 C 2221.57 -0.110686 -5.34585 0
M  V30 24399 C 2222.87 -2.20909 -4.73283 0
M  V30 24400 H 2224.56 -1.5128 -2.5837 0
M  V30 24401 H 2222.11 -0.72884 -1.24193 0
M  V30 24402 H 2224.06 0.308601 -4.20269 0
M  V30 24403 H 2222.79 0.934852 -3.12935 0
M  V30 24404 H 2221.44 -1.16955 -3.47444 0
M  V30 24405 H 2221.09 0.807815 -4.96471 0
M  V30 24406 H 2220.79 -0.71919 -5.83182 0
M  V30 24407 H 2222.32 0.172764 -6.10356 0
M  V30 24408 H 2223.73 -1.98038 -5.38009 0
M  V30 24409 H 2222.13 -2.76955 -5.32368 0
M  V30 24410 H 2223.2 -2.86343 -3.91326 0
M  V30 24411 N 2224.54 1.35356 -0.807246 0
M  V30 24412 C 2225.47 2.28525 -0.175758 0
M  V30 24413 C 2226.49 1.50311 0.625328 0
M  V30 24414 O 2227.67 1.72535 0.45758 0
M  V30 24415 C 2224.77 3.29957 0.773413 0
M  V30 24416 C 2223.95 4.37396 0.0185527 0
M  V30 24417 C 2223.01 5.18682 0.886304 0
M  V30 24418 O 2222.03 5.68201 0.337006 0
M  V30 24419 N 2223.23 5.36856 2.20829 0
M  V30 24420 H 2226 2.83358 -0.976141 0
M  V30 24421 H 2223.56 1.47713 -0.662763 0
M  V30 24422 H 2225.55 3.81229 1.35817 0
M  V30 24423 H 2224.12 2.75634 1.4746 0
M  V30 24424 H 2223.34 3.87049 -0.747417 0
M  V30 24425 H 2224.63 5.06321 -0.501666 0
M  V30 24426 H 2224.03 4.9827 2.6785 0
M  V30 24427 H 2222.59 5.91306 2.74227 0
M  V30 24428 N 2226.02 0.560807 1.47284 0
M  V30 24429 C 2226.93 -0.187913 2.33846 0
M  V30 24430 C 2227.94 -0.908267 1.48413 0
M  V30 24431 O 2229.12 -0.876357 1.81334 0
M  V30 24432 C 2226.19 -1.20245 3.2518 0
M  V30 24433 C 2225.25 -0.489133 4.26504 0
M  V30 24434 C 2224.48 -1.45533 5.13474 0
M  V30 24435 O 2224.7 -2.69041 5.02964 0
M  V30 24436 O 2223.64 -0.977859 5.93904 0
M  V30 24437 H 2227.46 0.52223 2.99176 0
M  V30 24438 H 2225.05 0.321389 1.45902 0
M  V30 24439 H 2226.93 -1.78799 3.81587 0
M  V30 24440 H 2225.6 -1.89445 2.62474 0
M  V30 24441 H 2224.51 0.137693 3.73847 0
M  V30 24442 H 2225.84 0.161485 4.91935 0
M  V30 24443 N 2227.5 -1.54768 0.297442 0
M  V30 24444 C 2228.41 -2.27065 -0.58979 0
M  V30 24445 C 2229.42 -1.30455 -1.15142 0
M  V30 24446 O 2230.6 -1.63431 -1.17696 0
M  V30 24447 C 2227.66 -2.99463 -1.74708 0
M  V30 24448 C 2226.72 -4.11603 -1.21989 0
M  V30 24449 C 2225.96 -4.80539 -2.32203 0
M  V30 24450 O 2226.18 -4.48812 -3.52028 0
M  V30 24451 O 2225.11 -5.68018 -1.99096 0
M  V30 24452 H 2228.94 -3.037 -0.00342861 0
M  V30 24453 H 2226.53 -1.49263 0.0640297 0
M  V30 24454 H 2228.41 -3.44885 -2.42141 0
M  V30 24455 H 2227.08 -2.25726 -2.32012 0
M  V30 24456 H 2225.99 -3.70588 -0.511393 0
M  V30 24457 H 2227.32 -4.87306 -0.692333 0
M  V30 24458 N 2228.97 -0.0251005 -1.5758 0
M  V30 24459 C 2230.22 0.653733 -1.90812 0
M  V30 24460 C 2230.54 1.73521 -0.902761 0
M  V30 24461 O 2231.74 2.47041 -1.12618 0
M  V30 24462 C 2230.2 1.21403 -3.38806 0
M  V30 24463 C 2229.81 0.166047 -4.47692 0
M  V30 24464 C 2231.55 1.86961 -3.81111 0
M  V30 24465 C 2229.46 0.737752 -5.8678 0
M  V30 24466 H 2228.39 0.247944 -0.712067 0
M  V30 24467 H 2231.04 -0.0897459 -1.8328 0
M  V30 24468 H 2229.42 2.00899 -3.41256 0
M  V30 24469 H 2230.59 -0.606159 -4.56796 0
M  V30 24470 H 2228.91 -0.390539 -4.14565 0
M  V30 24471 H 2231.51 2.30683 -4.82379 0
M  V30 24472 H 2231.85 2.71066 -3.15958 0
M  V30 24473 H 2232.38 1.14161 -3.81067 0
M  V30 24474 H 2229.12 -0.0650729 -6.55468 0
M  V30 24475 H 2228.64 1.47854 -5.81291 0
M  V30 24476 H 2230.32 1.22873 -6.35225 0
M  V30 24477 N 2230.45 1.55637 0.247999 0
M  V30 24478 C 2231.68 1.8181 0.997996 0
M  V30 24479 C 2232.1 0.60201 1.78206 0
M  V30 24480 O 2231.46 -0.44893 1.75654 0
M  V30 24481 C 2231.51 3.05708 1.91245 0
M  V30 24482 O 2230.61 2.82547 3.00401 0
M  V30 24483 H 2229.95 0.600184 0.284035 0
M  V30 24484 H 2232.48 2.0282 0.269321 0
M  V30 24485 H 2232.49 3.35112 2.32731 0
M  V30 24486 H 2231.17 3.93859 1.33595 0
M  V30 24487 H 2229.75 2.64307 2.63051 0
M  V30 24488 N 2231.93 -0.513613 1.48996 0
M  V30 24489 C 2233.21 -1.27493 1.48341 0
M  V30 24490 C 2233.59 -2.10111 0.204102 0
M  V30 24491 O 2232.94 -2.13515 -0.813844 0
M  V30 24492 C 2233.15 -2.14242 2.75502 0
M  V30 24493 C 2234.49 -2.73846 3.24489 0
M  V30 24494 O 2235.52 -2.24518 2.76532 0
M  V30 24495 O 2234.38 -3.63613 4.0798 0
M  V30 24496 H 2231.47 -0.576274 0.593159 0
M  V30 24497 H 2234.02 -0.52892 1.61247 0
M  V30 24498 H 2232.79 -1.53085 3.60112 0
M  V30 24499 H 2232.41 -2.96059 2.65395 0
M  V30 24500 N 2233.41 -1.37859 -0.763727 0
M  V30 24501 C 2234.34 -1.36978 -1.89101 0
M  V30 24502 C 2235.32 -0.237182 -1.68438 0
M  V30 24503 O 2236.51 -0.438747 -1.89179 0
M  V30 24504 C 2233.64 -1.18401 -3.26494 0
M  V30 24505 C 2232.59 -2.28758 -3.61737 0
M  V30 24506 C 2231.92 -1.95295 -4.97759 0
M  V30 24507 C 2233.22 -3.70978 -3.67658 0
M  V30 24508 H 2234.91 -2.3131 -1.90095 0
M  V30 24509 H 2232.46 -1.11343 -0.91317 0
M  V30 24510 H 2234.41 -1.16413 -4.05001 0
M  V30 24511 H 2233.13 -0.205272 -3.25954 0
M  V30 24512 H 2231.79 -2.29914 -2.85543 0
M  V30 24513 H 2231.44 -0.959307 -4.93767 0
M  V30 24514 H 2231.14 -2.69198 -5.22308 0
M  V30 24515 H 2232.66 -1.94908 -5.78656 0
M  V30 24516 H 2234.08 -3.71907 -4.363 0
M  V30 24517 H 2232.47 -4.44002 -4.0371 0
M  V30 24518 H 2233.54 -4.04025 -2.68127 0
M  V30 24519 N 2234.89 0.990791 -1.22561 0
M  V30 24520 C 2236.12 1.76609 -1.07782 0
M  V30 24521 C 2236.53 1.85109 0.371481 0
M  V30 24522 O 2235.89 1.32276 1.25735 0
M  V30 24523 C 2235.94 3.19819 -1.68518 0
M  V30 24524 O 2235.66 3.11775 -3.07779 0
M  V30 24525 C 2237.16 4.13788 -1.59042 0
M  V30 24526 H 2234.38 0.554576 -0.377738 0
M  V30 24527 H 2236.92 1.24548 -1.62197 0
M  V30 24528 H 2235.08 3.6894 -1.18161 0
M  V30 24529 H 2235.49 4.01852 -3.37069 0
M  V30 24530 H 2236.97 5.12017 -2.06259 0
M  V30 24531 H 2237.44 4.35776 -0.547349 0
M  V30 24532 H 2238.05 3.70564 -2.08715 0
M  V30 24533 N 2236.37 1.03564 1.18795 0
M  V30 24534 C 2237.28 0.632544 2.25912 0
M  V30 24535 C 2238.29 -0.338852 1.70669 0
M  V30 24536 O 2239.47 -0.195041 2.00453 0
M  V30 24537 C 2236.53 -0.00344848 3.467 0
M  V30 24538 C 2235.59 1.01631 4.17097 0
M  V30 24539 C 2234.83 0.410571 5.32118 0
M  V30 24540 O 2235.05 -0.784626 5.64978 0
M  V30 24541 O 2233.98 1.13677 5.91068 0
M  V30 24542 H 2237.81 1.52483 2.62646 0
M  V30 24543 H 2235.39 0.806217 1.2578 0
M  V30 24544 H 2237.28 -0.357736 4.19879 0
M  V30 24545 H 2235.95 -0.869631 3.118 0
M  V30 24546 H 2234.86 1.4223 3.46008 0
M  V30 24547 H 2236.19 1.85309 4.55984 0
M  V30 24548 N 2237.84 -1.34926 0.814413 0
M  V30 24549 C 2238.78 -2.28429 0.187874 0
M  V30 24550 C 2239.79 -1.50641 -0.617348 0
M  V30 24551 O 2240.98 -1.72776 -0.448424 0
M  V30 24552 C 2238.08 -3.30362 -0.755904 0
M  V30 24553 C 2237.25 -4.374 0.00464374 0
M  V30 24554 C 2236.31 -5.19145 -0.858785 0
M  V30 24555 O 2235.34 -5.68372 -0.306868 0
M  V30 24556 N 2236.54 -5.3802 -2.17979 0
M  V30 24557 H 2239.3 -2.82836 0.991154 0
M  V30 24558 H 2236.86 -1.47359 0.670587 0
M  V30 24559 H 2238.86 -3.81944 -1.33793 0
M  V30 24560 H 2237.43 -2.76413 -1.45996 0
M  V30 24561 H 2236.65 -3.86648 0.767933 0
M  V30 24562 H 2237.93 -5.06048 0.528511 0
M  V30 24563 H 2237.33 -4.99684 -2.65203 0
M  V30 24564 H 2235.89 -5.92752 -2.71087 0
M  V30 24565 N 2239.32 -0.56861 -1.46985 0
M  V30 24566 C 2240.25 0.160712 -2.32946 0
M  V30 24567 C 2241.23 0.897605 -1.44489 0
M  V30 24568 O 2242.42 0.875836 -1.73328 0
M  V30 24569 C 2239.55 1.18397 -3.26496 0
M  V30 24570 C 2238.5 0.56282 -4.24283 0
M  V30 24571 C 2237.83 1.69154 -5.07239 0
M  V30 24572 C 2239.13 -0.490853 -5.19988 0
M  V30 24573 H 2240.82 -0.556968 -2.94174 0
M  V30 24574 H 2238.37 -0.269295 -1.4146 0
M  V30 24575 H 2240.32 1.70244 -3.8548 0
M  V30 24576 H 2239.04 1.93174 -2.63346 0
M  V30 24577 H 2237.7 0.0655519 -3.66541 0
M  V30 24578 H 2237.35 2.42863 -4.40485 0
M  V30 24579 H 2237.05 1.28164 -5.73452 0
M  V30 24580 H 2238.58 2.21304 -5.69084 0
M  V30 24581 H 2239.99 -0.0580055 -5.73271 0
M  V30 24582 H 2238.39 -0.820269 -5.94467 0
M  V30 24583 H 2239.46 -1.38248 -4.64775 0
M  V30 24584 N 2240.8 1.54608 -0.305646 0
M  V30 24585 C 2242.05 1.99836 0.301666 0
M  V30 24586 C 2242.37 1.19553 1.54052 0
M  V30 24587 O 2241.64 0.292692 1.93701 0
M  V30 24588 H 2240.22 0.73818 0.114455 0
M  V30 24589 H 2242.88 1.90364 -0.41805 0
M  V30 24590 H 2241.98 3.06842 0.570494 0
M  V30 24591 N 2242.28 0.033457 1.57564 0
M  V30 24592 C 2243.5 -0.657861 1.9669 0
M  V30 24593 C 2243.93 -1.64618 0.910086 0
M  V30 24594 O 2243.29 -1.80844 -0.128566 0
M  V30 24595 C 2243.33 -1.33677 3.34907 0
M  V30 24596 O 2242.44 -2.45213 3.31578 0
M  V30 24597 H 2241.78 -0.172478 0.641208 0
M  V30 24598 H 2244.31 0.096598 2.04372 0
M  V30 24599 H 2244.32 -1.69256 3.71236 0
M  V30 24600 H 2242.99 -0.612339 4.11368 0
M  V30 24601 H 2241.57 -2.11714 3.06972 0
M  V30 24602 N 2243.76 -1.55766 -0.239741 0
M  V30 24603 C 2244.98 -1.82336 -0.988341 0
M  V30 24604 C 2245.41 -0.611452 -1.77884 0
M  V30 24605 O 2244.76 0.439608 -1.7589 0
M  V30 24606 C 2244.81 -3.06718 -1.89621 0
M  V30 24607 O 2243.92 -2.84136 -2.98899 0
M  V30 24608 H 2243.26 -0.601681 -0.280848 0
M  V30 24609 H 2245.79 -2.0296 -0.258562 0
M  V30 24610 H 2245.8 -3.36342 -2.30951 0
M  V30 24611 H 2244.47 -3.94562 -1.31504 0
M  V30 24612 H 2243.05 -2.65699 -2.61646 0
M  V30 24613 N 2245.23 0.505704 -1.49266 0
M  V30 24614 C 2246.48 1.25764 -1.58202 0
M  V30 24615 C 2246.8 1.93142 -0.268516 0
M  V30 24616 O 2246.07 1.82511 0.711801 0
M  V30 24617 H 2244.65 0.467181 -0.582881 0
M  V30 24618 H 2247.31 0.586492 -1.85866 0
M  V30 24619 H 2246.41 2.02407 -2.37566 0
M  V30 24620 N 2246.71 1.38262 0.756405 0
M  V30 24621 C 2247.66 1.35264 1.87009 0
M  V30 24622 C 2248.63 0.215645 1.64694 0
M  V30 24623 O 2249.81 0.407432 1.86399 0
M  V30 24624 C 2246.95 1.18073 3.24273 0
M  V30 24625 C 2246.07 2.41136 3.58438 0
M  V30 24626 C 2245.2 2.16697 4.8499 0
M  V30 24627 C 2244.24 3.35546 5.11933 0
M  V30 24628 N 2243.38 3.10561 6.2968 0
M  V30 24629 H 2248.22 2.30475 1.88906 0
M  V30 24630 H 2245.76 1.1451 0.923353 0
M  V30 24631 H 2247.71 1.06123 4.03477 0
M  V30 24632 H 2246.34 0.26503 3.2171 0
M  V30 24633 H 2245.4 2.63769 2.74099 0
M  V30 24634 H 2246.71 3.29724 3.74278 0
M  V30 24635 H 2245.86 2.01867 5.72132 0
M  V30 24636 H 2244.6 1.25471 4.71284 0
M  V30 24637 H 2243.61 3.50898 4.23262 0
M  V30 24638 H 2244.83 4.27645 5.27539 0
M  V30 24639 H 2242.78 2.21978 6.17302 0
M  V30 24640 H 2242.69 3.92697 6.46007 0
M  V30 24641 H 2243.96 2.99379 7.19717 0
M  V30 24642 N 2248.19 -0.984277 1.23084 0
M  V30 24643 C 2249.42 -1.76035 1.08717 0
M  V30 24644 C 2249.83 -1.85304 -0.361659 0
M  V30 24645 O 2249.19 -1.32941 -1.25032 0
M  V30 24646 C 2249.24 -3.1892 1.70212 0
M  V30 24647 O 2248.96 -3.10138 3.09428 0
M  V30 24648 C 2250.46 -4.12939 1.61235 0
M  V30 24649 H 2247.68 -0.552565 0.380674 0
M  V30 24650 H 2250.23 -1.23686 1.62856 0
M  V30 24651 H 2248.38 -3.68308 1.20116 0
M  V30 24652 H 2248.8 -4.00059 3.39195 0
M  V30 24653 H 2250.27 -5.10916 2.08971 0
M  V30 24654 H 2250.75 -4.3548 0.570452 0
M  V30 24655 H 2251.35 -3.69452 2.10678 0
M  V30 24656 N 2249.67 -1.04192 -1.18244 0
M  V30 24657 C 2250.92 -0.741227 -1.87587 0
M  V30 24658 C 2251.23 0.734034 -1.81304 0
M  V30 24659 O 2252.44 1.14829 -2.46021 0
M  V30 24660 C 2250.89 -1.27561 -3.36536 0
M  V30 24661 C 2250.5 -2.77959 -3.51344 0
M  V30 24662 C 2252.24 -1.0515 -4.11271 0
M  V30 24663 C 2250.15 -3.24748 -4.94259 0
M  V30 24664 H 2249.08 -0.273578 -0.702617 0
M  V30 24665 H 2251.73 -1.25792 -1.33599 0
M  V30 24666 H 2250.11 -0.686772 -3.89999 0
M  V30 24667 H 2251.29 -3.42611 -3.08147 0
M  V30 24668 H 2249.6 -2.98797 -2.90016 0
M  V30 24669 H 2252.2 -1.3762 -5.16686 0
M  V30 24670 H 2252.54 0.0112042 -4.16298 0
M  V30 24671 H 2253.08 -1.60501 -3.63984 0
M  V30 24672 H 2249.82 -4.30405 -4.94401 0
M  V30 24673 H 2249.34 -2.64833 -5.38167 0
M  V30 24674 H 2251.01 -3.18844 -5.62981 0
M  V30 24675 N 2251.15 1.34492 -0.821557 0
M  V30 24676 C 2252.1 2.26986 -0.214833 0
M  V30 24677 C 2253.08 1.48471 0.620099 0
M  V30 24678 O 2254.27 1.7051 0.474903 0
M  V30 24679 C 2251.4 3.3759 0.623506 0
M  V30 24680 C 2250.49 4.23519 -0.221978 0
M  V30 24681 N 2250.88 4.89012 -1.29232 0
M  V30 24682 C 2249.18 4.46 -0.00608762 0
M  V30 24683 C 2249.88 5.52832 -1.80975 0
M  V30 24684 N 2248.85 5.32066 -1.11385 0
M  V30 24685 H 2252.66 2.75126 -1.03359 0
M  V30 24686 H 2250.17 1.48195 -0.664226 0
M  V30 24687 H 2252.17 4.0282 1.07433 0
M  V30 24688 H 2250.83 2.91001 1.44044 0
M  V30 24689 H 2251.84 4.90062 -1.67511 0
M  V30 24690 H 2248.51 4.10172 0.778788 0
M  V30 24691 H 2249.9 6.15039 -2.70513 0
M  V30 24692 N 2252.62 0.576397 1.46681 0
M  V30 24693 C 2253.53 -0.1631 2.34032 0
M  V30 24694 C 2254.55 -0.892475 1.49368 0
M  V30 24695 O 2255.73 -0.857074 1.82253 0
M  V30 24696 C 2252.79 -1.16789 3.26437 0
M  V30 24697 C 2251.85 -0.443869 4.26999 0
M  V30 24698 C 2251.09 -1.40079 5.14989 0
M  V30 24699 O 2251.31 -2.63692 5.05789 0
M  V30 24700 O 2250.24 -0.914812 5.94907 0
M  V30 24701 H 2254.07 0.553932 2.98606 0
M  V30 24702 H 2251.65 0.336846 1.45553 0
M  V30 24703 H 2253.54 -1.74741 3.83462 0
M  V30 24704 H 2252.21 -1.8665 2.64468 0
M  V30 24705 H 2251.12 0.177336 3.73679 0
M  V30 24706 H 2252.45 0.213652 4.91736 0
M  V30 24707 N 2254.1 -1.54444 0.313841 0
M  V30 24708 C 2255.03 -2.26944 -0.549415 0
M  V30 24709 C 2256.01 -1.27374 -1.12739 0
M  V30 24710 O 2257.2 -1.56169 -1.15433 0
M  V30 24711 C 2254.33 -3.01992 -1.71517 0
M  V30 24712 C 2253.28 -4.08818 -1.26696 0
M  V30 24713 C 2252.61 -4.71652 -2.5189 0
M  V30 24714 C 2253.91 -5.2085 -0.38887 0
M  V30 24715 H 2255.6 -2.99349 0.0553188 0
M  V30 24716 H 2253.15 -1.43973 0.028046 0
M  V30 24717 H 2255.1 -3.51437 -2.32529 0
M  V30 24718 H 2253.83 -2.27187 -2.34635 0
M  V30 24719 H 2252.48 -3.60241 -0.679833 0
M  V30 24720 H 2252.13 -3.93473 -3.13349 0
M  V30 24721 H 2251.83 -5.43806 -2.22595 0
M  V30 24722 H 2253.36 -5.23867 -3.13681 0
M  V30 24723 H 2254.77 -5.66112 -0.905007 0
M  V30 24724 H 2253.17 -5.99802 -0.189135 0
M  V30 24725 H 2254.24 -4.81385 0.582784 0
M  V30 24726 N 2255.58 -0.0418125 -1.57545 0
M  V30 24727 C 2256.49 0.951175 -2.14452 0
M  V30 24728 C 2257.51 1.34823 -1.09995 0
M  V30 24729 O 2258.68 1.42705 -1.42117 0
M  V30 24730 C 2255.75 2.21079 -2.67067 0
M  V30 24731 C 2254.81 1.87297 -3.86288 0
M  V30 24732 C 2254.04 3.07254 -4.36384 0
M  V30 24733 O 2254.26 4.20325 -3.85594 0
M  V30 24734 O 2253.2 2.88812 -5.28082 0
M  V30 24735 H 2257.02 0.497235 -2.99602 0
M  V30 24736 H 2254.61 0.179541 -1.48317 0
M  V30 24737 H 2256.49 2.95001 -3.0092 0
M  V30 24738 H 2255.17 2.65629 -1.84994 0
M  V30 24739 H 2254.07 1.10721 -3.5734 0
M  V30 24740 H 2255.41 1.47554 -4.69562 0
M  V30 24741 N 2257.06 1.55891 0.231477 0
M  V30 24742 C 2258.01 1.916 1.28678 0
M  V30 24743 C 2258.98 0.772 1.47069 0
M  V30 24744 O 2260.16 1.02702 1.60801 0
M  V30 24745 C 2257.3 2.22949 2.63416 0
M  V30 24746 C 2256.41 3.50232 2.52906 0
M  V30 24747 C 2255.55 3.71076 3.801 0
M  V30 24748 C 2254.59 4.91908 3.6427 0
M  V30 24749 N 2253.72 5.09193 4.83391 0
M  V30 24750 H 2258.56 2.8159 0.975255 0
M  V30 24751 H 2256.1 1.3938 0.470274 0
M  V30 24752 H 2258.06 2.39132 3.41865 0
M  V30 24753 H 2256.69 1.36144 2.92685 0
M  V30 24754 H 2255.74 3.42296 1.65944 0
M  V30 24755 H 2257.05 4.38831 2.37126 0
M  V30 24756 H 2256.21 3.87303 4.66992 0
M  V30 24757 H 2254.95 2.8074 3.98794 0
M  V30 24758 H 2253.95 4.75642 2.75762 0
M  V30 24759 H 2255.18 5.8372 3.47056 0
M  V30 24760 H 2253.12 4.21797 5.02418 0
M  V30 24761 H 2253.04 5.91907 4.703 0
M  V30 24762 H 2254.31 5.29845 5.71738 0
M  V30 24763 N 2258.54 -0.497781 1.49532 0
M  V30 24764 C 2259.78 -1.25355 1.59417 0
M  V30 24765 C 2260.12 -1.9215 0.281455 0
M  V30 24766 O 2259.39 -1.80873 -0.715217 0
M  V30 24767 C 2259.67 -2.31805 2.7557 0
M  V30 24768 C 2259.53 -1.69491 4.16645 0
M  V30 24769 C 2260.85 -3.33341 2.87353 0
M  V30 24770 H 2257.96 -0.454398 0.580252 0
M  V30 24771 H 2260.61 -0.55123 1.81828 0
M  V30 24772 H 2258.76 -2.91707 2.56592 0
M  V30 24773 H 2260.43 -1.13391 4.47147 0
M  V30 24774 H 2258.67 -0.998904 4.22143 0
M  V30 24775 H 2259.34 -2.46717 4.93796 0
M  V30 24776 H 2261.82 -2.83433 3.04639 0
M  V30 24777 H 2260.69 -4.05181 3.70296 0
M  V30 24778 H 2260.96 -3.95861 1.96841 0
M  V30 24779 N 2260.01 -1.38661 -0.749062 0
M  V30 24780 C 2261.43 -1.19957 -1.05273 0
M  V30 24781 C 2261.63 -0.0513754 -2.01434 0
M  V30 24782 O 2260.69 0.601427 -2.45233 0
M  V30 24783 C 2262 -2.52786 -1.62848 0
M  V30 24784 C 2263.55 -2.59509 -1.74998 0
M  V30 24785 C 2264.02 -3.92525 -2.35984 0
M  V30 24786 N 2265.51 -3.94089 -2.43409 0
M  V30 24787 C 2266.25 -4.93775 -2.91502 0
M  V30 24788 N 2265.74 -6.03859 -3.39597 0
M  V30 24789 N 2267.54 -4.81163 -2.90584 0
M  V30 24790 H 2259.69 -2.1211 -0.111028 0
M  V30 24791 H 2261.95 -0.941374 -0.111884 0
M  V30 24792 H 2261.66 -3.37285 -0.996581 0
M  V30 24793 H 2261.53 -2.71505 -2.61849 0
M  V30 24794 H 2263.92 -1.75403 -2.37314 0
M  V30 24795 H 2264 -2.44653 -0.746887 0
M  V30 24796 H 2263.64 -4.77056 -1.743 0
M  V30 24797 H 2263.57 -4.04694 -3.36943 0
M  V30 24798 H 2266.06 -3.1458 -2.09399 0
M  V30 24799 H 2266.38 -6.75849 -3.74763 0
M  V30 24800 H 2264.72 -6.07472 -3.37642 0
M  V30 24801 H 2267.91 -3.94271 -2.52325 0
M  V30 24802 H 2268.09 -5.59002 -3.27752 0
M  V30 24803 N 2261.49 0.977736 -1.23605 0
M  V30 24804 C 2262.44 2.07059 -1.01957 0
M  V30 24805 C 2263.41 1.65977 0.0638405 0
M  V30 24806 O 2264.6 1.90593 -0.0887959 0
M  V30 24807 C 2261.74 3.3949 -0.619717 0
M  V30 24808 C 2260.85 3.93826 -1.77554 0
M  V30 24809 C 2259.98 5.14481 -1.32221 0
M  V30 24810 C 2259.02 5.60989 -2.44862 0
M  V30 24811 N 2258.16 6.72872 -2.00468 0
M  V30 24812 H 2263 2.24909 -1.95499 0
M  V30 24813 H 2260.54 1.10245 -0.973881 0
M  V30 24814 H 2262.49 4.15565 -0.368971 0
M  V30 24815 H 2261.12 3.21595 0.278695 0
M  V30 24816 H 2260.18 3.14482 -2.14022 0
M  V30 24817 H 2261.49 4.2431 -2.62227 0
M  V30 24818 H 2260.64 5.97897 -1.02975 0
M  V30 24819 H 2259.38 4.85657 -0.445893 0
M  V30 24820 H 2258.39 4.76153 -2.74879 0
M  V30 24821 H 2259.61 5.91832 -3.33035 0
M  V30 24822 H 2257.56 6.45802 -1.1522 0
M  V30 24823 H 2257.47 7.02754 -2.78699 0
M  V30 24824 H 2258.74 7.59755 -1.74334 0
M  V30 24825 N 2262.97 1.04818 1.1769 0
M  V30 24826 C 2263.9 0.603861 2.21102 0
M  V30 24827 C 2264.92 -0.330432 1.59411 0
M  V30 24828 O 2266.11 -0.123758 1.7807 0
M  V30 24829 C 2263.21 -0.136838 3.38624 0
M  V30 24830 C 2262.38 0.807213 4.29887 0
M  V30 24831 C 2261.44 0.108452 5.26088 0
M  V30 24832 O 2260.46 0.741331 5.64352 0
M  V30 24833 N 2261.67 -1.15548 5.68884 0
M  V30 24834 H 2264.43 1.49334 2.59845 0
M  V30 24835 H 2261.99 0.92961 1.32551 0
M  V30 24836 H 2263.98 -0.614331 4.0001 0
M  V30 24837 H 2262.55 -0.927941 2.9851 0
M  V30 24838 H 2261.77 1.46441 3.6599 0
M  V30 24839 H 2263.06 1.44816 4.87756 0
M  V30 24840 H 2262.46 -1.69006 5.39864 0
M  V30 24841 H 2261.02 -1.57711 6.32432 0
M  V30 24842 N 2264.45 -1.34055 0.828678 0
M  V30 24843 C 2265.38 -2.3194 0.269483 0
M  V30 24844 C 2266.36 -1.58507 -0.617219 0
M  V30 24845 O 2267.55 -1.86457 -0.542898 0
M  V30 24846 C 2264.68 -3.42678 -0.564733 0
M  V30 24847 C 2263.63 -4.27407 0.225316 0
M  V30 24848 C 2262.96 -5.29666 -0.732007 0
M  V30 24849 C 2264.26 -5.02151 1.43672 0
M  V30 24850 H 2265.95 -2.78958 1.08733 0
M  V30 24851 H 2263.5 -1.34116 0.524307 0
M  V30 24852 H 2265.45 -4.10175 -0.966161 0
M  V30 24853 H 2264.17 -2.94323 -1.41569 0
M  V30 24854 H 2262.83 -3.6152 0.608181 0
M  V30 24855 H 2262.48 -4.77571 -1.57908 0
M  V30 24856 H 2262.18 -5.87233 -0.207566 0
M  V30 24857 H 2263.7 -6.00031 -1.13117 0
M  V30 24858 H 2265.12 -5.62471 1.109 0
M  V30 24859 H 2263.51 -5.6932 1.89721 0
M  V30 24860 H 2264.58 -4.31513 2.21189 0
M  V30 24861 N 2265.93 -0.584167 -1.46374 0
M  V30 24862 C 2266.84 0.150686 -2.34116 0
M  V30 24863 C 2267.85 0.884541 -1.4984 0
M  V30 24864 O 2269.03 0.847397 -1.82705 0
M  V30 24865 C 2266.09 1.15056 -3.27052 0
M  V30 24866 C 2265.16 0.421218 -4.27229 0
M  V30 24867 C 2264.39 1.37346 -5.15725 0
M  V30 24868 O 2264.61 2.61006 -5.07181 0
M  V30 24869 O 2263.55 0.88325 -5.95384 0
M  V30 24870 H 2267.37 -0.56976 -2.98308 0
M  V30 24871 H 2264.96 -0.34456 -1.45372 0
M  V30 24872 H 2266.84 1.72705 -3.84384 0
M  V30 24873 H 2265.51 1.85245 -2.65454 0
M  V30 24874 H 2264.42 -0.197151 -3.7358 0
M  V30 24875 H 2265.75 -0.239727 -4.91616 0
M  V30 24876 N 2267.41 1.54275 -0.322027 0
M  V30 24877 C 2268.37 2.22942 0.531935 0
M  V30 24878 C 2269.37 1.22236 1.04475 0
M  V30 24879 O 2270.56 1.46826 0.937426 0
M  V30 24880 C 2267.69 2.93227 1.73869 0
M  V30 24881 H 2268.88 2.99822 -0.0683139 0
M  V30 24882 H 2266.44 1.56129 -0.0730918 0
M  V30 24883 H 2267.17 2.2048 2.37822 0
M  V30 24884 H 2266.96 3.67073 1.3784 0
M  V30 24885 H 2268.45 3.45549 2.3449 0
M  V30 24886 N 2268.88 0.0501669 1.5752 0
M  V30 24887 C 2269.79 -0.939789 2.14954 0
M  V30 24888 C 2270.81 -1.34237 1.10708 0
M  V30 24889 O 2271.99 -1.4195 1.42871 0
M  V30 24890 C 2269.05 -2.1966 2.68236 0
M  V30 24891 C 2268.11 -1.85246 3.87276 0
M  V30 24892 C 2267.34 -3.04935 4.38007 0
M  V30 24893 O 2267.57 -4.18274 3.87818 0
M  V30 24894 O 2266.5 -2.86008 5.29607 0
M  V30 24895 H 2270.33 -0.481339 2.99861 0
M  V30 24896 H 2267.91 -0.171673 1.4841 0
M  V30 24897 H 2269.79 -2.93401 3.0248 0
M  V30 24898 H 2268.47 -2.64645 1.864 0
M  V30 24899 H 2267.38 -1.08824 3.57922 0
M  V30 24900 H 2268.71 -1.45061 4.70338 0
M  V30 24901 N 2270.36 -1.56011 -0.223207 0
M  V30 24902 C 2271.31 -1.9228 -1.2766 0
M  V30 24903 C 2272.28 -0.779789 -1.46658 0
M  V30 24904 O 2273.46 -1.03554 -1.60254 0
M  V30 24905 C 2270.6 -2.24343 -2.6223 0
M  V30 24906 C 2269.72 -3.51569 -2.51045 0
M  V30 24907 C 2268.85 -3.73087 -3.78126 0
M  V30 24908 C 2267.89 -4.93833 -3.61657 0
M  V30 24909 N 2267.03 -5.11749 -4.80684 0
M  V30 24910 H 2271.87 -2.82103 -0.960308 0
M  V30 24911 H 2269.4 -1.39628 -0.462876 0
M  V30 24912 H 2271.36 -2.40942 -3.40592 0
M  V30 24913 H 2269.99 -1.37695 -2.91959 0
M  V30 24914 H 2269.04 -3.43172 -1.64126 0
M  V30 24915 H 2270.36 -4.40083 -2.34795 0
M  V30 24916 H 2269.51 -3.89774 -4.64931 0
M  V30 24917 H 2268.25 -2.82851 -3.97299 0
M  V30 24918 H 2267.25 -4.77098 -2.73236 0
M  V30 24919 H 2268.48 -5.85552 -3.43956 0
M  V30 24920 H 2266.43 -4.24455 -5.00174 0
M  V30 24921 H 2266.34 -5.94393 -4.67155 0
M  V30 24922 H 2267.61 -5.3287 -5.6892 0
M  V30 24923 N 2271.84 0.489844 -1.49794 0
M  V30 24924 C 2272.77 1.60821 -1.61901 0
M  V30 24925 C 2273.75 1.55729 -0.467678 0
M  V30 24926 O 2274.93 1.75624 -0.684713 0
M  V30 24927 C 2272.06 2.99363 -1.58428 0
M  V30 24928 C 2271.11 3.22677 -2.78894 0
M  V30 24929 S 2271.94 3.04594 -4.40435 0
M  V30 24930 C 2273.1 4.45512 -4.39624 0
M  V30 24931 H 2273.33 1.50308 -2.56505 0
M  V30 24932 H 2270.86 0.675824 -1.38824 0
M  V30 24933 H 2272.82 3.79245 -1.57109 0
M  V30 24934 H 2271.48 3.07281 -0.65092 0
M  V30 24935 H 2270.67 4.23843 -2.72715 0
M  V30 24936 H 2270.28 2.50536 -2.77683 0
M  V30 24937 H 2272.57 5.37807 -4.12031 0
M  V30 24938 H 2273.51 4.56739 -5.41105 0
M  V30 24939 H 2273.92 4.26714 -3.69561 0
M  V30 24940 N 2273.32 1.39056 0.741698 0
M  V30 24941 C 2274.23 1.395 1.88619 0
M  V30 24942 C 2275.24 0.290608 1.71556 0
M  V30 24943 O 2276.42 0.530988 1.94274 0
M  V30 24944 C 2273.48 1.23042 3.24132 0
M  V30 24945 C 2272.55 2.43393 3.53636 0
M  V30 24946 C 2271.78 2.27711 4.82683 0
M  V30 24947 O 2272 1.27706 5.5592 0
M  V30 24948 O 2270.94 3.16554 5.11935 0
M  V30 24949 H 2274.76 2.35959 1.91199 0
M  V30 24950 H 2272.35 1.20101 0.888604 0
M  V30 24951 H 2274.23 1.15971 4.05128 0
M  V30 24952 H 2272.9 0.296747 3.22337 0
M  V30 24953 H 2271.81 2.5604 2.72753 0
M  V30 24954 H 2273.14 3.35431 3.60204 0
M  V30 24955 N 2274.8 -0.971167 1.24121 0
M  V30 24956 C 2275.73 -2.08302 1.05511 0
M  V30 24957 C 2276.71 -1.70072 -0.0308565 0
M  V30 24958 O 2277.89 -1.93726 0.135556 0
M  V30 24959 C 2275.02 -3.41059 0.655425 0
M  V30 24960 C 2273.98 -3.93231 1.68978 0
M  V30 24961 C 2273.3 -5.22291 1.14525 0
M  V30 24962 C 2274.6 -4.2146 3.08494 0
M  V30 24963 H 2276.3 -2.24129 1.98511 0
M  V30 24964 H 2273.84 -1.07702 0.95584 0
M  V30 24965 H 2275.79 -4.18275 0.512243 0
M  V30 24966 H 2274.52 -3.25123 -0.310263 0
M  V30 24967 H 2273.18 -3.18168 1.82111 0
M  V30 24968 H 2272.83 -5.02712 0.170277 0
M  V30 24969 H 2272.53 -5.58165 1.83645 0
M  V30 24970 H 2274.05 -6.0212 1.01412 0
M  V30 24971 H 2275.46 -4.89393 2.98609 0
M  V30 24972 H 2273.86 -4.68555 3.74935 0
M  V30 24973 H 2274.93 -3.2837 3.56793 0
M  V30 24974 N 2276.27 -1.05441 -1.17133 0
M  V30 24975 C 2277.21 -0.615578 -2.20779 0
M  V30 24976 C 2278.22 0.321973 -1.59584 0
M  V30 24977 O 2279.41 0.114313 -1.78134 0
M  V30 24978 C 2276.51 0.118878 -3.38691 0
M  V30 24979 C 2275.68 -0.829999 -4.29453 0
M  V30 24980 C 2274.74 -0.13635 -5.26023 0
M  V30 24981 O 2273.77 -0.771249 -5.63951 0
M  V30 24982 N 2274.97 1.1253 -5.69489 0
M  V30 24983 H 2277.73 -1.5071 -2.59049 0
M  V30 24984 H 2275.29 -0.936627 -1.32056 0
M  V30 24985 H 2277.29 0.593108 -4.0033 0
M  V30 24986 H 2275.86 0.912097 -2.98998 0
M  V30 24987 H 2275.08 -1.4838 -3.65208 0
M  V30 24988 H 2276.36 -1.474 -4.86981 0
M  V30 24989 H 2275.76 1.6614 -5.40753 0
M  V30 24990 H 2274.32 1.54355 -6.3326 0
M  V30 24991 N 2277.75 1.33613 -0.835776 0
M  V30 24992 C 2278.98 2.02626 -0.442425 0
M  V30 24993 C 2279.4 1.62481 0.947707 0
M  V30 24994 O 2278.76 0.815854 1.61906 0
M  V30 24995 C 2278.81 3.5611 -0.567279 0
M  V30 24996 O 2277.91 4.1038 0.407726 0
M  V30 24997 H 2277.25 0.639055 -0.180289 0
M  V30 24998 H 2279.78 1.70581 -1.12975 0
M  V30 24999 H 2279.79 4.05535 -0.44778 0
M  V30 25000 H 2278.47 3.84674 -1.58109 0
M  V30 25001 H 2277.05 3.72087 0.246042 0
M  V30 25002 N 2279.23 0.591922 1.46062 0
M  V30 25003 C 2280.19 -0.125933 2.28854 0
M  V30 25004 C 2281.19 -0.810083 1.38904 0
M  V30 25005 O 2282.38 -0.660632 1.61187 0
M  V30 25006 C 2279.52 -1.18804 3.19528 0
M  V30 25007 H 2280.71 0.601768 2.93801 0
M  V30 25008 H 2278.26 0.350281 1.52324 0
M  V30 25009 H 2279 -1.94702 2.59348 0
M  V30 25010 H 2278.78 -0.701868 3.85767 0
M  V30 25011 H 2280.27 -1.69125 3.8182 0
M  V30 25012 N 2280.71 -1.54102 0.330204 0
M  V30 25013 C 2281.64 -2.27514 -0.525313 0
M  V30 25014 C 2282.62 -1.28562 -1.11381 0
M  V30 25015 O 2283.8 -1.57385 -1.1377 0
M  V30 25016 C 2280.93 -3.03794 -1.68305 0
M  V30 25017 C 2279.89 -4.10139 -1.22353 0
M  V30 25018 C 2279.21 -4.74297 -2.46873 0
M  V30 25019 C 2280.51 -5.21234 -0.333605 0
M  V30 25020 H 2282.21 -2.99273 0.0870656 0
M  V30 25021 H 2279.75 -1.43935 0.0433146 0
M  V30 25022 H 2281.71 -3.53884 -2.28788 0
M  V30 25023 H 2280.43 -2.29663 -2.32212 0
M  V30 25024 H 2279.09 -3.60942 -0.641586 0
M  V30 25025 H 2278.74 -3.96775 -3.09159 0
M  V30 25026 H 2278.44 -5.46136 -2.16815 0
M  V30 25027 H 2279.96 -5.27164 -3.08107 0
M  V30 25028 H 2281.38 -5.6704 -0.844913 0
M  V30 25029 H 2279.77 -5.99969 -0.125507 0
M  V30 25030 H 2280.84 -4.8074 0.633808 0
M  V30 25031 N 2282.19 -0.0585199 -1.57491 0
M  V30 25032 C 2283.1 0.928376 -2.15449 0
M  V30 25033 C 2284.11 1.33648 -1.11419 0
M  V30 25034 O 2285.29 1.4119 -1.43622 0
M  V30 25035 C 2282.35 2.18234 -2.69397 0
M  V30 25036 C 2281.41 1.8319 -3.88253 0
M  V30 25037 C 2280.65 3.02608 -4.39618 0
M  V30 25038 O 2280.87 4.16212 -3.90031 0
M  V30 25039 O 2279.8 2.83195 -5.31116 0
M  V30 25040 H 2283.63 0.46543 -3.00112 0
M  V30 25041 H 2281.22 0.1638 -1.48499 0
M  V30 25042 H 2283.1 2.91792 -3.04032 0
M  V30 25043 H 2281.77 2.63652 -1.87801 0
M  V30 25044 H 2280.68 1.06924 -3.58494 0
M  V30 25045 H 2282.01 1.42565 -4.71101 0
M  V30 25046 N 2283.66 1.56128 0.21493 0
M  V30 25047 C 2284.57 1.96131 1.28724 0
M  V30 25048 C 2285.59 0.866071 1.50915 0
M  V30 25049 O 2286.77 1.17019 1.63916 0
M  V30 25050 C 2283.83 2.27562 2.61565 0
M  V30 25051 C 2282.89 3.5069 2.47619 0
M  V30 25052 C 2282.13 3.80612 3.74125 0
M  V30 25053 O 2282.35 3.12112 4.77433 0
M  V30 25054 O 2281.28 4.74089 3.70841 0
M  V30 25055 H 2285.11 2.87529 0.977805 0
M  V30 25056 H 2282.69 1.43424 0.418333 0
M  V30 25057 H 2284.58 2.48944 3.40007 0
M  V30 25058 H 2283.25 1.39337 2.92176 0
M  V30 25059 H 2282.16 3.34579 1.67355 0
M  V30 25060 H 2283.49 4.39319 2.21946 0
M  V30 25061 N 2285.14 -0.481893 1.50052 0
M  V30 25062 C 2286.11 -1.56357 1.67586 0
M  V30 25063 C 2287.11 -1.51213 0.54692 0
M  V30 25064 O 2288.3 -1.54025 0.813752 0
M  V30 25065 C 2285.43 -2.96 1.69105 0
M  V30 25066 H 2286.62 -1.42131 2.64081 0
M  V30 25067 H 2284.17 -0.707509 1.3937 0
M  V30 25068 H 2284.91 -3.15682 0.742644 0
M  V30 25069 H 2284.69 -3.01141 2.5111 0
M  V30 25070 H 2286.18 -3.74552 1.84662 0
M  V30 25071 N 2286.62 -1.39448 -0.734313 0
M  V30 25072 C 2287.53 -1.40498 -1.87876 0
M  V30 25073 C 2288.55 -0.299702 -1.71399 0
M  V30 25074 O 2289.72 -0.541283 -1.9399 0
M  V30 25075 C 2286.79 -1.2476 -3.23475 0
M  V30 25076 C 2285.85 -2.45265 -3.5234 0
M  V30 25077 C 2285.08 -2.30268 -4.81469 0
M  V30 25078 O 2285.3 -1.30652 -5.55235 0
M  V30 25079 O 2284.24 -3.19265 -5.10249 0
M  V30 25080 H 2288.06 -2.3697 -1.89945 0
M  V30 25081 H 2285.65 -1.2057 -0.882222 0
M  V30 25082 H 2287.53 -1.18118 -4.04507 0
M  V30 25083 H 2286.21 -0.313838 -3.22175 0
M  V30 25084 H 2285.11 -2.57483 -2.71392 0
M  V30 25085 H 2286.45 -3.37337 -3.5842 0
M  V30 25086 N 2288.1 0.964571 -1.24635 0
M  V30 25087 C 2289.06 2.04123 -1.04243 0
M  V30 25088 C 2290.06 1.608 0.00134736 0
M  V30 25089 O 2291.25 1.7254 -0.239913 0
M  V30 25090 C 2288.38 3.35919 -0.580647 0
M  V30 25091 H 2289.58 2.23645 -1.99807 0
M  V30 25092 H 2287.13 1.14026 -1.06901 0
M  V30 25093 H 2287.86 3.22089 0.378044 0
M  V30 25094 H 2287.65 3.68708 -1.33404 0
M  V30 25095 H 2289.14 4.15069 -0.459107 0
M  V30 25096 N 2289.58 1.0606 1.16572 0
M  V30 25097 C 2290.8 0.796596 1.91492 0
M  V30 25098 C 2291.23 -0.642837 1.76774 0
M  V30 25099 O 2290.58 -1.44766 1.09144 0
M  V30 25100 C 2290.63 1.19309 3.40291 0
M  V30 25101 O 2289.74 0.330466 4.11074 0
M  V30 25102 H 2289.08 0.291337 0.596673 0
M  V30 25103 H 2291.61 1.41578 1.47706 0
M  V30 25104 H 2291.62 1.16363 3.91055 0
M  V30 25105 H 2290.29 2.24159 3.50322 0
M  V30 25106 H 2288.87 0.42129 3.70513 0
M  V30 25107 N 2291.06 -1.33168 0.84285 0
M  V30 25108 C 2291.99 -2.31641 0.294069 0
M  V30 25109 C 2292.97 -1.59153 -0.600373 0
M  V30 25110 O 2294.15 -1.87022 -0.523091 0
M  V30 25111 C 2291.28 -3.43257 -0.528355 0
M  V30 25112 C 2290.24 -4.27143 0.270635 0
M  V30 25113 C 2289.56 -5.30412 -0.675788 0
M  V30 25114 C 2290.86 -5.00599 1.4899 0
M  V30 25115 H 2292.56 -2.77789 1.11686 0
M  V30 25116 H 2290.1 -1.33552 0.538502 0
M  V30 25117 H 2292.05 -4.11176 -0.922602 0
M  V30 25118 H 2290.78 -2.95808 -1.38439 0
M  V30 25119 H 2289.44 -3.60855 0.646491 0
M  V30 25120 H 2289.09 -4.79219 -1.52834 0
M  V30 25121 H 2288.79 -5.8742 -0.145271 0
M  V30 25122 H 2290.31 -6.01197 -1.06746 0
M  V30 25123 H 2291.72 -5.61264 1.16859 0
M  V30 25124 H 2290.12 -5.67276 1.95749 0
M  V30 25125 H 2291.19 -4.29143 2.25753 0
M  V30 25126 N 2292.53 -0.599659 -1.45746 0
M  V30 25127 C 2293.44 0.125847 -2.34262 0
M  V30 25128 C 2294.46 0.868598 -1.50769 0
M  V30 25129 O 2295.64 0.827971 -1.83594 0
M  V30 25130 C 2292.7 1.11581 -3.28254 0
M  V30 25131 C 2291.76 0.375881 -4.27651 0
M  V30 25132 C 2290.99 1.31868 -5.17152 0
M  V30 25133 O 2291.22 2.55612 -5.0992 0
M  V30 25134 O 2290.15 0.820052 -5.96287 0
M  V30 25135 H 2293.98 -0.601368 -2.97687 0
M  V30 25136 H 2291.56 -0.35996 -1.44999 0
M  V30 25137 H 2293.44 1.68619 -3.86194 0
M  V30 25138 H 2292.12 1.82419 -2.67404 0
M  V30 25139 H 2291.03 -0.236763 -3.7335 0
M  V30 25140 H 2292.36 -0.291856 -4.91334 0
M  V30 25141 N 2294.01 1.53925 -0.338371 0
M  V30 25142 C 2294.96 2.21594 0.536673 0
M  V30 25143 C 2295.95 1.20154 1.07013 0
M  V30 25144 O 2297.14 1.45722 1.00469 0
M  V30 25145 C 2294.27 2.98837 1.68971 0
M  V30 25146 C 2293.35 4.07629 1.17045 0
M  V30 25147 N 2293.74 5.0443 0.371996 0
M  V30 25148 C 2292.04 4.21846 1.44782 0
M  V30 25149 C 2292.74 5.81629 0.0908148 0
M  V30 25150 N 2291.72 5.39317 0.681036 0
M  V30 25151 H 2295.52 2.9379 -0.0804815 0
M  V30 25152 H 2293.03 1.61752 -0.144972 0
M  V30 25153 H 2295.03 3.45812 2.32851 0
M  V30 25154 H 2293.69 2.28166 2.3102 0
M  V30 25155 H 2294.7 5.17898 0.0135307 0
M  V30 25156 H 2291.38 3.62395 2.07307 0
M  V30 25157 H 2292.77 6.69621 -0.552935 0
M  V30 25158 N 2295.49 0.0668712 1.57458 0
M  V30 25159 C 2296.4 -0.916937 2.15938 0
M  V30 25160 C 2297.42 -1.33056 1.12126 0
M  V30 25161 O 2298.59 -1.40426 1.44369 0
M  V30 25162 C 2295.66 -2.16802 2.70551 0
M  V30 25163 C 2294.72 -1.81128 3.89219 0
M  V30 25164 C 2293.95 -3.00272 4.41217 0
M  V30 25165 O 2294.17 -4.14137 3.92233 0
M  V30 25166 O 2293.11 -2.80375 5.3261 0
M  V30 25167 H 2296.93 -0.449508 3.00355 0
M  V30 25168 H 2294.52 -0.155923 1.48584 0
M  V30 25169 H 2296.4 -2.90176 3.05575 0
M  V30 25170 H 2295.08 -2.62653 1.89196 0
M  V30 25171 H 2293.98 -1.05022 3.59056 0
M  V30 25172 H 2295.32 -1.40065 4.7185 0
M  V30 25173 N 2296.97 -1.56239 -0.206647 0
M  V30 25174 C 2297.88 -1.96811 -1.27682 0
M  V30 25175 C 2298.89 -0.874062 -1.50453 0
M  V30 25176 O 2300.07 -1.17887 -1.63293 0
M  V30 25177 C 2297.13 -2.28946 -2.60354 0
M  V30 25178 C 2296.2 -3.51998 -2.45756 0
M  V30 25179 C 2295.43 -3.82591 -3.72102 0
M  V30 25180 O 2295.65 -3.1464 -4.75771 0
M  V30 25181 O 2294.59 -4.76049 -3.68321 0
M  V30 25182 H 2298.41 -2.88043 -0.962543 0
M  V30 25183 H 2296 -1.43643 -0.410721 0
M  V30 25184 H 2297.88 -2.50743 -3.38682 0
M  V30 25185 H 2296.55 -1.40885 -2.91433 0
M  V30 25186 H 2295.46 -3.35462 -1.65578 0
M  V30 25187 H 2296.79 -4.40489 -2.19613 0
M  V30 25188 N 2298.45 0.473929 -1.50305 0
M  V30 25189 C 2299.69 1.2238 -1.60834 0
M  V30 25190 C 2300.01 1.92529 -0.309424 0
M  V30 25191 O 2299.28 1.8398 0.672928 0
M  V30 25192 H 2297.86 0.454712 -0.59266 0
M  V30 25193 H 2300.53 0.546935 -1.87069 0
M  V30 25194 H 2299.62 1.97323 -2.41806 0
M  V30 25195 N 2299.92 1.39835 0.726907 0
M  V30 25196 C 2300.87 1.392 1.84097 0
M  V30 25197 C 2301.84 0.250531 1.642 0
M  V30 25198 O 2303.03 0.446879 1.85493 0
M  V30 25199 C 2300.17 1.24925 3.21695 0
M  V30 25200 C 2299.28 2.48684 3.53242 0
M  V30 25201 C 2298.41 2.26936 4.80285 0
M  V30 25202 C 2297.45 3.46329 5.047 0
M  V30 25203 N 2296.59 3.23847 6.22951 0
M  V30 25204 H 2301.43 2.3443 1.83974 0
M  V30 25205 H 2298.97 1.16443 0.898856 0
M  V30 25206 H 2300.92 1.14658 4.01135 0
M  V30 25207 H 2299.55 0.33321 3.21076 0
M  V30 25208 H 2298.61 2.69524 2.68442 0
M  V30 25209 H 2299.92 3.37589 3.67199 0
M  V30 25210 H 2299.07 2.13957 5.67721 0
M  V30 25211 H 2297.81 1.35439 4.68516 0
M  V30 25212 H 2296.82 3.59798 4.15723 0
M  V30 25213 H 2298.04 4.38738 5.18349 0
M  V30 25214 H 2295.99 2.35022 6.12455 0
M  V30 25215 H 2295.9 4.06311 6.37532 0
M  V30 25216 H 2297.17 3.14578 7.13205 0
M  V30 25217 N 2301.4 -0.957948 1.25144 0
M  V30 25218 C 2302.65 -1.69652 1.09093 0
M  V30 25219 C 2302.96 -1.92097 -0.368514 0
M  V30 25220 O 2304.17 -2.63619 -0.649409 0
M  V30 25221 C 2302.63 -3.05411 1.904 0
M  V30 25222 C 2302.23 -2.90773 3.40815 0
M  V30 25223 C 2303.98 -3.83073 1.82908 0
M  V30 25224 C 2301.88 -4.21902 4.14431 0
M  V30 25225 H 2300.81 -0.636228 0.404636 0
M  V30 25226 H 2303.47 -1.06669 1.49311 0
M  V30 25227 H 2301.85 -3.69278 1.43002 0
M  V30 25228 H 2303.02 -2.35858 3.95863 0
M  V30 25229 H 2301.34 -2.26568 3.49365 0
M  V30 25230 H 2303.93 -4.80191 2.35204 0
M  V30 25231 H 2304.28 -4.08613 0.796296 0
M  V30 25232 H 2304.81 -3.2595 2.28038 0
M  V30 25233 H 2301.55 -4.01552 5.18109 0
M  V30 25234 H 2301.07 -4.76595 3.64167 0
M  V30 25235 H 2302.75 -4.90464 4.21965 0
M  V30 25236 N 2302.88 -1.06677 -1.16008 0
M  V30 25237 C 2303.81 -0.702346 -2.22687 0
M  V30 25238 C 2304.79 0.307003 -1.67307 0
M  V30 25239 O 2305.98 0.181271 -1.93352 0
M  V30 25240 C 2303.11 -0.092099 -3.47178 0
M  V30 25241 C 2302.06 -1.02785 -4.15475 0
M  V30 25242 C 2301.39 -0.280704 -5.33963 0
M  V30 25243 C 2302.69 -2.35854 -4.66015 0
M  V30 25244 H 2304.38 -1.59423 -2.53426 0
M  V30 25245 H 2301.93 -0.767982 -1.21811 0
M  V30 25246 H 2303.88 0.17474 -4.21038 0
M  V30 25247 H 2302.6 0.834821 -3.1575 0
M  V30 25248 H 2301.26 -1.2795 -3.43547 0
M  V30 25249 H 2300.91 0.649458 -4.9879 0
M  V30 25250 H 2300.61 -0.90436 -5.80599 0
M  V30 25251 H 2302.13 -0.0215033 -6.10596 0
M  V30 25252 H 2303.55 -2.15054 -5.31436 0
M  V30 25253 H 2301.94 -2.93752 -5.23288 0
M  V30 25254 H 2303.01 -2.98648 -3.82018 0
M  V30 25255 N 2304.36 1.32719 -0.8499 0
M  V30 25256 C 2305.77 1.50218 -0.539128 0
M  V30 25257 C 2305.97 1.7869 0.931239 0
M  V30 25258 O 2305.03 1.85366 1.71452 0
M  V30 25259 C 2306.34 2.64952 -1.42201 0
M  V30 25260 C 2307.89 2.78837 -1.42194 0
M  V30 25261 C 2308.37 3.96644 -2.28992 0
M  V30 25262 N 2309.86 4.03898 -2.26761 0
M  V30 25263 C 2310.59 4.94276 -2.90653 0
M  V30 25264 N 2310.09 5.89693 -3.63639 0
M  V30 25265 N 2311.88 4.8736 -2.80066 0
M  V30 25266 H 2304.03 1.12503 -1.80158 0
M  V30 25267 H 2306.29 0.554071 -0.769226 0
M  V30 25268 H 2306 2.50627 -2.46737 0
M  V30 25269 H 2305.87 3.60622 -1.10597 0
M  V30 25270 H 2308.26 2.92588 -0.384242 0
M  V30 25271 H 2308.34 1.83895 -1.7781 0
M  V30 25272 H 2307.99 3.83652 -3.32826 0
M  V30 25273 H 2307.92 4.90853 -1.9071 0
M  V30 25274 H 2310.41 3.35617 -1.73694 0
M  V30 25275 H 2310.72 6.55342 -4.09569 0
M  V30 25276 H 2309.07 5.89735 -3.67747 0
M  V30 25277 H 2312.26 4.11785 -2.226 0
M  V30 25278 H 2312.43 5.57593 -3.30142 0
M  V30 25279 N 2305.84 0.60738 1.45426 0
M  V30 25280 C 2306.8 -0.101653 2.28974 0
M  V30 25281 C 2307.8 -0.795304 1.39755 0
M  V30 25282 O 2308.99 -0.643499 1.61879 0
M  V30 25283 C 2306.12 -1.15409 3.2077 0
M  V30 25284 H 2307.31 0.632896 2.93146 0
M  V30 25285 H 2304.87 0.366417 1.51944 0
M  V30 25286 H 2305.6 -1.91941 2.61399 0
M  V30 25287 H 2305.39 -0.660912 3.8649 0
M  V30 25288 H 2306.88 -1.65066 3.83592 0
M  V30 25289 N 2307.31 -1.53743 0.34653 0
M  V30 25290 C 2308.25 -2.22668 -0.543277 0
M  V30 25291 C 2309.26 -1.23428 -1.06157 0
M  V30 25292 O 2310.45 -1.49766 -0.971208 0
M  V30 25293 C 2307.55 -2.89572 -1.76071 0
M  V30 25294 C 2306.72 -4.15153 -1.3772 0
M  V30 25295 C 2305.78 -4.6544 -2.45463 0
M  V30 25296 O 2304.81 -5.2958 -2.08646 0
M  V30 25297 N 2306.01 -4.41623 -3.76762 0
M  V30 25298 H 2308.77 -2.99663 0.047023 0
M  V30 25299 H 2306.33 -1.60997 0.170795 0
M  V30 25300 H 2308.33 -3.20129 -2.47588 0
M  V30 25301 H 2306.9 -2.16146 -2.25831 0
M  V30 25302 H 2306.12 -3.91109 -0.492678 0
M  V30 25303 H 2307.4 -4.96834 -1.09699 0
M  V30 25304 H 2306.8 -3.90332 -4.0946 0
M  V30 25305 H 2305.36 -4.76777 -4.4444 0
M  V30 25306 N 2308.79 -0.0752207 -1.5742 0
M  V30 25307 C 2309.72 0.888286 -2.15944 0
M  V30 25308 C 2310.7 1.30804 -1.08739 0
M  V30 25309 O 2311.89 1.37848 -1.3679 0
M  V30 25310 C 2309.02 2.15465 -2.72382 0
M  V30 25311 C 2307.97 1.87418 -3.84784 0
M  V30 25312 C 2307.3 3.20714 -4.2784 0
M  V30 25313 C 2308.6 1.17675 -5.08871 0
M  V30 25314 H 2310.29 0.400747 -2.96706 0
M  V30 25315 H 2307.84 0.191317 -1.42723 0
M  V30 25316 H 2309.79 2.83289 -3.1197 0
M  V30 25317 H 2308.52 2.66467 -1.88846 0
M  V30 25318 H 2307.17 1.21998 -3.45705 0
M  V30 25319 H 2306.82 3.69564 -3.41221 0
M  V30 25320 H 2306.52 3.02738 -5.03611 0
M  V30 25321 H 2308.05 3.8973 -4.70046 0
M  V30 25322 H 2309.46 1.75574 -5.45753 0
M  V30 25323 H 2307.86 1.09946 -5.89942 0
M  V30 25324 H 2308.93 0.156368 -4.84648 0
M  V30 25325 N 2310.27 1.56347 0.198358 0
M  V30 25326 C 2311.18 1.97485 1.26637 0
M  V30 25327 C 2312.2 0.882028 1.49988 0
M  V30 25328 O 2313.37 1.18751 1.62666 0
M  V30 25329 C 2310.44 2.30324 2.59137 0
M  V30 25330 C 2309.5 3.53296 2.43886 0
M  V30 25331 C 2308.73 3.84559 3.70067 0
M  V30 25332 O 2308.95 3.17159 4.74096 0
M  V30 25333 O 2307.89 4.77996 3.65792 0
M  V30 25334 H 2311.71 2.88549 0.947253 0
M  V30 25335 H 2309.3 1.43859 0.403098 0
M  V30 25336 H 2311.18 2.52536 3.37348 0
M  V30 25337 H 2309.86 1.42428 2.90682 0
M  V30 25338 H 2308.76 3.36335 1.63797 0
M  V30 25339 H 2310.1 4.41648 2.17274 0
M  V30 25340 N 2311.75 -0.465951 1.50554 0
M  V30 25341 C 2313 -1.21765 1.61801 0
M  V30 25342 C 2313.32 -1.91837 0.320729 0
M  V30 25343 O 2312.58 -1.82993 -0.693692 0
M  V30 25344 C 2312.88 -2.28088 2.75156 0
M  V30 25345 C 2312.54 -1.75232 4.15457 0
M  V30 25346 C 2311.21 -1.60538 4.53631 0
M  V30 25347 C 2313.56 -1.36075 5.03123 0
M  V30 25348 C 2310.89 -1.05118 5.77206 0
M  V30 25349 C 2313.24 -0.820946 6.27251 0
M  V30 25350 C 2311.9 -0.660678 6.64222 0
M  V30 25351 H 2311.17 -0.445571 0.59207 0
M  V30 25352 H 2313.82 -0.512895 1.84504 0
M  V30 25353 H 2312.12 -3.04491 2.46561 0
M  V30 25354 H 2313.82 -2.86018 2.8106 0
M  V30 25355 H 2310.41 -1.87637 3.85344 0
M  V30 25356 H 2314.59 -1.46259 4.74259 0
M  V30 25357 H 2309.85 -0.914513 6.04522 0
M  V30 25358 H 2314.02 -0.508895 6.94538 0
M  V30 25359 H 2311.65 -0.229092 7.59855 0
M  V30 25360 N 2313.23 -1.40218 -0.719481 0
M  V30 25361 C 2314.17 -1.40342 -1.85491 0
M  V30 25362 C 2315.17 -0.284445 -1.66995 0
M  V30 25363 O 2316.37 -0.455282 -1.74147 0
M  V30 25364 H 2312.75 -0.438597 -0.610849 0
M  V30 25365 H 2314.72 -2.36084 -1.82502 0
M  V30 25366 C 2313.47 -1.27907 -3.23319 0
M  V30 25367 H 2312.79 -2.13286 -3.38155 0
M  V30 25368 H 2314.23 -1.32052 -4.02912 0
M  V30 25369 C 2312.69 0.0110763 -3.36898 0
M  V30 25370 O 2313.22 0.97547 -3.89676 0
M  V30 25371 N 2311.43 0.0792882 -2.90492 0
M  V30 25372 H 2310.97 -0.706227 -2.4773 0
M  V30 25373 H 2310.93 0.941985 -2.99957 0
M  V30 25374 N 2314.7 0.951297 -1.25651 0
M  V30 25375 C 2315.64 2.05195 -1.02116 0
M  V30 25376 C 2316.65 1.62793 0.0150285 0
M  V30 25377 O 2317.84 1.7709 -0.223906 0
M  V30 25378 C 2314.94 3.34849 -0.522419 0
M  V30 25379 C 2314.11 4.06073 -1.62553 0
M  V30 25380 C 2313.17 5.13999 -1.12659 0
M  V30 25381 O 2312.2 5.39263 -1.82165 0
M  V30 25382 N 2313.4 5.80492 0.030368 0
M  V30 25383 H 2316.16 2.25954 -1.96888 0
M  V30 25384 H 2313.72 1.12008 -1.16901 0
M  V30 25385 H 2315.72 4.0433 -0.173032 0
M  V30 25386 H 2314.29 3.10838 0.331455 0
M  V30 25387 H 2313.51 3.30645 -2.14634 0
M  V30 25388 H 2314.79 4.50414 -2.36652 0
M  V30 25389 H 2314.19 5.6239 0.61107 0
M  V30 25390 H 2312.75 6.5101 0.320761 0
M  V30 25391 N 2316.18 1.07291 1.1544 0
M  V30 25392 C 2317.43 0.790702 1.85555 0
M  V30 25393 C 2317.74 -0.685706 1.83187 0
M  V30 25394 O 2318.95 -1.08266 2.48979 0
M  V30 25395 C 2317.41 1.36439 3.33035 0
M  V30 25396 C 2317.01 2.87176 3.43851 0
M  V30 25397 C 2318.76 1.16017 4.08338 0
M  V30 25398 C 2316.67 3.37739 4.85476 0
M  V30 25399 H 2315.6 0.29211 0.695117 0
M  V30 25400 H 2318.25 1.2929 1.30217 0
M  V30 25401 H 2316.63 0.789932 3.88041 0
M  V30 25402 H 2317.8 3.5066 2.98955 0
M  V30 25403 H 2316.12 3.06381 2.81992 0
M  V30 25404 H 2318.71 1.51271 5.12856 0
M  V30 25405 H 2319.06 0.0991739 4.16182 0
M  V30 25406 H 2319.59 1.70095 3.596 0
M  V30 25407 H 2316.33 4.43361 4.82816 0
M  V30 25408 H 2315.85 2.79008 5.30956 0
M  V30 25409 H 2317.53 3.33658 5.5433 0
M  V30 25410 N 2317.66 -1.32267 0.856927 0
M  V30 25411 C 2318.61 -2.28826 0.301212 0
M  V30 25412 C 2319.58 -1.55151 -0.593077 0
M  V30 25413 O 2320.76 -1.83363 -0.527504 0
M  V30 25414 C 2317.9 -3.41422 -0.502463 0
M  V30 25415 C 2317.02 -4.29974 0.417873 0
M  V30 25416 C 2316.15 -5.29702 -0.398655 0
M  V30 25417 C 2315.19 -6.09896 0.518935 0
M  V30 25418 N 2314.33 -7.01616 -0.260551 0
M  V30 25419 H 2319.17 -2.75749 1.12988 0
M  V30 25420 H 2316.7 -1.35666 0.568606 0
M  V30 25421 H 2318.66 -4.05428 -0.98407 0
M  V30 25422 H 2317.29 -2.95644 -1.29594 0
M  V30 25423 H 2316.34 -3.66529 1.01788 0
M  V30 25424 H 2317.66 -4.86017 1.122 0
M  V30 25425 H 2316.81 -5.99321 -0.943329 0
M  V30 25426 H 2315.55 -4.74282 -1.13614 0
M  V30 25427 H 2314.55 -5.39179 1.07547 0
M  V30 25428 H 2315.78 -6.67402 1.25506 0
M  V30 25429 H 2313.72 -6.48622 -0.981084 0
M  V30 25430 H 2313.64 -7.55022 0.384496 0
M  V30 25431 H 2314.91 -7.75518 -0.786878 0
M  V30 25432 N 2319.14 -0.615084 -1.45102 0
M  V30 25433 C 2320.1 0.0895082 -2.29025 0
M  V30 25434 C 2321.1 0.787882 -1.40175 0
M  V30 25435 O 2322.29 0.634905 -1.62218 0
M  V30 25436 C 2319.42 1.13706 -3.21378 0
M  V30 25437 H 2320.62 -0.648433 -2.92806 0
M  V30 25438 H 2318.17 -0.37447 -1.51748 0
M  V30 25439 H 2318.9 1.90552 -2.62413 0
M  V30 25440 H 2318.69 0.640407 -3.86835 0
M  V30 25441 H 2320.18 1.6303 -3.84462 0
M  V30 25442 N 2320.62 1.53557 -0.354678 0
M  V30 25443 C 2321.53 2.29098 0.50511 0
M  V30 25444 C 2322.54 1.34638 1.10221 0
M  V30 25445 O 2323.72 1.67686 1.1155 0
M  V30 25446 C 2320.78 3.0574 1.63474 0
M  V30 25447 C 2319.85 4.15847 1.06629 0
M  V30 25448 C 2319.08 4.88826 2.14208 0
M  V30 25449 O 2319.3 4.61568 3.35129 0
M  V30 25450 O 2318.24 5.75016 1.77877 0
M  V30 25451 H 2322.06 3.03503 -0.10929 0
M  V30 25452 H 2319.65 1.48922 -0.119384 0
M  V30 25453 H 2321.53 3.53634 2.29174 0
M  V30 25454 H 2320.2 2.34182 2.23474 0
M  V30 25455 H 2319.11 3.72231 0.373499 0
M  V30 25456 H 2320.44 4.8954 0.510995 0
M  V30 25457 N 2322.1 0.083568 1.57378 0
M  V30 25458 C 2323.34 -0.582464 1.93107 0
M  V30 25459 C 2323.66 -1.70051 0.96654 0
M  V30 25460 O 2324.86 -2.42691 1.2171 0
M  V30 25461 C 2323.32 -1.08745 3.43078 0
M  V30 25462 C 2322.93 0.000225151 4.48 0
M  V30 25463 C 2324.67 -1.72687 3.87788 0
M  V30 25464 C 2322.58 -0.519464 5.89114 0
M  V30 25465 H 2321.51 -0.221345 0.720779 0
M  V30 25466 H 2324.16 0.157707 1.82821 0
M  V30 25467 H 2322.54 -1.88095 3.48477 0
M  V30 25468 H 2323.72 0.775279 4.54231 0
M  V30 25469 H 2322.03 0.544133 4.12829 0
M  V30 25470 H 2324.63 -2.12621 4.90608 0
M  V30 25471 H 2324.97 -2.59152 3.258 0
M  V30 25472 H 2325.5 -0.999389 3.85042 0
M  V30 25473 H 2322.24 0.308301 6.54775 0
M  V30 25474 H 2321.76 -1.26178 5.86378 0
M  V30 25475 H 2323.44 -0.992125 6.39348 0
M  V30 25476 N 2323.57 -1.5645 -0.190064 0
M  V30 25477 C 2324.48 -1.98154 -1.25587 0
M  V30 25478 C 2325.5 -0.88997 -1.49518 0
M  V30 25479 O 2326.68 -1.19612 -1.62034 0
M  V30 25480 C 2323.74 -2.31695 -2.57912 0
M  V30 25481 C 2322.8 -3.54585 -2.42009 0
M  V30 25482 C 2322.03 -3.86516 -3.68023 0
M  V30 25483 O 2322.26 -3.19668 -4.72407 0
M  V30 25484 O 2321.19 -4.79929 -3.63251 0
M  V30 25485 H 2325.02 -2.89048 -0.931938 0
M  V30 25486 H 2322.6 -1.44071 -0.395463 0
M  V30 25487 H 2324.48 -2.54321 -3.36004 0
M  V30 25488 H 2323.16 -1.43968 -2.89922 0
M  V30 25489 H 2322.07 -3.37199 -1.62011 0
M  V30 25490 H 2323.4 -4.42794 -2.14929 0
M  V30 25491 N 2325.05 0.45796 -1.50799 0
M  V30 25492 C 2326.47 0.792795 -1.38517 0
M  V30 25493 C 2326.67 1.96378 -0.451443 0
M  V30 25494 O 2325.72 2.52298 0.101076 0
M  V30 25495 C 2327.04 1.09253 -2.80151 0
M  V30 25496 C 2328.58 1.1982 -2.89158 0
M  V30 25497 C 2329.06 1.53098 -4.31654 0
M  V30 25498 N 2330.55 1.60064 -4.34665 0
M  V30 25499 C 2331.29 1.87345 -5.41931 0
M  V30 25500 N 2330.78 2.12556 -6.59387 0
M  V30 25501 N 2332.57 1.88956 -5.29388 0
M  V30 25502 H 2324.73 -0.313548 -2.10073 0
M  V30 25503 H 2326.99 -0.0778028 -0.944802 0
M  V30 25504 H 2326.69 0.305022 -3.50375 0
M  V30 25505 H 2326.57 2.02544 -3.18207 0
M  V30 25506 H 2328.96 1.97636 -2.19144 0
M  V30 25507 H 2329.04 0.244776 -2.54626 0
M  V30 25508 H 2328.68 0.758178 -5.02209 0
M  V30 25509 H 2328.61 2.49613 -4.63682 0
M  V30 25510 H 2331.1 1.42567 -3.49976 0
M  V30 25511 H 2331.41 2.32684 -7.36938 0
M  V30 25512 H 2329.76 2.09921 -6.62539 0
M  V30 25513 H 2332.95 1.68765 -4.36619 0
M  V30 25514 H 2333.12 2.0988 -6.1307 0
M  V30 25515 N 2326.53 1.40598 0.712035 0
M  V30 25516 C 2327.48 1.41145 1.82611 0
M  V30 25517 C 2328.45 0.267932 1.63925 0
M  V30 25518 O 2329.63 0.466527 1.85009 0
M  V30 25519 C 2326.77 1.2833 3.20352 0
M  V30 25520 C 2325.88 2.52417 3.50585 0
M  V30 25521 C 2325.02 2.32017 4.77851 0
M  V30 25522 C 2324.06 3.51663 5.00999 0
M  V30 25523 N 2323.2 3.30436 6.19481 0
M  V30 25524 H 2328.04 2.36368 1.81478 0
M  V30 25525 H 2325.57 1.1739 0.886455 0
M  V30 25526 H 2327.53 1.18906 3.99897 0
M  V30 25527 H 2326.16 0.367245 3.20704 0
M  V30 25528 H 2325.21 2.72356 2.65568 0
M  V30 25529 H 2326.52 3.41464 3.63598 0
M  V30 25530 H 2325.68 2.19966 5.6542 0
M  V30 25531 H 2324.42 1.40401 4.67054 0
M  V30 25532 H 2323.42 3.64187 4.11884 0
M  V30 25533 H 2324.65 4.44211 5.13666 0
M  V30 25534 H 2322.59 2.41505 6.09927 0
M  V30 25535 H 2322.51 4.1305 6.33187 0
M  V30 25536 H 2323.78 3.22125 7.09828 0
M  V30 25537 N 2328.01 -0.94462 1.26153 0
M  V30 25538 C 2328.94 -2.06017 1.09906 0
M  V30 25539 C 2329.92 -1.70099 0.00522528 0
M  V30 25540 O 2331.1 -1.93395 0.176617 0
M  V30 25541 C 2328.23 -3.39592 0.727622 0
M  V30 25542 C 2327.19 -3.89558 1.77281 0
M  V30 25543 C 2326.51 -5.19744 1.25578 0
M  V30 25544 C 2327.81 -4.14822 3.17365 0
M  V30 25545 H 2329.51 -2.19868 2.03221 0
M  V30 25546 H 2327.05 -1.0565 0.97847 0
M  V30 25547 H 2329.01 -4.17094 0.60085 0
M  V30 25548 H 2327.73 -3.25708 -0.241229 0
M  V30 25549 H 2326.39 -3.14234 1.88819 0
M  V30 25550 H 2326.04 -5.02237 0.276872 0
M  V30 25551 H 2325.74 -5.54144 1.95443 0
M  V30 25552 H 2327.26 -5.99833 1.14161 0
M  V30 25553 H 2328.68 -4.82949 3.08923 0
M  V30 25554 H 2327.07 -4.60497 3.84789 0
M  V30 25555 H 2328.14 -3.20728 3.63678 0
M  V30 25556 N 2329.49 -1.07901 -1.1487 0
M  V30 25557 C 2330.45 -0.708199 -2.17984 0
M  V30 25558 C 2331.45 0.254393 -1.58775 0
M  V30 25559 O 2332.64 0.0346144 -1.74166 0
M  V30 25560 C 2329.77 -0.0447528 -3.40871 0
M  V30 25561 H 2330.96 -1.6212 -2.52303 0
M  V30 25562 H 2328.52 -0.876241 -1.29428 0
M  V30 25563 H 2329.25 0.880227 -3.12126 0
M  V30 25564 H 2329.04 -0.737159 -3.85108 0
M  V30 25565 H 2330.53 0.199836 -4.17122 0
M  V30 25566 N 2330.96 1.31811 -0.863929 0
M  V30 25567 C 2331.87 2.32428 -0.318502 0
M  V30 25568 C 2332.89 1.64452 0.568467 0
M  V30 25569 O 2334.07 1.9592 0.466625 0
M  V30 25570 C 2331.13 3.43413 0.476295 0
M  V30 25571 C 2330.19 4.27061 -0.437915 0
M  V30 25572 C 2329.42 5.32746 0.319045 0
M  V30 25573 O 2329.65 5.48996 1.54789 0
M  V30 25574 O 2328.58 6.01049 -0.319967 0
M  V30 25575 H 2332.41 2.80989 -1.15234 0
M  V30 25576 H 2329.99 1.356 -0.627126 0
M  V30 25577 H 2331.87 4.11076 0.927084 0
M  V30 25578 H 2330.55 2.97025 1.28678 0
M  V30 25579 H 2329.46 3.62174 -0.937077 0
M  V30 25580 H 2330.79 4.76998 -1.21383 0
M  V30 25581 N 2332.44 0.62277 1.44773 0
M  V30 25582 C 2333.39 -0.0871274 2.30635 0
M  V30 25583 C 2334.36 -0.845072 1.42996 0
M  V30 25584 O 2335.54 -0.827782 1.71908 0
M  V30 25585 C 2332.68 -1.06839 3.28146 0
M  V30 25586 C 2331.8 -0.309733 4.30888 0
M  V30 25587 C 2330.93 -1.28206 5.15496 0
M  V30 25588 C 2329.97 -0.51209 6.09954 0
M  V30 25589 N 2329.11 -1.43446 6.8729 0
M  V30 25590 H 2333.95 0.651025 2.90802 0
M  V30 25591 H 2331.48 0.332835 1.43285 0
M  V30 25592 H 2333.44 -1.65059 3.8316 0
M  V30 25593 H 2332.07 -1.77377 2.69699 0
M  V30 25594 H 2331.12 0.388247 3.78414 0
M  V30 25595 H 2332.44 0.290341 4.97954 0
M  V30 25596 H 2331.59 -1.93586 5.74986 0
M  V30 25597 H 2330.33 -1.91607 4.48484 0
M  V30 25598 H 2329.33 0.155248 5.49581 0
M  V30 25599 H 2330.56 0.117077 6.78999 0
M  V30 25600 H 2328.51 -2.05583 6.22954 0
M  V30 25601 H 2328.42 -0.888203 7.50764 0
M  V30 25602 H 2329.69 -2.07736 7.51309 0
M  V30 25603 N 2333.92 -1.53367 0.362817 0
M  V30 25604 C 2335.2 -1.93527 -0.283987 0
M  V30 25605 C 2335.58 -1.29611 -1.66626 0
M  V30 25606 O 2334.92 -0.454169 -2.23941 0
M  V30 25607 C 2335.13 -3.47369 -0.336967 0
M  V30 25608 C 2336.48 -4.20639 -0.578634 0
M  V30 25609 O 2337.51 -3.53735 -0.41829 0
M  V30 25610 O 2336.37 -5.39194 -0.890645 0
M  V30 25611 H 2333.46 -0.809396 -0.169729 0
M  V30 25612 H 2336.01 -1.64537 0.415399 0
M  V30 25613 H 2334.78 -3.86158 0.632285 0
M  V30 25614 H 2334.4 -3.82584 -1.08236 0
M  V30 25615 N 2335.4 -0.091913 -1.57332 0
M  V30 25616 C 2336.31 0.882467 -2.1737 0
M  V30 25617 C 2337.32 1.31255 -1.14228 0
M  V30 25618 O 2338.5 1.38112 -1.46585 0
M  V30 25619 C 2335.57 2.12471 -2.73965 0
M  V30 25620 C 2334.63 1.74913 -3.92051 0
M  V30 25621 C 2333.86 2.93215 -4.45938 0
M  V30 25622 O 2334.08 4.07845 -3.98771 0
M  V30 25623 O 2333.02 2.71866 -5.37003 0
M  V30 25624 H 2336.84 0.401667 -3.01032 0
M  V30 25625 H 2334.43 0.132264 -1.48813 0
M  V30 25626 H 2336.31 2.85278 -3.10152 0
M  V30 25627 H 2334.98 2.59609 -1.93351 0
M  V30 25628 H 2333.89 0.992961 -3.60681 0
M  V30 25629 H 2335.22 1.3254 -4.74019 0
M  V30 25630 N 2336.88 1.56548 0.181765 0
M  V30 25631 C 2337.79 1.98817 1.24535 0
M  V30 25632 C 2338.8 0.897887 1.49044 0
M  V30 25633 O 2339.98 1.2047 1.61397 0
M  V30 25634 C 2337.04 2.33059 2.56679 0
M  V30 25635 C 2336.1 3.55863 2.40125 0
M  V30 25636 C 2335.34 3.88463 3.65968 0
M  V30 25637 O 2335.56 3.22169 4.70705 0
M  V30 25638 O 2334.49 4.81849 3.60701 0
M  V30 25639 H 2338.32 2.89538 0.916596 0
M  V30 25640 H 2335.91 1.44279 0.387817 0
M  V30 25641 H 2337.79 2.561 3.3465 0
M  V30 25642 H 2336.46 1.45503 2.89155 0
M  V30 25643 H 2335.37 3.38054 1.6022 0
M  V30 25644 H 2336.7 4.43928 2.12578 0
M  V30 25645 N 2338.35 -0.449957 1.5104 0
M  V30 25646 C 2339.29 -1.56472 1.66108 0
M  V30 25647 C 2340.27 -1.54434 0.508803 0
M  V30 25648 O 2341.45 -1.73747 0.731036 0
M  V30 25649 C 2338.58 -2.95058 1.66309 0
M  V30 25650 C 2337.62 -3.15169 2.87351 0
M  V30 25651 S 2338.46 -2.9281 4.48356 0
M  V30 25652 C 2339.61 -4.337 4.51282 0
M  V30 25653 H 2339.84 -1.43454 2.604 0
M  V30 25654 H 2337.38 -0.63878 1.40567 0
M  V30 25655 H 2339.34 -3.74946 1.67109 0
M  V30 25656 H 2338 -3.05448 0.732162 0
M  V30 25657 H 2337.19 -4.16463 2.83857 0
M  V30 25658 H 2336.79 -2.43086 2.84228 0
M  V30 25659 H 2339.08 -5.26694 4.26146 0
M  V30 25660 H 2340.03 -4.42232 5.53025 0
M  V30 25661 H 2340.43 -4.16766 3.80745 0
M  V30 25662 N 2339.83 -1.40974 -0.704569 0
M  V30 25663 C 2340.74 -1.44452 -1.84854 0
M  V30 25664 C 2341.76 -0.335991 -1.70725 0
M  V30 25665 O 2342.93 -0.58231 -1.92798 0
M  V30 25666 C 2340 -1.31593 -3.20756 0
M  V30 25667 C 2339.06 -2.52683 -3.47058 0
M  V30 25668 C 2338.29 -2.40429 -4.76476 0
M  V30 25669 O 2338.52 -1.424 -5.52339 0
M  V30 25670 O 2337.45 -3.30016 -5.03362 0
M  V30 25671 H 2341.28 -2.40945 -1.84876 0
M  V30 25672 H 2338.86 -1.22415 -0.856449 0
M  V30 25673 H 2340.74 -1.26672 -4.01911 0
M  V30 25674 H 2339.42 -0.382105 -3.21437 0
M  V30 25675 H 2338.33 -2.63182 -2.65869 0
M  V30 25676 H 2339.66 -3.44864 -3.51184 0
M  V30 25677 N 2341.31 0.937917 -1.26653 0
M  V30 25678 C 2342.24 2.041 -1.04287 0
M  V30 25679 C 2343.26 1.628 -0.00223876 0
M  V30 25680 O 2344.44 1.76843 -0.242676 0
M  V30 25681 C 2341.54 3.34276 -0.557905 0
M  V30 25682 C 2340.72 4.04326 -1.66851 0
M  V30 25683 C 2339.78 5.12775 -1.18104 0
M  V30 25684 O 2338.8 5.373 -1.87874 0
M  V30 25685 N 2340 5.80492 -0.0312026 0
M  V30 25686 H 2342.77 2.23853 -1.99274 0
M  V30 25687 H 2340.33 1.10762 -1.18082 0
M  V30 25688 H 2342.32 4.04124 -0.215907 0
M  V30 25689 H 2340.89 3.11172 0.298468 0
M  V30 25690 H 2340.11 3.2835 -2.18129 0
M  V30 25691 H 2341.4 4.47879 -2.41416 0
M  V30 25692 H 2340.8 5.63006 0.551387 0
M  V30 25693 H 2339.36 6.51314 0.251694 0
M  V30 25694 N 2342.79 1.08509 1.14296 0
M  V30 25695 C 2343.75 0.71975 2.17606 0
M  V30 25696 C 2344.75 -0.245969 1.58908 0
M  V30 25697 O 2345.94 -0.0253775 1.74182 0
M  V30 25698 C 2343.07 0.0628294 3.40842 0
M  V30 25699 H 2344.27 1.63456 2.5144 0
M  V30 25700 H 2341.82 0.883093 1.28962 0
M  V30 25701 H 2342.55 -0.863661 3.12588 0
M  V30 25702 H 2342.34 0.757572 3.84712 0
M  V30 25703 H 2343.83 -0.177712 4.17222 0
M  V30 25704 N 2344.27 -1.31351 0.870907 0
M  V30 25705 C 2345.21 -2.28494 0.325465 0
M  V30 25706 C 2346.18 -1.55771 -0.576588 0
M  V30 25707 O 2347.37 -1.83912 -0.508026 0
M  V30 25708 C 2344.51 -3.41936 -0.466223 0
M  V30 25709 C 2343.62 -4.29507 0.463454 0
M  V30 25710 C 2342.76 -5.30095 -0.342451 0
M  V30 25711 C 2341.8 -6.09312 0.583593 0
M  V30 25712 N 2340.93 -7.01853 -0.18612 0
M  V30 25713 H 2345.77 -2.74536 1.15906 0
M  V30 25714 H 2343.31 -1.35055 0.582963 0
M  V30 25715 H 2345.27 -4.06449 -0.941013 0
M  V30 25716 H 2343.9 -2.97002 -1.26451 0
M  V30 25717 H 2342.95 -3.65429 1.05669 0
M  V30 25718 H 2344.26 -4.848 1.17349 0
M  V30 25719 H 2343.42 -6.00288 -0.87971 0
M  V30 25720 H 2342.15 -4.7546 -1.08577 0
M  V30 25721 H 2341.16 -5.38008 1.1326 0
M  V30 25722 H 2342.38 -6.66033 1.32578 0
M  V30 25723 H 2340.33 -6.49626 -0.912234 0
M  V30 25724 H 2340.25 -7.54571 0.464555 0
M  V30 25725 H 2341.52 -7.76309 -0.70458 0
M  V30 25726 N 2345.74 -0.630439 -1.44441 0
M  V30 25727 C 2347.16 -0.296001 -1.56831 0
M  V30 25728 C 2347.36 1.20085 -1.61808 0
M  V30 25729 O 2346.42 1.98487 -1.56074 0
M  V30 25730 C 2347.73 -0.987314 -2.84029 0
M  V30 25731 C 2349.28 -0.965392 -2.9774 0
M  V30 25732 C 2349.75 -1.63716 -4.2774 0
M  V30 25733 N 2351.24 -1.60371 -4.34552 0
M  V30 25734 C 2351.98 -2.09244 -5.33858 0
M  V30 25735 N 2351.47 -2.66304 -6.39573 0
M  V30 25736 N 2353.27 -1.99877 -5.25363 0
M  V30 25737 H 2345.42 -1.60207 -1.39454 0
M  V30 25738 H 2347.68 -0.672443 -0.668225 0
M  V30 25739 H 2347.39 -2.0422 -2.86334 0
M  V30 25740 H 2347.26 -0.524654 -3.73533 0
M  V30 25741 H 2349.65 0.0810121 -2.94989 0
M  V30 25742 H 2349.73 -1.46654 -2.09586 0
M  V30 25743 H 2349.37 -2.68301 -4.31251 0
M  V30 25744 H 2349.3 -1.11085 -5.1475 0
M  V30 25745 H 2351.79 -1.18711 -3.5877 0
M  V30 25746 H 2352.11 -3.0133 -7.11632 0
M  V30 25747 H 2350.45 -2.70354 -6.40261 0
M  V30 25748 H 2353.64 -1.55021 -4.41686 0
M  V30 25749 H 2353.82 -2.38275 -6.02602 0
M  V30 25750 N 2347.22 1.53172 -0.370945 0
M  V30 25751 C 2348.17 2.27422 0.488061 0
M  V30 25752 C 2349.16 1.30606 1.07882 0
M  V30 25753 O 2350.37 1.48214 1.0214 0
M  V30 25754 H 2346.75 0.731085 0.176121 0
M  V30 25755 H 2348.72 2.97971 -0.159867 0
M  V30 25756 C 2347.47 3.08022 1.613 0
M  V30 25757 H 2346.79 3.82366 1.16773 0
M  V30 25758 H 2348.23 3.63144 2.18866 0
M  V30 25759 C 2346.69 2.19193 2.55844 0
M  V30 25760 O 2347.22 1.80633 3.58796 0
M  V30 25761 N 2345.42 1.83719 2.25157 0
M  V30 25762 H 2344.97 2.15275 1.41472 0
M  V30 25763 H 2344.93 1.24572 2.88668 0
M  V30 25764 N 2348.7 0.100255 1.57281 0
M  V30 25765 C 2349.65 -0.867553 2.1085 0
M  V30 25766 C 2350.63 -1.24047 1.02475 0
M  V30 25767 O 2351.83 -1.21469 1.28741 0
M  V30 25768 C 2348.96 -2.12469 2.69651 0
M  V30 25769 C 2348.04 -1.77698 3.85077 0
M  V30 25770 N 2348.43 -1.13509 4.92899 0
M  V30 25771 C 2346.73 -2.07275 3.94909 0
M  V30 25772 C 2347.43 -0.974634 5.73477 0
M  V30 25773 N 2346.41 -1.49361 5.22678 0
M  V30 25774 H 2350.21 -0.36742 2.91594 0
M  V30 25775 H 2347.72 -0.102801 1.62074 0
M  V30 25776 H 2349.72 -2.82752 3.06361 0
M  V30 25777 H 2348.38 -2.63043 1.90364 0
M  V30 25778 H 2349.39 -0.801291 5.11664 0
M  V30 25779 H 2346.07 -2.60028 3.26637 0
M  V30 25780 H 2347.46 -0.472246 6.70238 0
M  V30 25781 N 2350.18 -1.56643 -0.17346 0
M  V30 25782 C 2351.11 -1.99273 -1.21706 0
M  V30 25783 C 2352.09 -0.867985 -1.46287 0
M  V30 25784 O 2353.28 -1.13391 -1.57658 0
M  V30 25785 C 2350.41 -2.35079 -2.55647 0
M  V30 25786 C 2349.36 -3.50494 -2.45639 0
M  V30 25787 C 2348.69 -3.72035 -3.84049 0
M  V30 25788 C 2349.99 -4.84011 -1.96293 0
M  V30 25789 H 2351.68 -2.86702 -0.8627 0
M  V30 25790 H 2349.23 -1.37934 -0.413547 0
M  V30 25791 H 2351.18 -2.63499 -3.28856 0
M  V30 25792 H 2349.9 -1.44557 -2.92867 0
M  V30 25793 H 2348.56 -3.22197 -1.74884 0
M  V30 25794 H 2348.21 -2.78808 -4.18659 0
M  V30 25795 H 2347.91 -4.49691 -3.78222 0
M  V30 25796 H 2349.43 -4.02854 -4.58847 0
M  V30 25797 H 2350.85 -5.11321 -2.59275 0
M  V30 25798 H 2349.24 -5.65288 -2.01419 0
M  V30 25799 H 2350.31 -4.76148 -0.917143 0
M  V30 25800 N 2351.66 0.44194 -1.51277 0
M  V30 25801 C 2353.07 0.778059 -1.3935 0
M  V30 25802 C 2353.27 1.95888 -0.472246 0
M  V30 25803 O 2352.33 2.52391 0.0743107 0
M  V30 25804 C 2353.64 1.06275 -2.81294 0
M  V30 25805 C 2355.19 1.16746 -2.90412 0
M  V30 25806 C 2355.67 1.48512 -4.33253 0
M  V30 25807 N 2357.16 1.55445 -4.36338 0
M  V30 25808 C 2357.89 1.81586 -5.43888 0
M  V30 25809 N 2357.39 2.05551 -6.61605 0
M  V30 25810 N 2359.18 1.8333 -5.31363 0
M  V30 25811 H 2351.33 -0.335811 -2.09729 0
M  V30 25812 H 2353.59 -0.0878193 -0.943924 0
M  V30 25813 H 2353.3 0.267843 -3.50679 0
M  V30 25814 H 2353.17 1.99157 -3.20338 0
M  V30 25815 H 2355.56 1.953 -2.21228 0
M  V30 25816 H 2355.64 0.217756 -2.54871 0
M  V30 25817 H 2355.29 0.704869 -5.02985 0
M  V30 25818 H 2355.22 2.44681 -4.66304 0
M  V30 25819 H 2357.71 1.38847 -3.51468 0
M  V30 25820 H 2358.02 2.24854 -7.39365 0
M  V30 25821 H 2356.37 2.02882 -6.64728 0
M  V30 25822 H 2359.56 1.64124 -4.38384 0
M  V30 25823 H 2359.73 2.03366 -6.15261 0
M  V30 25824 N 2353.14 1.41345 0.697083 0
M  V30 25825 C 2354.38 1.4083 1.45928 0
M  V30 25826 C 2354.71 0.0167439 1.94193 0
M  V30 25827 O 2353.99 -0.955233 1.69427 0
M  V30 25828 C 2354.27 2.41377 2.67224 0
M  V30 25829 C 2354.13 3.89634 2.24735 0
M  V30 25830 C 2355.44 2.39202 3.69419 0
M  V30 25831 H 2352.56 0.512852 0.529294 0
M  V30 25832 H 2355.21 1.7261 0.794082 0
M  V30 25833 H 2353.36 2.14407 3.23978 0
M  V30 25834 H 2355.03 4.27502 1.7332 0
M  V30 25835 H 2353.27 4.04573 1.56535 0
M  V30 25836 H 2353.94 4.55531 3.11762 0
M  V30 25837 H 2356.42 2.63133 3.22335 0
M  V30 25838 H 2355.29 3.11571 4.51901 0
M  V30 25839 H 2355.55 1.41008 4.1901 0
M  V30 25840 N 2354.61 -0.931187 1.27148 0
M  V30 25841 C 2355.86 -1.68099 1.13449 0
M  V30 25842 C 2356.19 -1.91552 -0.319594 0
M  V30 25843 O 2355.47 -1.50338 -1.23404 0
M  V30 25844 C 2355.75 -3.04967 1.91487 0
M  V30 25845 C 2355.6 -2.88776 3.4486 0
M  V30 25846 C 2356.92 -4.05243 1.71658 0
M  V30 25847 H 2354.04 -0.610065 0.413509 0
M  V30 25848 H 2356.68 -1.08083 1.56263 0
M  V30 25849 H 2354.83 -3.56196 1.55101 0
M  V30 25850 H 2356.51 -2.44691 3.91055 0
M  V30 25851 H 2354.75 -2.24191 3.71377 0
M  V30 25852 H 2355.42 -3.85895 3.94701 0
M  V30 25853 H 2357.9 -3.63011 2.03377 0
M  V30 25854 H 2356.77 -4.99005 2.2866 0
M  V30 25855 H 2357.03 -4.37091 0.663631 0
M  V30 25856 N 2356.09 -1.09114 -1.13719 0
M  V30 25857 C 2357.37 -0.737737 -1.81154 0
M  V30 25858 C 2357.75 0.777649 -1.96255 0
M  V30 25859 O 2357.1 1.69886 -1.5281 0
M  V30 25860 C 2357.31 -1.47305 -3.16389 0
M  V30 25861 C 2358.65 -1.63677 -3.91784 0
M  V30 25862 O 2359.68 -1.4353 -3.26003 0
M  V30 25863 O 2358.54 -1.96978 -5.09767 0
M  V30 25864 H 2355.63 -0.264644 -0.783513 0
M  V30 25865 H 2358.18 -1.19315 -1.20674 0
M  V30 25866 H 2356.95 -2.50503 -3.00606 0
M  V30 25867 H 2356.57 -1.0096 -3.84568 0
M  V30 25868 N 2357.57 1.30887 -0.877861 0
M  V30 25869 C 2358.79 2.01116 -0.506665 0
M  V30 25870 C 2359.22 1.65414 0.895535 0
M  V30 25871 O 2358.58 0.86695 1.59228 0
M  V30 25872 C 2358.63 3.54125 -0.680285 0
M  V30 25873 O 2357.73 4.11469 0.276961 0
M  V30 25874 H 2357.07 0.632996 -0.200529 0
M  V30 25875 H 2359.6 1.669 -1.18345 0
M  V30 25876 H 2359.61 4.03906 -0.576571 0
M  V30 25877 H 2358.29 3.79449 -1.70267 0
M  V30 25878 H 2356.86 3.72682 0.12754 0
M  V30 25879 N 2359.05 0.638091 1.44105 0
M  V30 25880 C 2359.98 -0.0493876 2.33448 0
M  V30 25881 C 2360.96 -0.827646 1.48607 0
M  V30 25882 O 2362.14 -0.792141 1.7731 0
M  V30 25883 C 2359.27 -1.02685 3.31773 0
M  V30 25884 C 2358.23 -0.359748 4.26485 0
M  V30 25885 C 2357.55 -1.4476 5.14732 0
M  V30 25886 C 2358.85 0.738387 5.17054 0
M  V30 25887 H 2360.55 0.696688 2.91181 0
M  V30 25888 H 2358.09 0.336481 1.40014 0
M  V30 25889 H 2360.05 -1.51659 3.93164 0
M  V30 25890 H 2358.77 -1.8039 2.72263 0
M  V30 25891 H 2357.43 0.109404 3.66437 0
M  V30 25892 H 2357.08 -2.2157 4.5157 0
M  V30 25893 H 2356.78 -1.00658 5.78914 0
M  V30 25894 H 2358.3 -1.93901 5.78995 0
M  V30 25895 H 2359.72 0.331454 5.72341 0
M  V30 25896 H 2358.11 1.10296 5.89877 0
M  V30 25897 H 2359.18 1.60266 4.57649 0
M  V30 25898 N 2360.53 -1.52973 0.379063 0
M  V30 25899 C 2361.46 -2.23771 -0.495923 0
M  V30 25900 C 2362.47 -1.25652 -1.03515 0
M  V30 25901 O 2363.66 -1.51792 -0.939222 0
M  V30 25902 C 2360.76 -2.93242 -1.69889 0
M  V30 25903 C 2359.93 -4.17981 -1.28883 0
M  V30 25904 C 2358.99 -4.70542 -2.35535 0
M  V30 25905 O 2358.02 -5.33887 -1.97366 0
M  V30 25906 N 2359.22 -4.49515 -3.6731 0
M  V30 25907 H 2361.98 -2.99496 0.110575 0
M  V30 25908 H 2359.55 -1.60598 0.204906 0
M  V30 25909 H 2361.54 -3.25309 -2.40741 0
M  V30 25910 H 2360.11 -2.20887 -2.21196 0
M  V30 25911 H 2359.33 -3.92066 -0.409607 0
M  V30 25912 H 2360.62 -4.99049 -0.991356 0
M  V30 25913 H 2360.01 -3.9893 -4.01088 0
M  V30 25914 H 2358.57 -4.86097 -4.34227 0
M  V30 25915 N 2362 -0.108595 -1.57225 0
M  V30 25916 C 2363.23 0.559919 -1.9918 0
M  V30 25917 C 2363.65 1.60882 -0.988051 0
M  V30 25918 O 2363 1.82488 0.0205192 0
M  V30 25919 C 2363.05 1.19546 -3.41161 0
M  V30 25920 O 2362.78 0.1885 -4.37694 0
M  V30 25921 C 2364.28 1.9483 -3.98191 0
M  V30 25922 H 2361.5 0.149076 -0.65423 0
M  V30 25923 H 2364.04 -0.191866 -2.03598 0
M  V30 25924 H 2362.2 1.89809 -3.37715 0
M  V30 25925 H 2362.61 0.648922 -5.2047 0
M  V30 25926 H 2364.08 2.34639 -4.99648 0
M  V30 25927 H 2364.56 2.81945 -3.36755 0
M  V30 25928 H 2365.17 1.29353 -4.05152 0
M  V30 25929 N 2363.48 1.56732 0.16515 0
M  V30 25930 C 2364.71 1.86844 0.90022 0
M  V30 25931 C 2365.13 0.695627 1.74765 0
M  V30 25932 O 2364.49 -0.355188 1.77787 0
M  V30 25933 C 2364.54 3.15416 1.74771 0
M  V30 25934 O 2363.64 2.98073 2.85002 0
M  V30 25935 H 2362.98 0.614396 0.251821 0
M  V30 25936 H 2365.51 2.03962 0.161433 0
M  V30 25937 H 2365.52 3.46978 2.1464 0
M  V30 25938 H 2364.2 4.00387 1.12529 0
M  V30 25939 H 2362.77 2.7788 2.48671 0
M  V30 25940 N 2364.96 -0.433911 1.51509 0
M  V30 25941 C 2365.89 -1.53426 1.76019 0
M  V30 25942 C 2366.87 -1.58781 0.610139 0
M  V30 25943 O 2368.06 -1.74453 0.853207 0
M  V30 25944 C 2365.19 -2.91476 1.88836 0
M  V30 25945 C 2364.14 -3.00981 3.04293 0
M  V30 25946 C 2363.47 -4.41044 3.02298 0
M  V30 25947 C 2364.77 -2.74746 4.44198 0
M  V30 25948 H 2366.46 -1.33167 2.68155 0
M  V30 25949 H 2364.01 -0.639191 1.29036 0
M  V30 25950 H 2365.96 -3.68417 2.04565 0
M  V30 25951 H 2364.68 -3.12975 0.93351 0
M  V30 25952 H 2363.34 -2.26481 2.88274 0
M  V30 25953 H 2362.99 -4.59515 2.04584 0
M  V30 25954 H 2362.69 -4.48333 3.7983 0
M  V30 25955 H 2364.21 -5.19954 3.20125 0
M  V30 25956 H 2365.63 -3.41418 4.6055 0
M  V30 25957 H 2364.03 -2.93441 5.23462 0
M  V30 25958 H 2365.1 -1.70331 4.53999 0
M  V30 25959 N 2366.44 -1.41713 -0.689577 0
M  V30 25960 C 2367.72 -1.3188 -1.44454 0
M  V30 25961 C 2368.1 0.0508166 -2.11039 0
M  V30 25962 O 2367.44 1.06544 -2.0214 0
M  V30 25963 C 2367.65 -2.47649 -2.45908 0
M  V30 25964 C 2369 -2.8909 -3.10986 0
M  V30 25965 O 2370.03 -2.47432 -2.56234 0
M  V30 25966 O 2368.88 -3.61144 -4.10167 0
M  V30 25967 H 2365.98 -0.51932 -0.643611 0
M  V30 25968 H 2368.52 -1.5369 -0.719549 0
M  V30 25969 H 2367.3 -3.39018 -1.95403 0
M  V30 25970 H 2366.92 -2.27748 -3.25909 0
M  V30 25971 N 2367.92 0.924431 -1.2764 0
M  V30 25972 C 2368.88 2.00703 -1.10684 0
M  V30 25973 C 2369.88 1.60723 -0.0498106 0
M  V30 25974 O 2371.07 1.71689 -0.294684 0
M  V30 25975 C 2368.2 3.33901 -0.687223 0
M  V30 25976 H 2369.39 2.17175 -2.06821 0
M  V30 25977 H 2366.95 1.10567 -1.10475 0
M  V30 25978 H 2367.68 3.23129 0.275382 0
M  V30 25979 H 2367.47 3.64277 -1.45067 0
M  V30 25980 H 2368.96 4.13398 -0.590925 0
M  V30 25981 N 2369.39 1.09715 1.13139 0
M  V30 25982 C 2370.3 0.751406 2.22241 0
M  V30 25983 C 2371.32 -0.247907 1.72225 0
M  V30 25984 O 2372.5 -0.0885109 2.01205 0
M  V30 25985 C 2369.56 0.180334 3.46231 0
M  V30 25986 C 2368.62 1.23597 4.11123 0
M  V30 25987 C 2367.86 0.692059 5.29194 0
M  V30 25988 O 2368.08 -0.48404 5.68343 0
M  V30 25989 O 2367.01 1.44849 5.84211 0
M  V30 25990 H 2370.84 1.6619 2.54194 0
M  V30 25991 H 2368.42 0.871757 1.21329 0
M  V30 25992 H 2370.31 -0.134665 4.21185 0
M  V30 25993 H 2368.98 -0.70313 3.15971 0
M  V30 25994 H 2367.89 1.60371 3.37982 0
M  V30 25995 H 2369.22 2.09219 4.4552 0
M  V30 25996 N 2370.87 -1.30419 0.88479 0
M  V30 25997 C 2372.1 -2.00309 0.51808 0
M  V30 25998 C 2372.52 -1.66326 -0.893378 0
M  V30 25999 O 2371.87 -0.90029 -1.58748 0
M  V30 26000 C 2371.92 -3.54988 0.68306 0
M  V30 26001 O 2371.64 -3.87761 2.03895 0
M  V30 26002 C 2373.15 -4.42148 0.319317 0
M  V30 26003 H 2370.37 -0.640414 0.200277 0
M  V30 26004 H 2372.91 -1.66308 1.19004 0
M  V30 26005 H 2371.06 -3.87356 0.0584733 0
M  V30 26006 H 2371.48 -4.82462 2.05744 0
M  V30 26007 H 2372.95 -5.49859 0.485652 0
M  V30 26008 H 2373.43 -4.32876 -0.74264 0
M  V30 26009 H 2374.04 -4.15225 0.92022 0
M  V30 26010 N 2372.35 -0.645724 -1.43764 0
M  V30 26011 C 2373.77 -0.312618 -1.56508 0
M  V30 26012 C 2373.97 1.18362 -1.63072 0
M  V30 26013 O 2373.02 1.96821 -1.5817 0
M  V30 26014 C 2374.34 -1.01738 -2.82966 0
M  V30 26015 C 2375.88 -0.996917 -2.96699 0
M  V30 26016 C 2376.36 -1.68243 -4.25979 0
M  V30 26017 N 2377.85 -1.64971 -4.32826 0
M  V30 26018 C 2378.58 -2.14894 -5.31609 0
M  V30 26019 N 2378.08 -2.73072 -6.36713 0
M  V30 26020 N 2379.87 -2.05437 -5.23213 0
M  V30 26021 H 2372.02 -1.61677 -1.37747 0
M  V30 26022 H 2374.29 -0.679492 -0.661055 0
M  V30 26023 H 2373.99 -2.07245 -2.84152 0
M  V30 26024 H 2373.87 -0.564243 -3.72956 0
M  V30 26025 H 2376.25 0.04972 -2.95058 0
M  V30 26026 H 2376.34 -1.48868 -2.08019 0
M  V30 26027 H 2375.98 -2.7286 -4.28381 0
M  V30 26028 H 2375.91 -1.16538 -5.13543 0
M  V30 26029 H 2378.4 -1.2251 -3.57491 0
M  V30 26030 H 2378.71 -3.08861 -7.08396 0
M  V30 26031 H 2377.06 -2.7713 -6.37357 0
M  V30 26032 H 2380.25 -1.59697 -4.40016 0
M  V30 26033 H 2380.42 -2.44653 -6.00041 0
M  V30 26034 N 2373.83 1.5277 -0.38717 0
M  V30 26035 C 2375.05 2.06449 0.198371 0
M  V30 26036 C 2375.48 1.25719 1.39916 0
M  V30 26037 O 2374.84 0.281688 1.79098 0
M  V30 26038 C 2374.88 3.56399 0.54883 0
M  V30 26039 O 2373.99 3.78255 1.64308 0
M  V30 26040 H 2373.33 0.663575 0.0237615 0
M  V30 26041 H 2375.86 1.96956 -0.554023 0
M  V30 26042 H 2375.87 3.99803 0.813742 0
M  V30 26043 H 2374.54 4.14596 -0.329078 0
M  V30 26044 H 2373.12 3.46741 1.37205 0
M  V30 26045 N 2375.31 0.116931 1.57166 0
M  V30 26046 C 2376.72 -0.239666 1.5779 0
M  V30 26047 C 2376.92 -1.66865 1.12952 0
M  V30 26048 O 2375.98 -2.38953 0.815962 0
M  V30 26049 C 2377.29 -0.00822916 3.00699 0
M  V30 26050 C 2378.84 -0.0742888 3.12912 0
M  V30 26051 C 2379.31 0.129429 4.57817 0
M  V30 26052 N 2380.81 0.0753284 4.63139 0
M  V30 26053 C 2381.54 0.207888 5.73023 0
M  V30 26054 N 2381.04 0.396504 6.91664 0
M  V30 26055 N 2382.83 0.147609 5.61906 0
M  V30 26056 H 2374.98 1.05033 1.84613 0
M  V30 26057 H 2377.24 0.413425 0.853102 0
M  V30 26058 H 2376.95 0.97959 3.37782 0
M  V30 26059 H 2376.82 -0.741012 3.6985 0
M  V30 26060 H 2379.21 -1.05263 2.75688 0
M  V30 26061 H 2379.29 0.690341 2.46309 0
M  V30 26062 H 2378.94 1.10474 4.9574 0
M  V30 26063 H 2378.87 -0.655161 5.22509 0
M  V30 26064 H 2381.36 -0.0670234 3.77841 0
M  V30 26065 H 2381.67 0.488573 7.71254 0
M  V30 26066 H 2380.01 0.432451 6.93653 0
M  V30 26067 H 2383.21 0.00123264 4.681 0
M  V30 26068 H 2383.38 0.254361 6.47501 0
M  V30 26069 N 2376.78 -1.56818 -0.156836 0
M  V30 26070 C 2377.73 -1.98457 -1.21315 0
M  V30 26071 C 2378.73 -0.87547 -1.45024 0
M  V30 26072 O 2379.93 -1.06063 -1.45433 0
M  V30 26073 H 2376.31 -0.631612 -0.408131 0
M  V30 26074 H 2378.28 -2.86474 -0.835194 0
M  V30 26075 C 2377.03 -2.3729 -2.54144 0
M  V30 26076 H 2376.35 -3.2218 -2.36727 0
M  V30 26077 H 2377.79 -2.70257 -3.26707 0
M  V30 26078 C 2376.25 -1.22179 -3.13965 0
M  V30 26079 O 2376.78 -0.517219 -3.98356 0
M  V30 26080 N 2374.99 -0.988584 -2.73268 0
M  V30 26081 H 2374.53 -1.5633 -2.04741 0
M  V30 26082 H 2374.49 -0.220264 -3.13627 0
M  V30 26083 N 2378.26 0.425871 -1.51737 0
M  V30 26084 C 2379.17 1.54272 -1.76741 0
M  V30 26085 C 2380.19 1.61317 -0.652138 0
M  V30 26086 O 2381.36 1.78345 -0.935686 0
M  V30 26087 C 2378.43 2.90159 -1.8976 0
M  V30 26088 C 2377.49 2.93137 -3.13638 0
M  V30 26089 C 2376.72 4.22542 -3.26027 0
M  V30 26090 O 2376.95 5.15541 -2.44076 0
M  V30 26091 O 2375.88 4.32038 -4.19078 0
M  V30 26092 H 2379.71 1.36084 -2.71505 0
M  V30 26093 H 2377.29 0.610045 -1.36377 0
M  V30 26094 H 2379.17 3.70784 -2.00242 0
M  V30 26095 H 2377.85 3.0845 -0.981839 0
M  V30 26096 H 2376.76 2.11425 -3.08626 0
M  V30 26097 H 2378.09 2.79792 -4.04941 0
M  V30 26098 N 2379.74 1.42077 0.682052 0
M  V30 26099 C 2380.7 1.44694 1.77753 0
M  V30 26100 C 2381.7 0.335563 1.5726 0
M  V30 26101 O 2382.89 0.596066 1.63685 0
M  V30 26102 C 2380.03 1.27152 3.16299 0
M  V30 26103 H 2381.22 2.42227 1.76822 0
M  V30 26104 H 2378.77 1.28418 0.890989 0
M  V30 26105 H 2379.51 0.305131 3.22861 0
M  V30 26106 H 2379.29 2.07689 3.32577 0
M  V30 26107 H 2380.78 1.3185 3.96239 0
M  V30 26108 N 2381.22 -0.917649 1.28129 0
M  V30 26109 C 2382.15 -2.03639 1.14251 0
M  V30 26110 C 2383.13 -1.7005 0.0413047 0
M  V30 26111 O 2384.32 -1.92977 0.217599 0
M  V30 26112 C 2381.45 -3.37973 0.799491 0
M  V30 26113 C 2380.4 -3.8571 1.85504 0
M  V30 26114 C 2379.73 -5.16964 1.36575 0
M  V30 26115 C 2381.03 -4.07997 3.26092 0
M  V30 26116 H 2382.72 -2.15508 2.07839 0
M  V30 26117 H 2380.27 -1.03551 1.00066 0
M  V30 26118 H 2382.22 -4.15726 0.689187 0
M  V30 26119 H 2380.94 -3.26146 -0.172088 0
M  V30 26120 H 2379.6 -3.10158 1.95442 0
M  V30 26121 H 2379.25 -5.01537 0.383341 0
M  V30 26122 H 2378.95 -5.49874 2.07153 0
M  V30 26123 H 2380.47 -5.97277 1.26859 0
M  V30 26124 H 2381.89 -4.76287 3.19098 0
M  V30 26125 H 2380.28 -4.52231 3.9447 0
M  V30 26126 H 2381.35 -3.12941 3.70399 0
M  V30 26127 N 2382.7 -1.10314 -1.12555 0
M  V30 26128 C 2384.11 -0.834673 -1.36034 0
M  V30 26129 C 2384.31 0.546505 -1.93947 0
M  V30 26130 O 2383.37 1.29962 -2.16486 0
M  V30 26131 C 2384.68 -1.93335 -2.30309 0
M  V30 26132 C 2386.23 -1.96164 -2.43903 0
M  V30 26133 C 2386.71 -3.05201 -3.41491 0
M  V30 26134 N 2388.2 -3.045 -3.49047 0
M  V30 26135 C 2388.93 -3.8551 -4.24464 0
M  V30 26136 N 2388.43 -4.76451 -5.02957 0
M  V30 26137 N 2390.22 -3.73732 -4.19858 0
M  V30 26138 H 2382.37 -1.99343 -0.733211 0
M  V30 26139 H 2384.63 -0.866204 -0.385219 0
M  V30 26140 H 2384.34 -2.92739 -1.94928 0
M  V30 26141 H 2384.21 -1.81944 -3.30418 0
M  V30 26142 H 2386.6 -0.973935 -2.78565 0
M  V30 26143 H 2386.68 -2.11632 -1.43686 0
M  V30 26144 H 2386.33 -4.04191 -3.07558 0
M  V30 26145 H 2386.26 -2.86976 -4.41534 0
M  V30 26146 H 2388.75 -2.38601 -2.93049 0
M  V30 26147 H 2389.06 -5.34825 -5.57837 0
M  V30 26148 H 2387.41 -4.80481 -5.02158 0
M  V30 26149 H 2390.6 -3.02038 -3.57618 0
M  V30 26150 H 2390.77 -4.37102 -4.78378 0
M  V30 26151 N 2384.18 1.29948 -0.891694 0
M  V30 26152 C 2385.42 1.9617 -0.514296 0
M  V30 26153 C 2385.75 1.70184 0.935476 0
M  V30 26154 O 2385.03 1.01031 1.66202 0
M  V30 26155 C 2385.31 3.51152 -0.79778 0
M  V30 26156 C 2385.17 3.86628 -2.29867 0
M  V30 26157 C 2386.48 4.39216 -0.278826 0
M  V30 26158 H 2383.6 0.712532 -0.188327 0
M  V30 26159 H 2386.25 1.53704 -1.11691 0
M  V30 26160 H 2384.4 3.87454 -0.284894 0
M  V30 26161 H 2386.07 3.60314 -2.88048 0
M  V30 26162 H 2384.31 3.34457 -2.76263 0
M  V30 26163 H 2384.98 4.94769 -2.44761 0
M  V30 26164 H 2387.46 4.0986 -0.717897 0
M  V30 26165 H 2386.33 5.46559 -0.506449 0
M  V30 26166 H 2386.59 4.34425 0.82019 0
M  V30 26167 N 2385.65 0.653339 1.4342 0
M  V30 26168 C 2386.6 -0.0381866 2.30768 0
M  V30 26169 C 2387.57 -0.814551 1.44756 0
M  V30 26170 O 2388.76 -0.791131 1.73625 0
M  V30 26171 C 2385.9 -0.998541 3.30338 0
M  V30 26172 C 2385.01 -0.218266 4.31448 0
M  V30 26173 C 2384.14 -1.17243 5.181 0
M  V30 26174 C 2383.18 -0.382595 6.10903 0
M  V30 26175 N 2382.32 -1.28836 6.90178 0
M  V30 26176 H 2387.16 0.712562 2.89355 0
M  V30 26177 H 2384.7 0.363153 1.42547 0
M  V30 26178 H 2386.65 -1.56894 3.86575 0
M  V30 26179 H 2385.28 -1.71616 2.734 0
M  V30 26180 H 2384.34 0.468427 3.77505 0
M  V30 26181 H 2385.65 0.395899 4.97226 0
M  V30 26182 H 2384.8 -1.81346 5.78963 0
M  V30 26183 H 2383.54 -1.8205 4.52448 0
M  V30 26184 H 2382.55 0.271787 5.49128 0
M  V30 26185 H 2383.77 0.261076 6.78598 0
M  V30 26186 H 2381.72 -1.92323 6.27175 0
M  V30 26187 H 2381.63 -0.728755 7.52479 0
M  V30 26188 H 2382.9 -1.91753 7.55547 0
M  V30 26189 N 2387.13 -1.52563 0.395266 0
M  V30 26190 C 2388.08 -2.26625 -0.436996 0
M  V30 26191 C 2389.05 -1.28474 -1.05278 0
M  V30 26192 O 2390.23 -1.57313 -1.07968 0
M  V30 26193 C 2387.37 -3.08072 -1.55518 0
M  V30 26194 C 2386.49 -4.2116 -0.961671 0
M  V30 26195 C 2385.62 -4.89991 -2.0514 0
M  V30 26196 C 2384.66 -5.95063 -1.4341 0
M  V30 26197 N 2383.8 -6.57466 -2.46339 0
M  V30 26198 H 2388.64 -2.97321 0.201028 0
M  V30 26199 H 2386.17 -1.46681 0.11097 0
M  V30 26200 H 2388.13 -3.53588 -2.2143 0
M  V30 26201 H 2386.76 -2.39573 -2.16343 0
M  V30 26202 H 2385.81 -3.79915 -0.191981 0
M  V30 26203 H 2387.13 -4.96575 -0.470614 0
M  V30 26204 H 2386.28 -5.38841 -2.7881 0
M  V30 26205 H 2385.02 -4.14113 -2.57607 0
M  V30 26206 H 2384.02 -5.45545 -0.682678 0
M  V30 26207 H 2385.25 -6.72876 -0.917298 0
M  V30 26208 H 2383.2 -5.84426 -2.97964 0
M  V30 26209 H 2383.11 -7.28512 -2.02006 0
M  V30 26210 H 2384.38 -7.10959 -3.1962 0
M  V30 26211 N 2388.61 -0.125265 -1.57101 0
M  V30 26212 C 2389.56 0.822617 -2.15642 0
M  V30 26213 C 2390.53 1.25925 -1.08315 0
M  V30 26214 O 2391.71 1.33565 -1.36254 0
M  V30 26215 C 2388.85 2.06489 -2.76508 0
M  V30 26216 C 2387.96 1.67605 -3.98161 0
M  V30 26217 C 2387.1 2.86846 -4.47094 0
M  V30 26218 C 2386.14 2.44232 -5.61264 0
M  V30 26219 N 2385.28 3.56408 -6.04911 0
M  V30 26220 H 2390.12 0.316573 -2.96314 0
M  V30 26221 H 2387.65 0.144562 -1.46388 0
M  V30 26222 H 2389.61 2.79284 -3.0993 0
M  V30 26223 H 2388.24 2.54541 -1.98516 0
M  V30 26224 H 2387.29 0.846595 -3.7086 0
M  V30 26225 H 2388.6 1.32292 -4.80937 0
M  V30 26226 H 2387.76 3.67859 -4.82457 0
M  V30 26227 H 2386.5 3.2539 -3.63281 0
M  V30 26228 H 2385.5 1.61654 -5.25498 0
M  V30 26229 H 2386.73 2.06799 -6.46847 0
M  V30 26230 H 2384.67 3.94613 -5.24038 0
M  V30 26231 H 2384.59 3.25039 -6.82558 0
M  V30 26232 H 2385.86 4.37841 -6.44915 0
M  V30 26233 N 2390.09 1.56899 0.148518 0
M  V30 26234 C 2391.02 1.93298 1.2129 0
M  V30 26235 C 2392 0.798624 1.41636 0
M  V30 26236 O 2393.18 1.05409 1.56273 0
M  V30 26237 C 2390.31 2.2037 2.57206 0
M  V30 26238 C 2389.36 3.43014 2.53463 0
M  V30 26239 S 2390.19 4.96626 2.00306 0
M  V30 26240 C 2391.34 5.26818 3.37954 0
M  V30 26241 H 2391.58 2.83276 0.902343 0
M  V30 26242 H 2389.11 1.50285 0.354067 0
M  V30 26243 H 2391.07 2.36647 3.35423 0
M  V30 26244 H 2389.73 1.31059 2.85451 0
M  V30 26245 H 2388.92 3.59229 3.53512 0
M  V30 26246 H 2388.52 3.25972 1.83354 0
M  V30 26247 H 2390.82 5.20193 4.34057 0
M  V30 26248 H 2391.76 6.28285 3.26595 0
M  V30 26249 H 2392.17 4.54337 3.3502 0
M  V30 26250 N 2391.57 -0.417818 1.51961 0
M  V30 26251 C 2392.48 -1.53333 1.77556 0
M  V30 26252 C 2393.49 -1.60969 0.660684 0
M  V30 26253 O 2394.67 -1.77846 0.945131 0
M  V30 26254 C 2391.73 -2.89148 1.91296 0
M  V30 26255 C 2390.79 -2.9147 3.15189 0
M  V30 26256 C 2390.03 -4.20808 3.28263 0
M  V30 26257 O 2390.25 -5.1424 2.46807 0
M  V30 26258 O 2389.18 -4.2981 4.21364 0
M  V30 26259 H 2393.01 -1.34642 2.72223 0
M  V30 26260 H 2390.59 -0.602804 1.36699 0
M  V30 26261 H 2392.48 -3.69717 2.02206 0
M  V30 26262 H 2391.15 -3.07925 0.998183 0
M  V30 26263 H 2390.06 -2.09786 3.09743 0
M  V30 26264 H 2391.39 -2.77641 4.06419 0
M  V30 26265 N 2393.04 -1.42436 -0.674508 0
M  V30 26266 C 2394.29 -1.42639 -1.43173 0
M  V30 26267 C 2394.61 -0.0439335 -1.94951 0
M  V30 26268 O 2393.88 0.917577 -1.73082 0
M  V30 26269 H 2392.46 -0.525101 -0.531298 0
M  V30 26270 H 2395.12 -1.7786 -0.796975 0
M  V30 26271 H 2394.22 -2.12633 -2.2846 0
M  V30 26272 N 2394.52 0.910841 -1.28614 0
M  V30 26273 C 2395.8 1.63977 -1.06635 0
M  V30 26274 C 2396.18 2.07404 0.393314 0
M  V30 26275 O 2395.53 1.82125 1.37996 0
M  V30 26276 C 2395.74 2.82906 -2.04365 0
M  V30 26277 C 2397.08 3.53856 -2.34672 0
M  V30 26278 O 2398.11 2.93059 -2.02472 0
M  V30 26279 O 2396.97 4.63434 -2.89639 0
M  V30 26280 H 2394.06 0.719492 -0.40775 0
M  V30 26281 H 2396.61 0.95989 -1.39944 0
M  V30 26282 H 2395.38 2.47931 -3.02731 0
M  V30 26283 H 2395 3.58606 -1.7172 0
M  V30 26284 N 2396 1.10909 1.11969 0
M  V30 26285 C 2396.93 0.784511 2.19927 0
M  V30 26286 C 2397.91 -0.244697 1.68331 0
M  V30 26287 O 2399.1 -0.109384 1.93892 0
M  V30 26288 C 2396.23 0.220888 3.46597 0
M  V30 26289 C 2395.18 1.18134 4.11374 0
M  V30 26290 C 2394.51 0.478688 5.32553 0
M  V30 26291 C 2395.81 2.52987 4.56941 0
M  V30 26292 H 2397.5 1.68719 2.47334 0
M  V30 26293 H 2395.05 0.812663 1.18877 0
M  V30 26294 H 2397 -0.0183538 4.21396 0
M  V30 26295 H 2395.72 -0.717057 3.18631 0
M  V30 26296 H 2394.38 1.40612 3.38561 0
M  V30 26297 H 2394.03 -0.463888 5.00856 0
M  V30 26298 H 2393.73 1.11922 5.76842 0
M  V30 26299 H 2395.25 0.248107 6.10096 0
M  V30 26300 H 2396.67 2.3463 5.23089 0
M  V30 26301 H 2395.07 3.12971 5.12025 0
M  V30 26302 H 2396.14 3.1262 3.70671 0
M  V30 26303 N 2397.48 -1.29474 0.898573 0
M  V30 26304 C 2398.43 -2.29714 0.365294 0
M  V30 26305 C 2399.42 -1.60731 -0.534964 0
M  V30 26306 O 2400.63 -1.75082 -0.41789 0
M  V30 26307 H 2397 -0.745389 0.0994984 0
M  V30 26308 H 2398.97 -2.72136 1.22411 0
M  V30 26309 C 2397.72 -3.45471 -0.393099 0
M  V30 26310 H 2397.04 -3.98744 0.290402 0
M  V30 26311 H 2398.48 -4.17649 -0.731116 0
M  V30 26312 C 2396.94 -2.96733 -1.59534 0
M  V30 26313 O 2397.47 -2.97913 -2.69464 0
M  V30 26314 N 2395.68 -2.52577 -1.43712 0
M  V30 26315 H 2395.23 -2.51817 -0.542784 0
M  V30 26316 H 2395.18 -2.20327 -2.24284 0
M  V30 26317 N 2398.96 -0.660936 -1.43071 0
M  V30 26318 C 2399.87 0.026375 -2.34585 0
M  V30 26319 C 2400.88 0.80387 -1.54318 0
M  V30 26320 O 2402.06 0.749358 -1.8694 0
M  V30 26321 C 2399.12 0.975581 -3.32691 0
M  V30 26322 C 2398.18 0.194161 -4.28861 0
M  V30 26323 C 2397.42 1.09815 -5.2228 0
M  V30 26324 O 2397.64 2.33754 -5.20303 0
M  V30 26325 O 2396.57 0.566408 -5.99229 0
M  V30 26326 H 2400.4 -0.727085 -2.94868 0
M  V30 26327 H 2397.99 -0.421135 -1.43342 0
M  V30 26328 H 2399.87 1.52087 -3.92998 0
M  V30 26329 H 2398.54 1.70913 -2.74901 0
M  V30 26330 H 2397.45 -0.394901 -3.7201 0
M  V30 26331 H 2398.78 -0.499985 -4.89654 0
M  V30 26332 N 2400.43 1.52351 -0.403352 0
M  V30 26333 C 2401.37 2.2332 0.469424 0
M  V30 26334 C 2402.35 1.23924 1.0527 0
M  V30 26335 O 2403.53 1.52956 1.10166 0
M  V30 26336 C 2400.66 2.95733 1.65105 0
M  V30 26337 C 2399.7 4.09512 1.19171 0
M  V30 26338 S 2400.54 5.35256 0.161624 0
M  V30 26339 C 2401.69 6.11196 1.34871 0
M  V30 26340 H 2401.92 2.97002 -0.133186 0
M  V30 26341 H 2399.46 1.53256 -0.187615 0
M  V30 26342 H 2401.42 3.3806 2.32864 0
M  V30 26343 H 2400.08 2.21705 2.22499 0
M  V30 26344 H 2399.27 4.59332 2.07436 0
M  V30 26345 H 2398.87 3.69271 0.592846 0
M  V30 26346 H 2401.16 6.38221 2.27333 0
M  V30 26347 H 2402.11 7.0247 0.891157 0
M  V30 26348 H 2402.51 5.42173 1.57189 0
M  V30 26349 N 2401.91 0.133594 1.57033 0
M  V30 26350 C 2402.82 -0.824525 2.19633 0
M  V30 26351 C 2403.84 -1.2818 1.17668 0
M  V30 26352 O 2405.01 -1.34177 1.50195 0
M  V30 26353 C 2402.08 -2.05132 2.79502 0
M  V30 26354 C 2401.14 -1.64457 3.96551 0
M  V30 26355 C 2400.37 -2.81289 4.53555 0
M  V30 26356 O 2400.6 -3.97129 4.09445 0
M  V30 26357 O 2399.53 -2.57532 5.44023 0
M  V30 26358 H 2403.36 -0.321712 3.01991 0
M  V30 26359 H 2400.94 -0.0927627 1.49112 0
M  V30 26360 H 2402.82 -2.76954 3.17607 0
M  V30 26361 H 2401.5 -2.54392 2.00166 0
M  V30 26362 H 2400.41 -0.896984 3.63187 0
M  V30 26363 H 2401.74 -1.19926 4.77366 0
M  V30 26364 N 2403.39 -1.56975 -0.140195 0
M  V30 26365 C 2404.64 -1.82909 -0.85012 0
M  V30 26366 C 2404.95 -0.715924 -1.82027 0
M  V30 26367 O 2406.16 -0.861061 -2.57484 0
M  V30 26368 C 2404.61 -3.24216 -1.56244 0
M  V30 26369 C 2404.22 -4.43486 -0.634352 0
M  V30 26370 C 2405.97 -3.59417 -2.25875 0
M  V30 26371 C 2403.87 -5.75816 -1.34868 0
M  V30 26372 H 2402.8 -0.682159 -0.321209 0
M  V30 26373 H 2405.45 -1.83212 -0.102842 0
M  V30 26374 H 2403.84 -3.18321 -2.35559 0
M  V30 26375 H 2405.01 -4.60633 0.124061 0
M  V30 26376 H 2403.33 -4.16374 -0.0461104 0
M  V30 26377 H 2405.92 -4.55544 -2.7997 0
M  V30 26378 H 2406.27 -2.85807 -3.02688 0
M  V30 26379 H 2406.8 -3.67003 -1.53471 0
M  V30 26380 H 2403.54 -6.5254 -0.62227 0
M  V30 26381 H 2403.06 -5.62593 -2.07964 0
M  V30 26382 H 2404.74 -6.18849 -1.88773 0
M  V30 26383 N 2404.87 0.409753 -1.5218 0
M  V30 26384 C 2405.8 1.51822 -1.71705 0
M  V30 26385 C 2406.81 1.5144 -0.597471 0
M  V30 26386 O 2408 1.55717 -0.872609 0
M  V30 26387 C 2405.1 2.90716 -1.74176 0
M  V30 26388 C 2404.28 3.15297 -3.03161 0
M  V30 26389 C 2403.33 4.3406 -2.97453 0
M  V30 26390 O 2402.36 4.3137 -3.7136 0
M  V30 26391 N 2403.56 5.39137 -2.152 0
M  V30 26392 H 2406.33 1.35467 -2.67336 0
M  V30 26393 H 2403.89 0.599043 -1.5041 0
M  V30 26394 H 2405.88 3.68232 -1.6789 0
M  V30 26395 H 2404.45 3.00531 -0.860218 0
M  V30 26396 H 2403.67 2.2583 -3.23101 0
M  V30 26397 H 2404.96 3.28562 -3.8849 0
M  V30 26398 H 2404.36 5.4417 -1.54582 0
M  V30 26399 H 2402.91 6.154 -2.14771 0
M  V30 26400 N 2406.35 1.42792 0.666944 0
M  V30 26401 C 2407.28 1.4968 1.79216 0
M  V30 26402 C 2408.26 0.352652 1.66404 0
M  V30 26403 O 2409.44 0.568026 1.85707 0
M  V30 26404 C 2406.57 1.40611 3.17562 0
M  V30 26405 C 2405.53 2.53133 3.45119 0
M  V30 26406 C 2404.85 2.2912 4.83123 0
M  V30 26407 C 2406.15 3.95424 3.41229 0
M  V30 26408 H 2407.85 2.43856 1.73709 0
M  V30 26409 H 2405.39 1.17369 0.834299 0
M  V30 26410 H 2407.35 1.44036 3.9602 0
M  V30 26411 H 2406.07 0.429327 3.23766 0
M  V30 26412 H 2404.73 2.49039 2.69027 0
M  V30 26413 H 2404.38 1.29717 4.85986 0
M  V30 26414 H 2404.08 3.0454 5.02523 0
M  V30 26415 H 2405.6 2.34307 5.63855 0
M  V30 26416 H 2407.01 4.0108 4.09644 0
M  V30 26417 H 2405.41 4.70758 3.72165 0
M  V30 26418 H 2406.48 4.21536 2.39657 0
M  V30 26419 N 2407.82 -0.904008 1.29095 0
M  V30 26420 C 2409.05 -1.69292 1.19812 0
M  V30 26421 C 2409.47 -1.86583 -0.238448 0
M  V30 26422 O 2408.83 -1.38302 -1.17227 0
M  V30 26423 C 2408.88 -3.05732 1.91207 0
M  V30 26424 O 2407.98 -3.9375 1.22618 0
M  V30 26425 H 2407.33 -0.518019 0.415394 0
M  V30 26426 H 2409.86 -1.12964 1.70588 0
M  V30 26427 H 2409.87 -3.55902 1.99494 0
M  V30 26428 H 2408.54 -2.92466 2.95697 0
M  V30 26429 H 2407.12 -3.52184 1.2256 0
M  V30 26430 N 2409.3 -1.11501 -1.11379 0
M  V30 26431 C 2410.25 -0.743018 -2.15553 0
M  V30 26432 C 2411.24 0.253248 -1.58894 0
M  V30 26433 O 2412.43 0.0602607 -1.76897 0
M  V30 26434 C 2409.56 -0.188541 -3.42782 0
M  V30 26435 C 2408.64 -1.21251 -4.06398 0
M  V30 26436 N 2409.03 -2.40693 -4.4486 0
M  V30 26437 C 2407.33 -1.05559 -4.33328 0
M  V30 26438 C 2408.03 -3.06003 -4.94709 0
M  V30 26439 N 2407.01 -2.33481 -4.90905 0
M  V30 26440 H 2410.81 -1.65207 -2.43072 0
M  V30 26441 H 2408.33 -0.994351 -1.28399 0
M  V30 26442 H 2410.32 0.096096 -4.16789 0
M  V30 26443 H 2408.98 0.715093 -3.16728 0
M  V30 26444 H 2409.99 -2.78143 -4.36871 0
M  V30 26445 H 2406.67 -0.208445 -4.16979 0
M  V30 26446 H 2408.06 -4.07666 -5.34096 0
M  V30 26447 N 2410.78 1.28995 -0.905426 0
M  V30 26448 C 2411.74 2.25818 -0.392292 0
M  V30 26449 C 2412.74 1.53571 0.476726 0
M  V30 26450 O 2413.93 1.71919 0.280964 0
M  V30 26451 C 2411.07 3.38068 0.438528 0
M  V30 26452 H 2412.26 2.72723 -1.24748 0
M  V30 26453 H 2409.81 1.40535 -0.684076 0
M  V30 26454 H 2410.55 2.96511 1.31347 0
M  V30 26455 H 2410.33 3.91667 -0.184235 0
M  V30 26456 H 2411.82 4.10085 0.788658 0
M  V30 26457 N 2412.26 0.668514 1.42719 0
M  V30 26458 C 2413.21 -0.0254448 2.32586 0
M  V30 26459 C 2414.2 -0.79715 1.49472 0
M  V30 26460 O 2415.41 -0.705823 1.65584 0
M  V30 26461 H 2411.78 -0.0270207 0.751514 0
M  V30 26462 H 2413.75 0.749987 2.88821 0
M  V30 26463 C 2412.5 -0.967368 3.33972 0
M  V30 26464 H 2411.83 -0.382978 3.97961 0
M  V30 26465 H 2413.27 -1.42174 3.99453 0
M  V30 26466 C 2411.72 -2.07075 2.65747 0
M  V30 26467 O 2412.25 -3.15644 2.48459 0
M  V30 26468 N 2410.46 -1.84066 2.24873 0
M  V30 26469 H 2410.01 -0.957738 2.39134 0
M  V30 26470 H 2409.97 -2.58083 1.79557 0
M  V30 26471 N 2413.74 -1.52135 0.411426 0
M  V30 26472 C 2415.15 -1.59478 0.0624145 0
M  V30 26473 C 2415.35 -1.42413 -1.42551 0
M  V30 26474 O 2414.41 -1.25224 -2.19261 0
M  V30 26475 C 2415.72 -2.95451 0.559383 0
M  V30 26476 C 2417.27 -3.08691 0.517558 0
M  V30 26477 C 2417.75 -4.47148 0.991073 0
M  V30 26478 N 2419.24 -4.53395 0.947987 0
M  V30 26479 C 2419.97 -5.58804 1.28553 0
M  V30 26480 N 2419.47 -6.71754 1.69465 0
M  V30 26481 N 2421.26 -5.49024 1.20536 0
M  V30 26482 H 2413.41 -1.61475 1.37985 0
M  V30 26483 H 2415.67 -0.759754 0.56699 0
M  V30 26484 H 2415.38 -3.13227 1.59944 0
M  V30 26485 H 2415.25 -3.77188 -0.0297351 0
M  V30 26486 H 2417.64 -2.90599 -0.513454 0
M  V30 26487 H 2417.72 -2.28855 1.14276 0
M  V30 26488 H 2417.37 -4.65984 2.02042 0
M  V30 26489 H 2417.3 -5.25484 0.342663 0
M  V30 26490 H 2419.79 -3.72316 0.647223 0
M  V30 26491 H 2420.1 -7.48176 1.93527 0
M  V30 26492 H 2418.45 -6.73029 1.73371 0
M  V30 26493 H 2421.64 -4.59666 0.884585 0
M  V30 26494 H 2421.81 -6.31066 1.47172 0
M  V30 26495 N 2415.22 -0.14192 -1.5696 0
M  V30 26496 C 2416.15 0.837589 -2.12273 0
M  V30 26497 C 2417.13 1.24576 -1.04497 0
M  V30 26498 O 2418.31 1.34276 -1.32296 0
M  V30 26499 C 2415.44 2.12399 -2.63826 0
M  V30 26500 C 2414.48 1.86214 -3.83701 0
M  V30 26501 S 2415.32 1.05772 -5.2495 0
M  V30 26502 C 2416.47 2.35542 -5.79889 0
M  V30 26503 H 2416.71 0.367197 -2.95024 0
M  V30 26504 H 2414.24 0.0722743 -1.54231 0
M  V30 26505 H 2416.2 2.86301 -2.9418 0
M  V30 26506 H 2414.86 2.56554 -1.81215 0
M  V30 26507 H 2414.05 2.81589 -4.18 0
M  V30 26508 H 2413.65 1.20423 -3.54082 0
M  V30 26509 H 2415.94 3.31229 -5.91011 0
M  V30 26510 H 2416.89 2.05756 -6.77547 0
M  V30 26511 H 2417.3 2.45958 -5.08099 0
M  V30 26512 N 2416.69 1.57047 0.131868 0
M  V30 26513 C 2417.66 1.98473 1.14634 0
M  V30 26514 C 2418.66 0.873171 1.35027 0
M  V30 26515 O 2419.85 1.13949 1.31762 0
M  V30 26516 C 2416.98 2.31378 2.50354 0
M  V30 26517 H 2418.17 2.89292 0.790589 0
M  V30 26518 H 2415.72 1.51717 0.375734 0
M  V30 26519 H 2416.46 1.43398 2.90873 0
M  V30 26520 H 2416.24 3.12436 2.3691 0
M  V30 26521 H 2417.73 2.64213 3.23391 0
M  V30 26522 N 2418.17 -0.401677 1.52395 0
M  V30 26523 C 2419.13 -1.47254 1.75639 0
M  V30 26524 C 2420.13 -1.48101 0.626306 0
M  V30 26525 O 2421.32 -1.49495 0.894253 0
M  V30 26526 C 2418.46 -2.8662 1.84558 0
M  V30 26527 H 2419.65 -1.27933 2.71244 0
M  V30 26528 H 2417.2 -0.632637 1.42924 0
M  V30 26529 H 2417.94 -3.11302 0.908937 0
M  V30 26530 H 2417.72 -2.87407 2.6672 0
M  V30 26531 H 2419.21 -3.64237 2.04257 0
M  V30 26532 N 2419.65 -1.43144 -0.659362 0
M  V30 26533 C 2420.56 -1.50259 -1.80165 0
M  V30 26534 C 2421.58 -0.390136 -1.6957 0
M  V30 26535 O 2422.75 -0.643352 -1.90848 0
M  V30 26536 C 2419.82 -1.41731 -3.16407 0
M  V30 26537 C 2418.88 -2.63597 -3.38844 0
M  V30 26538 C 2418.11 -2.55466 -4.68586 0
M  V30 26539 O 2418.33 -1.59901 -5.47529 0
M  V30 26540 O 2417.27 -3.45863 -4.92608 0
M  V30 26541 H 2421.09 -2.46705 -1.77117 0
M  V30 26542 H 2418.68 -1.25077 -0.81707 0
M  V30 26543 H 2420.56 -1.39394 -3.97677 0
M  V30 26544 H 2419.24 -0.484174 -3.20058 0
M  V30 26545 H 2418.14 -2.71507 -2.57361 0
M  V30 26546 H 2419.48 -3.55862 -3.40034 0
M  V30 26547 N 2421.13 0.897149 -1.29572 0
M  V30 26548 C 2422.09 1.9831 -1.14917 0
M  V30 26549 C 2423.09 1.60581 -0.0838911 0
M  V30 26550 O 2424.28 1.71026 -0.331036 0
M  V30 26551 C 2421.41 3.32368 -0.757893 0
M  V30 26552 H 2422.61 2.1274 -2.11381 0
M  V30 26553 H 2420.16 1.08199 -1.12795 0
M  V30 26554 H 2420.89 3.2364 0.20678 0
M  V30 26555 H 2420.68 3.61118 -1.52761 0
M  V30 26556 H 2422.17 4.12051 -0.67848 0
M  V30 26557 N 2422.61 1.1209 1.10786 0
M  V30 26558 C 2423.54 0.743251 2.16814 0
M  V30 26559 C 2424.55 -0.228383 1.6119 0
M  V30 26560 O 2425.74 -0.0102617 1.78497 0
M  V30 26561 C 2422.84 0.0787909 3.38808 0
M  V30 26562 C 2422.01 1.07897 4.23883 0
M  V30 26563 C 2421.07 0.442805 5.24334 0
M  V30 26564 O 2420.1 1.09874 5.58495 0
M  V30 26565 N 2421.3 -0.791356 5.75081 0
M  V30 26566 H 2424.06 1.65557 2.49822 0
M  V30 26567 H 2421.63 1.01203 1.26371 0
M  V30 26568 H 2423.62 -0.358696 4.03107 0
M  V30 26569 H 2422.19 -0.736221 3.03807 0
M  V30 26570 H 2421.41 1.6942 3.55936 0
M  V30 26571 H 2422.7 1.75542 4.77559 0
M  V30 26572 H 2422.09 -1.3433 5.4952 0
M  V30 26573 H 2420.65 -1.17172 6.41182 0
M  V30 26574 N 2424.08 -1.28513 0.912254 0
M  V30 26575 C 2425.03 -2.27343 0.397994 0
M  V30 26576 C 2426 -1.57527 -0.526738 0
M  V30 26577 O 2427.19 -1.85435 -0.449259 0
M  V30 26578 C 2424.33 -3.43246 -0.357202 0
M  V30 26579 C 2423.44 -4.27815 0.599863 0
M  V30 26580 C 2422.57 -5.30916 -0.173632 0
M  V30 26581 C 2421.61 -6.07146 0.777146 0
M  V30 26582 N 2420.75 -7.0209 0.0372632 0
M  V30 26583 H 2425.59 -2.70709 1.24582 0
M  V30 26584 H 2423.13 -1.33132 0.625635 0
M  V30 26585 H 2425.08 -4.09237 -0.811228 0
M  V30 26586 H 2423.71 -3.00874 -1.16938 0
M  V30 26587 H 2422.77 -3.61882 1.17242 0
M  V30 26588 H 2424.08 -4.80821 1.32713 0
M  V30 26589 H 2423.23 -6.02783 -0.688288 0
M  V30 26590 H 2421.97 -4.78674 -0.933957 0
M  V30 26591 H 2420.98 -5.34132 1.30319 0
M  V30 26592 H 2422.2 -6.61478 1.537 0
M  V30 26593 H 2420.15 -6.522 -0.705099 0
M  V30 26594 H 2420.06 -7.52711 0.704381 0
M  V30 26595 H 2421.33 -7.78158 -0.457246 0
M  V30 26596 N 2425.56 -0.676073 -1.42362 0
M  V30 26597 C 2426.49 0.0404202 -2.29164 0
M  V30 26598 C 2427.51 0.764219 -1.43748 0
M  V30 26599 O 2428.7 0.618166 -1.67454 0
M  V30 26600 C 2425.8 1.08097 -3.21198 0
M  V30 26601 C 2424.97 0.430736 -4.35274 0
M  V30 26602 C 2424.03 1.37124 -5.08019 0
M  V30 26603 O 2423.05 0.871061 -5.62495 0
M  V30 26604 N 2424.26 2.70447 -5.13652 0
M  V30 26605 H 2427.02 -0.704718 -2.91297 0
M  V30 26606 H 2424.58 -0.520586 -1.53302 0
M  V30 26607 H 2426.57 1.71145 -3.66731 0
M  V30 26608 H 2425.14 1.72783 -2.60509 0
M  V30 26609 H 2424.36 -0.379278 -3.92371 0
M  V30 26610 H 2425.65 -0.0222027 -5.08795 0
M  V30 26611 H 2425.05 3.13621 -4.70806 0
M  V30 26612 H 2423.61 3.28739 -5.62826 0
M  V30 26613 N 2427.04 1.51915 -0.419488 0
M  V30 26614 C 2428.29 2.02221 0.15313 0
M  V30 26615 C 2428.62 1.30403 1.43905 0
M  V30 26616 O 2427.89 0.413472 1.90054 0
M  V30 26617 C 2428.18 3.57979 0.390228 0
M  V30 26618 C 2428.03 4.40435 -0.913091 0
M  V30 26619 C 2429.35 4.24322 1.16786 0
M  V30 26620 H 2426.47 0.735006 0.0541795 0
M  V30 26621 H 2429.11 1.81714 -0.554987 0
M  V30 26622 H 2427.26 3.75584 0.993425 0
M  V30 26623 H 2428.93 4.34519 -1.5489 0
M  V30 26624 H 2427.18 4.06233 -1.52175 0
M  V30 26625 H 2427.85 5.47525 -0.701457 0
M  V30 26626 H 2430.32 4.10879 0.657089 0
M  V30 26627 H 2429.2 5.33222 1.30251 0
M  V30 26628 H 2429.46 3.83974 2.19126 0
M  V30 26629 N 2428.52 0.150242 1.56882 0
M  V30 26630 C 2429.47 -0.788206 2.16924 0
M  V30 26631 C 2430.44 -1.24185 1.10305 0
M  V30 26632 O 2431.62 -1.3138 1.38361 0
M  V30 26633 C 2428.76 -2.02064 2.79758 0
M  V30 26634 C 2427.87 -1.6125 4.00777 0
M  V30 26635 C 2427.01 -2.79697 4.516 0
M  V30 26636 C 2426.05 -2.35272 5.65078 0
M  V30 26637 N 2425.18 -3.46739 6.10505 0
M  V30 26638 H 2430.02 -0.269392 2.9678 0
M  V30 26639 H 2427.56 -0.121254 1.46599 0
M  V30 26640 H 2429.52 -2.74318 3.14334 0
M  V30 26641 H 2428.15 -2.51351 2.02541 0
M  V30 26642 H 2427.2 -0.787488 3.7216 0
M  V30 26643 H 2428.51 -1.24624 4.82981 0
M  V30 26644 H 2427.67 -3.60136 4.88248 0
M  V30 26645 H 2426.41 -3.19569 3.68411 0
M  V30 26646 H 2425.41 -1.53273 5.28003 0
M  V30 26647 H 2426.64 -1.96482 6.50055 0
M  V30 26648 H 2424.58 -3.86226 5.3025 0
M  V30 26649 H 2424.5 -3.14139 6.87643 0
M  V30 26650 H 2425.77 -4.27526 6.51799 0
M  V30 26651 N 2430 -1.57115 -0.123538 0
M  V30 26652 C 2431.22 -1.89165 -0.850365 0
M  V30 26653 C 2431.65 -0.741718 -1.72859 0
M  V30 26654 O 2431 0.307926 -1.78666 0
M  V30 26655 C 2431.05 -3.19939 -1.66347 0
M  V30 26656 O 2430.16 -3.05525 -2.76999 0
M  V30 26657 H 2429.5 -0.620856 -0.235443 0
M  V30 26658 H 2432.03 -2.04318 -0.107299 0
M  V30 26659 H 2432.04 -3.52547 -2.05365 0
M  V30 26660 H 2430.71 -4.0323 -1.01874 0
M  V30 26661 H 2429.29 -2.84375 -2.41216 0
M  V30 26662 N 2431.47 0.393589 -1.52606 0
M  V30 26663 C 2432.4 1.48705 -1.80025 0
M  V30 26664 C 2433.39 1.57107 -0.652023 0
M  V30 26665 O 2434.57 1.7213 -0.899161 0
M  V30 26666 C 2431.7 2.86367 -1.96497 0
M  V30 26667 C 2430.65 2.92808 -3.12166 0
M  V30 26668 C 2429.98 4.32874 -3.13885 0
M  V30 26669 C 2431.28 2.62872 -4.51326 0
M  V30 26670 H 2432.97 1.2601 -2.71591 0
M  V30 26671 H 2430.52 0.604755 -1.30686 0
M  V30 26672 H 2432.47 3.62864 -2.14261 0
M  V30 26673 H 2431.2 3.1039 -1.01616 0
M  V30 26674 H 2429.86 2.18759 -2.94177 0
M  V30 26675 H 2429.5 4.5393 -2.16695 0
M  V30 26676 H 2429.2 4.38105 -3.91583 0
M  V30 26677 H 2430.73 5.11284 -3.33798 0
M  V30 26678 H 2432.14 3.29088 -4.6944 0
M  V30 26679 H 2430.54 2.79459 -5.31058 0
M  V30 26680 H 2431.61 1.58234 -4.58356 0
M  V30 26681 N 2432.95 1.43492 0.651762 0
M  V30 26682 C 2433.88 1.44732 1.77723 0
M  V30 26683 C 2434.9 0.343259 1.5914 0
M  V30 26684 O 2436.09 0.607781 1.67834 0
M  V30 26685 C 2433.19 1.24584 3.1517 0
M  V30 26686 C 2432.36 2.47855 3.60398 0
M  V30 26687 C 2431.42 2.22911 4.76652 0
M  V30 26688 O 2430.44 2.96271 4.86016 0
M  V30 26689 N 2431.65 1.24666 5.66956 0
M  V30 26690 H 2434.41 2.41749 1.77136 0
M  V30 26691 H 2431.97 1.38667 0.835654 0
M  V30 26692 H 2433.96 1.05777 3.90632 0
M  V30 26693 H 2432.53 0.36007 3.10519 0
M  V30 26694 H 2431.75 2.82078 2.75364 0
M  V30 26695 H 2433.04 3.29891 3.87362 0
M  V30 26696 H 2432.44 0.640364 5.62064 0
M  V30 26697 H 2431 1.11841 6.42133 0
M  V30 26698 N 2434.43 -0.890264 1.30046 0
M  V30 26699 C 2435.66 -1.68012 1.21601 0
M  V30 26700 C 2436.08 -1.86825 -0.218645 0
M  V30 26701 O 2435.44 -1.39538 -1.15754 0
M  V30 26702 C 2435.49 -3.03687 1.94439 0
M  V30 26703 O 2434.59 -3.92427 1.26787 0
M  V30 26704 H 2433.93 -0.513584 0.420865 0
M  V30 26705 H 2436.46 -1.11148 1.71777 0
M  V30 26706 H 2436.47 -3.53766 2.03257 0
M  V30 26707 H 2435.15 -2.89313 2.98782 0
M  V30 26708 H 2433.72 -3.50864 1.26288 0
M  V30 26709 N 2435.91 -1.12676 -1.1019 0
M  V30 26710 C 2436.84 -0.8194 -2.18651 0
M  V30 26711 C 2437.82 0.217886 -1.68699 0
M  V30 26712 O 2439 0.078524 -1.94041 0
M  V30 26713 C 2436.13 -0.276001 -3.46202 0
M  V30 26714 C 2435.09 -1.24664 -4.09442 0
M  V30 26715 C 2434.41 -0.563352 -5.31724 0
M  V30 26716 C 2435.71 -2.60225 -4.52858 0
M  V30 26717 H 2437.41 -1.72632 -2.44619 0
M  V30 26718 H 2434.95 -0.831472 -1.17569 0
M  V30 26719 H 2436.91 -0.048689 -4.21372 0
M  V30 26720 H 2435.63 0.666275 -3.19732 0
M  V30 26721 H 2434.29 -1.4598 -3.36282 0
M  V30 26722 H 2433.94 0.384147 -5.01531 0
M  V30 26723 H 2433.64 -1.21085 -5.74989 0
M  V30 26724 H 2435.16 -0.345137 -6.09624 0
M  V30 26725 H 2436.58 -2.42922 -5.1929 0
M  V30 26726 H 2434.97 -3.21077 -5.06981 0
M  V30 26727 H 2436.04 -3.18478 -3.6565 0
M  V30 26728 N 2437.39 1.28028 -0.919057 0
M  V30 26729 C 2438.32 2.29532 -0.428622 0
M  V30 26730 C 2439.3 1.62382 0.506561 0
M  V30 26731 O 2440.48 1.89754 0.413162 0
M  V30 26732 C 2437.61 3.45754 0.327328 0
M  V30 26733 C 2436.57 4.24839 -0.519212 0
M  V30 26734 C 2435.89 5.3345 0.365393 0
M  V30 26735 C 2437.19 4.91061 -1.77923 0
M  V30 26736 H 2438.89 2.70805 -1.27692 0
M  V30 26737 H 2436.43 1.30185 -0.615451 0
M  V30 26738 H 2438.39 4.15856 0.681305 0
M  V30 26739 H 2437.11 3.03376 1.20957 0
M  V30 26740 H 2435.77 3.56472 -0.855779 0
M  V30 26741 H 2435.42 4.87314 1.24634 0
M  V30 26742 H 2435.12 5.87268 -0.197459 0
M  V30 26743 H 2436.64 6.06398 0.715134 0
M  V30 26744 H 2438.05 5.53496 -1.49384 0
M  V30 26745 H 2436.45 5.54898 -2.2849 0
M  V30 26746 H 2437.52 4.15251 -2.50389 0
M  V30 26747 N 2438.86 0.683613 1.42002 0
M  V30 26748 C 2439.81 0.0107714 2.30797 0
M  V30 26749 C 2440.78 -0.783662 1.46451 0
M  V30 26750 O 2441.97 -0.754125 1.75264 0
M  V30 26751 C 2439.11 -0.928247 3.32382 0
M  V30 26752 C 2438.22 -0.1267 4.31814 0
M  V30 26753 C 2437.35 -1.06227 5.2047 0
M  V30 26754 C 2436.39 -0.252927 6.11577 0
M  V30 26755 N 2435.53 -1.14167 6.92756 0
M  V30 26756 H 2440.37 0.773778 2.87779 0
M  V30 26757 H 2437.91 0.393307 1.41744 0
M  V30 26758 H 2439.87 -1.48659 3.89816 0
M  V30 26759 H 2438.5 -1.65778 2.76979 0
M  V30 26760 H 2437.55 0.548396 3.76426 0
M  V30 26761 H 2438.86 0.501279 4.96275 0
M  V30 26762 H 2438.01 -1.69025 5.8268 0
M  V30 26763 H 2436.75 -1.72412 4.56207 0
M  V30 26764 H 2435.76 0.388204 5.48428 0
M  V30 26765 H 2436.98 0.404958 6.77892 0
M  V30 26766 H 2434.93 -1.78976 6.31113 0
M  V30 26767 H 2434.85 -0.568979 7.53856 0
M  V30 26768 H 2436.11 -1.75684 7.59444 0
M  V30 26769 N 2440.34 -1.5169 0.427538 0
M  V30 26770 C 2441.62 -1.94558 -0.20165 0
M  V30 26771 C 2442 -1.36562 -1.60979 0
M  V30 26772 O 2441.35 -0.548741 -2.21813 0
M  V30 26773 C 2441.56 -3.48486 -0.189333 0
M  V30 26774 C 2442.91 -4.22714 -0.399706 0
M  V30 26775 O 2443.93 -3.55191 -0.267882 0
M  V30 26776 O 2442.79 -5.42486 -0.661153 0
M  V30 26777 H 2439.88 -0.815866 -0.135247 0
M  V30 26778 H 2442.43 -1.62627 0.484811 0
M  V30 26779 H 2441.2 -3.83129 0.795498 0
M  V30 26780 H 2440.82 -3.86831 -0.919119 0
M  V30 26781 N 2441.82 -0.15856 -1.568 0
M  V30 26782 C 2443.05 0.496268 -2.0086 0
M  V30 26783 C 2443.46 1.57657 -1.03873 0
M  V30 26784 O 2442.82 1.82461 -0.0375485 0
M  V30 26785 C 2442.87 1.08632 -3.44792 0
M  V30 26786 O 2442.59 0.0491552 -4.38072 0
M  V30 26787 C 2444.09 1.82063 -4.04188 0
M  V30 26788 H 2441.31 0.128187 -0.658642 0
M  V30 26789 H 2443.86 -0.256542 -2.02884 0
M  V30 26790 H 2442.01 1.78969 -3.43582 0
M  V30 26791 H 2442.43 0.48301 -5.22271 0
M  V30 26792 H 2443.9 2.18624 -5.0686 0
M  V30 26793 H 2444.38 2.71089 -3.45554 0
M  V30 26794 H 2444.98 1.16397 -4.09062 0
M  V30 26795 N 2443.3 1.57178 0.115204 0
M  V30 26796 C 2444.23 1.97271 1.16691 0
M  V30 26797 C 2445.24 0.872526 1.37444 0
M  V30 26798 O 2446.43 1.15079 1.36452 0
M  V30 26799 C 2443.53 2.25909 2.52623 0
M  V30 26800 C 2442.71 3.57215 2.5242 0
M  V30 26801 C 2441.77 3.74022 3.70127 0
M  V30 26802 O 2440.79 4.46093 3.53538 0
M  V30 26803 N 2441.99 3.13077 4.88839 0
M  V30 26804 H 2444.76 2.88097 0.82583 0
M  V30 26805 H 2442.32 1.59012 0.304433 0
M  V30 26806 H 2444.31 2.34364 3.29932 0
M  V30 26807 H 2442.88 1.41191 2.78898 0
M  V30 26808 H 2442.1 3.59913 1.60798 0
M  V30 26809 H 2443.39 4.43514 2.49345 0
M  V30 26810 H 2442.79 2.54498 5.0522 0
M  V30 26811 H 2441.34 3.27047 5.63811 0
M  V30 26812 N 2444.78 -0.38549 1.52813 0
M  V30 26813 C 2446.03 -1.12738 1.67251 0
M  V30 26814 C 2446.34 -1.91026 0.420534 0
M  V30 26815 O 2447.55 -2.67826 0.445111 0
M  V30 26816 C 2446 -2.05321 2.95586 0
M  V30 26817 C 2445.61 -1.32439 4.27976 0
M  V30 26818 C 2447.35 -2.79624 3.19391 0
M  V30 26819 C 2445.26 -2.23808 5.47416 0
M  V30 26820 H 2444.19 -0.424562 0.623108 0
M  V30 26821 H 2446.84 -0.389893 1.7931 0
M  V30 26822 H 2445.22 -2.8272 2.77282 0
M  V30 26823 H 2446.4 -0.602415 4.56845 0
M  V30 26824 H 2444.71 -0.700813 4.1046 0
M  V30 26825 H 2447.31 -3.48174 4.05807 0
M  V30 26826 H 2447.65 -3.43895 2.3461 0
M  V30 26827 H 2448.19 -2.09316 3.38277 0
M  V30 26828 H 2444.92 -1.64146 6.34615 0
M  V30 26829 H 2444.44 -2.93911 5.22854 0
M  V30 26830 H 2446.12 -2.83813 5.81428 0
M  V30 26831 N 2446.26 -1.43835 -0.644143 0
M  V30 26832 C 2447.19 -1.45672 -1.76953 0
M  V30 26833 C 2448.2 -0.351694 -1.58956 0
M  V30 26834 O 2449.39 -0.616673 -1.67509 0
M  V30 26835 C 2446.49 -1.26254 -3.14505 0
M  V30 26836 C 2445.66 -2.49763 -3.59078 0
M  V30 26837 C 2444.72 -2.25435 -4.75463 0
M  V30 26838 O 2443.75 -2.98844 -4.84438 0
M  V30 26839 N 2444.95 -1.27671 -5.66287 0
M  V30 26840 H 2447.71 -2.42685 -1.75852 0
M  V30 26841 H 2445.28 -1.39108 -0.828288 0
M  V30 26842 H 2447.27 -1.07847 -3.90066 0
M  V30 26843 H 2445.84 -0.376532 -3.10324 0
M  V30 26844 H 2445.06 -2.83535 -2.73865 0
M  V30 26845 H 2446.35 -3.3194 -3.85607 0
M  V30 26846 H 2445.74 -0.670163 -5.61716 0
M  V30 26847 H 2444.3 -1.15245 -6.41531 0
M  V30 26848 N 2447.73 0.883355 -1.30517 0
M  V30 26849 C 2448.66 2.00538 -1.1961 0
M  V30 26850 C 2449.64 1.69881 -0.0863759 0
M  V30 26851 O 2450.83 1.92332 -0.268687 0
M  V30 26852 C 2447.96 3.35734 -0.888817 0
M  V30 26853 C 2446.91 3.80656 -1.95665 0
M  V30 26854 C 2446.24 5.13161 -1.50233 0
M  V30 26855 C 2447.54 3.99207 -3.36795 0
M  V30 26856 H 2449.23 2.09921 -2.13479 0
M  V30 26857 H 2446.78 1.00861 -1.02776 0
M  V30 26858 H 2448.73 4.13753 -0.799167 0
M  V30 26859 H 2447.46 3.26488 0.0855552 0
M  V30 26860 H 2446.12 3.04867 -2.03597 0
M  V30 26861 H 2445.76 5.00344 -0.51618 0
M  V30 26862 H 2445.46 5.44188 -2.21659 0
M  V30 26863 H 2446.99 5.93703 -1.4265 0
M  V30 26864 H 2448.4 4.6766 -3.31613 0
M  V30 26865 H 2446.8 4.41614 -4.06322 0
M  V30 26866 H 2447.87 3.03011 -3.78566 0
M  V30 26867 N 2449.21 1.13259 1.09591 0
M  V30 26868 C 2450.49 0.804463 1.78291 0
M  V30 26869 C 2450.87 -0.704275 1.99005 0
M  V30 26870 O 2450.22 -1.64098 1.5901 0
M  V30 26871 C 2450.43 1.58946 3.10704 0
M  V30 26872 C 2451.77 1.78106 3.85439 0
M  V30 26873 O 2452.8 1.5553 3.20451 0
M  V30 26874 O 2451.66 2.15762 5.02105 0
M  V30 26875 H 2448.75 0.293541 0.773151 0
M  V30 26876 H 2451.3 1.23711 1.16162 0
M  V30 26877 H 2450.07 2.61487 2.91101 0
M  V30 26878 H 2449.69 1.15164 3.80556 0
M  V30 26879 N 2450.69 -1.27539 0.925834 0
M  V30 26880 C 2451.97 -1.89523 0.483759 0
M  V30 26881 C 2452.35 -1.83814 -1.03806 0
M  V30 26882 O 2451.69 -1.28211 -1.89141 0
M  V30 26883 C 2451.9 -3.33524 1.02774 0
M  V30 26884 C 2453.25 -4.10447 1.08711 0
M  V30 26885 O 2454.28 -3.42533 0.977236 0
M  V30 26886 O 2453.14 -5.31869 1.25608 0
M  V30 26887 H 2450.23 -0.812287 0.155304 0
M  V30 26888 H 2452.78 -1.3582 1.0174 0
M  V30 26889 H 2451.55 -3.31964 2.07161 0
M  V30 26890 H 2451.17 -3.94745 0.475636 0
M  V30 26891 N 2452.17 -0.691135 -1.41637 0
M  V30 26892 C 2453.13 -0.0320188 -2.29178 0
M  V30 26893 C 2454.13 0.71247 -1.44154 0
M  V30 26894 O 2455.32 0.548024 -1.65355 0
M  V30 26895 C 2452.45 0.965104 -3.26953 0
M  V30 26896 H 2453.65 -0.802732 -2.88957 0
M  V30 26897 H 2451.2 -0.454382 -1.4955 0
M  V30 26898 H 2451.93 1.76374 -2.72145 0
M  V30 26899 H 2451.72 0.434454 -3.89686 0
M  V30 26900 H 2453.21 1.42421 -3.92563 0
M  V30 26901 N 2453.65 1.51461 -0.435577 0
M  V30 26902 C 2454.89 2.02372 0.131673 0
M  V30 26903 C 2455.22 1.31922 1.42514 0
M  V30 26904 O 2454.5 0.433606 1.89605 0
M  V30 26905 C 2454.78 3.58373 0.352238 0
M  V30 26906 C 2454.64 4.39441 -0.959754 0
M  V30 26907 C 2455.95 4.25537 1.12279 0
M  V30 26908 H 2453.07 0.735539 0.0463807 0
M  V30 26909 H 2455.72 1.81115 -0.574229 0
M  V30 26910 H 2453.87 3.76616 0.953534 0
M  V30 26911 H 2455.54 4.32852 -1.5949 0
M  V30 26912 H 2453.78 4.04596 -1.56475 0
M  V30 26913 H 2454.45 5.4675 -0.75949 0
M  V30 26914 H 2456.93 4.11553 0.613473 0
M  V30 26915 H 2455.8 5.34574 1.24588 0
M  V30 26916 H 2456.06 3.86277 2.15041 0
M  V30 26917 N 2455.12 0.166873 1.56714 0
M  V30 26918 C 2456.54 -0.189345 1.58473 0
M  V30 26919 C 2456.74 -1.63187 1.18204 0
M  V30 26920 O 2455.8 -2.36236 0.89157 0
M  V30 26921 C 2457.11 0.0874401 3.00573 0
M  V30 26922 C 2458.66 0.0252993 3.1299 0
M  V30 26923 C 2459.13 0.275014 4.57174 0
M  V30 26924 N 2460.62 0.222634 4.62665 0
M  V30 26925 C 2461.36 0.390086 5.72072 0
M  V30 26926 N 2460.85 0.616351 6.90053 0
M  V30 26927 N 2462.65 0.326301 5.61152 0
M  V30 26928 H 2454.8 1.10853 1.81178 0
M  V30 26929 H 2457.06 0.440357 0.839518 0
M  V30 26930 H 2456.77 1.08656 3.34495 0
M  V30 26931 H 2456.64 -0.622972 3.7202 0
M  V30 26932 H 2459.03 -0.964391 2.78897 0
M  V30 26933 H 2459.11 0.768352 2.43988 0
M  V30 26934 H 2458.75 1.26189 4.91974 0
M  V30 26935 H 2458.68 -0.488597 5.24328 0
M  V30 26936 H 2461.17 0.0532177 3.77863 0
M  V30 26937 H 2461.49 0.733694 7.69309 0
M  V30 26938 H 2459.83 0.652912 6.91926 0
M  V30 26939 H 2463.02 0.150154 4.67859 0
M  V30 26940 H 2463.2 0.46023 6.46364 0
M  V30 26941 N 2456.6 -1.57237 -0.106866 0
M  V30 26942 C 2457.57 -2.00272 -1.11462 0
M  V30 26943 C 2458.57 -0.894542 -1.33621 0
M  V30 26944 O 2459.76 -1.1603 -1.29933 0
M  V30 26945 C 2456.89 -2.35331 -2.46642 0
M  V30 26946 H 2458.08 -2.90513 -0.744465 0
M  V30 26947 H 2455.63 -1.52295 -0.35155 0
M  V30 26948 H 2456.37 -1.48008 -2.88555 0
M  V30 26949 H 2456.15 -3.16165 -2.31909 0
M  V30 26950 H 2457.64 -2.69324 -3.19146 0
M  V30 26951 N 2458.08 0.377381 -1.53015 0
M  V30 26952 C 2459.03 1.48203 -1.79273 0
M  V30 26953 C 2460.02 1.55962 -0.661222 0
M  V30 26954 O 2461.23 1.5899 -0.843936 0
M  V30 26955 H 2457.6 0.493481 -0.567433 0
M  V30 26956 H 2459.57 1.23255 -2.71755 0
M  V30 26957 C 2458.32 2.85192 -1.98899 0
M  V30 26958 H 2457.65 2.79976 -2.854 0
M  V30 26959 H 2459.09 3.61694 -2.21255 0
M  V30 26960 C 2457.55 3.28105 -0.764749 0
M  V30 26961 O 2458.08 4.01666 0.052252 0
M  V30 26962 N 2456.28 2.84516 -0.591543 0
M  V30 26963 H 2455.83 2.2482 -1.25753 0
M  V30 26964 H 2455.79 3.13585 0.226198 0
M  V30 26965 N 2459.56 1.44175 0.636506 0
M  V30 26966 C 2460.84 1.3715 1.3946 0
M  V30 26967 C 2461.22 0.0275441 2.11082 0
M  V30 26968 O 2460.56 -0.98968 2.05955 0
M  V30 26969 C 2460.77 2.56605 2.36548 0
M  V30 26970 C 2462.12 3.00433 3.00042 0
M  V30 26971 O 2463.15 2.56772 2.46874 0
M  V30 26972 O 2462 3.76118 3.96481 0
M  V30 26973 H 2459.1 0.54285 0.623893 0
M  V30 26974 H 2461.64 1.56255 0.662012 0
M  V30 26975 H 2460.42 3.46037 1.82686 0
M  V30 26976 H 2460.04 2.39687 3.17232 0
M  V30 26977 N 2461.04 -0.876421 1.30983 0
M  V30 26978 C 2462.31 -1.61092 1.10945 0
M  V30 26979 C 2462.69 -2.08373 -0.338187 0
M  V30 26980 O 2462.04 -1.85719 -1.33119 0
M  V30 26981 C 2462.25 -2.77388 2.11794 0
M  V30 26982 C 2463.6 -3.4751 2.43971 0
M  V30 26983 O 2464.62 -2.87587 2.10171 0
M  V30 26984 O 2463.48 -4.55592 3.01825 0
M  V30 26985 H 2460.58 -0.708429 0.426682 0
M  V30 26986 H 2463.12 -0.922449 1.42439 0
M  V30 26987 H 2461.89 -2.39817 3.09198 0
M  V30 26988 H 2461.52 -3.53927 1.81167 0
M  V30 26989 N 2462.51 -1.13839 -1.08989 0
M  V30 26990 C 2463.44 -0.842545 -2.17769 0
M  V30 26991 C 2464.43 0.199981 -1.6892 0
M  V30 26992 O 2465.61 0.0579389 -1.94114 0
M  V30 26993 C 2462.74 -0.312705 -3.45889 0
M  V30 26994 C 2461.69 -1.28999 -4.08097 0
M  V30 26995 C 2461.02 -0.619716 -5.31097 0
M  V30 26996 C 2462.32 -2.65013 -4.50073 0
M  V30 26997 H 2464.01 -1.75217 -2.42774 0
M  V30 26998 H 2461.56 -0.843895 -1.16681 0
M  V30 26999 H 2463.51 -0.0933784 -4.21297 0
M  V30 27000 H 2462.24 0.632326 -3.2042 0
M  V30 27001 H 2460.9 -1.49539 -3.34714 0
M  V30 27002 H 2460.54 0.330931 -5.0191 0
M  V30 27003 H 2460.24 -1.27177 -5.73672 0
M  V30 27004 H 2461.77 -0.409776 -6.09223 0
M  V30 27005 H 2463.18 -2.48416 -5.16684 0
M  V30 27006 H 2461.58 -3.26436 -5.03547 0
M  V30 27007 H 2462.65 -3.22338 -3.62252 0
M  V30 27008 N 2463.99 1.27046 -0.932584 0
M  V30 27009 C 2464.94 2.26681 -0.434112 0
M  V30 27010 C 2465.91 1.58345 0.501611 0
M  V30 27011 O 2467.09 1.86127 0.419701 0
M  V30 27012 C 2464.23 3.43771 0.302549 0
M  V30 27013 C 2463.35 4.26806 -0.667849 0
M  V30 27014 C 2462.48 5.31125 0.0891459 0
M  V30 27015 C 2461.52 6.05833 -0.873639 0
M  V30 27016 N 2460.66 7.01942 -0.148955 0
M  V30 27017 H 2465.5 2.68693 -1.28873 0
M  V30 27018 H 2463.04 1.3212 -0.646736 0
M  V30 27019 H 2464.99 4.10476 0.74602 0
M  V30 27020 H 2463.62 3.02697 1.12136 0
M  V30 27021 H 2462.68 3.59971 -1.22984 0
M  V30 27022 H 2463.99 4.78649 -1.40345 0
M  V30 27023 H 2463.14 6.03802 0.592303 0
M  V30 27024 H 2461.88 4.80099 0.857686 0
M  V30 27025 H 2460.89 5.31991 -1.388 0
M  V30 27026 H 2462.11 6.58949 -1.64204 0
M  V30 27027 H 2460.06 6.53239 0.60125 0
M  V30 27028 H 2459.97 7.51496 -0.824042 0
M  V30 27029 H 2461.24 7.78787 0.33339 0
M  V30 27030 N 2465.47 0.698636 1.41269 0
M  V30 27031 C 2466.38 0.0358304 2.34573 0
M  V30 27032 C 2467.4 -0.762673 1.56395 0
M  V30 27033 O 2468.57 -0.69953 1.88861 0
M  V30 27034 C 2465.64 -0.887031 3.35161 0
M  V30 27035 C 2464.7 -0.0803879 4.29225 0
M  V30 27036 C 2463.93 -0.959295 5.25008 0
M  V30 27037 O 2464.15 -2.19877 5.26318 0
M  V30 27038 O 2463.09 -0.407334 6.0052 0
M  V30 27039 H 2466.91 0.805009 2.92837 0
M  V30 27040 H 2464.5 0.458991 1.42175 0
M  V30 27041 H 2466.38 -1.41614 3.96892 0
M  V30 27042 H 2465.06 -1.63565 2.79335 0
M  V30 27043 H 2463.96 0.493394 3.70832 0
M  V30 27044 H 2465.3 0.629632 4.88156 0
M  V30 27045 N 2466.95 -1.51228 0.443603 0
M  V30 27046 C 2467.9 -2.29492 -0.378999 0
M  V30 27047 C 2468.89 -1.35604 -1.01527 0
M  V30 27048 O 2470.1 -1.52918 -0.949523 0
M  V30 27049 H 2466.47 -0.738655 -0.14104 0
M  V30 27050 H 2468.44 -2.96869 0.301851 0
M  V30 27051 C 2467.19 -3.15367 -1.4642 0
M  V30 27052 H 2466.51 -3.87502 -0.983969 0
M  V30 27053 H 2467.95 -3.73173 -2.0129 0
M  V30 27054 C 2466.41 -2.3115 -2.45095 0
M  V30 27055 O 2466.94 -1.97546 -3.49769 0
M  V30 27056 N 2465.15 -1.94252 -2.16135 0
M  V30 27057 H 2464.7 -2.2178 -1.3104 0
M  V30 27058 H 2464.65 -1.38203 -2.82396 0
M  V30 27059 N 2468.43 -0.175182 -1.56623 0
M  V30 27060 C 2469.68 0.468887 -1.96174 0
M  V30 27061 C 2469.99 1.64127 -1.06404 0
M  V30 27062 O 2471.19 2.35182 -1.35652 0
M  V30 27063 C 2469.65 0.885572 -3.48835 0
M  V30 27064 C 2469.26 -0.261422 -4.47237 0
M  V30 27065 C 2471 1.49784 -3.97196 0
M  V30 27066 C 2468.91 0.17511 -5.91141 0
M  V30 27067 H 2467.84 0.178945 -0.732458 0
M  V30 27068 H 2470.49 -0.264029 -1.81591 0
M  V30 27069 H 2468.87 1.67458 -3.58851 0
M  V30 27070 H 2470.05 -1.03879 -4.48939 0
M  V30 27071 H 2468.36 -0.783898 -4.08955 0
M  V30 27072 H 2470.96 1.83656 -5.0217 0
M  V30 27073 H 2471.3 2.39716 -3.40355 0
M  V30 27074 H 2471.83 0.773199 -3.90213 0
M  V30 27075 H 2468.57 -0.689529 -6.51863 0
M  V30 27076 H 2468.09 0.917756 -5.92737 0
M  V30 27077 H 2469.77 0.617679 -6.44045 0
M  V30 27078 N 2469.91 1.57292 0.0985263 0
M  V30 27079 C 2470.87 2.0086 1.10398 0
M  V30 27080 C 2471.87 0.901616 1.33145 0
M  V30 27081 O 2473.06 1.16718 1.29316 0
M  V30 27082 C 2470.19 2.36636 2.4539 0
M  V30 27083 H 2471.38 2.90904 0.729048 0
M  V30 27084 H 2468.94 1.52479 0.343468 0
M  V30 27085 H 2469.67 1.49536 2.87766 0
M  V30 27086 H 2469.46 3.17391 2.30229 0
M  V30 27087 H 2470.95 2.71013 3.17713 0
M  V30 27088 N 2471.38 -0.369261 1.53213 0
M  V30 27089 C 2472.63 -1.10958 1.68438 0
M  V30 27090 C 2472.95 -1.90569 0.440771 0
M  V30 27091 O 2474.15 -2.67339 0.473493 0
M  V30 27092 C 2472.61 -2.02174 2.97747 0
M  V30 27093 C 2472.22 -1.27892 4.29357 0
M  V30 27094 C 2473.96 -2.76221 3.22339 0
M  V30 27095 C 2471.87 -2.17989 5.49759 0
M  V30 27096 H 2470.8 -0.417929 0.627576 0
M  V30 27097 H 2473.45 -0.370853 1.79713 0
M  V30 27098 H 2471.83 -2.79763 2.80265 0
M  V30 27099 H 2473 -0.553926 4.57459 0
M  V30 27100 H 2471.32 -0.657239 4.1118 0
M  V30 27101 H 2473.92 -3.4385 4.09477 0
M  V30 27102 H 2474.26 -3.41387 2.38244 0
M  V30 27103 H 2474.79 -2.05717 3.40478 0
M  V30 27104 H 2471.53 -1.57406 6.3632 0
M  V30 27105 H 2471.05 -2.88349 5.25942 0
M  V30 27106 H 2472.73 -2.77631 5.84406 0
M  V30 27107 N 2472.86 -1.4451 -0.628851 0
M  V30 27108 C 2474.11 -1.47632 -1.39042 0
M  V30 27109 C 2474.44 -0.109377 -1.93892 0
M  V30 27110 O 2473.72 0.87331 -1.73792 0
M  V30 27111 C 2474 -2.53852 -2.55404 0
M  V30 27112 C 2473.85 -3.99912 -2.05889 0
M  V30 27113 C 2475.17 -2.56555 -3.57586 0
M  V30 27114 H 2472.29 -0.537521 -0.504222 0
M  V30 27115 H 2474.93 -1.76202 -0.710823 0
M  V30 27116 H 2473.08 -2.2962 -3.1338 0
M  V30 27117 H 2474.75 -4.35284 -1.52726 0
M  V30 27118 H 2473 -4.11581 -1.37054 0
M  V30 27119 H 2473.67 -4.69887 -2.89673 0
M  V30 27120 H 2476.14 -2.78213 -3.09414 0
M  V30 27121 H 2475.02 -3.32777 -4.36521 0
M  V30 27122 H 2475.28 -1.60839 -4.11805 0
M  V30 27123 N 2474.34 0.869463 -1.31446 0
M  V30 27124 C 2475.25 2.00927 -1.211 0
M  V30 27125 C 2476.27 1.73531 -0.127615 0
M  V30 27126 O 2477.44 1.98414 -0.345512 0
M  V30 27127 C 2474.51 3.34286 -0.919437 0
M  V30 27128 C 2473.57 3.75002 -2.08978 0
M  V30 27129 C 2472.8 5.01997 -1.81202 0
M  V30 27130 O 2473.02 5.65482 -0.747395 0
M  V30 27131 O 2471.96 5.39492 -2.66893 0
M  V30 27132 H 2475.78 2.12588 -2.16887 0
M  V30 27133 H 2473.37 0.997848 -1.11191 0
M  V30 27134 H 2475.25 4.14255 -0.772698 0
M  V30 27135 H 2473.93 3.23699 0.00839082 0
M  V30 27136 H 2472.83 2.95672 -2.29192 0
M  V30 27137 H 2474.17 3.90216 -2.99987 0
M  V30 27138 N 2475.82 1.14415 1.08383 0
M  V30 27139 C 2477.23 0.884586 1.32843 0
M  V30 27140 C 2477.43 -0.474146 1.95842 0
M  V30 27141 O 2476.49 -1.21838 2.2116 0
M  V30 27142 C 2477.8 2.01749 2.22975 0
M  V30 27143 C 2479.35 2.05082 2.36454 0
M  V30 27144 C 2479.83 3.17665 3.29928 0
M  V30 27145 N 2481.32 3.17245 3.37505 0
M  V30 27146 C 2482.05 4.00998 4.09864 0
M  V30 27147 N 2481.55 4.9479 4.84928 0
M  V30 27148 N 2483.34 3.89058 4.05698 0
M  V30 27149 H 2475.49 2.01927 0.658721 0
M  V30 27150 H 2477.75 0.879905 0.352805 0
M  V30 27151 H 2477.46 2.99772 1.83929 0
M  V30 27152 H 2477.33 1.94082 3.23438 0
M  V30 27153 H 2479.72 1.07665 2.74758 0
M  V30 27154 H 2479.8 2.16819 1.35733 0
M  V30 27155 H 2479.45 4.15327 2.92345 0
M  V30 27156 H 2479.38 3.03165 4.30579 0
M  V30 27157 H 2481.87 2.49313 2.83992 0
M  V30 27158 H 2482.18 5.55161 5.37603 0
M  V30 27159 H 2480.53 4.98787 4.8398 0
M  V30 27160 H 2483.72 3.15103 3.46161 0
M  V30 27161 H 2483.89 4.54555 4.61826 0
M  V30 27162 N 2477.3 -1.26549 0.939309 0
M  V30 27163 C 2478.71 -1.46148 0.64133 0
M  V30 27164 C 2478.91 -1.84681 -0.805931 0
M  V30 27165 O 2477.97 -1.96737 -1.58275 0
M  V30 27166 C 2479.28 -2.54526 1.60115 0
M  V30 27167 C 2480.83 -2.68379 1.61064 0
M  V30 27168 C 2481.3 -3.79927 2.55772 0
M  V30 27169 N 2482.79 -3.87317 2.54046 0
M  V30 27170 C 2483.53 -4.73079 3.24012 0
M  V30 27171 N 2483.03 -5.63242 4.03398 0
M  V30 27172 N 2484.82 -4.66909 3.12974 0
M  V30 27173 H 2476.97 -0.998252 1.8748 0
M  V30 27174 H 2479.23 -0.499764 0.805568 0
M  V30 27175 H 2478.94 -2.33034 2.63416 0
M  V30 27176 H 2478.81 -3.52146 1.35177 0
M  V30 27177 H 2481.2 -2.89246 0.584886 0
M  V30 27178 H 2481.28 -1.71209 1.90056 0
M  V30 27179 H 2480.92 -3.59813 3.58465 0
M  V30 27180 H 2480.85 -4.7655 2.24071 0
M  V30 27181 H 2483.35 -3.22854 1.96401 0
M  V30 27182 H 2483.66 -6.25571 4.53741 0
M  V30 27183 H 2482 -5.63 4.07499 0
M  V30 27184 H 2485.19 -3.95472 2.50439 0
M  V30 27185 H 2485.37 -5.33526 3.67769 0
M  V30 27186 N 2478.77 -0.706118 -1.40896 0
M  V30 27187 C 2479.72 -0.0362302 -2.32572 0
M  V30 27188 C 2480.72 0.75724 -1.51533 0
M  V30 27189 O 2481.92 0.661674 -1.67397 0
M  V30 27190 H 2478.3 0.00708613 -0.751967 0
M  V30 27191 H 2480.27 -0.826299 -2.86731 0
M  V30 27192 C 2479.02 0.878481 -3.36419 0
M  V30 27193 H 2478.34 0.277331 -3.98837 0
M  V30 27194 H 2479.78 1.31533 -4.03082 0
M  V30 27195 C 2478.24 1.99956 -2.71144 0
M  V30 27196 O 2478.77 3.08945 -2.56741 0
M  V30 27197 N 2476.97 1.78039 -2.29674 0
M  V30 27198 H 2476.52 0.893999 -2.41589 0
M  V30 27199 H 2476.48 2.53231 -1.86336 0
M  V30 27200 N 2480.25 1.50991 -0.451617 0
M  V30 27201 C 2481.2 2.29689 0.366823 0
M  V30 27202 C 2482.19 1.36141 1.00807 0
M  V30 27203 O 2483.4 1.5342 0.9414 0
M  V30 27204 H 2479.77 0.739393 0.13712 0
M  V30 27205 H 2481.75 2.96705 -0.317591 0
M  V30 27206 C 2480.49 3.16139 1.44746 0
M  V30 27207 H 2479.82 3.88019 0.963405 0
M  V30 27208 H 2481.26 3.74235 1.99308 0
M  V30 27209 C 2479.72 2.32446 2.43865 0
M  V30 27210 O 2480.25 1.99398 3.48717 0
M  V30 27211 N 2478.45 1.95396 2.15102 0
M  V30 27212 H 2478 2.22471 1.29862 0
M  V30 27213 H 2477.96 1.39698 2.81659 0
M  V30 27214 N 2481.73 0.183486 1.56528 0
M  V30 27215 C 2482.66 -0.737417 2.2155 0
M  V30 27216 C 2483.64 -1.23003 1.17492 0
M  V30 27217 O 2484.83 -1.28098 1.45961 0
M  V30 27218 C 2481.96 -1.96189 2.86578 0
M  V30 27219 C 2480.91 -1.60466 3.9678 0
M  V30 27220 C 2480.24 -2.90479 4.48917 0
M  V30 27221 C 2481.54 -0.823406 5.15769 0
M  V30 27222 H 2483.23 -0.195401 2.98762 0
M  V30 27223 H 2480.78 -0.0925433 1.43702 0
M  V30 27224 H 2482.73 -2.61125 3.30744 0
M  V30 27225 H 2481.45 -2.52825 2.06754 0
M  V30 27226 H 2480.11 -0.978935 3.53288 0
M  V30 27227 H 2479.76 -3.4518 3.65869 0
M  V30 27228 H 2479.46 -2.67326 5.23269 0
M  V30 27229 H 2480.98 -3.56423 4.95777 0
M  V30 27230 H 2482.4 -1.37561 5.56552 0
M  V30 27231 H 2480.79 -0.690446 5.96115 0
M  V30 27232 H 2481.86 0.177867 4.84574 0
M  V30 27233 N 2483.21 -1.57342 -0.0901833 0
M  V30 27234 C 2484.14 -2.05444 -1.10972 0
M  V30 27235 C 2485.12 -0.944308 -1.41481 0
M  V30 27236 O 2486.3 -1.21589 -1.51426 0
M  V30 27237 C 2483.43 -2.483 -2.42826 0
M  V30 27238 C 2482.39 -3.63022 -2.26714 0
M  V30 27239 C 2481.71 -3.9187 -3.63789 0
M  V30 27240 C 2483.01 -4.93735 -1.70361 0
M  V30 27241 H 2484.71 -2.90872 -0.709513 0
M  V30 27242 H 2482.25 -1.39932 -0.339849 0
M  V30 27243 H 2484.21 -2.80561 -3.14426 0
M  V30 27244 H 2482.93 -1.59878 -2.84792 0
M  V30 27245 H 2481.59 -3.31015 -1.57559 0
M  V30 27246 H 2481.24 -3.00608 -4.03291 0
M  V30 27247 H 2480.94 -4.69108 -3.53853 0
M  V30 27248 H 2482.46 -4.2661 -4.36848 0
M  V30 27249 H 2483.88 -5.24346 -2.31807 0
M  V30 27250 H 2482.27 -5.7517 -1.71171 0
M  V30 27251 H 2483.34 -4.8034 -0.663458 0
M  V30 27252 N 2484.69 0.36113 -1.53407 0
M  V30 27253 C 2485.62 1.46282 -1.76449 0
M  V30 27254 C 2486.63 1.49463 -0.645348 0
M  V30 27255 O 2487.82 1.52862 -0.921708 0
M  V30 27256 C 2484.92 2.85028 -1.83337 0
M  V30 27257 C 2484.09 3.05492 -3.13039 0
M  V30 27258 C 2483.15 4.24377 -3.11112 0
M  V30 27259 O 2482.18 4.19338 -3.84896 0
M  V30 27260 N 2483.38 5.32018 -2.32243 0
M  V30 27261 H 2486.15 1.26894 -2.71511 0
M  V30 27262 H 2483.71 0.550888 -1.52239 0
M  V30 27263 H 2485.7 3.62705 -1.7952 0
M  V30 27264 H 2484.27 2.97642 -0.955395 0
M  V30 27265 H 2483.49 2.15436 -3.30122 0
M  V30 27266 H 2484.78 3.16037 -3.98746 0
M  V30 27267 H 2484.17 5.38976 -1.71816 0
M  V30 27268 H 2482.73 6.08255 -2.34241 0
M  V30 27269 N 2486.16 1.44842 0.621179 0
M  V30 27270 C 2487.13 1.52103 1.71457 0
M  V30 27271 C 2488.13 0.40196 1.55695 0
M  V30 27272 O 2489.32 0.664953 1.61009 0
M  V30 27273 C 2486.45 1.40453 3.10622 0
M  V30 27274 H 2487.64 2.49509 1.66389 0
M  V30 27275 H 2485.2 1.32081 0.835721 0
M  V30 27276 H 2485.93 0.441793 3.21277 0
M  V30 27277 H 2485.72 2.21608 3.23469 0
M  V30 27278 H 2487.21 1.48537 3.9029 0
M  V30 27279 N 2487.64 -0.862479 1.31905 0
M  V30 27280 C 2488.55 -2.00282 1.22164 0
M  V30 27281 C 2489.57 -1.73461 0.136816 0
M  V30 27282 O 2490.74 -1.98228 0.356029 0
M  V30 27283 C 2487.81 -3.33794 0.937152 0
M  V30 27284 C 2486.87 -3.73889 2.10963 0
M  V30 27285 C 2486.1 -5.01029 1.83862 0
M  V30 27286 O 2486.33 -5.65078 0.777373 0
M  V30 27287 O 2485.26 -5.38069 2.6975 0
M  V30 27288 H 2489.09 -2.11435 2.18011 0
M  V30 27289 H 2486.67 -0.991937 1.11718 0
M  V30 27290 H 2488.55 -4.1384 0.794656 0
M  V30 27291 H 2487.23 -3.23699 0.00877584 0
M  V30 27292 H 2486.14 -2.94452 2.30757 0
M  V30 27293 H 2487.47 -3.88619 3.02053 0
M  V30 27294 N 2489.12 -1.14988 -1.07775 0
M  V30 27295 C 2490.05 -0.865595 -2.16863 0
M  V30 27296 C 2491.03 0.182053 -1.69123 0
M  V30 27297 O 2492.22 0.0373473 -1.94164 0
M  V30 27298 C 2489.35 -0.349373 -3.45538 0
M  V30 27299 C 2488.3 -1.3332 -4.06706 0
M  V30 27300 C 2487.63 -0.676011 -5.30409 0
M  V30 27301 C 2488.93 -2.69772 -4.47236 0
M  V30 27302 H 2490.62 -1.77782 -2.40902 0
M  V30 27303 H 2488.17 -0.856223 -1.15779 0
M  V30 27304 H 2490.12 -0.138057 -4.21174 0
M  V30 27305 H 2488.84 0.598306 -3.21073 0
M  V30 27306 H 2487.5 -1.53081 -3.33109 0
M  V30 27307 H 2487.15 0.277679 -5.02233 0
M  V30 27308 H 2486.85 -1.33254 -5.72291 0
M  V30 27309 H 2488.37 -0.474369 -6.08755 0
M  V30 27310 H 2489.79 -2.53882 -5.1402 0
M  V30 27311 H 2488.19 -3.31759 -5.00056 0
M  V30 27312 H 2489.26 -3.26162 -3.58812 0
M  V30 27313 N 2490.6 1.26049 -0.946007 0
M  V30 27314 C 2491.51 2.29932 -0.465673 0
M  V30 27315 C 2492.52 1.67734 0.462731 0
M  V30 27316 O 2493.7 1.98491 0.341083 0
M  V30 27317 C 2490.77 3.45747 0.256933 0
M  V30 27318 C 2489.83 4.23411 -0.708623 0
M  V30 27319 C 2489.06 5.33696 -0.0204074 0
M  V30 27320 O 2489.28 5.57729 1.19562 0
M  V30 27321 O 2488.22 5.97797 -0.701564 0
M  V30 27322 H 2492.04 2.73092 -1.32871 0
M  V30 27323 H 2489.63 1.31338 -0.712094 0
M  V30 27324 H 2491.51 4.16139 0.663779 0
M  V30 27325 H 2490.18 3.04607 1.09528 0
M  V30 27326 H 2489.09 3.55481 -1.16551 0
M  V30 27327 H 2490.42 4.68313 -1.51473 0
M  V30 27328 N 2492.08 0.71358 1.4052 0
M  V30 27329 C 2492.99 0.0607079 2.34521 0
M  V30 27330 C 2494 -0.746043 1.57195 0
M  V30 27331 O 2495.18 -0.67946 1.89592 0
M  V30 27332 C 2492.24 -0.851432 3.36083 0
M  V30 27333 C 2491.3 -0.0348584 4.29286 0
M  V30 27334 C 2490.54 -0.903557 5.25996 0
M  V30 27335 O 2490.76 -2.14282 5.2862 0
M  V30 27336 O 2489.69 -0.343618 6.00918 0
M  V30 27337 H 2493.52 0.836023 2.91966 0
M  V30 27338 H 2491.11 0.474045 1.4168 0
M  V30 27339 H 2492.99 -1.37397 3.98372 0
M  V30 27340 H 2491.66 -1.60593 2.81055 0
M  V30 27341 H 2490.57 0.532698 3.70288 0
M  V30 27342 H 2491.9 0.681372 4.87461 0
M  V30 27343 N 2493.55 -1.50749 0.459618 0
M  V30 27344 C 2494.48 -2.31148 -0.330604 0
M  V30 27345 C 2495.47 -1.37539 -1.00085 0
M  V30 27346 O 2496.65 -1.66461 -1.00022 0
M  V30 27347 C 2493.78 -3.16965 -1.41952 0
M  V30 27348 C 2492.73 -4.19033 -0.871534 0
M  V30 27349 C 2492.06 -4.93513 -2.05788 0
M  V30 27350 C 2493.36 -5.22186 0.109343 0
M  V30 27351 H 2495.05 -2.97459 0.340388 0
M  V30 27352 H 2492.6 -1.4305 0.165144 0
M  V30 27353 H 2494.55 -3.72001 -1.97973 0
M  V30 27354 H 2493.28 -2.48517 -2.11912 0
M  V30 27355 H 2491.94 -3.65081 -0.333378 0
M  V30 27356 H 2491.58 -4.21548 -2.74419 0
M  V30 27357 H 2491.28 -5.62547 -1.6975 0
M  V30 27358 H 2492.81 -5.5138 -2.62321 0
M  V30 27359 H 2494.22 -5.7216 -0.361304 0
M  V30 27360 H 2492.62 -5.98874 0.383421 0
M  V30 27361 H 2493.69 -4.73639 1.03896 0
M  V30 27362 N 2495.03 -0.191784 -1.56429 0
M  V30 27363 C 2496.45 0.164109 -1.58754 0
M  V30 27364 C 2496.65 1.61286 -1.20785 0
M  V30 27365 O 2495.7 2.34787 -0.92904 0
M  V30 27366 C 2497.02 -0.135248 -3.00396 0
M  V30 27367 C 2498.57 -0.0750901 -3.1291 0
M  V30 27368 C 2499.04 -0.347712 -4.56678 0
M  V30 27369 N 2500.53 -0.296212 -4.62252 0
M  V30 27370 C 2501.27 -0.481048 -5.71379 0
M  V30 27371 N 2500.76 -0.726054 -6.88985 0
M  V30 27372 N 2502.56 -0.415534 -5.60562 0
M  V30 27373 H 2494.71 -1.13721 -1.79391 0
M  V30 27374 H 2496.97 -0.453657 -0.832406 0
M  V30 27375 H 2496.68 -1.13964 -3.32724 0
M  V30 27376 H 2496.55 0.563708 -3.72964 0
M  V30 27377 H 2498.94 0.919899 -2.80396 0
M  V30 27378 H 2499.02 -0.807071 -2.42734 0
M  V30 27379 H 2498.66 -1.34 -4.89904 0
M  V30 27380 H 2498.59 0.40512 -5.25039 0
M  V30 27381 H 2501.08 -0.113326 -3.7773 0
M  V30 27382 H 2501.4 -0.855992 -7.68045 0
M  V30 27383 H 2499.74 -0.762909 -6.908 0
M  V30 27384 H 2502.93 -0.224568 -4.67561 0
M  V30 27385 H 2503.1 -0.563002 -6.4555 0
M  V30 27386 N 2496.51 1.57387 0.0818378 0
M  V30 27387 C 2497.47 2.0202 1.08262 0
M  V30 27388 C 2498.47 0.915687 1.32181 0
M  V30 27389 O 2499.66 1.18083 1.28071 0
M  V30 27390 C 2496.8 2.39225 2.42866 0
M  V30 27391 H 2497.99 2.9166 0.698153 0
M  V30 27392 H 2495.54 1.52835 0.327276 0
M  V30 27393 H 2496.28 1.5258 2.86164 0
M  V30 27394 H 2496.06 3.19815 2.2685 0
M  V30 27395 H 2497.55 2.74367 3.14821 0
M  V30 27396 N 2497.99 -0.35299 1.53596 0
M  V30 27397 C 2499.23 -1.0959 1.7064 0
M  V30 27398 C 2499.57 -1.88592 0.463319 0
M  V30 27399 O 2498.84 -1.86866 -0.539564 0
M  V30 27400 C 2499.13 -2.04484 2.96409 0
M  V30 27401 C 2498.98 -1.29007 4.30903 0
M  V30 27402 C 2500.3 -3.04434 3.17817 0
M  V30 27403 H 2497.42 -0.397023 0.62092 0
M  V30 27404 H 2500.06 -0.375413 1.86254 0
M  V30 27405 H 2498.21 -2.65922 2.83228 0
M  V30 27406 H 2499.88 -0.702558 4.55919 0
M  V30 27407 H 2498.12 -0.591996 4.29742 0
M  V30 27408 H 2498.79 -1.98528 5.15064 0
M  V30 27409 H 2501.27 -2.53106 3.30267 0
M  V30 27410 H 2500.15 -3.68042 4.0723 0
M  V30 27411 H 2500.41 -3.75297 2.33676 0
M  V30 27412 N 2499.47 -1.45169 -0.613489 0
M  V30 27413 C 2500.71 -1.49098 -1.37469 0
M  V30 27414 C 2501.05 -0.129935 -1.93765 0
M  V30 27415 O 2500.32 0.854827 -1.74708 0
M  V30 27416 C 2500.6 -2.56547 -2.52697 0
M  V30 27417 C 2500.46 -4.02074 -2.01636 0
M  V30 27418 C 2501.78 -2.60333 -3.54844 0
M  V30 27419 H 2498.9 -0.542839 -0.498493 0
M  V30 27420 H 2501.54 -1.76946 -0.692094 0
M  V30 27421 H 2499.69 -2.32931 -3.10927 0
M  V30 27422 H 2501.36 -4.3688 -1.481 0
M  V30 27423 H 2499.6 -4.13011 -1.32681 0
M  V30 27424 H 2500.27 -4.72933 -2.84673 0
M  V30 27425 H 2502.75 -2.81479 -3.06445 0
M  V30 27426 H 2501.63 -3.37388 -4.32967 0
M  V30 27427 H 2501.89 -1.65198 -4.10076 0
M  V30 27428 N 2500.95 0.855472 -1.32361 0
M  V30 27429 C 2501.86 1.99632 -1.23225 0
M  V30 27430 C 2502.87 1.73386 -0.146013 0
M  V30 27431 O 2504.05 1.98037 -0.366537 0
M  V30 27432 C 2501.11 3.33292 -0.95484 0
M  V30 27433 C 2500.17 3.72765 -2.12943 0
M  V30 27434 C 2499.41 5.00047 -1.86517 0
M  V30 27435 O 2499.63 5.64658 -0.80733 0
M  V30 27436 O 2498.56 5.36631 -2.726 0
M  V30 27437 H 2502.39 2.10276 -2.1913 0
M  V30 27438 H 2499.97 0.985999 -1.12243 0
M  V30 27439 H 2501.86 4.13412 -0.816592 0
M  V30 27440 H 2500.53 3.2369 -0.0259423 0
M  V30 27441 H 2499.44 2.93224 -2.32315 0
M  V30 27442 H 2500.77 3.87012 -3.04109 0
M  V30 27443 N 2502.42 1.15558 1.07164 0
M  V30 27444 C 2503.36 0.811853 2.1434 0
M  V30 27445 C 2504.37 -0.176986 1.61835 0
M  V30 27446 O 2505.56 0.0465309 1.78439 0
M  V30 27447 C 2502.66 0.18654 3.38386 0
M  V30 27448 C 2501.83 1.21328 4.20236 0
M  V30 27449 C 2500.89 0.609394 5.22659 0
M  V30 27450 O 2499.92 1.27586 5.54717 0
M  V30 27451 N 2501.12 -0.607997 5.77307 0
M  V30 27452 H 2503.88 1.73421 2.44428 0
M  V30 27453 H 2501.44 1.05172 1.23087 0
M  V30 27454 H 2503.44 -0.230268 4.04044 0
M  V30 27455 H 2502.01 -0.639195 3.05995 0
M  V30 27456 H 2501.23 1.80658 3.50366 0
M  V30 27457 H 2502.51 1.90646 4.71732 0
M  V30 27458 H 2501.91 -1.1678 5.53515 0
M  V30 27459 H 2500.47 -0.967137 6.44585 0
M  V30 27460 N 2503.9 -1.25546 0.952678 0
M  V30 27461 C 2505.13 -1.97281 0.62353 0
M  V30 27462 C 2505.54 -1.70827 -0.803957 0
M  V30 27463 O 2504.9 -0.983174 -1.53753 0
M  V30 27464 C 2504.95 -3.50868 0.870271 0
M  V30 27465 O 2504.67 -3.76408 2.24162 0
M  V30 27466 C 2506.17 -4.39834 0.553242 0
M  V30 27467 H 2503.39 -0.628898 0.233942 0
M  V30 27468 H 2505.94 -1.59766 1.27652 0
M  V30 27469 H 2504.09 -3.86501 0.26372 0
M  V30 27470 H 2504.51 -4.70878 2.31029 0
M  V30 27471 H 2505.98 -5.46512 0.776438 0
M  V30 27472 H 2506.46 -4.36204 -0.512138 0
M  V30 27473 H 2507.06 -4.09764 1.13903 0
M  V30 27474 N 2505.38 -0.721022 -1.40139 0
M  V30 27475 C 2506.29 -0.0731443 -2.34486 0
M  V30 27476 C 2507.31 0.737696 -1.57588 0
M  V30 27477 O 2508.48 0.669396 -1.8995 0
M  V30 27478 C 2505.55 0.833597 -3.36529 0
M  V30 27479 C 2504.61 0.0120918 -4.29298 0
M  V30 27480 C 2503.84 0.875649 -5.26468 0
M  V30 27481 O 2504.06 2.11476 -5.29749 0
M  V30 27482 O 2503 0.311745 -6.01092 0
M  V30 27483 H 2506.82 -0.851495 -2.91519 0
M  V30 27484 H 2504.41 -0.481552 -1.41426 0
M  V30 27485 H 2506.29 1.35282 -3.99095 0
M  V30 27486 H 2504.97 1.591 -2.81902 0
M  V30 27487 H 2503.87 -0.552327 -3.7 0
M  V30 27488 H 2505.21 -0.707214 -4.87093 0
M  V30 27489 N 2506.86 1.50503 -0.467606 0
M  V30 27490 C 2508.27 1.59136 -0.121561 0
M  V30 27491 C 2508.47 1.47605 1.37167 0
M  V30 27492 O 2507.53 1.33275 2.14462 0
M  V30 27493 C 2508.84 2.93172 -0.668652 0
M  V30 27494 C 2510.39 3.06558 -0.63177 0
M  V30 27495 C 2510.87 4.43162 -1.15635 0
M  V30 27496 N 2512.36 4.49565 -1.11561 0
M  V30 27497 C 2513.09 5.53648 -1.49204 0
M  V30 27498 N 2512.59 6.65002 -1.9428 0
M  V30 27499 N 2514.38 5.44172 -1.40829 0
M  V30 27500 H 2506.53 1.56242 -1.43882 0
M  V30 27501 H 2508.79 0.738187 -0.594797 0
M  V30 27502 H 2508.5 3.07075 -1.71459 0
M  V30 27503 H 2508.37 3.77039 -0.110276 0
M  V30 27504 H 2510.76 2.92304 0.405246 0
M  V30 27505 H 2510.84 2.24456 -1.22691 0
M  V30 27506 H 2510.49 4.58165 -2.19198 0
M  V30 27507 H 2510.42 5.2385 -0.537457 0
M  V30 27508 H 2512.91 3.69658 -0.78496 0
M  V30 27509 H 2513.22 7.40478 -2.21161 0
M  V30 27510 H 2511.57 6.6613 -1.9823 0
M  V30 27511 H 2514.76 4.56066 -1.05458 0
M  V30 27512 H 2514.93 6.25169 -1.70492 0
M  V30 27513 N 2508.34 0.200077 1.56325 0
M  V30 27514 C 2509.56 -0.445935 2.02549 0
M  V30 27515 C 2509.99 -1.54058 1.07925 0
M  V30 27516 O 2509.34 -1.81188 0.0636093 0
M  V30 27517 C 2509.39 -0.9747 3.47177 0
M  V30 27518 O 2508.5 -2.08732 3.55675 0
M  V30 27519 H 2507.84 -0.103626 0.655864 0
M  V30 27520 H 2510.37 0.312417 2.02201 0
M  V30 27521 H 2510.38 -1.29003 3.87069 0
M  V30 27522 H 2509.05 -0.173397 4.15538 0
M  V30 27523 H 2507.63 -1.78026 3.2766 0
M  V30 27524 N 2509.81 -1.57429 -0.0734901 0
M  V30 27525 C 2511.23 -1.53747 -0.428237 0
M  V30 27526 C 2511.43 -0.920011 -1.79271 0
M  V30 27527 O 2510.49 -0.521788 -2.4705 0
M  V30 27528 C 2511.8 -2.98404 -0.370862 0
M  V30 27529 C 2513.35 -3.09731 -0.45117 0
M  V30 27530 C 2513.82 -4.56036 -0.42372 0
M  V30 27531 N 2515.31 -4.60666 -0.483844 0
M  V30 27532 C 2516.05 -5.71347 -0.48479 0
M  V30 27533 N 2515.54 -6.91397 -0.440653 0
M  V30 27534 N 2517.34 -5.59584 -0.531221 0
M  V30 27535 H 2509.49 -1.95934 0.819983 0
M  V30 27536 H 2511.75 -0.89674 0.307509 0
M  V30 27537 H 2511.46 -3.47132 0.565017 0
M  V30 27538 H 2511.33 -3.58212 -1.1817 0
M  V30 27539 H 2513.72 -2.60978 -1.37747 0
M  V30 27540 H 2513.8 -2.52837 0.388211 0
M  V30 27541 H 2513.44 -5.05445 0.498727 0
M  V30 27542 H 2513.37 -5.10791 -1.28061 0
M  V30 27543 H 2515.86 -3.74274 -0.522272 0
M  V30 27544 H 2516.18 -7.71516 -0.445254 0
M  V30 27545 H 2514.52 -6.93805 -0.407368 0
M  V30 27546 H 2517.71 -4.64697 -0.563383 0
M  V30 27547 H 2517.89 -6.45841 -0.528489 0
M  V30 27548 N 2511.29 0.344839 -1.53781 0
M  V30 27549 C 2512.24 1.42343 -1.81679 0
M  V30 27550 C 2513.21 1.5232 -0.662402 0
M  V30 27551 O 2514.39 1.67879 -0.906705 0
M  V30 27552 C 2511.53 2.79012 -2.03092 0
M  V30 27553 C 2510.65 2.77836 -3.30804 0
M  V30 27554 C 2509.78 4.06214 -3.42292 0
M  V30 27555 C 2508.82 3.99262 -4.63957 0
M  V30 27556 N 2507.96 5.19328 -4.72486 0
M  V30 27557 H 2512.8 1.17853 -2.73705 0
M  V30 27558 H 2510.33 0.570925 -1.35569 0
M  V30 27559 H 2512.29 3.58434 -2.13497 0
M  V30 27560 H 2510.92 3.01856 -1.1438 0
M  V30 27561 H 2509.97 1.90527 -3.29247 0
M  V30 27562 H 2511.29 2.68577 -4.20319 0
M  V30 27563 H 2510.44 4.9406 -3.52121 0
M  V30 27564 H 2509.18 4.18253 -2.5083 0
M  V30 27565 H 2508.18 3.09801 -4.54206 0
M  V30 27566 H 2509.41 3.88807 -5.56782 0
M  V30 27567 H 2507.36 5.31913 -3.83933 0
M  V30 27568 H 2507.27 5.1232 -5.55936 0
M  V30 27569 H 2508.54 6.08948 -4.86623 0
M  V30 27570 N 2512.77 1.45492 0.605781 0
M  V30 27571 C 2513.7 1.57146 1.72706 0
M  V30 27572 C 2514.68 0.422913 1.64759 0
M  V30 27573 O 2515.87 0.646279 1.83131 0
M  V30 27574 C 2513 1.53953 3.11313 0
M  V30 27575 C 2511.95 2.67543 3.34073 0
M  V30 27576 C 2511.28 2.49405 4.72971 0
M  V30 27577 C 2512.58 4.09541 3.24151 0
M  V30 27578 H 2514.27 2.51004 1.6321 0
M  V30 27579 H 2511.82 1.20802 0.783769 0
M  V30 27580 H 2513.77 1.60703 3.89554 0
M  V30 27581 H 2512.49 0.566261 3.21654 0
M  V30 27582 H 2511.15 2.60225 2.58222 0
M  V30 27583 H 2510.8 1.50213 4.80047 0
M  V30 27584 H 2510.5 3.25579 4.89154 0
M  V30 27585 H 2512.02 2.58011 5.5341 0
M  V30 27586 H 2513.44 4.18093 3.92264 0
M  V30 27587 H 2511.83 4.86119 3.51863 0
M  V30 27588 H 2512.9 4.31321 2.21563 0
M  V30 27589 N 2514.25 -0.848441 1.32813 0
M  V30 27590 C 2515.21 -1.93908 1.22198 0
M  V30 27591 C 2516.21 -1.60159 0.143432 0
M  V30 27592 O 2517.4 -1.69679 0.394283 0
M  V30 27593 C 2514.53 -3.29327 0.880728 0
M  V30 27594 H 2515.73 -2.04748 2.19131 0
M  V30 27595 H 2513.28 -1.03938 1.16733 0
M  V30 27596 H 2514.01 -3.24185 -0.0865206 0
M  V30 27597 H 2513.8 -3.552 1.66059 0
M  V30 27598 H 2515.29 -4.09249 0.830943 0
M  V30 27599 N 2515.73 -1.16125 -1.06549 0
M  V30 27600 C 2516.64 -0.8797 -2.17482 0
M  V30 27601 C 2517.65 0.147074 -1.73377 0
M  V30 27602 O 2518.83 -0.0289482 -2.01379 0
M  V30 27603 C 2515.89 -0.38189 -3.4459 0
M  V30 27604 C 2514.95 -1.47357 -4.03218 0
M  V30 27605 C 2514.19 -0.999417 -5.24259 0
M  V30 27606 O 2514.41 0.151857 -5.70198 0
M  V30 27607 O 2513.34 -1.78663 -5.74772 0
M  V30 27608 H 2517.17 -1.80728 -2.44072 0
M  V30 27609 H 2514.76 -0.941012 -1.1604 0
M  V30 27610 H 2516.64 -0.111127 -4.21253 0
M  V30 27611 H 2515.31 0.517714 -3.19533 0
M  V30 27612 H 2514.22 -1.79804 -3.28057 0
M  V30 27613 H 2515.55 -2.34838 -4.32564 0
M  V30 27614 N 2517.2 1.25039 -0.959323 0
M  V30 27615 C 2518.14 2.24926 -0.440583 0
M  V30 27616 C 2519.15 1.56569 0.446103 0
M  V30 27617 O 2520.34 1.76689 0.253626 0
M  V30 27618 C 2517.44 3.36717 0.384061 0
M  V30 27619 C 2516.61 4.34638 -0.490735 0
M  V30 27620 C 2515.67 5.25473 0.276494 0
M  V30 27621 O 2514.7 5.68262 -0.326714 0
M  V30 27622 N 2515.9 5.58913 1.56834 0
M  V30 27623 H 2518.66 2.70068 -1.29935 0
M  V30 27624 H 2516.22 1.38994 -0.830205 0
M  V30 27625 H 2518.22 3.94448 0.905159 0
M  V30 27626 H 2516.79 2.90926 1.14372 0
M  V30 27627 H 2516.01 3.75718 -1.19289 0
M  V30 27628 H 2517.29 4.97039 -1.08765 0
M  V30 27629 H 2516.69 5.26062 2.08026 0
M  V30 27630 H 2515.25 6.19208 2.0353 0
M  V30 27631 N 2518.68 0.728444 1.39755 0
M  V30 27632 C 2519.59 0.0855786 2.34444 0
M  V30 27633 C 2520.61 -0.729328 1.57977 0
M  V30 27634 O 2521.78 -0.659313 1.90302 0
M  V30 27635 C 2518.85 -0.815738 3.36967 0
M  V30 27636 C 2517.91 0.0106751 4.29299 0
M  V30 27637 C 2517.14 -0.847717 5.26925 0
M  V30 27638 O 2517.37 -2.08664 5.30863 0
M  V30 27639 O 2516.3 -0.279863 6.01249 0
M  V30 27640 H 2520.13 0.866943 2.91063 0
M  V30 27641 H 2517.71 0.489045 1.41169 0
M  V30 27642 H 2519.59 -1.33164 3.99807 0
M  V30 27643 H 2518.27 -1.57603 2.82742 0
M  V30 27644 H 2517.18 0.571942 3.69702 0
M  V30 27645 H 2518.51 0.733036 4.86711 0
M  V30 27646 N 2520.16 -1.50253 0.475581 0
M  V30 27647 C 2521.09 -2.31485 -0.306069 0
M  V30 27648 C 2522.07 -1.38593 -0.986204 0
M  V30 27649 O 2523.26 -1.67512 -0.982511 0
M  V30 27650 C 2520.39 -3.18453 -1.38583 0
M  V30 27651 C 2519.34 -4.19933 -0.827041 0
M  V30 27652 C 2518.67 -4.95668 -2.00542 0
M  V30 27653 C 2519.97 -5.2204 0.164722 0
M  V30 27654 H 2521.66 -2.97081 0.371918 0
M  V30 27655 H 2519.21 -1.42867 0.180307 0
M  V30 27656 H 2521.16 -3.74079 -1.94017 0
M  V30 27657 H 2519.88 -2.50751 -2.09265 0
M  V30 27658 H 2518.54 -3.65414 -0.294637 0
M  V30 27659 H 2518.19 -4.24435 -2.69933 0
M  V30 27660 H 2517.89 -5.64315 -1.63774 0
M  V30 27661 H 2519.41 -5.54131 -2.56459 0
M  V30 27662 H 2520.83 -5.72511 -0.300598 0
M  V30 27663 H 2519.23 -5.98433 0.446918 0
M  V30 27664 H 2520.3 -4.7251 1.08913 0
M  V30 27665 N 2521.64 -0.208365 -1.56217 0
M  V30 27666 C 2522.89 0.42717 -1.97125 0
M  V30 27667 C 2523.2 1.61833 -1.09861 0
M  V30 27668 O 2524.41 2.32252 -1.4061 0
M  V30 27669 C 2522.86 0.81138 -3.50635 0
M  V30 27670 C 2522.47 -0.356228 -4.46581 0
M  V30 27671 C 2524.21 1.41325 -4.00284 0
M  V30 27672 C 2522.12 0.0496813 -5.91379 0
M  V30 27673 H 2521.05 0.163368 -0.736089 0
M  V30 27674 H 2523.7 -0.302488 -1.8099 0
M  V30 27675 H 2522.08 1.59808 -3.62322 0
M  V30 27676 H 2523.26 -1.13378 -4.46634 0
M  V30 27677 H 2521.57 -0.870467 -4.072 0
M  V30 27678 H 2524.17 1.72963 -5.05953 0
M  V30 27679 H 2524.51 2.32443 -3.45364 0
M  V30 27680 H 2525.05 0.690255 -3.91766 0
M  V30 27681 H 2521.79 -0.827643 -6.50254 0
M  V30 27682 H 2521.31 0.791821 -5.9455 0
M  V30 27683 H 2522.98 0.480929 -6.4521 0
M  V30 27684 N 2523.12 1.57465 0.0651402 0
M  V30 27685 C 2524.03 2.07507 1.09444 0
M  V30 27686 C 2525.04 1.00597 1.41973 0
M  V30 27687 O 2526.22 1.3211 1.52016 0
M  V30 27688 C 2523.28 2.51457 2.38684 0
M  V30 27689 C 2522.34 3.72695 2.13066 0
M  V30 27690 C 2521.58 4.14539 3.36144 0
M  V30 27691 O 2521.8 3.56197 4.45511 0
M  V30 27692 O 2520.73 5.07277 3.23965 0
M  V30 27693 H 2524.56 2.95539 0.699298 0
M  V30 27694 H 2522.15 1.46758 0.279726 0
M  V30 27695 H 2524.03 2.80218 3.14732 0
M  V30 27696 H 2522.7 1.66551 2.77565 0
M  V30 27697 H 2521.61 3.49007 1.34703 0
M  V30 27698 H 2522.94 4.58473 1.79062 0
M  V30 27699 N 2524.59 -0.336679 1.53962 0
M  V30 27700 C 2525.82 -1.09602 1.75485 0
M  V30 27701 C 2526.24 -1.82135 0.497232 0
M  V30 27702 O 2525.59 -1.7459 -0.531459 0
M  V30 27703 C 2525.65 -2.10423 2.93946 0
M  V30 27704 O 2525.37 -1.40839 4.14845 0
M  V30 27705 C 2526.87 -2.98679 3.27576 0
M  V30 27706 H 2524.09 -0.326564 0.586171 0
M  V30 27707 H 2526.63 -0.386795 2.00809 0
M  V30 27708 H 2524.79 -2.769 2.70934 0
M  V30 27709 H 2525.2 -2.08247 4.81387 0
M  V30 27710 H 2526.67 -3.65343 4.13798 0
M  V30 27711 H 2527.15 -3.65069 2.44174 0
M  V30 27712 H 2527.76 -2.37781 3.52619 0
M  V30 27713 N 2526.07 -1.45812 -0.598057 0
M  V30 27714 C 2527.3 -1.54101 -1.38808 0
M  V30 27715 C 2527.72 -0.177611 -1.8726 0
M  V30 27716 O 2527.08 0.839513 -1.60692 0
M  V30 27717 C 2527.13 -2.53747 -2.56212 0
M  V30 27718 O 2526.23 -2.06188 -3.57156 0
M  V30 27719 H 2525.57 -0.519122 -0.414015 0
M  V30 27720 H 2528.1 -1.91251 -0.726938 0
M  V30 27721 H 2528.11 -2.72862 -3.03332 0
M  V30 27722 H 2526.79 -3.52763 -2.20297 0
M  V30 27723 H 2525.37 -1.96993 -3.1662 0
M  V30 27724 N 2527.55 0.841385 -1.33261 0
M  V30 27725 C 2528.46 1.98314 -1.25335 0
M  V30 27726 C 2529.48 1.73222 -0.164395 0
M  V30 27727 O 2530.65 1.97637 -0.387521 0
M  V30 27728 C 2527.72 3.32261 -0.990137 0
M  V30 27729 C 2526.78 3.70485 -2.16885 0
M  V30 27730 C 2526.01 4.98041 -1.9181 0
M  V30 27731 O 2526.23 5.6377 -0.867174 0
M  V30 27732 O 2525.17 5.3371 -2.78276 0
M  V30 27733 H 2528.99 2.0794 -2.21348 0
M  V30 27734 H 2526.58 0.974038 -1.13282 0
M  V30 27735 H 2528.46 4.12523 -0.860394 0
M  V30 27736 H 2527.14 3.23644 -0.0602724 0
M  V30 27737 H 2526.04 2.90744 -2.35412 0
M  V30 27738 H 2527.38 3.83765 -3.08197 0
M  V30 27739 N 2529.03 1.16688 1.05932 0
M  V30 27740 C 2530.45 0.912565 1.30937 0
M  V30 27741 C 2530.65 -0.432499 1.96804 0
M  V30 27742 O 2529.7 -1.17119 2.23695 0
M  V30 27743 C 2531.01 2.06433 2.18645 0
M  V30 27744 C 2532.56 2.10051 2.32051 0
M  V30 27745 C 2533.04 3.24592 3.23116 0
M  V30 27746 N 2534.53 3.24333 3.307 0
M  V30 27747 C 2535.26 4.09601 4.01266 0
M  V30 27748 N 2534.76 5.04965 4.74323 0
M  V30 27749 N 2536.55 3.97576 3.97354 0
M  V30 27750 H 2528.7 2.03279 0.615741 0
M  V30 27751 H 2530.97 0.88719 0.334062 0
M  V30 27752 H 2530.67 3.03606 1.77529 0
M  V30 27753 H 2530.55 2.00899 3.19248 0
M  V30 27754 H 2532.93 1.13469 2.72413 0
M  V30 27755 H 2533.01 2.19649 1.31103 0
M  V30 27756 H 2532.66 4.21435 2.83469 0
M  V30 27757 H 2532.59 3.1223 4.24052 0
M  V30 27758 H 2535.08 2.55281 2.78639 0
M  V30 27759 H 2535.39 5.66439 5.25706 0
M  V30 27760 H 2533.74 5.08941 4.73291 0
M  V30 27761 H 2536.93 3.22375 3.394 0
M  V30 27762 H 2537.1 4.64249 4.5208 0
M  V30 27763 N 2530.51 -1.24529 0.96594 0
M  V30 27764 C 2531.75 -1.92838 0.627794 0
M  V30 27765 C 2532.09 -1.75348 -0.834663 0
M  V30 27766 O 2531.36 -1.10549 -1.60029 0
M  V30 27767 C 2531.64 -3.45903 1.00115 0
M  V30 27768 C 2531.5 -3.72568 2.52018 0
M  V30 27769 C 2532.82 -4.36843 0.534427 0
M  V30 27770 H 2529.94 -0.70034 0.229549 0
M  V30 27771 H 2532.58 -1.46931 1.20463 0
M  V30 27772 H 2530.73 -3.85134 0.510306 0
M  V30 27773 H 2532.4 -3.42907 3.08565 0
M  V30 27774 H 2530.64 -3.17781 2.95293 0
M  V30 27775 H 2531.31 -4.79657 2.73191 0
M  V30 27776 H 2533.79 -4.04978 0.955636 0
M  V30 27777 H 2532.67 -5.42676 0.824247 0
M  V30 27778 H 2532.93 -4.38468 -0.565512 0
M  V30 27779 N 2531.99 -0.735845 -1.39367 0
M  V30 27780 C 2532.92 -0.0568126 -2.2913 0
M  V30 27781 C 2533.93 0.702563 -1.4686 0
M  V30 27782 O 2535.12 0.546586 -1.69926 0
M  V30 27783 C 2532.22 0.943765 -3.25494 0
M  V30 27784 C 2531.39 0.245734 -4.36709 0
M  V30 27785 C 2530.45 1.15454 -5.13378 0
M  V30 27786 O 2529.48 0.631704 -5.65684 0
M  V30 27787 N 2530.68 2.48418 -5.24661 0
M  V30 27788 H 2533.44 -0.827633 -2.88046 0
M  V30 27789 H 2531.01 -0.585138 -1.50956 0
M  V30 27790 H 2533 1.55437 -3.7366 0
M  V30 27791 H 2531.57 1.61579 -2.67602 0
M  V30 27792 H 2530.79 -0.545355 -3.90409 0
M  V30 27793 H 2532.08 -0.23798 -5.08243 0
M  V30 27794 H 2531.47 2.93371 -4.83684 0
M  V30 27795 H 2530.03 3.04572 -5.76263 0
M  V30 27796 N 2533.46 1.49999 -0.483543 0
M  V30 27797 C 2534.39 2.31644 0.293788 0
M  V30 27798 C 2535.37 1.39114 0.97884 0
M  V30 27799 O 2536.56 1.68031 0.973614 0
M  V30 27800 C 2533.69 3.19183 1.36892 0
M  V30 27801 C 2532.64 4.20366 0.804759 0
M  V30 27802 C 2531.97 4.96725 1.97911 0
M  V30 27803 C 2533.27 5.21945 -0.192404 0
M  V30 27804 H 2534.96 2.9688 -0.387668 0
M  V30 27805 H 2532.51 1.42769 -0.187881 0
M  V30 27806 H 2534.46 3.75103 1.9203 0
M  V30 27807 H 2533.19 2.51857 2.07932 0
M  V30 27808 H 2531.85 3.65565 0.275254 0
M  V30 27809 H 2531.49 4.25861 2.67678 0
M  V30 27810 H 2531.19 5.65176 1.60779 0
M  V30 27811 H 2532.72 5.55483 2.53516 0
M  V30 27812 H 2534.13 5.72663 0.270232 0
M  V30 27813 H 2532.53 5.98188 -0.478648 0
M  V30 27814 H 2533.6 4.71926 -1.11418 0
M  V30 27815 N 2534.94 0.216646 1.56104 0
M  V30 27816 C 2535.87 -0.690257 2.23064 0
M  V30 27817 C 2536.85 -1.20483 1.20074 0
M  V30 27818 O 2538.04 -1.24973 1.48645 0
M  V30 27819 C 2535.17 -1.90066 2.90675 0
M  V30 27820 C 2534.12 -1.52013 4.00095 0
M  V30 27821 C 2533.45 -2.80891 4.54977 0
M  V30 27822 C 2534.75 -0.713819 5.17399 0
M  V30 27823 H 2536.44 -0.131985 2.99109 0
M  V30 27824 H 2533.99 -0.0620411 1.43866 0
M  V30 27825 H 2535.94 -2.54051 3.36209 0
M  V30 27826 H 2534.66 -2.48382 2.1207 0
M  V30 27827 H 2533.32 -0.903777 3.55285 0
M  V30 27828 H 2532.97 -3.37342 3.73108 0
M  V30 27829 H 2532.67 -2.56166 5.28822 0
M  V30 27830 H 2534.2 -3.45827 5.03226 0
M  V30 27831 H 2535.61 -1.25725 5.59344 0
M  V30 27832 H 2534.01 -0.563846 5.97445 0
M  V30 27833 H 2535.08 0.280613 4.84087 0
M  V30 27834 N 2536.42 -1.57498 -0.0567885 0
M  V30 27835 C 2537.37 -2.01167 -1.07311 0
M  V30 27836 C 2538.35 -0.896194 -1.33631 0
M  V30 27837 O 2539.55 -1.16012 -1.3368 0
M  V30 27838 C 2536.67 -2.47165 -2.38253 0
M  V30 27839 C 2535.76 -3.65478 -2.15143 0
M  V30 27840 N 2536.15 -4.79153 -1.62005 0
M  V30 27841 C 2534.45 -3.72317 -2.45552 0
M  V30 27842 C 2535.15 -5.60928 -1.54059 0
M  V30 27843 N 2534.13 -5.05216 -2.00643 0
M  V30 27844 H 2537.93 -2.86489 -0.655827 0
M  V30 27845 H 2535.44 -1.60246 -0.263607 0
M  V30 27846 H 2537.44 -2.76697 -3.11841 0
M  V30 27847 H 2536.1 -1.63237 -2.80685 0
M  V30 27848 H 2537.11 -5.01147 -1.30659 0
M  V30 27849 H 2533.79 -2.99134 -2.91248 0
M  V30 27850 H 2535.18 -6.6221 -1.13701 0
M  V30 27851 N 2537.9 0.328509 -1.54138 0
M  V30 27852 C 2539.12 1.09109 -1.7638 0
M  V30 27853 C 2539.55 1.81093 -0.508628 0
M  V30 27854 O 2538.91 1.73085 0.539567 0
M  V30 27855 C 2538.95 2.06867 -2.95361 0
M  V30 27856 O 2538.06 3.14673 -2.66561 0
M  V30 27857 H 2537.4 0.314828 -0.584619 0
M  V30 27858 H 2539.93 0.374313 -2.01147 0
M  V30 27859 H 2539.94 2.49824 -3.22571 0
M  V30 27860 H 2538.61 1.53874 -3.86388 0
M  V30 27861 H 2537.19 2.76426 -2.50286 0
M  V30 27862 N 2539.38 1.46127 0.590316 0
M  V30 27863 C 2540.31 1.52139 1.71424 0
M  V30 27864 C 2541.32 0.410447 1.57541 0
M  V30 27865 O 2542.51 0.678418 1.65105 0
M  V30 27866 C 2539.61 1.3784 3.09602 0
M  V30 27867 C 2538.78 2.62918 3.49561 0
M  V30 27868 C 2537.84 2.42927 4.66769 0
M  V30 27869 O 2536.87 3.16618 4.73013 0
M  V30 27870 N 2538.07 1.486 5.61158 0
M  V30 27871 H 2540.83 2.49045 1.66724 0
M  V30 27872 H 2538.4 1.42086 0.776088 0
M  V30 27873 H 2540.39 1.22249 3.85794 0
M  V30 27874 H 2538.96 0.491448 3.08713 0
M  V30 27875 H 2538.18 2.93504 2.63153 0
M  V30 27876 H 2539.47 3.46023 3.73022 0
M  V30 27877 H 2538.86 0.878178 5.58842 0
M  V30 27878 H 2537.42 1.38976 6.36812 0
M  V30 27879 N 2540.85 -0.834306 1.33705 0
M  V30 27880 C 2541.8 -1.96585 1.24326 0
M  V30 27881 C 2542.8 -1.6879 0.143689 0
M  V30 27882 O 2544 -1.77346 0.307941 0
M  V30 27883 H 2540.38 -0.645413 0.385936 0
M  V30 27884 H 2542.35 -2.0162 2.19982 0
M  V30 27885 C 2541.1 -3.32889 1.00399 0
M  V30 27886 H 2540.42 -3.54819 1.84238 0
M  V30 27887 H 2541.86 -4.1255 0.978693 0
M  V30 27888 C 2540.32 -3.35624 -0.292988 0
M  V30 27889 O 2540.85 -3.80145 -1.29817 0
M  V30 27890 N 2539.05 -2.88809 -0.322123 0
M  V30 27891 H 2538.6 -2.52771 0.496424 0
M  V30 27892 H 2538.56 -2.91021 -1.18971 0
M  V30 27893 N 2542.33 -1.17248 -1.05312 0
M  V30 27894 C 2543.56 -0.984625 -1.81969 0
M  V30 27895 C 2543.97 0.467134 -1.8293 0
M  V30 27896 O 2543.33 1.32436 -1.25566 0
M  V30 27897 C 2543.38 -1.51677 -3.28141 0
M  V30 27898 O 2543.1 -2.91169 -3.27342 0
M  V30 27899 C 2544.6 -1.37333 -4.21491 0
M  V30 27900 H 2541.82 -0.348421 -0.573449 0
M  V30 27901 H 2544.37 -1.55509 -1.32806 0
M  V30 27902 H 2542.52 -0.988367 -3.7458 0
M  V30 27903 H 2542.94 -3.15739 -4.18818 0
M  V30 27904 H 2544.41 -1.79384 -5.2204 0
M  V30 27905 H 2544.89 -0.320246 -4.38031 0
M  V30 27906 H 2545.49 -1.89185 -3.80906 0
M  V30 27907 N 2543.81 1.24015 -0.972531 0
M  V30 27908 C 2545.04 1.96804 -0.654452 0
M  V30 27909 C 2545.46 1.71601 0.770368 0
M  V30 27910 O 2544.82 0.982673 1.52359 0
M  V30 27911 C 2544.87 3.48103 -0.941092 0
M  V30 27912 O 2543.97 4.1239 -0.0290197 0
M  V30 27913 H 2543.31 0.616378 -0.24693 0
M  V30 27914 H 2545.84 1.57662 -1.30399 0
M  V30 27915 H 2545.85 3.98516 -0.87459 0
M  V30 27916 H 2544.53 3.65774 -1.97945 0
M  V30 27917 H 2543.1 3.72601 -0.149257 0
M  V30 27918 N 2545.29 0.743226 1.38974 0
M  V30 27919 C 2546.22 0.123914 2.33171 0
M  V30 27920 C 2547.2 -0.715132 1.54337 0
M  V30 27921 O 2548.38 -0.658435 1.82697 0
M  V30 27922 C 2545.51 -0.777918 3.38476 0
M  V30 27923 C 2544.47 -0.0424006 4.27979 0
M  V30 27924 C 2543.79 -1.0618 5.24051 0
M  V30 27925 C 2545.09 1.11989 5.10153 0
M  V30 27926 H 2546.79 0.91076 2.85211 0
M  V30 27927 H 2544.33 0.439412 1.37132 0
M  V30 27928 H 2546.29 -1.22077 4.0333 0
M  V30 27929 H 2545.01 -1.59697 2.84894 0
M  V30 27930 H 2543.67 0.380917 3.64616 0
M  V30 27931 H 2543.32 -1.87463 4.66762 0
M  V30 27932 H 2543.02 -0.574382 5.84786 0
M  V30 27933 H 2544.54 -1.50418 5.91783 0
M  V30 27934 H 2545.96 0.75509 5.68306 0
M  V30 27935 H 2544.35 1.53748 5.8007 0
M  V30 27936 H 2545.42 1.93772 4.445 0
M  V30 27937 N 2546.77 -1.4974 0.491491 0
M  V30 27938 C 2548.02 -2.01616 -0.0581834 0
M  V30 27939 C 2548.33 -1.37693 -1.38925 0
M  V30 27940 O 2549.53 -1.80842 -2.02506 0
M  V30 27941 C 2547.99 -3.5957 -0.154172 0
M  V30 27942 C 2547.6 -4.32461 1.16968 0
M  V30 27943 C 2549.34 -4.19421 -0.654717 0
M  V30 27944 C 2547.25 -5.82249 1.03637 0
M  V30 27945 H 2546.18 -0.753568 -0.0255184 0
M  V30 27946 H 2548.83 -1.72365 0.629475 0
M  V30 27947 H 2547.21 -3.85495 -0.90607 0
M  V30 27948 H 2548.39 -4.18244 1.93412 0
M  V30 27949 H 2546.7 -3.84312 1.60292 0
M  V30 27950 H 2549.3 -5.291 -0.77181 0
M  V30 27951 H 2549.64 -3.82153 -1.6512 0
M  V30 27952 H 2550.17 -3.9778 0.040374 0
M  V30 27953 H 2546.91 -6.24024 2.00683 0
M  V30 27954 H 2546.43 -5.98985 0.312651 0
M  V30 27955 H 2548.11 -6.43079 0.711227 0
M  V30 27956 N 2548.24 -0.224922 -1.55987 0
M  V30 27957 C 2549.19 0.700244 -2.21809 0
M  V30 27958 C 2550.19 1.19712 -1.19856 0
M  V30 27959 O 2551.39 1.15655 -1.37927 0
M  V30 27960 H 2547.77 0.244245 -0.71123 0
M  V30 27961 H 2549.74 0.121696 -2.98152 0
M  V30 27962 C 2548.49 1.89615 -2.91447 0
M  V30 27963 H 2547.81 1.52293 -3.69658 0
M  V30 27964 H 2549.25 2.52119 -3.40899 0
M  V30 27965 C 2547.71 2.75365 -1.94103 0
M  V30 27966 O 2548.24 3.74224 -1.4601 0
M  V30 27967 N 2546.45 2.41471 -1.61679 0
M  V30 27968 H 2545.99 1.61133 -2.00982 0
M  V30 27969 H 2545.95 2.99124 -0.968089 0
M  V30 27970 N 2549.72 1.57526 0.0484352 0
M  V30 27971 C 2550.65 2.02043 1.08219 0
M  V30 27972 C 2551.67 0.930036 1.3362 0
M  V30 27973 O 2552.86 1.20763 1.31448 0
M  V30 27974 C 2549.96 2.36421 2.42814 0
M  V30 27975 C 2549.13 3.676 2.37042 0
M  V30 27976 C 2548.19 3.89384 3.5393 0
M  V30 27977 O 2547.21 4.60687 3.343 0
M  V30 27978 N 2548.42 3.33528 4.7512 0
M  V30 27979 H 2551.18 2.91341 0.702895 0
M  V30 27980 H 2548.74 1.6016 0.236717 0
M  V30 27981 H 2550.73 2.48147 3.19695 0
M  V30 27982 H 2549.3 1.52893 2.72658 0
M  V30 27983 H 2548.52 3.66409 1.45388 0
M  V30 27984 H 2549.81 4.5369 2.3031 0
M  V30 27985 H 2549.21 2.75697 4.93971 0
M  V30 27986 H 2547.77 3.50666 5.49433 0
M  V30 27987 N 2551.2 -0.32033 1.5431 0
M  V30 27988 C 2552.15 -1.39435 1.8392 0
M  V30 27989 C 2553.12 -1.51247 0.686551 0
M  V30 27990 O 2554.3 -1.66416 0.933298 0
M  V30 27991 C 2551.44 -2.75746 2.07505 0
M  V30 27992 C 2550.56 -2.72538 3.35182 0
M  V30 27993 C 2549.69 -4.00717 3.48711 0
M  V30 27994 C 2548.73 -3.9183 4.7025 0
M  V30 27995 N 2547.87 -5.11745 4.80688 0
M  V30 27996 H 2552.71 -1.13484 2.75546 0
M  V30 27997 H 2550.24 -0.549285 1.3646 0
M  V30 27998 H 2552.2 -3.54992 2.19172 0
M  V30 27999 H 2550.83 -2.99998 1.19168 0
M  V30 28000 H 2549.88 -1.85265 3.32237 0
M  V30 28001 H 2551.2 -2.61856 4.24539 0
M  V30 28002 H 2550.35 -4.88396 3.59937 0
M  V30 28003 H 2549.09 -4.1421 2.57452 0
M  V30 28004 H 2548.09 -3.02536 4.59078 0
M  V30 28005 H 2549.32 -3.799 5.62897 0
M  V30 28006 H 2547.26 -5.25738 3.92347 0
M  V30 28007 H 2547.18 -5.0341 5.64016 0
M  V30 28008 H 2548.45 -6.01129 4.9625 0
M  V30 28009 N 2552.68 -1.46438 -0.582558 0
M  V30 28010 C 2553.63 -1.57013 -1.69161 0
M  V30 28011 C 2554.6 -0.414431 -1.60847 0
M  V30 28012 O 2555.78 -0.631202 -1.80057 0
M  V30 28013 C 2552.92 -1.56651 -3.07497 0
M  V30 28014 C 2552.03 -2.82956 -3.26435 0
M  V30 28015 C 2551.17 -2.74098 -4.55021 0
M  V30 28016 C 2550.21 -3.95341 -4.67303 0
M  V30 28017 N 2549.34 -3.84868 -5.87215 0
M  V30 28018 H 2554.18 -2.51747 -1.5946 0
M  V30 28019 H 2551.72 -1.24894 -0.777164 0
M  V30 28020 H 2553.68 -1.54427 -3.87567 0
M  V30 28021 H 2552.31 -0.654495 -3.16095 0
M  V30 28022 H 2551.36 -2.9516 -2.39969 0
M  V30 28023 H 2552.67 -3.72813 -3.31378 0
M  V30 28024 H 2551.83 -2.6998 -5.43319 0
M  V30 28025 H 2550.57 -1.81881 -4.52516 0
M  V30 28026 H 2549.57 -3.99791 -3.77422 0
M  V30 28027 H 2550.8 -4.88654 -4.71586 0
M  V30 28028 H 2548.74 -2.95438 -5.85707 0
M  V30 28029 H 2548.66 -4.68381 -5.93427 0
M  V30 28030 H 2549.93 -3.84725 -6.77943 0
M  V30 28031 N 2554.16 0.827204 -1.34146 0
M  V30 28032 C 2555.1 1.93782 -1.25367 0
M  V30 28033 C 2556.07 1.65592 -0.129803 0
M  V30 28034 O 2557.26 1.88264 -0.310057 0
M  V30 28035 C 2554.4 3.29968 -1.0107 0
M  V30 28036 C 2553.51 3.7048 -2.22191 0
M  V30 28037 C 2552.65 4.95592 -1.91212 0
M  V30 28038 C 2551.69 5.28672 -3.085 0
M  V30 28039 N 2550.82 6.44962 -2.77432 0
M  V30 28040 H 2555.66 2.00623 -2.20351 0
M  V30 28041 H 2553.2 0.981589 -1.09559 0
M  V30 28042 H 2555.16 4.08445 -0.850211 0
M  V30 28043 H 2553.79 3.22653 -0.0975593 0
M  V30 28044 H 2552.84 2.8743 -2.49175 0
M  V30 28045 H 2554.15 3.909 -3.09837 0
M  V30 28046 H 2553.31 5.81845 -1.71875 0
M  V30 28047 H 2552.04 4.77165 -1.0082 0
M  V30 28048 H 2551.05 4.40918 -3.28438 0
M  V30 28049 H 2552.27 5.4904 -3.99664 0
M  V30 28050 H 2550.22 6.27999 -1.89612 0
M  V30 28051 H 2550.14 6.65534 -3.5861 0
M  V30 28052 H 2551.41 7.34296 -2.61589 0
M  V30 28053 N 2555.63 1.17805 1.04688 0
M  V30 28054 C 2556.57 0.842802 2.12066 0
M  V30 28055 C 2557.55 -0.192579 1.61456 0
M  V30 28056 O 2558.73 -0.0729619 1.88359 0
M  V30 28057 C 2555.86 0.258123 3.37715 0
M  V30 28058 C 2554.9 1.2697 4.07162 0
M  V30 28059 S 2555.74 2.82307 4.55042 0
M  V30 28060 C 2556.89 2.25333 5.83931 0
M  V30 28061 H 2557.12 1.75221 2.40177 0
M  V30 28062 H 2554.66 1.00325 1.17364 0
M  V30 28063 H 2556.62 -0.0727213 4.10436 0
M  V30 28064 H 2555.28 -0.629303 3.07731 0
M  V30 28065 H 2554.47 0.809351 4.97459 0
M  V30 28066 H 2554.07 1.54645 3.4053 0
M  V30 28067 H 2556.36 1.63204 6.57549 0
M  V30 28068 H 2557.31 3.13905 6.3472 0
M  V30 28069 H 2557.71 1.68591 5.38737 0
M  V30 28070 N 2557.11 -1.23497 0.979094 0
M  V30 28071 C 2558.39 -1.87301 0.563707 0
M  V30 28072 C 2558.77 -1.88051 -0.959166 0
M  V30 28073 O 2558.12 -1.36117 -1.83533 0
M  V30 28074 C 2558.33 -3.28865 1.16828 0
M  V30 28075 C 2559.68 -4.05467 1.26021 0
M  V30 28076 O 2560.7 -3.3808 1.12164 0
M  V30 28077 O 2559.56 -5.26063 1.48053 0
M  V30 28078 H 2556.65 -0.804969 0.189616 0
M  V30 28079 H 2559.2 -1.31382 1.07409 0
M  V30 28080 H 2557.97 -3.22879 2.21054 0
M  V30 28081 H 2557.59 -3.92372 0.642633 0
M  V30 28082 N 2558.59 -0.750586 -1.38578 0
M  V30 28083 C 2559.55 -0.129192 -2.28836 0
M  V30 28084 C 2560.55 0.650688 -1.47047 0
M  V30 28085 O 2561.74 0.477398 -1.67531 0
M  V30 28086 C 2558.88 0.825563 -3.30753 0
M  V30 28087 H 2560.07 -0.924566 -2.85292 0
M  V30 28088 H 2557.62 -0.517402 -1.47488 0
M  V30 28089 H 2558.36 1.64672 -2.79381 0
M  V30 28090 H 2558.14 0.268784 -3.91178 0
M  V30 28091 H 2559.63 1.25643 -3.98251 0
M  V30 28092 N 2560.07 1.49477 -0.499425 0
M  V30 28093 C 2561.35 1.95298 0.108595 0
M  V30 28094 C 2561.73 1.44087 1.5428 0
M  V30 28095 O 2561.07 0.653946 2.18942 0
M  V30 28096 C 2561.28 3.48993 0.0228497 0
M  V30 28097 C 2562.63 4.2414 0.197568 0
M  V30 28098 O 2563.66 3.56065 0.0981109 0
M  V30 28099 O 2562.52 5.45023 0.401573 0
M  V30 28100 H 2559.61 0.82139 0.0961665 0
M  V30 28101 H 2562.16 1.60129 -0.561851 0
M  V30 28102 H 2560.93 3.78897 -0.977388 0
M  V30 28103 H 2560.55 3.90775 0.73351 0
M  V30 28104 N 2561.55 0.233191 1.55865 0
M  V30 28105 C 2562.48 -0.666559 2.23784 0
M  V30 28106 C 2563.46 -1.19203 1.21345 0
M  V30 28107 O 2564.64 -1.23389 1.49962 0
M  V30 28108 C 2561.77 -1.86973 2.92675 0
M  V30 28109 C 2560.73 -1.47761 4.01685 0
M  V30 28110 C 2560.05 -2.7605 4.57931 0
M  V30 28111 C 2561.35 -0.658902 5.18127 0
M  V30 28112 H 2563.05 -0.100253 2.99232 0
M  V30 28113 H 2560.59 -0.0467787 1.43924 0
M  V30 28114 H 2562.55 -2.50471 3.38884 0
M  V30 28115 H 2561.27 -2.46119 2.14693 0
M  V30 28116 H 2559.93 -0.866043 3.56224 0
M  V30 28117 H 2559.58 -3.33365 3.76665 0
M  V30 28118 H 2559.28 -2.50543 5.31509 0
M  V30 28119 H 2560.8 -3.4047 5.06865 0
M  V30 28120 H 2562.22 -1.19785 5.60646 0
M  V30 28121 H 2560.61 -0.500447 5.9801 0
M  V30 28122 H 2561.68 0.331941 4.83763 0
M  V30 28123 N 2563.03 -1.57549 -0.0400806 0
M  V30 28124 C 2564.25 -1.93407 -0.748897 0
M  V30 28125 C 2564.68 -0.832304 -1.68684 0
M  V30 28126 O 2564.03 0.212787 -1.80047 0
M  V30 28127 C 2564.08 -3.28307 -1.49154 0
M  V30 28128 O 2563.19 -3.19778 -2.60414 0
M  V30 28129 H 2562.53 -0.632464 -0.202201 0
M  V30 28130 H 2565.06 -2.046 0.00115682 0
M  V30 28131 H 2565.07 -3.62937 -1.86389 0
M  V30 28132 H 2563.74 -4.08063 -0.803568 0
M  V30 28133 H 2562.32 -2.96762 -2.25803 0
M  V30 28134 N 2564.5 0.312142 -1.54478 0
M  V30 28135 C 2565.44 1.40595 -1.81013 0
M  V30 28136 C 2566.45 1.47334 -0.692572 0
M  V30 28137 O 2567.64 1.49852 -0.969873 0
M  V30 28138 C 2564.74 2.79051 -1.92312 0
M  V30 28139 C 2563.91 2.95378 -3.22599 0
M  V30 28140 C 2562.97 4.14264 -3.24455 0
M  V30 28141 O 2562 4.0688 -3.98042 0
M  V30 28142 N 2563.2 5.2436 -2.49052 0
M  V30 28143 H 2565.96 1.18192 -2.7541 0
M  V30 28144 H 2563.52 0.502175 -1.53915 0
M  V30 28145 H 2565.52 3.5681 -1.90968 0
M  V30 28146 H 2564.09 2.94452 -1.0496 0
M  V30 28147 H 2563.31 2.04825 -3.36809 0
M  V30 28148 H 2564.59 3.03191 -4.08599 0
M  V30 28149 H 2563.99 5.33237 -1.88877 0
M  V30 28150 H 2562.55 6.00495 -2.53473 0
M  V30 28151 N 2565.98 1.46745 0.574784 0
M  V30 28152 C 2566.91 1.60774 1.69334 0
M  V30 28153 C 2567.89 0.457765 1.63825 0
M  V30 28154 O 2569.08 0.684979 1.81719 0
M  V30 28155 C 2566.21 1.60522 3.07977 0
M  V30 28156 C 2565.16 2.74569 3.28323 0
M  V30 28157 C 2564.49 2.59382 4.67574 0
M  V30 28158 C 2565.79 4.16324 3.15391 0
M  V30 28159 H 2567.48 2.54409 1.57849 0
M  V30 28160 H 2565.03 1.22437 0.757968 0
M  V30 28161 H 2566.98 1.6893 3.86058 0
M  V30 28162 H 2565.7 0.634361 3.2038 0
M  V30 28163 H 2564.36 2.65644 2.52644 0
M  V30 28164 H 2564.01 1.60362 4.76753 0
M  V30 28165 H 2563.71 3.35882 4.82138 0
M  V30 28166 H 2565.24 2.69692 5.47813 0
M  V30 28167 H 2566.65 4.2632 3.83307 0
M  V30 28168 H 2565.05 4.93474 3.41473 0
M  V30 28169 H 2566.12 4.35924 2.12364 0
M  V30 28170 N 2567.46 -0.820078 1.34583 0
M  V30 28171 C 2568.39 -1.93882 1.22239 0
M  V30 28172 C 2569.4 -1.62119 0.148804 0
M  V30 28173 O 2570.59 -1.7394 0.400908 0
M  V30 28174 C 2567.69 -3.27896 0.8566 0
M  V30 28175 C 2566.87 -3.87662 2.02576 0
M  V30 28176 C 2565.93 -5.00059 1.63791 0
M  V30 28177 O 2564.95 -5.18203 2.35486 0
M  V30 28178 N 2566.15 -5.77853 0.553713 0
M  V30 28179 H 2568.92 -2.05002 2.18619 0
M  V30 28180 H 2566.48 -0.996808 1.27575 0
M  V30 28181 H 2568.47 -4.00539 0.578876 0
M  V30 28182 H 2567.04 -3.12595 -0.0170969 0
M  V30 28183 H 2566.26 -3.07377 2.46805 0
M  V30 28184 H 2567.55 -4.24325 2.8076 0
M  V30 28185 H 2566.95 -5.65684 -0.0422534 0
M  V30 28186 H 2565.5 -6.50935 0.335729 0
M  V30 28187 N 2568.94 -1.18359 -1.04062 0
M  V30 28188 C 2570.17 -1.00387 -1.80915 0
M  V30 28189 C 2570.58 0.447706 -1.83415 0
M  V30 28190 O 2569.94 1.31097 -1.26964 0
M  V30 28191 C 2569.99 -1.55149 -3.26513 0
M  V30 28192 O 2569.71 -2.94624 -3.24235 0
M  V30 28193 C 2571.21 -1.41796 -4.2001 0
M  V30 28194 H 2568.43 -0.354484 -0.569721 0
M  V30 28195 H 2570.97 -1.56909 -1.31149 0
M  V30 28196 H 2569.13 -1.02804 -3.7351 0
M  V30 28197 H 2569.54 -3.20164 -4.15446 0
M  V30 28198 H 2571.02 -1.84911 -5.20108 0
M  V30 28199 H 2571.49 -0.366687 -4.37667 0
M  V30 28200 H 2572.1 -1.93214 -3.78878 0
M  V30 28201 N 2570.42 1.22976 -0.98563 0
M  V30 28202 C 2571.33 2.28334 -0.538588 0
M  V30 28203 C 2572.34 1.69122 0.409134 0
M  V30 28204 O 2573.52 1.99475 0.277762 0
M  V30 28205 C 2570.58 3.46389 0.146807 0
M  V30 28206 C 2569.64 4.20942 -0.84297 0
M  V30 28207 C 2568.88 5.33361 -0.190188 0
M  V30 28208 O 2569.1 5.6125 1.01757 0
M  V30 28209 O 2568.03 5.95263 -0.891393 0
M  V30 28210 H 2571.86 2.68726 -1.41492 0
M  V30 28211 H 2569.44 1.29006 -0.753517 0
M  V30 28212 H 2571.33 4.1804 0.531051 0
M  V30 28213 H 2570 3.07937 0.997817 0
M  V30 28214 H 2568.91 3.51593 -1.27801 0
M  V30 28215 H 2570.24 4.63257 -1.66295 0
M  V30 28216 N 2571.89 0.757924 1.38178 0
M  V30 28217 C 2573.14 0.316488 2.00315 0
M  V30 28218 C 2573.47 -1.10022 1.60028 0
M  V30 28219 O 2572.75 -1.75432 0.839866 0
M  V30 28220 C 2573.03 0.444307 3.57348 0
M  V30 28221 C 2572.88 1.90243 4.07587 0
M  V30 28222 C 2574.2 -0.159723 4.3981 0
M  V30 28223 H 2571.32 0.116471 0.727739 0
M  V30 28224 H 2573.96 0.958381 1.64058 0
M  V30 28225 H 2572.11 -0.102165 3.88366 0
M  V30 28226 H 2573.79 2.50755 3.87195 0
M  V30 28227 H 2572.03 2.41602 3.60293 0
M  V30 28228 H 2572.7 1.943 5.16673 0
M  V30 28229 H 2575.18 0.306387 4.1497 0
M  V30 28230 H 2574.05 -0.040071 5.48885 0
M  V30 28231 H 2574.31 -1.24851 4.24104 0
M  V30 28232 N 2573.37 -1.4921 0.507345 0
M  V30 28233 C 2574.28 -2.33017 -0.272095 0
M  V30 28234 C 2575.3 -1.45042 -0.961181 0
M  V30 28235 O 2576.47 -1.78057 -0.941159 0
M  V30 28236 C 2573.54 -3.20634 -1.3189 0
M  V30 28237 C 2572.6 -4.24464 -0.642574 0
M  V30 28238 C 2571.83 -5.07894 -1.6395 0
M  V30 28239 O 2572.06 -4.92938 -2.86999 0
M  V30 28240 O 2570.99 -5.89992 -1.19133 0
M  V30 28241 H 2574.82 -3.00864 0.414035 0
M  V30 28242 H 2572.4 -1.46966 0.268581 0
M  V30 28243 H 2574.28 -3.74894 -1.92439 0
M  V30 28244 H 2572.96 -2.55473 -1.98784 0
M  V30 28245 H 2571.87 -3.741 0.00282828 0
M  V30 28246 H 2573.2 -4.92197 -0.0159668 0
M  V30 28247 N 2574.85 -0.241454 -1.55739 0
M  V30 28248 C 2575.76 0.671266 -2.24791 0
M  V30 28249 C 2576.78 1.1977 -1.26219 0
M  V30 28250 O 2577.95 1.23512 -1.59081 0
M  V30 28251 C 2575.02 1.85391 -2.9297 0
M  V30 28252 C 2574.08 1.36749 -4.06938 0
M  V30 28253 C 2573.31 2.49376 -4.71855 0
M  V30 28254 O 2573.53 3.6798 -4.35829 0
M  V30 28255 O 2572.47 2.19444 -5.60471 0
M  V30 28256 H 2576.29 0.112913 -3.0349 0
M  V30 28257 H 2573.88 -0.0101776 -1.49397 0
M  V30 28258 H 2575.76 2.54417 -3.35931 0
M  V30 28259 H 2574.44 2.39998 -2.17215 0
M  V30 28260 H 2573.34 0.644661 -3.68504 0
M  V30 28261 H 2574.68 0.867561 -4.84494 0
M  V30 28262 N 2576.33 1.57568 0.0317248 0
M  V30 28263 C 2577.29 2.05362 1.0178 0
M  V30 28264 C 2578.29 0.957276 1.29201 0
M  V30 28265 O 2579.48 1.22098 1.24249 0
M  V30 28266 C 2576.61 2.46831 2.35133 0
M  V30 28267 H 2577.81 2.93734 0.60501 0
M  V30 28268 H 2575.36 1.53799 0.278487 0
M  V30 28269 H 2576.09 1.61607 2.81165 0
M  V30 28270 H 2575.88 3.2687 2.1656 0
M  V30 28271 H 2577.37 2.84244 3.05933 0
M  V30 28272 N 2577.81 -0.303946 1.54641 0
M  V30 28273 C 2579.05 -1.04106 1.7404 0
M  V30 28274 C 2579.39 -1.87023 0.523084 0
M  V30 28275 O 2578.66 -1.88488 -0.479841 0
M  V30 28276 C 2578.94 -1.9495 3.02765 0
M  V30 28277 C 2578.8 -1.15233 4.34789 0
M  V30 28278 C 2580.12 -2.94169 3.27342 0
M  V30 28279 H 2577.23 -0.377068 0.633237 0
M  V30 28280 H 2579.88 -0.315968 1.87354 0
M  V30 28281 H 2578.03 -2.56776 2.91544 0
M  V30 28282 H 2579.7 -0.557155 4.57923 0
M  V30 28283 H 2577.94 -0.454977 4.31407 0
M  V30 28284 H 2578.61 -1.82041 5.21119 0
M  V30 28285 H 2581.09 -2.42471 3.38152 0
M  V30 28286 H 2579.96 -3.549 4.18733 0
M  V30 28287 H 2580.23 -3.67673 2.45497 0
M  V30 28288 N 2579.28 -1.47047 -0.566994 0
M  V30 28289 C 2580.22 -1.54847 -1.68982 0
M  V30 28290 C 2581.23 -0.435459 -1.56868 0
M  V30 28291 O 2582.42 -0.704599 -1.64005 0
M  V30 28292 C 2579.52 -1.42748 -3.0737 0
M  V30 28293 C 2578.69 -2.68446 -3.45334 0
M  V30 28294 C 2577.75 -2.50322 -4.62845 0
M  V30 28295 O 2576.78 -3.24103 -4.67916 0
M  V30 28296 N 2577.98 -1.57509 -5.58723 0
M  V30 28297 H 2580.74 -2.51666 -1.6274 0
M  V30 28298 H 2578.3 -1.43303 -0.753385 0
M  V30 28299 H 2580.3 -1.28372 -3.838 0
M  V30 28300 H 2578.87 -0.540499 -3.07892 0
M  V30 28301 H 2578.09 -2.97653 -2.5845 0
M  V30 28302 H 2579.37 -3.51914 -3.6747 0
M  V30 28303 H 2578.77 -0.966974 -5.57374 0
M  V30 28304 H 2577.33 -1.49089 -6.3452 0
M  V30 28305 N 2580.76 0.812929 -1.35016 0
M  V30 28306 C 2581.67 1.9561 -1.29514 0
M  V30 28307 C 2582.69 1.72834 -0.201101 0
M  V30 28308 O 2583.86 1.9677 -0.429355 0
M  V30 28309 C 2580.93 3.30086 -1.06039 0
M  V30 28310 C 2579.99 3.65802 -2.24695 0
M  V30 28311 C 2579.22 4.9386 -2.02331 0
M  V30 28312 O 2579.45 5.61803 -0.986563 0
M  V30 28313 O 2578.38 5.27687 -2.89534 0
M  V30 28314 H 2582.21 2.03198 -2.25709 0
M  V30 28315 H 2579.79 0.94979 -1.15323 0
M  V30 28316 H 2581.67 4.10605 -0.947702 0
M  V30 28317 H 2580.35 3.23443 -0.128909 0
M  V30 28318 H 2579.26 2.85685 -2.41526 0
M  V30 28319 H 2580.59 3.77141 -3.16268 0
M  V30 28320 N 2582.24 1.18909 1.03433 0
M  V30 28321 C 2583.48 0.999422 1.783 0
M  V30 28322 C 2583.84 -0.462186 1.86354 0
M  V30 28323 O 2585.05 -0.771497 2.5749 0
M  V30 28324 C 2583.32 1.64371 3.17359 0
M  V30 28325 S 2584.88 1.60267 4.08485 0
M  V30 28326 H 2581.69 0.358753 0.613854 0
M  V30 28327 H 2584.3 1.51163 1.23976 0
M  V30 28328 H 2583 2.6996 3.09111 0
M  V30 28329 H 2582.53 1.13206 3.7676 0
M  V30 28330 H 2584.55 0.623019 4.92273 0
M  V30 28331 N 2583.72 -1.22452 0.992137 0
M  V30 28332 C 2585.13 -1.43296 0.702739 0
M  V30 28333 C 2585.33 -1.87933 -0.726876 0
M  V30 28334 O 2584.39 -2.03273 -1.49788 0
M  V30 28335 C 2585.7 -2.47506 1.70766 0
M  V30 28336 C 2587.25 -2.61306 1.72302 0
M  V30 28337 C 2587.73 -3.68737 2.71656 0
M  V30 28338 N 2589.22 -3.76194 2.70245 0
M  V30 28339 C 2589.95 -4.58911 3.43786 0
M  V30 28340 N 2589.45 -5.45626 4.26924 0
M  V30 28341 N 2591.24 -4.53214 3.32495 0
M  V30 28342 H 2583.39 -0.917837 1.91545 0
M  V30 28343 H 2585.66 -0.465148 0.82604 0
M  V30 28344 H 2585.36 -2.21652 2.73063 0
M  V30 28345 H 2585.24 -3.46096 1.49991 0
M  V30 28346 H 2587.62 -2.86505 0.707039 0
M  V30 28347 H 2587.7 -1.62994 1.97146 0
M  V30 28348 H 2587.35 -3.44286 3.73403 0
M  V30 28349 H 2587.28 -4.66617 2.44082 0
M  V30 28350 H 2589.77 -3.14234 2.09918 0
M  V30 28351 H 2590.08 -6.05763 4.79866 0
M  V30 28352 H 2588.43 -5.4521 4.31011 0
M  V30 28353 H 2591.62 -3.84494 2.66987 0
M  V30 28354 H 2591.79 -5.17448 3.90067 0
M  V30 28355 N 2585.2 -0.765242 -1.37774 0
M  V30 28356 C 2586.14 -0.134839 -2.32209 0
M  V30 28357 C 2587.14 0.692288 -1.54608 0
M  V30 28358 O 2588.34 0.590079 -1.70053 0
M  V30 28359 H 2584.72 -0.0248137 -0.75159 0
M  V30 28360 H 2586.69 -0.947168 -2.82969 0
M  V30 28361 C 2585.44 0.735004 -3.39843 0
M  V30 28362 H 2584.76 0.107921 -3.99654 0
M  V30 28363 H 2586.2 1.14318 -4.08298 0
M  V30 28364 C 2584.66 1.88276 -2.79381 0
M  V30 28365 O 2585.19 2.97778 -2.69613 0
M  V30 28366 N 2583.4 1.68138 -2.37019 0
M  V30 28367 H 2582.94 0.790729 -2.45164 0
M  V30 28368 H 2582.9 2.451 -1.96909 0
M  V30 28369 N 2586.67 1.48939 -0.515251 0
M  V30 28370 C 2587.64 2.27891 0.244641 0
M  V30 28371 C 2588.64 1.34508 0.881143 0
M  V30 28372 O 2589.83 1.57538 0.743469 0
M  V30 28373 C 2586.96 3.12926 1.35242 0
M  V30 28374 H 2588.15 2.9653 -0.448341 0
M  V30 28375 H 2585.71 1.53938 -0.270683 0
M  V30 28376 H 2586.44 2.48884 2.07911 0
M  V30 28377 H 2586.23 3.816 0.901307 0
M  V30 28378 H 2587.72 3.72519 1.88731 0
M  V30 28379 N 2588.15 0.249709 1.55609 0
M  V30 28380 C 2589.06 -0.659335 2.25144 0
M  V30 28381 C 2590.08 -1.19099 1.26852 0
M  V30 28382 O 2591.26 -1.22666 1.59734 0
M  V30 28383 C 2588.32 -1.83834 2.93949 0
M  V30 28384 C 2587.38 -1.34589 4.07657 0
M  V30 28385 C 2586.61 -2.4687 4.73171 0
M  V30 28386 O 2586.84 -3.65663 4.37775 0
M  V30 28387 O 2585.77 -2.16469 5.61627 0
M  V30 28388 H 2589.6 -0.0968165 3.03546 0
M  V30 28389 H 2587.18 0.0181003 1.49389 0
M  V30 28390 H 2589.06 -2.52632 3.37276 0
M  V30 28391 H 2587.74 -2.38843 2.18485 0
M  V30 28392 H 2586.65 -0.625109 3.6884 0
M  V30 28393 H 2587.98 -0.841855 4.84947 0
M  V30 28394 N 2589.63 -1.57583 -0.0233682 0
M  V30 28395 C 2590.54 -2.10336 -1.03904 0
M  V30 28396 C 2591.56 -1.04326 -1.39256 0
M  V30 28397 O 2592.73 -1.36094 -1.4846 0
M  V30 28398 C 2589.8 -2.57697 -2.31933 0
M  V30 28399 C 2588.86 -3.78213 -2.0311 0
M  V30 28400 C 2588.09 -4.23306 -3.25036 0
M  V30 28401 O 2588.32 -3.67884 -4.3591 0
M  V30 28402 O 2587.25 -5.15688 -3.10402 0
M  V30 28403 H 2591.08 -2.9729 -0.620695 0
M  V30 28404 H 2588.66 -1.47448 -0.240717 0
M  V30 28405 H 2590.54 -2.88464 -3.07191 0
M  V30 28406 H 2589.22 -1.73852 -2.73052 0
M  V30 28407 H 2588.12 -3.52456 -1.25402 0
M  V30 28408 H 2589.46 -4.63059 -1.66844 0
M  V30 28409 N 2591.11 0.29574 -1.548 0
M  V30 28410 C 2592.06 1.36491 -1.86115 0
M  V30 28411 C 2593.03 1.50136 -0.710527 0
M  V30 28412 O 2594.21 1.6491 -0.959655 0
M  V30 28413 C 2591.35 2.72409 -2.11866 0
M  V30 28414 C 2590.46 2.67171 -3.39475 0
M  V30 28415 C 2589.6 3.95119 -3.55042 0
M  V30 28416 C 2588.64 3.84299 -4.76425 0
M  V30 28417 N 2587.78 5.04033 -4.88769 0
M  V30 28418 H 2592.62 1.09086 -2.77316 0
M  V30 28419 H 2590.15 0.527506 -1.37316 0
M  V30 28420 H 2592.11 3.51461 -2.24792 0
M  V30 28421 H 2590.74 2.98064 -1.23925 0
M  V30 28422 H 2589.79 1.79956 -3.35142 0
M  V30 28423 H 2591.1 2.55069 -4.28651 0
M  V30 28424 H 2590.26 4.82608 -3.67661 0
M  V30 28425 H 2589 4.10061 -2.64009 0
M  V30 28426 H 2588 2.95194 -4.63833 0
M  V30 28427 H 2589.23 3.70896 -5.6887 0
M  V30 28428 H 2587.17 5.19429 -4.00661 0
M  V30 28429 H 2587.09 4.94374 -5.71954 0
M  V30 28430 H 2588.36 5.93158 -5.0575 0
M  V30 28431 N 2592.59 1.47346 0.559187 0
M  V30 28432 C 2593.55 1.59238 1.64851 0
M  V30 28433 C 2594.55 0.467634 1.5385 0
M  V30 28434 O 2595.74 0.732645 1.58044 0
M  V30 28435 C 2592.87 1.53501 3.04385 0
M  V30 28436 H 2594.07 2.56341 1.55657 0
M  V30 28437 H 2591.62 1.35507 0.778949 0
M  V30 28438 H 2592.35 0.57766 3.19114 0
M  V30 28439 H 2592.14 2.35128 3.13779 0
M  V30 28440 H 2593.63 1.64957 3.83639 0
M  V30 28441 N 2594.07 -0.805758 1.35445 0
M  V30 28442 C 2595.01 -1.91763 1.28434 0
M  V30 28443 C 2595.98 -1.65365 0.156131 0
M  V30 28444 O 2597.17 -1.87747 0.339969 0
M  V30 28445 C 2594.31 -3.28318 1.06306 0
M  V30 28446 C 2593.42 -3.66898 2.28057 0
M  V30 28447 C 2592.56 -4.92487 1.99072 0
M  V30 28448 C 2591.59 -5.23697 3.16872 0
M  V30 28449 N 2590.73 -6.40466 2.87658 0
M  V30 28450 H 2595.57 -1.97092 2.23515 0
M  V30 28451 H 2593.11 -0.964034 1.11107 0
M  V30 28452 H 2595.07 -4.07041 0.915084 0
M  V30 28453 H 2593.7 -3.22456 0.148878 0
M  V30 28454 H 2592.75 -2.8343 2.53716 0
M  V30 28455 H 2594.06 -3.85921 3.16016 0
M  V30 28456 H 2593.21 -5.79037 1.8111 0
M  V30 28457 H 2591.95 -4.75501 1.08399 0
M  V30 28458 H 2590.96 -4.35637 3.35411 0
M  V30 28459 H 2592.18 -5.42613 4.08348 0
M  V30 28460 H 2590.13 -6.24903 1.99579 0
M  V30 28461 H 2590.05 -6.59744 3.69153 0
M  V30 28462 H 2591.31 -7.30042 2.73238 0
M  V30 28463 N 2595.54 -1.19456 -1.02801 0
M  V30 28464 C 2596.49 -0.933083 -2.11098 0
M  V30 28465 C 2597.46 0.132418 -1.65571 0
M  V30 28466 O 2598.65 -0.0099093 -1.90797 0
M  V30 28467 C 2595.79 -0.478807 -3.41762 0
M  V30 28468 C 2594.9 -1.61117 -4.00831 0
M  V30 28469 C 2594.03 -1.10834 -5.19509 0
M  V30 28470 C 2593.07 -2.21455 -5.70635 0
M  V30 28471 N 2592.21 -1.72473 -6.80586 0
M  V30 28472 H 2597.05 -1.86032 -2.32801 0
M  V30 28473 H 2594.59 -0.927461 -1.14178 0
M  V30 28474 H 2596.54 -0.196819 -4.16735 0
M  V30 28475 H 2595.17 0.411437 -3.20167 0
M  V30 28476 H 2594.23 -2.00835 -3.23063 0
M  V30 28477 H 2595.54 -2.44457 -4.3479 0
M  V30 28478 H 2594.69 -0.781639 -6.01644 0
M  V30 28479 H 2593.43 -0.244691 -4.87086 0
M  V30 28480 H 2592.44 -2.54955 -4.87112 0
M  V30 28481 H 2593.66 -3.08278 -6.05097 0
M  V30 28482 H 2591.61 -0.884171 -6.50014 0
M  V30 28483 H 2591.52 -2.49401 -7.13677 0
M  V30 28484 H 2592.79 -1.42768 -7.66314 0
M  V30 28485 N 2597.02 1.21924 -0.998617 0
M  V30 28486 C 2597.98 2.22286 -0.558718 0
M  V30 28487 C 2598.98 1.56684 0.361498 0
M  V30 28488 O 2600.17 1.7353 0.152665 0
M  V30 28489 C 2597.31 3.40389 0.18655 0
M  V30 28490 H 2598.5 2.62718 -1.44634 0
M  V30 28491 H 2596.05 1.35074 -0.786437 0
M  V30 28492 H 2596.79 3.05437 1.0899 0
M  V30 28493 H 2596.57 3.89221 -0.474257 0
M  V30 28494 H 2598.06 4.14806 0.482294 0
M  V30 28495 N 2598.5 0.772537 1.37367 0
M  V30 28496 C 2599.75 0.333896 1.98917 0
M  V30 28497 C 2600.06 -1.09586 1.62019 0
M  V30 28498 O 2601.27 -1.63593 2.16679 0
M  V30 28499 C 2599.72 0.546033 3.55734 0
M  V30 28500 C 2599.33 1.9861 4.01569 0
M  V30 28501 C 2601.08 0.171054 4.24155 0
M  V30 28502 C 2598.98 2.14579 5.51099 0
M  V30 28503 H 2597.91 0.121098 0.744212 0
M  V30 28504 H 2600.56 0.951778 1.56887 0
M  V30 28505 H 2598.95 -0.141317 3.95748 0
M  V30 28506 H 2600.12 2.70847 3.72798 0
M  V30 28507 H 2598.43 2.31775 3.45933 0
M  V30 28508 H 2601.03 0.268874 5.34024 0
M  V30 28509 H 2601.37 -0.878783 4.06919 0
M  V30 28510 H 2601.91 0.810983 3.89446 0
M  V30 28511 H 2598.65 3.17885 5.73262 0
M  V30 28512 H 2598.17 1.46827 5.81551 0
M  V30 28513 H 2599.85 1.94479 6.17079 0
M  V30 28514 N 2599.98 -1.48664 0.523142 0
M  V30 28515 C 2601.21 -2.06898 -0.00959483 0
M  V30 28516 C 2601.62 -1.38061 -1.28781 0
M  V30 28517 O 2600.98 -0.465924 -1.76452 0
M  V30 28518 C 2601.03 -3.60673 -0.244323 0
M  V30 28519 O 2600.75 -4.26924 0.983247 0
M  V30 28520 C 2602.25 -4.35684 -0.818212 0
M  V30 28521 H 2599.47 -0.67031 0.0304278 0
M  V30 28522 H 2602.01 -1.91148 0.726832 0
M  V30 28523 H 2600.17 -3.76052 -0.930781 0
M  V30 28524 H 2600.58 -5.18968 0.759744 0
M  V30 28525 H 2602.06 -5.44077 -0.931914 0
M  V30 28526 H 2602.53 -3.99649 -1.82146 0
M  V30 28527 H 2603.14 -4.24966 -0.168534 0
M  V30 28528 N 2601.46 -0.257958 -1.55475 0
M  V30 28529 C 2602.73 0.414596 -1.91156 0
M  V30 28530 C 2603.11 1.75033 -1.18011 0
M  V30 28531 O 2602.46 2.26506 -0.301232 0
M  V30 28532 C 2602.67 0.571799 -3.44284 0
M  V30 28533 C 2604.02 0.862605 -4.15745 0
M  V30 28534 O 2605.04 0.657252 -3.50084 0
M  V30 28535 O 2603.9 1.25431 -5.31911 0
M  V30 28536 H 2601 0.224236 -0.79602 0
M  V30 28537 H 2603.54 -0.302843 -1.66976 0
M  V30 28538 H 2602.31 -0.368912 -3.89557 0
M  V30 28539 H 2601.94 1.33936 -3.74362 0
M  V30 28540 N 2602.93 1.57593 0.0150108 0
M  V30 28541 C 2603.9 2.0643 0.99596 0
M  V30 28542 C 2604.9 0.970926 1.28178 0
M  V30 28543 O 2606.09 1.23409 1.22947 0
M  V30 28544 C 2603.22 2.49311 2.32502 0
M  V30 28545 H 2604.41 2.94359 0.573822 0
M  V30 28546 H 2601.97 1.54086 0.262159 0
M  V30 28547 H 2602.7 1.6458 2.79435 0
M  V30 28548 H 2602.49 3.29149 2.13081 0
M  V30 28549 H 2603.98 2.87473 3.02901 0
M  V30 28550 N 2604.41 -0.287527 1.54955 0
M  V30 28551 C 2605.38 -1.33819 1.86078 0
M  V30 28552 C 2606.38 -1.43048 0.734439 0
M  V30 28553 O 2607.57 -1.4245 1.00268 0
M  V30 28554 C 2604.7 -2.72141 2.0531 0
M  V30 28555 H 2605.89 -1.0746 2.79986 0
M  V30 28556 H 2603.44 -0.524876 1.47223 0
M  V30 28557 H 2604.18 -3.03702 1.13735 0
M  V30 28558 H 2603.96 -2.66831 2.87304 0
M  V30 28559 H 2605.45 -3.48083 2.30713 0
M  V30 28560 N 2605.89 -1.47641 -0.551365 0
M  V30 28561 C 2606.82 -1.55113 -1.67378 0
M  V30 28562 C 2607.8 -0.402884 -1.5753 0
M  V30 28563 O 2608.99 -0.611506 -1.78306 0
M  V30 28564 C 2606.11 -1.45914 -3.05658 0
M  V30 28565 C 2605.16 -2.65313 -3.33933 0
M  V30 28566 S 2605.99 -4.27463 -3.22546 0
M  V30 28567 C 2607.15 -4.20826 -4.6331 0
M  V30 28568 H 2607.38 -2.5007 -1.60786 0
M  V30 28569 H 2604.91 -1.3591 -0.73265 0
M  V30 28570 H 2606.87 -1.41293 -3.85417 0
M  V30 28571 H 2605.53 -0.523302 -3.0971 0
M  V30 28572 H 2604.73 -2.54956 -4.34757 0
M  V30 28573 H 2604.33 -2.67086 -2.61804 0
M  V30 28574 H 2606.62 -3.89441 -5.54385 0
M  V30 28575 H 2607.56 -5.21756 -4.78723 0
M  V30 28576 H 2607.97 -3.51601 -4.4163 0
M  V30 28577 N 2607.37 0.798563 -1.3587 0
M  V30 28578 C 2608.3 1.91697 -1.23804 0
M  V30 28579 C 2609.28 1.62125 -0.124171 0
M  V30 28580 O 2610.46 1.86198 -0.293689 0
M  V30 28581 C 2607.59 3.26299 -0.908121 0
M  V30 28582 C 2606.64 3.74811 -2.03516 0
M  V30 28583 S 2607.47 3.91659 -3.6519 0
M  V30 28584 C 2608.63 5.2915 -3.34292 0
M  V30 28585 H 2608.86 2.01639 -2.1847 0
M  V30 28586 H 2606.39 0.956811 -1.2118 0
M  V30 28587 H 2608.35 4.04055 -0.724577 0
M  V30 28588 H 2607.01 3.14093 0.0206032 0
M  V30 28589 H 2606.2 4.72321 -1.75866 0
M  V30 28590 H 2605.81 3.04077 -2.17745 0
M  V30 28591 H 2608.1 6.13419 -2.87618 0
M  V30 28592 H 2609.04 5.61798 -4.31031 0
M  V30 28593 H 2609.45 4.95817 -2.69863 0
M  V30 28594 N 2608.85 1.19999 1.02166 0
M  V30 28595 C 2609.81 0.946077 2.08763 0
M  V30 28596 C 2610.81 -0.0763563 1.60619 0
M  V30 28597 O 2612 0.159165 1.73471 0
M  V30 28598 C 2609.13 0.423314 3.38262 0
M  V30 28599 H 2610.32 1.89157 2.32722 0
M  V30 28600 H 2607.88 1.01466 1.18888 0
M  V30 28601 H 2608.61 -0.527881 3.19975 0
M  V30 28602 H 2608.4 1.1606 3.7453 0
M  V30 28603 H 2609.89 0.264985 4.16758 0
M  V30 28604 N 2610.32 -1.21392 1.00507 0
M  V30 28605 C 2611.23 -2.27448 0.574846 0
M  V30 28606 C 2612.25 -1.69751 -0.382176 0
M  V30 28607 O 2613.43 -1.99892 -0.245992 0
M  V30 28608 C 2610.49 -3.46579 -0.0916805 0
M  V30 28609 C 2609.55 -4.19548 0.909831 0
M  V30 28610 C 2608.79 -5.32991 0.275017 0
M  V30 28611 O 2609.01 -5.62798 -0.928155 0
M  V30 28612 O 2607.94 -5.93769 0.985982 0
M  V30 28613 H 2611.77 -2.66441 1.45749 0
M  V30 28614 H 2609.35 -1.27791 0.773946 0
M  V30 28615 H 2611.24 -4.18832 -0.464477 0
M  V30 28616 H 2609.91 -3.09486 -0.9487 0
M  V30 28617 H 2608.82 -3.49515 1.33379 0
M  V30 28618 H 2610.15 -4.60552 1.73644 0
M  V30 28619 N 2611.8 -0.779811 -1.36955 0
M  V30 28620 C 2612.71 -0.172532 -2.33965 0
M  V30 28621 C 2613.73 0.670193 -1.60575 0
M  V30 28622 O 2614.9 0.588229 -1.92618 0
M  V30 28623 C 2611.97 0.690113 -3.39762 0
M  V30 28624 C 2611.03 -0.169999 -4.28963 0
M  V30 28625 C 2610.26 0.651569 -5.29708 0
M  V30 28626 O 2610.49 1.88817 -5.38242 0
M  V30 28627 O 2609.42 0.0565206 -6.01873 0
M  V30 28628 H 2613.25 -0.974372 -2.87645 0
M  V30 28629 H 2610.83 -0.541102 -1.39257 0
M  V30 28630 H 2612.71 1.18233 -4.04474 0
M  V30 28631 H 2611.39 1.47 -2.88397 0
M  V30 28632 H 2610.3 -0.70876 -3.67325 0
M  V30 28633 H 2611.63 -0.91317 -4.83655 0
M  V30 28634 N 2613.28 1.48384 -0.531019 0
M  V30 28635 C 2614.21 2.32462 0.219944 0
M  V30 28636 C 2615.19 1.42158 0.934086 0
M  V30 28637 O 2616.38 1.71043 0.919663 0
M  V30 28638 C 2613.51 3.23377 1.26668 0
M  V30 28639 C 2612.46 4.22714 0.670616 0
M  V30 28640 C 2611.79 5.0277 1.82008 0
M  V30 28641 C 2613.09 5.21069 -0.35836 0
M  V30 28642 H 2614.78 2.95496 -0.481922 0
M  V30 28643 H 2612.33 1.42099 -0.233207 0
M  V30 28644 H 2614.28 3.81023 1.79999 0
M  V30 28645 H 2613 2.58345 1.99814 0
M  V30 28646 H 2611.66 3.66256 0.158813 0
M  V30 28647 H 2611.31 4.34161 2.53994 0
M  V30 28648 H 2611.01 5.70005 1.42717 0
M  V30 28649 H 2612.53 5.63268 2.35716 0
M  V30 28650 H 2613.95 5.73233 0.0879074 0
M  V30 28651 H 2612.35 5.96362 -0.668715 0
M  V30 28652 H 2613.42 4.68142 -1.26375 0
M  V30 28653 N 2614.76 0.2662 1.55336 0
M  V30 28654 C 2615.71 -0.625126 2.22173 0
M  V30 28655 C 2616.68 -1.15661 1.19213 0
M  V30 28656 O 2617.86 -1.20755 1.47726 0
M  V30 28657 C 2615 -1.80755 2.93975 0
M  V30 28658 C 2614.11 -1.31077 4.11634 0
M  V30 28659 C 2613.25 -2.45428 4.71104 0
M  V30 28660 C 2612.29 -1.92708 5.80973 0
M  V30 28661 N 2611.42 -3.00498 6.34543 0
M  V30 28662 H 2616.26 -0.0485058 2.97961 0
M  V30 28663 H 2613.8 -0.0121766 1.47095 0
M  V30 28664 H 2615.76 -2.50245 3.33816 0
M  V30 28665 H 2614.39 -2.35634 2.20627 0
M  V30 28666 H 2613.44 -0.509259 3.76976 0
M  V30 28667 H 2614.75 -0.884547 4.90894 0
M  V30 28668 H 2613.91 -3.22927 5.13617 0
M  V30 28669 H 2612.65 -2.91361 3.91101 0
M  V30 28670 H 2611.65 -1.13685 5.37918 0
M  V30 28671 H 2612.88 -1.47721 6.62839 0
M  V30 28672 H 2610.82 -3.4583 5.57439 0
M  V30 28673 H 2610.74 -2.62266 7.0905 0
M  V30 28674 H 2612.01 -3.77999 6.81716 0
M  V30 28675 N 2616.24 -1.57599 -0.0066531 0
M  V30 28676 C 2617.18 -2.08001 -1.0002 0
M  V30 28677 C 2618.15 -0.973967 -1.34548 0
M  V30 28678 O 2619.34 -1.24598 -1.44499 0
M  V30 28679 C 2616.48 -2.58256 -2.28905 0
M  V30 28680 C 2615.59 -3.82738 -2.00339 0
M  V30 28681 C 2614.73 -4.21519 -3.23257 0
M  V30 28682 C 2613.77 -5.38855 -2.90347 0
M  V30 28683 N 2612.9 -5.72961 -4.05783 0
M  V30 28684 H 2617.74 -2.92625 -0.563448 0
M  V30 28685 H 2615.28 -1.44665 -0.266567 0
M  V30 28686 H 2617.24 -2.85469 -3.04242 0
M  V30 28687 H 2615.87 -1.76517 -2.70262 0
M  V30 28688 H 2614.92 -3.62473 -1.154 0
M  V30 28689 H 2616.23 -4.68178 -1.72078 0
M  V30 28690 H 2615.39 -4.49979 -4.06945 0
M  V30 28691 H 2614.12 -3.34774 -3.54651 0
M  V30 28692 H 2613.13 -5.10126 -2.05066 0
M  V30 28693 H 2614.35 -6.27271 -2.60208 0
M  V30 28694 H 2612.3 -4.89175 -4.37086 0
M  V30 28695 H 2612.22 -6.52961 -3.81023 0
M  V30 28696 H 2613.49 -6.06009 -4.90278 0
M  V30 28697 N 2617.72 0.279305 -1.55105 0
M  V30 28698 C 2618.63 1.36724 -1.9064 0
M  V30 28699 C 2619.64 1.54367 -0.802926 0
M  V30 28700 O 2620.82 1.68615 -1.10141 0
M  V30 28701 C 2617.88 2.70751 -2.16552 0
M  V30 28702 C 2616.94 2.61909 -3.40151 0
M  V30 28703 C 2616.18 3.89544 -3.64817 0
M  V30 28704 O 2616.4 4.8993 -2.92103 0
M  V30 28705 O 2615.33 3.90127 -4.5835 0
M  V30 28706 H 2619.16 1.09586 -2.83239 0
M  V30 28707 H 2616.74 0.477281 -1.41571 0
M  V30 28708 H 2618.63 3.5001 -2.34671 0
M  V30 28709 H 2617.3 2.97688 -1.27136 0
M  V30 28710 H 2616.21 1.81046 -3.27373 0
M  V30 28711 H 2617.54 2.39922 -4.29765 0
M  V30 28712 N 2619.19 1.47931 0.543528 0
M  V30 28713 C 2620.13 1.57516 1.66497 0
M  V30 28714 C 2621.14 0.46036 1.56155 0
M  V30 28715 O 2622.33 0.730602 1.62863 0
M  V30 28716 C 2619.43 1.4762 3.0506 0
M  V30 28717 C 2618.6 2.73906 3.4102 0
M  V30 28718 C 2617.66 2.57653 4.58804 0
M  V30 28719 O 2616.69 3.31506 4.62701 0
M  V30 28720 N 2617.89 1.66378 5.56146 0
M  V30 28721 H 2620.65 2.54223 1.58716 0
M  V30 28722 H 2618.21 1.44483 0.730492 0
M  V30 28723 H 2620.21 1.34461 3.8171 0
M  V30 28724 H 2618.78 0.589413 3.06993 0
M  V30 28725 H 2618 3.01727 2.53682 0
M  V30 28726 H 2619.28 3.57716 3.61825 0
M  V30 28727 H 2618.68 1.05553 5.55765 0
M  V30 28728 H 2617.24 1.59165 6.32068 0
M  V30 28729 N 2620.67 -0.791347 1.36292 0
M  V30 28730 C 2621.95 -1.5371 1.20965 0
M  V30 28731 C 2622.33 -2.10102 -0.204984 0
M  V30 28732 O 2621.68 -1.93809 -1.21038 0
M  V30 28733 C 2621.89 -2.63357 2.29006 0
M  V30 28734 C 2623.23 -3.31291 2.65578 0
M  V30 28735 O 2624.26 -2.73639 2.28035 0
M  V30 28736 O 2623.12 -4.35475 3.30188 0
M  V30 28737 H 2620.21 -0.679859 0.470872 0
M  V30 28738 H 2622.76 -0.829995 1.48017 0
M  V30 28739 H 2621.53 -2.19668 3.23823 0
M  V30 28740 H 2621.15 -3.41689 2.03309 0
M  V30 28741 N 2622.15 -1.2054 -1.01528 0
M  V30 28742 C 2623.38 -1.04202 -1.78744 0
M  V30 28743 C 2623.79 0.4087 -1.84323 0
M  V30 28744 O 2623.15 1.28374 -1.29716 0
M  V30 28745 C 2623.2 -1.6204 -3.23149 0
M  V30 28746 O 2622.92 -3.01435 -3.17913 0
M  V30 28747 C 2624.42 -1.50673 -4.16908 0
M  V30 28748 H 2621.64 -0.366488 -0.562074 0
M  V30 28749 H 2624.19 -1.59655 -1.27791 0
M  V30 28750 H 2622.34 -1.10704 -3.71246 0
M  V30 28751 H 2622.76 -3.28904 -4.08561 0
M  V30 28752 H 2624.23 -1.95901 -5.16069 0
M  V30 28753 H 2624.71 -0.45944 -4.3679 0
M  V30 28754 H 2625.31 -2.01207 -3.74694 0
M  V30 28755 N 2623.63 1.20858 -1.01149 0
M  V30 28756 C 2624.85 1.94622 -0.716732 0
M  V30 28757 C 2625.28 1.73965 0.715384 0
M  V30 28758 O 2624.64 1.03065 1.49155 0
M  V30 28759 C 2624.68 3.44933 -1.05136 0
M  V30 28760 O 2623.79 4.12089 -0.160204 0
M  V30 28761 H 2623.13 0.60821 -0.266415 0
M  V30 28762 H 2625.66 1.53433 -1.35349 0
M  V30 28763 H 2625.67 3.95532 -1.00093 0
M  V30 28764 H 2624.34 3.59291 -2.09482 0
M  V30 28765 H 2622.92 3.71938 -0.267722 0
M  V30 28766 N 2625.11 0.787064 1.3654 0
M  V30 28767 C 2626.07 0.189818 2.28413 0
M  V30 28768 C 2627.07 -0.611473 1.4872 0
M  V30 28769 O 2628.26 -0.432813 1.68738 0
M  V30 28770 C 2625.39 -0.73758 3.32825 0
M  V30 28771 H 2626.58 0.999881 2.82741 0
M  V30 28772 H 2624.14 0.556324 1.46064 0
M  V30 28773 H 2624.87 -1.57207 2.83648 0
M  V30 28774 H 2624.66 -0.164975 3.91753 0
M  V30 28775 H 2626.15 -1.1504 4.01442 0
M  V30 28776 N 2626.58 -1.48101 0.53888 0
M  V30 28777 C 2627.53 -2.26744 -0.23903 0
M  V30 28778 C 2628.52 -1.33246 -0.9019 0
M  V30 28779 O 2629.71 -1.57725 -0.803235 0
M  V30 28780 C 2626.84 -3.18551 -1.27984 0
M  V30 28781 C 2625.92 -4.19524 -0.621314 0
M  V30 28782 N 2626.32 -5.04921 0.298093 0
M  V30 28783 C 2624.61 -4.37283 -0.877456 0
M  V30 28784 C 2625.31 -5.77725 0.678859 0
M  V30 28785 N 2624.29 -5.43587 0.0378837 0
M  V30 28786 H 2628.09 -2.90148 0.468147 0
M  V30 28787 H 2625.61 -1.58416 0.357525 0
M  V30 28788 H 2627.6 -3.73559 -1.85094 0
M  V30 28789 H 2626.26 -2.56703 -1.9883 0
M  V30 28790 H 2627.27 -5.13532 0.671217 0
M  V30 28791 H 2623.95 -3.86619 -1.57581 0
M  V30 28792 H 2625.34 -6.56435 1.43328 0
M  V30 28793 N 2628.06 -0.274434 -1.55192 0
M  V30 28794 C 2628.99 0.606993 -2.25473 0
M  V30 28795 C 2629.97 1.15944 -1.24463 0
M  V30 28796 O 2631.16 1.1937 -1.53181 0
M  V30 28797 C 2628.29 1.79147 -2.97529 0
M  V30 28798 C 2627.24 1.37059 -4.05461 0
M  V30 28799 C 2626.57 2.63812 -4.65089 0
M  V30 28800 C 2627.87 0.521298 -5.19692 0
M  V30 28801 H 2629.56 0.0208817 -2.99393 0
M  V30 28802 H 2627.11 0.00860334 -1.43997 0
M  V30 28803 H 2629.06 2.41398 -3.45406 0
M  V30 28804 H 2627.78 2.4034 -2.21143 0
M  V30 28805 H 2626.44 0.771292 -3.58395 0
M  V30 28806 H 2626.09 3.23262 -3.85371 0
M  V30 28807 H 2625.79 2.36363 -5.37965 0
M  V30 28808 H 2627.32 3.26912 -5.15714 0
M  V30 28809 H 2628.73 1.04879 -5.63625 0
M  V30 28810 H 2627.13 0.34172 -5.99126 0
M  V30 28811 H 2628.2 -0.460085 -4.82712 0
M  V30 28812 N 2629.54 1.576 -0.00170483 0
M  V30 28813 C 2630.45 2.11962 1.00544 0
M  V30 28814 C 2631.47 1.06528 1.37578 0
M  V30 28815 O 2632.64 1.38439 1.46276 0
M  V30 28816 C 2629.71 2.61354 2.27804 0
M  V30 28817 C 2628.77 3.81396 1.97067 0
M  V30 28818 C 2628 4.28423 3.1826 0
M  V30 28819 O 2628.22 3.74772 4.30002 0
M  V30 28820 O 2627.16 5.20561 3.02158 0
M  V30 28821 H 2630.98 2.98239 0.573321 0
M  V30 28822 H 2628.57 1.47812 0.217229 0
M  V30 28823 H 2630.45 2.93315 3.02563 0
M  V30 28824 H 2629.13 1.78174 2.70251 0
M  V30 28825 H 2628.03 3.54406 1.19779 0
M  V30 28826 H 2629.37 4.65655 1.59456 0
M  V30 28827 N 2631.02 -0.271076 1.55251 0
M  V30 28828 C 2632.43 -0.618367 1.47134 0
M  V30 28829 C 2632.63 -1.89426 0.687028 0
M  V30 28830 O 2631.69 -2.51653 0.206653 0
M  V30 28831 C 2633 -0.743541 2.91362 0
M  V30 28832 C 2634.55 -0.837469 3.01588 0
M  V30 28833 C 2635.03 -0.994404 4.47074 0
M  V30 28834 N 2636.52 -1.05988 4.50911 0
M  V30 28835 C 2637.25 -1.20014 5.607 0
M  V30 28836 N 2636.75 -1.30748 6.80351 0
M  V30 28837 N 2638.54 -1.2314 5.48446 0
M  V30 28838 H 2630.69 0.56682 2.04697 0
M  V30 28839 H 2632.95 0.192182 0.928316 0
M  V30 28840 H 2632.66 0.123555 3.51483 0
M  V30 28841 H 2632.53 -1.62322 3.40487 0
M  V30 28842 H 2634.92 -1.69503 2.41563 0
M  V30 28843 H 2635 0.0668536 2.55713 0
M  V30 28844 H 2634.65 -0.141492 5.07703 0
M  V30 28845 H 2634.58 -1.9134 4.90608 0
M  V30 28846 H 2637.07 -0.989252 3.64722 0
M  V30 28847 H 2637.38 -1.41289 7.59774 0
M  V30 28848 H 2635.73 -1.27749 6.83158 0
M  V30 28849 H 2638.92 -1.14386 4.53909 0
M  V30 28850 H 2639.09 -1.33727 6.34051 0
M  V30 28851 N 2632.5 -1.48217 -0.535675 0
M  V30 28852 C 2633.43 -1.56879 -1.65723 0
M  V30 28853 C 2634.41 -0.41957 -1.57094 0
M  V30 28854 O 2635.59 -0.630383 -1.77647 0
M  V30 28855 C 2632.72 -1.49147 -3.04093 0
M  V30 28856 C 2631.76 -2.6884 -3.311 0
M  V30 28857 S 2632.6 -4.3086 -3.17994 0
M  V30 28858 C 2633.75 -4.25717 -4.5882 0
M  V30 28859 H 2633.99 -2.51762 -1.58125 0
M  V30 28860 H 2631.52 -1.3668 -0.718194 0
M  V30 28861 H 2633.48 -1.45373 -3.83897 0
M  V30 28862 H 2632.14 -0.556122 -3.09138 0
M  V30 28863 H 2631.33 -2.59553 -4.32028 0
M  V30 28864 H 2630.93 -2.69847 -2.58956 0
M  V30 28865 H 2633.23 -3.95299 -5.50223 0
M  V30 28866 H 2634.17 -5.26805 -4.73162 0
M  V30 28867 H 2634.58 -3.56265 -4.37876 0
M  V30 28868 N 2633.97 0.784108 -1.3671 0
M  V30 28869 C 2634.92 1.89696 -1.31469 0
M  V30 28870 C 2635.89 1.65095 -0.182419 0
M  V30 28871 O 2637.08 1.87182 -0.369795 0
M  V30 28872 C 2634.22 3.26586 -1.11516 0
M  V30 28873 C 2633.33 3.63223 -2.33865 0
M  V30 28874 C 2632.46 4.89258 -2.06882 0
M  V30 28875 C 2631.5 5.1859 -3.25163 0
M  V30 28876 N 2630.64 6.35809 -2.97811 0
M  V30 28877 H 2635.48 1.93511 -2.26622 0
M  V30 28878 H 2633.02 0.946236 -1.12627 0
M  V30 28879 H 2634.98 4.05533 -0.979724 0
M  V30 28880 H 2633.61 3.22179 -0.200159 0
M  V30 28881 H 2632.66 2.79357 -2.58193 0
M  V30 28882 H 2633.97 3.80845 -3.22116 0
M  V30 28883 H 2633.12 5.76083 -1.90299 0
M  V30 28884 H 2631.86 4.73716 -1.1595 0
M  V30 28885 H 2630.87 4.30245 -3.423 0
M  V30 28886 H 2632.09 5.36047 -4.16929 0
M  V30 28887 H 2630.04 6.21649 -2.09496 0
M  V30 28888 H 2629.96 6.53788 -3.79602 0
M  V30 28889 H 2631.22 7.25602 -2.84818 0
M  V30 28890 N 2635.45 1.21076 1.00888 0
M  V30 28891 C 2636.4 0.966548 2.09586 0
M  V30 28892 C 2637.37 -0.10606 1.65761 0
M  V30 28893 O 2638.55 0.0402623 1.90758 0
M  V30 28894 C 2635.69 0.533118 3.40957 0
M  V30 28895 C 2634.81 1.67474 3.98217 0
M  V30 28896 C 2633.94 1.19085 5.1768 0
M  V30 28897 C 2632.98 2.30506 5.67039 0
M  V30 28898 N 2632.12 1.83279 6.77756 0
M  V30 28899 H 2636.96 1.89712 2.29812 0
M  V30 28900 H 2634.5 0.945509 1.12688 0
M  V30 28901 H 2636.45 0.263093 4.1637 0
M  V30 28902 H 2635.08 -0.360449 3.20781 0
M  V30 28903 H 2634.14 2.05949 3.19827 0
M  V30 28904 H 2635.45 2.51343 4.30846 0
M  V30 28905 H 2634.6 0.877256 6.00324 0
M  V30 28906 H 2633.34 0.322151 4.86635 0
M  V30 28907 H 2632.35 2.62673 4.82994 0
M  V30 28908 H 2633.57 3.17865 6.00115 0
M  V30 28909 H 2631.52 0.98747 6.48525 0
M  V30 28910 H 2631.43 2.60724 7.09619 0
M  V30 28911 H 2632.7 1.54942 7.63946 0
M  V30 28912 N 2636.93 -1.2032 1.01789 0
M  V30 28913 C 2637.88 -2.25186 0.58258 0
M  V30 28914 C 2638.87 -1.65098 -0.37933 0
M  V30 28915 O 2640.08 -1.78268 -0.24911 0
M  V30 28916 H 2636.45 -0.732511 0.170091 0
M  V30 28917 H 2638.42 -2.5923 1.47792 0
M  V30 28918 C 2637.17 -3.47645 -0.0620274 0
M  V30 28919 H 2636.5 -3.94161 0.669138 0
M  V30 28920 H 2637.94 -4.22716 -0.32971 0
M  V30 28921 C 2636.4 -3.10588 -1.30525 0
M  V30 28922 O 2636.93 -3.2224 -2.39842 0
M  V30 28923 N 2635.13 -2.65125 -1.18983 0
M  V30 28924 H 2634.68 -2.55844 -0.300296 0
M  V30 28925 H 2634.64 -2.40701 -2.02263 0
M  V30 28926 N 2638.41 -0.794293 -1.3612 0
M  V30 28927 C 2639.34 -0.141885 -2.27758 0
M  V30 28928 C 2640.32 0.684895 -1.47472 0
M  V30 28929 O 2641.5 0.654826 -1.76761 0
M  V30 28930 C 2638.63 0.804388 -3.2901 0
M  V30 28931 C 2637.68 0.0587868 -4.26459 0
M  V30 28932 S 2638.51 -1.26882 -5.20251 0
M  V30 28933 C 2639.67 -0.326672 -6.25047 0
M  V30 28934 H 2639.9 -0.918868 -2.82744 0
M  V30 28935 H 2637.43 -0.588747 -1.42734 0
M  V30 28936 H 2639.39 1.34488 -3.87844 0
M  V30 28937 H 2638.05 1.55466 -2.72927 0
M  V30 28938 H 2637.24 0.777 -4.97975 0
M  V30 28939 H 2636.85 -0.411374 -3.71731 0
M  V30 28940 H 2639.14 0.492676 -6.75706 0
M  V30 28941 H 2640.08 -1.01065 -7.00851 0
M  V30 28942 H 2640.49 0.0721635 -5.64454 0
M  V30 28943 N 2639.89 1.47813 -0.546727 0
M  V30 28944 C 2640.8 2.33656 0.210219 0
M  V30 28945 C 2641.81 1.4754 0.922387 0
M  V30 28946 O 2642.99 1.80489 0.89362 0
M  V30 28947 C 2640.05 3.24018 1.23342 0
M  V30 28948 C 2639.11 4.26018 0.529809 0
M  V30 28949 C 2638.35 5.12062 1.50426 0
M  V30 28950 O 2638.57 5.00374 2.73828 0
M  V30 28951 O 2637.5 5.92944 1.03449 0
M  V30 28952 H 2641.33 2.99661 -0.493658 0
M  V30 28953 H 2638.92 1.46202 -0.307452 0
M  V30 28954 H 2640.8 3.79864 1.82432 0
M  V30 28955 H 2639.47 2.60654 1.91941 0
M  V30 28956 H 2638.38 3.73961 -0.102013 0
M  V30 28957 H 2639.71 4.92067 -0.114536 0
M  V30 28958 N 2641.36 0.28266 1.55044 0
M  V30 28959 C 2642.3 -0.634886 2.20231 0
M  V30 28960 C 2643.31 -1.1117 1.18933 0
M  V30 28961 O 2644.5 -1.03231 1.45622 0
M  V30 28962 C 2641.6 -1.87894 2.82044 0
M  V30 28963 C 2640.77 -1.54769 4.09103 0
M  V30 28964 C 2639.83 -2.64499 4.54892 0
M  V30 28965 O 2638.86 -2.30366 5.205 0
M  V30 28966 N 2640.06 -3.94701 4.25666 0
M  V30 28967 H 2642.82 -0.0769285 2.99601 0
M  V30 28968 H 2640.38 0.104076 1.61565 0
M  V30 28969 H 2642.38 -2.60613 3.09617 0
M  V30 28970 H 2640.95 -2.34576 2.06623 0
M  V30 28971 H 2640.17 -0.653981 3.88737 0
M  V30 28972 H 2641.45 -1.30149 4.91873 0
M  V30 28973 H 2640.85 -4.2525 3.73067 0
M  V30 28974 H 2639.41 -4.63774 4.57992 0
M  V30 28975 N 2642.84 -1.57597 0.0100627 0
M  V30 28976 C 2644.07 -1.95288 -0.683378 0
M  V30 28977 C 2644.49 -0.885511 -1.66746 0
M  V30 28978 O 2643.84 0.134597 -1.82003 0
M  V30 28979 C 2643.89 -3.33018 -1.40647 0
M  V30 28980 O 2643.61 -4.35659 -0.46184 0
M  V30 28981 C 2645.12 -3.85228 -2.19349 0
M  V30 28982 H 2642.34 -0.643627 -0.189696 0
M  V30 28983 H 2644.88 -2.04399 0.0641718 0
M  V30 28984 H 2643.03 -3.25184 -2.10556 0
M  V30 28985 H 2643.45 -5.15394 -0.973124 0
M  V30 28986 H 2644.92 -4.83998 -2.65425 0
M  V30 28987 H 2645.4 -3.18464 -3.02452 0
M  V30 28988 H 2646.01 -3.9627 -1.54435 0
M  V30 28989 N 2644.32 0.262839 -1.55393 0
M  V30 28990 C 2645.57 0.990912 -1.75681 0
M  V30 28991 C 2645.88 1.8708 -0.571003 0
M  V30 28992 O 2647.09 2.63442 -0.656532 0
M  V30 28993 C 2645.54 1.81183 -3.10968 0
M  V30 28994 C 2645.15 0.980111 -4.37147 0
M  V30 28995 C 2646.9 2.53359 -3.40602 0
M  V30 28996 C 2644.8 1.796 -5.6347 0
M  V30 28997 H 2643.73 0.373704 -0.654875 0
M  V30 28998 H 2646.38 0.246171 -1.81841 0
M  V30 28999 H 2644.77 2.59792 -2.98872 0
M  V30 29000 H 2645.94 0.237477 -4.60188 0
M  V30 29001 H 2644.26 0.372424 -4.14731 0
M  V30 29002 H 2646.85 3.14825 -4.32191 0
M  V30 29003 H 2647.2 3.24164 -2.61196 0
M  V30 29004 H 2647.73 1.81773 -3.53841 0
M  V30 29005 H 2644.47 1.13197 -6.45652 0
M  V30 29006 H 2643.99 2.51433 -5.44556 0
M  V30 29007 H 2645.67 2.36713 -6.02143 0
M  V30 29008 N 2645.8 1.48499 0.527807 0
M  V30 29009 C 2646.75 1.63183 1.63217 0
M  V30 29010 C 2647.72 0.473843 1.59198 0
M  V30 29011 O 2648.9 0.697594 1.7759 0
M  V30 29012 C 2646.04 1.67956 3.01471 0
M  V30 29013 C 2645.15 2.94877 3.15708 0
M  V30 29014 C 2644.29 2.90797 4.44534 0
M  V30 29015 C 2643.33 4.12412 4.52308 0
M  V30 29016 N 2642.46 4.06397 5.72526 0
M  V30 29017 H 2647.3 2.57492 1.50006 0
M  V30 29018 H 2644.84 1.27693 0.730275 0
M  V30 29019 H 2646.8 1.68705 3.81569 0
M  V30 29020 H 2645.43 0.771361 3.13448 0
M  V30 29021 H 2644.48 3.03863 2.28849 0
M  V30 29022 H 2645.79 3.84855 3.17313 0
M  V30 29023 H 2644.95 2.89959 5.32925 0
M  V30 29024 H 2643.69 1.9855 4.45454 0
M  V30 29025 H 2642.69 4.13523 3.62324 0
M  V30 29026 H 2643.92 5.0582 4.53125 0
M  V30 29027 H 2641.86 3.16972 5.74338 0
M  V30 29028 H 2641.78 4.90083 5.75634 0
M  V30 29029 H 2643.05 4.09621 6.63197 0
M  V30 29030 N 2647.28 -0.776847 1.37123 0
M  V30 29031 C 2648.55 -1.52419 1.22588 0
M  V30 29032 C 2648.93 -2.10308 -0.182689 0
M  V30 29033 O 2648.28 -1.95082 -1.18976 0
M  V30 29034 C 2648.49 -2.60914 2.31787 0
M  V30 29035 C 2649.84 -3.28455 2.69077 0
M  V30 29036 O 2650.86 -2.71205 2.30925 0
M  V30 29037 O 2649.72 -4.31948 3.34788 0
M  V30 29038 H 2646.82 -0.674827 0.478056 0
M  V30 29039 H 2649.36 -0.814249 1.48889 0
M  V30 29040 H 2648.14 -2.16221 3.26135 0
M  V30 29041 H 2647.76 -3.39513 2.06922 0
M  V30 29042 N 2648.76 -1.2161 -1.00244 0
M  V30 29043 C 2649.69 -1.00176 -2.10919 0
M  V30 29044 C 2650.67 0.0741288 -1.69938 0
M  V30 29045 O 2651.85 -0.0862094 -1.94009 0
M  V30 29046 C 2648.98 -0.568416 -3.42617 0
M  V30 29047 C 2647.94 -1.58916 -3.97404 0
M  V30 29048 C 2647.26 -1.01196 -5.25037 0
M  V30 29049 C 2648.56 -2.97668 -4.29175 0
M  V30 29050 H 2650.26 -1.92743 -2.29108 0
M  V30 29051 H 2647.8 -0.928121 -1.101 0
M  V30 29052 H 2649.75 -0.405629 -4.19443 0
M  V30 29053 H 2648.48 0.392904 -3.24228 0
M  V30 29054 H 2647.14 -1.73955 -3.227 0
M  V30 29055 H 2646.79 -0.0422849 -5.02982 0
M  V30 29056 H 2646.49 -1.6938 -5.62658 0
M  V30 29057 H 2648.01 -0.860554 -6.04505 0
M  V30 29058 H 2649.42 -2.86058 -4.96834 0
M  V30 29059 H 2647.82 -3.62889 -4.77945 0
M  V30 29060 H 2648.89 -3.48321 -3.37343 0
M  V30 29061 N 2650.23 1.19778 -1.02425 0
M  V30 29062 C 2651.17 2.22274 -0.559192 0
M  V30 29063 C 2652.18 1.58713 0.362482 0
M  V30 29064 O 2653.37 1.77785 0.15961 0
M  V30 29065 C 2650.47 3.38279 0.205035 0
M  V30 29066 C 2649.64 4.31426 -0.720437 0
M  V30 29067 C 2648.7 5.262 -0.00243618 0
M  V30 29068 O 2647.73 5.65731 -0.627477 0
M  V30 29069 N 2648.93 5.6644 1.26987 0
M  V30 29070 H 2651.69 2.62801 -1.44068 0
M  V30 29071 H 2649.25 1.34397 -0.902716 0
M  V30 29072 H 2651.25 3.98691 0.694798 0
M  V30 29073 H 2649.82 2.9658 0.987895 0
M  V30 29074 H 2649.04 3.68866 -1.39037 0
M  V30 29075 H 2650.32 4.90575 -1.34959 0
M  V30 29076 H 2649.72 5.3635 1.79849 0
M  V30 29077 H 2648.28 6.29126 1.70421 0
M  V30 29078 N 2651.71 0.801501 1.35697 0
M  V30 29079 C 2652.66 0.181113 2.2728 0
M  V30 29080 C 2653.65 -0.642072 1.47534 0
M  V30 29081 O 2654.84 -0.500163 1.69786 0
M  V30 29082 C 2651.97 -0.673553 3.36628 0
M  V30 29083 C 2651.05 0.159082 4.23802 0
M  V30 29084 N 2651.44 1.21958 4.90877 0
M  V30 29085 C 2649.74 -0.0601221 4.45959 0
M  V30 29086 C 2650.44 1.72748 5.55457 0
M  V30 29087 N 2649.42 1.03475 5.33661 0
M  V30 29088 H 2653.22 0.99263 2.7663 0
M  V30 29089 H 2650.73 0.642153 1.49165 0
M  V30 29090 H 2652.73 -1.13401 4.01181 0
M  V30 29091 H 2651.39 -1.48348 2.8883 0
M  V30 29092 H 2652.4 1.60217 4.92495 0
M  V30 29093 H 2649.08 -0.839592 4.08971 0
M  V30 29094 H 2650.47 2.61353 6.18987 0
M  V30 29095 N 2653.19 -1.47521 0.554558 0
M  V30 29096 C 2654.61 -1.58157 0.214135 0
M  V30 29097 C 2654.81 -1.55352 -1.28328 0
M  V30 29098 O 2653.86 -1.45552 -2.06327 0
M  V30 29099 C 2655.17 -2.88774 0.838442 0
M  V30 29100 C 2656.72 -3.02353 0.809427 0
M  V30 29101 C 2657.2 -4.35666 1.41276 0
M  V30 29102 N 2658.69 -4.42296 1.37582 0
M  V30 29103 C 2659.42 -5.44007 1.8123 0
M  V30 29104 N 2658.92 -6.52543 2.32721 0
M  V30 29105 N 2660.71 -5.35036 1.72317 0
M  V30 29106 H 2652.86 -1.47588 1.52747 0
M  V30 29107 H 2655.13 -0.702253 0.636824 0
M  V30 29108 H 2654.83 -2.96556 1.8907 0
M  V30 29109 H 2654.71 -3.75754 0.329913 0
M  V30 29110 H 2657.09 -2.9417 -0.234135 0
M  V30 29111 H 2657.17 -2.16921 1.35569 0
M  V30 29112 H 2656.82 -4.44605 2.45537 0
M  V30 29113 H 2656.75 -5.19826 0.841962 0
M  V30 29114 H 2659.24 -3.64452 0.999145 0
M  V30 29115 H 2659.55 -7.26324 2.63957 0
M  V30 29116 H 2657.9 -6.5344 2.3673 0
M  V30 29117 H 2661.09 -4.49142 1.31868 0
M  V30 29118 H 2661.26 -6.14165 2.06651 0
M  V30 29119 N 2654.67 -0.290879 -1.54892 0
M  V30 29120 C 2655.6 0.583044 -2.26104 0
M  V30 29121 C 2656.58 1.14617 -1.25686 0
M  V30 29122 O 2657.76 1.17739 -1.54439 0
M  V30 29123 C 2654.89 1.75982 -2.99412 0
M  V30 29124 C 2653.85 1.32751 -4.06892 0
M  V30 29125 C 2653.17 2.58864 -4.67861 0
M  V30 29126 C 2654.47 0.466148 -5.20216 0
M  V30 29127 H 2656.17 -0.0108741 -2.99398 0
M  V30 29128 H 2653.71 -0.00666999 -1.43998 0
M  V30 29129 H 2655.67 2.3772 -3.47947 0
M  V30 29130 H 2654.39 2.37981 -2.23679 0
M  V30 29131 H 2653.05 0.733236 -3.59192 0
M  V30 29132 H 2652.7 3.19156 -3.88778 0
M  V30 29133 H 2652.4 2.30644 -5.40442 0
M  V30 29134 H 2653.92 3.21424 -5.19152 0
M  V30 29135 H 2655.34 0.988948 -5.64706 0
M  V30 29136 H 2653.73 0.278155 -5.99455 0
M  V30 29137 H 2654.8 -0.511257 -4.82197 0
M  V30 29138 N 2656.15 1.57589 -0.0184203 0
M  V30 29139 C 2657.42 1.82623 0.700589 0
M  V30 29140 C 2657.8 0.900084 1.90949 0
M  V30 29141 O 2657.15 -0.0468744 2.28452 0
M  V30 29142 C 2657.36 3.31577 1.08893 0
M  V30 29143 C 2658.71 3.97782 1.48507 0
M  V30 29144 O 2659.73 3.36009 1.18221 0
M  V30 29145 O 2658.59 5.06636 2.04894 0
M  V30 29146 H 2655.69 0.752639 0.34273 0
M  V30 29147 H 2658.23 1.6964 -0.0452846 0
M  V30 29148 H 2657 3.90635 0.228044 0
M  V30 29149 H 2656.63 3.49628 1.89331 0
M  V30 29150 N 2657.62 -0.254594 1.5553 0
M  V30 29151 C 2658.53 -1.33674 1.92791 0
M  V30 29152 C 2659.55 -1.5307 0.827383 0
M  V30 29153 O 2660.73 -1.66841 1.1281 0
M  V30 29154 C 2657.79 -2.67272 2.20832 0
M  V30 29155 C 2656.85 -2.56464 3.44274 0
M  V30 29156 C 2656.08 -3.83691 3.70968 0
M  V30 29157 O 2656.31 -4.85221 2.99861 0
M  V30 29158 O 2655.24 -3.82786 4.64498 0
M  V30 29159 H 2659.07 -1.05066 2.84947 0
M  V30 29160 H 2656.65 -0.454698 1.42313 0
M  V30 29161 H 2658.53 -3.46233 2.4021 0
M  V30 29162 H 2657.21 -2.95627 1.31856 0
M  V30 29163 H 2656.12 -1.75815 3.30212 0
M  V30 29164 H 2657.45 -2.33055 4.33528 0
M  V30 29165 N 2659.1 -1.48777 -0.519925 0
M  V30 29166 C 2660.06 -1.63553 -1.60571 0
M  V30 29167 C 2661.06 -0.50826 -1.52556 0
M  V30 29168 O 2662.25 -0.77429 -1.56046 0
M  V30 29169 C 2659.39 -1.61517 -3.00208 0
M  V30 29170 H 2660.58 -2.60378 -1.48806 0
M  V30 29171 H 2658.13 -1.37524 -0.742748 0
M  V30 29172 H 2658.87 -0.662065 -3.1747 0
M  V30 29173 H 2658.65 -2.43365 -3.07435 0
M  V30 29174 H 2660.14 -1.75071 -3.79131 0
M  V30 29175 N 2660.58 0.769564 -1.37534 0
M  V30 29176 C 2661.49 1.91391 -1.35671 0
M  V30 29177 C 2662.51 1.72107 -0.255985 0
M  V30 29178 O 2663.68 1.95305 -0.491739 0
M  V30 29179 C 2660.75 3.26545 -1.16487 0
M  V30 29180 C 2659.81 3.58468 -2.36219 0
M  V30 29181 C 2659.04 4.87173 -2.1794 0
M  V30 29182 O 2659.26 5.5838 -1.1648 0
M  V30 29183 O 2658.2 5.18208 -3.06176 0
M  V30 29184 H 2662.02 1.95914 -2.32059 0
M  V30 29185 H 2659.61 0.912621 -1.18286 0
M  V30 29186 H 2661.49 4.07382 -1.07785 0
M  V30 29187 H 2660.17 3.22869 -0.231744 0
M  V30 29188 H 2659.07 2.77856 -2.50493 0
M  V30 29189 H 2660.41 3.66889 -3.28106 0
M  V30 29190 N 2662.06 1.22139 0.995977 0
M  V30 29191 C 2662.99 0.946521 2.08743 0
M  V30 29192 C 2664 -0.0737071 1.62633 0
M  V30 29193 O 2665.19 0.159918 1.77782 0
M  V30 29194 C 2662.29 0.401364 3.36515 0
M  V30 29195 C 2661.47 1.47808 4.11669 0
M  V30 29196 C 2660.52 0.940552 5.17726 0
M  V30 29197 O 2659.55 1.62606 5.4548 0
M  V30 29198 N 2660.75 -0.239621 5.80005 0
M  V30 29199 H 2663.52 1.88615 2.32905 0
M  V30 29200 H 2661.08 1.12787 1.1615 0
M  V30 29201 H 2663.07 0.0271548 4.04691 0
M  V30 29202 H 2661.64 -0.443299 3.09441 0
M  V30 29203 H 2660.86 2.02574 3.38168 0
M  V30 29204 H 2662.15 2.20261 4.58653 0
M  V30 29205 H 2661.55 -0.81342 5.59821 0
M  V30 29206 H 2660.1 -0.555247 6.49431 0
M  V30 29207 N 2663.54 -1.19233 1.03059 0
M  V30 29208 C 2664.79 -1.88285 0.723293 0
M  V30 29209 C 2665.1 -1.80596 -0.751301 0
M  V30 29210 O 2666.3 -2.44914 -1.17172 0
M  V30 29211 C 2664.76 -3.37738 1.24344 0
M  V30 29212 C 2664.37 -3.53981 2.74594 0
M  V30 29213 C 2666.11 -4.12256 1.01221 0
M  V30 29214 C 2664.02 -4.97336 3.20017 0
M  V30 29215 H 2662.95 -0.705196 0.266861 0
M  V30 29216 H 2665.6 -1.34793 1.24511 0
M  V30 29217 H 2663.98 -3.90637 0.649526 0
M  V30 29218 H 2665.16 -3.11402 3.39655 0
M  V30 29219 H 2663.47 -2.92854 2.96016 0
M  V30 29220 H 2666.07 -5.17976 1.32684 0
M  V30 29221 H 2666.41 -4.16269 -0.0509279 0
M  V30 29222 H 2666.94 -3.65499 1.57021 0
M  V30 29223 H 2663.68 -4.98485 4.25667 0
M  V30 29224 H 2663.2 -5.4067 2.59685 0
M  V30 29225 H 2664.88 -5.65998 3.13457 0
M  V30 29226 N 2665.01 -0.808686 -1.3527 0
M  V30 29227 C 2665.98 -0.226133 -2.28082 0
M  V30 29228 C 2666.98 0.587735 -1.49674 0
M  V30 29229 O 2668.17 0.405913 -1.69405 0
M  V30 29230 C 2665.3 0.684537 -3.33956 0
M  V30 29231 H 2666.49 -1.04474 -2.81114 0
M  V30 29232 H 2664.05 -0.579491 -1.45161 0
M  V30 29233 H 2664.78 1.52675 -2.86113 0
M  V30 29234 H 2664.57 0.10263 -3.91966 0
M  V30 29235 H 2666.06 1.08639 -4.03221 0
M  V30 29236 N 2666.49 1.47225 -0.562374 0
M  V30 29237 C 2667.42 2.32876 0.170586 0
M  V30 29238 C 2668.4 1.44107 0.903722 0
M  V30 29239 O 2669.59 1.72956 0.883176 0
M  V30 29240 C 2666.72 3.25991 1.1978 0
M  V30 29241 C 2665.67 4.24041 0.580801 0
M  V30 29242 C 2665 5.06517 1.71302 0
M  V30 29243 C 2666.3 5.20192 -0.468806 0
M  V30 29244 H 2667.99 2.94407 -0.544492 0
M  V30 29245 H 2665.54 1.41572 -0.263296 0
M  V30 29246 H 2667.49 3.84755 1.71877 0
M  V30 29247 H 2666.22 2.62525 1.94289 0
M  V30 29248 H 2664.87 3.6651 0.0810894 0
M  V30 29249 H 2664.52 4.39451 2.44728 0
M  V30 29250 H 2664.22 5.72904 1.30594 0
M  V30 29251 H 2665.75 5.68141 2.23715 0
M  V30 29252 H 2667.16 5.7329 -0.0337035 0
M  V30 29253 H 2665.56 5.9481 -0.795062 0
M  V30 29254 H 2666.63 4.65356 -1.36277 0
M  V30 29255 N 2667.97 0.299089 1.54736 0
M  V30 29256 C 2668.92 -0.577859 2.23449 0
M  V30 29257 C 2669.89 -1.13106 1.21639 0
M  V30 29258 O 2671.07 -1.17594 1.50254 0
M  V30 29259 C 2668.21 -1.74479 2.97743 0
M  V30 29260 C 2667.33 -1.22316 4.14322 0
M  V30 29261 C 2666.46 -2.3538 4.76203 0
M  V30 29262 C 2665.5 -1.80341 5.8493 0
M  V30 29263 N 2664.64 -2.86971 6.40775 0
M  V30 29264 H 2669.48 0.0147069 2.97996 0
M  V30 29265 H 2667.01 0.0190272 1.47088 0
M  V30 29266 H 2668.97 -2.43108 3.39049 0
M  V30 29267 H 2667.6 -2.30901 2.25576 0
M  V30 29268 H 2666.65 -0.429183 3.77971 0
M  V30 29269 H 2667.97 -0.780222 4.9266 0
M  V30 29270 H 2667.12 -3.1196 5.20352 0
M  V30 29271 H 2665.86 -2.83 3.97193 0
M  V30 29272 H 2664.86 -1.02249 5.40208 0
M  V30 29273 H 2666.09 -1.33628 6.65823 0
M  V30 29274 H 2664.03 -3.33928 5.64649 0
M  V30 29275 H 2663.95 -2.47167 7.14454 0
M  V30 29276 H 2665.22 -3.63454 6.89581 0
M  V30 29277 N 2669.45 -1.57577 0.0267774 0
M  V30 29278 C 2670.7 -1.91325 -0.651082 0
M  V30 29279 C 2671.02 -0.90356 -1.72803 0
M  V30 29280 O 2670.29 0.0552602 -1.95822 0
M  V30 29281 H 2668.87 -0.706206 -0.243479 0
M  V30 29282 H 2671.53 -1.94759 0.0740277 0
M  V30 29283 H 2670.63 -2.91872 -1.10531 0
M  V30 29284 N 2670.93 0.246342 -1.55663 0
M  V30 29285 C 2672.17 0.972379 -1.7717 0
M  V30 29286 C 2672.5 1.85833 -0.59086 0
M  V30 29287 O 2671.77 1.91911 0.393331 0
M  V30 29288 H 2670.35 0.362026 -0.653411 0
M  V30 29289 H 2673.01 0.264155 -1.93102 0
M  V30 29290 H 2672.1 1.59377 -2.68338 0
M  V30 29291 N 2672.4 1.4905 0.512027 0
M  V30 29292 C 2673.35 1.64905 1.61477 0
M  V30 29293 C 2674.32 0.490701 1.58686 0
M  V30 29294 O 2675.51 0.716391 1.7684 0
M  V30 29295 C 2672.65 1.71144 2.99673 0
M  V30 29296 C 2671.76 2.98209 3.12563 0
M  V30 29297 C 2670.89 2.95495 4.41425 0
M  V30 29298 C 2669.93 4.17187 4.47908 0
M  V30 29299 N 2669.07 4.12447 5.68183 0
M  V30 29300 H 2673.91 2.59069 1.47267 0
M  V30 29301 H 2671.45 1.2846 0.716691 0
M  V30 29302 H 2673.41 1.72742 3.79758 0
M  V30 29303 H 2672.04 0.804563 3.12613 0
M  V30 29304 H 2671.09 3.06273 2.25613 0
M  V30 29305 H 2672.4 3.88199 3.13214 0
M  V30 29306 H 2671.55 2.95595 5.29819 0
M  V30 29307 H 2670.29 2.03264 4.43323 0
M  V30 29308 H 2669.3 4.17343 3.57918 0
M  V30 29309 H 2670.52 5.10598 4.47735 0
M  V30 29310 H 2668.47 3.23046 5.70944 0
M  V30 29311 H 2668.39 4.96161 5.70404 0
M  V30 29312 H 2669.65 4.16633 6.58815 0
M  V30 29313 N 2673.88 -0.762259 1.3794 0
M  V30 29314 C 2674.83 -1.8758 1.3447 0
M  V30 29315 C 2675.8 -1.64784 0.208662 0
M  V30 29316 O 2676.98 -1.8657 0.399527 0
M  V30 29317 C 2674.12 -3.2477 1.16698 0
M  V30 29318 C 2673.24 -3.59457 2.39614 0
M  V30 29319 C 2672.37 -4.85905 2.1464 0
M  V30 29320 C 2671.41 -5.13351 3.33373 0
M  V30 29321 N 2670.55 -6.30991 3.07888 0
M  V30 29322 H 2675.39 -1.89881 2.29672 0
M  V30 29323 H 2672.93 -0.928199 1.14118 0
M  V30 29324 H 2674.88 -4.03923 1.04412 0
M  V30 29325 H 2673.51 -3.2182 0.25139 0
M  V30 29326 H 2672.57 -2.75214 2.62605 0
M  V30 29327 H 2673.88 -3.75672 3.28134 0
M  V30 29328 H 2673.03 -5.72982 1.9944 0
M  V30 29329 H 2671.77 -4.71811 1.23472 0
M  V30 29330 H 2670.78 -4.24745 3.49101 0
M  V30 29331 H 2672 -5.29347 4.25404 0
M  V30 29332 H 2669.95 -6.18237 2.19359 0
M  V30 29333 H 2669.86 -6.47666 3.89955 0
M  V30 29334 H 2671.13 -7.20979 2.96326 0
M  V30 29335 N 2675.36 -1.22666 -0.989486 0
M  V30 29336 C 2676.29 -0.957578 -2.08238 0
M  V30 29337 C 2677.31 0.0650812 -1.6267 0
M  V30 29338 O 2678.49 -0.169343 -1.77695 0
M  V30 29339 C 2675.59 -0.419204 -3.36297 0
M  V30 29340 C 2674.77 -1.49989 -4.1088 0
M  V30 29341 C 2673.83 -0.967995 -5.1722 0
M  V30 29342 O 2672.85 -1.65496 -5.4461 0
M  V30 29343 N 2674.05 0.208858 -5.80124 0
M  V30 29344 H 2676.82 -1.89847 -2.31901 0
M  V30 29345 H 2674.38 -1.13401 -1.1555 0
M  V30 29346 H 2676.37 -0.0486162 -4.04671 0
M  V30 29347 H 2674.94 0.426883 -3.09672 0
M  V30 29348 H 2674.16 -2.04365 -3.37088 0
M  V30 29349 H 2675.45 -2.2269 -4.57479 0
M  V30 29350 H 2674.85 0.783719 -5.60245 0
M  V30 29351 H 2673.41 0.520798 -6.49716 0
M  V30 29352 N 2676.84 1.18685 -1.0369 0
M  V30 29353 C 2677.77 2.24402 -0.645446 0
M  V30 29354 C 2678.75 1.66471 0.349482 0
M  V30 29355 O 2679.94 1.92828 0.230419 0
M  V30 29356 C 2677.07 3.473 -0.00371441 0
M  V30 29357 C 2676.02 4.17956 -0.921779 0
M  V30 29358 C 2675.35 5.34504 -0.144723 0
M  V30 29359 C 2676.65 4.71867 -2.23918 0
M  V30 29360 H 2678.34 2.57401 -1.52922 0
M  V30 29361 H 2675.89 1.23726 -0.736733 0
M  V30 29362 H 2677.84 4.20456 0.281835 0
M  V30 29363 H 2676.56 3.13524 0.914908 0
M  V30 29364 H 2675.22 3.46692 -1.19165 0
M  V30 29365 H 2674.87 4.96975 0.776186 0
M  V30 29366 H 2674.57 5.82712 -0.756308 0
M  V30 29367 H 2676.09 6.10453 0.133897 0
M  V30 29368 H 2677.51 5.36737 -2.01459 0
M  V30 29369 H 2675.9 5.30594 -2.80339 0
M  V30 29370 H 2676.97 3.89495 -2.88829 0
M  V30 29371 N 2678.32 0.815849 1.34839 0
M  V30 29372 C 2679.25 0.190305 2.28409 0
M  V30 29373 C 2680.26 -0.615744 1.50706 0
M  V30 29374 O 2681.45 -0.446585 1.72823 0
M  V30 29375 C 2678.55 -0.752388 3.30443 0
M  V30 29376 C 2677.72 0.00929841 4.37399 0
M  V30 29377 C 2676.78 -0.85326 5.19236 0
M  V30 29378 O 2675.81 -0.30082 5.68405 0
M  V30 29379 N 2677.01 -2.17406 5.38252 0
M  V30 29380 H 2679.78 0.994164 2.8273 0
M  V30 29381 H 2677.34 0.672155 1.47288 0
M  V30 29382 H 2679.33 -1.33387 3.82086 0
M  V30 29383 H 2677.9 -1.45702 2.76568 0
M  V30 29384 H 2677.12 0.772047 3.86566 0
M  V30 29385 H 2678.41 0.533896 5.05991 0
M  V30 29386 H 2677.81 -2.64672 4.99965 0
M  V30 29387 H 2676.36 -2.70456 5.9304 0
M  V30 29388 N 2679.8 -1.46924 0.570174 0
M  V30 29389 C 2680.74 -2.30171 -0.170217 0
M  V30 29390 C 2681.71 -1.39856 -0.896074 0
M  V30 29391 O 2682.9 -1.68812 -0.889218 0
M  V30 29392 C 2680.04 -3.24081 -1.18599 0
M  V30 29393 C 2679.15 -4.29491 -0.464871 0
M  V30 29394 C 2678.29 -5.10539 -1.46707 0
M  V30 29395 C 2677.32 -6.07712 -0.731651 0
M  V30 29396 N 2676.46 -6.81672 -1.6813 0
M  V30 29397 H 2681.3 -2.9296 0.545765 0
M  V30 29398 H 2678.84 -1.44392 0.280963 0
M  V30 29399 H 2680.8 -3.7696 -1.78765 0
M  V30 29400 H 2679.43 -2.63129 -1.86984 0
M  V30 29401 H 2678.48 -3.79567 0.251573 0
M  V30 29402 H 2679.79 -4.98677 0.110636 0
M  V30 29403 H 2678.94 -5.67634 -2.14189 0
M  V30 29404 H 2677.68 -4.41285 -2.0765 0
M  V30 29405 H 2676.69 -5.49783 -0.042982 0
M  V30 29406 H 2677.91 -6.7898 -0.127784 0
M  V30 29407 H 2675.86 -6.15138 -2.27907 0
M  V30 29408 H 2675.78 -7.47074 -1.15828 0
M  V30 29409 H 2677.04 -7.43332 -2.34687 0
M  V30 29410 N 2681.27 -0.307291 -1.54575 0
M  V30 29411 C 2682.2 0.55903 -2.26709 0
M  V30 29412 C 2683.18 1.13277 -1.26895 0
M  V30 29413 O 2684.37 1.16094 -1.55679 0
M  V30 29414 C 2681.5 1.72796 -3.01262 0
M  V30 29415 C 2680.45 1.28428 -4.08277 0
M  V30 29416 C 2679.78 2.53887 -4.7058 0
M  V30 29417 C 2681.08 0.410946 -5.20681 0
M  V30 29418 H 2682.77 -0.0426286 -2.9937 0
M  V30 29419 H 2680.32 -0.0219426 -1.43983 0
M  V30 29420 H 2682.27 2.34017 -3.50448 0
M  V30 29421 H 2681 2.35596 -2.26191 0
M  V30 29422 H 2679.66 0.695098 -3.5995 0
M  V30 29423 H 2679.3 3.15015 -3.92141 0
M  V30 29424 H 2679 2.24899 -5.42858 0
M  V30 29425 H 2680.53 3.15899 -5.22532 0
M  V30 29426 H 2681.94 0.928997 -5.65723 0
M  V30 29427 H 2680.34 0.214559 -5.99716 0
M  V30 29428 H 2681.41 -0.562372 -4.81628 0
M  V30 29429 N 2682.75 1.57561 -0.0351337 0
M  V30 29430 C 2683.66 2.14047 0.960257 0
M  V30 29431 C 2684.68 1.09422 1.35288 0
M  V30 29432 O 2685.85 1.4151 1.43307 0
M  V30 29433 C 2682.92 2.66128 2.22209 0
M  V30 29434 C 2681.98 3.8549 1.88933 0
M  V30 29435 C 2681.21 4.35077 3.09101 0
M  V30 29436 O 2681.44 3.83809 4.21956 0
M  V30 29437 O 2680.37 5.26853 2.91048 0
M  V30 29438 H 2684.2 2.99388 0.509931 0
M  V30 29439 H 2681.78 1.4824 0.185827 0
M  V30 29440 H 2683.66 2.99666 2.96274 0
M  V30 29441 H 2682.34 1.83866 2.66411 0
M  V30 29442 H 2681.24 3.56867 1.12234 0
M  V30 29443 H 2682.58 4.68933 1.49543 0
M  V30 29444 N 2684.23 -0.238084 1.55791 0
M  V30 29445 C 2685.19 -1.27832 1.90241 0
M  V30 29446 C 2686.19 -1.40639 0.779577 0
M  V30 29447 O 2687.38 -1.39188 1.04749 0
M  V30 29448 C 2684.51 -2.65471 2.13864 0
M  V30 29449 H 2685.71 -0.984984 2.83263 0
M  V30 29450 H 2683.26 -0.477772 1.48819 0
M  V30 29451 H 2684 -2.9993 1.23339 0
M  V30 29452 H 2683.78 -2.57555 2.95648 0
M  V30 29453 H 2685.27 -3.40566 2.4167 0
M  V30 29454 N 2685.71 -1.4932 -0.504115 0
M  V30 29455 C 2687.12 -1.36013 -0.835015 0
M  V30 29456 C 2687.32 -0.390842 -1.97673 0
M  V30 29457 O 2686.38 0.178611 -2.51867 0
M  V30 29458 C 2687.69 -2.76659 -1.17816 0
M  V30 29459 C 2689.24 -2.85336 -1.28655 0
M  V30 29460 C 2689.72 -4.26742 -1.663 0
M  V30 29461 N 2691.21 -4.29537 -1.73355 0
M  V30 29462 C 2691.94 -5.35914 -2.03921 0
M  V30 29463 N 2691.44 -6.52539 -2.32732 0
M  V30 29464 N 2693.23 -5.23328 -2.05145 0
M  V30 29465 H 2685.38 -2.10938 0.248801 0
M  V30 29466 H 2687.64 -0.946748 0.0487128 0
M  V30 29467 H 2687.35 -3.49271 -0.41262 0
M  V30 29468 H 2687.22 -3.11828 -2.12233 0
M  V30 29469 H 2689.61 -2.12963 -2.04281 0
M  V30 29470 H 2689.69 -2.53753 -0.322959 0
M  V30 29471 H 2689.34 -4.9964 -0.912252 0
M  V30 29472 H 2689.27 -4.55787 -2.63753 0
M  V30 29473 H 2691.76 -3.45426 -1.53262 0
M  V30 29474 H 2692.07 -7.29435 -2.55235 0
M  V30 29475 H 2690.42 -6.55771 -2.30195 0
M  V30 29476 H 2693.61 -4.31223 -1.82111 0
M  V30 29477 H 2693.78 -6.06326 -2.28633 0
M  V30 29478 N 2687.19 0.754933 -1.38342 0
M  V30 29479 C 2688.43 1.51626 -1.34675 0
M  V30 29480 C 2688.76 1.94096 0.0635695 0
M  V30 29481 O 2688.04 1.65332 1.02447 0
M  V30 29482 C 2688.32 2.76977 -2.30121 0
M  V30 29483 C 2688.18 2.40654 -3.80008 0
M  V30 29484 C 2689.49 3.78994 -2.23722 0
M  V30 29485 H 2686.61 0.550048 -0.490527 0
M  V30 29486 H 2689.26 0.864777 -1.69179 0
M  V30 29487 H 2687.41 3.32567 -2.00827 0
M  V30 29488 H 2689.08 1.90849 -4.19969 0
M  V30 29489 H 2687.32 1.7313 -3.97754 0
M  V30 29490 H 2687.99 3.30332 -4.4225 0
M  V30 29491 H 2690.47 3.3294 -2.4958 0
M  V30 29492 H 2689.34 4.64398 -2.92618 0
M  V30 29493 H 2689.6 4.24482 -1.23561 0
M  V30 29494 N 2688.66 1.23189 0.982967 0
M  V30 29495 C 2690.08 0.993989 1.24868 0
M  V30 29496 C 2690.28 -0.306463 1.99156 0
M  V30 29497 O 2689.34 -1.02656 2.3069 0
M  V30 29498 C 2690.65 2.1992 2.05074 0
M  V30 29499 C 2692.2 2.24383 2.18223 0
M  V30 29500 C 2692.67 3.44484 3.01819 0
M  V30 29501 N 2694.16 3.44707 3.09404 0
M  V30 29502 C 2694.9 4.34291 3.74405 0
M  V30 29503 N 2694.39 5.34108 4.41249 0
M  V30 29504 N 2696.19 4.22041 3.71265 0
M  V30 29505 H 2688.34 2.06783 0.485217 0
M  V30 29506 H 2690.6 0.90664 0.276963 0
M  V30 29507 H 2690.31 3.14281 1.57861 0
M  V30 29508 H 2690.18 2.20795 3.05825 0
M  V30 29509 H 2692.57 1.30564 2.64645 0
M  V30 29510 H 2692.65 2.27542 1.16869 0
M  V30 29511 H 2692.29 4.3861 2.56094 0
M  V30 29512 H 2692.22 3.38566 4.03336 0
M  V30 29513 H 2694.71 2.72485 2.61841 0
M  V30 29514 H 2695.03 5.98725 4.88618 0
M  V30 29515 H 2693.37 5.3801 4.39966 0
M  V30 29516 H 2696.56 3.43307 3.18211 0
M  V30 29517 H 2696.74 4.9206 4.21641 0
M  V30 29518 N 2690.14 -1.18133 1.04318 0
M  V30 29519 C 2691.05 -2.25504 0.646916 0
M  V30 29520 C 2692.07 -1.70881 -0.327977 0
M  V30 29521 O 2693.24 -2.00573 -0.182273 0
M  V30 29522 C 2690.31 -3.46695 0.0186273 0
M  V30 29523 C 2689.37 -4.16441 1.04285 0
M  V30 29524 C 2688.6 -5.31846 0.444445 0
M  V30 29525 O 2688.83 -5.65466 -0.748636 0
M  V30 29526 O 2687.76 -5.90332 1.17439 0
M  V30 29527 H 2691.59 -2.61669 1.54152 0
M  V30 29528 H 2689.17 -1.25264 0.81421 0
M  V30 29529 H 2691.05 -4.20098 -0.330994 0
M  V30 29530 H 2689.73 -3.12347 -0.84976 0
M  V30 29531 H 2688.63 -3.45095 1.44431 0
M  V30 29532 H 2689.97 -4.54795 1.88208 0
M  V30 29533 N 2691.62 -0.822988 -1.34405 0
M  V30 29534 C 2692.55 -0.259649 -2.32052 0
M  V30 29535 C 2693.53 0.623933 -1.58244 0
M  V30 29536 O 2694.72 0.550797 -1.86225 0
M  V30 29537 C 2691.85 0.579254 -3.42435 0
M  V30 29538 C 2690.8 -0.207196 -4.27498 0
M  V30 29539 C 2690.13 0.754453 -5.29351 0
M  V30 29540 C 2691.43 -1.41542 -5.02756 0
M  V30 29541 H 2693.12 -1.0755 -2.79416 0
M  V30 29542 H 2690.67 -0.518617 -1.34337 0
M  V30 29543 H 2692.62 0.98354 -4.09761 0
M  V30 29544 H 2691.34 1.42815 -2.9372 0
M  V30 29545 H 2690 -0.59285 -3.61775 0
M  V30 29546 H 2689.65 1.59931 -4.76897 0
M  V30 29547 H 2689.35 0.232458 -5.8714 0
M  V30 29548 H 2690.87 1.1566 -5.99546 0
M  V30 29549 H 2692.29 -1.08514 -5.62937 0
M  V30 29550 H 2690.69 -1.87306 -5.7012 0
M  V30 29551 H 2691.76 -2.19358 -4.32447 0
M  V30 29552 N 2693.1 1.4662 -0.577957 0
M  V30 29553 C 2694.01 2.3405 0.160609 0
M  V30 29554 C 2695.02 1.49463 0.890885 0
M  V30 29555 O 2696.2 1.82344 0.855134 0
M  V30 29556 C 2693.27 3.26561 1.16442 0
M  V30 29557 C 2692.33 4.27046 0.439325 0
M  V30 29558 C 2691.56 5.15138 1.39531 0
M  V30 29559 O 2691.78 5.0607 2.63153 0
M  V30 29560 O 2690.72 5.95004 0.908481 0
M  V30 29561 H 2694.54 2.98546 -0.557109 0
M  V30 29562 H 2692.13 1.45517 -0.338395 0
M  V30 29563 H 2694.01 3.83648 1.74333 0
M  V30 29564 H 2692.68 2.64667 1.86369 0
M  V30 29565 H 2691.59 3.7366 -0.181313 0
M  V30 29566 H 2692.92 4.91713 -0.218885 0
M  V30 29567 N 2694.58 0.315484 1.5441 0
M  V30 29568 C 2695.52 -0.569731 2.25515 0
M  V30 29569 C 2696.52 -1.1252 1.26632 0
M  V30 29570 O 2697.72 -1.07417 1.44435 0
M  V30 29571 H 2694.1 -0.202363 0.72426 0
M  V30 29572 H 2696.07 0.0523419 2.98354 0
M  V30 29573 C 2694.82 -1.723 3.02007 0
M  V30 29574 H 2694.14 -1.30482 3.77908 0
M  V30 29575 H 2695.58 -2.31815 3.55018 0
M  V30 29576 C 2694.04 -2.6358 2.09827 0
M  V30 29577 O 2694.57 -3.65075 1.6758 0
M  V30 29578 N 2692.78 -2.31634 1.75482 0
M  V30 29579 H 2692.32 -1.49141 2.10035 0
M  V30 29580 H 2692.28 -2.92971 1.14084 0
M  V30 29581 N 2696.05 -1.5754 0.0434891 0
M  V30 29582 C 2696.96 -2.14553 -0.948892 0
M  V30 29583 C 2697.98 -1.10138 -1.34705 0
M  V30 29584 O 2699.16 -1.42268 -1.42554 0
M  V30 29585 C 2696.22 -2.67302 -2.20795 0
M  V30 29586 C 2695.28 -3.86487 -1.86886 0
M  V30 29587 C 2694.52 -4.36711 -3.06789 0
M  V30 29588 O 2694.74 -3.86041 -4.19915 0
M  V30 29589 O 2693.67 -5.28389 -2.8825 0
M  V30 29590 H 2697.5 -2.99655 -0.494046 0
M  V30 29591 H 2695.08 -1.48336 -0.177963 0
M  V30 29592 H 2696.97 -3.01233 -2.9468 0
M  V30 29593 H 2695.64 -1.85276 -2.65432 0
M  V30 29594 H 2694.55 -3.57457 -1.1034 0
M  V30 29595 H 2695.88 -4.69719 -1.47054 0
M  V30 29596 N 2697.53 0.229818 -1.55915 0
M  V30 29597 C 2698.46 1.28811 -1.94756 0
M  V30 29598 C 2699.44 1.49322 -0.814683 0
M  V30 29599 O 2700.63 1.61644 -1.07634 0
M  V30 29600 C 2697.76 2.63955 -2.2571 0
M  V30 29601 C 2696.71 2.58114 -3.4141 0
M  V30 29602 C 2696.04 3.97212 -3.57948 0
M  V30 29603 C 2697.34 2.13615 -4.76619 0
M  V30 29604 H 2699.03 0.965497 -2.83405 0
M  V30 29605 H 2696.58 0.463004 -1.36353 0
M  V30 29606 H 2698.53 3.38141 -2.51472 0
M  V30 29607 H 2697.26 2.97888 -1.33905 0
M  V30 29608 H 2695.91 1.86386 -3.15683 0
M  V30 29609 H 2695.56 4.28438 -2.63534 0
M  V30 29610 H 2695.26 3.94188 -4.35764 0
M  V30 29611 H 2696.79 4.73072 -3.8605 0
M  V30 29612 H 2698.2 2.7754 -5.01642 0
M  V30 29613 H 2696.6 2.21667 -5.57659 0
M  V30 29614 H 2697.67 1.0882 -4.72532 0
M  V30 29615 N 2699.01 1.49585 0.49619 0
M  V30 29616 C 2699.92 1.69352 1.62349 0
M  V30 29617 C 2700.94 0.576176 1.64183 0
M  V30 29618 O 2702.11 0.851472 1.82516 0
M  V30 29619 C 2699.18 1.76018 2.98695 0
M  V30 29620 C 2698.24 2.99623 3.07449 0
M  V30 29621 C 2697.47 3.05961 4.37291 0
M  V30 29622 O 2697.69 2.19762 5.26366 0
M  V30 29623 O 2696.63 3.98468 4.51117 0
M  V30 29624 H 2700.45 2.64861 1.48601 0
M  V30 29625 H 2698.04 1.33383 0.672999 0
M  V30 29626 H 2699.92 1.82728 3.79722 0
M  V30 29627 H 2698.6 0.836883 3.12695 0
M  V30 29628 H 2697.5 2.98428 2.25592 0
M  V30 29629 H 2698.84 3.91448 2.98378 0
M  V30 29630 N 2700.49 -0.747586 1.3874 0
M  V30 29631 C 2701.45 -1.8431 1.36245 0
M  V30 29632 C 2702.45 -1.58654 0.261839 0
M  V30 29633 O 2703.64 -1.66287 0.51906 0
M  V30 29634 C 2700.77 -3.21886 1.12259 0
M  V30 29635 H 2701.97 -1.87929 2.33715 0
M  V30 29636 H 2699.52 -0.949924 1.24121 0
M  V30 29637 H 2700.25 -3.23933 0.15419 0
M  V30 29638 H 2700.04 -3.41903 1.91949 0
M  V30 29639 H 2701.53 -4.01958 1.13223 0
M  V30 29640 N 2701.97 -1.23709 -0.97642 0
M  V30 29641 C 2702.88 -1.0386 -2.10357 0
M  V30 29642 C 2703.89 0.0180614 -1.73991 0
M  V30 29643 O 2705.07 -0.178247 -2.0061 0
M  V30 29644 C 2702.13 -0.636447 -3.40808 0
M  V30 29645 C 2701.19 -1.76861 -3.91176 0
M  V30 29646 C 2700.43 -1.38555 -5.15401 0
M  V30 29647 O 2700.65 -0.27152 -5.69753 0
M  V30 29648 O 2699.58 -2.20806 -5.59936 0
M  V30 29649 H 2703.41 -1.98335 -2.29994 0
M  V30 29650 H 2701 -1.0245 -1.0874 0
M  V30 29651 H 2702.88 -0.423296 -4.19269 0
M  V30 29652 H 2701.55 0.279265 -3.22493 0
M  V30 29653 H 2700.46 -2.03643 -3.13816 0
M  V30 29654 H 2701.79 -2.66278 -4.13953 0
M  V30 29655 N 2703.44 1.17579 -1.04943 0
M  V30 29656 C 2704.38 2.21038 -0.606213 0
M  V30 29657 C 2705.39 1.59446 0.328735 0
M  V30 29658 O 2706.58 1.78084 0.121863 0
M  V30 29659 C 2703.68 3.38638 0.133235 0
M  V30 29660 C 2702.85 4.29801 -0.811787 0
M  V30 29661 C 2701.91 5.26076 -0.11405 0
M  V30 29662 O 2700.94 5.64273 -0.747336 0
M  V30 29663 N 2702.14 5.69006 1.14943 0
M  V30 29664 H 2704.9 2.59686 -1.4961 0
M  V30 29665 H 2702.46 1.32452 -0.93102 0
M  V30 29666 H 2704.46 4.00075 0.610073 0
M  V30 29667 H 2703.03 2.98608 0.924764 0
M  V30 29668 H 2702.25 3.65834 -1.4683 0
M  V30 29669 H 2703.53 4.87602 -1.45335 0
M  V30 29670 H 2702.93 5.40044 1.68431 0
M  V30 29671 H 2701.49 6.326 1.57038 0
M  V30 29672 N 2704.92 0.830104 1.33967 0
M  V30 29673 C 2705.87 0.255048 2.29386 0
M  V30 29674 C 2706.84 -0.624216 1.53925 0
M  V30 29675 O 2708.02 -0.56434 1.82263 0
M  V30 29676 C 2705.16 -0.57115 3.40341 0
M  V30 29677 C 2704.28 0.331159 4.30729 0
M  V30 29678 C 2703.41 -0.505296 5.28791 0
M  V30 29679 C 2702.45 0.39595 6.10818 0
M  V30 29680 N 2701.59 -0.401856 7.00949 0
M  V30 29681 H 2706.43 1.07409 2.7797 0
M  V30 29682 H 2703.97 0.541157 1.36784 0
M  V30 29683 H 2705.92 -1.06555 4.03363 0
M  V30 29684 H 2704.55 -1.35524 2.92973 0
M  V30 29685 H 2703.61 0.943824 3.68505 0
M  V30 29686 H 2704.92 1.02385 4.88179 0
M  V30 29687 H 2704.07 -1.06389 5.97299 0
M  V30 29688 H 2702.81 -1.23146 4.71896 0
M  V30 29689 H 2701.82 0.966624 5.41236 0
M  V30 29690 H 2703.04 1.12034 6.69795 0
M  V30 29691 H 2700.99 -1.11157 6.46514 0
M  V30 29692 H 2700.9 0.2323 7.55643 0
M  V30 29693 H 2702.17 -0.942966 7.73775 0
M  V30 29694 N 2706.4 -1.46311 0.585725 0
M  V30 29695 C 2707.82 -1.57667 0.247634 0
M  V30 29696 C 2708.02 -1.58039 -1.25004 0
M  V30 29697 O 2707.07 -1.49896 -2.03193 0
M  V30 29698 C 2708.39 -2.86931 0.899507 0
M  V30 29699 C 2709.93 -3.00568 0.873379 0
M  V30 29700 C 2710.41 -4.32572 1.50485 0
M  V30 29701 N 2711.9 -4.39278 1.46933 0
M  V30 29702 C 2712.64 -5.4004 1.92728 0
M  V30 29703 N 2712.13 -6.4746 2.4651 0
M  V30 29704 N 2713.92 -5.3126 1.83627 0
M  V30 29705 H 2706.08 -1.44314 1.55843 0
M  V30 29706 H 2708.34 -0.688587 0.651576 0
M  V30 29707 H 2708.04 -2.92479 1.95318 0
M  V30 29708 H 2707.92 -3.7497 0.409542 0
M  V30 29709 H 2710.31 -2.946 -0.171685 0
M  V30 29710 H 2710.39 -2.13997 1.40139 0
M  V30 29711 H 2710.03 -4.39297 2.54913 0
M  V30 29712 H 2709.96 -5.17923 0.952035 0
M  V30 29713 H 2712.45 -3.62251 1.07623 0
M  V30 29714 H 2712.76 -7.20562 2.79304 0
M  V30 29715 H 2711.11 -6.48271 2.50538 0
M  V30 29716 H 2714.3 -4.46244 1.41366 0
M  V30 29717 H 2714.47 -6.09644 2.19632 0
M  V30 29718 N 2707.88 -0.323668 -1.54241 0
M  V30 29719 C 2708.83 0.557764 -2.25814 0
M  V30 29720 C 2709.82 1.11847 -1.27227 0
M  V30 29721 O 2711.03 1.06649 -1.45003 0
M  V30 29722 H 2707.4 0.198519 -0.725323 0
M  V30 29723 H 2709.37 -0.0681636 -2.98322 0
M  V30 29724 C 2708.12 1.70696 -3.02916 0
M  V30 29725 H 2707.45 1.28476 -3.78595 0
M  V30 29726 H 2708.89 2.29929 -3.56242 0
M  V30 29727 C 2707.34 2.62463 -2.11222 0
M  V30 29728 O 2707.87 3.64181 -1.69514 0
M  V30 29729 N 2706.08 2.307 -1.76708 0
M  V30 29730 H 2705.63 1.48025 -2.10823 0
M  V30 29731 H 2705.59 2.92362 -1.15636 0
M  V30 29732 N 2709.36 1.57515 -0.0518432 0
M  V30 29733 C 2710.32 2.10468 0.90751 0
M  V30 29734 C 2711.32 1.02442 1.23945 0
M  V30 29735 O 2712.51 1.28512 1.17602 0
M  V30 29736 C 2709.64 2.58948 2.21718 0
M  V30 29737 H 2710.84 2.96528 0.448457 0
M  V30 29738 H 2708.39 1.55059 0.19657 0
M  V30 29739 H 2709.12 1.76283 2.72203 0
M  V30 29740 H 2708.91 3.3789 1.98929 0
M  V30 29741 H 2710.4 3.00061 2.90436 0
M  V30 29742 N 2710.84 -0.221546 1.56035 0
M  V30 29743 C 2711.75 -1.29554 1.95583 0
M  V30 29744 C 2712.76 -1.5128 0.859665 0
M  V30 29745 O 2713.94 -1.64411 1.16323 0
M  V30 29746 C 2711 -2.62527 2.26452 0
M  V30 29747 C 2710.06 -2.49104 3.49637 0
M  V30 29748 C 2709.3 -3.75735 3.79023 0
M  V30 29749 O 2709.52 -4.78752 3.10086 0
M  V30 29750 O 2708.45 -3.72847 4.72513 0
M  V30 29751 H 2712.28 -0.989984 2.87111 0
M  V30 29752 H 2709.86 -0.424409 1.43245 0
M  V30 29753 H 2711.75 -3.4106 2.475 0
M  V30 29754 H 2710.42 -2.92764 1.38097 0
M  V30 29755 H 2709.33 -1.68771 3.33867 0
M  V30 29756 H 2710.66 -2.23806 4.38374 0
M  V30 29757 N 2712.31 -1.49846 -0.48825 0
M  V30 29758 C 2713.54 -1.63973 -1.26994 0
M  V30 29759 C 2713.96 -0.316026 -1.85426 0
M  V30 29760 O 2713.32 0.718003 -1.66476 0
M  V30 29761 C 2713.37 -2.72053 -2.36684 0
M  V30 29762 O 2712.47 -2.32113 -3.40877 0
M  V30 29763 H 2711.81 -0.548403 -0.374367 0
M  V30 29764 H 2714.34 -1.96116 -0.58307 0
M  V30 29765 H 2714.35 -2.9461 -2.82257 0
M  V30 29766 H 2713.03 -3.68133 -1.93523 0
M  V30 29767 H 2711.61 -2.19936 -3.01135 0
M  V30 29768 N 2713.79 0.740218 -1.39135 0
M  V30 29769 C 2715.04 1.50189 -1.36276 0
M  V30 29770 C 2715.37 1.94152 0.0429794 0
M  V30 29771 O 2714.65 1.6641 1.00688 0
M  V30 29772 C 2714.93 2.74521 -2.33046 0
M  V30 29773 C 2714.78 2.3661 -3.82539 0
M  V30 29774 C 2716.1 3.766 -2.27729 0
M  V30 29775 H 2713.22 0.544814 -0.496333 0
M  V30 29776 H 2715.86 0.846785 -1.70087 0
M  V30 29777 H 2714.01 3.30418 -2.04343 0
M  V30 29778 H 2715.68 1.86384 -4.2197 0
M  V30 29779 H 2713.93 1.68902 -3.99568 0
M  V30 29780 H 2714.6 3.25622 -4.45729 0
M  V30 29781 H 2717.07 3.30274 -2.53097 0
M  V30 29782 H 2715.95 4.61268 -2.97528 0
M  V30 29783 H 2716.21 4.23148 -1.28057 0
M  V30 29784 N 2715.27 1.24225 0.969846 0
M  V30 29785 C 2716.22 1.03274 2.06405 0
M  V30 29786 C 2717.19 -0.0532708 1.66015 0
M  V30 29787 O 2718.37 0.10093 1.90533 0
M  V30 29788 C 2715.51 0.641321 3.39089 0
M  V30 29789 C 2714.62 1.80058 3.92687 0
M  V30 29790 C 2713.76 1.35495 5.13629 0
M  V30 29791 C 2712.8 2.48429 5.59419 0
M  V30 29792 N 2711.94 2.04748 6.71582 0
M  V30 29793 H 2716.78 1.96927 2.2366 0
M  V30 29794 H 2714.31 0.980881 1.09623 0
M  V30 29795 H 2716.27 0.395424 4.15322 0
M  V30 29796 H 2714.9 -0.258212 3.21766 0
M  V30 29797 H 2713.95 2.1602 3.13113 0
M  V30 29798 H 2715.26 2.64923 4.22631 0
M  V30 29799 H 2714.42 1.0678 5.97229 0
M  V30 29800 H 2713.16 0.476808 4.85364 0
M  V30 29801 H 2712.16 2.77906 4.74393 0
M  V30 29802 H 2713.39 3.36796 5.89699 0
M  V30 29803 H 2711.33 1.19329 6.45055 0
M  V30 29804 H 2711.25 2.83168 7.00965 0
M  V30 29805 H 2712.52 1.79168 7.5863 0
M  V30 29806 N 2716.75 -1.1702 1.05565 0
M  V30 29807 C 2718 -1.87002 0.766452 0
M  V30 29808 C 2718.32 -1.81661 -0.708822 0
M  V30 29809 O 2717.59 -1.24513 -1.5124 0
M  V30 29810 H 2716.17 -0.692324 0.280528 0
M  V30 29811 H 2718.83 -1.41943 1.3356 0
M  V30 29812 H 2717.92 -2.92642 1.08477 0
M  V30 29813 N 2718.23 -0.837197 -1.33524 0
M  V30 29814 C 2719.16 -0.214273 -2.27192 0
M  V30 29815 C 2720.14 0.637631 -1.49576 0
M  V30 29816 O 2721.32 0.59826 -1.78754 0
M  V30 29817 C 2718.45 0.699309 -3.31402 0
M  V30 29818 C 2717.49 -0.0769178 -4.26431 0
M  V30 29819 S 2718.33 -1.43369 -5.15951 0
M  V30 29820 C 2719.48 -0.52536 -6.23691 0
M  V30 29821 H 2719.72 -1.00836 -2.79677 0
M  V30 29822 H 2717.25 -0.633859 -1.40789 0
M  V30 29823 H 2719.21 1.22081 -3.91927 0
M  V30 29824 H 2717.87 1.46704 -2.77735 0
M  V30 29825 H 2717.06 0.61818 -5.00194 0
M  V30 29826 H 2716.66 -0.529429 -3.70234 0
M  V30 29827 H 2718.95 0.277456 -6.76932 0
M  V30 29828 H 2719.9 -1.23311 -6.9728 0
M  V30 29829 H 2720.31 -0.10745 -5.64398 0
M  V30 29830 N 2719.7 1.45999 -0.593476 0
M  V30 29831 C 2721.12 1.57534 -0.255992 0
M  V30 29832 C 2721.32 1.58699 1.24164 0
M  V30 29833 O 2720.38 1.50972 2.02395 0
M  V30 29834 C 2721.69 2.8645 -0.914711 0
M  V30 29835 C 2723.24 3.00101 -0.889306 0
M  V30 29836 C 2723.71 4.31768 -1.52777 0
M  V30 29837 N 2725.2 4.38492 -1.4926 0
M  V30 29838 C 2725.94 5.3901 -1.9559 0
M  V30 29839 N 2725.43 6.46144 -2.49941 0
M  V30 29840 N 2727.23 5.30279 -1.86442 0
M  V30 29841 H 2719.38 1.43486 -1.56606 0
M  V30 29842 H 2721.64 0.685122 -0.655219 0
M  V30 29843 H 2721.35 2.91439 -1.96866 0
M  V30 29844 H 2721.22 3.74748 -0.429422 0
M  V30 29845 H 2723.61 2.94687 0.156059 0
M  V30 29846 H 2723.69 2.13251 -1.41272 0
M  V30 29847 H 2723.33 4.37939 -2.57239 0
M  V30 29848 H 2723.26 5.1741 -0.979489 0
M  V30 29849 H 2725.75 3.61675 -1.09542 0
M  V30 29850 H 2726.07 7.1907 -2.83122 0
M  V30 29851 H 2724.41 6.46934 -2.53972 0
M  V30 29852 H 2727.6 4.45488 -1.4373 0
M  V30 29853 H 2727.78 6.08471 -2.22862 0
M  V30 29854 N 2721.18 0.331843 1.54067 0
M  V30 29855 C 2722.13 -0.530332 2.24624 0
M  V30 29856 C 2723.1 -1.10501 1.24011 0
M  V30 29857 O 2724.28 -1.14381 1.52714 0
M  V30 29858 C 2721.42 -1.68124 3.01377 0
M  V30 29859 C 2720.54 -1.135 4.16823 0
M  V30 29860 C 2719.67 -2.25226 4.81089 0
M  V30 29861 C 2718.71 -1.67893 5.88624 0
M  V30 29862 N 2717.85 -2.73315 6.46717 0
M  V30 29863 H 2722.69 0.077913 2.97898 0
M  V30 29864 H 2720.23 0.0502224 1.47014 0
M  V30 29865 H 2722.18 -2.35862 3.44129 0
M  V30 29866 H 2720.81 -2.26065 2.30423 0
M  V30 29867 H 2719.87 -0.348913 3.78796 0
M  V30 29868 H 2721.18 -0.675546 4.94204 0
M  V30 29869 H 2720.33 -3.00852 5.26852 0
M  V30 29870 H 2719.07 -2.74511 4.03107 0
M  V30 29871 H 2718.08 -0.907678 5.42256 0
M  V30 29872 H 2719.3 -1.19475 6.68508 0
M  V30 29873 H 2717.25 -3.21876 5.71605 0
M  V30 29874 H 2717.16 -2.31957 7.19536 0
M  V30 29875 H 2718.43 -3.48745 6.97135 0
M  V30 29876 N 2722.66 -1.57485 0.0601958 0
M  V30 29877 C 2723.89 -1.97778 -0.624381 0
M  V30 29878 C 2724.31 -0.937896 -1.63049 0
M  V30 29879 O 2723.67 0.0978527 -1.81036 0
M  V30 29880 C 2723.72 -3.37128 -1.27973 0
M  V30 29881 O 2722.82 -3.35692 -2.3955 0
M  V30 29882 H 2722.16 -0.644043 -0.16157 0
M  V30 29883 H 2724.69 -2.04178 0.131272 0
M  V30 29884 H 2724.7 -3.74056 -1.6293 0
M  V30 29885 H 2723.38 -4.12348 -0.542428 0
M  V30 29886 H 2721.95 -3.10521 -2.06473 0
M  V30 29887 N 2724.14 0.213268 -1.5615 0
M  V30 29888 C 2725.05 1.28515 -1.96268 0
M  V30 29889 C 2726.06 1.50822 -0.867676 0
M  V30 29890 O 2727.24 1.63791 -1.17194 0
M  V30 29891 C 2724.31 2.61323 -2.27841 0
M  V30 29892 C 2723.37 2.47246 -3.50953 0
M  V30 29893 C 2722.6 3.7372 -3.8101 0
M  V30 29894 O 2722.82 4.771 -3.1262 0
M  V30 29895 O 2721.76 3.70336 -4.74484 0
M  V30 29896 H 2725.58 0.974744 -2.87632 0
M  V30 29897 H 2723.17 0.416807 -1.43468 0
M  V30 29898 H 2725.05 3.39742 -2.49305 0
M  V30 29899 H 2723.72 2.92028 -1.39648 0
M  V30 29900 H 2722.63 1.66999 -3.34757 0
M  V30 29901 H 2723.96 2.21478 -4.39554 0
M  V30 29902 N 2725.62 1.50103 0.480296 0
M  V30 29903 C 2727.03 1.37325 0.813271 0
M  V30 29904 C 2727.23 0.422241 1.97026 0
M  V30 29905 O 2726.29 -0.138519 2.5212 0
M  V30 29906 C 2727.6 2.78498 1.13399 0
M  V30 29907 C 2729.15 2.87347 1.24099 0
M  V30 29908 C 2729.62 4.29333 1.5949 0
M  V30 29909 N 2731.12 4.32241 1.66499 0
M  V30 29910 C 2731.85 5.3909 1.95369 0
M  V30 29911 N 2731.35 6.56159 2.22322 0
M  V30 29912 N 2733.14 5.26525 1.96794 0
M  V30 29913 H 2725.29 2.10515 -0.282328 0
M  V30 29914 H 2727.55 0.945853 -0.0637686 0
M  V30 29915 H 2727.26 3.49883 0.357002 0
M  V30 29916 H 2727.13 3.15165 2.07245 0
M  V30 29917 H 2729.52 2.16186 2.00867 0
M  V30 29918 H 2729.6 2.54235 0.282549 0
M  V30 29919 H 2729.25 5.01028 0.832648 0
M  V30 29920 H 2729.18 4.59925 2.56469 0
M  V30 29921 H 2731.67 3.47821 1.47747 0
M  V30 29922 H 2731.98 7.33403 2.43598 0
M  V30 29923 H 2730.32 6.5935 2.19734 0
M  V30 29924 H 2733.52 4.34066 1.75228 0
M  V30 29925 H 2733.69 6.09886 2.18958 0
M  V30 29926 N 2727.09 -0.732829 1.39526 0
M  V30 29927 C 2728.51 -1.03866 1.21177 0
M  V30 29928 C 2728.71 -2.01361 0.0748802 0
M  V30 29929 O 2727.77 -2.45918 -0.572767 0
M  V30 29930 C 2729.08 -1.59887 2.5467 0
M  V30 29931 C 2730.63 -1.71957 2.61533 0
M  V30 29932 C 2731.1 -2.31387 3.95252 0
M  V30 29933 N 2732.59 -2.38794 3.96903 0
M  V30 29934 C 2733.33 -2.8572 4.97143 0
M  V30 29935 N 2732.82 -3.32527 6.07781 0
M  V30 29936 N 2734.62 -2.84949 4.84521 0
M  V30 29937 H 2726.77 -0.0862667 2.12225 0
M  V30 29938 H 2729.03 -0.10089 0.942616 0
M  V30 29939 H 2728.74 -0.957151 3.38425 0
M  V30 29940 H 2728.61 -2.58663 2.74542 0
M  V30 29941 H 2731 -2.35251 1.7816 0
M  V30 29942 H 2731.08 -0.718284 2.45508 0
M  V30 29943 H 2730.72 -1.6872 4.79057 0
M  V30 29944 H 2730.65 -3.32197 4.08599 0
M  V30 29945 H 2733.14 -2.05714 3.17002 0
M  V30 29946 H 2733.46 -3.6685 6.80177 0
M  V30 29947 H 2731.8 -3.3053 6.11371 0
M  V30 29948 H 2734.99 -2.47706 3.97189 0
M  V30 29949 H 2735.17 -3.21206 5.62789 0
M  V30 29950 N 2728.57 -1.24737 -0.963244 0
M  V30 29951 C 2729.82 -1.08372 -1.70113 0
M  V30 29952 C 2730.13 0.376654 -1.91939 0
M  V30 29953 O 2731.34 0.660578 -2.63341 0
M  V30 29954 C 2729.8 -1.89104 -3.06215 0
M  V30 29955 C 2729.4 -3.3958 -2.92215 0
M  V30 29956 C 2731.15 -1.81282 -3.83845 0
M  V30 29957 C 2729.06 -4.12639 -4.23655 0
M  V30 29958 H 2727.99 -0.401936 -0.637937 0
M  V30 29959 H 2730.64 -1.48858 -1.07301 0
M  V30 29960 H 2729.02 -1.41436 -3.69881 0
M  V30 29961 H 2730.19 -3.9486 -2.37534 0
M  V30 29962 H 2728.51 -3.48401 -2.28047 0
M  V30 29963 H 2731.1 -2.33166 -4.81184 0
M  V30 29964 H 2731.45 -0.778967 -4.08947 0
M  V30 29965 H 2731.98 -2.26655 -3.26914 0
M  V30 29966 H 2728.72 -5.16402 -4.03744 0
M  V30 29967 H 2728.24 -3.62143 -4.78134 0
M  V30 29968 H 2729.92 -4.19882 -4.92248 0
M  V30 29969 N 2730.05 1.16459 -1.06184 0
M  V30 29970 C 2731 2.20811 -0.671652 0
M  V30 29971 C 2731.97 1.62765 0.331158 0
M  V30 29972 O 2733.15 1.89524 0.220296 0
M  V30 29973 C 2730.29 3.45042 -0.0630897 0
M  V30 29974 C 2729.41 4.17338 -1.11594 0
M  V30 29975 C 2728.54 5.29084 -0.473639 0
M  V30 29976 C 2727.58 5.9318 -1.5101 0
M  V30 29977 N 2726.72 6.9642 -0.89124 0
M  V30 29978 H 2731.56 2.5354 -1.56594 0
M  V30 29979 H 2729.09 1.24531 -0.782973 0
M  V30 29980 H 2731.05 4.16067 0.307271 0
M  V30 29981 H 2729.68 3.12867 0.794608 0
M  V30 29982 H 2728.73 3.44928 -1.60402 0
M  V30 29983 H 2730.05 4.61101 -1.9023 0
M  V30 29984 H 2729.2 6.06679 -0.0502499 0
M  V30 29985 H 2727.94 4.86481 0.344601 0
M  V30 29986 H 2726.94 5.14307 -1.9434 0
M  V30 29987 H 2728.17 6.37862 -2.33042 0
M  V30 29988 H 2726.11 6.55933 -0.0936906 0
M  V30 29989 H 2726.03 7.38549 -1.61499 0
M  V30 29990 H 2727.3 7.7794 -0.492959 0
M  V30 29991 N 2731.53 0.844266 1.33079 0
M  V30 29992 C 2732.44 0.283963 2.32875 0
M  V30 29993 C 2733.45 -0.592818 1.6359 0
M  V30 29994 O 2734.63 -0.495658 1.95206 0
M  V30 29995 C 2731.7 -0.527223 3.42668 0
M  V30 29996 C 2730.76 0.374469 4.27664 0
M  V30 29997 C 2729.99 -0.398096 5.32213 0
M  V30 29998 O 2730.21 -1.62922 5.46638 0
M  V30 29999 O 2729.15 0.230705 6.01458 0
M  V30 30000 H 2732.97 1.1105 2.82669 0
M  V30 30001 H 2730.56 0.606927 1.36516 0
M  V30 30002 H 2732.44 -0.988006 4.09654 0
M  V30 30003 H 2731.11 -1.33073 2.95082 0
M  V30 30004 H 2730.02 0.883208 3.63525 0
M  V30 30005 H 2731.35 1.14289 4.78747 0
M  V30 30006 N 2733.01 -1.45682 0.60121 0
M  V30 30007 C 2733.94 -2.33246 -0.108783 0
M  V30 30008 C 2734.92 -1.46453 -0.865197 0
M  V30 30009 O 2736.1 -1.75236 -0.837009 0
M  V30 30010 C 2733.23 -3.29052 -1.11095 0
M  V30 30011 C 2732.19 -4.25432 -0.46817 0
M  V30 30012 C 2731.51 -5.10881 -1.57813 0
M  V30 30013 C 2732.81 -5.18766 0.606561 0
M  V30 30014 H 2734.51 -2.9286 0.622358 0
M  V30 30015 H 2732.05 -1.40825 0.300739 0
M  V30 30016 H 2734.01 -3.89177 -1.61615 0
M  V30 30017 H 2732.73 -2.67584 -1.8726 0
M  V30 30018 H 2731.39 -3.66596 0.0161129 0
M  V30 30019 H 2731.04 -4.45785 -2.32991 0
M  V30 30020 H 2730.74 -5.76165 -1.15358 0
M  V30 30021 H 2732.26 -5.73873 -2.08573 0
M  V30 30022 H 2733.67 -5.72999 0.185689 0
M  V30 30023 H 2732.07 -5.92493 0.952486 0
M  V30 30024 H 2733.14 -4.6158 1.48567 0
M  V30 30025 N 2734.48 -0.340009 -1.53889 0
M  V30 30026 C 2735.71 0.259078 -2.05272 0
M  V30 30027 C 2736.13 1.44494 -1.2152 0
M  V30 30028 O 2735.48 1.80784 -0.249692 0
M  V30 30029 C 2735.54 0.677571 -3.55093 0
M  V30 30030 O 2735.26 -0.461128 -4.35666 0
M  V30 30031 C 2736.76 1.33775 -4.22634 0
M  V30 30032 H 2733.98 0.0506448 -0.669086 0
M  V30 30033 H 2736.52 -0.49097 -1.98519 0
M  V30 30034 H 2734.68 1.37757 -3.6208 0
M  V30 30035 H 2735.09 -0.128236 -5.24343 0
M  V30 30036 H 2736.56 1.58136 -5.28864 0
M  V30 30037 H 2737.04 2.2902 -3.74762 0
M  V30 30038 H 2737.65 0.679883 -4.19831 0
M  V30 30039 N 2735.96 1.57451 -0.0685468 0
M  V30 30040 C 2737.19 1.97404 0.609542 0
M  V30 30041 C 2737.6 0.945517 1.6388 0
M  V30 30042 O 2736.94 -0.076573 1.8354 0
M  V30 30043 C 2737.01 3.33656 1.33844 0
M  V30 30044 C 2736.67 4.54648 0.463023 0
M  V30 30045 C 2737.67 5.19156 -0.278055 0
M  V30 30046 C 2735.35 5.00793 0.388853 0
M  V30 30047 C 2737.35 6.28157 -1.08156 0
M  V30 30048 C 2735.03 6.09667 -0.418324 0
M  V30 30049 C 2736.03 6.73211 -1.1522 0
M  V30 30050 O 2735.72 7.79989 -1.94607 0
M  V30 30051 H 2735.45 0.654227 0.170186 0
M  V30 30052 H 2738.01 2.04946 -0.136507 0
M  V30 30053 H 2736.24 3.22718 2.13049 0
M  V30 30054 H 2737.92 3.58236 1.90845 0
M  V30 30055 H 2738.69 4.84453 -0.230327 0
M  V30 30056 H 2734.57 4.51112 0.94969 0
M  V30 30057 H 2738.11 6.77687 -1.65488 0
M  V30 30058 H 2734.01 6.43804 -0.467628 0
M  V30 30059 H 2734.78 7.96851 -1.87004 0
M  V30 30060 N 2737.44 -0.204984 1.56261 0
M  V30 30061 C 2738.37 -1.27791 1.90268 0
M  V30 30062 C 2739.39 -1.42213 0.792422 0
M  V30 30063 O 2740.58 -1.42815 1.0708 0
M  V30 30064 C 2737.68 -2.6514 2.11079 0
M  V30 30065 C 2736.85 -2.72454 3.42181 0
M  V30 30066 C 2735.91 -3.90929 3.52223 0
M  V30 30067 O 2734.93 -3.78493 4.25125 0
M  V30 30068 N 2736.14 -5.05958 2.84582 0
M  V30 30069 H 2738.9 -0.989384 2.82898 0
M  V30 30070 H 2736.46 -0.394953 1.57009 0
M  V30 30071 H 2738.45 -3.42807 2.15095 0
M  V30 30072 H 2737.02 -2.86522 1.24995 0
M  V30 30073 H 2736.24 -1.81136 3.50119 0
M  V30 30074 H 2737.53 -2.74323 4.28514 0
M  V30 30075 H 2736.93 -5.18959 2.25161 0
M  V30 30076 H 2735.49 -5.81607 2.94238 0
M  V30 30077 N 2738.92 -1.50356 -0.472329 0
M  V30 30078 C 2740.15 -1.65037 -1.24781 0
M  V30 30079 C 2740.56 -0.333209 -1.85836 0
M  V30 30080 O 2739.92 0.68469 -1.69169 0
M  V30 30081 C 2739.97 -2.74058 -2.35742 0
M  V30 30082 O 2739.69 -4.00668 -1.7719 0
M  V30 30083 C 2741.19 -2.99702 -3.2664 0
M  V30 30084 H 2738.41 -0.554791 -0.377423 0
M  V30 30085 H 2740.96 -1.96571 -0.563928 0
M  V30 30086 H 2739.11 -2.45223 -2.99908 0
M  V30 30087 H 2739.53 -4.60949 -2.50252 0
M  V30 30088 H 2741 -3.79651 -4.00711 0
M  V30 30089 H 2741.48 -2.10724 -3.85346 0
M  V30 30090 H 2742.08 -3.30064 -2.68212 0
M  V30 30091 N 2740.4 0.725419 -1.39912 0
M  V30 30092 C 2741.31 1.86978 -1.41691 0
M  V30 30093 C 2742.32 1.71205 -0.31061 0
M  V30 30094 O 2743.5 1.93641 -0.553624 0
M  V30 30095 C 2740.56 3.22674 -1.26817 0
M  V30 30096 C 2739.63 3.50771 -2.47504 0
M  V30 30097 C 2738.86 4.79993 -2.33329 0
M  V30 30098 O 2739.08 5.54392 -1.34185 0
M  V30 30099 O 2738.02 5.08205 -3.22507 0
M  V30 30100 H 2741.84 1.88432 -2.38174 0
M  V30 30101 H 2739.43 0.874527 -1.2113 0
M  V30 30102 H 2741.31 4.03747 -1.20691 0
M  V30 30103 H 2739.98 3.21969 -0.334345 0
M  V30 30104 H 2738.89 2.69747 -2.59206 0
M  V30 30105 H 2740.22 3.56264 -3.39612 0
M  V30 30106 N 2741.88 1.25246 0.956615 0
M  V30 30107 C 2742.79 1.07193 2.08679 0
M  V30 30108 C 2743.8 0.00962132 1.73997 0
M  V30 30109 O 2744.98 0.210139 2.00301 0
M  V30 30110 C 2742.04 0.690586 3.39753 0
M  V30 30111 C 2741.1 1.83061 3.88313 0
M  V30 30112 C 2740.34 1.46737 5.13132 0
M  V30 30113 O 2740.56 0.362129 5.69249 0
M  V30 30114 O 2739.49 2.29687 5.56352 0
M  V30 30115 H 2743.32 2.01969 2.26809 0
M  V30 30116 H 2740.9 1.04167 1.07097 0
M  V30 30117 H 2742.79 0.489945 4.18542 0
M  V30 30118 H 2741.46 -0.227924 3.22897 0
M  V30 30119 H 2740.37 2.0861 3.10536 0
M  V30 30120 H 2741.7 2.7283 4.09664 0
M  V30 30121 N 2743.35 -1.15894 1.068 0
M  V30 30122 C 2744.63 -1.82604 0.70109 0
M  V30 30123 C 2745.01 -1.94648 -0.817032 0
M  V30 30124 O 2744.36 -1.49356 -1.7293 0
M  V30 30125 C 2744.57 -3.19293 1.409 0
M  V30 30126 C 2745.92 -3.95002 1.55751 0
M  V30 30127 O 2746.94 -3.28828 1.36933 0
M  V30 30128 O 2745.8 -5.13632 1.86667 0
M  V30 30129 H 2742.89 -0.788686 0.248805 0
M  V30 30130 H 2745.44 -1.23053 1.16859 0
M  V30 30131 H 2744.21 -3.05592 2.44396 0
M  V30 30132 H 2743.83 -3.86524 0.931915 0
M  V30 30133 N 2744.83 -0.851312 -1.32629 0
M  V30 30134 C 2746.25 -0.540726 -1.50161 0
M  V30 30135 C 2746.45 0.929337 -1.78789 0
M  V30 30136 O 2745.5 1.71254 -1.85548 0
M  V30 30137 C 2746.82 -1.42483 -2.648 0
M  V30 30138 C 2748.36 -1.4249 -2.78685 0
M  V30 30139 C 2748.84 -2.29414 -3.964 0
M  V30 30140 N 2750.33 -2.27191 -4.03656 0
M  V30 30141 C 2751.07 -2.91179 -4.93966 0
M  V30 30142 N 2750.56 -3.64266 -5.89306 0
M  V30 30143 N 2752.35 -2.80584 -4.87062 0
M  V30 30144 H 2744.51 -1.80277 -1.12311 0
M  V30 30145 H 2746.77 -0.769816 -0.553252 0
M  V30 30146 H 2746.47 -2.47004 -2.50364 0
M  V30 30147 H 2746.35 -1.10981 -3.60504 0
M  V30 30148 H 2748.74 -0.387355 -2.92547 0
M  V30 30149 H 2748.82 -1.78006 -1.83705 0
M  V30 30150 H 2748.46 -3.33234 -3.83298 0
M  V30 30151 H 2748.39 -1.91233 -4.9065 0
M  V30 30152 H 2750.88 -1.74051 -3.35432 0
M  V30 30153 H 2751.19 -4.10266 -6.54906 0
M  V30 30154 H 2749.54 -3.68375 -5.89343 0
M  V30 30155 H 2752.73 -2.23038 -4.11548 0
M  V30 30156 H 2752.9 -3.30735 -5.57242 0
M  V30 30157 N 2746.31 1.45361 -0.608928 0
M  V30 30158 C 2747.26 2.30542 0.109131 0
M  V30 30159 C 2748.23 1.42183 0.858679 0
M  V30 30160 O 2749.41 1.7111 0.844148 0
M  V30 30161 C 2746.55 3.27111 1.09965 0
M  V30 30162 C 2745.66 4.30573 0.350836 0
M  V30 30163 C 2744.8 5.1425 1.33119 0
M  V30 30164 C 2743.84 6.09438 0.57027 0
M  V30 30165 N 2742.98 6.8589 1.49998 0
M  V30 30166 H 2747.82 2.9141 -0.623246 0
M  V30 30167 H 2745.35 1.43596 -0.319147 0
M  V30 30168 H 2747.31 3.81567 1.68708 0
M  V30 30169 H 2745.94 2.67994 1.79942 0
M  V30 30170 H 2744.99 3.78767 -0.35212 0
M  V30 30171 H 2746.3 4.98209 -0.242812 0
M  V30 30172 H 2745.46 5.73113 1.99064 0
M  V30 30173 H 2744.2 4.46636 1.95877 0
M  V30 30174 H 2743.2 5.49704 -0.102798 0
M  V30 30175 H 2744.43 6.7908 -0.05228 0
M  V30 30176 H 2742.37 6.20964 2.11518 0
M  V30 30177 H 2742.29 7.49883 0.959802 0
M  V30 30178 H 2743.56 7.49293 2.14896 0
M  V30 30179 N 2747.79 0.348166 1.53706 0
M  V30 30180 C 2748.74 -0.521768 2.26672 0
M  V30 30181 C 2749.73 -1.09809 1.2899 0
M  V30 30182 O 2750.94 -1.04329 1.46681 0
M  V30 30183 H 2747.31 -0.186955 0.72839 0
M  V30 30184 H 2749.28 0.115615 2.98176 0
M  V30 30185 C 2748.03 -1.65855 3.05594 0
M  V30 30186 H 2747.35 -1.22436 3.80591 0
M  V30 30187 H 2748.79 -2.24232 3.59855 0
M  V30 30188 C 2747.25 -2.5907 2.15371 0
M  V30 30189 O 2747.78 -3.61438 1.75287 0
M  V30 30190 N 2745.99 -2.2786 1.80356 0
M  V30 30191 H 2745.54 -1.44653 2.13151 0
M  V30 30192 H 2745.49 -2.90486 1.20273 0
M  V30 30193 N 2749.27 -1.57412 0.0768958 0
M  V30 30194 C 2750.2 -2.16038 -0.885988 0
M  V30 30195 C 2751.18 -1.08878 -1.30689 0
M  V30 30196 O 2752.36 -1.36936 -1.37703 0
M  V30 30197 C 2749.49 -2.72611 -2.15175 0
M  V30 30198 C 2748.45 -3.84983 -1.87008 0
M  V30 30199 C 2747.77 -4.28181 -3.20258 0
M  V30 30200 C 2749.07 -5.08996 -1.17134 0
M  V30 30201 H 2750.77 -2.96748 -0.397589 0
M  V30 30202 H 2748.31 -1.42744 -0.189798 0
M  V30 30203 H 2750.26 -3.12271 -2.82957 0
M  V30 30204 H 2748.99 -1.8913 -2.66266 0
M  V30 30205 H 2747.65 -3.45835 -1.2163 0
M  V30 30206 H 2747.3 -3.41614 -3.69201 0
M  V30 30207 H 2747 -5.03933 -3.02201 0
M  V30 30208 H 2748.52 -4.7046 -3.89229 0
M  V30 30209 H 2749.93 -5.4594 -1.74993 0
M  V30 30210 H 2748.33 -5.90059 -1.09318 0
M  V30 30211 H 2749.4 -4.84664 -0.15121 0
M  V30 30212 N 2750.74 0.196695 -1.56368 0
M  V30 30213 C 2751.67 1.24651 -1.97445 0
M  V30 30214 C 2752.66 1.4756 -0.846173 0
M  V30 30215 O 2753.84 1.59324 -1.11038 0
M  V30 30216 C 2750.97 2.59108 -2.31258 0
M  V30 30217 C 2749.92 2.50815 -3.46808 0
M  V30 30218 C 2749.25 3.8953 -3.66293 0
M  V30 30219 C 2750.55 2.03457 -4.81043 0
M  V30 30220 H 2752.24 0.905166 -2.85389 0
M  V30 30221 H 2749.79 0.433977 -1.37305 0
M  V30 30222 H 2751.74 3.32731 -2.58588 0
M  V30 30223 H 2750.47 2.9498 -1.40194 0
M  V30 30224 H 2749.13 1.79648 -3.19566 0
M  V30 30225 H 2748.77 4.22752 -2.72562 0
M  V30 30226 H 2748.47 3.84856 -4.44027 0
M  V30 30227 H 2750 4.64777 -3.95998 0
M  V30 30228 H 2751.41 2.66837 -5.07416 0
M  V30 30229 H 2749.81 2.09788 -5.62236 0
M  V30 30230 H 2750.88 0.987726 -4.74734 0
M  V30 30231 N 2752.22 1.50604 0.464349 0
M  V30 30232 C 2753.64 1.3818 0.79866 0
M  V30 30233 C 2753.84 0.443115 1.96567 0
M  V30 30234 O 2752.89 -0.11177 2.52253 0
M  V30 30235 C 2754.21 2.79685 1.10439 0
M  V30 30236 C 2755.76 2.88647 1.21045 0
M  V30 30237 C 2756.23 4.31001 1.54927 0
M  V30 30238 N 2757.72 4.33983 1.61905 0
M  V30 30239 C 2758.46 5.41132 1.8964 0
M  V30 30240 N 2757.95 6.5848 2.1535 0
M  V30 30241 N 2759.75 5.28583 1.91198 0
M  V30 30242 H 2751.9 2.10204 -0.30464 0
M  V30 30243 H 2754.16 0.945123 -0.073797 0
M  V30 30244 H 2753.87 3.50242 0.319872 0
M  V30 30245 H 2753.74 3.17346 2.03891 0
M  V30 30246 H 2756.13 2.18304 1.98563 0
M  V30 30247 H 2756.21 2.5452 0.255568 0
M  V30 30248 H 2755.85 5.01883 0.77946 0
M  V30 30249 H 2755.78 4.6262 2.51576 0
M  V30 30250 H 2758.27 3.49368 1.44049 0
M  V30 30251 H 2758.59 7.35945 2.35805 0
M  V30 30252 H 2756.93 6.61643 2.12728 0
M  V30 30253 H 2760.12 4.359 1.70614 0
M  V30 30254 H 2760.29 6.12174 2.12477 0
M  V30 30255 N 2753.7 -0.717989 1.40295 0
M  V30 30256 C 2754.63 -1.84495 1.43122 0
M  V30 30257 C 2755.61 -1.67567 0.292433 0
M  V30 30258 O 2756.8 -1.87634 0.500707 0
M  V30 30259 C 2753.93 -3.22425 1.29071 0
M  V30 30260 C 2752.88 -3.54021 2.40527 0
M  V30 30261 C 2752.21 -4.91069 2.11555 0
M  V30 30262 C 2753.51 -3.55262 3.82865 0
M  V30 30263 H 2755.2 -1.82387 2.37435 0
M  V30 30264 H 2752.75 -0.87607 1.14285 0
M  V30 30265 H 2754.7 -4.00955 1.29665 0
M  V30 30266 H 2753.42 -3.25103 0.312328 0
M  V30 30267 H 2752.08 -2.7783 2.39178 0
M  V30 30268 H 2751.73 -4.90347 1.12113 0
M  V30 30269 H 2751.43 -5.13175 2.86225 0
M  V30 30270 H 2752.95 -5.71935 2.13827 0
M  V30 30271 H 2754.37 -4.23837 3.86051 0
M  V30 30272 H 2752.77 -3.88894 4.57035 0
M  V30 30273 H 2753.84 -2.54698 4.12622 0
M  V30 30274 N 2755.18 -1.25752 -0.94996 0
M  V30 30275 C 2756.11 -1.02334 -2.05086 0
M  V30 30276 C 2757.12 0.0132961 -1.62795 0
M  V30 30277 O 2758.31 -0.22579 -1.77066 0
M  V30 30278 C 2755.41 -0.525982 -3.34793 0
M  V30 30279 C 2754.59 -1.62985 -4.059 0
M  V30 30280 C 2753.64 -1.13205 -5.13878 0
M  V30 30281 O 2752.67 -1.82739 -5.39069 0
M  V30 30282 N 2753.87 0.0241906 -5.80495 0
M  V30 30283 H 2756.64 -1.97129 -2.25744 0
M  V30 30284 H 2754.2 -1.1702 -1.11884 0
M  V30 30285 H 2756.19 -0.177335 -4.04311 0
M  V30 30286 H 2754.76 0.328147 -3.10873 0
M  V30 30287 H 2753.98 -2.14986 -3.30416 0
M  V30 30288 H 2755.27 -2.37132 -4.50162 0
M  V30 30289 H 2754.67 0.605085 -5.62455 0
M  V30 30290 H 2753.22 0.313832 -6.51044 0
M  V30 30291 N 2756.66 1.15326 -1.07413 0
M  V30 30292 C 2757.93 1.82229 -0.710764 0
M  V30 30293 C 2758.31 1.95078 0.806697 0
M  V30 30294 O 2757.66 1.50271 1.72136 0
M  V30 30295 C 2757.87 3.18541 -1.42592 0
M  V30 30296 C 2759.22 3.94171 -1.57843 0
M  V30 30297 O 2760.24 3.28097 -1.38674 0
M  V30 30298 O 2759.1 5.12635 -1.89389 0
M  V30 30299 H 2756.2 0.787355 -0.252984 0
M  V30 30300 H 2758.74 1.22432 -1.1751 0
M  V30 30301 H 2757.51 3.04291 -2.46013 0
M  V30 30302 H 2757.14 3.86025 -0.9524 0
M  V30 30303 N 2758.13 0.858334 1.32176 0
M  V30 30304 C 2759.06 0.321082 2.31282 0
M  V30 30305 C 2760.05 -0.581758 1.59842 0
M  V30 30306 O 2761.23 -0.501229 1.8762 0
M  V30 30307 C 2758.36 -0.48826 3.43851 0
M  V30 30308 C 2757.31 0.320466 4.26799 0
M  V30 30309 C 2756.64 -0.61384 5.31165 0
M  V30 30310 C 2757.94 1.54822 4.98826 0
M  V30 30311 H 2759.63 1.1492 2.76467 0
M  V30 30312 H 2757.18 0.554051 1.32915 0
M  V30 30313 H 2759.13 -0.874553 4.12225 0
M  V30 30314 H 2757.86 -1.34978 2.97403 0
M  V30 30315 H 2756.52 0.68856 3.60076 0
M  V30 30316 H 2756.16 -1.47231 4.8097 0
M  V30 30317 H 2755.86 -0.0767064 5.8755 0
M  V30 30318 H 2757.39 -0.99723 6.02402 0
M  V30 30319 H 2758.8 1.23401 5.59862 0
M  V30 30320 H 2757.2 2.02356 5.64953 0
M  V30 30321 H 2758.27 2.30746 4.26479 0
M  V30 30322 N 2759.61 -1.45036 0.616628 0
M  V30 30323 C 2760.86 -2.02471 0.115537 0
M  V30 30324 C 2761.19 -1.48282 -1.25404 0
M  V30 30325 O 2760.47 -0.661083 -1.82921 0
M  V30 30326 C 2760.75 -3.59996 0.0864221 0
M  V30 30327 C 2760.6 -4.24499 1.4873 0
M  V30 30328 C 2761.92 -4.36036 -0.596685 0
M  V30 30329 H 2759.04 -0.735718 0.0434591 0
M  V30 30330 H 2761.68 -1.72782 0.79033 0
M  V30 30331 H 2759.83 -3.8542 -0.488209 0
M  V30 30332 H 2761.5 -4.1023 2.10971 0
M  V30 30333 H 2759.75 -3.82551 2.04541 0
M  V30 30334 H 2760.42 -5.33447 1.41909 0
M  V30 30335 H 2762.89 -4.15959 -0.108166 0
M  V30 30336 H 2761.77 -5.45761 -0.586193 0
M  V30 30337 H 2762.03 -4.09572 -1.66444 0
M  V30 30338 N 2761.09 -0.356312 -1.53519 0
M  V30 30339 C 2762.37 0.292189 -1.93405 0
M  V30 30340 C 2762.75 1.67174 -1.28904 0
M  V30 30341 O 2762.1 2.24131 -0.444672 0
M  V30 30342 C 2762.31 0.351689 -3.47223 0
M  V30 30343 C 2763.65 0.59646 -4.2039 0
M  V30 30344 O 2764.68 0.433281 -3.53555 0
M  V30 30345 O 2763.54 0.913494 -5.38811 0
M  V30 30346 H 2760.63 0.173158 -0.808669 0
M  V30 30347 H 2763.18 -0.40842 -1.64712 0
M  V30 30348 H 2761.95 -0.615909 -3.86422 0
M  V30 30349 H 2761.57 1.09857 -3.82122 0
M  V30 30350 N 2762.57 1.57369 -0.0852427 0
M  V30 30351 C 2763.52 2.13479 0.877231 0
M  V30 30352 C 2764.49 1.05076 1.2864 0
M  V30 30353 O 2765.67 1.3281 1.36989 0
M  V30 30354 C 2762.81 2.71163 2.13459 0
M  V30 30355 C 2761.92 3.93767 1.77684 0
M  V30 30356 C 2761.06 4.39649 2.98132 0
M  V30 30357 C 2760.1 5.54867 2.58437 0
M  V30 30358 N 2759.23 5.95645 3.71687 0
M  V30 30359 H 2764.07 2.95412 0.391881 0
M  V30 30360 H 2761.61 1.45973 0.18177 0
M  V30 30361 H 2763.57 3.02722 2.87081 0
M  V30 30362 H 2762.2 1.91974 2.59511 0
M  V30 30363 H 2761.25 3.68585 0.940703 0
M  V30 30364 H 2762.56 4.77414 1.44489 0
M  V30 30365 H 2761.72 4.72939 3.80018 0
M  V30 30366 H 2760.46 3.54882 3.3453 0
M  V30 30367 H 2759.46 5.21214 1.74975 0
M  V30 30368 H 2760.69 6.41375 2.23194 0
M  V30 30369 H 2758.63 5.13826 4.07822 0
M  V30 30370 H 2758.55 6.74065 3.42305 0
M  V30 30371 H 2759.82 6.33563 4.54112 0
M  V30 30372 N 2764.05 -0.188399 1.5647 0
M  V30 30373 C 2764.98 -1.23602 1.98103 0
M  V30 30374 C 2765.96 -1.47109 0.853986 0
M  V30 30375 O 2767.14 -1.58733 1.11881 0
M  V30 30376 C 2764.27 -2.57878 2.32629 0
M  V30 30377 C 2763.23 -2.48972 3.48134 0
M  V30 30378 C 2762.55 -3.87582 3.68354 0
M  V30 30379 C 2763.85 -2.00903 4.82115 0
M  V30 30380 H 2765.55 -0.890018 2.85865 0
M  V30 30381 H 2763.09 -0.42669 1.37533 0
M  V30 30382 H 2765.05 -3.31355 2.60349 0
M  V30 30383 H 2763.77 -2.94233 1.41756 0
M  V30 30384 H 2762.43 -1.7795 3.20514 0
M  V30 30385 H 2762.08 -4.213 2.748 0
M  V30 30386 H 2761.78 -3.82496 4.46062 0
M  V30 30387 H 2763.3 -4.62671 3.98457 0
M  V30 30388 H 2764.71 -2.64142 5.08824 0
M  V30 30389 H 2763.11 -2.06804 5.6334 0
M  V30 30390 H 2764.18 -0.962536 4.75251 0
M  V30 30391 N 2765.53 -1.50848 -0.456355 0
M  V30 30392 C 2766.46 -1.66956 -1.5703 0
M  V30 30393 C 2767.47 -0.55062 -1.53206 0
M  V30 30394 O 2768.66 -0.824313 -1.58327 0
M  V30 30395 C 2765.76 -1.65154 -2.95935 0
M  V30 30396 C 2764.93 -2.93322 -3.2447 0
M  V30 30397 C 2763.99 -2.83965 -4.43002 0
M  V30 30398 O 2763.02 -3.57919 -4.42586 0
M  V30 30399 N 2764.22 -1.9852 -5.455 0
M  V30 30400 H 2766.98 -2.63044 -1.43624 0
M  V30 30401 H 2764.55 -1.48497 -0.645011 0
M  V30 30402 H 2766.54 -1.56487 -3.73221 0
M  V30 30403 H 2765.11 -0.767397 -3.03034 0
M  V30 30404 H 2764.33 -3.16004 -2.35659 0
M  V30 30405 H 2765.62 -3.78202 -3.40353 0
M  V30 30406 H 2765.01 -1.37776 -5.48666 0
M  V30 30407 H 2763.57 -1.95746 -6.21713 0
M  V30 30408 N 2767 0.710538 -1.40674 0
M  V30 30409 C 2767.93 1.83734 -1.44098 0
M  V30 30410 C 2768.91 1.6741 -0.301315 0
M  V30 30411 O 2770.1 1.87366 -0.510651 0
M  V30 30412 C 2767.23 3.21736 -1.30779 0
M  V30 30413 C 2766.18 3.5274 -2.42401 0
M  V30 30414 C 2765.51 4.8994 -2.14156 0
M  V30 30415 C 2766.81 3.53227 -3.84744 0
M  V30 30416 H 2768.5 1.81125 -2.38399 0
M  V30 30417 H 2766.05 0.869996 -1.14748 0
M  V30 30418 H 2768 4.00262 -1.3179 0
M  V30 30419 H 2766.73 3.24933 -0.329565 0
M  V30 30420 H 2765.39 2.76558 -2.40648 0
M  V30 30421 H 2765.03 4.89745 -1.14712 0
M  V30 30422 H 2764.73 5.1165 -2.88943 0
M  V30 30423 H 2766.26 5.70793 -2.16858 0
M  V30 30424 H 2767.67 4.21783 -3.88293 0
M  V30 30425 H 2766.07 3.86465 -4.59091 0
M  V30 30426 H 2767.14 2.52506 -4.13967 0
M  V30 30427 N 2768.48 1.26254 0.943277 0
M  V30 30428 C 2769.43 1.07629 2.04168 0
M  V30 30429 C 2770.4 -0.0180446 1.6609 0
M  V30 30430 O 2771.58 0.141322 1.90276 0
M  V30 30431 C 2768.72 0.713103 3.37652 0
M  V30 30432 C 2767.84 1.88347 3.88779 0
M  V30 30433 C 2766.97 1.46359 5.10639 0
M  V30 30434 C 2766.01 2.60239 5.54024 0
M  V30 30435 N 2765.15 2.18948 6.67088 0
M  V30 30436 H 2769.99 2.01627 2.19432 0
M  V30 30437 H 2767.52 1.00391 1.07517 0
M  V30 30438 H 2769.48 0.483431 4.1439 0
M  V30 30439 H 2768.11 -0.189903 3.22241 0
M  V30 30440 H 2767.16 2.22613 3.0846 0
M  V30 30441 H 2768.48 2.73828 4.16917 0
M  V30 30442 H 2767.63 1.19424 5.9483 0
M  V30 30443 H 2766.37 0.579653 4.84243 0
M  V30 30444 H 2765.37 2.87906 4.68391 0
M  V30 30445 H 2766.6 3.49229 5.82422 0
M  V30 30446 H 2764.55 1.32985 6.42379 0
M  V30 30447 H 2764.46 2.97973 6.94801 0
M  V30 30448 H 2765.73 1.95219 7.54659 0
M  V30 30449 N 2769.96 -1.14755 1.08024 0
M  V30 30450 C 2771.21 -1.85977 0.808738 0
M  V30 30451 C 2771.54 -1.82505 -0.663732 0
M  V30 30452 O 2770.81 -1.25299 -1.48763 0
M  V30 30453 C 2771.1 -3.34786 1.32629 0
M  V30 30454 C 2770.95 -3.46851 2.86381 0
M  V30 30455 C 2772.27 -4.2976 0.948366 0
M  V30 30456 H 2769.39 -0.675272 0.295256 0
M  V30 30457 H 2772.03 -1.3478 1.33919 0
M  V30 30458 H 2770.18 -3.78517 0.875069 0
M  V30 30459 H 2771.85 -3.11935 3.39844 0
M  V30 30460 H 2770.09 -2.88189 3.24237 0
M  V30 30461 H 2770.77 -4.51434 3.17666 0
M  V30 30462 H 2773.24 -3.94025 1.33729 0
M  V30 30463 H 2772.12 -5.32349 1.33774 0
M  V30 30464 H 2772.38 -4.41862 -0.145016 0
M  V30 30465 N 2771.44 -0.865331 -1.31719 0
M  V30 30466 C 2772.38 -0.315776 -2.2863 0
M  V30 30467 C 2773.35 0.583186 -1.55525 0
M  V30 30468 O 2774.54 0.515818 -1.83695 0
M  V30 30469 C 2771.68 0.480713 -3.41736 0
M  V30 30470 C 2770.79 -0.445242 -4.29699 0
M  V30 30471 C 2769.93 0.364919 -5.29945 0
M  V30 30472 C 2768.97 -0.557759 -6.09553 0
M  V30 30473 N 2768.1 0.215871 -7.01768 0
M  V30 30474 H 2772.94 -1.14741 -2.75024 0
M  V30 30475 H 2770.48 -0.577233 -1.35301 0
M  V30 30476 H 2772.44 0.958235 -4.06046 0
M  V30 30477 H 2771.07 1.27709 -2.96463 0
M  V30 30478 H 2770.12 -1.04119 -3.65873 0
M  V30 30479 H 2771.43 -1.15292 -4.85293 0
M  V30 30480 H 2770.59 0.905149 -5.9991 0
M  V30 30481 H 2769.33 1.10592 -4.74996 0
M  V30 30482 H 2768.33 -1.10978 -5.38483 0
M  V30 30483 H 2769.56 -1.29753 -6.66589 0
M  V30 30484 H 2767.5 0.939764 -6.49234 0
M  V30 30485 H 2767.42 -0.432564 -7.54761 0
M  V30 30486 H 2768.69 0.737482 -7.76004 0
M  V30 30487 N 2772.92 1.44707 -0.624311 0
M  V30 30488 C 2773.88 2.29078 0.0749235 0
M  V30 30489 C 2774.88 1.40674 0.77894 0
M  V30 30490 O 2776.07 1.62619 0.624563 0
M  V30 30491 C 2773.2 3.22095 1.11657 0
M  V30 30492 H 2774.39 2.92387 -0.667064 0
M  V30 30493 H 2771.95 1.51506 -0.384125 0
M  V30 30494 H 2772.68 2.63621 1.88877 0
M  V30 30495 H 2772.47 3.87235 0.615762 0
M  V30 30496 H 2773.96 3.85492 1.60578 0
M  V30 30497 N 2774.39 0.364449 1.53328 0
M  V30 30498 C 2775.62 -0.22606 2.0536 0
M  V30 30499 C 2776.03 -1.43092 1.23779 0
M  V30 30500 O 2775.37 -1.81688 0.271171 0
M  V30 30501 C 2775.44 -0.684732 3.52919 0
M  V30 30502 C 2775.1 0.403286 4.55217 0
M  V30 30503 C 2776.1 1.25278 5.0458 0
M  V30 30504 C 2773.78 0.563204 4.99133 0
M  V30 30505 C 2775.78 2.24755 5.96459 0
M  V30 30506 C 2773.46 1.56134 5.90818 0
M  V30 30507 C 2774.46 2.40195 6.39371 0
M  V30 30508 O 2774.15 3.38306 7.29249 0
M  V30 30509 H 2773.88 -0.0436653 0.674588 0
M  V30 30510 H 2776.44 0.520817 1.98687 0
M  V30 30511 H 2774.67 -1.48319 3.57125 0
M  V30 30512 H 2776.35 -1.19812 3.87814 0
M  V30 30513 H 2777.12 1.14042 4.71401 0
M  V30 30514 H 2773 -0.0813099 4.60928 0
M  V30 30515 H 2776.54 2.90404 6.3428 0
M  V30 30516 H 2772.44 1.67418 6.23411 0
M  V30 30517 H 2773.21 3.34022 7.47243 0
M  V30 30518 N 2775.87 -1.57322 0.0935872 0
M  V30 30519 C 2776.82 -2.13941 -0.865897 0
M  V30 30520 C 2777.79 -1.05756 -1.28081 0
M  V30 30521 O 2778.97 -1.33535 -1.36283 0
M  V30 30522 C 2776.11 -2.72291 -2.12018 0
M  V30 30523 C 2775.23 -3.94704 -1.75593 0
M  V30 30524 C 2774.36 -4.41224 -2.95796 0
M  V30 30525 C 2773.4 -5.56229 -2.55491 0
M  V30 30526 N 2772.54 -5.97608 -3.68523 0
M  V30 30527 H 2777.38 -2.95616 -0.376209 0
M  V30 30528 H 2774.91 -1.46067 -0.174026 0
M  V30 30529 H 2776.87 -3.0424 -2.85471 0
M  V30 30530 H 2775.5 -1.93347 -2.58489 0
M  V30 30531 H 2774.55 -3.69079 -0.921143 0
M  V30 30532 H 2775.87 -4.78174 -1.41955 0
M  V30 30533 H 2775.02 -4.74948 -3.77504 0
M  V30 30534 H 2773.76 -3.56651 -3.32643 0
M  V30 30535 H 2772.76 -5.22134 -1.72209 0
M  V30 30536 H 2773.99 -6.42549 -2.19789 0
M  V30 30537 H 2771.94 -5.15982 -4.05091 0
M  V30 30538 H 2771.85 -6.75871 -3.38725 0
M  V30 30539 H 2773.12 -6.35962 -4.50746 0
M  V30 30540 N 2777.35 0.180099 -1.56568 0
M  V30 30541 C 2778.77 0.531532 -1.50489 0
M  V30 30542 C 2778.97 1.85098 -0.7963 0
M  V30 30543 O 2778.02 2.5002 -0.353022 0
M  V30 30544 C 2779.33 0.572404 -2.95202 0
M  V30 30545 C 2780.88 0.66021 -3.05958 0
M  V30 30546 C 2781.36 0.732056 -4.52112 0
M  V30 30547 N 2782.85 0.795182 -4.56323 0
M  V30 30548 C 2783.58 0.871197 -5.66743 0
M  V30 30549 N 2783.08 0.908587 -6.86816 0
M  V30 30550 N 2784.87 0.909542 -5.54692 0
M  V30 30551 H 2777.02 -0.6852 -2.01044 0
M  V30 30552 H 2779.29 -0.245978 -0.915532 0
M  V30 30553 H 2778.99 -0.32827 -3.50165 0
M  V30 30554 H 2778.87 1.42194 -3.49372 0
M  V30 30555 H 2781.25 1.55131 -2.51035 0
M  V30 30556 H 2781.33 -0.215828 -2.54888 0
M  V30 30557 H 2780.98 -0.154754 -5.07664 0
M  V30 30558 H 2780.91 1.62411 -5.00929 0
M  V30 30559 H 2783.4 0.774925 -3.69869 0
M  V30 30560 H 2783.71 0.967519 -7.6672 0
M  V30 30561 H 2782.06 0.877011 -6.89444 0
M  V30 30562 H 2785.25 0.877272 -4.59806 0
M  V30 30563 H 2785.42 0.965322 -6.40769 0
M  V30 30564 N 2778.83 1.51088 0.448349 0
M  V30 30565 C 2779.76 1.67786 1.56143 0
M  V30 30566 C 2780.77 0.558737 1.52912 0
M  V30 30567 O 2781.96 0.832698 1.57887 0
M  V30 30568 C 2779.06 1.66721 2.95055 0
M  V30 30569 C 2778.23 2.95039 3.2291 0
M  V30 30570 C 2777.29 2.8631 4.41489 0
M  V30 30571 O 2776.32 3.60261 4.40682 0
M  V30 30572 N 2777.52 2.0141 5.4444 0
M  V30 30573 H 2780.29 2.63802 1.42227 0
M  V30 30574 H 2777.85 1.48836 0.637127 0
M  V30 30575 H 2779.84 1.58464 3.72386 0
M  V30 30576 H 2778.41 0.783456 3.02623 0
M  V30 30577 H 2777.63 3.17249 2.3398 0
M  V30 30578 H 2778.92 3.80002 3.38343 0
M  V30 30579 H 2778.32 1.40683 5.47928 0
M  V30 30580 H 2776.87 1.9904 6.20666 0
M  V30 30581 N 2780.31 -0.703068 1.41049 0
M  V30 30582 C 2781.27 -1.79882 1.42039 0
M  V30 30583 C 2782.27 -1.57741 0.312181 0
M  V30 30584 O 2783.46 -1.64552 0.571701 0
M  V30 30585 C 2780.59 -3.18152 1.22443 0
M  V30 30586 H 2781.78 -1.80398 2.39575 0
M  V30 30587 H 2779.34 -0.909955 1.27081 0
M  V30 30588 H 2780.07 -3.23279 0.257169 0
M  V30 30589 H 2779.86 -3.35624 2.02729 0
M  V30 30590 H 2781.35 -3.98153 1.25953 0
M  V30 30591 N 2781.78 -1.26752 -0.936569 0
M  V30 30592 C 2782.69 -1.105 -2.06947 0
M  V30 30593 C 2783.71 -0.0373016 -1.7396 0
M  V30 30594 O 2784.89 -0.241979 -1.99941 0
M  V30 30595 C 2781.95 -0.74455 -3.38611 0
M  V30 30596 C 2781.01 -1.89216 -3.85352 0
M  V30 30597 C 2780.25 -1.54882 -5.10732 0
M  V30 30598 O 2780.47 -0.452645 -5.68601 0
M  V30 30599 O 2779.4 -2.38509 -5.52628 0
M  V30 30600 H 2783.23 -2.05551 -2.23567 0
M  V30 30601 H 2780.81 -1.05857 -1.05426 0
M  V30 30602 H 2782.7 -0.556469 -4.1771 0
M  V30 30603 H 2781.37 0.176525 -3.23218 0
M  V30 30604 H 2780.28 -2.13524 -3.07178 0
M  V30 30605 H 2781.61 -2.79313 -4.05272 0
M  V30 30606 N 2783.26 1.1418 -1.08631 0
M  V30 30607 C 2784.17 2.22948 -0.730165 0
M  V30 30608 C 2785.19 1.71981 0.26433 0
M  V30 30609 O 2786.36 2.01112 0.107706 0
M  V30 30610 C 2783.43 3.46387 -0.147288 0
M  V30 30611 C 2782.49 4.12284 -1.19669 0
M  V30 30612 C 2781.72 5.2983 -0.64153 0
M  V30 30613 O 2781.95 5.67855 0.538251 0
M  V30 30614 O 2780.88 5.85567 -1.39267 0
M  V30 30615 H 2784.71 2.55768 -1.63757 0
M  V30 30616 H 2782.29 1.22155 -0.860139 0
M  V30 30617 H 2784.17 4.21037 0.174849 0
M  V30 30618 H 2782.85 3.15286 0.733248 0
M  V30 30619 H 2781.76 3.39497 -1.57139 0
M  V30 30620 H 2783.09 4.47496 -2.04958 0
M  V30 30621 N 2784.74 0.872304 1.31258 0
M  V30 30622 C 2785.7 0.334696 2.26743 0
M  V30 30623 C 2786.7 -0.515655 1.52308 0
M  V30 30624 O 2787.89 -0.324626 1.71149 0
M  V30 30625 C 2785.03 -0.524423 3.36842 0
M  V30 30626 H 2786.22 1.17767 2.7581 0
M  V30 30627 H 2783.77 0.648089 1.4223 0
M  V30 30628 H 2784.51 -1.3885 2.93072 0
M  V30 30629 H 2784.29 0.0844988 3.92009 0
M  V30 30630 H 2785.78 -0.892767 4.07945 0
M  V30 30631 N 2786.22 -1.44374 0.631976 0
M  V30 30632 C 2787.13 -2.34484 -0.0736328 0
M  V30 30633 C 2788.14 -1.52667 -0.834798 0
M  V30 30634 O 2789.32 -1.85392 -0.786869 0
M  V30 30635 C 2786.39 -3.30658 -1.04241 0
M  V30 30636 C 2785.45 -4.28382 -0.280527 0
M  V30 30637 C 2784.68 -5.19961 -1.20316 0
M  V30 30638 O 2784.9 -5.15488 -2.44189 0
M  V30 30639 O 2783.84 -5.97966 -0.687023 0
M  V30 30640 H 2787.66 -2.96273 0.667529 0
M  V30 30641 H 2785.25 -1.44161 0.392169 0
M  V30 30642 H 2787.13 -3.89854 -1.59974 0
M  V30 30643 H 2785.8 -2.71401 -1.76417 0
M  V30 30644 H 2784.71 -3.7273 0.31987 0
M  V30 30645 H 2786.04 -4.90562 0.40123 0
M  V30 30646 N 2787.7 -0.372575 -1.53133 0
M  V30 30647 C 2788.61 0.478339 -2.29672 0
M  V30 30648 C 2789.62 1.08642 -1.35915 0
M  V30 30649 O 2790.8 1.09585 -1.68977 0
M  V30 30650 C 2787.86 1.59894 -3.07627 0
M  V30 30651 C 2786.92 1.01769 -4.17063 0
M  V30 30652 C 2786.16 2.08489 -4.91292 0
M  V30 30653 O 2786.38 3.29719 -4.65448 0
M  V30 30654 O 2785.31 1.71154 -5.77053 0
M  V30 30655 H 2789.14 -0.144703 -3.03355 0
M  V30 30656 H 2786.73 -0.136755 -1.48773 0
M  V30 30657 H 2788.61 2.25031 -3.56285 0
M  V30 30658 H 2787.28 2.20726 -2.36774 0
M  V30 30659 H 2786.19 0.330033 -3.72641 0
M  V30 30660 H 2787.52 0.453829 -4.90103 0
M  V30 30661 N 2789.17 1.5727 -0.101929 0
M  V30 30662 C 2790.11 2.11438 0.884685 0
M  V30 30663 C 2791.12 1.05316 1.24147 0
M  V30 30664 O 2792.31 1.32742 1.19339 0
M  V30 30665 C 2789.41 2.58488 2.19174 0
M  V30 30666 C 2788.58 3.8852 2.00926 0
M  V30 30667 C 2787.64 4.21346 3.15205 0
M  V30 30668 O 2786.67 4.90453 2.88868 0
M  V30 30669 N 2787.87 3.77295 4.41167 0
M  V30 30670 H 2790.63 2.96714 0.422006 0
M  V30 30671 H 2788.19 1.61687 0.0829844 0
M  V30 30672 H 2790.19 2.77489 2.94588 0
M  V30 30673 H 2788.76 1.78185 2.56844 0
M  V30 30674 H 2787.98 3.78599 1.09803 0
M  V30 30675 H 2789.26 4.73577 1.86018 0
M  V30 30676 H 2788.66 3.21524 4.65445 0
M  V30 30677 H 2787.22 4.01438 5.13508 0
M  V30 30678 N 2790.65 -0.171793 1.56661 0
M  V30 30679 C 2791.62 -1.19648 1.95492 0
M  V30 30680 C 2792.62 -1.37206 0.838525 0
M  V30 30681 O 2793.81 -1.3462 1.10558 0
M  V30 30682 C 2790.94 -2.56162 2.24931 0
M  V30 30683 H 2792.13 -0.863956 2.87186 0
M  V30 30684 H 2789.68 -0.414223 1.50711 0
M  V30 30685 H 2790.42 -2.94429 1.35949 0
M  V30 30686 H 2790.2 -2.44784 3.06306 0
M  V30 30687 H 2791.69 -3.3001 2.55897 0
M  V30 30688 N 2792.13 -1.51324 -0.44033 0
M  V30 30689 C 2793.08 -1.72991 -1.55489 0
M  V30 30690 C 2794.07 -0.596166 -1.58563 0
M  V30 30691 O 2795.28 -0.777471 -1.62343 0
M  V30 30692 H 2791.65 -0.546542 -0.516522 0
M  V30 30693 H 2793.62 -2.66426 -1.34387 0
M  V30 30694 C 2792.37 -1.86936 -2.93173 0
M  V30 30695 H 2791.7 -2.73579 -2.91538 0
M  V30 30696 H 2793.14 -2.0611 -3.70533 0
M  V30 30697 C 2791.6 -0.628423 -3.30987 0
M  V30 30698 O 2792.13 0.218297 -4.01106 0
M  V30 30699 N 2790.33 -0.47339 -2.86718 0
M  V30 30700 H 2789.88 -1.16349 -2.29828 0
M  V30 30701 H 2789.84 0.355672 -3.12382 0
M  V30 30702 N 2793.61 0.695578 -1.41419 0
M  V30 30703 C 2794.84 1.48437 -1.44132 0
M  V30 30704 C 2795.25 1.88742 -0.0466029 0
M  V30 30705 O 2794.61 1.56783 0.93409 0
M  V30 30706 C 2794.66 2.74692 -2.35003 0
M  V30 30707 O 2794.38 2.36084 -3.69047 0
M  V30 30708 C 2795.88 3.68433 -2.46519 0
M  V30 30709 H 2793.1 0.457434 -0.490913 0
M  V30 30710 H 2795.65 0.856421 -1.85703 0
M  V30 30711 H 2793.8 3.33724 -1.96741 0
M  V30 30712 H 2794.21 3.17466 -4.17511 0
M  V30 30713 H 2795.69 4.53806 -3.14268 0
M  V30 30714 H 2796.17 4.1292 -1.49646 0
M  V30 30715 H 2796.77 3.15305 -2.85417 0
M  V30 30716 N 2795.09 1.27247 0.929833 0
M  V30 30717 C 2796.04 1.0962 2.05149 0
M  V30 30718 C 2797.03 0.0198915 1.69388 0
M  V30 30719 O 2798.24 0.177448 1.79123 0
M  V30 30720 H 2794.61 0.337713 0.671903 0
M  V30 30721 H 2796.58 2.04651 2.17164 0
M  V30 30722 C 2795.33 0.757911 3.39339 0
M  V30 30723 H 2794.65 1.57802 3.6734 0
M  V30 30724 H 2796.09 0.674432 4.18602 0
M  V30 30725 C 2794.55 -0.537599 3.32583 0
M  V30 30726 O 2795.08 -1.57264 3.69636 0
M  V30 30727 N 2793.29 -0.532427 2.85681 0
M  V30 30728 H 2792.84 0.310278 2.55725 0
M  V30 30729 H 2792.79 -1.39931 2.81543 0
M  V30 30730 N 2796.57 -1.13603 1.09235 0
M  V30 30731 C 2797.5 -2.21067 0.751776 0
M  V30 30732 C 2798.48 -1.67949 -0.269659 0
M  V30 30733 O 2799.66 -1.93708 -0.138156 0
M  V30 30734 C 2796.79 -3.46887 0.169411 0
M  V30 30735 C 2795.75 -4.13082 1.12014 0
M  V30 30736 C 2795.07 -5.33205 0.399577 0
M  V30 30737 C 2796.37 -4.60646 2.46176 0
M  V30 30738 H 2798.07 -2.49812 1.65029 0
M  V30 30739 H 2795.61 -1.20071 0.794926 0
M  V30 30740 H 2797.56 -4.21322 -0.0809084 0
M  V30 30741 H 2796.29 -3.17532 -0.76428 0
M  V30 30742 H 2794.95 -3.40612 1.3557 0
M  V30 30743 H 2794.6 -5.00113 -0.538189 0
M  V30 30744 H 2794.3 -5.7844 1.03347 0
M  V30 30745 H 2795.82 -6.10397 0.157511 0
M  V30 30746 H 2797.23 -5.26514 2.26838 0
M  V30 30747 H 2795.63 -5.16614 3.05335 0
M  V30 30748 H 2796.7 -3.75271 3.07083 0
M  V30 30749 N 2798.04 -0.879253 -1.30793 0
M  V30 30750 C 2799.27 -0.508805 -2.01062 0
M  V30 30751 C 2799.69 0.893774 -1.65509 0
M  V30 30752 O 2799.05 1.59136 -0.868644 0
M  V30 30753 C 2799.1 -0.684053 -3.54052 0
M  V30 30754 O 2798.2 0.272582 -4.11498 0
M  V30 30755 H 2797.54 -0.201202 -0.632782 0
M  V30 30756 H 2800.07 -1.18522 -1.66774 0
M  V30 30757 H 2800.08 -0.580869 -4.03844 0
M  V30 30758 H 2798.76 -1.70671 -3.79268 0
M  V30 30759 H 2797.34 0.123574 -3.72695 0
M  V30 30760 N 2799.52 1.44037 -0.639624 0
M  V30 30761 C 2800.47 2.30721 0.0602053 0
M  V30 30762 C 2801.44 1.43972 0.828326 0
M  V30 30763 O 2802.62 1.72863 0.807663 0
M  V30 30764 C 2799.76 3.2937 1.03002 0
M  V30 30765 C 2798.88 4.3122 0.259426 0
M  V30 30766 C 2798.01 5.16958 1.22182 0
M  V30 30767 C 2797.05 6.1051 0.440871 0
M  V30 30768 N 2796.19 6.88917 1.35416 0
M  V30 30769 H 2801.03 2.90022 -0.684918 0
M  V30 30770 H 2798.56 1.42887 -0.349534 0
M  V30 30771 H 2800.52 3.8506 1.60576 0
M  V30 30772 H 2799.15 2.7175 1.74217 0
M  V30 30773 H 2798.2 3.77935 -0.432383 0
M  V30 30774 H 2799.52 4.97582 -0.348435 0
M  V30 30775 H 2798.67 5.77206 1.86863 0
M  V30 30776 H 2797.41 4.5069 1.8636 0
M  V30 30777 H 2796.41 5.49362 -0.219376 0
M  V30 30778 H 2797.64 6.78816 -0.196311 0
M  V30 30779 H 2795.59 6.25311 1.98299 0
M  V30 30780 H 2795.5 7.5175 0.800525 0
M  V30 30781 H 2796.77 7.53683 1.98954 0
M  V30 30782 N 2801 0.380691 1.52933 0
M  V30 30783 C 2802.25 -0.204242 2.01467 0
M  V30 30784 C 2802.57 -1.47531 1.26747 0
M  V30 30785 O 2801.83 -1.92476 0.353757 0
M  V30 30786 C 2802.13 -0.527137 3.53491 0
M  V30 30787 C 2801.79 0.651373 4.4617 0
M  V30 30788 C 2800.46 0.974702 4.71225 0
M  V30 30789 C 2802.81 1.4402 5.00907 0
M  V30 30790 C 2800.14 2.08856 5.48266 0
M  V30 30791 C 2802.49 2.5446 5.79166 0
M  V30 30792 C 2801.15 2.87311 6.02502 0
M  V30 30793 H 2800.42 -0.0747375 0.737221 0
M  V30 30794 H 2803.07 0.516266 1.8441 0
M  V30 30795 H 2801.37 -1.32886 3.68576 0
M  V30 30796 H 2803.07 -0.992215 3.88531 0
M  V30 30797 H 2799.66 0.389351 4.26828 0
M  V30 30798 H 2803.85 1.20365 4.81483 0
M  V30 30799 H 2799.1 2.34689 5.64563 0
M  V30 30800 H 2803.28 3.15991 6.20583 0
M  V30 30801 H 2800.9 3.73742 6.61983 0
M  V30 30802 N 2802.48 -1.57214 0.110268 0
M  V30 30803 C 2803.89 -1.57687 -0.246352 0
M  V30 30804 C 2804.09 -1.12244 -1.67343 0
M  V30 30805 O 2803.15 -0.805825 -2.39296 0
M  V30 30806 C 2804.46 -3.00693 -0.020976 0
M  V30 30807 C 2806.01 -3.12878 -0.0875527 0
M  V30 30808 C 2806.49 -4.57868 0.11002 0
M  V30 30809 N 2807.98 -4.63167 0.0556949 0
M  V30 30810 C 2808.71 -5.73106 0.183596 0
M  V30 30811 N 2808.21 -6.91826 0.36718 0
M  V30 30812 N 2810 -5.61964 0.123788 0
M  V30 30813 H 2802.15 -1.85057 1.04249 0
M  V30 30814 H 2804.41 -0.854847 0.409805 0
M  V30 30815 H 2804.12 -3.38195 0.965263 0
M  V30 30816 H 2803.99 -3.69532 -0.756683 0
M  V30 30817 H 2806.38 -2.75239 -1.06431 0
M  V30 30818 H 2806.46 -2.46599 0.679893 0
M  V30 30819 H 2806.11 -4.96204 1.08371 0
M  V30 30820 H 2806.04 -5.22226 -0.677305 0
M  V30 30821 H 2808.53 -3.77809 -0.0830398 0
M  V30 30822 H 2808.84 -7.71454 0.455874 0
M  V30 30823 H 2807.19 -6.9383 0.403042 0
M  V30 30824 H 2810.38 -4.68096 -0.0186105 0
M  V30 30825 H 2810.55 -6.47603 0.226911 0
M  V30 30826 N 2803.96 0.163482 -1.5675 0
M  V30 30827 C 2804.9 1.20227 -1.97013 0
M  V30 30828 C 2805.87 1.43574 -0.835211 0
M  V30 30829 O 2807.06 1.56183 -1.09596 0
M  V30 30830 C 2804.2 2.53474 -2.3419 0
M  V30 30831 C 2803.31 2.37439 -3.60897 0
M  V30 30832 C 2802.45 3.63607 -3.87251 0
M  V30 30833 C 2801.48 3.42539 -5.0728 0
M  V30 30834 N 2800.62 4.60796 -5.29728 0
M  V30 30835 H 2805.46 0.851908 -2.85564 0
M  V30 30836 H 2803 0.409232 -1.41293 0
M  V30 30837 H 2804.96 3.31145 -2.53769 0
M  V30 30838 H 2803.59 2.86489 -1.48741 0
M  V30 30839 H 2802.64 1.50905 -3.49187 0
M  V30 30840 H 2803.95 2.17823 -4.48726 0
M  V30 30841 H 2803.1 4.49712 -4.0724 0
M  V30 30842 H 2801.84 3.86211 -2.97812 0
M  V30 30843 H 2800.85 2.54822 -4.87182 0
M  V30 30844 H 2802.07 3.2135 -5.98257 0
M  V30 30845 H 2800.02 4.83604 -4.43241 0
M  V30 30846 H 2799.94 4.44122 -6.11794 0
M  V30 30847 H 2801.2 5.48162 -5.54201 0
M  V30 30848 N 2805.43 1.51555 0.432299 0
M  V30 30849 C 2806.68 1.64717 1.18306 0
M  V30 30850 C 2807.01 0.364729 1.90744 0
M  V30 30851 O 2806.29 -0.635904 1.83811 0
M  V30 30852 C 2806.57 2.85387 2.19605 0
M  V30 30853 C 2806.42 4.2362 1.51216 0
M  V30 30854 C 2807.74 3.01574 3.20532 0
M  V30 30855 H 2804.86 0.599459 0.42874 0
M  V30 30856 H 2807.5 1.84053 0.471656 0
M  V30 30857 H 2805.65 2.69032 2.80275 0
M  V30 30858 H 2807.33 4.51654 0.938437 0
M  V30 30859 H 2805.57 4.26086 0.814426 0
M  V30 30860 H 2806.24 5.04056 2.25015 0
M  V30 30861 H 2808.72 3.16674 2.6992 0
M  V30 30862 H 2807.59 3.87562 3.88699 0
M  V30 30863 H 2807.85 2.13865 3.86929 0
M  V30 30864 N 2806.91 -0.688069 1.41786 0
M  V30 30865 C 2807.84 -1.81348 1.40162 0
M  V30 30866 C 2808.86 -1.59962 0.302648 0
M  V30 30867 O 2810.05 -1.69326 0.564871 0
M  V30 30868 C 2807.15 -3.18238 1.16523 0
M  V30 30869 C 2806.32 -3.66589 2.38603 0
M  V30 30870 C 2805.38 -4.82171 2.10708 0
M  V30 30871 O 2804.4 -4.93399 2.83806 0
M  V30 30872 N 2805.61 -5.69945 1.10197 0
M  V30 30873 H 2808.37 -1.83231 2.37163 0
M  V30 30874 H 2805.93 -0.870673 1.36495 0
M  V30 30875 H 2807.92 -3.93197 0.95801 0
M  V30 30876 H 2806.49 -3.11335 0.280928 0
M  V30 30877 H 2805.71 -2.82454 2.74979 0
M  V30 30878 H 2807 -3.95632 3.19926 0
M  V30 30879 H 2806.4 -5.63512 0.497115 0
M  V30 30880 H 2804.96 -6.44771 0.954632 0
M  V30 30881 N 2808.39 -1.27739 -0.923072 0
M  V30 30882 C 2809.34 -1.07513 -2.0106 0
M  V30 30883 C 2810.32 -0.00168279 -1.609 0
M  V30 30884 O 2811.52 -0.220755 -1.75618 0
M  V30 30885 C 2808.64 -0.729221 -3.35466 0
M  V30 30886 C 2807.73 -1.84104 -3.82055 0
M  V30 30887 N 2808.12 -3.08131 -4.0111 0
M  V30 30888 C 2806.42 -1.72878 -4.11132 0
M  V30 30889 C 2807.12 -3.80514 -4.39982 0
M  V30 30890 N 2806.1 -3.08305 -4.47715 0
M  V30 30891 H 2809.9 -2.0163 -2.13828 0
M  V30 30892 H 2807.41 -1.18521 -1.11025 0
M  V30 30893 H 2809.41 -0.565427 -4.13048 0
M  V30 30894 H 2808.07 0.204277 -3.24057 0
M  V30 30895 H 2809.08 -3.43843 -3.87288 0
M  V30 30896 H 2805.76 -0.866424 -4.08411 0
M  V30 30897 H 2807.15 -4.87133 -4.62765 0
M  V30 30898 N 2809.87 1.13022 -1.09836 0
M  V30 30899 C 2810.78 2.22161 -0.75377 0
M  V30 30900 C 2811.79 1.72251 0.246074 0
M  V30 30901 O 2812.97 2.01215 0.0863697 0
M  V30 30902 C 2810.04 3.46211 -0.184019 0
M  V30 30903 C 2809.1 4.10991 -1.24035 0
M  V30 30904 C 2808.33 5.2912 -0.69769 0
M  V30 30905 O 2808.55 5.68394 0.477992 0
M  V30 30906 O 2807.49 5.84056 -1.4547 0
M  V30 30907 H 2811.31 2.54017 -1.66461 0
M  V30 30908 H 2808.9 1.21236 -0.873047 0
M  V30 30909 H 2810.78 4.21199 0.130183 0
M  V30 30910 H 2809.45 3.16046 0.699767 0
M  V30 30911 H 2808.36 3.37811 -1.60731 0
M  V30 30912 H 2809.69 4.45297 -2.09693 0
M  V30 30913 N 2811.35 0.886177 1.30325 0
M  V30 30914 C 2812.28 0.370068 2.30549 0
M  V30 30915 C 2813.26 -0.547722 1.6104 0
M  V30 30916 O 2814.44 -0.461319 1.88641 0
M  V30 30917 C 2811.57 -0.415214 3.44809 0
M  V30 30918 C 2810.53 0.410925 4.26023 0
M  V30 30919 C 2809.85 -0.501034 5.32347 0
M  V30 30920 C 2811.15 1.65368 4.9543 0
M  V30 30921 H 2812.85 1.20758 2.73967 0
M  V30 30922 H 2810.39 0.58212 1.31709 0
M  V30 30923 H 2812.35 -0.786917 4.13987 0
M  V30 30924 H 2811.07 -1.28639 3.00199 0
M  V30 30925 H 2809.73 0.764782 3.58534 0
M  V30 30926 H 2809.38 -1.36995 4.83985 0
M  V30 30927 H 2809.08 0.0479389 5.8758 0
M  V30 30928 H 2810.6 -0.869227 6.04381 0
M  V30 30929 H 2812.01 1.35249 5.57118 0
M  V30 30930 H 2810.41 2.14294 5.60534 0
M  V30 30931 H 2811.48 2.3974 4.21488 0
M  V30 30932 N 2812.82 -1.43695 0.647253 0
M  V30 30933 C 2814.1 -1.954 0.0884101 0
M  V30 30934 C 2814.48 -1.58875 -1.39003 0
M  V30 30935 O 2813.83 -0.870867 -2.11254 0
M  V30 30936 C 2814.04 -3.47452 0.328324 0
M  V30 30937 C 2815.39 -4.23976 0.230083 0
M  V30 30938 O 2816.41 -3.55246 0.260558 0
M  V30 30939 O 2815.27 -5.46298 0.148711 0
M  V30 30940 H 2812.36 -0.826897 -0.0130538 0
M  V30 30941 H 2814.91 -1.53665 0.720077 0
M  V30 30942 H 2813.68 -3.67143 1.35357 0
M  V30 30943 H 2813.31 -3.96172 -0.336702 0
M  V30 30944 N 2814.3 -0.388796 -1.52729 0
M  V30 30945 C 2815.21 0.453952 -2.30166 0
M  V30 30946 C 2816.23 1.07194 -1.3706 0
M  V30 30947 O 2817.4 1.07787 -1.70129 0
M  V30 30948 C 2814.47 1.56623 -3.09306 0
M  V30 30949 C 2813.53 0.973393 -4.18119 0
M  V30 30950 C 2812.76 2.03266 -4.93476 0
M  V30 30951 O 2812.99 3.24764 -4.68919 0
M  V30 30952 O 2811.92 1.65024 -5.78836 0
M  V30 30953 H 2815.75 -0.176869 -3.03185 0
M  V30 30954 H 2813.33 -0.152527 -1.48619 0
M  V30 30955 H 2815.21 2.2124 -3.58651 0
M  V30 30956 H 2813.89 2.18202 -2.39101 0
M  V30 30957 H 2812.8 0.290491 -3.7297 0
M  V30 30958 H 2814.13 0.401822 -4.90557 0
M  V30 30959 N 2815.78 1.57153 -0.118604 0
M  V30 30960 C 2816.74 2.14128 0.817427 0
M  V30 30961 C 2817.74 1.07606 1.19488 0
M  V30 30962 O 2818.93 1.33384 1.12046 0
M  V30 30963 C 2816.07 2.68118 2.10536 0
M  V30 30964 H 2817.26 2.98163 0.322286 0
M  V30 30965 H 2814.81 1.55753 0.130628 0
M  V30 30966 H 2815.55 1.8767 2.64482 0
M  V30 30967 H 2815.33 3.46023 1.84419 0
M  V30 30968 H 2816.82 3.1211 2.77448 0
M  V30 30969 N 2817.26 -0.155167 1.56834 0
M  V30 30970 C 2818.17 -1.21142 2.00902 0
M  V30 30971 C 2819.18 -1.47498 0.923055 0
M  V30 30972 O 2820.36 -1.59329 1.23192 0
M  V30 30973 C 2817.43 -2.52686 2.37382 0
M  V30 30974 C 2816.49 -2.3405 3.59887 0
M  V30 30975 C 2815.72 -3.59322 3.94618 0
M  V30 30976 O 2815.94 -4.65169 3.30112 0
M  V30 30977 O 2814.88 -3.52471 4.87902 0
M  V30 30978 H 2818.7 -0.86732 2.91052 0
M  V30 30979 H 2816.29 -0.363272 1.44916 0
M  V30 30980 H 2818.17 -3.30255 2.61743 0
M  V30 30981 H 2816.84 -2.86643 1.5039 0
M  V30 30982 H 2815.75 -1.54459 3.40724 0
M  V30 30983 H 2817.08 -2.05012 4.47472 0
M  V30 30984 N 2818.74 -1.51782 -0.424256 0
M  V30 30985 C 2819.65 -1.76905 -1.54084 0
M  V30 30986 C 2820.66 -0.653854 -1.61247 0
M  V30 30987 O 2821.84 -0.937583 -1.78245 0
M  V30 30988 C 2818.9 -1.90068 -2.89957 0
M  V30 30989 C 2817.96 -3.1395 -2.92803 0
M  V30 30990 C 2817.2 -3.26476 -4.22195 0
M  V30 30991 O 2817.42 -2.44625 -5.15281 0
M  V30 30992 O 2816.35 -4.19538 -4.31592 0
M  V30 30993 H 2820.18 -2.71649 -1.35795 0
M  V30 30994 H 2817.77 -1.36442 -0.608594 0
M  V30 30995 H 2819.65 -2.00637 -3.70571 0
M  V30 30996 H 2818.32 -0.985121 -3.08346 0
M  V30 30997 H 2817.23 -3.08851 -2.11097 0
M  V30 30998 H 2818.56 -4.05238 -2.79361 0
M  V30 30999 N 2820.21 0.68054 -1.42149 0
M  V30 31000 C 2821.63 0.992973 -1.24949 0
M  V30 31001 C 2821.83 2.00944 -0.149562 0
M  V30 31002 O 2820.89 2.47874 0.481101 0
M  V30 31003 C 2822.2 1.50325 -2.60428 0
M  V30 31004 C 2823.75 1.62132 -2.67735 0
M  V30 31005 C 2824.22 2.16558 -4.03568 0
M  V30 31006 N 2825.71 2.23898 -4.05492 0
M  V30 31007 C 2826.45 2.67072 -5.07405 0
M  V30 31008 N 2825.94 3.0974 -6.19704 0
M  V30 31009 N 2827.74 2.6677 -4.94763 0
M  V30 31010 H 2819.89 0.00744146 -2.12399 0
M  V30 31011 H 2822.15 0.0658363 -0.945711 0
M  V30 31012 H 2821.86 0.830887 -3.41744 0
M  V30 31013 H 2821.73 2.48295 -2.83953 0
M  V30 31014 H 2824.12 2.28476 -1.86769 0
M  V30 31015 H 2824.2 0.62667 -2.48005 0
M  V30 31016 H 2823.84 1.50824 -4.84989 0
M  V30 31017 H 2823.77 3.16803 -4.20646 0
M  V30 31018 H 2826.26 1.93807 -3.24419 0
M  V30 31019 H 2826.58 3.41353 -6.93324 0
M  V30 31020 H 2824.92 3.07612 -6.23218 0
M  V30 31021 H 2828.11 2.32794 -4.06109 0
M  V30 31022 H 2828.29 3.00097 -5.74322 0
M  V30 31023 N 2821.69 1.28226 0.916285 0
M  V30 31024 C 2822.66 1.1196 1.99994 0
M  V30 31025 C 2823.66 0.0600434 1.60688 0
M  V30 31026 O 2824.85 0.30561 1.71498 0
M  V30 31027 C 2821.98 0.70847 3.33457 0
M  V30 31028 H 2823.17 2.08199 2.15854 0
M  V30 31029 H 2820.72 1.11177 1.09861 0
M  V30 31030 H 2821.46 -0.254802 3.23297 0
M  V30 31031 H 2821.24 1.47384 3.63346 0
M  V30 31032 H 2822.73 0.617236 4.13013 0
M  V30 31033 N 2823.17 -1.12438 1.10433 0
M  V30 31034 C 2824.45 -1.80281 0.758829 0
M  V30 31035 C 2824.83 -1.97149 -0.754692 0
M  V30 31036 O 2824.18 -1.54782 -1.68091 0
M  V30 31037 C 2824.39 -3.14649 1.50987 0
M  V30 31038 C 2825.73 -3.89847 1.68239 0
M  V30 31039 O 2826.76 -3.24305 1.47325 0
M  V30 31040 O 2825.62 -5.07433 2.02914 0
M  V30 31041 H 2822.71 -0.780371 0.27377 0
M  V30 31042 H 2825.26 -1.19273 1.20715 0
M  V30 31043 H 2824.03 -2.97662 2.53994 0
M  V30 31044 H 2823.65 -3.83364 1.05441 0
M  V30 31045 N 2824.65 -0.893076 -1.29853 0
M  V30 31046 C 2825.9 -0.511632 -1.95103 0
M  V30 31047 C 2826.21 0.945537 -1.71228 0
M  V30 31048 O 2827.42 1.4342 -2.30528 0
M  V30 31049 C 2825.87 -0.864095 -3.49373 0
M  V30 31050 C 2825.48 -2.33958 -3.82057 0
M  V30 31051 C 2827.23 -0.552241 -4.20893 0
M  V30 31052 C 2825.13 -2.63325 -5.29541 0
M  V30 31053 H 2824.06 -0.18761 -0.730287 0
M  V30 31054 H 2826.71 -1.08916 -1.4768 0
M  V30 31055 H 2825.1 -0.215562 -3.95413 0
M  V30 31056 H 2826.27 -3.03311 -3.46899 0
M  V30 31057 H 2824.58 -2.61979 -3.2366 0
M  V30 31058 H 2827.18 -0.748582 -5.29434 0
M  V30 31059 H 2827.52 0.508851 -4.13178 0
M  V30 31060 H 2828.06 -1.15832 -3.80562 0
M  V30 31061 H 2824.8 -3.68207 -5.42314 0
M  V30 31062 H 2824.32 -1.9859 -5.6597 0
M  V30 31063 H 2826 -2.49247 -5.97064 0
M  V30 31064 N 2826.13 1.4335 -0.654865 0
M  V30 31065 C 2827.09 2.29185 0.0263159 0
M  V30 31066 C 2828.09 1.42295 0.748926 0
M  V30 31067 O 2829.28 1.63907 0.589929 0
M  V30 31068 C 2826.41 3.24391 1.048 0
M  V30 31069 H 2827.61 2.90906 -0.728934 0
M  V30 31070 H 2825.16 1.50657 -0.416175 0
M  V30 31071 H 2825.89 2.67568 1.83243 0
M  V30 31072 H 2825.68 3.88454 0.533486 0
M  V30 31073 H 2827.17 3.88812 1.52365 0
M  V30 31074 N 2827.61 0.39689 1.52521 0
M  V30 31075 C 2828.52 -0.44174 2.30404 0
M  V30 31076 C 2829.53 -1.06466 1.37626 0
M  V30 31077 O 2830.71 -1.06883 1.70699 0
M  V30 31078 C 2827.77 -1.5498 3.10132 0
M  V30 31079 C 2826.83 -0.951206 4.18629 0
M  V30 31080 C 2826.07 -2.00646 4.94547 0
M  V30 31081 O 2826.29 -3.22272 4.70634 0
M  V30 31082 O 2825.22 -1.61952 5.79703 0
M  V30 31083 H 2829.05 0.192946 3.03086 0
M  V30 31084 H 2826.63 0.160406 1.48536 0
M  V30 31085 H 2828.52 -2.19335 3.5982 0
M  V30 31086 H 2827.19 -2.16931 2.40255 0
M  V30 31087 H 2826.1 -0.270707 3.73119 0
M  V30 31088 H 2827.43 -0.375801 4.90763 0
M  V30 31089 N 2829.08 -1.57088 0.126936 0
M  V30 31090 C 2830.31 -2.00249 -0.539935 0
M  V30 31091 C 2830.73 -1.00621 -1.58925 0
M  V30 31092 O 2830.09 0.0209812 -1.81288 0
M  V30 31093 C 2830.14 -3.42252 -1.13559 0
M  V30 31094 O 2829.24 -3.45551 -2.25097 0
M  V30 31095 H 2828.58 -0.650316 -0.134108 0
M  V30 31096 H 2831.11 -2.03438 0.217753 0
M  V30 31097 H 2831.12 -3.8063 -1.46919 0
M  V30 31098 H 2829.8 -4.14277 -0.367049 0
M  V30 31099 H 2828.38 -3.18999 -1.93117 0
M  V30 31100 N 2830.56 0.146848 -1.56914 0
M  V30 31101 C 2831.49 1.20642 -1.9488 0
M  V30 31102 C 2832.51 1.39174 -0.844658 0
M  V30 31103 O 2833.7 1.38742 -1.12307 0
M  V30 31104 C 2830.8 2.57123 -2.20774 0
M  V30 31105 C 2829.97 2.59566 -3.52057 0
M  V30 31106 C 2829.03 3.77587 -3.66489 0
M  V30 31107 O 2828.05 3.62454 -4.3888 0
M  V30 31108 N 2829.26 4.95047 -3.03164 0
M  V30 31109 H 2832.02 0.883707 -2.86375 0
M  V30 31110 H 2829.58 0.336409 -1.58366 0
M  V30 31111 H 2831.57 3.34587 -2.2767 0
M  V30 31112 H 2830.14 2.81686 -1.35543 0
M  V30 31113 H 2829.36 1.68017 -3.56601 0
M  V30 31114 H 2830.65 2.5823 -4.384 0
M  V30 31115 H 2830.05 5.10245 -2.44267 0
M  V30 31116 H 2828.61 5.70286 -3.15621 0
M  V30 31117 N 2832.04 1.52005 0.4162 0
M  V30 31118 C 2833.29 1.65962 1.16552 0
M  V30 31119 C 2833.62 0.38494 1.90347 0
M  V30 31120 O 2832.89 -0.616372 1.84475 0
M  V30 31121 C 2833.18 2.877 2.16565 0
M  V30 31122 C 2833.03 4.252 1.46714 0
M  V30 31123 C 2834.35 3.04957 3.17316 0
M  V30 31124 H 2831.47 0.603972 0.422358 0
M  V30 31125 H 2834.11 1.84543 0.452109 0
M  V30 31126 H 2832.26 2.71989 2.77406 0
M  V30 31127 H 2833.93 4.52624 0.89048 0
M  V30 31128 H 2832.17 4.26926 0.769188 0
M  V30 31129 H 2832.85 5.06414 2.19656 0
M  V30 31130 H 2835.32 3.19519 2.66546 0
M  V30 31131 H 2834.2 3.91663 3.84567 0
M  V30 31132 H 2834.46 2.17957 3.84639 0
M  V30 31133 N 2833.52 -0.672992 1.42508 0
M  V30 31134 C 2834.47 -1.80776 1.46365 0
M  V30 31135 C 2835.46 -1.65969 0.339195 0
M  V30 31136 O 2836.67 -1.72556 0.512292 0
M  V30 31137 H 2833.04 -0.596099 0.458443 0
M  V30 31138 H 2835.01 -1.74641 2.41956 0
M  V30 31139 C 2833.76 -3.18939 1.38468 0
M  V30 31140 H 2833.08 -3.3096 2.24289 0
M  V30 31141 H 2834.52 -3.98353 1.45228 0
M  V30 31142 C 2832.98 -3.36752 0.0996946 0
M  V30 31143 O 2833.51 -3.92673 -0.846825 0
M  V30 31144 N 2831.72 -2.90595 0.0162621 0
M  V30 31145 H 2831.27 -2.45274 0.787293 0
M  V30 31146 H 2831.22 -3.02892 -0.842857 0
M  V30 31147 N 2835 -1.2871 -0.909472 0
M  V30 31148 C 2835.94 -1.13004 -2.01243 0
M  V30 31149 C 2836.91 -0.0259976 -1.6608 0
M  V30 31150 O 2838.1 -0.191721 -1.89834 0
M  V30 31151 C 2835.24 -0.802374 -3.35643 0
M  V30 31152 C 2834.35 -1.98588 -3.83649 0
M  V30 31153 C 2833.49 -1.59846 -5.06579 0
M  V30 31154 C 2832.52 -2.74836 -5.46929 0
M  V30 31155 N 2831.66 -2.36557 -6.61048 0
M  V30 31156 H 2836.5 -2.07374 -2.14009 0
M  V30 31157 H 2834.04 -1.03207 -1.04818 0
M  V30 31158 H 2836 -0.593129 -4.12962 0
M  V30 31159 H 2834.63 0.1044 -3.22631 0
M  V30 31160 H 2833.68 -2.30713 -3.02449 0
M  V30 31161 H 2834.99 -2.84786 -4.0951 0
M  V30 31162 H 2834.14 -1.35153 -5.91455 0
M  V30 31163 H 2832.88 -0.707838 -4.82536 0
M  V30 31164 H 2831.89 -3.00223 -4.60593 0
M  V30 31165 H 2833.11 -3.64548 -5.72959 0
M  V30 31166 H 2831.06 -1.4997 -6.38627 0
M  V30 31167 H 2830.98 -3.16289 -6.86656 0
M  V30 31168 H 2832.24 -2.15159 -7.49218 0
M  V30 31169 N 2836.47 1.1185 -1.11028 0
M  V30 31170 C 2837.4 2.19843 -0.786851 0
M  V30 31171 C 2838.38 1.68357 0.242905 0
M  V30 31172 O 2839.57 1.93903 0.107321 0
M  V30 31173 C 2836.7 3.46573 -0.224577 0
M  V30 31174 C 2835.65 4.11248 -1.18572 0
M  V30 31175 C 2834.98 5.32502 -0.484355 0
M  V30 31176 C 2836.28 4.56671 -2.53473 0
M  V30 31177 H 2837.97 2.47155 -1.68982 0
M  V30 31178 H 2835.52 1.18791 -0.813927 0
M  V30 31179 H 2837.47 4.21398 0.0138694 0
M  V30 31180 H 2836.2 3.18707 0.713666 0
M  V30 31181 H 2834.86 3.38412 -1.40972 0
M  V30 31182 H 2834.5 5.00905 0.458558 0
M  V30 31183 H 2834.2 5.76723 -1.12536 0
M  V30 31184 H 2835.73 6.10069 -0.2546 0
M  V30 31185 H 2837.14 5.22839 -2.35186 0
M  V30 31186 H 2835.54 5.11691 -3.13516 0
M  V30 31187 H 2836.61 3.70338 -3.13014 0
M  V30 31188 N 2837.95 0.89995 1.29378 0
M  V30 31189 C 2839.37 0.596085 1.48051 0
M  V30 31190 C 2839.57 -0.86234 1.82115 0
M  V30 31191 O 2838.62 -1.6425 1.91777 0
M  V30 31192 C 2839.94 1.52212 2.5933 0
M  V30 31193 C 2841.48 1.52735 2.73205 0
M  V30 31194 C 2841.96 2.43968 3.87613 0
M  V30 31195 N 2843.45 2.42016 3.94946 0
M  V30 31196 C 2844.19 3.09312 4.82819 0
M  V30 31197 N 2843.68 3.85887 5.75381 0
M  V30 31198 N 2845.47 2.98468 4.76312 0
M  V30 31199 H 2837.63 1.84321 1.05543 0
M  V30 31200 H 2839.89 0.789819 0.5243 0
M  V30 31201 H 2839.59 2.56126 2.41024 0
M  V30 31202 H 2839.47 1.24284 3.56137 0
M  V30 31203 H 2841.86 0.495665 2.90907 0
M  V30 31204 H 2841.94 1.84701 1.76972 0
M  V30 31205 H 2841.58 3.47231 3.70666 0
M  V30 31206 H 2841.51 2.09311 4.83215 0
M  V30 31207 H 2844 1.8638 3.28741 0
M  V30 31208 H 2844.31 4.3429 6.39228 0
M  V30 31209 H 2842.66 3.89994 5.75265 0
M  V30 31210 H 2845.85 2.38159 4.02986 0
M  V30 31211 H 2846.02 3.51189 5.44583 0
M  V30 31212 N 2839.43 -1.43001 0.662458 0
M  V30 31213 C 2840.39 -2.29196 -0.0141613 0
M  V30 31214 C 2841.39 -1.4269 -0.741369 0
M  V30 31215 O 2842.58 -1.64217 -0.581228 0
M  V30 31216 C 2839.72 -3.24943 -1.03078 0
M  V30 31217 H 2840.91 -2.90516 0.744351 0
M  V30 31218 H 2838.46 -1.50435 0.424159 0
M  V30 31219 H 2839.2 -2.68536 -1.81821 0
M  V30 31220 H 2838.98 -3.88731 -0.512877 0
M  V30 31221 H 2840.47 -3.89614 -1.50301 0
M  V30 31222 N 2840.91 -0.404973 -1.52308 0
M  V30 31223 C 2841.86 0.422557 -2.26899 0
M  V30 31224 C 2842.83 1.04458 -1.29142 0
M  V30 31225 O 2844.01 1.06964 -1.57998 0
M  V30 31226 C 2841.15 1.53553 -3.09056 0
M  V30 31227 C 2840.26 0.934834 -4.21764 0
M  V30 31228 C 2839.4 2.02016 -4.91287 0
M  V30 31229 C 2838.44 1.39618 -5.95964 0
M  V30 31230 N 2837.57 2.42148 -6.59021 0
M  V30 31231 H 2842.41 -0.219955 -2.97187 0
M  V30 31232 H 2839.95 -0.120308 -1.46607 0
M  V30 31233 H 2841.91 2.19175 -3.54991 0
M  V30 31234 H 2840.54 2.14813 -2.40946 0
M  V30 31235 H 2839.59 0.167787 -3.8003 0
M  V30 31236 H 2840.9 0.438985 -4.96865 0
M  V30 31237 H 2840.06 2.75373 -5.40606 0
M  V30 31238 H 2838.8 2.54965 -4.15745 0
M  V30 31239 H 2837.8 0.647927 -5.45969 0
M  V30 31240 H 2839.03 0.874435 -6.73447 0
M  V30 31241 H 2836.97 2.94237 -5.86311 0
M  V30 31242 H 2836.89 1.97363 -7.29783 0
M  V30 31243 H 2838.16 3.15087 -7.1298 0
M  V30 31244 N 2842.39 1.57018 -0.135265 0
M  V30 31245 C 2843.61 2.00532 0.529308 0
M  V30 31246 C 2844.04 1.01462 1.58389 0
M  V30 31247 O 2843.39 -0.0113668 1.81296 0
M  V30 31248 C 2843.44 3.4285 1.11742 0
M  V30 31249 O 2842.55 3.46739 2.23261 0
M  V30 31250 H 2841.89 0.651018 0.130658 0
M  V30 31251 H 2844.42 2.0332 -0.228539 0
M  V30 31252 H 2844.43 3.81403 1.44898 0
M  V30 31253 H 2843.1 4.14466 0.345074 0
M  V30 31254 H 2841.68 3.20019 1.91422 0
M  V30 31255 N 2843.86 -0.138524 1.5699 0
M  V30 31256 C 2845.28 -0.491446 1.51845 0
M  V30 31257 C 2845.48 -1.82922 0.845095 0
M  V30 31258 O 2844.54 -2.48996 0.419187 0
M  V30 31259 C 2845.85 -0.493935 2.96616 0
M  V30 31260 C 2847.4 -0.578859 3.07601 0
M  V30 31261 C 2847.87 -0.611929 4.53894 0
M  V30 31262 N 2849.36 -0.673916 4.58271 0
M  V30 31263 C 2850.1 -0.720629 5.68854 0
M  V30 31264 N 2849.59 -0.72617 6.88984 0
M  V30 31265 N 2851.39 -0.762155 5.56909 0
M  V30 31266 H 2843.54 0.738263 1.99157 0
M  V30 31267 H 2845.8 0.270165 0.908688 0
M  V30 31268 H 2845.51 0.420994 3.49171 0
M  V30 31269 H 2845.38 -1.32881 3.53019 0
M  V30 31270 H 2847.77 -1.48421 2.55059 0
M  V30 31271 H 2847.85 0.283331 2.54226 0
M  V30 31272 H 2847.49 0.289297 5.07075 0
M  V30 31273 H 2847.42 -1.49073 5.05059 0
M  V30 31274 H 2849.91 -0.676589 3.71794 0
M  V30 31275 H 2850.23 -0.763897 7.69015 0
M  V30 31276 H 2848.57 -0.693909 6.91527 0
M  V30 31277 H 2851.76 -0.755054 4.6197 0
M  V30 31278 H 2851.94 -0.795094 6.43104 0
M  V30 31279 N 2845.34 -1.52224 -0.408133 0
M  V30 31280 C 2846.62 -1.56895 -1.16804 0
M  V30 31281 C 2847 -0.350574 -2.08169 0
M  V30 31282 O 2846.35 0.662497 -2.18685 0
M  V30 31283 C 2846.56 -2.89813 -1.94446 0
M  V30 31284 C 2847.91 -3.4285 -2.50478 0
M  V30 31285 O 2848.93 -2.91559 -2.04625 0
M  V30 31286 O 2847.79 -4.32416 -3.34184 0
M  V30 31287 H 2844.88 -0.632016 -0.533371 0
M  V30 31288 H 2847.43 -1.64552 -0.414833 0
M  V30 31289 H 2846.2 -3.69938 -1.27521 0
M  V30 31290 H 2845.82 -2.85454 -2.7677 0
M  V30 31291 N 2846.82 0.665425 -1.42863 0
M  V30 31292 C 2848.07 1.42123 -1.43122 0
M  V30 31293 C 2848.38 1.95524 -0.054564 0
M  V30 31294 O 2849.59 2.71421 0.065427 0
M  V30 31295 C 2848.04 2.57145 -2.51802 0
M  V30 31296 C 2847.65 2.10404 -3.95517 0
M  V30 31297 C 2849.4 3.34596 -2.61239 0
M  V30 31298 C 2847.3 3.22565 -4.95687 0
M  V30 31299 H 2846.23 0.533957 -0.532359 0
M  V30 31300 H 2848.88 0.719476 -1.68807 0
M  V30 31301 H 2847.27 3.29734 -2.19298 0
M  V30 31302 H 2848.44 1.44907 -4.37423 0
M  V30 31303 H 2846.76 1.45867 -3.90015 0
M  V30 31304 H 2849.35 4.18145 -3.33255 0
M  V30 31305 H 2849.7 3.81814 -1.65903 0
M  V30 31306 H 2850.23 2.69082 -2.92984 0
M  V30 31307 H 2846.97 2.80328 -5.92534 0
M  V30 31308 H 2846.49 3.86813 -4.58406 0
M  V30 31309 H 2848.17 3.87887 -5.17834 0
M  V30 31310 N 2848.3 1.29191 0.902633 0
M  V30 31311 C 2849.55 1.16761 1.64958 0
M  V30 31312 C 2849.87 -0.281846 1.92952 0
M  V30 31313 O 2849.14 -1.19341 1.55353 0
M  V30 31314 H 2847.72 0.429129 0.611439 0
M  V30 31315 H 2850.38 1.62076 1.08247 0
M  V30 31316 H 2849.48 1.71548 2.60725 0
M  V30 31317 N 2849.78 -1.1126 1.1162 0
M  V30 31318 C 2851 -1.86838 0.888772 0
M  V30 31319 C 2851.42 -1.80256 -0.561527 0
M  V30 31320 O 2850.78 -1.18517 -1.3878 0
M  V30 31321 C 2850.83 -3.35576 1.34427 0
M  V30 31322 O 2850.55 -3.42024 2.73772 0
M  V30 31323 C 2852.05 -4.28055 1.15254 0
M  V30 31324 H 2849.27 -0.590774 0.318163 0
M  V30 31325 H 2851.81 -1.40704 1.484 0
M  V30 31326 H 2849.97 -3.79208 0.792457 0
M  V30 31327 H 2850.38 -4.34654 2.93558 0
M  V30 31328 H 2851.86 -5.30653 1.52024 0
M  V30 31329 H 2852.33 -4.39103 0.0922779 0
M  V30 31330 H 2852.94 -3.90219 1.69143 0
M  V30 31331 N 2851.25 -0.906798 -1.28899 0
M  V30 31332 C 2852.2 -0.388353 -2.27509 0
M  V30 31333 C 2853.17 0.533411 -1.57302 0
M  V30 31334 O 2854.36 0.457116 -1.85243 0
M  V30 31335 C 2851.5 0.371749 -3.43092 0
M  V30 31336 C 2850.61 -0.581723 -4.28065 0
M  V30 31337 C 2849.74 0.196136 -5.30838 0
M  V30 31338 C 2848.78 -0.751401 -6.0747 0
M  V30 31339 N 2847.92 -0.00750068 -7.021 0
M  V30 31340 H 2852.76 -1.23433 -2.71235 0
M  V30 31341 H 2850.3 -0.619986 -1.33396 0
M  V30 31342 H 2852.26 0.828569 -4.08889 0
M  V30 31343 H 2850.89 1.18212 -3.00376 0
M  V30 31344 H 2849.94 -1.15707 -3.62376 0
M  V30 31345 H 2851.25 -1.30673 -4.81379 0
M  V30 31346 H 2850.4 0.713834 -6.02486 0
M  V30 31347 H 2849.14 0.95424 -4.78274 0
M  V30 31348 H 2848.15 -1.28054 -5.3468 0
M  V30 31349 H 2849.37 -1.50895 -6.62124 0
M  V30 31350 H 2847.32 0.73274 -6.51895 0
M  V30 31351 H 2847.24 -0.672467 -7.53003 0
M  V30 31352 H 2848.5 0.490229 -7.77957 0
M  V30 31353 N 2852.73 1.42648 -0.670032 0
M  V30 31354 C 2853.98 2.01205 -0.189945 0
M  V30 31355 C 2854.3 1.53223 1.20614 0
M  V30 31356 O 2853.57 0.751888 1.80896 0
M  V30 31357 H 2852.15 0.743968 -0.067232 0
M  V30 31358 H 2854.81 1.7463 -0.865473 0
M  V30 31359 H 2853.91 3.11536 -0.187536 0
M  V30 31360 N 2854.21 0.413044 1.52091 0
M  V30 31361 C 2855.14 -0.401527 2.30022 0
M  V30 31362 C 2856.12 -1.04267 1.34397 0
M  V30 31363 O 2857.31 -1.05094 1.63306 0
M  V30 31364 C 2854.44 -1.51632 3.1245 0
M  V30 31365 C 2853.39 -0.999977 4.16154 0
M  V30 31366 C 2852.72 -2.20867 4.86952 0
M  V30 31367 C 2854.02 -0.0512839 5.22275 0
M  V30 31368 H 2855.71 0.248757 2.98365 0
M  V30 31369 H 2853.26 0.121077 1.4349 0
M  V30 31370 H 2855.21 -2.09319 3.65737 0
M  V30 31371 H 2853.93 -2.19454 2.41883 0
M  V30 31372 H 2852.59 -0.445485 3.63883 0
M  V30 31373 H 2852.24 -2.87252 4.1291 0
M  V30 31374 H 2851.94 -1.86968 5.57061 0
M  V30 31375 H 2853.47 -2.79153 5.43053 0
M  V30 31376 H 2854.88 -0.537076 5.70779 0
M  V30 31377 H 2853.28 0.199082 5.9977 0
M  V30 31378 H 2854.35 0.892819 4.7661 0
M  V30 31379 N 2855.69 -1.56945 0.143591 0
M  V30 31380 C 2856.64 -2.17872 -0.814517 0
M  V30 31381 C 2857.63 -1.13476 -1.25776 0
M  V30 31382 O 2858.84 -1.31733 -1.22664 0
M  V30 31383 H 2855.21 -0.697583 -0.28086 0
M  V30 31384 H 2857.18 -2.97117 -0.276407 0
M  V30 31385 C 2855.93 -2.81204 -2.04498 0
M  V30 31386 H 2855.26 -3.61248 -1.71289 0
M  V30 31387 H 2856.7 -3.27342 -2.69487 0
M  V30 31388 C 2855.15 -1.79537 -2.85076 0
M  V30 31389 O 2855.68 -1.26374 -3.81304 0
M  V30 31390 N 2853.89 -1.48918 -2.49543 0
M  V30 31391 H 2853.44 -1.92341 -1.71356 0
M  V30 31392 H 2853.4 -0.811401 -3.03749 0
M  V30 31393 N 2857.17 0.130197 -1.57061 0
M  V30 31394 C 2858.08 1.17931 -2.02804 0
M  V30 31395 C 2859.09 1.46011 -0.946404 0
M  V30 31396 O 2860.27 1.57349 -1.25711 0
M  V30 31397 C 2857.33 2.48878 -2.41372 0
M  V30 31398 C 2856.4 2.28295 -3.63565 0
M  V30 31399 C 2855.63 3.52998 -4.00285 0
M  V30 31400 O 2855.85 4.59858 -3.37471 0
M  V30 31401 O 2854.79 3.44664 -4.93447 0
M  V30 31402 H 2858.61 0.820906 -2.92395 0
M  V30 31403 H 2856.2 0.340171 -1.45476 0
M  V30 31404 H 2858.08 3.26049 -2.66964 0
M  V30 31405 H 2856.75 2.84215 -1.54931 0
M  V30 31406 H 2855.66 1.49019 -3.43139 0
M  V30 31407 H 2856.99 1.97867 -4.50677 0
M  V30 31408 N 2858.65 1.52438 0.400055 0
M  V30 31409 C 2859.56 1.79334 1.5125 0
M  V30 31410 C 2860.57 0.679425 1.60187 0
M  V30 31411 O 2861.75 0.965822 1.76731 0
M  V30 31412 C 2858.81 1.94657 2.86896 0
M  V30 31413 C 2857.87 3.18569 2.87772 0
M  V30 31414 C 2857.11 3.33152 4.16948 0
M  V30 31415 O 2857.33 2.52792 5.11324 0
M  V30 31416 O 2856.26 4.26351 4.24863 0
M  V30 31417 H 2860.09 2.73775 1.31456 0
M  V30 31418 H 2857.67 1.37393 0.58681 0
M  V30 31419 H 2859.56 2.06507 3.67332 0
M  V30 31420 H 2858.23 1.03405 3.06739 0
M  V30 31421 H 2857.14 3.1217 2.06157 0
M  V30 31422 H 2858.47 4.09631 2.72879 0
M  V30 31423 O 2860.16 -0.545965 1.51992 0
M  V30 31424 H 2860.85 -1.20111 1.51964 0
M  V30 END ATOM
M  V30 BEGIN BOND
M  V30 END BOND
M  V30 END CTAB
M  END
$$$$
