drugbank_target|P55408 Probable transcriptional repressor TraM (DB08081)
 OpenBabel12092120483D

  0  0  0     0  0            999 V3000
M  V30 BEGIN CTAB
M  V30 COUNTS 1665 1678 0 0 0
M  V30 BEGIN ATOM
M  V30 1 H -0.908 1.98254 -0.117106 0
M  V30 2 N 0 1.576 0 0
M  V30 3 C 0.933 2.03868 1.02534 0
M  V30 4 C 1.911 0.928543 1.3348 0
M  V30 5 O 3.095 1.19667 1.45644 0
M  V30 6 C 0.222 2.43627 2.35294 0
M  V30 7 C -0.732 3.65373 2.2001 0
M  V30 8 S 0.101 5.13292 1.52614 0
M  V30 9 C 1.257 5.56322 2.86805 0
M  V30 10 H 1.49 2.90518 0.631377 0
M  V30 11 H -0.977 1.52953 0.210867 0
M  V30 12 H 0.981 2.67203 3.11629 0
M  V30 13 H -0.358 1.57376 2.7183 0
M  V30 14 H -1.165 3.90944 3.18086 0
M  V30 15 H -1.563 3.418 1.51819 0
M  V30 16 H 0.729 5.58782 3.83104 0
M  V30 17 H 1.672 6.56266 2.65933 0
M  V30 18 H 2.08 4.83886 2.90714 0
M  V30 19 N 1.4781 -0.272755 1.55222 0
M  V30 20 C 2.4261 -1.35705 1.88909 0
M  V30 21 C 3.4201 -1.5112 0.765456 0
M  V30 22 O 4.6261 -1.52901 0.949802 0
M  V30 23 H 1.0011 -0.453868 0.59959 0
M  V30 24 H 2.9721 -1.04544 2.79487 0
M  V30 25 C 1.7211 -2.71049 2.17779 0
M  V30 26 H 1.0441 -2.59979 3.03728 0
M  V30 27 H 2.4841 -3.45858 2.45272 0
M  V30 28 C 0.9431 -3.22165 0.985473 0
M  V30 29 O 1.4731 -4.01096 0.220233 0
M  V30 30 N -0.3209 -2.7985 0.783108 0
M  V30 31 H -0.7739 -2.15775 1.40708 0
M  V30 32 H -0.8159 -3.14397 -0.0130392 0
M  V30 33 N 2.9562 -1.48159 -0.537278 0
M  V30 34 C 4.2332 -1.46291 -1.29839 0
M  V30 35 C 4.6132 -0.170613 -2.10409 0
M  V30 36 O 3.9612 0.847746 -2.12192 0
M  V30 37 C 4.1712 -2.72055 -2.18603 0
M  V30 38 C 5.5192 -3.20087 -2.7898 0
M  V30 39 O 6.5432 -2.72921 -2.28894 0
M  V30 40 O 5.4022 -4.02138 -3.70064 0
M  V30 41 H 2.4962 -0.583906 -0.585647 0
M  V30 42 H 5.0422 -1.60384 -0.554534 0
M  V30 43 H 3.8142 -3.57628 -1.58801 0
M  V30 44 H 3.4372 -2.60646 -3.00249 0
M  V30 45 N 4.4343 0.785586 -1.36625 0
M  V30 46 C 5.3673 1.90509 -1.25625 0
M  V30 47 C 6.3453 1.62 -0.139607 0
M  V30 48 O 7.5293 1.8591 -0.31141 0
M  V30 49 C 4.6563 3.25419 -0.939158 0
M  V30 50 C 3.7023 3.72856 -2.07077 0
M  V30 51 S 4.5353 3.88162 -3.68904 0
M  V30 52 C 5.6913 5.25942 -3.39317 0
M  V30 53 H 5.9243 1.99549 -2.20381 0
M  V30 54 H 3.4573 0.945226 -1.22085 0
M  V30 55 H 5.4153 4.03346 -0.763029 0
M  V30 56 H 4.0763 3.14099 -0.00931402 0
M  V30 57 H 3.2693 4.70624 -1.80357 0
M  V30 58 H 2.8713 3.01989 -2.20632 0
M  V30 59 H 5.1633 6.10651 -2.93447 0
M  V30 60 H 6.1063 5.57668 -4.36363 0
M  V30 61 H 6.5143 4.93224 -2.74573 0
M  V30 62 N 5.9124 1.20967 1.01018 0
M  V30 63 C 7.1604 1.02172 1.74371 0
M  V30 64 C 7.4814 -0.446414 1.89821 0
M  V30 65 O 6.7514 -1.32234 1.44537 0
M  V30 66 H 5.3314 0.375066 0.646014 0
M  V30 67 H 7.9934 1.52187 1.21758 0
M  V30 68 H 7.0894 1.48538 2.74487 0
M  V30 69 N 7.3905 -1.2043 1.01659 0
M  V30 70 C 8.6155 -1.94318 0.724942 0
M  V30 71 C 9.0405 -1.74266 -0.708034 0
M  V30 72 O 8.3985 -1.03694 -1.48719 0
M  V30 73 C 8.4465 -3.44486 1.06591 0
M  V30 74 O 7.5505 -4.12017 0.177599 0
M  V30 75 H 6.8915 -0.60708 0.26898 0
M  V30 76 H 9.4215 -1.52861 1.35995 0
M  V30 77 H 9.4315 -3.95106 1.01762 0
M  V30 78 H 8.1065 -3.58404 2.10997 0
M  V30 79 H 6.6835 -3.71821 0.283421 0
M  V30 80 N 8.8686 -0.792821 -1.36206 0
M  V30 81 C 10.0936 -0.377701 -2.03932 0
M  V30 82 C 10.5186 0.998947 -1.59382 0
M  V30 83 O 9.8766 1.64421 -0.763903 0
M  V30 84 C 9.9246 -0.453635 -3.57735 0
M  V30 85 O 9.0286 0.538151 -4.08874 0
M  V30 86 H 8.3696 -0.159855 -0.644471 0
M  V30 87 H 10.8996 -1.07488 -1.7409 0
M  V30 88 H 10.9096 -0.318464 -4.06755 0
M  V30 89 H 9.5846 -1.45784 -3.89512 0
M  V30 90 H 8.1616 0.364359 -3.71116 0
M  V30 91 N 10.3467 1.47872 -0.545128 0
M  V30 92 C 11.2567 2.33633 0.212746 0
M  V30 93 C 12.2727 1.4744 0.923983 0
M  V30 94 O 13.4487 1.80393 0.895572 0
M  V30 95 C 10.5137 3.23884 1.23693 0
M  V30 96 C 9.5747 4.25961 0.534417 0
M  V30 97 C 8.8077 5.11899 1.5098 0
M  V30 98 O 9.0307 5.00077 2.7437 0
M  V30 99 O 7.9647 5.92831 1.0409 0
M  V30 100 H 11.7907 2.99714 -0.490416 0
M  V30 101 H 9.3757 1.46235 -0.305871 0
M  V30 102 H 11.2577 3.79666 1.82843 0
M  V30 103 H 9.9327 2.60446 1.92222 0
M  V30 104 H 8.8397 3.73972 -0.0979679 0
M  V30 105 H 10.1727 4.92079 -0.109213 0
M  V30 106 N 11.8248 0.280983 1.55075 0
M  V30 107 C 13.0708 -0.33461 2.00021 0
M  V30 108 C 13.4038 -1.55063 1.16915 0
M  V30 109 O 12.6788 -1.93006 0.240646 0
M  V30 110 C 12.9618 -0.711007 3.53011 0
M  V30 111 C 12.8148 0.512766 4.46868 0
M  V30 112 C 14.1338 -1.54522 4.12081 0
M  V30 113 H 11.2528 -0.120147 0.727141 0
M  V30 114 H 13.8948 0.389097 1.85973 0
M  V30 115 H 12.0448 -1.32761 3.65112 0
M  V30 116 H 13.7168 1.15131 4.46702 0
M  V30 117 H 11.9598 1.14975 4.18286 0
M  V30 118 H 12.6308 0.205556 5.51617 0
M  V30 119 H 15.1068 -1.02442 4.03293 0
M  V30 120 H 13.9828 -1.77739 5.19327 0
M  V30 121 H 14.2438 -2.52813 3.62682 0
M  V30 122 N 13.3029 -1.57598 0.00835791 0
M  V30 123 C 14.2509 -2.10078 -0.998508 0
M  V30 124 C 15.2449 -1.02262 -1.35051 0
M  V30 125 O 16.4509 -1.20719 -1.33518 0
M  V30 126 H 12.8259 -0.670903 -0.339696 0
M  V30 127 H 14.7969 -2.93648 -0.530398 0
M  V30 128 C 13.5459 -2.62615 -2.27879 0
M  V30 129 H 12.8689 -3.45213 -2.01662 0
M  V30 130 H 14.3089 -3.03004 -2.96588 0
M  V30 131 C 12.7679 -1.54407 -2.99433 0
M  V30 132 O 13.2979 -0.931812 -3.90743 0
M  V30 133 N 11.5039 -1.2695 -2.61404 0
M  V30 134 H 11.0509 -1.76924 -1.87232 0
M  V30 135 H 11.0089 -0.547704 -3.09593 0
M  V30 136 N 14.781 0.264519 -1.55364 0
M  V30 137 C 16.058 1.01677 -1.67096 0
M  V30 138 C 16.438 2.03996 -0.543015 0
M  V30 139 O 15.786 2.23907 0.45585 0
M  V30 140 C 15.996 1.66596 -3.0667 0
M  V30 141 C 17.344 2.17442 -3.64697 0
M  V30 142 O 18.368 1.76568 -3.09358 0
M  V30 143 O 17.227 2.92439 -4.61673 0
M  V30 144 H 14.321 0.472161 -0.678965 0
M  V30 145 H 16.867 0.259703 -1.67701 0
M  V30 146 H 15.639 0.924962 -3.80211 0
M  V30 147 H 15.262 2.48968 -3.10001 0
M  V30 148 N 16.2591 1.48442 0.529413 0
M  V30 149 C 17.1691 1.6569 1.66084 0
M  V30 150 C 18.1851 0.539432 1.65427 0
M  V30 151 O 19.3611 0.810572 1.84368 0
M  V30 152 C 16.4261 1.69315 3.02545 0
M  V30 153 C 15.4871 2.92694 3.14052 0
M  V30 154 C 14.7201 2.96137 4.44003 0
M  V30 155 O 14.9431 2.07973 5.31134 0
M  V30 156 O 13.8771 3.88312 4.59888 0
M  V30 157 H 17.7031 2.61483 1.54469 0
M  V30 158 H 15.2881 1.3185 0.702567 0
M  V30 159 H 17.1701 1.74217 3.83701 0
M  V30 160 H 15.8451 0.766966 3.14483 0
M  V30 161 H 14.7521 2.93324 2.32189 0
M  V30 162 H 16.0851 3.84699 3.0703 0
M  V30 163 N 17.7372 -0.778329 1.37039 0
M  V30 164 C 18.6852 -1.91278 1.32345 0
M  V30 165 C 19.6792 -1.68051 0.213331 0
M  V30 166 O 20.8852 -1.75922 0.38098 0
M  V30 167 H 17.2602 -0.628909 0.412283 0
M  V30 168 H 19.2312 -1.92355 2.28127 0
M  V30 169 C 17.9802 -3.28455 1.14073 0
M  V30 170 H 17.3032 -3.46901 1.98746 0
M  V30 171 H 18.7432 -4.08152 1.14837 0
M  V30 172 C 17.2022 -3.36548 -0.154015 0
M  V30 173 O 17.7322 -3.85186 -1.13993 0
M  V30 174 N 15.9382 -2.89894 -0.202475 0
M  V30 175 H 15.4852 -2.50504 0.600476 0
M  V30 176 H 15.4432 -2.9569 -1.06841 0
M  V30 177 N 19.2153 -1.21501 -1.00376 0
M  V30 178 C 20.1623 -0.975387 -2.09177 0
M  V30 179 C 21.1323 0.0990615 -1.65804 0
M  V30 180 O 22.3173 -0.0483147 -1.90739 0
M  V30 181 C 19.4573 -0.547507 -3.40729 0
M  V30 182 C 18.5703 -1.69153 -3.97506 0
M  V30 183 C 17.7053 -1.2127 -5.17172 0
M  V30 184 C 16.7443 -2.32897 -5.66061 0
M  V30 185 N 15.8813 -1.86138 -6.76976 0
M  V30 186 H 20.7213 -1.9068 -2.29009 0
M  V30 187 H 18.2583 -0.950257 -1.12288 0
M  V30 188 H 20.2163 -0.280667 -4.16255 0
M  V30 189 H 18.8463 0.346904 -3.20931 0
M  V30 190 H 17.8983 -2.07298 -3.18954 0
M  V30 191 H 19.2103 -2.5316 -4.29781 0
M  V30 192 H 18.3643 -0.902591 -5.99948 0
M  V30 193 H 17.1033 -0.342692 -4.86495 0
M  V30 194 H 16.1083 -2.64709 -4.81881 0
M  V30 195 H 17.3333 -3.20396 -5.98768 0
M  V30 196 H 15.2793 -1.01484 -6.48103 0
M  V30 197 H 15.1963 -2.63717 -7.08512 0
M  V30 198 H 16.4643 -1.58165 -7.63285 0
M  V30 199 N 20.6934 1.19889 -1.02296 0
M  V30 200 C 21.6034 2.26571 -0.608508 0
M  V30 201 C 22.6194 1.70299 0.356964 0
M  V30 202 O 23.7954 2.00235 0.216326 0
M  V30 203 C 20.8604 3.46677 0.0402814 0
M  V30 204 C 19.9214 4.18153 -0.97194 0
M  V30 205 C 19.1544 5.32525 -0.354016 0
M  V30 206 O 19.3774 5.64112 0.844604 0
M  V30 207 O 18.3114 5.92242 -1.07391 0
M  V30 208 H 22.1374 2.64251 -1.49684 0
M  V30 209 H 19.7224 1.26629 -0.792809 0
M  V30 210 H 21.6044 4.19475 0.402324 0
M  V30 211 H 20.2794 3.10858 0.902707 0
M  V30 212 H 19.1864 3.47499 -1.38546 0
M  V30 213 H 20.5194 4.57927 -1.80454 0
M  V30 214 N 22.1715 0.800033 1.35784 0
M  V30 215 C 23.1185 0.203848 2.29898 0
M  V30 216 C 24.0885 -0.658375 1.52495 0
M  V30 217 O 25.2735 -0.604832 1.8096 0
M  V30 218 C 22.4135 -0.64688 3.38983 0
M  V30 219 C 21.5265 0.235054 4.3136 0
M  V30 220 C 20.6615 -0.623054 5.27533 0
M  V30 221 C 19.7005 0.259682 6.11549 0
M  V30 222 N 18.8375 -0.558019 6.99879 0
M  V30 223 H 23.6775 1.01186 2.80295 0
M  V30 224 H 21.2145 0.51053 1.37957 0
M  V30 225 H 23.1725 -1.15521 4.00887 0
M  V30 226 H 21.8025 -1.42021 2.89879 0
M  V30 227 H 20.8545 0.861438 3.70518 0
M  V30 228 H 22.1665 0.914768 4.9034 0
M  V30 229 H 21.3205 -1.19678 5.94779 0
M  V30 230 H 20.0595 -1.33636 4.69034 0
M  V30 231 H 19.0645 0.845726 5.43256 0
M  V30 232 H 20.2895 0.970748 6.72126 0
M  V30 233 H 18.2355 -1.25542 6.43875 0
M  V30 234 H 18.1525 0.0637872 7.55973 0
M  V30 235 H 19.4205 -1.11523 7.71481 0
M  V30 236 N 23.6496 -1.47581 0.552962 0
M  V30 237 C 24.5596 -2.33743 -0.200353 0
M  V30 238 C 25.5756 -1.47928 -0.916151 0
M  V30 239 O 26.7516 -1.80865 -0.885993 0
M  V30 240 C 23.8166 -3.24536 -1.21973 0
M  V30 241 C 22.8776 -4.26238 -0.511819 0
M  V30 242 C 22.1106 -5.12693 -1.48263 0
M  V30 243 O 22.3336 -5.01525 -2.71714 0
M  V30 244 O 21.2676 -5.93375 -1.00945 0
M  V30 245 H 25.0936 -2.9945 0.506304 0
M  V30 246 H 22.6786 -1.46071 0.313622 0
M  V30 247 H 24.5606 -3.80631 -1.80827 0
M  V30 248 H 23.2356 -2.61462 -1.90839 0
M  V30 249 H 22.1426 -3.73914 0.117799 0
M  V30 250 H 23.4756 -4.92014 0.135308 0
M  V30 251 N 25.1277 -0.289203 -1.54924 0
M  V30 252 C 26.0907 0.579144 -2.21762 0
M  V30 253 C 27.0907 1.07047 -1.1999 0
M  V30 254 O 28.2807 0.968384 -1.44803 0
M  V30 255 C 25.4127 1.80055 -2.8947 0
M  V30 256 H 26.6057 -0.00464908 -2.999 0
M  V30 257 H 24.1587 -0.0399306 -1.56249 0
M  V30 258 H 24.8937 2.42449 -2.15381 0
M  V30 259 H 24.6787 1.45602 -3.64064 0
M  V30 260 H 26.1687 2.41773 -3.40493 0
M  V30 261 N 26.6058 1.57591 -0.0167156 0
M  V30 262 C 28.0218 1.55946 0.339557 0
M  V30 263 C 28.2218 1.02109 1.73713 0
M  V30 264 O 27.2778 0.662303 2.43659 0
M  V30 265 C 28.5908 3.00037 0.199499 0
M  V30 266 C 30.1388 3.11805 0.273193 0
M  V30 267 C 30.6138 4.57713 0.162068 0
M  V30 268 N 32.1048 4.6268 0.219444 0
M  V30 269 C 32.8398 5.73185 0.157054 0
M  V30 270 N 32.3358 6.92786 0.0442936 0
M  V30 271 N 34.1288 5.61707 0.21014 0
M  V30 272 H 26.2798 1.90921 -0.930758 0
M  V30 273 H 28.5428 0.877674 -0.358319 0
M  V30 274 H 28.2488 3.4333 -0.76273 0
M  V30 275 H 28.1228 3.64387 0.974786 0
M  V30 276 H 30.5098 2.68433 1.22587 0
M  V30 277 H 30.5908 2.50201 -0.532256 0
M  V30 278 H 30.2348 5.01763 -0.78714 0
M  V30 279 H 30.1648 5.17283 0.986222 0
M  V30 280 H 32.6558 3.76649 0.307246 0
M  V30 281 H 32.9688 7.728 0.00304069 0
M  V30 282 H 31.3138 6.94999 0.00968457 0
M  V30 283 H 34.5048 4.6716 0.296546 0
M  V30 284 H 34.6778 6.47807 0.158054 0
M  V30 285 N 28.0839 -0.256276 1.55502 0
M  V30 286 C 29.3139 -1.00196 1.80677 0
M  V30 287 C 29.7219 -1.79805 0.588797 0
M  V30 288 O 29.0649 -1.78055 -0.451883 0
M  V30 289 C 29.1269 -1.99515 2.99055 0
M  V30 290 C 28.7909 -1.38688 4.35448 0
M  V30 291 C 29.7879 -0.794079 5.138 0
M  V30 292 C 27.4729 -1.40906 4.82132 0
M  V30 293 C 29.4669 -0.231562 6.36979 0
M  V30 294 C 27.1539 -0.842684 6.05262 0
M  V30 295 C 28.1519 -0.254953 6.82524 0
M  V30 296 O 27.8399 0.3027 8.0333 0
M  V30 297 H 27.5719 -0.300919 0.60533 0
M  V30 298 H 30.1259 -0.287307 2.03381 0
M  V30 299 H 28.3559 -2.74785 2.72084 0
M  V30 300 H 30.0449 -2.60349 3.11405 0
M  V30 301 H 30.8109 -0.769519 4.78856 0
M  V30 302 H 26.6899 -1.85591 4.21992 0
M  V30 303 H 30.2339 0.227816 6.97228 0
M  V30 304 H 26.1309 -0.86454 6.39684 0
M  V30 305 H 26.8989 0.193662 8.18271 0
M  V30 306 N 29.562 -1.4872 -0.521534 0
M  V30 307 C 30.787 -1.61101 -1.30618 0
M  V30 308 C 31.212 -0.274611 -1.86085 0
M  V30 309 O 30.57 0.754937 -1.64834 0
M  V30 310 C 30.618 -2.66709 -2.4269 0
M  V30 311 O 29.722 -2.24456 -3.45967 0
M  V30 312 H 29.063 -0.539921 -0.386499 0
M  V30 313 H 31.593 -1.94767 -0.626645 0
M  V30 314 H 31.603 -2.88245 -2.88754 0
M  V30 315 H 30.278 -3.63727 -2.01682 0
M  V30 316 H 28.855 -2.13168 -3.05964 0
M  V30 317 N 31.0401 0.771051 -1.3745 0
M  V30 318 C 32.2861 1.5319 -1.32894 0
M  V30 319 C 32.6191 1.94008 0.0862511 0
M  V30 320 O 31.8941 1.64124 1.04373 0
M  V30 321 C 32.1771 2.79648 -2.26868 0
M  V30 322 C 32.0301 2.45079 -3.77169 0
M  V30 323 C 33.3491 3.81583 -2.19277 0
M  V30 324 H 30.4681 0.555744 -0.484064 0
M  V30 325 H 33.1101 0.884492 -1.68157 0
M  V30 326 H 31.2601 3.34891 -1.96926 0
M  V30 327 H 32.9321 1.95745 -4.1771 0
M  V30 328 H 31.1751 1.77767 -3.95704 0
M  V30 329 H 31.8461 3.35478 -4.38359 0
M  V30 330 H 34.3221 3.35835 -2.45671 0
M  V30 331 H 33.1981 4.67787 -2.87171 0
M  V30 332 H 33.4591 4.25897 -1.18592 0
M  V30 333 N 32.5182 1.22032 0.997298 0
M  V30 334 C 33.4512 0.929735 2.08401 0
M  V30 335 C 34.4292 -0.125681 1.62114 0
M  V30 336 O 35.6132 0.00495409 1.88499 0
M  V30 337 C 32.7402 0.397488 3.3636 0
M  V30 338 C 31.7862 1.4369 4.01566 0
M  V30 339 S 32.6192 3.00874 4.42984 0
M  V30 340 C 33.7752 2.49276 5.74119 0
M  V30 341 H 34.0082 1.84998 2.32729 0
M  V30 342 H 31.5412 1.0509 1.13117 0
M  V30 343 H 33.4992 0.0969846 4.10385 0
M  V30 344 H 32.1602 -0.501571 3.10069 0
M  V30 345 H 31.3532 1.01427 4.93689 0
M  V30 346 H 30.9552 1.68588 3.33847 0
M  V30 347 H 33.2472 1.90242 6.50242 0
M  V30 348 H 34.1902 3.39872 6.21203 0
M  V30 349 H 34.5982 1.90714 5.31308 0
M  V30 350 N 33.9963 -1.19345 1.0293 0
M  V30 351 C 35.2243 -1.92997 0.745644 0
M  V30 352 C 35.6393 -1.75519 -0.695589 0
M  V30 353 O 34.9963 -1.07737 -1.47306 0
M  V30 354 C 35.0473 -3.44741 1.08792 0
M  V30 355 O 34.7683 -3.61658 2.47256 0
M  V30 356 C 36.2693 -4.35515 0.827129 0
M  V30 357 H 33.4893 -0.613042 0.272801 0
M  V30 358 H 36.0333 -1.51473 1.3739 0
M  V30 359 H 34.1883 -3.84097 0.504832 0
M  V30 360 H 34.6023 -4.55514 2.60015 0
M  V30 361 H 36.0763 -5.40589 1.11658 0
M  V30 362 H 36.5533 -4.38552 -0.238436 0
M  V30 363 H 37.1593 -4.01841 1.39297 0
M  V30 364 N 35.4744 -0.807222 -1.35358 0
M  V30 365 C 36.4214 -0.216037 -2.29787 0
M  V30 366 C 37.3914 0.650278 -1.52842 0
M  V30 367 O 38.5764 0.595227 -1.81278 0
M  V30 368 C 35.7164 0.628893 -3.39321 0
M  V30 369 C 34.8294 -0.257927 -4.31229 0
M  V30 370 C 33.9644 0.595069 -5.27856 0
M  V30 371 C 33.0034 -0.292111 -6.11403 0
M  V30 372 N 32.1404 0.520895 -7.00165 0
M  V30 373 H 36.9804 -1.02671 -2.79755 0
M  V30 374 H 34.5174 -0.517839 -1.37684 0
M  V30 375 H 36.4754 1.13393 -4.01494 0
M  V30 376 H 35.1054 1.40482 -2.90628 0
M  V30 377 H 34.1574 -0.881076 -3.70056 0
M  V30 378 H 35.4694 -0.940759 -4.89848 0
M  V30 379 H 34.6234 1.16522 -5.95405 0
M  V30 380 H 33.3624 1.31146 -4.69736 0
M  V30 381 H 32.3674 -0.874525 -5.428 0
M  V30 382 H 33.5924 -1.00638 -6.71602 0
M  V30 383 H 31.5384 1.22125 -6.44532 0
M  V30 384 H 31.4554 -0.103877 -7.55929 0
M  V30 385 H 32.7234 1.0743 -7.72062 0
M  V30 386 N 36.9525 1.47285 -0.560781 0
M  V30 387 C 38.1775 2.07359 -0.0410566 0
M  V30 388 C 38.6025 1.41017 1.24483 0
M  V30 389 O 37.9605 0.486368 1.74654 0
M  V30 390 C 38.0085 3.6035 0.134123 0
M  V30 391 O 37.1125 3.94681 1.19587 0
M  V30 392 H 36.4535 0.661887 -0.0529291 0
M  V30 393 H 38.9835 1.89252 -0.777482 0
M  V30 394 H 38.9935 4.0652 0.347207 0
M  V30 395 H 37.6685 4.08034 -0.805047 0
M  V30 396 H 36.2455 3.60251 0.962987 0
M  V30 397 N 38.4306 0.297415 1.54768 0
M  V30 398 C 39.3406 -0.58983 2.27064 0
M  V30 399 C 40.3566 -1.15144 1.30453 0
M  V30 400 O 41.5326 -1.17699 1.63428 0
M  V30 401 C 38.5976 -1.74714 2.9946 0
M  V30 402 C 37.6586 -1.21997 4.11601 0
M  V30 403 C 36.8916 -2.32212 4.80535 0
M  V30 404 O 37.1146 -3.52036 4.48806 0
M  V30 405 O 36.0486 -1.99106 5.68014 0
M  V30 406 H 39.8746 -0.00348199 3.037 0
M  V30 407 H 37.4596 0.0640035 1.49263 0
M  V30 408 H 39.3416 -2.42147 3.44881 0
M  V30 409 H 38.0166 -2.32016 2.25722 0
M  V30 410 H 36.9236 -0.511458 3.70587 0
M  V30 411 H 38.2566 -0.692419 4.87305 0
M  V30 412 N 39.9087 -1.5758 0.0250728 0
M  V30 413 C 40.8387 -2.13007 -0.956575 0
M  V30 414 C 41.8197 -1.0452 -1.342 0
M  V30 415 O 43.0047 -1.32332 -1.42133 0
M  V30 416 C 40.1347 -2.65386 -2.24026 0
M  V30 417 C 39.0887 -3.78623 -1.99571 0
M  V30 418 C 38.4147 -4.17414 -3.3417 0
M  V30 419 C 39.7147 -5.04867 -1.33814 0
M  V30 420 H 41.4087 -2.9528 -0.494991 0
M  V30 421 H 38.9547 -1.42042 -0.236651 0
M  V30 422 H 40.9077 -3.02794 -2.93076 0
M  V30 423 H 39.6317 -1.80268 -2.72343 0
M  V30 424 H 38.2907 -3.41646 -1.32941 0
M  V30 425 H 37.9387 -3.29284 -3.80238 0
M  V30 426 H 37.6387 -4.93719 -3.18615 0
M  V30 427 H 39.1627 -4.57402 -4.04495 0
M  V30 428 H 40.5767 -5.39888 -1.92857 0
M  V30 429 H 38.9737 -5.86144 -1.28669 0
M  V30 430 H 40.0437 -4.83904 -0.310561 0
M  V30 431 N 41.3868 0.248026 -1.55636 0
M  V30 432 C 42.2968 1.32859 -1.93354 0
M  V30 433 C 43.3128 1.52719 -0.833838 0
M  V30 434 O 44.4888 1.66363 -1.13513 0
M  V30 435 C 41.5538 2.66337 -2.21958 0
M  V30 436 C 40.6148 2.55008 -3.45354 0
M  V30 437 C 39.8478 3.82121 -3.72584 0
M  V30 438 O 40.0708 4.83951 -3.01907 0
M  V30 439 O 39.0048 3.80822 -4.6611 0
M  V30 440 H 42.8308 1.03862 -2.85388 0
M  V30 441 H 40.4158 0.448686 -1.42503 0
M  V30 442 H 42.2978 3.45216 -2.4167 0
M  V30 443 H 40.9728 2.95068 -1.33103 0
M  V30 444 H 39.8798 1.7442 -3.30951 0
M  V30 445 H 41.2128 2.31222 -4.34508 0
M  V30 446 N 42.8649 1.48995 0.513639 0
M  V30 447 C 43.8279 1.64229 1.59879 0
M  V30 448 C 44.8279 0.514696 1.5234 0
M  V30 449 O 46.0179 0.78087 1.55718 0
M  V30 450 C 43.1499 1.62783 2.99524 0
M  V30 451 H 44.3429 2.61004 1.47705 0
M  V30 452 H 41.8959 1.37837 0.736936 0
M  V30 453 H 42.6309 0.675461 3.17188 0
M  V30 454 H 42.4159 2.4466 3.06404 0
M  V30 455 H 43.9059 1.76669 3.78388 0
M  V30 456 N 44.343 -0.763751 1.37857 0
M  V30 457 C 45.273 -1.89103 1.36975 0
M  V30 458 C 46.254 -1.68439 0.237152 0
M  V30 459 O 47.439 -1.8918 0.438713 0
M  V30 460 C 44.569 -3.26496 1.18395 0
M  V30 461 C 43.523 -3.61741 2.28751 0
M  V30 462 C 42.849 -4.97762 1.95286 0
M  V30 463 C 44.149 -3.67665 3.70972 0
M  V30 464 H 45.843 -1.90099 2.31307 0
M  V30 465 H 43.389 -0.91319 1.11341 0
M  V30 466 H 45.342 -4.05003 1.16406 0
M  V30 467 H 44.066 -3.25955 0.205215 0
M  V30 468 H 42.725 -2.85547 2.29909 0
M  V30 469 H 42.373 -4.93769 0.959221 0
M  V30 470 H 42.073 -5.22313 2.69189 0
M  V30 471 H 43.597 -5.7866 1.94898 0
M  V30 472 H 45.011 -4.36307 3.719 0
M  V30 473 H 43.408 -4.03718 4.43995 0
M  V30 474 H 44.478 -2.68134 4.0402 0
M  V30 475 N 45.8211 -1.22559 -0.990812 0
M  V30 476 C 46.7841 -0.998863 -2.0629 0
M  V30 477 C 47.7841 0.0354834 -1.60761 0
M  V30 478 O 48.9741 -0.203231 -1.7301 0
M  V30 479 C 46.1061 -0.509203 -3.37076 0
M  V30 480 H 47.2991 -1.95014 -2.27837 0
M  V30 481 H 44.8521 -1.04456 -1.16269 0
M  V30 482 H 45.5871 0.446335 -3.21214 0
M  V30 483 H 45.3721 -1.25547 -3.71457 0
M  V30 484 H 46.8621 -0.370888 -4.1595 0
M  V30 485 N 47.2992 1.18797 -1.03562 0
M  V30 486 C 48.5452 1.8893 -0.737113 0
M  V30 487 C 48.8782 1.79837 0.732956 0
M  V30 488 O 48.1532 1.19525 1.5344 0
M  V30 489 C 48.4362 3.39607 -1.19745 0
M  V30 490 C 48.2892 3.57537 -2.72924 0
M  V30 491 C 49.6082 4.33069 -0.783526 0
M  V30 492 H 46.7272 0.686057 -0.269249 0
M  V30 493 H 49.3692 1.39797 -1.28673 0
M  V30 494 H 47.5192 3.81583 -0.729855 0
M  V30 495 H 49.1912 3.24688 -3.27682 0
M  V30 496 H 47.4342 3.00363 -3.12993 0
M  V30 497 H 48.1052 4.63238 -3.00191 0
M  V30 498 H 50.5812 3.98846 -1.18581 0
M  V30 499 H 49.4572 5.3707 -1.13343 0
M  V30 500 H 49.7182 4.40986 0.313681 0
M  V30 501 N 48.7773 0.814389 1.34928 0
M  V30 502 C 50.0023 0.410097 2.03305 0
M  V30 503 C 50.4273 -0.973464 1.60951 0
M  V30 504 O 49.7853 -1.63185 0.789964 0
M  V30 505 C 49.8333 0.51049 3.56968 0
M  V30 506 O 48.9373 -0.473035 4.09678 0
M  V30 507 H 48.2783 0.170088 0.641846 0
M  V30 508 H 50.8083 1.10244 1.72358 0
M  V30 509 H 50.8183 0.383135 4.06197 0
M  V30 510 H 49.4933 1.51963 3.87144 0
M  V30 511 H 48.0703 -0.305272 3.71648 0
M  V30 512 N 50.2554 -1.46986 0.568584 0
M  V30 513 C 51.2184 -2.28624 -0.162366 0
M  V30 514 C 52.2184 -1.37596 -0.832103 0
M  V30 515 O 53.4084 -1.60115 -0.68622 0
M  V30 516 C 50.5404 -3.17596 -1.23878 0
M  V30 517 H 51.7334 -2.94722 0.554899 0
M  V30 518 H 49.2864 -1.52863 0.325976 0
M  V30 519 H 50.0214 -2.56214 -1.98808 0
M  V30 520 H 49.8064 -3.846 -0.763219 0
M  V30 521 H 51.2964 -3.79078 -1.75185 0
M  V30 522 N 51.7335 -0.305618 -1.54608 0
M  V30 523 C 52.9825 0.303098 -1.9941 0
M  V30 524 C 53.2955 1.54648 -1.19764 0
M  V30 525 O 54.5015 2.23007 -1.54855 0
M  V30 526 C 52.9575 0.590588 -3.55021 0
M  V30 527 C 52.5655 -0.634719 -4.43481 0
M  V30 528 C 54.3095 1.16025 -4.08336 0
M  V30 529 C 52.2165 -0.320126 -5.90533 0
M  V30 530 H 51.1465 0.117031 -0.744862 0
M  V30 531 H 53.7975 -0.415045 -1.78745 0
M  V30 532 H 52.1795 1.36845 -3.71604 0
M  V30 533 H 53.3535 -1.41079 -4.38672 0
M  V30 534 H 51.6685 -1.12333 -4.00962 0
M  V30 535 H 54.2655 1.40994 -5.15776 0
M  V30 536 H 54.6085 2.10397 -3.5922 0
M  V30 537 H 55.1415 0.443985 -3.95315 0
M  V30 538 H 51.8805 -1.23254 -6.43808 0
M  V30 539 H 51.4005 0.418579 -5.98338 0
M  V30 540 H 53.0795 0.0766241 -6.46955 0
M  V30 541 N 53.2116 1.57565 -0.0334293 0
M  V30 542 C 54.6276 1.56297 0.322997 0
M  V30 543 C 54.8276 1.03945 1.7262 0
M  V30 544 O 53.8836 0.688109 2.42943 0
M  V30 545 C 55.1966 3.00232 0.167664 0
M  V30 546 C 56.7446 3.12078 0.240107 0
M  V30 547 C 57.2196 4.57859 0.113513 0
M  V30 548 N 58.7106 4.62887 0.170359 0
M  V30 549 C 59.4456 5.73319 0.0962517 0
M  V30 550 N 58.9416 6.92794 -0.0291881 0
M  V30 551 N 60.7346 5.61898 0.150551 0
M  V30 552 H 52.8856 1.89923 -0.950956 0
M  V30 553 H 55.1486 0.873824 -0.367608 0
M  V30 554 H 54.8546 3.42501 -0.799102 0
M  V30 555 H 54.7286 3.654 0.936083 0
M  V30 556 H 57.1156 2.69718 1.19733 0
M  V30 557 H 57.1966 2.49623 -0.558763 0
M  V30 558 H 56.8406 5.009 -0.840314 0
M  V30 559 H 56.7706 5.18299 0.931302 0
M  V30 560 H 59.2616 3.76954 0.26728 0
M  V30 561 H 59.5746 7.7276 -0.0789252 0
M  V30 562 H 57.9196 6.94971 -0.0640299 0
M  V30 563 H 61.1106 4.67448 0.246981 0
M  V30 564 H 61.2836 6.47938 0.0893365 0
M  V30 565 N 54.6897 -0.239769 1.55765 0
M  V30 566 C 55.5997 -1.31831 1.94056 0
M  V30 567 C 56.6157 -1.52275 0.841925 0
M  V30 568 O 57.7917 -1.65759 1.14394 0
M  V30 569 C 54.8567 -2.65156 2.23368 0
M  V30 570 C 53.9177 -2.53173 3.46701 0
M  V30 571 C 53.1507 -3.8014 3.74606 0
M  V30 572 O 53.3737 -4.82343 3.04469 0
M  V30 573 O 52.3077 -3.78344 4.68123 0
M  V30 574 H 56.1337 -1.02347 2.85935 0
M  V30 575 H 53.7187 -0.441123 1.42739 0
M  V30 576 H 55.6007 -3.43929 2.43497 0
M  V30 577 H 54.2757 -2.94358 1.34666 0
M  V30 578 H 53.1827 -1.72662 3.31871 0
M  V30 579 H 54.5157 -2.28915 4.35728 0
M  V30 580 N 56.1678 -1.49265 -0.50573 0
M  V30 581 C 57.1178 -1.6198 -1.60457 0
M  V30 582 C 58.1018 -0.47568 -1.53708 0
M  V30 583 O 59.2938 -0.728392 -1.61318 0
M  V30 584 C 56.4228 -1.68526 -2.99089 0
M  V30 585 C 55.5088 -2.885 -3.10852 0
M  V30 586 N 55.8998 -4.12635 -2.92517 0
M  V30 587 C 54.1978 -2.86338 -3.41945 0
M  V30 588 C 54.8988 -4.93258 -3.08337 0
M  V30 589 N 53.8748 -4.26533 -3.37003 0
M  V30 590 H 57.6768 -2.55681 -1.44928 0
M  V30 591 H 55.1908 -1.45972 -0.711752 0
M  V30 592 H 57.1878 -1.75732 -3.78053 0
M  V30 593 H 55.8478 -0.759584 -3.1569 0
M  V30 594 H 56.8588 -4.42689 -2.68787 0
M  V30 595 H 53.5358 -2.03129 -3.64753 0
M  V30 596 H 54.9258 -6.01856 -2.98695 0
M  V30 597 N 57.6459 0.756429 -1.3826 0
M  V30 598 C 59.0619 1.0591 -1.19395 0
M  V30 599 C 59.2619 2.01459 -0.0406567 0
M  V30 600 O 58.3179 2.44909 0.614467 0
M  V30 601 C 59.6309 1.64191 -2.51916 0
M  V30 602 C 61.1789 1.76376 -2.58574 0
M  V30 603 C 61.6539 2.38069 -3.91264 0
M  V30 604 N 63.1449 2.45503 -3.92788 0
M  V30 605 C 63.8799 2.94126 -4.92217 0
M  V30 606 N 63.3759 3.42805 -6.02043 0
M  V30 607 N 65.1689 2.9314 -4.7961 0
M  V30 608 H 57.3199 0.122313 -2.12048 0
M  V30 609 H 59.5829 0.116892 -0.940766 0
M  V30 610 H 59.2889 1.01451 -3.3675 0
M  V30 611 H 59.1629 2.6329 -2.70108 0
M  V30 612 H 61.5499 2.38244 -1.74137 0
M  V30 613 H 61.6309 0.759894 -2.44252 0
M  V30 614 H 61.2749 1.76835 -4.76121 0
M  V30 615 H 61.2049 3.39091 -4.02895 0
M  V30 616 H 63.6959 2.1107 -3.13461 0
M  V30 617 H 64.0089 3.78354 -6.73846 0
M  V30 618 H 62.3539 3.4087 -6.05667 0
M  V30 619 H 65.5449 2.54419 -3.92923 0
M  V30 620 H 65.7179 3.30721 -5.5725 0
M  V30 621 N 59.124 1.23083 0.984299 0
M  V30 622 C 60.54 0.992637 1.24975 0
M  V30 623 C 60.74 -0.308618 1.99123 0
M  V30 624 O 59.796 -1.02905 2.30579 0
M  V30 625 C 61.109 2.19698 2.05312 0
M  V30 626 C 62.657 2.24147 2.18465 0
M  V30 627 C 63.132 3.44157 3.02192 0
M  V30 628 N 64.623 3.44372 3.09777 0
M  V30 629 C 65.358 4.33886 3.74874 0
M  V30 630 N 64.854 5.3363 4.41827 0
M  V30 631 N 66.647 4.21639 3.71721 0
M  V30 632 H 58.798 2.06731 0.487453 0
M  V30 633 H 61.061 0.906339 0.277944 0
M  V30 634 H 60.767 3.1411 1.58201 0
M  V30 635 H 60.641 2.20465 3.06064 0
M  V30 636 H 63.028 1.30277 2.64786 0
M  V30 637 H 63.109 2.27415 1.17115 0
M  V30 638 H 62.753 4.38332 2.56568 0
M  V30 639 H 62.683 3.3813 4.03702 0
M  V30 640 H 65.174 2.72201 2.62135 0
M  V30 641 H 65.487 5.98196 4.89266 0
M  V30 642 H 63.832 5.37534 4.40548 0
M  V30 643 H 67.023 3.42962 3.18582 0
M  V30 644 H 67.196 4.91604 4.22173 0
M  V30 645 N 60.6021 -1.18246 1.0419 0
M  V30 646 C 61.5321 -2.24127 0.654914 0
M  V30 647 C 62.5131 -1.66617 -0.342451 0
M  V30 648 O 63.6981 -1.92924 -0.222277 0
M  V30 649 C 60.8281 -3.47295 0.0183757 0
M  V30 650 C 59.7821 -4.17563 0.939414 0
M  V30 651 C 59.1081 -5.34438 0.167286 0
M  V30 652 C 60.4081 -4.70917 2.25908 0
M  V30 653 H 62.1021 -2.56753 1.54007 0
M  V30 654 H 59.6481 -1.23414 0.74195 0
M  V30 655 H 61.6011 -4.20572 -0.264082 0
M  V30 656 H 60.3251 -3.13907 -0.901664 0
M  V30 657 H 58.9841 -3.46186 1.20628 0
M  V30 658 H 58.6321 -4.97298 -0.7552 0
M  V30 659 H 58.3321 -5.82388 0.780901 0
M  V30 660 H 59.8561 -6.10504 -0.108125 0
M  V30 661 H 61.2701 -5.35882 2.03724 0
M  V30 662 H 59.6671 -5.29406 2.82577 0
M  V30 663 H 60.7371 -3.88272 2.9047 0
M  V30 664 N 62.0802 -0.821533 -1.34494 0
M  V30 665 C 63.0102 -0.257138 -2.3208 0
M  V30 666 C 63.9912 0.625645 -1.58176 0
M  V30 667 O 65.1762 0.552811 -1.86166 0
M  V30 668 C 62.3062 0.582958 -3.42372 0
M  V30 669 C 61.2602 -0.202571 -4.2752 0
M  V30 670 C 60.5862 0.760179 -5.29269 0
M  V30 671 C 61.8862 -1.40998 -5.02908 0
M  V30 672 H 63.5802 -1.07247 -2.79532 0
M  V30 673 H 61.1262 -0.517163 -1.34393 0
M  V30 674 H 63.0792 0.987972 -4.09655 0
M  V30 675 H 61.8032 1.43133 -2.93565 0
M  V30 676 H 60.4622 -0.588936 -3.61838 0
M  V30 677 H 60.1102 1.60447 -4.76724 0
M  V30 678 H 59.8102 0.238809 -5.87115 0
M  V30 679 H 61.3342 1.16308 -5.9942 0
M  V30 680 H 62.7482 -1.07905 -5.63054 0
M  V30 681 H 61.1452 -1.86689 -5.70322 0
M  V30 682 H 62.2152 -2.1889 -4.32684 0
M  V30 683 N 63.5583 1.46682 -0.576371 0
M  V30 684 C 64.8043 2.03287 -0.0679305 0
M  V30 685 C 65.1593 1.44063 1.27529 0
M  V30 686 O 64.4523 0.593973 1.82161 0
M  V30 687 C 64.6463 3.57345 0.062886 0
M  V30 688 C 64.4753 4.31509 -1.26611 0
M  V30 689 C 63.2453 4.70664 -1.83856 0
M  V30 690 C 65.4433 4.65444 -2.18783 0
M  V30 691 N 63.4253 5.29552 -3.10561 0
M  V30 692 C 64.7963 5.24835 -3.30072 0
M  V30 693 C 66.8513 4.47375 -2.18542 0
M  V30 694 C 65.5543 5.68063 -4.41244 0
M  V30 695 C 67.5803 4.91614 -3.28739 0
M  V30 696 C 66.9423 5.51071 -4.38748 0
M  V30 697 H 63.0413 0.779083 -0.0674836 0
M  V30 698 H 65.6253 1.78918 -0.767877 0
M  V30 699 H 63.7963 3.8144 0.731988 0
M  V30 700 H 65.5283 4.00592 0.575134 0
M  V30 701 H 62.2833 4.53224 -1.37424 0
M  V30 702 H 62.7073 5.63523 -3.75195 0
M  V30 703 H 67.3493 4.00747 -1.34765 0
M  V30 704 H 65.0673 6.13672 -5.25768 0
M  V30 705 H 68.6533 4.79389 -3.29662 0
M  V30 706 H 67.5333 5.84678 -5.22611 0
M  V30 707 N 65.0364 0.313813 1.54444 0
M  V30 708 C 65.9994 -0.54379 2.22656 0
M  V30 709 C 66.9994 -1.05124 1.21678 0
M  V30 710 O 68.1894 -0.945225 1.46325 0
M  V30 711 C 65.3214 -1.75427 2.92298 0
M  V30 712 H 66.5144 0.0523599 2.99854 0
M  V30 713 H 64.0674 0.0647834 1.56166 0
M  V30 714 H 64.8024 -2.38991 2.19211 0
M  V30 715 H 64.5874 -1.39791 3.66334 0
M  V30 716 H 66.0774 -2.36325 3.44297 0
M  V30 717 N 66.5145 -1.57545 0.0417849 0
M  V30 718 C 67.7915 -1.83642 -0.673433 0
M  V30 719 C 68.1715 -0.928298 -1.89594 0
M  V30 720 O 67.5195 0.0129955 -2.28496 0
M  V30 721 C 67.7295 -3.33155 -1.03964 0
M  V30 722 C 69.0775 -3.99941 -1.42592 0
M  V30 723 O 70.1015 -3.37725 -1.13226 0
M  V30 724 O 68.9605 -5.09619 -1.9736 0
M  V30 725 H 66.0545 -0.757638 -0.331533 0
M  V30 726 H 68.6005 -1.69554 0.070433 0
M  V30 727 H 67.3725 -3.9093 -0.170098 0
M  V30 728 H 66.9955 -3.52396 -1.84126 0
M  V30 729 N 67.9926 0.231505 -1.5589 0
M  V30 730 C 68.9246 1.31006 -1.8807 0
M  V30 731 C 69.9376 1.43539 -0.768145 0
M  V30 732 O 71.1266 1.44614 -1.04638 0
M  V30 733 C 68.2266 2.68688 -2.06543 0
M  V30 734 C 67.3996 2.78228 -3.37502 0
M  V30 735 C 66.4586 3.96857 -3.4553 0
M  V30 736 O 65.4846 3.85662 -4.18633 0
M  V30 737 N 66.6866 5.1072 -2.75944 0
M  V30 738 H 69.4516 1.03731 -2.81176 0
M  V30 739 H 67.0126 0.421573 -1.56315 0
M  V30 740 H 69.0046 3.46412 -2.09239 0
M  V30 741 H 67.5746 2.88605 -1.20109 0
M  V30 742 H 66.7946 1.87059 -3.46991 0
M  V30 743 H 68.0826 2.81564 -4.23791 0
M  V30 744 H 67.4806 5.2271 -2.16311 0
M  V30 745 H 66.0376 5.86523 -2.84314 0
M  V30 746 N 69.4707 1.49531 0.497807 0
M  V30 747 C 70.4337 1.65916 1.58128 0
M  V30 748 C 71.4337 0.530825 1.51786 0
M  V30 749 O 72.6237 0.797342 1.54881 0
M  V30 750 C 69.7557 1.65951 2.9778 0
M  V30 751 H 70.9487 2.62556 1.44929 0
M  V30 752 H 68.5017 1.38611 0.722275 0
M  V30 753 H 69.2367 0.709065 3.16453 0
M  V30 754 H 69.0217 2.47897 3.03792 0
M  V30 755 H 70.5117 1.80673 3.76493 0
M  V30 756 N 70.9488 -0.749086 1.3866 0
M  V30 757 C 72.1948 -1.51056 1.35314 0
M  V30 758 C 72.5278 -1.94121 -0.0553751 0
M  V30 759 O 71.8028 -1.65763 -1.01749 0
M  V30 760 C 72.0858 -2.76003 2.31288 0
M  V30 761 C 71.9388 -2.39047 3.8102 0
M  V30 762 C 73.2578 -3.78046 2.2532 0
M  V30 763 H 70.3768 -0.547972 0.492844 0
M  V30 764 H 73.0188 -0.857628 1.69543 0
M  V30 765 H 71.1688 -3.31716 2.02229 0
M  V30 766 H 72.8408 -1.89074 4.20771 0
M  V30 767 H 71.0838 -1.71449 3.98482 0
M  V30 768 H 71.7548 -3.28462 4.4364 0
M  V30 769 H 74.2308 -3.31884 2.50983 0
M  V30 770 H 73.1068 -4.63159 2.94576 0
M  V30 771 H 73.3678 -4.23957 1.25352 0
M  V30 772 N 72.4269 -1.23603 -0.977757 0
M  V30 773 C 73.6569 -1.09487 -1.75203 0
M  V30 774 C 74.0649 0.356321 -1.85814 0
M  V30 775 O 73.4079 1.25816 -1.33851 0
M  V30 776 C 73.4699 -1.64905 -3.19447 0
M  V30 777 C 73.1339 -3.13688 -3.32338 0
M  V30 778 C 74.1309 -4.10953 -3.18455 0
M  V30 779 C 71.8159 -3.53449 -3.56902 0
M  V30 780 C 73.8099 -5.45962 -3.28944 0
M  V30 781 C 71.4969 -4.88602 -3.6703 0
M  V30 782 C 72.4949 -5.84668 -3.53062 0
M  V30 783 O 72.1829 -7.17365 -3.62826 0
M  V30 784 H 71.9149 -0.38367 -0.556573 0
M  V30 785 H 74.4689 -1.6398 -1.23693 0
M  V30 786 H 72.6989 -1.04835 -3.72218 0
M  V30 787 H 74.3879 -1.46226 -3.78646 0
M  V30 788 H 75.1539 -3.81577 -2.99372 0
M  V30 789 H 71.0329 -2.79188 -3.66844 0
M  V30 790 H 74.5769 -6.20925 -3.17958 0
M  V30 791 H 70.4739 -5.17653 -3.85623 0
M  V30 792 H 71.2419 -7.2515 -3.79605 0
M  V30 793 N 73.905 1.17692 -1.04816 0
M  V30 794 C 74.815 2.25229 -0.65643 0
M  V30 795 C 75.831 1.71018 0.320761 0
M  V30 796 O 77.007 2.00649 0.173805 0
M  V30 797 C 74.072 3.46684 -0.0332629 0
M  V30 798 C 73.133 4.15997 -1.06042 0
M  V30 799 C 72.366 5.31654 -0.466893 0
M  V30 800 O 72.589 5.65777 0.724758 0
M  V30 801 O 71.523 5.89831 -1.1993 0
M  V30 802 H 75.349 2.61016 -1.55255 0
M  V30 803 H 72.934 1.24919 -0.81949 0
M  V30 804 H 74.816 4.20234 0.313256 0
M  V30 805 H 73.491 3.12703 0.836566 0
M  V30 806 H 72.398 3.44482 -1.45886 0
M  V30 807 H 73.731 4.53996 -1.90127 0
M  V30 808 N 75.3831 0.828654 1.34056 0
M  V30 809 C 76.2931 0.256725 2.33191 0
M  V30 810 C 77.3091 -0.611898 1.62886 0
M  V30 811 O 78.4851 -0.51844 1.94613 0
M  V30 812 C 75.5501 -0.567238 3.42028 0
M  V30 813 C 74.6111 0.324458 4.28072 0
M  V30 814 C 73.8441 -0.460274 5.31712 0
M  V30 815 O 74.0671 -1.693 5.44696 0
M  V30 816 O 73.0011 0.160391 6.01686 0
M  V30 817 H 76.8271 1.07739 2.83947 0
M  V30 818 H 74.4121 0.59093 1.37217 0
M  V30 819 H 76.2941 -1.03582 4.08471 0
M  V30 820 H 74.9691 -1.36513 2.93506 0
M  V30 821 H 73.8761 0.840659 3.64532 0
M  V30 822 H 75.2091 1.08685 4.8005 0
M  V30 823 N 76.8612 -1.46375 0.584142 0
M  V30 824 C 78.1072 -2.03248 0.0787103 0
M  V30 825 C 78.4622 -1.44737 -1.26763 0
M  V30 826 O 77.7552 -0.603625 -1.81843 0
M  V30 827 C 77.9492 -3.57373 -0.0439342 0
M  V30 828 C 77.7782 -4.30831 1.28897 0
M  V30 829 C 76.5482 -4.69683 1.8635 0
M  V30 830 C 78.7462 -4.64278 2.21248 0
M  V30 831 N 76.7282 -5.27898 3.13365 0
M  V30 832 C 78.0992 -5.23078 3.32851 0
M  V30 833 C 80.1542 -4.46209 2.20911 0
M  V30 834 C 78.8572 -5.65715 4.44251 0
M  V30 835 C 80.8832 -4.89864 3.31341 0
M  V30 836 C 80.2452 -5.48736 4.41665 0
M  V30 837 H 76.3442 -0.778714 0.0716144 0
M  V30 838 H 78.9282 -1.78509 0.777355 0
M  V30 839 H 77.0992 -3.81823 -0.711749 0
M  V30 840 H 78.8312 -4.00892 -0.553881 0
M  V30 841 H 75.5862 -4.52488 1.39826 0
M  V30 842 H 76.0102 -5.61525 3.78178 0
M  V30 843 H 80.6522 -4.00027 1.36888 0
M  V30 844 H 78.3702 -6.10875 5.29015 0
M  V30 845 H 81.9562 -4.77634 3.322 0
M  V30 846 H 80.8362 -5.81898 5.25704 0
M  V30 847 N 78.3393 -0.321999 -1.54275 0
M  V30 848 C 79.2693 0.537411 -2.27231 0
M  V30 849 C 80.2503 1.12064 -1.27968 0
M  V30 850 O 81.4353 1.14606 -1.56777 0
M  V30 851 C 78.5653 1.69919 -3.02894 0
M  V30 852 C 77.5193 1.24534 -4.09482 0
M  V30 853 C 76.8453 2.49394 -4.72977 0
M  V30 854 C 78.1453 0.361335 -5.21049 0
M  V30 855 H 79.8393 -0.0711406 -2.99315 0
M  V30 856 H 77.3853 -0.0356555 -1.43956 0
M  V30 857 H 79.3383 2.30668 -3.52662 0
M  V30 858 H 78.0623 2.33431 -2.28424 0
M  V30 859 H 76.7213 0.660782 -3.60596 0
M  V30 860 H 76.3693 3.11265 -3.95124 0
M  V30 861 H 76.0693 2.19718 -5.44975 0
M  V30 862 H 77.5933 3.10908 -5.25517 0
M  V30 863 H 79.0073 0.875072 -5.66582 0
M  V30 864 H 77.4043 0.157428 -5.99893 0
M  V30 865 H 78.4743 -0.60822 -4.8107 0
M  V30 866 N 79.8174 1.5752 -0.0501392 0
M  V30 867 C 81.2334 1.56631 0.306402 0
M  V30 868 C 81.4334 1.0577 1.71508 0
M  V30 869 O 80.4894 0.713837 2.422 0
M  V30 870 C 81.8024 3.00393 0.135811 0
M  V30 871 C 83.3504 3.12315 0.206993 0
M  V30 872 C 83.8254 4.57954 0.064944 0
M  V30 873 N 85.3164 4.63041 0.121254 0
M  V30 874 C 86.0514 5.73389 0.0354381 0
M  V30 875 N 85.5474 6.92724 -0.102666 0
M  V30 876 N 87.3404 5.62026 0.090946 0
M  V30 877 H 79.4914 1.88903 -0.971046 0
M  V30 878 H 81.7544 0.869876 -0.376855 0
M  V30 879 H 81.4604 3.41635 -0.835384 0
M  V30 880 H 81.3344 3.66373 0.897275 0
M  V30 881 H 83.7214 2.70973 1.16866 0
M  V30 882 H 83.8024 2.49016 -0.585208 0
M  V30 883 H 83.4464 4.99981 -0.893394 0
M  V30 884 H 83.3764 5.19258 0.876277 0
M  V30 885 H 85.8674 3.77216 0.227284 0
M  V30 886 H 86.1804 7.72633 -0.160882 0
M  V30 887 H 84.5254 6.94864 -0.137737 0
M  V30 888 H 87.7164 4.67684 0.197388 0
M  V30 889 H 87.8894 6.47997 0.0206089 0
M  V30 890 N 81.2955 -0.223234 1.56011 0
M  V30 891 C 82.2585 -1.26014 1.9145 0
M  V30 892 C 83.2585 -1.3989 0.792937 0
M  V30 893 O 84.4485 -1.38184 1.0607 0
M  V30 894 C 81.5805 -2.63422 2.16383 0
M  V30 895 H 82.7735 -0.95796 2.84189 0
M  V30 896 H 80.3265 -0.463576 1.49267 0
M  V30 897 H 81.0615 -2.98741 1.2619 0
M  V30 898 H 80.8465 -2.54728 2.98088 0
M  V30 899 H 82.3365 -3.38249 2.44903 0
M  V30 900 N 82.7736 -1.49793 -0.48987 0
M  V30 901 C 83.9986 -1.63836 -1.27172 0
M  V30 902 C 84.4236 -0.31402 -1.8546 0
M  V30 903 O 83.7816 0.719803 -1.66399 0
M  V30 904 C 83.8296 -2.71797 -2.36978 0
M  V30 905 O 82.9336 -2.31744 -3.41128 0
M  V30 906 H 82.2746 -0.547997 -0.37496 0
M  V30 907 H 84.8046 -1.96053 -0.585191 0
M  V30 908 H 84.8146 -2.94305 -2.82575 0
M  V30 909 H 83.4896 -3.67923 -1.93921 0
M  V30 910 H 82.0666 -2.1961 -3.01373 0
M  V30 911 N 84.2517 0.741722 -1.39055 0
M  V30 912 C 85.5287 1.49252 -1.26425 0
M  V30 913 C 85.9087 2.10705 0.129144 0
M  V30 914 O 85.2567 1.98045 1.13976 0
M  V30 915 C 85.4667 2.54934 -2.38347 0
M  V30 916 C 86.8147 3.21506 -2.77343 0
M  V30 917 O 87.8387 2.65245 -2.37747 0
M  V30 918 O 86.6977 4.23294 -3.45665 0
M  V30 919 H 83.7917 0.662451 -0.495064 0
M  V30 920 H 86.3377 0.776121 -1.50912 0
M  V30 921 H 85.1097 2.07857 -3.31529 0
M  V30 922 H 84.7327 3.34141 -2.15489 0
M  V30 923 N 85.7298 1.2412 0.971189 0
M  V30 924 C 87.0068 0.986867 1.6888 0
M  V30 925 C 87.3868 -0.491857 2.0529 0
M  V30 926 O 86.7348 -1.46531 1.75331 0
M  V30 927 C 86.9448 1.9063 2.92338 0
M  V30 928 C 88.2928 2.17515 3.64654 0
M  V30 929 O 89.3168 1.88254 3.02388 0
M  V30 930 O 88.1758 2.6719 4.7673 0
M  V30 931 H 85.2698 0.372944 0.738134 0
M  V30 932 H 87.8158 1.35203 1.02559 0
M  V30 933 H 86.5878 2.90552 2.62097 0
M  V30 934 H 86.2108 1.54408 3.66393 0
M  V30 935 N 87.2079 -1.17134 1.05439 0
M  V30 936 C 88.6189 -1.69084 0.791676 0
M  V30 937 C 88.9699 -1.83822 -0.685839 0
M  V30 938 O 88.0949 -1.52757 -1.53278 0
M  V30 939 C 88.6899 -3.07119 1.4305 0
M  V30 940 C 87.2489 -3.56225 1.21577 0
M  V30 941 C 86.3959 -2.32421 1.51247 0
M  V30 942 H 89.3469 -1.01617 1.219 0
M  V30 943 H 89.3679 -3.71087 0.84112 0
M  V30 944 H 88.8799 -2.9636 2.50584 0
M  V30 945 H 86.9809 -3.72257 0.159787 0
M  V30 946 H 87.0939 -4.38837 1.92246 0
M  V30 947 H 85.4579 -2.3701 0.932653 0
M  V30 948 H 86.2409 -2.24268 2.5992 0
M  V30 949 N 88.686 -0.835752 -1.33615 0
M  V30 950 C 89.911 -0.442389 -2.02627 0
M  V30 951 C 90.336 0.947735 -1.62479 0
M  V30 952 O 89.694 1.61907 -0.815826 0
M  V30 953 C 89.742 -0.567216 -3.56111 0
M  V30 954 O 88.846 0.407799 -4.10379 0
M  V30 955 H 88.187 -0.180278 -0.639059 0
M  V30 956 H 90.717 -1.12972 -1.70583 0
M  V30 957 H 90.727 -0.447708 -4.05536 0
M  V30 958 H 89.402 -1.58103 -3.84677 0
M  V30 959 H 87.979 0.246107 -3.72087 0
M  V30 960 N 90.1641 1.46063 -0.591896 0
M  V30 961 C 91.4131 2.01547 -0.0786637 0
M  V30 962 C 91.7261 1.46796 1.29268 0
M  V30 963 O 92.9321 1.94157 1.89777 0
M  V30 964 C 91.3881 3.59787 -0.0900024 0
M  V30 965 C 90.9961 4.23534 -1.46023 0
M  V30 966 C 92.7401 4.22895 0.368806 0
M  V30 967 C 90.6471 5.73881 -1.4288 0
M  V30 968 H 89.5771 0.753564 -0.0256388 0
M  V30 969 H 92.2281 1.677 -0.744905 0
M  V30 970 H 90.6101 3.90752 0.642586 0
M  V30 971 H 91.7841 4.04167 -2.21328 0
M  V30 972 H 90.0991 3.72558 -1.85982 0
M  V30 973 H 92.6961 5.33116 0.411258 0
M  V30 974 H 93.0391 3.9247 1.38827 0
M  V30 975 H 93.5721 3.9659 -0.31001 0
M  V30 976 H 90.3111 6.0898 -2.42536 0
M  V30 977 H 89.8311 5.95486 -0.718095 0
M  V30 978 H 91.5101 6.36776 -1.14565 0
M  V30 979 N 91.6422 0.330177 1.54103 0
M  V30 980 C 92.8672 -0.274893 2.0557 0
M  V30 981 C 93.2922 -1.44487 1.20437 0
M  V30 982 O 92.6502 -1.80021 0.214991 0
M  V30 983 C 92.6982 -0.68079 3.54115 0
M  V30 984 O 91.8022 -1.7824 3.71893 0
M  V30 985 H 91.1432 -0.0483849 0.662235 0
M  V30 986 H 93.6732 0.480508 1.98878 0
M  V30 987 H 93.6832 -0.961635 3.96505 0
M  V30 988 H 92.3582 0.174903 4.15532 0
M  V30 989 H 90.9352 -1.49985 3.41407 0
M  V30 990 N 93.1203 -1.57491 0.0584922 0
M  V30 991 C 94.3683 -1.92597 -0.612436 0
M  V30 992 C 94.6893 -0.938162 -1.70949 0
M  V30 993 O 93.9593 0.0158301 -1.95894 0
M  V30 994 H 92.5393 -0.710964 -0.229214 0
M  V30 995 H 95.2013 -1.94571 0.113218 0
M  V30 996 H 94.2973 -2.94038 -1.04633 0
M  V30 997 N 94.5984 0.214957 -1.56127 0
M  V30 998 C 96.0094 0.781386 -1.69562 0
M  V30 999 C 96.3604 1.84707 -0.66165 0
M  V30 1000 O 95.4854 2.156 0.185927 0
M  V30 1001 C 96.0804 1.42411 -3.07416 0
M  V30 1002 C 94.6394 1.93786 -3.22683 0
M  V30 1003 C 93.7864 0.800438 -2.65496 0
M  V30 1004 H 96.7374 -0.00980633 -1.58697 0
M  V30 1005 H 96.7584 2.29309 -3.0364 0
M  V30 1006 H 96.2704 0.64826 -3.82648 0
M  V30 1007 H 94.3714 2.74152 -2.52332 0
M  V30 1008 H 94.4844 2.1133 -4.29973 0
M  V30 1009 H 92.8484 1.2095 -2.2415 0
M  V30 1010 H 93.6314 0.0371471 -3.4328 0
M  V30 1011 N 96.0765 1.50051 0.48192 0
M  V30 1012 C 97.3225 1.60736 1.2366 0
M  V30 1013 C 97.6555 0.301786 1.91841 0
M  V30 1014 O 96.9305 -0.696025 1.8162 0
M  V30 1015 C 97.2135 2.78009 2.28874 0
M  V30 1016 C 97.0665 4.18416 1.65069 0
M  V30 1017 C 98.3855 2.90867 3.30279 0
M  V30 1018 H 95.5045 0.585031 0.448228 0
M  V30 1019 H 98.1465 1.82402 0.531946 0
M  V30 1020 H 96.2965 2.59667 2.88973 0
M  V30 1021 H 97.9685 4.48322 1.0865 0
M  V30 1022 H 96.2115 4.23177 0.954148 0
M  V30 1023 H 96.8825 4.96381 2.41474 0
M  V30 1024 H 99.3585 3.07623 2.80191 0
M  V30 1025 H 98.2345 3.74566 4.01238 0
M  V30 1026 H 98.4955 2.01021 3.93755 0
M  V30 1027 N 97.5546 -0.734337 1.39446 0
M  V30 1028 C 98.4846 -1.86155 1.40955 0
M  V30 1029 C 99.4656 -1.67898 0.272827 0
M  V30 1030 O 100.651 -1.88207 0.478743 0
M  V30 1031 C 97.7806 -3.23912 1.25294 0
M  V30 1032 C 96.7346 -3.56808 2.36373 0
M  V30 1033 C 96.0606 -4.93508 2.058 0
M  V30 1034 C 97.3606 -3.59713 3.78687 0
M  V30 1035 H 99.0546 -1.8515 2.35287 0
M  V30 1036 H 96.6006 -0.889367 1.13253 0
M  V30 1037 H 98.5536 -4.02443 1.2497 0
M  V30 1038 H 97.2776 -3.25446 0.274308 0
M  V30 1039 H 95.9366 -2.80606 2.35914 0
M  V30 1040 H 95.5846 -4.91623 1.06374 0
M  V30 1041 H 95.2846 -5.16486 2.80208 0
M  V30 1042 H 96.8086 -5.74396 2.07128 0
M  V30 1043 H 98.2226 -4.2832 3.81071 0
M  V30 1044 H 96.6196 -3.94209 4.52459 0
M  V30 1045 H 97.6896 -2.59504 4.09617 0
M  V30 1046 N 99.0327 -1.24633 -0.964593 0
M  V30 1047 C 99.9647 -0.999302 -2.06268 0
M  V30 1048 C 100.978 0.0323226 -1.62768 0
M  V30 1049 O 102.167 -0.205079 -1.77318 0
M  V30 1050 C 99.2667 -0.486816 -3.35385 0
M  V30 1051 C 98.4397 -1.5823 -4.07777 0
M  V30 1052 C 97.4987 -1.07191 -5.15166 0
M  V30 1053 O 96.5247 -1.76426 -5.41168 0
M  V30 1054 N 97.7267 0.0920373 -5.80427 0
M  V30 1055 H 100.492 -1.94477 -2.28033 0
M  V30 1056 H 98.0527 -1.15704 -1.13244 0
M  V30 1057 H 100.045 -0.130066 -4.04491 0
M  V30 1058 H 98.6147 0.364459 -3.10468 0
M  V30 1059 H 97.8347 -2.11109 -3.32906 0
M  V30 1060 H 99.1227 -2.31854 -4.52903 0
M  V30 1061 H 98.5207 0.670784 -5.61709 0
M  V30 1062 H 97.0777 0.389905 -6.50633 0
M  V30 1063 N 100.511 1.16574 -1.06058 0
M  V30 1064 C 101.739 1.90952 -0.796552 0
M  V30 1065 C 102.154 1.77302 0.648808 0
M  V30 1066 O 101.511 1.11605 1.44397 0
M  V30 1067 C 101.562 3.41736 -1.17894 0
M  V30 1068 O 101.283 3.54975 -2.56758 0
M  V30 1069 C 102.784 4.33169 -0.942308 0
M  V30 1070 H 100.004 0.605594 -0.288959 0
M  V30 1071 H 102.548 1.47777 -1.41358 0
M  V30 1072 H 100.703 3.82623 -0.606491 0
M  V30 1073 H 101.117 4.4846 -2.72 0
M  V30 1074 H 102.591 5.37439 -1.25952 0
M  V30 1075 H 103.068 4.3903 0.122078 0
M  V30 1076 H 103.674 3.98007 -1.49902 0
M  V30 1077 N 101.989 0.842826 1.3317 0
M  V30 1078 C 102.919 0.294028 2.31641 0
M  V30 1079 C 103.9 -0.600401 1.59151 0
M  V30 1080 O 105.085 -0.523124 1.87022 0
M  V30 1081 C 102.215 -0.528416 3.43257 0
M  V30 1082 C 101.169 0.27056 4.27144 0
M  V30 1083 C 100.495 -0.675881 5.30411 0
M  V30 1084 C 101.795 1.48981 5.00602 0
M  V30 1085 H 103.489 1.11681 2.77791 0
M  V30 1086 H 101.035 0.538478 1.33553 0
M  V30 1087 H 102.988 -0.922674 4.11175 0
M  V30 1088 H 101.712 -1.38445 2.95805 0
M  V30 1089 H 100.371 0.646427 3.60856 0
M  V30 1090 H 100.019 -1.52842 4.79216 0
M  V30 1091 H 99.7189 -0.145374 5.8742 0
M  V30 1092 H 101.243 -1.06757 6.01195 0
M  V30 1093 H 102.657 1.16849 5.61266 0
M  V30 1094 H 101.054 1.95739 5.6728 0
M  V30 1095 H 102.124 2.25746 4.29147 0
M  V30 1096 N 103.467 -1.45747 0.599634 0
M  V30 1097 C 104.399 -2.28628 -0.161879 0
M  V30 1098 C 105.412 -1.39494 -0.839367 0
M  V30 1099 O 106.601 -1.63941 -0.706089 0
M  V30 1100 C 103.701 -3.15014 -1.24976 0
M  V30 1101 C 102.874 -4.32378 -0.660935 0
M  V30 1102 C 101.933 -5.00033 -1.63869 0
M  V30 1103 O 100.959 -5.57085 -1.1681 0
M  V30 1104 N 102.161 -4.98589 -2.97303 0
M  V30 1105 H 104.926 -2.94624 0.549265 0
M  V30 1106 H 102.487 -1.55847 0.438565 0
M  V30 1107 H 104.479 -3.5714 -1.9035 0
M  V30 1108 H 103.049 -2.5098 -1.86354 0
M  V30 1109 H 102.269 -3.9383 0.170688 0
M  V30 1110 H 103.557 -5.08197 -0.247619 0
M  V30 1111 H 102.955 -4.53514 -3.38145 0
M  V30 1112 H 101.512 -5.44603 -3.58121 0
M  V30 1113 N 104.945 -0.338344 -1.53925 0
M  V30 1114 C 106.222 0.314774 -1.93051 0
M  V30 1115 C 106.602 1.68669 -1.26941 0
M  V30 1116 O 105.95 2.24636 -0.418445 0
M  V30 1117 C 106.16 0.392249 -3.46789 0
M  V30 1118 C 107.508 0.645554 -4.19664 0
M  V30 1119 O 108.532 0.474575 -3.53024 0
M  V30 1120 O 107.391 0.976408 -5.37707 0
M  V30 1121 H 104.485 0.182598 -0.80659 0
M  V30 1122 H 107.031 -0.389141 -1.65178 0
M  V30 1123 H 105.803 -0.570702 -3.87116 0
M  V30 1124 H 105.426 1.14316 -3.80812 0
M  V30 1125 N 106.423 1.57458 -0.0668435 0
M  V30 1126 C 107.333 2.15937 0.916975 0
M  V30 1127 C 108.349 1.12123 1.33058 0
M  V30 1128 O 109.525 1.44366 1.40429 0
M  V30 1129 C 106.59 2.70547 2.16807 0
M  V30 1130 C 105.651 3.89215 1.81135 0
M  V30 1131 C 104.884 4.41211 3.0028 0
M  V30 1132 O 105.107 3.92225 4.14144 0
M  V30 1133 O 104.041 5.32605 2.80384 0
M  V30 1134 H 107.867 3.00354 0.449561 0
M  V30 1135 H 105.452 1.48584 0.155949 0
M  V30 1136 H 107.334 3.0557 2.90181 0
M  V30 1137 H 106.009 1.89192 2.62656 0
M  V30 1138 H 104.916 3.59054 1.05028 0
M  V30 1139 H 106.249 4.71848 1.40073 0
M  V30 1140 N 107.901 -0.206675 1.56239 0
M  V30 1141 C 109.131 -0.943975 1.83773 0
M  V30 1142 C 109.539 -1.77841 0.645703 0
M  V30 1143 O 108.882 -1.79403 -0.395008 0
M  V30 1144 C 108.944 -1.899 3.05251 0
M  V30 1145 C 108.608 -1.24764 4.39639 0
M  V30 1146 C 109.605 -0.630216 5.16066 0
M  V30 1147 C 107.29 -1.25496 4.8637 0
M  V30 1148 C 109.284 -0.0287946 6.37393 0
M  V30 1149 C 106.971 -0.649698 6.07637 0
M  V30 1150 C 107.969 -0.0376845 6.8299 0
M  V30 1151 O 107.657 0.55812 8.0196 0
M  V30 1152 H 107.389 -0.281508 0.614597 0
M  V30 1153 H 109.943 -0.222458 2.04192 0
M  V30 1154 H 108.173 -2.6599 2.80689 0
M  V30 1155 H 109.862 -2.5031 3.1953 0
M  V30 1156 H 110.628 -0.616785 4.81062 0
M  V30 1157 H 106.507 -1.72072 4.27683 0
M  V30 1158 H 110.051 0.449518 6.9615 0
M  V30 1159 H 105.948 -0.660592 6.42111 0
M  V30 1160 H 106.716 0.453891 8.17241 0
M  V30 1161 N 109.379 -1.50304 -0.473955 0
M  V30 1162 C 110.625 -1.61389 -1.22806 0
M  V30 1163 C 110.958 -0.311955 -1.91678 0
M  V30 1164 O 110.233 0.686384 -1.81986 0
M  V30 1165 C 110.516 -2.79219 -2.27396 0
M  V30 1166 C 110.369 -4.19286 -1.62848 0
M  V30 1167 C 111.688 -2.92614 -3.28732 0
M  V30 1168 H 108.807 -0.587399 -0.445119 0
M  V30 1169 H 111.449 -1.82681 -0.522265 0
M  V30 1170 H 109.599 -2.61195 -2.87592 0
M  V30 1171 H 111.271 -4.48892 -1.06271 0
M  V30 1172 H 109.514 -4.23677 -0.931693 0
M  V30 1173 H 110.185 -4.97655 -2.38838 0
M  V30 1174 H 112.661 -3.09105 -2.78556 0
M  V30 1175 H 111.537 -3.76688 -3.99246 0
M  V30 1176 H 111.798 -2.03107 -3.92683 0
M  V30 1177 N 110.857 0.726932 -1.39834 0
M  V30 1178 C 111.82 1.82269 -1.38962 0
M  V30 1179 C 112.82 1.58248 -0.285334 0
M  V30 1180 O 114.01 1.65499 -0.54366 0
M  V30 1181 C 111.142 3.20186 -1.17019 0
M  V30 1182 H 112.335 1.84443 -2.36476 0
M  V30 1183 H 109.888 0.931416 -1.25516 0
M  V30 1184 H 110.623 3.23669 -0.202204 0
M  V30 1185 H 110.408 3.3902 -1.96998 0
M  V30 1186 H 111.898 4.00235 -1.1917 0
M  V30 1187 N 112.336 1.25143 0.95797 0
M  V30 1188 C 113.752 1.01892 1.22842 0
M  V30 1189 C 113.952 -0.266311 1.99732 0
M  V30 1190 O 113.008 -0.979913 2.3271 0
M  V30 1191 C 114.321 2.24004 2.00606 0
M  V30 1192 C 115.869 2.28731 2.13662 0
M  V30 1193 C 116.344 3.5049 2.94823 0
M  V30 1194 N 117.835 3.50866 3.02403 0
M  V30 1195 C 118.57 4.4174 3.65586 0
M  V30 1196 N 118.066 5.42882 4.30408 0
M  V30 1197 N 119.859 4.29429 3.62694 0
M  V30 1198 H 112.01 2.07718 0.443493 0
M  V30 1199 H 114.273 0.912031 0.258657 0
M  V30 1200 H 113.979 3.17395 1.51503 0
M  V30 1201 H 113.853 2.26907 3.01319 0
M  V30 1202 H 116.24 1.35865 2.61963 0
M  V30 1203 H 116.321 2.29848 1.12265 0
M  V30 1204 H 115.965 4.43676 2.47213 0
M  V30 1205 H 115.895 3.46617 3.96439 0
M  V30 1206 H 118.386 2.777 2.56302 0
M  V30 1207 H 118.699 6.0844 4.76467 0
M  V30 1208 H 117.044 5.46758 4.29047 0
M  V30 1209 H 120.235 3.49643 3.11236 0
M  V30 1210 H 120.408 5.00448 4.1165 0
M  V30 1211 N 113.814 -1.1601 1.06675 0
M  V30 1212 C 114.746 -2.20115 0.638921 0
M  V30 1213 C 115.759 -1.59916 -0.305057 0
M  V30 1214 O 116.948 -1.78245 -0.0954446 0
M  V30 1215 C 114.048 -3.38798 -0.0830083 0
M  V30 1216 C 113.221 -4.2855 0.875426 0
M  V30 1217 C 112.28 -5.25849 0.192042 0
M  V30 1218 O 111.306 -5.63102 0.830921 0
M  V30 1219 N 112.508 -5.70648 -1.06493 0
M  V30 1220 H 115.273 -2.57439 1.53444 0
M  V30 1221 H 112.834 -1.31057 0.950557 0
M  V30 1222 H 114.826 -4.00936 -0.550685 0
M  V30 1223 H 113.396 -2.99947 -0.880386 0
M  V30 1224 H 112.616 -3.63617 1.52238 0
M  V30 1225 H 113.904 -4.85393 1.52548 0
M  V30 1226 H 113.302 -5.42482 -1.60405 0
M  V30 1227 H 111.859 -6.34859 -1.47641 0
M  V30 1228 N 115.292 -0.849877 -1.32721 0
M  V30 1229 C 116.239 -0.289033 -2.28983 0
M  V30 1230 C 117.209 0.601324 -1.54833 0
M  V30 1231 O 118.394 0.537253 -1.8308 0
M  V30 1232 C 115.534 0.520623 -3.4115 0
M  V30 1233 C 114.647 -0.394989 -4.3019 0
M  V30 1234 C 113.782 0.426834 -5.29482 0
M  V30 1235 C 112.821 -0.486476 -6.10164 0
M  V30 1236 N 111.958 0.297879 -7.01468 0
M  V30 1237 H 116.798 -1.11519 -2.76347 0
M  V30 1238 H 114.335 -0.56138 -1.35967 0
M  V30 1239 H 116.293 1.00563 -4.04899 0
M  V30 1240 H 114.923 1.31165 -2.9495 0
M  V30 1241 H 113.975 -0.99836 -3.67065 0
M  V30 1242 H 115.287 -1.09612 -4.86607 0
M  V30 1243 H 114.441 0.975205 -5.98811 0
M  V30 1244 H 113.18 1.16136 -4.73671 0
M  V30 1245 H 112.185 -1.04677 -5.39743 0
M  V30 1246 H 113.41 -1.21953 -6.6806 0
M  V30 1247 H 111.356 1.01558 -6.48091 0
M  V30 1248 H 111.273 -0.344318 -7.55216 0
M  V30 1249 H 112.541 0.828131 -7.75089 0
M  V30 1250 N 116.77 1.45427 -0.607355 0
M  V30 1251 C 118.186 1.57283 -0.270985 0
M  V30 1252 C 118.386 1.59875 1.22647 0
M  V30 1253 O 117.442 1.52893 2.00948 0
M  V30 1254 C 118.755 2.85566 -0.941952 0
M  V30 1255 C 120.303 2.9924 -0.917849 0
M  V30 1256 C 120.778 4.30293 -1.56882 0
M  V30 1257 N 122.269 4.37051 -1.5343 0
M  V30 1258 C 123.004 5.37123 -2.00715 0
M  V30 1259 N 122.5 6.43734 -2.56084 0
M  V30 1260 N 124.293 5.28479 -1.91484 0
M  V30 1261 H 116.444 1.41988 -1.57966 0
M  V30 1262 H 118.707 0.67885 -0.661715 0
M  V30 1263 H 118.413 2.8955 -1.99633 0
M  V30 1264 H 118.287 3.74322 -0.465096 0
M  V30 1265 H 120.674 2.94822 0.127984 0
M  V30 1266 H 120.755 2.11895 -1.43297 0
M  V30 1267 H 120.399 4.35469 -2.61398 0
M  V30 1268 H 120.329 5.16454 -1.02873 0
M  V30 1269 H 122.82 3.60615 -1.12982 0
M  V30 1270 H 123.133 7.16341 -2.89958 0
M  V30 1271 H 121.478 6.44485 -2.60122 0
M  V30 1272 H 124.669 4.44098 -1.47967 0
M  V30 1273 H 124.842 6.0632 -2.28648 0
M  V30 1274 N 118.248 0.346503 1.53744 0
M  V30 1275 C 119.473 -0.253074 2.0585 0
M  V30 1276 C 119.898 -1.43202 1.21962 0
M  V30 1277 O 119.256 -1.79783 0.234073 0
M  V30 1278 C 119.304 -0.643193 3.54817 0
M  V30 1279 O 118.408 -1.74286 3.73762 0
M  V30 1280 H 117.749 -0.0413583 0.662711 0
M  V30 1281 H 120.279 0.501574 1.98357 0
M  V30 1282 H 120.289 -0.919526 3.97503 0
M  V30 1283 H 118.964 0.218966 4.15323 0
M  V30 1284 H 117.541 -1.46356 3.42979 0
M  V30 1285 N 119.726 -1.57421 0.075193 0
M  V30 1286 C 120.636 -2.1642 -0.905511 0
M  V30 1287 C 121.652 -1.12828 -1.32461 0
M  V30 1288 O 122.828 -1.45109 -1.39661 0
M  V30 1289 C 119.893 -2.71693 -2.15369 0
M  V30 1290 C 118.954 -3.90171 -1.79068 0
M  V30 1291 C 118.187 -4.42798 -2.97936 0
M  V30 1292 O 118.41 -3.94416 -4.12058 0
M  V30 1293 O 117.344 -5.34085 -2.77555 0
M  V30 1294 H 121.17 -3.00588 -0.433626 0
M  V30 1295 H 118.755 -1.48664 -0.148067 0
M  V30 1296 H 120.637 -3.07104 -2.88557 0
M  V30 1297 H 119.312 -1.90582 -2.61649 0
M  V30 1298 H 118.219 -3.59606 -1.03122 0
M  V30 1299 H 119.552 -4.72584 -1.37569 0
M  V30 1300 N 121.204 0.198386 -1.56346 0
M  V30 1301 C 122.167 1.22952 -1.93431 0
M  V30 1302 C 123.167 1.38611 -0.815092 0
M  V30 1303 O 124.357 1.36479 -1.08255 0
M  V30 1304 C 121.489 2.59946 -2.20546 0
M  V30 1305 H 122.682 0.912626 -2.85677 0
M  V30 1306 H 120.235 0.43977 -1.49986 0
M  V30 1307 H 120.97 2.96696 -1.30927 0
M  V30 1308 H 120.755 2.49953 -3.02102 0
M  V30 1309 H 122.245 3.3431 -2.50253 0
M  V30 1310 N 122.682 1.50554 0.465978 0
M  V30 1311 C 123.614 1.65949 1.58093 0
M  V30 1312 C 124.627 0.540827 1.53554 0
M  V30 1313 O 125.816 0.814187 1.5885 0
M  V30 1314 C 122.916 1.63261 2.96983 0
M  V30 1315 C 122.089 2.91245 3.26336 0
M  V30 1316 C 121.148 2.8113 4.44806 0
M  V30 1317 O 120.174 3.55086 4.44862 0
M  V30 1318 N 121.376 1.95032 5.46756 0
M  V30 1319 H 124.141 2.62122 1.45301 0
M  V30 1320 H 121.702 1.48082 0.65448 0
M  V30 1321 H 123.694 1.54101 3.74212 0
M  V30 1322 H 122.264 0.748032 3.03518 0
M  V30 1323 H 121.484 3.14493 2.37672 0
M  V30 1324 H 122.772 3.76022 3.42761 0
M  V30 1325 H 122.17 1.3427 5.49534 0
M  V30 1326 H 120.727 1.91772 6.2295 0
M  V30 1327 N 124.16 -0.719506 1.40217 0
M  V30 1328 C 125.092 -1.84428 1.36084 0
M  V30 1329 C 126.105 -1.60597 0.266913 0
M  V30 1330 O 127.294 -1.70544 0.526983 0
M  V30 1331 C 124.394 -3.20757 1.094 0
M  V30 1332 C 123.567 -3.71817 2.30372 0
M  V30 1333 C 122.626 -4.86748 1.99907 0
M  V30 1334 O 121.652 -4.99603 2.72737 0
M  V30 1335 N 122.854 -5.7226 0.974635 0
M  V30 1336 H 125.619 -1.88473 2.33019 0
M  V30 1337 H 123.18 -0.900885 1.3452 0
M  V30 1338 H 125.172 -3.95235 0.870116 0
M  V30 1339 H 123.742 -3.11884 0.211452 0
M  V30 1340 H 122.962 -2.88514 2.68614 0
M  V30 1341 H 124.25 -4.02666 3.11026 0
M  V30 1342 H 123.648 -5.6448 0.371368 0
M  V30 1343 H 122.205 -6.46739 0.810656 0
M  V30 1344 N 125.638 -1.25649 -0.95132 0
M  V30 1345 C 126.548 -1.08073 -2.08224 0
M  V30 1346 C 127.564 -0.0169666 -1.73992 0
M  V30 1347 O 128.74 -0.218593 -2.0021 0
M  V30 1348 C 125.805 -0.704922 -3.39458 0
M  V30 1349 C 124.866 -1.84699 -3.87537 0
M  V30 1350 C 124.099 -1.48902 -5.12508 0
M  V30 1351 O 124.322 -0.386156 -5.69091 0
M  V30 1352 O 123.256 -2.32033 -5.55378 0
M  V30 1353 H 127.082 -2.02924 -2.25954 0
M  V30 1354 H 124.667 -1.04618 -1.06656 0
M  V30 1355 H 126.549 -0.507609 -4.18332 0
M  V30 1356 H 125.224 0.214291 -3.2299 0
M  V30 1357 H 124.131 -2.09919 -3.09653 0
M  V30 1358 H 125.464 -2.74557 -4.08509 0
M  V30 1359 N 127.117 1.15442 -1.07289 0
M  V30 1360 C 128.027 2.23786 -0.704057 0
M  V30 1361 C 129.043 1.7166 0.284413 0
M  V30 1362 O 130.219 2.00972 0.131205 0
M  V30 1363 C 127.284 3.46535 -0.106792 0
M  V30 1364 C 126.345 4.13654 -1.14842 0
M  V30 1365 C 125.578 5.30544 -0.57956 0
M  V30 1366 O 125.801 5.67187 0.604585 0
M  V30 1367 O 124.735 5.87154 -1.32414 0
M  V30 1368 H 128.561 2.57664 -1.60757 0
M  V30 1369 H 126.146 1.23152 -0.845803 0
M  V30 1370 H 128.028 4.20804 0.224048 0
M  V30 1371 H 126.703 3.14407 0.770049 0
M  V30 1372 H 125.61 3.4131 -1.5316 0
M  V30 1373 H 126.943 4.49861 -1.99714 0
M  V30 1374 N 128.595 0.856903 1.32268 0
M  V30 1375 C 129.525 0.31858 2.31316 0
M  V30 1376 C 130.506 -0.583487 1.59779 0
M  V30 1377 O 131.691 -0.503259 1.87566 0
M  V30 1378 C 128.821 -0.491979 3.43798 0
M  V30 1379 C 127.775 0.315849 4.26833 0
M  V30 1380 C 127.101 -0.619586 5.31098 0
M  V30 1381 C 128.401 1.54282 4.98993 0
M  V30 1382 H 130.095 1.14621 2.76591 0
M  V30 1383 H 127.641 0.552613 1.32974 0
M  V30 1384 H 129.594 -0.879012 4.1213 0
M  V30 1385 H 128.318 -1.35299 2.97257 0
M  V30 1386 H 126.977 0.684664 3.6015 0
M  V30 1387 H 126.625 -1.47751 4.8081 0
M  V30 1388 H 126.325 -0.0830621 5.87541 0
M  V30 1389 H 127.849 -1.00375 6.02293 0
M  V30 1390 H 129.263 1.22796 5.59995 0
M  V30 1391 H 127.66 2.01745 5.65172 0
M  V30 1392 H 128.73 2.30285 4.26728 0
M  V30 1393 N 130.073 -1.45103 0.615059 0
M  V30 1394 C 131.298 -2.07064 0.117988 0
M  V30 1395 C 131.723 -1.4554 -1.19163 0
M  V30 1396 O 131.081 -0.550855 -1.72729 0
M  V30 1397 C 131.129 -3.606 -0.000288387 0
M  V30 1398 O 130.233 -3.98847 -1.04856 0
M  V30 1399 H 129.574 -0.659467 0.0774581 0
M  V30 1400 H 132.104 -1.86236 0.847186 0
M  V30 1401 H 132.114 -4.07529 -0.196091 0
M  V30 1402 H 130.789 -4.04765 0.955932 0
M  V30 1403 H 129.366 -3.63577 -0.828619 0
M  V30 1404 N 131.551 -0.354651 -1.53558 0
M  V30 1405 C 132.828 0.294281 -1.93374 0
M  V30 1406 C 133.208 1.67313 -1.28723 0
M  V30 1407 O 132.556 2.24179 -0.442247 0
M  V30 1408 C 132.766 0.355445 -3.47185 0
M  V30 1409 C 134.114 0.601007 -4.20325 0
M  V30 1410 O 135.138 0.437106 -3.53508 0
M  V30 1411 O 133.997 0.919322 -5.38712 0
M  V30 1412 H 131.091 0.174033 -0.808481 0
M  V30 1413 H 133.637 -0.406638 -1.64756 0
M  V30 1414 H 132.409 -0.611729 -3.86489 0
M  V30 1415 H 132.032 1.1027 -3.82003 0
M  V30 1416 N 133.029 1.57378 -0.0835403 0
M  V30 1417 C 134.278 1.93106 0.582498 0
M  V30 1418 C 134.591 0.96651 1.70053 0
M  V30 1419 O 135.797 1.21705 2.42693 0
M  V30 1420 C 134.253 3.43076 1.08751 0
M  V30 1421 C 133.861 4.48 -0.000146404 0
M  V30 1422 C 135.605 3.87785 1.72694 0
M  V30 1423 C 133.512 5.89113 0.519568 0
M  V30 1424 H 132.442 0.720775 0.221358 0
M  V30 1425 H 135.093 1.82821 -0.157675 0
M  V30 1426 H 133.475 3.48474 1.88101 0
M  V30 1427 H 134.649 4.54233 -0.775199 0
M  V30 1428 H 132.964 4.1283 -0.54406 0
M  V30 1429 H 135.561 4.90604 2.1263 0
M  V30 1430 H 135.904 3.25796 2.59158 0
M  V30 1431 H 136.437 3.8504 0.999457 0
M  V30 1432 H 133.176 6.54775 -0.308186 0
M  V30 1433 H 132.696 5.86376 1.26188 0
M  V30 1434 H 134.375 6.39346 0.992237 0
M  V30 1435 N 134.507 -0.190092 1.56449 0
M  V30 1436 C 135.437 -1.23816 1.97969 0
M  V30 1437 C 136.418 -1.47201 0.852395 0
M  V30 1438 O 137.603 -1.58854 1.1171 0
M  V30 1439 C 134.733 -2.5813 2.3235 0
M  V30 1440 C 133.687 -2.49348 3.47864 0
M  V30 1441 C 133.013 -3.8798 3.67934 0
M  V30 1442 C 134.313 -2.01424 4.81898 0
M  V30 1443 H 136.007 -0.89311 2.85769 0
M  V30 1444 H 133.553 -0.428177 1.37487 0
M  V30 1445 H 135.506 -3.31637 2.59991 0
M  V30 1446 H 134.23 -2.94386 1.41438 0
M  V30 1447 H 132.889 -1.78297 3.20321 0
M  V30 1448 H 132.537 -4.21597 2.74344 0
M  V30 1449 H 132.237 -3.82978 4.45648 0
M  V30 1450 H 133.761 -4.63101 3.97957 0
M  V30 1451 H 135.175 -2.64693 5.08538 0
M  V30 1452 H 133.572 -2.07413 5.63116 0
M  V30 1453 H 134.642 -0.967677 4.75146 0
M  V30 1454 N 135.985 -1.50799 -0.457987 0
M  V30 1455 C 137.262 -1.52968 -1.21902 0
M  V30 1456 C 137.642 -0.281906 -2.09209 0
M  V30 1457 O 136.99 0.734076 -2.16388 0
M  V30 1458 C 137.2 -2.8326 -2.03875 0
M  V30 1459 C 138.548 -3.34425 -2.6162 0
M  V30 1460 O 139.572 -2.8467 -2.14106 0
M  V30 1461 O 138.431 -4.21188 -3.48228 0
M  V30 1462 H 135.525 -0.614129 -0.553873 0
M  V30 1463 H 138.071 -1.63098 -0.468739 0
M  V30 1464 H 136.843 -3.65543 -1.39621 0
M  V30 1465 H 136.466 -2.76195 -2.8601 0
M  V30 1466 N 137.463 0.71206 -1.40597 0
M  V30 1467 C 138.426 1.80785 -1.40888 0
M  V30 1468 C 139.426 1.57937 -0.302103 0
M  V30 1469 O 140.616 1.64913 -0.561182 0
M  V30 1470 C 137.748 3.18927 -1.20409 0
M  V30 1471 H 138.941 1.81924 -2.38419 0
M  V30 1472 H 136.494 0.91805 -1.26497 0
M  V30 1473 H 137.229 3.23436 -0.236522 0
M  V30 1474 H 137.014 3.36911 -2.00582 0
M  V30 1475 H 138.504 3.98949 -1.23408 0
M  V30 1476 N 138.941 1.26152 0.944643 0
M  V30 1477 C 139.871 1.09902 2.06019 0
M  V30 1478 C 140.852 0.00519538 1.70099 0
M  V30 1479 O 142.037 0.176583 1.93396 0
M  V30 1480 C 139.167 0.727562 3.39594 0
M  V30 1481 C 138.121 1.77274 3.89561 0
M  V30 1482 C 137.447 1.25569 5.19747 0
M  V30 1483 C 138.747 3.17357 4.14827 0
M  V30 1484 H 140.441 2.03217 2.19871 0
M  V30 1485 H 137.987 0.978452 1.05652 0
M  V30 1486 H 139.94 0.600777 4.17095 0
M  V30 1487 H 138.664 -0.241287 3.25707 0
M  V30 1488 H 137.323 1.88814 3.14237 0
M  V30 1489 H 136.971 0.276783 5.02238 0
M  V30 1490 H 136.671 1.95433 5.54148 0
M  V30 1491 H 138.195 1.1415 5.99835 0
M  V30 1492 H 139.609 3.08914 4.82954 0
M  V30 1493 H 138.006 3.84781 4.60504 0
M  V30 1494 H 139.076 3.63673 3.20734 0
M  V30 1495 N 140.419 -1.14872 1.07899 0
M  V30 1496 C 141.667 -1.85422 0.803941 0
M  V30 1497 C 141.988 -1.83051 -0.67211 0
M  V30 1498 O 141.258 -1.27532 -1.48703 0
M  V30 1499 H 139.838 -0.686537 0.294408 0
M  V30 1500 H 142.5 -1.39226 1.3639 0
M  V30 1501 H 141.596 -2.90399 1.14346 0
M  V30 1502 N 141.898 -0.863906 -1.31812 0
M  V30 1503 C 143.145 -0.471836 -1.96926 0
M  V30 1504 C 143.473 0.974578 -1.68322 0
M  V30 1505 O 142.728 1.7003 -0.968933 0
M  V30 1506 C 143.027 -0.668547 -3.51091 0
M  V30 1507 C 142.693 -2.08683 -3.99703 0
M  V30 1508 C 141.355 -2.47471 -4.12688 0
M  V30 1509 C 143.707 -3.01207 -4.25351 0
M  V30 1510 C 141.035 -3.78037 -4.4867 0
M  V30 1511 C 143.387 -4.31282 -4.62794 0
M  V30 1512 C 142.051 -4.69992 -4.73987 0
M  V30 1513 H 141.321 -0.172657 -0.720604 0
M  V30 1514 H 143.968 -1.09573 -1.57054 0
M  V30 1515 H 142.273 0.0385252 -3.91781 0
M  V30 1516 H 143.97 -0.345102 -3.99512 0
M  V30 1517 H 140.56 -1.77566 -3.90087 0
M  V30 1518 H 144.744 -2.72469 -4.14819 0
M  V30 1519 H 140 -4.078 -4.55532 0
M  V30 1520 H 144.174 -5.03031 -4.81594 0
M  V30 1521 H 141.801 -5.71207 -5.01624 0
M  V30 1522 N 143.376 1.44774 -0.622745 0
M  V30 1523 C 144.622 2.0242 -0.124083 0
M  V30 1524 C 144.955 1.4881 1.24777 0
M  V30 1525 O 144.23 0.668799 1.8264 0
M  V30 1526 C 144.513 3.59957 -0.101619 0
M  V30 1527 C 144.366 4.23867 -1.50521 0
M  V30 1528 C 145.685 4.36284 0.578272 0
M  V30 1529 H 142.804 0.735528 -0.0465645 0
M  V30 1530 H 145.446 1.72447 -0.797617 0
M  V30 1531 H 143.596 3.85623 0.471934 0
M  V30 1532 H 145.268 4.09336 -2.12701 0
M  V30 1533 H 143.511 3.81684 -2.06154 0
M  V30 1534 H 144.182 5.32843 -1.4416 0
M  V30 1535 H 146.658 4.16001 0.0906057 0
M  V30 1536 H 145.534 5.46004 0.563149 0
M  V30 1537 H 145.795 4.10271 1.64713 0
M  V30 1538 N 144.854 0.36279 1.53368 0
M  V30 1539 C 146.265 -0.117022 1.86333 0
M  V30 1540 C 146.616 -1.48397 1.28347 0
M  V30 1541 O 145.741 -2.07787 0.604428 0
M  V30 1542 C 146.336 -0.21912 3.38091 0
M  V30 1543 C 144.895 -0.643184 3.70864 0
M  V30 1544 C 144.042 0.211318 2.76494 0
M  V30 1545 H 146.993 0.581687 1.47655 0
M  V30 1546 H 147.014 -1.04319 3.6592 0
M  V30 1547 H 146.526 0.775902 3.80265 0
M  V30 1548 H 144.627 -1.64654 3.34245 0
M  V30 1549 H 144.74 -0.41973 4.77258 0
M  V30 1550 H 143.104 -0.319367 2.5269 0
M  V30 1551 H 143.887 1.20383 3.21501 0
M  V30 1552 N 146.332 -1.57332 0.0918853 0
M  V30 1553 C 147.609 -1.85691 -0.614668 0
M  V30 1554 C 147.989 -0.988146 -1.86545 0
M  V30 1555 O 147.337 -0.0597055 -2.28422 0
M  V30 1556 C 147.547 -3.36294 -0.933126 0
M  V30 1557 C 148.895 -4.04275 -1.29796 0
M  V30 1558 O 149.919 -3.41157 -1.02424 0
M  V30 1559 O 148.778 -5.1564 -1.81047 0
M  V30 1560 H 145.872 -0.767802 -0.307261 0
M  V30 1561 H 148.418 -1.69244 0.12434 0
M  V30 1562 H 147.19 -3.91273 -0.0456404 0
M  V30 1563 H 146.813 -3.58076 -1.72822 0
M  V30 1564 N 147.81 0.181792 -1.56548 0
M  V30 1565 C 149.056 0.901431 -1.81665 0
M  V30 1566 C 149.389 1.82347 -0.668075 0
M  V30 1567 O 148.664 1.91669 0.330615 0
M  V30 1568 C 148.947 1.70618 -3.17115 0
M  V30 1569 C 148.8 0.807964 -4.42484 0
M  V30 1570 C 150.119 2.67605 -3.49393 0
M  V30 1571 H 147.238 0.32627 -0.660846 0
M  V30 1572 H 149.88 0.168134 -1.89255 0
M  V30 1573 H 148.03 2.33133 -3.10775 0
M  V30 1574 H 149.702 0.19649 -4.60881 0
M  V30 1575 H 147.945 0.115411 -4.33646 0
M  V30 1576 H 148.616 1.40632 -5.33785 0
M  V30 1577 H 151.092 2.15218 -3.56118 0
M  V30 1578 H 149.968 3.20985 -4.45264 0
M  V30 1579 H 150.229 3.47298 -2.73563 0
M  V30 1580 N 149.288 1.51039 0.449983 0
M  V30 1581 C 150.699 1.557 1.03026 0
M  V30 1582 C 151.05 0.372939 1.92623 0
M  V30 1583 O 150.175 -0.511771 2.10261 0
M  V30 1584 C 150.77 2.82171 1.87523 0
M  V30 1585 C 149.329 2.89444 2.40622 0
M  V30 1586 C 148.476 2.50228 1.19504 0
M  V30 1587 H 151.427 1.56999 0.231745 0
M  V30 1588 H 151.448 2.65219 2.72835 0
M  V30 1589 H 150.96 3.68331 1.22286 0
M  V30 1590 H 149.061 2.07685 3.0935 0
M  V30 1591 H 149.174 3.92816 2.74285 0
M  V30 1592 H 147.538 2.03139 1.53644 0
M  V30 1593 H 148.321 3.38719 0.558972 0
M  V30 1594 N 150.766 -0.704594 1.40972 0
M  V30 1595 C 152.013 -1.46458 1.39844 0
M  V30 1596 C 152.341 -1.94499 0.00447594 0
M  V30 1597 O 151.596 -1.69275 -0.982057 0
M  V30 1598 C 151.895 -2.698 2.34399 0
M  V30 1599 C 151.561 -2.40464 3.81429 0
M  V30 1600 C 150.223 -2.32174 4.21484 0
M  V30 1601 C 152.575 -2.16086 4.74296 0
M  V30 1602 C 149.903 -1.97589 5.52427 0
M  V30 1603 C 152.255 -1.83011 6.05549 0
M  V30 1604 C 150.919 -1.7321 6.44635 0
M  V30 1605 H 150.189 -0.535927 0.511725 0
M  V30 1606 H 152.836 -0.806124 1.73706 0
M  V30 1607 H 151.141 -3.40536 1.93759 0
M  V30 1608 H 152.838 -3.27919 2.30804 0
M  V30 1609 H 149.428 -2.47808 3.49699 0
M  V30 1610 H 153.612 -2.2144 4.4416 0
M  V30 1611 H 148.868 -1.88547 5.81601 0
M  V30 1612 H 153.042 -1.63164 6.77016 0
M  V30 1613 H 150.669 -1.46179 7.46013 0
M  V30 1614 N 152.244 -1.26651 -0.937939 0
M  V30 1615 C 153.521 -1.0313 -1.66204 0
M  V30 1616 C 153.901 0.437256 -2.06522 0
M  V30 1617 O 153.249 1.41831 -1.79154 0
M  V30 1618 C 153.459 -1.98314 -2.87181 0
M  V30 1619 C 154.807 -2.27107 -3.58758 0
M  V30 1620 O 155.831 -1.96205 -2.97291 0
M  V30 1621 O 154.69 -2.79736 -4.69479 0
M  V30 1622 H 151.784 -0.392384 -0.727986 0
M  V30 1623 H 154.33 -1.37874 -0.989382 0
M  V30 1624 H 153.102 -2.97399 -2.54302 0
M  V30 1625 H 152.725 -1.64068 -3.6217 0
M  V30 1626 N 153.722 1.14298 -1.08507 0
M  V30 1627 C 154.999 1.81544 -0.728088 0
M  V30 1628 C 155.379 1.95838 0.78808 0
M  V30 1629 O 154.727 1.51904 1.70697 0
M  V30 1630 C 154.937 3.17169 -1.45619 0
M  V30 1631 C 156.285 3.9265 -1.61591 0
M  V30 1632 O 157.309 3.26762 -1.41793 0
M  V30 1633 O 156.168 5.10807 -1.94263 0
M  V30 1634 H 153.262 0.78491 -0.260471 0
M  V30 1635 H 155.808 1.21307 -1.18671 0
M  V30 1636 H 154.58 3.01934 -2.489 0
M  V30 1637 H 154.203 3.851 -0.989124 0
M  V30 1638 N 155.201 0.870884 1.31352 0
M  V30 1639 C 156.478 0.402907 1.91405 0
M  V30 1640 C 156.858 -1.11512 1.79244 0
M  V30 1641 O 156.206 -1.94411 1.2007 0
M  V30 1642 C 156.416 0.885301 3.37585 0
M  V30 1643 C 157.764 0.911971 4.14691 0
M  V30 1644 O 158.788 0.831016 3.46371 0
M  V30 1645 O 157.647 1.02927 5.3672 0
M  V30 1646 H 154.741 0.120698 0.818145 0
M  V30 1647 H 157.287 0.958857 1.40014 0
M  V30 1648 H 156.059 1.92889 3.40455 0
M  V30 1649 H 155.682 0.307714 3.96407 0
M  V30 1650 N 156.679 -1.44442 0.630414 0
M  V30 1651 C 157.627 -2.32437 -0.0871428 0
M  V30 1652 C 158.621 -1.47304 -0.836525 0
M  V30 1653 O 159.827 -1.63653 -0.749506 0
M  V30 1654 H 156.202 -0.750533 -0.0469495 0
M  V30 1655 H 158.173 -2.90709 0.673096 0
M  V30 1656 C 156.922 -3.31288 -1.05563 0
M  V30 1657 H 156.245 -3.96805 -0.488426 0
M  V30 1658 H 157.685 -3.9554 -1.52721 0
M  V30 1659 C 156.144 -2.6016 -2.14052 0
M  V30 1660 O 156.674 -2.39997 -3.22124 0
M  V30 1661 N 154.88 -2.19911 -1.89967 0
M  V30 1662 H 154.427 -2.36509 -1.02085 0
M  V30 1663 H 154.385 -1.72646 -2.62756 0
M  V30 1664 O 158.196 -0.513116 -1.53132 0
M  V30 1665 H 158.887 0.00131156 -1.937 0
M  V30 END ATOM
M  V30 BEGIN BOND
M  V30 END BOND
M  V30 END CTAB
M  END
$$$$
