drugbank_target|Q04609 Glutamate carboxypeptidase 2 (DB00089; DB00142; DB06928; DB07754; DB08835)
 OpenBabel12092119343D

  0  0  0     0  0            999 V3000
M  V30 BEGIN CTAB
M  V30 COUNTS 11785 11956 0 0 0
M  V30 BEGIN ATOM
M  V30 1 H -0.908 1.98254 -0.117106 0
M  V30 2 N 0 1.576 0 0
M  V30 3 C 0.933 2.03868 1.02534 0
M  V30 4 C 1.911 0.928543 1.3348 0
M  V30 5 O 3.095 1.19667 1.45644 0
M  V30 6 C 0.222 2.43627 2.35294 0
M  V30 7 C -0.732 3.65373 2.2001 0
M  V30 8 S 0.101 5.13292 1.52614 0
M  V30 9 C 1.257 5.56322 2.86805 0
M  V30 10 H 1.49 2.90518 0.631377 0
M  V30 11 H -0.977 1.52953 0.210867 0
M  V30 12 H 0.981 2.67203 3.11629 0
M  V30 13 H -0.358 1.57376 2.7183 0
M  V30 14 H -1.165 3.90944 3.18086 0
M  V30 15 H -1.563 3.418 1.51819 0
M  V30 16 H 0.729 5.58782 3.83104 0
M  V30 17 H 1.672 6.56266 2.65933 0
M  V30 18 H 2.08 4.83886 2.90714 0
M  V30 19 N 1.4781 -0.272755 1.55222 0
M  V30 20 C 2.7241 -1.00172 1.77023 0
M  V30 21 C 3.0791 -1.83928 0.564633 0
M  V30 22 O 2.3721 -1.86416 -0.442674 0
M  V30 23 C 2.5661 -1.91642 3.01675 0
M  V30 24 C 2.3951 -1.16888 4.34243 0
M  V30 25 C 1.1651 -0.884464 4.97499 0
M  V30 26 C 3.3631 -0.55919 5.11251 0
M  V30 27 N 1.3451 -0.11015 6.13801 0
M  V30 28 C 2.7161 0.0809469 6.19947 0
M  V30 29 C 4.7711 -0.467058 4.95705 0
M  V30 30 C 3.4741 0.804335 7.14789 0
M  V30 31 C 5.5001 0.242739 5.90902 0
M  V30 32 C 4.8621 0.871613 6.98987 0
M  V30 33 H 0.9611 -0.348529 0.700037 0
M  V30 34 H 3.5451 -0.277365 1.92714 0
M  V30 35 H 1.7161 -2.61303 2.87359 0
M  V30 36 H 3.4481 -2.57901 3.1188 0
M  V30 37 H 0.2031 -1.18979 4.58411 0
M  V30 38 H 0.6271 0.264344 6.76484 0
M  V30 39 H 5.2691 -0.93894 4.12242 0
M  V30 40 H 2.9871 1.2879 7.97771 0
M  V30 41 H 6.5731 0.314347 5.8095 0
M  V30 42 H 5.4531 1.4121 7.71381 0
M  V30 43 N 2.9562 -1.48159 -0.537278 0
M  V30 44 C 3.9042 -1.62573 -1.66352 0
M  V30 45 C 4.8982 -0.492366 -1.62087 0
M  V30 46 O 6.1042 -0.670847 -1.67032 0
M  V30 47 H 2.4792 -0.511992 -0.550789 0
M  V30 48 H 4.4502 -2.57176 -1.51337 0
M  V30 49 C 3.1992 -1.67583 -3.04649 0
M  V30 50 H 2.5222 -2.54151 -3.08622 0
M  V30 51 H 3.9622 -1.81713 -3.83088 0
M  V30 52 C 2.4212 -0.413039 -3.34358 0
M  V30 53 O 2.9512 0.477259 -3.98855 0
M  V30 54 N 1.1572 -0.286961 -2.8918 0
M  V30 55 H 0.7042 -1.01241 -2.36871 0
M  V30 56 H 0.6622 0.556963 -3.09427 0
M  V30 57 N 4.4343 0.785586 -1.36625 0
M  V30 58 C 5.3643 1.91259 -1.33949 0
M  V30 59 C 6.3453 1.68795 -0.210325 0
M  V30 60 O 7.5303 1.89854 -0.408561 0
M  V30 61 C 4.6603 3.28339 -1.13186 0
M  V30 62 C 3.6143 3.65335 -2.22967 0
M  V30 63 C 2.9403 5.00806 -1.87342 0
M  V30 64 C 4.2403 3.7352 -3.65075 0
M  V30 65 H 5.9343 1.93755 -2.28253 0
M  V30 66 H 3.4803 0.930788 -1.09874 0
M  V30 67 H 5.4333 4.06804 -1.09948 0
M  V30 68 H 4.1573 3.2624 -0.153332 0
M  V30 69 H 2.8163 2.89169 -2.25337 0
M  V30 70 H 2.4643 4.95233 -0.880545 0
M  V30 71 H 2.1643 5.26529 -2.60846 0
M  V30 72 H 3.6883 5.81687 -1.85667 0
M  V30 73 H 5.1023 4.42168 -3.64911 0
M  V30 74 H 3.4993 4.10731 -4.37516 0
M  V30 75 H 4.5693 2.74527 -3.99703 0
M  V30 76 N 5.9124 1.20967 1.01018 0
M  V30 77 C 6.8424 0.988272 2.11555 0
M  V30 78 C 7.8234 -0.0849778 1.69888 0
M  V30 79 O 9.0084 0.0738202 1.9406 0
M  V30 80 C 6.1384 0.546528 3.42973 0
M  V30 81 C 5.0924 1.56375 3.9841 0
M  V30 82 C 4.4184 0.97842 5.25672 0
M  V30 83 C 5.7184 2.94922 4.31066 0
M  V30 84 H 7.4124 1.91276 2.30334 0
M  V30 85 H 4.9584 0.921073 1.1069 0
M  V30 86 H 6.9114 0.378839 4.19694 0
M  V30 87 H 5.6354 -0.413598 3.23971 0
M  V30 88 H 4.2944 1.71891 3.23804 0
M  V30 89 H 3.9424 0.0101688 5.02999 0
M  V30 90 H 3.6424 1.65784 5.63728 0
M  V30 91 H 5.1664 0.821939 6.05043 0
M  V30 92 H 6.5804 2.8288 4.9865 0
M  V30 93 H 4.9774 3.5983 4.80253 0
M  V30 94 H 6.0474 3.4616 3.39561 0
M  V30 95 N 7.3905 -1.2043 1.01659 0
M  V30 96 C 8.3405 -2.21076 0.557623 0
M  V30 97 C 9.3245 -1.56176 -0.387029 0
M  V30 98 O 10.5165 -1.7575 -0.209996 0
M  V30 99 C 7.6455 -3.43146 -0.102707 0
M  V30 100 C 6.7315 -4.15213 0.863652 0
M  V30 101 N 7.1225 -4.63662 2.02117 0
M  V30 102 C 5.4205 -4.40716 0.684472 0
M  V30 103 C 6.1215 -5.18868 2.62966 0
M  V30 104 N 5.0975 -5.0893 1.91027 0
M  V30 105 H 8.8995 -2.56201 1.44008 0
M  V30 106 H 6.4135 -1.36366 0.881931 0
M  V30 107 H 8.4105 -4.14475 -0.449054 0
M  V30 108 H 7.0705 -3.09526 -0.981003 0
M  V30 109 H 8.0815 -4.58877 2.40109 0
M  V30 110 H 4.7585 -4.17245 -0.14577 0
M  V30 111 H 6.1485 -5.6673 3.60924 0
M  V30 112 N 8.8686 -0.792821 -1.36206 0
M  V30 113 C 9.7786 -0.194808 -2.3379 0
M  V30 114 C 10.7946 0.654869 -1.61206 0
M  V30 115 O 11.9706 0.569856 -1.9317 0
M  V30 116 C 9.0356 0.657721 -3.40404 0
M  V30 117 C 8.0966 -0.210849 -4.28782 0
M  V30 118 C 7.3296 0.601086 -5.30304 0
M  V30 119 O 7.5526 1.83682 -5.40016 0
M  V30 120 O 6.4866 -0.000808277 -6.019 0
M  V30 121 H 10.3126 -1.00172 -2.86704 0
M  V30 122 H 7.8976 -0.554341 -1.38735 0
M  V30 123 H 9.7796 1.14375 -4.05581 0
M  V30 124 H 8.4546 1.44247 -2.89784 0
M  V30 125 H 7.3616 -0.743714 -3.66633 0
M  V30 126 H 8.6946 -0.959195 -4.82763 0
M  V30 127 N 10.3467 1.47872 -0.545128 0
M  V30 128 C 11.5747 2.06889 -0.021084 0
M  V30 129 C 11.9897 1.39955 1.2672 0
M  V30 130 O 11.3467 0.492036 1.75742 0
M  V30 131 C 11.3977 3.60996 0.190817 0
M  V30 132 O 11.1187 4.25419 -1.04644 0
M  V30 133 C 12.6197 4.36849 0.753521 0
M  V30 134 H 9.8397 0.669785 -0.0403635 0
M  V30 135 H 12.3837 1.90049 -0.755095 0
M  V30 136 H 10.5387 3.77391 0.87492 0
M  V30 137 H 10.9527 5.17785 -0.836611 0
M  V30 138 H 12.4267 5.45399 0.851139 0
M  V30 139 H 12.9037 4.02306 1.762 0
M  V30 140 H 13.5097 4.25169 0.105503 0
M  V30 141 N 11.8248 0.280983 1.55075 0
M  V30 142 C 13.1018 -0.386207 1.91749 0
M  V30 143 C 13.4818 -1.73264 1.20594 0
M  V30 144 O 12.8298 -2.26034 0.334784 0
M  V30 145 C 13.0398 -0.520687 3.45094 0
M  V30 146 C 14.3878 -0.800865 4.16979 0
M  V30 147 O 15.4118 -0.605271 3.5102 0
M  V30 148 O 14.2708 -1.1753 5.33712 0
M  V30 149 H 11.3648 -0.212408 0.799257 0
M  V30 150 H 13.9108 0.327568 1.66509 0
M  V30 151 H 12.6828 0.426633 3.88967 0
M  V30 152 H 12.3058 -1.2837 3.76307 0
M  V30 153 N 13.3029 -1.57598 0.00835791 0
M  V30 154 C 14.5279 -1.95617 -0.689103 0
M  V30 155 C 14.9529 -0.883753 -1.66046 0
M  V30 156 O 14.3109 0.157352 -1.80616 0
M  V30 157 C 14.3589 -3.32736 -1.38994 0
M  V30 158 O 13.4629 -3.27631 -2.50463 0
M  V30 159 H 12.8039 -0.638379 -0.182668 0
M  V30 160 H 15.3339 -2.045 0.064036 0
M  V30 161 H 15.3439 -3.68494 -1.75147 0
M  V30 162 H 14.0189 -4.1034 -0.677778 0
M  V30 163 H 12.5959 -3.03561 -2.16576 0
M  V30 164 N 14.781 0.264519 -1.55364 0
M  V30 165 C 15.744 1.31046 -1.88042 0
M  V30 166 C 16.744 1.41943 -0.755569 0
M  V30 167 O 17.934 1.40947 -1.02369 0
M  V30 168 C 15.066 2.69067 -2.09323 0
M  V30 169 H 16.259 1.03297 -2.81549 0
M  V30 170 H 13.812 0.502989 -1.47986 0
M  V30 171 H 14.547 3.01982 -1.18226 0
M  V30 172 H 14.332 2.62542 -2.91229 0
M  V30 173 H 15.822 3.44623 -2.35848 0
M  V30 174 N 16.2591 1.48442 0.529413 0
M  V30 175 C 17.5051 1.5672 1.28711 0
M  V30 176 C 17.8381 0.2406 1.92704 0
M  V30 177 O 17.1131 -0.753454 1.79313 0
M  V30 178 C 17.3961 2.70587 2.37603 0
M  V30 179 C 17.2491 4.12953 1.78297 0
M  V30 180 C 18.5681 2.80212 3.39366 0
M  V30 181 H 15.6871 0.570474 0.466613 0
M  V30 182 H 18.3291 1.80617 0.589706 0
M  V30 183 H 16.4791 2.50342 2.97088 0
M  V30 184 H 18.1511 4.44639 1.22858 0
M  V30 185 H 16.3941 4.19927 1.0883 0
M  V30 186 H 17.0651 4.88448 2.57144 0
M  V30 187 H 19.5411 2.98553 2.89836 0
M  V30 188 H 18.4171 3.61611 4.12951 0
M  V30 189 H 18.6781 1.88393 3.99951 0
M  V30 190 N 17.7372 -0.778329 1.37039 0
M  V30 191 C 18.7002 -1.87301 1.32102 0
M  V30 192 C 19.7002 -1.59198 0.226405 0
M  V30 193 O 20.8902 -1.67403 0.481861 0
M  V30 194 C 18.0222 -3.24309 1.05055 0
M  V30 195 H 19.2152 -1.93093 2.29467 0
M  V30 196 H 16.7682 -0.977358 1.21973 0
M  V30 197 H 17.5032 -3.24196 0.0819373 0
M  V30 198 H 17.2882 -3.46098 1.84279 0
M  V30 199 H 18.7782 -4.04382 1.04234 0
M  V30 200 N 19.2153 -1.21501 -1.00376 0
M  V30 201 C 20.4433 -1.059 -1.77744 0
M  V30 202 C 20.8583 0.391125 -1.84704 0
M  V30 203 O 20.2153 1.27133 -1.30933 0
M  V30 204 C 20.2663 -1.65111 -3.21591 0
M  V30 205 O 19.9873 -3.0445 -3.15027 0
M  V30 206 C 21.4883 -1.54637 -4.15454 0
M  V30 207 H 18.7083 -0.371825 -0.558558 0
M  V30 208 H 21.2523 -1.60865 -1.26264 0
M  V30 209 H 19.4073 -1.14235 -3.70175 0
M  V30 210 H 19.8213 -3.3278 -4.0541 0
M  V30 211 H 21.2953 -2.00808 -5.14179 0
M  V30 212 H 21.7723 -0.501022 -4.36333 0
M  V30 213 H 22.3783 -2.04767 -3.72761 0
M  V30 214 N 20.6934 1.19889 -1.02296 0
M  V30 215 C 21.6564 2.21116 -0.603351 0
M  V30 216 C 22.6564 1.5738 0.329884 0
M  V30 217 O 23.8464 1.73802 0.117702 0
M  V30 218 C 20.9784 3.40696 0.117992 0
M  V30 219 H 22.1714 2.59754 -1.49893 0
M  V30 220 H 19.7244 1.33463 -0.813468 0
M  V30 221 H 20.4594 3.07569 1.0282 0
M  V30 222 H 20.2444 3.88188 -0.552511 0
M  V30 223 H 21.7344 4.15692 0.398696 0
M  V30 224 N 22.1715 0.800033 1.35784 0
M  V30 225 C 23.5875 0.482977 1.52117 0
M  V30 226 C 23.7875 -0.996948 1.75109 0
M  V30 227 O 22.8435 -1.78216 1.78872 0
M  V30 228 C 24.1565 1.32264 2.70049 0
M  V30 229 C 25.7045 1.31742 2.83924 0
M  V30 230 C 26.1795 2.14106 4.04874 0
M  V30 231 N 27.6705 2.11607 4.12039 0
M  V30 232 C 28.4055 2.72099 5.04727 0
M  V30 233 N 27.9015 3.41492 6.02789 0
M  V30 234 N 29.6945 2.61776 4.97423 0
M  V30 235 H 21.8455 1.75856 1.19115 0
M  V30 236 H 24.1085 0.748122 0.582252 0
M  V30 237 H 23.8145 2.37261 2.59616 0
M  V30 238 H 23.6885 0.971303 3.6448 0
M  V30 239 H 26.0755 0.275333 2.93813 0
M  V30 240 H 26.1565 1.70859 1.9037 0
M  V30 241 H 25.8005 3.18351 3.95746 0
M  V30 242 H 25.7305 1.72353 4.97596 0
M  V30 243 H 28.2215 1.61112 3.41835 0
M  V30 244 H 28.5345 3.84953 6.70098 0
M  V30 245 H 26.8795 3.45596 6.02983 0
M  V30 246 H 30.0705 2.07157 4.19766 0
M  V30 247 H 30.2435 3.0921 5.69468 0
M  V30 248 N 23.6496 -1.47581 0.552962 0
M  V30 249 C 25.0656 -1.5818 0.212424 0
M  V30 250 C 25.2656 -1.55213 -1.28496 0
M  V30 251 O 24.3216 -1.45329 -2.06484 0
M  V30 252 C 25.6346 -2.88865 0.835318 0
M  V30 253 C 27.1826 -3.0244 0.806156 0
M  V30 254 C 27.6576 -4.35819 1.40804 0
M  V30 255 N 29.1486 -4.42444 1.37103 0
M  V30 256 C 29.8836 -5.44202 1.80641 0
M  V30 257 N 29.3796 -6.52795 2.32015 0
M  V30 258 N 31.1726 -5.35222 1.71738 0
M  V30 259 H 23.3236 -1.47753 1.52587 0
M  V30 260 H 25.5866 -0.702941 0.636064 0
M  V30 261 H 25.2926 -2.9676 1.88749 0
M  V30 262 H 25.1666 -3.7579 0.325848 0
M  V30 263 H 27.5536 -2.94144 -0.237317 0
M  V30 264 H 27.6346 -2.17068 1.35334 0
M  V30 265 H 27.2786 -4.44871 2.45056 0
M  V30 266 H 27.2086 -5.19916 0.836338 0
M  V30 267 H 29.6996 -3.6456 0.995202 0
M  V30 268 H 30.0126 -7.26609 2.63171 0
M  V30 269 H 28.3576 -6.53696 2.36023 0
M  V30 270 H 31.5486 -4.49284 1.31382 0
M  V30 271 H 31.7216 -6.14389 2.05987 0
M  V30 272 N 25.1277 -0.289203 -1.54924 0
M  V30 273 C 26.5387 0.205791 -1.85562 0
M  V30 274 C 26.8897 1.54351 -1.2112 0
M  V30 275 O 26.0147 2.10435 -0.504601 0
M  V30 276 C 26.6097 0.380177 -3.3666 0
M  V30 277 C 25.1687 0.819395 -3.67373 0
M  V30 278 C 24.3157 -0.079159 -2.77187 0
M  V30 279 H 27.2667 -0.510577 -1.50262 0
M  V30 280 H 27.2877 1.21659 -3.60526 0
M  V30 281 H 26.7997 -0.593589 -3.83534 0
M  V30 282 H 24.9007 1.80413 -3.26009 0
M  V30 283 H 25.0137 0.646957 -4.74712 0
M  V30 284 H 23.3777 0.439565 -2.50878 0
M  V30 285 H 24.1607 -1.04906 -3.26878 0
M  V30 286 N 26.6058 1.57591 -0.0167156 0
M  V30 287 C 28.0218 1.55946 0.339557 0
M  V30 288 C 28.2218 1.02109 1.73713 0
M  V30 289 O 27.2778 0.662303 2.43659 0
M  V30 290 C 28.5908 3.00037 0.199499 0
M  V30 291 C 30.1388 3.11805 0.273193 0
M  V30 292 C 30.6138 4.57713 0.162068 0
M  V30 293 N 32.1048 4.6268 0.219444 0
M  V30 294 C 32.8398 5.73185 0.157054 0
M  V30 295 N 32.3358 6.92786 0.0442936 0
M  V30 296 N 34.1288 5.61707 0.21014 0
M  V30 297 H 26.2798 1.90921 -0.930758 0
M  V30 298 H 28.5428 0.877674 -0.358319 0
M  V30 299 H 28.2488 3.4333 -0.76273 0
M  V30 300 H 28.1228 3.64387 0.974786 0
M  V30 301 H 30.5098 2.68433 1.22587 0
M  V30 302 H 30.5908 2.50201 -0.532256 0
M  V30 303 H 30.2348 5.01763 -0.78714 0
M  V30 304 H 30.1648 5.17283 0.986222 0
M  V30 305 H 32.6558 3.76649 0.307246 0
M  V30 306 H 32.9688 7.728 0.00304069 0
M  V30 307 H 31.3138 6.94999 0.00968457 0
M  V30 308 H 34.5048 4.6716 0.296546 0
M  V30 309 H 34.6778 6.47807 0.158054 0
M  V30 310 N 28.0839 -0.256276 1.55502 0
M  V30 311 C 29.3299 -0.982884 1.78076 0
M  V30 312 C 29.6849 -1.83319 0.584109 0
M  V30 313 O 28.9779 -1.86875 -0.422877 0
M  V30 314 C 29.1719 -1.88432 3.03691 0
M  V30 315 C 29.0009 -1.12276 4.35459 0
M  V30 316 C 27.7709 -0.831647 4.98409 0
M  V30 317 C 29.9689 -0.504933 5.11815 0
M  V30 318 N 27.9509 -0.0450423 6.13883 0
M  V30 319 C 29.3219 0.146696 6.19826 0
M  V30 320 C 31.3769 -0.414455 4.96172 0
M  V30 321 C 30.0799 0.880103 7.13895 0
M  V30 322 C 32.1059 0.305398 5.90611 0
M  V30 323 C 31.4679 0.945701 6.98023 0
M  V30 324 H 27.5669 -0.341084 0.703694 0
M  V30 325 H 30.1509 -0.256909 1.92998 0
M  V30 326 H 28.3219 -2.58241 2.90114 0
M  V30 327 H 30.0539 -2.54579 3.14598 0
M  V30 328 H 26.8089 -1.14111 4.59647 0
M  V30 329 H 27.2329 0.336079 6.76165 0
M  V30 330 H 31.8749 -0.895163 4.13215 0
M  V30 331 H 29.5929 1.37244 7.9636 0
M  V30 332 H 33.1789 0.375946 5.80584 0
M  V30 333 H 32.0589 1.49383 7.6984 0
M  V30 334 N 29.562 -1.4872 -0.521534 0
M  V30 335 C 30.492 -1.66771 -1.63431 0
M  V30 336 C 31.473 -0.516499 -1.62069 0
M  V30 337 O 32.658 -0.750013 -1.79132 0
M  V30 338 C 29.788 -1.71515 -3.01993 0
M  V30 339 C 28.742 -2.86222 -3.18216 0
M  V30 340 C 28.068 -2.76061 -4.57924 0
M  V30 341 C 29.368 -4.27419 -3.00184 0
M  V30 342 H 31.062 -2.59932 -1.48579 0
M  V30 343 H 28.608 -1.25089 -0.713358 0
M  V30 344 H 30.561 -1.82731 -3.7972 0
M  V30 345 H 29.285 -0.749393 -3.17886 0
M  V30 346 H 27.944 -2.74575 -2.42908 0
M  V30 347 H 27.592 -1.77437 -4.70665 0
M  V30 348 H 27.292 -3.53037 -4.69722 0
M  V30 349 H 28.816 -2.89256 -5.37739 0
M  V30 350 H 30.23 -4.39855 -3.67697 0
M  V30 351 H 28.627 -5.05458 -3.2347 0
M  V30 352 H 29.697 -4.43293 -1.96518 0
M  V30 353 N 31.0401 0.771051 -1.3745 0
M  V30 354 C 32.2801 1.54264 -1.34096 0
M  V30 355 C 32.6441 1.91858 0.0737639 0
M  V30 356 O 33.8451 2.67797 0.23203 0
M  V30 357 C 32.1161 2.77326 -2.25445 0
M  V30 358 S 33.6751 3.67383 -2.39948 0
M  V30 359 H 30.4931 0.528122 -0.476034 0
M  V30 360 H 33.0951 0.906633 -1.73206 0
M  V30 361 H 31.7991 2.47788 -3.27153 0
M  V30 362 H 31.3301 3.45886 -1.87421 0
M  V30 363 H 33.3451 4.69334 -1.61059 0
M  V30 364 N 32.5182 1.22032 0.997298 0
M  V30 365 C 33.4812 0.987909 2.06816 0
M  V30 366 C 34.4812 -0.0440084 1.6074 0
M  V30 367 O 35.6712 0.194053 1.73116 0
M  V30 368 C 32.8032 0.49132 3.37341 0
M  V30 369 H 33.9962 1.93803 2.28868 0
M  V30 370 H 31.5492 1.03838 1.16822 0
M  V30 371 H 32.2842 -0.463364 3.20973 0
M  V30 372 H 32.0692 1.23575 3.72118 0
M  V30 373 H 33.5592 0.348824 4.16141 0
M  V30 374 N 33.9963 -1.19345 1.0293 0
M  V30 375 C 35.2443 -1.88665 0.724574 0
M  V30 376 C 35.5653 -1.80036 -0.749144 0
M  V30 377 O 34.8353 -1.2111 -1.53978 0
M  V30 378 H 33.4153 -0.698406 0.265025 0
M  V30 379 H 36.0773 -1.44885 1.30362 0
M  V30 380 H 35.1733 -2.94987 1.01926 0
M  V30 381 N 35.4744 -0.807222 -1.35358 0
M  V30 382 C 36.4374 -0.223665 -2.28106 0
M  V30 383 C 37.4374 0.589354 -1.4961 0
M  V30 384 O 38.6274 0.407745 -1.69361 0
M  V30 385 C 35.7594 0.688149 -3.33882 0
M  V30 386 H 36.9524 -1.04169 -2.81227 0
M  V30 387 H 34.5054 -0.577921 -1.45223 0
M  V30 388 H 35.2404 1.52984 -2.85948 0
M  V30 389 H 35.0254 0.10687 -3.91954 0
M  V30 390 H 36.5154 1.09075 -4.03104 0
M  V30 391 N 36.9525 1.47285 -0.560781 0
M  V30 392 C 37.8825 2.32857 0.173105 0
M  V30 393 C 38.8635 1.44009 0.905281 0
M  V30 394 O 40.0485 1.7286 0.885046 0
M  V30 395 C 37.1785 3.25861 1.20133 0
M  V30 396 C 36.1325 4.23978 0.585388 0
M  V30 397 C 35.4585 5.06332 1.7185 0
M  V30 398 C 36.7585 5.20242 -0.463178 0
M  V30 399 H 38.4525 2.94466 -0.541307 0
M  V30 400 H 35.9985 1.41601 -0.261764 0
M  V30 401 H 37.9515 3.84569 1.72293 0
M  V30 402 H 36.6755 2.62315 1.94573 0
M  V30 403 H 35.3345 3.66501 0.085054 0
M  V30 404 H 34.9825 4.39186 2.45203 0
M  V30 405 H 34.6825 5.72762 1.31213 0
M  V30 406 H 36.2065 5.67899 2.24329 0
M  V30 407 H 37.6205 5.73293 -0.027502 0
M  V30 408 H 36.0175 5.94896 -0.788627 0
M  V30 409 H 37.0875 4.65504 -1.35773 0
M  V30 410 N 38.4306 0.297415 1.54768 0
M  V30 411 C 39.6766 -0.313376 2.00364 0
M  V30 412 C 40.0096 -1.53815 1.18553 0
M  V30 413 O 39.2846 -1.92739 0.261103 0
M  V30 414 C 39.5676 -0.673525 3.53745 0
M  V30 415 C 39.4206 0.560133 4.46299 0
M  V30 416 C 40.7396 -1.50143 4.13697 0
M  V30 417 H 37.8586 -0.112428 0.728374 0
M  V30 418 H 40.5006 0.4088 1.8555 0
M  V30 419 H 38.6506 -1.28881 3.665 0
M  V30 420 H 40.3226 1.19863 4.45455 0
M  V30 421 H 38.5656 1.19405 4.17043 0
M  V30 422 H 39.2366 0.26405 5.51368 0
M  V30 423 H 41.7126 -0.981588 4.04356 0
M  V30 424 H 40.5886 -1.72221 5.21182 0
M  V30 425 H 40.8496 -2.48952 3.65343 0
M  V30 426 N 39.9087 -1.5758 0.0250728 0
M  V30 427 C 40.8387 -2.13007 -0.956575 0
M  V30 428 C 41.8197 -1.0452 -1.342 0
M  V30 429 O 43.0047 -1.32332 -1.42133 0
M  V30 430 C 40.1347 -2.65386 -2.24026 0
M  V30 431 C 39.0887 -3.78623 -1.99571 0
M  V30 432 C 38.4147 -4.17414 -3.3417 0
M  V30 433 C 39.7147 -5.04867 -1.33814 0
M  V30 434 H 41.4087 -2.9528 -0.494991 0
M  V30 435 H 38.9547 -1.42042 -0.236651 0
M  V30 436 H 40.9077 -3.02794 -2.93076 0
M  V30 437 H 39.6317 -1.80268 -2.72343 0
M  V30 438 H 38.2907 -3.41646 -1.32941 0
M  V30 439 H 37.9387 -3.29284 -3.80238 0
M  V30 440 H 37.6387 -4.93719 -3.18615 0
M  V30 441 H 39.1627 -4.57402 -4.04495 0
M  V30 442 H 40.5767 -5.39888 -1.92857 0
M  V30 443 H 38.9737 -5.86144 -1.28669 0
M  V30 444 H 40.0437 -4.83904 -0.310561 0
M  V30 445 N 41.3868 0.248026 -1.55636 0
M  V30 446 C 42.3498 1.29044 -1.89421 0
M  V30 447 C 43.3498 1.41134 -0.770581 0
M  V30 448 O 44.5398 1.39854 -1.03858 0
M  V30 449 C 41.6718 2.66831 -2.12165 0
M  V30 450 H 42.8648 1.00305 -2.82629 0
M  V30 451 H 40.4178 0.487265 -1.48511 0
M  V30 452 H 41.1528 3.00711 -1.21422 0
M  V30 453 H 40.9378 2.59438 -2.93997 0
M  V30 454 H 42.4278 3.42103 -2.3949 0
M  V30 455 N 42.8649 1.48995 0.513639 0
M  V30 456 C 44.1129 1.57531 1.26604 0
M  V30 457 C 44.4339 0.258236 1.93283 0
M  V30 458 O 43.7039 -0.721502 1.8213 0
M  V30 459 H 42.2839 0.580387 0.470276 0
M  V30 460 H 44.9459 1.85552 0.596373 0
M  V30 461 H 44.0419 2.36486 2.03669 0
M  V30 462 N 44.343 -0.763751 1.37857 0
M  V30 463 C 45.591 -1.51957 1.33243 0
M  V30 464 C 45.912 -1.94835 -0.0801709 0
M  V30 465 O 45.182 -1.66894 -1.02582 0
M  V30 466 H 43.762 -0.563626 0.49024 0
M  V30 467 H 46.424 -0.908504 1.7243 0
M  V30 468 H 45.52 -2.41523 1.97669 0
M  V30 469 N 45.8211 -1.22559 -0.990812 0
M  V30 470 C 47.0681 -1.05141 -1.73065 0
M  V30 471 C 47.3961 0.413191 -1.9006 0
M  V30 472 O 46.6511 1.32257 -1.44245 0
M  V30 473 C 46.9501 -1.71011 -3.13831 0
M  V30 474 C 46.6161 -3.20911 -3.16745 0
M  V30 475 C 45.2781 -3.61812 -3.17247 0
M  V30 476 C 47.6301 -4.16846 -3.12872 0
M  V30 477 C 44.9581 -4.97127 -3.1158 0
M  V30 478 C 47.3101 -5.5214 -3.08746 0
M  V30 479 C 45.9741 -5.92419 -3.07565 0
M  V30 480 H 45.2441 -0.384738 -0.633291 0
M  V30 481 H 47.8911 -1.5235 -1.16025 0
M  V30 482 H 46.1961 -1.16133 -3.74193 0
M  V30 483 H 47.8931 -1.55023 -3.69823 0
M  V30 484 H 44.4831 -2.88344 -3.17105 0
M  V30 485 H 48.6671 -3.86263 -3.11632 0
M  V30 486 H 43.9231 -5.27562 -3.09012 0
M  V30 487 H 48.0971 -6.26201 -3.04705 0
M  V30 488 H 45.7241 -6.97236 -3.02929 0
M  V30 489 N 47.2992 1.18797 -1.03562 0
M  V30 490 C 48.5462 1.8865 -0.736023 0
M  V30 491 C 48.8742 1.80041 0.735889 0
M  V30 492 O 48.1292 1.19179 1.55225 0
M  V30 493 C 48.4282 3.38692 -1.14117 0
M  V30 494 C 48.0942 3.67504 -2.6125 0
M  V30 495 C 46.7562 3.75078 -3.01447 0
M  V30 496 C 49.1082 3.80293 -3.56408 0
M  V30 497 C 46.4362 3.92915 -4.35701 0
M  V30 498 C 48.7882 3.99645 -4.90374 0
M  V30 499 C 47.4522 4.05453 -5.30249 0
M  V30 500 H 46.7222 0.690321 -0.26933 0
M  V30 501 H 49.3692 1.40641 -1.29971 0
M  V30 502 H 47.6742 3.88645 -0.496202 0
M  V30 503 H 49.3712 3.91072 -0.886789 0
M  V30 504 H 45.9612 3.62223 -2.29113 0
M  V30 505 H 50.1452 3.73779 -3.26501 0
M  V30 506 H 45.4012 3.95653 -4.66121 0
M  V30 507 H 49.5752 4.08482 -5.64017 0
M  V30 508 H 47.2022 4.19027 -6.34288 0
M  V30 509 N 48.7773 0.814389 1.34928 0
M  V30 510 C 49.7073 0.244827 2.32213 0
M  V30 511 C 50.6883 -0.634024 1.57842 0
M  V30 512 O 51.8733 -0.562676 1.8587 0
M  V30 513 C 49.0033 -0.601106 3.42058 0
M  V30 514 C 47.9573 0.179896 4.27622 0
M  V30 515 C 47.2833 -0.788237 5.28858 0
M  V30 516 C 48.5833 1.38329 5.03649 0
M  V30 517 H 50.2773 1.05763 2.80097 0
M  V30 518 H 47.8233 0.510029 1.34665 0
M  V30 519 H 49.7763 -1.00968 4.09125 0
M  V30 520 H 48.5003 -1.44688 2.92802 0
M  V30 521 H 47.1593 0.569739 3.62146 0
M  V30 522 H 46.8073 -1.62973 4.75866 0
M  V30 523 H 46.5073 -0.269942 5.8698 0
M  V30 524 H 48.0313 -1.19485 5.98795 0
M  V30 525 H 49.4453 1.04918 5.63618 0
M  V30 526 H 47.8423 1.83662 5.71304 0
M  V30 527 H 48.9123 2.16592 4.33839 0
M  V30 528 N 50.2554 -1.46986 0.568584 0
M  V30 529 C 51.1854 -2.32946 -0.160753 0
M  V30 530 C 52.1664 -1.44487 -0.897631 0
M  V30 531 O 53.3514 -1.73327 -0.875867 0
M  V30 532 C 50.4814 -3.26494 -1.18403 0
M  V30 533 C 49.4354 -4.24282 -0.562895 0
M  V30 534 C 48.7614 -5.07236 -1.69163 0
M  V30 535 C 50.0614 -5.19989 0.490761 0
M  V30 536 H 51.7554 -2.94175 0.556916 0
M  V30 537 H 49.3014 -1.4146 0.26927 0
M  V30 538 H 51.2544 -3.85477 -1.70251 0
M  V30 539 H 49.9784 -2.63343 -1.93179 0
M  V30 540 H 48.6374 -3.66541 -0.0656164 0
M  V30 541 H 48.2854 -4.4048 -2.42871 0
M  V30 542 H 47.9854 -5.7345 -1.28174 0
M  V30 543 H 49.5094 -5.6908 -2.21314 0
M  V30 544 H 50.9234 -5.73271 0.0579047 0
M  V30 545 H 49.3204 -5.94469 0.820165 0
M  V30 546 H 50.3904 -4.64777 1.3824 0
M  V30 547 N 51.7335 -0.305618 -1.54608 0
M  V30 548 C 52.9815 0.301701 -1.99835 0
M  V30 549 C 53.3025 1.54054 -1.19551 0
M  V30 550 O 52.5725 1.93702 -0.292658 0
M  V30 551 H 51.1525 0.114468 -0.738178 0
M  V30 552 H 53.8145 -0.418016 -1.90364 0
M  V30 553 H 52.9105 0.570548 -3.06841 0
M  V30 554 N 53.2116 1.57565 -0.0334293 0
M  V30 555 C 54.4586 1.91978 0.644272 0
M  V30 556 C 54.7866 0.910231 1.71887 0
M  V30 557 O 54.0416 -0.0801961 1.95536 0
M  V30 558 C 54.3406 3.33112 1.29504 0
M  V30 559 C 54.0066 4.49537 0.350388 0
M  V30 560 C 52.6686 4.81115 0.0903974 0
M  V30 561 C 55.0206 5.20347 -0.298032 0
M  V30 562 C 52.3486 5.8086 -0.825746 0
M  V30 563 C 54.7006 6.2107 -1.20226 0
M  V30 564 C 53.3646 6.51088 -1.4711 0
M  V30 565 H 52.6346 0.702496 0.235756 0
M  V30 566 H 55.2816 1.91259 -0.0961176 0
M  V30 567 H 53.5866 3.30113 2.11028 0
M  V30 568 H 55.2836 3.57011 1.82603 0
M  V30 569 H 51.8736 4.24883 0.563205 0
M  V30 570 H 56.0576 4.96178 -0.110234 0
M  V30 571 H 51.3136 6.02461 -1.04169 0
M  V30 572 H 55.4876 6.75057 -1.71086 0
M  V30 573 H 53.1146 7.28193 -2.18264 0
M  V30 574 N 54.6897 -0.239769 1.55765 0
M  V30 575 C 55.6197 -1.30052 1.9393 0
M  V30 576 C 56.6007 -1.49839 0.805132 0
M  V30 577 O 57.7857 -1.62328 1.06599 0
M  V30 578 C 54.9157 -2.65391 2.2402 0
M  V30 579 C 53.8697 -2.60289 3.39755 0
M  V30 580 C 53.1957 -3.99489 3.55405 0
M  V30 581 C 54.4957 -2.16654 4.75246 0
M  V30 582 H 56.1897 -0.983573 2.82783 0
M  V30 583 H 53.7357 -0.471701 1.36055 0
M  V30 584 H 55.6887 -3.3974 2.49308 0
M  V30 585 H 54.4127 -2.98736 1.32 0
M  V30 586 H 53.0717 -1.88398 3.14487 0
M  V30 587 H 52.7197 -4.30112 2.60793 0
M  V30 588 H 52.4197 -3.96962 4.33238 0
M  V30 589 H 53.9437 -4.75528 3.83022 0
M  V30 590 H 55.3577 -2.80737 4.99859 0
M  V30 591 H 53.7547 -2.25223 5.56232 0
M  V30 592 H 54.8247 -1.11835 4.71827 0
M  V30 593 N 56.1678 -1.49265 -0.50573 0
M  V30 594 C 57.4148 -1.58513 -1.26015 0
M  V30 595 C 57.7428 -0.26972 -1.92621 0
M  V30 596 O 56.9978 0.741997 -1.81088 0
M  V30 597 C 57.2968 -2.69008 -2.35308 0
M  V30 598 C 56.9628 -4.10662 -1.86192 0
M  V30 599 C 55.6248 -4.49212 -1.72516 0
M  V30 600 C 57.9768 -4.99336 -1.49375 0
M  V30 601 C 55.3048 -5.74214 -1.20394 0
M  V30 602 C 57.6568 -6.24852 -0.987072 0
M  V30 603 C 56.3208 -6.62236 -0.836669 0
M  V30 604 H 55.5908 -0.580041 -0.461122 0
M  V30 605 H 58.2378 -1.83078 -0.561665 0
M  V30 606 H 56.5428 -2.38396 -3.10926 0
M  V30 607 H 58.2398 -2.73373 -2.93374 0
M  V30 608 H 54.8298 -3.8023 -1.97795 0
M  V30 609 H 59.0138 -4.70212 -1.5879 0
M  V30 610 H 54.2698 -6.01883 -1.07458 0
M  V30 611 H 58.4438 -6.92944 -0.692983 0
M  V30 612 H 56.0708 -7.58979 -0.430607 0
M  V30 613 N 57.6459 0.756429 -1.3826 0
M  V30 614 C 58.8939 1.51248 -1.34047 0
M  V30 615 C 59.2149 1.94875 0.0698372 0
M  V30 616 O 58.4849 1.67436 1.01696 0
M  V30 617 H 57.0649 0.561018 -0.493222 0
M  V30 618 H 59.7269 0.899347 -1.7291 0
M  V30 619 H 58.8229 2.40472 -1.98947 0
M  V30 620 N 59.124 1.23083 0.984299 0
M  V30 621 C 60.37 1.07221 1.72845 0
M  V30 622 C 60.725 -0.387453 1.88458 0
M  V30 623 O 60.018 -1.28309 1.42293 0
M  V30 624 C 60.212 1.72673 3.1292 0
M  V30 625 C 60.041 3.24853 3.10967 0
M  V30 626 C 58.811 3.93998 3.16376 0
M  V30 627 C 61.009 4.21674 2.94441 0
M  V30 628 N 58.991 5.33192 3.04268 0
M  V30 629 C 60.362 5.47756 2.90453 0
M  V30 630 C 62.417 4.12457 2.78897 0
M  V30 631 C 61.12 6.6568 2.72512 0
M  V30 632 C 63.146 5.3004 2.62319 0
M  V30 633 C 62.508 6.55046 2.59026 0
M  V30 634 H 58.607 0.44685 0.641755 0
M  V30 635 H 61.191 1.55753 1.16829 0
M  V30 636 H 59.362 1.26679 3.67161 0
M  V30 637 H 61.094 1.49824 3.75945 0
M  V30 638 H 57.849 3.45052 3.24401 0
M  V30 639 H 58.273 6.06157 3.015 0
M  V30 640 H 62.915 3.16588 2.80235 0
M  V30 641 H 60.633 7.61689 2.69919 0
M  V30 642 H 64.219 5.24747 2.5126 0
M  V30 643 H 63.099 7.44498 2.46357 0
M  V30 644 N 60.6021 -1.18246 1.0419 0
M  V30 645 C 61.8491 -1.88257 0.746017 0
M  V30 646 C 62.1771 -1.80429 -0.726331 0
M  V30 647 O 61.4321 -1.2 -1.54591 0
M  V30 648 C 61.7311 -3.38082 1.15911 0
M  V30 649 C 61.3971 -3.66114 2.63195 0
M  V30 650 C 60.0591 -3.73474 3.03432 0
M  V30 651 C 62.4111 -3.78398 3.5842 0
M  V30 652 C 59.7391 -3.90599 4.37778 0
M  V30 653 C 62.0911 -3.97039 4.92487 0
M  V30 654 C 60.7551 -4.02635 5.32392 0
M  V30 655 H 60.0251 -0.688883 0.272987 0
M  V30 656 H 62.6721 -1.3995 1.30715 0
M  V30 657 H 60.9771 -3.88377 0.516806 0
M  V30 658 H 62.6741 -3.90596 0.907516 0
M  V30 659 H 59.2641 -3.61003 2.3103 0
M  V30 660 H 63.4481 -3.72042 3.28479 0
M  V30 661 H 58.7041 -3.93175 4.68213 0
M  V30 662 H 62.8781 -4.05486 5.66175 0
M  V30 663 H 60.5051 -4.15657 6.36501 0
M  V30 664 N 62.0802 -0.821533 -1.34494 0
M  V30 665 C 63.3292 -0.405355 -1.97585 0
M  V30 666 C 63.6422 1.03677 -1.65863 0
M  V30 667 O 64.8482 1.55679 -2.22433 0
M  V30 668 C 63.3042 -0.673861 -3.53535 0
M  V30 669 C 62.9122 -2.12951 -3.94152 0
M  V30 670 C 64.6562 -0.32378 -4.23263 0
M  V30 671 C 62.5632 -2.34298 -5.43009 0
M  V30 672 H 61.4932 -0.147836 -0.739365 0
M  V30 673 H 64.1442 -1.00769 -1.53355 0
M  V30 674 H 62.5262 -0.00137554 -3.96 0
M  V30 675 H 63.7002 -2.84104 -3.62797 0
M  V30 676 H 62.0152 -2.44089 -3.37356 0
M  V30 677 H 64.6122 -0.461126 -5.32708 0
M  V30 678 H 64.9552 0.731586 -4.09821 0
M  V30 679 H 65.4882 -0.950786 -3.8627 0
M  V30 680 H 62.2272 -3.38335 -5.61435 0
M  V30 681 H 61.7472 -1.67687 -5.75883 0
M  V30 682 H 63.4262 -2.16588 -6.09671 0
M  V30 683 N 63.5583 1.46682 -0.576371 0
M  V30 684 C 64.5053 2.30241 0.160499 0
M  V30 685 C 65.4753 1.40233 0.890162 0
M  V30 686 O 66.6603 1.69186 0.882084 0
M  V30 687 C 63.8003 3.24578 1.1723 0
M  V30 688 C 62.9133 4.29684 0.446736 0
M  V30 689 C 62.0483 5.11154 1.44551 0
M  V30 690 C 61.0873 6.08015 0.70599 0
M  V30 691 N 60.2243 6.82376 1.65251 0
M  V30 692 H 65.0643 2.92727 -0.558127 0
M  V30 693 H 62.6013 1.44272 -0.287056 0
M  V30 694 H 64.5593 3.77711 1.77172 0
M  V30 695 H 63.1893 2.63916 1.85872 0
M  V30 696 H 62.2413 3.79458 -0.267594 0
M  V30 697 H 63.5533 4.98626 -0.131686 0
M  V30 698 H 62.7073 5.68533 2.11791 0
M  V30 699 H 61.4463 4.42158 2.05786 0
M  V30 700 H 60.4513 5.49796 0.0197725 0
M  V30 701 H 61.6763 6.79028 0.09912 0
M  V30 702 H 59.6223 6.16094 2.25308 0
M  V30 703 H 59.5393 7.47556 1.12673 0
M  V30 704 H 60.8073 7.44316 2.31546 0
M  V30 705 N 65.0364 0.313813 1.54444 0
M  V30 706 C 66.2614 -0.296681 2.05267 0
M  V30 707 C 66.6864 -1.45757 1.18897 0
M  V30 708 O 66.0444 -1.80239 0.195886 0
M  V30 709 C 66.0924 -0.71831 3.53373 0
M  V30 710 O 65.1964 -1.82175 3.69981 0
M  V30 711 H 64.5374 -0.0554061 0.661684 0
M  V30 712 H 67.0674 0.459387 1.99376 0
M  V30 713 H 67.0774 -1.00364 3.95463 0
M  V30 714 H 65.7524 0.130821 4.15694 0
M  V30 715 H 64.3294 -1.53598 3.39797 0
M  V30 716 N 66.5145 -1.57545 0.0417849 0
M  V30 717 C 67.7395 -1.97035 -0.647455 0
M  V30 718 C 68.1645 -0.918775 -1.64135 0
M  V30 719 O 67.5225 0.119006 -1.80909 0
M  V30 720 C 67.5705 -3.35609 -1.31905 0
M  V30 721 O 66.6745 -3.3287 -2.43457 0
M  V30 722 H 66.0155 -0.64211 -0.169086 0
M  V30 723 H 68.5455 -2.04318 0.107399 0
M  V30 724 H 68.5555 -3.72126 -1.67291 0
M  V30 725 H 67.2305 -4.11685 -0.590586 0
M  V30 726 H 65.8075 -3.08087 -2.10088 0
M  V30 727 N 67.9926 0.231505 -1.5589 0
M  V30 728 C 68.9406 1.30649 -1.92441 0
M  V30 729 C 69.9346 1.49037 -0.805254 0
M  V30 730 O 71.1406 1.50329 -0.990007 0
M  V30 731 H 67.5156 0.437812 -0.611412 0
M  V30 732 H 69.4866 0.970973 -2.82161 0
M  V30 733 C 68.2356 2.65179 -2.24889 0
M  V30 734 H 67.5586 2.51835 -3.10514 0
M  V30 735 H 68.9986 3.39234 -2.54355 0
M  V30 736 C 67.4576 3.19439 -1.07054 0
M  V30 737 O 67.9876 4.00371 -0.326499 0
M  V30 738 N 66.1936 2.77675 -0.85703 0
M  V30 739 H 65.7406 2.11969 -1.46379 0
M  V30 740 H 65.6986 3.14321 -0.0703223 0
M  V30 741 N 69.4707 1.49531 0.497807 0
M  V30 742 C 70.3807 1.69176 1.62532 0
M  V30 743 C 71.3967 0.5744 1.64246 0
M  V30 744 O 72.5727 0.849497 1.82608 0
M  V30 745 C 69.6377 1.75695 2.98885 0
M  V30 746 C 68.6987 2.9929 3.07773 0
M  V30 747 C 67.9317 3.05488 4.37622 0
M  V30 748 O 68.1547 2.19192 5.26603 0
M  V30 749 O 67.0887 3.9798 4.51548 0
M  V30 750 H 70.9147 2.647 1.48887 0
M  V30 751 H 68.4997 1.3331 0.674441 0
M  V30 752 H 70.3817 1.82317 3.79919 0
M  V30 753 H 69.0567 0.8335 3.12785 0
M  V30 754 H 67.9637 2.98183 2.25915 0
M  V30 755 H 69.2967 3.91125 2.98801 0
M  V30 756 N 70.9488 -0.749086 1.3866 0
M  V30 757 C 71.9118 -1.84457 1.36045 0
M  V30 758 C 72.9118 -1.58682 0.260122 0
M  V30 759 O 74.1018 -1.66343 0.517261 0
M  V30 760 C 71.2338 -3.22008 1.11911 0
M  V30 761 H 72.4268 -1.88182 2.33512 0
M  V30 762 H 69.9798 -0.951266 1.24019 0
M  V30 763 H 70.7148 -3.2395 0.150686 0
M  V30 764 H 70.4998 -3.42111 1.91579 0
M  V30 765 H 71.9898 -4.0208 1.12788 0
M  V30 766 N 72.4269 -1.23603 -0.977757 0
M  V30 767 C 73.6549 -1.09646 -1.75458 0
M  V30 768 C 74.0699 0.351859 -1.85492 0
M  V30 769 O 73.4269 1.24327 -1.336 0
M  V30 770 C 73.4779 -1.71895 -3.18016 0
M  V30 771 O 73.1989 -3.11063 -3.08498 0
M  V30 772 C 74.6999 -1.63415 -4.12081 0
M  V30 773 H 71.9199 -0.38359 -0.550545 0
M  V30 774 H 74.4639 -1.63507 -1.22824 0
M  V30 775 H 72.6189 -1.22061 -3.67668 0
M  V30 776 H 73.0329 -3.41305 -3.9826 0
M  V30 777 H 74.5069 -2.11669 -5.09804 0
M  V30 778 H 74.9839 -0.593462 -4.35172 0
M  V30 779 H 75.5899 -2.12628 -3.68334 0
M  V30 780 N 73.905 1.17692 -1.04816 0
M  V30 781 C 74.853 2.23632 -0.63966 0
M  V30 782 C 75.847 1.6601 0.337219 0
M  V30 783 O 77.053 1.78844 0.203693 0
M  V30 784 H 73.428 0.727949 -0.188665 0
M  V30 785 H 75.399 2.55387 -1.54337 0
M  V30 786 C 74.148 3.4769 -0.0264051 0
M  V30 787 H 73.471 3.92331 -0.769164 0
M  V30 788 H 74.911 4.23418 0.222098 0
M  V30 789 C 73.37 3.13807 1.22584 0
M  V30 790 O 73.9 3.28236 2.31569 0
M  V30 791 N 72.106 2.68065 1.12202 0
M  V30 792 H 71.653 2.56525 0.235133 0
M  V30 793 H 71.611 2.45767 1.96076 0
M  V30 794 N 75.3831 0.828654 1.34056 0
M  V30 795 C 76.6321 0.415828 1.97367 0
M  V30 796 C 76.9451 -1.02796 1.6641 0
M  V30 797 O 78.1511 -1.54497 2.23255 0
M  V30 798 C 76.6071 0.692601 3.53173 0
M  V30 799 C 76.2151 2.15038 3.93017 0
M  V30 800 C 77.9591 0.346222 4.23086 0
M  V30 801 C 75.8661 2.37174 5.41758 0
M  V30 802 H 74.7961 0.151755 0.738571 0
M  V30 803 H 77.4471 1.01581 1.52819 0
M  V30 804 H 75.8291 0.0223764 3.95994 0
M  V30 805 H 77.0031 2.86024 3.61285 0
M  V30 806 H 75.3181 2.45875 3.36057 0
M  V30 807 H 77.9151 0.48937 5.32456 0
M  V30 808 H 78.2581 -0.709842 4.10204 0
M  V30 809 H 78.7911 0.971258 3.85761 0
M  V30 810 H 75.5301 3.41308 5.59633 0
M  V30 811 H 75.0501 1.70738 5.74986 0
M  V30 812 H 76.7291 2.19818 6.08514 0
M  V30 813 N 76.8612 -1.46375 0.584142 0
M  V30 814 C 78.0892 -2.06761 0.0759296 0
M  V30 815 C 78.5042 -1.43266 -1.22965 0
M  V30 816 O 77.8612 -0.538458 -1.74376 0
M  V30 817 C 77.9122 -3.61375 -0.0950384 0
M  V30 818 O 77.6332 -4.22495 1.15887 0
M  V30 819 C 79.1342 -4.38693 -0.637434 0
M  V30 820 H 76.3542 -0.668479 0.0581075 0
M  V30 821 H 78.8982 -1.8798 0.805218 0
M  V30 822 H 77.0532 -3.79578 -0.774554 0
M  V30 823 H 77.4672 -5.15385 0.973598 0
M  V30 824 H 78.9412 -5.47464 -0.706237 0
M  V30 825 H 79.4182 -4.06836 -1.65472 0
M  V30 826 H 80.0242 -4.25299 0.00725967 0
M  V30 827 N 78.3393 -0.321999 -1.54275 0
M  V30 828 C 79.7503 0.166384 -1.85957 0
M  V30 829 C 80.1013 1.51747 -1.24367 0
M  V30 830 O 79.2263 2.09317 -0.549124 0
M  V30 831 C 79.8213 0.308681 -3.37391 0
M  V30 832 C 78.3803 0.741286 -3.69028 0
M  V30 833 C 77.5273 -0.137937 -2.76957 0
M  V30 834 H 80.4783 -0.542335 -1.49146 0
M  V30 835 H 80.4993 1.13984 -3.63026 0
M  V30 836 H 80.0113 -0.674809 -3.82188 0
M  V30 837 H 78.1123 1.73458 -3.29762 0
M  V30 838 H 78.2253 0.546118 -4.75977 0
M  V30 839 H 76.5893 0.386251 -2.51754 0
M  V30 840 H 77.3723 -1.11816 -3.2458 0
M  V30 841 N 79.8174 1.5752 -0.0501392 0
M  V30 842 C 80.7644 2.1147 0.924603 0
M  V30 843 C 81.7344 1.02182 1.30951 0
M  V30 844 O 82.9194 1.29723 1.39916 0
M  V30 845 C 80.0594 2.66337 2.19451 0
M  V30 846 C 79.1724 3.89708 1.86418 0
M  V30 847 C 78.3074 4.32893 3.07859 0
M  V30 848 C 77.3464 5.48967 2.70742 0
M  V30 849 N 76.4834 5.87211 3.84874 0
M  V30 850 H 81.3234 2.94465 0.457639 0
M  V30 851 H 78.8604 1.45531 0.214266 0
M  V30 852 H 80.8184 2.96247 2.93758 0
M  V30 853 H 79.4484 1.86141 2.63726 0
M  V30 854 H 78.5004 3.66396 1.02264 0
M  V30 855 H 79.8124 4.74074 1.55096 0
M  V30 856 H 78.9664 4.6435 3.90466 0
M  V30 857 H 77.7054 3.47336 3.42358 0
M  V30 858 H 76.7104 5.17183 1.86551 0
M  V30 859 H 77.9354 6.3624 2.37436 0
M  V30 860 H 75.8814 5.04607 4.19175 0
M  V30 861 H 75.7984 6.66266 3.57247 0
M  V30 862 H 77.0664 6.23282 4.68123 0
M  V30 863 N 81.2955 -0.223234 1.56011 0
M  V30 864 C 82.2455 -1.28008 1.88674 0
M  V30 865 C 83.2295 -1.42369 0.749663 0
M  V30 866 O 84.4215 -1.45212 1.01205 0
M  V30 867 C 81.5505 -2.63084 2.20548 0
M  V30 868 C 80.6365 -2.52632 3.40643 0
M  V30 869 N 81.0275 -2.11829 4.59306 0
M  V30 870 C 79.3255 -2.83594 3.44224 0
M  V30 871 C 80.0265 -2.12587 5.41463 0
M  V30 872 N 79.0025 -2.5301 4.81131 0
M  V30 873 H 82.8045 -0.955487 2.77935 0
M  V30 874 H 80.3185 -0.431801 1.56554 0
M  V30 875 H 82.3155 -3.39385 2.42122 0
M  V30 876 H 80.9755 -2.96391 1.32599 0
M  V30 877 H 81.9865 -1.82988 4.84496 0
M  V30 878 H 78.6635 -3.21284 2.66614 0
M  V30 879 H 80.0535 -1.83179 6.46448 0
M  V30 880 N 82.7736 -1.49793 -0.48987 0
M  V30 881 C 83.7216 -1.67783 -1.61095 0
M  V30 882 C 84.7156 -0.543683 -1.60438 0
M  V30 883 O 85.9216 -0.723647 -1.64813 0
M  V30 884 H 82.2966 -0.529255 -0.534222 0
M  V30 885 H 84.2676 -2.61861 -1.43078 0
M  V30 886 C 83.0166 -1.77191 -2.99164 0
M  V30 887 H 82.3396 -2.63841 -3.0038 0
M  V30 888 H 83.7796 -1.93809 -3.77113 0
M  V30 889 C 82.2386 -0.519203 -3.32875 0
M  V30 890 O 82.7686 0.350124 -4.00171 0
M  V30 891 N 80.9746 -0.378816 -2.8812 0
M  V30 892 H 80.5216 -1.08725 -2.33531 0
M  V30 893 H 80.4796 0.458239 -3.11043 0
M  V30 894 N 84.2517 0.741722 -1.39055 0
M  V30 895 C 85.1847 1.86416 -1.31622 0
M  V30 896 C 86.1627 1.61473 -0.191076 0
M  V30 897 O 87.3467 1.84825 -0.370399 0
M  V30 898 C 84.4737 3.22266 -1.04221 0
M  V30 899 C 83.5197 3.66079 -2.18834 0
M  V30 900 S 84.3527 3.7623 -3.81066 0
M  V30 901 C 85.5087 5.14881 -3.55877 0
M  V30 902 H 85.7417 1.92437 -2.26617 0
M  V30 903 H 83.2747 0.905907 -1.25031 0
M  V30 904 H 85.2327 4.00714 -0.890964 0
M  V30 905 H 83.8937 3.1391 -0.109237 0
M  V30 906 H 83.0867 4.64648 -1.95238 0
M  V30 907 H 82.6887 2.94817 -2.30128 0
M  V30 908 H 84.9807 6.01006 -3.12726 0
M  V30 909 H 85.9237 5.43503 -4.53884 0
M  V30 910 H 86.3317 4.84239 -2.90126 0
M  V30 911 N 85.7298 1.2412 0.971189 0
M  V30 912 C 86.6768 1.0305 2.06517 0
M  V30 913 C 87.6468 -0.0550666 1.66009 0
M  V30 914 O 88.8318 0.0988688 1.90544 0
M  V30 915 C 85.9718 0.637653 3.39158 0
M  V30 916 C 85.0848 1.79633 3.92882 0
M  V30 917 C 84.2198 1.34939 5.13775 0
M  V30 918 C 83.2588 2.47823 5.59687 0
M  V30 919 N 82.3958 2.04022 6.71803 0
M  V30 920 H 87.2358 1.96685 2.23873 0
M  V30 921 H 84.7728 0.979694 1.09729 0
M  V30 922 H 86.7308 0.390931 4.15364 0
M  V30 923 H 85.3608 -0.261693 3.21737 0
M  V30 924 H 84.4128 2.15681 3.13346 0
M  V30 925 H 85.7248 2.64466 4.22918 0
M  V30 926 H 84.8788 1.06134 5.97345 0
M  V30 927 H 83.6178 0.471557 4.85415 0
M  V30 928 H 82.6228 2.77392 4.74693 0
M  V30 929 H 83.8478 3.36158 5.90063 0
M  V30 930 H 81.7938 1.18632 6.45184 0
M  V30 931 H 81.7108 2.82409 7.01271 0
M  V30 932 H 82.9788 1.78347 7.58823 0
M  V30 933 N 87.2079 -1.17134 1.05439 0
M  V30 934 C 88.1709 -2.19439 0.661764 0
M  V30 935 C 89.1709 -1.58199 -0.288042 0
M  V30 936 O 90.3609 -1.74053 -0.0715803 0
M  V30 937 C 87.4929 -3.40889 -0.0276209 0
M  V30 938 H 88.6859 -2.55688 1.56728 0
M  V30 939 H 86.2389 -1.31259 0.848567 0
M  V30 940 H 86.9739 -3.10187 -0.94629 0
M  V30 941 H 86.7589 -3.86586 0.655238 0
M  V30 942 H 88.2489 -4.16603 -0.288342 0
M  V30 943 N 88.686 -0.835752 -1.33615 0
M  V30 944 C 89.933 -0.429959 -1.97883 0
M  V30 945 C 90.261 1.01006 -1.66217 0
M  V30 946 O 89.516 1.72047 -0.93265 0
M  V30 947 C 89.815 -0.593925 -3.52431 0
M  V30 948 C 89.481 -2.00158 -4.04039 0
M  V30 949 C 88.143 -2.38662 -4.17844 0
M  V30 950 C 90.495 -2.92117 -4.31644 0
M  V30 951 C 87.823 -3.68435 -4.56588 0
M  V30 952 C 90.175 -4.21368 -4.71838 0
M  V30 953 C 88.839 -4.59833 -4.83849 0
M  V30 954 H 88.109 -0.157333 -0.724104 0
M  V30 955 H 90.756 -1.06217 -1.59343 0
M  V30 956 H 89.061 0.121619 -3.91611 0
M  V30 957 H 90.758 -0.260282 -4.00154 0
M  V30 958 H 87.348 -1.69252 -3.93766 0
M  V30 959 H 91.532 -2.63608 -4.20505 0
M  V30 960 H 86.788 -3.98046 -4.64079 0
M  V30 961 H 90.962 -4.92703 -4.92155 0
M  V30 962 H 88.589 -5.60438 -5.13627 0
M  V30 963 N 90.1641 1.46063 -0.591896 0
M  V30 964 C 91.0941 2.33172 0.123673 0
M  V30 965 C 92.0751 1.45897 0.87453 0
M  V30 966 O 93.2601 1.74698 0.848181 0
M  V30 967 C 90.3901 3.28336 1.13194 0
M  V30 968 C 89.3441 4.25124 0.495324 0
M  V30 969 C 88.6701 5.09863 1.61071 0
M  V30 970 C 89.9701 5.19143 -0.573425 0
M  V30 971 H 91.6641 2.93252 -0.603646 0
M  V30 972 H 89.2101 1.41014 -0.291741 0
M  V30 973 H 91.1631 3.88137 1.64097 0
M  V30 974 H 89.8871 2.66383 1.88965 0
M  V30 975 H 88.5461 3.66599 0.00729452 0
M  V30 976 H 88.1941 4.44288 2.35832 0
M  V30 977 H 87.8941 5.75417 1.19035 0
M  V30 978 H 89.4181 5.72529 2.12233 0
M  V30 979 H 90.8321 5.73106 -0.1491 0
M  V30 980 H 89.2291 5.93089 -0.914636 0
M  V30 981 H 90.2991 4.62519 -1.45617 0
M  V30 982 N 91.6422 0.330177 1.54103 0
M  V30 983 C 92.9192 -0.325007 1.92881 0
M  V30 984 C 93.2992 -1.6934 1.26045 0
M  V30 985 O 92.6472 -2.24855 0.406526 0
M  V30 986 C 92.8572 -0.410634 3.46576 0
M  V30 987 C 94.2052 -0.667801 4.19316 0
M  V30 988 O 95.2292 -0.49329 3.52768 0
M  V30 989 O 94.0882 -1.00491 5.37181 0
M  V30 990 H 91.1822 -0.186873 0.80561 0
M  V30 991 H 93.7282 0.380376 1.65382 0
M  V30 992 H 92.5002 0.550164 3.87413 0
M  V30 993 H 92.1232 -1.16333 3.802 0
M  V30 994 N 93.1203 -1.57491 0.0584922 0
M  V30 995 C 94.0303 -2.15448 -0.928414 0
M  V30 996 C 95.0463 -1.11416 -1.3365 0
M  V30 997 O 96.2223 -1.4362 -1.41193 0
M  V30 998 C 93.2873 -2.69393 -2.18239 0
M  V30 999 C 92.3483 -3.88249 -1.83196 0
M  V30 1000 C 91.5813 -4.39613 -3.02616 0
M  V30 1001 O 91.8043 -3.90023 -4.16219 0
M  V30 1002 O 90.7383 -5.31111 -2.83204 0
M  V30 1003 H 94.5643 -3.00112 -0.465483 0
M  V30 1004 H 92.1493 -1.48499 -0.163826 0
M  V30 1005 H 94.0313 -3.04026 -2.91798 0
M  V30 1006 H 92.7063 -1.87796 -2.63656 0
M  V30 1007 H 91.6133 -3.58492 -1.06931 0
M  V30 1008 H 92.9463 -4.71098 -1.42573 0
M  V30 1009 N 94.5984 0.214957 -1.56127 0
M  V30 1010 C 95.5284 1.2695 -1.95974 0
M  V30 1011 C 96.5094 1.48539 -0.828868 0
M  V30 1012 O 97.6944 1.60611 -1.09168 0
M  V30 1013 C 94.8244 2.61794 -2.28214 0
M  V30 1014 C 93.7784 2.54851 -3.43853 0
M  V30 1015 C 93.1044 3.93785 -3.61715 0
M  V30 1016 C 94.4044 2.09065 -4.78632 0
M  V30 1017 H 96.0984 0.93846 -2.84312 0
M  V30 1018 H 93.6444 0.449996 -1.36788 0
M  V30 1019 H 95.5974 3.35731 -2.54682 0
M  V30 1020 H 94.3214 2.96599 -1.36736 0
M  V30 1021 H 92.9804 1.8337 -3.17444 0
M  V30 1022 H 92.6284 4.25908 -2.67602 0
M  V30 1023 H 92.3284 3.90019 -4.39498 0
M  V30 1024 H 93.8524 4.69374 -3.90539 0
M  V30 1025 H 95.2664 2.7275 -5.04262 0
M  V30 1026 H 93.6634 2.16346 -5.59745 0
M  V30 1027 H 94.7334 1.04315 -4.73547 0
M  V30 1028 N 96.0765 1.50051 0.48192 0
M  V30 1029 C 97.0235 1.68122 1.58125 0
M  V30 1030 C 97.9935 0.522545 1.57666 0
M  V30 1031 O 99.1785 0.751844 1.75362 0
M  V30 1032 C 96.3185 1.77142 2.96167 0
M  V30 1033 C 95.4315 3.0444 3.06497 0
M  V30 1034 C 94.5665 3.04321 4.35387 0
M  V30 1035 C 93.6055 4.26118 4.3942 0
M  V30 1036 N 92.7425 4.238 5.59766 0
M  V30 1037 H 97.5825 2.6198 1.42022 0
M  V30 1038 H 95.1195 1.29877 0.690687 0
M  V30 1039 H 97.0775 1.80352 3.76203 0
M  V30 1040 H 95.7075 0.867329 3.1093 0
M  V30 1041 H 94.7595 3.10752 2.19402 0
M  V30 1042 H 96.0715 3.94426 3.05336 0
M  V30 1043 H 95.2255 3.062 5.23762 0
M  V30 1044 H 93.9645 2.12147 4.39141 0
M  V30 1045 H 92.9695 4.24463 3.49444 0
M  V30 1046 H 94.1945 5.19507 4.37366 0
M  V30 1047 H 92.1405 3.34474 5.64326 0
M  V30 1048 H 92.0575 5.07542 5.60301 0
M  V30 1049 H 93.3255 4.2981 6.50295 0
M  V30 1050 N 97.5546 -0.734337 1.39446 0
M  V30 1051 C 98.5176 -1.83004 1.37994 0
M  V30 1052 C 99.5176 -1.58397 0.276938 0
M  V30 1053 O 100.708 -1.65785 0.534875 0
M  V30 1054 C 97.8396 -3.20802 1.1532 0
M  V30 1055 H 99.0326 -1.85694 2.35494 0
M  V30 1056 H 96.5856 -0.938059 1.25021 0
M  V30 1057 H 97.3206 -3.23772 0.185036 0
M  V30 1058 H 97.1056 -3.4006 1.95197 0
M  V30 1059 H 98.5956 -4.00862 1.17046 0
M  V30 1060 N 99.0327 -1.24633 -0.964593 0
M  V30 1061 C 99.9427 -1.05859 -2.09359 0
M  V30 1062 C 100.959 0.00148855 -1.74 0
M  V30 1063 O 102.135 -0.197346 -2.00431 0
M  V30 1064 C 99.1997 -0.668879 -3.40187 0
M  V30 1065 C 98.2607 -1.80578 -3.89474 0
M  V30 1066 C 97.4937 -1.43457 -5.14058 0
M  V30 1067 O 97.7167 -0.325775 -5.69469 0
M  V30 1068 O 96.6507 -2.2613 -5.57807 0
M  V30 1069 H 100.477 -2.00516 -2.28094 0
M  V30 1070 H 98.0617 -1.03481 -1.0776 0
M  V30 1071 H 99.9437 -0.463211 -4.18846 0
M  V30 1072 H 98.6187 0.248536 -3.22744 0
M  V30 1073 H 97.5257 -2.06623 -3.11862 0
M  V30 1074 H 98.8587 -2.70208 -4.11398 0
M  V30 1075 N 100.511 1.16574 -1.06058 0
M  V30 1076 C 101.459 2.22941 -0.663343 0
M  V30 1077 C 102.453 1.66358 0.319593 0
M  V30 1078 O 103.659 1.7905 0.184713 0
M  V30 1079 H 100.034 0.725907 -0.196376 0
M  V30 1080 H 102.005 2.53736 -1.57037 0
M  V30 1081 C 100.754 3.47642 -0.0632808 0
M  V30 1082 H 100.077 3.91493 -0.810733 0
M  V30 1083 H 101.517 4.2363 0.177177 0
M  V30 1084 C 99.9758 3.1509 1.19248 0
M  V30 1085 O 100.506 3.30673 2.28075 0
M  V30 1086 N 98.7118 2.6924 1.09353 0
M  V30 1087 H 98.2588 2.5676 0.207912 0
M  V30 1088 H 98.2168 2.47833 1.93458 0
M  V30 1089 N 101.989 0.842826 1.3317 0
M  V30 1090 C 103.238 0.436738 1.96915 0
M  V30 1091 C 103.551 -1.01025 1.67491 0
M  V30 1092 O 104.757 -1.5212 2.24881 0
M  V30 1093 C 103.213 0.730021 3.52418 0
M  V30 1094 C 102.821 2.19195 3.90714 0
M  V30 1095 C 104.565 0.391076 4.22695 0
M  V30 1096 C 102.472 2.42907 5.39212 0
M  V30 1097 H 101.402 0.15958 0.736919 0
M  V30 1098 H 104.053 1.03196 1.51733 0
M  V30 1099 H 102.435 0.0643755 3.95948 0
M  V30 1100 H 103.609 2.8984 3.58231 0
M  V30 1101 H 101.924 2.49425 3.33431 0
M  V30 1102 H 104.521 0.545817 5.31907 0
M  V30 1103 H 104.864 -0.666294 4.10933 0
M  V30 1104 H 105.397 1.01212 3.84709 0
M  V30 1105 H 102.136 3.47224 5.55982 0
M  V30 1106 H 101.656 1.76827 5.73142 0
M  V30 1107 H 103.335 2.2626 6.06148 0
M  V30 1108 N 103.467 -1.45747 0.599634 0
M  V30 1109 C 104.414 -2.30467 -0.123849 0
M  V30 1110 C 105.384 -1.41632 -0.86774 0
M  V30 1111 O 106.569 -1.70568 -0.855056 0
M  V30 1112 C 103.709 -3.26402 -1.12051 0
M  V30 1113 C 102.822 -4.3034 -0.37832 0
M  V30 1114 C 101.957 -5.13389 -1.364 0
M  V30 1115 C 100.996 -6.09061 -0.609171 0
M  V30 1116 N 100.133 -6.84918 -1.54374 0
M  V30 1117 H 104.973 -2.91802 0.604627 0
M  V30 1118 H 102.51 -1.43797 0.309972 0
M  V30 1119 H 104.468 -3.80482 -1.7114 0
M  V30 1120 H 103.098 -2.66839 -1.8165 0
M  V30 1121 H 102.15 -3.78984 0.327929 0
M  V30 1122 H 103.462 -4.98354 0.210997 0
M  V30 1123 H 102.616 -5.7183 -2.02719 0
M  V30 1124 H 101.355 -4.45376 -1.98725 0
M  V30 1125 H 100.36 -5.49758 0.0676979 0
M  V30 1126 H 101.585 -6.79099 0.00891991 0
M  V30 1127 H 99.531 -6.19601 -2.15478 0
M  V30 1128 H 99.448 -7.49254 -1.00766 0
M  V30 1129 H 100.716 -7.47906 -2.19676 0
M  V30 1130 N 104.945 -0.338344 -1.53925 0
M  V30 1131 C 105.892 0.520845 -2.24846 0
M  V30 1132 C 106.862 1.09976 -1.24477 0
M  V30 1133 O 108.047 1.13735 -1.53196 0
M  V30 1134 C 105.187 1.6685 -3.02084 0
M  V30 1135 C 104.3 1.11739 -4.17299 0
M  V30 1136 C 103.435 2.23193 -4.82036 0
M  V30 1137 C 102.474 1.65407 -5.89328 0
M  V30 1138 N 101.611 2.70582 -6.47866 0
M  V30 1139 H 106.451 -0.0904881 -2.97863 0
M  V30 1140 H 103.988 -0.0564282 -1.46992 0
M  V30 1141 H 105.946 2.34407 -3.45122 0
M  V30 1142 H 104.576 2.2509 -2.31375 0
M  V30 1143 H 103.628 0.332919 -3.7894 0
M  V30 1144 H 104.94 0.654677 -4.94485 0
M  V30 1145 H 104.094 2.98626 -5.28117 0
M  V30 1146 H 102.833 2.72807 -4.04262 0
M  V30 1147 H 101.838 0.884779 -5.42634 0
M  V30 1148 H 103.063 1.16652 -6.69006 0
M  V30 1149 H 101.009 3.1946 -5.72959 0
M  V30 1150 H 100.926 2.28917 -7.20509 0
M  V30 1151 H 102.194 3.45799 -6.98601 0
M  V30 1152 N 106.423 1.57458 -0.0668435 0
M  V30 1153 C 107.67 1.93301 0.603406 0
M  V30 1154 C 107.998 0.946486 1.69917 0
M  V30 1155 O 107.253 -0.0387021 1.95662 0
M  V30 1156 C 107.552 3.35784 1.22409 0
M  V30 1157 C 107.218 4.50179 0.254955 0
M  V30 1158 C 105.88 4.81199 -0.0116746 0
M  V30 1159 C 108.232 5.19598 -0.408338 0
M  V30 1160 C 105.56 5.78978 -0.94877 0
M  V30 1161 C 107.912 6.18381 -1.33372 0
M  V30 1162 C 106.576 6.47821 -1.60887 0
M  V30 1163 H 105.846 0.707338 0.220802 0
M  V30 1164 H 108.493 1.91012 -0.136665 0
M  V30 1165 H 106.798 3.34515 2.03978 0
M  V30 1166 H 108.495 3.60804 1.74989 0
M  V30 1167 H 105.085 4.25983 0.472954 0
M  V30 1168 H 109.269 4.95832 -0.215456 0
M  V30 1169 H 104.525 6.00115 -1.16925 0
M  V30 1170 H 108.699 6.71277 -1.85367 0
M  V30 1171 H 106.326 7.23399 -2.33661 0
M  V30 1172 N 107.901 -0.206675 1.56239 0
M  V30 1173 C 108.831 -1.25909 1.96645 0
M  V30 1174 C 109.812 -1.48097 0.836734 0
M  V30 1175 O 110.997 -1.6003 1.10019 0
M  V30 1176 C 108.127 -2.6058 2.29599 0
M  V30 1177 C 107.081 -2.53024 3.452 0
M  V30 1178 C 106.407 -3.91861 3.63798 0
M  V30 1179 C 107.707 -2.06524 4.79734 0
M  V30 1180 H 109.401 -0.923369 2.84806 0
M  V30 1181 H 106.947 -0.442735 1.37025 0
M  V30 1182 H 108.9 -3.34375 2.56459 0
M  V30 1183 H 107.624 -2.95869 1.38307 0
M  V30 1184 H 106.283 -1.81684 3.18412 0
M  V30 1185 H 105.931 -4.24483 2.69857 0
M  V30 1186 H 105.631 -3.87683 4.4156 0
M  V30 1187 H 107.155 -4.67296 3.93022 0
M  V30 1188 H 108.569 -2.70072 5.05702 0
M  V30 1189 H 106.966 -2.13374 5.60885 0
M  V30 1190 H 108.036 -1.01802 4.74093 0
M  V30 1191 N 109.379 -1.50304 -0.473955 0
M  V30 1192 C 110.609 -1.64663 -1.24778 0
M  V30 1193 C 111.017 -0.328174 -1.86332 0
M  V30 1194 O 110.36 0.699536 -1.69859 0
M  V30 1195 C 110.422 -2.6778 -2.39863 0
M  V30 1196 C 110.086 -4.11413 -1.98969 0
M  V30 1197 C 111.083 -4.97372 -1.51385 0
M  V30 1198 C 108.768 -4.57312 -2.07777 0
M  V30 1199 C 110.762 -6.27277 -1.13148 0
M  V30 1200 C 108.449 -5.87223 -1.69152 0
M  V30 1201 C 109.447 -6.72031 -1.21915 0
M  V30 1202 O 109.135 -7.99518 -0.838237 0
M  V30 1203 H 108.867 -0.556602 -0.383627 0
M  V30 1204 H 111.421 -1.9726 -0.572491 0
M  V30 1205 H 109.651 -2.30419 -3.10554 0
M  V30 1206 H 111.34 -2.71388 -3.01833 0
M  V30 1207 H 112.106 -4.63128 -1.44004 0
M  V30 1208 H 107.985 -3.91449 -2.43493 0
M  V30 1209 H 111.529 -6.93425 -0.762077 0
M  V30 1210 H 107.426 -6.20989 -1.76191 0
M  V30 1211 H 108.194 -8.12764 -0.967339 0
M  V30 1212 N 110.857 0.726932 -1.39834 0
M  V30 1213 C 111.805 1.86235 -1.39353 0
M  V30 1214 C 112.799 1.67144 -0.275555 0
M  V30 1215 O 114.005 1.74387 -0.44601 0
M  V30 1216 H 110.38 0.613174 -0.43534 0
M  V30 1217 H 112.351 1.83756 -2.35109 0
M  V30 1218 C 111.1 3.23995 -1.26185 0
M  V30 1219 H 110.423 3.39285 -2.11484 0
M  V30 1220 H 111.863 4.03609 -1.29907 0
M  V30 1221 C 110.322 3.36888 0.0290018 0
M  V30 1222 O 110.852 3.89152 0.99619 0
M  V30 1223 N 109.058 2.90446 0.0947437 0
M  V30 1224 H 108.605 2.48102 -0.693035 0
M  V30 1225 H 108.563 2.99451 0.957932 0
M  V30 1226 N 112.336 1.25143 0.95797 0
M  V30 1227 C 113.583 1.09692 1.70217 0
M  V30 1228 C 113.911 -0.362654 1.91089 0
M  V30 1229 O 113.166 -1.28386 1.47701 0
M  V30 1230 C 113.465 1.79272 3.09187 0
M  V30 1231 C 113.131 3.29196 3.08125 0
M  V30 1232 C 111.793 3.70096 3.07543 0
M  V30 1233 C 114.145 4.24995 3.0171 0
M  V30 1234 C 111.473 5.05213 2.9829 0
M  V30 1235 C 113.825 5.60132 2.93999 0
M  V30 1236 C 112.489 6.00365 2.9175 0
M  V30 1237 H 111.759 0.401393 0.622868 0
M  V30 1238 H 114.406 1.55372 1.11945 0
M  V30 1239 H 112.711 1.26014 3.70982 0
M  V30 1240 H 114.408 1.64773 3.65583 0
M  V30 1241 H 110.998 2.96651 3.09348 0
M  V30 1242 H 115.182 3.9439 3.01281 0
M  V30 1243 H 110.438 5.35569 2.94916 0
M  V30 1244 H 114.612 6.3406 2.87996 0
M  V30 1245 H 112.239 7.05023 2.84336 0
M  V30 1246 N 113.814 -1.1601 1.06675 0
M  V30 1247 C 115.042 -1.90527 0.806667 0
M  V30 1248 C 115.457 -1.77643 -0.639396 0
M  V30 1249 O 114.814 -1.12369 -1.43803 0
M  V30 1250 C 114.865 -3.41106 1.19705 0
M  V30 1251 O 114.586 -3.53608 2.58636 0
M  V30 1252 C 116.087 -4.32663 0.965266 0
M  V30 1253 H 113.307 -0.604053 0.292166 0
M  V30 1254 H 115.851 -1.47026 1.4214 0
M  V30 1255 H 114.006 -3.82296 0.626774 0
M  V30 1256 H 114.42 -4.47011 2.74375 0
M  V30 1257 H 115.894 -5.36763 1.288 0
M  V30 1258 H 116.371 -4.39089 -0.0987936 0
M  V30 1259 H 116.977 -3.97206 1.52011 0
M  V30 1260 N 115.292 -0.849877 -1.32721 0
M  V30 1261 C 116.224 -0.248332 -2.27851 0
M  V30 1262 C 117.237 0.577218 -1.52224 0
M  V30 1263 O 118.426 0.402489 -1.73903 0
M  V30 1264 C 115.526 0.668107 -3.32249 0
M  V30 1265 C 114.699 -0.120534 -4.37234 0
M  V30 1266 C 113.758 0.720932 -5.21238 0
M  V30 1267 O 112.784 0.156166 -5.68986 0
M  V30 1268 N 113.986 2.03647 -5.43607 0
M  V30 1269 H 116.751 -1.06575 -2.80111 0
M  V30 1270 H 114.312 -0.709395 -1.45531 0
M  V30 1271 H 116.304 1.23627 -3.85355 0
M  V30 1272 H 114.874 1.38621 -2.80184 0
M  V30 1273 H 114.094 -0.870108 -3.84477 0
M  V30 1274 H 115.382 -0.662406 -5.0447 0
M  V30 1275 H 114.78 2.51871 -5.06535 0
M  V30 1276 H 113.337 2.55287 -5.99727 0
M  V30 1277 N 116.77 1.45427 -0.607355 0
M  V30 1278 C 118.019 2.01452 -0.100036 0
M  V30 1279 C 118.332 1.48159 1.27704 0
M  V30 1280 O 119.538 1.96159 1.87707 0
M  V30 1281 C 117.994 3.59672 -0.128158 0
M  V30 1282 C 117.602 4.21962 -1.50507 0
M  V30 1283 C 119.346 4.23262 0.323932 0
M  V30 1284 C 117.253 5.72333 -1.48959 0
M  V30 1285 H 116.183 0.75325 -0.0336299 0
M  V30 1286 H 118.834 1.66901 -0.76265 0
M  V30 1287 H 117.216 3.91411 0.601105 0
M  V30 1288 H 118.39 4.01796 -2.25602 0
M  V30 1289 H 116.705 3.70565 -1.89923 0
M  V30 1290 H 119.302 5.33522 0.354691 0
M  V30 1291 H 119.645 3.93921 1.34656 0
M  V30 1292 H 120.178 3.96239 -0.352056 0
M  V30 1293 H 116.917 6.06373 -2.48981 0
M  V30 1294 H 116.437 5.94691 -0.781214 0
M  V30 1295 H 118.116 6.35525 -1.21313 0
M  V30 1296 N 118.248 0.346503 1.53744 0
M  V30 1297 C 119.659 -0.136779 1.86198 0
M  V30 1298 C 120.01 -1.49749 1.26766 0
M  V30 1299 O 119.135 -2.08417 0.582355 0
M  V30 1300 C 119.73 -0.254966 3.37839 0
M  V30 1301 C 118.289 -0.682482 3.70161 0
M  V30 1302 C 117.436 0.181981 2.76702 0
M  V30 1303 H 120.387 0.565994 1.48264 0
M  V30 1304 H 120.408 -1.08195 3.64793 0
M  V30 1305 H 119.92 0.735526 3.81066 0
M  V30 1306 H 118.021 -1.68189 3.3248 0
M  V30 1307 H 118.134 -0.470326 4.76786 0
M  V30 1308 H 116.498 -0.34615 2.52337 0
M  V30 1309 H 117.281 1.16966 3.2276 0
M  V30 1310 N 119.726 -1.57421 0.075193 0
M  V30 1311 C 120.676 -2.09441 -0.901025 0
M  V30 1312 C 121.66 -1.00486 -1.25663 0
M  V30 1313 O 122.852 -1.2679 -1.23504 0
M  V30 1314 C 119.981 -2.66233 -2.16737 0
M  V30 1315 C 119.067 -3.82198 -1.83808 0
M  V30 1316 N 119.458 -4.91028 -1.21345 0
M  V30 1317 C 117.756 -3.91558 -2.13538 0
M  V30 1318 C 118.457 -5.71852 -1.06585 0
M  V30 1319 N 117.433 -5.20233 -1.57667 0
M  V30 1320 H 121.235 -2.90972 -0.413815 0
M  V30 1321 H 118.749 -1.6189 -0.128601 0
M  V30 1322 H 120.746 -3.01819 -2.87595 0
M  V30 1323 H 119.406 -1.8615 -2.66042 0
M  V30 1324 H 120.417 -5.10323 -0.88268 0
M  V30 1325 H 117.094 -3.22454 -2.65197 0
M  V30 1326 H 118.484 -6.69401 -0.578933 0
M  V30 1327 N 121.204 0.198386 -1.56346 0
M  V30 1328 C 122.134 1.24865 -1.9731 0
M  V30 1329 C 123.115 1.47651 -0.844576 0
M  V30 1330 O 124.3 1.59444 -1.10866 0
M  V30 1331 C 121.43 2.59358 -2.30977 0
M  V30 1332 C 120.384 2.5119 -3.46537 0
M  V30 1333 C 119.71 3.89926 -3.65871 0
M  V30 1334 C 121.01 2.03977 -4.80823 0
M  V30 1335 H 122.704 0.908252 -2.85291 0
M  V30 1336 H 120.25 0.435462 -1.37258 0
M  V30 1337 H 122.203 3.33011 -2.58228 0
M  V30 1338 H 120.927 2.95132 -1.39874 0
M  V30 1339 H 119.586 1.79993 -3.19371 0
M  V30 1340 H 119.234 4.23046 -2.72105 0
M  V30 1341 H 118.934 3.85336 -4.4361 0
M  V30 1342 H 120.458 4.65205 -3.95495 0
M  V30 1343 H 121.872 2.67386 -5.07127 0
M  V30 1344 H 120.269 2.10397 -5.62008 0
M  V30 1345 H 121.339 0.992861 -4.74626 0
M  V30 1346 N 122.682 1.50554 0.465978 0
M  V30 1347 C 123.645 1.69233 1.54574 0
M  V30 1348 C 124.645 0.562901 1.50626 0
M  V30 1349 O 125.835 0.830016 1.53155 0
M  V30 1350 C 122.967 1.7223 2.94193 0
M  V30 1351 H 124.16 2.65571 1.39327 0
M  V30 1352 H 121.713 1.40111 0.692711 0
M  V30 1353 H 122.448 0.77603 3.14878 0
M  V30 1354 H 122.233 2.54285 2.98466 0
M  V30 1355 H 123.723 1.88618 3.72576 0
M  V30 1356 N 124.16 -0.719506 1.40217 0
M  V30 1357 C 125.408 -1.47641 1.3801 0
M  V30 1358 C 125.729 -1.94992 -0.018145 0
M  V30 1359 O 124.999 -1.70073 -0.972207 0
M  V30 1360 H 123.579 -0.547744 0.507923 0
M  V30 1361 H 126.241 -0.853187 1.75233 0
M  V30 1362 H 125.337 -2.35112 2.05253 0
M  V30 1363 N 125.638 -1.25649 -0.95132 0
M  V30 1364 C 126.866 -1.13343 -1.73092 0
M  V30 1365 C 127.281 0.312434 -1.86197 0
M  V30 1366 O 126.638 1.21465 -1.36207 0
M  V30 1367 C 126.689 -1.78602 -3.14299 0
M  V30 1368 O 126.41 -3.17537 -3.01831 0
M  V30 1369 C 127.911 -1.72119 -4.08522 0
M  V30 1370 H 125.131 -0.395181 -0.542285 0
M  V30 1371 H 127.675 -1.66076 -1.19328 0
M  V30 1372 H 125.83 -1.29832 -3.64996 0
M  V30 1373 H 126.244 -3.49676 -3.90931 0
M  V30 1374 H 127.718 -2.22435 -5.052 0
M  V30 1375 H 128.195 -0.685635 -4.33815 0
M  V30 1376 H 128.801 -2.20393 -3.63741 0
M  V30 1377 N 127.117 1.15442 -1.07289 0
M  V30 1378 C 128.027 2.23786 -0.704057 0
M  V30 1379 C 129.043 1.7166 0.284413 0
M  V30 1380 O 130.219 2.00972 0.131205 0
M  V30 1381 C 127.284 3.46535 -0.106792 0
M  V30 1382 C 126.345 4.13654 -1.14842 0
M  V30 1383 C 125.578 5.30544 -0.57956 0
M  V30 1384 O 125.801 5.67187 0.604585 0
M  V30 1385 O 124.735 5.87154 -1.32414 0
M  V30 1386 H 128.561 2.57664 -1.60757 0
M  V30 1387 H 126.146 1.23152 -0.845803 0
M  V30 1388 H 128.028 4.20804 0.224048 0
M  V30 1389 H 126.703 3.14407 0.770049 0
M  V30 1390 H 125.61 3.4131 -1.5316 0
M  V30 1391 H 126.943 4.49861 -1.99714 0
M  V30 1392 N 128.595 0.856903 1.32268 0
M  V30 1393 C 129.527 0.260412 2.27716 0
M  V30 1394 C 130.54 -0.569137 1.52528 0
M  V30 1395 O 131.729 -0.39326 1.74114 0
M  V30 1396 C 128.829 -0.650477 3.32599 0
M  V30 1397 C 128.002 0.14372 4.37164 0
M  V30 1398 C 127.061 -0.69328 5.21613 0
M  V30 1399 O 126.087 -0.12599 5.69061 0
M  V30 1400 N 127.289 -2.00761 5.44679 0
M  V30 1401 H 130.054 1.08059 2.79541 0
M  V30 1402 H 127.615 0.717103 1.45152 0
M  V30 1403 H 129.607 -1.21581 3.86005 0
M  V30 1404 H 128.177 -1.37133 2.80915 0
M  V30 1405 H 127.397 0.890486 3.8401 0
M  V30 1406 H 128.685 0.68915 5.04111 0
M  V30 1407 H 128.083 -2.49181 5.07863 0
M  V30 1408 H 126.64 -2.52103 6.01072 0
M  V30 1409 N 130.073 -1.45103 0.615059 0
M  V30 1410 C 131.021 -2.32331 -0.111791 0
M  V30 1411 C 132.015 -1.46409 -0.852102 0
M  V30 1412 O 133.221 -1.62849 -0.766821 0
M  V30 1413 H 129.596 -0.749993 -0.0549072 0
M  V30 1414 H 131.567 -2.91407 0.642225 0
M  V30 1415 C 130.316 -3.3015 -1.09071 0
M  V30 1416 H 129.639 -3.96265 -0.530485 0
M  V30 1417 H 131.079 -3.93898 -1.56908 0
M  V30 1418 C 129.538 -2.57875 -2.168 0
M  V30 1419 O 130.068 -2.36567 -3.24652 0
M  V30 1420 N 128.274 -2.17884 -1.92289 0
M  V30 1421 H 127.821 -2.35413 -1.04587 0
M  V30 1422 H 127.779 -1.6985 -2.64572 0
M  V30 1423 N 131.551 -0.354651 -1.53558 0
M  V30 1424 C 132.798 0.238443 -2.01091 0
M  V30 1425 C 133.126 1.49663 -1.24222 0
M  V30 1426 O 132.381 1.93049 -0.321003 0
M  V30 1427 C 132.68 0.587121 -3.52545 0
M  V30 1428 C 132.346 -0.575472 -4.47213 0
M  V30 1429 C 131.008 -0.894497 -4.72813 0
M  V30 1430 C 133.36 -1.35489 -5.03281 0
M  V30 1431 C 130.688 -1.99511 -5.51736 0
M  V30 1432 C 133.04 -2.44583 -5.83405 0
M  V30 1433 C 131.704 -2.77033 -6.07296 0
M  V30 1434 H 130.974 0.0872526 -0.735845 0
M  V30 1435 H 133.621 -0.484859 -1.8526 0
M  V30 1436 H 131.926 1.39129 -3.66265 0
M  V30 1437 H 133.623 1.05809 -3.86789 0
M  V30 1438 H 130.213 -0.316774 -4.27428 0
M  V30 1439 H 134.397 -1.12167 -4.83459 0
M  V30 1440 H 129.653 -2.25063 -5.68469 0
M  V30 1441 H 133.827 -3.05401 -6.25862 0
M  V30 1442 H 131.454 -3.6244 -6.68237 0
M  V30 1443 N 133.029 1.57378 -0.0835403 0
M  V30 1444 C 133.961 2.10389 0.909338 0
M  V30 1445 C 134.974 1.03858 1.25369 0
M  V30 1446 O 136.163 1.31338 1.20882 0
M  V30 1447 C 133.263 2.55908 2.2218 0
M  V30 1448 C 132.436 3.86145 2.05453 0
M  V30 1449 C 131.495 4.17633 3.20108 0
M  V30 1450 O 130.521 4.87043 2.94581 0
M  V30 1451 N 131.723 3.72113 4.45547 0
M  V30 1452 H 134.488 2.962 0.456657 0
M  V30 1453 H 132.049 1.61579 0.101877 0
M  V30 1454 H 134.041 2.74027 2.97811 0
M  V30 1455 H 132.611 1.75171 2.58909 0
M  V30 1456 H 131.831 3.7729 1.1422 0
M  V30 1457 H 133.119 4.7137 1.91541 0
M  V30 1458 H 132.517 3.16062 4.69171 0
M  V30 1459 H 131.074 3.95409 5.18165 0
M  V30 1460 N 134.507 -0.190092 1.56449 0
M  V30 1461 C 135.437 -1.23816 1.97969 0
M  V30 1462 C 136.418 -1.47201 0.852395 0
M  V30 1463 O 137.603 -1.58854 1.1171 0
M  V30 1464 C 134.733 -2.5813 2.3235 0
M  V30 1465 C 133.687 -2.49348 3.47864 0
M  V30 1466 C 133.013 -3.8798 3.67934 0
M  V30 1467 C 134.313 -2.01424 4.81898 0
M  V30 1468 H 136.007 -0.89311 2.85769 0
M  V30 1469 H 133.553 -0.428177 1.37487 0
M  V30 1470 H 135.506 -3.31637 2.59991 0
M  V30 1471 H 134.23 -2.94386 1.41438 0
M  V30 1472 H 132.889 -1.78297 3.20321 0
M  V30 1473 H 132.537 -4.21597 2.74344 0
M  V30 1474 H 132.237 -3.82978 4.45648 0
M  V30 1475 H 133.761 -4.63101 3.97957 0
M  V30 1476 H 135.175 -2.64693 5.08538 0
M  V30 1477 H 133.572 -2.07413 5.63116 0
M  V30 1478 H 134.642 -0.967677 4.75146 0
M  V30 1479 N 135.985 -1.50799 -0.457987 0
M  V30 1480 C 136.948 -1.7005 -1.53674 0
M  V30 1481 C 137.948 -0.570881 -1.50325 0
M  V30 1482 O 139.138 -0.838126 -1.52712 0
M  V30 1483 C 136.27 -1.73788 -2.93276 0
M  V30 1484 H 137.463 -2.66306 -1.37917 0
M  V30 1485 H 135.016 -1.40477 -0.685271 0
M  V30 1486 H 135.751 -0.792717 -3.14462 0
M  V30 1487 H 135.536 -2.55864 -2.97113 0
M  V30 1488 H 137.026 -1.90591 -3.71571 0
M  V30 1489 N 137.463 0.71206 -1.40597 0
M  V30 1490 C 138.41 1.82613 -1.41142 0
M  V30 1491 C 139.38 1.63925 -0.267903 0
M  V30 1492 O 140.565 1.85009 -0.466495 0
M  V30 1493 C 137.705 3.20354 -1.28324 0
M  V30 1494 C 136.818 3.50589 -2.52411 0
M  V30 1495 C 135.953 4.77855 -2.32009 0
M  V30 1496 C 134.992 5.01005 -3.51654 0
M  V30 1497 N 134.129 6.19487 -3.30425 0
M  V30 1498 H 138.969 1.81482 -2.36365 0
M  V30 1499 H 136.506 0.886475 -1.17388 0
M  V30 1500 H 138.464 3.99899 -1.18899 0
M  V30 1501 H 137.094 3.20705 -0.367189 0
M  V30 1502 H 136.146 2.65573 -2.72351 0
M  V30 1503 H 137.458 3.63604 -3.41458 0
M  V30 1504 H 136.612 5.65424 -2.19956 0
M  V30 1505 H 135.351 4.67056 -1.40392 0
M  V30 1506 H 134.356 4.1189 -3.64179 0
M  V30 1507 H 135.581 5.13674 -4.44202 0
M  V30 1508 H 133.527 6.09932 -2.41494 0
M  V30 1509 H 133.444 6.33194 -4.13039 0
M  V30 1510 H 134.712 7.09834 -3.22113 0
M  V30 1511 N 138.941 1.26152 0.944643 0
M  V30 1512 C 139.873 1.03199 2.04652 0
M  V30 1513 C 140.886 -0.00642356 1.62799 0
M  V30 1514 O 142.075 0.233263 1.76969 0
M  V30 1515 C 139.175 0.540111 3.34568 0
M  V30 1516 C 138.348 1.64697 4.05208 0
M  V30 1517 C 137.407 1.15374 5.13396 0
M  V30 1518 O 136.433 1.85013 5.38293 0
M  V30 1519 N 137.635 0.00031529 5.805 0
M  V30 1520 H 140.4 1.9808 2.2491 0
M  V30 1521 H 137.961 1.17491 1.11389 0
M  V30 1522 H 139.953 0.194401 4.04233 0
M  V30 1523 H 138.523 -0.315021 3.11009 0
M  V30 1524 H 137.743 2.16379 3.29506 0
M  V30 1525 H 139.031 2.3903 4.49157 0
M  V30 1526 H 138.429 -0.581336 5.62705 0
M  V30 1527 H 136.986 -0.286346 6.51171 0
M  V30 1528 N 140.419 -1.14872 1.07899 0
M  V30 1529 C 141.668 -1.85135 0.800499 0
M  V30 1530 C 141.981 -1.83547 -0.676014 0
M  V30 1531 O 143.187 -2.49548 -1.06948 0
M  V30 1532 C 141.643 -3.3231 1.38197 0
M  V30 1533 C 141.251 -3.42329 2.8899 0
M  V30 1534 C 142.995 -4.0772 1.18174 0
M  V30 1535 C 140.902 -4.83684 3.403 0
M  V30 1536 H 139.832 -0.693563 0.29578 0
M  V30 1537 H 142.483 -1.29532 1.29976 0
M  V30 1538 H 140.865 -3.87618 0.810431 0
M  V30 1539 H 142.039 -2.97097 3.52236 0
M  V30 1540 H 140.354 -2.80369 3.07867 0
M  V30 1541 H 142.951 -5.12049 1.5398 0
M  V30 1542 H 143.294 -4.16124 0.12117 0
M  V30 1543 H 143.827 -3.58696 1.71994 0
M  V30 1544 H 140.566 -4.80465 4.45907 0
M  V30 1545 H 140.086 -5.29474 2.81811 0
M  V30 1546 H 141.765 -5.52558 3.36584 0
M  V30 1547 N 141.898 -0.863906 -1.31812 0
M  V30 1548 C 142.83 -0.272485 -2.27575 0
M  V30 1549 C 143.843 0.56104 -1.52827 0
M  V30 1550 O 145.032 0.384021 -1.7432 0
M  V30 1551 C 142.132 0.63283 -3.32939 0
M  V30 1552 C 141.305 -0.166902 -4.37081 0
M  V30 1553 C 140.364 0.665608 -5.21973 0
M  V30 1554 O 139.39 0.0958091 -5.69119 0
M  V30 1555 N 140.592 1.9787 -5.45736 0
M  V30 1556 H 143.357 -1.0954 -2.78964 0
M  V30 1557 H 140.918 -0.724791 -1.4477 0
M  V30 1558 H 142.91 1.19532 -3.86645 0
M  V30 1559 H 141.48 1.35642 -2.81638 0
M  V30 1560 H 140.7 -0.910838 -3.83533 0
M  V30 1561 H 141.988 -0.715874 -5.03739 0
M  V30 1562 H 141.386 2.46484 -5.09178 0
M  V30 1563 H 139.943 2.48911 -6.024 0
M  V30 1564 N 143.376 1.44774 -0.622745 0
M  V30 1565 C 144.601 2.06999 -0.128968 0
M  V30 1566 C 145.026 1.4617 1.1839 0
M  V30 1567 O 144.384 0.560007 1.72434 0
M  V30 1568 C 144.432 3.60595 -0.0188351 0
M  V30 1569 O 143.536 3.99398 1.02739 0
M  V30 1570 H 142.877 0.659047 -0.0809544 0
M  V30 1571 H 145.407 1.85784 -0.85705 0
M  V30 1572 H 145.417 4.07627 0.174476 0
M  V30 1573 H 144.092 4.04252 -0.977384 0
M  V30 1574 H 142.669 3.64011 0.809326 0
M  V30 1575 N 144.854 0.36279 1.53368 0
M  V30 1576 C 145.786 -0.519668 2.23231 0
M  V30 1577 C 146.799 -1.04844 1.24546 0
M  V30 1578 O 147.988 -0.955296 1.50786 0
M  V30 1579 C 145.088 -1.72995 2.9142 0
M  V30 1580 C 144.261 -1.33316 4.16588 0
M  V30 1581 C 143.32 -2.40521 4.68013 0
M  V30 1582 O 142.346 -2.03027 5.3176 0
M  V30 1583 N 143.548 -3.72065 4.45587 0
M  V30 1584 H 146.313 0.078751 2.99597 0
M  V30 1585 H 143.874 0.187833 1.60807 0
M  V30 1586 H 145.866 -2.44184 3.22733 0
M  V30 1587 H 144.436 -2.2353 2.18525 0
M  V30 1588 H 143.656 -0.451236 3.91609 0
M  V30 1589 H 144.944 -1.04432 4.97967 0
M  V30 1590 H 144.342 -4.05304 3.94646 0
M  V30 1591 H 142.899 -4.39366 4.81457 0
M  V30 1592 N 146.332 -1.57332 0.0918853 0
M  V30 1593 C 147.578 -1.95328 -0.567313 0
M  V30 1594 C 147.933 -0.972866 -1.65991 0
M  V30 1595 O 147.226 0.00166256 -1.916 0
M  V30 1596 C 147.42 -3.37689 -1.17051 0
M  V30 1597 C 147.249 -4.49489 -0.137875 0
M  V30 1598 C 146.019 -5.04498 0.284515 0
M  V30 1599 C 148.217 -5.10393 0.63271 0
M  V30 1600 N 146.199 -5.99853 1.30576 0
M  V30 1601 C 147.57 -6.01435 1.50587 0
M  V30 1602 C 149.625 -4.93143 0.68658 0
M  V30 1603 C 148.328 -6.77077 2.42815 0
M  V30 1604 C 150.354 -5.69445 1.59645 0
M  V30 1605 C 149.716 -6.60151 2.45725 0
M  V30 1606 H 145.815 -0.761467 -0.178023 0
M  V30 1607 H 148.399 -1.93924 0.173706 0
M  V30 1608 H 146.57 -3.39793 -1.88136 0
M  V30 1609 H 148.302 -3.62872 -1.79181 0
M  V30 1610 H 145.057 -4.73489 -0.102593 0
M  V30 1611 H 145.481 -6.52231 1.81449 0
M  V30 1612 H 150.123 -4.22785 0.035244 0
M  V30 1613 H 147.841 -7.46699 3.08975 0
M  V30 1614 H 151.427 -5.58112 1.64323 0
M  V30 1615 H 150.307 -7.18159 3.14987 0
M  V30 1616 N 147.81 0.181792 -1.56548 0
M  V30 1617 C 148.757 1.22521 -1.95595 0
M  V30 1618 C 149.727 1.4454 -0.818373 0
M  V30 1619 O 150.912 1.57454 -1.07763 0
M  V30 1620 C 148.052 2.56193 -2.31212 0
M  V30 1621 C 147.165 2.41641 -3.58097 0
M  V30 1622 C 146.3 3.68108 -3.82975 0
M  V30 1623 C 145.339 3.48445 -5.03242 0
M  V30 1624 N 144.476 4.66956 -5.24306 0
M  V30 1625 H 149.316 0.885226 -2.84548 0
M  V30 1626 H 146.853 0.425718 -1.40805 0
M  V30 1627 H 148.811 3.34088 -2.49882 0
M  V30 1628 H 147.441 2.88208 -1.45382 0
M  V30 1629 H 146.493 1.54976 -3.474 0
M  V30 1630 H 147.805 2.23052 -4.46149 0
M  V30 1631 H 146.959 4.54441 -4.01956 0
M  V30 1632 H 145.698 3.89666 -2.93278 0
M  V30 1633 H 144.703 2.60499 -4.8417 0
M  V30 1634 H 145.928 3.2832 -5.9446 0
M  V30 1635 H 143.874 4.88752 -4.37559 0
M  V30 1636 H 143.791 4.51242 -6.06561 0
M  V30 1637 H 145.059 5.54602 -5.47756 0
M  V30 1638 N 149.288 1.51039 0.449983 0
M  V30 1639 C 150.198 1.74261 1.57067 0
M  V30 1640 C 151.214 0.626363 1.62335 0
M  V30 1641 O 152.39 0.907162 1.79812 0
M  V30 1642 C 149.455 1.85114 2.93144 0
M  V30 1643 C 148.516 3.0893 2.98095 0
M  V30 1644 C 147.749 3.19256 4.27681 0
M  V30 1645 O 147.972 2.35835 5.19363 0
M  V30 1646 O 146.906 4.12144 4.38658 0
M  V30 1647 H 150.732 2.69303 1.40391 0
M  V30 1648 H 148.317 1.35389 0.631688 0
M  V30 1649 H 150.199 1.94311 3.73926 0
M  V30 1650 H 148.874 0.932588 3.09975 0
M  V30 1651 H 147.781 3.0522 2.16314 0
M  V30 1652 H 149.114 4.00433 2.86206 0
M  V30 1653 N 150.766 -0.704594 1.40972 0
M  V30 1654 C 152.013 -1.46458 1.39844 0
M  V30 1655 C 152.341 -1.94499 0.00447594 0
M  V30 1656 O 151.596 -1.69275 -0.982057 0
M  V30 1657 C 151.895 -2.698 2.34399 0
M  V30 1658 C 151.561 -2.40464 3.81429 0
M  V30 1659 C 150.223 -2.32174 4.21484 0
M  V30 1660 C 152.575 -2.16086 4.74296 0
M  V30 1661 C 149.903 -1.97589 5.52427 0
M  V30 1662 C 152.255 -1.83011 6.05549 0
M  V30 1663 C 150.919 -1.7321 6.44635 0
M  V30 1664 H 150.189 -0.535927 0.511725 0
M  V30 1665 H 152.836 -0.806124 1.73706 0
M  V30 1666 H 151.141 -3.40536 1.93759 0
M  V30 1667 H 152.838 -3.27919 2.30804 0
M  V30 1668 H 149.428 -2.47808 3.49699 0
M  V30 1669 H 153.612 -2.2144 4.4416 0
M  V30 1670 H 148.868 -1.88547 5.81601 0
M  V30 1671 H 153.042 -1.63164 6.77016 0
M  V30 1672 H 150.669 -1.46179 7.46013 0
M  V30 1673 N 152.244 -1.26651 -0.937939 0
M  V30 1674 C 153.492 -1.12165 -1.68118 0
M  V30 1675 C 153.813 0.334983 -1.92101 0
M  V30 1676 O 153.083 1.23583 -1.52 0
M  V30 1677 H 151.663 -0.412093 -0.623048 0
M  V30 1678 H 154.325 -1.59027 -1.12678 0
M  V30 1679 H 153.421 -1.64289 -2.6536 0
M  V30 1680 N 153.722 1.14298 -1.08507 0
M  V30 1681 C 154.652 2.21542 -0.737646 0
M  V30 1682 C 155.633 1.67773 0.280377 0
M  V30 1683 O 156.818 1.93616 0.150521 0
M  V30 1684 C 153.948 3.46988 -0.147259 0
M  V30 1685 C 152.902 4.13789 -1.09374 0
M  V30 1686 C 152.228 5.33449 -0.365524 0
M  V30 1687 C 153.528 4.62208 -2.4323 0
M  V30 1688 H 155.222 2.5086 -1.6343 0
M  V30 1689 H 152.768 1.20576 -0.787243 0
M  V30 1690 H 154.721 4.21262 0.107808 0
M  V30 1691 H 153.445 3.17037 0.784538 0
M  V30 1692 H 152.104 3.4147 -1.33393 0
M  V30 1693 H 151.752 4.99759 0.57011 0
M  V30 1694 H 151.452 5.79088 -0.996512 0
M  V30 1695 H 152.976 6.10485 -0.118534 0
M  V30 1696 H 154.39 5.27952 -2.23472 0
M  V30 1697 H 152.787 5.18553 -3.02031 0
M  V30 1698 H 153.857 3.77224 -3.04681 0
M  V30 1699 N 155.201 0.870884 1.31352 0
M  V30 1700 C 156.478 0.402907 1.91405 0
M  V30 1701 C 156.858 -1.11512 1.79244 0
M  V30 1702 O 156.206 -1.94411 1.2007 0
M  V30 1703 C 156.416 0.885301 3.37585 0
M  V30 1704 C 157.764 0.911971 4.14691 0
M  V30 1705 O 158.788 0.831016 3.46371 0
M  V30 1706 O 157.647 1.02927 5.3672 0
M  V30 1707 H 154.741 0.120698 0.818145 0
M  V30 1708 H 157.287 0.958857 1.40014 0
M  V30 1709 H 156.059 1.92889 3.40455 0
M  V30 1710 H 155.682 0.307714 3.96407 0
M  V30 1711 N 156.679 -1.44442 0.630414 0
M  V30 1712 C 157.904 -2.06927 0.139944 0
M  V30 1713 C 158.329 -1.46795 -1.17613 0
M  V30 1714 O 157.687 -0.569144 -1.72135 0
M  V30 1715 C 157.735 -3.6058 0.0379581 0
M  V30 1716 O 156.839 -3.99937 -1.0062 0
M  V30 1717 H 156.18 -0.658608 0.0844483 0
M  V30 1718 H 158.71 -1.85327 0.866891 0
M  V30 1719 H 158.72 -4.07714 -0.152856 0
M  V30 1720 H 157.395 -4.03728 0.998809 0
M  V30 1721 H 155.972 -3.64436 -0.79001 0
M  V30 1722 N 158.157 -0.370918 -1.53173 0
M  V30 1723 C 159.403 0.217423 -2.01631 0
M  V30 1724 C 159.736 1.47983 -1.25756 0
M  V30 1725 O 159.011 1.91274 -0.352764 0
M  V30 1726 C 159.294 0.503982 -3.56556 0
M  V30 1727 C 159.147 -0.77243 -4.43118 0
M  V30 1728 C 160.466 1.30234 -4.20389 0
M  V30 1729 H 157.585 0.0775486 -0.732909 0
M  V30 1730 H 160.227 -0.496863 -1.83388 0
M  V30 1731 H 158.377 1.11248 -3.72231 0
M  V30 1732 H 160.049 -1.4098 -4.39229 0
M  V30 1733 H 158.292 -1.39167 -4.10871 0
M  V30 1734 H 158.963 -0.526815 -5.4948 0
M  V30 1735 H 161.439 0.787546 -4.08579 0
M  V30 1736 H 160.315 1.47158 -5.28806 0
M  V30 1737 H 160.576 2.31237 -3.76805 0
M  V30 1738 N 159.635 1.57281 -0.100228 0
M  V30 1739 C 160.545 2.17833 0.870965 0
M  V30 1740 C 161.561 1.14921 1.30649 0
M  V30 1741 O 162.737 1.47313 1.37335 0
M  V30 1742 C 159.802 2.75085 2.1102 0
M  V30 1743 C 158.863 3.9297 1.72838 0
M  V30 1744 C 158.096 4.47482 2.90854 0
M  V30 1745 O 158.319 4.00922 4.05731 0
M  V30 1746 O 157.253 5.38433 2.69023 0
M  V30 1747 H 161.079 3.0124 0.38575 0
M  V30 1748 H 158.664 1.48881 0.124397 0
M  V30 1749 H 160.546 3.11656 2.83634 0
M  V30 1750 H 159.221 1.94721 2.58584 0
M  V30 1751 H 158.128 3.61201 0.973883 0
M  V30 1752 H 159.461 4.74713 1.30033 0
M  V30 1753 N 161.113 -0.173488 1.56642 0
M  V30 1754 C 162.043 -1.2171 1.99271 0
M  V30 1755 C 163.024 -1.46289 0.867959 0
M  V30 1756 O 164.209 -1.5766 1.13388 0
M  V30 1757 C 161.339 -2.55651 2.35074 0
M  V30 1758 C 160.293 -2.45645 3.50489 0
M  V30 1759 C 159.619 -3.84056 3.72028 0
M  V30 1760 C 160.919 -1.96302 4.84007 0
M  V30 1761 H 162.613 -0.86275 2.867 0
M  V30 1762 H 160.159 -0.413571 1.37933 0
M  V30 1763 H 162.112 -3.2886 2.63494 0
M  V30 1764 H 160.836 -2.92869 1.44552 0
M  V30 1765 H 159.495 -1.7489 3.22194 0
M  V30 1766 H 159.143 -4.18664 2.788 0
M  V30 1767 H 158.843 -3.7823 4.49684 0
M  V30 1768 H 160.367 -4.58854 4.02846 0
M  V30 1769 H 161.781 -2.59284 5.11317 0
M  V30 1770 H 160.178 -2.01429 5.65284 0
M  V30 1771 H 161.248 -0.917226 4.76146 0
M  V30 1772 N 162.591 -1.51276 -0.441967 0
M  V30 1773 C 163.554 -1.7167 -1.51862 0
M  V30 1774 C 164.554 -0.586793 -1.49711 0
M  V30 1775 O 165.744 -0.854276 -1.51815 0
M  V30 1776 C 162.876 -1.76889 -2.91416 0
M  V30 1777 H 164.069 -2.67754 -1.35084 0
M  V30 1778 H 161.622 -1.41196 -0.670333 0
M  V30 1779 H 162.357 -0.826026 -3.13604 0
M  V30 1780 H 162.142 -2.59001 -2.94382 0
M  V30 1781 H 163.632 -1.94522 -3.69528 0
M  V30 1782 N 164.069 0.697108 -1.41344 0
M  V30 1783 C 165.019 1.80313 -1.39539 0
M  V30 1784 C 166.003 1.58618 -0.270001 0
M  V30 1785 O 167.195 1.69477 -0.510551 0
M  V30 1786 C 164.324 3.18606 -1.27848 0
M  V30 1787 C 163.41 3.46001 -2.45244 0
M  V30 1788 N 163.801 3.44103 -3.70711 0
M  V30 1789 C 162.099 3.76542 -2.39023 0
M  V30 1790 C 162.8 3.7036 -4.48563 0
M  V30 1791 N 161.776 3.90027 -3.78655 0
M  V30 1792 H 165.578 1.77207 -2.34468 0
M  V30 1793 H 163.092 0.897031 -1.35378 0
M  V30 1794 H 165.089 3.97833 -1.24637 0
M  V30 1795 H 163.749 3.22925 -0.339032 0
M  V30 1796 H 164.76 3.2452 -4.03618 0
M  V30 1797 H 161.437 3.88241 -1.53542 0
M  V30 1798 H 162.827 3.75042 -5.57488 0
M  V30 1799 N 165.547 1.27147 0.931209 0
M  V30 1800 C 166.777 1.15914 1.71019 0
M  V30 1801 C 167.185 -0.287112 1.87009 0
M  V30 1802 O 166.528 -1.20761 1.38429 0
M  V30 1803 C 166.59 1.76647 3.13107 0
M  V30 1804 C 166.254 3.25807 3.20467 0
M  V30 1805 C 167.251 4.22489 3.02983 0
M  V30 1806 C 164.936 3.66452 3.43538 0
M  V30 1807 C 166.93 5.57794 3.08454 0
M  V30 1808 C 164.617 5.01888 3.48643 0
M  V30 1809 C 165.615 5.97369 3.31119 0
M  V30 1810 O 165.303 7.30337 3.35952 0
M  V30 1811 H 165.035 0.404062 0.54195 0
M  V30 1812 H 167.589 1.68457 1.17521 0
M  V30 1813 H 165.819 1.18578 3.68071 0
M  V30 1814 H 167.508 1.60179 3.72958 0
M  V30 1815 H 168.274 3.92425 2.85004 0
M  V30 1816 H 164.153 2.92611 3.5623 0
M  V30 1817 H 167.697 6.32298 2.94694 0
M  V30 1818 H 163.594 5.31609 3.66145 0
M  V30 1819 H 164.362 7.38739 3.5243 0
M  V30 1820 N 167.025 -1.13721 1.09112 0
M  V30 1821 C 168.302 -1.81155 0.737706 0
M  V30 1822 C 168.682 -1.96253 -0.777683 0
M  V30 1823 O 168.03 -1.52807 -1.69889 0
M  V30 1824 C 168.24 -3.16392 1.47299 0
M  V30 1825 C 169.588 -3.91787 1.63671 0
M  V30 1826 O 170.612 -3.26005 1.43524 0
M  V30 1827 O 169.471 -5.0977 1.96969 0
M  V30 1828 H 166.565 -0.783518 0.26463 0
M  V30 1829 H 169.111 -1.20676 1.19312 0
M  V30 1830 H 167.883 -3.0061 2.50498 0
M  V30 1831 H 167.506 -3.8457 1.00953 0
M  V30 1832 N 168.503 -0.877838 -1.30888 0
M  V30 1833 C 169.749 -0.493426 -1.96706 0
M  V30 1834 C 170.082 0.953504 -1.6918 0
M  V30 1835 O 169.357 1.67266 -0.992594 0
M  V30 1836 C 169.64 -0.760429 -3.51979 0
M  V30 1837 C 169.493 -2.25747 -3.89048 0
M  V30 1838 C 170.812 -0.232148 -4.39487 0
M  V30 1839 H 167.931 -0.180746 -0.714493 0
M  V30 1840 H 170.573 -1.10052 -1.54882 0
M  V30 1841 H 168.723 -0.243715 -3.87735 0
M  V30 1842 H 170.395 -2.84204 -3.63354 0
M  V30 1843 H 168.638 -2.72694 -3.37373 0
M  V30 1844 H 169.309 -2.39491 -4.97341 0
M  V30 1845 H 171.785 -0.674314 -4.106 0
M  V30 1846 H 170.661 -0.448355 -5.47066 0
M  V30 1847 H 170.922 0.866297 -4.33529 0
M  V30 1848 N 169.982 1.44106 -0.638065 0
M  V30 1849 C 170.912 2.33448 0.0494287 0
M  V30 1850 C 171.893 1.48606 0.827672 0
M  V30 1851 O 173.078 1.77308 0.792173 0
M  V30 1852 C 170.208 3.31771 1.02691 0
M  V30 1853 C 169.162 4.26485 0.359823 0
M  V30 1854 C 168.488 5.14729 1.44769 0
M  V30 1855 C 169.788 5.17056 -0.738296 0
M  V30 1856 H 171.482 2.91183 -0.696636 0
M  V30 1857 H 169.028 1.40014 -0.336456 0
M  V30 1858 H 170.981 3.93161 1.51666 0
M  V30 1859 H 169.705 2.7226 1.80395 0
M  V30 1860 H 168.364 3.66437 -0.10934 0
M  V30 1861 H 168.012 4.51566 2.21578 0
M  V30 1862 H 167.712 5.78913 1.00668 0
M  V30 1863 H 169.236 5.78991 1.93911 0
M  V30 1864 H 170.65 5.72342 -0.331354 0
M  V30 1865 H 169.047 5.89879 -1.10286 0
M  V30 1866 H 170.117 4.57652 -1.60258 0
M  V30 1867 N 171.46 0.379036 1.52974 0
M  V30 1868 C 172.39 -0.452706 2.29069 0
M  V30 1869 C 173.371 -1.07237 1.32039 0
M  V30 1870 O 174.556 -1.08708 1.60923 0
M  V30 1871 C 171.686 -1.5856 3.08992 0
M  V30 1872 C 170.64 -1.0925 4.13822 0
M  V30 1873 C 169.966 -2.31668 4.81907 0
M  V30 1874 C 171.266 -0.167702 5.22031 0
M  V30 1875 H 172.96 0.182181 2.98845 0
M  V30 1876 H 170.506 0.0890592 1.43724 0
M  V30 1877 H 172.459 -2.1742 3.6098 0
M  V30 1878 H 171.183 -2.24792 2.36931 0
M  V30 1879 H 169.842 -0.526494 3.628 0
M  V30 1880 H 169.49 -2.96386 4.06404 0
M  V30 1881 H 169.19 -1.9934 5.52754 0
M  V30 1882 H 170.714 -2.91189 5.36695 0
M  V30 1883 H 172.128 -0.664186 5.6944 0
M  V30 1884 H 170.525 0.0653265 6.00064 0
M  V30 1885 H 171.595 0.786347 4.78482 0
M  V30 1886 N 172.938 -1.57226 0.108567 0
M  V30 1887 C 174.163 -1.99604 -0.563303 0
M  V30 1888 C 174.588 -0.987563 -1.6009 0
M  V30 1889 O 173.946 0.0421687 -1.81251 0
M  V30 1890 C 173.994 -3.40902 -1.17552 0
M  V30 1891 O 173.098 -3.42896 -2.2912 0
M  V30 1892 H 172.439 -0.648704 -0.1417 0
M  V30 1893 H 174.969 -2.03679 0.193961 0
M  V30 1894 H 174.979 -3.78886 -1.51357 0
M  V30 1895 H 173.654 -4.1382 -0.415445 0
M  V30 1896 H 172.231 -3.1672 -1.96832 0
M  V30 1897 N 174.416 0.165178 -1.56732 0
M  V30 1898 C 175.646 0.894919 -1.86212 0
M  V30 1899 C 176.054 1.76066 -0.692627 0
M  V30 1900 O 175.397 1.80387 0.347303 0
M  V30 1901 C 175.459 1.8174 -3.10179 0
M  V30 1902 C 175.123 1.13064 -4.42793 0
M  V30 1903 C 176.12 0.493169 -5.17556 0
M  V30 1904 C 173.805 1.12556 -4.89527 0
M  V30 1905 C 175.799 -0.140209 -6.37246 0
M  V30 1906 C 173.486 0.488366 -6.09145 0
M  V30 1907 C 174.484 -0.143411 -6.82849 0
M  V30 1908 O 174.172 -0.77055 -8.00199 0
M  V30 1909 H 173.904 0.265114 -0.621844 0
M  V30 1910 H 176.458 0.168242 -2.0471 0
M  V30 1911 H 174.688 2.58455 -2.87642 0
M  V30 1912 H 176.377 2.4175 -3.26055 0
M  V30 1913 H 177.143 0.489023 -4.82528 0
M  V30 1914 H 173.022 1.60672 -4.32094 0
M  V30 1915 H 176.566 -0.633932 -6.94714 0
M  V30 1916 H 172.463 0.490116 -6.43637 0
M  V30 1917 H 173.231 -0.670408 -8.1575 0
M  V30 1918 N 175.894 1.51508 0.433938 0
M  V30 1919 C 177.305 1.56784 1.01369 0
M  V30 1920 C 177.656 0.393349 1.92217 0
M  V30 1921 O 176.781 -0.489441 2.10792 0
M  V30 1922 C 177.376 2.84144 1.8452 0
M  V30 1923 C 175.935 2.9198 2.37539 0
M  V30 1924 C 175.082 2.51482 1.16843 0
M  V30 1925 H 178.033 1.57236 0.215081 0
M  V30 1926 H 178.054 2.68098 2.70007 0
M  V30 1927 H 177.566 3.69607 1.18373 0
M  V30 1928 H 175.667 2.10955 3.0713 0
M  V30 1929 H 175.78 3.95704 2.70103 0
M  V30 1930 H 174.144 2.04758 1.51481 0
M  V30 1931 H 174.927 3.39293 0.523015 0
M  V30 1932 N 177.372 -0.689602 1.41712 0
M  V30 1933 C 178.32 -1.82475 1.44242 0
M  V30 1934 C 179.314 -1.66354 0.319774 0
M  V30 1935 O 180.52 -1.73143 0.492089 0
M  V30 1936 H 176.895 -0.601416 0.451445 0
M  V30 1937 H 178.866 -1.77458 2.39899 0
M  V30 1938 C 177.615 -3.20535 1.3473 0
M  V30 1939 H 176.938 -3.33559 2.20405 0
M  V30 1940 H 178.378 -4.00023 1.40562 0
M  V30 1941 C 176.837 -3.36846 0.0603281 0
M  V30 1942 O 177.367 -3.91656 -0.892663 0
M  V30 1943 N 175.573 -2.90595 -0.0177039 0
M  V30 1944 H 175.12 -2.46178 0.758572 0
M  V30 1945 H 175.078 -3.01886 -0.878201 0
M  V30 1946 N 178.85 -1.27639 -0.924453 0
M  V30 1947 C 179.797 -1.10644 -2.0255 0
M  V30 1948 C 180.767 -0.00658438 -1.66099 0
M  V30 1949 O 181.952 -0.16952 -1.90045 0
M  V30 1950 C 179.092 -0.76309 -3.36557 0
M  V30 1951 C 178.205 -1.94091 -3.85944 0
M  V30 1952 C 177.34 -1.53914 -5.08413 0
M  V30 1953 C 176.379 -2.68425 -5.50104 0
M  V30 1954 N 175.516 -2.28815 -6.63768 0
M  V30 1955 H 180.356 -2.04858 -2.16419 0
M  V30 1956 H 177.893 -1.01974 -1.06017 0
M  V30 1957 H 179.851 -0.544822 -4.13627 0
M  V30 1958 H 178.481 0.142102 -3.22487 0
M  V30 1959 H 177.533 -2.27162 -3.05125 0
M  V30 1960 H 178.845 -2.7998 -4.12811 0
M  V30 1961 H 177.999 -1.28231 -5.92994 0
M  V30 1962 H 176.738 -0.651391 -4.8333 0
M  V30 1963 H 175.743 -2.94819 -4.64071 0
M  V30 1964 H 176.968 -3.57826 -5.7718 0
M  V30 1965 H 174.914 -1.42495 -6.40337 0
M  V30 1966 H 174.831 -3.08242 -6.90306 0
M  V30 1967 H 176.099 -2.06387 -7.51681 0
M  V30 1968 N 180.328 1.1314 -1.09713 0
M  V30 1969 C 181.556 1.88321 -0.856898 0
M  V30 1970 C 181.971 1.79276 0.592073 0
M  V30 1971 O 181.328 1.16142 1.40774 0
M  V30 1972 C 181.379 3.37812 -1.28706 0
M  V30 1973 O 181.1 3.46627 -2.67921 0
M  V30 1974 C 182.601 4.29952 -1.07964 0
M  V30 1975 H 179.821 0.596094 -0.308079 0
M  V30 1976 H 182.365 1.43205 -1.45988 0
M  V30 1977 H 180.52 3.805 -0.727912 0
M  V30 1978 H 180.934 4.39579 -2.8613 0
M  V30 1979 H 182.408 5.33159 -1.42986 0
M  V30 1980 H 182.885 4.39196 -0.0176577 0
M  V30 1981 H 183.491 3.93036 -1.62489 0
M  V30 1982 N 181.806 0.884767 1.30421 0
M  V30 1983 C 182.756 0.322846 2.25703 0
M  V30 1984 C 183.74 -0.548582 1.51259 0
M  V30 1985 O 184.932 -0.39304 1.72581 0
M  V30 1986 C 182.061 -0.461787 3.4018 0
M  V30 1987 C 181.147 0.423717 4.21978 0
M  V30 1988 N 181.538 1.52408 4.82292 0
M  V30 1989 C 179.836 0.218795 4.45463 0
M  V30 1990 C 180.537 2.07136 5.43571 0
M  V30 1991 N 179.513 1.36635 5.26148 0
M  V30 1992 H 183.315 1.16363 2.69883 0
M  V30 1993 H 180.829 0.73415 1.44859 0
M  V30 1994 H 182.826 -0.880985 4.07485 0
M  V30 1995 H 181.486 -1.30001 2.9754 0
M  V30 1996 H 182.497 1.90693 4.81515 0
M  V30 1997 H 179.174 -0.582275 4.1342 0
M  V30 1998 H 180.564 2.99538 6.01437 0
M  V30 1999 N 183.284 -1.43765 0.645699 0
M  V30 2000 C 184.695 -1.85193 0.236719 0
M  V30 2001 C 185.046 -1.54045 -1.21509 0
M  V30 2002 O 184.171 -0.985694 -1.92647 0
M  V30 2003 C 184.766 -3.36151 0.422845 0
M  V30 2004 C 183.325 -3.76338 0.0682492 0
M  V30 2005 C 182.472 -2.67538 0.729306 0
M  V30 2006 H 185.423 -1.34025 0.849883 0
M  V30 2007 H 185.444 -3.79032 -0.333904 0
M  V30 2008 H 184.956 -3.5879 1.47958 0
M  V30 2009 H 183.057 -3.59312 -0.986179 0
M  V30 2010 H 183.17 -4.76603 0.488469 0
M  V30 2011 H 181.534 -2.54176 0.163235 0
M  V30 2012 H 182.317 -2.93006 1.78892 0
M  V30 2013 N 184.763 -0.387143 -1.52771 0
M  V30 2014 C 185.711 0.463953 -2.27926 0
M  V30 2015 C 186.705 1.06493 -1.31741 0
M  V30 2016 O 187.911 1.00565 -1.49287 0
M  V30 2017 H 184.286 0.16837 -0.732909 0
M  V30 2018 H 186.257 -0.19141 -2.97785 0
M  V30 2019 C 185.006 1.5803 -3.09713 0
M  V30 2020 H 184.329 1.12718 -3.83581 0
M  V30 2021 H 185.769 2.15008 -3.65442 0
M  V30 2022 C 184.228 2.53509 -2.2189 0
M  V30 2023 O 184.758 3.56863 -1.84422 0
M  V30 2024 N 182.964 2.23199 -1.86093 0
M  V30 2025 H 182.511 1.39185 -2.16761 0
M  V30 2026 H 182.469 2.87333 -1.27621 0
M  V30 2027 N 186.241 1.57166 -0.116904 0
M  V30 2028 C 187.471 1.99184 0.548586 0
M  V30 2029 C 187.879 0.995436 1.60897 0
M  V30 2030 O 187.222 -0.0201293 1.83689 0
M  V30 2031 C 187.284 3.37611 1.23526 0
M  V30 2032 C 186.948 4.55857 0.323077 0
M  V30 2033 C 187.945 5.18056 -0.437476 0
M  V30 2034 C 185.63 5.01751 0.234761 0
M  V30 2035 C 187.624 6.24536 -1.2741 0
M  V30 2036 C 185.311 6.08093 -0.605496 0
M  V30 2037 C 186.309 6.69352 -1.35856 0
M  V30 2038 O 185.997 7.7364 -2.18487 0
M  V30 2039 H 185.729 0.659148 0.149999 0
M  V30 2040 H 188.283 2.0443 -0.199428 0
M  V30 2041 H 186.513 3.29113 2.0303 0
M  V30 2042 H 188.202 3.63932 1.79745 0
M  V30 2043 H 188.968 4.83516 -0.379105 0
M  V30 2044 H 184.847 4.53817 0.810601 0
M  V30 2045 H 188.391 6.72281 -1.86237 0
M  V30 2046 H 184.288 6.42063 -0.665268 0
M  V30 2047 H 185.056 7.90727 -2.11406 0
M  V30 2048 N 187.719 -0.156864 1.56817 0
M  V30 2049 C 188.968 -0.869504 1.81996 0
M  V30 2050 C 189.281 -1.82777 0.696545 0
M  V30 2051 O 190.487 -2.58384 0.833658 0
M  V30 2052 C 188.943 -1.59679 3.22538 0
M  V30 2053 C 188.551 -0.681431 4.42787 0
M  V30 2054 C 190.295 -2.2968 3.56997 0
M  V30 2055 C 188.202 -1.40978 5.74351 0
M  V30 2056 H 187.132 -0.328438 0.678708 0
M  V30 2057 H 189.783 -0.1223 1.83092 0
M  V30 2058 H 188.165 -2.38927 3.158 0
M  V30 2059 H 189.339 0.0751166 4.60739 0
M  V30 2060 H 187.654 -0.0903431 4.16302 0
M  V30 2061 H 190.251 -2.84794 4.52544 0
M  V30 2062 H 190.594 -3.05707 2.82576 0
M  V30 2063 H 191.127 -1.57361 3.65352 0
M  V30 2064 H 187.866 -0.691561 6.51842 0
M  V30 2065 H 187.386 -2.13929 5.60352 0
M  V30 2066 H 189.065 -1.95337 6.16808 0
M  V30 2067 N 189.197 -1.51736 -0.425897 0
M  V30 2068 C 190.422 -1.69082 -1.20108 0
M  V30 2069 C 190.847 -0.392398 -1.83962 0
M  V30 2070 O 190.205 0.64858 -1.69302 0
M  V30 2071 C 190.253 -2.81604 -2.25237 0
M  V30 2072 O 189.357 -2.46004 -3.30992 0
M  V30 2073 H 188.698 -0.563408 -0.35138 0
M  V30 2074 H 191.228 -1.98358 -0.501512 0
M  V30 2075 H 191.238 -3.06025 -2.69838 0
M  V30 2076 H 189.913 -3.75817 -1.78142 0
M  V30 2077 H 188.49 -2.32195 -2.91787 0
M  V30 2078 N 190.675 0.682077 -1.42076 0
M  V30 2079 C 191.924 1.43786 -1.41451 0
M  V30 2080 C 192.237 1.95574 -0.0317074 0
M  V30 2081 O 193.443 2.71326 0.0971462 0
M  V30 2082 C 191.899 2.60071 -2.48779 0
M  V30 2083 C 191.507 2.15013 -3.93031 0
M  V30 2084 C 193.251 3.37626 -2.57311 0
M  V30 2085 C 191.158 3.28336 -4.91883 0
M  V30 2086 H 190.088 0.540143 -0.526082 0
M  V30 2087 H 192.739 0.739157 -1.67955 0
M  V30 2088 H 191.121 3.32275 -2.15429 0
M  V30 2089 H 192.295 1.5001 -4.35699 0
M  V30 2090 H 190.61 1.50416 -3.88284 0
M  V30 2091 H 193.207 4.22012 -3.28345 0
M  V30 2092 H 193.55 3.83727 -1.61429 0
M  V30 2093 H 194.083 2.72488 -2.89819 0
M  V30 2094 H 190.822 2.87234 -5.89217 0
M  V30 2095 H 190.342 3.92145 -4.53853 0
M  V30 2096 H 192.021 3.93913 -5.13265 0
M  V30 2097 N 192.153 1.28127 0.917671 0
M  V30 2098 C 193.402 1.14432 1.66097 0
M  V30 2099 C 193.715 -0.307247 1.93172 0
M  V30 2100 O 194.921 -0.565259 2.65551 0
M  V30 2101 C 193.377 2.00015 2.99202 0
M  V30 2102 C 192.985 3.49889 2.79789 0
M  V30 2103 C 194.729 1.94996 3.77064 0
M  V30 2104 C 192.636 4.27636 4.08511 0
M  V30 2105 H 191.566 0.424662 0.62304 0
M  V30 2106 H 194.217 1.52628 1.01868 0
M  V30 2107 H 192.599 1.54672 3.64544 0
M  V30 2108 H 193.773 4.03162 2.23152 0
M  V30 2109 H 192.088 3.56392 2.15345 0
M  V30 2110 H 194.685 2.50354 4.72469 0
M  V30 2111 H 195.028 0.925819 4.05875 0
M  V30 2112 H 195.561 2.38287 3.18534 0
M  V30 2113 H 192.3 5.30615 3.84874 0
M  V30 2114 H 191.82 3.79137 4.64774 0
M  V30 2115 H 193.499 4.37346 4.76799 0
M  V30 2116 N 193.631 -1.12557 1.10312 0
M  V30 2117 C 194.579 -2.20325 0.745629 0
M  V30 2118 C 195.573 -1.67429 -0.25763 0
M  V30 2119 O 196.779 -1.79612 -0.118132 0
M  V30 2120 H 193.154 -0.718118 0.223182 0
M  V30 2121 H 195.125 -2.47733 1.66346 0
M  V30 2122 C 193.874 -3.47168 0.192262 0
M  V30 2123 H 193.197 -3.88215 0.955475 0
M  V30 2124 H 194.637 -4.23995 -0.0198274 0
M  V30 2125 C 193.096 -3.19298 -1.07472 0
M  V30 2126 O 193.626 -3.3891 -2.15645 0
M  V30 2127 N 191.832 -2.73113 -0.992847 0
M  V30 2128 H 191.379 -2.57354 -0.112474 0
M  V30 2129 H 191.337 -2.54842 -1.84127 0
M  V30 2130 N 195.109 -0.891671 -1.2995 0
M  V30 2131 C 196.019 -0.367691 -2.31701 0
M  V30 2132 C 197.035 0.533486 -1.6562 0
M  V30 2133 O 198.211 0.424997 -1.96865 0
M  V30 2134 C 195.276 0.403406 -3.44345 0
M  V30 2135 C 194.337 -0.528328 -4.26037 0
M  V30 2136 C 193.57 0.206063 -5.33302 0
M  V30 2137 O 193.793 1.43119 -5.52153 0
M  V30 2138 O 192.727 -0.447281 -6.00236 0
M  V30 2139 H 196.553 -1.21163 -2.78484 0
M  V30 2140 H 194.138 -0.655725 -1.34241 0
M  V30 2141 H 196.02 0.839753 -4.12948 0
M  V30 2142 H 194.695 1.22354 -2.99685 0
M  V30 2143 H 193.602 -1.01362 -3.60106 0
M  V30 2144 H 194.935 -1.31465 -4.74318 0
M  V30 2145 N 196.587 1.43421 -0.653314 0
M  V30 2146 C 197.864 1.95361 -0.0966581 0
M  V30 2147 C 198.244 1.59461 1.38331 0
M  V30 2148 O 197.592 0.879777 2.10884 0
M  V30 2149 C 197.802 3.47311 -0.342988 0
M  V30 2150 C 199.15 4.23875 -0.24798 0
M  V30 2151 O 200.174 3.55133 -0.275553 0
M  V30 2152 O 199.033 5.4623 -0.171771 0
M  V30 2153 H 196.127 0.826945 0.00956291 0
M  V30 2154 H 198.673 1.5336 -0.726558 0
M  V30 2155 H 197.445 3.66569 -1.36906 0
M  V30 2156 H 197.068 3.9631 0.319975 0
M  V30 2157 N 198.065 0.39524 1.52563 0
M  V30 2158 C 199.313 -0.184678 2.01254 0
M  V30 2159 C 199.634 -1.46822 1.28329 0
M  V30 2160 O 198.904 -1.91666 0.405094 0
M  V30 2161 H 197.484 -0.0712355 0.743596 0
M  V30 2162 H 200.146 0.528293 1.87603 0
M  V30 2163 H 199.242 -0.390681 3.09645 0
M  V30 2164 N 199.544 -1.57102 0.125237 0
M  V30 2165 C 200.492 -2.16905 -0.839927 0
M  V30 2166 C 201.486 -1.11998 -1.27094 0
M  V30 2167 O 202.692 -1.3029 -1.24195 0
M  V30 2168 H 199.067 -0.694252 -0.288995 0
M  V30 2169 H 201.038 -2.96774 -0.311115 0
M  V30 2170 C 199.787 -2.78795 -2.07771 0
M  V30 2171 H 199.11 -3.59221 -1.755 0
M  V30 2172 H 200.55 -3.2417 -2.73295 0
M  V30 2173 C 199.009 -1.76193 -2.87155 0
M  V30 2174 O 199.539 -1.21909 -3.82755 0
M  V30 2175 N 197.745 -1.45991 -2.51267 0
M  V30 2176 H 197.292 -1.90325 -1.73592 0
M  V30 2177 H 197.25 -0.775844 -3.04677 0
M  V30 2178 N 201.022 0.148545 -1.56898 0
M  V30 2179 C 201.932 1.20293 -2.01412 0
M  V30 2180 C 202.948 1.47107 -0.929273 0
M  V30 2181 O 204.124 1.58807 -1.23863 0
M  V30 2182 C 201.189 2.51682 -2.38447 0
M  V30 2183 C 200.25 2.32529 -3.60872 0
M  V30 2184 C 199.483 3.57653 -3.96132 0
M  V30 2185 O 199.706 4.63771 -3.32073 0
M  V30 2186 O 198.64 3.50408 -4.89385 0
M  V30 2187 H 202.466 0.855025 -2.91416 0
M  V30 2188 H 200.051 0.357151 -1.45068 0
M  V30 2189 H 201.933 3.29147 -2.63135 0
M  V30 2190 H 200.608 2.86006 -1.51599 0
M  V30 2191 H 199.515 1.53019 -3.41373 0
M  V30 2192 H 200.848 2.03121 -4.48333 0
M  V30 2193 N 202.5 1.5196 0.417844 0
M  V30 2194 C 203.749 1.6482 1.16264 0
M  V30 2195 C 204.062 0.379886 1.91876 0
M  V30 2196 O 205.268 0.388154 2.68711 0
M  V30 2197 C 203.724 2.91161 2.1155 0
M  V30 2198 C 203.332 4.25068 1.41495 0
M  V30 2199 C 205.076 3.13383 2.86341 0
M  V30 2200 C 202.983 5.42541 2.35379 0
M  V30 2201 H 201.913 0.613954 0.437694 0
M  V30 2202 H 204.564 1.78442 0.427871 0
M  V30 2203 H 202.946 2.71218 2.88543 0
M  V30 2204 H 204.12 4.55463 0.699263 0
M  V30 2205 H 202.435 4.0888 0.787792 0
M  V30 2206 H 205.032 3.98324 3.5671 0
M  V30 2207 H 205.375 2.27256 3.48798 0
M  V30 2208 H 205.908 3.33757 2.1645 0
M  V30 2209 H 202.647 6.30987 1.77582 0
M  V30 2210 H 202.167 5.16497 3.04945 0
M  V30 2211 H 203.846 5.75272 2.96093 0
M  V30 2212 N 203.978 -0.674533 1.42435 0
M  V30 2213 C 205.225 -1.43459 1.42919 0
M  V30 2214 C 205.553 -1.94446 0.0457312 0
M  V30 2215 O 204.808 -1.7132 -0.94593 0
M  V30 2216 C 205.107 -2.64767 2.40069 0
M  V30 2217 C 204.773 -2.3232 3.86443 0
M  V30 2218 C 203.435 -2.23182 4.26314 0
M  V30 2219 C 205.787 -2.05977 4.78773 0
M  V30 2220 C 203.115 -1.85827 5.56494 0
M  V30 2221 C 205.467 -1.70125 6.09295 0
M  V30 2222 C 204.131 -1.59498 6.48164 0
M  V30 2223 H 203.401 -0.524952 0.522978 0
M  V30 2224 H 206.048 -0.769097 1.75377 0
M  V30 2225 H 204.353 -3.36349 2.00939 0
M  V30 2226 H 206.05 -3.22949 2.37707 0
M  V30 2227 H 202.64 -2.40334 3.54877 0
M  V30 2228 H 206.824 -2.11969 4.48757 0
M  V30 2229 H 202.08 -1.76168 5.8547 0
M  V30 2230 H 206.254 -1.48767 6.80324 0
M  V30 2231 H 203.881 -1.30322 7.48946 0
M  V30 2232 N 205.456 -1.28612 -0.910864 0
M  V30 2233 C 206.404 -1.1265 -2.03501 0
M  V30 2234 C 207.398 -0.0450054 -1.6934 0
M  V30 2235 O 208.604 -0.203988 -1.7884 0
M  V30 2236 H 204.979 -0.347639 -0.666822 0
M  V30 2237 H 206.95 -2.07849 -2.14106 0
M  V30 2238 C 205.699 -0.808143 -3.38178 0
M  V30 2239 H 205.022 -1.63231 -3.6496 0
M  V30 2240 H 206.462 -0.736426 -4.17556 0
M  V30 2241 C 204.921 0.488226 -3.33344 0
M  V30 2242 O 205.451 1.51766 -3.71927 0
M  V30 2243 N 203.657 0.490009 -2.86439 0
M  V30 2244 H 203.204 -0.348161 -2.55236 0
M  V30 2245 H 203.162 1.35741 -2.83587 0
M  V30 2246 N 206.934 1.1197 -1.10907 0
M  V30 2247 C 208.162 1.87402 -0.876824 0
M  V30 2248 C 208.577 1.79894 0.573025 0
M  V30 2249 O 207.934 1.17629 1.39534 0
M  V30 2250 C 207.985 3.36428 -1.32282 0
M  V30 2251 O 207.706 3.43765 -2.71582 0
M  V30 2252 C 209.207 4.28783 -1.12518 0
M  V30 2253 H 206.427 0.592793 -0.314384 0
M  V30 2254 H 208.971 1.41649 -1.47499 0
M  V30 2255 H 207.126 3.79706 -0.768229 0
M  V30 2256 H 207.54 4.3652 -2.90776 0
M  V30 2257 H 209.014 5.31613 -1.48633 0
M  V30 2258 H 209.491 4.39153 -0.0642394 0
M  V30 2259 H 210.097 3.91291 -1.66648 0
M  V30 2260 N 208.412 0.89855 1.29475 0
M  V30 2261 C 209.637 0.538561 2.00285 0
M  V30 2262 C 210.062 -0.869135 1.66816 0
M  V30 2263 O 209.42 -1.57831 0.892145 0
M  V30 2264 C 209.468 0.736475 3.52999 0
M  V30 2265 O 208.572 -0.211537 4.11857 0
M  V30 2266 H 207.913 0.210563 0.62973 0
M  V30 2267 H 210.443 1.20982 1.64998 0
M  V30 2268 H 210.453 0.640685 4.02938 0
M  V30 2269 H 209.128 1.76276 3.76696 0
M  V30 2270 H 207.705 -0.0682991 3.72837 0
M  V30 2271 N 209.89 -1.43072 0.660911 0
M  V30 2272 C 210.82 -2.33497 -0.0122829 0
M  V30 2273 C 211.801 -1.49903 -0.803925 0
M  V30 2274 O 212.986 -1.78546 -0.763864 0
M  V30 2275 C 210.116 -3.33363 -0.973994 0
M  V30 2276 C 209.07 -4.27003 -0.291928 0
M  V30 2277 C 208.396 -5.16967 -1.36562 0
M  V30 2278 C 209.696 -5.15816 0.820462 0
M  V30 2279 H 211.39 -2.90038 0.742873 0
M  V30 2280 H 208.936 -1.39461 0.358688 0
M  V30 2281 H 210.889 -3.95524 -1.45392 0
M  V30 2282 H 209.613 -2.75095 -1.7604 0
M  V30 2283 H 208.272 -3.66217 0.167623 0
M  V30 2284 H 207.92 -4.55034 -2.14366 0
M  V30 2285 H 207.62 -5.80441 -0.914454 0
M  V30 2286 H 209.144 -5.82003 -1.84675 0
M  V30 2287 H 210.558 -5.71742 0.422366 0
M  V30 2288 H 208.955 -5.8805 1.19656 0
M  V30 2289 H 210.025 -4.55045 1.67518 0
M  V30 2290 N 211.368 -0.403325 -1.52352 0
M  V30 2291 C 212.615 0.174347 -2.01748 0
M  V30 2292 C 212.943 1.45636 -1.2892 0
M  V30 2293 O 212.198 1.9193 -0.382258 0
M  V30 2294 C 212.497 0.474665 -3.54234 0
M  V30 2295 C 212.163 -0.717458 -4.45155 0
M  V30 2296 C 210.825 -1.04447 -4.69728 0
M  V30 2297 C 213.177 -1.51432 -4.98716 0
M  V30 2298 C 210.505 -2.16963 -5.45109 0
M  V30 2299 C 212.857 -2.6302 -5.75329 0
M  V30 2300 C 211.521 -2.96213 -5.98175 0
M  V30 2301 H 210.791 0.0637981 -0.738248 0
M  V30 2302 H 213.438 -0.543553 -1.83624 0
M  V30 2303 H 211.743 1.27406 -3.70506 0
M  V30 2304 H 213.44 0.934496 -3.89959 0
M  V30 2305 H 210.03 -0.452596 -4.26204 0
M  V30 2306 H 214.214 -1.27491 -4.79645 0
M  V30 2307 H 209.47 -2.43034 -5.61021 0
M  V30 2308 H 213.644 -3.25158 -6.15829 0
M  V30 2309 H 211.271 -3.83516 -6.56368 0
M  V30 2310 N 212.846 1.57033 -0.133567 0
M  V30 2311 C 213.756 2.19632 0.824564 0
M  V30 2312 C 214.772 1.17666 1.28182 0
M  V30 2313 O 215.948 1.50193 1.3418 0
M  V30 2314 C 213.013 2.79499 2.05137 0
M  V30 2315 C 212.074 3.96548 1.64464 0
M  V30 2316 C 211.307 4.5355 2.81297 0
M  V30 2317 O 211.53 4.09438 3.97136 0
M  V30 2318 O 210.464 5.44018 2.57542 0
M  V30 2319 H 214.29 3.01991 0.321766 0
M  V30 2320 H 211.875 1.49112 0.0927889 0
M  V30 2321 H 213.757 3.17602 2.7696 0
M  V30 2322 H 212.432 2.00162 2.54395 0
M  V30 2323 H 211.339 3.63186 0.897048 0
M  V30 2324 H 212.672 4.77364 1.19934 0
M  V30 2325 N 214.325 -0.140222 1.56975 0
M  V30 2326 C 215.736 -0.699596 1.73097 0
M  V30 2327 C 216.087 -1.8134 0.749022 0
M  V30 2328 O 215.212 -2.16241 -0.0828503 0
M  V30 2329 C 215.807 -1.27582 3.1386 0
M  V30 2330 C 214.366 -1.78169 3.31561 0
M  V30 2331 C 213.513 -0.672855 2.69013 0
M  V30 2332 H 216.464 0.0855115 1.58469 0
M  V30 2333 H 216.485 -2.14561 3.14235 0
M  V30 2334 H 215.997 -0.464955 3.85305 0
M  V30 2335 H 214.098 -2.61801 2.65124 0
M  V30 2336 H 214.211 -1.90574 4.39566 0
M  V30 2337 H 212.575 -1.10118 2.29665 0
M  V30 2338 H 213.358 0.126679 3.43066 0
M  V30 2339 N 215.803 -1.52179 -0.40978 0
M  V30 2340 C 217.214 -1.58377 -0.988615 0
M  V30 2341 C 217.565 -0.423879 -1.91566 0
M  V30 2342 O 216.69 0.455844 -2.11544 0
M  V30 2343 C 217.285 -2.87044 -1.79976 0
M  V30 2344 C 215.844 -2.95722 -2.32863 0
M  V30 2345 C 214.991 -2.53309 -1.12828 0
M  V30 2346 H 217.942 -1.57558 -0.190039 0
M  V30 2347 H 217.963 -2.7236 -2.65707 0
M  V30 2348 H 217.475 -3.71444 -1.12478 0
M  V30 2349 H 215.576 -2.15814 -3.03735 0
M  V30 2350 H 215.689 -3.99951 -2.63773 0
M  V30 2351 H 214.053 -2.07142 -1.48204 0
M  V30 2352 H 214.836 -3.40082 -0.46897 0
M  V30 2353 N 217.281 0.66697 -1.42791 0
M  V30 2354 C 218.692 1.2478 -1.38877 0
M  V30 2355 C 219.043 1.96012 -0.0859426 0
M  V30 2356 O 218.168 2.00463 0.815081 0
M  V30 2357 C 218.763 2.26938 -2.51564 0
M  V30 2358 C 217.322 2.80529 -2.50959 0
M  V30 2359 C 216.469 1.54965 -2.29959 0
M  V30 2360 H 219.42 0.459853 -1.51892 0
M  V30 2361 H 219.441 3.08834 -2.22265 0
M  V30 2362 H 218.953 1.75065 -3.46372 0
M  V30 2363 H 217.054 3.36502 -1.59991 0
M  V30 2364 H 217.167 3.29012 -3.48265 0
M  V30 2365 H 215.531 1.81817 -1.78366 0
M  V30 2366 H 216.314 1.05047 -3.26833 0
M  V30 2367 N 218.759 1.29093 0.90403 0
M  V30 2368 C 220.17 1.15186 1.46932 0
M  V30 2369 C 220.521 -0.254587 1.94541 0
M  V30 2370 O 219.646 -1.14972 1.83332 0
M  V30 2371 C 220.241 2.08492 2.67051 0
M  V30 2372 C 218.8 1.98621 3.19729 0
M  V30 2373 C 217.947 1.9967 1.92425 0
M  V30 2374 H 220.898 1.41641 0.715789 0
M  V30 2375 H 220.919 1.65461 3.42641 0
M  V30 2376 H 220.431 3.10847 2.3237 0
M  V30 2377 H 218.532 0.993389 3.59114 0
M  V30 2378 H 218.645 2.86068 3.8432 0
M  V30 2379 H 217.009 1.44208 2.09943 0
M  V30 2380 H 217.792 3.03721 1.60026 0
M  V30 2381 N 220.237 -1.11381 1.11499 0
M  V30 2382 C 221.485 -1.8277 0.862524 0
M  V30 2383 C 221.806 -1.85097 -0.613534 0
M  V30 2384 O 221.076 -1.32198 -1.4457 0
M  V30 2385 H 219.656 -0.676823 0.316101 0
M  V30 2386 H 222.318 -1.34816 1.4075 0
M  V30 2387 H 221.414 -2.86614 1.23527 0
M  V30 2388 N 221.715 -0.905404 -1.28997 0
M  V30 2389 C 222.945 -0.549049 -1.99171 0
M  V30 2390 C 223.353 0.87203 -1.67906 0
M  V30 2391 O 222.696 1.58796 -0.923561 0
M  V30 2392 C 222.758 -0.668306 -3.53234 0
M  V30 2393 C 222.422 -2.0574 -4.08069 0
M  V30 2394 C 223.419 -3.0292 -4.22534 0
M  V30 2395 C 221.104 -2.36833 -4.42962 0
M  V30 2396 C 223.098 -4.29314 -4.71135 0
M  V30 2397 C 220.785 -3.63467 -4.91258 0
M  V30 2398 C 221.783 -4.59522 -5.053 0
M  V30 2399 O 221.471 -5.83907 -5.52546 0
M  V30 2400 H 221.203 -0.208784 -0.64295 0
M  V30 2401 H 223.757 -1.21836 -1.65363 0
M  V30 2402 H 221.987 0.0580547 -3.86656 0
M  V30 2403 H 223.676 -0.320273 -4.04634 0
M  V30 2404 H 224.442 -2.80216 -3.95859 0
M  V30 2405 H 220.321 -1.62824 -4.31288 0
M  V30 2406 H 223.865 -5.04293 -4.8201 0
M  V30 2407 H 219.762 -3.86 -5.17372 0
M  V30 2408 H 220.53 -5.86578 -5.70849 0
M  V30 2409 N 223.193 1.4272 -0.668489 0
M  V30 2410 C 224.103 2.34596 0.0139753 0
M  V30 2411 C 225.119 1.5474 0.795703 0
M  V30 2412 O 226.295 1.87334 0.739466 0
M  V30 2413 C 223.36 3.33202 0.957982 0
M  V30 2414 C 222.421 4.28957 0.17149 0
M  V30 2415 C 221.654 5.22853 1.07053 0
M  V30 2416 O 221.877 5.21531 2.31001 0
M  V30 2417 O 220.811 5.9952 0.534727 0
M  V30 2418 H 224.637 2.9448 -0.742661 0
M  V30 2419 H 222.222 1.43117 -0.428705 0
M  V30 2420 H 224.104 3.93796 1.50008 0
M  V30 2421 H 222.779 2.758 1.69458 0
M  V30 2422 H 221.686 3.71796 -0.414558 0
M  V30 2423 H 223.019 4.89383 -0.52586 0
M  V30 2424 N 224.671 0.411399 1.52136 0
M  V30 2425 C 225.619 -0.427633 2.28635 0
M  V30 2426 C 226.613 -1.04383 1.33419 0
M  V30 2427 O 227.819 -0.981772 1.50868 0
M  V30 2428 H 224.194 -0.156689 0.735495 0
M  V30 2429 H 226.165 0.238761 2.97443 0
M  V30 2430 C 224.914 -1.53082 3.12188 0
M  V30 2431 H 224.237 -1.06601 3.85326 0
M  V30 2432 H 225.677 -2.09167 3.68816 0
M  V30 2433 C 224.136 -2.49946 2.25895 0
M  V30 2434 O 224.666 -3.53884 1.90076 0
M  V30 2435 N 222.872 -2.2021 1.8962 0
M  V30 2436 H 222.419 -1.35719 2.18948 0
M  V30 2437 H 222.377 -2.85266 1.32176 0
M  V30 2438 N 226.149 -1.5696 0.141893 0
M  V30 2439 C 227.395 -1.9625 -0.511248 0
M  V30 2440 C 227.728 -1.02654 -1.64851 0
M  V30 2441 O 227.003 -0.0679676 -1.94381 0
M  V30 2442 C 227.286 -3.45285 -1.02227 0
M  V30 2443 C 227.139 -4.49658 0.113138 0
M  V30 2444 C 228.458 -3.96698 -1.90574 0
M  V30 2445 H 225.577 -0.713567 -0.184367 0
M  V30 2446 H 228.219 -1.88698 0.222087 0
M  V30 2447 H 226.369 -3.51852 -1.64719 0
M  V30 2448 H 228.041 -4.55174 0.749302 0
M  V30 2449 H 226.284 -4.26857 0.773026 0
M  V30 2450 H 226.955 -5.51258 -0.286053 0
M  V30 2451 H 229.431 -3.92578 -1.37918 0
M  V30 2452 H 228.307 -5.01453 -2.2324 0
M  V30 2453 H 228.568 -3.3875 -2.84079 0
M  V30 2454 N 227.627 0.131896 -1.57047 0
M  V30 2455 C 228.852 0.860418 -1.8871 0
M  V30 2456 C 229.277 1.73251 -0.73251 0
M  V30 2457 O 228.635 1.785 0.317429 0
M  V30 2458 C 228.683 1.68047 -3.19049 0
M  V30 2459 O 227.787 2.7862 -3.04047 0
M  V30 2460 H 227.128 0.238743 -0.619595 0
M  V30 2461 H 229.658 0.118169 -2.04258 0
M  V30 2462 H 229.668 2.07238 -3.51449 0
M  V30 2463 H 228.343 1.04018 -4.02682 0
M  V30 2464 H 226.92 2.42726 -2.83088 0
M  V30 2465 N 229.106 1.52395 0.401703 0
M  V30 2466 C 230.383 1.57387 1.16141 0
M  V30 2467 C 230.763 0.359359 2.08019 0
M  V30 2468 O 230.111 -0.65326 2.18963 0
M  V30 2469 C 230.321 2.90631 1.93221 0
M  V30 2470 C 231.669 3.43904 2.49028 0
M  V30 2471 O 232.693 2.92421 2.03393 0
M  V30 2472 O 231.552 4.33823 3.32356 0
M  V30 2473 H 228.646 0.634262 0.530698 0
M  V30 2474 H 231.192 1.64725 0.407883 0
M  V30 2475 H 229.964 3.70473 1.25958 0
M  V30 2476 H 229.587 2.8662 2.75563 0
M  V30 2477 N 230.584 -0.659388 1.43143 0
M  V30 2478 C 231.833 -1.41518 1.43721 0
M  V30 2479 C 232.146 -1.95499 0.0628176 0
M  V30 2480 O 233.352 -2.71446 -0.0539683 0
M  V30 2481 C 231.808 -2.5608 2.52885 0
M  V30 2482 C 231.416 -2.08733 3.96402 0
M  V30 2483 C 233.16 -3.3349 2.62649 0
M  V30 2484 C 231.067 -3.20469 4.97045 0
M  V30 2485 H 229.997 -0.531705 0.534608 0
M  V30 2486 H 232.648 -0.712343 1.69109 0
M  V30 2487 H 231.03 -3.28805 2.20688 0
M  V30 2488 H 232.204 -1.43059 4.3803 0
M  V30 2489 H 230.519 -1.44219 3.90627 0
M  V30 2490 H 233.116 -4.16734 3.35017 0
M  V30 2491 H 233.459 -3.8111 1.67513 0
M  V30 2492 H 233.992 -2.67842 2.94118 0
M  V30 2493 H 230.731 -2.77824 5.93712 0
M  V30 2494 H 230.251 -3.84874 4.60034 0
M  V30 2495 H 231.93 -3.85698 5.19467 0
M  V30 2496 N 232.062 -1.29571 -0.897171 0
M  V30 2497 C 233.308 -1.17863 -1.65034 0
M  V30 2498 C 233.641 0.268729 -1.92332 0
M  V30 2499 O 232.916 1.19378 -1.53555 0
M  V30 2500 C 233.199 -1.995 -2.99786 0
M  V30 2501 C 233.052 -3.5239 -2.79538 0
M  V30 2502 C 234.371 -1.82335 -4.00552 0
M  V30 2503 H 231.49 -0.429528 -0.598895 0
M  V30 2504 H 234.132 -1.59072 -1.03905 0
M  V30 2505 H 232.282 -1.64485 -3.51962 0
M  V30 2506 H 233.954 -3.97401 -2.34244 0
M  V30 2507 H 232.197 -3.77187 -2.14273 0
M  V30 2508 H 232.868 -4.04787 -3.75302 0
M  V30 2509 H 235.344 -2.12924 -3.57495 0
M  V30 2510 H 234.22 -2.41801 -4.92771 0
M  V30 2511 H 234.481 -0.779209 -4.35179 0
M  V30 2512 N 233.54 1.10788 -1.12088 0
M  V30 2513 C 234.951 1.64181 -0.88891 0
M  V30 2514 C 235.302 1.87508 0.577498 0
M  V30 2515 O 234.427 1.61434 1.44112 0
M  V30 2516 C 235.022 2.98257 -1.60712 0
M  V30 2517 C 233.581 3.4853 -1.42139 0
M  V30 2518 C 232.728 2.23208 -1.6454 0
M  V30 2519 H 235.679 0.943368 -1.27618 0
M  V30 2520 H 235.7 3.65552 -1.05604 0
M  V30 2521 H 235.212 2.81246 -2.67436 0
M  V30 2522 H 233.313 3.70692 -0.376552 0
M  V30 2523 H 233.426 4.26882 -2.17505 0
M  V30 2524 H 231.79 2.31169 -1.06925 0
M  V30 2525 H 232.573 2.08733 -2.72554 0
M  V30 2526 N 235.018 0.912232 1.28515 0
M  V30 2527 C 236.429 0.591352 1.77087 0
M  V30 2528 C 236.78 -0.8933 1.74684 0
M  V30 2529 O 235.905 -1.69876 1.34056 0
M  V30 2530 C 236.5 1.06668 3.2157 0
M  V30 2531 C 235.059 0.79675 3.67871 0
M  V30 2532 C 234.206 1.23427 2.48316 0
M  V30 2533 H 237.157 1.09365 1.15 0
M  V30 2534 H 237.178 0.407455 3.78312 0
M  V30 2535 H 236.69 2.14726 3.23287 0
M  V30 2536 H 234.791 -0.270679 3.71616 0
M  V30 2537 H 234.904 1.40343 4.58084 0
M  V30 2538 H 233.268 0.653036 2.46186 0
M  V30 2539 H 234.051 2.32316 2.52753 0
M  V30 2540 N 236.496 -1.42363 0.676048 0
M  V30 2541 C 237.743 -2.01522 0.19883 0
M  V30 2542 C 238.071 -1.53456 -1.19505 0
M  V30 2543 O 237.326 -0.727967 -1.81657 0
M  V30 2544 C 237.625 -3.56929 0.183431 0
M  V30 2545 C 237.291 -4.24431 1.52215 0
M  V30 2546 C 235.953 -4.42585 1.8887 0
M  V30 2547 C 238.305 -4.62459 2.40377 0
M  V30 2548 C 235.633 -4.96039 3.13309 0
M  V30 2549 C 237.985 -5.17294 3.64129 0
M  V30 2550 C 236.649 -5.33661 4.00951 0
M  V30 2551 H 235.919 -0.737419 0.0727571 0
M  V30 2552 H 238.566 -1.70531 0.871281 0
M  V30 2553 H 236.871 -3.87594 -0.572532 0
M  V30 2554 H 238.568 -4.00486 -0.203035 0
M  V30 2555 H 235.158 -4.10661 1.22701 0
M  V30 2556 H 239.342 -4.48105 2.13343 0
M  V30 2557 H 234.598 -5.06896 3.41857 0
M  V30 2558 H 238.772 -5.45704 4.32644 0
M  V30 2559 H 236.399 -5.74845 4.9745 0
M  V30 2560 N 237.974 -0.419461 -1.51915 0
M  V30 2561 C 239.199 0.154572 -2.06823 0
M  V30 2562 C 239.624 1.3722 -1.28656 0
M  V30 2563 O 238.982 1.78461 -0.319583 0
M  V30 2564 C 239.03 0.473172 -3.57482 0
M  V30 2565 O 238.134 1.56255 -3.81652 0
M  V30 2566 H 237.475 0.0096924 -0.663929 0
M  V30 2567 H 240.005 -0.595642 -1.95738 0
M  V30 2568 H 240.015 0.728825 -4.01438 0
M  V30 2569 H 238.69 -0.416873 -4.13805 0
M  V30 2570 H 237.267 1.29825 -3.49571 0
M  V30 2571 N 239.452 1.56882 -0.150215 0
M  V30 2572 C 240.415 2.1573 0.774157 0
M  V30 2573 C 241.415 1.0999 1.17298 0
M  V30 2574 O 242.605 1.35613 1.09338 0
M  V30 2575 C 239.737 2.72302 2.05096 0
M  V30 2576 H 240.93 2.98752 0.262201 0
M  V30 2577 H 238.483 1.55985 0.099248 0
M  V30 2578 H 239.218 1.92956 2.6065 0
M  V30 2579 H 239.003 3.49665 1.77416 0
M  V30 2580 H 240.493 3.17632 2.71109 0
M  V30 2581 N 240.93 -0.123565 1.57115 0
M  V30 2582 C 242.177 -0.832153 1.84612 0
M  V30 2583 C 242.505 -1.80093 0.734627 0
M  V30 2584 O 241.76 -1.93766 -0.27442 0
M  V30 2585 C 242.059 -1.62016 3.18568 0
M  V30 2586 C 241.725 -0.796084 4.43817 0
M  V30 2587 C 240.387 -0.568816 4.77826 0
M  V30 2588 C 242.739 -0.221364 5.2073 0
M  V30 2589 C 240.067 0.243499 5.86194 0
M  V30 2590 C 242.419 0.578117 6.29953 0
M  V30 2591 C 241.083 0.815744 6.62497 0
M  V30 2592 H 240.353 -0.304507 0.675542 0
M  V30 2593 H 243 -0.0947248 1.91266 0
M  V30 2594 H 241.305 -2.42837 3.0747 0
M  V30 2595 H 243.002 -2.17231 3.37064 0
M  V30 2596 H 239.592 -0.983307 4.17168 0
M  V30 2597 H 243.776 -0.384173 4.94811 0
M  V30 2598 H 239.032 0.436871 6.09837 0
M  V30 2599 H 243.206 1.03046 6.88734 0
M  V30 2600 H 240.833 1.44701 7.46301 0
M  V30 2601 N 242.408 -1.52605 -0.393616 0
M  V30 2602 C 243.633 -1.71592 -1.16495 0
M  V30 2603 C 244.058 -0.43133 -1.83088 0
M  V30 2604 O 243.416 0.612523 -1.7064 0
M  V30 2605 C 243.464 -2.86318 -2.19213 0
M  V30 2606 O 242.568 -2.52969 -3.257 0
M  V30 2607 H 241.909 -0.570734 -0.33935 0
M  V30 2608 H 244.439 -1.99377 -0.459324 0
M  V30 2609 H 244.449 -3.1168 -2.63286 0
M  V30 2610 H 243.124 -3.79511 -1.7013 0
M  V30 2611 H 241.701 -2.38332 -2.86797 0
M  V30 2612 N 243.887 0.651787 -1.4349 0
M  V30 2613 C 245.298 1.233 -1.40193 0
M  V30 2614 C 245.649 1.9591 -0.106727 0
M  V30 2615 O 244.774 2.01316 0.793773 0
M  V30 2616 C 245.369 2.24257 -2.53957 0
M  V30 2617 C 243.928 2.77852 -2.5392 0
M  V30 2618 C 243.075 1.52517 -2.3159 0
M  V30 2619 H 246.026 0.443717 -1.52371 0
M  V30 2620 H 246.047 3.0646 -2.25528 0
M  V30 2621 H 245.559 1.71382 -3.4821 0
M  V30 2622 H 243.66 3.34786 -1.63551 0
M  V30 2623 H 243.773 3.25299 -3.51735 0
M  V30 2624 H 242.137 1.79915 -1.80285 0
M  V30 2625 H 242.92 1.01574 -3.27929 0
M  V30 2626 N 245.365 1.30045 0.890287 0
M  V30 2627 C 246.297 1.11786 2.00091 0
M  V30 2628 C 247.31 0.0626307 1.62679 0
M  V30 2629 O 248.499 0.308112 1.75821 0
M  V30 2630 C 245.599 0.681527 3.31977 0
M  V30 2631 C 244.772 1.81735 3.97858 0
M  V30 2632 C 243.831 1.37045 5.08041 0
M  V30 2633 O 242.857 2.07677 5.29961 0
M  V30 2634 N 244.059 0.246525 5.79976 0
M  V30 2635 H 246.824 2.07441 2.16306 0
M  V30 2636 H 244.385 1.2211 1.06305 0
M  V30 2637 H 246.377 0.365675 4.03045 0
M  V30 2638 H 244.947 -0.182828 3.12065 0
M  V30 2639 H 244.167 2.30159 3.20032 0
M  V30 2640 H 245.455 2.57865 4.38615 0
M  V30 2641 H 244.853 -0.34215 5.64664 0
M  V30 2642 H 243.41 -0.00990438 6.51799 0
M  V30 2643 N 246.843 -1.10192 1.12674 0
M  V30 2644 C 248.091 -1.81845 0.881861 0
M  V30 2645 C 248.412 -1.85737 -0.593867 0
M  V30 2646 O 247.682 -1.33724 -1.4316 0
M  V30 2647 H 246.262 -0.673432 0.323261 0
M  V30 2648 H 248.924 -1.33316 1.42172 0
M  V30 2649 H 248.02 -2.85288 1.2656 0
M  V30 2650 N 248.321 -0.919034 -1.28029 0
M  V30 2651 C 249.254 -0.355887 -2.25408 0
M  V30 2652 C 250.232 0.542874 -1.5327 0
M  V30 2653 O 251.416 0.485338 -1.82145 0
M  V30 2654 C 248.543 0.490759 -3.35126 0
M  V30 2655 C 247.589 -0.343358 -4.25116 0
M  V30 2656 S 248.422 -1.75344 -5.05979 0
M  V30 2657 C 249.578 -0.914244 -6.19187 0
M  V30 2658 H 249.811 -1.18123 -2.72826 0
M  V30 2659 H 247.344 -0.720636 -1.36551 0
M  V30 2660 H 249.302 0.973404 -3.98792 0
M  V30 2661 H 247.963 1.29054 -2.86363 0
M  V30 2662 H 247.156 0.304266 -5.03081 0
M  V30 2663 H 246.758 -0.759851 -3.662 0
M  V30 2664 H 249.05 -0.146282 -6.77342 0
M  V30 2665 H 249.993 -1.66661 -6.88208 0
M  V30 2666 H 250.401 -0.460082 -5.62622 0
M  V30 2667 N 249.799 1.42003 -0.683588 0
M  V30 2668 C 251.21 1.84501 -0.285736 0
M  V30 2669 C 251.561 1.57213 1.17382 0
M  V30 2670 O 250.686 1.03642 1.89966 0
M  V30 2671 C 251.281 3.34912 -0.511821 0
M  V30 2672 C 249.84 3.76025 -0.168005 0
M  V30 2673 C 248.987 2.6551 -0.799983 0
M  V30 2674 H 251.938 1.31724 -0.885119 0
M  V30 2675 H 251.959 3.79784 0.233292 0
M  V30 2676 H 251.471 3.54741 -1.57418 0
M  V30 2677 H 249.572 3.61801 0.890567 0
M  V30 2678 H 249.685 4.75141 -0.614661 0
M  V30 2679 H 248.049 2.53654 -0.230568 0
M  V30 2680 H 248.832 2.8816 -1.86597 0
M  V30 2681 N 251.277 0.427512 1.51691 0
M  V30 2682 C 252.187 -0.39527 2.31246 0
M  V30 2683 C 253.203 -1.03674 1.39742 0
M  V30 2684 O 254.379 -1.03425 1.72816 0
M  V30 2685 C 251.444 -1.48706 3.13189 0
M  V30 2686 C 250.505 -0.866743 4.20459 0
M  V30 2687 C 249.738 -1.90651 4.98486 0
M  V30 2688 O 249.961 -3.12733 4.77026 0
M  V30 2689 O 248.895 -1.5025 5.82845 0
M  V30 2690 H 252.721 0.253918 3.02637 0
M  V30 2691 H 250.306 0.190274 1.48183 0
M  V30 2692 H 252.188 -2.12047 3.64162 0
M  V30 2693 H 250.863 -2.12051 2.44573 0
M  V30 2694 H 249.77 -0.195544 3.73589 0
M  V30 2695 H 251.103 -0.276934 4.9142 0
M  V30 2696 N 252.755 -1.56801 0.158532 0
M  V30 2697 C 254.003 -1.96102 -0.488712 0
M  V30 2698 C 254.324 -1.04498 -1.64636 0
M  V30 2699 O 253.594 -0.108783 -1.95598 0
M  V30 2700 H 252.174 -0.724102 -0.183535 0
M  V30 2701 H 254.836 -1.93457 0.236728 0
M  V30 2702 H 253.932 -3.00097 -0.857219 0
M  V30 2703 N 254.233 0.115231 -1.57178 0
M  V30 2704 C 255.51 0.852873 -1.76027 0
M  V30 2705 C 255.89 1.97892 -0.73498 0
M  V30 2706 O 255.238 2.27232 0.24036 0
M  V30 2707 C 255.448 1.36608 -3.21153 0
M  V30 2708 C 256.796 1.81692 -3.83762 0
M  V30 2709 O 257.82 1.46278 -3.24779 0
M  V30 2710 O 256.679 2.47104 -4.87444 0
M  V30 2711 H 253.773 0.405296 -0.720877 0
M  V30 2712 H 256.319 0.0986785 -1.69413 0
M  V30 2713 H 255.091 0.558357 -3.87296 0
M  V30 2714 H 254.714 2.18287 -3.3232 0
M  V30 2715 N 255.711 1.52812 0.385517 0
M  V30 2716 C 256.641 1.80808 1.47752 0
M  V30 2717 C 257.622 0.660318 1.5676 0
M  V30 2718 O 258.807 0.908246 1.71652 0
M  V30 2719 C 255.937 1.98008 2.85324 0
M  V30 2720 C 254.891 3.13709 2.91154 0
M  V30 2721 C 254.217 3.16169 4.31209 0
M  V30 2722 C 255.517 4.52709 2.60483 0
M  V30 2723 H 257.211 2.72253 1.24573 0
M  V30 2724 H 254.757 1.31003 0.597839 0
M  V30 2725 H 256.71 2.16176 3.61726 0
M  V30 2726 H 255.434 1.03255 3.09848 0
M  V30 2727 H 254.093 2.95329 2.17201 0
M  V30 2728 H 253.741 2.19092 4.52778 0
M  V30 2729 H 253.441 3.93894 4.36029 0
M  V30 2730 H 254.965 3.36496 5.09512 0
M  V30 2731 H 256.379 4.71173 3.26602 0
M  V30 2732 H 254.776 5.32528 2.76648 0
M  V30 2733 H 255.846 4.59186 1.55809 0
M  V30 2734 N 257.189 -0.644168 1.43834 0
M  V30 2735 C 258.435 -1.40603 1.46146 0
M  V30 2736 C 258.768 -1.93997 0.0887717 0
M  V30 2737 O 258.043 -1.72854 -0.891724 0
M  V30 2738 C 258.326 -2.58086 2.51124 0
M  V30 2739 C 258.179 -2.10126 3.97702 0
M  V30 2740 C 259.498 -3.60291 2.52742 0
M  V30 2741 H 256.617 -0.509905 0.532134 0
M  V30 2742 H 259.259 -0.729502 1.75437 0
M  V30 2743 H 257.409 -3.15801 2.26278 0
M  V30 2744 H 259.081 -1.57342 4.33637 0
M  V30 2745 H 257.324 -1.41419 4.10101 0
M  V30 2746 H 257.995 -2.94649 4.66783 0
M  V30 2747 H 260.471 -3.12352 2.7491 0
M  V30 2748 H 259.347 -4.40032 3.28121 0
M  V30 2749 H 259.608 -4.1349 1.56455 0
M  V30 2750 N 258.668 -1.30515 -0.883378 0
M  V30 2751 C 259.898 -1.22182 -1.66599 0
M  V30 2752 C 260.306 0.217507 -1.87946 0
M  V30 2753 O 259.649 1.1554 -1.42815 0
M  V30 2754 C 259.711 -1.88146 -3.06335 0
M  V30 2755 C 259.375 -3.37476 -3.08154 0
M  V30 2756 C 260.372 -4.33443 -2.87094 0
M  V30 2757 C 258.057 -3.7895 -3.29701 0
M  V30 2758 C 260.051 -5.68858 -2.8754 0
M  V30 2759 C 257.738 -5.14482 -3.29776 0
M  V30 2760 C 258.736 -6.09246 -3.0872 0
M  V30 2761 O 258.424 -7.42302 -3.08615 0
M  V30 2762 H 258.156 -0.423898 -0.52658 0
M  V30 2763 H 260.71 -1.72703 -1.11188 0
M  V30 2764 H 258.94 -1.32157 -3.63416 0
M  V30 2765 H 260.629 -1.7391 -3.66756 0
M  V30 2766 H 261.395 -4.02733 -2.70243 0
M  V30 2767 H 257.274 -3.05631 -3.45124 0
M  V30 2768 H 260.818 -6.428 -2.71024 0
M  V30 2769 H 256.715 -5.44832 -3.46163 0
M  V30 2770 H 257.483 -7.5131 -3.24769 0
M  V30 2771 N 260.146 1.09593 -1.13257 0
M  V30 2772 C 261.392 1.82003 -0.89458 0
M  V30 2773 C 261.725 1.85402 0.577906 0
M  V30 2774 O 261 1.32099 1.42759 0
M  V30 2775 C 261.283 3.28237 -1.48096 0
M  V30 2776 C 261.136 3.3312 -3.02244 0
M  V30 2777 C 262.455 4.24871 -1.14774 0
M  V30 2778 H 259.574 0.66077 -0.326424 0
M  V30 2779 H 262.216 1.28389 -1.40058 0
M  V30 2780 H 260.366 3.74024 -1.05062 0
M  V30 2781 H 262.038 2.95748 -3.54021 0
M  V30 2782 H 260.281 2.72756 -3.37323 0
M  V30 2783 H 260.952 4.3613 -3.38371 0
M  V30 2784 H 263.428 3.87361 -1.51957 0
M  V30 2785 H 262.304 5.25532 -1.58452 0
M  V30 2786 H 262.565 4.42058 -0.0611849 0
M  V30 2787 N 261.624 0.925811 1.2754 0
M  V30 2788 C 262.572 0.413897 2.28888 0
M  V30 2789 C 263.566 -0.500779 1.61829 0
M  V30 2790 O 264.772 -0.38069 1.75928 0
M  V30 2791 H 261.147 0.115274 0.743112 0
M  V30 2792 H 263.118 1.28151 2.69481 0
M  V30 2793 C 261.867 -0.319792 3.46226 0
M  V30 2794 H 261.19 0.374846 3.98039 0
M  V30 2795 H 262.63 -0.642435 4.19105 0
M  V30 2796 C 261.089 -1.53209 3.00048 0
M  V30 2797 O 261.619 -2.6309 3.03557 0
M  V30 2798 N 259.825 -1.38326 2.55566 0
M  V30 2799 H 259.372 -0.489292 2.5291 0
M  V30 2800 H 259.33 -2.19564 2.25031 0
M  V30 2801 N 263.102 -1.41638 0.69111 0
M  V30 2802 C 264.332 -2.0533 0.228758 0
M  V30 2803 C 264.74 -1.52089 -1.12541 0
M  V30 2804 O 264.083 -0.662145 -1.71351 0
M  V30 2805 C 264.145 -3.59349 0.10407 0
M  V30 2806 C 263.809 -4.35362 1.38956 0
M  V30 2807 C 264.806 -4.64942 2.32648 0
M  V30 2808 C 262.491 -4.74714 1.64169 0
M  V30 2809 C 264.485 -5.32828 3.49818 0
M  V30 2810 C 262.172 -5.42338 2.81625 0
M  V30 2811 C 263.17 -5.71322 3.74273 0
M  V30 2812 O 262.858 -6.37554 4.89673 0
M  V30 2813 H 262.59 -0.667796 0.104997 0
M  V30 2814 H 265.144 -1.82477 0.942938 0
M  V30 2815 H 263.374 -3.80924 -0.665839 0
M  V30 2816 H 265.063 -4.04633 -0.320519 0
M  V30 2817 H 265.829 -4.35025 2.14425 0
M  V30 2818 H 261.708 -4.51538 0.929202 0
M  V30 2819 H 265.252 -5.55368 4.22152 0
M  V30 2820 H 261.149 -5.71673 2.99768 0
M  V30 2821 H 261.917 -6.56049 4.8943 0
M  V30 2822 N 264.58 -0.43555 -1.51462 0
M  V30 2823 C 265.543 0.365137 -2.26273 0
M  V30 2824 C 266.543 0.951227 -1.29647 0
M  V30 2825 O 267.733 0.825958 -1.53374 0
M  V30 2826 C 264.865 1.51645 -3.05314 0
M  V30 2827 H 266.058 -0.290474 -2.9849 0
M  V30 2828 H 263.611 -0.188676 -1.55157 0
M  V30 2829 H 264.346 2.20816 -2.3751 0
M  V30 2830 H 264.131 1.10238 -3.76284 0
M  V30 2831 H 265.621 2.08218 -3.61987 0
M  V30 2832 N 266.058 1.56714 -0.166846 0
M  V30 2833 C 267.474 1.58473 0.189372 0
M  V30 2834 C 267.674 1.18201 1.63189 0
M  V30 2835 O 266.73 0.891528 2.36237 0
M  V30 2836 C 268.043 3.00573 -0.0873872 0
M  V30 2837 C 269.591 3.1299 -0.0252443 0
M  V30 2838 C 270.066 4.57174 -0.274934 0
M  V30 2839 N 271.557 4.62665 -0.222553 0
M  V30 2840 C 272.292 5.72072 -0.389985 0
M  V30 2841 N 271.788 6.90054 -0.616229 0
M  V30 2842 N 273.581 5.61153 -0.326202 0
M  V30 2843 H 265.732 1.8118 -1.10849 0
M  V30 2844 H 267.995 0.839525 -0.440342 0
M  V30 2845 H 267.701 3.34497 -1.0865 0
M  V30 2846 H 267.575 3.72019 0.623037 0
M  V30 2847 H 269.962 2.78895 0.96444 0
M  V30 2848 H 270.043 2.43989 -0.768309 0
M  V30 2849 H 269.687 4.91976 -1.26181 0
M  V30 2850 H 269.617 5.24328 0.48869 0
M  V30 2851 H 272.108 3.77863 -0.0531512 0
M  V30 2852 H 272.421 7.69311 -0.733559 0
M  V30 2853 H 270.766 6.91927 -0.652791 0
M  V30 2854 H 273.957 4.67859 -0.150072 0
M  V30 2855 H 274.13 6.46364 -0.460116 0
M  V30 2856 N 267.536 -0.106894 1.57237 0
M  V30 2857 C 268.764 -0.826389 1.8968 0
M  V30 2858 C 269.179 -1.72856 0.759353 0
M  V30 2859 O 268.536 -1.80503 -0.269263 0
M  V30 2860 C 268.587 -1.64967 3.21665 0
M  V30 2861 O 268.308 -0.783804 4.31031 0
M  V30 2862 C 269.809 -2.47326 3.67892 0
M  V30 2863 H 267.029 -0.236927 0.627779 0
M  V30 2864 H 269.573 -0.0876593 2.04312 0
M  V30 2865 H 267.728 -2.34103 3.08666 0
M  V30 2866 H 268.142 -1.35284 5.06753 0
M  V30 2867 H 269.616 -3.00604 4.6297 0
M  V30 2868 H 270.093 -3.25247 2.95146 0
M  V30 2869 H 270.699 -1.83411 3.83719 0
M  V30 2870 N 269.014 -1.53014 -0.377408 0
M  V30 2871 C 269.924 -1.81557 -1.48574 0
M  V30 2872 C 270.94 -0.703102 -1.59162 0
M  V30 2873 O 272.116 -0.99192 -1.75279 0
M  V30 2874 C 269.181 -1.9889 -2.83978 0
M  V30 2875 C 268.242 -3.22801 -2.83016 0
M  V30 2876 C 267.475 -3.39298 -4.11962 0
M  V30 2877 O 267.698 -2.60345 -5.0752 0
M  V30 2878 O 266.632 -4.32604 -4.18494 0
M  V30 2879 H 270.458 -2.75695 -1.27382 0
M  V30 2880 H 268.043 -1.38248 -0.566373 0
M  V30 2881 H 269.925 -2.11931 -3.6423 0
M  V30 2882 H 268.6 -1.07942 -3.05172 0
M  V30 2883 H 267.507 -3.15193 -2.01505 0
M  V30 2884 H 268.84 -4.13632 -2.66775 0
M  V30 2885 N 270.492 0.636531 -1.44174 0
M  V30 2886 C 271.769 1.39463 -1.37148 0
M  V30 2887 C 272.149 2.11082 -0.027507 0
M  V30 2888 O 271.497 2.05954 0.989716 0
M  V30 2889 C 271.707 2.36552 -2.56601 0
M  V30 2890 C 273.055 3.00048 -3.00427 0
M  V30 2891 O 274.079 2.46878 -2.56767 0
M  V30 2892 O 272.938 3.96488 -3.76111 0
M  V30 2893 H 270.032 0.623903 -0.542839 0
M  V30 2894 H 272.578 0.662039 -1.56253 0
M  V30 2895 H 271.35 1.82692 -3.46034 0
M  V30 2896 H 270.973 3.17236 -2.39681 0
M  V30 2897 N 271.97 1.30982 0.876444 0
M  V30 2898 C 273.217 1.20296 1.62896 0
M  V30 2899 C 273.545 -0.240395 1.93009 0
M  V30 2900 O 272.8 -1.18733 1.55567 0
M  V30 2901 C 273.099 1.98572 2.9716 0
M  V30 2902 C 272.765 3.48125 2.86566 0
M  V30 2903 C 271.427 3.88905 2.83383 0
M  V30 2904 C 273.779 4.43322 2.74071 0
M  V30 2905 C 271.107 5.2316 2.65556 0
M  V30 2906 C 273.459 5.77695 2.57781 0
M  V30 2907 C 272.123 6.17704 2.52979 0
M  V30 2908 H 271.393 0.440193 0.59608 0
M  V30 2909 H 274.04 1.62177 1.01837 0
M  V30 2910 H 272.345 1.49352 3.62217 0
M  V30 2911 H 274.042 1.8769 3.54364 0
M  V30 2912 H 270.632 3.15723 2.89856 0
M  V30 2913 H 274.816 4.12752 2.75589 0
M  V30 2914 H 270.072 5.53241 2.60259 0
M  V30 2915 H 274.246 6.51091 2.47089 0
M  V30 2916 H 271.873 7.21678 2.38924 0
M  V30 2917 N 273.449 -1.08991 1.13837 0
M  V30 2918 C 274.696 -1.81258 0.902882 0
M  V30 2919 C 275.024 -1.85936 -0.570803 0
M  V30 2920 O 274.279 -1.3267 -1.43865 0
M  V30 2921 C 274.578 -3.27042 1.44147 0
M  V30 2922 C 274.244 -3.4249 2.93276 0
M  V30 2923 C 272.906 -3.46414 3.33992 0
M  V30 2924 C 275.258 -3.4666 3.892 0
M  V30 2925 C 272.586 -3.52091 4.69307 0
M  V30 2926 C 274.938 -3.53872 5.24364 0
M  V30 2927 C 273.602 -3.56066 5.646 0
M  V30 2928 H 272.872 -0.663268 0.330388 0
M  V30 2929 H 275.519 -1.28368 1.42105 0
M  V30 2930 H 273.824 -3.82599 0.844097 0
M  V30 2931 H 275.521 -3.81499 1.23528 0
M  V30 2932 H 272.111 -3.40124 2.60794 0
M  V30 2933 H 276.295 -3.42865 3.58828 0
M  V30 2934 H 271.551 -3.52079 4.9985 0
M  V30 2935 H 275.725 -3.56043 5.98503 0
M  V30 2936 H 273.352 -3.60218 6.69438 0
M  V30 2937 N 274.927 -0.932562 -1.27047 0
M  V30 2938 C 275.874 -0.434072 -2.26681 0
M  V30 2939 C 276.844 0.501639 -1.58344 0
M  V30 2940 O 278.029 0.419734 -1.86126 0
M  V30 2941 C 275.169 0.30261 -3.43771 0
M  V30 2942 C 274.282 -0.667774 -4.26808 0
M  V30 2943 C 273.417 0.0892393 -5.31125 0
M  V30 2944 C 272.456 -0.873532 -6.05835 0
M  V30 2945 N 271.593 -0.148832 -7.01942 0
M  V30 2946 H 276.433 -1.28868 -2.68695 0
M  V30 2947 H 273.97 -0.646713 -1.32121 0
M  V30 2948 H 275.928 0.746092 -4.10474 0
M  V30 2949 H 274.558 1.12142 -3.02695 0
M  V30 2950 H 273.61 -1.22978 -3.59973 0
M  V30 2951 H 274.922 -1.40337 -4.78651 0
M  V30 2952 H 274.076 0.592409 -6.03801 0
M  V30 2953 H 272.815 0.85777 -4.80097 0
M  V30 2954 H 271.82 -1.38791 -5.31994 0
M  V30 2955 H 273.045 -1.64193 -6.58952 0
M  V30 2956 H 270.991 0.601365 -6.53238 0
M  V30 2957 H 270.908 -0.82391 -7.51497 0
M  V30 2958 H 272.176 0.333527 -7.78786 0
M  V30 2959 N 276.405 1.4127 -0.698611 0
M  V30 2960 C 277.335 2.33447 -0.049629 0
M  V30 2961 C 278.316 1.51982 0.763898 0
M  V30 2962 O 279.501 1.80509 0.716257 0
M  V30 2963 C 276.631 3.35828 0.885267 0
M  V30 2964 C 275.585 4.27627 0.178613 0
M  V30 2965 C 274.911 5.20406 1.22807 0
M  V30 2966 C 276.211 5.13459 -0.956933 0
M  V30 2967 H 277.905 2.87966 -0.81951 0
M  V30 2968 H 275.451 1.38461 -0.395538 0
M  V30 2969 H 277.404 3.9924 1.34854 0
M  V30 2970 H 276.128 2.79666 1.68685 0
M  V30 2971 H 274.787 3.65643 -0.26466 0
M  V30 2972 H 274.435 4.60558 2.02226 0
M  V30 2973 H 274.135 5.82661 0.760239 0
M  V30 2974 H 275.659 5.86695 1.69179 0
M  V30 2975 H 277.073 5.70421 -0.573805 0
M  V30 2976 H 275.47 5.8467 -1.35205 0
M  V30 2977 H 276.54 4.50443 -1.79524 0
M  V30 2978 N 277.883 0.443576 1.51229 0
M  V30 2979 C 278.793 -0.370721 2.31652 0
M  V30 2980 C 279.809 -1.02186 1.40833 0
M  V30 2981 O 280.985 -1.01586 1.73903 0
M  V30 2982 C 278.05 -1.45376 3.14749 0
M  V30 2983 C 277.111 -0.822099 4.21355 0
M  V30 2984 C 276.344 -1.85353 5.0048 0
M  V30 2985 O 276.567 -3.07656 4.80316 0
M  V30 2986 O 275.501 -1.4406 5.84406 0
M  V30 2987 H 279.327 0.286002 3.0235 0
M  V30 2988 H 276.912 0.20598 1.47973 0
M  V30 2989 H 278.794 -2.08173 3.66391 0
M  V30 2990 H 277.469 -2.09445 2.46809 0
M  V30 2991 H 276.376 -0.155909 3.73775 0
M  V30 2992 H 277.709 -0.224797 4.91686 0
M  V30 2993 N 279.361 -1.56624 0.175154 0
M  V30 2994 C 280.777 -1.58571 -0.180966 0
M  V30 2995 C 280.977 -1.19065 -1.6256 0
M  V30 2996 O 280.033 -0.904044 -2.35761 0
M  V30 2997 C 281.346 -3.00522 0.103326 0
M  V30 2998 C 282.894 -3.12972 0.0418426 0
M  V30 2999 C 283.369 -4.57022 0.299175 0
M  V30 3000 N 284.86 -4.62541 0.247086 0
M  V30 3001 C 285.595 -5.71857 0.420318 0
M  V30 3002 N 285.091 -6.89717 0.652816 0
M  V30 3003 N 286.884 -5.60972 0.355957 0
M  V30 3004 H 279.035 -1.80589 1.11809 0
M  V30 3005 H 281.298 -0.837178 0.444788 0
M  V30 3006 H 281.004 -3.33916 1.10422 0
M  V30 3007 H 280.878 -3.72344 -0.603299 0
M  V30 3008 H 283.265 -2.79403 -0.949636 0
M  V30 3009 H 283.346 -2.43578 0.781238 0
M  V30 3010 H 282.99 -4.913 1.28788 0
M  V30 3011 H 282.92 -5.24579 -0.460876 0
M  V30 3012 H 285.411 -3.77829 0.0731895 0
M  V30 3013 H 285.724 -7.68911 0.774347 0
M  V30 3014 H 284.069 -6.91572 0.689476 0
M  V30 3015 H 287.26 -4.67773 0.174882 0
M  V30 3016 H 287.433 -6.46111 0.494388 0
M  V30 3017 N 280.839 0.0985539 -1.57292 0
M  V30 3018 C 282.116 0.834155 -1.76921 0
M  V30 3019 C 282.496 1.97101 -0.755928 0
M  V30 3020 O 281.844 2.27474 0.216245 0
M  V30 3021 C 282.054 1.33194 -3.22584 0
M  V30 3022 C 283.402 1.77611 -3.85668 0
M  V30 3023 O 284.426 1.42825 -3.26312 0
M  V30 3024 O 283.285 2.4192 -4.90038 0
M  V30 3025 H 280.379 0.397628 -0.725135 0
M  V30 3026 H 282.925 0.0807044 -1.69508 0
M  V30 3027 H 281.697 0.517248 -3.87866 0
M  V30 3028 H 281.32 2.1475 -3.34616 0
M  V30 3029 N 282.317 1.53212 0.369288 0
M  V30 3030 C 283.25 1.74166 1.4745 0
M  V30 3031 C 284.228 0.589923 1.51521 0
M  V30 3032 O 285.412 0.822078 1.69629 0
M  V30 3033 C 282.539 1.81711 2.8583 0
M  V30 3034 C 281.585 3.03649 2.99499 0
M  V30 3035 S 282.418 4.63242 2.6864 0
M  V30 3036 C 283.574 4.7363 4.09177 0
M  V30 3037 H 283.807 2.67636 1.29454 0
M  V30 3038 H 281.34 1.43754 0.563396 0
M  V30 3039 H 283.298 1.86743 3.65564 0
M  V30 3040 H 281.959 0.89299 3.01139 0
M  V30 3041 H 281.152 3.05526 4.00836 0
M  V30 3042 H 280.754 2.9671 2.27683 0
M  V30 3043 H 283.046 4.53456 5.03372 0
M  V30 3044 H 283.989 5.75682 4.12306 0
M  V30 3045 H 284.397 4.02295 3.96004 0
M  V30 3046 N 283.795 -0.628877 1.44509 0
M  V30 3047 C 284.742 -1.74074 1.51549 0
M  V30 3048 C 285.712 -1.62084 0.363021 0
M  V30 3049 O 286.897 -1.81975 0.573567 0
M  V30 3050 C 284.037 -3.12328 1.46784 0
M  V30 3051 C 283.15 -3.35277 2.72422 0
M  V30 3052 C 282.285 -4.63515 2.59475 0
M  V30 3053 C 281.324 -4.7965 3.80266 0
M  V30 3054 N 280.461 -5.99168 3.65981 0
M  V30 3055 H 285.301 -1.67392 2.46544 0
M  V30 3056 H 282.838 -0.816527 1.22357 0
M  V30 3057 H 284.796 -3.92286 1.42012 0
M  V30 3058 H 283.426 -3.18018 0.553544 0
M  V30 3059 H 282.478 -2.49242 2.87372 0
M  V30 3060 H 283.79 -3.43078 3.62076 0
M  V30 3061 H 282.944 -5.51638 2.52548 0
M  V30 3062 H 281.683 -4.58076 1.67384 0
M  V30 3063 H 280.688 -3.89957 3.87574 0
M  V30 3064 H 281.913 -4.86902 4.73395 0
M  V30 3065 H 279.859 -5.94814 2.76644 0
M  V30 3066 H 279.776 -6.08035 4.49254 0
M  V30 3067 H 281.044 -6.89846 3.6295 0
M  V30 3068 N 285.273 -1.31445 -0.869486 0
M  V30 3069 C 286.522 -1.20517 -1.61736 0
M  V30 3070 C 286.835 0.235341 -1.94179 0
M  V30 3071 O 288.041 0.466312 -2.67465 0
M  V30 3072 C 286.497 -2.10982 -2.91573 0
M  V30 3073 C 286.105 -3.60032 -2.66611 0
M  V30 3074 C 287.849 -2.08856 -3.69567 0
M  V30 3075 C 285.756 -4.42503 -3.92358 0
M  V30 3076 H 284.686 -0.447493 -0.606849 0
M  V30 3077 H 287.337 -1.56303 -0.96133 0
M  V30 3078 H 285.719 -1.68095 -3.58553 0
M  V30 3079 H 286.893 -4.11167 -2.08035 0
M  V30 3080 H 285.208 -3.64139 -2.0197 0
M  V30 3081 H 287.805 -2.67716 -4.62852 0
M  V30 3082 H 288.148 -1.07582 -4.02159 0
M  V30 3083 H 288.681 -2.49945 -3.09471 0
M  V30 3084 H 285.42 -5.44533 -3.64916 0
M  V30 3085 H 284.94 -3.96125 -4.50383 0
M  V30 3086 H 286.619 -4.54741 -4.60238 0
M  V30 3087 N 286.751 1.08385 -1.14413 0
M  V30 3088 C 287.699 2.17406 -0.826888 0
M  V30 3089 C 288.693 1.6827 0.195312 0
M  V30 3090 O 289.899 1.79927 0.0513892 0
M  V30 3091 H 286.274 0.70934 -0.249681 0
M  V30 3092 H 288.245 2.41388 -1.75426 0
M  V30 3093 C 286.994 3.46215 -0.320979 0
M  V30 3094 H 286.317 3.84401 -1.0989 0
M  V30 3095 H 287.757 4.23777 -0.137549 0
M  V30 3096 C 286.216 3.23067 0.955472 0
M  V30 3097 O 286.746 3.4668 2.02918 0
M  V30 3098 N 284.952 2.7661 0.890798 0
M  V30 3099 H 284.499 2.57594 0.0168815 0
M  V30 3100 H 284.457 2.61501 1.74542 0
M  V30 3101 N 288.23 0.939286 1.26551 0
M  V30 3102 C 289.47 0.5933 1.956 0
M  V30 3103 C 289.834 -0.851515 1.72085 0
M  V30 3104 O 291.035 -1.30634 2.34921 0
M  V30 3105 C 289.306 0.923996 3.45249 0
M  V30 3106 S 290.865 0.688269 4.33369 0
M  V30 3107 H 287.683 0.218591 0.676564 0
M  V30 3108 H 290.285 1.2102 1.5354 0
M  V30 3109 H 288.989 1.97297 3.59864 0
M  V30 3110 H 288.52 0.296746 3.92279 0
M  V30 3111 H 290.535 -0.448434 4.9417 0
M  V30 3112 N 289.708 -1.40897 0.706093 0
M  V30 3113 C 290.933 -2.05895 0.249435 0
M  V30 3114 C 291.358 -1.52823 -1.09666 0
M  V30 3115 O 290.716 -0.659589 -1.68876 0
M  V30 3116 C 290.764 -3.59872 0.22904 0
M  V30 3117 O 289.868 -4.04708 -0.792784 0
M  V30 3118 H 289.209 -0.653206 0.119241 0
M  V30 3119 H 291.739 -1.80471 0.96391 0
M  V30 3120 H 291.749 -4.07951 0.0634791 0
M  V30 3121 H 290.424 -3.97866 1.21141 0
M  V30 3122 H 289.001 -3.68111 -0.59572 0
M  V30 3123 N 291.186 -0.45159 -1.50991 0
M  V30 3124 C 292.434 0.109857 -2.01801 0
M  V30 3125 C 292.755 1.41958 -1.3369 0
M  V30 3126 O 292.025 1.9003 -0.475951 0
M  V30 3127 H 290.605 0.0435884 -0.745727 0
M  V30 3128 H 293.267 -0.597557 -1.85514 0
M  V30 3129 H 292.363 0.275489 -3.10882 0
M  V30 3130 N 292.664 1.56529 -0.183458 0
M  V30 3131 C 293.611 2.18546 0.742055 0
M  V30 3132 C 294.581 1.12912 1.2182 0
M  V30 3133 O 295.766 1.41115 1.28418 0
M  V30 3134 C 292.906 2.83977 1.96089 0
M  V30 3135 C 292.019 4.04105 1.52719 0
M  V30 3136 C 291.154 4.57427 2.70063 0
M  V30 3137 C 290.193 5.69938 2.23243 0
M  V30 3138 N 289.33 6.17717 3.33722 0
M  V30 3139 H 294.17 2.97284 0.206432 0
M  V30 3140 H 291.707 1.46823 0.0901571 0
M  V30 3141 H 293.665 3.20077 2.67594 0
M  V30 3142 H 292.295 2.07822 2.47002 0
M  V30 3143 H 291.347 3.73745 0.708436 0
M  V30 3144 H 292.659 4.85513 1.1436 0
M  V30 3145 H 291.813 4.95772 3.49708 0
M  V30 3146 H 290.552 3.75101 3.11689 0
M  V30 3147 H 289.557 5.31133 1.42048 0
M  V30 3148 H 290.782 6.54073 1.82661 0
M  V30 3149 H 288.728 5.38317 3.74902 0
M  V30 3150 H 288.645 6.94146 2.99495 0
M  V30 3151 H 289.913 6.60713 4.13616 0
M  V30 3152 N 294.142 -0.090211 1.57342 0
M  V30 3153 C 295.391 -0.791531 1.8552 0
M  V30 3154 C 295.704 -1.79659 0.773441 0
M  V30 3155 O 296.91 -2.54616 0.942497 0
M  V30 3156 C 295.366 -1.45856 3.2902 0
M  V30 3157 C 294.974 -0.493017 4.45279 0
M  V30 3158 C 296.718 -2.14332 3.66418 0
M  V30 3159 C 294.625 -1.16491 5.79814 0
M  V30 3160 H 293.555 -0.299356 0.692027 0
M  V30 3161 H 296.206 -0.0445343 1.83446 0
M  V30 3162 H 294.588 -2.25318 3.2565 0
M  V30 3163 H 295.762 0.270464 4.60006 0
M  V30 3164 H 294.077 0.0863061 4.16311 0
M  V30 3165 H 296.674 -2.65344 4.64216 0
M  V30 3166 H 297.017 -2.93447 2.95287 0
M  V30 3167 H 297.55 -1.41724 3.71698 0
M  V30 3168 H 294.289 -0.41447 6.54188 0
M  V30 3169 H 293.809 -1.8997 5.68921 0
M  V30 3170 H 295.488 -1.69001 6.24538 0
M  V30 3171 N 295.62 -1.53406 -0.361157 0
M  V30 3172 C 296.866 -1.70054 -1.10496 0
M  V30 3173 C 297.199 -0.453278 -1.88836 0
M  V30 3174 O 296.474 0.5495 -1.86576 0
M  V30 3175 C 296.757 -2.95317 -2.06058 0
M  V30 3176 C 296.61 -4.3021 -1.31298 0
M  V30 3177 C 297.929 -3.16193 -3.06121 0
M  V30 3178 H 295.048 -0.618799 -0.400321 0
M  V30 3179 H 297.69 -1.86052 -0.385318 0
M  V30 3180 H 295.84 -2.81809 -2.67425 0
M  V30 3181 H 297.512 -4.55538 -0.726807 0
M  V30 3182 H 295.755 -4.29421 -0.614853 0
M  V30 3183 H 296.426 -5.14 -2.01265 0
M  V30 3184 H 298.902 -3.28916 -2.5486 0
M  V30 3185 H 297.778 -4.05266 -3.70204 0
M  V30 3186 H 298.039 -2.31676 -3.76535 0
M  V30 3187 N 297.098 0.621204 -1.44841 0
M  V30 3188 C 298.347 1.37658 -1.47422 0
M  V30 3189 C 298.66 1.95264 -0.114629 0
M  V30 3190 O 299.866 2.71494 -0.0180199 0
M  V30 3191 C 298.322 2.49285 -2.59586 0
M  V30 3192 C 297.93 1.98149 -4.01797 0
M  V30 3193 C 299.674 3.26409 -2.71399 0
M  V30 3194 C 297.581 3.07178 -5.05367 0
M  V30 3195 H 296.511 0.517344 -0.548517 0
M  V30 3196 H 299.162 0.667257 -1.70938 0
M  V30 3197 H 297.544 3.22839 -2.29328 0
M  V30 3198 H 298.718 1.31395 -4.41669 0
M  V30 3199 H 297.033 1.33812 -3.94314 0
M  V30 3200 H 299.63 4.07706 -3.45948 0
M  V30 3201 H 299.973 3.76535 -1.77559 0
M  V30 3202 H 300.506 2.5995 -3.01116 0
M  V30 3203 H 297.245 2.61985 -6.00869 0
M  V30 3204 H 296.765 3.72542 -4.70077 0
M  V30 3205 H 298.444 3.71789 -5.29511 0
M  V30 3206 N 298.576 1.31904 0.862503 0
M  V30 3207 C 299.539 1.20131 1.95195 0
M  V30 3208 C 300.539 0.126409 1.60302 0
M  V30 3209 O 301.729 0.376234 1.70089 0
M  V30 3210 C 298.861 0.845691 3.30244 0
M  V30 3211 H 300.054 2.16943 2.07064 0
M  V30 3212 H 297.607 1.15622 1.05172 0
M  V30 3213 H 298.342 -0.120957 3.24074 0
M  V30 3214 H 298.127 1.62276 3.56944 0
M  V30 3215 H 299.617 0.787418 4.10109 0
M  V30 3216 N 300.054 -1.07777 1.14986 0
M  V30 3217 C 301.47 -1.32373 0.891596 0
M  V30 3218 C 301.67 -1.9609 -0.463788 0
M  V30 3219 O 300.726 -2.21801 -1.20667 0
M  V30 3220 C 302.039 -2.21905 2.02925 0
M  V30 3221 C 303.587 -2.35367 2.06329 0
M  V30 3222 C 304.062 -3.28245 3.19405 0
M  V30 3223 N 305.553 -3.35824 3.19024 0
M  V30 3224 C 306.288 -4.07739 4.03158 0
M  V30 3225 N 305.784 -4.82306 4.97346 0
M  V30 3226 N 307.577 -4.03635 3.91197 0
M  V30 3227 H 299.728 -0.648039 2.02273 0
M  V30 3228 H 301.991 -0.348149 0.881757 0
M  V30 3229 H 301.697 -1.82342 3.0074 0
M  V30 3230 H 301.571 -3.22407 1.95789 0
M  V30 3231 H 303.958 -2.74186 1.09116 0
M  V30 3232 H 304.039 -1.34585 2.17533 0
M  V30 3233 H 303.683 -2.90146 4.16867 0
M  V30 3234 H 303.613 -4.28971 3.05437 0
M  V30 3235 H 306.104 -2.8267 2.50811 0
M  V30 3236 H 306.417 -5.34661 5.57994 0
M  V30 3237 H 304.762 -4.81337 5.01338 0
M  V30 3238 H 307.953 -3.44491 3.16928 0
M  V30 3239 H 308.126 -4.59417 4.5699 0
M  V30 3240 N 301.532 -0.945985 -1.26051 0
M  V30 3241 C 302.762 -0.612136 -1.97323 0
M  V30 3242 C 303.17 0.818171 -1.70595 0
M  V30 3243 O 302.513 1.55777 -0.973613 0
M  V30 3244 C 302.575 -0.780347 -3.50929 0
M  V30 3245 C 302.239 -2.18619 -4.01317 0
M  V30 3246 C 303.236 -3.16209 -4.12683 0
M  V30 3247 C 300.921 -2.50805 -4.35203 0
M  V30 3248 C 302.915 -4.44085 -4.57238 0
M  V30 3249 C 300.602 -3.78912 -4.79446 0
M  V30 3250 C 301.6 -4.75365 -4.90425 0
M  V30 3251 O 301.288 -6.01191 -5.3369 0
M  V30 3252 H 301.02 -0.229134 -0.635982 0
M  V30 3253 H 303.574 -1.27036 -1.61404 0
M  V30 3254 H 301.804 -0.0649864 -3.86645 0
M  V30 3255 H 303.493 -0.448842 -4.03411 0
M  V30 3256 H 304.259 -2.92668 -3.86744 0
M  V30 3257 H 300.138 -1.76463 -4.2589 0
M  V30 3258 H 303.682 -5.19373 -4.65723 0
M  V30 3259 H 299.579 -4.02265 -5.0483 0
M  V30 3260 H 300.347 -6.04442 -5.51899 0
M  V30 3261 N 303.011 1.40521 -0.713556 0
M  V30 3262 C 304.259 2.00527 -0.251692 0
M  V30 3263 C 304.58 1.56857 1.15848 0
M  V30 3264 O 303.85 0.807127 1.785 0
M  V30 3265 H 302.43 0.741551 -0.0900646 0
M  V30 3266 H 305.092 1.71887 -0.918733 0
M  V30 3267 H 304.188 3.10813 -0.283192 0
M  V30 3268 N 304.489 0.459591 1.5075 0
M  V30 3269 C 305.436 -0.340524 2.28274 0
M  V30 3270 C 306.406 -0.997371 1.32822 0
M  V30 3271 O 307.591 -1.01202 1.61749 0
M  V30 3272 C 304.731 -1.42317 3.14388 0
M  V30 3273 C 303.844 -0.782251 4.24859 0
M  V30 3274 C 302.979 -1.84182 4.98247 0
M  V30 3275 C 302.018 -1.18053 6.00608 0
M  V30 3276 N 301.155 -2.18244 6.67319 0
M  V30 3277 H 305.995 0.326899 2.96202 0
M  V30 3278 H 303.532 0.173057 1.46078 0
M  V30 3279 H 305.49 -2.06241 3.62658 0
M  V30 3280 H 304.12 -2.05992 2.4853 0
M  V30 3281 H 303.172 -0.0307404 3.80388 0
M  V30 3282 H 304.484 -0.259663 4.98124 0
M  V30 3283 H 303.638 -2.55714 5.50177 0
M  V30 3284 H 302.377 -2.39819 4.24662 0
M  V30 3285 H 301.382 -0.450776 5.47949 0
M  V30 3286 H 302.607 -0.631202 6.7616 0
M  V30 3287 H 300.553 -2.72919 5.96533 0
M  V30 3288 H 300.47 -1.70938 7.36421 0
M  V30 3289 H 301.738 -2.89191 7.23871 0
M  V30 3290 N 305.967 -1.56429 0.191757 0
M  V30 3291 C 307.213 -1.97777 -0.448554 0
M  V30 3292 C 307.546 -1.07847 -1.61501 0
M  V30 3293 O 306.821 -0.129774 -1.94067 0
M  V30 3294 C 307.104 -3.48362 -0.911906 0
M  V30 3295 C 306.957 -4.4907 0.256136 0
M  V30 3296 C 308.276 -4.02561 -1.77857 0
M  V30 3297 H 305.395 -0.719071 -0.161572 0
M  V30 3298 H 308.037 -1.87896 0.282007 0
M  V30 3299 H 306.187 -3.56914 -1.53442 0
M  V30 3300 H 307.859 -4.5256 0.893733 0
M  V30 3301 H 306.102 -4.24181 0.908436 0
M  V30 3302 H 306.773 -5.51889 -0.11053 0
M  V30 3303 H 309.249 -3.96767 -1.25359 0
M  V30 3304 H 308.125 -5.08301 -2.07174 0
M  V30 3305 H 308.386 -3.47616 -2.73158 0
M  V30 3306 N 307.445 0.0818655 -1.57387 0
M  V30 3307 C 308.692 0.782914 -1.86753 0
M  V30 3308 C 309.02 1.78082 -0.782118 0
M  V30 3309 O 308.275 1.94426 0.22295 0
M  V30 3310 C 308.574 1.53513 -3.22752 0
M  V30 3311 C 308.24 0.678134 -4.45771 0
M  V30 3312 C 306.902 0.441929 -4.79166 0
M  V30 3313 C 309.254 0.0832243 -5.21134 0
M  V30 3314 C 306.582 -0.398833 -5.85343 0
M  V30 3315 C 308.934 -0.744935 -6.28199 0
M  V30 3316 C 307.598 -0.991107 -6.60101 0
M  V30 3317 H 306.868 0.286489 -0.683378 0
M  V30 3318 H 309.515 0.0439808 -1.91449 0
M  V30 3319 H 307.82 2.34599 -3.138 0
M  V30 3320 H 309.517 2.08218 -3.42705 0
M  V30 3321 H 306.107 0.872357 -4.19628 0
M  V30 3322 H 310.291 0.252847 -4.95655 0
M  V30 3323 H 305.547 -0.598405 -6.08465 0
M  V30 3324 H 309.721 -1.21271 -6.8576 0
M  V30 3325 H 307.348 -1.64437 -7.42202 0
M  V30 3326 N 308.923 1.53595 0.353017 0
M  V30 3327 C 310.339 1.43648 0.695516 0
M  V30 3328 C 310.539 0.585617 1.92802 0
M  V30 3329 O 309.595 0.0729223 2.52395 0
M  V30 3330 C 310.908 2.8701 0.896991 0
M  V30 3331 C 312.456 2.96723 0.996209 0
M  V30 3332 C 312.931 4.41173 1.23007 0
M  V30 3333 N 314.422 4.44657 1.29749 0
M  V30 3334 C 315.157 5.53547 1.49577 0
M  V30 3335 N 314.653 6.72461 1.66639 0
M  V30 3336 N 316.446 5.41145 1.52048 0
M  V30 3337 H 308.597 2.07415 -0.457481 0
M  V30 3338 H 310.86 0.9372 -0.142687 0
M  V30 3339 H 310.566 3.51644 0.0629938 0
M  V30 3340 H 310.44 3.31401 1.80148 0
M  V30 3341 H 312.827 2.32235 1.82074 0
M  V30 3342 H 312.908 2.55707 0.0688331 0
M  V30 3343 H 312.552 5.06238 0.410505 0
M  V30 3344 H 312.482 4.79772 2.17086 0
M  V30 3345 H 314.973 3.58963 1.18126 0
M  V30 3346 H 315.286 7.51214 1.81378 0
M  V30 3347 H 313.631 6.75423 1.63794 0
M  V30 3348 H 316.822 4.47205 1.38294 0
M  V30 3349 H 316.995 6.26068 1.67159 0
M  V30 3350 N 310.401 -0.613514 1.45168 0
M  V30 3351 C 311.649 -1.36997 1.48581 0
M  V30 3352 C 311.97 -1.94589 0.126545 0
M  V30 3353 O 311.24 -1.76816 -0.843372 0
M  V30 3354 H 309.82 -0.508558 0.547154 0
M  V30 3355 H 312.482 -0.720853 1.81079 0
M  V30 3356 H 311.578 -2.1924 2.22127 0
M  V30 3357 N 311.879 -1.3236 -0.855495 0
M  V30 3358 C 312.827 -1.2118 -1.9854 0
M  V30 3359 C 313.821 -0.116788 -1.68997 0
M  V30 3360 O 315.027 -0.279657 -1.77814 0
M  V30 3361 H 311.402 -0.375608 -0.651477 0
M  V30 3362 H 313.373 -2.16743 -2.05098 0
M  V30 3363 C 312.122 -0.950849 -3.34446 0
M  V30 3364 H 311.445 -1.78563 -3.57708 0
M  V30 3365 H 312.885 -0.912863 -4.14057 0
M  V30 3366 C 311.344 0.346404 -3.35114 0
M  V30 3367 O 311.874 1.35855 -3.7803 0
M  V30 3368 N 310.08 0.36808 -2.88259 0
M  V30 3369 H 309.627 -0.456102 -2.5353 0
M  V30 3370 H 309.585 1.23591 -2.89089 0
M  V30 3371 N 313.357 1.07166 -1.15556 0
M  V30 3372 C 314.304 2.14417 -0.854055 0
M  V30 3373 C 315.274 1.64965 0.193806 0
M  V30 3374 O 316.459 1.90703 0.0609443 0
M  V30 3375 C 313.599 3.43304 -0.351574 0
M  V30 3376 C 312.712 4.06537 -1.46123 0
M  V30 3377 C 311.847 5.23266 -0.914677 0
M  V30 3378 C 310.886 5.78464 -2.00114 0
M  V30 3379 N 310.023 6.86521 -1.47083 0
M  V30 3380 H 314.863 2.39548 -1.77259 0
M  V30 3381 H 312.4 1.17543 -0.884425 0
M  V30 3382 H 314.358 4.17179 -0.0419409 0
M  V30 3383 H 312.988 3.18419 0.530037 0
M  V30 3384 H 312.04 3.30297 -1.88701 0
M  V30 3385 H 313.352 4.43567 -2.28144 0
M  V30 3386 H 312.506 6.04131 -0.557698 0
M  V30 3387 H 311.245 4.87658 -0.0636583 0
M  V30 3388 H 310.25 4.96243 -2.36692 0
M  V30 3389 H 311.475 6.16126 -2.85597 0
M  V30 3390 H 309.421 6.52849 -0.642198 0
M  V30 3391 H 309.338 7.22446 -2.22729 0
M  V30 3392 H 310.606 7.71087 -1.14215 0
M  V30 3393 N 314.835 0.952656 1.25548 0
M  V30 3394 C 316.081 0.607272 1.93494 0
M  V30 3395 C 316.414 -0.853245 1.74452 0
M  V30 3396 O 315.689 -1.61194 1.08843 0
M  V30 3397 C 315.972 0.96435 3.46947 0
M  V30 3398 C 315.825 2.48045 3.75225 0
M  V30 3399 C 317.144 0.487987 4.37386 0
M  V30 3400 H 314.263 0.222096 0.702739 0
M  V30 3401 H 316.905 1.18895 1.48203 0
M  V30 3402 H 315.055 0.469361 3.85654 0
M  V30 3403 H 316.727 3.04905 3.46166 0
M  V30 3404 H 314.97 2.919 3.209 0
M  V30 3405 H 315.641 2.6808 4.82532 0
M  V30 3406 H 318.117 0.912558 4.0597 0
M  V30 3407 H 316.993 0.766547 5.43521 0
M  V30 3408 H 317.254 -0.612063 4.37843 0
M  V30 3409 N 316.313 -1.40141 0.720998 0
M  V30 3410 C 317.26 -2.30688 0.071919 0
M  V30 3411 C 318.23 -1.48476 -0.744584 0
M  V30 3412 O 319.415 -1.77201 -0.707423 0
M  V30 3413 C 316.555 -3.34724 -0.839855 0
M  V30 3414 C 315.668 -4.31998 -0.0122438 0
M  V30 3415 C 314.803 -5.23102 -0.923995 0
M  V30 3416 C 313.842 -6.12033 -0.0907969 0
M  V30 3417 N 312.979 -6.95537 -0.957718 0
M  V30 3418 H 317.819 -2.85628 0.849755 0
M  V30 3419 H 315.356 -1.40653 0.430726 0
M  V30 3420 H 317.314 -3.93618 -1.38279 0
M  V30 3421 H 315.944 -2.81274 -1.58381 0
M  V30 3422 H 314.996 -3.74841 0.64794 0
M  V30 3423 H 316.308 -4.94772 0.632595 0
M  V30 3424 H 315.462 -5.86953 -1.53527 0
M  V30 3425 H 314.201 -4.60615 -1.60264 0
M  V30 3426 H 313.206 -5.47207 0.533377 0
M  V30 3427 H 314.431 -6.76581 0.584428 0
M  V30 3428 H 312.377 -6.35633 -1.62192 0
M  V30 3429 H 312.294 -7.55099 -0.36904 0
M  V30 3430 H 313.562 -7.63832 -1.555 0
M  V30 3431 N 317.792 -0.46758 -1.50504 0
M  V30 3432 C 318.74 0.342482 -2.30065 0
M  V30 3433 C 319.734 0.993596 -1.37201 0
M  V30 3434 O 320.94 0.925102 -1.54408 0
M  V30 3435 H 317.315 0.129283 -0.740803 0
M  V30 3436 H 319.286 -0.34899 -2.96352 0
M  V30 3437 C 318.035 1.4139 -3.17654 0
M  V30 3438 H 317.358 0.922264 -3.89017 0
M  V30 3439 H 318.798 1.95335 -3.76325 0
M  V30 3440 C 317.257 2.4139 -2.35016 0
M  V30 3441 O 317.787 3.46586 -2.03079 0
M  V30 3442 N 315.993 2.13021 -1.97662 0
M  V30 3443 H 315.54 1.27499 -2.23834 0
M  V30 3444 H 315.498 2.80164 -1.42673 0
M  V30 3445 N 319.27 1.56325 -0.20005 0
M  V30 3446 C 320.233 2.18084 0.705132 0
M  V30 3447 C 321.233 1.13666 1.1374 0
M  V30 3448 O 322.423 1.39023 1.04968 0
M  V30 3449 C 319.555 2.78689 1.96329 0
M  V30 3450 H 320.748 2.99435 0.167023 0
M  V30 3451 H 318.301 1.56221 0.0495725 0
M  V30 3452 H 319.036 2.0115 2.5438 0
M  V30 3453 H 318.821 3.55133 1.66202 0
M  V30 3454 H 320.311 3.26096 2.60866 0
M  V30 3455 N 320.748 -0.0735177 1.57428 0
M  V30 3456 C 321.68 -1.11423 2.00294 0
M  V30 3457 C 322.693 -1.35084 0.908637 0
M  V30 3458 O 323.882 -1.33355 1.18654 0
M  V30 3459 C 320.982 -2.46548 2.32523 0
M  V30 3460 C 320.155 -2.42867 3.63778 0
M  V30 3461 C 319.214 -3.60087 3.83697 0
M  V30 3462 O 318.24 -3.41595 4.55304 0
M  V30 3463 N 319.442 -4.80372 3.25919 0
M  V30 3464 H 322.207 -0.749206 2.90184 0
M  V30 3465 H 319.768 -0.262195 1.59763 0
M  V30 3466 H 321.76 -3.23607 2.43024 0
M  V30 3467 H 320.33 -2.75059 1.48531 0
M  V30 3468 H 319.55 -1.51206 3.64047 0
M  V30 3469 H 320.838 -2.37506 4.49965 0
M  V30 3470 H 320.236 -4.983 2.67795 0
M  V30 3471 H 318.793 -5.54948 3.41871 0
M  V30 3472 N 322.226 -1.5378 -0.344866 0
M  V30 3473 C 323.156 -1.84662 -1.42906 0
M  V30 3474 C 324.137 -0.701648 -1.54955 0
M  V30 3475 O 325.322 -0.953438 -1.69184 0
M  V30 3476 C 322.452 -2.05503 -2.79974 0
M  V30 3477 C 321.406 -3.21318 -2.82734 0
M  V30 3478 C 320.732 -3.2749 -4.22675 0
M  V30 3479 C 322.032 -4.59456 -2.48389 0
M  V30 3480 H 323.726 -2.75461 -1.17311 0
M  V30 3481 H 321.272 -1.32542 -0.562896 0
M  V30 3482 H 323.225 -2.25691 -3.55867 0
M  V30 3483 H 321.949 -1.11434 -3.07002 0
M  V30 3484 H 320.608 -3.00984 -2.09294 0
M  V30 3485 H 320.256 -2.31019 -4.4681 0
M  V30 3486 H 319.956 -4.05316 -4.25433 0
M  V30 3487 H 321.48 -3.49887 -5.00412 0
M  V30 3488 H 322.894 -4.79667 -3.13995 0
M  V30 3489 H 321.291 -5.39675 -2.62432 0
M  V30 3490 H 322.361 -4.63155 -1.4358 0
M  V30 3491 N 323.704 0.605807 -1.45491 0
M  V30 3492 C 324.667 1.69836 -1.5391 0
M  V30 3493 C 325.667 1.55261 -0.418424 0
M  V30 3494 O 326.857 1.60296 -0.681965 0
M  V30 3495 C 323.989 3.09117 -1.43734 0
M  V30 3496 H 325.182 1.63738 -2.51257 0
M  V30 3497 H 322.735 0.821689 -1.32959 0
M  V30 3498 H 323.47 3.20791 -0.475788 0
M  V30 3499 H 323.255 3.21104 -2.25021 0
M  V30 3500 H 324.745 3.88696 -1.52661 0
M  V30 3501 N 325.182 1.32811 0.848464 0
M  V30 3502 C 326.43 1.23479 1.59991 0
M  V30 3503 C 326.751 -0.201853 1.93952 0
M  V30 3504 O 326.021 -1.12818 1.60153 0
M  V30 3505 H 324.601 0.454034 0.593179 0
M  V30 3506 H 327.263 1.66412 1.01455 0
M  V30 3507 H 326.359 1.82178 2.53412 0
M  V30 3508 N 326.66 -1.06551 1.16123 0
M  V30 3509 C 327.623 -2.12132 0.867906 0
M  V30 3510 C 328.623 -1.60224 -0.135944 0
M  V30 3511 O 329.813 -1.73943 0.0946422 0
M  V30 3512 C 326.945 -3.396 0.297419 0
M  V30 3513 H 328.138 -2.39586 1.80385 0
M  V30 3514 H 325.691 -1.22574 0.969812 0
M  V30 3515 H 326.426 -3.17794 -0.64633 0
M  V30 3516 H 326.211 -3.78581 1.02073 0
M  V30 3517 H 327.701 -4.17455 0.110052 0
M  V30 3518 N 328.138 -0.959301 -1.25041 0
M  V30 3519 C 329.085 -0.482057 -2.2571 0
M  V30 3520 C 330.055 0.467939 -1.59372 0
M  V30 3521 O 331.24 0.380159 -1.86974 0
M  V30 3522 C 328.38 0.229623 -3.44335 0
M  V30 3523 C 327.493 -0.758156 -4.25295 0
M  V30 3524 C 326.628 -0.0234403 -5.31195 0
M  V30 3525 C 325.667 -1.00184 -6.03846 0
M  V30 3526 N 324.804 -0.29769 -7.01469 0
M  V30 3527 H 329.644 -1.34538 -2.65901 0
M  V30 3528 H 327.181 -0.674592 -1.3072 0
M  V30 3529 H 329.139 0.658856 -4.11965 0
M  V30 3530 H 327.769 1.05696 -3.05005 0
M  V30 3531 H 326.821 -1.30586 -3.57284 0
M  V30 3532 H 328.133 -1.50458 -4.75567 0
M  V30 3533 H 327.287 0.464201 -6.04922 0
M  V30 3534 H 326.026 0.755741 -4.81809 0
M  V30 3535 H 325.031 -1.50044 -5.2893 0
M  V30 3536 H 326.256 -1.78133 -6.55321 0
M  V30 3537 H 324.202 0.462668 -6.54366 0
M  V30 3538 H 324.119 -0.983128 -7.4958 0
M  V30 3539 H 325.387 0.16826 -7.79318 0
M  V30 3540 N 329.616 1.39756 -0.72842 0
M  V30 3541 C 330.864 2.00248 -0.272946 0
M  V30 3542 C 331.185 1.58077 1.14178 0
M  V30 3543 O 330.455 0.826014 1.77634 0
M  V30 3544 H 329.035 0.740554 -0.0979247 0
M  V30 3545 H 331.697 1.70903 -0.936912 0
M  V30 3546 H 330.793 3.10495 -0.316142 0
M  V30 3547 N 331.094 0.475555 1.50254 0
M  V30 3548 C 332.34 -0.0780073 2.0265 0
M  V30 3549 C 332.673 -1.38968 1.35652 0
M  V30 3550 O 331.948 -1.8839 0.483691 0
M  V30 3551 C 332.231 -0.257161 3.59181 0
M  V30 3552 C 332.084 1.07585 4.36744 0
M  V30 3553 C 333.403 -1.00965 4.28362 0
M  V30 3554 H 330.522 -0.0268758 0.73651 0
M  V30 3555 H 333.164 0.622015 1.7953 0
M  V30 3556 H 331.314 -0.853412 3.79011 0
M  V30 3557 H 332.986 1.70902 4.28474 0
M  V30 3558 H 331.229 1.6714 4.00308 0
M  V30 3559 H 331.9 0.904088 5.44546 0
M  V30 3560 H 334.376 -0.504214 4.13034 0
M  V30 3561 H 333.252 -1.10381 5.37687 0
M  V30 3562 H 333.513 -2.04731 3.91839 0
M  V30 3563 N 332.573 -1.56217 0.208337 0
M  V30 3564 C 333.822 -1.97124 -0.427204 0
M  V30 3565 C 334.135 -1.09859 -1.61835 0
M  V30 3566 O 335.341 -1.40606 -2.32255 0
M  V30 3567 C 333.797 -3.50633 -0.811442 0
M  V30 3568 C 333.405 -4.46582 0.35615 0
M  V30 3569 C 335.149 -4.00282 -1.41332 0
M  V30 3570 C 333.056 -5.91379 -0.0497852 0
M  V30 3571 H 331.986 -0.736086 -0.163381 0
M  V30 3572 H 334.637 -1.8099 0.302456 0
M  V30 3573 H 333.019 -3.62319 -1.59815 0
M  V30 3574 H 334.193 -4.46636 1.1337 0
M  V30 3575 H 332.508 -4.07202 0.870396 0
M  V30 3576 H 335.105 -5.0595 -1.72972 0
M  V30 3577 H 335.448 -3.45359 -2.32449 0
M  V30 3578 H 335.981 -3.91764 -0.690323 0
M  V30 3579 H 332.72 -6.50255 0.827529 0
M  V30 3580 H 332.24 -5.94549 -0.791926 0
M  V30 3581 H 333.919 -6.45209 -0.481042 0
M  V30 3582 N 334.051 0.0651679 -1.57465 0
M  V30 3583 C 334.981 1.07693 -2.07182 0
M  V30 3584 C 335.962 1.39962 -0.966673 0
M  V30 3585 O 337.147 1.49475 -1.2398 0
M  V30 3586 C 334.277 2.3885 -2.52127 0
M  V30 3587 C 333.231 2.20917 -3.66579 0
M  V30 3588 C 332.557 3.57515 -3.97601 0
M  V30 3589 C 333.857 1.62493 -4.9638 0
M  V30 3590 H 335.551 0.663199 -2.91962 0
M  V30 3591 H 333.097 0.317569 -1.40455 0
M  V30 3592 H 335.05 3.09928 -2.85522 0
M  V30 3593 H 333.774 2.82215 -1.64384 0
M  V30 3594 H 332.433 1.52279 -3.33477 0
M  V30 3595 H 332.081 3.98463 -3.06979 0
M  V30 3596 H 331.781 3.46353 -4.74672 0
M  V30 3597 H 333.305 4.30013 -4.33499 0
M  V30 3598 H 334.719 2.23445 -5.27963 0
M  V30 3599 H 333.116 1.62009 -5.77818 0
M  V30 3600 H 334.186 0.587041 -4.81333 0
M  V30 3601 N 335.529 1.53961 0.336706 0
M  V30 3602 C 336.759 1.75229 1.09446 0
M  V30 3603 C 337.167 0.494602 1.82621 0
M  V30 3604 O 336.51 -0.543764 1.75468 0
M  V30 3605 C 336.572 2.88288 2.1478 0
M  V30 3606 C 336.236 4.27656 1.6112 0
M  V30 3607 C 337.233 5.08981 1.0599 0
M  V30 3608 C 334.918 4.74161 1.6576 0
M  V30 3609 C 336.912 6.34916 0.562129 0
M  V30 3610 C 334.599 6.00067 1.15595 0
M  V30 3611 C 335.597 6.80278 0.609147 0
M  V30 3612 O 335.285 8.03818 0.114999 0
M  V30 3613 H 335.017 0.588881 0.331956 0
M  V30 3614 H 337.571 2.01614 0.392566 0
M  V30 3615 H 335.801 2.57443 2.88548 0
M  V30 3616 H 337.49 2.97461 2.76174 0
M  V30 3617 H 338.256 4.74213 1.01722 0
M  V30 3618 H 334.135 4.11781 2.07261 0
M  V30 3619 H 337.679 6.9747 0.134668 0
M  V30 3620 H 333.576 6.3433 1.19566 0
M  V30 3621 H 334.344 8.18172 0.231651 0
M  V30 3622 N 337.007 -0.598083 1.45811 0
M  V30 3623 C 338.232 -1.3881 1.54099 0
M  V30 3624 C 338.657 -1.8726 0.177578 0
M  V30 3625 O 338.015 -1.6069 -0.839541 0
M  V30 3626 C 338.063 -2.56217 2.53743 0
M  V30 3627 O 337.167 -3.5716 2.06182 0
M  V30 3628 H 336.508 -0.414024 0.519115 0
M  V30 3629 H 339.038 -0.726971 1.91249 0
M  V30 3630 H 339.048 -3.03337 2.72856 0
M  V30 3631 H 337.723 -2.20303 3.5276 0
M  V30 3632 H 336.3 -3.16624 1.96987 0
M  V30 3633 N 338.485 -1.33259 -0.841409 0
M  V30 3634 C 339.762 -1.15174 -1.58096 0
M  V30 3635 C 340.142 0.282858 -2.09196 0
M  V30 3636 O 339.49 1.28151 -1.89181 0
M  V30 3637 C 339.7 -2.1907 -2.71679 0
M  V30 3638 C 341.048 -2.53093 -3.40924 0
M  V30 3639 O 342.072 -2.17717 -2.81918 0
M  V30 3640 O 340.931 -3.1379 -4.47435 0
M  V30 3641 H 338.025 -0.445303 -0.696875 0
M  V30 3642 H 340.571 -1.44833 -0.884385 0
M  V30 3643 H 339.343 -3.15443 -2.31541 0
M  V30 3644 H 338.966 -1.90481 -3.49002 0
M  V30 3645 N 339.963 1.05934 -1.16686 0
M  V30 3646 C 341.374 1.60263 -0.957745 0
M  V30 3647 C 341.725 1.89789 0.49745 0
M  V30 3648 O 340.85 1.67401 1.37135 0
M  V30 3649 C 341.445 2.91172 -1.73218 0
M  V30 3650 C 340.004 3.42188 -1.56794 0
M  V30 3651 C 339.151 2.16028 -1.73859 0
M  V30 3652 H 342.102 0.888392 -1.31504 0
M  V30 3653 H 342.123 3.60744 -1.21014 0
M  V30 3654 H 341.635 2.6965 -2.79124 0
M  V30 3655 H 339.736 3.68762 -0.533437 0
M  V30 3656 H 339.849 4.17273 -2.35414 0
M  V30 3657 H 338.213 2.26426 -1.16633 0
M  V30 3658 H 338.996 1.96985 -2.81161 0
M  V30 3659 N 341.441 0.965919 1.2453 0
M  V30 3660 C 342.404 0.499547 2.2369 0
M  V30 3661 C 343.404 -0.40294 1.5567 0
M  V30 3662 O 344.594 -0.19865 1.73064 0
M  V30 3663 C 341.726 -0.276792 3.39774 0
M  V30 3664 H 342.919 1.37613 2.66463 0
M  V30 3665 H 340.472 0.750324 1.37112 0
M  V30 3666 H 341.207 -1.17055 3.02438 0
M  V30 3667 H 340.992 0.370826 3.90343 0
M  V30 3668 H 342.482 -0.592175 4.1338 0
M  V30 3669 N 342.919 -1.39368 0.735821 0
M  V30 3670 C 344.196 -1.94465 0.210395 0
M  V30 3671 C 344.576 -1.67254 -1.28799 0
M  V30 3672 O 343.924 -1.00123 -2.05396 0
M  V30 3673 C 344.134 -3.4472 0.544897 0
M  V30 3674 C 345.482 -4.21708 0.494689 0
M  V30 3675 O 346.506 -3.52922 0.482136 0
M  V30 3676 O 345.365 -5.44299 0.489947 0
M  V30 3677 H 342.459 -0.826096 0.0386666 0
M  V30 3678 H 345.005 -1.48863 0.814735 0
M  V30 3679 H 343.777 -3.57963 1.58045 0
M  V30 3680 H 343.4 -3.97502 -0.08837 0
M  V30 3681 N 344.397 -0.483516 -1.5 0
M  V30 3682 C 345.627 0.0643896 -2.065 0
M  V30 3683 C 346.035 1.32949 -1.34615 0
M  V30 3684 O 345.378 1.79003 -0.412756 0
M  V30 3685 C 345.44 0.405983 -3.572 0
M  V30 3686 C 345.104 -0.758875 -4.50655 0
M  V30 3687 C 346.101 -1.64445 -4.93208 0
M  V30 3688 C 343.786 -0.952725 -4.93182 0
M  V30 3689 C 345.78 -2.70818 -5.77006 0
M  V30 3690 C 343.467 -2.01966 -5.76761 0
M  V30 3691 C 344.465 -2.89574 -6.18576 0
M  V30 3692 O 344.153 -3.94429 -7.00486 0
M  V30 3693 H 343.885 -0.00934786 -0.675935 0
M  V30 3694 H 346.439 -0.674959 -1.93993 0
M  V30 3695 H 344.669 1.19869 -3.67652 0
M  V30 3696 H 346.358 0.890433 -3.96013 0
M  V30 3697 H 347.124 -1.50643 -4.61012 0
M  V30 3698 H 343.003 -0.280247 -4.60147 0
M  V30 3699 H 346.547 -3.3923 -6.09565 0
M  V30 3700 H 342.444 -2.1577 -6.0837 0
M  V30 3701 H 343.212 -3.91568 -7.1876 0
M  V30 3702 N 345.875 1.56104 -0.216619 0
M  V30 3703 C 347.122 1.98172 0.416416 0
M  V30 3704 C 347.45 1.10413 1.60122 0
M  V30 3705 O 346.705 0.147967 1.9514 0
M  V30 3706 C 347.004 3.45923 0.898464 0
M  V30 3707 C 346.67 4.50559 -0.175288 0
M  V30 3708 C 345.332 4.78897 -0.470271 0
M  V30 3709 C 347.684 5.1334 -0.901728 0
M  V30 3710 C 345.012 5.67299 -1.4963 0
M  V30 3711 C 347.364 6.02853 -1.91705 0
M  V30 3712 C 346.028 6.29537 -2.21901 0
M  V30 3713 H 345.298 0.725164 0.152377 0
M  V30 3714 H 347.945 1.88839 -0.318103 0
M  V30 3715 H 346.25 3.52434 1.71165 0
M  V30 3716 H 347.947 3.75841 1.39803 0
M  V30 3717 H 344.537 4.28551 0.0647806 0
M  V30 3718 H 348.721 4.91521 -0.687072 0
M  V30 3719 H 343.977 5.86239 -1.73592 0
M  V30 3720 H 348.151 6.50552 -2.48505 0
M  V30 3721 H 345.778 6.97835 -3.01548 0
M  V30 3722 N 347.353 -0.0568162 1.57498 0
M  V30 3723 C 348.316 -1.05038 2.03715 0
M  V30 3724 C 349.316 -1.30709 0.936577 0
M  V30 3725 O 350.506 -1.26178 1.20103 0
M  V30 3726 C 347.638 -2.39034 2.43055 0
M  V30 3727 H 348.831 -0.651715 2.92733 0
M  V30 3728 H 346.384 -0.302947 1.53336 0
M  V30 3729 H 347.119 -2.83703 1.57108 0
M  V30 3730 H 346.904 -2.21739 3.2338 0
M  V30 3731 H 348.394 -3.10421 2.79336 0
M  V30 3732 N 348.832 -1.54138 -0.328536 0
M  V30 3733 C 350.243 -1.63395 -0.903272 0
M  V30 3734 C 350.594 -0.524828 -1.8905 0
M  V30 3735 O 349.719 0.343068 -2.13663 0
M  V30 3736 C 350.314 -2.9618 -1.64507 0
M  V30 3737 C 348.873 -3.0765 -2.1686 0
M  V30 3738 C 348.02 -2.58933 -0.992416 0
M  V30 3739 H 350.971 -1.58344 -0.106253 0
M  V30 3740 H 350.992 -2.86061 -2.50897 0
M  V30 3741 H 350.504 -3.76884 -0.926302 0
M  V30 3742 H 348.605 -2.31611 -2.91868 0
M  V30 3743 H 348.718 -4.1337 -2.42202 0
M  V30 3744 H 347.082 -2.14706 -1.37016 0
M  V30 3745 H 347.865 -3.42089 -0.288041 0
M  V30 3746 N 350.31 0.590341 -1.46126 0
M  V30 3747 C 351.558 1.34616 -1.50742 0
M  V30 3748 C 351.879 1.94363 -0.157486 0
M  V30 3749 O 351.149 1.78136 0.815136 0
M  V30 3750 H 349.729 0.499789 -0.555175 0
M  V30 3751 H 352.391 0.691953 -1.82203 0
M  V30 3752 H 351.487 2.15678 -2.25587 0
M  V30 3753 N 351.788 1.33704 0.83433 0
M  V30 3754 C 353.034 1.25603 1.59222 0
M  V30 3755 C 353.367 -0.176659 1.93395 0
M  V30 3756 O 352.642 -1.11915 1.59076 0
M  V30 3757 C 352.925 2.13576 2.89926 0
M  V30 3758 C 352.778 3.65326 2.62406 0
M  V30 3759 C 354.097 2.01238 3.91397 0
M  V30 3760 H 351.216 0.457613 0.577719 0
M  V30 3761 H 353.858 1.63848 0.961972 0
M  V30 3762 H 352.008 1.8109 3.43713 0
M  V30 3763 H 353.68 4.08124 2.15017 0
M  V30 3764 H 351.923 3.8698 1.96033 0
M  V30 3765 H 352.594 4.22232 3.55562 0
M  V30 3766 H 355.07 2.29738 3.46929 0
M  V30 3767 H 353.946 2.65036 4.80673 0
M  V30 3768 H 354.207 0.985951 4.30966 0
M  V30 3769 N 353.266 -1.05314 1.17247 0
M  V30 3770 C 354.213 -2.13031 0.888058 0
M  V30 3771 C 355.183 -1.65253 -0.167537 0
M  V30 3772 O 356.368 -1.90775 -0.0305974 0
M  V30 3773 C 353.508 -3.42702 0.406147 0
M  V30 3774 C 352.621 -4.04161 1.52572 0
M  V30 3775 C 351.756 -5.21744 0.997808 0
M  V30 3776 C 350.795 -5.75207 2.09291 0
M  V30 3777 N 349.932 -6.84094 1.57986 0
M  V30 3778 H 354.772 -2.36698 1.81048 0
M  V30 3779 H 352.309 -1.16121 0.903013 0
M  V30 3780 H 354.267 -4.17059 0.108305 0
M  V30 3781 H 352.897 -3.19222 -0.479313 0
M  V30 3782 H 351.949 -3.27253 1.93931 0
M  V30 3783 H 353.261 -4.39881 2.35172 0
M  V30 3784 H 352.415 -6.03168 0.653739 0
M  V30 3785 H 351.154 -4.87495 0.141232 0
M  V30 3786 H 350.159 -4.92414 2.44557 0
M  V30 3787 H 351.384 -6.11505 2.95362 0
M  V30 3788 H 349.33 -6.51745 0.74598 0
M  V30 3789 H 349.247 -7.18811 2.34195 0
M  V30 3790 H 350.515 -7.69172 1.26468 0
M  V30 3791 N 354.744 -0.972509 -1.24016 0
M  V30 3792 C 355.969 -0.654417 -1.96805 0
M  V30 3793 C 356.394 0.770398 -1.716 0
M  V30 3794 O 355.752 1.52361 -0.982647 0
M  V30 3795 C 355.8 -0.941031 -3.48105 0
M  V30 3796 O 354.904 -0.0289472 -4.1239 0
M  V30 3797 H 354.245 -0.24692 -0.616382 0
M  V30 3798 H 356.775 -1.30396 -1.57664 0
M  V30 3799 H 356.785 -0.87452 -3.98517 0
M  V30 3800 H 355.46 -1.97939 -3.65777 0
M  V30 3801 H 354.037 -0.149192 -3.72601 0
M  V30 3802 N 356.222 1.38976 -0.743202 0
M  V30 3803 C 357.452 2.04339 -0.304807 0
M  V30 3804 C 357.86 1.56162 1.06819 0
M  V30 3805 O 357.203 0.725284 1.68776 0
M  V30 3806 C 357.265 3.58716 -0.237369 0
M  V30 3807 C 356.929 4.29905 -1.55018 0
M  V30 3808 C 357.926 4.55987 -2.49744 0
M  V30 3809 C 355.611 4.68294 -1.81675 0
M  V30 3810 C 357.605 5.19478 -3.69353 0
M  V30 3811 C 355.292 5.31512 -3.0156 0
M  V30 3812 C 356.29 5.57037 -3.9522 0
M  V30 3813 O 355.978 6.18941 -5.12998 0
M  V30 3814 H 355.71 0.663439 -0.12971 0
M  V30 3815 H 358.264 1.78852 -1.01001 0
M  V30 3816 H 356.494 3.83133 0.524003 0
M  V30 3817 H 358.183 4.05543 0.170121 0
M  V30 3818 H 358.949 4.26767 -2.30423 0
M  V30 3819 H 354.828 4.47779 -1.09615 0
M  V30 3820 H 358.372 5.39318 -4.42473 0
M  V30 3821 H 354.269 5.60153 -3.20778 0
M  V30 3822 H 355.037 6.37433 -5.13441 0
M  V30 3823 N 357.7 0.491464 1.49741 0
M  V30 3824 C 359.111 0.0413169 1.86654 0
M  V30 3825 C 359.462 -1.36985 1.40462 0
M  V30 3826 O 358.587 -2.01917 0.778354 0
M  V30 3827 C 359.182 0.0682023 3.38731 0
M  V30 3828 C 357.741 -0.32656 3.74981 0
M  V30 3829 C 356.888 0.444888 2.73708 0
M  V30 3830 H 359.839 0.704733 1.42194 0
M  V30 3831 H 359.86 -0.729322 3.73445 0
M  V30 3832 H 359.372 1.09539 3.72321 0
M  V30 3833 H 357.473 -1.35734 3.46997 0
M  V30 3834 H 357.586 -0.013741 4.79098 0
M  V30 3835 H 355.95 -0.104062 2.54487 0
M  V30 3836 H 356.733 1.47197 3.10142 0
M  V30 3837 N 359.178 -1.55987 0.224894 0
M  V30 3838 C 360.455 -1.90232 -0.455083 0
M  V30 3839 C 360.835 -1.14269 -1.77499 0
M  V30 3840 O 360.183 -0.253079 -2.27094 0
M  V30 3841 C 360.393 -3.42993 -0.644758 0
M  V30 3842 C 361.741 -4.13821 -0.950669 0
M  V30 3843 O 362.765 -3.4861 -0.731423 0
M  V30 3844 O 361.624 -5.29128 -1.36695 0
M  V30 3845 H 358.718 -0.79108 -0.241084 0
M  V30 3846 H 361.264 -1.67581 0.267327 0
M  V30 3847 H 360.036 -3.90252 0.28613 0
M  V30 3848 H 359.659 -3.71434 -1.41853 0
M  V30 3849 N 360.656 0.0484629 -1.57525 0
M  V30 3850 C 361.904 0.741657 -1.88 0
M  V30 3851 C 362.225 1.76918 -0.820054 0
M  V30 3852 O 361.495 1.95335 0.148661 0
M  V30 3853 H 360.075 0.276908 -0.69378 0
M  V30 3854 H 362.737 0.019013 -1.94891 0
M  V30 3855 H 361.833 1.24336 -2.86264 0
M  V30 3856 N 362.134 1.5431 0.320358 0
M  V30 3857 C 363.38 1.73859 1.05568 0
M  V30 3858 C 363.735 0.507807 1.85578 0
M  V30 3859 O 363.028 -0.499789 1.84967 0
M  V30 3860 C 363.222 2.95639 2.00828 0
M  V30 3861 C 363.051 4.30444 1.30186 0
M  V30 3862 C 361.821 4.94544 1.03703 0
M  V30 3863 C 364.019 5.0929 0.716138 0
M  V30 3864 N 362.001 6.13172 0.298846 0
M  V30 3865 C 363.372 6.19903 0.109729 0
M  V30 3866 C 365.427 4.94034 0.619269 0
M  V30 3867 C 364.13 7.16924 -0.584153 0
M  V30 3868 C 366.156 5.91369 -0.0609184 0
M  V30 3869 C 365.518 7.01336 -0.656258 0
M  V30 3870 H 361.617 0.688988 0.36989 0
M  V30 3871 H 364.201 1.9177 0.336494 0
M  V30 3872 H 362.372 2.79188 2.70016 0
M  V30 3873 H 364.104 3.03802 2.6737 0
M  V30 3874 H 360.859 4.54536 1.33019 0
M  V30 3875 H 361.283 6.76977 -0.0561964 0
M  V30 3876 H 365.925 4.0916 1.06526 0
M  V30 3877 H 363.643 8.01354 -1.04197 0
M  V30 3878 H 367.229 5.81642 -0.135552 0
M  V30 3879 H 366.109 7.75359 -1.17423 0
M  V30 3880 N 363.613 -0.582584 1.46437 0
M  V30 3881 C 364.561 -1.71272 1.5738 0
M  V30 3882 C 365.555 -1.63524 0.44229 0
M  V30 3883 O 366.761 -1.69016 0.619166 0
M  V30 3884 H 363.136 -0.566273 0.494813 0
M  V30 3885 H 365.107 -1.59174 2.52401 0
M  V30 3886 C 363.856 -3.09658 1.58136 0
M  V30 3887 H 363.179 -3.16291 2.44541 0
M  V30 3888 H 364.619 -3.88494 1.69847 0
M  V30 3889 C 363.078 -3.3547 0.310026 0
M  V30 3890 O 363.608 -3.97199 -0.599683 0
M  V30 3891 N 361.814 -2.89925 0.197901 0
M  V30 3892 H 361.361 -2.39873 0.93909 0
M  V30 3893 H 361.319 -3.07568 -0.65185 0
M  V30 3894 N 365.091 -1.34144 -0.827227 0
M  V30 3895 C 366.021 -1.28005 -1.95287 0
M  V30 3896 C 367.002 -0.158321 -1.69362 0
M  V30 3897 O 368.187 -0.349987 -1.9102 0
M  V30 3898 C 365.317 -1.03036 -3.31664 0
M  V30 3899 C 364.271 -2.11628 -3.72019 0
M  V30 3900 C 363.597 -1.71854 -5.0633 0
M  V30 3901 C 364.897 -3.53417 -3.8457 0
M  V30 3902 H 366.591 -2.22187 -2.00682 0
M  V30 3903 H 364.137 -1.0696 -0.964135 0
M  V30 3904 H 366.09 -0.973863 -4.09993 0
M  V30 3905 H 364.814 -0.0529391 -3.26557 0
M  V30 3906 H 363.473 -2.16339 -2.95961 0
M  V30 3907 H 363.121 -0.727841 -4.97706 0
M  V30 3908 H 362.821 -2.44531 -5.34302 0
M  V30 3909 H 364.345 -1.67692 -5.87122 0
M  V30 3910 H 365.759 -3.51142 -4.5318 0
M  V30 3911 H 364.156 -4.24679 -4.2399 0
M  V30 3912 H 365.226 -3.91072 -2.86689 0
M  V30 3913 N 366.569 1.04691 -1.17803 0
M  V30 3914 C 367.98 1.59238 -0.974689 0
M  V30 3915 C 368.331 1.90306 0.477292 0
M  V30 3916 O 367.456 1.68846 1.35352 0
M  V30 3917 C 368.051 2.89318 -1.76296 0
M  V30 3918 C 366.61 3.40506 -1.60414 0
M  V30 3919 C 365.757 2.14172 -1.76141 0
M  V30 3920 H 368.708 0.874395 -1.32439 0
M  V30 3921 H 368.729 3.5944 -1.24833 0
M  V30 3922 H 368.241 2.66675 -2.81968 0
M  V30 3923 H 366.342 3.68175 -0.572519 0
M  V30 3924 H 366.455 4.14753 -2.39827 0
M  V30 3925 H 364.819 2.25176 -1.19028 0
M  V30 3926 H 365.602 1.93992 -2.83235 0
M  V30 3927 N 368.047 0.979072 1.23499 0
M  V30 3928 C 369.295 0.645941 1.91499 0
M  V30 3929 C 369.616 -0.822948 1.76784 0
M  V30 3930 O 368.886 -1.58854 1.14639 0
M  V30 3931 H 367.466 0.235919 0.708767 0
M  V30 3932 H 370.128 1.2426 1.50152 0
M  V30 3933 H 369.224 0.896411 2.9895 0
M  V30 3934 N 369.525 -1.3858 0.750561 0
M  V30 3935 C 370.773 -1.99789 0.30477 0
M  V30 3936 C 371.094 -1.59874 -1.11649 0
M  V30 3937 O 370.364 -0.85417 -1.76297 0
M  V30 3938 H 368.944 -0.738902 0.109694 0
M  V30 3939 H 371.606 -1.69391 0.963983 0
M  V30 3940 H 370.702 -3.09952 0.365499 0
M  V30 3941 N 371.003 -0.499398 -1.49478 0
M  V30 3942 C 372.251 0.0455996 -2.02049 0
M  V30 3943 C 372.572 1.37633 -1.38138 0
M  V30 3944 O 371.842 1.8842 -0.536166 0
M  V30 3945 H 370.422 0.0198416 -0.746736 0
M  V30 3946 H 373.084 -0.656274 -1.83519 0
M  V30 3947 H 372.18 0.176445 -3.11601 0
M  V30 3948 N 372.481 1.55866 -0.233164 0
M  V30 3949 C 373.727 1.98897 0.395959 0
M  V30 3950 C 374.06 1.12091 1.58585 0
M  V30 3951 O 373.335 0.181182 1.93654 0
M  V30 3952 C 373.618 3.50658 0.819224 0
M  V30 3953 C 373.471 4.48233 -0.375109 0
M  V30 3954 C 374.79 4.07135 1.67121 0
M  V30 3955 H 371.909 0.723102 0.142451 0
M  V30 3956 H 374.551 1.87082 -0.331725 0
M  V30 3957 H 372.701 3.60857 1.43925 0
M  V30 3958 H 374.373 4.50031 -1.01341 0
M  V30 3959 H 372.616 4.21624 -1.02058 0
M  V30 3960 H 373.287 5.51988 -0.0358328 0
M  V30 3961 H 375.763 3.99952 1.14795 0
M  V30 3962 H 374.639 5.13615 1.93625 0
M  V30 3963 H 374.9 3.54736 2.63846 0
M  V30 3964 N 373.959 -0.0401083 1.57549 0
M  V30 3965 C 374.891 -1.07149 2.02612 0
M  V30 3966 C 375.904 -1.33126 0.937085 0
M  V30 3967 O 377.093 -1.30808 1.21456 0
M  V30 3968 C 374.193 -2.41561 2.37701 0
M  V30 3969 C 373.366 -2.35096 3.68848 0
M  V30 3970 C 372.425 -3.51867 3.91249 0
M  V30 3971 O 371.451 -3.3186 4.62447 0
M  V30 3972 N 372.653 -4.73351 3.36035 0
M  V30 3973 H 375.418 -0.687485 2.91708 0
M  V30 3974 H 372.979 -0.228248 1.60283 0
M  V30 3975 H 374.971 -3.18379 2.49833 0
M  V30 3976 H 373.541 -2.71846 1.54332 0
M  V30 3977 H 372.761 -1.4345 3.67173 0
M  V30 3978 H 374.049 -2.27908 4.54901 0
M  V30 3979 H 373.447 -4.92507 2.78304 0
M  V30 3980 H 372.004 -5.47572 3.53565 0
M  V30 3981 N 375.437 -1.54477 -0.31217 0
M  V30 3982 C 376.853 -1.45442 -0.657185 0
M  V30 3983 C 377.053 -0.63653 -1.91182 0
M  V30 3984 O 376.109 -0.139815 -2.52113 0
M  V30 3985 C 377.422 -2.89287 -0.82058 0
M  V30 3986 C 378.97 -2.9926 -0.917188 0
M  V30 3987 C 379.445 -4.44279 -1.11267 0
M  V30 3988 N 380.936 -4.4794 -1.17914 0
M  V30 3989 C 381.671 -5.57318 -1.34848 0
M  V30 3990 N 381.167 -6.76642 -1.48752 0
M  V30 3991 N 382.96 -5.44986 -1.37647 0
M  V30 3992 H 375.111 -2.06129 0.512313 0
M  V30 3993 H 377.374 -0.933088 0.167485 0
M  V30 3994 H 377.08 -3.51687 0.0302604 0
M  V30 3995 H 376.954 -3.36061 -1.71298 0
M  V30 3996 H 379.341 -2.36981 -1.75852 0
M  V30 3997 H 379.422 -2.558 -0.00101257 0
M  V30 3998 H 379.066 -5.07149 -0.27614 0
M  V30 3999 H 378.996 -4.85359 -2.04289 0
M  V30 4000 H 381.487 -3.61969 -1.08567 0
M  V30 4001 H 381.8 -7.55758 -1.61397 0
M  V30 4002 H 380.145 -6.79529 -1.45828 0
M  V30 4003 H 383.336 -4.50715 -1.26388 0
M  V30 4004 H 383.509 -6.3028 -1.50501 0
M  V30 4005 N 376.915 0.57481 -1.46744 0
M  V30 4006 C 378.163 1.33009 -1.52161 0
M  V30 4007 C 378.484 1.94185 -0.178092 0
M  V30 4008 O 377.754 1.7899 0.796196 0
M  V30 4009 H 376.334 0.493873 -0.560445 0
M  V30 4010 H 378.996 0.672589 -1.82927 0
M  V30 4011 H 378.092 2.13273 -2.27862 0
M  V30 4012 N 378.394 1.34581 0.820102 0
M  V30 4013 C 379.342 1.26401 1.95258 0
M  V30 4014 C 380.336 0.161553 1.68628 0
M  V30 4015 O 381.542 0.326703 1.7701 0
M  V30 4016 H 377.917 0.392749 0.64129 0
M  V30 4017 H 379.888 2.22105 1.99279 0
M  V30 4018 C 378.637 1.03919 3.31807 0
M  V30 4019 H 377.96 1.87984 3.52848 0
M  V30 4020 H 379.4 1.02232 4.11491 0
M  V30 4021 C 377.859 -0.257433 3.35915 0
M  V30 4022 O 378.389 -1.25784 3.81499 0
M  V30 4023 N 376.595 -0.291524 2.89134 0
M  V30 4024 H 376.142 0.523161 2.52232 0
M  V30 4025 H 376.1 -1.15883 2.92264 0
M  V30 4026 N 379.872 -1.04064 1.18357 0
M  V30 4027 C 381.121 -1.76662 0.973313 0
M  V30 4028 C 381.434 -1.89154 -0.497991 0
M  V30 4029 O 382.64 -2.58606 -0.826762 0
M  V30 4030 C 381.096 -3.17624 1.69242 0
M  V30 4031 C 380.704 -3.13225 3.20303 0
M  V30 4032 C 382.448 -3.946 1.56497 0
M  V30 4033 C 380.355 -4.49046 3.84853 0
M  V30 4034 H 379.285 -0.662214 0.36054 0
M  V30 4035 H 381.936 -1.16553 1.41731 0
M  V30 4036 H 380.318 -3.78129 1.1762 0
M  V30 4037 H 381.492 -2.62172 3.78949 0
M  V30 4038 H 379.807 -2.49749 3.33189 0
M  V30 4039 H 382.404 -4.95042 2.02084 0
M  V30 4040 H 382.747 -4.13074 0.517243 0
M  V30 4041 H 383.28 -3.4067 2.05399 0
M  V30 4042 H 380.019 -4.35777 4.89672 0
M  V30 4043 H 379.539 -5.00203 3.30994 0
M  V30 4044 H 381.218 -5.17961 3.87718 0
M  V30 4045 N 381.35 -0.985608 -1.22978 0
M  V30 4046 C 382.28 -0.549649 -2.26939 0
M  V30 4047 C 383.261 0.419803 -1.64838 0
M  V30 4048 O 384.446 0.31203 -1.91677 0
M  V30 4049 C 381.576 0.143652 -3.47003 0
M  V30 4050 C 380.53 -0.743606 -4.21491 0
M  V30 4051 C 379.856 0.0822027 -5.34637 0
M  V30 4052 C 381.156 -2.03694 -4.80943 0
M  V30 4053 H 382.85 -1.41862 -2.63658 0
M  V30 4054 H 380.396 -0.683571 -1.26741 0
M  V30 4055 H 382.349 0.459985 -4.18882 0
M  V30 4056 H 381.073 1.04711 -3.09359 0
M  V30 4057 H 379.732 -1.04347 -3.51436 0
M  V30 4058 H 379.38 0.986359 -4.93234 0
M  V30 4059 H 379.08 -0.508377 -5.85397 0
M  V30 4060 H 380.604 0.392797 -6.09335 0
M  V30 4061 H 382.018 -1.78504 -5.44802 0
M  V30 4062 H 380.415 -2.57573 -5.42011 0
M  V30 4063 H 381.485 -2.72042 -4.01399 0
M  V30 4064 N 382.828 1.3818 -0.7579 0
M  V30 4065 C 383.776 2.32277 -0.122482 0
M  V30 4066 C 384.77 1.54238 0.700505 0
M  V30 4067 O 385.976 1.69737 0.599119 0
M  V30 4068 H 382.351 0.751712 -0.0208143 0
M  V30 4069 H 384.322 2.83469 -0.932099 0
M  V30 4070 C 383.071 3.39447 0.753076 0
M  V30 4071 H 382.394 3.99591 0.129184 0
M  V30 4072 H 383.834 4.07684 1.16489 0
M  V30 4073 C 382.293 2.78375 1.8976 0
M  V30 4074 O 382.823 2.68025 2.99208 0
M  V30 4075 N 381.029 2.36121 1.69397 0
M  V30 4076 H 380.576 2.4474 0.803762 0
M  V30 4077 H 380.534 1.95602 2.46145 0
M  V30 4078 N 384.306 0.507319 1.49211 0
M  V30 4079 C 385.236 -0.256939 2.32082 0
M  V30 4080 C 386.217 -0.956609 1.40652 0
M  V30 4081 O 387.402 -0.946788 1.69557 0
M  V30 4082 C 384.532 -1.31802 3.21318 0
M  V30 4083 C 383.486 -0.737855 4.21592 0
M  V30 4084 C 382.812 -1.89992 4.99807 0
M  V30 4085 C 384.112 0.275325 5.21574 0
M  V30 4086 H 385.806 0.434798 2.96226 0
M  V30 4087 H 383.352 0.210546 1.42452 0
M  V30 4088 H 385.305 -1.86045 3.78107 0
M  V30 4089 H 384.029 -2.03903 2.5513 0
M  V30 4090 H 382.688 -0.217126 3.65956 0
M  V30 4091 H 382.336 -2.60877 4.30061 0
M  V30 4092 H 382.036 -1.51777 5.6766 0
M  V30 4093 H 383.56 -2.44657 5.59442 0
M  V30 4094 H 384.974 -0.179193 5.7302 0
M  V30 4095 H 383.371 0.573649 5.97352 0
M  V30 4096 H 384.441 1.18903 4.70096 0
M  V30 4097 N 385.784 -1.5574 0.241426 0
M  V30 4098 C 386.732 -2.22538 -0.676718 0
M  V30 4099 C 387.726 -1.21117 -1.18436 0
M  V30 4100 O 388.932 -1.39144 -1.14188 0
M  V30 4101 H 385.307 -0.713776 -0.236701 0
M  V30 4102 H 387.278 -2.98264 -0.0901187 0
M  V30 4103 C 386.027 -2.93439 -1.86518 0
M  V30 4104 H 385.35 -3.7125 -1.4837 0
M  V30 4105 H 386.79 -3.43549 -2.48495 0
M  V30 4106 C 385.249 -1.97008 -2.73294 0
M  V30 4107 O 385.779 -1.49965 -3.72657 0
M  V30 4108 N 383.985 -1.64227 -2.39745 0
M  V30 4109 H 383.532 -2.02677 -1.58996 0
M  V30 4110 H 383.49 -0.999708 -2.98083 0
M  V30 4111 N 387.262 0.0317525 -1.57568 0
M  V30 4112 C 388.51 0.721676 -1.88776 0
M  V30 4113 C 388.831 1.76039 -0.838772 0
M  V30 4114 O 388.101 1.95482 0.127935 0
M  V30 4115 H 386.681 0.269534 -0.696678 0
M  V30 4116 H 389.343 -0.00165879 -1.949 0
M  V30 4117 H 388.439 1.21293 -2.87566 0
M  V30 4118 N 388.74 1.54641 0.303973 0
M  V30 4119 C 389.703 1.84646 1.35789 0
M  V30 4120 C 390.703 0.7192 1.4382 0
M  V30 4121 O 391.893 0.987491 1.43507 0
M  V30 4122 C 389.025 2.02407 2.74307 0
M  V30 4123 H 390.218 2.78829 1.10429 0
M  V30 4124 H 387.771 1.46658 0.540487 0
M  V30 4125 H 388.506 1.10502 3.04893 0
M  V30 4126 H 388.291 2.84453 2.69868 0
M  V30 4127 H 389.781 2.27002 3.50514 0
M  V30 4128 N 390.218 -0.567019 1.47046 0
M  V30 4129 C 391.466 -1.322 1.52864 0
M  V30 4130 C 391.787 -1.94088 0.188388 0
M  V30 4131 O 391.057 -1.7941 -0.786693 0
M  V30 4132 H 389.637 -0.490894 0.563056 0
M  V30 4133 H 392.299 -0.662879 1.83281 0
M  V30 4134 H 391.395 -2.12062 2.2899 0
M  V30 4135 N 391.696 -1.35014 -0.812953 0
M  V30 4136 C 392.973 -1.18502 -1.55617 0
M  V30 4137 C 393.353 0.238421 -2.09749 0
M  V30 4138 O 392.701 1.2411 -1.91857 0
M  V30 4139 C 392.911 -2.24783 -2.66971 0
M  V30 4140 C 394.259 -2.60268 -3.35478 0
M  V30 4141 O 395.283 -2.23648 -2.77236 0
M  V30 4142 O 394.142 -3.2321 -4.40678 0
M  V30 4143 H 391.236 -0.459984 -0.687272 0
M  V30 4144 H 393.782 -1.46677 -0.853464 0
M  V30 4145 H 392.554 -3.20284 -2.24798 0
M  V30 4146 H 392.177 -1.97841 -3.44884 0
M  V30 4147 N 393.175 1.03435 -1.18907 0
M  V30 4148 C 394.586 1.58195 -0.991523 0
M  V30 4149 C 394.937 1.90801 0.457081 0
M  V30 4150 O 394.062 1.70272 1.33553 0
M  V30 4151 C 394.657 2.87432 -1.79355 0
M  V30 4152 C 393.216 3.38785 -1.64017 0
M  V30 4153 C 392.363 2.12292 -1.78402 0
M  V30 4154 H 395.314 0.860299 -1.33359 0
M  V30 4155 H 395.335 3.58096 -1.28638 0
M  V30 4156 H 394.847 2.63669 -2.84781 0
M  V30 4157 H 392.948 3.67547 -0.611536 0
M  V30 4158 H 393.061 4.12186 -2.44212 0
M  V30 4159 H 391.425 2.23901 -1.2141 0
M  V30 4160 H 392.208 1.90977 -2.85277 0
M  V30 4161 N 394.653 0.992116 1.22453 0
M  V30 4162 C 395.583 0.561677 2.26644 0
M  V30 4163 C 396.564 -0.411055 1.65059 0
M  V30 4164 O 397.749 -0.301861 1.9184 0
M  V30 4165 C 394.879 -0.125247 3.47074 0
M  V30 4166 C 393.833 0.765948 4.21091 0
M  V30 4167 C 393.159 -0.0538484 5.34673 0
M  V30 4168 C 394.459 2.06242 4.79856 0
M  V30 4169 H 396.153 1.43259 2.62902 0
M  V30 4170 H 393.699 0.690283 1.26377 0
M  V30 4171 H 395.652 -0.437764 4.1912 0
M  V30 4172 H 394.376 -1.03069 3.0991 0
M  V30 4173 H 393.035 1.0621 3.50878 0
M  V30 4174 H 392.683 -0.960188 4.9375 0
M  V30 4175 H 392.383 0.539415 5.85119 0
M  V30 4176 H 393.907 -0.360477 6.09535 0
M  V30 4177 H 395.321 1.8139 5.43848 0
M  V30 4178 H 393.718 2.60444 5.40638 0
M  V30 4179 H 394.788 2.74167 3.99951 0
M  V30 4180 N 396.131 -1.37776 0.765217 0
M  V30 4181 C 397.359 -2.04124 0.337767 0
M  V30 4182 C 397.774 -1.57715 -1.03785 0
M  V30 4183 O 397.131 -0.755447 -1.6613 0
M  V30 4184 C 397.182 -3.59658 0.364442 0
M  V30 4185 O 396.903 -4.04367 1.68579 0
M  V30 4186 C 398.404 -4.43236 -0.0754221 0
M  V30 4187 H 395.624 -0.655696 0.142491 0
M  V30 4188 H 398.168 -1.76238 1.03732 0
M  V30 4189 H 396.323 -3.86339 -0.286471 0
M  V30 4190 H 396.737 -4.98857 1.61993 0
M  V30 4191 H 398.211 -5.52 -0.00560067 0
M  V30 4192 H 398.688 -4.2455 -1.12491 0
M  V30 4193 H 399.294 -4.21767 0.547055 0
M  V30 4194 N 397.609 -0.515225 -1.4894 0
M  V30 4195 C 399.02 -0.0710067 -1.86565 0
M  V30 4196 C 399.371 1.34733 -1.42623 0
M  V30 4197 O 398.496 2.00653 -0.810379 0
M  V30 4198 C 399.091 -0.122083 -3.3858 0
M  V30 4199 C 397.65 0.266863 -3.75453 0
M  V30 4200 C 396.797 -0.488376 -2.72966 0
M  V30 4201 H 399.748 -0.727266 -1.41055 0
M  V30 4202 H 399.769 0.669818 -3.74558 0
M  V30 4203 H 399.281 -1.15448 -3.70531 0
M  V30 4204 H 397.382 1.30196 -3.49113 0
M  V30 4205 H 397.495 -0.0624811 -4.79059 0
M  V30 4206 H 395.859 0.0635622 -2.54621 0
M  V30 4207 H 396.642 -1.52113 -3.07761 0
M  V30 4208 N 399.087 1.5561 -0.249682 0
M  V30 4209 C 400.335 1.98618 0.373548 0
M  V30 4210 C 400.656 1.13919 1.58264 0
M  V30 4211 O 399.926 0.222637 1.94631 0
M  V30 4212 H 398.506 0.733571 0.141006 0
M  V30 4213 H 401.168 1.91748 -0.349117 0
M  V30 4214 H 400.264 3.04584 0.680796 0
M  V30 4215 N 400.565 -0.0233959 1.57583 0
M  V30 4216 C 401.795 -0.723631 1.93513 0
M  V30 4217 C 402.203 -1.69115 0.848333 0
M  V30 4218 O 401.546 -1.82781 -0.183484 0
M  V30 4219 C 401.608 -1.53075 3.25282 0
M  V30 4220 C 401.272 -0.727388 4.51174 0
M  V30 4221 C 402.269 -0.0251924 5.19894 0
M  V30 4222 C 399.954 -0.680256 4.97672 0
M  V30 4223 C 401.948 0.713374 6.33395 0
M  V30 4224 C 399.635 0.0620523 6.11068 0
M  V30 4225 C 400.633 0.757622 6.78785 0
M  V30 4226 O 400.321 1.48787 7.90011 0
M  V30 4227 H 400.053 -0.208051 0.643188 0
M  V30 4228 H 402.607 0.0167489 2.05393 0
M  V30 4229 H 400.837 -2.31508 3.09744 0
M  V30 4230 H 402.526 -2.11413 3.46496 0
M  V30 4231 H 403.292 -0.0526003 4.84971 0
M  V30 4232 H 399.171 -1.21116 4.44805 0
M  V30 4233 H 402.715 1.25683 6.86185 0
M  V30 4234 H 398.612 0.0913634 6.45435 0
M  V30 4235 H 399.38 1.40213 8.06401 0
M  V30 4236 N 402.043 -1.548 -0.295768 0
M  V30 4237 C 403.454 -1.65274 -0.868411 0
M  V30 4238 C 403.805 -0.56481 -1.87894 0
M  V30 4239 O 402.93 0.29767 -2.14343 0
M  V30 4240 C 403.525 -2.99603 -1.58188 0
M  V30 4241 C 402.084 -3.12181 -2.10286 0
M  V30 4242 C 401.231 -2.6098 -0.93727 0
M  V30 4243 H 404.182 -1.58534 -0.0726422 0
M  V30 4244 H 404.203 -2.91319 -2.44772 0
M  V30 4245 H 403.715 -3.78764 -0.846151 0
M  V30 4246 H 401.816 -2.3775 -2.8689 0
M  V30 4247 H 401.929 -4.18415 -2.33379 0
M  V30 4248 H 400.293 -2.17564 -1.32431 0
M  V30 4249 H 401.076 -3.42623 -0.215414 0
M  V30 4250 N 403.521 0.559213 -1.47345 0
M  V30 4251 C 404.484 1.64854 -1.59235 0
M  V30 4252 C 405.484 1.53851 -0.467607 0
M  V30 4253 O 406.674 1.58045 -0.732617 0
M  V30 4254 C 403.806 3.04388 -1.53496 0
M  V30 4255 H 404.999 1.55662 -2.56339 0
M  V30 4256 H 402.552 0.778973 -1.35505 0
M  V30 4257 H 403.287 3.19115 -0.577604 0
M  V30 4258 H 403.072 3.13783 -2.35123 0
M  V30 4259 H 404.562 3.83642 -1.6495 0
M  V30 4260 N 404.999 1.35443 0.805782 0
M  V30 4261 C 405.947 1.28465 1.93906 0
M  V30 4262 C 406.941 0.17943 1.68447 0
M  V30 4263 O 408.147 0.345459 1.76654 0
M  V30 4264 H 404.522 0.399528 0.637088 0
M  V30 4265 H 406.493 2.24206 1.96912 0
M  V30 4266 C 405.242 1.07432 3.30687 0
M  V30 4267 H 404.565 1.91716 3.50835 0
M  V30 4268 H 406.005 1.06591 4.10383 0
M  V30 4269 C 404.464 -0.22179 3.36169 0
M  V30 4270 O 404.994 -1.21731 3.82811 0
M  V30 4271 N 403.2 -0.260841 2.89427 0
M  V30 4272 H 402.747 0.549884 2.51663 0
M  V30 4273 H 402.705 -1.12777 2.93477 0
M  V30 4274 N 406.477 -1.02803 1.19454 0
M  V30 4275 C 407.387 -2.14575 0.948408 0
M  V30 4276 C 408.403 -1.73757 -0.091871 0
M  V30 4277 O 409.579 -2.01185 0.0929654 0
M  V30 4278 C 406.644 -3.43202 0.491265 0
M  V30 4279 C 405.705 -3.98328 1.60103 0
M  V30 4280 C 404.938 -5.20816 1.16561 0
M  V30 4281 O 405.161 -5.70392 0.0295238 0
M  V30 4282 O 404.095 -5.68801 1.96849 0
M  V30 4283 H 407.921 -2.38202 1.88397 0
M  V30 4284 H 405.506 -1.12989 0.977433 0
M  V30 4285 H 407.388 -4.20687 0.245015 0
M  V30 4286 H 406.063 -3.21018 -0.415851 0
M  V30 4287 H 404.97 -3.22174 1.90144 0
M  V30 4288 H 406.303 -4.24879 2.48473 0
M  V30 4289 N 407.956 -0.998596 -1.21925 0
M  V30 4290 C 409.186 -0.695276 -1.94549 0
M  V30 4291 C 409.594 0.745079 -1.73911 0
M  V30 4292 O 408.937 1.51507 -1.03881 0
M  V30 4293 C 408.999 -0.928485 -3.47303 0
M  V30 4294 C 408.663 -2.35443 -3.91683 0
M  V30 4295 C 409.66 -3.33428 -3.98901 0
M  V30 4296 C 407.345 -2.69038 -4.24174 0
M  V30 4297 C 409.339 -4.63079 -4.37992 0
M  V30 4298 C 407.026 -3.98906 -4.62944 0
M  V30 4299 C 408.024 -4.95738 -4.69822 0
M  V30 4300 O 407.712 -6.23285 -5.07711 0
M  V30 4301 H 407.444 -0.255902 -0.625692 0
M  V30 4302 H 409.998 -1.33767 -1.5587 0
M  V30 4303 H 408.228 -0.228917 -3.86022 0
M  V30 4304 H 409.917 -0.619539 -4.01144 0
M  V30 4305 H 410.683 -3.08807 -3.73983 0
M  V30 4306 H 406.562 -1.94367 -4.18022 0
M  V30 4307 H 410.106 -5.38658 -4.43275 0
M  V30 4308 H 406.003 -4.23314 -4.87314 0
M  V30 4309 H 406.771 -6.27306 -5.25766 0
M  V30 4310 N 409.434 1.37368 -0.772513 0
M  V30 4311 C 410.397 2.28601 -0.165541 0
M  V30 4312 C 411.397 1.48062 0.627238 0
M  V30 4313 O 412.587 1.68268 0.450715 0
M  V30 4314 C 409.719 3.32023 0.772897 0
M  V30 4315 H 410.912 2.83787 -0.969787 0
M  V30 4316 H 408.465 1.46647 -0.540775 0
M  V30 4317 H 409.2 2.81962 1.60212 0
M  V30 4318 H 408.985 3.91555 0.206585 0
M  V30 4319 H 410.475 4.00197 1.19298 0
M  V30 4320 N 410.912 0.523116 1.48665 0
M  V30 4321 C 412.142 -0.00961724 2.06598 0
M  V30 4322 C 412.55 -1.29333 1.38093 0
M  V30 4323 O 411.893 -1.77846 0.46007 0
M  V30 4324 C 411.955 -0.311135 3.58151 0
M  V30 4325 C 411.619 0.878092 4.48485 0
M  V30 4326 C 412.616 1.77464 4.88674 0
M  V30 4327 C 410.301 1.08315 4.90483 0
M  V30 4328 C 412.295 2.86021 5.69623 0
M  V30 4329 C 409.982 2.17187 5.71203 0
M  V30 4330 C 410.98 3.05873 6.10681 0
M  V30 4331 O 410.668 4.12862 6.89783 0
M  V30 4332 H 410.4 0.0272658 0.67545 0
M  V30 4333 H 412.954 0.726156 1.92136 0
M  V30 4334 H 411.184 -1.10079 3.70701 0
M  V30 4335 H 412.873 -0.785125 3.98234 0
M  V30 4336 H 413.639 1.62813 4.56855 0
M  V30 4337 H 409.518 0.402149 4.59243 0
M  V30 4338 H 413.062 3.55272 6.00356 0
M  V30 4339 H 408.959 2.31824 6.02435 0
M  V30 4340 H 409.727 4.10487 7.08126 0
M  V30 4341 N 412.39 -1.55475 0.257931 0
M  V30 4342 C 413.806 -1.59307 -0.0966563 0
M  V30 4343 C 414.006 -1.27514 -1.5602 0
M  V30 4344 O 413.062 -1.02774 -2.30637 0
M  V30 4345 C 414.375 -2.99552 0.262481 0
M  V30 4346 C 415.923 -3.1231 0.207683 0
M  V30 4347 C 416.398 -4.54793 0.541012 0
M  V30 4348 N 417.889 -4.6058 0.491921 0
M  V30 4349 C 418.624 -5.68825 0.722857 0
M  V30 4350 N 418.12 -6.85287 1.0175 0
M  V30 4351 N 419.913 -5.58296 0.652815 0
M  V30 4352 H 412.064 -1.74409 1.21224 0
M  V30 4353 H 414.327 -0.812424 0.48854 0
M  V30 4354 H 414.033 -3.27593 1.27967 0
M  V30 4355 H 413.907 -3.75019 -0.40508 0
M  V30 4356 H 416.294 -2.84044 -0.800195 0
M  V30 4357 H 416.375 -2.39095 0.909255 0
M  V30 4358 H 416.019 -4.83783 1.5465 0
M  V30 4359 H 415.949 -5.26285 -0.18216 0
M  V30 4360 H 418.44 -3.7691 0.273366 0
M  V30 4361 H 418.753 -7.63725 1.18084 0
M  V30 4362 H 417.098 -6.86945 1.05509 0
M  V30 4363 H 420.289 -4.66189 0.422592 0
M  V30 4364 H 420.462 -6.42582 0.836182 0
M  V30 4365 N 413.868 0.0150385 -1.57593 0
M  V30 4366 C 415.284 0.370907 -1.5523 0
M  V30 4367 C 415.484 1.75735 -0.985882 0
M  V30 4368 O 414.54 2.44944 -0.613077 0
M  V30 4369 C 415.853 0.259908 -2.99575 0
M  V30 4370 C 417.401 0.335959 -3.11192 0
M  V30 4371 C 417.876 0.254253 -4.57294 0
M  V30 4372 N 419.367 0.312618 -4.62144 0
M  V30 4373 C 420.102 0.272505 -5.72752 0
M  V30 4374 N 419.598 0.183864 -6.92556 0
M  V30 4375 N 421.391 0.323267 -5.6117 0
M  V30 4376 H 413.542 -0.892104 -1.92757 0
M  V30 4377 H 415.805 -0.340563 -0.884715 0
M  V30 4378 H 415.511 -0.693403 -3.44797 0
M  V30 4379 H 415.385 1.048 -3.62349 0
M  V30 4380 H 417.772 1.27971 -2.65909 0
M  V30 4381 H 417.853 -0.481739 -2.51223 0
M  V30 4382 H 417.497 -0.685887 -5.03247 0
M  V30 4383 H 417.427 1.09024 -5.15191 0
M  V30 4384 H 419.918 0.38307 -3.75953 0
M  V30 4385 H 420.231 0.15874 -7.72637 0
M  V30 4386 H 418.576 0.149708 -6.94839 0
M  V30 4387 H 421.767 0.390607 -4.66467 0
M  V30 4388 H 421.94 0.288539 -6.47357 0
M  V30 4389 N 415.346 1.54954 0.287554 0
M  V30 4390 C 416.594 1.74528 1.01904 0
M  V30 4391 C 416.915 0.541349 1.87335 0
M  V30 4392 O 416.185 -0.444108 1.908 0
M  V30 4393 H 414.765 0.643576 0.379235 0
M  V30 4394 H 417.427 1.92333 0.315294 0
M  V30 4395 H 416.523 2.64015 1.6644 0
M  V30 4396 N 416.824 -0.551391 1.4764 0
M  V30 4397 C 418.073 -1.30467 1.53822 0
M  V30 4398 C 418.386 -1.94495 0.207661 0
M  V30 4399 O 419.592 -2.71099 0.147533 0
M  V30 4400 C 418.048 -2.36616 2.71184 0
M  V30 4401 C 417.656 -1.78754 4.10793 0
M  V30 4402 C 419.4 -3.13088 2.86663 0
M  V30 4403 C 417.307 -2.82717 5.19447 0
M  V30 4404 H 416.237 -0.490584 0.572576 0
M  V30 4405 H 418.888 -0.58494 1.73927 0
M  V30 4406 H 417.27 -3.11529 2.4447 0
M  V30 4407 H 418.444 -1.10173 4.47435 0
M  V30 4408 H 416.759 -1.14846 4.00249 0
M  V30 4409 H 419.356 -3.90736 3.65007 0
M  V30 4410 H 419.699 -3.67635 1.95321 0
M  V30 4411 H 420.232 -2.45288 3.13175 0
M  V30 4412 H 416.971 -2.33018 6.12685 0
M  V30 4413 H 416.491 -3.4969 4.87316 0
M  V30 4414 H 418.17 -3.46102 5.46646 0
M  V30 4415 N 418.302 -1.35869 -0.798587 0
M  V30 4416 C 419.265 -1.29307 -1.89242 0
M  V30 4417 C 420.265 -0.202747 -1.59517 0
M  V30 4418 O 421.455 -0.456957 -1.681 0
M  V30 4419 C 418.587 -1.00229 -3.25833 0
M  V30 4420 H 419.78 -2.26576 -1.96478 0
M  V30 4421 H 417.333 -1.20509 -0.995358 0
M  V30 4422 H 418.068 -0.033801 -3.24282 0
M  V30 4423 H 417.853 -1.79121 -3.48795 0
M  V30 4424 H 419.343 -0.98219 -4.05885 0
M  V30 4425 N 419.78 1.02168 -1.19998 0
M  V30 4426 C 420.69 2.14069 -0.959774 0
M  V30 4427 C 421.706 1.73804 0.082655 0
M  V30 4428 O 422.882 2.01133 -0.103633 0
M  V30 4429 C 419.947 3.42936 -0.509459 0
M  V30 4430 C 419.008 3.97474 -1.62213 0
M  V30 4431 C 418.241 5.2019 -1.19321 0
M  V30 4432 O 418.464 5.70369 -0.0597726 0
M  V30 4433 O 417.398 5.67749 -1.99863 0
M  V30 4434 H 421.224 2.37199 -1.89658 0
M  V30 4435 H 418.809 1.12469 -0.983411 0
M  V30 4436 H 420.691 4.20551 -0.267322 0
M  V30 4437 H 419.366 3.21234 0.398821 0
M  V30 4438 H 418.273 3.21161 -1.9185 0
M  V30 4439 H 419.606 4.23555 -2.50723 0
M  V30 4440 N 421.258 1.00505 1.21394 0
M  V30 4441 C 422.221 0.570459 2.21987 0
M  V30 4442 C 423.221 -0.353211 1.56873 0
M  V30 4443 O 424.411 -0.14349 1.73608 0
M  V30 4444 C 421.543 -0.168555 3.40483 0
M  V30 4445 H 422.736 1.46021 2.6195 0
M  V30 4446 H 420.289 0.793565 1.34656 0
M  V30 4447 H 421.024 -1.07374 3.06009 0
M  V30 4448 H 420.809 0.494823 3.88965 0
M  V30 4449 H 422.299 -0.460362 4.15055 0
M  V30 4450 N 422.737 -1.36956 0.779787 0
M  V30 4451 C 423.983 -1.99787 0.348281 0
M  V30 4452 C 424.316 -1.61756 -1.07465 0
M  V30 4453 O 423.591 -0.867639 -1.74075 0
M  V30 4454 C 423.874 -3.56597 0.50104 0
M  V30 4455 C 423.727 -4.04513 1.96697 0
M  V30 4456 C 425.046 -4.40008 -0.0898097 0
M  V30 4457 H 422.165 -0.725796 0.128022 0
M  V30 4458 H 424.807 -1.62514 0.984331 0
M  V30 4459 H 422.957 -3.88479 -0.0404347 0
M  V30 4460 H 424.629 -3.83161 2.56876 0
M  V30 4461 H 422.872 -3.56408 2.47297 0
M  V30 4462 H 423.543 -5.1352 2.02486 0
M  V30 4463 H 426.019 -4.14431 0.372293 0
M  V30 4464 H 424.895 -5.4888 0.0471605 0
M  V30 4465 H 425.156 -4.26035 -1.18096 0
M  V30 4466 N 424.215 -0.530993 -1.48385 0
M  V30 4467 C 425.463 0.00273189 -2.021 0
M  V30 4468 C 425.784 1.34672 -1.41027 0
M  V30 4469 O 425.054 1.8724 -0.576012 0
M  V30 4470 H 423.634 0.00399774 -0.746989 0
M  V30 4471 H 426.296 -0.695054 -1.82085 0
M  V30 4472 H 425.392 0.11031 -3.11905 0
M  V30 4473 N 425.693 1.55336 -0.266172 0
M  V30 4474 C 426.623 2.25146 0.618981 0
M  V30 4475 C 427.604 1.23845 1.16604 0
M  V30 4476 O 428.789 1.52544 1.20183 0
M  V30 4477 C 425.919 2.96572 1.80728 0
M  V30 4478 C 424.873 4.04726 1.39215 0
M  V30 4479 C 424.199 4.63678 2.66283 0
M  V30 4480 C 425.499 5.19407 0.548942 0
M  V30 4481 H 427.193 2.99377 0.0368116 0
M  V30 4482 H 424.739 1.43991 0.0162651 0
M  V30 4483 H 426.692 3.44116 2.43232 0
M  V30 4484 H 425.416 2.19861 2.41514 0
M  V30 4485 H 424.075 3.57979 0.790351 0
M  V30 4486 H 423.723 3.83646 3.25308 0
M  V30 4487 H 423.423 5.367 2.39222 0
M  V30 4488 H 424.947 5.13967 3.29651 0
M  V30 4489 H 426.361 5.63059 1.07876 0
M  V30 4490 H 424.758 5.98936 0.373593 0
M  V30 4491 H 425.828 4.8295 -0.434394 0
M  V30 4492 N 427.171 -0.0066808 1.57599 0
M  V30 4493 C 428.582 -0.550379 1.78403 0
M  V30 4494 C 428.933 -1.74339 0.900014 0
M  V30 4495 O 428.058 -2.16166 0.100713 0
M  V30 4496 C 428.653 -1.00523 3.23544 0
M  V30 4497 C 427.212 -1.49428 3.45468 0
M  V30 4498 C 426.359 -0.442444 2.73748 0
M  V30 4499 H 429.31 0.219508 1.57175 0
M  V30 4500 H 429.331 -1.87157 3.31289 0
M  V30 4501 H 428.843 -0.136735 3.87859 0
M  V30 4502 H 426.944 -2.3839 2.86358 0
M  V30 4503 H 427.057 -1.52635 4.54136 0
M  V30 4504 H 425.421 -0.902578 2.38171 0
M  V30 4505 H 426.204 0.416973 3.40758 0
M  V30 4506 N 428.649 -1.55105 -0.279332 0
M  V30 4507 C 429.874 -1.7976 -1.03446 0
M  V30 4508 C 430.299 -0.565952 -1.79384 0
M  V30 4509 O 429.657 0.484259 -1.74713 0
M  V30 4510 C 429.705 -3.0179 -1.97371 0
M  V30 4511 O 428.809 -2.76432 -3.06038 0
M  V30 4512 H 428.15 -0.594334 -0.29608 0
M  V30 4513 H 430.68 -2.02235 -0.310165 0
M  V30 4514 H 430.69 -3.30351 -2.39441 0
M  V30 4515 H 429.365 -3.91085 -1.4151 0
M  V30 4516 H 427.942 -2.58949 -2.68328 0
M  V30 4517 N 430.127 0.543554 -1.4793 0
M  V30 4518 C 431.376 1.29649 -1.54512 0
M  V30 4519 C 431.689 1.94382 -0.217973 0
M  V30 4520 O 432.895 2.71017 -0.161908 0
M  V30 4521 C 431.351 2.35175 -2.72435 0
M  V30 4522 C 430.959 1.76572 -4.11736 0
M  V30 4523 C 432.703 3.11564 -2.8832 0
M  V30 4524 C 430.61 2.79958 -5.20939 0
M  V30 4525 H 429.54 0.487541 -0.57517 0
M  V30 4526 H 432.191 0.575708 -1.74235 0
M  V30 4527 H 430.573 3.10229 -2.46118 0
M  V30 4528 H 431.747 1.07799 -4.48013 0
M  V30 4529 H 430.062 1.12722 -4.00852 0
M  V30 4530 H 432.659 3.88794 -3.67074 0
M  V30 4531 H 433.002 3.66594 -1.97268 0
M  V30 4532 H 433.535 2.43623 -3.14472 0
M  V30 4533 H 430.274 2.29766 -6.13912 0
M  V30 4534 H 429.794 3.47101 -4.89164 0
M  V30 4535 H 431.473 3.43198 -5.48474 0
M  V30 4536 N 431.605 1.3629 0.791371 0
M  V30 4537 C 433.016 1.27225 1.36641 0
M  V30 4538 C 433.367 -0.0887968 1.95999 0
M  V30 4539 O 432.492 -0.990207 1.92416 0
M  V30 4540 C 433.087 2.30375 2.48421 0
M  V30 4541 C 431.646 2.25004 3.01746 0
M  V30 4542 C 430.793 2.15259 1.7481 0
M  V30 4543 H 433.744 1.47198 0.593173 0
M  V30 4544 H 433.765 1.93905 3.27385 0
M  V30 4545 H 433.277 3.29422 2.05189 0
M  V30 4546 H 431.378 1.29417 3.49403 0
M  V30 4547 H 431.491 3.1761 3.58693 0
M  V30 4548 H 429.855 1.61482 1.96966 0
M  V30 4549 H 430.638 3.16191 1.33709 0
M  V30 4550 N 433.083 -1.0153 1.20538 0
M  V30 4551 C 434.329 -1.75408 1.01783 0
M  V30 4552 C 434.662 -1.88943 -0.448814 0
M  V30 4553 O 433.937 -1.4162 -1.33319 0
M  V30 4554 C 434.22 -3.17255 1.70356 0
M  V30 4555 C 434.073 -3.11508 3.24473 0
M  V30 4556 C 435.392 -4.15955 1.43769 0
M  V30 4557 H 432.511 -0.636713 0.371167 0
M  V30 4558 H 435.153 -1.18436 1.4857 0
M  V30 4559 H 433.303 -3.65898 1.30578 0
M  V30 4560 H 434.975 -2.70658 3.73553 0
M  V30 4561 H 433.218 -2.4887 3.55311 0
M  V30 4562 H 433.889 -4.11784 3.67611 0
M  V30 4563 H 436.365 -3.75973 1.7828 0
M  V30 4564 H 435.241 -5.13368 1.94279 0
M  V30 4565 H 435.502 -4.40586 0.365564 0
M  V30 4566 N 434.561 -1.01147 -1.20859 0
M  V30 4567 C 435.511 -0.548247 -2.2131 0
M  V30 4568 C 436.495 0.393646 -1.5601 0
M  V30 4569 O 437.687 0.217445 -1.75659 0
M  V30 4570 C 434.816 0.117252 -3.431 0
M  V30 4571 C 433.902 -0.846043 -4.15575 0
M  V30 4572 N 434.293 -2.00149 -4.64515 0
M  V30 4573 C 432.591 -0.665783 -4.41003 0
M  V30 4574 C 433.292 -2.60764 -5.19978 0
M  V30 4575 N 432.268 -1.88868 -5.09735 0
M  V30 4576 H 436.07 -1.42921 -2.56809 0
M  V30 4577 H 433.584 -0.876142 -1.36739 0
M  V30 4578 H 435.581 0.46662 -4.1428 0
M  V30 4579 H 434.241 0.994115 -3.09107 0
M  V30 4580 H 435.252 -2.38162 -4.5989 0
M  V30 4581 H 431.929 0.163456 -4.1718 0
M  V30 4582 H 433.319 -3.58519 -5.68255 0
M  V30 4583 N 436.039 1.36541 -0.78704 0
M  V30 4584 C 437.45 1.81873 -0.421807 0
M  V30 4585 C 437.801 1.65487 1.05397 0
M  V30 4586 O 436.926 1.17448 1.81755 0
M  V30 4587 C 437.521 3.30192 -0.758841 0
M  V30 4588 C 436.08 3.73743 -0.446468 0
M  V30 4589 C 435.227 2.58844 -0.994728 0
M  V30 4590 H 438.178 1.24796 -0.98039 0
M  V30 4591 H 438.199 3.80468 -0.0490648 0
M  V30 4592 H 437.711 3.42087 -1.83299 0
M  V30 4593 H 435.812 3.6741 0.619739 0
M  V30 4594 H 435.925 4.69272 -0.965415 0
M  V30 4595 H 434.289 2.51245 -0.418087 0
M  V30 4596 H 435.072 2.73525 -2.07458 0
M  V30 4597 N 437.518 0.538854 1.48102 0
M  V30 4598 C 438.767 0.0059532 2.01699 0
M  V30 4599 C 439.08 -1.34476 1.42041 0
M  V30 4600 O 440.286 -1.96653 1.87189 0
M  V30 4601 C 438.742 -0.0397627 3.59878 0
M  V30 4602 C 438.35 1.30659 4.28523 0
M  V30 4603 C 440.094 -0.521024 4.2129 0
M  V30 4604 C 438.001 1.22098 5.78659 0
M  V30 4605 H 436.931 -0.00154456 0.753998 0
M  V30 4606 H 439.582 0.683963 1.70277 0
M  V30 4607 H 437.964 -0.783037 3.88181 0
M  V30 4608 H 439.138 2.06613 4.11883 0
M  V30 4609 H 437.453 1.7243 3.79021 0
M  V30 4610 H 440.05 -0.603184 5.31287 0
M  V30 4611 H 440.393 -1.52885 3.8721 0
M  V30 4612 H 440.926 0.166834 3.9745 0
M  V30 4613 H 437.665 2.20424 6.17328 0
M  V30 4614 H 437.185 0.50295 5.97688 0
M  V30 4615 H 438.864 0.915345 6.40492 0
M  V30 4616 N 438.996 -1.55193 0.274407 0
M  V30 4617 C 440.244 -1.99187 -0.341902 0
M  V30 4618 C 440.565 -1.16422 -1.56431 0
M  V30 4619 O 439.835 -0.253573 -1.94252 0
M  V30 4620 H 438.415 -0.735721 -0.129317 0
M  V30 4621 H 441.077 -1.91168 0.379578 0
M  V30 4622 H 440.173 -3.05629 -0.632253 0
M  V30 4623 N 440.474 -0.00167713 -1.576 0
M  V30 4624 C 441.704 0.692754 -1.94639 0
M  V30 4625 C 442.112 1.67744 -0.87513 0
M  V30 4626 O 441.455 1.8305 0.154382 0
M  V30 4627 C 441.517 1.47881 -3.27676 0
M  V30 4628 C 441.181 0.655518 -4.52274 0
M  V30 4629 C 442.178 -0.0575214 -5.19868 0
M  V30 4630 C 439.863 0.600994 -4.98692 0
M  V30 4631 C 441.857 -0.814052 -6.3218 0
M  V30 4632 C 439.544 -0.15926 -6.10892 0
M  V30 4633 C 440.542 -0.865515 -6.77494 0
M  V30 4634 O 440.23 -1.61336 -7.87544 0
M  V30 4635 H 439.962 0.197792 -0.646417 0
M  V30 4636 H 442.516 -0.049423 -2.05341 0
M  V30 4637 H 440.746 2.2655 -3.13388 0
M  V30 4638 H 442.435 2.05874 -3.49816 0
M  V30 4639 H 443.201 -0.0245611 -4.84994 0
M  V30 4640 H 439.08 1.14025 -4.46676 0
M  V30 4641 H 442.624 -1.36584 -6.84098 0
M  V30 4642 H 438.521 -0.194035 -6.45208 0
M  V30 4643 H 439.289 -1.53025 -8.04068 0
M  V30 4644 N 441.952 1.55251 0.271103 0
M  V30 4645 C 443.182 1.79713 1.01916 0
M  V30 4646 C 443.59 0.571613 1.80359 0
M  V30 4647 O 442.933 -0.468853 1.77616 0
M  V30 4648 C 442.995 2.97138 2.02359 0
M  V30 4649 C 442.659 4.34104 1.42837 0
M  V30 4650 C 443.656 5.13019 0.843071 0
M  V30 4651 C 441.341 4.80765 1.455 0
M  V30 4652 C 443.335 6.36729 0.292333 0
M  V30 4653 C 441.022 6.0443 0.900402 0
M  V30 4654 C 442.02 6.8225 0.32007 0
M  V30 4655 O 441.708 8.03582 -0.226031 0
M  V30 4656 H 441.44 0.602431 0.306681 0
M  V30 4657 H 443.994 2.03097 0.306701 0
M  V30 4658 H 442.224 2.6945 2.77369 0
M  V30 4659 H 443.913 3.08907 2.63309 0
M  V30 4660 H 444.679 4.781 0.815178 0
M  V30 4661 H 440.558 4.20202 1.89609 0
M  V30 4662 H 444.102 6.97414 -0.161274 0
M  V30 4663 H 439.999 6.3883 0.925541 0
M  V30 4664 H 440.767 8.18418 -0.115572 0
M  V30 4665 N 443.43 -0.535701 1.48216 0
M  V30 4666 C 444.707 -1.29683 1.46429 0
M  V30 4667 C 445.087 -2.10391 0.172852 0
M  V30 4668 O 444.435 -2.12282 -0.845488 0
M  V30 4669 C 444.645 -2.18313 2.72287 0
M  V30 4670 C 445.993 -2.78639 3.20383 0
M  V30 4671 O 447.017 -2.28604 2.73164 0
M  V30 4672 O 445.876 -3.69636 4.02531 0
M  V30 4673 H 442.97 -0.585026 0.584529 0
M  V30 4674 H 445.516 -0.552827 1.60443 0
M  V30 4675 H 444.288 -1.58421 3.57797 0
M  V30 4676 H 443.911 -2.99971 2.60966 0
M  V30 4677 N 444.908 -1.36708 -0.784132 0
M  V30 4678 C 445.871 -1.31307 -1.87859 0
M  V30 4679 C 446.871 -0.219654 -1.59293 0
M  V30 4680 O 448.061 -0.47476 -1.67606 0
M  V30 4681 C 445.193 -1.03679 -3.24751 0
M  V30 4682 H 446.386 -2.28647 -1.94064 0
M  V30 4683 H 443.939 -1.21558 -0.98252 0
M  V30 4684 H 444.674 -0.0681936 -3.24228 0
M  V30 4685 H 444.459 -1.82811 -3.46876 0
M  V30 4686 H 445.949 -1.02518 -4.04821 0
M  V30 4687 N 446.386 1.0089 -1.21074 0
M  V30 4688 C 447.318 2.09737 -0.924291 0
M  V30 4689 C 448.331 1.62546 0.0909809 0
M  V30 4690 O 449.52 1.77942 -0.141021 0
M  V30 4691 C 446.62 3.36922 -0.36559 0
M  V30 4692 C 445.793 4.13216 -1.43426 0
M  V30 4693 C 444.852 5.18696 -0.885496 0
M  V30 4694 O 443.878 5.47176 -1.56801 0
M  V30 4695 N 445.08 5.79718 0.301227 0
M  V30 4696 H 447.845 2.34895 -1.8613 0
M  V30 4697 H 445.406 1.17341 -1.11546 0
M  V30 4698 H 447.398 4.04697 0.0158407 0
M  V30 4699 H 445.968 3.08952 0.476149 0
M  V30 4700 H 445.188 3.40301 -1.9897 0
M  V30 4701 H 446.476 4.60967 -2.15376 0
M  V30 4702 H 445.874 5.58926 0.872849 0
M  V30 4703 H 444.431 6.48804 0.624211 0
M  V30 4704 N 447.864 1.01787 1.20321 0
M  V30 4705 C 448.811 0.589197 2.23153 0
M  V30 4706 C 449.781 -0.391367 1.61423 0
M  V30 4707 O 450.966 -0.290518 1.88575 0
M  V30 4708 C 448.106 -0.0650747 3.45039 0
M  V30 4709 C 447.219 0.960207 4.21194 0
M  V30 4710 C 446.354 0.276854 5.30478 0
M  V30 4711 C 445.393 1.2888 5.98378 0
M  V30 4712 N 444.53 0.632031 6.99249 0
M  V30 4713 H 449.37 1.47071 2.59179 0
M  V30 4714 H 446.907 0.736192 1.27352 0
M  V30 4715 H 448.865 -0.461552 4.14639 0
M  V30 4716 H 447.495 -0.910233 3.09701 0
M  V30 4717 H 446.547 1.47484 3.50646 0
M  V30 4718 H 447.859 1.72977 4.67847 0
M  V30 4719 H 447.013 -0.175056 6.06447 0
M  V30 4720 H 445.752 -0.525004 4.84866 0
M  V30 4721 H 444.757 1.75109 5.21169 0
M  V30 4722 H 445.982 2.09196 6.46076 0
M  V30 4723 H 443.928 -0.149935 6.55829 0
M  V30 4724 H 443.845 1.33964 7.44036 0
M  V30 4725 H 445.113 0.203755 7.79234 0
M  V30 4726 N 449.342 -1.36122 0.79427 0
M  V30 4727 C 450.272 -2.32551 0.210328 0
M  V30 4728 C 451.253 -1.56884 -0.657386 0
M  V30 4729 O 452.438 -1.85014 -0.590207 0
M  V30 4730 C 449.568 -3.41128 -0.651819 0
M  V30 4731 C 448.522 -4.27842 0.116395 0
M  V30 4732 C 447.848 -5.2763 -0.86666 0
M  V30 4733 C 449.148 -5.05647 1.30837 0
M  V30 4734 H 450.842 -2.81636 1.01594 0
M  V30 4735 H 448.388 -1.35407 0.489981 0
M  V30 4736 H 450.341 -4.07581 -1.07031 0
M  V30 4737 H 449.065 -2.90622 -1.49019 0
M  V30 4738 H 447.724 -3.62952 0.515915 0
M  V30 4739 H 447.372 -4.73395 -1.70019 0
M  V30 4740 H 447.072 -5.86514 -0.35705 0
M  V30 4741 H 448.596 -5.96955 -1.28361 0
M  V30 4742 H 450.01 -5.65113 0.965393 0
M  V30 4743 H 448.407 -5.73967 1.75161 0
M  V30 4744 H 449.477 -4.37006 2.10128 0
M  V30 4745 N 450.82 -0.546701 -1.47814 0
M  V30 4746 C 451.75 0.195317 -2.32682 0
M  V30 4747 C 452.731 0.918981 -1.43139 0
M  V30 4748 O 453.916 0.901501 -1.72008 0
M  V30 4749 C 451.046 1.23237 -3.247 0
M  V30 4750 C 450 0.625818 -4.234 0
M  V30 4751 C 449.326 1.76674 -5.04669 0
M  V30 4752 C 450.626 -0.413515 -5.2066 0
M  V30 4753 H 452.32 -0.513184 -2.94969 0
M  V30 4754 H 449.866 -0.248241 -1.41844 0
M  V30 4755 H 451.819 1.75955 -3.82907 0
M  V30 4756 H 450.543 1.97067 -2.60446 0
M  V30 4757 H 449.202 0.120023 -3.66403 0
M  V30 4758 H 448.85 2.49383 -4.36826 0
M  V30 4759 H 448.55 1.36673 -5.71484 0
M  V30 4760 H 450.074 2.29738 -5.65732 0
M  V30 4761 H 451.488 0.0272042 -5.73294 0
M  V30 4762 H 449.885 -0.731825 -5.95621 0
M  V30 4763 H 450.955 -1.31325 -4.66778 0
M  V30 4764 N 452.299 1.55045 -0.282633 0
M  V30 4765 C 453.209 2.26491 0.61147 0
M  V30 4766 C 454.225 1.29348 1.16384 0
M  V30 4767 O 455.401 1.62298 1.19253 0
M  V30 4768 C 452.466 2.97779 1.77563 0
M  V30 4769 C 451.527 4.10418 1.25919 0
M  V30 4770 C 450.76 4.78297 2.36786 0
M  V30 4771 O 450.983 4.45426 3.56303 0
M  V30 4772 O 449.917 5.66089 2.04517 0
M  V30 4773 H 453.743 3.03683 0.0324615 0
M  V30 4774 H 451.328 1.49317 -0.0497576 0
M  V30 4775 H 453.21 3.42554 2.45427 0
M  V30 4776 H 451.885 2.23498 2.34159 0
M  V30 4777 H 450.792 3.70082 0.546797 0
M  V30 4778 H 452.125 4.86622 0.738887 0
M  V30 4779 N 453.777 0.010035 1.57597 0
M  V30 4780 C 454.724 -0.978122 2.09049 0
M  V30 4781 C 455.694 -1.33509 0.988159 0
M  V30 4782 O 456.879 -1.43172 1.26121 0
M  V30 4783 C 454.019 -2.26158 2.60666 0
M  V30 4784 C 453.132 -1.96275 3.84838 0
M  V30 4785 C 452.267 -3.18776 4.24918 0
M  V30 4786 C 451.306 -2.84625 5.41899 0
M  V30 4787 N 450.443 -3.99693 5.77226 0
M  V30 4788 H 455.283 -0.532431 2.93205 0
M  V30 4789 H 452.82 -0.251234 1.44939 0
M  V30 4790 H 454.778 -3.01202 2.88675 0
M  V30 4791 H 453.408 -2.68378 1.79369 0
M  V30 4792 H 452.46 -1.11555 3.63675 0
M  V30 4793 H 453.772 -1.67111 4.69974 0
M  V30 4794 H 452.926 -4.02157 4.54262 0
M  V30 4795 H 451.665 -3.51087 3.38511 0
M  V30 4796 H 450.67 -1.99653 5.12268 0
M  V30 4797 H 451.895 -2.53551 6.29991 0
M  V30 4798 H 449.841 -4.31882 4.93776 0
M  V30 4799 H 449.758 -3.74087 6.56959 0
M  V30 4800 H 451.026 -4.83834 6.11167 0
M  V30 4801 N 455.255 -1.55392 -0.262866 0
M  V30 4802 C 456.188 -1.8391 -1.35101 0
M  V30 4803 C 457.166 -0.692901 -1.47097 0
M  V30 4804 O 458.35 -0.936979 -1.63563 0
M  V30 4805 C 455.477 -2.00969 -2.72634 0
M  V30 4806 C 454.523 -3.23559 -2.7787 0
M  V30 4807 S 455.356 -4.80647 -2.3609 0
M  V30 4808 C 456.512 -5.00692 -3.75578 0
M  V30 4809 H 456.745 -2.75918 -1.1071 0
M  V30 4810 H 454.278 -1.47294 -0.463029 0
M  V30 4811 H 456.236 -2.11482 -3.51832 0
M  V30 4812 H 454.897 -1.09832 -2.94272 0
M  V30 4813 H 454.09 -3.32413 -3.78837 0
M  V30 4814 H 453.692 -3.11689 -2.06702 0
M  V30 4815 H 455.984 -4.87055 -4.70939 0
M  V30 4816 H 456.927 -6.02717 -3.71669 0
M  V30 4817 H 457.335 -4.28619 -3.6735 0
M  V30 4818 N 456.733 0.527833 -1.48498 0
M  V30 4819 C 457.981 1.28101 -1.56316 0
M  V30 4820 C 458.302 1.9352 -0.239781 0
M  V30 4821 O 457.572 1.81433 0.738849 0
M  V30 4822 H 456.152 0.475793 -0.575873 0
M  V30 4823 H 458.814 0.614052 -1.84974 0
M  V30 4824 H 457.91 2.05916 -2.34532 0
M  V30 4825 N 458.211 1.37122 0.776871 0
M  V30 4826 C 459.459 1.31787 1.53221 0
M  V30 4827 C 459.78 -0.0987589 1.9475 0
M  V30 4828 O 459.05 -1.0417 1.65908 0
M  V30 4829 H 457.63 0.484839 0.568278 0
M  V30 4830 H 460.292 1.71556 0.924917 0
M  V30 4831 H 459.388 1.95355 2.43398 0
M  V30 4832 N 459.689 -1.00246 1.21608 0
M  V30 4833 C 460.914 -1.78167 1.06167 0
M  V30 4834 C 461.339 -1.84138 -0.384035 0
M  V30 4835 O 460.697 -1.28683 -1.27712 0
M  V30 4836 C 460.745 -3.19786 1.66642 0
M  V30 4837 O 459.849 -4.02153 0.913613 0
M  V30 4838 H 459.19 -0.549 0.37349 0
M  V30 4839 H 461.72 -1.25994 1.61204 0
M  V30 4840 H 461.73 -3.70451 1.70969 0
M  V30 4841 H 460.405 -3.14754 2.7185 0
M  V30 4842 H 458.982 -3.60711 0.945635 0
M  V30 4843 N 461.167 -1.02423 -1.1978 0
M  V30 4844 C 462.13 -0.605703 -2.21052 0
M  V30 4845 C 463.13 0.328209 -1.57415 0
M  V30 4846 O 464.32 0.115853 -1.73814 0
M  V30 4847 C 461.452 0.114366 -3.40708 0
M  V30 4848 H 462.645 -1.5017 -2.59594 0
M  V30 4849 H 460.198 -0.814888 -1.33376 0
M  V30 4850 H 460.933 1.02492 -3.07678 0
M  V30 4851 H 460.718 -0.556641 -3.88129 0
M  V30 4852 H 462.208 0.394272 -4.15735 0
M  V30 4853 N 462.645 1.35699 -0.801477 0
M  V30 4854 C 464.056 1.81415 -0.441073 0
M  V30 4855 C 464.407 1.66595 1.03636 0
M  V30 4856 O 463.532 1.19369 1.80499 0
M  V30 4857 C 464.127 3.29369 -0.793819 0
M  V30 4858 C 462.686 3.73248 -0.486083 0
M  V30 4859 C 461.833 2.57775 -1.02213 0
M  V30 4860 H 464.784 1.23749 -0.993572 0
M  V30 4861 H 464.805 3.80395 -0.0894158 0
M  V30 4862 H 464.317 3.40123 -1.86917 0
M  V30 4863 H 462.418 3.68046 0.580735 0
M  V30 4864 H 462.531 4.68222 -1.01513 0
M  V30 4865 H 460.895 2.50788 -0.444712 0
M  V30 4866 H 461.678 2.71309 -2.10348 0
M  V30 4867 N 464.123 0.554532 1.47522 0
M  V30 4868 C 465.534 0.120446 1.86311 0
M  V30 4869 C 465.885 -1.30904 1.46145 0
M  V30 4870 O 465.01 -1.98434 0.863294 0
M  V30 4871 C 465.605 0.211808 3.38137 0
M  V30 4872 C 464.164 -0.167224 3.76028 0
M  V30 4873 C 463.311 0.560576 2.71575 0
M  V30 4874 H 466.262 0.764408 1.39077 0
M  V30 4875 H 466.283 -0.570275 3.76202 0
M  V30 4876 H 465.795 1.25232 3.6734 0
M  V30 4877 H 463.896 -1.20894 3.52442 0
M  V30 4878 H 464.009 0.189473 4.78725 0
M  V30 4879 H 462.373 0.00396836 2.547 0
M  V30 4880 H 463.156 1.60219 3.0362 0
M  V30 4881 N 465.601 -1.54893 0.290851 0
M  V30 4882 C 466.878 -1.91991 -0.373989 0
M  V30 4883 C 467.258 -1.21694 -1.72493 0
M  V30 4884 O 466.606 -0.34917 -2.25816 0
M  V30 4885 C 466.816 -3.45419 -0.498703 0
M  V30 4886 C 468.164 -4.1748 -0.774298 0
M  V30 4887 O 469.188 -3.51398 -0.582908 0
M  V30 4888 O 468.047 -5.3445 -1.14129 0
M  V30 4889 H 465.141 -0.800593 -0.207315 0
M  V30 4890 H 467.687 -1.66297 0.338164 0
M  V30 4891 H 466.459 -3.88688 0.451392 0
M  V30 4892 H 466.082 -3.77117 -1.25972 0
M  V30 4893 N 467.08 -0.0183926 -1.57589 0
M  V30 4894 C 468.305 0.676634 -1.96052 0
M  V30 4895 C 468.73 1.6548 -0.894307 0
M  V30 4896 O 468.088 1.80712 0.145849 0
M  V30 4897 C 468.136 1.36872 -3.33614 0
M  V30 4898 O 467.24 2.48372 -3.29219 0
M  V30 4899 H 466.581 0.1786 -0.63953 0
M  V30 4900 H 469.111 -0.077056 -2.04455 0
M  V30 4901 H 469.121 1.72797 -3.69601 0
M  V30 4902 H 467.796 0.651636 -4.10763 0
M  V30 4903 H 466.373 2.14639 -3.04934 0
M  V30 4904 N 468.558 1.5553 0.254621 0
M  V30 4905 C 469.783 1.81383 1.00573 0
M  V30 4906 C 470.208 0.594419 1.78461 0
M  V30 4907 O 469.566 -0.456403 1.75461 0
M  V30 4908 C 469.614 3.04892 1.92545 0
M  V30 4909 O 468.718 2.81266 3.01601 0
M  V30 4910 H 468.059 0.598969 0.286587 0
M  V30 4911 H 470.589 2.02703 0.277952 0
M  V30 4912 H 470.599 3.34119 2.34155 0
M  V30 4913 H 469.274 3.93287 1.3527 0
M  V30 4914 H 467.851 2.63185 2.64174 0
M  V30 4915 N 470.036 -0.519951 1.48776 0
M  V30 4916 C 471.282 -1.27456 1.58514 0
M  V30 4917 C 471.637 -1.90634 0.260057 0
M  V30 4918 O 470.93 -1.76815 -0.738036 0
M  V30 4919 C 471.124 -2.37864 2.6675 0
M  V30 4920 C 470.953 -1.85509 4.09654 0
M  V30 4921 C 469.723 -1.67661 4.76674 0
M  V30 4922 C 471.921 -1.37783 4.955 0
M  V30 4923 N 469.903 -1.10037 6.03958 0
M  V30 4924 C 471.274 -0.921714 6.1311 0
M  V30 4925 C 473.329 -1.26179 4.81646 0
M  V30 4926 C 472.032 -0.361057 7.18393 0
M  V30 4927 C 474.058 -0.715121 5.8706 0
M  V30 4928 C 473.42 -0.269132 7.03886 0
M  V30 4929 H 469.519 -0.457049 0.634531 0
M  V30 4930 H 472.103 -0.585073 1.85701 0
M  V30 4931 H 470.274 -3.04296 2.41367 0
M  V30 4932 H 472.006 -3.04901 2.66116 0
M  V30 4933 H 468.761 -1.91478 4.33166 0
M  V30 4934 H 469.185 -0.832067 6.71867 0
M  V30 4935 H 473.827 -1.59263 3.91657 0
M  V30 4936 H 471.545 -0.0179127 8.08098 0
M  V30 4937 H 475.131 -0.628376 5.78397 0
M  V30 4938 H 474.011 0.14729 7.84062 0
M  V30 4939 N 471.514 -1.37532 -0.769588 0
M  V30 4940 C 472.93 -1.18379 -1.07045 0
M  V30 4941 C 473.13 -0.0214312 -2.01489 0
M  V30 4942 O 472.186 0.637809 -2.44312 0
M  V30 4943 C 473.499 -2.50338 -1.66588 0
M  V30 4944 C 475.047 -2.56879 -1.78835 0
M  V30 4945 C 475.522 -3.88974 -2.41792 0
M  V30 4946 N 477.013 -3.90428 -2.4924 0
M  V30 4947 C 477.748 -4.89388 -2.98809 0
M  V30 4948 N 477.244 -5.98745 -3.48535 0
M  V30 4949 N 479.037 -4.76791 -2.97703 0
M  V30 4950 H 471.188 -2.11921 -0.142541 0
M  V30 4951 H 473.451 -0.939608 -0.125863 0
M  V30 4952 H 473.157 -3.35767 -1.0466 0
M  V30 4953 H 473.031 -2.67583 -2.65856 0
M  V30 4954 H 475.418 -1.71856 -2.39895 0
M  V30 4955 H 475.499 -2.43516 -0.783166 0
M  V30 4956 H 475.143 -4.74412 -1.81371 0
M  V30 4957 H 475.073 -3.99641 -3.4292 0
M  V30 4958 H 477.564 -3.11433 -2.14052 0
M  V30 4959 H 477.877 -6.70205 -3.84767 0
M  V30 4960 H 476.222 -6.02387 -3.46634 0
M  V30 4961 H 479.413 -3.90478 -2.58157 0
M  V30 4962 H 479.586 -5.54069 -3.36024 0
M  V30 4963 N 472.992 0.995999 -1.22138 0
M  V30 4964 C 474.24 1.73167 -1.042 0
M  V30 4965 C 474.561 1.90329 0.42423 0
M  V30 4966 O 473.831 1.4607 1.30539 0
M  V30 4967 H 472.411 0.641593 -0.38258 0
M  V30 4968 H 475.073 1.19974 -1.53598 0
M  V30 4969 H 474.169 2.72734 -1.51731 0
M  V30 4970 N 474.47 1.03057 1.19235 0
M  V30 4971 C 475.695 0.74757 1.93458 0
M  V30 4972 C 476.12 -0.687648 1.7508 0
M  V30 4973 O 475.478 -1.47499 1.05422 0
M  V30 4974 C 475.526 1.10604 3.43219 0
M  V30 4975 O 474.63 0.225671 4.11782 0
M  V30 4976 H 473.971 0.276047 0.603899 0
M  V30 4977 H 476.501 1.3777 1.51263 0
M  V30 4978 H 476.511 1.06366 3.93891 0
M  V30 4979 H 475.186 2.15165 3.55917 0
M  V30 4980 H 473.763 0.326795 3.71465 0
M  V30 4981 N 475.948 -1.35272 0.808662 0
M  V30 4982 C 476.878 -2.32315 0.234981 0
M  V30 4983 C 477.859 -1.57572 -0.64071 0
M  V30 4984 O 479.044 -1.8563 -0.570551 0
M  V30 4985 C 476.174 -3.41801 -0.615601 0
M  V30 4986 C 475.128 -4.27694 0.161767 0
M  V30 4987 C 474.454 -5.28519 -0.810649 0
M  V30 4988 C 475.754 -5.04231 1.36193 0
M  V30 4989 H 477.448 -2.80543 1.04575 0
M  V30 4990 H 474.994 -1.3488 0.504315 0
M  V30 4991 H 476.947 -4.08693 -1.02702 0
M  V30 4992 H 475.671 -2.92186 -1.45928 0
M  V30 4993 H 474.33 -3.62384 0.554382 0
M  V30 4994 H 473.978 -4.75171 -1.64988 0
M  V30 4995 H 473.678 -5.8686 -0.294822 0
M  V30 4996 H 475.202 -5.98283 -1.22023 0
M  V30 4997 H 476.616 -5.64058 1.02528 0
M  V30 4998 H 475.013 -5.72077 1.81239 0
M  V30 4999 H 476.083 -4.34753 2.14751 0
M  V30 5000 N 477.426 -0.562348 -1.47226 0
M  V30 5001 C 478.373 0.182461 -2.30078 0
M  V30 5002 C 479.343 0.903503 -1.39377 0
M  V30 5003 O 480.528 0.898188 -1.68337 0
M  V30 5004 C 477.668 1.20322 -3.23445 0
M  V30 5005 C 476.781 0.487717 -4.29238 0
M  V30 5006 C 475.916 1.49422 -5.09752 0
M  V30 5007 C 474.955 0.763976 -6.07314 0
M  V30 5008 N 474.092 1.71755 -6.80768 0
M  V30 5009 H 478.932 -0.530169 -2.93246 0
M  V30 5010 H 476.469 -0.273276 -1.44539 0
M  V30 5011 H 478.427 1.80768 -3.76004 0
M  V30 5012 H 477.057 1.88382 -2.6213 0
M  V30 5013 H 476.109 -0.231374 -3.79696 0
M  V30 5014 H 477.421 -0.0841003 -4.98729 0
M  V30 5015 H 476.575 2.17206 -5.66486 0
M  V30 5016 H 475.314 2.09995 -4.40174 0
M  V30 5017 H 474.319 0.0722344 -5.49753 0
M  V30 5018 H 475.544 0.16391 -6.78902 0
M  V30 5019 H 473.49 2.31177 -6.13916 0
M  V30 5020 H 473.407 1.19802 -7.46447 0
M  V30 5021 H 474.675 2.38638 -7.42073 0
M  V30 5022 N 478.904 1.54736 -0.299062 0
M  V30 5023 C 480.15 2.00397 0.311244 0
M  V30 5024 C 480.483 1.18716 1.53688 0
M  V30 5025 O 479.758 0.263154 1.92712 0
M  V30 5026 C 480.041 3.53817 0.669761 0
M  V30 5027 C 479.894 4.46239 -0.564882 0
M  V30 5028 C 481.213 4.13856 1.49702 0
M  V30 5029 H 478.332 0.728493 0.111653 0
M  V30 5030 H 480.974 1.85506 -0.410774 0
M  V30 5031 H 479.124 3.66637 1.28491 0
M  V30 5032 H 480.796 4.45328 -1.20337 0
M  V30 5033 H 479.039 4.16916 -1.19849 0
M  V30 5034 H 479.71 5.5134 -0.269918 0
M  V30 5035 H 482.186 4.04461 0.977284 0
M  V30 5036 H 481.062 5.21365 1.71666 0
M  V30 5037 H 481.323 3.65608 2.48563 0
M  V30 5038 N 480.382 0.0267497 1.57577 0
M  V30 5039 C 481.793 -0.512413 1.79531 0
M  V30 5040 C 482.144 -1.72391 0.936791 0
M  V30 5041 O 481.269 -2.15903 0.146543 0
M  V30 5042 C 481.864 -0.936378 3.25603 0
M  V30 5043 C 480.423 -1.42067 3.4856 0
M  V30 5044 C 479.57 -0.384278 2.74624 0
M  V30 5045 H 482.521 0.252797 1.56674 0
M  V30 5046 H 482.542 -1.80088 3.35184 0
M  V30 5047 H 482.054 -0.0544332 3.88062 0
M  V30 5048 H 480.155 -2.32262 2.9135 0
M  V30 5049 H 480.268 -1.42968 4.57271 0
M  V30 5050 H 478.632 -0.851855 2.40032 0
M  V30 5051 H 479.415 0.489159 3.39797 0
M  V30 5052 N 481.861 -1.55662 -0.24637 0
M  V30 5053 C 483.091 -1.81312 -0.990438 0
M  V30 5054 C 483.499 -0.600234 -1.79426 0
M  V30 5055 O 482.842 0.440537 -1.78339 0
M  V30 5056 C 482.904 -3.0032 -1.97607 0
M  V30 5057 C 482.568 -4.36322 -1.35912 0
M  V30 5058 C 483.565 -5.14295 -0.761348 0
M  V30 5059 C 481.25 -4.83019 -1.37833 0
M  V30 5060 C 483.244 -6.37114 -0.190998 0
M  V30 5061 C 480.931 -6.05786 -0.804128 0
M  V30 5062 C 481.929 -6.82672 -0.211489 0
M  V30 5063 O 481.617 -8.03121 0.353845 0
M  V30 5064 H 481.349 -0.607233 -0.297058 0
M  V30 5065 H 483.903 -2.0356 -0.274351 0
M  V30 5066 H 482.133 -2.73829 -2.73047 0
M  V30 5067 H 483.822 -3.13057 -2.58361 0
M  V30 5068 H 484.588 -4.79337 -0.739013 0
M  V30 5069 H 480.467 -4.23165 -1.829 0
M  V30 5070 H 484.011 -6.97069 0.272206 0
M  V30 5071 H 479.908 -6.40222 -0.823792 0
M  V30 5072 H 480.676 -8.18131 0.245761 0
M  V30 5073 N 483.339 0.512053 -1.4905 0
M  V30 5074 C 484.287 1.63568 -1.65373 0
M  V30 5075 C 485.281 1.61228 -0.519806 0
M  V30 5076 O 486.487 1.65869 -0.699101 0
M  V30 5077 H 482.862 0.542019 -0.521267 0
M  V30 5078 H 484.833 1.4695 -2.59708 0
M  V30 5079 C 483.582 3.01761 -1.7273 0
M  V30 5080 H 482.905 3.04263 -2.59353 0
M  V30 5081 H 484.345 3.79948 -1.8819 0
M  V30 5082 C 482.804 3.33609 -0.46973 0
M  V30 5083 O 483.334 3.99607 0.409492 0
M  V30 5084 N 481.54 2.88651 -0.336003 0
M  V30 5085 H 481.087 2.35119 -1.05247 0
M  V30 5086 H 481.045 3.10328 0.504363 0
M  V30 5087 N 484.817 1.37938 0.762283 0
M  V30 5088 C 486.063 1.33866 1.52341 0
M  V30 5089 C 486.396 -0.0738961 1.94059 0
M  V30 5090 O 485.671 -1.03326 1.64785 0
M  V30 5091 C 485.954 2.28644 2.78197 0
M  V30 5092 C 485.807 3.78722 2.42672 0
M  V30 5093 C 487.126 2.21702 3.80179 0
M  V30 5094 H 484.245 0.487593 0.55265 0
M  V30 5095 H 486.887 1.68717 0.873767 0
M  V30 5096 H 485.037 1.99055 3.33631 0
M  V30 5097 H 486.709 4.18948 1.93081 0
M  V30 5098 H 484.952 3.96827 1.75244 0
M  V30 5099 H 485.623 4.40486 3.3268 0
M  V30 5100 H 488.099 2.47805 3.34263 0
M  V30 5101 H 486.975 2.90143 4.65949 0
M  V30 5102 H 487.236 1.21301 4.25133 0
M  V30 5103 N 486.295 -0.989507 1.22664 0
M  V30 5104 C 487.543 -1.72612 1.05117 0
M  V30 5105 C 487.864 -1.90552 -0.414131 0
M  V30 5106 O 487.134 -1.4676 -1.29762 0
M  V30 5107 H 485.714 -0.639555 0.385977 0
M  V30 5108 H 488.376 -1.19158 1.54232 0
M  V30 5109 H 487.472 -2.71926 1.53175 0
M  V30 5110 N 487.773 -1.03688 -1.18687 0
M  V30 5111 C 489.184 -0.766488 -1.70241 0
M  V30 5112 C 489.535 0.713052 -1.82784 0
M  V30 5113 O 488.66 1.55529 -1.50465 0
M  V30 5114 C 489.255 -1.38475 -3.09209 0
M  V30 5115 C 487.814 -1.16276 -3.5799 0
M  V30 5116 C 486.961 -1.4778 -2.34641 0
M  V30 5117 H 489.912 -1.20378 -1.03415 0
M  V30 5118 H 489.933 -0.785939 -3.72295 0
M  V30 5119 H 489.445 -2.46157 -3.00048 0
M  V30 5120 H 487.546 -0.104508 -3.72453 0
M  V30 5121 H 487.659 -1.8571 -4.41643 0
M  V30 5122 H 486.023 -0.897366 -2.38368 0
M  V30 5123 H 486.806 -2.56562 -2.28102 0
M  V30 5124 N 489.251 1.34841 -0.815825 0
M  V30 5125 C 490.499 1.98107 -0.399744 0
M  V30 5126 C 490.82 1.65019 1.03894 0
M  V30 5127 O 490.09 0.937311 1.72021 0
M  V30 5128 H 488.67 0.732827 -0.144823 0
M  V30 5129 H 491.332 1.64599 -1.0437 0
M  V30 5130 H 490.428 3.07856 -0.512965 0
M  V30 5131 N 490.729 0.570148 1.46925 0
M  V30 5132 C 491.976 0.0509529 2.02436 0
M  V30 5133 C 492.304 -1.30405 1.44308 0
M  V30 5134 O 491.559 -1.86493 0.593198 0
M  V30 5135 C 491.858 -0.0780336 3.57315 0
M  V30 5136 C 491.524 1.20775 4.34424 0
M  V30 5137 C 490.186 1.56004 4.5521 0
M  V30 5138 C 492.538 2.0592 4.78797 0
M  V30 5139 C 489.866 2.76201 5.17619 0
M  V30 5140 C 492.218 3.25332 5.42533 0
M  V30 5141 C 490.882 3.60859 5.61549 0
M  V30 5142 H 490.152 0.018645 0.740765 0
M  V30 5143 H 492.799 0.744262 1.76445 0
M  V30 5144 H 491.104 -0.854394 3.82371 0
M  V30 5145 H 492.801 -0.495312 3.97929 0
M  V30 5146 H 489.391 0.923469 4.18533 0
M  V30 5147 H 493.575 1.80008 4.62505 0
M  V30 5148 H 488.831 3.0388 5.30535 0
M  V30 5149 H 493.005 3.91586 5.75876 0
M  V30 5150 H 490.632 4.54088 6.09678 0
M  V30 5151 N 492.207 -1.54576 0.307264 0
M  V30 5152 C 493.435 -2.04675 -0.302597 0
M  V30 5153 C 493.85 -1.18425 -1.47041 0
M  V30 5154 O 493.207 -0.211257 -1.81273 0
M  V30 5155 C 493.258 -3.53575 -0.752801 0
M  V30 5156 O 492.979 -4.36547 0.368536 0
M  V30 5157 C 494.48 -4.19699 -1.42717 0
M  V30 5158 H 491.7 -0.66786 -0.0648374 0
M  V30 5159 H 494.244 -1.99516 0.448716 0
M  V30 5160 H 492.399 -3.59074 -1.45412 0
M  V30 5161 H 492.813 -5.24497 0.0168937 0
M  V30 5162 H 494.287 -5.25388 -1.69327 0
M  V30 5163 H 494.764 -3.69815 -2.36925 0
M  V30 5164 H 495.37 -4.18293 -0.768856 0
M  V30 5165 N 493.685 -0.035106 -1.57561 0
M  V30 5166 C 494.933 0.64096 -1.91667 0
M  V30 5167 C 495.254 1.72323 -0.912681 0
M  V30 5168 O 494.524 1.95849 0.0449089 0
M  V30 5169 H 493.104 0.239743 -0.707483 0
M  V30 5170 H 495.766 -0.084321 -1.94718 0
M  V30 5171 H 494.862 1.08987 -2.92452 0
M  V30 5172 N 495.163 1.55791 0.238111 0
M  V30 5173 C 496.111 1.91885 1.31464 0
M  V30 5174 C 497.105 0.798929 1.49377 0
M  V30 5175 O 498.311 0.983626 1.50747 0
M  V30 5176 H 494.686 0.609551 0.440399 0
M  V30 5177 H 496.657 2.81747 0.982925 0
M  V30 5178 C 495.406 2.23763 2.6613 0
M  V30 5179 H 494.729 3.09444 2.53149 0
M  V30 5180 H 496.169 2.52915 3.40309 0
M  V30 5181 C 494.628 1.05699 3.1989 0
M  V30 5182 O 495.158 0.309524 4.00506 0
M  V30 5183 N 493.364 0.845251 2.78036 0
M  V30 5184 H 492.911 1.4548 2.12588 0
M  V30 5185 H 492.869 0.0569973 3.14348 0
M  V30 5186 N 496.642 -0.504142 1.49319 0
M  V30 5187 C 497.889 -1.25846 1.58647 0
M  V30 5188 C 498.217 -1.92592 0.27177 0
M  V30 5189 O 497.472 -1.81167 -0.74007 0
M  V30 5190 C 497.771 -2.35021 2.69258 0
M  V30 5191 C 497.437 -1.85755 4.1086 0
M  V30 5192 C 496.099 -1.72038 4.49395 0
M  V30 5193 C 498.451 -1.48844 4.99495 0
M  V30 5194 C 495.779 -1.19783 5.74342 0
M  V30 5195 C 498.131 -0.980422 6.24956 0
M  V30 5196 C 496.795 -0.829622 6.62324 0
M  V30 5197 H 496.065 -0.460505 0.580531 0
M  V30 5198 H 498.712 -0.559716 1.83138 0
M  V30 5199 H 497.017 -3.10672 2.38726 0
M  V30 5200 H 498.714 -2.93083 2.73685 0
M  V30 5201 H 495.304 -1.9739 3.80441 0
M  V30 5202 H 499.488 -1.5829 4.70381 0
M  V30 5203 H 494.744 -1.06817 6.01997 0
M  V30 5204 H 498.918 -0.685608 6.93017 0
M  V30 5205 H 496.545 -0.42253 7.59025 0
M  V30 5206 N 498.12 -1.38341 -0.754957 0
M  V30 5207 C 499.345 -1.37882 -1.5493 0
M  V30 5208 C 499.77 0.0296385 -1.88077 0
M  V30 5209 O 499.128 1.01133 -1.50472 0
M  V30 5210 C 499.176 -2.23996 -2.82592 0
M  V30 5211 O 498.28 -1.65612 -3.77686 0
M  V30 5212 H 497.621 -0.470384 -0.468652 0
M  V30 5213 H 500.151 -1.82084 -0.933082 0
M  V30 5214 H 500.161 -2.37806 -3.3153 0
M  V30 5215 H 498.836 -3.26365 -2.57796 0
M  V30 5216 H 497.413 -1.60936 -3.36384 0
M  V30 5217 N 499.598 0.982988 -1.23187 0
M  V30 5218 C 500.826 1.75921 -1.08901 0
M  V30 5219 C 501.241 1.85341 0.359719 0
M  V30 5220 O 500.598 1.33072 1.24892 0
M  V30 5221 C 500.649 3.18742 -1.70545 0
M  V30 5222 O 500.37 3.09814 -3.09753 0
M  V30 5223 C 501.871 4.1277 -1.61667 0
M  V30 5224 H 499.091 0.552166 -0.381252 0
M  V30 5225 H 501.635 1.23516 -1.62985 0
M  V30 5226 H 499.79 3.68182 -1.20501 0
M  V30 5227 H 500.204 3.99703 -3.39614 0
M  V30 5228 H 501.678 5.10697 -2.09506 0
M  V30 5229 H 502.155 4.3542 -0.575009 0
M  V30 5230 H 502.761 3.69232 -2.11064 0
M  V30 5231 N 501.076 1.04316 1.18135 0
M  V30 5232 C 502.008 0.594444 2.21357 0
M  V30 5233 C 503.021 -0.337215 1.59269 0
M  V30 5234 O 504.21 -0.131337 1.78016 0
M  V30 5235 C 501.31 -0.151251 3.38562 0
M  V30 5236 C 500.483 0.788907 4.30227 0
M  V30 5237 C 499.542 0.0860572 5.2613 0
M  V30 5238 O 498.568 0.717302 5.64662 0
M  V30 5239 N 499.77 -1.17969 5.68387 0
M  V30 5240 H 502.535 1.48227 2.60478 0
M  V30 5241 H 500.096 0.92396 1.32946 0
M  V30 5242 H 502.088 -0.631352 3.99745 0
M  V30 5243 H 500.658 -0.940639 2.98112 0
M  V30 5244 H 499.878 1.44882 3.6661 0
M  V30 5245 H 501.166 1.42738 4.88368 0
M  V30 5246 H 500.564 -1.71302 5.3914 0
M  V30 5247 H 499.121 -1.60402 6.31755 0
M  V30 5248 N 502.554 -1.34406 0.822964 0
M  V30 5249 C 503.501 -2.29519 0.24284 0
M  V30 5250 C 504.471 -1.5359 -0.632397 0
M  V30 5251 O 505.656 -1.8196 -0.57403 0
M  V30 5252 C 502.796 -3.40032 -0.58925 0
M  V30 5253 C 501.909 -4.30899 0.308236 0
M  V30 5254 C 501.044 -5.28515 -0.533425 0
M  V30 5255 C 500.083 -6.1102 0.363444 0
M  V30 5256 N 499.22 -7.00725 -0.439147 0
M  V30 5257 H 504.06 -2.78537 1.05929 0
M  V30 5258 H 501.597 -1.3707 0.533872 0
M  V30 5259 H 503.555 -4.0279 -1.087 0
M  V30 5260 H 502.185 -2.92248 -1.37081 0
M  V30 5261 H 501.237 -3.69002 0.924203 0
M  V30 5262 H 502.549 -4.88717 0.997862 0
M  V30 5263 H 501.703 -5.96725 -1.09565 0
M  V30 5264 H 500.442 -4.71235 -1.25656 0
M  V30 5265 H 499.447 -5.41743 0.937812 0
M  V30 5266 H 500.672 -6.70381 1.08469 0
M  V30 5267 H 498.618 -6.45913 -1.14595 0
M  V30 5268 H 498.535 -7.55756 0.19209 0
M  V30 5269 H 499.803 -7.73263 -0.984124 0
M  V30 5270 N 504.032 -0.577932 -1.46621 0
M  V30 5271 C 505.278 -0.0617793 -2.02706 0
M  V30 5272 C 505.611 1.29294 -1.44903 0
M  V30 5273 O 504.886 1.8461 -0.61232 0
M  V30 5274 C 505.169 0.00911824 -3.60099 0
M  V30 5275 C 505.022 -1.37416 -4.28295 0
M  V30 5276 C 506.341 0.712159 -4.343 0
M  V30 5277 H 503.46 -0.0239246 -0.736612 0
M  V30 5278 H 506.102 -0.744211 -1.74818 0
M  V30 5279 H 504.252 0.590292 -3.83989 0
M  V30 5280 H 505.924 -2.00013 -4.15683 0
M  V30 5281 H 504.167 -1.94319 -3.87843 0
M  V30 5282 H 504.838 -1.27707 -5.37024 0
M  V30 5283 H 507.314 0.218486 -4.15526 0
M  V30 5284 H 506.19 0.730782 -5.44014 0
M  V30 5285 H 506.451 1.77251 -4.05012 0
M  V30 5286 N 505.51 1.54411 -0.315457 0
M  V30 5287 C 506.457 2.24048 0.554166 0
M  V30 5288 C 507.427 1.2283 1.11812 0
M  V30 5289 O 508.612 1.51491 1.15997 0
M  V30 5290 C 505.752 2.99574 1.71316 0
M  V30 5291 C 504.865 4.15594 1.17922 0
M  V30 5292 C 504 4.78669 2.30324 0
M  V30 5293 C 503.039 5.86807 1.74137 0
M  V30 5294 N 502.176 6.43777 2.8017 0
M  V30 5295 H 507.016 2.97964 -0.0462602 0
M  V30 5296 H 504.553 1.47059 -0.0346009 0
M  V30 5297 H 506.511 3.41604 2.39505 0
M  V30 5298 H 505.141 2.28008 2.285 0
M  V30 5299 H 504.193 3.78404 0.389136 0
M  V30 5300 H 505.505 4.93459 0.728012 0
M  V30 5301 H 504.659 5.23626 3.06433 0
M  V30 5302 H 503.398 4.00168 2.78778 0
M  V30 5303 H 502.403 5.41261 0.965236 0
M  V30 5304 H 503.628 6.67201 1.2657 0
M  V30 5305 H 501.574 5.68153 3.2793 0
M  V30 5306 H 501.491 7.17031 2.39588 0
M  V30 5307 H 502.759 6.9339 3.56132 0
M  V30 5308 N 506.988 0.0434614 1.5754 0
M  V30 5309 C 507.921 -0.968729 2.06618 0
M  V30 5310 C 508.899 -1.30868 0.965 0
M  V30 5311 O 510.083 -1.42288 1.23638 0
M  V30 5312 C 507.21 -2.28486 2.50023 0
M  V30 5313 C 506.256 -2.09851 3.71302 0
M  V30 5314 S 507.089 -1.38401 5.17306 0
M  V30 5315 C 508.245 -2.71354 5.64019 0
M  V30 5316 H 508.478 -0.551021 2.92149 0
M  V30 5317 H 506.011 -0.168607 1.53477 0
M  V30 5318 H 507.969 -3.04142 2.75695 0
M  V30 5319 H 506.63 -2.67387 1.64812 0
M  V30 5320 H 505.823 -3.07184 3.99567 0
M  V30 5321 H 505.425 -1.42336 3.45856 0
M  V30 5322 H 507.717 -3.67549 5.69134 0
M  V30 5323 H 508.66 -2.47734 6.6335 0
M  V30 5324 H 509.068 -2.77259 4.91719 0
M  V30 5325 N 508.466 -1.55915 -0.229846 0
M  V30 5326 C 509.416 -1.8813 -1.28807 0
M  V30 5327 C 510.4 -0.743621 -1.42685 0
M  V30 5328 O 511.592 -1.00588 -1.4564 0
M  V30 5329 C 508.721 -2.19431 -2.64017 0
M  V30 5330 C 507.807 -3.39569 -2.54074 0
M  V30 5331 N 508.198 -4.58404 -2.13774 0
M  V30 5332 C 506.496 -3.43019 -2.85051 0
M  V30 5333 C 507.197 -5.40557 -2.1488 0
M  V30 5334 N 506.173 -4.80054 -2.55047 0
M  V30 5335 H 509.975 -2.77527 -0.967261 0
M  V30 5336 H 507.489 -1.5637 -0.438433 0
M  V30 5337 H 509.486 -2.40681 -3.40409 0
M  V30 5338 H 508.146 -1.31341 -2.9695 0
M  V30 5339 H 509.157 -4.83716 -1.8504 0
M  V30 5340 H 505.834 -2.65249 -3.22411 0
M  V30 5341 H 507.224 -6.45666 -1.85918 0
M  V30 5342 N 509.944 0.496216 -1.49584 0
M  V30 5343 C 511.193 1.24668 -1.58558 0
M  V30 5344 C 511.506 1.9359 -0.279703 0
M  V30 5345 O 512.712 2.70365 -0.248048 0
M  V30 5346 C 511.168 2.26388 -2.79779 0
M  V30 5347 C 510.776 1.63384 -4.17145 0
M  V30 5348 C 512.52 3.02233 -2.98086 0
M  V30 5349 C 510.427 2.63243 -5.29582 0
M  V30 5350 H 509.357 0.468995 -0.590389 0
M  V30 5351 H 512.008 0.519985 -1.75978 0
M  V30 5352 H 510.39 3.02241 -2.55863 0
M  V30 5353 H 511.564 0.93491 -4.51216 0
M  V30 5354 H 509.879 0.999121 -4.04236 0
M  V30 5355 H 512.476 3.76919 -3.79257 0
M  V30 5356 H 512.819 3.60132 -2.08831 0
M  V30 5357 H 513.352 2.33495 -3.22063 0
M  V30 5358 H 510.091 2.10119 -6.20911 0
M  V30 5359 H 509.611 3.31363 -4.99959 0
M  V30 5360 H 511.29 3.25575 -5.59115 0
M  V30 5361 N 511.423 1.38739 0.74761 0
M  V30 5362 C 512.373 1.32948 1.85226 0
M  V30 5363 C 513.357 0.212642 1.59489 0
M  V30 5364 O 514.549 0.449121 1.71207 0
M  V30 5365 C 511.678 1.16279 3.23008 0
M  V30 5366 C 510.764 2.32611 3.54617 0
M  V30 5367 N 511.155 3.58065 3.57244 0
M  V30 5368 C 509.453 2.25293 3.84914 0
M  V30 5369 C 510.154 4.34919 3.8629 0
M  V30 5370 N 509.13 3.64348 4.03425 0
M  V30 5371 H 512.932 2.27927 1.85544 0
M  V30 5372 H 510.446 1.32056 0.945253 0
M  V30 5373 H 512.443 1.10214 4.02068 0
M  V30 5374 H 511.103 0.222394 3.23937 0
M  V30 5375 H 512.114 3.91656 3.3886 0
M  V30 5376 H 508.791 1.39446 3.93524 0
M  V30 5377 H 510.181 5.43605 3.94896 0
M  V30 5378 N 512.901 -0.976442 1.23707 0
M  V30 5379 C 514.126 -1.75875 1.09922 0
M  V30 5380 C 514.551 -1.84911 -0.34489 0
M  V30 5381 O 513.909 -1.31363 -1.24954 0
M  V30 5382 C 513.957 -3.16179 1.73388 0
M  V30 5383 O 513.061 -4.00124 0.99871 0
M  V30 5384 H 512.402 -0.540954 0.385052 0
M  V30 5385 H 514.932 -1.22546 1.6384 0
M  V30 5386 H 514.942 -3.66741 1.78788 0
M  V30 5387 H 513.617 -3.08917 2.78466 0
M  V30 5388 H 512.194 -3.58624 1.02193 0
M  V30 5389 N 514.379 -1.04941 -1.1758 0
M  V30 5390 C 515.607 -0.778294 -1.91703 0
M  V30 5391 C 516.022 0.665697 -1.76675 0
M  V30 5392 O 515.379 1.45456 -1.10222 0
M  V30 5393 C 515.43 -1.14628 -3.42845 0
M  V30 5394 O 515.151 -2.53359 -3.57409 0
M  V30 5395 C 516.652 -0.900931 -4.34049 0
M  V30 5396 H 513.872 -0.283167 -0.608323 0
M  V30 5397 H 516.416 -1.39942 -1.49119 0
M  V30 5398 H 514.571 -0.569953 -3.83184 0
M  V30 5399 H 514.985 -2.67709 -4.51035 0
M  V30 5400 H 516.459 -1.20817 -5.38616 0
M  V30 5401 H 516.936 0.163966 -4.38894 0
M  V30 5402 H 517.542 -1.46097 -3.99419 0
M  V30 5403 N 515.857 1.33968 -0.830081 0
M  V30 5404 C 516.805 2.31301 -0.245435 0
M  V30 5405 C 517.799 1.57734 0.617762 0
M  V30 5406 O 519.005 1.72674 0.508303 0
M  V30 5407 H 515.38 0.749552 -0.0606316 0
M  V30 5408 H 517.351 2.78129 -1.08105 0
M  V30 5409 C 516.1 3.42961 0.572084 0
M  V30 5410 H 515.423 3.99714 -0.0828118 0
M  V30 5411 H 516.863 4.13286 0.94715 0
M  V30 5412 C 515.322 2.88043 1.74737 0
M  V30 5413 O 515.852 2.83508 2.8458 0
M  V30 5414 N 514.058 2.44768 1.56642 0
M  V30 5415 H 513.605 2.48656 0.672901 0
M  V30 5416 H 513.563 2.08375 2.3543 0
M  V30 5417 N 517.335 0.585699 1.46312 0
M  V30 5418 C 518.245 -0.148236 2.34131 0
M  V30 5419 C 519.261 -0.882972 1.49932 0
M  V30 5420 O 520.437 -0.845484 1.82794 0
M  V30 5421 C 517.502 -1.14714 3.27172 0
M  V30 5422 C 516.563 -0.416746 4.27272 0
M  V30 5423 C 515.796 -1.36806 5.15868 0
M  V30 5424 O 516.019 -2.60475 5.07454 0
M  V30 5425 O 514.953 -0.877018 5.95476 0
M  V30 5426 H 518.779 0.572882 2.98248 0
M  V30 5427 H 516.364 0.346082 1.45336 0
M  V30 5428 H 518.246 -1.72303 3.84564 0
M  V30 5429 H 516.921 -1.84967 2.65648 0
M  V30 5430 H 515.828 0.201061 3.73559 0
M  V30 5431 H 517.161 0.244872 4.9159 0
M  V30 5432 N 518.813 -1.54241 0.323641 0
M  V30 5433 C 520.059 -2.00867 -0.279323 0
M  V30 5434 C 520.392 -1.21146 -1.5178 0
M  V30 5435 O 519.667 -0.29378 -1.92269 0
M  V30 5436 C 519.95 -3.54837 -0.613387 0
M  V30 5437 C 519.803 -4.45284 0.635803 0
M  V30 5438 C 521.122 -4.16186 -1.43099 0
M  V30 5439 H 518.241 -0.730177 -0.100049 0
M  V30 5440 H 520.883 -1.84829 0.440235 0
M  V30 5441 H 519.033 -3.68634 -1.22641 0
M  V30 5442 H 520.705 -4.43357 1.27406 0
M  V30 5443 H 518.948 -4.14956 1.26466 0
M  V30 5444 H 519.619 -5.5084 0.357597 0
M  V30 5445 H 522.095 -4.05964 -0.912814 0
M  V30 5446 H 520.971 -5.24031 -1.6335 0
M  V30 5447 H 521.232 -3.69516 -2.42715 0
M  V30 5448 N 520.291 -0.0518155 -1.57515 0
M  V30 5449 C 521.519 0.631395 -1.9703 0
M  V30 5450 C 521.934 1.64341 -0.92938 0
M  V30 5451 O 521.291 1.82296 0.0863266 0
M  V30 5452 C 521.342 1.31774 -3.36627 0
M  V30 5453 O 521.063 0.346247 -4.3673 0
M  V30 5454 C 522.564 2.09065 -3.90905 0
M  V30 5455 H 519.784 0.172576 -0.648428 0
M  V30 5456 H 522.328 -0.118306 -2.04158 0
M  V30 5457 H 520.483 2.01867 -3.30649 0
M  V30 5458 H 520.897 0.836226 -5.17791 0
M  V30 5459 H 522.371 2.52508 -4.9086 0
M  V30 5460 H 522.848 2.93908 -3.26366 0
M  V30 5461 H 523.454 1.43882 -4.00223 0
M  V30 5462 N 521.769 1.56035 0.221574 0
M  V30 5463 C 523.185 1.49026 0.571271 0
M  V30 5464 C 523.385 0.746912 1.87146 0
M  V30 5465 O 522.441 0.286566 2.50869 0
M  V30 5466 C 523.754 2.93579 0.650522 0
M  V30 5467 C 525.302 3.04099 0.741151 0
M  V30 5468 C 525.777 4.5001 0.851747 0
M  V30 5469 N 527.268 4.54053 0.915968 0
M  V30 5470 C 528.003 5.64232 1.02125 0
M  V30 5471 N 527.499 6.84164 1.09049 0
M  V30 5472 N 529.292 5.52084 1.05639 0
M  V30 5473 H 521.443 2.02791 -0.63162 0
M  V30 5474 H 523.706 0.921736 -0.221602 0
M  V30 5475 H 523.412 3.50912 -0.235253 0
M  V30 5476 H 523.286 3.45476 1.51413 0
M  V30 5477 H 525.673 2.4683 1.61737 0
M  V30 5478 H 525.754 2.55371 -0.148128 0
M  V30 5479 H 525.398 5.07896 -0.0200117 0
M  V30 5480 H 525.328 4.96444 1.75644 0
M  V30 5481 H 527.819 3.67683 0.872782 0
M  V30 5482 H 528.132 7.63883 1.1706 0
M  V30 5483 H 526.477 6.86875 1.05962 0
M  V30 5484 H 529.668 4.57317 0.998953 0
M  V30 5485 H 529.841 6.37983 1.13498 0
M  V30 5486 N 523.247 -0.488276 1.49845 0
M  V30 5487 C 524.496 -1.23826 1.59217 0
M  V30 5488 C 524.809 -1.93439 0.289966 0
M  V30 5489 O 526.015 -2.70229 0.262382 0
M  V30 5490 C 524.471 -2.24902 2.80976 0
M  V30 5491 C 524.079 -1.6117 4.18005 0
M  V30 5492 C 525.823 -3.00648 2.99685 0
M  V30 5493 C 523.73 -2.60431 5.3097 0
M  V30 5494 H 522.66 -0.465858 0.592868 0
M  V30 5495 H 525.311 -0.510645 1.76252 0
M  V30 5496 H 523.693 -3.0088 2.57463 0
M  V30 5497 H 524.867 -0.910968 4.51706 0
M  V30 5498 H 523.182 -0.97767 4.0476 0
M  V30 5499 H 525.779 -3.74903 3.81251 0
M  V30 5500 H 526.122 -3.5902 2.10738 0
M  V30 5501 H 526.655 -2.31784 3.23297 0
M  V30 5502 H 523.394 -2.06823 6.22017 0
M  V30 5503 H 522.914 -3.28707 5.01709 0
M  V30 5504 H 524.593 -3.22606 5.60834 0
M  V30 5505 N 524.725 -1.39134 -0.740242 0
M  V30 5506 C 525.955 -1.39132 -1.52728 0
M  V30 5507 C 526.363 0.0173133 -1.89192 0
M  V30 5508 O 525.706 0.997715 -1.54244 0
M  V30 5509 C 525.768 -2.1952 -2.84695 0
M  V30 5510 C 525.432 -3.68203 -2.70695 0
M  V30 5511 C 526.429 -4.61401 -2.39593 0
M  V30 5512 C 524.114 -4.11724 -2.8773 0
M  V30 5513 C 526.108 -5.96102 -2.25701 0
M  V30 5514 C 523.795 -5.46503 -2.73456 0
M  V30 5515 C 524.793 -6.38506 -2.42486 0
M  V30 5516 O 524.481 -7.70803 -2.28295 0
M  V30 5517 H 524.213 -0.477263 -0.478744 0
M  V30 5518 H 526.767 -1.83504 -0.922799 0
M  V30 5519 H 524.997 -1.69888 -3.47383 0
M  V30 5520 H 526.686 -2.1176 -3.46284 0
M  V30 5521 H 527.452 -4.29079 -2.26088 0
M  V30 5522 H 523.331 -3.4045 -3.10829 0
M  V30 5523 H 526.875 -6.6788 -2.0145 0
M  V30 5524 H 522.772 -5.78417 -2.86538 0
M  V30 5525 H 523.54 -7.8147 -2.43405 0
M  V30 5526 N 526.204 0.969867 -1.24223 0
M  V30 5527 C 527.152 2.08535 -1.03034 0
M  V30 5528 C 528.146 1.69366 0.0340379 0
M  V30 5529 O 529.352 1.79597 -0.12034 0
M  V30 5530 H 525.727 0.682313 -0.316154 0
M  V30 5531 H 527.698 2.23569 -1.97635 0
M  V30 5532 C 526.447 3.4158 -0.649509 0
M  V30 5533 H 525.77 3.72177 -1.46028 0
M  V30 5534 H 527.21 4.20536 -0.540841 0
M  V30 5535 C 525.669 3.30703 0.643194 0
M  V30 5536 O 526.199 3.64443 1.68951 0
M  V30 5537 N 524.405 2.83841 0.623095 0
M  V30 5538 H 523.952 2.56583 -0.228719 0
M  V30 5539 H 523.91 2.76946 1.48823 0
M  V30 5540 N 527.682 1.05563 1.17022 0
M  V30 5541 C 528.928 0.769074 1.87652 0
M  V30 5542 C 529.261 -0.702326 1.81055 0
M  V30 5543 O 528.536 -1.5139 1.22112 0
M  V30 5544 C 528.819 1.25492 3.37526 0
M  V30 5545 C 528.672 2.78953 3.52853 0
M  V30 5546 C 529.991 0.856919 4.31677 0
M  V30 5547 H 527.11 0.280854 0.681388 0
M  V30 5548 H 529.752 1.31027 1.37593 0
M  V30 5549 H 527.902 0.794516 3.80289 0
M  V30 5550 H 529.574 3.33146 3.19079 0
M  V30 5551 H 527.817 3.18046 2.95007 0
M  V30 5552 H 528.488 3.08011 4.58076 0
M  V30 5553 H 530.964 1.25334 3.96775 0
M  V30 5554 H 529.84 1.22443 5.35069 0
M  V30 5555 H 530.101 -0.238787 4.41455 0
M  V30 5556 N 529.16 -1.33526 0.837174 0
M  V30 5557 C 530.409 -1.97098 0.428387 0
M  V30 5558 C 530.722 -1.67062 -1.01734 0
M  V30 5559 O 531.928 -2.24235 -1.53072 0
M  V30 5560 C 530.384 -3.52725 0.715075 0
M  V30 5561 C 529.992 -3.9164 2.17537 0
M  V30 5562 C 531.736 -4.22857 0.373154 0
M  V30 5563 C 529.643 -5.40237 2.40619 0
M  V30 5564 H 528.573 -0.737589 0.156455 0
M  V30 5565 H 531.224 -1.52169 1.02552 0
M  V30 5566 H 529.606 -3.95971 0.0475904 0
M  V30 5567 H 530.78 -3.59456 2.88319 0
M  V30 5568 H 529.095 -3.34485 2.4801 0
M  V30 5569 H 531.692 -5.32133 0.523264 0
M  V30 5570 H 532.035 -4.10647 -0.683708 0
M  V30 5571 H 532.568 -3.85135 0.995801 0
M  V30 5572 H 529.307 -5.57449 3.44864 0
M  V30 5573 H 528.827 -5.73887 1.74396 0
M  V30 5574 H 530.506 -6.07102 2.23688 0
M  V30 5575 N 530.638 -0.59345 -1.46 0
M  V30 5576 C 531.886 -0.082988 -2.0193 0
M  V30 5577 C 532.207 1.28569 -1.46612 0
M  V30 5578 O 531.477 1.84629 -0.654909 0
M  V30 5579 H 530.057 -0.0276882 -0.746487 0
M  V30 5580 H 532.719 -0.771657 -1.78973 0
M  V30 5581 H 531.815 -0.022079 -3.12092 0
M  V30 5582 N 532.116 1.54067 -0.331816 0
M  V30 5583 C 533.344 2.05131 0.269996 0
M  V30 5584 C 533.759 1.20749 1.45138 0
M  V30 5585 O 533.116 0.240069 1.80914 0
M  V30 5586 C 533.167 3.54728 0.696456 0
M  V30 5587 O 532.888 4.35906 -0.43794 0
M  V30 5588 C 534.389 4.21916 1.36021 0
M  V30 5589 H 531.609 0.668807 0.0542042 0
M  V30 5590 H 534.153 1.98777 -0.4804 0
M  V30 5591 H 532.308 3.61342 1.39681 0
M  V30 5592 H 532.722 5.24404 -0.100334 0
M  V30 5593 H 534.196 5.28015 1.60947 0
M  V30 5594 H 534.673 3.73538 2.31011 0
M  V30 5595 H 535.279 4.19463 0.702212 0
M  V30 5596 N 533.594 0.0601682 1.57485 0
M  V30 5597 C 534.524 -0.90889 2.15085 0
M  V30 5598 C 535.505 -1.31838 1.07484 0
M  V30 5599 O 536.69 -1.3915 1.35466 0
M  V30 5600 C 533.82 -2.18059 2.7031 0
M  V30 5601 C 532.774 -1.91088 3.82974 0
M  V30 5602 C 532.1 -3.24789 4.24754 0
M  V30 5603 C 533.4 -1.22535 5.07723 0
M  V30 5604 H 535.094 -0.429093 2.96309 0
M  V30 5605 H 532.64 -0.204952 1.42534 0
M  V30 5606 H 534.593 -2.86258 3.09248 0
M  V30 5607 H 533.317 -2.6826 1.8629 0
M  V30 5608 H 531.976 -1.25297 3.44523 0
M  V30 5609 H 531.624 -3.72809 3.37672 0
M  V30 5610 H 531.324 -3.07538 5.00694 0
M  V30 5611 H 532.848 -3.94205 4.66299 0
M  V30 5612 H 534.262 -1.80783 5.4405 0
M  V30 5613 H 532.659 -1.1558 5.88864 0
M  V30 5614 H 533.729 -0.202692 4.84476 0
M  V30 5615 N 535.072 -1.5615 -0.213296 0
M  V30 5616 C 536.488 -1.49327 -0.56336 0
M  V30 5617 C 536.688 -0.756826 -1.86747 0
M  V30 5618 O 535.744 -0.299866 -2.50713 0
M  V30 5619 C 537.057 -2.9392 -0.634944 0
M  V30 5620 C 538.605 -3.04487 -0.725013 0
M  V30 5621 C 539.08 -4.50456 -0.82787 0
M  V30 5622 N 540.571 -4.54533 -0.891876 0
M  V30 5623 C 541.306 -5.64766 -0.991315 0
M  V30 5624 N 540.802 -6.84733 -1.05419 0
M  V30 5625 N 542.595 -5.52637 -1.02709 0
M  V30 5626 H 534.746 -2.02453 0.642366 0
M  V30 5627 H 537.009 -0.920548 0.226487 0
M  V30 5628 H 536.715 -3.50783 0.253859 0
M  V30 5629 H 536.589 -3.46274 -1.49579 0
M  V30 5630 H 538.976 -2.47685 -1.60425 0
M  V30 5631 H 539.057 -2.55289 0.161669 0
M  V30 5632 H 538.701 -5.07878 0.0469464 0
M  V30 5633 H 538.631 -4.97369 -1.73009 0
M  V30 5634 H 541.122 -3.68141 -0.85327 0
M  V30 5635 H 541.435 -7.64493 -1.13007 0
M  V30 5636 H 539.78 -6.87427 -1.02318 0
M  V30 5637 H 542.971 -4.5784 -0.974687 0
M  V30 5638 H 543.144 -6.38576 -1.10113 0
M  V30 5639 N 536.55 0.480323 -1.50102 0
M  V30 5640 C 537.798 1.23063 -1.60312 0
M  V30 5641 C 538.119 1.92659 -0.301226 0
M  V30 5642 O 537.389 1.83691 0.680753 0
M  V30 5643 H 535.969 0.457231 -0.590719 0
M  V30 5644 H 538.631 0.554893 -1.86834 0
M  V30 5645 H 537.727 1.9835 -2.40964 0
M  V30 5646 N 538.028 1.39524 0.732853 0
M  V30 5647 C 538.991 1.38189 1.82857 0
M  V30 5648 C 539.991 0.278624 1.58368 0
M  V30 5649 O 541.181 0.536639 1.65728 0
M  V30 5650 C 538.313 1.15661 3.2068 0
M  V30 5651 H 539.506 2.35692 1.85444 0
M  V30 5652 H 537.059 1.2512 0.936728 0
M  V30 5653 H 537.794 0.188482 3.23752 0
M  V30 5654 H 537.579 1.95559 3.39852 0
M  V30 5655 H 539.069 1.17472 4.00737 0
M  V30 5656 N 539.506 -0.963266 1.24736 0
M  V30 5657 C 540.752 -1.70933 1.09131 0
M  V30 5658 C 541.085 -1.90676 -0.368273 0
M  V30 5659 O 540.36 -1.47147 -1.27193 0
M  V30 5660 C 540.643 -3.09744 1.83658 0
M  V30 5661 C 540.496 -2.97465 3.37394 0
M  V30 5662 C 541.815 -4.09483 1.61282 0
M  V30 5663 H 538.934 -0.620398 0.397838 0
M  V30 5664 H 541.576 -1.12028 1.53459 0
M  V30 5665 H 539.726 -3.60031 1.4598 0
M  V30 5666 H 541.398 -2.54571 3.84696 0
M  V30 5667 H 539.641 -2.33576 3.65547 0
M  V30 5668 H 540.312 -3.95822 3.84745 0
M  V30 5669 H 542.788 -3.68073 1.94066 0
M  V30 5670 H 541.664 -5.04666 2.15878 0
M  V30 5671 H 541.925 -4.38639 0.552102 0
M  V30 5672 N 540.985 -1.06182 -1.16461 0
M  V30 5673 C 541.895 -0.682671 -2.24448 0
M  V30 5674 C 542.911 0.30078 -1.71381 0
M  V30 5675 O 544.087 0.150376 -2.00838 0
M  V30 5676 C 541.152 -0.0737202 -3.46622 0
M  V30 5677 C 540.213 -1.10889 -4.14731 0
M  V30 5678 C 539.446 -0.528908 -5.31073 0
M  V30 5679 O 539.669 0.65868 -5.66584 0
M  V30 5680 O 538.603 -1.26805 -5.88391 0
M  V30 5681 H 542.429 -1.58291 -2.59187 0
M  V30 5682 H 540.014 -0.834013 -1.23954 0
M  V30 5683 H 541.896 0.264192 -4.20571 0
M  V30 5684 H 540.571 0.800015 -3.13658 0
M  V30 5685 H 539.478 -1.49896 -3.42756 0
M  V30 5686 H 540.811 -1.95412 -4.51747 0
M  V30 5687 N 542.463 1.3308 -0.844243 0
M  V30 5688 C 543.874 1.7992 -0.498566 0
M  V30 5689 C 544.225 1.69808 0.982834 0
M  V30 5690 O 543.35 1.25051 1.7661 0
M  V30 5691 C 543.945 3.26677 -0.898204 0
M  V30 5692 C 542.504 3.71513 -0.604583 0
M  V30 5693 C 541.651 2.54393 -1.10362 0
M  V30 5694 H 544.602 1.20526 -1.03244 0
M  V30 5695 H 544.623 3.79918 -0.21039 0
M  V30 5696 H 544.135 3.34004 -1.97643 0
M  V30 5697 H 542.236 3.69708 0.46335 0
M  V30 5698 H 542.349 4.64755 -1.16358 0
M  V30 5699 H 540.713 2.49246 -0.524273 0
M  V30 5700 H 541.496 2.6448 -2.18873 0
M  V30 5701 N 543.941 0.601185 1.45683 0
M  V30 5702 C 545.218 0.0261659 1.95582 0
M  V30 5703 C 545.598 -1.4399 1.5437 0
M  V30 5704 O 544.946 -2.13919 0.80318 0
M  V30 5705 C 545.156 0.217557 3.48321 0
M  V30 5706 C 546.504 0.0950076 4.24494 0
M  V30 5707 O 547.528 0.147345 3.55895 0
M  V30 5708 O 546.387 -0.025261 5.46494 0
M  V30 5709 H 543.481 -0.0393688 0.826062 0
M  V30 5710 H 546.027 0.670798 1.55879 0
M  V30 5711 H 544.799 1.23601 3.71266 0
M  V30 5712 H 544.422 -0.46264 3.94899 0
M  V30 5713 N 545.419 -1.53889 0.339982 0
M  V30 5714 C 546.835 -1.59595 -0.0120752 0
M  V30 5715 C 547.035 -1.35605 -1.49042 0
M  V30 5716 O 546.091 -1.14856 -2.24865 0
M  V30 5717 C 547.404 -2.9774 0.420898 0
M  V30 5718 C 548.952 -3.1077 0.37294 0
M  V30 5719 C 549.427 -4.51286 0.781327 0
M  V30 5720 N 550.918 -4.57325 0.735374 0
M  V30 5721 C 551.653 -5.64194 1.02336 0
M  V30 5722 N 551.149 -6.7893 1.37933 0
M  V30 5723 N 552.942 -5.54051 0.947838 0
M  V30 5724 H 545.093 -1.67738 1.30299 0
M  V30 5725 H 547.356 -0.785385 0.530918 0
M  V30 5726 H 547.062 -3.20349 1.45152 0
M  V30 5727 H 546.936 -3.76639 -0.205721 0
M  V30 5728 H 549.323 -2.87886 -0.648505 0
M  V30 5729 H 549.404 -2.33939 1.03472 0
M  V30 5730 H 549.048 -4.74905 1.80077 0
M  V30 5731 H 548.978 -5.26511 0.0970679 0
M  V30 5732 H 551.469 -3.74931 0.472773 0
M  V30 5733 H 551.782 -7.56392 1.58402 0
M  V30 5734 H 550.127 -6.80386 1.41774 0
M  V30 5735 H 553.318 -4.63293 0.669115 0
M  V30 5736 H 553.491 -6.37246 1.17563 0
M  V30 5737 N 546.897 -0.0685191 -1.57451 0
M  V30 5738 C 548.127 0.609577 -1.97402 0
M  V30 5739 C 548.535 1.63882 -0.945489 0
M  V30 5740 O 547.878 1.8354 0.0766052 0
M  V30 5741 C 547.94 1.3385 -3.33653 0
M  V30 5742 C 547.604 0.463103 -4.54648 0
M  V30 5743 C 548.601 -0.277964 -5.19156 0
M  V30 5744 C 546.286 0.388941 -5.00792 0
M  V30 5745 C 548.28 -1.08145 -6.28159 0
M  V30 5746 C 545.967 -0.418217 -6.09667 0
M  V30 5747 C 546.965 -1.15208 -6.73213 0
M  V30 5748 O 546.653 -1.94594 -7.79993 0
M  V30 5749 H 546.385 0.170197 -0.654224 0
M  V30 5750 H 548.939 -0.13647 -2.04946 0
M  V30 5751 H 547.169 2.13055 -3.22714 0
M  V30 5752 H 548.858 1.90851 -3.58233 0
M  V30 5753 H 549.624 -0.230241 -4.84453 0
M  V30 5754 H 545.503 0.949769 -4.5111 0
M  V30 5755 H 549.047 -1.65476 -6.7769 0
M  V30 5756 H 544.944 -0.467515 -6.43805 0
M  V30 5757 H 545.712 -1.8699 -7.96854 0
M  V30 5758 N 548.375 1.56261 0.205012 0
M  V30 5759 C 549.621 1.80306 0.9283 0
M  V30 5760 C 549.954 0.640932 1.83319 0
M  V30 5761 O 549.229 -0.359032 1.91158 0
M  V30 5762 C 549.512 3.14547 1.75306 0
M  V30 5763 C 549.365 4.41236 0.873562 0
M  V30 5764 C 550.684 3.45382 2.72762 0
M  V30 5765 H 547.803 0.655929 0.336044 0
M  V30 5766 H 550.445 1.88984 0.196211 0
M  V30 5767 H 548.595 3.0728 2.37721 0
M  V30 5768 H 550.267 4.60539 0.264887 0
M  V30 5769 H 548.51 4.33427 0.179773 0
M  V30 5770 H 549.181 5.31639 1.48541 0
M  V30 5771 H 551.657 3.52884 2.20481 0
M  V30 5772 H 550.533 4.40449 3.2756 0
M  V30 5773 H 550.794 2.68377 3.51321 0
M  V30 5774 N 549.853 -0.472356 1.50355 0
M  V30 5775 C 551.102 -1.2213 1.60522 0
M  V30 5776 C 551.415 -1.9312 0.310466 0
M  V30 5777 O 552.621 -2.69936 0.291029 0
M  V30 5778 C 551.077 -2.21909 2.83345 0
M  V30 5779 C 550.685 -1.56727 4.19691 0
M  V30 5780 C 552.429 -2.97453 3.02856 0
M  V30 5781 C 550.336 -2.54785 5.33703 0
M  V30 5782 H 549.266 -0.459543 0.597776 0
M  V30 5783 H 551.917 -0.491922 1.76783 0
M  V30 5784 H 550.299 -2.98133 2.60639 0
M  V30 5785 H 551.473 -0.863007 4.52646 0
M  V30 5786 H 549.788 -0.934685 4.05774 0
M  V30 5787 H 552.385 -3.70838 3.85205 0
M  V30 5788 H 552.728 -3.56764 2.14534 0
M  V30 5789 H 553.261 -2.28342 3.25737 0
M  V30 5790 H 550 -2.00214 6.24175 0
M  V30 5791 H 549.52 -3.23367 5.05167 0
M  V30 5792 H 551.199 -3.16639 5.64224 0
M  V30 5793 N 551.331 -1.39911 -0.725443 0
M  V30 5794 C 552.261 -1.42138 -1.85254 0
M  V30 5795 C 553.242 -0.283513 -1.67721 0
M  V30 5796 O 554.427 -0.490717 -1.87898 0
M  V30 5797 C 551.557 -1.27354 -3.23107 0
M  V30 5798 C 550.511 -2.3864 -3.55296 0
M  V30 5799 C 549.837 -2.08939 -4.92188 0
M  V30 5800 C 551.137 -3.8097 -3.57295 0
M  V30 5801 H 552.831 -2.36461 -1.83648 0
M  V30 5802 H 550.377 -1.13817 -0.882138 0
M  V30 5803 H 552.33 -1.2753 -4.01639 0
M  V30 5804 H 551.054 -0.295025 -3.25265 0
M  V30 5805 H 549.713 -2.37696 -2.79099 0
M  V30 5806 H 549.361 -1.09502 -4.90936 0
M  V30 5807 H 549.061 -2.83491 -5.14691 0
M  V30 5808 H 550.585 -2.10781 -5.73065 0
M  V30 5809 H 551.999 -3.8379 -4.25885 0
M  V30 5810 H 550.396 -4.5496 -3.9132 0
M  V30 5811 H 551.466 -4.11261 -2.5689 0
M  V30 5812 N 552.809 0.956637 -1.25245 0
M  V30 5813 C 554.057 1.69764 -1.09657 0
M  V30 5814 C 554.378 1.91583 0.363464 0
M  V30 5815 O 553.648 1.50149 1.25825 0
M  V30 5816 H 552.228 0.629097 -0.402798 0
M  V30 5817 H 554.89 1.15026 -1.57337 0
M  V30 5818 H 553.986 2.67769 -1.60331 0
M  V30 5819 N 554.287 1.06798 1.15896 0
M  V30 5820 C 555.535 0.786211 1.8618 0
M  V30 5821 C 555.856 -0.689547 1.82401 0
M  V30 5822 O 555.126 -1.49913 1.26107 0
M  V30 5823 H 553.706 0.287843 0.689315 0
M  V30 5824 H 556.368 1.35055 1.40521 0
M  V30 5825 H 555.464 1.1157 2.91477 0
M  V30 5826 N 555.766 -1.3263 0.851289 0
M  V30 5827 C 556.716 -2.26451 0.265302 0
M  V30 5828 C 557.7 -1.49814 -0.586899 0
M  V30 5829 O 558.892 -1.71525 -0.436834 0
M  V30 5830 C 556.021 -3.38895 -0.548212 0
M  V30 5831 C 555.107 -4.2292 0.316189 0
M  V30 5832 N 555.498 -4.86014 1.40084 0
M  V30 5833 C 553.796 -4.45876 0.105356 0
M  V30 5834 C 554.497 -5.48667 1.93235 0
M  V30 5835 N 553.473 -5.29455 1.232 0
M  V30 5836 H 557.275 -2.72757 1.09457 0
M  V30 5837 H 554.789 -1.4668 0.697047 0
M  V30 5838 H 556.786 -4.05111 -0.984402 0
M  V30 5839 H 555.446 -2.94135 -1.37531 0
M  V30 5840 H 556.457 -4.86212 1.78377 0
M  V30 5841 H 553.134 -4.11804 -0.687299 0
M  V30 5842 H 554.524 -6.08865 2.84135 0
M  V30 5843 N 557.244 -0.608902 -1.45362 0
M  V30 5844 C 558.66 -0.272659 -1.57254 0
M  V30 5845 C 558.86 1.22477 -1.60005 0
M  V30 5846 O 557.916 2.00785 -1.53106 0
M  V30 5847 C 559.229 -0.944991 -2.85465 0
M  V30 5848 C 560.777 -0.921033 -2.99142 0
M  V30 5849 C 561.252 -1.5734 -4.30126 0
M  V30 5850 N 562.743 -1.53895 -4.36887 0
M  V30 5851 C 563.478 -2.01286 -5.36909 0
M  V30 5852 N 562.974 -2.56768 -6.43461 0
M  V30 5853 N 564.767 -1.92046 -5.28275 0
M  V30 5854 H 556.918 -1.58117 -1.4182 0
M  V30 5855 H 559.181 -0.662437 -0.678146 0
M  V30 5856 H 558.887 -1.99941 -2.89338 0
M  V30 5857 H 558.761 -0.469079 -3.74272 0
M  V30 5858 H 561.148 0.124846 -2.94836 0
M  V30 5859 H 561.229 -1.43522 -2.11743 0
M  V30 5860 H 560.873 -2.61862 -4.35191 0
M  V30 5861 H 560.803 -1.03422 -5.16344 0
M  V30 5862 H 563.294 -1.13366 -3.60495 0
M  V30 5863 H 563.607 -2.9072 -7.16032 0
M  V30 5864 H 561.952 -2.60808 -6.44208 0
M  V30 5865 H 565.143 -1.48439 -4.43941 0
M  V30 5866 H 565.316 -2.29293 -6.06077 0
M  V30 5867 N 558.722 1.53707 -0.348139 0
M  V30 5868 C 559.999 1.93247 0.302475 0
M  V30 5869 C 560.379 1.28012 1.67857 0
M  V30 5870 O 559.727 0.43274 2.24365 0
M  V30 5871 C 559.937 3.47031 0.370159 0
M  V30 5872 C 561.285 4.20066 0.61882 0
M  V30 5873 O 562.309 3.53319 0.452087 0
M  V30 5874 O 561.168 5.38318 0.94215 0
M  V30 5875 H 558.262 0.807736 0.177458 0
M  V30 5876 H 560.808 1.64927 -0.399651 0
M  V30 5877 H 559.58 3.86745 -0.59534 0
M  V30 5878 H 559.203 3.81532 1.11888 0
M  V30 5879 N 560.2 0.0768682 1.57412 0
M  V30 5880 C 561.425 -0.603404 1.98428 0
M  V30 5881 C 561.85 -1.62047 0.955108 0
M  V30 5882 O 561.208 -1.81129 -0.0786778 0
M  V30 5883 C 561.256 -1.24396 3.38464 0
M  V30 5884 O 560.36 -2.35982 3.3821 0
M  V30 5885 H 559.701 -0.154741 0.645718 0
M  V30 5886 H 562.231 0.152885 2.04028 0
M  V30 5887 H 562.241 -1.5896 3.7576 0
M  V30 5888 H 560.916 -0.498735 4.12899 0
M  V30 5889 H 559.493 -2.03173 3.1269 0
M  V30 5890 N 561.678 -1.56367 -0.196722 0
M  V30 5891 C 562.924 -1.81698 -0.914182 0
M  V30 5892 C 563.279 -0.65367 -1.80956 0
M  V30 5893 O 562.572 0.351224 -1.88353 0
M  V30 5894 C 562.766 -3.10663 -1.767 0
M  V30 5895 C 562.595 -4.39428 -0.955689 0
M  V30 5896 C 561.365 -5.01221 -0.64076 0
M  V30 5897 C 563.563 -5.1337 -0.309165 0
M  V30 5898 N 561.545 -6.13608 0.189358 0
M  V30 5899 C 562.916 -6.18815 0.383225 0
M  V30 5900 C 564.971 -4.97393 -0.224726 0
M  V30 5901 C 563.674 -7.10015 1.15201 0
M  V30 5902 C 565.7 -5.89014 0.530658 0
M  V30 5903 C 565.062 -6.93903 1.2115 0
M  V30 5904 H 561.161 -0.716203 -0.31397 0
M  V30 5905 H 563.745 -1.93838 -0.18304 0
M  V30 5906 H 561.916 -2.99762 -2.46976 0
M  V30 5907 H 563.648 -3.24088 -2.42382 0
M  V30 5908 H 560.403 -4.63669 -0.96479 0
M  V30 5909 H 560.827 -6.74389 0.593979 0
M  V30 5910 H 565.469 -4.16331 -0.736754 0
M  V30 5911 H 563.187 -7.9054 1.67547 0
M  V30 5912 H 566.773 -5.78726 0.597326 0
M  V30 5913 H 565.653 -7.63576 1.78665 0
M  V30 5914 N 563.156 0.464375 -1.50603 0
M  V30 5915 C 564.402 1.21776 -1.62168 0
M  V30 5916 C 564.735 1.91476 -0.324154 0
M  V30 5917 O 564.01 1.8242 0.674782 0
M  V30 5918 C 564.293 2.25614 -2.80661 0
M  V30 5919 C 564.146 1.60175 -4.20314 0
M  V30 5920 C 565.465 3.26862 -2.94702 0
M  V30 5921 H 562.584 0.44137 -0.590222 0
M  V30 5922 H 565.226 0.510623 -1.8301 0
M  V30 5923 H 563.376 2.85923 -2.63021 0
M  V30 5924 H 565.048 1.03411 -4.4956 0
M  V30 5925 H 563.291 0.904697 -4.24261 0
M  V30 5926 H 563.962 2.35665 -4.99165 0
M  V30 5927 H 566.438 2.76582 -3.10872 0
M  V30 5928 H 565.314 3.96839 -3.79223 0
M  V30 5929 H 565.575 3.91382 -2.05603 0
M  V30 5930 N 564.634 1.40294 0.718013 0
M  V30 5931 C 565.881 1.3844 1.47786 0
M  V30 5932 C 566.209 -0.0140838 1.94495 0
M  V30 5933 O 565.464 -0.998165 1.68331 0
M  V30 5934 C 565.763 2.31814 2.72024 0
M  V30 5935 C 565.429 3.79117 2.44093 0
M  V30 5936 C 564.091 4.19249 2.36185 0
M  V30 5937 C 566.443 4.72212 2.20602 0
M  V30 5938 C 563.771 5.50516 2.02851 0
M  V30 5939 C 566.123 6.03775 1.88781 0
M  V30 5940 C 564.787 6.42953 1.79354 0
M  V30 5941 H 564.057 0.506588 0.540786 0
M  V30 5942 H 566.704 1.72929 0.822663 0
M  V30 5943 H 565.009 1.90501 3.42369 0
M  V30 5944 H 566.706 2.27664 3.30106 0
M  V30 5945 H 563.296 3.47318 2.51133 0
M  V30 5946 H 567.48 4.42026 2.25669 0
M  V30 5947 H 562.736 5.79776 1.94088 0
M  V30 5948 H 566.91 6.75428 1.69617 0
M  V30 5949 H 564.537 7.44584 1.53291 0
M  V30 5950 N 566.112 -0.949982 1.2575 0
M  V30 5951 C 567.36 -1.6918 1.10555 0
M  V30 5952 C 567.681 -1.91773 -0.353298 0
M  V30 5953 O 566.951 -1.50814 -1.25027 0
M  V30 5954 H 565.531 -0.626952 0.406129 0
M  V30 5955 H 568.193 -1.1419 1.57945 0
M  V30 5956 H 567.289 -2.66915 1.61749 0
M  V30 5957 N 567.59 -1.07411 -1.15328 0
M  V30 5958 C 568.838 -0.796073 -1.85761 0
M  V30 5959 C 569.159 0.679864 -1.82764 0
M  V30 5960 O 568.429 1.49242 -1.269 0
M  V30 5961 H 567.009 -0.291495 -0.687779 0
M  V30 5962 H 569.671 -1.35799 -1.39802 0
M  V30 5963 H 568.767 -1.13114 -2.90881 0
M  V30 5964 N 569.068 1.32177 -0.85831 0
M  V30 5965 C 570.317 1.96392 -0.459689 0
M  V30 5966 C 570.63 1.68659 0.990632 0
M  V30 5967 O 571.836 2.26641 1.49485 0
M  V30 5968 C 570.292 3.51542 -0.7711 0
M  V30 5969 C 569.9 3.8813 -2.2374 0
M  V30 5970 C 571.644 4.2221 -0.44038 0
M  V30 5971 C 569.551 5.36341 -2.49183 0
M  V30 5972 H 568.481 0.735007 -0.168169 0
M  V30 5973 H 571.132 1.50518 -1.0496 0
M  V30 5974 H 569.514 3.95846 -0.11058 0
M  V30 5975 H 570.688 3.54824 -2.94001 0
M  V30 5976 H 569.003 3.30497 -2.533 0
M  V30 5977 H 571.6 5.31234 -0.607855 0
M  V30 5978 H 571.943 4.11683 0.618291 0
M  V30 5979 H 572.476 3.83502 -1.05695 0
M  V30 5980 H 569.215 5.51892 -3.53689 0
M  V30 5981 H 568.735 5.7104 -1.83504 0
M  V30 5982 H 570.414 6.03466 -2.33318 0
M  V30 5983 N 570.547 0.616602 1.45037 0
M  V30 5984 C 571.824 0.0469086 1.95544 0
M  V30 5985 C 572.204 -1.42345 1.55888 0
M  V30 5986 O 571.552 -2.13055 0.825824 0
M  V30 5987 C 571.762 0.254489 3.48071 0
M  V30 5988 C 573.11 0.140025 4.24369 0
M  V30 5989 O 574.134 0.185084 3.55719 0
M  V30 5990 O 572.993 0.0327034 5.4649 0
M  V30 5991 H 570.087 -0.0306051 0.826433 0
M  V30 5992 H 572.633 0.687293 1.55159 0
M  V30 5993 H 571.405 1.27532 3.69934 0
M  V30 5994 H 571.028 -0.42073 3.95368 0
M  V30 5995 N 572.025 -1.5352 0.356285 0
M  V30 5996 C 573.436 -1.86282 -0.12492 0
M  V30 5997 C 573.787 -1.27717 -1.48939 0
M  V30 5998 O 572.912 -0.595614 -2.08042 0
M  V30 5999 C 573.507 -3.37995 -0.23345 0
M  V30 6000 C 572.066 -3.70588 -0.658899 0
M  V30 6001 C 571.213 -2.76581 0.199596 0
M  V30 6002 H 574.164 -1.47901 0.575423 0
M  V30 6003 H 574.185 -3.65475 -1.0587 0
M  V30 6004 H 573.697 -3.8059 0.759776 0
M  V30 6005 H 571.798 -3.33544 -1.66069 0
M  V30 6006 H 571.911 -4.77076 -0.439957 0
M  V30 6007 H 570.275 -2.52552 -0.330076 0
M  V30 6008 H 571.058 -3.22008 1.19019 0
M  V30 6009 N 573.503 -0.0852151 -1.57369 0
M  V30 6010 C 574.435 0.907099 -2.10486 0
M  V30 6011 C 575.448 1.25259 -1.03991 0
M  V30 6012 O 576.637 1.20743 -1.31467 0
M  V30 6013 C 573.737 2.21908 -2.56145 0
M  V30 6014 C 572.91 2.05042 -3.86363 0
M  V30 6015 C 571.969 3.19664 -4.17973 0
M  V30 6016 O 570.995 2.94062 -4.87356 0
M  V30 6017 N 572.197 4.45151 -3.72587 0
M  V30 6018 H 574.962 0.453505 -2.96249 0
M  V30 6019 H 572.523 0.100157 -1.6159 0
M  V30 6020 H 574.515 2.97519 -2.74343 0
M  V30 6021 H 573.085 2.58723 -1.75446 0
M  V30 6022 H 572.305 1.13819 -3.77411 0
M  V30 6023 H 573.593 1.91039 -4.71574 0
M  V30 6024 H 572.991 4.68834 -3.16561 0
M  V30 6025 H 571.548 5.17744 -3.9596 0
M  V30 6026 N 574.981 1.5647 0.188427 0
M  V30 6027 C 576.206 1.85486 0.927891 0
M  V30 6028 C 576.631 0.669575 1.75779 0
M  V30 6029 O 575.989 -0.381573 1.77239 0
M  V30 6030 C 576.037 3.12784 1.7944 0
M  V30 6031 O 575.141 2.93805 2.894 0
M  V30 6032 H 574.482 0.610585 0.260925 0
M  V30 6033 H 577.012 2.037 0.191729 0
M  V30 6034 H 577.022 3.43749 2.19774 0
M  V30 6035 H 575.697 3.98671 1.18468 0
M  V30 6036 H 574.274 2.74153 2.52774 0
M  V30 6037 N 576.459 -0.456382 1.50847 0
M  V30 6038 C 577.707 -1.20497 1.62249 0
M  V30 6039 C 578.028 -1.92156 0.331839 0
M  V30 6040 O 577.298 -1.84751 -0.651443 0
M  V30 6041 H 575.878 -0.447775 0.597918 0
M  V30 6042 H 578.54 -0.525099 1.87693 0
M  V30 6043 H 577.636 -1.94492 2.44089 0
M  V30 6044 N 577.937 -1.40673 -0.710563 0
M  V30 6045 C 578.9 -1.4108 -1.80635 0
M  V30 6046 C 579.9 -0.303783 -1.57904 0
M  V30 6047 O 581.09 -0.562937 -1.64853 0
M  V30 6048 C 578.222 -1.20748 -3.18799 0
M  V30 6049 H 579.415 -2.38612 -1.81671 0
M  V30 6050 H 576.968 -1.26595 -0.916704 0
M  V30 6051 H 577.703 -0.239964 -3.23411 0
M  V30 6052 H 577.488 -2.00941 -3.36698 0
M  V30 6053 H 578.978 -1.23833 -3.98817 0
M  V30 6054 N 579.415 0.9433 -1.26252 0
M  V30 6055 C 580.378 2.02326 -1.07689 0
M  V30 6056 C 581.378 1.60779 -0.0259174 0
M  V30 6057 O 582.568 1.72108 -0.269134 0
M  V30 6058 C 579.7 3.34886 -0.63752 0
M  V30 6059 H 580.893 2.20225 -2.0357 0
M  V30 6060 H 578.446 1.12197 -1.08819 0
M  V30 6061 H 579.181 3.22684 0.323377 0
M  V30 6062 H 578.966 3.66393 -1.39637 0
M  V30 6063 H 580.456 4.14231 -0.529418 0
M  V30 6064 N 580.893 1.08022 1.14757 0
M  V30 6065 C 582.139 0.808705 1.85978 0
M  V30 6066 C 582.472 -0.663764 1.82504 0
M  V30 6067 O 581.747 -1.48765 1.25296 0
M  V30 6068 C 582.03 1.32623 3.34788 0
M  V30 6069 C 581.883 2.86375 3.46856 0
M  V30 6070 C 583.202 0.948291 4.29762 0
M  V30 6071 H 580.321 0.295244 0.675278 0
M  V30 6072 H 582.963 1.33917 1.34783 0
M  V30 6073 H 581.113 0.875002 3.78518 0
M  V30 6074 H 582.785 3.39839 3.11941 0
M  V30 6075 H 581.028 3.24232 2.88194 0
M  V30 6076 H 581.699 3.17658 4.51439 0
M  V30 6077 H 584.175 1.33722 3.94028 0
M  V30 6078 H 583.051 1.33765 5.32352 0
M  V30 6079 H 583.312 -0.145094 4.41862 0
M  V30 6080 N 582.371 -1.3172 0.865308 0
M  V30 6081 C 583.617 -1.97168 0.474633 0
M  V30 6082 C 583.95 -1.68263 -0.969604 0
M  V30 6083 O 583.225 -0.976588 -1.68205 0
M  V30 6084 C 583.508 -3.52689 0.726808 0
M  V30 6085 C 583.361 -3.91185 2.22024 0
M  V30 6086 C 584.68 -4.39689 0.190201 0
M  V30 6087 H 581.799 -0.716185 0.17392 0
M  V30 6088 H 584.441 -1.55925 1.08569 0
M  V30 6089 H 582.591 -3.8795 0.206705 0
M  V30 6090 H 584.263 -3.66049 2.80724 0
M  V30 6091 H 582.506 -3.3996 2.69462 0
M  V30 6092 H 583.177 -4.99604 2.34735 0
M  V30 6093 H 585.653 -4.11225 0.635103 0
M  V30 6094 H 584.529 -5.47469 0.396132 0
M  V30 6095 H 584.79 -4.32683 -0.907625 0
M  V30 6096 N 583.85 -0.624285 -1.44708 0
M  V30 6097 C 584.8 0.106466 -2.27751 0
M  V30 6098 C 585.784 0.822703 -1.38277 0
M  V30 6099 O 586.976 0.709939 -1.62138 0
M  V30 6100 C 584.105 1.092 -3.25469 0
M  V30 6101 C 583.191 0.375737 -4.22432 0
M  V30 6102 N 583.582 -0.591881 -5.02325 0
M  V30 6103 C 581.88 0.621093 -4.41654 0
M  V30 6104 C 582.581 -1.01443 -5.72786 0
M  V30 6105 N 581.557 -0.354651 -5.42442 0
M  V30 6106 H 585.359 -0.636464 -2.86926 0
M  V30 6107 H 582.873 -0.44925 -1.56062 0
M  V30 6108 H 584.87 1.63006 -3.83712 0
M  V30 6109 H 583.529 1.8353 -2.67856 0
M  V30 6110 H 584.541 -0.969389 -5.08747 0
M  V30 6111 H 581.218 1.34779 -3.95147 0
M  V30 6112 H 582.608 -1.81345 -6.46965 0
M  V30 6113 N 585.328 1.53329 -0.364422 0
M  V30 6114 C 586.238 2.29414 0.490552 0
M  V30 6115 C 587.254 1.35335 1.09363 0
M  V30 6116 O 588.43 1.68391 1.10483 0
M  V30 6117 C 585.495 3.06772 1.61529 0
M  V30 6118 C 584.556 4.16516 1.03986 0
M  V30 6119 C 583.789 4.90176 2.111 0
M  V30 6120 O 584.012 4.63687 3.32191 0
M  V30 6121 O 582.946 5.76134 1.74222 0
M  V30 6122 H 586.772 3.03428 -0.12856 0
M  V30 6123 H 584.357 1.48843 -0.128837 0
M  V30 6124 H 586.239 3.55082 2.26924 0
M  V30 6125 H 584.914 2.35596 2.21983 0
M  V30 6126 H 583.821 3.7246 0.349856 0
M  V30 6127 H 585.154 4.89855 0.4799 0
M  V30 6128 N 586.806 0.0935595 1.57322 0
M  V30 6129 C 588.055 -0.570191 1.93473 0
M  V30 6130 C 588.368 -1.69434 0.977318 0
M  V30 6131 O 589.574 -2.41914 1.23248 0
M  V30 6132 C 588.03 -1.06564 3.43762 0
M  V30 6133 C 587.638 0.0286723 4.47991 0
M  V30 6134 C 589.382 -1.70221 3.88877 0
M  V30 6135 C 587.289 -0.482046 5.89432 0
M  V30 6136 H 586.219 -0.216764 0.72217 0
M  V30 6137 H 588.87 0.169313 1.82717 0
M  V30 6138 H 587.252 -1.85878 3.49664 0
M  V30 6139 H 588.426 0.804106 4.5373 0
M  V30 6140 H 586.741 0.570336 4.12476 0
M  V30 6141 H 589.338 -2.09502 4.91948 0
M  V30 6142 H 589.681 -2.57078 3.27439 0
M  V30 6143 H 590.214 -0.974919 3.85668 0
M  V30 6144 H 586.953 0.349871 6.54566 0
M  V30 6145 H 586.473 -1.22452 5.87167 0
M  V30 6146 H 588.152 -0.951508 6.39965 0
M  V30 6147 N 588.284 -1.56567 -0.180126 0
M  V30 6148 C 589.53 -1.81761 -0.899497 0
M  V30 6149 C 589.863 -0.670015 -1.82276 0
M  V30 6150 O 589.138 0.328575 -1.91705 0
M  V30 6151 C 589.421 -3.17296 -1.7028 0
M  V30 6152 C 589.274 -4.4257 -0.803255 0
M  V30 6153 C 590.593 -3.49678 -2.67233 0
M  V30 6154 H 587.712 -0.661192 -0.325567 0
M  V30 6155 H 590.354 -1.89272 -0.16612 0
M  V30 6156 H 588.504 -3.11023 -2.32802 0
M  V30 6157 H 590.176 -4.60902 -0.191585 0
M  V30 6158 H 588.419 -4.33658 -0.110796 0
M  V30 6159 H 589.09 -5.33935 -1.40064 0
M  V30 6160 H 591.566 -3.56347 -2.14839 0
M  V30 6161 H 590.442 -4.45605 -3.20511 0
M  V30 6162 H 590.703 -2.73932 -3.47007 0
M  V30 6163 N 589.762 0.448376 -1.51087 0
M  V30 6164 C 591.178 0.783984 -1.39017 0
M  V30 6165 C 591.378 1.96087 -0.463904 0
M  V30 6166 O 590.434 2.52357 0.0850534 0
M  V30 6167 C 591.747 1.07471 -2.80839 0
M  V30 6168 C 593.295 1.17981 -2.89913 0
M  V30 6169 C 593.77 1.50354 -4.32617 0
M  V30 6170 N 595.261 1.57301 -4.35673 0
M  V30 6171 C 595.996 1.839 -5.4311 0
M  V30 6172 N 595.492 2.08365 -6.60724 0
M  V30 6173 N 597.285 1.8559 -5.30578 0
M  V30 6174 H 589.436 -0.326881 -2.0987 0
M  V30 6175 H 591.699 -0.0838006 -0.944289 0
M  V30 6176 H 591.405 0.282768 -3.50561 0
M  V30 6177 H 591.279 2.00519 -3.19487 0
M  V30 6178 H 593.666 1.9624 -2.20395 0
M  V30 6179 H 593.747 0.228603 -2.54776 0
M  V30 6180 H 593.391 0.726273 -5.0268 0
M  V30 6181 H 593.321 2.46663 -4.65258 0
M  V30 6182 H 595.812 1.40342 -3.50874 0
M  V30 6183 H 596.125 2.27999 -7.38401 0
M  V30 6184 H 594.47 2.0571 -6.63859 0
M  V30 6185 H 597.661 1.65989 -4.37682 0
M  V30 6186 H 597.834 2.05983 -6.1439 0
M  V30 6187 N 591.24 1.41047 0.703093 0
M  V30 6188 C 592.465 1.43537 1.49706 0
M  V30 6189 C 592.89 0.0401853 1.88057 0
M  V30 6190 O 592.248 -0.954785 1.54122 0
M  V30 6191 C 592.296 2.3433 2.74084 0
M  V30 6192 O 591.4 1.79515 3.71279 0
M  V30 6193 H 590.741 0.487454 0.450871 0
M  V30 6194 H 593.271 1.85422 0.86486 0
M  V30 6195 H 593.281 2.49947 3.22476 0
M  V30 6196 H 591.956 3.35708 2.45506 0
M  V30 6197 H 590.533 1.7331 3.30179 0
M  V30 6198 N 592.718 -0.936591 1.26751 0
M  V30 6199 C 593.965 -1.68331 1.12566 0
M  V30 6200 C 594.293 -1.91677 -0.330168 0
M  V30 6201 O 593.548 -1.49859 -1.2586 0
M  V30 6202 C 593.847 -3.06099 1.84494 0
M  V30 6203 C 593.513 -3.02493 3.34378 0
M  V30 6204 C 592.175 -3.01217 3.75262 0
M  V30 6205 C 594.527 -2.94453 4.30055 0
M  V30 6206 C 591.855 -2.89672 5.10203 0
M  V30 6207 C 594.207 -2.84449 5.65041 0
M  V30 6208 C 592.871 -2.81518 6.0523 0
M  V30 6209 H 592.141 -0.615965 0.411907 0
M  V30 6210 H 594.788 -1.09292 1.5725 0
M  V30 6211 H 593.093 -3.6879 1.32292 0
M  V30 6212 H 594.79 -3.62733 1.70955 0
M  V30 6213 H 591.38 -3.04269 3.01858 0
M  V30 6214 H 595.564 -2.94544 3.99447 0
M  V30 6215 H 590.82 -2.85783 5.40498 0
M  V30 6216 H 594.994 -2.77192 6.38856 0
M  V30 6217 H 592.621 -2.72329 7.09747 0
M  V30 6218 N 594.196 -1.08629 -1.14182 0
M  V30 6219 C 595.444 -0.815731 -1.84906 0
M  V30 6220 C 595.765 0.660441 -1.83475 0
M  V30 6221 O 595.035 1.47888 -1.28476 0
M  V30 6222 H 593.615 -0.298773 -0.684648 0
M  V30 6223 H 596.277 -1.37274 -1.38354 0
M  V30 6224 H 595.373 -1.16193 -2.89665 0
M  V30 6225 N 595.674 1.31259 -0.872281 0
M  V30 6226 C 596.902 2.00795 -0.498907 0
M  V30 6227 C 597.317 1.65464 0.909238 0
M  V30 6228 O 596.674 0.885073 1.59602 0
M  V30 6229 C 596.725 3.55625 -0.649092 0
M  V30 6230 O 596.446 3.89692 -2.00179 0
M  V30 6231 C 597.947 4.42434 -0.277034 0
M  V30 6232 H 595.167 0.642299 -0.194145 0
M  V30 6233 H 597.711 1.67438 -1.17408 0
M  V30 6234 H 595.866 3.87394 -0.0214402 0
M  V30 6235 H 596.28 4.84407 -2.01122 0
M  V30 6236 H 597.754 5.50299 -0.433064 0
M  V30 6237 H 598.231 4.32146 0.783989 0
M  V30 6238 H 598.837 4.16086 -0.880483 0
M  V30 6239 N 597.152 0.631951 1.44375 0
M  V30 6240 C 598.082 -0.0593243 2.33425 0
M  V30 6241 C 599.063 -0.833964 1.48253 0
M  V30 6242 O 600.248 -0.799682 1.76971 0
M  V30 6243 C 597.378 -1.04096 3.31333 0
M  V30 6244 C 596.332 -0.377899 4.26328 0
M  V30 6245 C 595.658 -1.4695 5.14111 0
M  V30 6246 C 596.958 0.716371 5.17364 0
M  V30 6247 H 598.652 0.684287 2.91475 0
M  V30 6248 H 596.198 0.330518 1.40156 0
M  V30 6249 H 598.151 -1.53331 3.92514 0
M  V30 6250 H 596.875 -1.81547 2.71493 0
M  V30 6251 H 595.534 0.0938054 3.6648 0
M  V30 6252 H 595.182 -2.2349 4.50623 0
M  V30 6253 H 594.882 -1.03121 5.78481 0
M  V30 6254 H 596.406 -1.96363 5.78164 0
M  V30 6255 H 597.82 0.307089 5.72477 0
M  V30 6256 H 596.217 1.07784 5.90341 0
M  V30 6257 H 597.287 1.58316 4.58327 0
M  V30 6258 N 598.631 -1.53133 0.372548 0
M  V30 6259 C 599.578 -2.25951 -0.470631 0
M  V30 6260 C 600.548 -1.26895 -1.07176 0
M  V30 6261 O 601.733 -1.55691 -1.10294 0
M  V30 6262 C 598.873 -3.05726 -1.6008 0
M  V30 6263 C 597.986 -4.19684 -1.02416 0
M  V30 6264 C 597.121 -4.86888 -2.124 0
M  V30 6265 C 596.16 -5.92866 -1.52238 0
M  V30 6266 N 595.297 -6.53732 -2.56084 0
M  V30 6267 H 600.137 -2.97587 0.156816 0
M  V30 6268 H 597.674 -1.4683 0.0891571 0
M  V30 6269 H 599.632 -3.50258 -2.26661 0
M  V30 6270 H 598.262 -2.36331 -2.1988 0
M  V30 6271 H 597.314 -3.79588 -0.248426 0
M  V30 6272 H 598.626 -4.95821 -0.544366 0
M  V30 6273 H 597.78 -5.34638 -2.86787 0
M  V30 6274 H 596.519 -4.10239 -2.63734 0
M  V30 6275 H 595.524 -5.4447 -0.763685 0
M  V30 6276 H 596.749 -6.71439 -1.0172 0
M  V30 6277 H 594.695 -5.79932 -3.06618 0
M  V30 6278 H 594.612 -7.25429 -2.12811 0
M  V30 6279 H 595.88 -7.0613 -3.30152 0
M  V30 6280 N 600.109 -0.101901 -1.5727 0
M  V30 6281 C 601.056 0.854577 -2.14396 0
M  V30 6282 C 602.026 1.27521 -1.06432 0
M  V30 6283 O 603.211 1.35575 -1.34253 0
M  V30 6284 C 600.351 2.10576 -2.73408 0
M  V30 6285 C 599.464 1.73504 -3.95626 0
M  V30 6286 C 598.599 2.9346 -4.42781 0
M  V30 6287 C 597.638 2.52547 -5.57572 0
M  V30 6288 N 596.775 3.65359 -5.99547 0
M  V30 6289 H 601.615 0.360578 -2.9581 0
M  V30 6290 H 599.152 0.166303 -1.46157 0
M  V30 6291 H 601.11 2.83859 -3.05745 0
M  V30 6292 H 599.74 2.57463 -1.94711 0
M  V30 6293 H 598.792 0.901622 -3.6956 0
M  V30 6294 H 600.104 1.39426 -4.78917 0
M  V30 6295 H 599.258 3.74988 -4.76937 0
M  V30 6296 H 597.997 3.30753 -3.58404 0
M  V30 6297 H 597.002 1.69446 -5.23037 0
M  V30 6298 H 598.227 2.1639 -6.43702 0
M  V30 6299 H 596.173 4.02358 -5.18116 0
M  V30 6300 H 596.09 3.35148 -6.77652 0
M  V30 6301 H 597.358 4.47378 -6.38336 0
M  V30 6302 N 601.587 1.56661 0.17182 0
M  V30 6303 C 602.497 1.99604 1.2327 0
M  V30 6304 C 603.513 0.907333 1.4847 0
M  V30 6305 O 604.689 1.21492 1.60629 0
M  V30 6306 C 601.754 2.34685 2.55194 0
M  V30 6307 C 600.815 3.57381 2.3786 0
M  V30 6308 C 600.048 3.90779 3.63494 0
M  V30 6309 O 600.271 3.25152 4.6865 0
M  V30 6310 O 599.205 4.84129 3.57634 0
M  V30 6311 H 603.031 2.90114 0.898192 0
M  V30 6312 H 600.616 1.44522 0.378647 0
M  V30 6313 H 602.498 2.5822 3.33017 0
M  V30 6314 H 601.173 1.47336 2.88225 0
M  V30 6315 H 600.08 3.39064 1.5807 0
M  V30 6316 H 601.413 4.45268 2.09754 0
M  V30 6317 N 603.065 -0.440357 1.51323 0
M  V30 6318 C 604.313 -1.18769 1.63518 0
M  V30 6319 C 604.634 -1.91793 0.352201 0
M  V30 6320 O 603.904 -1.85432 -0.631811 0
M  V30 6321 H 602.484 -0.441408 0.602634 0
M  V30 6322 H 605.146 -0.505162 1.8824 0
M  V30 6323 H 604.242 -1.91892 2.46138 0
M  V30 6324 N 604.543 -1.41418 -0.695603 0
M  V30 6325 C 605.789 -1.41983 -1.45645 0
M  V30 6326 C 606.144 -0.0282216 -1.92379 0
M  V30 6327 O 605.437 0.945916 -1.66622 0
M  V30 6328 C 605.631 -2.36112 -2.68302 0
M  V30 6329 C 605.46 -3.84288 -2.33566 0
M  V30 6330 C 604.23 -4.52971 -2.23932 0
M  V30 6331 C 606.428 -4.75264 -1.96543 0
M  V30 6332 N 604.41 -5.86276 -1.82081 0
M  V30 6333 C 605.781 -5.97517 -1.6545 0
M  V30 6334 C 607.836 -4.62911 -1.83352 0
M  V30 6335 C 606.539 -7.08793 -1.22492 0
M  V30 6336 C 608.565 -5.74149 -1.41799 0
M  V30 6337 C 607.927 -6.95501 -1.11617 0
M  V30 6338 H 604.026 -0.574771 -0.530247 0
M  V30 6339 H 606.61 -1.77289 -0.804788 0
M  V30 6340 H 604.781 -2.02902 -3.31188 0
M  V30 6341 H 606.513 -2.27397 -3.34773 0
M  V30 6342 H 603.268 -4.06909 -2.42327 0
M  V30 6343 H 603.692 -6.56926 -1.63638 0
M  V30 6344 H 608.334 -3.69588 -2.05341 0
M  V30 6345 H 606.052 -8.01982 -0.992482 0
M  V30 6346 H 609.638 -5.66595 -1.32143 0
M  V30 6347 H 608.518 -7.80114 -0.799493 0
M  V30 6348 N 606.021 0.929856 -1.27246 0
M  V30 6349 C 607.437 1.20542 -1.04603 0
M  V30 6350 C 607.637 2.00276 0.221754 0
M  V30 6351 O 606.693 2.34835 0.927833 0
M  V30 6352 C 608.006 1.95566 -2.28417 0
M  V30 6353 C 609.554 2.08513 -2.33433 0
M  V30 6354 C 610.029 2.86943 -3.5697 0
M  V30 6355 N 611.52 2.94512 -3.57515 0
M  V30 6356 C 612.255 3.55656 -4.49774 0
M  V30 6357 N 611.751 4.18209 -5.52334 0
M  V30 6358 N 613.544 3.53038 -4.37402 0
M  V30 6359 H 605.695 0.397113 -2.08655 0
M  V30 6360 H 607.958 0.238277 -0.917566 0
M  V30 6361 H 607.664 1.44395 -3.20691 0
M  V30 6362 H 607.538 2.9619 -2.33563 0
M  V30 6363 H 609.925 2.58872 -1.41666 0
M  V30 6364 H 610.006 1.07117 -2.32292 0
M  V30 6365 H 609.65 2.37268 -4.49072 0
M  V30 6366 H 609.58 3.8862 -3.55362 0
M  V30 6367 H 612.071 2.50053 -2.83341 0
M  V30 6368 H 612.384 4.62796 -6.18902 0
M  V30 6369 H 610.729 4.16761 -5.56179 0
M  V30 6370 H 613.92 3.0337 -3.56489 0
M  V30 6371 H 614.093 4.004 -5.09493 0
M  V30 6372 N 607.499 1.09233 1.13605 0
M  V30 6373 C 608.91 0.846839 1.6639 0
M  V30 6374 C 609.261 -0.625031 1.85978 0
M  V30 6375 O 608.386 -1.48173 1.57714 0
M  V30 6376 C 608.981 1.5307 3.0225 0
M  V30 6377 C 607.54 1.33223 3.52035 0
M  V30 6378 C 606.687 1.58806 2.27323 0
M  V30 6379 H 609.638 1.25175 0.975541 0
M  V30 6380 H 609.659 0.96267 3.68121 0
M  V30 6381 H 609.171 2.60192 2.87961 0
M  V30 6382 H 607.272 0.282091 3.71531 0
M  V30 6383 H 607.385 2.0657 4.32279 0
M  V30 6384 H 605.749 1.01007 2.33815 0
M  V30 6385 H 606.532 2.67153 2.15602 0
M  V30 6386 N 608.977 -1.30795 0.87923 0
M  V30 6387 C 610.393 -1.48981 0.57243 0
M  V30 6388 C 610.593 -1.80719 -0.891236 0
M  V30 6389 O 609.649 -1.89136 -1.67283 0
M  V30 6390 C 610.962 -2.61721 1.48063 0
M  V30 6391 C 612.51 -2.75603 1.48365 0
M  V30 6392 C 612.985 -3.91449 2.37763 0
M  V30 6393 N 614.476 -3.98751 2.35695 0
M  V30 6394 C 615.211 -4.87684 3.01583 0
M  V30 6395 N 614.707 -5.81454 3.76674 0
M  V30 6396 N 616.5 -4.81005 2.90844 0
M  V30 6397 H 608.651 -1.08465 1.82617 0
M  V30 6398 H 610.914 -0.536813 0.781368 0
M  V30 6399 H 610.62 -2.45073 2.52254 0
M  V30 6400 H 610.494 -3.58071 1.18596 0
M  V30 6401 H 612.881 -2.9166 0.44927 0
M  V30 6402 H 612.962 -1.79891 1.81859 0
M  V30 6403 H 612.606 -3.76149 3.41283 0
M  V30 6404 H 612.536 -4.86487 2.01589 0
M  V30 6405 H 615.027 -3.31668 1.81121 0
M  V30 6406 H 615.34 -6.46063 4.24054 0
M  V30 6407 H 613.685 -5.81403 3.80782 0
M  V30 6408 H 616.876 -4.06728 2.31711 0
M  V30 6409 H 617.049 -5.50107 3.42471 0
M  V30 6410 N 610.455 -0.639598 -1.44038 0
M  V30 6411 C 611.871 -0.305953 -1.5664 0
M  V30 6412 C 612.071 1.19055 -1.62567 0
M  V30 6413 O 611.127 1.97492 -1.57331 0
M  V30 6414 C 612.44 -1.00533 -2.83397 0
M  V30 6415 C 613.988 -0.984278 -2.97121 0
M  V30 6416 C 614.463 -1.66428 -4.26691 0
M  V30 6417 N 615.954 -1.63127 -4.33525 0
M  V30 6418 C 616.689 -2.12629 -5.32519 0
M  V30 6419 N 616.185 -2.70359 -6.3787 0
M  V30 6420 N 617.978 -2.03208 -5.24083 0
M  V30 6421 H 610.129 -1.6109 -1.38434 0
M  V30 6422 H 612.392 -0.676672 -0.663942 0
M  V30 6423 H 612.098 -2.06034 -2.85032 0
M  V30 6424 H 611.972 -0.548362 -3.73193 0
M  V30 6425 H 614.359 0.0622792 -2.95034 0
M  V30 6426 H 614.44 -1.47981 -2.08651 0
M  V30 6427 H 614.084 -2.71034 -4.29538 0
M  V30 6428 H 614.014 -1.14351 -5.14034 0
M  V30 6429 H 616.505 -1.20987 -3.58009 0
M  V30 6430 H 616.818 -3.05842 -7.09704 0
M  V30 6431 H 615.163 -2.74414 -6.38531 0
M  V30 6432 H 618.354 -1.57823 -4.40692 0
M  V30 6433 H 618.527 -2.42097 -6.01077 0
M  V30 6434 N 611.933 1.52934 -0.380664 0
M  V30 6435 C 613.161 2.05886 0.204599 0
M  V30 6436 C 613.576 1.25305 1.41223 0
M  V30 6437 O 612.933 0.297504 1.80059 0
M  V30 6438 C 612.984 3.56764 0.583249 0
M  V30 6439 O 612.705 4.34292 -0.576398 0
M  V30 6440 C 614.206 4.2603 1.2253 0
M  V30 6441 H 611.426 0.670193 0.0328991 0
M  V30 6442 H 613.97 1.97148 -0.543397 0
M  V30 6443 H 612.125 3.65603 1.28115 0
M  V30 6444 H 612.539 5.23819 -0.267119 0
M  V30 6445 H 614.013 5.32868 1.44068 0
M  V30 6446 H 614.49 3.80698 2.19011 0
M  V30 6447 H 615.096 4.21485 0.568407 0
M  V30 6448 N 613.412 0.11024 1.57214 0
M  V30 6449 C 614.661 -0.549638 1.94067 0
M  V30 6450 C 614.974 -1.68388 0.995234 0
M  V30 6451 O 616.18 -2.40593 1.25807 0
M  V30 6452 C 614.636 -1.02912 3.44873 0
M  V30 6453 C 614.244 0.0761861 4.47935 0
M  V30 6454 C 615.988 -1.66087 3.9066 0
M  V30 6455 C 613.895 -0.419502 5.8991 0
M  V30 6456 H 612.825 -0.209092 0.724428 0
M  V30 6457 H 615.476 0.188683 1.82527 0
M  V30 6458 H 613.858 -1.82159 3.51616 0
M  V30 6459 H 615.032 0.852185 4.52851 0
M  V30 6460 H 613.347 0.614052 4.11847 0
M  V30 6461 H 615.944 -2.04272 4.94143 0
M  V30 6462 H 616.287 -2.53591 3.30148 0
M  V30 6463 H 616.82 -0.933959 3.86681 0
M  V30 6464 H 613.559 0.419277 6.54158 0
M  V30 6465 H 613.079 -1.16217 5.88433 0
M  V30 6466 H 614.758 -0.883577 6.40938 0
M  V30 6467 N 614.89 -1.56749 -0.16351 0
M  V30 6468 C 615.82 -2.00042 -1.20438 0
M  V30 6469 C 616.801 -0.877256 -1.45733 0
M  V30 6470 O 617.986 -1.1439 -1.56935 0
M  V30 6471 C 615.116 -2.36697 -2.54149 0
M  V30 6472 C 614.07 -3.52046 -2.43408 0
M  V30 6473 C 613.396 -3.74466 -3.81679 0
M  V30 6474 C 614.696 -4.85247 -1.93216 0
M  V30 6475 H 616.39 -2.87244 -0.844477 0
M  V30 6476 H 613.936 -1.38194 -0.40478 0
M  V30 6477 H 615.889 -2.65582 -3.27176 0
M  V30 6478 H 614.613 -1.46414 -2.91943 0
M  V30 6479 H 613.272 -3.23301 -1.72834 0
M  V30 6480 H 612.92 -2.81461 -4.1688 0
M  V30 6481 H 612.62 -4.52084 -3.75359 0
M  V30 6482 H 614.144 -4.0576 -4.5628 0
M  V30 6483 H 615.558 -5.12957 -2.56023 0
M  V30 6484 H 613.955 -5.66556 -1.97825 0
M  V30 6485 H 615.025 -4.7672 -0.88689 0
M  V30 6486 N 616.368 0.432326 -1.51554 0
M  V30 6487 C 617.615 1.18134 -1.64471 0
M  V30 6488 C 617.943 1.91076 -0.363349 0
M  V30 6489 O 617.198 1.84492 0.65279 0
M  V30 6490 C 617.497 2.21907 -2.80164 0
M  V30 6491 C 617.163 1.65941 -4.19255 0
M  V30 6492 C 615.825 1.50401 -4.57092 0
M  V30 6493 C 618.177 1.24843 -5.06027 0
M  V30 6494 C 615.505 0.922443 -5.79403 0
M  V30 6495 C 617.857 0.68113 -6.28922 0
M  V30 6496 C 616.521 0.512673 -6.65528 0
M  V30 6497 H 615.791 0.432283 -0.601841 0
M  V30 6498 H 618.438 0.471701 -1.856 0
M  V30 6499 H 616.743 2.98928 -2.53277 0
M  V30 6500 H 618.44 2.79691 -2.87357 0
M  V30 6501 H 615.03 1.79014 -3.89425 0
M  V30 6502 H 619.214 1.35667 -4.77397 0
M  V30 6503 H 614.47 0.779733 -6.06408 0
M  V30 6504 H 618.644 0.35418 -6.95499 0
M  V30 6505 H 616.271 0.0599084 -7.60176 0
M  V30 6506 N 617.846 1.41785 0.688094 0
M  V30 6507 C 618.809 1.43936 1.78368 0
M  V30 6508 C 619.809 0.328866 1.57401 0
M  V30 6509 O 620.999 0.589093 1.63937 0
M  V30 6510 C 618.131 1.25804 3.16838 0
M  V30 6511 H 619.324 2.41472 1.77852 0
M  V30 6512 H 616.877 1.28037 0.896448 0
M  V30 6513 H 617.612 0.291386 3.22988 0
M  V30 6514 H 617.397 2.06272 3.33458 0
M  V30 6515 H 618.887 1.30162 3.96797 0
M  V30 6516 N 619.324 -0.923095 1.27737 0
M  V30 6517 C 620.549 -1.71054 1.17283 0
M  V30 6518 C 620.974 -1.86208 -0.266153 0
M  V30 6519 O 620.332 -1.36545 -1.1927 0
M  V30 6520 C 620.38 -3.0854 1.86642 0
M  V30 6521 O 619.484 -3.95528 1.16752 0
M  V30 6522 H 618.825 -0.524136 0.407649 0
M  V30 6523 H 621.355 -1.15487 1.6889 0
M  V30 6524 H 621.365 -3.58828 1.94182 0
M  V30 6525 H 620.04 -2.96828 2.91317 0
M  V30 6526 H 618.617 -3.53967 1.17312 0
M  V30 6527 N 620.802 -1.09834 -1.13024 0
M  V30 6528 C 622.048 -0.848072 -1.84876 0
M  V30 6529 C 622.403 0.619663 -1.82148 0
M  V30 6530 O 621.696 1.45067 -1.25164 0
M  V30 6531 C 621.89 -1.32263 -3.32026 0
M  V30 6532 C 621.719 -2.83497 -3.49084 0
M  V30 6533 C 620.489 -3.51425 -3.63082 0
M  V30 6534 C 622.687 -3.81623 -3.44773 0
M  V30 6535 N 620.669 -4.91042 -3.68443 0
M  V30 6536 C 622.04 -5.07217 -3.56555 0
M  V30 6537 C 624.095 -3.74419 -3.282 0
M  V30 6538 C 622.798 -6.26457 -3.53474 0
M  V30 6539 C 624.824 -4.93151 -3.26429 0
M  V30 6540 C 624.186 -6.1759 -3.38765 0
M  V30 6541 H 620.285 -0.363249 -0.692513 0
M  V30 6542 H 622.869 -1.39952 -1.35357 0
M  V30 6543 H 621.04 -0.79858 -3.80102 0
M  V30 6544 H 622.772 -1.01725 -3.91707 0
M  V30 6545 H 619.527 -3.0186 -3.64935 0
M  V30 6546 H 619.951 -5.63782 -3.74805 0
M  V30 6547 H 624.593 -2.79132 -3.17561 0
M  V30 6548 H 622.311 -7.22039 -3.62884 0
M  V30 6549 H 625.897 -4.8928 -3.14796 0
M  V30 6550 H 624.777 -7.07925 -3.37361 0
M  V30 6551 N 622.28 1.30327 -0.886154 0
M  V30 6552 C 623.557 1.90922 -0.425217 0
M  V30 6553 C 623.937 1.80533 1.09413 0
M  V30 6554 O 623.285 1.2233 1.92996 0
M  V30 6555 C 623.495 3.36529 -0.924638 0
M  V30 6556 C 624.843 4.13598 -0.960305 0
M  V30 6557 O 625.867 3.45377 -0.871382 0
M  V30 6558 O 624.726 5.35482 -1.09184 0
M  V30 6559 H 621.82 0.81668 -0.130238 0
M  V30 6560 H 624.366 1.38886 -0.975132 0
M  V30 6561 H 623.138 3.38181 -1.96849 0
M  V30 6562 H 622.761 3.96021 -0.353955 0
M  V30 6563 N 623.758 0.647228 1.43697 0
M  V30 6564 C 624.721 -0.0385101 2.29168 0
M  V30 6565 C 625.721 -0.756487 1.41894 0
M  V30 6566 O 626.911 -0.598641 1.63591 0
M  V30 6567 C 624.043 -1.06524 3.23829 0
M  V30 6568 H 625.236 0.713445 2.9129 0
M  V30 6569 H 622.789 0.408153 1.50877 0
M  V30 6570 H 623.524 -1.84664 2.66589 0
M  V30 6571 H 623.309 -0.554147 3.88164 0
M  V30 6572 H 624.799 -1.54432 3.87996 0
M  V30 6573 N 625.236 -1.5273 0.388769 0
M  V30 6574 C 626.146 -2.30165 -0.453993 0
M  V30 6575 C 627.162 -1.37058 -1.07197 0
M  V30 6576 O 628.338 -1.70127 -1.0779 0
M  V30 6577 C 625.403 -3.09303 -1.56628 0
M  V30 6578 C 624.464 -4.18117 -0.973467 0
M  V30 6579 C 623.697 -4.93472 -2.03275 0
M  V30 6580 O 623.92 -4.68913 -3.24772 0
M  V30 6581 O 622.854 -5.78833 -1.65034 0
M  V30 6582 H 626.68 -3.03185 0.176816 0
M  V30 6583 H 624.265 -1.4862 0.152501 0
M  V30 6584 H 626.147 -3.58648 -2.21246 0
M  V30 6585 H 624.822 -2.39098 -2.18206 0
M  V30 6586 H 623.729 -3.7297 -0.290556 0
M  V30 6587 H 625.062 -4.90556 -0.401908 0
M  V30 6588 N 626.714 -0.118576 -1.57153 0
M  V30 6589 C 627.624 0.845484 -2.18835 0
M  V30 6590 C 628.64 1.29299 -1.16438 0
M  V30 6591 O 629.816 1.35607 -1.48905 0
M  V30 6592 C 626.881 2.07795 -2.77529 0
M  V30 6593 C 625.942 1.6824 -3.9496 0
M  V30 6594 C 625.175 2.85612 -4.50845 0
M  V30 6595 O 625.398 4.01025 -4.05629 0
M  V30 6596 O 624.332 2.62721 -5.41536 0
M  V30 6597 H 628.158 0.350568 -3.0167 0
M  V30 6598 H 625.743 0.107013 -1.49016 0
M  V30 6599 H 627.625 2.79978 -3.14945 0
M  V30 6600 H 626.3 2.56294 -1.97725 0
M  V30 6601 H 625.207 0.931663 -3.62313 0
M  V30 6602 H 626.54 1.24484 -4.76198 0
M  V30 6603 N 628.193 1.56834 0.155195 0
M  V30 6604 C 629.44 1.82898 0.869179 0
M  V30 6605 C 629.768 0.698194 1.81537 0
M  V30 6606 O 629.023 -0.313404 1.93174 0
M  V30 6607 C 629.322 3.15239 1.68402 0
M  V30 6608 C 628.988 4.42123 0.885341 0
M  V30 6609 C 627.65 4.76583 0.664971 0
M  V30 6610 C 630.002 5.20178 0.326234 0
M  V30 6611 C 627.33 5.86566 -0.125346 0
M  V30 6612 C 629.682 6.3099 -0.45108 0
M  V30 6613 C 628.346 6.64006 -0.682102 0
M  V30 6614 H 627.616 0.66927 0.318055 0
M  V30 6615 H 630.263 1.91036 0.133241 0
M  V30 6616 H 628.568 3.02515 2.48982 0
M  V30 6617 H 630.265 3.32618 2.23978 0
M  V30 6618 H 626.855 4.15102 1.06716 0
M  V30 6619 H 631.039 4.93936 0.483787 0
M  V30 6620 H 626.295 6.10594 -0.313915 0
M  V30 6621 H 630.469 6.9067 -0.89149 0
M  V30 6622 H 628.096 7.49065 -1.29636 0
M  V30 6623 N 629.671 -0.424282 1.51781 0
M  V30 6624 C 630.919 -1.17028 1.64769 0
M  V30 6625 C 631.24 -1.91409 0.372523 0
M  V30 6626 O 630.51 -1.86091 -0.612108 0
M  V30 6627 H 629.09 -0.434992 0.607282 0
M  V30 6628 H 631.752 -0.485169 1.88765 0
M  V30 6629 H 630.848 -1.8927 2.4816 0
M  V30 6630 N 631.149 -1.42148 -0.680565 0
M  V30 6631 C 632.079 -1.4796 -1.80638 0
M  V30 6632 C 633.06 -0.336728 -1.66734 0
M  V30 6633 O 634.245 -0.550247 -1.86242 0
M  V30 6634 C 631.375 -1.37569 -3.18892 0
M  V30 6635 C 630.329 -2.49823 -3.47524 0
M  V30 6636 C 629.655 -2.24491 -4.85291 0
M  V30 6637 C 630.955 -3.92144 -3.44994 0
M  V30 6638 H 632.649 -2.42184 -1.76032 0
M  V30 6639 H 630.195 -1.16566 -0.845481 0
M  V30 6640 H 632.148 -1.40243 -3.97379 0
M  V30 6641 H 630.872 -0.398357 -3.24162 0
M  V30 6642 H 629.531 -2.46455 -2.71395 0
M  V30 6643 H 629.179 -1.25066 -4.87204 0
M  V30 6644 H 628.879 -2.99722 -5.05411 0
M  V30 6645 H 630.403 -2.28906 -5.66069 0
M  V30 6646 H 631.817 -3.97145 -4.13459 0
M  V30 6647 H 630.214 -4.67179 -3.76648 0
M  V30 6648 H 631.284 -4.19225 -2.43676 0
M  V30 6649 N 632.627 0.916307 -1.28225 0
M  V30 6650 C 633.557 2.0352 -1.14464 0
M  V30 6651 C 634.538 1.70045 -0.0430844 0
M  V30 6652 O 635.723 1.92954 -0.219619 0
M  V30 6653 C 632.853 3.37889 -0.803027 0
M  V30 6654 C 631.807 3.85516 -1.85908 0
M  V30 6655 C 631.133 5.1682 -1.37116 0
M  V30 6656 C 632.433 4.07655 -3.26519 0
M  V30 6657 H 634.127 2.1529 -2.08064 0
M  V30 6658 H 631.673 1.03446 -1.00174 0
M  V30 6659 H 633.626 4.15654 -0.693537 0
M  V30 6660 H 632.35 3.26164 0.168674 0
M  V30 6661 H 631.009 3.09953 -1.95767 0
M  V30 6662 H 630.657 5.01497 -0.38859 0
M  V30 6663 H 630.357 5.49657 -2.07728 0
M  V30 6664 H 631.881 5.97143 -1.27484 0
M  V30 6665 H 633.295 4.75953 -3.19596 0
M  V30 6666 H 631.692 4.51818 -3.94943 0
M  V30 6667 H 632.762 3.12553 -3.70727 0
M  V30 6668 N 634.105 1.10431 1.1244 0
M  V30 6669 C 635.353 0.845045 1.83585 0
M  V30 6670 C 635.674 -0.631168 1.84503 0
M  V30 6671 O 634.944 -1.45825 1.30813 0
M  V30 6672 H 633.524 0.309628 0.679809 0
M  V30 6673 H 636.186 1.39458 1.36153 0
M  V30 6674 H 635.282 1.20786 2.8778 0
M  V30 6675 N 635.583 -1.29855 0.893053 0
M  V30 6676 C 636.808 -2.00512 0.530066 0
M  V30 6677 C 637.233 -1.66446 -0.876199 0
M  V30 6678 O 636.591 -0.885446 -1.58207 0
M  V30 6679 C 636.639 -3.53308 0.721505 0
M  V30 6680 O 635.743 -4.11764 -0.228994 0
M  V30 6681 H 635.084 -0.630617 0.207891 0
M  V30 6682 H 637.614 -1.6551 1.20282 0
M  V30 6683 H 637.624 -4.03206 0.623599 0
M  V30 6684 H 636.299 -3.77439 1.74678 0
M  V30 6685 H 634.876 -3.72805 -0.0841034 0
M  V30 6686 N 637.061 -0.65484 -1.43351 0
M  V30 6687 C 638.289 -0.176685 -2.06144 0
M  V30 6688 C 638.704 1.15831 -1.49093 0
M  V30 6689 O 638.061 1.71542 -0.622868 0
M  V30 6690 C 638.112 -0.0813326 -3.61408 0
M  V30 6691 O 637.833 -1.36355 -4.1634 0
M  V30 6692 C 639.334 0.422706 -4.4128 0
M  V30 6693 H 636.554 -0.0906429 -0.66485 0
M  V30 6694 H 639.098 -0.895945 -1.83829 0
M  V30 6695 H 637.253 0.588496 -3.82904 0
M  V30 6696 H 637.667 -1.22381 -5.10023 0
M  V30 6697 H 639.141 0.438375 -5.50257 0
M  V30 6698 H 639.618 1.45432 -4.14423 0
M  V30 6699 H 640.224 -0.214687 -4.24758 0
M  V30 6700 N 638.539 1.52521 -0.396863 0
M  V30 6701 C 639.449 2.30403 0.44178 0
M  V30 6702 C 640.465 1.37625 1.06468 0
M  V30 6703 O 641.641 1.70697 1.06886 0
M  V30 6704 C 638.706 3.1013 1.54986 0
M  V30 6705 C 637.767 4.18628 0.951279 0
M  V30 6706 C 637 4.94543 2.00655 0
M  V30 6707 O 637.223 4.70629 3.22281 0
M  V30 6708 O 636.157 5.797 1.61962 0
M  V30 6709 H 639.983 3.03087 -0.192892 0
M  V30 6710 H 637.568 1.48537 -0.16038 0
M  V30 6711 H 639.45 3.59816 2.19341 0
M  V30 6712 H 638.125 2.40251 2.16935 0
M  V30 6713 H 637.032 3.73119 0.270773 0
M  V30 6714 H 638.365 4.90763 0.375887 0
M  V30 6715 N 640.017 0.126909 1.57088 0
M  V30 6716 C 641.263 -0.523662 1.96543 0
M  V30 6717 C 641.618 -1.63783 1.0096 0
M  V30 6718 O 640.911 -1.91556 0.0410175 0
M  V30 6719 C 641.105 -1.095 3.40212 0
M  V30 6720 C 640.934 -0.037715 4.49684 0
M  V30 6721 C 639.704 0.396823 5.03739 0
M  V30 6722 C 641.902 0.746245 5.08857 0
M  V30 6723 N 639.884 1.43905 5.96795 0
M  V30 6724 C 641.255 1.63947 5.97931 0
M  V30 6725 C 643.31 0.796259 4.91492 0
M  V30 6726 C 642.013 2.57837 6.715 0
M  V30 6727 C 644.039 1.7229 5.65747 0
M  V30 6728 C 643.401 2.60369 6.54513 0
M  V30 6729 H 639.5 -0.161016 0.765244 0
M  V30 6730 H 642.084 0.21686 1.93489 0
M  V30 6731 H 640.255 -1.80521 3.43899 0
M  V30 6732 H 641.987 -1.71054 3.66773 0
M  V30 6733 H 638.742 0.00290406 4.736 0
M  V30 6734 H 639.166 1.95932 6.48027 0
M  V30 6735 H 643.808 0.129412 4.22602 0
M  V30 6736 H 641.526 3.25532 7.39631 0
M  V30 6737 H 645.112 1.76715 5.54313 0
M  V30 6738 H 643.992 3.30906 7.10965 0
M  V30 6739 N 641.495 -1.56914 -0.146875 0
M  V30 6740 C 642.458 -1.97368 -1.16526 0
M  V30 6741 C 643.458 -0.860223 -1.35856 0
M  V30 6742 O 644.648 -1.12684 -1.32846 0
M  V30 6743 C 641.78 -2.28974 -2.52555 0
M  V30 6744 H 642.973 -2.88523 -0.818209 0
M  V30 6745 H 640.526 -1.5135 -0.390221 0
M  V30 6746 H 641.261 -1.40611 -2.92231 0
M  V30 6747 H 641.046 -3.10157 -2.39886 0
M  V30 6748 H 642.536 -2.61109 -3.25902 0
M  V30 6749 N 642.974 0.416227 -1.52004 0
M  V30 6750 C 643.884 1.53147 -1.77717 0
M  V30 6751 C 644.9 1.609 -0.662368 0
M  V30 6752 O 646.076 1.77747 -0.946991 0
M  V30 6753 C 643.141 2.88948 -1.91598 0
M  V30 6754 C 642.202 2.9114 -3.15493 0
M  V30 6755 C 641.435 4.20464 -3.28703 0
M  V30 6756 O 641.658 5.13981 -2.47345 0
M  V30 6757 O 640.592 4.29368 -4.21813 0
M  V30 6758 H 644.418 1.34357 -2.72363 0
M  V30 6759 H 642.003 0.601373 -1.36762 0
M  V30 6760 H 643.885 3.69505 -2.02593 0
M  V30 6761 H 642.56 3.07821 -1.00141 0
M  V30 6762 H 641.467 2.09461 -3.09962 0
M  V30 6763 H 642.8 2.77216 -4.06709 0
M  V30 6764 N 644.452 1.42507 0.673017 0
M  V30 6765 C 645.362 1.4853 1.81593 0
M  V30 6766 C 646.378 0.373907 1.69935 0
M  V30 6767 O 647.554 0.625078 1.91454 0
M  V30 6768 C 644.619 1.387 3.17747 0
M  V30 6769 C 643.68 2.60346 3.41348 0
M  V30 6770 C 642.913 2.50975 4.71007 0
M  V30 6771 O 643.136 1.54659 5.49033 0
M  V30 6772 O 642.07 3.41138 4.95892 0
M  V30 6773 H 645.896 2.45001 1.79467 0
M  V30 6774 H 643.481 1.2429 0.82899 0
M  V30 6775 H 645.363 1.35586 3.98992 0
M  V30 6776 H 644.038 0.453555 3.20507 0
M  V30 6777 H 642.945 2.69034 2.59945 0
M  V30 6778 H 644.278 3.52595 3.43421 0
M  V30 6779 N 645.93 -0.909495 1.28709 0
M  V30 6780 C 646.878 -2.03381 1.12866 0
M  V30 6781 C 647.872 -1.69335 0.0468074 0
M  V30 6782 O 649.078 -1.78819 0.205891 0
M  V30 6783 H 645.453 -0.666452 0.348348 0
M  V30 6784 H 647.424 -2.13885 2.08077 0
M  V30 6785 C 646.173 -3.38092 0.811742 0
M  V30 6786 H 645.496 -3.64786 1.63619 0
M  V30 6787 H 646.936 -4.17477 0.740869 0
M  V30 6788 C 645.395 -3.33395 -0.484679 0
M  V30 6789 O 645.925 -3.72089 -1.5137 0
M  V30 6790 N 644.131 -2.86491 -0.486961 0
M  V30 6791 H 643.678 -2.55199 0.350877 0
M  V30 6792 H 643.636 -2.83731 -1.3544 0
M  V30 6793 N 647.408 -1.11026 -1.11852 0
M  V30 6794 C 648.633 -0.879064 -1.87849 0
M  V30 6795 C 649.058 0.565406 -1.79401 0
M  V30 6796 O 648.416 1.39886 -1.15333 0
M  V30 6797 C 648.464 -1.33985 -3.34784 0
M  V30 6798 O 647.568 -0.508803 -4.09249 0
M  V30 6799 H 646.909 -0.316992 -0.583448 0
M  V30 6800 H 649.439 -1.47863 -1.41413 0
M  V30 6801 H 649.449 -1.33248 -3.85628 0
M  V30 6802 H 648.124 -2.39172 -3.40249 0
M  V30 6803 H 646.701 -0.581913 -3.68332 0
M  V30 6804 N 648.886 1.2938 -0.899927 0
M  V30 6805 C 650.302 1.48052 -0.596059 0
M  V30 6806 C 650.502 1.82114 0.862372 0
M  V30 6807 O 649.558 1.91774 1.64253 0
M  V30 6808 C 650.871 2.59332 -1.52208 0
M  V30 6809 C 652.419 2.73208 -1.5273 0
M  V30 6810 C 652.894 3.87617 -2.43961 0
M  V30 6811 N 654.385 3.9495 -2.42009 0
M  V30 6812 C 655.12 4.82824 -3.09303 0
M  V30 6813 N 654.616 5.75387 -3.85877 0
M  V30 6814 N 656.409 4.76317 -2.98459 0
M  V30 6815 H 648.56 1.05546 -1.8432 0
M  V30 6816 H 650.823 0.524314 -0.78981 0
M  V30 6817 H 650.529 2.41029 -2.56121 0
M  V30 6818 H 650.403 3.56139 -1.24278 0
M  V30 6819 H 652.79 2.90908 -0.495614 0
M  V30 6820 H 652.871 1.76975 -1.84698 0
M  V30 6821 H 652.515 3.70672 -3.47224 0
M  V30 6822 H 652.445 4.83218 -2.09303 0
M  V30 6823 H 654.936 3.28744 -1.86375 0
M  V30 6824 H 655.249 6.39235 -4.34279 0
M  V30 6825 H 653.594 5.75272 -3.89984 0
M  V30 6826 H 656.785 4.0299 -2.38152 0
M  V30 6827 H 656.958 5.44589 -3.51179 0
M  V30 6828 N 650.364 0.662433 1.43002 0
M  V30 6829 C 651.294 -0.00979809 2.33498 0
M  V30 6830 C 652.275 -0.802329 1.49989 0
M  V30 6831 O 653.46 -0.761964 1.78627 0
M  V30 6832 C 650.59 -0.970446 3.33466 0
M  V30 6833 C 649.544 -0.287383 4.27034 0
M  V30 6834 C 648.87 -1.36012 5.17112 0
M  V30 6835 C 650.17 0.82595 5.15728 0
M  V30 6836 H 651.864 0.745959 2.89958 0
M  V30 6837 H 649.41 0.360172 1.39423 0
M  V30 6838 H 651.363 -1.44971 3.95679 0
M  V30 6839 H 650.087 -1.75748 2.75282 0
M  V30 6840 H 648.746 0.17152 3.66199 0
M  V30 6841 H 648.394 -2.13882 4.55262 0
M  V30 6842 H 648.094 -0.908276 5.80538 0
M  V30 6843 H 649.618 -1.84056 5.82199 0
M  V30 6844 H 651.032 0.42845 5.71697 0
M  V30 6845 H 649.429 1.20282 5.87922 0
M  V30 6846 H 650.499 1.68003 4.54866 0
M  V30 6847 N 651.842 -1.52309 0.404946 0
M  V30 6848 C 652.772 -2.29805 -0.41376 0
M  V30 6849 C 653.753 -1.3384 -1.0498 0
M  V30 6850 O 654.938 -1.62745 -1.05961 0
M  V30 6851 C 652.068 -3.11639 -1.53292 0
M  V30 6852 C 651.022 -4.15616 -1.02211 0
M  V30 6853 C 650.348 -4.8577 -2.23455 0
M  V30 6854 C 651.648 -5.2224 -0.0790725 0
M  V30 6855 H 653.342 -2.98493 0.232878 0
M  V30 6856 H 650.888 -1.43552 0.113441 0
M  V30 6857 H 652.841 -3.64618 -2.11262 0
M  V30 6858 H 651.565 -2.40712 -2.20738 0
M  V30 6859 H 650.224 -3.63641 -0.46484 0
M  V30 6860 H 649.872 -4.11376 -2.89445 0
M  V30 6861 H 649.572 -5.56058 -1.89929 0
M  V30 6862 H 651.096 -5.4156 -2.82038 0
M  V30 6863 H 652.51 -5.70485 -0.567438 0
M  V30 6864 H 650.907 -5.99867 0.167167 0
M  V30 6865 H 651.977 -4.77078 0.867447 0
M  V30 6866 N 653.32 -0.135238 -1.57019 0
M  V30 6867 C 654.252 0.839675 -2.13265 0
M  V30 6868 C 655.265 1.21887 -1.07923 0
M  V30 6869 O 656.454 1.16499 -1.35241 0
M  V30 6870 C 653.554 2.13647 -2.63075 0
M  V30 6871 C 652.727 1.92646 -3.92691 0
M  V30 6872 C 651.786 3.06205 -4.27931 0
M  V30 6873 O 650.812 2.78409 -4.96465 0
M  V30 6874 N 652.014 4.33072 -3.86561 0
M  V30 6875 H 654.779 0.359026 -2.97542 0
M  V30 6876 H 652.34 0.0486979 -1.61827 0
M  V30 6877 H 654.332 2.88641 -2.8367 0
M  V30 6878 H 652.902 2.5301 -1.83588 0
M  V30 6879 H 652.122 1.01754 -3.80841 0
M  V30 6880 H 653.41 1.75939 -4.77413 0
M  V30 6881 H 652.808 4.58526 -3.31316 0
M  V30 6882 H 651.365 5.04885 -4.12231 0
M  V30 6883 N 654.798 1.5699 0.138552 0
M  V30 6884 C 655.708 2.02174 1.19008 0
M  V30 6885 C 656.724 0.938622 1.46512 0
M  V30 6886 O 657.9 1.24872 1.58016 0
M  V30 6887 C 654.965 2.40045 2.50159 0
M  V30 6888 C 654.026 3.62346 2.30226 0
M  V30 6889 C 653.259 3.98401 3.55123 0
M  V30 6890 O 653.482 3.35019 4.61647 0
M  V30 6891 O 652.416 4.91606 3.47285 0
M  V30 6892 H 656.242 2.91954 0.836452 0
M  V30 6893 H 653.827 1.45293 0.347907 0
M  V30 6894 H 655.709 2.65225 3.27465 0
M  V30 6895 H 654.384 1.53417 2.85035 0
M  V30 6896 H 653.291 3.42341 1.50843 0
M  V30 6897 H 654.624 4.49617 2.00262 0
M  V30 6898 N 656.276 -0.40816 1.52223 0
M  V30 6899 C 657.692 -0.74685 1.41047 0
M  V30 6900 C 657.892 -1.94788 0.51573 0
M  V30 6901 O 656.948 -2.52494 -0.0181156 0
M  V30 6902 C 658.261 -0.999878 2.83589 0
M  V30 6903 C 659.809 -1.10253 2.92939 0
M  V30 6904 C 660.284 -1.38832 4.36451 0
M  V30 6905 N 661.775 -1.45694 4.3969 0
M  V30 6906 C 662.51 -1.69435 5.47795 0
M  V30 6907 N 662.006 -1.90774 6.66016 0
M  V30 6908 N 663.799 -1.71458 5.35312 0
M  V30 6909 H 655.95 0.382409 2.08929 0
M  V30 6910 H 658.213 0.108807 0.941735 0
M  V30 6911 H 657.919 -0.189723 3.51188 0
M  V30 6912 H 657.793 -1.91978 3.24691 0
M  V30 6913 H 660.18 -1.90328 2.2552 0
M  V30 6914 H 660.261 -0.160973 2.55293 0
M  V30 6915 H 659.905 -0.592741 5.04429 0
M  V30 6916 H 659.835 -2.34241 4.71634 0
M  V30 6917 H 662.326 -1.3099 3.54472 0
M  V30 6918 H 662.639 -2.08342 7.44186 0
M  V30 6919 H 660.984 -1.88037 6.69079 0
M  V30 6920 H 664.175 -1.54326 4.41929 0
M  V30 6921 H 664.348 -1.89621 6.19635 0
M  V30 6922 N 657.755 -1.42862 -0.66545 0
M  V30 6923 C 659.003 -1.43546 -1.42264 0
M  V30 6924 C 659.324 -0.0563116 -1.94919 0
M  V30 6925 O 658.594 0.906568 -1.73661 0
M  V30 6926 H 657.174 -0.528464 -0.527953 0
M  V30 6927 H 659.836 -1.78363 -0.785665 0
M  V30 6928 H 658.932 -2.14079 -2.27105 0
M  V30 6929 N 659.233 0.902656 -1.29189 0
M  V30 6930 C 660.479 1.65532 -1.17163 0
M  V30 6931 C 660.812 1.92216 0.276879 0
M  V30 6932 O 660.087 1.53048 1.20027 0
M  V30 6933 C 660.37 3.00629 -1.98228 0
M  V30 6934 C 660.223 2.81029 -3.51202 0
M  V30 6935 C 661.542 4.01321 -1.80635 0
M  V30 6936 H 658.661 0.60071 -0.426985 0
M  V30 6937 H 661.303 1.04578 -1.5863 0
M  V30 6938 H 659.453 3.52656 -1.62991 0
M  V30 6939 H 661.125 2.35927 -3.96404 0
M  V30 6940 H 659.368 2.1587 -3.76275 0
M  V30 6941 H 660.039 3.77014 -4.03192 0
M  V30 6942 H 662.515 3.58394 -2.11406 0
M  V30 6943 H 661.391 4.93792 -2.3971 0
M  V30 6944 H 661.652 4.35505 -0.760754 0
M  V30 6945 N 660.711 1.11618 1.11262 0
M  V30 6946 C 661.674 0.779447 2.15539 0
M  V30 6947 C 662.674 -0.202081 1.59525 0
M  V30 6948 O 663.864 0.0226356 1.74185 0
M  V30 6949 C 660.996 0.15674 3.40539 0
M  V30 6950 H 662.189 1.70324 2.4684 0
M  V30 6951 H 659.742 0.918298 1.26479 0
M  V30 6952 H 660.477 -0.777186 3.1485 0
M  V30 6953 H 660.262 0.863308 3.82478 0
M  V30 6954 H 661.752 -0.062661 4.17553 0
M  V30 6955 N 662.189 -1.289 0.906776 0
M  V30 6956 C 663.419 -1.99112 0.551168 0
M  V30 6957 C 663.827 -1.67998 -0.870243 0
M  V30 6958 O 663.17 -0.92525 -1.58697 0
M  V30 6959 C 663.232 -3.53162 0.672065 0
M  V30 6960 C 662.896 -4.07849 2.06174 0
M  V30 6961 C 663.893 -4.22212 3.0337 0
M  V30 6962 C 661.578 -4.4271 2.37304 0
M  V30 6963 C 663.572 -4.70678 4.29815 0
M  V30 6964 C 661.259 -4.90871 3.6399 0
M  V30 6965 C 662.257 -5.04811 4.6006 0
M  V30 6966 O 661.945 -5.51925 5.84495 0
M  V30 6967 H 661.677 -0.642728 0.209469 0
M  V30 6968 H 664.231 -1.65234 1.22012 0
M  V30 6969 H 662.461 -3.86662 -0.05394 0
M  V30 6970 H 664.15 -4.046 0.324579 0
M  V30 6971 H 664.916 -3.9556 2.80637 0
M  V30 6972 H 660.795 -4.31114 1.63283 0
M  V30 6973 H 664.339 -4.81474 5.04806 0
M  V30 6974 H 660.236 -5.16961 3.86551 0
M  V30 6975 H 661.004 -5.70225 5.87185 0
M  V30 6976 N 663.667 -0.670007 -1.42649 0
M  V30 6977 C 664.916 -0.187526 -2.00826 0
M  V30 6978 C 665.229 1.21142 -1.53571 0
M  V30 6979 O 666.435 1.79001 -2.04134 0
M  V30 6980 C 664.891 -0.284409 -3.58774 0
M  V30 6981 C 664.499 -1.6871 -4.15019 0
M  V30 6982 C 666.243 0.139605 -4.2427 0
M  V30 6983 C 664.15 -1.73701 -5.65316 0
M  V30 6984 H 663.08 -0.0663468 -0.751075 0
M  V30 6985 H 665.731 -0.834492 -1.63427 0
M  V30 6986 H 664.113 0.430364 -3.93655 0
M  V30 6987 H 665.287 -2.42857 -3.91608 0
M  V30 6988 H 663.602 -2.05855 -3.61957 0
M  V30 6989 H 666.199 0.122398 -5.3456 0
M  V30 6990 H 666.542 1.17403 -3.99402 0
M  V30 6991 H 667.075 -0.523995 -3.94334 0
M  V30 6992 H 663.814 -2.75109 -5.94975 0
M  V30 6993 H 663.334 -1.03903 -5.90732 0
M  V30 6994 H 665.013 -1.48829 -6.2965 0
M  V30 6995 N 665.145 1.52092 -0.413018 0
M  V30 6996 C 666.093 2.28681 0.425199 0
M  V30 6997 C 667.087 1.3353 1.04241 0
M  V30 6998 O 668.293 1.50973 0.980166 0
M  V30 6999 H 664.668 0.735661 0.155906 0
M  V30 7000 H 666.639 2.97418 -0.241926 0
M  V30 7001 C 665.388 3.1235 1.5275 0
M  V30 7002 H 664.711 3.85439 1.06191 0
M  V30 7003 H 666.151 3.69038 2.08774 0
M  V30 7004 C 664.61 2.26161 2.49706 0
M  V30 7005 O 665.14 1.90452 3.53682 0
M  V30 7006 N 663.346 1.89854 2.20008 0
M  V30 7007 H 662.893 2.19092 1.35486 0
M  V30 7008 H 662.851 1.3248 2.85125 0
M  V30 7009 N 666.623 0.143563 1.56945 0
M  V30 7010 C 667.586 -0.783295 2.154 0
M  V30 7011 C 668.586 -1.17763 1.09492 0
M  V30 7012 O 669.776 -1.09912 1.35148 0
M  V30 7013 C 666.908 -2.06248 2.7143 0
M  V30 7014 H 668.101 -0.274863 2.98638 0
M  V30 7015 H 665.654 -0.105859 1.55941 0
M  V30 7016 H 666.389 -2.61466 1.91849 0
M  V30 7017 H 666.174 -1.78897 3.4891 0
M  V30 7018 H 667.664 -2.72453 3.16479 0
M  V30 7019 N 668.101 -1.57061 -0.130224 0
M  V30 7020 C 669.378 -1.75205 -0.869631 0
M  V30 7021 C 669.758 -0.716063 -1.98584 0
M  V30 7022 O 669.106 0.262032 -2.26993 0
M  V30 7023 C 669.316 -3.19835 -1.39666 0
M  V30 7024 C 670.664 -3.82011 -1.85345 0
M  V30 7025 O 671.688 -3.23368 -1.49371 0
M  V30 7026 O 670.547 -4.85064 -2.51744 0
M  V30 7027 H 667.641 -0.716977 -0.412157 0
M  V30 7028 H 670.187 -1.69311 -0.11484 0
M  V30 7029 H 668.959 -3.86745 -0.595288 0
M  V30 7030 H 668.582 -3.30222 -2.21448 0
M  V30 7031 N 669.579 0.400081 -1.52437 0
M  V30 7032 C 670.804 1.17221 -1.71096 0
M  V30 7033 C 671.229 1.83269 -0.423565 0
M  V30 7034 O 670.587 1.70378 0.619751 0
M  V30 7035 C 670.635 2.20425 -2.85386 0
M  V30 7036 O 669.739 3.26769 -2.51586 0
M  V30 7037 H 669.08 0.341766 -0.569291 0
M  V30 7038 H 671.61 0.467772 -1.99181 0
M  V30 7039 H 671.62 2.64605 -3.10561 0
M  V30 7040 H 670.295 1.71737 -3.78786 0
M  V30 7041 H 668.872 2.87804 -2.37114 0
M  V30 7042 N 671.057 1.43213 0.657864 0
M  V30 7043 C 672.282 1.48227 1.45064 0
M  V30 7044 C 672.707 0.0999939 1.87834 0
M  V30 7045 O 672.065 -0.905269 1.57081 0
M  V30 7046 C 672.113 2.42931 2.6649 0
M  V30 7047 O 671.217 1.91237 3.6538 0
M  V30 7048 H 670.558 0.501551 0.435135 0
M  V30 7049 H 673.088 1.8808 0.805431 0
M  V30 7050 H 673.098 2.6008 3.1436 0
M  V30 7051 H 671.773 3.43348 2.34701 0
M  V30 7052 H 670.35 1.83726 3.24498 0
M  V30 7053 N 672.536 -0.895792 1.29666 0
M  V30 7054 C 673.785 -1.64131 1.17234 0
M  V30 7055 C 674.098 -1.93665 -0.274416 0
M  V30 7056 O 675.304 -2.66472 -0.520105 0
M  V30 7057 C 673.76 -2.95764 2.05065 0
M  V30 7058 C 673.368 -2.7381 3.54587 0
M  V30 7059 C 675.112 -3.737 2.01367 0
M  V30 7060 C 673.019 -4.01194 4.34508 0
M  V30 7061 H 671.949 -0.615742 0.435175 0
M  V30 7062 H 674.6 -0.992626 1.54335 0
M  V30 7063 H 672.982 -3.61867 1.60837 0
M  V30 7064 H 674.156 -2.16277 4.06892 0
M  V30 7065 H 672.471 -2.09265 3.59996 0
M  V30 7066 H 675.068 -4.68152 2.58337 0
M  V30 7067 H 675.411 -4.04245 0.994575 0
M  V30 7068 H 675.944 -3.14444 2.43659 0
M  V30 7069 H 672.683 -3.75813 5.37071 0
M  V30 7070 H 672.203 -4.58272 3.86971 0
M  V30 7071 H 673.882 -4.69307 4.45376 0
M  V30 7072 N 674.014 -1.12206 -1.10668 0
M  V30 7073 C 674.924 -0.800686 -2.20513 0
M  V30 7074 C 675.94 0.209512 -1.72734 0
M  V30 7075 O 677.116 0.043705 -2.01353 0
M  V30 7076 C 674.181 -0.257353 -3.45744 0
M  V30 7077 C 673.242 -1.32718 -4.0827 0
M  V30 7078 C 672.475 -0.809674 -5.27522 0
M  V30 7079 O 672.698 0.35742 -5.69279 0
M  V30 7080 O 671.632 -1.57816 -5.80842 0
M  V30 7081 H 675.458 -1.71807 -2.50432 0
M  V30 7082 H 673.043 -0.898546 -1.19359 0
M  V30 7083 H 674.925 0.0408849 -4.2138 0
M  V30 7084 H 673.6 0.632627 -3.17458 0
M  V30 7085 H 672.507 -1.67855 -3.34329 0
M  V30 7086 H 673.84 -2.19083 -4.40753 0
M  V30 7087 N 675.492 1.28418 -0.913599 0
M  V30 7088 C 676.74 1.94596 -0.545594 0
M  V30 7089 C 677.061 1.7227 0.913668 0
M  V30 7090 O 676.331 1.06233 1.64595 0
M  V30 7091 H 674.911 0.720065 -0.198783 0
M  V30 7092 H 677.573 1.56404 -1.16292 0
M  V30 7093 H 676.669 3.03202 -0.739911 0
M  V30 7094 N 676.97 0.677563 1.42291 0
M  V30 7095 C 677.918 -0.0106755 2.32598 0
M  V30 7096 C 678.912 -0.787643 1.49975 0
M  V30 7097 O 680.118 -0.695295 1.66029 0
M  V30 7098 H 676.493 -0.0222482 0.751671 0
M  V30 7099 H 678.464 0.768312 2.88339 0
M  V30 7100 C 677.213 -0.946142 3.3458 0
M  V30 7101 H 676.536 -0.357701 3.98197 0
M  V30 7102 H 677.976 -1.39634 4.00348 0
M  V30 7103 C 676.435 -2.05383 2.67057 0
M  V30 7104 O 676.965 -3.1406 2.50458 0
M  V30 7105 N 675.171 -1.82635 2.26038 0
M  V30 7106 H 674.718 -0.942534 2.39737 0
M  V30 7107 H 674.676 -2.56937 1.81192 0
M  V30 7108 N 678.448 -1.51871 0.421078 0
M  V30 7109 C 679.678 -2.06057 -0.149723 0
M  V30 7110 C 680.086 -1.29002 -1.38402 0
M  V30 7111 O 679.429 -0.338385 -1.80556 0
M  V30 7112 C 679.491 -3.55216 -0.553339 0
M  V30 7113 C 679.155 -4.53408 0.571879 0
M  V30 7114 C 680.152 -4.99586 1.4391 0
M  V30 7115 C 677.837 -4.967 0.747979 0
M  V30 7116 C 679.831 -5.87711 2.46727 0
M  V30 7117 C 677.518 -5.84619 1.77944 0
M  V30 7118 C 678.516 -6.30021 2.63748 0
M  V30 7119 O 678.204 -7.16197 3.65126 0
M  V30 7120 H 677.936 -0.675744 -0.0186102 0
M  V30 7121 H 680.49 -1.96618 0.594166 0
M  V30 7122 H 678.72 -3.62381 -1.34969 0
M  V30 7123 H 680.409 -3.91992 -1.05342 0
M  V30 7124 H 681.175 -4.66846 1.31451 0
M  V30 7125 H 677.054 -4.60913 0.0897357 0
M  V30 7126 H 680.598 -6.2307 3.13734 0
M  V30 7127 H 676.495 -6.16771 1.90429 0
M  V30 7128 H 677.263 -7.34337 3.61512 0
M  V30 7129 N 679.926 -0.151884 -1.56866 0
M  V30 7130 C 681.154 0.504813 -2.00647 0
M  V30 7131 C 681.569 1.58098 -1.03201 0
M  V30 7132 O 680.926 1.82476 -0.0297814 0
M  V30 7133 C 680.977 1.10099 -3.44326 0
M  V30 7134 O 680.698 0.0678021 -4.38048 0
M  V30 7135 C 682.199 1.83782 -4.03409 0
M  V30 7136 H 679.419 0.130989 -0.65809 0
M  V30 7137 H 681.963 -0.247903 -2.02992 0
M  V30 7138 H 680.118 1.8043 -3.42817 0
M  V30 7139 H 680.532 0.505237 -5.22061 0
M  V30 7140 H 682.006 2.2078 -5.05925 0
M  V30 7141 H 682.483 2.72557 -3.44397 0
M  V30 7142 H 683.089 1.18138 -4.08563 0
M  V30 7143 N 681.404 1.57128 0.121893 0
M  V30 7144 C 682.334 2.03165 1.15092 0
M  V30 7145 C 683.315 0.915587 1.43356 0
M  V30 7146 O 684.5 1.1851 1.53847 0
M  V30 7147 C 681.63 2.43352 2.47784 0
M  V30 7148 C 680.584 3.58376 2.33989 0
M  V30 7149 C 679.91 3.84454 3.71617 0
M  V30 7150 C 681.21 4.90199 1.80283 0
M  V30 7151 H 682.904 2.89382 0.768023 0
M  V30 7152 H 680.45 1.39218 0.367998 0
M  V30 7153 H 682.403 2.74163 3.20019 0
M  V30 7154 H 681.127 1.54103 2.87958 0
M  V30 7155 H 679.786 3.2777 1.64202 0
M  V30 7156 H 679.434 2.92414 4.09271 0
M  V30 7157 H 679.134 4.61877 3.6324 0
M  V30 7158 H 680.658 4.17714 4.45362 0
M  V30 7159 H 682.072 5.19565 2.42333 0
M  V30 7160 H 680.469 5.71601 1.82735 0
M  V30 7161 H 681.539 4.78904 0.760184 0
M  V30 7162 N 682.882 -0.391992 1.52647 0
M  V30 7163 C 684.298 -0.731848 1.41831 0
M  V30 7164 C 684.498 -1.9423 0.536361 0
M  V30 7165 O 683.554 -2.52499 0.00866571 0
M  V30 7166 C 684.867 -0.969743 2.84634 0
M  V30 7167 C 686.415 -1.0714 2.94092 0
M  V30 7168 C 686.89 -1.34195 4.37899 0
M  V30 7169 N 688.381 -1.41023 4.41211 0
M  V30 7170 C 689.116 -1.63616 5.49561 0
M  V30 7171 N 688.612 -1.83699 6.68002 0
M  V30 7172 N 690.405 -1.65771 5.371 0
M  V30 7173 H 682.556 0.404547 2.08512 0
M  V30 7174 H 684.819 0.11879 0.940528 0
M  V30 7175 H 684.525 -0.152465 3.51369 0
M  V30 7176 H 684.399 -1.88523 3.26709 0
M  V30 7177 H 686.786 -1.87925 2.27526 0
M  V30 7178 H 686.867 -0.133887 2.55449 0
M  V30 7179 H 686.511 -0.539207 5.0503 0
M  V30 7180 H 686.441 -2.29226 4.74092 0
M  V30 7181 H 688.932 -1.27223 3.55841 0
M  V30 7182 H 689.245 -2.00437 7.46354 0
M  V30 7183 H 687.59 -1.8093 6.71036 0
M  V30 7184 H 690.781 -1.4963 4.43541 0
M  V30 7185 H 690.954 -1.83038 6.21612 0
M  V30 7186 N 684.36 -1.4356 -0.65026 0
M  V30 7187 C 685.606 -1.45549 -1.41221 0
M  V30 7188 C 685.939 -0.0805472 -1.94033 0
M  V30 7189 O 685.214 0.899043 -1.72475 0
M  V30 7190 C 685.497 -2.50028 -2.59148 0
M  V30 7191 C 685.35 -3.96808 -2.1181 0
M  V30 7192 C 686.669 -2.51212 -3.61359 0
M  V30 7193 H 683.788 -0.529967 -0.512156 0
M  V30 7194 H 686.43 -1.75127 -0.736933 0
M  V30 7195 H 684.58 -2.24937 -3.16758 0
M  V30 7196 H 686.252 -4.32966 -1.59178 0
M  V30 7197 H 684.495 -4.09498 -1.43156 0
M  V30 7198 H 685.166 -4.6553 -2.96625 0
M  V30 7199 H 687.642 -2.73583 -3.13515 0
M  V30 7200 H 686.518 -3.26252 -4.41419 0
M  V30 7201 H 686.779 -1.54701 -4.1415 0
M  V30 7202 N 685.838 0.888903 -1.30139 0
M  V30 7203 C 687.115 1.62145 -1.094 0
M  V30 7204 C 687.495 2.08041 0.358091 0
M  V30 7205 O 686.843 1.84438 1.34888 0
M  V30 7206 C 687.053 2.794 -2.09133 0
M  V30 7207 C 688.401 3.49826 -2.40638 0
M  V30 7208 O 689.425 2.89583 -2.07412 0
M  V30 7209 O 688.284 4.58457 -2.97455 0
M  V30 7210 H 685.378 0.712475 -0.41989 0
M  V30 7211 H 687.924 0.936023 -1.41551 0
M  V30 7212 H 686.696 2.42762 -3.06891 0
M  V30 7213 H 686.319 3.55643 -1.77776 0
M  V30 7214 N 687.317 1.12792 1.10072 0
M  V30 7215 C 688.557 0.895691 1.8373 0
M  V30 7216 C 688.921 -0.568131 1.83402 0
M  V30 7217 O 690.122 -0.917666 2.52651 0
M  V30 7218 C 688.393 1.4593 3.2625 0
M  V30 7219 S 689.952 1.36615 4.16991 0
M  V30 7220 H 686.77 0.323017 0.633389 0
M  V30 7221 H 689.372 1.43816 1.32428 0
M  V30 7222 H 688.076 2.51818 3.24062 0
M  V30 7223 H 687.607 0.914478 3.82624 0
M  V30 7224 H 689.622 0.340131 4.95033 0
M  V30 7225 N 688.795 -1.27931 0.920396 0
M  V30 7226 C 690.023 -1.98805 0.573087 0
M  V30 7227 C 690.438 -1.68724 -0.847201 0
M  V30 7228 O 689.795 -0.943699 -1.56207 0
M  V30 7229 C 689.846 -3.52971 0.780633 0
M  V30 7230 O 689.567 -3.81994 2.14504 0
M  V30 7231 C 691.068 -4.411 0.44105 0
M  V30 7232 H 688.288 -0.634651 0.21785 0
M  V30 7233 H 690.832 -1.62965 1.23542 0
M  V30 7234 H 688.987 -3.87048 0.165204 0
M  V30 7235 H 689.401 -4.76609 2.18962 0
M  V30 7236 H 690.875 -5.48312 0.637006 0
M  V30 7237 H 691.352 -4.34758 -0.62306 0
M  V30 7238 H 691.958 -4.12532 1.0343 0
M  V30 7239 N 690.273 -0.685099 -1.4193 0
M  V30 7240 C 691.684 -0.287699 -1.8447 0
M  V30 7241 C 692.035 1.17215 -1.57338 0
M  V30 7242 O 691.16 1.89856 -1.03845 0
M  V30 7243 C 691.755 -0.515385 -3.34857 0
M  V30 7244 C 690.314 -0.172006 -3.76007 0
M  V30 7245 C 689.461 -0.802808 -2.65425 0
M  V30 7246 H 692.412 -0.88652 -1.3163 0
M  V30 7247 H 692.433 0.229251 -3.79809 0
M  V30 7248 H 691.945 -1.57796 -3.54573 0
M  V30 7249 H 690.046 0.886716 -3.61895 0
M  V30 7250 H 690.159 -0.619717 -4.75075 0
M  V30 7251 H 688.523 -0.233267 -2.5363 0
M  V30 7252 H 689.306 -1.86904 -2.87961 0
M  V30 7253 N 691.751 1.51645 -0.429126 0
M  V30 7254 C 692.681 2.30434 0.377148 0
M  V30 7255 C 693.662 1.35493 1.02838 0
M  V30 7256 O 694.847 1.6441 1.03359 0
M  V30 7257 C 691.977 3.14038 1.48315 0
M  V30 7258 C 690.931 4.1719 0.955855 0
M  V30 7259 C 690.257 4.89263 2.15698 0
M  V30 7260 C 691.557 5.223 -0.00402136 0
M  V30 7261 H 693.251 2.98085 -0.280336 0
M  V30 7262 H 690.797 1.43354 -0.136265 0
M  V30 7263 H 692.75 3.67933 2.05435 0
M  V30 7264 H 691.474 2.44193 2.16881 0
M  V30 7265 H 690.133 3.64335 0.406929 0
M  V30 7266 H 689.781 4.15929 2.82864 0
M  V30 7267 H 689.481 5.59009 1.81059 0
M  V30 7268 H 691.005 5.45978 2.73387 0
M  V30 7269 H 692.419 5.71315 0.476607 0
M  V30 7270 H 690.816 5.99525 -0.26258 0
M  V30 7271 H 691.886 4.75638 -0.943236 0
M  V30 7272 N 693.229 0.160201 1.56784 0
M  V30 7273 C 694.162 -0.812797 2.13234 0
M  V30 7274 C 695.14 -1.2335 1.05942 0
M  V30 7275 O 696.324 -1.32725 1.33852 0
M  V30 7276 C 693.451 -2.09311 2.66283 0
M  V30 7277 C 692.497 -1.8173 3.85845 0
M  V30 7278 S 693.33 -0.996473 5.26147 0
M  V30 7279 C 694.486 -2.28769 5.82594 0
M  V30 7280 H 694.719 -0.332794 2.95432 0
M  V30 7281 H 692.252 -0.0542971 1.54304 0
M  V30 7282 H 694.21 -2.82854 2.97496 0
M  V30 7283 H 692.871 -2.54425 1.84192 0
M  V30 7284 H 692.064 -2.76699 4.21253 0
M  V30 7285 H 691.666 -1.16289 3.55462 0
M  V30 7286 H 693.958 -3.24319 5.9483 0
M  V30 7287 H 694.901 -1.97846 6.79899 0
M  V30 7288 H 695.309 -2.40021 5.10931 0
M  V30 7289 N 694.707 -1.5719 -0.113559 0
M  V30 7290 C 695.937 -1.89053 -0.833212 0
M  V30 7291 C 696.345 -0.750139 -1.73694 0
M  V30 7292 O 695.688 0.287808 -1.81431 0
M  V30 7293 C 695.75 -3.15986 -1.71443 0
M  V30 7294 C 695.414 -4.46271 -0.984449 0
M  V30 7295 C 696.411 -5.18897 -0.322741 0
M  V30 7296 C 694.096 -4.92963 -0.964011 0
M  V30 7297 C 696.09 -6.3644 0.349646 0
M  V30 7298 C 693.777 -6.10422 -0.287828 0
M  V30 7299 C 694.775 -6.82009 0.36784 0
M  V30 7300 O 694.463 -7.97233 1.03322 0
M  V30 7301 H 694.195 -0.630225 -0.244526 0
M  V30 7302 H 696.749 -2.05152 -0.100847 0
M  V30 7303 H 694.979 -2.95984 -2.48858 0
M  V30 7304 H 696.668 -3.33826 -2.309 0
M  V30 7305 H 697.434 -4.83875 -0.330114 0
M  V30 7306 H 693.313 -4.37143 -1.46379 0
M  V30 7307 H 696.857 -6.92254 0.861996 0
M  V30 7308 H 692.754 -6.449 -0.278237 0
M  V30 7309 H 693.522 -8.13105 0.938247 0
M  V30 7310 N 696.185 0.383891 -1.52853 0
M  V30 7311 C 697.41 1.154 -1.7233 0
M  V30 7312 C 697.835 1.82809 -0.44298 0
M  V30 7313 O 697.193 1.71026 0.601645 0
M  V30 7314 C 697.241 2.17386 -2.87708 0
M  V30 7315 O 696.345 3.24082 -2.55038 0
M  V30 7316 H 695.686 0.335709 -0.572883 0
M  V30 7317 H 698.216 0.44662 -1.99666 0
M  V30 7318 H 698.226 2.61296 -3.1335 0
M  V30 7319 H 696.901 1.6771 -3.80587 0
M  V30 7320 H 695.478 2.85273 -2.40153 0
M  V30 7321 N 697.663 1.43903 0.642637 0
M  V30 7322 C 698.593 1.52697 1.76652 0
M  V30 7323 C 699.574 0.380816 1.65782 0
M  V30 7324 O 700.759 0.599432 1.84717 0
M  V30 7325 C 697.889 1.45975 3.15133 0
M  V30 7326 C 696.843 2.58949 3.40778 0
M  V30 7327 C 696.169 2.37279 4.79169 0
M  V30 7328 C 697.469 4.01153 3.34475 0
M  V30 7329 H 699.163 2.46766 1.69549 0
M  V30 7330 H 696.709 1.18767 0.814279 0
M  V30 7331 H 698.662 1.5073 3.93521 0
M  V30 7332 H 697.386 0.484162 3.22991 0
M  V30 7333 H 696.045 2.53564 2.64765 0
M  V30 7334 H 695.693 1.37939 4.83717 0
M  V30 7335 H 695.393 3.13016 4.97287 0
M  V30 7336 H 696.917 2.43834 5.59801 0
M  V30 7337 H 698.331 4.07968 4.02784 0
M  V30 7338 H 696.728 4.77001 3.64129 0
M  V30 7339 H 697.798 4.25539 2.32475 0
M  V30 7340 N 699.141 -0.881989 1.30609 0
M  V30 7341 C 700.387 -1.63647 1.19781 0
M  V30 7342 C 700.72 -1.92632 -0.246265 0
M  V30 7343 O 699.995 -1.54938 -1.17577 0
M  V30 7344 C 700.278 -2.97437 2.02985 0
M  V30 7345 C 700.131 -2.75406 3.55628 0
M  V30 7346 C 701.45 -3.98397 1.86997 0
M  V30 7347 H 698.569 -0.593841 0.436488 0
M  V30 7348 H 701.211 -1.02041 1.60273 0
M  V30 7349 H 699.361 -3.50018 1.68581 0
M  V30 7350 H 701.033 -2.2959 4.00107 0
M  V30 7351 H 699.276 -2.09856 3.79662 0
M  V30 7352 H 699.947 -3.70552 4.09139 0
M  V30 7353 H 702.423 -3.54986 2.17081 0
M  V30 7354 H 701.299 -4.89916 2.47536 0
M  V30 7355 H 701.56 -4.3424 0.829943 0
M  V30 7356 N 700.619 -1.13374 -1.09472 0
M  V30 7357 C 701.569 -0.77946 -2.14263 0
M  V30 7358 C 702.553 0.226271 -1.59301 0
M  V30 7359 O 703.745 0.0302581 -1.76974 0
M  V30 7360 C 700.874 -0.246635 -3.42413 0
M  V30 7361 C 699.96 -1.28124 -4.04283 0
M  V30 7362 N 700.351 -2.48201 -4.40715 0
M  V30 7363 C 698.649 -1.12892 -4.31476 0
M  V30 7364 C 699.35 -3.14347 -4.8945 0
M  V30 7365 N 698.326 -2.41771 -4.86876 0
M  V30 7366 H 702.128 -1.69305 -2.40235 0
M  V30 7367 H 699.642 -1.01598 -1.26695 0
M  V30 7368 H 701.639 0.0254131 -4.16892 0
M  V30 7369 H 700.299 0.661287 -3.17895 0
M  V30 7370 H 701.31 -2.85511 -4.32093 0
M  V30 7371 H 697.987 -0.279117 -4.16566 0
M  V30 7372 H 699.377 -4.16663 -5.27107 0
M  V30 7373 N 702.098 1.27442 -0.927168 0
M  V30 7374 C 703.046 2.28844 -0.416333 0
M  V30 7375 C 704.04 1.61882 0.499057 0
M  V30 7376 O 705.246 1.75969 0.378817 0
M  V30 7377 H 701.621 0.742989 -0.116065 0
M  V30 7378 H 703.592 2.69344 -1.28438 0
M  V30 7379 C 702.341 3.4626 0.316107 0
M  V30 7380 H 701.664 3.97999 -0.379082 0
M  V30 7381 H 703.104 4.19173 0.637975 0
M  V30 7382 C 701.563 3.00211 1.5289 0
M  V30 7383 O 702.093 3.03837 2.62766 0
M  V30 7384 N 700.299 2.55713 1.38054 0
M  V30 7385 H 699.846 2.52962 0.4866 0
M  V30 7386 H 699.804 2.25264 2.19325 0
M  V30 7387 N 703.576 0.692616 1.41565 0
M  V30 7388 C 704.506 0.0397325 2.33466 0
M  V30 7389 C 705.487 -0.770334 1.51657 0
M  V30 7390 O 706.672 -0.723903 1.80203 0
M  V30 7391 C 703.802 -0.899495 3.3545 0
M  V30 7392 C 702.756 -0.196738 4.27548 0
M  V30 7393 C 702.082 -1.25012 5.19881 0
M  V30 7394 C 703.382 0.935158 5.1386 0
M  V30 7395 H 705.076 0.807296 2.88311 0
M  V30 7396 H 702.622 0.389665 1.38628 0
M  V30 7397 H 704.575 -1.36545 3.98665 0
M  V30 7398 H 703.299 -1.69869 2.78948 0
M  V30 7399 H 701.958 0.249158 3.65752 0
M  V30 7400 H 701.606 -2.04177 4.59696 0
M  V30 7401 H 701.306 -0.784931 5.82334 0
M  V30 7402 H 702.83 -1.71665 5.85972 0
M  V30 7403 H 704.244 0.549619 5.70659 0
M  V30 7404 H 702.641 1.32726 5.85238 0
M  V30 7405 H 703.711 1.77613 4.512 0
M  V30 7406 N 705.054 -1.51416 0.437162 0
M  V30 7407 C 706.282 -2.06503 -0.128045 0
M  V30 7408 C 706.697 -1.30461 -1.36475 0
M  V30 7409 O 706.054 -0.364127 -1.78831 0
M  V30 7410 C 706.105 -3.58683 -0.450437 0
M  V30 7411 O 705.826 -4.31853 0.737186 0
M  V30 7412 C 707.327 -4.30284 -1.06633 0
M  V30 7413 H 704.547 -0.670952 -0.00800269 0
M  V30 7414 H 707.091 -1.94996 0.616193 0
M  V30 7415 H 705.246 -3.70106 -1.14457 0
M  V30 7416 H 705.66 -5.22467 0.461347 0
M  V30 7417 H 707.134 -5.37848 -1.24191 0
M  V30 7418 H 707.611 -3.88564 -2.0473 0
M  V30 7419 H 708.217 -4.23304 -0.411585 0
M  V30 7420 N 706.532 -0.168513 -1.56696 0
M  V30 7421 C 707.479 0.762875 -2.17828 0
M  V30 7422 C 708.449 1.22892 -1.11745 0
M  V30 7423 O 709.634 1.29759 -1.39883 0
M  V30 7424 C 706.774 1.9879 -2.82093 0
M  V30 7425 C 705.887 1.56568 -4.02629 0
M  V30 7426 C 705.022 2.74416 -4.54829 0
M  V30 7427 C 704.061 2.28671 -5.67782 0
M  V30 7428 N 703.198 3.39602 -6.14504 0
M  V30 7429 H 708.038 0.23479 -2.97074 0
M  V30 7430 H 705.575 0.104163 -1.46731 0
M  V30 7431 H 707.533 2.70636 -3.17509 0
M  V30 7432 H 706.163 2.48973 -2.05456 0
M  V30 7433 H 705.215 0.744067 -3.73052 0
M  V30 7434 H 706.527 1.18988 -4.844 0
M  V30 7435 H 705.681 3.54423 -4.92412 0
M  V30 7436 H 704.42 3.15254 -3.7211 0
M  V30 7437 H 703.425 1.4711 -5.29753 0
M  V30 7438 H 704.65 1.88894 -6.52301 0
M  V30 7439 H 702.596 3.80021 -5.34715 0
M  V30 7440 H 702.513 3.06105 -6.91257 0
M  V30 7441 H 703.781 4.19902 -6.56737 0
M  V30 7442 N 708.01 1.57248 0.105221 0
M  V30 7443 C 708.92 2.04653 1.14693 0
M  V30 7444 C 709.936 0.969488 1.44489 0
M  V30 7445 O 711.112 1.28196 1.55331 0
M  V30 7446 C 708.177 2.45297 2.45011 0
M  V30 7447 C 707.238 3.67148 2.22489 0
M  V30 7448 C 706.471 4.05844 3.46592 0
M  V30 7449 O 706.694 3.44736 4.54437 0
M  V30 7450 O 705.628 4.98862 3.36779 0
M  V30 7451 H 709.454 2.93663 0.774336 0
M  V30 7452 H 707.039 1.45998 0.31701 0
M  V30 7453 H 708.921 2.72112 3.21766 0
M  V30 7454 H 707.596 1.59429 2.81717 0
M  V30 7455 H 706.503 3.45463 1.43547 0
M  V30 7456 H 707.836 4.53764 1.9068 0
M  V30 7457 N 709.488 -0.375779 1.53054 0
M  V30 7458 C 710.418 -1.46598 1.81745 0
M  V30 7459 C 711.399 -1.56337 0.670286 0
M  V30 7460 O 712.584 -1.71071 0.919158 0
M  V30 7461 C 709.714 -2.84058 1.99821 0
M  V30 7462 C 708.668 -2.8915 3.15557 0
M  V30 7463 C 707.994 -4.29187 3.18908 0
M  V30 7464 C 709.294 -2.57595 4.54359 0
M  V30 7465 H 710.988 -1.22837 2.73041 0
M  V30 7466 H 708.534 -0.589485 1.31381 0
M  V30 7467 H 710.487 -3.60342 2.18475 0
M  V30 7468 H 709.211 -3.09184 1.05226 0
M  V30 7469 H 707.87 -2.15316 2.96706 0
M  V30 7470 H 707.518 -4.51374 2.2197 0
M  V30 7471 H 707.218 -4.33512 3.96662 0
M  V30 7472 H 708.742 -5.07359 3.39734 0
M  V30 7473 H 710.156 -3.23595 4.73243 0
M  V30 7474 H 708.553 -2.73252 5.34279 0
M  V30 7475 H 709.623 -1.52882 4.60169 0
M  V30 7476 N 710.966 -1.44241 -0.634997 0
M  V30 7477 C 711.913 -1.5081 -1.74714 0
M  V30 7478 C 712.883 -0.356147 -1.62237 0
M  V30 7479 O 714.068 -0.565848 -1.82216 0
M  V30 7480 C 711.208 -1.45458 -3.12947 0
M  V30 7481 C 710.321 -2.70998 -3.36428 0
M  V30 7482 C 709.456 -2.57507 -4.64611 0
M  V30 7483 C 708.495 -3.78229 -4.81258 0
M  V30 7484 N 707.632 -3.63438 -6.00714 0
M  V30 7485 H 712.472 -2.45832 -1.68436 0
M  V30 7486 H 710.009 -1.2201 -0.821706 0
M  V30 7487 H 711.967 -1.40347 -3.92885 0
M  V30 7488 H 710.597 -0.540058 -3.1825 0
M  V30 7489 H 709.649 -2.86312 -2.50458 0
M  V30 7490 H 710.961 -3.60619 -3.44609 0
M  V30 7491 H 710.115 -2.50207 -5.52703 0
M  V30 7492 H 708.854 -1.65441 -4.58782 0
M  V30 7493 H 707.859 -3.85918 -3.91596 0
M  V30 7494 H 709.084 -4.71327 -4.88904 0
M  V30 7495 H 707.03 -2.7412 -5.95982 0
M  V30 7496 H 706.947 -4.46672 -6.09934 0
M  V30 7497 H 708.215 -3.60022 -6.91378 0
M  V30 7498 N 712.444 0.87505 -1.31075 0
M  V30 7499 C 713.669 1.66583 -1.23551 0
M  V30 7500 C 714.094 1.87067 0.19686 0
M  V30 7501 O 713.452 1.40877 1.1412 0
M  V30 7502 C 713.5 3.01401 -1.97965 0
M  V30 7503 O 712.604 3.90923 -1.31351 0
M  V30 7504 H 711.945 0.508645 -0.426821 0
M  V30 7505 H 714.475 1.09139 -1.7306 0
M  V30 7506 H 714.485 3.51374 -2.07366 0
M  V30 7507 H 713.16 2.85812 -3.02133 0
M  V30 7508 H 711.737 3.49369 -1.30368 0
M  V30 7509 N 713.922 1.13953 1.08869 0
M  V30 7510 C 715.333 0.916649 1.62648 0
M  V30 7511 C 715.684 -0.545589 1.88462 0
M  V30 7512 O 714.809 -1.41351 1.63856 0
M  V30 7513 C 715.404 1.65751 2.95486 0
M  V30 7514 C 713.963 1.48034 3.46068 0
M  V30 7515 C 713.11 1.68305 2.20383 0
M  V30 7516 H 716.061 1.292 0.921572 0
M  V30 7517 H 716.082 1.11794 3.63707 0
M  V30 7518 H 715.594 2.72171 2.76667 0
M  V30 7519 H 713.695 0.439416 3.7 0
M  V30 7520 H 713.808 2.24719 4.23129 0
M  V30 7521 H 712.172 1.10833 2.29321 0
M  V30 7522 H 712.955 2.76057 2.04077 0
M  V30 7523 N 715.4 -1.26948 0.933913 0
M  V30 7524 C 716.677 -1.89212 0.495784 0
M  V30 7525 C 717.057 -1.84469 -1.02637 0
M  V30 7526 O 716.405 -1.29409 -1.88323 0
M  V30 7527 C 716.615 -3.32865 1.0489 0
M  V30 7528 C 717.963 -4.09749 1.11315 0
M  V30 7529 O 718.987 -3.41905 0.998966 0
M  V30 7530 O 717.846 -5.31061 1.28983 0
M  V30 7531 H 714.94 -0.811284 0.160459 0
M  V30 7532 H 717.486 -1.35171 1.02601 0
M  V30 7533 H 716.258 -3.30642 2.09265 0
M  V30 7534 H 715.881 -3.94435 0.500692 0
M  V30 7535 N 716.879 -0.700114 -1.41195 0
M  V30 7536 C 717.789 -0.0382854 -2.34569 0
M  V30 7537 C 718.805 0.761036 -1.56474 0
M  V30 7538 O 719.981 0.697553 -1.88934 0
M  V30 7539 C 717.046 0.883522 -3.35253 0
M  V30 7540 C 716.107 0.0758957 -4.29233 0
M  V30 7541 C 715.34 0.9538 -5.25108 0
M  V30 7542 O 715.563 2.19326 -5.26547 0
M  V30 7543 O 714.497 0.401049 -6.00562 0
M  V30 7544 H 718.323 -0.808073 -2.92752 0
M  V30 7545 H 715.908 -0.460479 -1.42127 0
M  V30 7546 H 717.79 1.41199 -3.9704 0
M  V30 7547 H 716.465 1.63272 -2.79506 0
M  V30 7548 H 715.372 -0.497274 -3.7078 0
M  V30 7549 H 716.705 -0.634741 -4.8809 0
M  V30 7550 N 718.357 1.51182 -0.445186 0
M  V30 7551 C 719.605 2.01753 0.11841 0
M  V30 7552 C 719.926 1.33087 1.42523 0
M  V30 7553 O 719.196 0.467891 1.9023 0
M  V30 7554 H 717.776 0.745536 0.0467492 0
M  V30 7555 H 720.438 1.85765 -0.589688 0
M  V30 7556 H 719.534 3.10762 0.288665 0
M  V30 7557 N 719.835 0.176821 1.56605 0
M  V30 7558 C 721.082 -0.466715 1.97048 0
M  V30 7559 C 721.41 -1.6288 1.06302 0
M  V30 7560 O 720.665 -1.95453 0.0982571 0
M  V30 7561 C 720.964 -0.986208 3.43524 0
M  V30 7562 C 720.63 0.0605667 4.50859 0
M  V30 7563 C 719.292 0.348242 4.79938 0
M  V30 7564 C 721.644 0.770794 5.15469 0
M  V30 7565 C 718.972 1.35144 5.70923 0
M  V30 7566 C 721.324 1.76301 6.07537 0
M  V30 7567 C 719.988 2.05808 6.3498 0
M  V30 7568 H 719.258 -0.170783 0.721051 0
M  V30 7569 H 721.905 0.269942 1.89588 0
M  V30 7570 H 720.21 -1.80079 3.47964 0
M  V30 7571 H 721.907 -1.49323 3.72161 0
M  V30 7572 H 718.497 -0.173823 4.28247 0
M  V30 7573 H 722.681 0.56176 4.9311 0
M  V30 7574 H 717.937 1.58616 5.90467 0
M  V30 7575 H 722.111 2.31868 6.56666 0
M  V30 7576 H 719.738 2.8369 7.05283 0
M  V30 7577 N 721.313 -1.57302 -0.09688 0
M  V30 7578 C 722.223 -2.05258 -1.13606 0
M  V30 7579 C 723.239 -0.977137 -1.43972 0
M  V30 7580 O 724.415 -1.29018 -1.54649 0
M  V30 7581 C 721.48 -2.46593 -2.43706 0
M  V30 7582 C 720.541 -3.68322 -2.20538 0
M  V30 7583 C 719.774 -4.07676 -3.44435 0
M  V30 7584 O 719.997 -3.47141 -4.52603 0
M  V30 7585 O 718.931 -5.00641 -3.34129 0
M  V30 7586 H 722.757 -2.94069 -0.758752 0
M  V30 7587 H 720.342 -1.46164 -0.309263 0
M  V30 7588 H 722.224 -2.73814 -3.20318 0
M  V30 7589 H 720.899 -1.6092 -2.80867 0
M  V30 7590 H 719.806 -3.4622 -1.41713 0
M  V30 7591 H 721.139 -4.54769 -1.88271 0
M  V30 7592 N 722.791 0.367657 -1.53252 0
M  V30 7593 C 724.039 1.10832 -1.68999 0
M  V30 7594 C 724.36 1.89894 -0.443306 0
M  V30 7595 O 723.63 1.88235 0.54262 0
M  V30 7596 H 722.21 0.412153 -0.623008 0
M  V30 7597 H 724.872 0.414775 -1.90435 0
M  V30 7598 H 723.968 1.7993 -2.55013 0
M  V30 7599 N 724.269 1.44576 0.627338 0
M  V30 7600 C 725.216 1.51734 1.73912 0
M  V30 7601 C 726.186 0.364745 1.62046 0
M  V30 7602 O 727.371 0.575503 1.81914 0
M  V30 7603 C 724.511 1.47116 3.12171 0
M  V30 7604 C 723.624 2.72778 3.34986 0
M  V30 7605 C 722.759 2.59968 4.63239 0
M  V30 7606 C 721.798 3.80776 4.79245 0
M  V30 7607 N 720.935 3.66618 5.98778 0
M  V30 7608 H 725.775 2.46722 1.6713 0
M  V30 7609 H 723.312 1.22444 0.815224 0
M  V30 7610 H 725.27 1.42429 3.92135 0
M  V30 7611 H 723.9 0.556928 3.17959 0
M  V30 7612 H 722.952 2.87637 2.48936 0
M  V30 7613 H 724.264 3.62441 3.42692 0
M  V30 7614 H 723.418 2.53135 5.51369 0
M  V30 7615 H 722.157 1.67872 4.57898 0
M  V30 7616 H 721.162 3.87989 3.89544 0
M  V30 7617 H 722.387 4.73913 4.86398 0
M  V30 7618 H 720.333 2.77277 5.9452 0
M  V30 7619 H 720.25 4.499 6.07557 0
M  V30 7620 H 721.518 3.63684 6.89459 0
M  V30 7621 N 725.747 -0.868086 1.31537 0
M  V30 7622 C 726.972 -1.65926 1.24432 0
M  V30 7623 C 727.397 -1.87169 -0.186936 0
M  V30 7624 O 726.755 -1.4148 -1.13371 0
M  V30 7625 C 726.803 -3.00347 1.9956 0
M  V30 7626 O 725.907 -3.90221 1.33422 0
M  V30 7627 H 725.248 -0.506375 0.429512 0
M  V30 7628 H 727.778 -1.0822 1.73637 0
M  V30 7629 H 727.788 -3.50269 2.09226 0
M  V30 7630 H 726.463 -2.84205 3.03645 0
M  V30 7631 H 725.04 -3.48672 1.32219 0
M  V30 7632 N 727.225 -1.14528 -1.08264 0
M  V30 7633 C 728.155 -0.856356 -2.1723 0
M  V30 7634 C 729.136 0.189251 -1.69044 0
M  V30 7635 O 730.321 0.0456119 -1.94146 0
M  V30 7636 C 727.451 -0.334662 -3.45684 0
M  V30 7637 C 726.405 -1.31588 -4.0727 0
M  V30 7638 C 725.731 -0.653428 -5.30692 0
M  V30 7639 C 727.031 -2.67866 -4.48381 0
M  V30 7640 H 728.725 -1.76755 -2.41657 0
M  V30 7641 H 726.271 -0.851287 -1.16143 0
M  V30 7642 H 728.224 -0.120128 -4.21229 0
M  V30 7643 H 726.948 0.611967 -3.20815 0
M  V30 7644 H 725.607 -1.51661 -3.33758 0
M  V30 7645 H 725.255 0.299054 -5.0211 0
M  V30 7646 H 724.955 -1.30817 -5.72853 0
M  V30 7647 H 726.479 -0.448453 -6.08951 0
M  V30 7648 H 727.893 -2.51692 -5.15096 0
M  V30 7649 H 726.29 -3.29627 -5.01464 0
M  V30 7650 H 727.36 -3.24632 -3.60198 0
M  V30 7651 N 728.703 1.26451 -0.940633 0
M  V30 7652 C 729.933 1.97581 -0.603766 0
M  V30 7653 C 730.341 1.70246 0.825395 0
M  V30 7654 O 729.684 0.967001 1.56188 0
M  V30 7655 C 729.746 3.51256 -0.765463 0
M  V30 7656 C 729.41 4.0224 -2.16915 0
M  V30 7657 C 730.407 4.1402 -3.14457 0
M  V30 7658 C 728.092 4.36263 -2.48958 0
M  V30 7659 C 730.086 4.59117 -4.42143 0
M  V30 7660 C 727.773 4.81048 -3.76877 0
M  V30 7661 C 728.771 4.92436 -4.73282 0
M  V30 7662 O 728.459 5.36234 -5.98923 0
M  V30 7663 H 728.191 0.636948 -0.226436 0
M  V30 7664 H 730.745 1.61941 -1.2635 0
M  V30 7665 H 728.975 3.86669 -0.0485956 0
M  V30 7666 H 730.664 4.03597 -0.431738 0
M  V30 7667 H 731.43 3.87981 -2.91026 0
M  V30 7668 H 727.309 4.26634 -1.74656 0
M  V30 7669 H 730.853 4.6792 -5.17394 0
M  V30 7670 H 726.75 5.06531 -4.00121 0
M  V30 7671 H 727.518 5.54456 -6.02097 0
M  V30 7672 N 730.181 0.707592 1.40822 0
M  V30 7673 C 731.091 0.0507246 2.34545 0
M  V30 7674 C 732.107 -0.752727 1.56876 0
M  V30 7675 O 733.283 -0.687524 1.89302 0
M  V30 7676 C 730.348 -0.865731 3.35717 0
M  V30 7677 C 729.409 -0.0531313 4.29267 0
M  V30 7678 C 728.642 -0.925939 5.25606 0
M  V30 7679 O 728.865 -2.16531 5.27703 0
M  V30 7680 O 727.799 -0.369194 6.00767 0
M  V30 7681 H 731.625 0.823587 2.9232 0
M  V30 7682 H 729.21 0.46801 1.4188 0
M  V30 7683 H 731.092 -1.39091 3.97783 0
M  V30 7684 H 729.767 -1.61788 2.80368 0
M  V30 7685 H 728.674 0.516931 3.70511 0
M  V30 7686 H 730.007 0.660617 4.87747 0
M  V30 7687 N 731.66 -1.50943 0.453197 0
M  V30 7688 C 732.885 -2.07116 -0.108463 0
M  V30 7689 C 733.31 -1.31681 -1.3432 0
M  V30 7690 O 732.668 -0.359256 -1.77705 0
M  V30 7691 C 732.716 -3.58447 -0.393424 0
M  V30 7692 O 731.82 -3.85038 -1.47714 0
M  V30 7693 H 731.161 -0.66398 0.0050993 0
M  V30 7694 H 733.691 -1.94362 0.639095 0
M  V30 7695 H 733.701 -4.02961 -0.639222 0
M  V30 7696 H 732.376 -4.12774 0.508946 0
M  V30 7697 H 730.953 -3.52376 -1.22006 0
M  V30 7698 N 733.138 -0.185124 -1.56509 0
M  V30 7699 C 734.384 0.450356 -1.98352 0
M  V30 7700 C 734.739 1.59923 -1.06969 0
M  V30 7701 O 734.032 1.91272 -0.112084 0
M  V30 7702 C 734.226 0.967977 -3.44042 0
M  V30 7703 C 734.055 -0.129208 -4.49514 0
M  V30 7704 C 732.825 -0.58351 -5.0192 0
M  V30 7705 C 735.023 -0.93459 -5.05737 0
M  V30 7706 N 733.005 -1.65956 -5.91043 0
M  V30 7707 C 734.376 -1.86026 -5.91434 0
M  V30 7708 C 736.431 -0.978125 -4.88198 0
M  V30 7709 C 735.134 -2.82582 -6.61468 0
M  V30 7710 C 737.16 -1.93169 -5.58963 0
M  V30 7711 C 736.522 -2.84481 -6.44399 0
M  V30 7712 H 732.621 0.132504 -0.770692 0
M  V30 7713 H 735.205 -0.288523 -1.9255 0
M  V30 7714 H 733.376 1.67633 -3.50362 0
M  V30 7715 H 735.108 1.57323 -3.72869 0
M  V30 7716 H 731.863 -0.178676 -4.73263 0
M  V30 7717 H 732.287 -2.19848 -6.40309 0
M  V30 7718 H 736.929 -0.286169 -4.2183 0
M  V30 7719 H 734.647 -3.52758 -7.2704 0
M  V30 7720 H 738.233 -1.97166 -5.47373 0
M  V30 7721 H 737.113 -3.57065 -6.98194 0
M  V30 7722 N 734.616 1.57351 0.0885366 0
M  V30 7723 C 735.844 1.90631 0.804196 0
M  V30 7724 C 736.259 0.779474 1.71958 0
M  V30 7725 O 735.616 -0.248179 1.80805 0
M  V30 7726 C 735.667 3.23568 1.61202 0
M  V30 7727 O 735.388 4.31917 0.733447 0
M  V30 7728 C 736.889 3.70753 2.43016 0
M  V30 7729 H 734.109 0.630501 0.229585 0
M  V30 7730 H 736.653 2.044 0.0638092 0
M  V30 7731 H 734.808 3.11377 2.30485 0
M  V30 7732 H 735.222 5.08297 1.29361 0
M  V30 7733 H 736.696 4.66447 2.9518 0
M  V30 7734 H 737.173 2.98922 3.2178 0
M  V30 7735 H 737.779 3.85834 1.7892 0
M  V30 7736 N 736.094 -0.359525 1.53444 0
M  V30 7737 C 737.041 -1.44073 1.8031 0
M  V30 7738 C 738.011 -1.52946 0.647811 0
M  V30 7739 O 739.196 -1.68739 0.890614 0
M  V30 7740 C 736.336 -2.80941 2.00416 0
M  V30 7741 C 735.449 -2.80986 3.28132 0
M  V30 7742 C 734.584 -4.09468 3.38393 0
M  V30 7743 C 733.623 -4.03679 4.60119 0
M  V30 7744 N 732.76 -5.23821 4.675 0
M  V30 7745 H 737.6 -1.20464 2.72566 0
M  V30 7746 H 735.137 -0.583859 1.35017 0
M  V30 7747 H 737.095 -3.60459 2.1006 0
M  V30 7748 H 735.725 -3.02936 1.11489 0
M  V30 7749 H 734.777 -1.93666 3.27411 0
M  V30 7750 H 736.089 -2.72583 4.17732 0
M  V30 7751 H 735.243 -4.97404 3.47382 0
M  V30 7752 H 733.982 -4.20632 2.4682 0
M  V30 7753 H 732.987 -3.14129 4.51224 0
M  V30 7754 H 734.212 -3.94112 5.5304 0
M  V30 7755 H 732.158 -5.35559 3.7883 0
M  V30 7756 H 732.075 -5.17611 5.51013 0
M  V30 7757 H 733.343 -6.13572 4.8078 0
M  V30 7758 N 737.572 -1.44907 -0.619662 0
M  V30 7759 C 738.519 -1.52654 -1.73105 0
M  V30 7760 C 739.489 -0.373334 -1.6185 0
M  V30 7761 O 740.674 -0.585143 -1.81606 0
M  V30 7762 C 737.814 -1.48769 -3.11387 0
M  V30 7763 C 736.927 -2.74551 -3.33535 0
M  V30 7764 C 736.062 -2.62421 -4.61854 0
M  V30 7765 C 735.101 -3.83312 -4.77219 0
M  V30 7766 N 734.238 -3.69789 -5.96826 0
M  V30 7767 H 739.078 -2.47605 -1.65819 0
M  V30 7768 H 736.615 -1.22875 -0.808719 0
M  V30 7769 H 738.573 -1.44507 -3.91374 0
M  V30 7770 H 737.203 -0.573783 -3.1766 0
M  V30 7771 H 736.255 -2.88953 -2.47408 0
M  V30 7772 H 737.567 -3.64253 -3.40765 0
M  V30 7773 H 736.721 -2.56056 -5.50019 0
M  V30 7774 H 735.46 -1.70298 -4.57001 0
M  V30 7775 H 734.465 -3.90049 -3.87481 0
M  V30 7776 H 735.69 -4.76486 -4.83878 0
M  V30 7777 H 733.636 -2.80426 -5.93041 0
M  V30 7778 H 733.553 -4.53116 -6.05163 0
M  V30 7779 H 734.821 -3.67335 -6.87521 0
M  V30 7780 N 739.05 0.861098 -1.31996 0
M  V30 7781 C 740.275 1.65264 -1.2531 0
M  V30 7782 C 740.7 1.87265 0.177007 0
M  V30 7783 O 740.058 1.4208 1.12619 0
M  V30 7784 C 740.106 2.99284 -2.0115 0
M  V30 7785 O 739.21 3.89508 -1.3549 0
M  V30 7786 H 738.551 0.50409 -0.432192 0
M  V30 7787 H 741.081 1.07297 -1.74208 0
M  V30 7788 H 741.091 3.49154 -2.11081 0
M  V30 7789 H 739.766 2.82591 -3.05148 0
M  V30 7790 H 738.343 3.47966 -1.34066 0
M  V30 7791 N 740.528 1.15101 1.07655 0
M  V30 7792 C 741.939 0.933848 1.61667 0
M  V30 7793 C 742.29 -0.525569 1.8903 0
M  V30 7794 O 741.415 -1.39605 1.65346 0
M  V30 7795 C 742.01 1.68876 2.93711 0
M  V30 7796 C 740.569 1.51697 3.44478 0
M  V30 7797 C 739.716 1.70633 2.18586 0
M  V30 7798 H 742.667 1.30171 0.907816 0
M  V30 7799 H 742.688 1.15645 3.625 0
M  V30 7800 H 742.2 2.7509 2.73764 0
M  V30 7801 H 740.301 0.478635 3.69513 0
M  V30 7802 H 740.414 2.29194 4.20722 0
M  V30 7803 H 738.778 1.13259 2.28132 0
M  V30 7804 H 739.561 2.78206 2.01137 0
M  V30 7805 N 742.006 -1.2595 0.947325 0
M  V30 7806 C 743.231 -1.98083 0.614633 0
M  V30 7807 C 743.656 -1.70013 -0.804815 0
M  V30 7808 O 743.014 -0.95175 -1.54309 0
M  V30 7809 C 743.062 -3.4993 0.870706 0
M  V30 7810 O 742.166 -4.12364 -0.0541451 0
M  V30 7811 H 741.507 -0.621232 0.234451 0
M  V30 7812 H 744.037 -1.60259 1.27193 0
M  V30 7813 H 744.047 -4.00198 0.794051 0
M  V30 7814 H 742.722 -3.69691 1.90529 0
M  V30 7815 H 741.299 -3.72826 0.0740917 0
M  V30 7816 N 743.484 -0.715051 -1.40445 0
M  V30 7817 C 744.895 -0.326763 -1.83818 0
M  V30 7818 C 745.246 1.13851 -1.59789 0
M  V30 7819 O 744.371 1.87611 -1.07848 0
M  V30 7820 C 744.966 -0.586297 -3.33688 0
M  V30 7821 C 743.525 -0.251724 -3.75557 0
M  V30 7822 C 742.672 -0.858928 -2.63662 0
M  V30 7823 H 745.623 -0.914241 -1.2972 0
M  V30 7824 H 745.644 0.148636 -3.8021 0
M  V30 7825 H 745.156 -1.65281 -3.51146 0
M  V30 7826 H 743.257 0.809754 -3.63695 0
M  V30 7827 H 743.37 -0.720348 -4.73654 0
M  V30 7828 H 741.734 -0.287013 -2.53078 0
M  V30 7829 H 742.517 -1.9297 -2.83932 0
M  V30 7830 N 744.962 1.50701 -0.461195 0
M  V30 7831 C 745.872 2.32069 0.343661 0
M  V30 7832 C 746.888 1.42016 1.00535 0
M  V30 7833 O 748.064 1.75077 0.995498 0
M  V30 7834 C 745.129 3.16424 1.41692 0
M  V30 7835 C 744.19 4.22286 0.772869 0
M  V30 7836 C 743.423 5.02609 1.79499 0
M  V30 7837 O 743.646 4.83874 3.0203 0
M  V30 7838 O 742.58 5.86047 1.3723 0
M  V30 7839 H 746.406 3.01996 -0.321268 0
M  V30 7840 H 743.991 1.47723 -0.223235 0
M  V30 7841 H 745.873 3.68795 2.03883 0
M  V30 7842 H 744.548 2.49236 2.0655 0
M  V30 7843 H 743.455 3.73931 0.112277 0
M  V30 7844 H 744.788 4.91915 0.167399 0
M  V30 7845 N 746.441 0.193421 1.56409 0
M  V30 7846 C 747.688 -0.445789 1.97532 0
M  V30 7847 C 748.016 -1.61744 1.08024 0
M  V30 7848 O 747.271 -1.95338 0.118982 0
M  V30 7849 C 747.57 -0.949718 3.44551 0
M  V30 7850 C 747.236 0.108383 4.5077 0
M  V30 7851 C 745.898 0.399126 4.79542 0
M  V30 7852 C 748.25 0.825423 5.14622 0
M  V30 7853 C 745.578 1.41192 5.69457 0
M  V30 7854 C 747.93 1.82735 6.05632 0
M  V30 7855 C 746.594 2.12531 6.32761 0
M  V30 7856 H 745.864 -0.163126 0.722822 0
M  V30 7857 H 748.511 0.290035 1.89291 0
M  V30 7858 H 746.816 -1.76378 3.49854 0
M  V30 7859 H 748.513 -1.45367 3.73724 0
M  V30 7860 H 745.103 -0.128392 4.28408 0
M  V30 7861 H 749.287 0.61403 4.92487 0
M  V30 7862 H 744.543 1.6487 5.88751 0
M  V30 7863 H 748.717 2.3882 6.5417 0
M  V30 7864 H 746.344 2.91155 7.02234 0
M  V30 7865 N 747.919 -1.57396 -0.0801906 0
M  V30 7866 C 749.144 -1.91437 -0.797909 0
M  V30 7867 C 749.569 -0.789075 -1.70749 0
M  V30 7868 O 748.927 0.25857 -1.79447 0
M  V30 7869 C 748.975 -3.24402 -1.57467 0
M  V30 7870 O 748.079 -3.13043 -2.68473 0
M  V30 7871 H 747.42 -0.627109 -0.218243 0
M  V30 7872 H 749.95 -2.04537 -0.050949 0
M  V30 7873 H 749.96 -3.58072 -1.95571 0
M  V30 7874 H 748.635 -4.05884 -0.907229 0
M  V30 7875 H 747.212 -2.90915 -2.33287 0
M  V30 7876 N 749.397 0.351382 -1.53633 0
M  V30 7877 C 750.645 1.09034 -1.70165 0
M  V30 7878 C 750.966 1.89413 -0.463422 0
M  V30 7879 O 750.236 1.888 0.522624 0
M  V30 7880 H 748.816 0.405522 -0.627344 0
M  V30 7881 H 751.478 0.394554 -1.90865 0
M  V30 7882 H 750.574 1.77215 -2.56907 0
M  V30 7883 N 750.875 1.45233 0.611969 0
M  V30 7884 C 751.808 1.48056 1.73651 0
M  V30 7885 C 752.786 0.337373 1.59061 0
M  V30 7886 O 753.97 0.537222 1.80683 0
M  V30 7887 C 751.097 1.33144 3.11433 0
M  V30 7888 C 750.143 2.51272 3.44623 0
M  V30 7889 S 750.976 4.13754 3.39953 0
M  V30 7890 C 752.132 4.013 4.80322 0
M  V30 7891 H 752.365 2.43205 1.70993 0
M  V30 7892 H 749.898 1.32763 0.788246 0
M  V30 7893 H 751.856 1.25228 3.90932 0
M  V30 7894 H 750.517 0.394734 3.1161 0
M  V30 7895 H 749.71 2.36753 4.44932 0
M  V30 7896 H 749.312 2.56027 2.72629 0
M  V30 7897 H 751.604 3.66174 5.7002 0
M  V30 7898 H 752.547 5.01506 4.99897 0
M  V30 7899 H 752.955 3.3303 4.55797 0
M  V30 7900 N 752.353 -0.854086 1.3245 0
M  V30 7901 C 753.764 -1.42427 1.20712 0
M  V30 7902 C 754.115 -1.95371 -0.18013 0
M  V30 7903 O 753.24 -1.87587 -1.07889 0
M  V30 7904 C 753.835 -2.58897 2.18536 0
M  V30 7905 C 752.394 -3.11913 2.10683 0
M  V30 7906 C 751.541 -1.84661 2.06871 0
M  V30 7907 H 754.492 -0.661192 1.4427 0
M  V30 7908 H 754.513 -3.36074 1.78422 0
M  V30 7909 H 754.025 -2.20333 3.19492 0
M  V30 7910 H 752.126 -3.55059 1.12977 0
M  V30 7911 H 752.239 -3.73119 3.00532 0
M  V30 7912 H 750.603 -2.04285 1.52118 0
M  V30 7913 H 751.386 -1.48314 3.09609 0
M  V30 7914 N 753.831 -1.1567 -1.07043 0
M  V30 7915 C 755.247 -0.900006 -1.31803 0
M  V30 7916 C 755.447 0.451293 -1.96381 0
M  V30 7917 O 754.503 1.19252 -2.22565 0
M  V30 7918 C 755.816 -2.04334 -2.20609 0
M  V30 7919 C 757.364 -2.07823 -2.34048 0
M  V30 7920 C 757.839 -3.21488 -3.26204 0
M  V30 7921 N 759.33 -3.21156 -3.33786 0
M  V30 7922 C 760.065 -4.05746 -4.05163 0
M  V30 7923 N 759.561 -5.00407 -4.79129 0
M  V30 7924 N 761.354 -3.93759 -4.01136 0
M  V30 7925 H 753.505 -2.02681 -0.635146 0
M  V30 7926 H 755.768 -0.883956 -0.342528 0
M  V30 7927 H 755.474 -3.01895 -1.80423 0
M  V30 7928 H 755.348 -1.97838 -3.21154 0
M  V30 7929 H 757.735 -1.1086 -2.73485 0
M  V30 7930 H 757.816 -2.18386 -1.33197 0
M  V30 7931 H 757.46 -4.18706 -2.87485 0
M  V30 7932 H 757.39 -3.08162 -4.27017 0
M  V30 7933 H 759.881 -2.52606 -2.81067 0
M  V30 7934 H 760.194 -5.61387 -5.31097 0
M  V30 7935 H 758.539 -5.04393 -4.78135 0
M  V30 7936 H 761.73 -3.19115 -3.42466 0
M  V30 7937 H 761.903 -4.59906 -4.56498 0
M  V30 7938 N 755.309 1.25446 -0.953992 0
M  V30 7939 C 756.558 1.92441 -0.604101 0
M  V30 7940 C 756.871 1.75543 0.862796 0
M  V30 7941 O 758.077 2.37106 1.32262 0
M  V30 7942 C 756.533 3.44854 -1.02974 0
M  V30 7943 C 756.141 3.70464 -2.51914 0
M  V30 7944 C 757.885 4.1778 -0.752352 0
M  V30 7945 C 755.792 5.1638 -2.88281 0
M  V30 7946 H 754.722 0.720508 -0.222227 0
M  V30 7947 H 757.373 1.42318 -1.15836 0
M  V30 7948 H 755.755 3.93935 -0.403904 0
M  V30 7949 H 756.929 3.32038 -3.19511 0
M  V30 7950 H 755.244 3.10797 -2.77117 0
M  V30 7951 H 757.841 5.25261 -1.00024 0
M  V30 7952 H 758.184 4.15135 0.311212 0
M  V30 7953 H 758.717 3.74605 -1.33851 0
M  V30 7954 H 755.456 5.24135 -3.93653 0
M  V30 7955 H 754.976 5.55855 -2.25357 0
M  V30 7956 H 756.655 5.84497 -2.77439 0
M  V30 7957 N 756.787 0.722489 1.40064 0
M  V30 7958 C 758.012 0.273446 2.05589 0
M  V30 7959 C 758.437 -1.07875 1.54093 0
M  V30 7960 O 757.795 -1.68095 0.679252 0
M  V30 7961 C 757.843 0.271023 3.5958 0
M  V30 7962 O 756.947 -0.745499 4.05606 0
M  V30 7963 H 756.288 0.126856 0.65177 0
M  V30 7964 H 758.818 0.984906 1.79334 0
M  V30 7965 H 758.828 0.111084 4.07849 0
M  V30 7966 H 757.503 1.25776 3.96425 0
M  V30 7967 H 756.08 -0.552719 3.68781 0
M  V30 7968 N 758.265 -1.50454 0.469181 0
M  V30 7969 C 759.212 -2.28486 -0.325982 0
M  V30 7970 C 760.182 -1.33455 -0.988893 0
M  V30 7971 O 761.367 -1.6239 -1.0017 0
M  V30 7972 C 758.507 -3.15288 -1.40313 0
M  V30 7973 C 757.62 -4.25348 -0.755183 0
M  V30 7974 C 756.755 -4.9941 -1.81006 0
M  V30 7975 C 755.794 -6.01348 -1.14226 0
M  V30 7976 N 754.931 -6.68695 -2.1399 0
M  V30 7977 H 759.771 -2.95987 0.345753 0
M  V30 7978 H 757.308 -1.45965 0.182355 0
M  V30 7979 H 759.266 -3.63964 -2.03927 0
M  V30 7980 H 757.896 -2.49837 -2.04405 0
M  V30 7981 H 756.948 -3.80399 -0.00651901 0
M  V30 7982 H 758.26 -4.98279 -0.227941 0
M  V30 7983 H 757.414 -5.51794 -2.52206 0
M  V30 7984 H 756.153 -4.26181 -2.3711 0
M  V30 7985 H 755.158 -5.48225 -0.415876 0
M  V30 7986 H 756.383 -6.76548 -0.588135 0
M  V30 7987 H 754.329 -5.98258 -2.69115 0
M  V30 7988 H 754.246 -7.37495 -1.66246 0
M  V30 7989 H 755.514 -7.25697 -2.84576 0
M  V30 7990 N 759.743 -0.201713 -1.56304 0
M  V30 7991 C 760.673 0.71155 -2.22394 0
M  V30 7992 C 761.654 1.21625 -1.18917 0
M  V30 7993 O 762.839 1.26388 -1.47444 0
M  V30 7994 C 759.969 1.92837 -2.88845 0
M  V30 7995 C 758.923 1.55831 -3.98623 0
M  V30 7996 C 758.249 2.85228 -4.52271 0
M  V30 7997 C 759.549 0.763249 -5.16693 0
M  V30 7998 H 761.243 0.160573 -2.98969 0
M  V30 7999 H 758.789 0.0757916 -1.438 0
M  V30 8000 H 760.742 2.57253 -3.33764 0
M  V30 8001 H 759.466 2.50398 -2.09686 0
M  V30 8002 H 758.125 0.9377 -3.54405 0
M  V30 8003 H 757.773 3.40893 -3.69866 0
M  V30 8004 H 757.473 2.6121 -5.26349 0
M  V30 8005 H 758.997 3.50622 -4.99897 0
M  V30 8006 H 760.411 1.31066 -5.58117 0
M  V30 8007 H 758.808 0.620935 -5.96879 0
M  V30 8008 H 759.878 -0.234322 -4.84334 0
M  V30 8009 N 761.222 1.57436 0.0718424 0
M  V30 8010 C 762.47 1.86878 0.769484 0
M  V30 8011 C 762.791 0.7937 1.78116 0
M  V30 8012 O 762.061 -0.177642 1.95093 0
M  V30 8013 H 760.641 0.689593 0.287177 0
M  V30 8014 H 763.303 1.94841 0.0479427 0
M  V30 8015 H 762.399 2.84387 1.28572 0
M  V30 8016 N 762.7 -0.34323 1.53817 0
M  V30 8017 C 763.925 -1.1079 1.75329 0
M  V30 8018 C 764.35 -1.81571 0.491293 0
M  V30 8019 O 763.708 -1.72561 -0.556089 0
M  V30 8020 C 763.756 -2.09681 2.9337 0
M  V30 8021 O 762.86 -3.17207 2.63541 0
M  V30 8022 H 762.201 -0.320402 0.581583 0
M  V30 8023 H 764.731 -0.393525 2.0078 0
M  V30 8024 H 764.741 -2.52897 3.20168 0
M  V30 8025 H 763.416 -1.5756 3.84899 0
M  V30 8026 H 761.993 -2.78806 2.47632 0
M  V30 8027 N 764.178 -1.45556 -0.604258 0
M  V30 8028 C 765.426 -1.4945 -1.36048 0
M  V30 8029 C 765.747 -0.138933 -1.94504 0
M  V30 8030 O 765.017 0.832097 -1.7735 0
M  V30 8031 H 763.597 -0.550381 -0.505064 0
M  V30 8032 H 766.259 -1.81535 -0.709308 0
M  V30 8033 H 765.355 -2.23519 -2.17821 0
M  V30 8034 N 765.656 0.84705 -1.32902 0
M  V30 8035 C 766.604 1.97765 -1.22441 0
M  V30 8036 C 767.598 1.68919 -0.127546 0
M  V30 8037 O 768.804 1.77633 -0.290973 0
M  V30 8038 H 765.179 0.649072 -0.379748 0
M  V30 8039 H 767.15 2.03713 -2.18044 0
M  V30 8040 C 765.899 3.33834 -0.972125 0
M  V30 8041 H 765.222 3.56564 -1.80837 0
M  V30 8042 H 766.662 4.13467 -0.939209 0
M  V30 8043 C 765.121 3.35328 0.325059 0
M  V30 8044 O 765.651 3.78887 1.33445 0
M  V30 8045 N 763.857 2.88488 0.349718 0
M  V30 8046 H 763.404 2.53234 -0.472236 0
M  V30 8047 H 763.362 2.8987 1.21748 0
M  V30 8048 N 767.134 1.16236 1.06428 0
M  V30 8049 C 768.411 0.853294 1.76006 0
M  V30 8050 C 768.791 -0.649162 2.00871 0
M  V30 8051 O 768.139 -1.59653 1.63472 0
M  V30 8052 C 768.349 1.67448 3.06206 0
M  V30 8053 C 769.697 1.8866 3.80385 0
M  V30 8054 O 770.721 1.64303 3.16043 0
M  V30 8055 O 769.58 2.29518 4.95968 0
M  V30 8056 H 766.674 0.314737 0.764767 0
M  V30 8057 H 769.22 1.26865 1.12709 0
M  V30 8058 H 767.992 2.69411 2.83784 0
M  V30 8059 H 767.615 1.25608 3.77238 0
M  V30 8060 N 768.612 -1.24939 0.960631 0
M  V30 8061 C 769.859 -1.92818 0.618663 0
M  V30 8062 C 770.187 -1.75177 -0.845173 0
M  V30 8063 O 769.442 -1.09412 -1.62258 0
M  V30 8064 C 769.741 -3.45066 0.930809 0
M  V30 8065 C 769.407 -3.82869 2.38164 0
M  V30 8066 C 768.069 -3.92899 2.7782 0
M  V30 8067 C 770.421 -4.01483 3.32356 0
M  V30 8068 C 767.749 -4.18955 4.10723 0
M  V30 8069 C 770.101 -4.29033 4.6488 0
M  V30 8070 C 768.765 -4.37282 5.04322 0
M  V30 8071 H 768.035 -0.705571 0.226385 0
M  V30 8072 H 770.682 -1.48365 1.21079 0
M  V30 8073 H 768.987 -3.9096 0.256355 0
M  V30 8074 H 770.684 -3.95783 0.644712 0
M  V30 8075 H 767.274 -3.75622 2.06413 0
M  V30 8076 H 771.458 -3.93143 3.02907 0
M  V30 8077 H 766.714 -4.23558 4.40918 0
M  V30 8078 H 770.888 -4.42381 5.3784 0
M  V30 8079 H 768.515 -4.57225 6.0733 0
M  V30 8080 N 770.09 -0.729906 -1.39679 0
M  V30 8081 C 771 -0.0880322 -2.34435 0
M  V30 8082 C 772.016 0.727674 -1.58053 0
M  V30 8083 O 773.192 0.657321 -1.90371 0
M  V30 8084 C 770.257 0.812211 -3.37052 0
M  V30 8085 C 769.318 -0.0151681 -4.29297 0
M  V30 8086 C 768.551 0.842202 -5.27013 0
M  V30 8087 O 768.774 2.08108 -5.31081 0
M  V30 8088 O 767.708 0.27357 -6.01278 0
M  V30 8089 H 771.534 -0.869989 -2.90972 0
M  V30 8090 H 769.119 -0.490522 -1.41118 0
M  V30 8091 H 771.001 1.32745 -3.99946 0
M  V30 8092 H 769.676 1.57307 -2.82907 0
M  V30 8093 H 768.583 -0.575811 -3.69642 0
M  V30 8094 H 769.916 -0.738129 -4.86634 0
M  V30 8095 N 771.568 1.50203 -0.477153 0
M  V30 8096 C 772.814 2.02658 0.0758507 0
M  V30 8097 C 773.147 1.358 1.38824 0
M  V30 8098 O 772.422 0.485696 1.88338 0
M  V30 8099 C 772.705 3.59208 0.253339 0
M  V30 8100 C 772.558 4.36629 -1.0805 0
M  V30 8101 C 773.877 4.28469 1.00509 0
M  V30 8102 H 770.996 0.736538 0.0260921 0
M  V30 8103 H 773.638 1.79464 -0.623925 0
M  V30 8104 H 771.788 3.79101 0.849378 0
M  V30 8105 H 773.46 4.28292 -1.71358 0
M  V30 8106 H 771.703 4.0013 -1.67566 0
M  V30 8107 H 772.374 5.44449 -0.909883 0
M  V30 8108 H 774.85 4.13087 0.499818 0
M  V30 8109 H 773.726 5.37804 1.09808 0
M  V30 8110 H 773.987 3.92057 2.04314 0
M  V30 8111 N 773.046 0.209999 1.56195 0
M  V30 8112 C 774.293 -0.424813 1.97994 0
M  V30 8113 C 774.621 -1.60589 1.09733 0
M  V30 8114 O 773.876 -1.95201 0.139693 0
M  V30 8115 C 774.175 -0.91312 3.45539 0
M  V30 8116 C 773.841 0.156187 4.50629 0
M  V30 8117 C 772.503 0.449966 4.79092 0
M  V30 8118 C 774.855 0.879959 5.13718 0
M  V30 8119 C 772.183 1.47223 5.67928 0
M  V30 8120 C 774.535 1.89148 6.0366 0
M  V30 8121 C 773.199 2.1923 6.30472 0
M  V30 8122 H 772.469 -0.15545 0.724511 0
M  V30 8123 H 775.116 0.310095 1.88973 0
M  V30 8124 H 773.421 -1.72658 3.51705 0
M  V30 8125 H 775.118 -1.41395 3.75245 0
M  V30 8126 H 771.708 -0.0829466 4.2852 0
M  V30 8127 H 775.892 0.66623 4.91808 0
M  V30 8128 H 771.148 1.71105 5.86969 0
M  V30 8129 H 775.322 2.45745 6.516 0
M  V30 8130 H 772.949 2.98587 6.99107 0
M  V30 8131 N 774.524 -1.57472 -0.0634922 0
M  V30 8132 C 775.771 -1.87654 -0.761066 0
M  V30 8133 C 776.099 -0.802847 -1.77157 0
M  V30 8134 O 775.354 0.200244 -1.94673 0
M  V30 8135 C 775.653 -3.24521 -1.49736 0
M  V30 8136 C 775.319 -4.46532 -0.626065 0
M  V30 8137 C 773.981 -4.7965 -0.385978 0
M  V30 8138 C 776.333 -5.21195 -0.0224001 0
M  V30 8139 C 773.661 -5.84837 0.467118 0
M  V30 8140 C 776.013 -6.27286 0.818198 0
M  V30 8141 C 774.677 -6.58899 1.06808 0
M  V30 8142 H 773.947 -0.686675 -0.278494 0
M  V30 8143 H 776.594 -1.91488 -0.0216348 0
M  V30 8144 H 774.899 -3.16516 -2.30921 0
M  V30 8145 H 776.596 -3.45111 -2.04204 0
M  V30 8146 H 773.186 -4.20618 -0.823325 0
M  V30 8147 H 777.37 -4.95917 -0.194985 0
M  V30 8148 H 772.626 -6.07725 0.669375 0
M  V30 8149 H 776.8 -6.84298 1.29265 0
M  V30 8150 H 774.427 -7.40233 1.73088 0
M  V30 8151 N 776.003 0.335068 -1.53997 0
M  V30 8152 C 776.935 1.4327 -1.78903 0
M  V30 8153 C 777.948 1.48347 -0.670598 0
M  V30 8154 O 779.137 1.51277 -0.947494 0
M  V30 8155 C 776.237 2.81878 -1.88144 0
M  V30 8156 C 775.41 3.00141 -3.18174 0
M  V30 8157 C 774.469 4.19041 -3.18263 0
M  V30 8158 O 773.495 4.12751 -3.9195 0
M  V30 8159 N 774.697 5.28004 -2.41231 0
M  V30 8160 H 777.462 1.22272 -2.73623 0
M  V30 8161 H 775.023 0.524996 -1.53152 0
M  V30 8162 H 777.015 3.59609 -1.85644 0
M  V30 8163 H 775.585 2.9598 -1.00572 0
M  V30 8164 H 774.805 2.09808 -3.33728 0
M  V30 8165 H 776.093 3.0923 -4.04047 0
M  V30 8166 H 775.491 5.35986 -1.8093 0
M  V30 8167 H 774.048 6.04196 -2.44521 0
M  V30 8168 N 777.481 1.45874 0.596531 0
M  V30 8169 C 778.897 1.30524 0.918459 0
M  V30 8170 C 779.097 0.266429 1.99731 0
M  V30 8171 O 778.153 -0.335809 2.50257 0
M  V30 8172 C 779.466 2.68747 1.3489 0
M  V30 8173 C 781.014 2.7673 1.46251 0
M  V30 8174 C 781.489 4.15504 1.92667 0
M  V30 8175 N 782.98 4.17853 1.99883 0
M  V30 8176 C 783.715 5.22109 2.37044 0
M  V30 8177 N 783.211 6.36704 2.73094 0
M  V30 8178 N 785.004 5.09471 2.37479 0
M  V30 8179 H 777.155 2.12081 -0.116368 0
M  V30 8180 H 779.418 0.947941 0.0106033 0
M  V30 8181 H 779.124 3.46006 0.630288 0
M  V30 8182 H 778.998 2.97942 2.31323 0
M  V30 8183 H 781.385 1.99768 2.17202 0
M  V30 8184 H 781.466 2.51236 0.481054 0
M  V30 8185 H 781.11 4.92956 1.223 0
M  V30 8186 H 781.04 4.38396 2.91747 0
M  V30 8187 H 783.531 3.35163 1.74568 0
M  V30 8188 H 783.844 7.12041 3.00362 0
M  V30 8189 H 782.189 6.40087 2.70764 0
M  V30 8190 H 785.38 4.18987 2.08728 0
M  V30 8191 H 785.553 5.90837 2.66112 0
M  V30 8192 N 778.959 -0.83999 1.33349 0
M  V30 8193 C 779.889 -1.965 1.26135 0
M  V30 8194 C 780.87 -1.69505 0.142152 0
M  V30 8195 O 782.055 -1.91346 0.331743 0
M  V30 8196 C 779.185 -3.32632 0.99866 0
M  V30 8197 C 778.139 -3.74021 2.08068 0
M  V30 8198 C 777.465 -5.07947 1.67014 0
M  V30 8199 C 778.765 -3.87925 3.49731 0
M  V30 8200 H 780.459 -2.02793 2.20262 0
M  V30 8201 H 778.005 -0.974297 1.06035 0
M  V30 8202 H 779.958 -4.10903 0.934696 0
M  V30 8203 H 778.682 -3.26593 0.0217759 0
M  V30 8204 H 777.341 -2.98012 2.13505 0
M  V30 8205 H 776.989 -4.98378 0.680316 0
M  V30 8206 H 776.689 -5.36611 2.39422 0
M  V30 8207 H 778.213 -5.88695 1.62082 0
M  V30 8208 H 779.627 -4.5651 3.46802 0
M  V30 8209 H 778.024 -4.28023 4.20614 0
M  V30 8210 H 779.094 -2.90407 3.88319 0
M  V30 8211 N 780.437 -1.16799 -1.0581 0
M  V30 8212 C 781.685 -0.950642 -1.78346 0
M  V30 8213 C 782.006 0.522524 -1.87869 0
M  V30 8214 O 781.276 1.3795 -1.39092 0
M  V30 8215 H 779.856 -0.348736 -0.6606 0
M  V30 8216 H 782.518 -1.47158 -1.27791 0
M  V30 8217 H 781.614 -1.37359 -2.80248 0
M  V30 8218 N 781.915 1.24427 -0.967243 0
M  V30 8219 C 783.164 1.91789 -0.624478 0
M  V30 8220 C 783.477 1.76448 0.844129 0
M  V30 8221 O 784.683 2.38495 1.2974 0
M  V30 8222 C 783.139 3.43743 -1.06626 0
M  V30 8223 C 782.747 3.67771 -2.55829 0
M  V30 8224 C 784.491 4.16958 -0.79662 0
M  V30 8225 C 782.398 5.13293 -2.93742 0
M  V30 8226 H 781.328 0.71811 -0.229856 0
M  V30 8227 H 783.979 1.41081 -1.17339 0
M  V30 8228 H 782.361 3.93484 -0.445663 0
M  V30 8229 H 783.535 3.28631 -3.23015 0
M  V30 8230 H 781.85 3.07841 -2.80398 0
M  V30 8231 H 784.447 5.24171 -1.05589 0
M  V30 8232 H 784.79 4.15442 0.267163 0
M  V30 8233 H 785.323 3.73164 -1.37816 0
M  V30 8234 H 782.062 5.19931 -3.9919 0
M  V30 8235 H 781.582 5.53433 -2.3124 0
M  V30 8236 H 783.261 5.81521 -2.83623 0
M  V30 8237 N 783.393 0.737304 1.3929 0
M  V30 8238 C 784.356 0.10731 2.28949 0
M  V30 8239 C 785.356 -0.664716 1.46418 0
M  V30 8240 O 786.546 -0.493392 1.67067 0
M  V30 8241 C 783.678 -0.857145 3.29948 0
M  V30 8242 H 784.871 0.89725 2.86163 0
M  V30 8243 H 782.424 0.503279 1.47976 0
M  V30 8244 H 783.159 -1.67336 2.77794 0
M  V30 8245 H 782.944 -0.306167 3.90903 0
M  V30 8246 H 784.434 -1.29444 3.97031 0
M  V30 8247 N 784.871 -1.49948 0.485112 0
M  V30 8248 C 786.096 -2.073 -0.0645059 0
M  V30 8249 C 786.521 -1.345 -1.31497 0
M  V30 8250 O 785.879 -0.39687 -1.76903 0
M  V30 8251 C 785.927 -3.59201 -0.317304 0
M  V30 8252 O 785.031 -3.88085 -1.39514 0
M  V30 8253 H 784.372 -0.663723 0.0191822 0
M  V30 8254 H 786.902 -1.92963 0.680179 0
M  V30 8255 H 786.912 -4.04227 -0.553604 0
M  V30 8256 H 785.587 -4.11602 0.596387 0
M  V30 8257 H 784.164 -3.54885 -1.14504 0
M  V30 8258 N 786.349 -0.21828 -1.56081 0
M  V30 8259 C 787.597 0.413488 -1.97825 0
M  V30 8260 C 787.918 1.60527 -1.10707 0
M  V30 8261 O 787.188 1.9504 -0.183378 0
M  V30 8262 H 785.768 0.155757 -0.730581 0
M  V30 8263 H 788.43 -0.310413 -1.92412 0
M  V30 8264 H 787.526 0.742024 -3.03151 0
M  V30 8265 N 787.827 1.57504 0.0551401 0
M  V30 8266 C 789.243 1.54236 0.410292 0
M  V30 8267 C 789.443 0.940839 1.78187 0
M  V30 8268 O 788.499 0.550541 2.46425 0
M  V30 8269 C 789.812 2.98816 0.336064 0
M  V30 8270 C 791.36 3.10236 0.415047 0
M  V30 8271 C 791.835 4.56499 0.37055 0
M  V30 8272 N 793.326 4.61199 0.43013 0
M  V30 8273 C 794.061 5.71873 0.418179 0
M  V30 8274 N 793.557 6.91864 0.360056 0
M  V30 8275 N 795.35 5.60165 0.465977 0
M  V30 8276 H 787.501 1.94965 -0.842759 0
M  V30 8277 H 789.764 0.893096 -0.317937 0
M  V30 8278 H 789.47 3.4645 -0.605429 0
M  V30 8279 H 789.344 3.59564 1.13988 0
M  V30 8280 H 791.731 2.62566 1.34697 0
M  V30 8281 H 791.812 2.52367 -0.417648 0
M  V30 8282 H 791.456 5.0483 -0.557592 0
M  V30 8283 H 791.386 5.12249 1.221 0
M  V30 8284 H 793.877 3.74857 0.478623 0
M  V30 8285 H 794.19 7.71983 0.35532 0
M  V30 8286 H 792.535 6.94233 0.326492 0
M  V30 8287 H 795.726 4.65322 0.509194 0
M  V30 8288 H 795.899 6.46413 0.453194 0
M  V30 8289 N 789.305 -0.326896 1.54172 0
M  V30 8290 C 790.268 -1.38515 1.8261 0
M  V30 8291 C 791.268 -1.44872 0.697771 0
M  V30 8292 O 792.458 -1.44957 0.966078 0
M  V30 8293 C 789.59 -2.77281 1.98313 0
M  V30 8294 H 790.783 -1.14556 2.77159 0
M  V30 8295 H 788.336 -0.562199 1.45839 0
M  V30 8296 H 789.071 -3.065 1.05964 0
M  V30 8297 H 788.856 -2.74061 2.80416 0
M  V30 8298 H 790.346 -3.53845 2.21773 0
M  V30 8299 N 790.784 -1.46188 -0.588786 0
M  V30 8300 C 792.2 -1.31009 -0.911524 0
M  V30 8301 C 792.4 -0.277017 -1.99587 0
M  V30 8302 O 791.456 0.322532 -2.50432 0
M  V30 8303 C 792.769 -2.69459 -1.33463 0
M  V30 8304 C 794.317 -2.77502 -1.44782 0
M  V30 8305 C 794.792 -4.1652 -1.90461 0
M  V30 8306 N 796.283 -4.18907 -1.97665 0
M  V30 8307 C 797.018 -5.23359 -2.34271 0
M  V30 8308 N 796.514 -6.38143 -2.69714 0
M  V30 8309 N 798.307 -5.10723 -2.34774 0
M  V30 8310 H 790.458 -2.12016 0.127614 0
M  V30 8311 H 792.721 -0.947984 -0.00557599 0
M  V30 8312 H 792.427 -3.46336 -0.611929 0
M  V30 8313 H 792.301 -2.99165 -2.2974 0
M  V30 8314 H 794.688 -2.00917 -2.1614 0
M  V30 8315 H 794.769 -2.51488 -0.467724 0
M  V30 8316 H 794.413 -4.93597 -1.19684 0
M  V30 8317 H 794.343 -4.39937 -2.89418 0
M  V30 8318 H 796.834 -3.36084 -1.72789 0
M  V30 8319 H 797.147 -7.13624 -2.96582 0
M  V30 8320 H 795.492 -6.41514 -2.67366 0
M  V30 8321 H 798.683 -4.20088 -2.06503 0
M  V30 8322 H 798.856 -5.9224 -2.62975 0
M  V30 8323 N 792.262 0.832906 -1.33792 0
M  V30 8324 C 793.492 1.61813 -1.28453 0
M  V30 8325 C 793.9 1.88639 0.145595 0
M  V30 8326 O 793.243 1.47122 1.10004 0
M  V30 8327 C 793.305 2.98929 -1.99704 0
M  V30 8328 C 792.969 2.95045 -3.48995 0
M  V30 8329 C 793.966 2.70337 -4.44088 0
M  V30 8330 C 791.651 3.14993 -3.91261 0
M  V30 8331 C 793.645 2.65612 -5.79421 0
M  V30 8332 C 791.332 3.09893 -5.26697 0
M  V30 8333 C 792.33 2.85235 -6.20588 0
M  V30 8334 O 792.018 2.8005 -7.53543 0
M  V30 8335 H 791.75 0.510013 -0.443693 0
M  V30 8336 H 794.304 1.04514 -1.76822 0
M  V30 8337 H 792.534 3.58106 -1.45935 0
M  V30 8338 H 794.223 3.59849 -1.87786 0
M  V30 8339 H 794.989 2.54671 -4.12756 0
M  V30 8340 H 790.868 3.33204 -3.18584 0
M  V30 8341 H 794.412 2.46285 -6.52679 0
M  V30 8342 H 790.309 3.2511 -5.5765 0
M  V30 8343 H 791.077 2.95849 -7.63162 0
M  V30 8344 N 793.74 1.17359 1.05189 0
M  V30 8345 C 794.968 0.986529 1.81866 0
M  V30 8346 C 795.383 -0.46522 1.82979 0
M  V30 8347 O 794.74 -1.32305 1.25705 0
M  V30 8348 C 794.791 1.52021 3.27982 0
M  V30 8349 O 794.512 2.91511 3.27037 0
M  V30 8350 C 796.013 1.37774 4.21347 0
M  V30 8351 H 793.233 0.349021 0.573084 0
M  V30 8352 H 795.777 1.55648 1.32643 0
M  V30 8353 H 793.932 0.992287 3.74476 0
M  V30 8354 H 794.346 3.16178 4.18488 0
M  V30 8355 H 795.82 1.7993 5.21852 0
M  V30 8356 H 796.297 0.32483 4.37997 0
M  V30 8357 H 796.903 1.89583 3.80708 0
M  V30 8358 N 795.218 -1.23913 0.973828 0
M  V30 8359 C 796.165 -2.25132 0.508366 0
M  V30 8360 C 797.135 -1.59908 -0.449307 0
M  V30 8361 O 798.32 -1.87405 -0.358313 0
M  V30 8362 C 795.46 -3.4458 -0.189422 0
M  V30 8363 C 794.573 -4.24381 0.807738 0
M  V30 8364 C 793.708 -5.31131 0.0854315 0
M  V30 8365 C 792.747 -6.02635 1.07225 0
M  V30 8366 N 791.884 -7.01073 0.379535 0
M  V30 8367 H 796.724 -2.64313 1.37632 0
M  V30 8368 H 794.261 -1.29924 0.689802 0
M  V30 8369 H 796.219 -4.12706 -0.610733 0
M  V30 8370 H 794.849 -3.06218 -1.02129 0
M  V30 8371 H 793.901 -3.55735 1.34747 0
M  V30 8372 H 795.213 -4.73778 1.55998 0
M  V30 8373 H 794.367 -6.05422 -0.393572 0
M  V30 8374 H 793.106 -4.82658 -0.699461 0
M  V30 8375 H 792.111 -5.27143 1.56207 0
M  V30 8376 H 793.336 -6.53197 1.85769 0
M  V30 8377 H 791.282 -6.54862 -0.386269 0
M  V30 8378 H 791.199 -7.48382 1.07054 0
M  V30 8379 H 792.467 -7.79462 -0.0772984 0
M  V30 8380 N 796.696 -0.74468 -1.38897 0
M  V30 8381 C 797.644 -0.100312 -2.32384 0
M  V30 8382 C 798.638 0.715191 -1.53562 0
M  V30 8383 O 799.844 0.615288 -1.69157 0
M  V30 8384 H 796.219 -0.0136403 -0.751876 0
M  V30 8385 H 798.19 -0.905007 -2.84345 0
M  V30 8386 C 796.939 0.785432 -3.38713 0
M  V30 8387 H 796.262 0.167308 -3.9945 0
M  V30 8388 H 797.702 1.20374 -4.06554 0
M  V30 8389 C 796.161 1.92408 -2.76552 0
M  V30 8390 O 796.691 3.01752 -2.65157 0
M  V30 8391 N 794.897 1.71642 -2.34494 0
M  V30 8392 H 794.444 0.827079 -2.43961 0
M  V30 8393 H 794.402 2.48 -1.93244 0
M  V30 8394 N 798.174 1.49689 -0.493057 0
M  V30 8395 C 799.42 2.03347 0.0463792 0
M  V30 8396 C 799.775 1.36671 1.35421 0
M  V30 8397 O 799.068 0.4907 1.8521 0
M  V30 8398 C 799.262 3.56427 0.263536 0
M  V30 8399 C 799.091 4.3794 -1.02169 0
M  V30 8400 C 797.861 4.8025 -1.57125 0
M  V30 8401 C 800.059 4.77 -1.9229 0
M  V30 8402 N 798.041 5.46162 -2.80321 0
M  V30 8403 C 799.412 5.42549 -3.00067 0
M  V30 8404 C 801.467 4.58945 -1.93064 0
M  V30 8405 C 800.17 5.91954 -4.08635 0
M  V30 8406 C 802.196 5.09306 -3.00602 0
M  V30 8407 C 801.558 5.74849 -4.07097 0
M  V30 8408 H 797.657 0.781644 -0.0236097 0
M  V30 8409 H 800.241 1.82949 -0.666151 0
M  V30 8410 H 798.412 3.76725 0.945118 0
M  V30 8411 H 800.144 3.96729 0.79927 0
M  V30 8412 H 796.899 4.60228 -1.11746 0
M  V30 8413 H 797.323 5.83711 -3.42944 0
M  V30 8414 H 801.965 4.07685 -1.12039 0
M  V30 8415 H 799.683 6.4224 -4.90463 0
M  V30 8416 H 803.269 4.97152 -3.0221 0
M  V30 8417 H 802.149 6.13113 -4.88939 0
M  V30 8418 N 799.652 0.226554 1.55963 0
M  V30 8419 C 800.562 -0.692725 2.24139 0
M  V30 8420 C 801.578 -1.20971 1.25068 0
M  V30 8421 O 802.754 -1.25027 1.57893 0
M  V30 8422 C 799.819 -1.88183 2.91184 0
M  V30 8423 C 798.88 -1.40633 4.05612 0
M  V30 8424 C 798.113 -2.53875 4.6945 0
M  V30 8425 O 798.336 -3.72129 4.32292 0
M  V30 8426 O 797.27 -2.24792 5.58348 0
M  V30 8427 H 801.096 -0.141921 3.03368 0
M  V30 8428 H 798.681 -0.0041049 1.49399 0
M  V30 8429 H 800.563 -2.57617 3.33484 0
M  V30 8430 H 799.238 -2.42064 2.14911 0
M  V30 8431 H 798.145 -0.67986 3.67871 0
M  V30 8432 H 799.478 -0.913838 4.83642 0
M  V30 8433 N 801.13 -1.57531 -0.0467866 0
M  V30 8434 C 802.358 -1.92696 -0.753371 0
M  V30 8435 C 802.773 -0.824792 -1.69831 0
M  V30 8436 O 802.13 0.200155 -1.81399 0
M  V30 8437 C 802.181 -3.27728 -1.52566 0
M  V30 8438 O 801.902 -4.3371 -0.618674 0
M  V30 8439 C 803.403 -3.77066 -2.33101 0
M  V30 8440 H 800.623 -0.636367 -0.212788 0
M  V30 8441 H 803.167 -2.04498 -0.00959361 0
M  V30 8442 H 801.322 -3.17378 -2.22148 0
M  V30 8443 H 801.736 -5.11548 -1.15839 0
M  V30 8444 H 803.21 -4.74109 -2.82709 0
M  V30 8445 H 803.687 -3.07348 -3.13741 0
M  V30 8446 H 804.293 -3.90442 -1.68628 0
M  V30 8447 N 802.608 0.318715 -1.54344 0
M  V30 8448 C 803.556 1.41254 -1.84798 0
M  V30 8449 C 804.55 1.53325 -0.720256 0
M  V30 8450 O 805.756 1.55653 -0.903992 0
M  V30 8451 H 802.131 0.471468 -0.585851 0
M  V30 8452 H 804.102 1.12795 -2.7626 0
M  V30 8453 C 802.851 2.77395 -2.09637 0
M  V30 8454 H 802.174 2.68881 -2.95876 0
M  V30 8455 H 803.614 3.52987 -2.34896 0
M  V30 8456 C 802.073 3.24948 -0.889398 0
M  V30 8457 O 802.603 4.01573 -0.101063 0
M  V30 8458 N 800.809 2.82051 -0.699684 0
M  V30 8459 H 800.356 2.19858 -1.3424 0
M  V30 8460 H 800.314 3.1422 0.106368 0
M  V30 8461 N 804.086 1.46499 0.581025 0
M  V30 8462 C 805.033 1.5719 1.68997 0
M  V30 8463 C 806.003 0.416114 1.60803 0
M  V30 8464 O 807.188 0.633086 1.79991 0
M  V30 8465 C 804.328 1.56973 3.07333 0
M  V30 8466 C 803.441 2.83298 3.26139 0
M  V30 8467 C 802.576 2.74574 4.54734 0
M  V30 8468 C 801.615 3.9583 4.66889 0
M  V30 8469 N 800.752 3.85482 5.86811 0
M  V30 8470 H 805.592 2.51914 1.59196 0
M  V30 8471 H 803.129 1.24975 0.775857 0
M  V30 8472 H 805.087 1.54832 3.87405 0
M  V30 8473 H 803.717 0.657803 3.16027 0
M  V30 8474 H 802.769 2.95411 2.3966 0
M  V30 8475 H 804.081 3.7316 3.30988 0
M  V30 8476 H 803.235 2.70548 5.43036 0
M  V30 8477 H 801.974 1.82354 4.52325 0
M  V30 8478 H 800.979 4.00186 3.77003 0
M  V30 8479 H 802.204 4.89148 4.71075 0
M  V30 8480 H 800.15 2.96051 5.85397 0
M  V30 8481 H 800.067 4.69002 5.92936 0
M  V30 8482 H 801.335 3.85434 6.7754 0
M  V30 8483 N 805.565 -0.825799 1.34232 0
M  V30 8484 C 806.812 -1.58185 1.26427 0
M  V30 8485 C 807.14 -1.93786 -0.166533 0
M  V30 8486 O 806.395 -1.59986 -1.12707 0
M  V30 8487 C 806.694 -2.89362 2.09772 0
M  V30 8488 C 806.36 -2.73066 3.58812 0
M  V30 8489 C 805.022 -2.68329 3.99441 0
M  V30 8490 C 807.374 -2.56946 4.53462 0
M  V30 8491 C 804.702 -2.4539 5.32917 0
M  V30 8492 C 807.054 -2.35538 5.87115 0
M  V30 8493 C 805.718 -2.29212 6.26912 0
M  V30 8494 H 804.988 -0.57884 0.462629 0
M  V30 8495 H 807.635 -0.955714 1.65947 0
M  V30 8496 H 805.94 -3.56251 1.63071 0
M  V30 8497 H 807.637 -3.4694 2.01081 0
M  V30 8498 H 804.227 -2.77591 3.26559 0
M  V30 8499 H 808.411 -2.59631 4.22972 0
M  V30 8500 H 803.667 -2.38947 5.62774 0
M  V30 8501 H 807.841 -2.22051 6.6005 0
M  V30 8502 H 805.468 -2.11197 7.30274 0
M  V30 8503 N 807.043 -1.17915 -1.04565 0
M  V30 8504 C 808.268 -0.996749 -1.81878 0
M  V30 8505 C 808.693 0.450169 -1.82634 0
M  V30 8506 O 808.051 1.32268 -1.23995 0
M  V30 8507 C 808.099 -1.55005 -3.25585 0
M  V30 8508 O 807.203 -0.76804 -4.05185 0
M  V30 8509 H 806.544 -0.353456 -0.562108 0
M  V30 8510 H 809.074 -1.56557 -1.31723 0
M  V30 8511 H 809.084 -1.57503 -3.76373 0
M  V30 8512 H 807.759 -2.60327 -3.2435 0
M  V30 8513 H 806.336 -0.81498 -3.63885 0
M  V30 8514 N 808.521 1.23394 -0.980386 0
M  V30 8515 C 809.769 1.91431 -0.647978 0
M  V30 8516 C 810.09 1.76871 0.821066 0
M  V30 8517 O 809.36 1.14808 1.58732 0
M  V30 8518 H 807.94 0.708516 -0.236673 0
M  V30 8519 H 810.602 1.50019 -1.2442 0
M  V30 8520 H 809.698 2.98854 -0.899592 0
M  V30 8521 N 809.999 0.752036 1.385 0
M  V30 8522 C 811.229 0.317812 2.04141 0
M  V30 8523 C 811.637 -1.05822 1.56839 0
M  V30 8524 O 810.98 -1.68311 0.736016 0
M  V30 8525 C 811.042 0.260205 3.58557 0
M  V30 8526 C 810.706 1.57753 4.28909 0
M  V30 8527 C 811.703 2.52642 4.54387 0
M  V30 8528 C 809.388 1.84653 4.67128 0
M  V30 8529 C 811.382 3.72653 5.17116 0
M  V30 8530 C 809.069 3.04938 5.29581 0
M  V30 8531 C 810.067 3.98759 5.54509 0
M  V30 8532 O 809.755 5.16929 6.15662 0
M  V30 8533 H 809.487 0.133931 0.6626 0
M  V30 8534 H 812.041 1.02138 1.78205 0
M  V30 8535 H 810.271 -0.499596 3.83459 0
M  V30 8536 H 811.96 -0.144295 4.05643 0
M  V30 8537 H 812.726 2.33135 4.25292 0
M  V30 8538 H 808.605 1.12464 4.47071 0
M  V30 8539 H 812.149 4.45898 5.36489 0
M  V30 8540 H 808.046 3.24339 5.58099 0
M  V30 8541 H 808.814 5.1749 6.3415 0
M  V30 8542 N 811.477 -1.49425 0.500989 0
M  V30 8543 C 812.888 -1.86624 0.0532011 0
M  V30 8544 C 813.239 -1.41331 -1.36088 0
M  V30 8545 O 812.364 -0.791195 -2.01418 0
M  V30 8546 C 812.959 -3.38681 0.0897693 0
M  V30 8547 C 811.518 -3.75181 -0.302677 0
M  V30 8548 C 810.665 -2.73419 0.462307 0
M  V30 8549 H 813.616 -1.41743 0.713773 0
M  V30 8550 H 813.637 -3.73902 -0.705528 0
M  V30 8551 H 813.149 -3.71616 1.11907 0
M  V30 8552 H 811.25 -3.47855 -1.33521 0
M  V30 8553 H 811.363 -4.79097 0.0167653 0
M  V30 8554 H 809.727 -2.54548 -0.0878557 0
M  V30 8555 H 810.51 -3.09198 1.49169 0
M  V30 8556 N 812.955 -0.234822 -1.55841 0
M  V30 8557 C 813.885 0.664217 -2.23854 0
M  V30 8558 C 814.866 1.19076 -1.2147 0
M  V30 8559 O 816.051 1.23232 -1.50091 0
M  V30 8560 C 813.181 1.86666 -2.9287 0
M  V30 8561 C 812.135 1.47341 -4.01839 0
M  V30 8562 C 811.461 2.75571 -4.58219 0
M  V30 8563 C 812.761 0.653479 -5.18196 0
M  V30 8564 H 814.455 0.0971213 -2.99242 0
M  V30 8565 H 812.001 0.0452724 -1.43929 0
M  V30 8566 H 813.954 2.50116 -3.39146 0
M  V30 8567 H 812.678 2.45894 -2.1495 0
M  V30 8568 H 811.337 0.862314 -3.56314 0
M  V30 8569 H 810.985 3.32971 -3.77014 0
M  V30 8570 H 810.685 2.49987 -5.31771 0
M  V30 8571 H 812.209 3.39939 -5.07221 0
M  V30 8572 H 813.623 1.19198 -5.60771 0
M  V30 8573 H 812.02 0.494188 -5.98062 0
M  V30 8574 H 813.09 -0.337004 -4.83728 0
M  V30 8575 N 814.433 1.57553 0.0384317 0
M  V30 8576 C 815.663 1.92813 0.742064 0
M  V30 8577 C 816.071 0.832157 1.69917 0
M  V30 8578 O 815.414 -0.200917 1.82598 0
M  V30 8579 C 815.476 3.23806 1.56172 0
M  V30 8580 C 815.14 4.50459 0.770407 0
M  V30 8581 C 816.137 5.19846 0.0748006 0
M  V30 8582 C 813.822 4.97001 0.727714 0
M  V30 8583 C 815.816 6.34047 -0.652902 0
M  V30 8584 C 813.503 6.111 -0.00373992 0
M  V30 8585 C 814.501 6.79477 -0.692816 0
M  V30 8586 O 814.189 7.91395 -1.41241 0
M  V30 8587 H 813.921 0.641174 0.214179 0
M  V30 8588 H 816.475 2.054 0.00285095 0
M  V30 8589 H 814.705 3.0752 2.34453 0
M  V30 8590 H 816.394 3.44463 2.14709 0
M  V30 8591 H 817.16 4.84899 0.098875 0
M  V30 8592 H 813.039 4.43629 1.25355 0
M  V30 8593 H 816.583 6.87353 -1.1913 0
M  V30 8594 H 812.48 6.45493 -0.0297703 0
M  V30 8595 H 813.248 8.07702 -1.32512 0
M  V30 8596 N 815.911 -0.310526 1.54511 0
M  V30 8597 C 816.861 -1.38405 1.81185 0
M  V30 8598 C 817.845 -1.46355 0.668499 0
M  V30 8599 O 819.037 -1.50668 0.928873 0
M  V30 8600 C 816.166 -2.75059 2.0542 0
M  V30 8601 C 815.252 -2.7137 3.25913 0
M  V30 8602 N 815.643 -2.37298 4.4668 0
M  V30 8603 C 813.941 -3.02484 3.27749 0
M  V30 8604 C 814.642 -2.42669 5.28665 0
M  V30 8605 N 813.618 -2.79639 4.66158 0
M  V30 8606 H 817.42 -1.11012 2.72128 0
M  V30 8607 H 814.934 -0.519068 1.53881 0
M  V30 8608 H 816.931 -3.52451 2.22674 0
M  V30 8609 H 815.591 -3.03372 1.15739 0
M  V30 8610 H 816.602 -2.09917 4.73451 0
M  V30 8611 H 813.279 -3.35754 2.48144 0
M  V30 8612 H 814.669 -2.19206 6.35136 0
M  V30 8613 N 817.389 -1.46805 -0.573248 0
M  V30 8614 C 818.614 -1.56433 -1.36175 0
M  V30 8615 C 819.039 -0.209336 -1.86932 0
M  V30 8616 O 818.397 0.812146 -1.62092 0
M  V30 8617 C 818.445 -2.58055 -2.51873 0
M  V30 8618 O 817.549 -2.12214 -3.53609 0
M  V30 8619 H 816.89 -0.526068 -0.405153 0
M  V30 8620 H 819.42 -1.92456 -0.694405 0
M  V30 8621 H 819.43 -2.77966 -2.98662 0
M  V30 8622 H 818.105 -3.56448 -2.14284 0
M  V30 8623 H 816.682 -2.02333 -3.13234 0
M  V30 8624 N 818.867 0.818669 -1.34668 0
M  V30 8625 C 820.113 1.57746 -1.27453 0
M  V30 8626 C 820.446 1.93588 0.154077 0
M  V30 8627 O 819.721 1.60371 1.10051 0
M  V30 8628 C 820.004 2.87414 -2.16945 0
M  V30 8629 C 819.857 2.58125 -3.68363 0
M  V30 8630 C 821.176 3.89021 -2.05792 0
M  V30 8631 H 818.295 0.572339 -0.464324 0
M  V30 8632 H 820.937 0.942784 -1.64959 0
M  V30 8633 H 819.087 3.41576 -1.85089 0
M  V30 8634 H 820.759 2.10239 -4.10606 0
M  V30 8635 H 819.002 1.91503 -3.89242 0
M  V30 8636 H 819.673 3.5061 -4.26353 0
M  V30 8637 H 822.149 3.44224 -2.33771 0
M  V30 8638 H 821.025 4.77548 -2.70628 0
M  V30 8639 H 821.286 4.29786 -1.03618 0
M  V30 8640 N 820.346 1.18468 1.03938 0
M  V30 8641 C 821.576 1.0043 1.80547 0
M  V30 8642 C 821.984 -0.450407 1.83761 0
M  V30 8643 O 821.327 -1.32463 1.27276 0
M  V30 8644 C 821.389 1.48437 3.27424 0
M  V30 8645 C 821.053 2.96372 3.47869 0
M  V30 8646 C 822.05 3.94217 3.38953 0
M  V30 8647 C 819.735 3.34831 3.74424 0
M  V30 8648 C 821.729 5.28517 3.56298 0
M  V30 8649 C 819.416 4.69294 3.91416 0
M  V30 8650 C 820.414 5.65946 3.82354 0
M  V30 8651 O 820.102 6.97974 3.98858 0
M  V30 8652 H 819.834 0.354853 0.575374 0
M  V30 8653 H 822.388 1.57473 1.31876 0
M  V30 8654 H 820.618 0.857601 3.7707 0
M  V30 8655 H 822.307 1.2677 3.85596 0
M  V30 8656 H 823.073 3.6585 3.184 0
M  V30 8657 H 818.952 2.60161 3.80575 0
M  V30 8658 H 822.496 6.03943 3.49141 0
M  V30 8659 H 818.393 4.97361 4.11463 0
M  V30 8660 H 819.161 7.04895 4.1601 0
M  V30 8661 N 821.824 -1.22873 0.986916 0
M  V30 8662 C 822.734 -2.28277 0.540978 0
M  V30 8663 C 823.75 -1.69164 -0.407363 0
M  V30 8664 O 824.926 -1.99504 -0.275674 0
M  V30 8665 C 821.991 -3.46404 -0.143181 0
M  V30 8666 C 821.052 -4.20854 0.847375 0
M  V30 8667 C 820.285 -5.33341 0.19577 0
M  V30 8668 O 820.508 -5.61356 -1.0117 0
M  V30 8669 O 819.442 -5.95169 0.897623 0
M  V30 8670 H 823.268 -2.68578 1.41773 0
M  V30 8671 H 820.853 -1.28927 0.754867 0
M  V30 8672 H 822.735 -4.18096 -0.526676 0
M  V30 8673 H 821.41 -3.08041 -0.994593 0
M  V30 8674 H 820.317 -3.51459 1.28169 0
M  V30 8675 H 821.65 -4.63082 1.6678 0
M  V30 8676 N 823.302 -0.75937 -1.38099 0
M  V30 8677 C 824.53 -0.329111 -2.04266 0
M  V30 8678 C 824.945 1.04453 -1.57274 0
M  V30 8679 O 824.302 1.66449 -0.748397 0
M  V30 8680 C 824.353 -0.349192 -3.5981 0
M  V30 8681 O 824.074 -1.66863 -4.05078 0
M  V30 8682 C 825.575 0.0942106 -4.432 0
M  V30 8683 H 822.795 -0.13971 -0.656294 0
M  V30 8684 H 825.339 -1.02984 -1.76677 0
M  V30 8685 H 823.494 0.302846 -3.86214 0
M  V30 8686 H 823.908 -1.59877 -4.9954 0
M  V30 8687 H 825.382 0.0290004 -5.51992 0
M  V30 8688 H 825.859 1.1429 -4.24069 0
M  V30 8689 H 826.465 -0.529171 -4.21995 0
M  V30 8690 N 824.78 1.49157 -0.508906 0
M  V30 8691 C 826.01 2.06579 0.0293308 0
M  V30 8692 C 826.418 1.36852 1.30645 0
M  V30 8693 O 825.761 0.443079 1.78276 0
M  V30 8694 C 825.823 3.57838 0.345296 0
M  V30 8695 C 825.487 4.49302 -0.835256 0
M  V30 8696 C 826.484 4.90345 -1.72793 0
M  V30 8697 C 824.169 4.91494 -1.0363 0
M  V30 8698 C 826.163 5.72327 -2.80573 0
M  V30 8699 C 823.85 5.7325 -2.11726 0
M  V30 8700 C 824.848 6.13572 -3.00032 0
M  V30 8701 O 824.536 6.93691 -4.06261 0
M  V30 8702 H 824.268 0.675679 -0.0208193 0
M  V30 8703 H 826.822 1.9282 -0.707789 0
M  V30 8704 H 825.052 3.69634 1.13612 0
M  V30 8705 H 826.741 3.97467 0.823089 0
M  V30 8706 H 827.507 4.58388 -1.58446 0
M  V30 8707 H 823.386 4.59605 -0.358308 0
M  V30 8708 H 826.93 6.03719 -3.49527 0
M  V30 8709 H 822.827 6.0462 -2.26065 0
M  V30 8710 H 823.595 7.12011 -4.03711 0
M  V30 8711 N 826.258 0.243083 1.55714 0
M  V30 8712 C 827.168 -0.668913 2.24862 0
M  V30 8713 C 828.184 -1.19638 1.26344 0
M  V30 8714 O 829.36 -1.23345 1.5921 0
M  V30 8715 C 826.425 -1.85084 2.93163 0
M  V30 8716 C 825.486 -1.36323 4.07081 0
M  V30 8717 C 824.719 -2.48882 4.72116 0
M  V30 8718 O 824.942 -3.67523 4.36214 0
M  V30 8719 O 823.876 -2.18857 5.60701 0
M  V30 8720 H 827.702 -0.109737 3.03502 0
M  V30 8721 H 825.287 0.0117411 1.49395 0
M  V30 8722 H 827.169 -2.54065 3.36197 0
M  V30 8723 H 825.844 -2.39771 2.17466 0
M  V30 8724 H 824.751 -0.640804 3.68571 0
M  V30 8725 H 826.084 -0.86249 4.84584 0
M  V30 8726 N 827.736 -1.57571 -0.0300757 0
M  V30 8727 C 828.666 -2.0953 -1.03051 0
M  V30 8728 C 829.647 -0.99761 -1.37774 0
M  V30 8729 O 830.832 -1.27279 -1.46676 0
M  V30 8730 C 827.962 -2.57385 -2.33174 0
M  V30 8731 C 826.916 -3.71409 -2.12696 0
M  V30 8732 C 826.242 -4.05467 -3.4857 0
M  V30 8733 C 827.542 -4.99877 -1.51396 0
M  V30 8734 H 829.236 -2.93367 -0.597999 0
M  V30 8735 H 826.782 -1.41127 -0.286203 0
M  V30 8736 H 828.735 -2.92355 -3.03491 0
M  V30 8737 H 827.459 -1.70629 -2.78484 0
M  V30 8738 H 826.118 -3.36786 -1.44813 0
M  V30 8739 H 825.766 -3.15779 -3.91526 0
M  V30 8740 H 825.466 -4.82269 -3.35694 0
M  V30 8741 H 826.99 -4.4297 -4.2025 0
M  V30 8742 H 828.404 -5.3281 -2.11629 0
M  V30 8743 H 826.801 -5.81283 -1.49098 0
M  V30 8744 H 827.871 -4.82522 -0.479676 0
M  V30 8745 N 829.214 0.302327 -1.54673 0
M  V30 8746 C 830.46 1.03924 -1.74149 0
M  V30 8747 C 830.793 1.86968 -0.525041 0
M  V30 8748 O 830.068 1.88538 0.477868 0
M  V30 8749 C 830.351 1.94633 -3.02969 0
M  V30 8750 C 830.204 1.14778 -4.34909 0
M  V30 8751 C 831.523 2.93826 -3.27649 0
M  V30 8752 H 828.642 0.376405 -0.633631 0
M  V30 8753 H 831.284 0.314007 -1.87387 0
M  V30 8754 H 829.434 2.56471 -2.91813 0
M  V30 8755 H 831.106 0.552363 -4.57981 0
M  V30 8756 H 829.349 0.450462 -4.31455 0
M  V30 8757 H 830.02 1.81495 -5.21309 0
M  V30 8758 H 832.496 2.42117 -3.38406 0
M  V30 8759 H 831.372 3.54462 -4.19104 0
M  V30 8760 H 831.633 3.67416 -2.45882 0
M  V30 8761 N 830.692 1.47107 0.565454 0
M  V30 8762 C 831.602 1.61591 1.70075 0
M  V30 8763 C 832.618 0.498931 1.66693 0
M  V30 8764 O 833.794 0.765372 1.8629 0
M  V30 8765 C 830.859 1.61887 3.06583 0
M  V30 8766 C 829.92 2.84949 3.21096 0
M  V30 8767 C 829.153 2.85221 4.51093 0
M  V30 8768 O 829.376 1.94959 5.36048 0
M  V30 8769 O 828.31 3.76982 4.69221 0
M  V30 8770 H 832.136 2.57638 1.60799 0
M  V30 8771 H 829.721 1.30097 0.73451 0
M  V30 8772 H 831.603 1.64809 3.87835 0
M  V30 8773 H 830.278 0.69005 3.16259 0
M  V30 8774 H 829.185 2.87575 2.39273 0
M  V30 8775 H 830.518 3.77098 3.1632 0
M  V30 8776 N 832.17 -0.811516 1.35101 0
M  V30 8777 C 833.117 -1.92308 1.27617 0
M  V30 8778 C 834.087 -1.6543 0.149091 0
M  V30 8779 O 835.272 -1.8789 0.331974 0
M  V30 8780 C 832.412 -3.28768 1.04908 0
M  V30 8781 C 831.525 -3.67865 2.26493 0
M  V30 8782 C 830.66 -4.9333 1.96974 0
M  V30 8783 C 829.699 -5.25041 3.1464 0
M  V30 8784 N 828.836 -6.41685 2.84929 0
M  V30 8785 H 833.676 -1.98041 2.22674 0
M  V30 8786 H 831.213 -0.968755 1.10696 0
M  V30 8787 H 833.171 -4.07426 0.897749 0
M  V30 8788 H 831.801 -3.22517 0.135151 0
M  V30 8789 H 830.853 -2.84507 2.52507 0
M  V30 8790 H 832.165 -3.87263 3.14371 0
M  V30 8791 H 831.319 -5.79803 1.78643 0
M  V30 8792 H 830.058 -4.75958 1.06374 0
M  V30 8793 H 829.063 -4.3706 3.33554 0
M  V30 8794 H 830.288 -5.44346 4.06035 0
M  V30 8795 H 828.234 -6.25747 1.96918 0
M  V30 8796 H 828.151 -6.6131 3.66341 0
M  V30 8797 H 829.419 -7.31198 2.70128 0
M  V30 8798 N 833.648 -1.19017 -1.03309 0
M  V30 8799 C 834.895 -0.990214 -1.76638 0
M  V30 8800 C 835.223 0.479435 -1.88498 0
M  V30 8801 O 834.478 1.37223 -1.39529 0
M  V30 8802 C 834.777 -1.59927 -3.19622 0
M  V30 8803 C 834.443 -3.09632 -3.27779 0
M  V30 8804 C 833.105 -3.50491 -3.29712 0
M  V30 8805 C 835.457 -4.05644 -3.27264 0
M  V30 8806 C 832.785 -4.85921 -3.28782 0
M  V30 8807 C 835.137 -5.41 -3.27875 0
M  V30 8808 C 833.801 -5.81295 -3.28104 0
M  V30 8809 H 833.071 -0.362345 -0.646364 0
M  V30 8810 H 835.718 -1.48197 -1.21284 0
M  V30 8811 H 834.023 -1.0297 -3.78027 0
M  V30 8812 H 835.72 -1.41989 -3.7502 0
M  V30 8813 H 832.31 -2.77073 -3.26999 0
M  V30 8814 H 836.494 -3.75124 -3.24955 0
M  V30 8815 H 831.75 -5.16427 -3.27281 0
M  V30 8816 H 835.924 -6.15157 -3.26428 0
M  V30 8817 H 833.551 -6.86211 -3.27138 0
M  V30 8818 N 835.127 1.22348 -0.993418 0
M  V30 8819 C 836.357 1.94842 -0.687023 0
M  V30 8820 C 836.765 1.73594 0.752445 0
M  V30 8821 O 836.108 1.03238 1.51946 0
M  V30 8822 C 836.17 3.47694 -0.913754 0
M  V30 8823 C 835.834 3.92678 -2.33781 0
M  V30 8824 C 836.831 4.0031 -3.31734 0
M  V30 8825 C 834.516 4.25311 -2.67237 0
M  V30 8826 C 836.51 4.39951 -4.61218 0
M  V30 8827 C 834.197 4.64631 -3.9694 0
M  V30 8828 C 835.195 4.71919 -4.93742 0
M  V30 8829 O 834.883 5.10349 -6.21127 0
M  V30 8830 H 834.615 0.626771 -0.253247 0
M  V30 8831 H 837.169 1.56436 -1.33105 0
M  V30 8832 H 835.399 3.86115 -0.212552 0
M  V30 8833 H 837.088 4.01403 -0.602528 0
M  V30 8834 H 837.854 3.75288 -3.07219 0
M  V30 8835 H 833.733 4.18842 -1.92594 0
M  V30 8836 H 837.277 4.45555 -5.36774 0
M  V30 8837 H 833.174 4.89104 -4.21245 0
M  V30 8838 H 833.942 5.2842 -6.25072 0
M  V30 8839 N 836.605 0.766683 1.37694 0
M  V30 8840 C 837.882 0.25366 1.93948 0
M  V30 8841 C 838.262 -1.25041 1.70082 0
M  V30 8842 O 837.61 -2.03115 1.04674 0
M  V30 8843 C 837.82 0.621549 3.43421 0
M  V30 8844 C 839.168 0.588504 4.20502 0
M  V30 8845 O 840.192 0.560632 3.5176 0
M  V30 8846 O 839.051 0.61107 5.43073 0
M  V30 8847 H 836.145 0.0570586 0.825029 0
M  V30 8848 H 838.691 0.847693 1.47011 0
M  V30 8849 H 837.463 1.65979 3.54354 0
M  V30 8850 H 837.086 0.000197027 3.976 0
M  V30 8851 N 838.083 -1.48885 0.516809 0
M  V30 8852 C 839.494 -1.86557 0.0729921 0
M  V30 8853 C 839.845 -1.42767 -1.34581 0
M  V30 8854 O 838.97 -0.812514 -2.00567 0
M  V30 8855 C 839.565 -3.38567 0.125686 0
M  V30 8856 C 838.124 -3.75481 -0.262867 0
M  V30 8857 C 837.271 -2.72913 0.491281 0
M  V30 8858 H 840.222 -1.40978 0.728767 0
M  V30 8859 H 840.243 -3.74629 -0.665831 0
M  V30 8860 H 839.755 -3.70408 1.15842 0
M  V30 8861 H 837.856 -3.49251 -1.29824 0
M  V30 8862 H 837.969 -4.79052 0.067579 0
M  V30 8863 H 836.333 -2.54627 -0.0608525 0
M  V30 8864 H 837.116 -3.07599 1.5244 0
M  V30 8865 N 839.561 -0.251338 -1.55583 0
M  V30 8866 C 840.494 0.687092 -2.1761 0
M  V30 8867 C 841.472 1.16963 -1.12953 0
M  V30 8868 O 842.656 1.24696 -1.41362 0
M  V30 8869 C 839.783 1.93429 -2.78034 0
M  V30 8870 C 838.829 1.58925 -3.95784 0
M  V30 8871 S 839.662 0.688019 -5.31062 0
M  V30 8872 C 840.818 1.94413 -5.94941 0
M  V30 8873 H 841.051 0.159982 -2.96869 0
M  V30 8874 H 838.584 -0.0357593 -1.54359 0
M  V30 8875 H 840.542 2.65028 -3.13481 0
M  V30 8876 H 839.203 2.43253 -1.98713 0
M  V30 8877 H 838.396 2.51668 -4.36668 0
M  V30 8878 H 837.998 0.953664 -3.61637 0
M  V30 8879 H 840.29 2.89087 -6.12727 0
M  V30 8880 H 841.233 1.5787 -6.90277 0
M  V30 8881 H 841.641 2.09824 -5.24056 0
M  V30 8882 N 841.039 1.57585 0.0217189 0
M  V30 8883 C 842.286 1.89606 0.711045 0
M  V30 8884 C 842.614 0.849535 1.74966 0
M  V30 8885 O 841.869 -0.14856 1.95135 0
M  V30 8886 C 842.168 3.28377 1.41079 0
M  V30 8887 C 841.834 4.48035 0.507454 0
M  V30 8888 C 840.496 4.80504 0.258672 0
M  V30 8889 C 842.848 5.21071 -0.115793 0
M  V30 8890 C 840.176 5.83393 -0.622013 0
M  V30 8891 C 842.528 6.24897 -0.984224 0
M  V30 8892 C 841.192 6.55836 -1.2424 0
M  V30 8893 H 840.462 0.693817 0.26019 0
M  V30 8894 H 843.109 1.91478 -0.0291424 0
M  V30 8895 H 841.414 3.22528 2.22448 0
M  V30 8896 H 843.111 3.50404 1.94982 0
M  V30 8897 H 839.701 4.22653 0.711516 0
M  V30 8898 H 843.885 4.96259 0.0634327 0
M  V30 8899 H 839.141 6.05736 -0.830267 0
M  V30 8900 H 843.315 6.8063 -1.47363 0
M  V30 8901 H 840.942 7.35383 -1.92653 0
M  V30 8902 N 842.517 -0.29412 1.54831 0
M  V30 8903 C 843.464 -1.36296 1.86258 0
M  V30 8904 C 844.434 -1.50061 0.712097 0
M  V30 8905 O 845.619 -1.64809 0.961381 0
M  V30 8906 C 842.759 -2.72187 2.12151 0
M  V30 8907 C 841.872 -2.66816 3.39755 0
M  V30 8908 C 841.007 -3.94747 3.55455 0
M  V30 8909 C 840.046 -3.838 4.76827 0
M  V30 8910 N 839.183 -5.03521 4.89296 0
M  V30 8911 H 844.023 -1.08796 2.7743 0
M  V30 8912 H 841.56 -0.526069 1.37371 0
M  V30 8913 H 843.518 -3.51225 2.25159 0
M  V30 8914 H 842.148 -2.97934 1.24237 0
M  V30 8915 H 841.2 -1.79605 3.3533 0
M  V30 8916 H 842.512 -2.5462 4.28917 0
M  V30 8917 H 841.666 -4.82223 3.68166 0
M  V30 8918 H 840.405 -4.09785 2.64438 0
M  V30 8919 H 839.41 -2.94708 4.64141 0
M  V30 8920 H 840.635 -3.70301 5.69258 0
M  V30 8921 H 838.581 -5.1901 4.01204 0
M  V30 8922 H 838.498 -4.93775 5.72471 0
M  V30 8923 H 839.766 -5.92629 5.06371 0
M  V30 8924 N 843.995 -1.47404 -0.557645 0
M  V30 8925 C 845.225 -1.57393 -1.33832 0
M  V30 8926 C 845.633 -0.222978 -1.87881 0
M  V30 8927 O 844.976 0.793854 -1.65661 0
M  V30 8928 C 845.038 -2.53882 -2.54528 0
M  V30 8929 C 844.702 -3.99585 -2.21767 0
M  V30 8930 C 845.699 -4.88082 -1.79087 0
M  V30 8931 C 843.384 -4.44917 -2.3314 0
M  V30 8932 C 845.378 -6.1993 -1.48209 0
M  V30 8933 C 843.065 -5.76793 -2.01874 0
M  V30 8934 C 844.063 -6.64121 -1.59476 0
M  V30 8935 O 843.751 -7.93546 -1.28607 0
M  V30 8936 H 843.483 -0.534172 -0.41429 0
M  V30 8937 H 846.037 -1.93733 -0.682404 0
M  V30 8938 H 844.267 -2.12609 -3.23009 0
M  V30 8939 H 845.956 -2.54003 -3.16603 0
M  V30 8940 H 846.722 -4.54307 -1.69794 0
M  V30 8941 H 842.601 -3.77152 -2.65099 0
M  V30 8942 H 846.145 -6.88049 -1.15043 0
M  V30 8943 H 842.042 -6.1011 -2.10799 0
M  V30 8944 H 842.81 -8.06046 -1.42241 0
M  V30 8945 N 845.473 0.80434 -1.35529 0
M  V30 8946 C 846.423 1.90565 -1.25175 0
M  V30 8947 C 847.407 1.60232 -0.146512 0
M  V30 8948 O 848.599 1.72918 -0.377943 0
M  V30 8949 C 845.728 3.2754 -1.02823 0
M  V30 8950 C 844.814 3.63932 -2.17748 0
M  V30 8951 N 845.205 3.71744 -3.42986 0
M  V30 8952 C 843.503 3.93901 -2.09184 0
M  V30 8953 C 844.204 4.03944 -4.18574 0
M  V30 8954 N 843.18 4.18146 -3.47355 0
M  V30 8955 H 846.982 1.9481 -2.20059 0
M  V30 8956 H 844.496 0.99905 -1.28034 0
M  V30 8957 H 846.493 4.06281 -0.934941 0
M  V30 8958 H 845.153 3.2458 -0.0882551 0
M  V30 8959 H 846.164 3.54765 -3.77309 0
M  V30 8960 H 842.841 3.98954 -1.23054 0
M  V30 8961 H 844.231 4.17036 -5.26811 0
M  V30 8962 N 846.951 1.19563 1.02676 0
M  V30 8963 C 847.881 0.959024 2.12897 0
M  V30 8964 C 848.862 -0.108382 1.69754 0
M  V30 8965 O 850.047 0.0470698 1.94143 0
M  V30 8966 C 847.177 0.499211 3.43693 0
M  V30 8967 C 846.131 1.5087 4.00528 0
M  V30 8968 C 845.457 0.905884 5.2697 0
M  V30 8969 C 846.757 2.88954 4.3509 0
M  V30 8970 H 848.451 1.88084 2.32948 0
M  V30 8971 H 845.997 0.905731 1.11949 0
M  V30 8972 H 847.95 0.320965 4.20176 0
M  V30 8973 H 846.674 -0.458205 3.2337 0
M  V30 8974 H 845.333 1.67413 3.26142 0
M  V30 8975 H 844.981 -0.0591506 5.02965 0
M  V30 8976 H 844.681 1.58 5.65959 0
M  V30 8977 H 846.205 0.73848 6.06118 0
M  V30 8978 H 847.619 2.75981 5.02501 0
M  V30 8979 H 846.016 3.53177 4.85166 0
M  V30 8980 H 847.086 3.41447 3.44299 0
M  V30 8981 N 848.429 -1.21819 0.999893 0
M  V30 8982 C 849.657 -1.94758 0.698359 0
M  V30 8983 C 850.072 -1.73771 -0.738183 0
M  V30 8984 O 849.429 -1.04113 -1.49889 0
M  V30 8985 C 849.48 -3.47292 1.00353 0
M  V30 8986 O 849.201 -3.67579 2.38363 0
M  V30 8987 C 850.702 -4.37403 0.72068 0
M  V30 8988 H 847.922 -0.619512 0.257771 0
M  V30 8989 H 850.466 -1.54778 1.33656 0
M  V30 8990 H 848.621 -3.85213 0.411018 0
M  V30 8991 H 849.035 -4.61719 2.48829 0
M  V30 8992 H 850.509 -5.43151 0.984422 0
M  V30 8993 H 850.986 -4.3784 -0.345309 0
M  V30 8994 H 851.592 -4.05119 1.29456 0
M  V30 8995 N 849.908 -0.773975 -1.37286 0
M  V30 8996 C 851.154 -0.339809 -1.99933 0
M  V30 8997 C 851.487 1.0815 -1.61299 0
M  V30 8998 O 850.762 1.74442 -0.860252 0
M  V30 8999 C 851.045 -0.485919 -3.56806 0
M  V30 9000 C 850.898 -1.9498 -4.05343 0
M  V30 9001 C 852.217 0.108461 -4.39966 0
M  V30 9002 H 849.336 -0.124944 -0.726332 0
M  V30 9003 H 851.978 -0.977433 -1.6293 0
M  V30 9004 H 850.128 0.0569023 -3.88458 0
M  V30 9005 H 851.8 -2.5525 -3.84246 0
M  V30 9006 H 850.043 -2.45784 -3.57453 0
M  V30 9007 H 850.714 -2.00308 -5.14374 0
M  V30 9008 H 853.19 -0.354722 -4.14585 0
M  V30 9009 H 852.066 -0.0238926 -5.48895 0
M  V30 9010 H 852.327 1.19901 -4.25531 0
M  V30 9011 N 851.386 1.48609 -0.524698 0
M  V30 9012 C 852.349 2.28041 0.230166 0
M  V30 9013 C 853.349 1.35065 0.872584 0
M  V30 9014 O 854.539 1.58007 0.73345 0
M  V30 9015 C 851.671 3.13778 1.33252 0
M  V30 9016 H 852.864 2.96239 -0.467161 0
M  V30 9017 H 850.417 1.53763 -0.280452 0
M  V30 9018 H 851.152 2.502 2.06327 0
M  V30 9019 H 850.937 3.82165 0.877058 0
M  V30 9020 H 852.427 3.7371 1.86362 0
M  V30 9021 N 852.864 0.259585 1.55447 0
M  V30 9022 C 853.796 -0.667548 2.19263 0
M  V30 9023 C 854.809 -1.12925 1.17268 0
M  V30 9024 O 855.998 -1.05384 1.44071 0
M  V30 9025 C 853.098 -1.92066 2.7922 0
M  V30 9026 C 852.271 -1.60832 4.06758 0
M  V30 9027 C 851.33 -2.71231 4.50911 0
M  V30 9028 O 850.356 -2.38077 5.17019 0
M  V30 9029 N 851.558 -4.00984 4.19752 0
M  V30 9030 H 854.323 -0.121449 2.99454 0
M  V30 9031 H 851.884 0.0800519 1.61702 0
M  V30 9032 H 853.876 -2.65186 3.0571 0
M  V30 9033 H 852.446 -2.37621 2.03113 0
M  V30 9034 H 851.666 -0.711685 3.87722 0
M  V30 9035 H 852.954 -1.37445 4.89884 0
M  V30 9036 H 852.352 -4.30748 3.66706 0
M  V30 9037 H 850.909 -4.7053 4.51048 0
M  V30 9038 N 854.342 -1.57594 -0.0133615 0
M  V30 9039 C 855.588 -1.90262 -0.702019 0
M  V30 9040 C 855.921 -0.859219 -1.74158 0
M  V30 9041 O 855.196 0.123778 -1.94106 0
M  V30 9042 C 855.479 -3.3354 -1.35732 0
M  V30 9043 C 855.332 -4.48586 -0.330208 0
M  V30 9044 C 856.651 -3.76004 -2.28712 0
M  V30 9045 H 853.77 -0.691943 -0.253739 0
M  V30 9046 H 856.412 -1.89967 0.0351894 0
M  V30 9047 H 854.562 -3.33921 -1.98567 0
M  V30 9048 H 856.234 -4.6034 0.297433 0
M  V30 9049 H 854.477 -4.32394 0.348926 0
M  V30 9050 H 855.148 -5.45762 -0.827508 0
M  V30 9051 H 857.624 -3.77089 -1.75906 0
M  V30 9052 H 856.5 -4.77032 -2.71535 0
M  V30 9053 H 856.761 -3.09129 -3.16056 0
M  V30 9054 N 855.82 0.285905 -1.54985 0
M  V30 9055 C 857.236 0.632405 -1.46536 0
M  V30 9056 C 857.436 1.90074 -0.668888 0
M  V30 9057 O 856.492 2.51839 -0.182586 0
M  V30 9058 C 857.805 0.771361 -2.90638 0
M  V30 9059 C 859.353 0.866262 -3.00774 0
M  V30 9060 C 859.828 1.0371 -4.46103 0
M  V30 9061 N 861.319 1.10294 -4.49877 0
M  V30 9062 C 862.054 1.25369 -5.59527 0
M  V30 9063 N 861.55 1.37246 -6.7907 0
M  V30 9064 N 863.343 1.28377 -5.47244 0
M  V30 9065 H 855.494 -0.547226 -2.0523 0
M  V30 9066 H 857.757 -0.183298 -0.930111 0
M  V30 9067 H 857.463 -0.0899485 -3.51585 0
M  V30 9068 H 857.337 1.65569 -3.3892 0
M  V30 9069 H 859.724 1.71805 -2.39931 0
M  V30 9070 H 859.805 -0.0424049 -2.55765 0
M  V30 9071 H 859.449 0.190021 -5.07544 0
M  V30 9072 H 859.379 1.96022 -4.88757 0
M  V30 9073 H 861.87 1.02407 -3.6376 0
M  V30 9074 H 862.183 1.48546 -7.58389 0
M  V30 9075 H 860.528 1.34274 -6.81906 0
M  V30 9076 H 863.719 1.1872 -4.52795 0
M  V30 9077 H 863.892 1.39782 -6.32744 0
M  V30 9078 N 857.298 1.47698 0.54982 0
M  V30 9079 C 858.546 1.54397 1.30407 0
M  V30 9080 C 858.867 0.211026 1.93855 0
M  V30 9081 O 858.137 -0.765701 1.80316 0
M  V30 9082 H 856.717 0.568747 0.484289 0
M  V30 9083 H 859.379 1.84042 0.641444 0
M  V30 9084 H 858.475 2.31449 2.09375 0
M  V30 9085 N 858.776 -0.797141 1.35954 0
M  V30 9086 C 860.024 -1.55161 1.29497 0
M  V30 9087 C 860.345 -1.94582 -0.127659 0
M  V30 9088 O 859.615 -1.64343 -1.06622 0
M  V30 9089 H 858.195 -0.575413 0.47635 0
M  V30 9090 H 860.857 -0.950282 1.70164 0
M  V30 9091 H 859.953 -2.46272 1.9172 0
M  V30 9092 N 860.254 -1.20106 -1.0204 0
M  V30 9093 C 861.187 -0.889795 -2.10138 0
M  V30 9094 C 862.165 0.156595 -1.61844 0
M  V30 9095 O 863.349 0.0310192 -1.88474 0
M  V30 9096 C 860.476 -0.333227 -3.37057 0
M  V30 9097 C 859.522 -1.36001 -4.04235 0
M  V30 9098 S 860.355 -2.92366 -4.48645 0
M  V30 9099 C 861.511 -2.38274 -5.78771 0
M  V30 9100 H 861.744 -1.80523 -2.36217 0
M  V30 9101 H 859.277 -1.02912 -1.15102 0
M  V30 9102 H 861.235 -0.0186507 -4.10496 0
M  V30 9103 H 859.896 0.560652 -3.09056 0
M  V30 9104 H 859.089 -0.919874 -4.95534 0
M  V30 9105 H 858.691 -1.62186 -3.37004 0
M  V30 9106 H 860.983 -1.77799 -6.53754 0
M  V30 9107 H 861.926 -3.27955 -6.27576 0
M  V30 9108 H 862.334 -1.8054 -5.34851 0
M  V30 9109 N 861.732 1.21287 -1.00634 0
M  V30 9110 C 862.978 1.90671 -0.690822 0
M  V30 9111 C 863.311 1.77996 0.776592 0
M  V30 9112 O 862.586 1.15748 1.5631 0
M  V30 9113 C 862.869 3.42426 -1.11428 0
M  V30 9114 C 862.722 3.64086 -2.64124 0
M  V30 9115 C 864.041 4.34851 -0.677686 0
M  V30 9116 H 861.16 0.692419 -0.252439 0
M  V30 9117 H 863.802 1.42893 -1.25226 0
M  V30 9118 H 861.952 3.83249 -0.636586 0
M  V30 9119 H 863.624 3.32582 -3.19667 0
M  V30 9120 H 861.867 3.07906 -3.05576 0
M  V30 9121 H 862.538 4.7042 -2.88806 0
M  V30 9122 H 865.014 4.01619 -1.0882 0
M  V30 9123 H 863.89 5.39675 -1.00213 0
M  V30 9124 H 864.151 4.4009 0.421125 0
M  V30 9125 N 863.21 0.781244 1.36873 0
M  V30 9126 C 864.457 0.349889 1.99454 0
M  V30 9127 C 864.785 -1.07621 1.62013 0
M  V30 9128 O 864.04 -1.75665 0.86258 0
M  V30 9129 C 864.339 0.45146 3.54537 0
M  V30 9130 C 864.005 1.83718 4.11775 0
M  V30 9131 C 862.667 2.21634 4.2712 0
M  V30 9132 C 865.019 2.7449 4.43063 0
M  V30 9133 C 862.347 3.49742 4.7106 0
M  V30 9134 C 864.699 4.02017 4.88431 0
M  V30 9135 C 863.363 4.39967 5.01982 0
M  V30 9136 H 862.633 0.128033 0.729855 0
M  V30 9137 H 865.28 0.997117 1.63493 0
M  V30 9138 H 863.585 -0.279288 3.90803 0
M  V30 9139 H 865.282 0.0988609 4.00878 0
M  V30 9140 H 861.872 1.53251 4.00265 0
M  V30 9141 H 866.056 2.46453 4.30783 0
M  V30 9142 H 861.312 3.79026 4.79738 0
M  V30 9143 H 865.486 4.72475 5.11605 0
M  V30 9144 H 863.113 5.39291 5.35788 0
M  V30 9145 N 864.689 -1.48329 0.532571 0
M  V30 9146 C 865.599 -2.33445 -0.232546 0
M  V30 9147 C 866.615 -1.46651 -0.93645 0
M  V30 9148 O 867.791 -1.79627 -0.910834 0
M  V30 9149 C 864.856 -3.22824 -1.26434 0
M  V30 9150 C 863.917 -4.25492 -0.570511 0
M  V30 9151 C 863.15 -5.10601 -1.55315 0
M  V30 9152 O 863.373 -4.97733 -2.78599 0
M  V30 9153 O 862.307 -5.91927 -1.09112 0
M  V30 9154 H 866.133 -3.00119 0.464988 0
M  V30 9155 H 863.718 -1.46489 0.293462 0
M  V30 9156 H 865.6 -3.78103 -1.86055 0
M  V30 9157 H 864.275 -2.58807 -1.94424 0
M  V30 9158 H 863.182 -3.74041 0.0662587 0
M  V30 9159 H 864.515 -4.92154 0.0674904 0
M  V30 9160 N 866.167 -0.267825 -1.55308 0
M  V30 9161 C 867.097 0.616585 -2.25212 0
M  V30 9162 C 868.078 1.16472 -1.23969 0
M  V30 9163 O 869.263 1.20021 -1.52672 0
M  V30 9164 C 866.393 1.80412 -2.96764 0
M  V30 9165 C 865.347 1.38784 -4.04874 0
M  V30 9166 C 864.673 2.65789 -4.63961 0
M  V30 9167 C 865.973 0.543415 -5.19465 0
M  V30 9168 H 867.667 0.0336257 -2.99381 0
M  V30 9169 H 865.213 0.0147328 -1.43992 0
M  V30 9170 H 867.166 2.42866 -3.44375 0
M  V30 9171 H 865.89 2.4128 -2.20118 0
M  V30 9172 H 864.549 0.786541 -3.58063 0
M  V30 9173 H 864.197 3.24899 -3.83992 0
M  V30 9174 H 863.897 2.38651 -5.36954 0
M  V30 9175 H 865.421 3.29104 -5.14318 0
M  V30 9176 H 866.835 1.07277 -5.63174 0
M  V30 9177 H 865.232 0.367219 -5.98975 0
M  V30 9178 H 866.302 -0.439534 -4.82904 0
M  V30 9179 N 867.645 1.57599 0.00500368 0
M  V30 9180 C 868.608 2.07058 0.982832 0
M  V30 9181 C 869.608 0.979045 1.27559 0
M  V30 9182 O 870.798 1.24187 1.22161 0
M  V30 9183 C 867.93 2.50782 2.30914 0
M  V30 9184 H 869.123 2.94718 0.555119 0
M  V30 9185 H 866.676 1.54249 0.25237 0
M  V30 9186 H 867.411 1.66351 2.78385 0
M  V30 9187 H 867.196 3.30495 2.10987 0
M  V30 9188 H 868.686 2.89391 3.0107 0
M  V30 9189 N 869.123 -0.277682 1.55134 0
M  V30 9190 C 870.071 -1.36305 1.88478 0
M  V30 9191 C 871.065 -1.51362 0.760654 0
M  V30 9192 O 872.271 -1.53202 0.944943 0
M  V30 9193 H 868.646 -0.45577 0.598146 0
M  V30 9194 H 870.617 -1.05431 2.79154 0
M  V30 9195 C 869.366 -2.71739 2.16918 0
M  V30 9196 H 868.689 -2.60942 3.02901 0
M  V30 9197 H 870.129 -3.46635 2.44172 0
M  V30 9198 C 868.588 -3.22476 0.975239 0
M  V30 9199 O 869.118 -4.01164 0.207497 0
M  V30 9200 N 867.324 -2.80097 0.774219 0
M  V30 9201 H 866.871 -2.16221 1.40022 0
M  V30 9202 H 866.829 -3.14392 -0.023021 0
M  V30 9203 N 870.601 -1.47988 -0.541979 0
M  V30 9204 C 871.826 -1.59286 -1.32826 0
M  V30 9205 C 872.251 -0.24894 -1.86445 0
M  V30 9206 O 871.609 0.777581 -1.63778 0
M  V30 9207 C 871.657 -2.6334 -2.46343 0
M  V30 9208 O 870.761 -2.19667 -3.49028 0
M  V30 9209 H 870.102 -0.534543 -0.393903 0
M  V30 9210 H 872.632 -1.93885 -0.653427 0
M  V30 9211 H 872.642 -2.84238 -2.92699 0
M  V30 9212 H 871.317 -3.60913 -2.06675 0
M  V30 9213 H 869.894 -2.08932 -3.08872 0
M  V30 9214 N 872.079 0.78992 -1.36375 0
M  V30 9215 C 873.328 1.54296 -1.29906 0
M  V30 9216 C 873.641 1.95234 0.119651 0
M  V30 9217 O 874.847 2.69762 0.306708 0
M  V30 9218 C 873.303 2.78533 -2.27919 0
M  V30 9219 C 872.911 2.44767 -3.75224 0
M  V30 9220 C 874.655 3.56516 -2.30427 0
M  V30 9221 C 872.562 3.65397 -4.65015 0
M  V30 9222 H 871.492 0.579214 -0.482729 0
M  V30 9223 H 874.143 0.866845 -1.61735 0
M  V30 9224 H 872.525 3.47941 -1.89084 0
M  V30 9225 H 873.699 1.83259 -4.22792 0
M  V30 9226 H 872.014 1.79996 -3.75487 0
M  V30 9227 H 874.611 4.46143 -2.94722 0
M  V30 9228 H 874.954 3.95063 -1.31266 0
M  V30 9229 H 875.487 2.94087 -2.67876 0
M  V30 9230 H 872.226 3.31946 -5.65236 0
M  V30 9231 H 871.746 4.26072 -4.22164 0
M  V30 9232 H 873.425 4.32431 -4.81261 0
M  V30 9233 N 873.557 1.20646 1.01402 0
M  V30 9234 C 874.803 1.0197 1.753 0
M  V30 9235 C 875.136 -0.446803 1.8899 0
M  V30 9236 O 874.411 -1.33169 1.41762 0
M  V30 9237 C 874.694 1.70693 3.17074 0
M  V30 9238 C 874.547 3.24805 3.11162 0
M  V30 9239 C 875.866 1.44212 4.15802 0
M  V30 9240 H 872.985 0.371844 0.636318 0
M  V30 9241 H 875.627 1.48696 1.18277 0
M  V30 9242 H 873.777 1.30968 3.65759 0
M  V30 9243 H 875.449 3.73841 2.70261 0
M  V30 9244 H 873.692 3.55576 2.48492 0
M  V30 9245 H 874.363 3.68049 4.11393 0
M  V30 9246 H 876.839 1.7868 3.75783 0
M  V30 9247 H 875.715 1.94825 5.13161 0
M  V30 9248 H 875.976 0.370252 4.40547 0
M  V30 9249 N 875.035 -1.20752 1.01276 0
M  V30 9250 C 875.965 -2.25658 0.600064 0
M  V30 9251 C 876.946 -1.65733 -0.38298 0
M  V30 9252 O 878.131 -1.92324 -0.269256 0
M  V30 9253 C 875.261 -3.47237 -0.0663197 0
M  V30 9254 C 874.215 -4.1973 0.83731 0
M  V30 9255 C 873.541 -5.34687 0.0369102 0
M  V30 9256 C 874.841 -4.76286 2.14357 0
M  V30 9257 H 876.535 -2.60432 1.477 0
M  V30 9258 H 874.081 -1.25187 0.711634 0
M  V30 9259 H 876.034 -4.19803 -0.366563 0
M  V30 9260 H 874.758 -3.11615 -0.977944 0
M  V30 9261 H 873.417 -3.49024 1.1215 0
M  V30 9262 H 873.065 -4.95309 -0.876244 0
M  V30 9263 H 872.765 -5.84119 0.63865 0
M  V30 9264 H 874.289 -6.10059 -0.256968 0
M  V30 9265 H 875.703 -5.40691 1.90595 0
M  V30 9266 H 874.1 -5.36139 2.69583 0
M  V30 9267 H 875.17 -3.9524 2.80916 0
M  V30 9268 N 876.513 -0.788492 -1.36457 0
M  V30 9269 C 877.924 -0.423742 -1.81828 0
M  V30 9270 C 878.275 1.05221 -1.65599 0
M  V30 9271 O 877.4 1.8163 -1.17641 0
M  V30 9272 C 877.995 -0.762354 -3.30112 0
M  V30 9273 C 876.554 -0.450445 -3.73695 0
M  V30 9274 C 875.701 -0.997482 -2.58738 0
M  V30 9275 H 878.652 -0.981718 -1.24692 0
M  V30 9276 H 878.673 -0.0531136 -3.80463 0
M  V30 9277 H 878.185 -1.83662 -3.41891 0
M  V30 9278 H 876.286 0.615829 -3.67476 0
M  V30 9279 H 876.399 -0.970408 -4.69169 0
M  V30 9280 H 874.763 -0.420761 -2.51201 0
M  V30 9281 H 875.546 -2.07749 -2.73304 0
M  V30 9282 N 877.991 1.48044 -0.54043 0
M  V30 9283 C 879.238 2.02497 -0.0101567 0
M  V30 9284 C 879.566 1.41651 1.33286 0
M  V30 9285 O 878.821 0.555504 1.8765 0
M  V30 9286 C 879.12 3.57085 0.150008 0
M  V30 9287 C 878.786 4.36769 -1.11998 0
M  V30 9288 C 877.448 4.58261 -1.46801 0
M  V30 9289 C 879.8 4.82848 -1.96232 0
M  V30 9290 C 877.128 5.23079 -2.65717 0
M  V30 9291 C 879.48 5.48977 -3.14335 0
M  V30 9292 C 878.144 5.68705 -3.49472 0
M  V30 9293 H 877.414 0.740991 -0.00371661 0
M  V30 9294 H 880.061 1.77909 -0.708562 0
M  V30 9295 H 878.366 3.80572 0.931259 0
M  V30 9296 H 880.063 3.96851 0.575384 0
M  V30 9297 H 876.653 4.20309 -0.838957 0
M  V30 9298 H 880.837 4.66038 -1.70654 0
M  V30 9299 H 876.093 5.36549 -2.93129 0
M  V30 9300 H 880.267 5.83649 -3.79904 0
M  V30 9301 H 877.894 6.18703 -4.41713 0
M  V30 9302 N 879.47 0.276058 1.55163 0
M  V30 9303 C 880.747 -0.392292 1.91626 0
M  V30 9304 C 881.127 -1.73646 1.20043 0
M  V30 9305 O 880.475 -2.26139 0.327606 0
M  V30 9306 C 880.685 -0.531641 3.44927 0
M  V30 9307 C 882.033 -0.8141 4.16722 0
M  V30 9308 O 883.057 -0.616413 3.50826 0
M  V30 9309 O 881.916 -1.19224 5.33337 0
M  V30 9310 H 879.01 -0.214945 0.798579 0
M  V30 9311 H 881.556 0.32228 1.66612 0
M  V30 9312 H 880.328 0.414282 3.89101 0
M  V30 9313 H 879.951 -1.29564 3.75897 0
M  V30 9314 N 880.948 -1.576 0.00335426 0
M  V30 9315 C 882.188 -1.92571 -0.685253 0
M  V30 9316 C 882.552 -0.877961 -1.70751 0
M  V30 9317 O 883.753 -1.11303 -2.44673 0
M  V30 9318 C 882.024 -3.3258 -1.30863 0
M  V30 9319 S 883.583 -3.89442 -2.02189 0
M  V30 9320 H 880.401 -0.674035 -0.226268 0
M  V30 9321 H 883.003 -1.95405 0.0608461 0
M  V30 9322 H 881.707 -4.06673 -0.551837 0
M  V30 9323 H 881.238 -3.33128 -2.09259 0
M  V30 9324 H 883.253 -3.70789 -3.29742 0
M  V30 9325 N 882.426 0.269451 -1.5528 0
M  V30 9326 C 883.842 0.616827 -1.47199 0
M  V30 9327 C 884.042 1.89354 -0.68901 0
M  V30 9328 O 883.098 2.51631 -0.209287 0
M  V30 9329 C 884.411 0.740492 -2.9144 0
M  V30 9330 C 885.959 0.834312 -3.01676 0
M  V30 9331 C 886.434 0.989725 -4.47178 0
M  V30 9332 N 887.925 1.05516 -4.51022 0
M  V30 9333 C 888.66 1.19427 -5.60825 0
M  V30 9334 N 888.156 1.30035 -6.80487 0
M  V30 9335 N 889.949 1.22566 -5.48575 0
M  V30 9336 H 882.1 -0.568962 -2.04638 0
M  V30 9337 H 884.363 -0.193153 -0.928114 0
M  V30 9338 H 884.069 -0.127234 -3.5147 0
M  V30 9339 H 883.943 1.61965 -3.40657 0
M  V30 9340 H 886.33 1.6925 -2.4174 0
M  V30 9341 H 886.411 -0.0695298 -2.55705 0
M  V30 9342 H 886.055 0.136179 -5.07717 0
M  V30 9343 H 885.985 1.90827 -4.90808 0
M  V30 9344 H 888.476 0.985434 -3.64825 0
M  V30 9345 H 888.789 1.40494 -7.59922 0
M  V30 9346 H 887.134 1.27033 -6.83292 0
M  V30 9347 H 890.325 1.13911 -4.54029 0
M  V30 9348 H 890.498 1.33063 -6.34191 0
M  V30 9349 N 883.904 1.48273 0.534124 0
M  V30 9350 C 885.181 1.46567 1.29528 0
M  V30 9351 C 885.561 0.17509 2.10373 0
M  V30 9352 O 884.909 -0.843228 2.12372 0
M  V30 9353 C 885.119 2.72519 2.18023 0
M  V30 9354 C 886.467 3.2068 2.78298 0
M  V30 9355 O 887.491 2.73408 2.28313 0
M  V30 9356 O 886.35 4.02924 3.69208 0
M  V30 9357 H 883.444 0.585151 0.584403 0
M  V30 9358 H 885.99 1.60502 0.551119 0
M  V30 9359 H 884.762 3.57965 1.5804 0
M  V30 9360 H 884.385 2.61285 2.99693 0
M  V30 9361 N 885.382 -0.782676 1.36792 0
M  V30 9362 C 886.612 -1.56934 1.3437 0
M  V30 9363 C 887.02 -1.89049 -0.0754828 0
M  V30 9364 O 886.363 -1.51103 -1.04467 0
M  V30 9365 C 886.425 -2.91311 2.10661 0
M  V30 9366 C 886.089 -2.81889 3.59705 0
M  V30 9367 C 887.086 -2.53668 4.53815 0
M  V30 9368 C 884.771 -3.00254 4.02682 0
M  V30 9369 C 886.765 -2.43925 5.8888 0
M  V30 9370 C 884.452 -2.90132 5.37835 0
M  V30 9371 C 885.45 -2.62006 6.30747 0
M  V30 9372 O 885.138 -2.5189 7.63418 0
M  V30 9373 H 884.87 -0.493194 0.462316 0
M  V30 9374 H 887.424 -0.978791 1.80579 0
M  V30 9375 H 885.654 -3.52443 1.59125 0
M  V30 9376 H 887.343 -3.52632 2.01012 0
M  V30 9377 H 888.109 -2.39176 4.21924 0
M  V30 9378 H 883.988 -3.21151 3.30731 0
M  V30 9379 H 887.532 -2.21892 6.6137 0
M  V30 9380 H 883.429 -3.04189 5.69332 0
M  V30 9381 H 884.197 -2.67321 7.73616 0
M  V30 9382 N 886.86 -1.21182 -1.00761 0
M  V30 9383 C 887.823 -0.970339 -2.07646 0
M  V30 9384 C 888.823 0.0576345 -1.60697 0
M  V30 9385 O 890.013 -0.179369 -1.73274 0
M  V30 9386 C 887.145 -0.462703 -3.37745 0
M  V30 9387 H 888.338 -1.91856 -2.30502 0
M  V30 9388 H 885.891 -1.02844 -1.17698 0
M  V30 9389 H 886.626 0.490559 -3.20568 0
M  V30 9390 H 886.411 -1.20416 -3.73152 0
M  V30 9391 H 887.901 -0.313531 -4.16421 0
M  V30 9392 N 888.338 1.20213 -1.01915 0
M  V30 9393 C 889.584 1.89928 -0.711007 0
M  V30 9394 C 889.917 1.7881 0.75767 0
M  V30 9395 O 889.192 1.17399 1.55073 0
M  V30 9396 C 889.475 3.41225 -1.15053 0
M  V30 9397 C 889.328 3.61264 -2.67971 0
M  V30 9398 C 890.647 4.34108 -0.72377 0
M  V30 9399 H 887.766 0.689702 -0.259768 0
M  V30 9400 H 890.408 1.41557 -1.26734 0
M  V30 9401 H 888.558 3.82552 -0.677199 0
M  V30 9402 H 890.23 3.29173 -3.23176 0
M  V30 9403 H 888.473 3.04647 -3.08824 0
M  V30 9404 H 889.144 4.67331 -2.93779 0
M  V30 9405 H 891.62 4.00442 -1.13073 0
M  V30 9406 H 890.496 5.38581 -1.05931 0
M  V30 9407 H 890.757 4.40512 0.374424 0
M  V30 9408 N 889.816 0.795718 1.36037 0
M  V30 9409 C 891.062 0.371574 1.99367 0
M  V30 9410 C 891.395 -1.0557 1.62999 0
M  V30 9411 O 890.67 -1.73051 0.887895 0
M  V30 9412 C 890.953 0.542622 3.55988 0
M  V30 9413 C 890.806 2.01404 4.0219 0
M  V30 9414 C 892.125 -0.0384527 4.40083 0
M  V30 9415 H 889.244 0.136483 0.724252 0
M  V30 9416 H 891.886 1.00323 1.61355 0
M  V30 9417 H 890.036 0.0049053 3.885 0
M  V30 9418 H 891.708 2.6133 3.80137 0
M  V30 9419 H 889.951 2.51439 3.53498 0
M  V30 9420 H 890.622 2.08466 5.11122 0
M  V30 9421 H 893.098 0.420634 4.13968 0
M  V30 9422 H 891.974 0.111214 5.48787 0
M  V30 9423 H 892.235 -1.13116 4.27384 0
M  V30 9424 N 891.294 -1.47756 0.548274 0
M  V30 9425 C 892.224 -2.32702 -0.19284 0
M  V30 9426 C 893.205 -1.43237 -0.917457 0
M  V30 9427 O 894.39 -1.72103 -0.89967 0
M  V30 9428 C 891.52 -3.24831 -1.22891 0
M  V30 9429 C 890.474 -4.23466 -0.621312 0
M  V30 9430 C 889.8 -5.04856 -1.76137 0
M  V30 9431 C 891.1 -5.20616 0.419055 0
M  V30 9432 H 892.794 -2.94914 0.516323 0
M  V30 9433 H 890.34 -1.41818 0.24975 0
M  V30 9434 H 892.293 -3.83094 -1.75547 0
M  V30 9435 H 891.017 -2.60656 -1.9679 0
M  V30 9436 H 889.676 -3.66416 -0.116123 0
M  V30 9437 H 889.324 -4.37091 -2.48918 0
M  V30 9438 H 889.024 -5.71629 -1.36065 0
M  V30 9439 H 890.548 -5.65976 -2.29136 0
M  V30 9440 H 891.962 -5.73296 -0.0211034 0
M  V30 9441 H 890.359 -5.95543 0.738163 0
M  V30 9442 H 891.429 -4.66638 1.31822 0
M  V30 9443 N 892.772 -0.284283 -1.55015 0
M  V30 9444 C 894.188 0.069603 -1.59448 0
M  V30 9445 C 894.388 1.53833 -1.30144 0
M  V30 9446 O 893.444 2.2886 -1.06674 0
M  V30 9447 C 894.757 -0.313287 -2.99064 0
M  V30 9448 C 896.305 -0.260662 -3.11913 0
M  V30 9449 C 896.78 -0.618127 -4.5381 0
M  V30 9450 N 898.271 -0.570026 -4.59679 0
M  V30 9451 C 899.006 -0.8193 -5.67517 0
M  V30 9452 N 898.502 -1.13367 -6.83462 0
M  V30 9453 N 900.295 -0.747482 -5.57108 0
M  V30 9454 H 892.446 -1.24167 -1.72326 0
M  V30 9455 H 894.709 -0.502259 -0.804015 0
M  V30 9456 H 894.415 -1.33509 -3.25374 0
M  V30 9457 H 894.289 0.341369 -3.75652 0
M  V30 9458 H 896.676 0.751869 -2.85361 0
M  V30 9459 H 896.757 -0.949706 -2.37517 0
M  V30 9460 H 896.401 -1.62839 -4.81088 0
M  V30 9461 H 896.331 0.092807 -5.26518 0
M  V30 9462 H 898.822 -0.3373 -3.76392 0
M  V30 9463 H 899.135 -1.3103 -7.61611 0
M  V30 9464 H 897.48 -1.17154 -6.85055 0
M  V30 9465 H 900.671 -0.501658 -4.65404 0
M  V30 9466 H 900.844 -0.945128 -6.4107 0
M  V30 9467 N 894.251 1.57596 -0.0117121 0
M  V30 9468 C 895.198 2.09153 0.975897 0
M  V30 9469 C 896.168 0.989579 1.33404 0
M  V30 9470 O 897.353 1.26273 1.43038 0
M  V30 9471 C 894.493 2.60906 2.2588 0
M  V30 9472 C 893.606 3.85046 1.95866 0
M  V30 9473 C 892.741 4.25257 3.18323 0
M  V30 9474 C 891.78 5.42202 2.84049 0
M  V30 9475 N 890.917 5.77651 3.99079 0
M  V30 9476 H 895.757 2.93261 0.52931 0
M  V30 9477 H 893.294 1.44965 0.249691 0
M  V30 9478 H 895.252 2.88995 3.00895 0
M  V30 9479 H 893.882 1.79654 2.68187 0
M  V30 9480 H 892.934 3.63794 1.11168 0
M  V30 9481 H 894.246 4.70151 1.66611 0
M  V30 9482 H 893.4 4.5469 4.01674 0
M  V30 9483 H 892.139 3.38884 3.50726 0
M  V30 9484 H 891.144 5.1248 1.99107 0
M  V30 9485 H 892.369 6.3026 2.52881 0
M  V30 9486 H 890.315 4.94235 4.31356 0
M  V30 9487 H 890.232 6.57356 3.73388 0
M  V30 9488 H 891.5 6.11681 4.83183 0
M  V30 9489 N 895.729 -0.261212 1.5542 0
M  V30 9490 C 896.959 -1.00769 1.80358 0
M  V30 9491 C 897.367 -1.79991 0.583085 0
M  V30 9492 O 896.71 -1.77911 -0.457534 0
M  V30 9493 C 896.772 -2.00463 2.9842 0
M  V30 9494 C 896.436 -1.4007 4.35005 0
M  V30 9495 C 897.433 -0.810388 5.13545 0
M  V30 9496 C 895.118 -1.42436 4.81682 0
M  V30 9497 C 897.112 -0.251784 6.36903 0
M  V30 9498 C 894.799 -0.861897 6.04991 0
M  V30 9499 C 895.797 -0.276622 6.8244 0
M  V30 9500 O 895.485 0.277194 8.03422 0
M  V30 9501 H 895.217 -0.302839 0.604371 0
M  V30 9502 H 897.771 -0.293763 2.03288 0
M  V30 9503 H 896.001 -2.75648 2.71211 0
M  V30 9504 H 897.69 -2.61336 3.10577 0
M  V30 9505 H 898.456 -0.784719 4.7861 0
M  V30 9506 H 894.335 -1.8693 4.214 0
M  V30 9507 H 897.879 0.205678 6.97297 0
M  V30 9508 H 893.776 -0.884846 6.39407 0
M  V30 9509 H 894.544 0.167682 8.18328 0
M  V30 9510 N 897.207 -1.48554 -0.526253 0
M  V30 9511 C 898.17 -1.62868 -1.61266 0
M  V30 9512 C 899.17 -0.501762 -1.52771 0
M  V30 9513 O 900.36 -0.76764 -1.56374 0
M  V30 9514 C 897.492 -1.60238 -3.00893 0
M  V30 9515 H 898.685 -2.59742 -1.49913 0
M  V30 9516 H 896.238 -1.37207 -0.748595 0
M  V30 9517 H 896.973 -0.648545 -3.17749 0
M  V30 9518 H 896.758 -2.42054 -3.08468 0
M  V30 9519 H 898.248 -1.73455 -3.79872 0
M  V30 9520 N 898.685 0.775411 -1.37205 0
M  V30 9521 C 899.962 1.5229 -1.22748 0
M  V30 9522 C 900.342 2.10327 0.180487 0
M  V30 9523 O 899.69 1.95206 1.18772 0
M  V30 9524 C 899.9 2.60671 -2.3206 0
M  V30 9525 C 901.248 3.28173 -2.6942 0
M  V30 9526 O 902.272 2.70963 -2.31208 0
M  V30 9527 O 901.131 4.31598 -3.3524 0
M  V30 9528 H 898.225 0.674326 -0.478762 0
M  V30 9529 H 900.771 0.812691 -1.48975 0
M  V30 9530 H 899.543 2.1588 -3.26361 0
M  V30 9531 H 899.166 3.39296 -2.07277 0
M  V30 9532 N 900.163 1.21714 1.00117 0
M  V30 9533 C 901.11 0.979837 2.08968 0
M  V30 9534 C 902.08 -0.0955324 1.65825 0
M  V30 9535 O 903.265 0.0523742 1.90728 0
M  V30 9536 C 900.405 0.554758 3.40612 0
M  V30 9537 C 899.518 1.69999 3.97145 0
M  V30 9538 C 898.653 1.2237 5.16913 0
M  V30 9539 C 897.692 2.34101 5.65564 0
M  V30 9540 N 896.829 1.87579 6.76579 0
M  V30 9541 H 901.669 1.91167 2.28602 0
M  V30 9542 H 899.206 0.952645 1.12085 0
M  V30 9543 H 901.164 0.289526 4.16194 0
M  V30 9544 H 899.794 -0.340073 3.21004 0
M  V30 9545 H 898.846 2.07976 3.18512 0
M  V30 9546 H 900.158 2.54074 4.29241 0
M  V30 9547 H 899.312 0.915358 5.99755 0
M  V30 9548 H 898.051 0.353045 4.8642 0
M  V30 9549 H 897.056 2.65734 4.81316 0
M  V30 9550 H 898.281 3.21669 5.98085 0
M  V30 9551 H 896.227 1.02863 6.47885 0
M  V30 9552 H 896.144 2.65225 7.07949 0
M  V30 9553 H 897.412 1.5979 7.62947 0
M  V30 9554 N 901.641 -1.19671 1.02551 0
M  V30 9555 C 902.89 -1.88591 0.715272 0
M  V30 9556 C 903.203 -1.80274 -0.758982 0
M  V30 9557 O 904.409 -2.44413 -1.18213 0
M  V30 9558 C 902.865 -3.38264 1.22905 0
M  V30 9559 C 902.473 -3.55146 2.73084 0
M  V30 9560 C 904.217 -4.12683 0.994649 0
M  V30 9561 C 902.124 -4.98693 3.17897 0
M  V30 9562 H 901.054 -0.706326 0.263857 0
M  V30 9563 H 903.705 -1.35322 1.23936 0
M  V30 9564 H 902.087 -3.9091 0.632892 0
M  V30 9565 H 903.261 -3.12845 3.38326 0
M  V30 9566 H 901.576 -2.94112 2.94766 0
M  V30 9567 H 904.173 -5.18536 1.30478 0
M  V30 9568 H 904.516 -4.16243 -0.0686466 0
M  V30 9569 H 905.049 -3.66164 1.55464 0
M  V30 9570 H 901.788 -5.00293 4.23542 0
M  V30 9571 H 901.308 -5.4177 2.57381 0
M  V30 9572 H 902.987 -5.67327 3.11045 0
M  V30 9573 N 903.119 -0.802921 -1.35613 0
M  V30 9574 C 904.349 -0.393359 -2.02821 0
M  V30 9575 C 904.757 0.999282 -1.60658 0
M  V30 9576 O 904.1 1.65463 -0.797977 0
M  V30 9577 C 904.162 -0.393102 -3.57344 0
M  V30 9578 C 903.826 -1.73563 -4.22759 0
M  V30 9579 C 904.823 -2.69333 -4.44698 0
M  V30 9580 C 902.508 -2.01863 -4.59953 0
M  V30 9581 C 904.502 -3.91589 -5.02928 0
M  V30 9582 C 902.189 -3.24383 -5.17898 0
M  V30 9583 C 903.187 -4.19064 -5.39328 0
M  V30 9584 O 902.875 -5.39422 -5.96053 0
M  V30 9585 H 902.607 -0.158431 -0.657172 0
M  V30 9586 H 905.161 -1.08682 -1.74291 0
M  V30 9587 H 903.391 0.356934 -3.85049 0
M  V30 9588 H 905.08 -0.00635596 -4.059 0
M  V30 9589 H 905.846 -2.48759 -4.16346 0
M  V30 9590 H 901.725 -1.28979 -4.42589 0
M  V30 9591 H 905.269 -4.65502 -5.1957 0
M  V30 9592 H 901.166 -3.44829 -5.45677 0
M  V30 9593 H 901.934 -5.40669 -6.14507 0
M  V30 9594 N 904.597 1.47463 -0.556102 0
M  V30 9595 C 905.822 2.07371 -0.0344729 0
M  V30 9596 C 906.247 1.40621 1.2493 0
M  V30 9597 O 905.605 0.48082 1.74808 0
M  V30 9598 C 905.653 3.60306 0.145563 0
M  V30 9599 O 904.757 3.94299 1.20839 0
M  V30 9600 H 904.098 0.662052 -0.0508274 0
M  V30 9601 H 906.628 1.89498 -0.771469 0
M  V30 9602 H 906.638 4.06408 0.360112 0
M  V30 9603 H 905.313 4.08288 -0.792089 0
M  V30 9604 H 903.89 3.59944 0.97442 0
M  V30 9605 N 906.075 0.2925 1.54862 0
M  V30 9606 C 907.324 -0.319994 1.99146 0
M  V30 9607 C 907.637 -1.55658 1.18448 0
M  V30 9608 O 908.843 -2.24312 1.52959 0
M  V30 9609 C 907.299 -0.620665 3.54508 0
M  V30 9610 C 906.907 0.597098 4.44003 0
M  V30 9611 C 908.651 -1.19482 4.07338 0
M  V30 9612 C 906.558 0.270049 5.90783 0
M  V30 9613 H 905.488 -0.123342 0.743843 0
M  V30 9614 H 908.139 0.399876 1.7909 0
M  V30 9615 H 906.521 -1.3999 3.7043 0
M  V30 9616 H 907.695 1.37354 4.39853 0
M  V30 9617 H 906.01 1.0893 4.019 0
M  V30 9618 H 908.607 -1.45362 5.14562 0
M  V30 9619 H 908.95 -2.13435 3.57423 0
M  V30 9620 H 909.483 -0.477485 3.94924 0
M  V30 9621 H 906.222 1.17791 6.4483 0
M  V30 9622 H 905.742 -0.469292 5.97961 0
M  V30 9623 H 907.421 -0.131471 6.46866 0
M  V30 9624 N 907.553 -1.57587 0.0200696 0
M  V30 9625 C 908.778 -1.96124 -0.674547 0
M  V30 9626 C 909.203 -0.896068 -1.65385 0
M  V30 9627 O 908.561 0.143925 -1.80728 0
M  V30 9628 C 908.609 -3.3376 -1.36517 0
M  V30 9629 O 907.713 -3.29483 -2.48022 0
M  V30 9630 H 907.054 -0.639719 -0.177919 0
M  V30 9631 H 909.584 -2.04447 0.0792317 0
M  V30 9632 H 909.594 -3.69785 -1.72403 0
M  V30 9633 H 908.269 -4.10832 -0.647265 0
M  V30 9634 H 906.846 -3.05162 -2.14314 0
M  V30 9635 N 909.032 0.252966 -1.55557 0
M  V30 9636 C 909.965 1.33928 -1.84766 0
M  V30 9637 C 910.943 1.46653 -0.702254 0
M  V30 9638 O 912.127 1.62963 -0.947375 0
M  V30 9639 C 909.254 2.71348 -2.02701 0
M  V30 9640 C 908.3 2.75804 -3.25322 0
M  V30 9641 S 909.133 2.33025 -4.82141 0
M  V30 9642 C 910.289 3.72382 -5.03073 0
M  V30 9643 H 910.522 1.08951 -2.76617 0
M  V30 9644 H 908.055 0.45364 -1.47585 0
M  V30 9645 H 910.013 3.50478 -2.13718 0
M  V30 9646 H 908.674 2.93566 -1.11703 0
M  V30 9647 H 907.867 3.76713 -3.34819 0
M  V30 9648 H 907.469 2.04713 -3.12999 0
M  V30 9649 H 909.761 4.67828 -4.90044 0
M  V30 9650 H 910.704 3.67824 -6.05071 0
M  V30 9651 H 911.112 3.64614 -4.30949 0
M  V30 9652 N 910.51 1.48831 0.518367 0
M  V30 9653 C 911.457 1.64216 1.62178 0
M  V30 9654 C 912.427 0.483942 1.58894 0
M  V30 9655 O 913.612 0.708857 1.77144 0
M  V30 9656 C 910.752 1.69867 3.00399 0
M  V30 9657 C 909.865 2.96875 3.1383 0
M  V30 9658 C 909 2.93613 4.42679 0
M  V30 9659 C 908.039 4.15276 4.4968 0
M  V30 9660 N 907.176 4.10024 5.69934 0
M  V30 9661 H 912.016 2.58439 1.48368 0
M  V30 9662 H 909.553 1.28154 0.722152 0
M  V30 9663 H 911.511 1.71124 3.8049 0
M  V30 9664 H 910.141 0.791249 3.12952 0
M  V30 9665 H 909.193 3.0531 2.26914 0
M  V30 9666 H 910.505 3.86863 3.14863 0
M  V30 9667 H 909.659 2.93337 5.31073 0
M  V30 9668 H 908.398 2.01375 4.44184 0
M  V30 9669 H 907.403 4.15816 3.59691 0
M  V30 9670 H 908.628 5.08687 4.49904 0
M  V30 9671 H 906.574 3.20613 5.72314 0
M  V30 9672 H 906.491 4.93728 5.72511 0
M  V30 9673 H 907.759 4.13824 6.60583 0
M  V30 9674 N 911.988 -0.768124 1.37614 0
M  V30 9675 C 912.938 -1.8718 1.30184 0
M  V30 9676 C 913.922 -1.59787 0.188943 0
M  V30 9677 O 915.114 -1.71855 0.423656 0
M  V30 9678 C 912.243 -3.24698 1.11471 0
M  V30 9679 C 911.329 -3.58031 2.27321 0
M  V30 9680 N 911.72 -3.6252 3.52722 0
M  V30 9681 C 910.018 -3.88216 2.19554 0
M  V30 9682 C 910.719 -3.92704 4.29137 0
M  V30 9683 N 909.695 -4.08789 3.58319 0
M  V30 9684 H 913.497 -1.88907 2.25147 0
M  V30 9685 H 911.011 -0.964753 1.30638 0
M  V30 9686 H 913.008 -4.0366 1.04233 0
M  V30 9687 H 911.668 -3.24232 0.174281 0
M  V30 9688 H 912.679 -3.44636 3.86583 0
M  V30 9689 H 909.356 -3.95551 1.33588 0
M  V30 9690 H 910.746 -4.02922 5.37683 0
M  V30 9691 N 913.466 -1.22244 -0.994698 0
M  V30 9692 C 914.877 -1.043 -1.5485 0
M  V30 9693 C 915.228 0.394102 -1.92201 0
M  V30 9694 O 914.353 1.27883 -1.74571 0
M  V30 9695 C 914.948 -1.88708 -2.8138 0
M  V30 9696 C 913.507 -1.75067 -3.3321 0
M  V30 9697 C 912.654 -1.85286 -2.06312 0
M  V30 9698 H 915.605 -1.36115 -0.815988 0
M  V30 9699 H 915.626 -1.40342 -3.53673 0
M  V30 9700 H 915.138 -2.93296 -2.54164 0
M  V30 9701 H 913.239 -0.732047 -3.65338 0
M  V30 9702 H 913.352 -2.57632 -4.03934 0
M  V30 9703 H 911.716 -1.28706 -2.19788 0
M  V30 9704 H 912.499 -2.91401 -1.81494 0
M  V30 9705 N 914.944 1.19125 -1.03184 0
M  V30 9706 C 915.876 2.21914 -0.573294 0
M  V30 9707 C 916.889 1.5894 0.352397 0
M  V30 9708 O 918.078 1.77883 0.148318 0
M  V30 9709 C 915.178 3.38403 0.18355 0
M  V30 9710 C 914.351 4.3096 -0.747817 0
M  V30 9711 C 913.41 5.26188 -0.0358489 0
M  V30 9712 O 912.436 5.65321 -0.663388 0
M  V30 9713 N 913.638 5.67235 1.23387 0
M  V30 9714 H 916.403 2.61881 -1.45734 0
M  V30 9715 H 913.964 1.33821 -0.911231 0
M  V30 9716 H 915.956 3.99124 0.669468 0
M  V30 9717 H 914.526 2.97201 0.969043 0
M  V30 9718 H 913.746 3.67976 -1.41377 0
M  V30 9719 H 915.034 4.89708 -1.38071 0
M  V30 9720 H 914.432 5.37481 1.76439 0
M  V30 9721 H 912.989 6.30196 1.66423 0
M  V30 9722 N 916.422 0.810101 1.35185 0
M  V30 9723 C 917.332 0.224565 2.33523 0
M  V30 9724 C 918.348 -0.634287 1.62027 0
M  V30 9725 O 919.524 -0.545211 1.9388 0
M  V30 9726 C 916.589 -0.614319 3.41214 0
M  V30 9727 C 915.65 0.265435 4.28479 0
M  V30 9728 C 914.883 -0.533506 5.31027 0
M  V30 9729 O 915.106 -1.7679 5.42311 0
M  V30 9730 O 914.04 0.0774573 6.0185 0
M  V30 9731 H 917.866 1.03815 2.85405 0
M  V30 9732 H 915.451 0.571964 1.38018 0
M  V30 9733 H 917.333 -1.09201 4.07005 0
M  V30 9734 H 916.008 -1.40545 2.91597 0
M  V30 9735 H 914.915 0.790343 3.65656 0
M  V30 9736 H 916.248 1.0206 4.81503 0
M  V30 9737 N 917.9 -1.47166 0.563914 0
M  V30 9738 C 918.833 -2.27058 -0.227989 0
M  V30 9739 C 919.811 -1.34468 -0.914179 0
M  V30 9740 O 920.995 -1.63857 -0.931829 0
M  V30 9741 C 918.122 -3.11689 -1.32543 0
M  V30 9742 C 917.168 -4.19906 -0.747084 0
M  V30 9743 S 918.001 -5.33916 0.41153 0
M  V30 9744 C 919.157 -6.22112 -0.687566 0
M  V30 9745 H 919.39 -2.93876 0.449939 0
M  V30 9746 H 916.923 -1.50372 0.350382 0
M  V30 9747 H 918.881 -3.61017 -1.95389 0
M  V30 9748 H 917.542 -2.44221 -1.97522 0
M  V30 9749 H 916.735 -4.78876 -1.57141 0
M  V30 9750 H 916.337 -3.73493 -0.194671 0
M  V30 9751 H 918.629 -6.58867 -1.578 0
M  V30 9752 H 919.572 -7.07971 -0.135058 0
M  V30 9753 H 919.98 -5.55871 -0.983255 0
M  V30 9754 N 919.378 -0.300708 -1.54705 0
M  V30 9755 C 920.325 0.57552 -2.23509 0
M  V30 9756 C 921.295 1.12979 -1.21758 0
M  V30 9757 O 922.48 1.17437 -1.50377 0
M  V30 9758 C 919.62 1.74167 -2.97926 0
M  V30 9759 C 918.733 1.21882 -4.1445 0
M  V30 9760 C 917.868 2.34881 -4.7645 0
M  V30 9761 C 916.907 1.79729 -5.85119 0
M  V30 9762 N 916.044 2.863 -6.41075 0
M  V30 9763 H 920.884 -0.0178257 -2.97995 0
M  V30 9764 H 918.421 -0.0205666 -1.47086 0
M  V30 9765 H 920.379 2.42753 -3.39303 0
M  V30 9766 H 919.009 2.30665 -2.25817 0
M  V30 9767 H 918.061 0.425227 -3.78016 0
M  V30 9768 H 919.373 0.775065 -4.92741 0
M  V30 9769 H 918.527 3.11415 -5.20678 0
M  V30 9770 H 917.266 2.82584 -3.97489 0
M  V30 9771 H 916.271 1.01684 -5.40315 0
M  V30 9772 H 917.496 1.32931 -6.65963 0
M  V30 9773 H 915.442 3.33337 -5.64998 0
M  V30 9774 H 915.359 2.46419 -7.14712 0
M  V30 9775 H 916.627 3.62732 -6.89961 0
M  V30 9776 N 920.856 1.57574 -0.0284266 0
M  V30 9777 C 922.084 1.96071 0.660575 0
M  V30 9778 C 922.499 0.904881 1.65703 0
M  V30 9779 O 921.856 -0.113379 1.82147 0
M  V30 9780 C 921.907 3.34634 1.36756 0
M  V30 9781 O 921.628 4.36167 0.411041 0
M  V30 9782 C 923.129 3.87758 2.14845 0
M  V30 9783 H 920.349 0.645794 0.182183 0
M  V30 9784 H 922.893 2.04311 -0.0879858 0
M  V30 9785 H 921.048 3.27616 2.06753 0
M  V30 9786 H 921.462 5.16493 0.913 0
M  V30 9787 H 922.936 4.87058 2.59767 0
M  V30 9788 H 923.413 3.21967 2.9872 0
M  V30 9789 H 924.019 3.98043 1.49807 0
M  V30 9790 N 922.334 -0.244713 1.55689 0
M  V30 9791 C 923.564 -0.988508 1.81417 0
M  V30 9792 C 923.972 -1.79362 0.602143 0
M  V30 9793 O 923.315 -1.78386 -0.438639 0
M  V30 9794 C 923.377 -1.97287 3.0053 0
M  V30 9795 C 923.041 -1.35448 4.36466 0
M  V30 9796 C 924.038 -0.755874 5.14376 0
M  V30 9797 C 921.723 -1.37319 4.83165 0
M  V30 9798 C 923.717 -0.184218 6.37134 0
M  V30 9799 C 921.404 -0.797681 6.05871 0
M  V30 9800 C 922.402 -0.204224 6.82695 0
M  V30 9801 O 922.09 0.362392 8.03083 0
M  V30 9802 H 921.822 -0.296412 0.607549 0
M  V30 9803 H 924.376 -0.272185 2.03589 0
M  V30 9804 H 922.606 -2.72756 2.74119 0
M  V30 9805 H 924.295 -2.58028 3.13331 0
M  V30 9806 H 925.061 -0.733912 4.79415 0
M  V30 9807 H 920.94 -1.8245 4.23359 0
M  V30 9808 H 924.484 0.279624 6.97039 0
M  V30 9809 H 920.381 -0.816978 6.40309 0
M  V30 9810 H 921.149 0.254467 8.18104 0
M  V30 9811 N 923.813 -1.49104 -0.510467 0
M  V30 9812 C 925.038 -1.62068 -1.29417 0
M  V30 9813 C 925.463 -0.288432 -1.85875 0
M  V30 9814 O 924.821 0.742667 -1.65391 0
M  V30 9815 C 924.869 -2.68506 -2.40701 0
M  V30 9816 O 923.973 -2.27021 -3.4429 0
M  V30 9817 H 923.314 -0.542778 -0.382476 0
M  V30 9818 H 925.844 -1.95228 -0.612154 0
M  V30 9819 H 925.854 -2.90383 -2.86604 0
M  V30 9820 H 924.529 -3.65216 -1.98973 0
M  V30 9821 H 923.106 -2.15436 -3.04371 0
M  V30 9822 N 925.291 0.760815 -1.38019 0
M  V30 9823 C 926.537 1.52198 -1.34028 0
M  V30 9824 C 926.87 1.94067 0.0718309 0
M  V30 9825 O 926.145 1.64895 1.0315 0
M  V30 9826 C 926.428 2.77954 -2.2894 0
M  V30 9827 C 926.281 2.42269 -3.7898 0
M  V30 9828 C 927.6 3.79943 -2.22107 0
M  V30 9829 H 924.719 0.552131 -0.488181 0
M  V30 9830 H 927.361 0.871971 -1.6881 0
M  V30 9831 H 925.511 3.33419 -1.9941 0
M  V30 9832 H 927.183 1.92635 -4.19153 0
M  V30 9833 H 925.426 1.74822 -3.97014 0
M  V30 9834 H 926.097 3.32211 -4.4084 0
M  V30 9835 H 928.573 3.34 -2.4816 0
M  V30 9836 H 927.449 4.6564 -2.90639 0
M  V30 9837 H 927.71 4.25004 -1.21753 0
M  V30 9838 N 926.769 1.22769 0.988202 0
M  V30 9839 C 927.994 1.08239 1.76915 0
M  V30 9840 C 928.419 -0.362519 1.84574 0
M  V30 9841 O 927.777 -1.26202 1.30165 0
M  V30 9842 C 927.825 1.70363 3.17819 0
M  V30 9843 O 926.929 0.960484 4.01059 0
M  V30 9844 H 926.27 0.379872 0.544604 0
M  V30 9845 H 928.8 1.62663 1.24104 0
M  V30 9846 H 928.81 1.7528 3.6843 0
M  V30 9847 H 927.485 2.75505 3.1156 0
M  V30 9848 H 926.062 0.987667 3.59582 0
M  V30 9849 N 928.247 -1.18576 1.03814 0
M  V30 9850 C 929.494 -1.88493 0.740036 0
M  V30 9851 C 929.822 -1.80198 -0.732056 0
M  V30 9852 O 929.077 -1.19509 -1.54971 0
M  V30 9853 C 929.376 -3.38448 1.14837 0
M  V30 9854 C 929.042 -3.66947 2.62031 0
M  V30 9855 C 927.704 -3.74435 3.02244 0
M  V30 9856 C 930.056 -3.79534 3.57217 0
M  V30 9857 C 927.384 -3.91986 4.36536 0
M  V30 9858 C 929.736 -3.986 4.91223 0
M  V30 9859 C 928.4 -4.04323 5.31111 0
M  V30 9860 H 927.67 -0.689746 0.270798 0
M  V30 9861 H 930.317 -1.40364 1.3027 0
M  V30 9862 H 928.622 -3.88539 0.504472 0
M  V30 9863 H 930.319 -3.90882 0.89511 0
M  V30 9864 H 926.909 -3.61734 2.29883 0
M  V30 9865 H 931.093 -3.73083 3.27296 0
M  V30 9866 H 926.349 -3.9466 4.66962 0
M  V30 9867 H 930.523 -4.07281 5.64885 0
M  V30 9868 H 928.15 -4.17676 6.35178 0
M  V30 9869 N 929.725 -0.817259 -1.34754 0
M  V30 9870 C 931.002 -0.325468 -1.92873 0
M  V30 9871 C 931.382 1.18643 -1.74606 0
M  V30 9872 O 930.73 1.9909 -1.1214 0
M  V30 9873 C 930.94 -0.74858 -3.40877 0
M  V30 9874 C 932.288 -0.744165 -4.18028 0
M  V30 9875 O 933.312 -0.690799 -3.49437 0
M  V30 9876 O 932.171 -0.812207 -5.40431 0
M  V30 9877 H 929.265 -0.0876397 -0.822343 0
M  V30 9878 H 931.811 -0.901671 -1.43764 0
M  V30 9879 H 930.583 -1.79017 -3.47949 0
M  V30 9880 H 930.206 -0.147764 -3.97325 0
M  V30 9881 N 931.203 1.46865 -0.571711 0
M  V30 9882 C 932.428 2.07323 -0.0564655 0
M  V30 9883 C 932.853 1.41938 1.23431 0
M  V30 9884 O 932.211 0.499334 1.74288 0
M  V30 9885 C 932.259 3.6044 0.107339 0
M  V30 9886 O 931.363 3.95558 1.1665 0
M  V30 9887 H 930.704 0.661475 -0.0578465 0
M  V30 9888 H 933.234 1.88669 -0.791524 0
M  V30 9889 H 933.244 4.06767 0.316987 0
M  V30 9890 H 931.919 4.07425 -0.835348 0
M  V30 9891 H 930.496 3.60957 0.936189 0
M  V30 9892 N 932.681 0.308908 1.54543 0
M  V30 9893 C 933.611 -0.556657 2.26768 0
M  V30 9894 C 934.592 -1.13145 1.27013 0
M  V30 9895 O 935.777 -1.15931 1.558 0
M  V30 9896 C 932.907 -1.72481 3.01443 0
M  V30 9897 C 931.861 -1.28001 4.08411 0
M  V30 9898 C 931.187 -2.53395 4.70845 0
M  V30 9899 C 932.487 -0.405497 5.20724 0
M  V30 9900 H 934.181 0.0457618 2.99365 0
M  V30 9901 H 931.727 0.0234495 1.43981 0
M  V30 9902 H 933.68 -2.3365 3.50693 0
M  V30 9903 H 932.404 -2.35359 2.26437 0
M  V30 9904 H 931.063 -0.69133 3.60022 0
M  V30 9905 H 930.711 -3.14604 3.92471 0
M  V30 9906 H 930.411 -2.2433 5.43093 0
M  V30 9907 H 931.935 -3.15352 5.22863 0
M  V30 9908 H 933.349 -0.923076 5.6582 0
M  V30 9909 H 931.746 -0.208282 5.99738 0
M  V30 9910 H 932.816 0.567412 4.81569 0
M  V30 9911 N 934.159 -1.57557 0.0367827 0
M  V30 9912 C 935.406 -1.92114 -0.640185 0
M  V30 9913 C 935.734 -0.913887 -1.71693 0
M  V30 9914 O 934.989 0.0760343 -1.95552 0
M  V30 9915 C 935.288 -3.33387 -1.28794 0
M  V30 9916 C 934.954 -4.4961 -0.340819 0
M  V30 9917 C 933.616 -4.81133 -0.0801574 0
M  V30 9918 C 935.968 -5.20283 0.309106 0
M  V30 9919 C 933.296 -5.80683 0.838107 0
M  V30 9920 C 935.648 -6.20813 1.21547 0
M  V30 9921 C 934.312 -6.50773 1.48495 0
M  V30 9922 H 933.582 -0.702996 -0.23426 0
M  V30 9923 H 936.229 -1.91238 0.100188 0
M  V30 9924 H 934.534 -3.30561 -2.10324 0
M  V30 9925 H 936.231 -3.57399 -1.81843 0
M  V30 9926 H 932.821 -4.25002 -0.554161 0
M  V30 9927 H 937.005 -4.96153 0.120794 0
M  V30 9928 H 932.261 -6.02238 1.05451 0
M  V30 9929 H 936.435 -6.74692 1.72522 0
M  V30 9930 H 934.062 -7.27727 2.19814 0
M  V30 9931 N 935.637 0.236453 -1.55816 0
M  V30 9932 C 936.862 0.98449 -1.82545 0
M  V30 9933 C 937.287 1.77755 -0.615206 0
M  V30 9934 O 936.645 1.75982 0.435895 0
M  V30 9935 C 936.693 1.88973 -3.07118 0
M  V30 9936 O 935.797 2.98298 -2.84766 0
M  V30 9937 H 935.138 0.279577 -0.602273 0
M  V30 9938 H 937.668 0.254277 -2.03014 0
M  V30 9939 H 937.678 2.3024 -3.36829 0
M  V30 9940 H 936.353 1.30671 -3.94839 0
M  V30 9941 H 934.93 2.61085 -2.6625 0
M  V30 9942 N 937.115 1.49373 0.502552 0
M  V30 9943 C 938.078 1.65413 1.58654 0
M  V30 9944 C 939.078 0.526003 1.51953 0
M  V30 9945 O 940.268 0.792421 1.55133 0
M  V30 9946 C 937.4 1.65005 2.98306 0
M  V30 9947 H 938.593 2.62095 1.45762 0
M  V30 9948 H 936.146 1.38381 0.726672 0
M  V30 9949 H 936.881 0.699014 3.16677 0
M  V30 9950 H 936.666 2.46931 3.04578 0
M  V30 9951 H 938.156 1.79477 3.77065 0
M  V30 9952 N 938.594 -0.753485 1.38421 0
M  V30 9953 C 939.84 -1.51485 1.34834 0
M  V30 9954 C 940.173 -1.94102 -0.0615381 0
M  V30 9955 O 939.448 -1.65439 -1.02274 0
M  V30 9956 C 939.731 -2.76736 2.30411 0
M  V30 9957 C 939.584 -2.40256 3.80259 0
M  V30 9958 C 940.903 -3.7876 2.24119 0
M  V30 9959 H 938.022 -0.549534 0.491102 0
M  V30 9960 H 940.664 -0.863006 1.6927 0
M  V30 9961 H 938.814 -3.32357 2.01175 0
M  V30 9962 H 940.486 -1.90409 4.20169 0
M  V30 9963 H 938.729 -1.72714 3.97935 0
M  V30 9964 H 939.4 -3.29869 4.42595 0
M  V30 9965 H 941.876 -3.32679 2.49928 0
M  V30 9966 H 940.752 -4.64092 2.93104 0
M  V30 9967 H 941.013 -4.24352 1.24006 0
M  V30 9968 N 940.072 -1.23292 -0.981677 0
M  V30 9969 C 941.019 -1.01296 -2.07383 0
M  V30 9970 C 941.989 0.069139 -1.65956 0
M  V30 9971 O 943.174 -0.0827108 -1.90621 0
M  V30 9972 C 940.314 -0.608876 -3.39686 0
M  V30 9973 C 939.427 -1.76296 -3.9439 0
M  V30 9974 C 938.562 -1.30578 -5.14901 0
M  V30 9975 C 937.601 -2.4307 -5.61768 0
M  V30 9976 N 936.738 -1.98319 -6.73509 0
M  V30 9977 H 941.578 -1.9478 -2.25532 0
M  V30 9978 H 939.115 -0.970356 -1.10555 0
M  V30 9979 H 941.073 -0.355702 -4.15681 0
M  V30 9980 H 939.703 0.288961 -3.21504 0
M  V30 9981 H 938.755 -2.13017 -3.15163 0
M  V30 9982 H 940.067 -2.60871 -4.25145 0
M  V30 9983 H 939.221 -1.01066 -5.98223 0
M  V30 9984 H 937.96 -0.430386 -4.85797 0
M  V30 9985 H 936.965 -2.73358 -4.77028 0
M  V30 9986 H 938.19 -3.31144 -5.92892 0
M  V30 9987 H 936.136 -1.13157 -6.46167 0
M  V30 9988 H 936.053 -2.76454 -7.0364 0
M  V30 9989 H 937.321 -1.71907 -7.60308 0
M  V30 9990 N 941.55 1.18024 -1.04442 0
M  V30 9991 C 942.498 2.23834 -0.632557 0
M  V30 9992 C 943.492 1.65902 0.342488 0
M  V30 9993 O 944.698 1.78778 0.20937 0
M  V30 9994 H 941.073 0.728544 -0.186353 0
M  V30 9995 H 943.044 2.55876 -1.53526 0
M  V30 9996 C 941.793 3.47697 -0.0153661 0
M  V30 9997 H 941.116 3.92574 -0.756704 0
M  V30 9998 H 942.556 4.23345 0.235541 0
M  V30 9999 C 941.015 3.13416 1.23579 0
M  V30 10000 O 941.545 3.27499 2.3261 0
M  V30 10001 N 939.751 2.67708 1.13053 0
M  V30 10002 H 939.298 2.56449 0.243277 0
M  V30 10003 H 939.256 2.45143 1.96855 0
M  V30 10004 N 943.028 0.824394 1.34319 0
M  V30 10005 C 944.275 0.413167 1.9824 0
M  V30 10006 C 944.603 -1.02412 1.65354 0
M  V30 10007 O 943.858 -1.72831 0.91803 0
M  V30 10008 C 944.157 0.564024 3.52921 0
M  V30 10009 C 943.823 1.96725 4.05722 0
M  V30 10010 C 942.485 2.35111 4.19853 0
M  V30 10011 C 944.837 2.88447 4.34106 0
M  V30 10012 C 942.165 3.64551 4.59695 0
M  V30 10013 C 944.517 4.17353 4.75394 0
M  V30 10014 C 943.181 4.55714 4.8773 0
M  V30 10015 H 942.451 0.151188 0.725412 0
M  V30 10016 H 945.098 1.04863 1.60238 0
M  V30 10017 H 943.403 -0.154816 3.91494 0
M  V30 10018 H 945.1 0.226347 4.00361 0
M  V30 10019 H 941.69 1.65908 3.95187 0
M  V30 10020 H 945.874 2.60034 4.22725 0
M  V30 10021 H 941.13 3.94097 4.67437 0
M  V30 10022 H 945.304 4.88512 4.96315 0
M  V30 10023 H 942.931 5.56064 5.1836 0
M  V30 10024 N 944.506 -1.46559 0.579492 0
M  V30 10025 C 945.734 -2.06784 0.0693648 0
M  V30 10026 C 946.149 -1.42875 -1.23419 0
M  V30 10027 O 945.506 -0.532919 -1.74546 0
M  V30 10028 C 945.557 -3.61343 -0.106511 0
M  V30 10029 O 945.278 -4.22861 1.14545 0
M  V30 10030 C 946.779 -4.38489 -0.651359 0
M  V30 10031 H 943.999 -0.66866 0.0559848 0
M  V30 10032 H 946.543 -1.88235 0.799245 0
M  V30 10033 H 944.698 -3.7933 -0.786601 0
M  V30 10034 H 945.112 -5.15691 0.95723 0
M  V30 10035 H 946.586 -5.47237 -0.723615 0
M  V30 10036 H 947.063 -4.06309 -1.66763 0
M  V30 10037 H 947.669 -4.253 -0.0062433 0
M  V30 10038 N 945.984 -0.3171 -1.54377 0
M  V30 10039 C 946.894 0.560867 -2.27797 0
M  V30 10040 C 947.91 1.13473 -1.31908 0
M  V30 10041 O 949.086 1.15608 -1.64914 0
M  V30 10042 C 946.151 1.70886 -3.0166 0
M  V30 10043 C 945.212 1.16745 -4.13121 0
M  V30 10044 C 944.445 2.26073 -4.83453 0
M  V30 10045 O 944.668 3.46292 -4.53252 0
M  V30 10046 O 943.602 1.91856 -5.70504 0
M  V30 10047 H 947.428 -0.035193 -3.0368 0
M  V30 10048 H 945.013 -0.0830062 -1.49169 0
M  V30 10049 H 946.895 2.37736 -3.47936 0
M  V30 10050 H 945.57 2.29122 -2.28658 0
M  V30 10051 H 944.477 0.464224 -3.71209 0
M  V30 10052 H 945.81 0.630307 -4.88147 0
M  V30 10053 N 947.462 1.57535 -0.0451378 0
M  V30 10054 C 948.711 1.91628 0.629415 0
M  V30 10055 C 949.024 0.924754 1.72359 0
M  V30 10056 O 950.23 1.15751 2.45589 0
M  V30 10057 C 948.686 3.40322 1.17084 0
M  V30 10058 C 948.294 4.47867 0.109101 0
M  V30 10059 C 950.038 3.83458 1.82099 0
M  V30 10060 C 947.945 5.87671 0.663072 0
M  V30 10061 H 946.875 0.715163 0.238868 0
M  V30 10062 H 949.526 1.83151 -0.113046 0
M  V30 10063 H 947.908 3.43783 1.96543 0
M  V30 10064 H 949.082 4.55988 -0.664201 0
M  V30 10065 H 947.397 4.14034 -0.443227 0
M  V30 10066 H 949.994 4.85273 2.2453 0
M  V30 10067 H 950.337 3.19379 2.67026 0
M  V30 10068 H 950.87 3.82488 1.09305 0
M  V30 10069 H 947.609 6.55332 -0.148423 0
M  V30 10070 H 947.129 5.83124 1.4045 0
M  V30 10071 H 948.808 6.36737 1.14785 0
M  V30 10072 N 948.94 -0.228186 1.55939 0
M  V30 10073 C 949.903 -1.26621 1.91049 0
M  V30 10074 C 950.903 -1.40141 0.788491 0
M  V30 10075 O 952.093 -1.3852 1.05631 0
M  V30 10076 C 949.225 -2.64108 2.15545 0
M  V30 10077 H 950.418 -0.966978 2.83883 0
M  V30 10078 H 947.971 -0.468313 1.49119 0
M  V30 10079 H 948.706 -2.99141 1.25241 0
M  V30 10080 H 948.491 -2.55673 2.97277 0
M  V30 10081 H 949.981 -3.39025 2.43827 0
M  V30 10082 N 950.418 -1.49637 -0.494624 0
M  V30 10083 C 951.643 -1.63431 -1.27691 0
M  V30 10084 C 952.068 -0.30813 -1.85559 0
M  V30 10085 O 951.426 0.725083 -1.66169 0
M  V30 10086 C 951.474 -2.71043 -2.3784 0
M  V30 10087 O 950.578 -2.3066 -3.41862 0
M  V30 10088 H 949.919 -0.546804 -0.376698 0
M  V30 10089 H 952.449 -1.95866 -0.591413 0
M  V30 10090 H 952.459 -2.93406 -2.83508 0
M  V30 10091 H 951.134 -3.67306 -1.95088 0
M  V30 10092 H 949.711 -2.18652 -3.02069 0
M  V30 10093 N 951.896 0.746133 -1.38819 0
M  V30 10094 C 952.843 1.86001 -1.36647 0
M  V30 10095 C 953.813 1.6453 -0.227849 0
M  V30 10096 O 954.998 1.86092 -0.421241 0
M  V30 10097 C 952.138 3.23388 -1.20474 0
M  V30 10098 C 951.251 3.5664 -2.43786 0
M  V30 10099 C 950.386 4.8337 -2.20287 0
M  V30 10100 C 949.425 5.09431 -3.39332 0
M  V30 10101 N 948.562 6.2736 -3.1522 0
M  V30 10102 H 953.402 1.87192 -2.31869 0
M  V30 10103 H 950.939 0.914838 -1.15192 0
M  V30 10104 H 952.897 4.02679 -1.09112 0
M  V30 10105 H 951.527 3.21505 -0.288874 0
M  V30 10106 H 950.579 2.72135 -2.65794 0
M  V30 10107 H 951.891 3.71823 -3.3249 0
M  V30 10108 H 951.045 5.70619 -2.06103 0
M  V30 10109 H 949.784 4.70341 -1.28961 0
M  V30 10110 H 948.789 4.20648 -3.54027 0
M  V30 10111 H 950.014 5.24354 -4.31544 0
M  V30 10112 H 947.96 6.15639 -2.26549 0
M  V30 10113 H 947.877 6.43078 -3.97476 0
M  V30 10114 H 949.145 7.17477 -3.04707 0
M  V30 10115 N 953.375 1.23811 0.975125 0
M  V30 10116 C 954.622 1.07336 1.71712 0
M  V30 10117 C 954.95 -0.388954 1.90571 0
M  V30 10118 O 954.205 -1.30409 1.45918 0
M  V30 10119 C 954.504 1.74994 3.11628 0
M  V30 10120 C 954.17 3.24918 3.12632 0
M  V30 10121 C 952.832 3.65822 3.12614 0
M  V30 10122 C 955.184 4.20797 3.07538 0
M  V30 10123 C 952.512 5.01054 3.05224 0
M  V30 10124 C 954.864 5.56027 3.0169 0
M  V30 10125 C 953.528 5.96287 2.99996 0
M  V30 10126 H 952.798 0.392771 0.62834 0
M  V30 10127 H 955.445 1.53815 1.14075 0
M  V30 10128 H 953.75 1.20889 3.72684 0
M  V30 10129 H 955.447 1.5972 3.67819 0
M  V30 10130 H 952.037 2.92359 3.13407 0
M  V30 10131 H 956.221 3.902 3.06688 0
M  V30 10132 H 951.477 5.31454 3.02268 0
M  V30 10133 H 955.651 6.3003 2.96706 0
M  V30 10134 H 953.278 7.01037 2.94025 0
M  V30 10135 N 954.853 -1.17469 1.05066 0
M  V30 10136 C 956.078 -1.92162 0.780298 0
M  V30 10137 C 956.503 -1.76222 -0.657832 0
M  V30 10138 O 955.861 -1.0791 -1.45688 0
M  V30 10139 C 955.909 -3.41292 1.16414 0
M  V30 10140 O 955.013 -4.1134 0.295531 0
M  V30 10141 H 954.354 -0.599127 0.286257 0
M  V30 10142 H 956.884 -1.48903 1.40318 0
M  V30 10143 H 956.894 -3.92029 1.13036 0
M  V30 10144 H 955.569 -3.52214 2.21175 0
M  V30 10145 H 954.146 -3.70857 0.389797 0
M  V30 10146 N 956.331 -0.831506 -1.3388 0
M  V30 10147 C 957.241 -0.261688 -2.33136 0
M  V30 10148 C 958.257 0.608429 -1.63016 0
M  V30 10149 O 959.433 0.514297 -1.94723 0
M  V30 10150 C 956.498 0.559957 -3.42148 0
M  V30 10151 C 955.559 -0.333569 -4.28002 0
M  V30 10152 C 954.792 0.448956 -5.31808 0
M  V30 10153 O 955.015 1.6814 -5.45055 0
M  V30 10154 O 953.949 -0.173197 -6.01651 0
M  V30 10155 H 957.775 -1.08343 -2.83717 0
M  V30 10156 H 955.36 -0.593849 -1.3709 0
M  V30 10157 H 957.242 1.02712 -4.08691 0
M  V30 10158 H 955.917 1.35888 -2.93796 0
M  V30 10159 H 954.824 -0.848416 -3.64352 0
M  V30 10160 H 956.157 -1.09707 -4.79818 0
M  V30 10161 N 957.809 1.4625 -0.587256 0
M  V30 10162 C 959.225 1.57641 -0.249284 0
M  V30 10163 C 959.425 1.58169 1.24839 0
M  V30 10164 O 958.481 1.50109 2.03036 0
M  V30 10165 C 959.794 2.86837 -0.902509 0
M  V30 10166 C 961.342 3.00476 -0.876524 0
M  V30 10167 C 961.817 4.32414 -1.50938 0
M  V30 10168 N 963.308 4.39124 -1.47392 0
M  V30 10169 C 964.043 5.39838 -1.93293 0
M  V30 10170 N 963.539 6.47202 -2.47188 0
M  V30 10171 N 965.332 5.31068 -1.84183 0
M  V30 10172 H 957.483 1.44151 -1.55994 0
M  V30 10173 H 959.746 0.687905 -0.652297 0
M  V30 10174 H 959.452 2.92274 -1.95624 0
M  V30 10175 H 959.326 3.74927 -0.413466 0
M  V30 10176 H 961.713 2.94618 0.168601 0
M  V30 10177 H 961.794 2.1385 -1.40363 0
M  V30 10178 H 961.438 4.3903 -2.55372 0
M  V30 10179 H 961.368 5.17823 -0.957455 0
M  V30 10180 H 963.859 3.62138 -1.08002 0
M  V30 10181 H 964.172 7.20269 -2.80058 0
M  V30 10182 H 962.517 6.48009 -2.51216 0
M  V30 10183 H 965.708 4.46095 -1.41833 0
M  V30 10184 H 965.881 6.09414 -2.2027 0
M  V30 10185 N 959.287 0.325282 1.54207 0
M  V30 10186 C 960.217 -0.532574 2.27345 0
M  V30 10187 C 961.198 -1.11791 1.28206 0
M  V30 10188 O 962.383 -1.14272 1.57021 0
M  V30 10189 C 959.513 -1.69274 3.03255 0
M  V30 10190 C 958.467 -1.23662 4.09746 0
M  V30 10191 C 957.793 -2.48386 4.73506 0
M  V30 10192 C 959.093 -0.350244 5.21124 0
M  V30 10193 H 960.787 0.0775108 2.993 0
M  V30 10194 H 958.333 0.0387193 1.43948 0
M  V30 10195 H 960.286 -2.29917 3.53152 0
M  V30 10196 H 959.01 -2.32944 2.28921 0
M  V30 10197 H 957.669 -0.653106 3.60735 0
M  V30 10198 H 957.317 -3.10424 3.95786 0
M  V30 10199 H 957.017 -2.18558 5.45441 0
M  V30 10200 H 958.541 -3.09789 5.26178 0
M  V30 10201 H 959.955 -0.863011 5.66767 0
M  V30 10202 H 958.352 -0.14466 5.99926 0
M  V30 10203 H 959.422 0.618457 4.8094 0
M  V30 10204 N 960.765 -1.57509 0.0534917 0
M  V30 10205 C 961.697 -2.08616 -0.949322 0
M  V30 10206 C 962.71 -1.01446 -1.27328 0
M  V30 10207 O 963.899 -1.29007 -1.23367 0
M  V30 10208 C 960.999 -2.51622 -2.27024 0
M  V30 10209 C 960.172 -3.82154 -2.12785 0
M  V30 10210 C 959.231 -4.11448 -3.2802 0
M  V30 10211 O 958.257 -4.81333 -3.03822 0
M  V30 10212 N 959.459 -3.63543 -4.52567 0
M  V30 10213 H 962.224 -2.95275 -0.5131 0
M  V30 10214 H 959.785 -1.61355 -0.132693 0
M  V30 10215 H 961.777 -2.68293 -3.02986 0
M  V30 10216 H 960.347 -1.70198 -2.62205 0
M  V30 10217 H 959.567 -3.75041 -1.21399 0
M  V30 10218 H 960.855 -4.67629 -2.00501 0
M  V30 10219 H 960.253 -3.07051 -4.75117 0
M  V30 10220 H 958.81 -3.85448 -5.25617 0
M  V30 10221 N 962.243 0.219913 -1.56058 0
M  V30 10222 C 963.52 0.968493 -1.6994 0
M  V30 10223 C 963.9 2.02358 -0.601219 0
M  V30 10224 O 963.248 2.25121 0.391534 0
M  V30 10225 C 963.458 1.57745 -3.11316 0
M  V30 10226 C 964.806 2.06908 -3.70775 0
M  V30 10227 O 965.83 1.67636 -3.14288 0
M  V30 10228 O 964.689 2.79096 -4.69859 0
M  V30 10229 H 961.783 0.452521 -0.692209 0
M  V30 10230 H 964.329 0.211566 -1.68376 0
M  V30 10231 H 963.101 0.815687 -3.82704 0
M  V30 10232 H 962.724 2.39987 -3.17005 0
M  V30 10233 N 963.721 1.49897 0.486681 0
M  V30 10234 C 964.968 1.60105 1.23986 0
M  V30 10235 C 965.296 0.294228 1.92262 0
M  V30 10236 O 964.551 -0.718876 1.82018 0
M  V30 10237 C 964.85 2.71982 2.31863 0
M  V30 10238 C 964.516 4.13 1.80948 0
M  V30 10239 C 963.178 4.51373 1.66782 0
M  V30 10240 C 965.53 5.01198 1.43004 0
M  V30 10241 C 962.858 5.75701 1.13072 0
M  V30 10242 C 965.21 6.26058 0.90742 0
M  V30 10243 C 963.874 6.63247 0.752269 0
M  V30 10244 H 963.144 0.585866 0.453698 0
M  V30 10245 H 965.791 1.83778 0.538305 0
M  V30 10246 H 964.096 2.42336 3.07865 0
M  V30 10247 H 965.793 2.77087 2.89869 0
M  V30 10248 H 962.383 3.82718 1.92937 0
M  V30 10249 H 966.567 4.72196 1.52789 0
M  V30 10250 H 961.823 6.03202 0.997842 0
M  V30 10251 H 965.997 6.9377 0.604684 0
M  V30 10252 H 963.624 7.59466 0.33392 0
M  V30 10253 N 965.199 -0.738761 1.39212 0
M  V30 10254 C 966.476 -1.48982 1.26742 0
M  V30 10255 C 966.856 -2.10732 -0.12466 0
M  V30 10256 O 966.204 -1.98287 -1.13554 0
M  V30 10257 C 966.414 -2.54427 2.38889 0
M  V30 10258 C 967.762 -3.20915 2.78027 0
M  V30 10259 O 968.786 -2.64738 2.38311 0
M  V30 10260 O 967.645 -4.22558 3.46565 0
M  V30 10261 H 964.739 -0.661395 0.496473 0
M  V30 10262 H 967.285 -0.772907 1.51077 0
M  V30 10263 H 966.057 -2.07151 3.3197 0
M  V30 10264 H 965.68 -3.33682 2.162 0
M  V30 10265 N 966.677 -1.24326 -0.968545 0
M  V30 10266 C 967.624 -1.0349 -2.06297 0
M  V30 10267 C 968.594 0.0515333 -1.6602 0
M  V30 10268 O 969.779 -0.102924 -1.90522 0
M  V30 10269 C 966.919 -0.64487 -3.39021 0
M  V30 10270 C 966.032 -1.80469 -3.92498 0
M  V30 10271 C 965.167 -1.36032 -5.13487 0
M  V30 10272 C 964.206 -2.49014 -5.59159 0
M  V30 10273 N 963.343 -2.05451 -6.71367 0
M  V30 10274 H 968.183 -1.97161 -2.23454 0
M  V30 10275 H 965.72 -0.982028 -1.0952 0
M  V30 10276 H 967.678 -0.399771 -4.1528 0
M  V30 10277 H 966.308 0.254845 -3.21792 0
M  V30 10278 H 965.36 -2.16348 -3.12886 0
M  V30 10279 H 966.672 -2.65365 -4.22354 0
M  V30 10280 H 965.826 -1.07405 -5.97117 0
M  V30 10281 H 964.565 -0.481887 -4.85313 0
M  V30 10282 H 963.57 -2.78402 -4.74102 0
M  V30 10283 H 964.795 -3.37413 -5.89346 0
M  V30 10284 H 962.741 -1.20004 -6.4493 0
M  V30 10285 H 962.658 -2.83901 -7.00668 0
M  V30 10286 H 963.926 -1.79962 -7.58442 0
M  V30 10287 N 968.156 1.1691 -1.05688 0
M  V30 10288 C 969.381 1.91745 -0.790478 0
M  V30 10289 C 969.806 1.76568 0.648478 0
M  V30 10290 O 969.164 1.08682 1.45114 0
M  V30 10291 C 969.212 3.4067 -1.18222 0
M  V30 10292 O 968.316 4.11177 -0.317341 0
M  V30 10293 H 967.657 0.5976 -0.28943 0
M  V30 10294 H 970.187 1.48157 -1.41105 0
M  V30 10295 H 970.197 3.91424 -1.15114 0
M  V30 10296 H 968.872 3.51036 -2.2304 0
M  V30 10297 H 967.449 3.70645 -0.409459 0
M  V30 10298 N 969.634 0.838594 1.33437 0
M  V30 10299 C 970.582 0.260158 2.31141 0
M  V30 10300 C 971.576 -0.607706 1.58124 0
M  V30 10301 O 972.782 -0.497298 1.72994 0
M  V30 10302 H 969.157 0.0654031 0.74915 0
M  V30 10303 H 971.128 1.09874 2.77435 0
M  V30 10304 C 969.877 -0.550234 3.43319 0
M  V30 10305 H 969.2 0.108262 3.99653 0
M  V30 10306 H 970.64 -0.920815 4.1388 0
M  V30 10307 C 969.099 -1.729 2.89149 0
M  V30 10308 O 969.629 -2.82769 2.85315 0
M  V30 10309 N 967.835 -1.5508 2.45761 0
M  V30 10310 H 967.382 -0.657055 2.49079 0
M  V30 10311 H 967.34 -2.34099 2.0987 0
M  V30 10312 N 971.112 -1.45937 0.595003 0
M  V30 10313 C 972.523 -1.85908 0.171779 0
M  V30 10314 C 972.874 -1.497 -1.26824 0
M  V30 10315 O 971.999 -0.917688 -1.95978 0
M  V30 10316 C 972.594 -3.37425 0.304976 0
M  V30 10317 C 971.153 -3.76346 -0.0634635 0
M  V30 10318 C 970.3 -2.69926 0.635255 0
M  V30 10319 H 973.251 -1.36916 0.802471 0
M  V30 10320 H 973.272 -3.77632 -0.466313 0
M  V30 10321 H 972.784 -3.63747 1.35314 0
M  V30 10322 H 970.885 -3.55642 -1.11129 0
M  V30 10323 H 970.998 -4.78021 0.321419 0
M  V30 10324 H 969.362 -2.54592 0.0742054 0
M  V30 10325 H 970.145 -2.99086 1.68531 0
M  V30 10326 N 972.59 -0.333456 -1.54032 0
M  V30 10327 C 973.839 0.267081 -1.99924 0
M  V30 10328 C 974.152 1.52463 -1.22534 0
M  V30 10329 O 975.358 2.20178 -1.58852 0
M  V30 10330 C 973.814 0.526456 -3.56029 0
M  V30 10331 C 973.422 -0.714607 -4.42264 0
M  V30 10332 C 975.166 1.0864 -4.10363 0
M  V30 10333 C 973.073 -0.42659 -5.89859 0
M  V30 10334 H 972.003 0.103577 -0.746852 0
M  V30 10335 H 974.654 -0.447218 -1.77967 0
M  V30 10336 H 973.036 1.3012 -3.74012 0
M  V30 10337 H 974.21 -1.48968 -4.36056 0
M  V30 10338 H 972.525 -1.19547 -3.9887 0
M  V30 10339 H 975.122 1.31668 -5.18235 0
M  V30 10340 H 975.465 2.03884 -3.62956 0
M  V30 10341 H 975.998 0.37261 -3.96051 0
M  V30 10342 H 972.737 -1.34847 -6.4148 0
M  V30 10343 H 972.257 0.310588 -5.98995 0
M  V30 10344 H 973.936 -0.0400807 -6.46988 0
M  V30 10345 N 974.068 1.57479 -0.061844 0
M  V30 10346 C 975.314 1.93395 0.610443 0
M  V30 10347 C 975.647 0.941334 1.6986 0
M  V30 10348 O 974.922 -0.0310262 1.94475 0
M  V30 10349 C 975.205 3.39636 1.19664 0
M  V30 10350 C 975.058 4.49651 0.115805 0
M  V30 10351 C 976.377 3.86488 2.10512 0
M  V30 10352 H 973.496 0.703262 0.220436 0
M  V30 10353 H 976.138 1.89583 -0.125785 0
M  V30 10354 H 974.288 3.43015 1.82409 0
M  V30 10355 H 975.96 4.58397 -0.516728 0
M  V30 10356 H 974.203 4.30237 -0.55483 0
M  V30 10357 H 974.874 5.49089 0.566176 0
M  V30 10358 H 977.35 3.85052 1.57715 0
M  V30 10359 H 976.226 4.89444 2.48466 0
M  V30 10360 H 976.487 3.23856 3.00948 0
M  V30 10361 N 975.546 -0.211634 1.56173 0
M  V30 10362 C 976.476 -1.26533 1.96244 0
M  V30 10363 C 977.457 -1.48362 0.832028 0
M  V30 10364 O 978.642 -1.60378 1.0951 0
M  V30 10365 C 975.772 -2.61307 2.2877 0
M  V30 10366 C 974.726 -2.54119 3.44395 0
M  V30 10367 C 974.052 -3.93014 3.62552 0
M  V30 10368 C 975.352 -2.08046 4.79076 0
M  V30 10369 H 977.046 -0.932407 2.84511 0
M  V30 10370 H 974.592 -0.447084 1.36884 0
M  V30 10371 H 976.545 -3.35188 2.55396 0
M  V30 10372 H 975.269 -2.96307 1.37367 0
M  V30 10373 H 973.928 -1.82694 3.17834 0
M  V30 10374 H 973.576 -4.25338 2.68508 0
M  V30 10375 H 973.276 -3.89083 4.40327 0
M  V30 10376 H 974.8 -4.68542 3.91537 0
M  V30 10377 H 976.214 -2.71676 5.04842 0
M  V30 10378 H 974.611 -2.15154 5.60204 0
M  V30 10379 H 975.681 -1.03306 4.73768 0
M  V30 10380 N 977.024 -1.50153 -0.478725 0
M  V30 10381 C 978.44 -1.3741 -0.811833 0
M  V30 10382 C 978.64 -0.424303 -1.96982 0
M  V30 10383 O 977.696 0.13588 -2.52134 0
M  V30 10384 C 979.009 -2.78616 -1.13108 0
M  V30 10385 C 980.557 -2.87477 -1.23798 0
M  V30 10386 C 981.032 -4.295 -1.5904 0
M  V30 10387 N 982.523 -4.32415 -1.66047 0
M  V30 10388 C 983.258 -5.39295 -1.94805 0
M  V30 10389 N 982.754 -6.56392 -2.21635 0
M  V30 10390 N 984.547 -5.26731 -1.96243 0
M  V30 10391 H 976.698 -2.10486 0.284531 0
M  V30 10392 H 978.961 -0.945786 0.0647585 0
M  V30 10393 H 978.667 -3.49921 -0.35334 0
M  V30 10394 H 978.541 -3.15382 -2.06915 0
M  V30 10395 H 980.928 -2.16396 -2.00641 0
M  V30 10396 H 981.009 -2.54264 -0.279888 0
M  V30 10397 H 980.653 -5.01115 -0.827404 0
M  V30 10398 H 980.583 -4.60194 -2.55987 0
M  V30 10399 H 983.074 -3.47975 -1.47383 0
M  V30 10400 H 983.387 -7.33658 -2.4283 0
M  V30 10401 H 981.732 -6.59579 -2.19043 0
M  V30 10402 H 984.923 -4.34249 -1.74773 0
M  V30 10403 H 985.096 -6.10115 -2.1832 0
M  V30 10404 N 978.502 0.731368 -1.39602 0
M  V30 10405 C 979.435 1.85433 -1.33004 0
M  V30 10406 C 980.413 1.61327 -0.20307 0
M  V30 10407 O 981.597 1.84545 -0.384124 0
M  V30 10408 C 978.724 3.21483 -1.06613 0
M  V30 10409 C 977.77 3.64443 -2.21549 0
M  V30 10410 S 978.603 3.73387 -3.83852 0
M  V30 10411 C 979.759 5.12222 -3.59694 0
M  V30 10412 H 979.992 1.90747 -2.28041 0
M  V30 10413 H 977.525 0.89659 -1.25701 0
M  V30 10414 H 979.483 4.00041 -0.920719 0
M  V30 10415 H 978.144 3.1382 -0.132563 0
M  V30 10416 H 977.337 4.63185 -1.98686 0
M  V30 10417 H 976.939 2.93099 -2.32312 0
M  V30 10418 H 979.231 5.98666 -3.17184 0
M  V30 10419 H 980.174 5.40115 -4.5791 0
M  V30 10420 H 980.582 4.8207 -2.93716 0
M  V30 10421 N 979.98 1.24838 0.961938 0
M  V30 10422 C 980.913 0.989041 2.05653 0
M  V30 10423 C 981.891 -0.079199 1.62407 0
M  V30 10424 O 983.075 0.0589397 1.88408 0
M  V30 10425 C 980.202 0.493661 3.35083 0
M  V30 10426 C 979.248 1.55132 3.97286 0
M  V30 10427 S 980.081 3.13438 4.34185 0
M  V30 10428 C 981.237 2.65617 5.66744 0
M  V30 10429 H 981.47 1.91588 2.27335 0
M  V30 10430 H 979.003 1.08287 1.10061 0
M  V30 10431 H 980.961 0.214482 4.09939 0
M  V30 10432 H 979.622 -0.412559 3.11379 0
M  V30 10433 H 978.815 1.15525 4.90581 0
M  V30 10434 H 978.417 1.78081 3.28882 0
M  V30 10435 H 980.709 2.08788 6.44526 0
M  V30 10436 H 981.652 3.57524 6.11214 0
M  V30 10437 H 982.06 2.05853 5.25628 0
M  V30 10438 N 981.458 -1.16348 1.06306 0
M  V30 10439 C 982.406 -2.22799 0.668087 0
M  V30 10440 C 983.4 -1.66426 -0.316051 0
M  V30 10441 O 984.606 -1.79089 -0.180902 0
M  V30 10442 H 980.981 -0.725487 0.19792 0
M  V30 10443 H 982.952 -2.53401 1.57577 0
M  V30 10444 C 981.701 -3.47628 0.0706797 0
M  V30 10445 H 981.024 -3.9132 0.819064 0
M  V30 10446 H 982.464 -4.23666 -0.16816 0
M  V30 10447 C 980.923 -3.15343 -1.18577 0
M  V30 10448 O 981.453 -3.31158 -2.27371 0
M  V30 10449 N 979.659 -2.69472 -1.08779 0
M  V30 10450 H 979.206 -2.56803 -0.202447 0
M  V30 10451 H 979.164 -2.48244 -1.92931 0
M  V30 10452 N 982.937 -0.845659 -1.3299 0
M  V30 10453 C 984.214 -0.366306 -1.92139 0
M  V30 10454 C 984.594 1.14912 -1.77083 0
M  V30 10455 O 983.942 1.96667 -1.16338 0
M  V30 10456 C 984.152 -0.820716 -3.39213 0
M  V30 10457 C 985.5 -0.832667 -4.16355 0
M  V30 10458 O 986.524 -0.764764 -3.47893 0
M  V30 10459 O 985.383 -0.926658 -5.38586 0
M  V30 10460 H 982.477 -0.105063 -0.820299 0
M  V30 10461 H 985.023 -0.931962 -1.41819 0
M  V30 10462 H 983.795 -1.86357 -3.44074 0
M  V30 10463 H 983.418 -0.232009 -3.96923 0
M  V30 10464 N 984.415 1.45619 -0.602734 0
M  V30 10465 C 985.347 2.28662 0.157012 0
M  V30 10466 C 986.36 1.39672 0.836396 0
M  V30 10467 O 987.549 1.64091 0.702599 0
M  V30 10468 C 984.649 3.1528 1.24306 0
M  V30 10469 C 983.822 4.32517 0.651731 0
M  V30 10470 C 982.881 5.00381 1.62804 0
M  V30 10471 O 981.907 5.57333 1.15624 0
M  V30 10472 N 983.109 4.99221 2.96241 0
M  V30 10473 H 985.874 2.94506 -0.555535 0
M  V30 10474 H 983.435 1.55753 -0.441881 0
M  V30 10475 H 985.427 3.57544 1.8959 0
M  V30 10476 H 983.997 2.51376 1.85819 0
M  V30 10477 H 983.217 3.93793 -0.17907 0
M  V30 10478 H 984.505 5.08249 0.236802 0
M  V30 10479 H 983.903 4.54232 3.37179 0
M  V30 10480 H 982.46 5.45364 3.56961 0
M  V30 10481 N 985.893 0.34162 1.53853 0
M  V30 10482 C 986.823 -0.508431 2.27897 0
M  V30 10483 C 987.804 -1.10425 1.29384 0
M  V30 10484 O 988.989 -1.126 1.58224 0
M  V30 10485 C 986.119 -1.66048 3.05034 0
M  V30 10486 C 985.073 -1.19309 4.11035 0
M  V30 10487 C 984.399 -2.4335 4.76114 0
M  V30 10488 C 985.699 -0.294952 5.21467 0
M  V30 10489 H 987.393 0.109251 2.99201 0
M  V30 10490 H 984.939 0.0539847 1.43899 0
M  V30 10491 H 986.892 -2.26158 3.5557 0
M  V30 10492 H 985.616 -2.30503 2.31379 0
M  V30 10493 H 984.275 -0.614809 3.61408 0
M  V30 10494 H 983.923 -3.06208 3.99056 0
M  V30 10495 H 983.623 -2.1276 5.47729 0
M  V30 10496 H 985.147 -3.0419 5.29434 0
M  V30 10497 H 986.561 -0.80285 5.67651 0
M  V30 10498 H 984.958 -0.0810221 6.00045 0
M  V30 10499 H 986.028 0.669433 4.80257 0
M  V30 10500 N 987.371 -1.57444 0.0701946 0
M  V30 10501 C 988.304 -2.08232 -0.93352 0
M  V30 10502 C 989.282 -0.987073 -1.29212 0
M  V30 10503 O 990.466 -1.26035 -1.40169 0
M  V30 10504 C 987.593 -2.53866 -2.2421 0
M  V30 10505 C 986.639 -3.7481 -2.03518 0
M  V30 10506 S 987.472 -5.1958 -1.29601 0
M  V30 10507 C 988.628 -5.68544 -2.61742 0
M  V30 10508 H 988.861 -2.93042 -0.501354 0
M  V30 10509 H 986.394 -1.53741 -0.142533 0
M  V30 10510 H 988.352 -2.80818 -2.99419 0
M  V30 10511 H 987.013 -1.69327 -2.64551 0
M  V30 10512 H 986.206 -4.04724 -3.00358 0
M  V30 10513 H 985.808 -3.48222 -1.36445 0
M  V30 10514 H 988.1 -5.75291 -3.57836 0
M  V30 10515 H 989.043 -6.67459 -2.3644 0
M  V30 10516 H 989.451 -4.96354 -2.68873 0
M  V30 10517 N 988.849 0.203349 -1.56283 0
M  V30 10518 C 990.096 0.92501 -1.80138 0
M  V30 10519 C 990.424 1.83598 -0.64204 0
M  V30 10520 O 989.679 1.92119 0.372658 0
M  V30 10521 C 989.978 1.78016 -3.09912 0
M  V30 10522 C 989.644 1.02088 -4.39191 0
M  V30 10523 C 988.306 0.811208 -4.74313 0
M  V30 10524 C 990.658 0.486037 -5.18929 0
M  V30 10525 C 987.986 0.0550856 -5.86674 0
M  V30 10526 C 990.338 -0.256833 -6.32078 0
M  V30 10527 C 989.002 -0.477594 -6.65789 0
M  V30 10528 H 988.272 0.338485 -0.659173 0
M  V30 10529 H 990.919 0.191923 -1.90536 0
M  V30 10530 H 989.224 2.58167 -2.94715 0
M  V30 10531 H 990.921 2.341 -3.25574 0
M  V30 10532 H 987.511 1.1943 -4.11624 0
M  V30 10533 H 991.695 0.635446 -4.92215 0
M  V30 10534 H 986.951 -0.126006 -6.1127 0
M  V30 10535 H 991.125 -0.678683 -6.93085 0
M  V30 10536 H 988.752 -1.0654 -7.52697 0
M  V30 10537 N 990.327 1.50405 0.470755 0
M  V30 10538 C 991.257 1.72222 1.57676 0
M  V30 10539 C 992.238 0.57121 1.60222 0
M  V30 10540 O 993.423 0.810381 1.76484 0
M  V30 10541 C 990.553 1.81666 2.95998 0
M  V30 10542 C 989.507 2.96857 3.08318 0
M  V30 10543 C 988.833 2.91445 4.4829 0
M  V30 10544 C 990.133 4.37361 2.85504 0
M  V30 10545 H 991.827 2.64825 1.39671 0
M  V30 10546 H 989.373 1.27438 0.67049 0
M  V30 10547 H 991.326 1.95514 3.73299 0
M  V30 10548 H 990.05 0.856856 3.1516 0
M  V30 10549 H 988.709 2.82661 2.33449 0
M  V30 10550 H 988.357 1.93309 4.64371 0
M  V30 10551 H 988.057 3.68776 4.57469 0
M  V30 10552 H 989.581 3.07341 5.27611 0
M  V30 10553 H 990.995 4.52081 3.52555 0
M  V30 10554 H 989.392 5.16145 3.06127 0
M  V30 10555 H 990.462 4.49708 1.81359 0
M  V30 10556 N 991.805 -0.723954 1.39988 0
M  V30 10557 C 992.715 -1.86829 1.41887 0
M  V30 10558 C 993.731 -1.71173 0.312401 0
M  V30 10559 O 994.907 -1.93583 0.555651 0
M  V30 10560 C 991.972 -3.22541 1.27154 0
M  V30 10561 C 991.033 -3.50512 2.47871 0
M  V30 10562 C 990.266 -4.79749 2.33831 0
M  V30 10563 O 990.489 -5.54251 1.34765 0
M  V30 10564 O 989.423 -5.07868 3.23039 0
M  V30 10565 H 993.249 -1.88183 2.38371 0
M  V30 10566 H 990.834 -0.873259 1.21221 0
M  V30 10567 H 992.716 -4.0362 1.21114 0
M  V30 10568 H 991.391 -3.21933 0.337715 0
M  V30 10569 H 990.298 -2.69475 2.59488 0
M  V30 10570 H 991.631 -3.55909 3.39985 0
M  V30 10571 N 993.283 -1.25346 -0.955304 0
M  V30 10572 C 994.699 -1.02154 -1.22625 0
M  V30 10573 C 994.899 0.26206 -1.99789 0
M  V30 10574 O 993.955 0.974958 -2.32918 0
M  V30 10575 C 995.268 -2.2443 -2.00129 0
M  V30 10576 C 996.816 -2.29185 -2.13174 0
M  V30 10577 C 997.291 -3.51117 -2.94077 0
M  V30 10578 N 998.782 -3.51509 -3.01655 0
M  V30 10579 C 999.517 -4.42517 -3.64645 0
M  V30 10580 N 999.013 -5.43796 -4.29252 0
M  V30 10581 N 1000.81 -4.302 -3.61779 0
M  V30 10582 H 992.957 -2.07812 -0.439071 0
M  V30 10583 H 995.22 -0.91258 -0.256715 0
M  V30 10584 H 994.926 -3.17717 -1.50827 0
M  V30 10585 H 994.8 -2.27548 -3.00835 0
M  V30 10586 H 997.187 -1.36422 -2.61674 0
M  V30 10587 H 997.268 -2.30087 -1.11775 0
M  V30 10588 H 996.912 -4.44201 -2.46268 0
M  V30 10589 H 996.842 -3.4746 -3.95701 0
M  V30 10590 H 999.333 -2.78245 -2.55711 0
M  V30 10591 H 999.646 -6.09453 -4.75171 0
M  V30 10592 H 997.991 -5.4767 -4.27882 0
M  V30 10593 H 1001.18 -3.50304 -3.10491 0
M  V30 10594 H 1001.36 -5.01323 -4.10584 0
M  V30 10595 N 994.761 1.15782 -1.06922 0
M  V30 10596 C 995.724 2.18578 -0.689654 0
M  V30 10597 C 996.724 1.58553 0.267872 0
M  V30 10598 O 997.914 1.7413 0.0494097 0
M  V30 10599 C 995.046 3.40896 -0.0157919 0
M  V30 10600 H 996.239 2.53672 -1.59971 0
M  V30 10601 H 993.792 1.30168 -0.865214 0
M  V30 10602 H 994.527 3.11367 0.906712 0
M  V30 10603 H 994.312 3.85721 -0.704415 0
M  V30 10604 H 995.802 4.16937 0.235266 0
M  V30 10605 N 996.239 0.8527 1.3254 0
M  V30 10606 C 997.486 0.455123 1.97319 0
M  V30 10607 C 997.814 -0.988814 1.67489 0
M  V30 10608 O 997.069 -1.70845 0.954483 0
M  V30 10609 C 997.368 0.638757 3.51646 0
M  V30 10610 C 997.034 2.05287 4.01458 0
M  V30 10611 C 995.696 2.43963 4.14771 0
M  V30 10612 C 998.048 2.9759 4.27889 0
M  V30 10613 C 995.376 3.7422 4.51859 0
M  V30 10614 C 997.728 4.27343 4.66434 0
M  V30 10615 C 996.392 4.65957 4.77954 0
M  V30 10616 H 995.662 0.166541 0.722042 0
M  V30 10617 H 998.309 1.08238 1.57977 0
M  V30 10618 H 996.614 -0.0717394 3.91734 0
M  V30 10619 H 998.311 0.311219 3.9979 0
M  V30 10620 H 994.901 1.74253 3.91579 0
M  V30 10621 H 999.085 2.68942 4.17114 0
M  V30 10622 H 994.341 4.03923 4.58973 0
M  V30 10623 H 998.515 4.9893 4.85841 0
M  V30 10624 H 996.142 5.66934 5.06449 0
M  V30 10625 N 997.718 -1.45297 0.610449 0
M  V30 10626 C 998.967 -2.0143 0.104323 0
M  V30 10627 C 999.28 -1.48431 -1.27388 0
M  V30 10628 O 1000.49 -1.96558 -1.87289 0
M  V30 10629 C 998.942 -3.59644 0.135812 0
M  V30 10630 C 998.55 -4.2164 1.51405 0
M  V30 10631 C 1000.29 -4.2333 -0.314922 0
M  V30 10632 C 998.201 -5.72015 1.50176 0
M  V30 10633 H 997.131 -0.753176 0.035233 0
M  V30 10634 H 999.782 -1.66738 0.7662 0
M  V30 10635 H 998.164 -3.91538 -0.592773 0
M  V30 10636 H 999.338 -4.01315 2.26457 0
M  V30 10637 H 997.653 -3.70159 1.90712 0
M  V30 10638 H 1000.25 -5.33597 -0.343335 0
M  V30 10639 H 1000.59 -3.94206 -1.33817 0
M  V30 10640 H 1001.13 -3.96163 0.360489 0
M  V30 10641 H 997.865 -6.05842 2.50271 0
M  V30 10642 H 997.385 -5.94523 0.793869 0
M  V30 10643 H 999.064 -6.35266 1.22665 0
M  V30 10644 N 999.196 -0.349774 -1.5367 0
M  V30 10645 C 1000.47 0.300419 -1.93279 0
M  V30 10646 C 1000.85 1.67721 -1.28191 0
M  V30 10647 O 1000.2 2.24319 -0.435127 0
M  V30 10648 C 1000.41 0.366466 -3.47071 0
M  V30 10649 C 1001.76 0.614349 -4.20132 0
M  V30 10650 O 1002.78 0.448327 -3.53367 0
M  V30 10651 O 1001.64 0.936421 -5.38417 0
M  V30 10652 H 998.736 0.176599 -0.807924 0
M  V30 10653 H 1001.28 -0.401405 -1.64884 0
M  V30 10654 H 1000.05 -0.599455 -3.86681 0
M  V30 10655 H 999.677 1.11482 -3.81651 0
M  V30 10656 N 1000.67 1.57404 -0.0785433 0
M  V30 10657 C 1002.08 1.81118 0.45311 0
M  V30 10658 C 1002.44 0.992963 1.69218 0
M  V30 10659 O 1001.56 0.217448 2.15305 0
M  V30 10660 C 1002.16 3.28506 0.82882 0
M  V30 10661 C 1000.71 3.53042 1.3053 0
M  V30 10662 C 999.862 2.75739 0.29378 0
M  V30 10663 H 1002.81 1.55758 -0.304171 0
M  V30 10664 H 1002.83 3.40924 1.68971 0
M  V30 10665 H 1002.35 3.88031 -0.0731826 0
M  V30 10666 H 1000.45 2.98829 2.22558 0
M  V30 10667 H 1000.56 4.61724 1.27857 0
M  V30 10668 H 998.924 2.42703 0.772477 0
M  V30 10669 H 999.707 3.38005 -0.600613 0
M  V30 10670 N 1002.15 -0.195058 1.56388 0
M  V30 10671 C 1003.08 -1.24444 1.97575 0
M  V30 10672 C 1004.06 -1.47471 0.847717 0
M  V30 10673 O 1005.25 -1.59208 1.11205 0
M  V30 10674 C 1002.38 -2.58866 2.31529 0
M  V30 10675 C 1001.33 -2.50451 3.47071 0
M  V30 10676 C 1000.66 -3.89146 3.667 0
M  V30 10677 C 1001.96 -2.02953 4.81256 0
M  V30 10678 H 1003.65 -0.902178 2.85484 0
M  V30 10679 H 1001.2 -0.43254 1.3735 0
M  V30 10680 H 1003.15 -3.3246 2.58936 0
M  V30 10681 H 1001.87 -2.94833 1.40502 0
M  V30 10682 H 1000.53 -1.79313 3.19754 0
M  V30 10683 H 1000.18 -4.22466 2.73004 0
M  V30 10684 H 999.882 -3.84391 4.44429 0
M  V30 10685 H 1001.41 -4.64363 3.96484 0
M  V30 10686 H 1002.82 -2.66306 5.07695 0
M  V30 10687 H 1001.22 -2.092 5.62455 0
M  V30 10688 H 1002.29 -0.982757 4.74837 0
M  V30 10689 N 1003.63 -1.50653 -0.462772 0
M  V30 10690 C 1004.88 -1.61737 -1.21184 0
M  V30 10691 C 1005.2 -0.32369 -1.92295 0
M  V30 10692 O 1004.47 0.659269 -1.84473 0
M  V30 10693 H 1003.05 -0.596015 -0.450306 0
M  V30 10694 H 1005.71 -1.87469 -0.533051 0
M  V30 10695 H 1004.81 -2.43262 -1.95525 0
M  V30 10696 N 1005.11 0.71652 -1.4037 0
M  V30 10697 C 1006.04 1.84345 -1.43315 0
M  V30 10698 C 1007.02 1.67537 -0.294186 0
M  V30 10699 O 1008.2 1.87582 -0.502671 0
M  V30 10700 C 1005.33 3.2229 -1.29408 0
M  V30 10701 C 1004.29 3.53769 -2.40897 0
M  V30 10702 C 1003.61 4.90847 -2.12068 0
M  V30 10703 C 1004.91 3.54862 -3.83237 0
M  V30 10704 H 1006.61 1.82138 -2.37626 0
M  V30 10705 H 1004.15 0.874873 -1.14376 0
M  V30 10706 H 1006.11 4.00819 -1.30085 0
M  V30 10707 H 1004.83 3.2507 -0.31573 0
M  V30 10708 H 1003.49 2.77579 -2.39469 0
M  V30 10709 H 1003.14 4.90229 -1.12626 0
M  V30 10710 H 1002.84 5.12875 -2.86762 0
M  V30 10711 H 1004.36 5.71711 -2.14426 0
M  V30 10712 H 1005.78 4.23432 -3.86494 0
M  V30 10713 H 1004.17 3.88416 -4.57442 0
M  V30 10714 H 1005.24 2.54266 -4.12888 0
M  V30 10715 N 1006.59 1.25851 0.948643 0
M  V30 10716 C 1008 1.09975 1.50872 0
M  V30 10717 C 1008.35 -0.322497 1.93531 0
M  V30 10718 O 1007.47 -1.21316 1.79197 0
M  V30 10719 C 1008.07 1.99021 2.74182 0
M  V30 10720 C 1006.63 1.87313 3.26483 0
M  V30 10721 C 1005.77 1.92815 1.99293 0
M  V30 10722 H 1008.73 1.3905 0.764908 0
M  V30 10723 H 1008.75 1.53372 3.4822 0
M  V30 10724 H 1008.26 3.02527 2.43103 0
M  V30 10725 H 1006.36 0.867136 3.62369 0
M  V30 10726 H 1006.47 2.72446 3.94094 0
M  V30 10727 H 1004.84 1.36774 2.1486 0
M  V30 10728 H 1005.62 2.97936 1.70554 0
M  V30 10729 N 1008.06 -1.15214 1.07534 0
M  V30 10730 C 1009.34 -1.82155 0.71267 0
M  V30 10731 C 1009.72 -1.95163 -0.804655 0
M  V30 10732 O 1009.07 -1.50451 -1.71979 0
M  V30 10733 C 1009.28 -3.18392 1.42925 0
M  V30 10734 C 1010.63 -3.94005 1.58256 0
M  V30 10735 O 1011.65 -3.27952 1.39018 0
M  V30 10736 O 1010.51 -5.12436 1.89925 0
M  V30 10737 H 1007.6 -0.78709 0.253808 0
M  V30 10738 H 1010.15 -1.22309 1.17638 0
M  V30 10739 H 1008.92 -3.04034 2.46331 0
M  V30 10740 H 1008.55 -3.85925 0.956439 0
M  V30 10741 N 1009.54 -0.859717 -1.32086 0
M  V30 10742 C 1010.96 -0.55025 -1.49815 0
M  V30 10743 C 1011.16 0.917966 -1.79376 0
M  V30 10744 O 1010.21 1.70073 -1.86632 0
M  V30 10745 C 1011.53 -1.44161 -2.6389 0
M  V30 10746 C 1013.08 -1.44257 -2.77775 0
M  V30 10747 C 1013.55 -2.31926 -3.94936 0
M  V30 10748 N 1015.04 -2.2975 -4.02206 0
M  V30 10749 C 1015.78 -2.9431 -4.92107 0
M  V30 10750 N 1015.27 -3.68001 -5.86981 0
M  V30 10751 N 1017.07 -2.83671 -4.8527 0
M  V30 10752 H 1009.22 -1.80987 -1.11164 0
M  V30 10753 H 1011.48 -0.773313 -0.548353 0
M  V30 10754 H 1011.19 -2.48588 -2.4879 0
M  V30 10755 H 1011.06 -1.13268 -3.59792 0
M  V30 10756 H 1013.45 -0.405923 -2.92295 0
M  V30 10757 H 1013.53 -1.79169 -1.82571 0
M  V30 10758 H 1013.17 -3.35661 -3.81174 0
M  V30 10759 H 1013.1 -1.94344 -4.89426 0
M  V30 10760 H 1015.59 -1.76177 -3.3432 0
M  V30 10761 H 1015.91 -4.14417 -6.52287 0
M  V30 10762 H 1014.25 -3.72109 -5.86992 0
M  V30 10763 H 1017.44 -2.25647 -4.10123 0
M  V30 10764 H 1017.61 -3.34267 -5.5513 0
M  V30 10765 N 1011.02 1.44971 -0.618145 0
M  V30 10766 C 1012.43 1.85611 -0.201334 0
M  V30 10767 C 1012.78 1.51698 1.24427 0
M  V30 10768 O 1011.91 0.94875 1.94493 0
M  V30 10769 C 1012.5 3.36897 -0.358619 0
M  V30 10770 C 1011.06 3.764 0.00358196 0
M  V30 10771 C 1010.21 2.68881 -0.678118 0
M  V30 10772 H 1013.16 1.35622 -0.824152 0
M  V30 10773 H 1013.18 3.78326 0.406176 0
M  V30 10774 H 1012.69 3.61548 -1.41084 0
M  V30 10775 H 1010.79 3.57365 1.05457 0
M  V30 10776 H 1010.91 4.77449 -0.397427 0
M  V30 10777 H 1009.27 2.54442 -0.114699 0
M  V30 10778 H 1010.05 2.96367 -1.73268 0
M  V30 10779 N 1012.5 0.357919 1.53482 0
M  V30 10780 C 1013.75 -0.234163 2.01142 0
M  V30 10781 C 1014.07 -1.49399 1.2454 0
M  V30 10782 O 1013.33 -1.92981 0.325111 0
M  V30 10783 C 1013.63 -0.579617 3.52669 0
M  V30 10784 C 1013.29 0.584988 4.47089 0
M  V30 10785 C 1011.96 0.904558 4.72622 0
M  V30 10786 C 1014.31 1.3656 5.02992 0
M  V30 10787 C 1011.64 2.00685 5.5131 0
M  V30 10788 C 1013.99 2.45824 5.82884 0
M  V30 10789 C 1012.65 2.78325 6.06706 0
M  V30 10790 H 1011.92 -0.0856863 0.736029 0
M  V30 10791 H 1014.57 0.488801 1.85157 0
M  V30 10792 H 1012.87 -1.38349 3.66561 0
M  V30 10793 H 1014.57 -1.04985 3.87013 0
M  V30 10794 H 1011.16 0.32587 4.27359 0
M  V30 10795 H 1015.34 1.13196 4.83219 0
M  V30 10796 H 1010.6 2.26272 5.67988 0
M  V30 10797 H 1014.77 3.06732 6.25211 0
M  V30 10798 H 1012.4 3.63862 6.67464 0
M  V30 10799 N 1013.98 -1.5736 0.0868897 0
M  V30 10800 C 1015.21 -1.981 -0.586498 0
M  V30 10801 C 1015.61 -0.96455 -1.62767 0
M  V30 10802 O 1014.96 0.0551801 -1.83617 0
M  V30 10803 C 1015.02 -3.35193 -1.29947 0
M  V30 10804 C 1014.68 -4.55157 -0.410012 0
M  V30 10805 C 1015.68 -5.18797 0.338532 0
M  V30 10806 C 1013.37 -5.01212 -0.33047 0
M  V30 10807 C 1015.36 -6.26854 1.15468 0
M  V30 10808 C 1013.05 -6.09138 0.48934 0
M  V30 10809 C 1014.04 -6.71823 1.23057 0
M  V30 10810 O 1013.73 -7.77669 2.03683 0
M  V30 10811 H 1013.46 -0.656166 -0.16255 0
M  V30 10812 H 1016.02 -2.04773 0.160379 0
M  V30 10813 H 1014.25 -3.25179 -2.09274 0
M  V30 10814 H 1015.94 -3.60435 -1.86658 0
M  V30 10815 H 1016.7 -4.84151 0.286764 0
M  V30 10816 H 1012.58 -4.52188 -0.897058 0
M  V30 10817 H 1016.13 -6.75712 1.73374 0
M  V30 10818 H 1012.02 -6.43215 0.542618 0
M  V30 10819 H 1012.79 -7.94618 1.96277 0
M  V30 10820 N 1015.45 0.186762 -1.56489 0
M  V30 10821 C 1016.87 0.537933 -1.50261 0
M  V30 10822 C 1017.07 1.85435 -0.788414 0
M  V30 10823 O 1016.13 2.50168 -0.342377 0
M  V30 10824 C 1017.44 0.584965 -2.94955 0
M  V30 10825 C 1018.99 0.673228 -3.05674 0
M  V30 10826 C 1019.46 0.751294 -4.51796 0
M  V30 10827 N 1020.95 0.814599 -4.55981 0
M  V30 10828 C 1021.69 0.895313 -5.66367 0
M  V30 10829 N 1021.18 0.937814 -6.86423 0
M  V30 10830 N 1022.98 0.933145 -5.543 0
M  V30 10831 H 1015.13 -0.676636 -2.01334 0
M  V30 10832 H 1017.39 -0.242079 -0.916571 0
M  V30 10833 H 1017.1 -0.313361 -3.50301 0
M  V30 10834 H 1016.97 1.4368 -3.48763 0
M  V30 10835 H 1019.36 1.56198 -2.50372 0
M  V30 10836 H 1019.44 -0.204976 -2.54977 0
M  V30 10837 H 1019.08 -0.133143 -5.07725 0
M  V30 10838 H 1019.01 1.64542 -5.00233 0
M  V30 10839 H 1021.5 0.790662 -3.69536 0
M  V30 10840 H 1021.82 1.00015 -7.66301 0
M  V30 10841 H 1020.16 0.906351 -6.89065 0
M  V30 10842 H 1023.35 0.896836 -4.59428 0
M  V30 10843 H 1023.53 0.992588 -6.40353 0
M  V30 10844 N 1016.93 1.50896 0.454776 0
M  V30 10845 C 1017.88 1.67333 1.54867 0
M  V30 10846 C 1018.87 0.527576 1.52005 0
M  V30 10847 O 1020.06 0.782726 1.58753 0
M  V30 10848 C 1017.19 1.7858 2.93196 0
M  V30 10849 C 1016.27 2.98884 3.0088 0
M  V30 10850 N 1016.66 4.22326 2.78343 0
M  V30 10851 C 1014.96 2.97779 3.32029 0
M  V30 10852 C 1015.66 5.03439 2.91418 0
M  V30 10853 N 1014.64 4.37725 3.22332 0
M  V30 10854 H 1018.44 2.60453 1.36167 0
M  V30 10855 H 1015.96 1.48304 0.661797 0
M  V30 10856 H 1017.95 1.88463 3.7187 0
M  V30 10857 H 1016.61 0.866296 3.1293 0
M  V30 10858 H 1017.62 4.51557 2.53607 0
M  V30 10859 H 1014.3 2.15393 3.57648 0
M  V30 10860 H 1015.69 6.11648 2.78095 0
M  V30 10861 N 1018.41 -0.709066 1.40748 0
M  V30 10862 C 1019.66 -1.47119 1.39585 0
M  V30 10863 C 1019.99 -1.942 0.000245323 0
M  V30 10864 O 1019.26 -1.68609 -0.969593 0
M  V30 10865 C 1019.55 -2.69266 2.39099 0
M  V30 10866 C 1019.4 -2.28037 3.8771 0
M  V30 10867 C 1020.72 -3.71438 2.36055 0
M  V30 10868 H 1017.84 -0.533632 0.508336 0
M  V30 10869 H 1020.48 -0.808718 1.7193 0
M  V30 10870 H 1018.63 -3.25788 2.11647 0
M  V30 10871 H 1020.3 -1.76946 4.26014 0
M  V30 10872 H 1018.55 -1.59966 4.03229 0
M  V30 10873 H 1019.22 -3.15621 4.52866 0
M  V30 10874 H 1021.69 -3.24559 2.60385 0
M  V30 10875 H 1020.57 -4.54532 3.07721 0
M  V30 10876 H 1020.83 -4.20193 1.37443 0
M  V30 10877 N 1019.89 -1.26353 -0.941956 0
M  V30 10878 C 1021.14 -1.11241 -1.68251 0
M  V30 10879 C 1021.45 0.344055 -1.9255 0
M  V30 10880 O 1022.66 0.615832 -2.64423 0
M  V30 10881 C 1021.11 -1.94269 -3.02965 0
M  V30 10882 C 1020.72 -3.44485 -2.86415 0
M  V30 10883 C 1022.47 -1.87764 -3.80716 0
M  V30 10884 C 1020.37 -4.19763 -4.16597 0
M  V30 10885 H 1019.3 -0.412694 -0.63103 0
M  V30 10886 H 1021.95 -1.50656 -1.04762 0
M  V30 10887 H 1020.34 -1.47687 -3.6743 0
M  V30 10888 H 1021.51 -3.9883 -2.30805 0
M  V30 10889 H 1019.82 -3.52218 -2.22107 0
M  V30 10890 H 1022.42 -2.41292 -4.77161 0
M  V30 10891 H 1022.76 -0.848195 -4.07568 0
M  V30 10892 H 1023.3 -2.32165 -3.23024 0
M  V30 10893 H 1020.04 -5.23173 -3.9493 0
M  V30 10894 H 1019.56 -3.70198 -4.71925 0
M  V30 10895 H 1021.24 -4.28168 -4.85058 0
M  V30 10896 N 1021.37 1.14642 -1.08144 0
M  V30 10897 C 1022.6 1.89209 -0.82966 0
M  V30 10898 C 1023.01 1.78697 0.621604 0
M  V30 10899 O 1022.35 1.14224 1.4387 0
M  V30 10900 C 1022.41 3.39958 -1.16915 0
M  V30 10901 C 1022.07 3.74254 -2.62264 0
M  V30 10902 C 1023.07 3.746 -3.60514 0
M  V30 10903 C 1020.76 4.04316 -2.9805 0
M  V30 10904 C 1022.75 4.04527 -4.92582 0
M  V30 10905 C 1020.44 4.33906 -4.30312 0
M  V30 10906 C 1021.44 4.33995 -5.27388 0
M  V30 10907 O 1021.12 4.62869 -6.57273 0
M  V30 10908 H 1020.86 0.606259 -0.299042 0
M  V30 10909 H 1023.41 1.46132 -1.44342 0
M  V30 10910 H 1021.64 3.83475 -0.498377 0
M  V30 10911 H 1023.33 3.95828 -0.89862 0
M  V30 10912 H 1024.09 3.51466 -3.34211 0
M  V30 10913 H 1019.97 4.03402 -2.23132 0
M  V30 10914 H 1023.52 4.04511 -5.68346 0
M  V30 10915 H 1019.41 4.5651 -4.56365 0
M  V30 10916 H 1020.18 4.80598 -6.62546 0
M  V30 10917 N 1022.85 0.866709 1.31628 0
M  V30 10918 C 1023.81 0.325041 2.26883 0
M  V30 10919 C 1024.81 -0.522133 1.52087 0
M  V30 10920 O 1026 -0.331908 1.71009 0
M  V30 10921 C 1023.13 -0.538756 3.36616 0
M  V30 10922 H 1024.32 1.16592 2.76308 0
M  V30 10923 H 1021.88 0.642029 1.42505 0
M  V30 10924 H 1022.61 -1.40096 2.92478 0
M  V30 10925 H 1022.4 0.0678115 3.92041 0
M  V30 10926 H 1023.89 -0.910123 4.07562 0
M  V30 10927 N 1024.32 -1.44642 0.625825 0
M  V30 10928 C 1025.73 -1.85502 0.211175 0
M  V30 10929 C 1026.09 -1.52356 -1.2362 0
M  V30 10930 O 1025.21 -0.959051 -1.93988 0
M  V30 10931 C 1025.81 -3.36702 0.37648 0
M  V30 10932 C 1024.36 -3.76396 0.0163795 0
M  V30 10933 C 1023.51 -2.68517 0.692368 0
M  V30 10934 H 1026.46 -1.35183 0.831333 0
M  V30 10935 H 1026.48 -3.78536 -0.386106 0
M  V30 10936 H 1026 -3.60795 1.42999 0
M  V30 10937 H 1024.1 -3.57919 -1.0356 0
M  V30 10938 H 1024.21 -4.77231 0.422742 0
M  V30 10939 H 1022.57 -2.54377 0.128191 0
M  V30 10940 H 1023.36 -2.95444 1.74837 0
M  V30 10941 N 1025.8 -0.366053 -1.5329 0
M  V30 10942 C 1027.03 0.226839 -2.06156 0
M  V30 10943 C 1027.45 1.41637 -1.23776 0
M  V30 10944 O 1026.81 1.7947 -0.256948 0
M  V30 10945 C 1026.86 0.597956 -3.55608 0
M  V30 10946 O 1025.96 1.69512 -3.75951 0
M  V30 10947 H 1025.3 0.0329156 -0.663184 0
M  V30 10948 H 1027.83 -0.526793 -1.97702 0
M  V30 10949 H 1027.84 0.868831 -3.98642 0
M  V30 10950 H 1026.52 -0.271838 -4.15011 0
M  V30 10951 H 1025.09 1.41976 -3.44815 0
M  V30 10952 N 1027.28 1.57312 -0.0952337 0
M  V30 10953 C 1028.5 1.99119 0.580206 0
M  V30 10954 C 1028.93 0.973955 1.60922 0
M  V30 10955 O 1028.29 -0.0575338 1.81209 0
M  V30 10956 C 1028.34 3.39893 1.20438 0
M  V30 10957 O 1027.44 3.40941 2.32019 0
M  V30 10958 H 1026.78 0.64748 0.147195 0
M  V30 10959 H 1029.31 2.03836 -0.176686 0
M  V30 10960 H 1029.32 3.7759 1.54564 0
M  V30 10961 H 1028 4.13453 0.450514 0
M  V30 10962 H 1026.57 3.1504 1.9951 0
M  V30 10963 N 1028.76 -0.17846 1.56586 0
M  V30 10964 C 1029.71 -1.22552 1.92263 0
M  V30 10965 C 1030.69 -1.40163 0.790131 0
M  V30 10966 O 1031.88 -1.42254 1.05322 0
M  V30 10967 C 1029.01 -2.5666 2.27993 0
M  V30 10968 C 1028.1 -2.42772 3.47739 0
M  V30 10969 N 1028.49 -1.98588 4.65185 0
M  V30 10970 C 1026.79 -2.73619 3.52205 0
M  V30 10971 C 1027.49 -1.96991 5.47329 0
M  V30 10972 N 1026.46 -2.39126 4.8818 0
M  V30 10973 H 1030.27 -0.875493 2.80557 0
M  V30 10974 H 1027.78 -0.386785 1.57727 0
M  V30 10975 H 1029.78 -3.32312 2.51743 0
M  V30 10976 H 1028.44 -2.92472 1.41034 0
M  V30 10977 H 1029.45 -1.69036 4.89538 0
M  V30 10978 H 1026.13 -3.13516 2.75706 0
M  V30 10979 H 1027.52 -1.64589 6.51429 0
M  V30 10980 N 1030.24 -1.51135 -0.446768 0
M  V30 10981 C 1031.18 -1.72328 -1.56224 0
M  V30 10982 C 1032.18 -0.589411 -1.58815 0
M  V30 10983 O 1033.38 -0.770554 -1.62673 0
M  V30 10984 H 1029.76 -0.544339 -0.518844 0
M  V30 10985 H 1031.73 -2.65851 -1.3552 0
M  V30 10986 C 1030.48 -1.85686 -2.93966 0
M  V30 10987 H 1029.8 -2.72336 -2.927 0
M  V30 10988 H 1031.24 -2.0453 -3.71407 0
M  V30 10989 C 1029.7 -0.614328 -3.31252 0
M  V30 10990 O 1030.23 0.235369 -4.0101 0
M  V30 10991 N 1028.44 -0.461181 -2.86917 0
M  V30 10992 H 1027.98 -1.15369 -2.30321 0
M  V30 10993 H 1027.94 0.368966 -3.12227 0
M  V30 10994 N 1031.71 0.701592 -1.41122 0
M  V30 10995 C 1032.66 1.81559 -1.42495 0
M  V30 10996 C 1033.63 1.63722 -0.280078 0
M  V30 10997 O 1034.82 1.84658 -0.480231 0
M  V30 10998 C 1031.96 3.19392 -1.30702 0
M  V30 10999 C 1031.07 3.48704 -2.55009 0
M  V30 11000 C 1030.2 4.76118 -2.35554 0
M  V30 11001 C 1029.24 4.98378 -3.55367 0
M  V30 11002 N 1028.38 6.17014 -3.3502 0
M  V30 11003 H 1033.22 1.7972 -2.37707 0
M  V30 11004 H 1030.76 0.877727 -1.18044 0
M  V30 11005 H 1032.71 3.99004 -1.21867 0
M  V30 11006 H 1031.34 3.20423 -0.391012 0
M  V30 11007 H 1030.4 2.63542 -2.74317 0
M  V30 11008 H 1031.71 3.61057 -3.44151 0
M  V30 11009 H 1030.86 5.63774 -2.24152 0
M  V30 11010 H 1029.6 4.66 -1.43859 0
M  V30 11011 H 1028.61 4.09172 -3.6723 0
M  V30 11012 H 1029.83 5.10359 -4.48007 0
M  V30 11013 H 1027.78 6.0812 -2.4602 0
M  V30 11014 H 1027.69 6.30107 -4.17733 0
M  V30 11015 H 1028.96 7.0742 -3.27379 0
M  V30 11016 N 1033.19 1.2685 0.935242 0
M  V30 11017 C 1034.42 1.15371 1.71386 0
M  V30 11018 C 1034.83 -0.293048 1.86917 0
M  V30 11019 O 1034.17 -1.212 1.38044 0
M  V30 11020 C 1034.23 1.75652 3.13666 0
M  V30 11021 C 1033.9 3.24788 3.215 0
M  V30 11022 C 1034.9 4.21525 3.04323 0
M  V30 11023 C 1032.58 3.65359 3.447 0
M  V30 11024 C 1034.57 5.56812 3.10224 0
M  V30 11025 C 1032.26 5.00778 3.50235 0
M  V30 11026 C 1033.26 5.96314 3.33014 0
M  V30 11027 O 1032.95 7.29266 3.38269 0
M  V30 11028 H 1032.68 0.40234 0.54323 0
M  V30 11029 H 1035.23 1.68083 1.18056 0
M  V30 11030 H 1033.46 1.17408 3.68446 0
M  V30 11031 H 1035.15 1.58994 3.73465 0
M  V30 11032 H 1035.92 3.91519 2.86249 0
M  V30 11033 H 1031.8 2.91479 3.57157 0
M  V30 11034 H 1035.34 6.3136 2.967 0
M  V30 11035 H 1031.24 5.30444 3.67831 0
M  V30 11036 H 1032.01 7.37616 3.54774 0
M  V30 11037 N 1034.67 -1.14067 1.0875 0
M  V30 11038 C 1035.63 -2.17453 0.724341 0
M  V30 11039 C 1036.63 -1.58959 -0.242614 0
M  V30 11040 O 1037.82 -1.74186 -0.0217008 0
M  V30 11041 C 1034.96 -3.40828 0.0700236 0
M  V30 11042 H 1036.15 -2.51094 1.63987 0
M  V30 11043 H 1033.7 -1.28775 0.885813 0
M  V30 11044 H 1034.44 -3.1277 -0.857061 0
M  V30 11045 H 1034.22 -3.84551 0.76569 0
M  V30 11046 H 1035.71 -4.17258 -0.168905 0
M  V30 11047 N 1036.15 -0.873678 -1.31166 0
M  V30 11048 C 1037.4 -0.485497 -1.96182 0
M  V30 11049 C 1037.72 0.96621 -1.69379 0
M  V30 11050 O 1036.99 1.67783 -1.01121 0
M  V30 11051 H 1035.57 -0.176547 -0.725838 0
M  V30 11052 H 1038.23 -1.11428 -1.59906 0
M  V30 11053 H 1037.33 -0.646325 -3.05334 0
M  V30 11054 N 1037.63 1.44308 -0.633487 0
M  V30 11055 C 1038.54 2.34492 0.0711787 0
M  V30 11056 C 1039.55 1.52754 0.8332 0
M  V30 11057 O 1040.73 1.85475 0.784929 0
M  V30 11058 C 1037.79 3.30767 1.03895 0
M  V30 11059 C 1036.85 4.28412 0.276043 0
M  V30 11060 C 1036.09 5.20087 1.19772 0
M  V30 11061 O 1036.31 5.15743 2.4365 0
M  V30 11062 O 1035.24 5.98038 0.680764 0
M  V30 11063 H 1039.07 2.96203 -0.67063 0
M  V30 11064 H 1036.66 1.4412 -0.393678 0
M  V30 11065 H 1038.54 3.90021 1.59566 0
M  V30 11066 H 1037.21 2.71586 1.76133 0
M  V30 11067 H 1036.12 3.72696 -0.32377 0
M  V30 11068 H 1037.45 4.9052 -0.406364 0
M  V30 11069 N 1039.1 0.374177 1.53094 0
M  V30 11070 C 1040.33 -0.215903 2.06273 0
M  V30 11071 C 1040.75 -1.40979 1.24526 0
M  V30 11072 O 1040.11 -1.79331 0.266462 0
M  V30 11073 C 1040.16 -0.579089 3.5592 0
M  V30 11074 O 1039.26 -1.67516 3.76845 0
M  V30 11075 H 1038.61 -0.0293981 0.663349 0
M  V30 11076 H 1041.14 0.537271 1.9742 0
M  V30 11077 H 1041.15 -0.847678 3.99097 0
M  V30 11078 H 1039.82 0.293843 4.14861 0
M  V30 11079 H 1038.4 -1.40146 3.45563 0
M  V30 11080 N 1040.58 -1.57259 0.103575 0
M  V30 11081 C 1041.83 -1.94657 -0.558126 0
M  V30 11082 C 1042.16 -0.985886 -1.67662 0
M  V30 11083 O 1041.41 -0.0069745 -1.95699 0
M  V30 11084 C 1041.71 -3.38549 -1.14538 0
M  V30 11085 C 1041.38 -4.50651 -0.149818 0
M  V30 11086 C 1040.04 -4.8104 0.12398 0
M  V30 11087 C 1042.39 -5.18503 0.529497 0
M  V30 11088 C 1039.72 -5.76606 1.08364 0
M  V30 11089 C 1042.07 -6.15099 1.47769 0
M  V30 11090 C 1040.74 -6.43889 1.75963 0
M  V30 11091 H 1040.01 -0.712299 -0.204233 0
M  V30 11092 H 1042.65 -1.90641 0.181208 0
M  V30 11093 H 1040.96 -3.39185 -1.96115 0
M  V30 11094 H 1042.65 -3.6479 -1.66521 0
M  V30 11095 H 1039.24 -4.2697 -0.373404 0
M  V30 11096 H 1043.43 -4.95194 0.331121 0
M  V30 11097 H 1038.68 -5.97223 1.30899 0
M  V30 11098 H 1042.86 -6.66767 2.00983 0
M  V30 11099 H 1040.49 -7.17749 2.50481 0
M  V30 11100 N 1042.06 0.170153 -1.56679 0
M  V30 11101 C 1043.47 0.732502 -1.7173 0
M  V30 11102 C 1043.82 1.82736 -0.71428 0
M  V30 11103 O 1042.95 2.16044 0.124102 0
M  V30 11104 C 1043.54 1.33548 -3.11368 0
M  V30 11105 C 1042.1 1.84464 -3.281 0
M  V30 11106 C 1041.25 0.724069 -2.6768 0
M  V30 11107 H 1044.2 -0.0552543 -1.58604 0
M  V30 11108 H 1044.22 2.20519 -3.10083 0
M  V30 11109 H 1043.73 0.5384 -3.84347 0
M  V30 11110 H 1041.83 2.66813 -2.6008 0
M  V30 11111 H 1041.95 1.98928 -4.35849 0
M  V30 11112 H 1040.31 1.14481 -2.27522 0
M  V30 11113 H 1041.09 -0.0611861 -3.43245 0
M  V30 11114 N 1043.54 1.5137 0.438746 0
M  V30 11115 C 1044.79 1.63645 1.18595 0
M  V30 11116 C 1045.11 0.354241 1.91755 0
M  V30 11117 O 1044.38 -0.629838 1.85499 0
M  V30 11118 H 1042.96 0.603103 0.440767 0
M  V30 11119 H 1045.62 1.88293 0.503159 0
M  V30 11120 H 1044.72 2.46342 1.9163 0
M  V30 11121 N 1045.02 -0.694098 1.41492 0
M  V30 11122 C 1046.27 -1.4498 1.40227 0
M  V30 11123 C 1046.58 -1.95594 0.0151253 0
M  V30 11124 O 1047.78 -2.71234 -0.120146 0
M  V30 11125 C 1046.24 -2.62171 2.46565 0
M  V30 11126 C 1045.85 -2.18337 3.91194 0
M  V30 11127 C 1047.59 -3.39796 2.54439 0
M  V30 11128 C 1045.5 -3.32495 4.89082 0
M  V30 11129 H 1044.43 -0.544584 0.521483 0
M  V30 11130 H 1047.08 -0.75337 1.67322 0
M  V30 11131 H 1045.46 -3.34089 2.12604 0
M  V30 11132 H 1046.64 -1.53698 4.34412 0
M  V30 11133 H 1044.95 -1.53702 3.86994 0
M  V30 11134 H 1047.55 -4.2478 3.24755 0
M  V30 11135 H 1047.89 -3.85082 1.5817 0
M  V30 11136 H 1048.42 -2.74935 2.87499 0
M  V30 11137 H 1045.16 -2.92219 5.86761 0
M  V30 11138 H 1044.68 -3.95978 4.50512 0
M  V30 11139 H 1046.36 -3.98251 5.09907 0
M  V30 11140 N 1046.49 -1.27344 -0.928501 0
M  V30 11141 C 1047.72 -1.16278 -1.70772 0
M  V30 11142 C 1048.13 0.283131 -1.8707 0
M  V30 11143 O 1047.48 1.20466 -1.38685 0
M  V30 11144 C 1047.54 -1.77313 -3.1273 0
M  V30 11145 C 1047.2 -3.26488 -3.19773 0
M  V30 11146 C 1048.2 -4.23133 -3.02083 0
M  V30 11147 C 1045.88 -3.67182 -3.42757 0
M  V30 11148 C 1047.88 -5.5845 -3.07267 0
M  V30 11149 C 1045.56 -5.02629 -3.47574 0
M  V30 11150 C 1046.56 -5.98072 -3.29847 0
M  V30 11151 O 1046.25 -7.3105 -3.34397 0
M  V30 11152 H 1045.98 -0.405215 -0.541089 0
M  V30 11153 H 1048.54 -1.68707 -1.17163 0
M  V30 11154 H 1046.77 -1.19361 -3.67818 0
M  V30 11155 H 1048.46 -1.60972 -3.72616 0
M  V30 11156 H 1049.22 -3.93031 -2.84168 0
M  V30 11157 H 1045.1 -2.93369 -3.55606 0
M  V30 11158 H 1048.64 -6.32924 -2.93348 0
M  V30 11159 H 1044.54 -5.32387 -3.65013 0
M  V30 11160 H 1045.31 -7.39488 -3.50857 0
M  V30 11161 N 1047.97 1.13488 -1.09353 0
M  V30 11162 C 1049.25 1.80998 -0.741559 0
M  V30 11163 C 1049.63 1.96418 0.773505 0
M  V30 11164 O 1048.98 1.53168 1.69563 0
M  V30 11165 C 1049.19 3.16078 -1.47972 0
M  V30 11166 C 1050.54 3.91438 -1.64504 0
M  V30 11167 O 1051.56 3.25699 -1.44218 0
M  V30 11168 O 1050.42 5.0935 -1.98054 0
M  V30 11169 H 1047.51 0.782953 -0.266297 0
M  V30 11170 H 1050.06 1.20422 -1.19569 0
M  V30 11171 H 1048.83 3.00076 -2.51137 0
M  V30 11172 H 1048.45 3.84354 -1.01772 0
M  V30 11173 N 1049.45 0.880621 1.30701 0
M  V30 11174 C 1050.41 0.349087 2.26526 0
M  V30 11175 C 1051.41 -0.505973 1.52632 0
M  V30 11176 O 1052.6 -0.313751 1.71351 0
M  V30 11177 C 1049.74 -0.503023 3.37168 0
M  V30 11178 H 1050.93 1.19516 2.75056 0
M  V30 11179 H 1048.48 0.657107 1.41816 0
M  V30 11180 H 1049.22 -1.36986 2.93948 0
M  V30 11181 H 1049 0.109389 3.91947 0
M  V30 11182 H 1050.49 -0.866845 4.08504 0
M  V30 11183 N 1050.93 -1.4397 0.641131 0
M  V30 11184 C 1051.86 -2.33458 -0.04446 0
M  V30 11185 C 1052.84 -1.48781 -0.824507 0
M  V30 11186 O 1054.03 -1.77477 -0.788397 0
M  V30 11187 C 1051.16 -3.31989 -1.01984 0
M  V30 11188 C 1050.11 -4.2656 -0.350745 0
M  V30 11189 C 1049.44 -5.15036 -1.43673 0
M  V30 11190 C 1050.74 -5.16897 0.749299 0
M  V30 11191 H 1052.43 -2.91034 0.702832 0
M  V30 11192 H 1049.98 -1.39942 0.339435 0
M  V30 11193 H 1051.93 -3.93483 -1.50828 0
M  V30 11194 H 1050.65 -2.72643 -1.79815 0
M  V30 11195 H 1049.31 -3.66413 0.117139 0
M  V30 11196 H 1048.96 -4.52037 -2.20617 0
M  V30 11197 H 1048.66 -5.79125 -0.994358 0
M  V30 11198 H 1050.18 -5.79403 -1.92678 0
M  V30 11199 H 1051.6 -5.7227 0.343534 0
M  V30 11200 H 1049.99 -5.89643 1.11541 0
M  V30 11201 H 1051.06 -4.5731 1.61232 0
M  V30 11202 N 1052.41 -0.382291 -1.52893 0
M  V30 11203 C 1053.65 0.202133 -2.01489 0
M  V30 11204 C 1053.98 1.47399 -1.26901 0
M  V30 11205 O 1053.24 1.92439 -0.355771 0
M  V30 11206 C 1053.54 0.523437 -3.53546 0
M  V30 11207 C 1053.2 -0.656042 -4.46102 0
M  V30 11208 C 1051.86 -0.979633 -4.71123 0
M  V30 11209 C 1054.22 -1.44545 -5.00756 0
M  V30 11210 C 1051.54 -2.0943 -5.48047 0
M  V30 11211 C 1053.9 -2.55066 -5.78899 0
M  V30 11212 C 1052.56 -2.87942 -6.02201 0
M  V30 11213 H 1051.83 0.0739659 -0.737299 0
M  V30 11214 H 1054.48 -0.518196 -1.84356 0
M  V30 11215 H 1052.78 1.325 -3.68715 0
M  V30 11216 H 1054.48 0.988148 -3.88634 0
M  V30 11217 H 1051.07 -0.393818 -4.26787 0
M  V30 11218 H 1055.25 -1.20869 -4.81357 0
M  V30 11219 H 1050.51 -2.3528 -5.64317 0
M  V30 11220 H 1054.68 -3.1664 -6.20252 0
M  V30 11221 H 1052.31 -3.74435 -6.61591 0
M  V30 11222 N 1053.89 1.57202 -0.111913 0
M  V30 11223 C 1055.16 1.86459 0.590972 0
M  V30 11224 C 1055.54 1.01182 1.85271 0
M  V30 11225 O 1054.89 0.0887891 2.28327 0
M  V30 11226 C 1055.1 3.37455 0.890225 0
M  V30 11227 C 1056.45 4.05895 1.24638 0
M  V30 11228 O 1057.47 3.42433 0.980713 0
M  V30 11229 O 1056.33 5.17903 1.74466 0
M  V30 11230 H 1053.43 0.771652 0.297459 0
M  V30 11231 H 1055.97 1.69072 -0.145882 0
M  V30 11232 H 1054.74 3.913 -0.00419012 0
M  V30 11233 H 1054.37 3.60248 1.68248 0
M  V30 11234 N 1055.36 -0.161842 1.56767 0
M  V30 11235 C 1056.61 -0.875278 1.81719 0
M  V30 11236 C 1056.93 -1.82998 0.690739 0
M  V30 11237 O 1058.13 -2.58648 0.82545 0
M  V30 11238 C 1056.59 -1.60703 3.22029 0
M  V30 11239 C 1056.2 -0.695486 4.42569 0
M  V30 11240 C 1057.94 -2.30813 3.56266 0
M  V30 11241 C 1055.85 -1.42801 5.73901 0
M  V30 11242 H 1054.78 -0.330591 0.677662 0
M  V30 11243 H 1057.43 -0.128112 1.83052 0
M  V30 11244 H 1055.81 -2.39929 3.1504 0
M  V30 11245 H 1056.98 0.0604882 4.6076 0
M  V30 11246 H 1055.3 -0.10356 4.16271 0
M  V30 11247 H 1057.9 -2.86229 4.51638 0
M  V30 11248 H 1058.24 -3.06603 2.81604 0
M  V30 11249 H 1058.77 -1.5852 3.64851 0
M  V30 11250 H 1055.51 -0.712253 6.51619 0
M  V30 11251 H 1055.03 -2.15707 5.5967 0
M  V30 11252 H 1056.71 -1.97295 6.16185 0
M  V30 11253 N 1056.84 -1.516 -0.430713 0
M  V30 11254 C 1057.75 -1.76247 -1.54836 0
M  V30 11255 C 1058.77 -0.646985 -1.61524 0
M  V30 11256 O 1059.94 -0.929987 -1.78643 0
M  V30 11257 C 1057.01 -1.88833 -2.90763 0
M  V30 11258 C 1056.07 -3.12701 -2.94137 0
M  V30 11259 C 1055.3 -3.24676 -4.23581 0
M  V30 11260 O 1055.53 -2.42429 -5.16318 0
M  V30 11261 O 1054.46 -4.17697 -4.33374 0
M  V30 11262 H 1058.29 -2.71069 -1.3695 0
M  V30 11263 H 1055.87 -1.36182 -0.614396 0
M  V30 11264 H 1057.75 -1.99057 -3.71422 0
M  V30 11265 H 1056.43 -0.971987 -3.08762 0
M  V30 11266 H 1055.33 -3.0795 -2.1241 0
M  V30 11267 H 1056.67 -4.04045 -2.81084 0
M  V30 11268 N 1058.32 0.686584 -1.41858 0
M  V30 11269 C 1059.54 1.4802 -1.45275 0
M  V30 11270 C 1059.97 1.87997 -0.0621297 0
M  V30 11271 O 1059.33 1.55226 0.936733 0
M  V30 11272 C 1059.38 2.7133 -2.37513 0
M  V30 11273 O 1058.48 3.69159 -1.83836 0
M  V30 11274 H 1057.82 0.445152 -0.492682 0
M  V30 11275 H 1060.35 0.843161 -1.86419 0
M  V30 11276 H 1060.36 3.19537 -2.53693 0
M  V30 11277 H 1059.04 2.41571 -3.3855 0
M  V30 11278 H 1057.61 3.28134 -1.77151 0
M  V30 11279 N 1059.8 1.27835 0.921735 0
M  V30 11280 C 1060.74 1.11075 2.02314 0
M  V30 11281 C 1061.71 0.0101195 1.66097 0
M  V30 11282 O 1062.9 0.173564 1.90009 0
M  V30 11283 C 1060.04 0.770251 3.36394 0
M  V30 11284 C 1059.15 1.94912 3.8553 0
M  V30 11285 C 1058.29 1.54996 5.08084 0
M  V30 11286 C 1057.33 2.69595 5.49531 0
M  V30 11287 N 1056.46 2.30227 6.6328 0
M  V30 11288 H 1061.3 2.05319 2.15982 0
M  V30 11289 H 1058.84 1.022 1.058 0
M  V30 11290 H 1060.8 0.553624 4.1351 0
M  V30 11291 H 1059.43 -0.135238 3.22517 0
M  V30 11292 H 1058.48 2.27811 3.04641 0
M  V30 11293 H 1059.79 2.80858 4.12214 0
M  V30 11294 H 1058.95 1.29493 5.9272 0
M  V30 11295 H 1057.69 0.661676 4.83191 0
M  V30 11296 H 1056.69 2.95806 4.63442 0
M  V30 11297 H 1057.92 3.59054 5.76417 0
M  V30 11298 H 1055.86 1.43858 6.40032 0
M  V30 11299 H 1055.78 3.09711 6.89649 0
M  V30 11300 H 1057.05 2.07987 7.5124 0
M  V30 11301 N 1061.28 -1.12907 1.09954 0
M  V30 11302 C 1062.52 -1.84579 0.840155 0
M  V30 11303 C 1062.85 -1.83605 -0.632692 0
M  V30 11304 O 1062.13 -1.27803 -1.46617 0
M  V30 11305 C 1062.41 -3.32489 1.38286 0
M  V30 11306 C 1062.27 -3.41946 2.92221 0
M  V30 11307 C 1063.58 -4.28091 1.0211 0
M  V30 11308 H 1060.7 -0.670169 0.306663 0
M  V30 11309 H 1063.35 -1.3249 1.36185 0
M  V30 11310 H 1061.5 -3.76978 0.939123 0
M  V30 11311 H 1063.17 -3.06128 3.45085 0
M  V30 11312 H 1061.41 -2.8265 3.29077 0
M  V30 11313 H 1062.08 -4.45983 3.25274 0
M  V30 11314 H 1064.56 -3.91701 1.4039 0
M  V30 11315 H 1063.43 -5.30005 1.42781 0
M  V30 11316 H 1063.69 -4.42044 -0.0700753 0
M  V30 11317 N 1062.75 -0.88754 -1.30232 0
M  V30 11318 C 1064.03 -0.427249 -1.90877 0
M  V30 11319 C 1064.41 1.0922 -1.80649 0
M  V30 11320 O 1063.76 1.92866 -1.22536 0
M  V30 11321 C 1063.97 -0.928219 -3.3643 0
M  V30 11322 C 1065.32 -0.964706 -4.13496 0
M  V30 11323 O 1066.34 -0.875057 -3.45284 0
M  V30 11324 O 1065.2 -1.09754 -5.35366 0
M  V30 11325 H 1062.29 -0.131107 -0.816541 0
M  V30 11326 H 1064.84 -0.976609 -1.38782 0
M  V30 11327 H 1063.61 -1.97209 -3.37971 0
M  V30 11328 H 1063.23 -0.358169 -3.95983 0
M  V30 11329 N 1064.23 1.43628 -0.648757 0
M  V30 11330 C 1065.64 1.85142 -0.24066 0
M  V30 11331 C 1065.99 1.54304 1.21181 0
M  V30 11332 O 1065.12 0.989792 1.92437 0
M  V30 11333 C 1065.71 3.3606 -0.429999 0
M  V30 11334 C 1064.27 3.76323 -0.0762588 0
M  V30 11335 C 1063.42 2.67382 -0.734999 0
M  V30 11336 H 1066.37 1.33844 -0.852734 0
M  V30 11337 H 1066.39 3.79102 0.325836 0
M  V30 11338 H 1065.9 3.58474 -1.48721 0
M  V30 11339 H 1064.01 3.59521 0.978529 0
M  V30 11340 H 1064.12 4.76498 -0.498612 0
M  V30 11341 H 1062.48 2.54141 -0.168644 0
M  V30 11342 H 1063.27 2.92625 -1.79515 0
M  V30 11343 N 1065.71 0.390394 1.52688 0
M  V30 11344 C 1066.94 -0.194013 2.06491 0
M  V30 11345 C 1067.36 -1.3965 1.26014 0
M  V30 11346 O 1066.72 -1.79038 0.285468 0
M  V30 11347 C 1066.77 -0.541306 3.56514 0
M  V30 11348 O 1065.87 -1.63509 3.78601 0
M  V30 11349 H 1065.21 -0.0223608 0.663623 0
M  V30 11350 H 1067.74 0.558179 1.96839 0
M  V30 11351 H 1067.75 -0.805301 3.99974 0
M  V30 11352 H 1066.43 0.337828 4.14526 0
M  V30 11353 H 1065 -1.36473 3.4703 0
M  V30 11354 N 1067.19 -1.57141 0.120249 0
M  V30 11355 C 1068.14 -2.15379 -0.829497 0
M  V30 11356 C 1069.11 -1.07913 -1.2627 0
M  V30 11357 O 1070.29 -1.35827 -1.33999 0
M  V30 11358 C 1067.43 -2.75847 -2.0737 0
M  V30 11359 C 1066.54 -3.97624 -1.68875 0
M  V30 11360 C 1065.68 -4.46175 -2.88272 0
M  V30 11361 C 1064.72 -5.60481 -2.46023 0
M  V30 11362 N 1063.85 -6.0377 -3.58337 0
M  V30 11363 H 1068.69 -2.96211 -0.326031 0
M  V30 11364 H 1066.23 -1.46341 -0.149235 0
M  V30 11365 H 1068.19 -3.09037 -2.80272 0
M  V30 11366 H 1066.82 -1.97703 -2.55174 0
M  V30 11367 H 1065.87 -3.70588 -0.858431 0
M  V30 11368 H 1067.18 -4.80512 -1.33827 0
M  V30 11369 H 1066.34 -4.8128 -3.69397 0
M  V30 11370 H 1065.08 -3.6224 -3.26548 0
M  V30 11371 H 1064.08 -5.24979 -1.63331 0
M  V30 11372 H 1065.31 -6.46184 -2.08863 0
M  V30 11373 H 1063.25 -5.22776 -3.96284 0
M  V30 11374 H 1063.17 -6.81517 -3.27217 0
M  V30 11375 H 1064.44 -6.43514 -4.39898 0
M  V30 11376 N 1068.67 0.153526 -1.5685 0
M  V30 11377 C 1069.63 1.17362 -1.96873 0
M  V30 11378 C 1070.63 1.36219 -0.854456 0
M  V30 11379 O 1071.82 1.33322 -1.1212 0
M  V30 11380 C 1068.95 2.53523 -2.27901 0
M  V30 11381 H 1070.14 0.830432 -2.88173 0
M  V30 11382 H 1067.7 0.396633 -1.51184 0
M  V30 11383 H 1068.43 2.92824 -1.39371 0
M  V30 11384 H 1068.22 2.41198 -3.09137 0
M  V30 11385 H 1069.71 3.27006 -2.59725 0
M  V30 11386 N 1070.14 1.51827 0.422667 0
M  V30 11387 C 1071.39 1.66423 1.1694 0
M  V30 11388 C 1071.75 0.382774 1.88554 0
M  V30 11389 O 1071.04 -0.622166 1.81217 0
M  V30 11390 C 1071.23 2.81572 2.20119 0
M  V30 11391 C 1071.06 4.20791 1.58634 0
M  V30 11392 C 1069.83 4.86517 1.36489 0
M  V30 11393 C 1072.03 5.03372 1.05456 0
M  V30 11394 N 1070.01 6.09809 0.70756 0
M  V30 11395 C 1071.38 6.17787 0.523359 0
M  V30 11396 C 1073.44 4.88797 0.947726 0
M  V30 11397 C 1072.14 7.19225 -0.104199 0
M  V30 11398 C 1074.17 5.90456 0.334042 0
M  V30 11399 C 1073.53 7.04153 -0.186551 0
M  V30 11400 H 1069.63 0.662756 0.415065 0
M  V30 11401 H 1072.21 1.89096 0.463778 0
M  V30 11402 H 1070.38 2.60538 2.88053 0
M  V30 11403 H 1072.11 2.85273 2.87056 0
M  V30 11404 H 1068.87 4.44641 1.63069 0
M  V30 11405 H 1069.29 6.75841 0.395909 0
M  V30 11406 H 1073.94 4.01135 1.33606 0
M  V30 11407 H 1071.65 8.06523 -0.504627 0
M  V30 11408 H 1075.24 5.81249 0.25308 0
M  V30 11409 H 1074.12 7.81469 -0.653943 0
M  V30 11410 N 1071.62 -0.679052 1.4222 0
M  V30 11411 C 1072.87 -1.43627 1.42182 0
M  V30 11412 C 1073.19 -1.94964 0.0377095 0
M  V30 11413 O 1072.46 -1.72788 -0.923098 0
M  V30 11414 H 1071.04 -0.532972 0.523402 0
M  V30 11415 H 1073.7 -0.802649 1.77605 0
M  V30 11416 H 1072.8 -2.29137 2.11902 0
M  V30 11417 N 1073.1 -1.28322 -0.914942 0
M  V30 11418 C 1074.01 -1.13993 -2.05043 0
M  V30 11419 C 1075.03 -0.0667921 -1.73872 0
M  V30 11420 O 1076.2 -0.275845 -1.99502 0
M  V30 11421 C 1073.27 -0.801856 -3.373 0
M  V30 11422 C 1072.33 -1.95723 -3.82088 0
M  V30 11423 C 1071.56 -1.63519 -5.08033 0
M  V30 11424 O 1071.78 -0.54899 -5.67752 0
M  V30 11425 O 1070.72 -2.47844 -5.48504 0
M  V30 11426 H 1074.54 -2.09313 -2.2005 0
M  V30 11427 H 1072.13 -1.0763 -1.03616 0
M  V30 11428 H 1074.01 -0.627214 -4.16706 0
M  V30 11429 H 1072.69 0.121696 -3.23471 0
M  V30 11430 H 1071.59 -2.18702 -3.03514 0
M  V30 11431 H 1072.93 -2.86144 -4.00478 0
M  V30 11432 N 1074.58 1.12322 -1.10551 0
M  V30 11433 C 1075.82 1.8413 -0.849932 0
M  V30 11434 C 1076.16 1.83938 0.622946 0
M  V30 11435 O 1075.43 1.28579 1.45937 0
M  V30 11436 C 1075.72 3.31751 -1.40048 0
M  V30 11437 C 1075.57 3.40391 -2.9403 0
M  V30 11438 C 1076.89 4.27543 -1.04379 0
M  V30 11439 H 1074.01 0.668533 -0.310213 0
M  V30 11440 H 1076.65 1.31766 -1.36886 0
M  V30 11441 H 1074.8 3.76475 -0.959102 0
M  V30 11442 H 1076.47 3.04294 -3.46703 0
M  V30 11443 H 1074.71 2.809 -3.30571 0
M  V30 11444 H 1075.38 4.44252 -3.27635 0
M  V30 11445 H 1077.86 3.90951 -1.42466 0
M  V30 11446 H 1076.74 5.2924 -1.4559 0
M  V30 11447 H 1077 4.42075 0.0466316 0
M  V30 11448 N 1076.06 0.894434 1.2976 0
M  V30 11449 C 1077 0.366586 2.2787 0
M  V30 11450 C 1077.97 -0.548425 1.56785 0
M  V30 11451 O 1079.16 -0.474804 1.84798 0
M  V30 11452 C 1076.3 -0.404531 3.42721 0
M  V30 11453 C 1075.41 0.540774 4.28602 0
M  V30 11454 C 1074.55 -0.246875 5.30626 0
M  V30 11455 C 1073.59 0.693294 6.08161 0
M  V30 11456 N 1072.72 -0.059619 7.02075 0
M  V30 11457 H 1077.56 1.20834 2.72402 0
M  V30 11458 H 1075.1 0.607205 1.33983 0
M  V30 11459 H 1077.06 -0.86762 4.08079 0
M  V30 11460 H 1075.69 -1.21078 2.99232 0
M  V30 11461 H 1074.74 1.12237 3.63465 0
M  V30 11462 H 1076.05 1.26065 4.82606 0
M  V30 11463 H 1075.21 -0.771398 6.01776 0
M  V30 11464 H 1073.94 -0.999918 4.77339 0
M  V30 11465 H 1072.95 1.22936 5.35879 0
M  V30 11466 H 1074.17 1.44558 6.63536 0
M  V30 11467 H 1072.12 -0.795026 6.51165 0
M  V30 11468 H 1072.04 0.60045 7.53612 0
M  V30 11469 H 1073.31 -0.564577 7.77453 0
M  V30 11470 N 1077.53 -1.43282 0.656365 0
M  V30 11471 C 1078.95 -1.56272 0.324213 0
M  V30 11472 C 1079.15 -1.63946 -1.1715 0
M  V30 11473 O 1078.21 -1.59625 -1.95643 0
M  V30 11474 C 1079.52 -2.82204 1.03833 0
M  V30 11475 C 1081.07 -2.95952 1.01889 0
M  V30 11476 C 1081.54 -4.2472 1.71397 0
M  V30 11477 N 1083.03 -4.31591 1.68176 0
M  V30 11478 C 1083.77 -5.30001 2.1883 0
M  V30 11479 N 1083.26 -6.34671 2.77785 0
M  V30 11480 N 1085.06 -5.21676 2.09311 0
M  V30 11481 H 1077.21 -1.36544 1.62694 0
M  V30 11482 H 1079.47 -0.655999 0.684375 0
M  V30 11483 H 1079.18 -2.82608 2.09346 0
M  V30 11484 H 1079.05 -3.72527 0.591878 0
M  V30 11485 H 1081.44 -2.95087 -0.0278431 0
M  V30 11486 H 1081.52 -2.0691 1.50406 0
M  V30 11487 H 1081.16 -4.26346 2.76028 0
M  V30 11488 H 1081.09 -5.12665 1.20342 0
M  V30 11489 H 1083.58 -3.56573 1.25157 0
M  V30 11490 H 1083.9 -7.06087 3.14104 0
M  V30 11491 H 1082.24 -6.35285 2.81847 0
M  V30 11492 H 1085.43 -4.3882 1.62955 0
M  V30 11493 H 1085.61 -5.9821 2.49095 0
M  V30 11494 N 1079.01 -0.398486 -1.52479 0
M  V30 11495 C 1079.95 0.467426 -2.24383 0
M  V30 11496 C 1080.96 1.01908 -1.26959 0
M  V30 11497 O 1082.15 0.919843 -1.52974 0
M  V30 11498 C 1079.25 1.66146 -2.95379 0
M  V30 11499 C 1078.42 1.23557 -4.19586 0
M  V30 11500 C 1077.48 2.29532 -4.73499 0
M  V30 11501 O 1076.51 1.90561 -5.36354 0
M  V30 11502 N 1077.71 3.61564 -4.5415 0
M  V30 11503 H 1080.47 -0.148653 -2.99331 0
M  V30 11504 H 1078.03 -0.225313 -1.60325 0
M  V30 11505 H 1080.03 2.36585 -3.28344 0
M  V30 11506 H 1078.6 2.18369 -2.23682 0
M  V30 11507 H 1077.82 0.359715 -3.92555 0
M  V30 11508 H 1079.1 0.927812 -5.00269 0
M  V30 11509 H 1078.5 3.95983 -4.03998 0
M  V30 11510 H 1077.06 4.2801 -4.9158 0
M  V30 11511 N 1080.49 1.57075 -0.12858 0
M  V30 11512 C 1081.74 1.94695 0.526952 0
M  V30 11513 C 1082.05 1.01482 1.67215 0
M  V30 11514 O 1083.26 1.28606 2.39108 0
M  V30 11515 C 1081.72 3.4605 0.988801 0
M  V30 11516 C 1081.32 4.47816 -0.128457 0
M  V30 11517 C 1083.07 3.92572 1.61517 0
M  V30 11518 C 1080.97 5.9036 0.350628 0
M  V30 11519 H 1079.9 0.726819 0.200623 0
M  V30 11520 H 1082.56 1.82295 -0.209972 0
M  V30 11521 H 1080.94 3.53718 1.78043 0
M  V30 11522 H 1082.11 4.51826 -0.904976 0
M  V30 11523 H 1080.43 4.11103 -0.662075 0
M  V30 11524 H 1083.02 4.96493 1.98491 0
M  V30 11525 H 1083.37 3.33085 2.49721 0
M  V30 11526 H 1083.9 3.87744 0.888768 0
M  V30 11527 H 1080.64 6.53624 -0.495592 0
M  V30 11528 H 1080.16 5.89749 1.09342 0
M  V30 11529 H 1081.84 6.41926 0.808717 0
M  V30 11530 N 1081.97 -0.145205 1.5693 0
M  V30 11531 C 1083.2 -0.871133 1.87336 0
M  V30 11532 C 1083.61 -1.7517 0.714992 0
M  V30 11533 O 1082.95 -1.80815 -0.324304 0
M  V30 11534 C 1083.01 -1.77775 3.12468 0
M  V30 11535 C 1082.68 -1.07416 4.44197 0
M  V30 11536 C 1083.67 -0.42722 5.18142 0
M  V30 11537 C 1081.36 -1.06313 4.9092 0
M  V30 11538 C 1083.35 0.221348 6.37016 0
M  V30 11539 C 1081.04 -0.410755 6.09718 0
M  V30 11540 C 1082.04 0.230357 6.82611 0
M  V30 11541 O 1081.73 0.872389 7.99152 0
M  V30 11542 H 1081.46 -0.257174 0.62517 0
M  V30 11543 H 1084.01 -0.142159 2.04907 0
M  V30 11544 H 1082.24 -2.54771 2.9091 0
M  V30 11545 H 1083.93 -2.37579 3.29107 0
M  V30 11546 H 1084.7 -0.427536 4.83112 0
M  V30 11547 H 1080.58 -1.55156 4.34105 0
M  V30 11548 H 1084.12 0.722349 6.9385 0
M  V30 11549 H 1080.02 -0.408112 6.44209 0
M  V30 11550 H 1080.78 0.774236 8.1483 0
M  V30 11551 N 1083.45 -1.52049 -0.414609 0
M  V30 11552 C 1084.69 -1.66084 -1.16379 0
M  V30 11553 C 1085.03 -0.386932 -1.90306 0
M  V30 11554 O 1084.3 0.614441 -1.8454 0
M  V30 11555 C 1084.58 -2.87927 -2.16264 0
M  V30 11556 C 1084.44 -4.25353 -1.46269 0
M  V30 11557 C 1085.76 -3.05289 -3.16996 0
M  V30 11558 H 1082.88 -0.604414 -0.421726 0
M  V30 11559 H 1085.52 -1.8459 -0.450177 0
M  V30 11560 H 1083.67 -2.7228 -2.77121 0
M  V30 11561 H 1085.34 -4.52717 -0.885743 0
M  V30 11562 H 1083.58 -4.27006 -0.76472 0
M  V30 11563 H 1084.25 -5.06644 -2.19126 0
M  V30 11564 H 1086.73 -3.19798 -2.66212 0
M  V30 11565 H 1085.61 -3.92065 -3.84156 0
M  V30 11566 H 1085.87 -2.1836 -3.84411 0
M  V30 11567 N 1084.93 0.6715 -1.42579 0
M  V30 11568 C 1085.89 1.76676 -1.46008 0
M  V30 11569 C 1086.89 1.57007 -0.347213 0
M  V30 11570 O 1088.08 1.63238 -0.608185 0
M  V30 11571 C 1085.21 3.15348 -1.29494 0
M  V30 11572 H 1086.4 1.75021 -2.43531 0
M  V30 11573 H 1083.96 0.881444 -1.29075 0
M  V30 11574 H 1084.69 3.22626 -0.32906 0
M  V30 11575 H 1084.48 3.31028 -2.10149 0
M  V30 11576 H 1085.97 3.95251 -1.34784 0
M  V30 11577 N 1086.4 1.28806 0.908124 0
M  V30 11578 C 1087.37 1.13228 1.99279 0
M  V30 11579 C 1088.37 0.0702456 1.60646 0
M  V30 11580 O 1089.56 0.316494 1.71301 0
M  V30 11581 C 1086.69 0.729629 3.33 0
M  V30 11582 H 1087.88 2.09566 2.14528 0
M  V30 11583 H 1085.43 1.11872 1.09153 0
M  V30 11584 H 1086.17 -0.234268 3.23453 0
M  V30 11585 H 1085.95 1.49688 3.62403 0
M  V30 11586 H 1087.44 0.643449 4.12613 0
M  V30 11587 N 1087.88 -1.11734 1.11145 0
M  V30 11588 C 1089.13 -1.83405 0.858413 0
M  V30 11589 C 1089.46 -1.84488 -0.615975 0
M  V30 11590 O 1088.71 -1.29123 -1.47057 0
M  V30 11591 C 1089.01 -3.3046 1.36129 0
M  V30 11592 C 1088.68 -3.4954 2.84837 0
M  V30 11593 C 1087.34 -3.54456 3.25445 0
M  V30 11594 C 1089.69 -3.56048 3.8063 0
M  V30 11595 C 1087.02 -3.63431 4.60581 0
M  V30 11596 C 1089.37 -3.66554 5.15579 0
M  V30 11597 C 1088.03 -3.69728 5.55749 0
M  V30 11598 H 1087.3 -0.671128 0.314115 0
M  V30 11599 H 1089.95 -1.31795 1.38933 0
M  V30 11600 H 1088.26 -3.84544 0.750547 0
M  V30 11601 H 1089.95 -3.84398 1.14188 0
M  V30 11602 H 1086.54 -3.46382 2.52423 0
M  V30 11603 H 1090.73 -3.51513 3.5036 0
M  V30 11604 H 1085.98 -3.64164 4.91116 0
M  V30 11605 H 1090.16 -3.70532 5.89643 0
M  V30 11606 H 1087.78 -3.76435 6.60455 0
M  V30 11607 N 1089.36 -0.901303 -1.29284 0
M  V30 11608 C 1090.59 -0.543511 -1.99634 0
M  V30 11609 C 1091 0.872154 -1.67448 0
M  V30 11610 O 1090.36 1.57591 -0.920406 0
M  V30 11611 C 1090.41 -0.728148 -3.54091 0
M  V30 11612 O 1090.13 -2.08809 -3.85137 0
M  V30 11613 C 1091.63 -0.375519 -4.41707 0
M  V30 11614 H 1088.85 -0.208405 -0.637815 0
M  V30 11615 H 1091.4 -1.21109 -1.64781 0
M  V30 11616 H 1089.55 -0.107728 -3.8725 0
M  V30 11617 H 1089.97 -2.11863 -4.79807 0
M  V30 11618 H 1091.44 -0.555538 -5.49197 0
M  V30 11619 H 1091.92 0.687532 -4.33785 0
M  V30 11620 H 1092.52 -0.972949 -4.14021 0
M  V30 11621 N 1090.84 1.42931 -0.663954 0
M  V30 11622 C 1092.08 2.01982 -0.182007 0
M  V30 11623 C 1092.42 1.52323 1.20463 0
M  V30 11624 O 1091.69 0.720834 1.80649 0
M  V30 11625 C 1091.97 3.59518 -0.204671 0
M  V30 11626 C 1091.83 4.19382 -1.62599 0
M  V30 11627 C 1093.15 4.37762 0.45308 0
M  V30 11628 H 1090.27 0.733892 -0.0676115 0
M  V30 11629 H 1092.91 1.70092 -0.84668 0
M  V30 11630 H 1091.06 3.86816 0.361295 0
M  V30 11631 H 1092.73 4.03076 -2.24337 0
M  V30 11632 H 1090.97 3.75623 -2.17001 0
M  V30 11633 H 1091.64 5.28496 -1.59362 0
M  V30 11634 H 1094.12 4.1609 -0.0285774 0
M  V30 11635 H 1093 5.47392 0.406538 0
M  V30 11636 H 1093.26 4.1482 1.52895 0
M  V30 11637 N 1092.32 0.406567 1.52266 0
M  V30 11638 C 1093.25 -0.45552 2.24628 0
M  V30 11639 C 1094.26 -1.01234 1.27497 0
M  V30 11640 O 1095.45 -0.911718 1.5346 0
M  V30 11641 C 1092.55 -1.64578 2.96256 0
M  V30 11642 C 1091.72 -1.2133 4.20235 0
M  V30 11643 C 1090.78 -2.27018 4.7471 0
M  V30 11644 O 1089.81 -1.87714 5.37357 0
M  V30 11645 N 1091.01 -3.5915 4.56061 0
M  V30 11646 H 1093.77 0.164525 2.99248 0
M  V30 11647 H 1091.34 0.233812 1.60203 0
M  V30 11648 H 1093.33 -2.3484 3.29594 0
M  V30 11649 H 1091.9 -2.1718 2.24837 0
M  V30 11650 H 1091.12 -0.338892 3.92741 0
M  V30 11651 H 1092.41 -0.901268 5.00754 0
M  V30 11652 H 1091.8 -3.93834 4.06092 0
M  V30 11653 H 1090.36 -4.25397 4.93843 0
M  V30 11654 N 1093.79 -1.57004 0.136909 0
M  V30 11655 C 1094.76 -2.15066 -0.792419 0
M  V30 11656 C 1095.76 -1.08991 -1.18226 0
M  V30 11657 O 1096.95 -1.34681 -1.10484 0
M  V30 11658 C 1094.08 -2.70554 -2.07397 0
M  V30 11659 H 1095.27 -2.98519 -0.28752 0
M  V30 11660 H 1092.83 -1.55895 -0.112469 0
M  V30 11661 H 1093.56 -1.90739 -2.62277 0
M  V30 11662 H 1093.35 -3.48149 -1.80374 0
M  V30 11663 H 1094.84 -3.15322 -2.73792 0
M  V30 11664 N 1095.27 0.136881 -1.57004 0
M  V30 11665 C 1096.24 1.15267 -1.98106 0
M  V30 11666 C 1097.24 1.35305 -0.868856 0
M  V30 11667 O 1098.43 1.32126 -1.13527 0
M  V30 11668 C 1095.56 2.51092 -2.30577 0
M  V30 11669 H 1096.75 0.799821 -2.89038 0
M  V30 11670 H 1094.3 0.380576 -1.51596 0
M  V30 11671 H 1095.04 2.9133 -1.42469 0
M  V30 11672 H 1094.82 2.37906 -3.11678 0
M  V30 11673 H 1096.31 3.24232 -2.63179 0
M  V30 11674 N 1096.75 1.52266 0.40654 0
M  V30 11675 C 1097.71 1.75168 1.47814 0
M  V30 11676 C 1098.71 0.621575 1.48301 0
M  V30 11677 O 1099.9 0.889476 1.4978 0
M  V30 11678 C 1097.04 1.83642 2.87208 0
M  V30 11679 H 1098.23 2.70834 1.28798 0
M  V30 11680 H 1095.78 1.42722 0.637196 0
M  V30 11681 H 1096.52 0.898994 3.1159 0
M  V30 11682 H 1096.3 2.65801 2.88257 0
M  V30 11683 H 1097.79 2.03093 3.64888 0
M  V30 11684 N 1098.23 -0.663929 1.42933 0
M  V30 11685 C 1099.14 -1.80643 1.49683 0
M  V30 11686 C 1100.15 -1.69694 0.38472 0
M  V30 11687 O 1101.33 -1.91052 0.637256 0
M  V30 11688 C 1098.4 -3.16858 1.4072 0
M  V30 11689 C 1097.46 -3.39684 2.62514 0
M  V30 11690 C 1096.69 -4.69399 2.53969 0
M  V30 11691 O 1096.91 -5.48037 1.58152 0
M  V30 11692 O 1095.85 -4.93709 3.44289 0
M  V30 11693 H 1099.67 -1.77903 2.46138 0
M  V30 11694 H 1097.26 -0.821059 1.24816 0
M  V30 11695 H 1099.14 -3.9812 1.38124 0
M  V30 11696 H 1097.81 -3.20211 0.473954 0
M  V30 11697 H 1096.72 -2.58227 2.70684 0
M  V30 11698 H 1098.05 -3.41169 3.54774 0
M  V30 11699 N 1099.71 -1.29285 -0.901281 0
M  V30 11700 C 1100.93 -1.20048 -1.68511 0
M  V30 11701 C 1101.35 0.239128 -1.8728 0
M  V30 11702 O 1100.71 1.16027 -1.40869 0
M  V30 11703 C 1100.76 -1.90798 -3.07048 0
M  V30 11704 O 1100.48 -3.29137 -2.89138 0
M  V30 11705 C 1101.98 -1.88017 -4.01453 0
M  V30 11706 H 1099.2 -0.416157 -0.52636 0
M  V30 11707 H 1101.74 -1.7063 -1.12719 0
M  V30 11708 H 1099.9 -1.44055 -3.5962 0
M  V30 11709 H 1100.31 -3.64747 -3.76908 0
M  V30 11710 H 1101.79 -2.42088 -4.96082 0
M  V30 11711 H 1102.26 -0.855341 -4.30791 0
M  V30 11712 H 1102.87 -2.34497 -3.54812 0
M  V30 11713 N 1101.18 1.11143 -1.11736 0
M  V30 11714 C 1102.11 2.19339 -0.800795 0
M  V30 11715 C 1103.1 1.68508 0.23221 0
M  V30 11716 O 1104.28 1.93967 0.0950063 0
M  V30 11717 C 1101.41 3.46424 -0.246579 0
M  V30 11718 C 1100.36 4.10487 -1.21181 0
M  V30 11719 C 1099.69 5.32183 -0.518158 0
M  V30 11720 C 1100.99 4.55052 -2.56368 0
M  V30 11721 H 1102.68 2.46077 -1.70548 0
M  V30 11722 H 1100.23 1.18271 -0.821454 0
M  V30 11723 H 1102.18 4.21398 -0.0128889 0
M  V30 11724 H 1100.91 3.19154 0.693415 0
M  V30 11725 H 1099.57 3.3751 -1.43118 0
M  V30 11726 H 1099.21 5.01187 0.426742 0
M  V30 11727 H 1098.91 5.75997 -1.16196 0
M  V30 11728 H 1100.44 6.09895 -0.293333 0
M  V30 11729 H 1101.85 5.21335 -2.38501 0
M  V30 11730 H 1100.25 5.0969 -3.16758 0
M  V30 11731 H 1101.32 3.68343 -3.1536 0
M  V30 11732 N 1102.66 0.908147 1.28804 0
M  V30 11733 C 1103.89 0.553431 1.9988 0
M  V30 11734 C 1104.31 -0.856714 1.67458 0
M  V30 11735 O 1103.67 -1.57163 0.903849 0
M  V30 11736 C 1103.72 0.762688 3.52442 0
M  V30 11737 O 1102.82 -0.180924 4.12003 0
M  V30 11738 H 1102.16 0.215237 0.628147 0
M  V30 11739 H 1104.69 1.22205 1.64095 0
M  V30 11740 H 1104.7 0.670612 4.02451 0
M  V30 11741 H 1103.38 1.79071 3.75375 0
M  V30 11742 H 1101.96 -0.0405897 3.72878 0
M  V30 11743 N 1104.14 -1.42577 0.671525 0
M  V30 11744 C 1105.05 -2.34598 -0.00898225 0
M  V30 11745 C 1106.07 -1.54909 -0.792407 0
M  V30 11746 O 1107.24 -1.87491 -0.735477 0
M  V30 11747 C 1104.31 -3.33405 -0.950888 0
M  V30 11748 C 1103.37 -4.28993 -0.16236 0
M  V30 11749 C 1102.6 -5.2308 -1.0594 0
M  V30 11750 O 1102.82 -5.22022 -2.2989 0
M  V30 11751 O 1101.76 -5.99632 -0.521966 0
M  V30 11752 H 1105.58 -2.94321 0.748927 0
M  V30 11753 H 1103.17 -1.43025 0.43175 0
M  V30 11754 H 1105.05 -3.94115 -1.49169 0
M  V30 11755 H 1103.73 -2.7616 -1.68871 0
M  V30 11756 H 1102.63 -3.71707 0.42247 0
M  V30 11757 H 1103.97 -4.8927 0.536274 0
M  V30 11758 N 1105.62 -0.414636 -1.52048 0
M  V30 11759 C 1106.86 0.159585 -2.02171 0
M  V30 11760 C 1107.2 1.44321 -1.29943 0
M  V30 11761 O 1106.47 1.90185 -0.407402 0
M  V30 11762 C 1106.76 0.401655 -3.57853 0
M  V30 11763 C 1106.61 -0.899026 -4.40724 0
M  V30 11764 C 1107.93 1.1814 -4.23947 0
M  V30 11765 H 1105.05 0.0565257 -0.734829 0
M  V30 11766 H 1107.69 -0.549183 -1.8189 0
M  V30 11767 H 1105.84 1.00541 -3.75265 0
M  V30 11768 H 1107.51 -1.53502 -4.35011 0
M  V30 11769 H 1105.75 -1.50877 -4.06717 0
M  V30 11770 H 1106.42 -0.683974 -5.47746 0
M  V30 11771 H 1108.9 0.670203 -4.10667 0
M  V30 11772 H 1107.78 1.31953 -5.32804 0
M  V30 11773 H 1108.04 2.2035 -3.83273 0
M  V30 11774 N 1107.1 1.56929 -0.145233 0
M  V30 11775 C 1108.06 2.15483 0.781002 0
M  V30 11776 C 1109.06 1.09617 1.17647 0
M  V30 11777 O 1110.25 1.35265 1.09768 0
M  V30 11778 C 1107.38 2.7165 2.05959 0
M  V30 11779 H 1108.57 2.98667 0.271685 0
M  V30 11780 H 1106.13 1.55952 0.1042 0
M  V30 11781 H 1106.86 1.92127 2.61262 0
M  V30 11782 H 1106.65 3.491 1.78526 0
M  V30 11783 H 1108.14 3.16769 2.72116 0
M  V30 11784 O 1108.61 0.00658954 1.61499 0
M  V30 11785 H 1109.3 -0.609168 1.83872 0
M  V30 END ATOM
M  V30 BEGIN BOND
M  V30 END BOND
M  V30 END CTAB
M  END
$$$$
