drugbank_target|P59796 Glutathione peroxidase 6 (DB00143; DB03310)
 OpenBabel12092120083D

  0  0  0     0  0            999 V3000
M  V30 BEGIN CTAB
M  V30 COUNTS 3489 3539 0 0 0
M  V30 BEGIN ATOM
M  V30 1 H -0.908 1.98254 -0.117106 0
M  V30 2 N 0 1.576 0 0
M  V30 3 C 0.933 2.03868 1.02534 0
M  V30 4 C 1.911 0.928543 1.3348 0
M  V30 5 O 3.095 1.19667 1.45644 0
M  V30 6 C 0.222 2.43627 2.35294 0
M  V30 7 C -0.732 3.65373 2.2001 0
M  V30 8 S 0.101 5.13292 1.52614 0
M  V30 9 C 1.257 5.56322 2.86805 0
M  V30 10 H 1.49 2.90518 0.631377 0
M  V30 11 H -0.977 1.52953 0.210867 0
M  V30 12 H 0.981 2.67203 3.11629 0
M  V30 13 H -0.358 1.57376 2.7183 0
M  V30 14 H -1.165 3.90944 3.18086 0
M  V30 15 H -1.563 3.418 1.51819 0
M  V30 16 H 0.729 5.58782 3.83104 0
M  V30 17 H 1.672 6.56266 2.65933 0
M  V30 18 H 2.08 4.83886 2.90714 0
M  V30 19 N 1.4781 -0.272755 1.55222 0
M  V30 20 C 2.7251 -1.00433 1.7584 0
M  V30 21 C 3.0531 -1.86275 0.559629 0
M  V30 22 O 2.3081 -1.90269 -0.457857 0
M  V30 23 C 2.6071 -1.91642 3.01675 0
M  V30 24 C 2.2731 -1.21548 4.34208 0
M  V30 25 C 0.9351 -1.02166 4.70229 0
M  V30 26 C 3.2871 -0.716684 5.16249 0
M  V30 27 C 0.6151 -0.316334 5.85847 0
M  V30 28 C 2.9671 -0.0249476 6.32595 0
M  V30 29 C 1.6311 0.180579 6.67256 0
M  V30 30 H 0.9011 -0.367509 0.643443 0
M  V30 31 H 3.5481 -0.276596 1.89492 0
M  V30 32 H 1.8531 -2.71037 2.82924 0
M  V30 33 H 3.5501 -2.48369 3.14824 0
M  V30 34 H 0.1401 -1.37645 4.05896 0
M  V30 35 H 4.3241 -0.854047 4.88896 0
M  V30 36 H -0.4199 -0.146378 6.11225 0
M  V30 37 H 3.7541 0.369311 6.9542 0
M  V30 38 H 1.3811 0.729098 7.56696 0
M  V30 39 N 2.9562 -1.48159 -0.537278 0
M  V30 40 C 3.8882 -1.58218 -1.65831 0
M  V30 41 C 4.9012 -0.466948 -1.5596 0
M  V30 42 O 6.0902 -0.73747 -1.62553 0
M  V30 43 C 3.1902 -1.48906 -3.04434 0
M  V30 44 C 2.3632 -2.75343 -3.3986 0
M  V30 45 C 1.4222 -2.59588 -4.57712 0
M  V30 46 O 0.4482 -3.33457 -4.61297 0
M  V30 47 N 1.6502 -1.68724 -5.55439 0
M  V30 48 H 4.4152 -2.54891 -1.57641 0
M  V30 49 H 1.9762 -1.4479 -0.724386 0
M  V30 50 H 3.9682 -1.36072 -3.81139 0
M  V30 51 H 2.5382 -0.602368 -3.06741 0
M  V30 52 H 1.7582 -3.02795 -2.52406 0
M  V30 53 H 3.0462 -3.5924 -3.60311 0
M  V30 54 H 2.4442 -1.07898 -5.55315 0
M  V30 55 H 1.0012 -1.61832 -6.3139 0
M  V30 56 N 4.4343 0.785586 -1.36625 0
M  V30 57 C 5.3663 1.90711 -1.2713 0
M  V30 58 C 6.3793 1.61688 -0.189986 0
M  V30 59 O 7.5683 1.72864 -0.445014 0
M  V30 60 C 4.6683 3.25611 -0.939713 0
M  V30 61 C 3.8413 3.82385 -2.12369 0
M  V30 62 C 2.9003 4.95732 -1.76456 0
M  V30 63 O 1.9263 5.12047 -2.48589 0
M  V30 64 N 3.1283 5.76258 -0.700492 0
M  V30 65 H 5.8933 1.99376 -2.23762 0
M  V30 66 H 3.4543 0.964041 -1.30069 0
M  V30 67 H 5.4463 3.98937 -0.680554 0
M  V30 68 H 4.0163 3.12538 -0.0624074 0
M  V30 69 H 3.2363 3.01001 -2.54543 0
M  V30 70 H 4.5243 4.17047 -2.9146 0
M  V30 71 H 3.9223 5.65609 -0.101624 0
M  V30 72 H 2.4793 6.4987 -0.501165 0
M  V30 73 N 5.9124 1.20967 1.01018 0
M  V30 74 C 7.1594 1.02374 1.74716 0
M  V30 75 C 7.4874 -0.443375 1.89379 0
M  V30 76 O 6.7424 -1.34535 1.42123 0
M  V30 77 C 7.0414 1.65997 3.16512 0
M  V30 78 C 6.7074 3.15831 3.2181 0
M  V30 79 C 5.3694 3.56719 3.22963 0
M  V30 80 C 7.7214 4.11816 3.19464 0
M  V30 81 C 5.0494 4.92107 3.19449 0
M  V30 82 C 7.4014 5.47158 3.17491 0
M  V30 83 C 6.0654 5.87451 3.16951 0
M  V30 84 H 5.3354 0.374614 0.639332 0
M  V30 85 H 7.9824 1.50485 1.18434 0
M  V30 86 H 6.2874 1.10166 3.75993 0
M  V30 87 H 7.9844 1.49119 3.72242 0
M  V30 88 H 4.5744 2.83263 3.21652 0
M  V30 89 H 8.7584 3.81257 3.17737 0
M  V30 90 H 4.0144 5.22579 3.17366 0
M  V30 91 H 8.1884 6.21274 3.14629 0
M  V30 92 H 5.8154 6.92329 3.13983 0
M  V30 93 N 7.3905 -1.2043 1.01659 0
M  V30 94 C 8.3225 -2.22626 0.544988 0
M  V30 95 C 9.3355 -1.58479 -0.372609 0
M  V30 96 O 10.5245 -1.77679 -0.170958 0
M  V30 97 C 7.6245 -3.38141 -0.22663 0
M  V30 98 C 6.7975 -4.31877 0.692876 0
M  V30 99 C 5.8565 -5.26191 -0.0311616 0
M  V30 100 O 4.8825 -5.6612 0.591343 0
M  V30 101 N 6.0845 -5.65618 -1.30601 0
M  V30 102 H 8.8495 -2.63716 1.42388 0
M  V30 103 H 6.4105 -1.34971 0.894116 0
M  V30 104 H 8.4025 -3.98239 -0.72024 0
M  V30 105 H 6.9725 -2.95943 -1.00681 0
M  V30 106 H 6.1925 -3.69746 1.36679 0
M  V30 107 H 7.4805 -4.91426 1.31824 0
M  V30 108 H 6.8785 -5.3519 -1.83269 0
M  V30 109 H 5.4355 -6.28025 -1.74435 0
M  V30 110 N 8.8686 -0.792821 -1.36206 0
M  V30 111 C 9.8316 -0.199459 -2.2833 0
M  V30 112 C 10.8316 0.605189 -1.48977 0
M  V30 113 O 12.0216 0.425685 -1.68919 0
M  V30 114 C 9.1536 0.723523 -3.33134 0
M  V30 115 H 10.3466 -1.01181 -2.82316 0
M  V30 116 H 7.8996 -0.562485 -1.45828 0
M  V30 117 H 8.6346 1.56008 -2.84309 0
M  V30 118 H 8.4196 0.148436 -3.91819 0
M  V30 119 H 9.9096 1.13344 -4.01924 0
M  V30 120 N 10.3467 1.47872 -0.545128 0
M  V30 121 C 11.5717 2.07391 -0.0190611 0
M  V30 122 C 11.9967 1.39688 1.25971 0
M  V30 123 O 11.3547 0.467816 1.7516 0
M  V30 124 C 11.4027 3.60188 0.172335 0
M  V30 125 O 10.5067 3.9339 1.23766 0
M  V30 126 H 9.8477 0.662411 -0.0459059 0
M  V30 127 H 12.3777 1.90066 -0.757365 0
M  V30 128 H 12.3877 4.06129 0.390305 0
M  V30 129 H 11.0627 4.08865 -0.761725 0
M  V30 130 H 9.6397 3.5921 1.00114 0
M  V30 131 N 11.8248 0.280983 1.55075 0
M  V30 132 C 13.0648 -0.335234 2.01632 0
M  V30 133 C 13.4288 -1.5261 1.16508 0
M  V30 134 O 14.6298 -2.21235 1.52672 0
M  V30 135 C 12.9008 -0.702172 3.50434 0
M  V30 136 S 14.4598 -1.30409 4.18974 0
M  V30 137 H 11.2778 -0.103967 0.703358 0
M  V30 138 H 13.8798 0.404187 1.91276 0
M  V30 139 H 12.5838 0.17333 4.10034 0
M  V30 140 H 12.1148 -1.4729 3.64786 0
M  V30 141 H 14.1298 -2.59253 4.23087 0
M  V30 142 N 13.3029 -1.57598 0.00835791 0
M  V30 143 C 14.2329 -2.1198 -0.979113 0
M  V30 144 C 15.2139 -1.03091 -1.35301 0
M  V30 145 O 16.3989 -1.30818 -1.43528 0
M  V30 146 C 13.5289 -2.62995 -2.26828 0
M  V30 147 C 12.4829 -3.76485 -2.03576 0
M  V30 148 C 11.8089 -4.13846 -3.38579 0
M  V30 149 C 13.1089 -5.0342 -1.39161 0
M  V30 150 H 14.8029 -2.94738 -0.526281 0
M  V30 151 H 12.3489 -1.41783 -0.251704 0
M  V30 152 H 14.3019 -2.99669 -2.96271 0
M  V30 153 H 13.0259 -1.7737 -2.7424 0
M  V30 154 H 11.6849 -3.40217 -1.36557 0
M  V30 155 H 11.3329 -3.25232 -3.83709 0
M  V30 156 H 11.0329 -4.90312 -3.23834 0
M  V30 157 H 12.5569 -4.53086 -4.09323 0
M  V30 158 H 13.9709 -5.37812 -1.98573 0
M  V30 159 H 12.3679 -5.84746 -1.34878 0
M  V30 160 H 13.4379 -4.83548 -0.361868 0
M  V30 161 N 14.781 0.264519 -1.55364 0
M  V30 162 C 16.027 0.99646 -1.76631 0
M  V30 163 C 16.36 1.85632 -0.570478 0
M  V30 164 O 15.635 1.89647 0.43175 0
M  V30 165 C 15.918 1.87187 -3.07625 0
M  V30 166 C 15.771 1.04138 -4.37579 0
M  V30 167 C 17.09 2.85749 -3.34717 0
M  V30 168 H 14.209 0.360841 -0.642622 0
M  V30 169 H 16.851 0.268218 -1.88097 0
M  V30 170 H 15.001 2.49279 -2.9798 0
M  V30 171 H 16.673 0.440517 -4.59192 0
M  V30 172 H 14.916 0.345115 -4.32425 0
M  V30 173 H 15.587 1.68729 -5.2558 0
M  V30 174 H 18.063 2.33793 -3.4421 0
M  V30 175 H 16.939 3.44136 -4.27623 0
M  V30 176 H 17.2 3.61311 -2.54768 0
M  V30 177 N 16.2591 1.48442 0.529413 0
M  V30 178 C 17.1891 1.65902 1.64313 0
M  V30 179 C 18.1701 0.507897 1.6234 0
M  V30 180 O 19.3551 0.740503 1.79528 0
M  V30 181 C 16.4851 1.69911 3.02898 0
M  V30 182 C 15.4391 2.8453 3.19729 0
M  V30 183 C 14.7651 2.73629 4.59381 0
M  V30 184 C 16.0651 4.25821 3.02447 0
M  V30 185 H 17.7591 2.5914 1.49955 0
M  V30 186 H 15.3051 1.24709 0.719982 0
M  V30 187 H 17.2581 1.80715 3.80684 0
M  V30 188 H 15.9821 0.732524 3.18279 0
M  V30 189 H 14.6411 2.73283 2.44361 0
M  V30 190 H 14.2891 1.74938 4.71599 0
M  V30 191 H 13.9891 3.50541 4.71588 0
M  V30 192 H 15.5131 2.86401 5.39265 0
M  V30 193 H 16.9271 4.37898 3.70024 0
M  V30 194 H 15.3241 5.03735 3.26146 0
M  V30 195 H 16.3941 4.42244 1.98867 0
M  V30 196 N 17.7372 -0.778329 1.37039 0
M  V30 197 C 18.9842 -1.53665 1.31884 0
M  V30 198 C 19.3122 -1.9425 -0.0986303 0
M  V30 199 O 18.5672 -1.63832 -1.07041 0
M  V30 200 C 18.8662 -2.81845 2.19768 0
M  V30 201 C 18.5322 -2.60345 3.68146 0
M  V30 202 C 17.1942 -2.5419 4.08584 0
M  V30 203 C 19.5462 -2.40923 4.62175 0
M  V30 204 C 16.8742 -2.26594 5.41177 0
M  V30 205 C 19.2262 -2.14852 5.94997 0
M  V30 206 C 17.8902 -2.07137 6.34547 0
M  V30 207 H 17.1602 -0.562299 0.482598 0
M  V30 208 H 19.8072 -0.897069 1.69189 0
M  V30 209 H 18.1122 -3.50328 1.75436 0
M  V30 210 H 19.8092 -3.39692 2.13097 0
M  V30 211 H 16.3992 -2.65996 3.36072 0
M  V30 212 H 20.5832 -2.44673 4.31797 0
M  V30 213 H 15.8392 -2.19111 5.70789 0
M  V30 214 H 20.0132 -1.98822 6.67415 0
M  V30 215 H 17.6402 -1.85518 7.37216 0
M  V30 216 N 19.2153 -1.21501 -1.00376 0
M  V30 217 C 20.4623 -1.03299 -1.74171 0
M  V30 218 C 20.7903 0.433326 -1.89612 0
M  V30 219 O 20.0453 1.33779 -1.42834 0
M  V30 220 C 20.3443 -1.67673 -3.15627 0
M  V30 221 C 20.0103 -3.17533 -3.2013 0
M  V30 222 C 18.6723 -3.58427 -3.21067 0
M  V30 223 C 21.0243 -4.13504 -3.17275 0
M  V30 224 C 18.3523 -4.93794 -3.16835 0
M  V30 225 C 20.7043 -5.48834 -3.14585 0
M  V30 226 C 19.3683 -5.89123 -3.13831 0
M  V30 227 H 18.6383 -0.377999 -0.637336 0
M  V30 228 H 21.2853 -1.51111 -1.17634 0
M  V30 229 H 19.5903 -1.12158 -3.75404 0
M  V30 230 H 21.2873 -1.51091 -3.71446 0
M  V30 231 H 17.8773 -2.84965 -3.20145 0
M  V30 232 H 22.0613 -3.82936 -3.15711 0
M  V30 233 H 17.3173 -5.24255 -3.1459 0
M  V30 234 H 21.4913 -6.22934 -3.1133 0
M  V30 235 H 19.1183 -6.93984 -3.10307 0
M  V30 236 N 20.6934 1.19889 -1.02296 0
M  V30 237 C 21.6234 2.25141 -0.619174 0
M  V30 238 C 22.6044 1.66051 0.368915 0
M  V30 239 O 23.7894 1.92546 0.252941 0
M  V30 240 C 20.9194 3.4728 0.0368783 0
M  V30 241 C 19.8734 4.19005 -0.872865 0
M  V30 242 C 19.1994 5.34637 -0.0822402 0
M  V30 243 C 20.4994 4.74452 -2.18387 0
M  V30 244 H 22.1934 2.59171 -1.49903 0
M  V30 245 H 19.7394 1.24579 -0.722222 0
M  V30 246 H 21.6924 4.20098 0.330958 0
M  V30 247 H 20.4164 3.12433 0.95149 0
M  V30 248 H 19.0754 3.48061 -1.15105 0
M  V30 249 H 18.7234 4.96034 0.83422 0
M  V30 250 H 18.4234 5.83557 -0.688149 0
M  V30 251 H 19.9474 6.10255 0.205238 0
M  V30 252 H 21.3614 5.39055 -1.95172 0
M  V30 253 H 19.7584 5.33834 -2.74119 0
M  V30 254 H 20.8284 3.92844 -2.84257 0
M  V30 255 N 22.1715 0.800033 1.35784 0
M  V30 256 C 23.4175 0.377901 1.99248 0
M  V30 257 C 23.7505 -1.05052 1.63333 0
M  V30 258 O 23.0255 -1.72768 0.893385 0
M  V30 259 C 23.3085 0.553922 3.55814 0
M  V30 260 C 23.1615 2.0268 4.01548 0
M  V30 261 C 24.4805 -0.0244802 4.40093 0
M  V30 262 H 21.5995 0.138782 0.723815 0
M  V30 263 H 24.2415 1.00835 1.61035 0
M  V30 264 H 22.3915 0.0172398 3.88496 0
M  V30 265 H 24.0635 2.62536 3.79305 0
M  V30 266 H 22.3065 2.5256 3.52698 0
M  V30 267 H 22.9775 2.10087 5.10458 0
M  V30 268 H 25.4535 0.433775 4.13833 0
M  V30 269 H 24.3295 0.128637 5.48749 0
M  V30 270 H 24.5905 -1.11758 4.27741 0
M  V30 271 N 23.6496 -1.47581 0.552962 0
M  V30 272 C 24.8976 -2.02082 0.0272703 0
M  V30 273 C 25.2186 -1.4301 -1.32563 0
M  V30 274 O 24.4886 -0.603745 -1.86365 0
M  V30 275 H 23.0686 -0.746966 0.00709182 0
M  V30 276 H 25.7306 -1.81033 0.722008 0
M  V30 277 H 24.8266 -3.12034 -0.0639951 0
M  V30 278 N 25.1277 -0.289203 -1.54924 0
M  V30 279 C 26.3747 0.323519 -1.99899 0
M  V30 280 C 26.7027 1.54797 -1.17762 0
M  V30 281 O 25.9577 1.94237 -0.238835 0
M  V30 282 C 26.2567 0.736119 -3.49737 0
M  V30 283 C 25.9227 -0.385276 -4.49251 0
M  V30 284 C 24.5847 -0.693156 -4.76181 0
M  V30 285 C 26.9367 -1.14021 -5.08575 0
M  V30 286 C 24.2647 -1.7593 -5.59701 0
M  V30 287 C 26.6167 -2.19619 -5.93254 0
M  V30 288 C 25.2807 -2.51026 -6.185 0
M  V30 289 H 24.5507 0.118384 -0.731482 0
M  V30 290 H 27.1977 -0.405847 -1.8715 0
M  V30 291 H 25.5027 1.54539 -3.60035 0
M  V30 292 H 27.1997 1.22118 -3.81953 0
M  V30 293 H 23.7897 -0.135202 -4.28387 0
M  V30 294 H 27.9737 -0.915611 -4.87781 0
M  V30 295 H 23.2297 -2.0075 -5.77503 0
M  V30 296 H 27.4037 -2.78581 -6.38252 0
M  V30 297 H 25.0307 -3.33772 -6.83008 0
M  V30 298 N 26.6058 1.57591 -0.0167156 0
M  V30 299 C 27.5688 2.08393 0.954204 0
M  V30 300 C 28.5688 0.996531 1.26198 0
M  V30 301 O 29.7588 1.25858 1.20438 0
M  V30 302 C 26.8908 2.5394 2.27436 0
M  V30 303 H 28.0838 2.95455 0.514451 0
M  V30 304 H 25.6368 1.54582 0.231089 0
M  V30 305 H 26.3718 1.70171 2.76066 0
M  V30 306 H 26.1568 3.33371 2.06412 0
M  V30 307 H 27.6468 2.93512 2.97053 0
M  V30 308 N 28.0839 -0.256276 1.55502 0
M  V30 309 C 29.0159 -1.33981 1.85962 0
M  V30 310 C 30.0289 -1.44743 0.745212 0
M  V30 311 O 31.2179 -1.4626 1.02324 0
M  V30 312 C 28.3179 -2.7194 2.02242 0
M  V30 313 C 27.4909 -2.83562 3.33033 0
M  V30 314 C 26.5499 -4.02304 3.39172 0
M  V30 315 O 25.5759 -3.92273 4.12444 0
M  V30 316 N 26.7779 -5.15045 2.67784 0
M  V30 317 H 29.5429 -1.08191 2.7949 0
M  V30 318 H 27.1039 -0.446388 1.55624 0
M  V30 319 H 29.0959 -3.49697 2.03701 0
M  V30 320 H 27.6659 -2.90479 1.15502 0
M  V30 321 H 26.8859 -1.92555 3.43971 0
M  V30 322 H 28.1739 -2.88271 4.19258 0
M  V30 323 H 27.5719 -5.26085 2.07968 0
M  V30 324 H 26.1289 -5.90972 2.74947 0
M  V30 325 N 29.562 -1.4872 -0.521534 0
M  V30 326 C 30.494 -1.59968 -1.64143 0
M  V30 327 C 31.507 -0.483463 -1.55456 0
M  V30 328 O 32.696 -0.75467 -1.61762 0
M  V30 329 C 29.796 -1.52127 -3.02838 0
M  V30 330 C 28.969 -2.78932 -3.36921 0
M  V30 331 C 28.028 -2.64428 -4.54933 0
M  V30 332 O 27.054 -3.38331 -4.57735 0
M  V30 333 N 28.256 -1.74606 -5.53618 0
M  V30 334 H 31.021 -2.56548 -1.54929 0
M  V30 335 H 28.582 -1.45551 -0.708988 0
M  V30 336 H 30.574 -1.40106 -3.79674 0
M  V30 337 H 29.144 -0.634868 -3.06085 0
M  V30 338 H 28.364 -3.05455 -2.4918 0
M  V30 339 H 29.652 -3.63041 -3.56481 0
M  V30 340 H 29.05 -1.13782 -5.54139 0
M  V30 341 H 27.607 -1.6852 -6.29638 0
M  V30 342 N 31.0401 0.771051 -1.3745 0
M  V30 343 C 32.2681 1.56015 -1.35893 0
M  V30 344 C 32.6831 1.88718 0.0555523 0
M  V30 345 O 32.0401 1.51502 1.01752 0
M  V30 346 C 32.0911 2.87001 -2.19801 0
M  V30 347 O 31.8121 2.557 -3.55738 0
M  V30 348 C 33.3131 3.81228 -2.26231 0
M  V30 349 H 30.5331 0.483317 -0.465453 0
M  V30 350 H 33.0771 0.955611 -1.80799 0
M  V30 351 H 31.2321 3.43877 -1.78402 0
M  V30 352 H 31.6461 3.39584 -3.99729 0
M  V30 353 H 33.1201 4.70139 -2.89263 0
M  V30 354 H 33.5971 4.20409 -1.27093 0
M  V30 355 H 34.2031 3.30281 -2.67945 0
M  V30 356 N 32.5182 1.22032 0.997298 0
M  V30 357 C 33.4482 1.01065 2.10495 0
M  V30 358 C 34.4292 -0.0669542 1.69968 0
M  V30 359 O 35.6142 0.0943987 1.9397 0
M  V30 360 C 32.7442 0.582874 3.42374 0
M  V30 361 C 31.6982 1.60592 3.96729 0
M  V30 362 C 31.0242 1.03412 5.24605 0
M  V30 363 C 32.3242 2.99478 4.27914 0
M  V30 364 H 34.0182 1.93708 2.28292 0
M  V30 365 H 31.5642 0.932761 1.09707 0
M  V30 366 H 33.5172 0.423332 4.19268 0
M  V30 367 H 32.2412 -0.379213 3.24391 0
M  V30 368 H 30.9002 1.75316 3.21963 0
M  V30 369 H 30.5482 0.063518 5.0296 0
M  V30 370 H 30.2482 1.71754 5.61938 0
M  V30 371 H 31.7722 0.886066 6.04137 0
M  V30 372 H 33.1862 2.88153 4.95622 0
M  V30 373 H 31.5832 3.64903 4.76409 0
M  V30 374 H 32.6532 3.49742 3.3587 0
M  V30 375 N 33.9963 -1.19345 1.0293 0
M  V30 376 C 34.9433 -2.2258 0.610464 0
M  V30 377 C 35.9133 -1.6179 -0.375946 0
M  V30 378 O 37.0983 -1.88844 -0.272511 0
M  V30 379 C 34.2383 -3.45085 -0.0321473 0
M  V30 380 C 33.3513 -4.20258 1.00035 0
M  V30 381 C 32.4863 -5.3019 0.32746 0
M  V30 382 C 31.5253 -5.97121 1.34584 0
M  V30 383 N 30.6623 -6.98615 0.698726 0
M  V30 384 H 35.5023 -2.57764 1.49538 0
M  V30 385 H 33.0393 -1.26644 0.748311 0
M  V30 386 H 34.9973 -4.15061 -0.421966 0
M  V30 387 H 33.6273 -3.10555 -0.88064 0
M  V30 388 H 32.6793 -3.49223 1.50823 0
M  V30 389 H 33.9913 -4.66175 1.77433 0
M  V30 390 H 33.1453 -6.06587 -0.11718 0
M  V30 391 H 31.8843 -4.85345 -0.478713 0
M  V30 392 H 30.8893 -5.19474 1.80074 0
M  V30 393 H 32.1143 -6.4405 2.15352 0
M  V30 394 H 30.0603 -6.55942 -0.0873471 0
M  V30 395 H 29.9773 -7.42724 1.41058 0
M  V30 396 H 31.2453 -7.79004 0.278102 0
M  V30 397 N 35.4744 -0.807222 -1.35358 0
M  V30 398 C 36.8854 -0.44876 -1.81226 0
M  V30 399 C 37.2364 1.02929 -1.67033 0
M  V30 400 O 36.3614 1.79991 -1.20133 0
M  V30 401 C 36.9564 -0.807774 -3.2903 0
M  V30 402 C 35.5154 -0.501901 -3.73039 0
M  V30 403 C 34.6624 -1.03304 -2.57339 0
M  V30 404 H 37.6134 -0.998808 -1.23327 0
M  V30 405 H 37.6344 -0.10554 -3.80354 0
M  V30 406 H 37.1464 -1.88357 -3.39328 0
M  V30 407 H 35.2474 0.565128 -3.68289 0
M  V30 408 H 35.3604 -1.03497 -4.67787 0
M  V30 409 H 33.7244 -0.455339 -2.50597 0
M  V30 410 H 34.5074 -2.11496 -2.70415 0
M  V30 411 N 36.9525 1.47285 -0.560781 0
M  V30 412 C 37.8845 2.28118 0.222438 0
M  V30 413 C 38.8975 1.37219 0.876056 0
M  V30 414 O 40.0865 1.62011 0.749307 0
M  V30 415 C 37.1865 3.1159 1.33285 0
M  V30 416 C 36.3595 4.30473 0.77534 0
M  V30 417 C 35.4185 4.95513 1.77069 0
M  V30 418 O 34.4445 5.53792 1.31539 0
M  V30 419 N 35.6465 4.90531 3.10418 0
M  V30 420 H 38.4115 2.95976 -0.470958 0
M  V30 421 H 35.9725 1.56955 -0.39709 0
M  V30 422 H 37.9645 3.51967 1.99752 0
M  V30 423 H 36.5345 2.45951 1.92943 0
M  V30 424 H 35.7545 3.94144 -0.0662113 0
M  V30 425 H 37.0425 5.07362 0.382272 0
M  V30 426 H 36.4405 4.44389 3.5005 0
M  V30 427 H 34.9975 5.34917 3.72434 0
M  V30 428 N 38.4306 0.297415 1.54768 0
M  V30 429 C 39.3786 -0.596051 2.24833 0
M  V30 430 C 40.3726 -1.13992 1.25308 0
M  V30 431 O 41.5786 -1.09098 1.4317 0
M  V30 432 H 37.9536 -0.210814 0.721846 0
M  V30 433 H 39.9246 0.0174667 2.98395 0
M  V30 434 C 38.6736 -1.75818 2.99972 0
M  V30 435 H 37.9966 -1.3489 3.76357 0
M  V30 436 H 39.4366 -2.35949 3.52284 0
M  V30 437 C 37.8956 -2.66014 2.06732 0
M  V30 438 O 38.4256 -3.67009 1.63302 0
M  V30 439 N 36.6316 -2.33669 1.72763 0
M  V30 440 H 36.1786 -1.51586 2.08277 0
M  V30 441 H 36.1366 -2.94285 1.10652 0
M  V30 442 N 39.9087 -1.5758 0.0250728 0
M  V30 443 C 41.3247 -1.56124 -0.331282 0
M  V30 444 C 41.5247 -1.03029 -1.73169 0
M  V30 445 O 40.5807 -0.675215 -2.43305 0
M  V30 446 C 41.8937 -3.00139 -0.183584 0
M  V30 447 C 43.4417 -3.11946 -0.256654 0
M  V30 448 C 43.9167 -4.57793 -0.137792 0
M  V30 449 N 45.4077 -4.6279 -0.194904 0
M  V30 450 C 46.1427 -5.7326 -0.126655 0
M  V30 451 N 45.6387 -6.928 -0.00755288 0
M  V30 452 N 47.4317 -5.61811 -0.180348 0
M  V30 453 H 39.5827 -1.90424 0.94087 0
M  V30 454 H 41.8457 -0.875761 0.362968 0
M  V30 455 H 41.5517 -3.4292 0.780927 0
M  V30 456 H 41.4257 -3.64899 -0.955448 0
M  V30 457 H 43.8127 -2.69079 -1.21162 0
M  V30 458 H 43.8937 -2.49915 0.545517 0
M  V30 459 H 43.5377 -5.01339 0.813739 0
M  V30 460 H 43.4677 -5.17798 -0.958775 0
M  V30 461 H 45.9587 -3.76807 -0.287267 0
M  V30 462 H 46.2717 -7.72791 0.0379428 0
M  V30 463 H 44.6167 -6.94995 0.0271731 0
M  V30 464 H 47.8077 -4.6731 -0.271767 0
M  V30 465 H 47.9807 -6.47882 -0.123697 0
M  V30 466 N 41.3868 0.248026 -1.55636 0
M  V30 467 C 42.3338 1.30707 -1.90222 0
M  V30 468 C 43.3038 1.47881 -0.756332 0
M  V30 469 O 44.4888 1.61883 -1.00988 0
M  V30 470 C 41.6288 2.65769 -2.20138 0
M  V30 471 C 40.7418 2.56612 -3.47526 0
M  V30 472 C 39.8768 3.8402 -3.67017 0
M  V30 473 C 38.9158 3.69476 -4.8801 0
M  V30 474 N 38.0528 4.88774 -5.04029 0
M  V30 475 H 42.8928 1.00512 -2.80538 0
M  V30 476 H 40.4298 0.485055 -1.38873 0
M  V30 477 H 42.3878 3.44386 -2.35487 0
M  V30 478 H 41.0178 2.94115 -1.33027 0
M  V30 479 H 40.0698 1.69571 -3.40514 0
M  V30 480 H 41.3818 2.41774 -4.36287 0
M  V30 481 H 40.5358 4.7108 -3.8232 0
M  V30 482 H 39.2748 4.01754 -2.76487 0
M  V30 483 H 38.2798 2.80799 -4.72686 0
M  V30 484 H 39.5048 3.53238 -5.8 0
M  V30 485 H 37.4508 5.0687 -4.16435 0
M  V30 486 H 37.3678 4.76562 -5.86877 0
M  V30 487 H 38.6358 5.77335 -5.23741 0
M  V30 488 N 42.8649 1.48995 0.513639 0
M  V30 489 C 44.1109 1.58076 1.27042 0
M  V30 490 C 44.4439 0.261026 1.92438 0
M  V30 491 O 43.7189 -0.734393 1.80103 0
M  V30 492 C 44.0019 2.73091 2.34719 0
M  V30 493 C 43.8549 4.14821 1.73907 0
M  V30 494 C 45.1739 2.83796 3.36375 0
M  V30 495 H 42.2929 0.575391 0.460536 0
M  V30 496 H 44.9349 1.81232 0.570516 0
M  V30 497 H 43.0849 2.53479 2.94416 0
M  V30 498 H 44.7569 4.45917 1.18135 0
M  V30 499 H 42.9999 4.21058 1.0437 0
M  V30 500 H 43.6709 4.91147 2.51949 0
M  V30 501 H 46.1469 3.01611 2.86653 0
M  V30 502 H 45.0229 3.65971 4.09093 0
M  V30 503 H 45.2839 1.92624 3.9793 0
M  V30 504 N 44.343 -0.763751 1.37857 0
M  V30 505 C 45.62 -1.51244 1.24035 0
M  V30 506 C 46 -2.10472 -0.162649 0
M  V30 507 O 45.348 -1.96206 -1.17112 0
M  V30 508 C 45.558 -2.58694 2.34261 0
M  V30 509 C 46.906 -3.25878 2.72193 0
M  V30 510 O 47.93 -2.68993 2.33497 0
M  V30 511 O 46.789 -4.2874 3.38887 0
M  V30 512 H 43.883 -0.670243 0.484462 0
M  V30 513 H 46.429 -0.800031 1.49658 0
M  V30 514 H 45.201 -2.13105 3.2818 0
M  V30 515 H 44.824 -3.37527 2.10146 0
M  V30 516 N 45.8211 -1.22559 -0.990812 0
M  V30 517 C 47.0611 -1.06302 -1.74583 0
M  V30 518 C 47.4251 0.394737 -1.87898 0
M  V30 519 O 48.6261 0.678214 -2.60103 0
M  V30 520 C 46.8971 -1.75699 -3.11231 0
M  V30 521 S 48.4561 -1.74882 -4.02445 0
M  V30 522 H 45.2741 -0.380639 -0.600529 0
M  V30 523 H 47.8761 -1.55532 -1.18449 0
M  V30 524 H 46.5801 -2.80923 -2.99183 0
M  V30 525 H 46.1111 -1.26708 -3.72436 0
M  V30 526 H 48.1261 -0.799997 -4.89709 0
M  V30 527 N 47.2992 1.18797 -1.03562 0
M  V30 528 C 48.2472 2.24297 -0.615905 0
M  V30 529 C 49.2412 1.65643 0.354808 0
M  V30 530 O 50.4472 1.78618 0.22265 0
M  V30 531 H 46.8222 0.729909 -0.180934 0
M  V30 532 H 48.7932 2.5701 -1.5162 0
M  V30 533 C 47.5422 3.47698 0.0104735 0
M  V30 534 H 46.8652 3.93125 -0.727509 0
M  V30 535 H 48.3052 4.23159 0.266995 0
M  V30 536 C 46.7642 3.12489 1.25905 0
M  V30 537 O 47.2942 3.25761 2.35038 0
M  V30 538 N 45.5002 2.6686 1.15039 0
M  V30 539 H 45.0472 2.56261 0.262328 0
M  V30 540 H 45.0052 2.43674 1.98672 0
M  V30 541 N 48.7773 0.814389 1.34928 0
M  V30 542 C 49.7243 0.22822 2.29669 0
M  V30 543 C 50.6943 -0.642164 1.53184 0
M  V30 544 O 51.8793 -0.585605 1.81591 0
M  V30 545 C 49.0193 -0.61089 3.3965 0
M  V30 546 C 48.1323 0.280792 4.31086 0
M  V30 547 C 47.2673 -0.567067 5.28165 0
M  V30 548 C 46.3063 0.324531 6.11239 0
M  V30 549 N 45.4433 -0.483756 7.00431 0
M  V30 550 H 50.2833 1.04153 2.79206 0
M  V30 551 H 47.8203 0.525133 1.37407 0
M  V30 552 H 49.7783 -1.11263 4.0209 0
M  V30 553 H 48.4083 -1.38939 2.91369 0
M  V30 554 H 47.4603 0.900688 3.69583 0
M  V30 555 H 48.7723 0.966723 4.89342 0
M  V30 556 H 47.9263 -1.13363 5.96015 0
M  V30 557 H 46.6653 -1.28654 4.70425 0
M  V30 558 H 45.6703 0.903298 5.42329 0
M  V30 559 H 46.8953 1.04198 6.71059 0
M  V30 560 H 44.8413 -1.18706 6.45171 0
M  V30 561 H 44.7583 0.143965 7.55863 0
M  V30 562 H 46.0263 -1.03334 7.7262 0
M  V30 563 N 50.2554 -1.46986 0.568584 0
M  V30 564 C 51.5034 -2.02041 0.0487022 0
M  V30 565 C 51.8244 -1.44408 -1.31039 0
M  V30 566 O 51.0944 -0.623477 -1.85714 0
M  V30 567 H 49.6744 -0.746849 0.015014 0
M  V30 568 H 52.3364 -1.80257 0.741168 0
M  V30 569 H 51.4324 -3.12085 -0.0308961 0
M  V30 570 N 51.7335 -0.305618 -1.54608 0
M  V30 571 C 52.9795 0.302746 -2.00528 0
M  V30 572 C 53.3125 1.53184 -1.19367 0
M  V30 573 O 52.5875 1.92598 -0.271321 0
M  V30 574 C 52.8705 0.654756 -3.54097 0
M  V30 575 C 52.7235 -0.583793 -4.45995 0
M  V30 576 C 54.0425 1.47947 -4.14487 0
M  V30 577 H 51.1615 0.108564 -0.72896 0
M  V30 578 H 53.8035 -0.418634 -1.85331 0
M  V30 579 H 51.9535 1.26935 -3.67178 0
M  V30 580 H 53.6255 -1.22224 -4.44814 0
M  V30 581 H 51.8685 -1.21615 -4.16404 0
M  V30 582 H 52.5395 -0.293287 -5.5122 0
M  V30 583 H 55.0155 0.96013 -4.04871 0
M  V30 584 H 53.8915 1.69454 -5.22088 0
M  V30 585 H 54.1525 2.47011 -3.66658 0
M  V30 586 N 53.2116 1.57565 -0.0334293 0
M  V30 587 C 54.4396 1.9628 0.654347 0
M  V30 588 C 54.8546 0.910138 1.65414 0
M  V30 589 O 54.2116 -0.107595 1.82183 0
M  V30 590 C 54.2626 3.35067 1.35693 0
M  V30 591 O 53.9836 4.36296 0.397191 0
M  V30 592 C 55.4846 3.88439 2.13613 0
M  V30 593 H 52.7046 0.646369 0.180132 0
M  V30 594 H 55.2486 2.04282 -0.0944721 0
M  V30 595 H 53.4036 3.2827 2.05712 0
M  V30 596 H 53.8176 5.1678 0.896597 0
M  V30 597 H 55.2916 4.8788 2.58219 0
M  V30 598 H 55.7686 3.22914 2.97696 0
M  V30 599 H 56.3746 3.98516 1.48543 0
M  V30 600 N 54.6897 -0.239769 1.55765 0
M  V30 601 C 55.9377 -0.964892 1.77579 0
M  V30 602 C 56.2587 -1.85582 0.598699 0
M  V30 603 O 55.5287 -1.92075 -0.385226 0
M  V30 604 H 54.1087 -0.359265 0.654933 0
M  V30 605 H 56.7707 -0.256001 1.93211 0
M  V30 606 H 55.8667 -1.58243 2.69009 0
M  V30 607 N 56.1678 -1.49265 -0.50573 0
M  V30 608 C 57.3958 -1.62215 -1.28429 0
M  V30 609 C 57.8108 -0.291697 -1.86533 0
M  V30 610 O 57.1678 0.722233 -1.67601 0
M  V30 611 C 57.2188 -2.68735 -2.41793 0
M  V30 612 O 56.9398 -3.96619 -1.86078 0
M  V30 613 C 58.4408 -2.92346 -3.3324 0
M  V30 614 H 55.6608 -0.546239 -0.389697 0
M  V30 615 H 58.2048 -1.95265 -0.607609 0
M  V30 616 H 56.3598 -2.38476 -3.053 0
M  V30 617 H 56.7738 -4.55256 -2.60465 0
M  V30 618 H 58.2478 -3.70623 -4.09075 0
M  V30 619 H 58.7248 -2.02081 -3.89948 0
M  V30 620 H 59.3308 -3.24003 -2.75503 0
M  V30 621 N 57.6459 0.756429 -1.3826 0
M  V30 622 C 58.8949 1.51082 -1.3363 0
M  V30 623 C 59.2079 1.95467 0.0720068 0
M  V30 624 O 60.4139 2.7043 0.240834 0
M  V30 625 C 58.8699 2.72893 -2.34644 0
M  V30 626 C 58.4779 2.35544 -3.81081 0
M  V30 627 C 60.2219 3.50791 -2.39052 0
M  V30 628 C 58.1289 3.53948 -4.73787 0
M  V30 629 H 57.0589 0.56727 -0.49671 0
M  V30 630 H 59.7099 0.827147 -1.638 0
M  V30 631 H 58.0919 3.43227 -1.97513 0
M  V30 632 H 59.2659 1.72894 -4.27135 0
M  V30 633 H 57.5809 1.70786 -3.79764 0
M  V30 634 H 60.1779 4.38823 -3.05513 0
M  V30 635 H 60.5209 3.91745 -1.40861 0
M  V30 636 H 61.0539 2.87467 -2.74968 0
M  V30 637 H 57.7929 3.18064 -5.73163 0
M  V30 638 H 57.3129 4.15651 -4.32428 0
M  V30 639 H 58.9919 4.20566 -4.91663 0
M  V30 640 N 59.124 1.23083 0.984299 0
M  V30 641 C 60.354 1.08556 1.75781 0
M  V30 642 C 60.762 -0.366171 1.85623 0
M  V30 643 O 60.105 -1.26524 1.33182 0
M  V30 644 C 60.167 1.63208 3.20318 0
M  V30 645 C 59.831 3.11922 3.33997 0
M  V30 646 C 60.828 4.09259 3.2063 0
M  V30 647 C 58.513 3.51552 3.58771 0
M  V30 648 C 60.507 5.4421 3.31835 0
M  V30 649 C 58.194 4.86649 3.69616 0
M  V30 650 C 59.192 5.82787 3.56157 0
M  V30 651 O 58.88 7.15431 3.66626 0
M  V30 652 H 58.612 0.380713 0.5586 0
M  V30 653 H 61.166 1.63321 1.2456 0
M  V30 654 H 59.396 1.0286 3.72769 0
M  V30 655 H 61.085 1.44216 3.79416 0
M  V30 656 H 61.851 3.79984 3.01392 0
M  V30 657 H 57.73 2.77239 3.6832 0
M  V30 658 H 61.274 6.1923 3.21247 0
M  V30 659 H 57.171 5.15601 3.88363 0
M  V30 660 H 57.939 7.23127 3.83445 0
M  V30 661 N 60.6021 -1.18246 1.0419 0
M  V30 662 C 61.5121 -2.25574 0.644476 0
M  V30 663 C 62.5281 -1.70845 -0.329826 0
M  V30 664 O 63.7041 -2.00554 -0.184443 0
M  V30 665 C 60.7691 -3.46697 0.014877 0
M  V30 666 C 59.8301 -4.16554 1.03834 0
M  V30 667 C 59.0631 -5.31894 0.438692 0
M  V30 668 O 59.2861 -5.65385 -0.754752 0
M  V30 669 O 58.2201 -5.90459 1.168 0
M  V30 670 H 62.0461 -2.61836 1.53869 0
M  V30 671 H 59.6311 -1.25352 0.812854 0
M  V30 672 H 61.5131 -4.20062 -0.335538 0
M  V30 673 H 60.1881 -3.12255 -0.853138 0
M  V30 674 H 59.0951 -3.45251 1.44057 0
M  V30 675 H 60.4281 -4.54998 1.87716 0
M  V30 676 N 62.0802 -0.821533 -1.34494 0
M  V30 677 C 63.3102 -0.421272 -2.02259 0
M  V30 678 C 63.7182 0.977047 -1.6202 0
M  V30 679 O 63.0612 1.64348 -0.820703 0
M  V30 680 C 63.1232 -0.44231 -3.56769 0
M  V30 681 C 62.7872 -1.79372 -4.20327 0
M  V30 682 C 63.7842 -2.75435 -4.40944 0
M  V30 683 C 61.4692 -2.08182 -4.57127 0
M  V30 684 C 63.4632 -3.98482 -4.97484 0
M  V30 685 C 61.1502 -3.31489 -5.13379 0
M  V30 686 C 62.1482 -4.26457 -5.33501 0
M  V30 687 O 61.8362 -5.47585 -5.88562 0
M  V30 688 H 61.5682 -0.167473 -0.654927 0
M  V30 689 H 64.1222 -1.11073 -1.72777 0
M  V30 690 H 62.3522 0.303836 -3.85505 0
M  V30 691 H 64.0412 -0.0622925 -4.05852 0
M  V30 692 H 64.8072 -2.54473 -4.12878 0
M  V30 693 H 60.6862 -1.35066 -4.4077 0
M  V30 694 H 64.2302 -4.72618 -5.13106 0
M  V30 695 H 60.1272 -3.52316 -5.40873 0
M  V30 696 H 60.8952 -5.49086 -6.06998 0
M  V30 697 N 63.5583 1.46682 -0.576371 0
M  V30 698 C 64.8063 2.02013 -0.0594163 0
M  V30 699 C 65.1273 1.45101 1.30271 0
M  V30 700 O 64.3973 0.633317 1.8538 0
M  V30 701 H 62.9773 0.746759 -0.0189745 0
M  V30 702 H 65.6393 1.79862 -0.750717 0
M  V30 703 H 64.7353 3.12097 0.014345 0
M  V30 704 N 65.0364 0.313813 1.54444 0
M  V30 705 C 65.9994 -0.54379 2.22656 0
M  V30 706 C 66.9994 -1.05124 1.21678 0
M  V30 707 O 68.1894 -0.945225 1.46325 0
M  V30 708 C 65.3214 -1.75427 2.92298 0
M  V30 709 H 66.5144 0.0523599 2.99854 0
M  V30 710 H 64.0674 0.0647834 1.56166 0
M  V30 711 H 64.8024 -2.38991 2.19211 0
M  V30 712 H 64.5874 -1.39791 3.66334 0
M  V30 713 H 66.0774 -2.36325 3.44297 0
M  V30 714 N 66.5145 -1.57545 0.0417849 0
M  V30 715 C 67.4445 -2.14009 -0.933929 0
M  V30 716 C 68.4255 -1.05938 -1.33083 0
M  V30 717 O 69.6105 -1.33833 -1.40721 0
M  V30 718 C 66.7405 -2.67747 -2.21199 0
M  V30 719 C 65.6945 -3.80718 -1.95544 0
M  V30 720 C 65.0205 -4.20935 -3.29724 0
M  V30 721 C 66.3205 -5.06258 -1.28452 0
M  V30 722 H 68.0145 -2.95788 -0.463645 0
M  V30 723 H 65.5605 -1.42285 -0.221573 0
M  V30 724 H 67.5135 -3.05886 -2.89848 0
M  V30 725 H 66.2375 -1.83147 -2.70416 0
M  V30 726 H 64.8965 -3.43037 -1.2931 0
M  V30 727 H 64.5445 -3.33298 -3.76724 0
M  V30 728 H 64.2445 -4.9707 -3.13361 0
M  V30 729 H 65.7685 -4.61666 -3.9962 0
M  V30 730 H 67.1825 -5.41903 -1.8712 0
M  V30 731 H 65.5795 -5.87475 -1.22445 0
M  V30 732 H 66.6495 -4.84207 -0.259219 0
M  V30 733 N 67.9926 0.231505 -1.5589 0
M  V30 734 C 69.2206 0.974505 -1.82513 0
M  V30 735 C 69.6356 1.78344 -0.619591 0
M  V30 736 O 68.9926 1.77792 0.411848 0
M  V30 737 C 69.0436 1.90007 -3.07538 0
M  V30 738 O 68.7646 1.12385 -4.2344 0
M  V30 739 C 70.2656 2.75779 -3.47075 0
M  V30 740 H 67.4856 0.286065 -0.606966 0
M  V30 741 H 70.0296 0.249739 -2.02969 0
M  V30 742 H 68.1846 2.57891 -2.89086 0
M  V30 743 H 68.5986 1.75125 -4.944 0
M  V30 744 H 70.0726 3.36443 -4.37619 0
M  V30 745 H 70.5496 3.47672 -2.68367 0
M  V30 746 H 71.1556 2.13323 -3.67931 0
M  V30 747 N 69.4707 1.49531 0.497807 0
M  V30 748 C 70.4007 1.6935 1.60757 0
M  V30 749 C 71.3817 0.542218 1.61227 0
M  V30 750 O 72.5667 0.778417 1.77917 0
M  V30 751 C 69.6967 1.76298 2.99226 0
M  V30 752 C 68.6507 2.91248 3.13622 0
M  V30 753 C 67.9767 2.83312 4.53474 0
M  V30 754 C 69.2767 4.3214 2.93346 0
M  V30 755 H 70.9707 2.62263 1.44425 0
M  V30 756 H 68.5167 1.26208 0.693367 0
M  V30 757 H 70.4697 1.88749 3.76765 0
M  V30 758 H 69.1937 0.799871 3.16654 0
M  V30 759 H 67.8527 2.78404 2.38509 0
M  V30 760 H 67.5007 1.84902 4.67782 0
M  V30 761 H 67.2007 3.60465 4.64046 0
M  V30 762 H 68.7247 2.97775 5.33069 0
M  V30 763 H 70.1387 4.45649 3.60652 0
M  V30 764 H 68.5357 5.1054 3.15387 0
M  V30 765 H 69.6057 4.46363 1.89441 0
M  V30 766 N 70.9488 -0.749086 1.3866 0
M  V30 767 C 71.8968 -1.88428 1.36373 0
M  V30 768 C 72.8908 -1.67561 0.248929 0
M  V30 769 O 74.0968 -1.75074 0.41821 0
M  V30 770 H 70.4718 -0.620023 0.42553 0
M  V30 771 H 72.4428 -1.87473 2.32156 0
M  V30 772 C 71.1918 -3.25961 1.21014 0
M  V30 773 H 70.5148 -3.42607 2.06059 0
M  V30 774 H 71.9548 -4.05625 1.23469 0
M  V30 775 C 70.4138 -3.36799 -0.0825941 0
M  V30 776 O 70.9438 -3.87517 -1.05797 0
M  V30 777 N 69.1498 -2.90258 -0.140939 0
M  V30 778 H 68.6968 -2.49174 0.653477 0
M  V30 779 H 68.6548 -2.97889 -1.00545 0
M  V30 780 N 72.4269 -1.23603 -0.977757 0
M  V30 781 C 73.6749 -1.06759 -1.71601 0
M  V30 782 C 73.9959 0.395929 -1.90938 0
M  V30 783 O 73.2659 1.28356 -1.47992 0
M  V30 784 H 71.8459 -0.392062 -0.635843 0
M  V30 785 H 74.5079 -1.55362 -1.1768 0
M  V30 786 H 73.6039 -1.55763 -2.70452 0
M  V30 787 N 73.905 1.17692 -1.04816 0
M  V30 788 C 74.815 2.25229 -0.65643 0
M  V30 789 C 75.831 1.71018 0.320761 0
M  V30 790 O 77.007 2.00649 0.173805 0
M  V30 791 C 74.072 3.46684 -0.0332629 0
M  V30 792 C 73.133 4.15997 -1.06042 0
M  V30 793 C 72.366 5.31654 -0.466893 0
M  V30 794 O 72.589 5.65777 0.724758 0
M  V30 795 O 71.523 5.89831 -1.1993 0
M  V30 796 H 75.349 2.61016 -1.55255 0
M  V30 797 H 72.934 1.24919 -0.81949 0
M  V30 798 H 74.816 4.20234 0.313256 0
M  V30 799 H 73.491 3.12703 0.836566 0
M  V30 800 H 72.398 3.44482 -1.45886 0
M  V30 801 H 73.731 4.53996 -1.90127 0
M  V30 802 N 75.3831 0.828654 1.34056 0
M  V30 803 C 76.2931 0.256725 2.33191 0
M  V30 804 C 77.3091 -0.611898 1.62886 0
M  V30 805 O 78.4851 -0.51844 1.94613 0
M  V30 806 C 75.5501 -0.567238 3.42028 0
M  V30 807 C 74.6111 0.324458 4.28072 0
M  V30 808 C 73.8441 -0.460274 5.31712 0
M  V30 809 O 74.0671 -1.693 5.44696 0
M  V30 810 O 73.0011 0.160391 6.01686 0
M  V30 811 H 76.8271 1.07739 2.83947 0
M  V30 812 H 74.4121 0.59093 1.37217 0
M  V30 813 H 76.2941 -1.03582 4.08471 0
M  V30 814 H 74.9691 -1.36513 2.93506 0
M  V30 815 H 73.8761 0.840659 3.64532 0
M  V30 816 H 75.2091 1.08685 4.8005 0
M  V30 817 N 76.8612 -1.46375 0.584142 0
M  V30 818 C 78.0912 -2.06461 0.0758195 0
M  V30 819 C 78.4992 -1.43322 -1.23512 0
M  V30 820 O 77.8422 -0.533216 -1.75791 0
M  V30 821 C 77.9042 -3.59131 -0.162773 0
M  V30 822 C 77.5682 -4.4447 1.06279 0
M  V30 823 C 78.5652 -4.80918 1.97519 0
M  V30 824 C 76.2502 -4.85584 1.28504 0
M  V30 825 C 78.2442 -5.57309 3.09331 0
M  V30 826 C 75.9312 -5.61734 2.4062 0
M  V30 827 C 76.9292 -5.9751 3.30863 0
M  V30 828 O 76.6172 -6.72121 4.41032 0
M  V30 829 H 76.3492 -0.673745 0.0551725 0
M  V30 830 H 78.9032 -1.88969 0.804984 0
M  V30 831 H 77.1332 -3.74936 -0.946565 0
M  V30 832 H 78.8222 -4.0114 -0.619782 0
M  V30 833 H 79.5882 -4.49732 1.81565 0
M  V30 834 H 75.4672 -4.57187 0.591702 0
M  V30 835 H 79.0112 -5.85152 3.79793 0
M  V30 836 H 74.9082 -5.92334 2.56537 0
M  V30 837 H 75.6762 -6.90547 4.39417 0
M  V30 838 N 78.3393 -0.321999 -1.54275 0
M  V30 839 C 79.5883 0.281931 -1.9972 0
M  V30 840 C 79.9013 1.53369 -1.21397 0
M  V30 841 O 81.1073 2.21352 -1.57211 0
M  V30 842 C 79.5633 0.5529 -3.55628 0
M  V30 843 C 79.1713 -0.681721 -4.42783 0
M  V30 844 C 80.9153 1.11687 -4.09544 0
M  V30 845 C 78.8223 -0.382742 -5.9016 0
M  V30 846 H 77.7523 0.109124 -0.746062 0
M  V30 847 H 80.4033 -0.43398 -1.78294 0
M  V30 848 H 78.7853 1.32896 -3.73035 0
M  V30 849 H 79.9593 -1.45723 -4.37151 0
M  V30 850 H 78.2743 -1.1658 -3.99748 0
M  V30 851 H 80.8713 1.35515 -5.17242 0
M  V30 852 H 81.2143 2.06575 -3.61431 0
M  V30 853 H 81.7473 0.402032 -3.95763 0
M  V30 854 H 78.4863 -1.30076 -6.42464 0
M  V30 855 H 78.0063 0.355094 -5.98748 0
M  V30 856 H 79.6853 0.00800157 -6.47 0
M  V30 857 N 79.8174 1.5752 -0.0501392 0
M  V30 858 C 80.7494 2.08413 0.95376 0
M  V30 859 C 81.7624 1.01175 1.27544 0
M  V30 860 O 82.9514 1.28744 1.23641 0
M  V30 861 C 80.0514 2.51138 2.27559 0
M  V30 862 C 79.2244 3.817 2.13598 0
M  V30 863 C 78.2834 4.10749 3.28895 0
M  V30 864 O 77.3094 4.80685 3.04845 0
M  V30 865 N 78.5114 3.62579 4.5334 0
M  V30 866 H 81.2764 2.95165 0.519383 0
M  V30 867 H 78.8374 1.61327 0.136127 0
M  V30 868 H 80.8294 2.67648 3.03557 0
M  V30 869 H 79.3994 1.6964 2.62567 0
M  V30 870 H 78.6194 3.74782 1.22197 0
M  V30 871 H 79.9074 4.67201 2.01496 0
M  V30 872 H 79.3054 3.06039 4.75769 0
M  V30 873 H 77.8624 3.84329 5.26436 0
M  V30 874 N 81.2955 -0.223234 1.56011 0
M  V30 875 C 82.5425 -0.947875 1.78946 0
M  V30 876 C 82.8705 -1.844 0.618608 0
M  V30 877 O 82.1255 -1.91629 -0.397093 0
M  V30 878 C 82.4245 -1.81948 3.0762 0
M  V30 879 C 82.0905 -1.07672 4.37856 0
M  V30 880 C 80.7525 -0.871544 4.73242 0
M  V30 881 C 83.1045 -0.552081 5.18268 0
M  V30 882 C 80.4325 -0.129791 5.86556 0
M  V30 883 C 82.7845 0.17632 6.32354 0
M  V30 884 C 81.4485 0.39277 6.66343 0
M  V30 885 H 80.7185 -0.346852 0.654809 0
M  V30 886 H 83.3655 -0.216171 1.90276 0
M  V30 887 H 81.6705 -2.61899 2.91404 0
M  V30 888 H 83.3675 -2.38227 3.22566 0
M  V30 889 H 79.9575 -1.24662 4.1007 0
M  V30 890 H 84.1415 -0.698076 4.91366 0
M  V30 891 H 79.3975 0.048153 6.11381 0
M  V30 892 H 83.5715 0.590367 6.93893 0
M  V30 893 H 81.1985 0.969466 7.53993 0
M  V30 894 N 82.7736 -1.49793 -0.48987 0
M  V30 895 C 83.7206 -1.67281 -1.59014 0
M  V30 896 C 84.6906 -0.514177 -1.57941 0
M  V30 897 O 85.8756 -0.742533 -1.75759 0
M  V30 898 C 83.0156 -1.75569 -2.97102 0
M  V30 899 C 82.1286 -3.0281 -3.08107 0
M  V30 900 C 81.2636 -3.02008 -4.36995 0
M  V30 901 C 80.3026 -4.23782 -4.41673 0
M  V30 902 N 79.4396 -4.20826 -5.62005 0
M  V30 903 H 84.2796 -2.61224 -1.43409 0
M  V30 904 H 81.8166 -1.29508 -0.697565 0
M  V30 905 H 83.7746 -1.78354 -3.77155 0
M  V30 906 H 82.4046 -0.850827 -3.11385 0
M  V30 907 H 81.4566 -3.09584 -2.21047 0
M  V30 908 H 82.7686 -3.92801 -3.07423 0
M  V30 909 H 81.9226 -3.03418 -5.25378 0
M  V30 910 H 80.6616 -2.09815 -4.4026 0
M  V30 911 H 79.6666 -4.22604 -3.5169 0
M  V30 912 H 80.8916 -5.17181 -4.40115 0
M  V30 913 H 78.8376 -3.31476 -5.66091 0
M  V30 914 H 78.7546 -5.04564 -5.62984 0
M  V30 915 H 80.0226 -4.26355 -6.52565 0
M  V30 916 N 84.2517 0.741722 -1.39055 0
M  V30 917 C 85.1837 1.8657 -1.33133 0
M  V30 918 C 86.1967 1.61001 -0.241329 0
M  V30 919 O 87.3857 1.7136 -0.499784 0
M  V30 920 C 84.4857 3.22457 -1.04283 0
M  V30 921 C 83.6587 3.75435 -2.24427 0
M  V30 922 C 82.7177 4.89867 -1.92138 0
M  V30 923 O 81.7437 5.03879 -2.64754 0
M  V30 924 N 82.9457 5.73738 -0.88347 0
M  V30 925 H 85.7107 1.92156 -2.29991 0
M  V30 926 H 83.2717 0.922172 -1.3307 0
M  V30 927 H 85.2637 3.9657 -0.807128 0
M  V30 928 H 83.8337 3.12181 -0.161807 0
M  V30 929 H 83.0537 2.92751 -2.6399 0
M  V30 930 H 84.3417 4.07563 -3.04581 0
M  V30 931 H 83.7397 5.64999 -0.281517 0
M  V30 932 H 82.2967 6.47947 -0.707662 0
M  V30 933 N 85.7298 1.2412 0.971189 0
M  V30 934 C 86.9768 1.07881 1.71371 0
M  V30 935 C 87.3048 -0.382901 1.90694 0
M  V30 936 O 86.5598 -1.29945 1.46331 0
M  V30 937 C 86.8588 1.75983 3.11071 0
M  V30 938 C 86.5248 3.25909 3.11599 0
M  V30 939 C 85.1868 3.66813 3.11451 0
M  V30 940 C 87.5388 4.21771 3.062 0
M  V30 941 C 84.8668 5.02021 3.03631 0
M  V30 942 C 87.2188 5.56982 2.99923 0
M  V30 943 C 85.8828 5.97237 2.98102 0
M  V30 944 H 85.1528 0.394764 0.62709 0
M  V30 945 H 87.7998 1.54176 1.13587 0
M  V30 946 H 86.1048 1.22072 3.72298 0
M  V30 947 H 87.8018 1.60887 3.6731 0
M  V30 948 H 84.3918 2.93353 3.12477 0
M  V30 949 H 88.5758 3.91172 3.05447 0
M  V30 950 H 83.8318 5.32411 3.0058 0
M  V30 951 H 88.0058 6.30969 2.94704 0
M  V30 952 H 85.6328 7.01967 2.91798 0
M  V30 953 N 87.2079 -1.17134 1.05439 0
M  V30 954 C 88.1709 -2.19439 0.661764 0
M  V30 955 C 89.1709 -1.58199 -0.288042 0
M  V30 956 O 90.3609 -1.74053 -0.0715803 0
M  V30 957 C 87.4929 -3.40889 -0.0276209 0
M  V30 958 H 88.6859 -2.55688 1.56728 0
M  V30 959 H 86.2389 -1.31259 0.848567 0
M  V30 960 H 86.9739 -3.10187 -0.94629 0
M  V30 961 H 86.7589 -3.86586 0.655238 0
M  V30 962 H 88.2489 -4.16603 -0.288342 0
M  V30 963 N 88.686 -0.835752 -1.33615 0
M  V30 964 C 89.934 -0.429109 -1.97492 0
M  V30 965 C 90.255 1.01433 -1.66543 0
M  V30 966 O 89.525 1.70611 -0.962744 0
M  V30 967 H 88.105 -0.155686 -0.730596 0
M  V30 968 H 90.767 -1.06802 -1.63031 0
M  V30 969 H 89.863 -0.55861 -3.0706 0
M  V30 970 N 90.1641 1.46063 -0.591896 0
M  V30 971 C 91.1111 2.30399 0.136069 0
M  V30 972 C 92.0811 1.41169 0.875238 0
M  V30 973 O 93.2661 1.70112 0.86409 0
M  V30 974 C 90.4061 3.25804 1.13781 0
M  V30 975 C 89.5191 4.30134 0.401137 0
M  V30 976 C 88.6541 5.12659 1.39121 0
M  V30 977 C 87.6931 6.0873 0.641462 0
M  V30 978 N 86.8301 6.8409 1.58004 0
M  V30 979 H 91.6701 2.92118 -0.589144 0
M  V30 980 H 89.2071 1.43959 -0.302342 0
M  V30 981 H 91.1651 3.79569 1.73156 0
M  V30 982 H 89.7951 2.65872 1.83062 0
M  V30 983 H 88.8471 3.79152 -0.307826 0
M  V30 984 H 90.1591 4.98458 -0.184565 0
M  V30 985 H 89.3131 5.70747 2.05749 0
M  V30 986 H 88.0521 4.44316 2.01084 0
M  V30 987 H 87.0571 5.49786 -0.0385419 0
M  V30 988 H 88.2821 6.79095 0.0270945 0
M  V30 989 H 86.2281 6.18449 2.18761 0
M  V30 990 H 86.1451 7.48709 1.04738 0
M  V30 991 H 87.4131 7.4673 2.23639 0
M  V30 992 N 91.6422 0.330177 1.54103 0
M  V30 993 C 92.5922 -0.548456 2.21305 0
M  V30 994 C 93.5762 -1.07651 1.19583 0
M  V30 995 O 94.7682 -1.01243 1.45186 0
M  V30 996 C 91.8972 -1.70559 2.97934 0
M  V30 997 C 90.9832 -1.19212 4.07 0
M  V30 998 N 91.3742 -0.398831 5.04225 0
M  V30 999 C 89.6722 -1.47024 4.2107 0
M  V30 1000 C 90.3732 -0.121761 5.81573 0
M  V30 1001 N 89.3492 -0.709722 5.38947 0
M  V30 1002 H 93.1512 0.0648483 2.93828 0
M  V30 1003 H 90.6652 0.136363 1.61826 0
M  V30 1004 H 92.6622 -2.34688 3.44568 0
M  V30 1005 H 91.3222 -2.32231 2.26934 0
M  V30 1006 H 92.3332 -0.0410869 5.17884 0
M  V30 1007 H 89.0102 -2.09232 3.61287 0
M  V30 1008 H 90.4002 0.517298 6.69906 0
M  V30 1009 N 93.1203 -1.57491 0.0584922 0
M  V30 1010 C 94.3663 -1.93264 -0.614558 0
M  V30 1011 C 94.6993 -0.937717 -1.7006 0
M  V30 1012 O 93.9743 0.0351652 -1.94468 0
M  V30 1013 C 94.2573 -3.3938 -1.20386 0
M  V30 1014 C 94.1103 -4.49625 -0.125375 0
M  V30 1015 C 95.4293 -3.86039 -2.11334 0
M  V30 1016 H 92.5483 -0.702791 -0.221933 0
M  V30 1017 H 95.1903 -1.8961 0.12175 0
M  V30 1018 H 93.3403 -3.42626 -1.83139 0
M  V30 1019 H 95.0123 -4.58506 0.506971 0
M  V30 1020 H 93.2553 -4.30354 0.545672 0
M  V30 1021 H 93.9263 -5.48967 -0.577861 0
M  V30 1022 H 96.4023 -3.84716 -1.58534 0
M  V30 1023 H 95.2783 -4.88914 -2.49507 0
M  V30 1024 H 95.5393 -3.23215 -3.01636 0
M  V30 1025 N 94.5984 0.214957 -1.56127 0
M  V30 1026 C 95.5284 1.2695 -1.95974 0
M  V30 1027 C 96.5094 1.48539 -0.828868 0
M  V30 1028 O 97.6944 1.60611 -1.09168 0
M  V30 1029 C 94.8244 2.61794 -2.28214 0
M  V30 1030 C 93.7784 2.54851 -3.43853 0
M  V30 1031 C 93.1044 3.93785 -3.61715 0
M  V30 1032 C 94.4044 2.09065 -4.78632 0
M  V30 1033 H 96.0984 0.93846 -2.84312 0
M  V30 1034 H 93.6444 0.449996 -1.36788 0
M  V30 1035 H 95.5974 3.35731 -2.54682 0
M  V30 1036 H 94.3214 2.96599 -1.36736 0
M  V30 1037 H 92.9804 1.8337 -3.17444 0
M  V30 1038 H 92.6284 4.25908 -2.67602 0
M  V30 1039 H 92.3284 3.90019 -4.39498 0
M  V30 1040 H 93.8524 4.69374 -3.90539 0
M  V30 1041 H 95.2664 2.7275 -5.04262 0
M  V30 1042 H 93.6634 2.16346 -5.59745 0
M  V30 1043 H 94.7334 1.04315 -4.73547 0
M  V30 1044 N 96.0765 1.50051 0.48192 0
M  V30 1045 C 97.3235 1.60498 1.23477 0
M  V30 1046 C 97.6515 0.300331 1.92167 0
M  V30 1047 O 96.9065 -0.713094 1.82246 0
M  V30 1048 C 97.2055 2.72717 2.30998 0
M  V30 1049 C 96.8715 4.13572 1.79636 0
M  V30 1050 C 95.5335 4.519 1.65348 0
M  V30 1051 C 97.8855 5.01649 1.41412 0
M  V30 1052 C 95.2135 5.76057 1.11244 0
M  V30 1053 C 97.5655 6.26343 0.887538 0
M  V30 1054 C 96.2295 6.63483 0.731207 0
M  V30 1055 H 95.4995 0.587303 0.451836 0
M  V30 1056 H 98.1465 1.83948 0.532468 0
M  V30 1057 H 96.4515 2.43312 3.07094 0
M  V30 1058 H 98.1485 2.78006 2.88988 0
M  V30 1059 H 94.7385 3.83329 1.91721 0
M  V30 1060 H 98.9225 4.72679 1.51289 0
M  V30 1061 H 94.1785 6.03516 0.978686 0
M  V30 1062 H 98.3525 6.93958 0.582654 0
M  V30 1063 H 95.9795 7.59568 0.309806 0
M  V30 1064 N 97.5546 -0.734337 1.39446 0
M  V30 1065 C 98.8006 -1.49613 1.36908 0
M  V30 1066 C 99.1336 -1.94169 -0.0347829 0
M  V30 1067 O 98.4086 -1.66833 -0.999847 0
M  V30 1068 C 98.6916 -2.73534 2.34203 0
M  V30 1069 C 98.5446 -2.34993 3.83534 0
M  V30 1070 C 99.8636 -3.75635 2.29317 0
M  V30 1071 H 96.9826 -0.542714 0.498629 0
M  V30 1072 H 99.6246 -0.839597 1.70443 0
M  V30 1073 H 97.7746 -3.29553 2.05736 0
M  V30 1074 H 99.4466 -1.84601 4.22753 0
M  V30 1075 H 97.6896 -1.67213 4.00278 0
M  V30 1076 H 98.3606 -3.23738 4.47099 0
M  V30 1077 H 100.837 -3.29203 2.54489 0
M  V30 1078 H 99.7126 -4.60008 2.99472 0
M  V30 1079 H 99.9736 -4.22603 1.29842 0
M  V30 1080 N 99.0327 -1.24633 -0.964593 0
M  V30 1081 C 99.9807 -1.03917 -2.08096 0
M  V30 1082 C 100.975 0.0268581 -1.69379 0
M  V30 1083 O 102.181 -0.127952 -1.79545 0
M  V30 1084 H 98.5557 -0.319044 -0.680966 0
M  V30 1085 H 100.527 -1.98581 -2.22729 0
M  V30 1086 C 99.2757 -0.663983 -3.41301 0
M  V30 1087 H 98.5987 -1.47605 -3.71555 0
M  V30 1088 H 100.039 -0.558663 -4.20303 0
M  V30 1089 C 98.4977 0.629169 -3.30973 0
M  V30 1090 O 99.0277 1.67404 -3.65156 0
M  V30 1091 N 97.2337 0.611057 -2.84103 0
M  V30 1092 H 96.7807 -0.239593 -2.56483 0
M  V30 1093 H 96.7387 1.47647 -2.77575 0
M  V30 1094 N 100.511 1.16574 -1.06058 0
M  V30 1095 C 101.757 1.87324 -0.777022 0
M  V30 1096 C 102.09 1.81351 0.694645 0
M  V30 1097 O 101.365 1.22753 1.50871 0
M  V30 1098 C 101.648 3.36991 -1.26922 0
M  V30 1099 C 101.501 3.51667 -2.80447 0
M  V30 1100 C 102.82 4.3131 -0.87521 0
M  V30 1101 H 99.9388 0.680191 -0.28374 0
M  V30 1102 H 102.581 1.37036 -1.3161 0
M  V30 1103 H 100.731 3.79949 -0.81063 0
M  V30 1104 H 102.403 3.17664 -3.34495 0
M  V30 1105 H 100.646 2.93656 -3.19294 0
M  V30 1106 H 101.317 4.56766 -3.0995 0
M  V30 1107 H 103.793 3.9624 -1.27014 0
M  V30 1108 H 102.669 5.34545 -1.2471 0
M  V30 1109 H 102.93 4.41552 0.220071 0
M  V30 1110 N 101.989 0.842826 1.3317 0
M  V30 1111 C 102.952 0.284065 2.27433 0
M  V30 1112 C 103.952 -0.54948 1.5112 0
M  V30 1113 O 105.142 -0.362699 1.70382 0
M  V30 1114 C 102.274 -0.599384 3.35589 0
M  V30 1115 H 103.467 1.11589 2.78366 0
M  V30 1116 H 101.02 0.616221 1.4364 0
M  V30 1117 H 101.755 -1.45349 2.89904 0
M  V30 1118 H 101.54 -0.00291266 3.921 0
M  V30 1119 H 103.03 -0.983488 4.05854 0
M  V30 1120 N 103.467 -1.45747 0.599634 0
M  V30 1121 C 104.43 -2.28917 -0.113835 0
M  V30 1122 C 105.43 -1.3933 -0.802729 0
M  V30 1123 O 106.62 -1.61534 -0.652103 0
M  V30 1124 C 103.752 -3.20152 -1.17114 0
M  V30 1125 H 104.945 -2.93478 0.617289 0
M  V30 1126 H 102.498 -1.52137 0.358327 0
M  V30 1127 H 103.233 -2.60374 -1.93329 0
M  V30 1128 H 103.018 -3.86133 -0.681468 0
M  V30 1129 H 104.508 -3.82708 -1.67105 0
M  V30 1130 N 104.945 -0.338344 -1.53925 0
M  V30 1131 C 106.175 0.260919 -2.04946 0
M  V30 1132 C 106.583 1.45174 -1.2133 0
M  V30 1133 O 105.926 1.82122 -0.240262 0
M  V30 1134 C 105.988 0.744596 -3.51704 0
M  V30 1135 C 105.652 -0.325883 -4.55837 0
M  V30 1136 C 106.649 -1.16687 -5.06636 0
M  V30 1137 C 104.334 -0.478317 -5.00017 0
M  V30 1138 C 106.328 -2.14588 -6.00192 0
M  V30 1139 C 104.015 -1.46073 -5.93385 0
M  V30 1140 C 105.013 -2.29297 -6.4336 0
M  V30 1141 O 104.701 -3.25867 -7.34892 0
M  V30 1142 H 104.433 0.0551207 -0.673749 0
M  V30 1143 H 106.987 -0.486984 -1.99544 0
M  V30 1144 H 105.217 1.54366 -3.54553 0
M  V30 1145 H 106.906 1.26383 -3.85723 0
M  V30 1146 H 107.672 -1.06016 -4.73271 0
M  V30 1147 H 103.551 0.159613 -4.60724 0
M  V30 1148 H 107.095 -2.79585 -6.39123 0
M  V30 1149 H 102.992 -1.56802 -6.26166 0
M  V30 1150 H 103.76 -3.21278 -7.5281 0
M  V30 1151 N 106.423 1.57458 -0.0668435 0
M  V30 1152 C 107.663 1.95175 0.607116 0
M  V30 1153 C 108.027 0.946039 1.67075 0
M  V30 1154 O 109.228 1.2107 2.39991 0
M  V30 1155 C 107.499 3.37582 1.17358 0
M  V30 1156 Se 109.058 3.97271 1.86336 0
M  V30 1157 H 105.876 0.682604 0.19893 0
M  V30 1158 H 108.478 1.95002 -0.139519 0
M  V30 1159 H 107.182 4.08566 0.387553 0
M  V30 1160 H 106.713 3.41288 1.95669 0
M  V30 1161 H 108.728 3.83772 3.14537 0
M  V30 1162 N 107.901 -0.206675 1.56239 0
M  V30 1163 C 109.149 -0.927007 1.79586 0
M  V30 1164 C 109.47 -1.8427 0.637929 0
M  V30 1165 O 108.74 -1.92849 -0.344398 0
M  V30 1166 H 107.32 -0.345292 0.662407 0
M  V30 1167 H 109.982 -0.21496 1.93711 0
M  V30 1168 H 109.078 -1.52501 2.72305 0
M  V30 1169 N 109.379 -1.50304 -0.473955 0
M  V30 1170 C 110.309 -1.71886 -1.58042 0
M  V30 1171 C 111.29 -0.567799 -1.60344 0
M  V30 1172 O 112.475 -0.806623 -1.76656 0
M  V30 1173 C 109.605 -1.81036 -2.96384 0
M  V30 1174 C 108.559 -2.962 -3.08949 0
M  V30 1175 C 107.885 -2.9049 -4.48909 0
M  V30 1176 C 109.185 -4.36752 -2.86434 0
M  V30 1177 H 110.879 -2.64527 -1.40234 0
M  V30 1178 H 108.425 -1.27295 -0.673201 0
M  V30 1179 H 110.378 -1.94719 -3.73714 0
M  V30 1180 H 109.102 -0.850147 -3.15341 0
M  V30 1181 H 107.761 -2.82164 -2.3405 0
M  V30 1182 H 107.409 -1.92321 -4.64781 0
M  V30 1183 H 107.109 -3.67802 -4.58253 0
M  V30 1184 H 108.633 -3.06218 -5.28264 0
M  V30 1185 H 110.047 -4.5133 -3.53517 0
M  V30 1186 H 108.444 -5.15493 -3.07225 0
M  V30 1187 H 109.514 -4.49321 -1.82316 0
M  V30 1188 N 110.857 0.726932 -1.39834 0
M  V30 1189 C 111.82 1.82269 -1.38962 0
M  V30 1190 C 112.82 1.58248 -0.285334 0
M  V30 1191 O 114.01 1.65499 -0.54366 0
M  V30 1192 C 111.142 3.20186 -1.17019 0
M  V30 1193 H 112.335 1.84443 -2.36476 0
M  V30 1194 H 109.888 0.931416 -1.25516 0
M  V30 1195 H 110.623 3.23669 -0.202204 0
M  V30 1196 H 110.408 3.3902 -1.96998 0
M  V30 1197 H 111.898 4.00235 -1.1917 0
M  V30 1198 N 112.336 1.25143 0.95797 0
M  V30 1199 C 113.299 1.05321 2.03569 0
M  V30 1200 C 114.299 0.007152 1.60798 0
M  V30 1201 O 115.489 0.24903 1.72411 0
M  V30 1202 C 112.621 0.598394 3.35607 0
M  V30 1203 H 113.814 2.00986 2.22586 0
M  V30 1204 H 111.367 1.07502 1.13459 0
M  V30 1205 H 112.102 -0.361014 3.22284 0
M  V30 1206 H 111.887 1.35351 3.67998 0
M  V30 1207 H 113.377 0.48104 4.1482 0
M  V30 1208 N 113.814 -1.1601 1.06675 0
M  V30 1209 C 114.746 -2.20115 0.638921 0
M  V30 1210 C 115.759 -1.59916 -0.305057 0
M  V30 1211 O 116.948 -1.78245 -0.0954446 0
M  V30 1212 C 114.048 -3.38798 -0.0830083 0
M  V30 1213 C 113.221 -4.2855 0.875426 0
M  V30 1214 C 112.28 -5.25849 0.192042 0
M  V30 1215 O 111.306 -5.63102 0.830921 0
M  V30 1216 N 112.508 -5.70648 -1.06493 0
M  V30 1217 H 115.273 -2.57439 1.53444 0
M  V30 1218 H 112.834 -1.31057 0.950557 0
M  V30 1219 H 114.826 -4.00936 -0.550685 0
M  V30 1220 H 113.396 -2.99947 -0.880386 0
M  V30 1221 H 112.616 -3.63617 1.52238 0
M  V30 1222 H 113.904 -4.85393 1.52548 0
M  V30 1223 H 113.302 -5.42482 -1.60405 0
M  V30 1224 H 111.859 -6.34859 -1.47641 0
M  V30 1225 N 115.292 -0.849877 -1.32721 0
M  V30 1226 C 116.522 -0.46408 -2.0132 0
M  V30 1227 C 116.93 0.94246 -1.64056 0
M  V30 1228 O 116.273 1.6257 -0.855379 0
M  V30 1229 C 116.335 -0.517887 -3.5575 0
M  V30 1230 C 115.999 -1.88248 -4.16427 0
M  V30 1231 C 116.996 -2.84726 -4.35002 0
M  V30 1232 C 114.681 -2.17832 -4.52609 0
M  V30 1233 C 116.675 -4.08945 -4.8892 0
M  V30 1234 C 114.362 -3.42304 -5.06232 0
M  V30 1235 C 115.36 -4.37677 -5.24335 0
M  V30 1236 O 115.048 -5.59946 -5.76815 0
M  V30 1237 H 114.78 -0.181327 -0.651227 0
M  V30 1238 H 117.334 -1.14713 -1.70382 0
M  V30 1239 H 115.564 0.221997 -3.86062 0
M  V30 1240 H 117.253 -0.148366 -4.05629 0
M  V30 1241 H 118.019 -2.63174 -4.07388 0
M  V30 1242 H 113.898 -1.44385 -4.37806 0
M  V30 1243 H 117.442 -4.83396 -5.02966 0
M  V30 1244 H 113.339 -3.63709 -5.33278 0
M  V30 1245 H 114.107 -5.61838 -5.95214 0
M  V30 1246 N 116.77 1.45427 -0.607355 0
M  V30 1247 C 118.181 1.85756 -0.187535 0
M  V30 1248 C 118.532 1.5077 1.25551 0
M  V30 1249 O 117.657 0.93427 1.95193 0
M  V30 1250 C 118.252 3.37154 -0.333572 0
M  V30 1251 C 116.811 3.76387 0.0315542 0
M  V30 1252 C 115.958 2.69377 -0.658117 0
M  V30 1253 H 118.909 1.36231 -0.81405 0
M  V30 1254 H 118.93 3.78014 0.43428 0
M  V30 1255 H 118.442 3.62586 -1.38393 0
M  V30 1256 H 116.543 3.56571 1.0811 0
M  V30 1257 H 116.656 4.77731 -0.361935 0
M  V30 1258 H 115.02 2.5452 -0.0957873 0
M  V30 1259 H 115.803 2.97646 -1.7106 0
M  V30 1260 N 118.248 0.346503 1.53744 0
M  V30 1261 C 119.158 -0.517293 2.28826 0
M  V30 1262 C 120.174 -1.10935 1.3405 0
M  V30 1263 O 121.35 -1.1244 1.6709 0
M  V30 1264 C 118.415 -1.65098 3.04866 0
M  V30 1265 C 117.476 -1.0884 4.15274 0
M  V30 1266 C 116.709 -2.16806 4.87679 0
M  V30 1267 O 116.932 -3.3758 4.59778 0
M  V30 1268 O 115.866 -1.80934 5.74061 0
M  V30 1269 H 119.692 0.0931396 3.03557 0
M  V30 1270 H 117.277 0.111458 1.48984 0
M  V30 1271 H 119.159 -2.31053 3.5241 0
M  V30 1272 H 117.834 -2.24717 2.32989 0
M  V30 1273 H 116.741 -0.3933 3.72027 0
M  V30 1274 H 118.074 -0.537036 4.89261 0
M  V30 1275 N 119.726 -1.57421 0.075193 0
M  V30 1276 C 120.656 -2.15942 -0.888324 0
M  V30 1277 C 121.637 -1.08737 -1.30806 0
M  V30 1278 O 122.822 -1.36787 -1.37851 0
M  V30 1279 C 119.952 -2.72379 -2.1547 0
M  V30 1280 C 118.906 -3.8478 -1.87425 0
M  V30 1281 C 118.232 -4.27834 -3.20721 0
M  V30 1282 C 119.532 -5.08869 -1.17684 0
M  V30 1283 H 121.226 -2.96705 -0.400799 0
M  V30 1284 H 118.772 -1.42723 -0.191342 0
M  V30 1285 H 120.725 -3.11965 -2.83295 0
M  V30 1286 H 119.449 -1.88841 -2.6647 0
M  V30 1287 H 118.108 -3.45703 -1.22004 0
M  V30 1288 H 117.756 -3.41214 -3.6957 0
M  V30 1289 H 117.456 -5.03605 -3.02746 0
M  V30 1290 H 118.98 -4.70039 -3.89738 0
M  V30 1291 H 120.394 -5.4575 -1.75584 0
M  V30 1292 H 118.791 -5.8994 -1.09956 0
M  V30 1293 H 119.861 -4.84648 -0.156453 0
M  V30 1294 N 121.204 0.198386 -1.56346 0
M  V30 1295 C 122.152 1.26538 -1.95169 0
M  V30 1296 C 123.146 1.47295 -0.836685 0
M  V30 1297 O 124.352 1.48195 -1.02167 0
M  V30 1298 H 120.727 0.424744 -0.620561 0
M  V30 1299 H 122.698 0.910904 -2.84157 0
M  V30 1300 C 121.447 2.6035 -2.30463 0
M  V30 1301 H 120.77 2.45192 -3.15786 0
M  V30 1302 H 122.21 3.33762 -2.61494 0
M  V30 1303 C 120.669 3.17096 -1.13806 0
M  V30 1304 O 121.199 3.99588 -0.41135 0
M  V30 1305 N 119.405 2.75795 -0.915736 0
M  V30 1306 H 118.952 2.08816 -1.50843 0
M  V30 1307 H 118.91 3.14101 -0.136979 0
M  V30 1308 N 122.682 1.50554 0.465978 0
M  V30 1309 C 123.645 1.69233 1.54574 0
M  V30 1310 C 124.645 0.562901 1.50626 0
M  V30 1311 O 125.835 0.830016 1.53155 0
M  V30 1312 C 122.967 1.7223 2.94193 0
M  V30 1313 H 124.16 2.65571 1.39327 0
M  V30 1314 H 121.713 1.40111 0.692711 0
M  V30 1315 H 122.448 0.77603 3.14878 0
M  V30 1316 H 122.233 2.54285 2.98466 0
M  V30 1317 H 123.723 1.88618 3.72576 0
M  V30 1318 N 124.16 -0.719506 1.40217 0
M  V30 1319 C 125.09 -1.8465 1.42922 0
M  V30 1320 C 126.071 -1.67599 0.29062 0
M  V30 1321 O 127.256 -1.87688 0.498677 0
M  V30 1322 C 124.386 -3.22565 1.28722 0
M  V30 1323 C 123.34 -3.54281 2.40144 0
M  V30 1324 C 122.666 -4.91298 2.11023 0
M  V30 1325 C 123.966 -3.55676 3.82481 0
M  V30 1326 H 125.66 -1.82644 2.37237 0
M  V30 1327 H 123.206 -0.877305 1.1419 0
M  V30 1328 H 125.159 -4.01095 1.29232 0
M  V30 1329 H 123.883 -3.25137 0.308811 0
M  V30 1330 H 122.542 -2.78088 2.38877 0
M  V30 1331 H 122.19 -4.90468 1.11582 0
M  V30 1332 H 121.89 -5.13485 2.8567 0
M  V30 1333 H 123.414 -5.72166 2.13209 0
M  V30 1334 H 124.828 -4.24254 3.85592 0
M  V30 1335 H 123.225 -3.89388 4.56614 0
M  V30 1336 H 124.295 -2.55144 4.12346 0
M  V30 1337 N 125.638 -1.25649 -0.95132 0
M  V30 1338 C 126.57 -1.02112 -2.05197 0
M  V30 1339 C 127.583 0.0150571 -1.62793 0
M  V30 1340 O 128.772 -0.223874 -1.77091 0
M  V30 1341 C 125.872 -0.522361 -3.3485 0
M  V30 1342 C 125.045 -1.62546 -4.06076 0
M  V30 1343 C 124.104 -1.12649 -5.14001 0
M  V30 1344 O 123.13 -1.82156 -5.39266 0
M  V30 1345 N 124.332 0.03047 -5.80492 0
M  V30 1346 H 127.097 -1.96885 -2.25957 0
M  V30 1347 H 124.658 -1.16899 -1.1201 0
M  V30 1348 H 126.65 -0.172961 -4.0433 0
M  V30 1349 H 125.22 0.33151 -3.10837 0
M  V30 1350 H 124.44 -2.14628 -3.30649 0
M  V30 1351 H 125.728 -2.36644 -4.50419 0
M  V30 1352 H 125.126 0.611169 -5.62389 0
M  V30 1353 H 123.683 0.320875 -6.5101 0
M  V30 1354 N 127.117 1.15442 -1.07289 0
M  V30 1355 C 128.027 2.23786 -0.704057 0
M  V30 1356 C 129.043 1.7166 0.284413 0
M  V30 1357 O 130.219 2.00972 0.131205 0
M  V30 1358 C 127.284 3.46535 -0.106792 0
M  V30 1359 C 126.345 4.13654 -1.14842 0
M  V30 1360 C 125.578 5.30544 -0.57956 0
M  V30 1361 O 125.801 5.67187 0.604585 0
M  V30 1362 O 124.735 5.87154 -1.32414 0
M  V30 1363 H 128.561 2.57664 -1.60757 0
M  V30 1364 H 126.146 1.23152 -0.845803 0
M  V30 1365 H 128.028 4.20804 0.224048 0
M  V30 1366 H 126.703 3.14407 0.770049 0
M  V30 1367 H 125.61 3.4131 -1.5316 0
M  V30 1368 H 126.943 4.49861 -1.99714 0
M  V30 1369 N 128.595 0.856903 1.32268 0
M  V30 1370 C 129.505 0.306131 2.32594 0
M  V30 1371 C 130.521 -0.577209 1.64147 0
M  V30 1372 O 131.697 -0.477043 1.95669 0
M  V30 1373 C 128.762 -0.494561 3.43154 0
M  V30 1374 C 127.823 0.415186 4.27288 0
M  V30 1375 C 127.056 -0.347387 5.32568 0
M  V30 1376 O 127.279 -1.57708 5.48165 0
M  V30 1377 O 126.213 0.287982 6.01211 0
M  V30 1378 H 130.039 1.13737 2.81598 0
M  V30 1379 H 127.624 0.619902 1.35932 0
M  V30 1380 H 129.506 -0.948944 4.10576 0
M  V30 1381 H 128.181 -1.30257 2.96336 0
M  V30 1382 H 127.088 0.917793 3.62667 0
M  V30 1383 H 128.421 1.18844 4.77637 0
M  V30 1384 N 130.073 -1.45103 0.615059 0
M  V30 1385 C 131.003 -2.33339 -0.0865619 0
M  V30 1386 C 131.984 -1.4727 -0.851209 0
M  V30 1387 O 133.169 -1.76026 -0.820281 0
M  V30 1388 C 130.299 -3.30095 -1.07956 0
M  V30 1389 C 129.253 -4.25858 -0.427628 0
M  V30 1390 C 128.579 -5.12361 -1.5294 0
M  V30 1391 C 129.879 -5.18165 0.655944 0
M  V30 1392 H 131.573 -2.92254 0.650224 0
M  V30 1393 H 129.119 -1.40532 0.314138 0
M  V30 1394 H 131.072 -3.90698 -1.57901 0
M  V30 1395 H 129.796 -2.69355 -1.84703 0
M  V30 1396 H 128.455 -3.66564 0.0510292 0
M  V30 1397 H 128.103 -4.47984 -2.28734 0
M  V30 1398 H 127.803 -5.77238 -1.09865 0
M  V30 1399 H 129.327 -5.75833 -2.03098 0
M  V30 1400 H 130.741 -5.72796 0.240257 0
M  V30 1401 H 129.138 -5.91559 1.00888 0
M  V30 1402 H 130.208 -4.60144 1.52957 0
M  V30 1403 N 131.551 -0.354651 -1.53558 0
M  V30 1404 C 132.498 0.496968 -2.25386 0
M  V30 1405 C 133.468 1.0865 -1.25636 0
M  V30 1406 O 134.653 1.12104 -1.54394 0
M  V30 1407 C 131.793 1.63637 -3.03837 0
M  V30 1408 C 130.906 1.07307 -4.18461 0
M  V30 1409 C 130.041 2.18068 -4.84376 0
M  V30 1410 C 129.08 1.59147 -5.91049 0
M  V30 1411 N 128.217 2.63695 -6.50699 0
M  V30 1412 H 133.057 -0.122075 -2.9775 0
M  V30 1413 H 130.594 -0.0720154 -1.46924 0
M  V30 1414 H 132.552 2.30734 -3.47589 0
M  V30 1415 H 131.182 2.22623 -2.33749 0
M  V30 1416 H 130.234 0.292708 -3.79272 0
M  V30 1417 H 131.546 0.602193 -4.95152 0
M  V30 1418 H 130.7 2.93007 -5.31255 0
M  V30 1419 H 129.439 2.68504 -4.07133 0
M  V30 1420 H 128.444 0.827175 -5.43542 0
M  V30 1421 H 129.669 1.09549 -6.70206 0
M  V30 1422 H 127.615 3.13365 -5.76315 0
M  V30 1423 H 127.532 2.21263 -7.22896 0
M  V30 1424 H 128.8 3.3837 -7.02229 0
M  V30 1425 N 133.029 1.57378 -0.0835403 0
M  V30 1426 C 133.977 2.14602 0.89714 0
M  V30 1427 C 134.971 1.08589 1.30018 0
M  V30 1428 O 136.177 1.26952 1.27606 0
M  V30 1429 H 132.552 0.686346 0.3073 0
M  V30 1430 H 134.523 2.95845 0.38969 0
M  V30 1431 C 133.272 2.73188 2.15089 0
M  V30 1432 H 132.595 3.54442 1.84962 0
M  V30 1433 H 134.035 3.1681 2.81793 0
M  V30 1434 C 132.494 1.68517 2.91725 0
M  V30 1435 O 133.024 1.11718 3.85852 0
M  V30 1436 N 131.23 1.39277 2.55049 0
M  V30 1437 H 130.777 1.85655 1.78577 0
M  V30 1438 H 130.735 0.694791 3.06627 0
M  V30 1439 N 134.507 -0.190092 1.56449 0
M  V30 1440 C 135.754 -0.909705 1.80916 0
M  V30 1441 C 136.082 -1.83047 0.657583 0
M  V30 1442 O 135.337 -1.92428 -0.356356 0
M  V30 1443 C 135.636 -1.75382 3.1141 0
M  V30 1444 C 135.302 -0.983606 4.40041 0
M  V30 1445 C 133.964 -0.770967 4.74984 0
M  V30 1446 C 136.316 -0.442024 5.19322 0
M  V30 1447 C 133.644 -0.0053448 5.867 0
M  V30 1448 C 135.996 0.310412 6.31838 0
M  V30 1449 C 134.66 0.534023 6.6536 0
M  V30 1450 H 133.93 -0.332885 0.662019 0
M  V30 1451 H 136.577 -0.175762 1.90692 0
M  V30 1452 H 134.882 -2.55659 2.96893 0
M  V30 1453 H 136.579 -2.31331 3.27547 0
M  V30 1454 H 133.169 -1.15936 4.12622 0
M  V30 1455 H 137.353 -0.593693 4.92736 0
M  V30 1456 H 132.609 0.177825 6.11141 0
M  V30 1457 H 136.783 0.737419 6.92485 0
M  V30 1458 H 134.41 1.12918 7.51767 0
M  V30 1459 N 135.985 -1.50799 -0.457987 0
M  V30 1460 C 137.233 -1.62121 -1.2067 0
M  V30 1461 C 137.554 -0.329793 -1.92191 0
M  V30 1462 O 136.824 0.653409 -1.84682 0
M  V30 1463 H 135.404 -0.597441 -0.448411 0
M  V30 1464 H 138.066 -1.87637 -0.527096 0
M  V30 1465 H 137.162 -2.43882 -1.94751 0
M  V30 1466 N 137.463 0.71206 -1.40597 0
M  V30 1467 C 138.709 1.47416 -1.39271 0
M  V30 1468 C 139.042 1.942 0.00388791 0
M  V30 1469 O 138.317 1.68403 0.973179 0
M  V30 1470 C 138.6 2.69774 -2.38525 0
M  V30 1471 C 138.453 2.28861 -3.87224 0
M  V30 1472 C 139.772 3.71939 -2.35264 0
M  V30 1473 H 136.891 0.534713 -0.5072 0
M  V30 1474 H 139.533 0.812375 -1.71757 0
M  V30 1475 H 137.683 3.26238 -2.10953 0
M  V30 1476 H 139.355 1.77852 -4.25636 0
M  V30 1477 H 137.598 1.60824 -4.02887 0
M  V30 1478 H 138.269 3.16584 -4.52193 0
M  V30 1479 H 140.745 3.25113 -2.59694 0
M  V30 1480 H 139.621 4.55186 -3.06753 0
M  V30 1481 H 139.882 4.20484 -1.36549 0
M  V30 1482 N 138.941 1.26152 0.944643 0
M  V30 1483 C 140.19 1.10883 1.68487 0
M  V30 1484 C 140.503 -0.348153 1.92477 0
M  V30 1485 O 141.709 -0.621459 2.64292 0
M  V30 1486 C 140.165 1.93624 3.03377 0
M  V30 1487 C 139.773 3.43875 2.87148 0
M  V30 1488 C 141.517 1.86954 3.81115 0
M  V30 1489 C 139.424 4.18875 4.1749 0
M  V30 1490 H 138.354 0.41135 0.631907 0
M  V30 1491 H 141.005 1.50433 1.05082 0
M  V30 1492 H 139.387 1.46904 3.67743 0
M  V30 1493 H 140.561 3.98338 2.31653 0
M  V30 1494 H 138.876 3.51744 2.22856 0
M  V30 1495 H 141.473 2.40275 4.77673 0
M  V30 1496 H 141.816 0.839518 4.07747 0
M  V30 1497 H 142.349 2.31477 3.23517 0
M  V30 1498 H 139.088 5.22332 3.96043 0
M  V30 1499 H 138.608 3.69193 4.72712 0
M  V30 1500 H 140.287 4.27134 4.85968 0
M  V30 1501 N 140.419 -1.14872 1.07899 0
M  V30 1502 C 141.665 -1.86064 0.806725 0
M  V30 1503 C 141.998 -1.82434 -0.665706 0
M  V30 1504 O 141.273 -1.25138 -1.48899 0
M  V30 1505 C 141.556 -3.34929 1.32267 0
M  V30 1506 C 141.409 -3.47161 2.86006 0
M  V30 1507 C 142.728 -4.29863 0.943717 0
M  V30 1508 H 139.847 -0.675591 0.294526 0
M  V30 1509 H 142.489 -1.34925 1.33773 0
M  V30 1510 H 140.639 -3.78611 0.870974 0
M  V30 1511 H 142.311 -3.12302 3.39507 0
M  V30 1512 H 140.554 -2.88539 3.23925 0
M  V30 1513 H 141.225 -4.51777 3.17177 0
M  V30 1514 H 143.701 -3.9417 1.33302 0
M  V30 1515 H 142.577 -5.32494 1.33198 0
M  V30 1516 H 142.838 -4.41846 -0.149796 0
M  V30 1517 N 141.898 -0.863906 -1.31812 0
M  V30 1518 C 142.828 -0.330843 -2.31144 0
M  V30 1519 C 143.809 0.575005 -1.60087 0
M  V30 1520 O 144.994 0.493304 -1.8783 0
M  V30 1521 C 142.124 0.47374 -3.44054 0
M  V30 1522 C 141.078 -0.338481 -4.26659 0
M  V30 1523 C 140.404 0.591412 -5.31419 0
M  V30 1524 C 141.704 -1.56926 -4.98168 0
M  V30 1525 H 143.398 -1.16086 -2.75979 0
M  V30 1526 H 140.944 -0.559657 -1.32679 0
M  V30 1527 H 142.897 0.857143 -4.12591 0
M  V30 1528 H 141.621 1.33721 -2.9797 0
M  V30 1529 H 140.28 -0.703754 -3.59782 0
M  V30 1530 H 139.928 1.45199 -4.81587 0
M  V30 1531 H 139.628 0.0519022 -5.87577 0
M  V30 1532 H 141.152 0.97179 -6.02817 0
M  V30 1533 H 142.566 -1.25764 -5.59336 0
M  V30 1534 H 140.963 -2.04739 -5.64094 0
M  V30 1535 H 142.033 -2.32544 -4.25501 0
M  V30 1536 N 143.376 1.44774 -0.622745 0
M  V30 1537 C 144.339 2.29069 0.0774015 0
M  V30 1538 C 145.339 1.4059 0.780461 0
M  V30 1539 O 146.529 1.62551 0.626322 0
M  V30 1540 C 143.661 3.21974 1.12006 0
M  V30 1541 H 144.854 2.92459 -0.663901 0
M  V30 1542 H 142.407 1.51548 -0.382486 0
M  V30 1543 H 143.142 2.63417 1.89162 0
M  V30 1544 H 142.927 3.87168 0.619951 0
M  V30 1545 H 144.417 3.85318 1.60995 0
M  V30 1546 N 144.854 0.36279 1.53368 0
M  V30 1547 C 146.101 -0.227776 2.01215 0
M  V30 1548 C 146.429 -1.49003 1.25014 0
M  V30 1549 O 145.684 -1.92876 0.331236 0
M  V30 1550 C 145.983 -0.568417 3.52851 0
M  V30 1551 C 145.649 0.59918 4.46901 0
M  V30 1552 C 144.311 0.919559 4.72332 0
M  V30 1553 C 146.663 1.38156 5.02556 0
M  V30 1554 C 143.991 2.02434 5.5067 0
M  V30 1555 C 146.343 2.47674 5.821 0
M  V30 1556 C 145.007 2.8025 6.05819 0
M  V30 1557 H 144.277 -0.083349 0.736297 0
M  V30 1558 H 146.924 0.494677 1.85001 0
M  V30 1559 H 145.229 -1.37185 3.66998 0
M  V30 1560 H 146.926 -1.03756 3.87344 0
M  V30 1561 H 143.516 0.339437 4.27254 0
M  V30 1562 H 147.7 1.14729 4.82857 0
M  V30 1563 H 142.956 2.28075 5.67267 0
M  V30 1564 H 147.13 3.08716 6.24234 0
M  V30 1565 H 144.757 3.65979 6.66306 0
M  V30 1566 N 146.332 -1.57332 0.0918853 0
M  V30 1567 C 147.743 -1.81496 -0.437739 0
M  V30 1568 C 148.094 -1.00727 -1.6837 0
M  V30 1569 O 147.219 -0.235694 -2.15113 0
M  V30 1570 C 147.814 -3.29197 -0.800939 0
M  V30 1571 C 146.373 -3.54136 -1.27532 0
M  V30 1572 C 145.52 -2.75979 -0.270392 0
M  V30 1573 H 148.471 -1.55494 0.317366 0
M  V30 1574 H 148.492 -3.42344 -1.66074 0
M  V30 1575 H 148.004 -3.87955 0.106078 0
M  V30 1576 H 146.105 -3.00705 -2.20016 0
M  V30 1577 H 146.218 -4.62792 -1.23938 0
M  V30 1578 H 144.582 -2.43349 -0.751872 0
M  V30 1579 H 145.365 -3.37484 0.629248 0
M  V30 1580 N 147.81 0.181792 -1.56548 0
M  V30 1581 C 149.05 0.906711 -1.83189 0
M  V30 1582 C 149.414 1.79882 -0.671312 0
M  V30 1583 O 150.615 2.56054 -0.81792 0
M  V30 1584 C 148.886 1.69023 -3.14906 0
M  V30 1585 S 150.445 2.46535 -3.62996 0
M  V30 1586 H 147.263 0.303877 -0.642791 0
M  V30 1587 H 149.865 0.169107 -1.94767 0
M  V30 1588 H 148.569 1.02571 -3.97376 0
M  V30 1589 H 148.1 2.46941 -3.06241 0
M  V30 1590 H 150.115 3.71014 -3.29489 0
M  V30 1591 N 149.288 1.51039 0.449983 0
M  V30 1592 C 150.236 1.71995 1.5659 0
M  V30 1593 C 151.23 0.586029 1.5894 0
M  V30 1594 O 152.436 0.76709 1.62837 0
M  V30 1595 H 148.811 0.543233 0.520001 0
M  V30 1596 H 150.782 2.65562 1.36085 0
M  V30 1597 C 149.531 1.8506 2.9436 0
M  V30 1598 H 148.854 2.71712 2.93279 0
M  V30 1599 H 150.294 2.0374 3.71842 0
M  V30 1600 C 148.753 0.607277 3.31382 0
M  V30 1601 O 149.283 -0.243903 4.00959 0
M  V30 1602 N 147.489 0.455073 2.87015 0
M  V30 1603 H 147.036 1.14879 2.30566 0
M  V30 1604 H 146.994 -0.375611 3.12148 0
M  V30 1605 N 150.766 -0.704594 1.40972 0
M  V30 1606 C 151.698 -1.82974 1.38033 0
M  V30 1607 C 152.711 -1.60305 0.283931 0
M  V30 1608 O 153.9 -1.69975 0.545042 0
M  V30 1609 C 151 -3.19578 1.12795 0
M  V30 1610 C 150.173 -3.69352 2.34302 0
M  V30 1611 C 149.232 -4.84601 2.05058 0
M  V30 1612 O 148.258 -4.96682 2.7802 0
M  V30 1613 N 149.46 -5.71194 1.03528 0
M  V30 1614 H 152.225 -1.85991 2.35005 0
M  V30 1615 H 149.786 -0.886567 1.35468 0
M  V30 1616 H 151.778 -3.9429 0.911987 0
M  V30 1617 H 150.348 -3.11642 0.24452 0
M  V30 1618 H 149.568 -2.85649 2.71659 0
M  V30 1619 H 150.856 -3.99345 3.1528 0
M  V30 1620 H 150.254 -5.64054 0.431217 0
M  V30 1621 H 148.811 -6.45843 0.879205 0
M  V30 1622 N 152.244 -1.26651 -0.937939 0
M  V30 1623 C 153.491 -1.12387 -1.6845 0
M  V30 1624 C 153.819 0.332208 -1.91642 0
M  V30 1625 O 153.074 1.2602 -1.49725 0
M  V30 1626 C 153.373 -1.84168 -3.06295 0
M  V30 1627 C 153.039 -3.34056 -3.02849 0
M  V30 1628 C 151.701 -3.74942 -3.01616 0
M  V30 1629 C 154.053 -4.29741 -2.9491 0
M  V30 1630 C 151.381 -5.09894 -2.90215 0
M  V30 1631 C 153.733 -5.64738 -2.8505 0
M  V30 1632 C 152.397 -6.0493 -2.82162 0
M  V30 1633 H 151.667 -0.411252 -0.616403 0
M  V30 1634 H 154.314 -1.57134 -1.09459 0
M  V30 1635 H 152.619 -1.319 -3.6893 0
M  V30 1636 H 154.316 -1.70569 -3.62915 0
M  V30 1637 H 150.906 -3.01534 -3.0459 0
M  V30 1638 H 155.09 -3.99133 -2.94969 0
M  V30 1639 H 150.346 -5.40194 -2.86358 0
M  V30 1640 H 154.52 -6.38561 -2.77872 0
M  V30 1641 H 152.147 -7.09457 -2.73084 0
M  V30 1642 N 153.722 1.14298 -1.08507 0
M  V30 1643 C 154.97 1.84993 -0.813763 0
M  V30 1644 C 155.291 1.83405 0.662393 0
M  V30 1645 O 154.561 1.28319 1.48024 0
M  V30 1646 H 153.141 0.684966 -0.298045 0
M  V30 1647 H 155.803 1.385 -1.37126 0
M  V30 1648 H 154.899 2.89788 -1.15884 0
M  V30 1649 N 155.201 0.870884 1.31352 0
M  V30 1650 C 156.148 0.325425 2.28494 0
M  V30 1651 C 157.118 -0.576615 1.5577 0
M  V30 1652 O 158.303 -0.508059 1.83911 0
M  V30 1653 C 155.443 -0.466283 3.41935 0
M  V30 1654 C 154.556 0.463378 4.29508 0
M  V30 1655 C 153.691 -0.342544 5.30094 0
M  V30 1656 C 152.73 0.583486 6.09313 0
M  V30 1657 N 151.867 -0.186244 7.01853 0
M  V30 1658 H 156.707 1.15901 2.74538 0
M  V30 1659 H 154.244 0.58294 1.35056 0
M  V30 1660 H 156.202 -0.941085 4.06447 0
M  V30 1661 H 154.832 -1.26456 2.97 0
M  V30 1662 H 153.884 1.05663 3.65431 0
M  V30 1663 H 155.196 1.1734 4.84802 0
M  V30 1664 H 154.35 -0.879816 6.00287 0
M  V30 1665 H 153.089 -1.08585 4.75458 0
M  V30 1666 H 152.094 1.13251 5.3801 0
M  V30 1667 H 153.319 1.32566 6.66035 0
M  V30 1668 H 151.265 -0.912348 6.49625 0
M  V30 1669 H 151.182 0.464422 7.54572 0
M  V30 1670 H 152.45 -0.704716 7.76308 0
M  V30 1671 N 156.679 -1.44442 0.630414 0
M  V30 1672 C 157.611 -2.2892 -0.113347 0
M  V30 1673 C 158.624 -1.41243 -0.80959 0
M  V30 1674 O 159.813 -1.65402 -0.671156 0
M  V30 1675 C 156.913 -3.17594 -1.18266 0
M  V30 1676 C 156.086 -4.33682 -0.569073 0
M  V30 1677 C 155.145 -5.03397 -1.53226 0
M  V30 1678 O 154.171 -5.59438 -1.04967 0
M  V30 1679 N 155.373 -5.04783 -2.86661 0
M  V30 1680 H 158.138 -2.93392 0.611636 0
M  V30 1681 H 155.699 -1.54881 0.471523 0
M  V30 1682 H 157.691 -3.61097 -1.82732 0
M  V30 1683 H 156.261 -2.54876 -1.80988 0
M  V30 1684 H 155.481 -3.9338 0.254187 0
M  V30 1685 H 156.769 -5.08608 -0.139767 0
M  V30 1686 H 156.167 -4.60584 -3.28449 0
M  V30 1687 H 154.724 -5.52077 -3.46489 0
M  V30 1688 N 158.157 -0.370918 -1.53173 0
M  V30 1689 C 159.067 0.480823 -2.2962 0
M  V30 1690 C 160.083 1.08789 -1.35798 0
M  V30 1691 O 161.259 1.09768 -1.68858 0
M  V30 1692 C 158.324 1.60227 -3.07454 0
M  V30 1693 C 157.385 1.0222 -4.16953 0
M  V30 1694 C 156.618 2.0902 -4.91066 0
M  V30 1695 O 156.841 3.30222 -4.65091 0
M  V30 1696 O 155.775 1.71778 -5.76867 0
M  V30 1697 H 159.601 -0.141421 -3.03371 0
M  V30 1698 H 157.186 -0.135146 -1.48787 0
M  V30 1699 H 159.068 2.25417 -3.56041 0
M  V30 1700 H 157.743 2.20982 -2.36535 0
M  V30 1701 H 156.65 0.334064 -3.72605 0
M  V30 1702 H 157.983 0.459131 -4.90054 0
M  V30 1703 N 159.635 1.57281 -0.100228 0
M  V30 1704 C 161.046 1.81725 0.428107 0
M  V30 1705 C 161.397 1.01619 1.67833 0
M  V30 1706 O 160.522 0.247098 2.14985 0
M  V30 1707 C 161.117 3.29617 0.78347 0
M  V30 1708 C 159.676 3.54808 1.25653 0
M  V30 1709 C 158.823 2.76118 0.255752 0
M  V30 1710 H 161.774 1.55324 -0.325608 0
M  V30 1711 H 161.795 3.4322 1.64256 0
M  V30 1712 H 161.307 3.87893 -0.12665 0
M  V30 1713 H 159.408 3.01868 2.18418 0
M  V30 1714 H 159.521 4.63443 1.21482 0
M  V30 1715 H 157.885 2.43745 0.738956 0
M  V30 1716 H 158.668 3.37145 -0.647136 0
M  V30 1717 N 161.113 -0.173488 1.56642 0
M  V30 1718 C 162.361 -0.888706 1.81512 0
M  V30 1719 C 162.682 -1.82875 0.676872 0
M  V30 1720 O 161.952 -1.93536 -0.303414 0
M  V30 1721 H 160.532 -0.331164 0.669582 0
M  V30 1722 H 163.194 -0.173823 1.94123 0
M  V30 1723 H 162.29 -1.46691 2.75478 0
M  V30 1724 N 162.591 -1.51276 -0.441967 0
M  V30 1725 C 163.819 -1.67516 -1.21434 0
M  V30 1726 C 164.234 -0.37055 -1.85128 0
M  V30 1727 O 163.591 0.650498 -1.70513 0
M  V30 1728 C 163.642 -2.78748 -2.30177 0
M  V30 1729 O 163.363 -4.04154 -1.69089 0
M  V30 1730 C 164.864 -3.06217 -3.20541 0
M  V30 1731 H 162.084 -0.562276 -0.366178 0
M  V30 1732 H 164.628 -1.97666 -0.524244 0
M  V30 1733 H 162.783 -2.5121 -2.94911 0
M  V30 1734 H 163.197 -4.65894 -2.40922 0
M  V30 1735 H 164.671 -3.8764 -3.92987 0
M  V30 1736 H 165.148 -2.18439 -3.81026 0
M  V30 1737 H 165.754 -3.35397 -2.61513 0
M  V30 1738 N 164.069 0.697108 -1.41344 0
M  V30 1739 C 165.017 1.83237 -1.43272 0
M  V30 1740 C 166.011 1.66522 -0.310947 0
M  V30 1741 O 167.217 1.73402 -0.482899 0
M  V30 1742 H 163.592 0.603802 -0.448249 0
M  V30 1743 H 165.563 1.78727 -2.38954 0
M  V30 1744 C 164.312 3.21245 -1.33029 0
M  V30 1745 H 163.635 3.34723 -2.18633 0
M  V30 1746 H 165.075 4.00763 -1.38439 0
M  V30 1747 C 163.534 3.36873 -0.0424635 0
M  V30 1748 O 164.064 3.91177 0.913421 0
M  V30 1749 N 162.27 2.90581 0.0331145 0
M  V30 1750 H 161.817 2.46577 -0.745506 0
M  V30 1751 H 161.775 3.01416 0.894199 0
M  V30 1752 N 165.547 1.27147 0.931209 0
M  V30 1753 C 166.772 1.16191 1.71797 0
M  V30 1754 C 167.197 -0.278004 1.86034 0
M  V30 1755 O 166.555 -1.20137 1.35782 0
M  V30 1756 C 166.603 1.84673 3.09723 0
M  V30 1757 O 165.707 1.14231 3.96264 0
M  V30 1758 H 165.048 0.404303 0.526721 0
M  V30 1759 H 167.578 1.68152 1.1656 0
M  V30 1760 H 167.588 1.91893 3.60057 0
M  V30 1761 H 166.263 2.89421 2.98677 0
M  V30 1762 H 164.84 1.15056 3.54706 0
M  V30 1763 N 167.025 -1.13721 1.09112 0
M  V30 1764 C 167.935 -2.22638 0.73957 0
M  V30 1765 C 168.951 -1.72091 -0.257068 0
M  V30 1766 O 170.127 -2.01155 -0.0992154 0
M  V30 1767 C 167.192 -3.46322 0.16191 0
M  V30 1768 C 166.253 -4.11775 1.21408 0
M  V30 1769 C 165.486 -5.29555 0.663891 0
M  V30 1770 O 165.709 -5.68077 -0.514274 0
M  V30 1771 O 164.643 -5.84973 1.41738 0
M  V30 1772 H 168.469 -2.55074 1.64836 0
M  V30 1773 H 166.054 -1.21791 0.865289 0
M  V30 1774 H 167.936 -4.21107 -0.157073 0
M  V30 1775 H 166.611 -3.15593 -0.719932 0
M  V30 1776 H 165.518 -3.3883 1.58571 0
M  V30 1777 H 166.851 -4.46627 2.06845 0
M  V30 1778 N 168.503 -0.877838 -1.30888 0
M  V30 1779 C 169.752 -0.488793 -1.95688 0
M  V30 1780 C 170.065 0.965485 -1.70111 0
M  V30 1781 O 171.271 1.46104 -2.28836 0
M  V30 1782 C 169.727 -0.823201 -3.50359 0
M  V30 1783 C 169.335 -2.29477 -3.84765 0
M  V30 1784 C 171.079 -0.503009 -4.21509 0
M  V30 1785 C 168.986 -2.57118 -5.32583 0
M  V30 1786 H 167.916 -0.179062 -0.732429 0
M  V30 1787 H 170.567 -1.07183 -1.48943 0
M  V30 1788 H 168.949 -0.169331 -3.95638 0
M  V30 1789 H 170.123 -2.99236 -3.5042 0
M  V30 1790 H 168.438 -2.58178 -3.267 0
M  V30 1791 H 171.035 -0.68665 -5.30273 0
M  V30 1792 H 171.378 0.557109 -4.12555 0
M  V30 1793 H 171.911 -1.11376 -3.8189 0
M  V30 1794 H 168.65 -3.61843 -5.4658 0
M  V30 1795 H 168.17 -1.91961 -5.68253 0
M  V30 1796 H 169.849 -2.42251 -5.99936 0
M  V30 1797 N 169.982 1.44106 -0.638065 0
M  V30 1798 C 170.912 2.33448 0.0494287 0
M  V30 1799 C 171.893 1.48606 0.827672 0
M  V30 1800 O 173.078 1.77308 0.792173 0
M  V30 1801 C 170.208 3.31771 1.02691 0
M  V30 1802 C 169.162 4.26485 0.359823 0
M  V30 1803 C 168.488 5.14729 1.44769 0
M  V30 1804 C 169.788 5.17056 -0.738296 0
M  V30 1805 H 171.482 2.91183 -0.696636 0
M  V30 1806 H 169.028 1.40014 -0.336456 0
M  V30 1807 H 170.981 3.93161 1.51666 0
M  V30 1808 H 169.705 2.7226 1.80395 0
M  V30 1809 H 168.364 3.66437 -0.10934 0
M  V30 1810 H 168.012 4.51566 2.21578 0
M  V30 1811 H 167.712 5.78913 1.00668 0
M  V30 1812 H 169.236 5.78991 1.93911 0
M  V30 1813 H 170.65 5.72342 -0.331354 0
M  V30 1814 H 169.047 5.89879 -1.10286 0
M  V30 1815 H 170.117 4.57652 -1.60258 0
M  V30 1816 N 171.46 0.379036 1.52974 0
M  V30 1817 C 172.39 -0.452706 2.29069 0
M  V30 1818 C 173.371 -1.07237 1.32039 0
M  V30 1819 O 174.556 -1.08708 1.60923 0
M  V30 1820 C 171.686 -1.5856 3.08992 0
M  V30 1821 C 170.64 -1.0925 4.13822 0
M  V30 1822 C 169.966 -2.31668 4.81907 0
M  V30 1823 C 171.266 -0.167702 5.22031 0
M  V30 1824 H 172.96 0.182181 2.98845 0
M  V30 1825 H 170.506 0.0890592 1.43724 0
M  V30 1826 H 172.459 -2.1742 3.6098 0
M  V30 1827 H 171.183 -2.24792 2.36931 0
M  V30 1828 H 169.842 -0.526494 3.628 0
M  V30 1829 H 169.49 -2.96386 4.06404 0
M  V30 1830 H 169.19 -1.9934 5.52754 0
M  V30 1831 H 170.714 -2.91189 5.36695 0
M  V30 1832 H 172.128 -0.664186 5.6944 0
M  V30 1833 H 170.525 0.0653265 6.00064 0
M  V30 1834 H 171.595 0.786347 4.78482 0
M  V30 1835 N 172.938 -1.57226 0.108567 0
M  V30 1836 C 174.186 -1.94448 -0.550853 0
M  V30 1837 C 174.507 -0.992074 -1.67878 0
M  V30 1838 O 173.777 -0.0465 -1.95845 0
M  V30 1839 H 172.357 -0.717897 -0.206479 0
M  V30 1840 H 175.019 -1.94112 0.175062 0
M  V30 1841 H 174.115 -2.97218 -0.952259 0
M  V30 1842 N 174.416 0.165178 -1.56732 0
M  V30 1843 C 175.346 1.20651 -1.99914 0
M  V30 1844 C 176.327 1.45827 -0.875705 0
M  V30 1845 O 177.512 1.57057 -1.14223 0
M  V30 1846 C 174.642 2.54401 -2.36427 0
M  V30 1847 C 173.596 2.43782 -3.51787 0
M  V30 1848 C 172.922 3.82078 -3.7406 0
M  V30 1849 C 174.222 1.93732 -4.85041 0
M  V30 1850 H 175.916 0.847534 -2.87154 0
M  V30 1851 H 173.462 0.40625 -1.38151 0
M  V30 1852 H 175.415 3.27458 -2.65234 0
M  V30 1853 H 174.139 2.92098 -1.46103 0
M  V30 1854 H 172.798 1.73178 -3.23117 0
M  V30 1855 H 172.446 4.17179 -2.81017 0
M  V30 1856 H 172.146 3.7584 -4.51684 0
M  V30 1857 H 173.67 4.56712 -4.05274 0
M  V30 1858 H 175.084 2.56569 -5.12684 0
M  V30 1859 H 173.481 1.98428 -5.66345 0
M  V30 1860 H 174.551 0.891962 -4.76626 0
M  V30 1861 N 175.894 1.51508 0.433938 0
M  V30 1862 C 176.841 1.73068 1.52696 0
M  V30 1863 C 177.811 0.572441 1.55924 0
M  V30 1864 O 178.996 0.807253 1.72882 0
M  V30 1865 C 176.136 1.86474 2.90381 0
M  V30 1866 C 175.249 3.14037 2.96656 0
M  V30 1867 C 174.384 3.18019 4.25485 0
M  V30 1868 C 173.423 4.39882 4.2564 0
M  V30 1869 N 172.56 4.41394 5.45999 0
M  V30 1870 H 177.4 2.66366 1.33615 0
M  V30 1871 H 174.937 1.32008 0.649018 0
M  V30 1872 H 176.895 1.92229 3.70275 0
M  V30 1873 H 175.525 0.965809 3.08013 0
M  V30 1874 H 174.577 3.17575 2.09404 0
M  V30 1875 H 175.889 4.0394 2.92633 0
M  V30 1876 H 175.043 3.22708 5.13755 0
M  V30 1877 H 173.782 2.2601 4.3217 0
M  V30 1878 H 172.787 4.35366 3.35763 0
M  V30 1879 H 174.012 5.33159 4.20617 0
M  V30 1880 H 171.958 3.52258 5.53399 0
M  V30 1881 H 171.875 5.25111 5.4387 0
M  V30 1882 H 173.143 4.50281 6.36292 0
M  V30 1883 N 177.372 -0.689602 1.41712 0
M  V30 1884 C 178.602 -1.47613 1.44548 0
M  V30 1885 C 179.01 -1.89132 0.0509034 0
M  V30 1886 O 178.353 -1.57741 -0.94146 0
M  V30 1887 C 178.415 -2.76596 2.2964 0
M  V30 1888 C 178.079 -2.57245 3.77722 0
M  V30 1889 C 179.076 -2.22804 4.69739 0
M  V30 1890 C 176.761 -2.727 4.2183 0
M  V30 1891 C 178.755 -2.04064 6.03851 0
M  V30 1892 C 176.442 -2.53576 5.56006 0
M  V30 1893 C 177.44 -2.1931 6.46832 0
M  V30 1894 O 177.128 -2.00359 7.78532 0
M  V30 1895 H 176.86 -0.461227 0.494212 0
M  V30 1896 H 179.414 -0.856045 1.86711 0
M  V30 1897 H 177.644 -3.41033 1.82301 0
M  V30 1898 H 179.333 -3.38424 2.24107 0
M  V30 1899 H 180.099 -2.10473 4.36951 0
M  V30 1900 H 175.978 -2.98353 3.51435 0
M  V30 1901 H 179.522 -1.77241 6.74708 0
M  V30 1902 H 175.419 -2.65499 5.88371 0
M  V30 1903 H 176.187 -2.15075 7.89737 0
M  V30 1904 N 178.85 -1.27639 -0.924453 0
M  V30 1905 C 180.096 -1.14336 -1.67497 0
M  V30 1906 C 180.429 0.309465 -1.91718 0
M  V30 1907 O 179.704 1.22608 -1.50989 0
M  V30 1908 C 179.987 -1.93096 -3.0395 0
M  V30 1909 C 179.84 -3.46381 -2.8695 0
M  V30 1910 C 181.159 -1.73798 -4.0433 0
M  V30 1911 H 178.278 -0.416728 -0.607871 0
M  V30 1912 H 180.92 -1.56832 -1.07256 0
M  V30 1913 H 179.07 -1.56982 -3.55372 0
M  V30 1914 H 180.742 -3.92343 -2.42621 0
M  V30 1915 H 178.985 -3.72557 -2.22225 0
M  V30 1916 H 179.656 -3.96735 -3.83804 0
M  V30 1917 H 182.132 -2.05293 -3.61931 0
M  V30 1918 H 181.008 -2.31294 -4.97789 0
M  V30 1919 H 181.269 -0.686725 -4.36734 0
M  V30 1920 N 180.328 1.1314 -1.09713 0
M  V30 1921 C 181.568 1.8613 -0.844683 0
M  V30 1922 C 181.932 1.81765 0.618491 0
M  V30 1923 O 183.133 2.50024 0.98699 0
M  V30 1924 C 181.404 3.30151 -1.36877 0
M  V30 1925 S 182.963 4.206 -1.25064 0
M  V30 1926 H 179.781 0.642056 -0.305427 0
M  V30 1927 H 182.383 1.36343 -1.4011 0
M  V30 1928 H 181.087 3.30883 -2.42786 0
M  V30 1929 H 180.618 3.85 -0.808614 0
M  V30 1930 H 182.633 4.95783 -0.203486 0
M  V30 1931 N 181.806 0.884767 1.30421 0
M  V30 1932 C 183.217 0.553656 1.78302 0
M  V30 1933 C 183.568 -0.930153 1.7275 0
M  V30 1934 O 182.693 -1.72681 1.30423 0
M  V30 1935 C 183.288 0.998234 3.2376 0
M  V30 1936 C 181.847 0.71854 3.69478 0
M  V30 1937 C 180.994 1.18132 2.50879 0
M  V30 1938 H 183.945 1.06901 1.17294 0
M  V30 1939 H 183.966 0.327118 3.79091 0
M  V30 1940 H 183.478 2.0782 3.27769 0
M  V30 1941 H 181.579 -0.349444 3.70958 0
M  V30 1942 H 181.692 1.30595 4.60958 0
M  V30 1943 H 180.056 0.600669 2.47516 0
M  V30 1944 H 180.839 2.26902 2.57624 0
M  V30 1945 N 183.284 -1.43765 0.645699 0
M  V30 1946 C 184.532 -2.01499 0.155731 0
M  V30 1947 C 184.853 -1.51151 -1.232 0
M  V30 1948 O 184.123 -0.721044 -1.82148 0
M  V30 1949 H 182.703 -0.745003 0.0545817 0
M  V30 1950 H 185.365 -1.76075 0.835677 0
M  V30 1951 H 184.461 -3.1181 0.134577 0
M  V30 1952 N 184.763 -0.387143 -1.52771 0
M  V30 1953 C 185.988 0.198407 -2.06449 0
M  V30 1954 C 186.413 1.39918 -1.25716 0
M  V30 1955 O 185.771 1.79099 -0.281657 0
M  V30 1956 C 185.819 0.548893 -3.56398 0
M  V30 1957 O 184.923 1.64315 -3.78252 0
M  V30 1958 H 184.264 0.0237731 -0.663574 0
M  V30 1959 H 186.794 -0.553989 -1.96957 0
M  V30 1960 H 186.804 0.813812 -3.99801 0
M  V30 1961 H 185.479 -0.329005 -4.14597 0
M  V30 1962 H 184.056 1.37211 -3.46738 0
M  V30 1963 N 186.241 1.57166 -0.116904 0
M  V30 1964 C 187.489 1.94737 0.540533 0
M  V30 1965 C 187.81 1.00096 1.67349 0
M  V30 1966 O 187.08 0.0568854 1.95817 0
M  V30 1967 H 185.66 0.718981 0.202669 0
M  V30 1968 H 188.322 1.94017 -0.185353 0
M  V30 1969 H 187.418 2.97719 0.936483 0
M  V30 1970 N 187.719 -0.156864 1.56817 0
M  V30 1971 C 188.966 -0.871125 1.82805 0
M  V30 1972 C 189.294 -1.81611 0.696262 0
M  V30 1973 O 188.549 -1.93141 -0.315459 0
M  V30 1974 C 188.848 -1.68737 3.1506 0
M  V30 1975 C 188.514 -0.890045 4.42028 0
M  V30 1976 C 187.176 -0.670042 4.76512 0
M  V30 1977 C 189.528 -0.331769 5.20143 0
M  V30 1978 C 186.856 0.119104 5.86579 0
M  V30 1979 C 189.208 0.444365 6.31037 0
M  V30 1980 C 187.872 0.675035 6.64078 0
M  V30 1981 H 187.142 -0.318767 0.668931 0
M  V30 1982 H 189.789 -0.135274 1.91022 0
M  V30 1983 H 188.094 -2.49304 3.0225 0
M  V30 1984 H 189.791 -2.24331 3.3238 0
M  V30 1985 H 186.381 -1.07157 4.14988 0
M  V30 1986 H 190.565 -0.489043 4.93885 0
M  V30 1987 H 185.821 0.307417 6.10627 0
M  V30 1988 H 189.995 0.884139 6.90765 0
M  V30 1989 H 187.622 1.28839 7.49203 0
M  V30 1990 N 189.197 -1.51736 -0.425897 0
M  V30 1991 C 190.443 -1.65214 -1.1761 0
M  V30 1992 C 190.776 -0.372778 -1.90589 0
M  V30 1993 O 190.051 0.628139 -1.84078 0
M  V30 1994 C 190.334 -2.86312 -2.18398 0
M  V30 1995 C 190.187 -4.24254 -1.49426 0
M  V30 1996 C 191.506 -3.02925 -3.19256 0
M  V30 1997 H 188.625 -0.601263 -0.426206 0
M  V30 1998 H 191.267 -1.8425 -0.463882 0
M  V30 1999 H 189.417 -2.70213 -2.79137 0
M  V30 2000 H 191.089 -4.52046 -0.919362 0
M  V30 2001 H 189.332 -4.26426 -0.796432 0
M  V30 2002 H 190.003 -5.05001 -2.22885 0
M  V30 2003 H 192.479 -3.1781 -2.68581 0
M  V30 2004 H 191.355 -3.89199 -3.8706 0
M  V30 2005 H 191.616 -2.15497 -3.86023 0
M  V30 2006 N 190.675 0.682077 -1.42076 0
M  V30 2007 C 192.086 1.26246 -1.37546 0
M  V30 2008 C 192.437 1.96092 -0.0651481 0
M  V30 2009 O 191.562 1.99587 0.836297 0
M  V30 2010 C 192.157 2.29594 -2.49143 0
M  V30 2011 C 190.716 2.83175 -2.47969 0
M  V30 2012 C 189.863 1.57395 -2.28303 0
M  V30 2013 H 192.814 0.475937 -1.51395 0
M  V30 2014 H 192.835 3.11175 -2.18976 0
M  V30 2015 H 192.347 1.78729 -3.44496 0
M  V30 2016 H 190.448 3.3818 -1.56413 0
M  V30 2017 H 190.561 3.32687 -3.44755 0
M  V30 2018 H 188.925 1.83699 -1.76428 0
M  V30 2019 H 189.708 1.08507 -3.25701 0
M  V30 2020 N 192.153 1.28127 0.917671 0
M  V30 2021 C 193.378 1.18007 1.70555 0
M  V30 2022 C 193.803 -0.258257 1.86319 0
M  V30 2023 O 193.161 -1.1869 1.37049 0
M  V30 2024 C 193.209 1.87948 3.07746 0
M  V30 2025 O 192.313 1.18427 3.9503 0
M  V30 2026 H 191.654 0.409867 0.522403 0
M  V30 2027 H 194.184 1.69379 1.1477 0
M  V30 2028 H 194.194 1.95701 3.58001 0
M  V30 2029 H 192.869 2.92573 2.95591 0
M  V30 2030 H 191.446 1.18811 3.53466 0
M  V30 2031 N 193.631 -1.12557 1.10312 0
M  V30 2032 C 194.878 -1.84038 0.844759 0
M  V30 2033 C 195.206 -1.84026 -0.629668 0
M  V30 2034 O 194.461 -1.28026 -1.48013 0
M  V30 2035 C 194.76 -3.31462 1.33669 0
M  V30 2036 C 194.426 -3.51647 2.82232 0
M  V30 2037 C 193.088 -3.56864 3.22802 0
M  V30 2038 C 195.44 -3.58867 3.77974 0
M  V30 2039 C 192.768 -3.66844 4.57867 0
M  V30 2040 C 195.12 -3.70375 5.1284 0
M  V30 2041 C 193.784 -3.73848 5.52986 0
M  V30 2042 H 193.054 -0.673444 0.309119 0
M  V30 2043 H 195.701 -1.32824 1.37949 0
M  V30 2044 H 194.006 -3.85091 0.721949 0
M  V30 2045 H 195.703 -3.85236 1.11329 0
M  V30 2046 H 192.293 -3.48249 2.49842 0
M  V30 2047 H 196.477 -3.54107 3.47738 0
M  V30 2048 H 191.733 -3.67804 4.88396 0
M  V30 2049 H 195.907 -3.74904 5.86873 0
M  V30 2050 H 193.534 -3.81333 6.57639 0
M  V30 2051 N 195.109 -0.891671 -1.2995 0
M  V30 2052 C 196.041 -0.320695 -2.26945 0
M  V30 2053 C 197.054 0.528497 -1.53983 0
M  V30 2054 O 198.243 0.346959 -1.75096 0
M  V30 2055 C 195.343 0.562066 -3.34207 0
M  V30 2056 C 194.516 -0.259576 -4.36629 0
M  V30 2057 C 193.575 0.554739 -5.23268 0
M  V30 2058 O 192.601 -0.0249311 -5.69195 0
M  V30 2059 N 193.803 1.8625 -5.4981 0
M  V30 2060 H 196.568 -1.15432 -2.76578 0
M  V30 2061 H 194.129 -0.755336 -1.432 0
M  V30 2062 H 196.121 1.11304 -3.89093 0
M  V30 2063 H 194.691 1.29637 -2.84452 0
M  V30 2064 H 193.911 -0.991986 -3.81514 0
M  V30 2065 H 195.199 -0.822564 -5.02107 0
M  V30 2066 H 194.597 2.35628 -5.14292 0
M  V30 2067 H 193.154 2.36078 -6.07545 0
M  V30 2068 N 196.587 1.43421 -0.653314 0
M  V30 2069 C 197.517 2.33487 0.0246656 0
M  V30 2070 C 198.498 1.49475 0.811863 0
M  V30 2071 O 199.683 1.78139 0.773322 0
M  V30 2072 C 196.813 3.32841 0.99166 0
M  V30 2073 C 195.767 4.26842 0.314568 0
M  V30 2074 C 195.093 5.16236 1.39302 0
M  V30 2075 C 196.393 5.16243 -0.793095 0
M  V30 2076 H 198.087 2.90427 -0.727481 0
M  V30 2077 H 195.633 1.39649 -0.351287 0
M  V30 2078 H 197.586 3.94747 1.47487 0
M  V30 2079 H 196.31 2.74158 1.77497 0
M  V30 2080 H 194.969 3.663 -0.148199 0
M  V30 2081 H 194.617 4.53891 2.16776 0
M  V30 2082 H 194.317 5.79948 0.945223 0
M  V30 2083 H 195.841 5.81015 1.87759 0
M  V30 2084 H 197.255 5.71958 -0.392039 0
M  V30 2085 H 195.652 5.88676 -1.16536 0
M  V30 2086 H 196.722 4.55927 -1.65103 0
M  V30 2087 N 198.065 0.39524 1.52563 0
M  V30 2088 C 199.312 -0.185044 2.01653 0
M  V30 2089 C 199.64 -1.46317 1.28146 0
M  V30 2090 O 198.895 -1.9213 0.372074 0
M  V30 2091 C 199.194 -0.493444 3.53977 0
M  V30 2092 C 198.86 0.69384 4.4553 0
M  V30 2093 C 197.522 1.01954 4.70275 0
M  V30 2094 C 199.874 1.48785 4.99512 0
M  V30 2095 C 197.202 2.14069 5.46252 0
M  V30 2096 C 199.554 2.59965 5.76716 0
M  V30 2097 C 198.218 2.93037 5.99738 0
M  V30 2098 H 197.488 -0.0677123 0.7379 0
M  V30 2099 H 200.135 0.533807 1.8391 0
M  V30 2100 H 198.44 -1.29369 3.69825 0
M  V30 2101 H 200.137 -0.955163 3.89458 0
M  V30 2102 H 196.727 0.429987 4.26438 0
M  V30 2103 H 200.911 1.24946 4.80315 0
M  V30 2104 H 196.167 2.40056 5.62302 0
M  V30 2105 H 200.341 3.21887 6.17545 0
M  V30 2106 H 197.968 3.8003 6.58393 0
M  V30 2107 N 199.544 -1.57102 0.125237 0
M  V30 2108 C 200.454 -2.19191 -0.8362 0
M  V30 2109 C 201.47 -1.16985 -1.28805 0
M  V30 2110 O 202.646 -1.49479 -1.34974 0
M  V30 2111 C 199.711 -2.78407 -2.06617 0
M  V30 2112 C 198.772 -3.9567 -1.66565 0
M  V30 2113 C 198.005 -4.52052 -2.83698 0
M  V30 2114 O 198.228 -4.07326 -3.99302 0
M  V30 2115 O 197.162 -5.42645 -2.60423 0
M  V30 2116 H 200.988 -3.01816 -0.337776 0
M  V30 2117 H 198.573 -1.4906 -0.100695 0
M  V30 2118 H 200.455 -3.16129 -2.7864 0
M  V30 2119 H 199.13 -1.9881 -2.55453 0
M  V30 2120 H 198.037 -3.62705 -0.916296 0
M  V30 2121 H 199.37 -4.76722 -1.22464 0
M  V30 2122 N 201.022 0.148545 -1.56898 0
M  V30 2123 C 201.969 1.18345 -1.98149 0
M  V30 2124 C 202.939 1.42772 -0.848848 0
M  V30 2125 O 204.124 1.55132 -1.11079 0
M  V30 2126 C 201.264 2.51231 -2.36594 0
M  V30 2127 C 200.377 2.33991 -3.63142 0
M  V30 2128 C 199.512 3.59902 -3.90697 0
M  V30 2129 C 198.551 3.37692 -5.1052 0
M  V30 2130 N 197.688 4.5573 -5.34092 0
M  V30 2131 H 202.528 0.82467 -2.86362 0
M  V30 2132 H 200.065 0.395756 -1.41676 0
M  V30 2133 H 202.023 3.28713 -2.56912 0
M  V30 2134 H 200.653 2.85059 -1.51463 0
M  V30 2135 H 199.705 1.47572 -3.50609 0
M  V30 2136 H 201.017 2.13539 -4.5078 0
M  V30 2137 H 200.171 4.45813 -4.11505 0
M  V30 2138 H 198.91 3.83357 -3.01477 0
M  V30 2139 H 197.915 2.5017 -4.89587 0
M  V30 2140 H 199.14 3.15637 -6.0129 0
M  V30 2141 H 197.086 4.79361 -4.47827 0
M  V30 2142 H 197.003 4.38274 -6.15996 0
M  V30 2143 H 198.271 5.42858 -5.59397 0
M  V30 2144 N 202.5 1.5196 0.417844 0
M  V30 2145 C 203.748 1.65263 1.16329 0
M  V30 2146 C 204.069 0.380634 1.91249 0
M  V30 2147 O 203.339 -0.604214 1.86349 0
M  V30 2148 H 201.919 0.60912 0.432414 0
M  V30 2149 H 204.581 1.88969 0.477162 0
M  V30 2150 H 203.677 2.4896 1.88217 0
M  V30 2151 N 203.978 -0.674533 1.42435 0
M  V30 2152 C 205.255 -1.4305 1.33402 0
M  V30 2153 C 205.635 -2.11081 -0.0284674 0
M  V30 2154 O 204.983 -2.03257 -1.04397 0
M  V30 2155 C 205.193 -2.43272 2.50239 0
M  V30 2156 C 206.541 -3.07907 2.92367 0
M  V30 2157 O 207.565 -2.53599 2.50132 0
M  V30 2158 O 206.424 -4.0632 3.65467 0
M  V30 2159 H 203.518 -0.638076 0.526106 0
M  V30 2160 H 206.064 -0.703235 1.54443 0
M  V30 2161 H 204.836 -1.91803 3.41068 0
M  V30 2162 H 204.459 -3.23479 2.31186 0
M  V30 2163 N 205.456 -1.28612 -0.910864 0
M  V30 2164 C 206.702 -1.16106 -1.66274 0
M  V30 2165 C 207.035 0.289113 -1.92036 0
M  V30 2166 O 206.31 1.21 -1.52281 0
M  V30 2167 C 206.593 -1.96309 -3.01885 0
M  V30 2168 C 206.446 -3.49405 -2.8326 0
M  V30 2169 C 207.765 -1.78076 -4.02463 0
M  V30 2170 H 204.884 -0.423152 -0.603417 0
M  V30 2171 H 207.526 -1.57961 -1.05586 0
M  V30 2172 H 205.676 -1.60742 -3.53687 0
M  V30 2173 H 207.348 -3.94894 -2.38446 0
M  V30 2174 H 205.591 -3.74893 -2.18261 0
M  V30 2175 H 206.262 -4.00784 -3.79574 0
M  V30 2176 H 208.738 -2.0912 -3.59733 0
M  V30 2177 H 207.614 -2.36561 -4.95308 0
M  V30 2178 H 207.875 -0.733008 -4.35981 0
M  V30 2179 N 206.934 1.1197 -1.10907 0
M  V30 2180 C 207.882 2.19927 -0.757303 0
M  V30 2181 C 208.876 1.67564 0.248747 0
M  V30 2182 O 210.082 1.79672 0.108605 0
M  V30 2183 H 206.457 0.716925 -0.226987 0
M  V30 2184 H 208.428 2.46847 -1.67658 0
M  V30 2185 C 207.177 3.47061 -0.210671 0
M  V30 2186 H 206.5 3.87703 -0.976049 0
M  V30 2187 H 207.94 4.24 -0.0026584 0
M  V30 2188 C 206.399 3.19864 1.05777 0
M  V30 2189 O 206.929 3.40049 2.13845 0
M  V30 2190 N 205.135 2.73636 0.978349 0
M  V30 2191 H 204.682 2.5741 0.0988246 0
M  V30 2192 H 204.64 2.55815 1.82773 0
M  V30 2193 N 208.412 0.89855 1.29475 0
M  V30 2194 C 209.66 0.522847 1.9522 0
M  V30 2195 C 209.981 -0.93371 1.71192 0
M  V30 2196 O 209.251 -1.65823 1.04305 0
M  V30 2197 H 207.831 0.190366 0.722336 0
M  V30 2198 H 210.493 1.14459 1.5775 0
M  V30 2199 H 209.589 0.704476 3.04045 0
M  V30 2200 N 209.89 -1.43072 0.660911 0
M  V30 2201 C 210.8 -2.34585 -0.0264163 0
M  V30 2202 C 211.816 -1.54316 -0.803898 0
M  V30 2203 O 212.992 -1.86939 -0.749391 0
M  V30 2204 C 210.057 -3.32689 -0.975639 0
M  V30 2205 C 209.118 -4.2886 -0.194236 0
M  V30 2206 C 208.351 -5.22278 -1.09825 0
M  V30 2207 O 208.574 -5.20299 -2.33763 0
M  V30 2208 O 207.508 -5.99228 -0.566513 0
M  V30 2209 H 211.334 -2.94869 0.727034 0
M  V30 2210 H 208.919 -1.43342 0.42111 0
M  V30 2211 H 210.801 -3.92995 -1.52094 0
M  V30 2212 H 209.476 -2.74898 -1.70918 0
M  V30 2213 H 208.383 -3.72011 0.394835 0
M  V30 2214 H 209.716 -4.89655 0.499899 0
M  V30 2215 N 211.368 -0.403325 -1.52352 0
M  V30 2216 C 212.315 0.425011 -2.26853 0
M  V30 2217 C 213.285 1.04598 -1.29029 0
M  V30 2218 O 214.47 1.07135 -1.57882 0
M  V30 2219 C 211.61 1.53888 -3.08889 0
M  V30 2220 C 210.723 0.939396 -4.21663 0
M  V30 2221 C 209.858 2.02547 -4.91068 0
M  V30 2222 C 208.897 1.40263 -5.95813 0
M  V30 2223 N 208.034 2.4286 -6.58759 0
M  V30 2224 H 212.874 -0.21674 -2.97211 0
M  V30 2225 H 210.411 -0.118722 -1.4662 0
M  V30 2226 H 212.369 2.19558 -3.54753 0
M  V30 2227 H 210.999 2.15074 -2.40714 0
M  V30 2228 H 210.051 0.171898 -3.80011 0
M  V30 2229 H 211.363 0.44436 -4.96817 0
M  V30 2230 H 210.517 2.75958 -5.40308 0
M  V30 2231 H 209.256 2.55415 -4.15469 0
M  V30 2232 H 208.261 0.653833 -5.45898 0
M  V30 2233 H 209.486 0.881719 -6.73352 0
M  V30 2234 H 207.432 2.94871 -5.85992 0
M  V30 2235 H 207.349 1.98152 -7.2957 0
M  V30 2236 H 208.617 3.15858 -7.12639 0
M  V30 2237 N 212.846 1.57033 -0.133567 0
M  V30 2238 C 213.756 2.19632 0.824564 0
M  V30 2239 C 214.772 1.17666 1.28182 0
M  V30 2240 O 215.948 1.50193 1.3418 0
M  V30 2241 C 213.013 2.79499 2.05137 0
M  V30 2242 C 212.074 3.96548 1.64464 0
M  V30 2243 C 211.307 4.5355 2.81297 0
M  V30 2244 O 211.53 4.09438 3.97136 0
M  V30 2245 O 210.464 5.44018 2.57542 0
M  V30 2246 H 214.29 3.01991 0.321766 0
M  V30 2247 H 211.875 1.49112 0.0927889 0
M  V30 2248 H 213.757 3.17602 2.7696 0
M  V30 2249 H 212.432 2.00162 2.54395 0
M  V30 2250 H 211.339 3.63186 0.897048 0
M  V30 2251 H 212.672 4.77364 1.19934 0
M  V30 2252 N 214.325 -0.140222 1.56975 0
M  V30 2253 C 215.257 -1.19818 1.95388 0
M  V30 2254 C 216.27 -1.38816 0.850525 0
M  V30 2255 O 217.459 -1.38267 1.12891 0
M  V30 2256 C 214.559 -2.56189 2.21857 0
M  V30 2257 C 213.732 -2.58077 3.5315 0
M  V30 2258 C 212.791 -3.76037 3.6808 0
M  V30 2259 O 211.817 -3.60598 4.40406 0
M  V30 2260 N 213.019 -4.93763 3.05251 0
M  V30 2261 H 215.784 -0.871609 2.86746 0
M  V30 2262 H 213.345 -0.32972 1.58507 0
M  V30 2263 H 215.337 -3.33623 2.2908 0
M  V30 2264 H 213.907 -2.81111 1.36731 0
M  V30 2265 H 213.127 -1.6651 3.57307 0
M  V30 2266 H 214.415 -2.56377 4.39486 0
M  V30 2267 H 213.813 -5.09209 2.46419 0
M  V30 2268 H 212.37 -5.68949 3.18026 0
M  V30 2269 N 215.803 -1.52179 -0.40978 0
M  V30 2270 C 216.75 -1.75475 -1.49924 0
M  V30 2271 C 217.72 -0.597175 -1.54994 0
M  V30 2272 O 218.905 -0.834655 -1.71575 0
M  V30 2273 C 216.045 -1.9107 -2.87378 0
M  V30 2274 C 215.158 -3.18717 -2.91622 0
M  V30 2275 C 214.293 -3.24747 -4.20372 0
M  V30 2276 C 213.332 -4.46598 -4.18588 0
M  V30 2277 N 212.469 -4.50025 -5.38908 0
M  V30 2278 H 217.309 -2.68458 -1.29361 0
M  V30 2279 H 214.846 -1.33024 -0.627934 0
M  V30 2280 H 216.804 -1.98096 -3.6717 0
M  V30 2281 H 215.434 -1.01469 -3.06437 0
M  V30 2282 H 214.486 -3.20866 -2.04326 0
M  V30 2283 H 215.798 -4.08544 -2.86169 0
M  V30 2284 H 214.952 -3.30841 -5.08556 0
M  V30 2285 H 213.691 -2.32857 -4.28519 0
M  V30 2286 H 212.696 -4.40652 -3.28794 0
M  V30 2287 H 213.921 -5.39783 -4.12081 0
M  V30 2288 H 211.867 -3.61017 -5.47725 0
M  V30 2289 H 211.784 -5.33697 -5.35447 0
M  V30 2290 H 213.052 -4.60347 -6.29048 0
M  V30 2291 N 217.281 0.66697 -1.42791 0
M  V30 2292 C 218.527 1.4291 -1.43891 0
M  V30 2293 C 218.86 1.94114 -0.0578972 0
M  V30 2294 O 218.135 1.71414 0.91911 0
M  V30 2295 C 218.418 2.62049 -2.46987 0
M  V30 2296 C 218.271 2.16426 -3.94309 0
M  V30 2297 C 219.59 3.64266 -2.46978 0
M  V30 2298 H 216.709 0.518306 -0.523954 0
M  V30 2299 H 219.351 0.757321 -1.74255 0
M  V30 2300 H 217.501 3.19361 -2.21225 0
M  V30 2301 H 219.173 1.64221 -4.31079 0
M  V30 2302 H 217.416 1.47925 -4.078 0
M  V30 2303 H 218.087 3.02038 -4.62036 0
M  V30 2304 H 220.563 3.16686 -2.69906 0
M  V30 2305 H 219.439 4.45196 -3.21079 0
M  V30 2306 H 219.7 4.15927 -1.49857 0
M  V30 2307 N 218.759 1.29093 0.90403 0
M  V30 2308 C 220.006 1.16813 1.65411 0
M  V30 2309 C 220.334 -0.28128 1.92455 0
M  V30 2310 O 219.589 -1.22006 1.53013 0
M  V30 2311 C 219.888 1.92224 3.01305 0
M  V30 2312 C 219.554 3.41968 2.93885 0
M  V30 2313 C 218.216 3.82807 2.91569 0
M  V30 2314 C 220.568 4.37409 2.83413 0
M  V30 2315 C 217.896 5.1741 2.76594 0
M  V30 2316 C 220.248 5.72097 2.69977 0
M  V30 2317 C 218.912 6.12199 2.66024 0
M  V30 2318 H 218.182 0.42745 0.605283 0
M  V30 2319 H 220.829 1.59981 1.05254 0
M  V30 2320 H 219.134 1.41635 3.65304 0
M  V30 2321 H 220.831 1.80131 3.58265 0
M  V30 2322 H 217.421 3.09504 2.96488 0
M  V30 2323 H 221.605 4.06813 2.84283 0
M  V30 2324 H 216.861 5.47596 2.71935 0
M  V30 2325 H 221.035 6.45704 2.60844 0
M  V30 2326 H 218.662 7.16448 2.54178 0
M  V30 2327 N 220.237 -1.11381 1.11499 0
M  V30 2328 C 221.465 -1.86934 0.88675 0
M  V30 2329 C 221.88 -1.80195 -0.563476 0
M  V30 2330 O 221.237 -1.18367 -1.38908 0
M  V30 2331 C 221.288 -3.35722 1.34064 0
M  V30 2332 O 221.009 -3.4232 2.73401 0
M  V30 2333 C 222.51 -4.2818 1.14791 0
M  V30 2334 H 219.73 -0.591117 0.317523 0
M  V30 2335 H 222.274 -1.40865 1.48248 0
M  V30 2336 H 220.429 -3.79294 0.788355 0
M  V30 2337 H 220.843 -4.34971 2.93087 0
M  V30 2338 H 222.317 -5.30817 1.5145 0
M  V30 2339 H 222.794 -4.39113 0.0875279 0
M  V30 2340 H 223.4 -3.90402 1.68721 0
M  V30 2341 N 221.715 -0.905404 -1.28997 0
M  V30 2342 C 222.962 -0.534248 -1.95325 0
M  V30 2343 C 223.29 0.920535 -1.71337 0
M  V30 2344 O 222.545 1.66861 -1.02254 0
M  V30 2345 C 222.844 -0.779906 -3.48787 0
M  V30 2346 C 222.51 -2.21293 -3.92861 0
M  V30 2347 C 221.172 -2.60475 -4.04606 0
M  V30 2348 C 223.524 -3.14587 -4.15553 0
M  V30 2349 C 220.852 -3.9212 -4.36416 0
M  V30 2350 C 223.204 -4.45787 -4.48839 0
M  V30 2351 C 221.868 -4.84834 -4.58794 0
M  V30 2352 H 221.138 -0.195495 -0.714747 0
M  V30 2353 H 223.785 -1.14514 -1.53488 0
M  V30 2354 H 222.09 -0.0861365 -3.91705 0
M  V30 2355 H 223.787 -0.472029 -3.98212 0
M  V30 2356 H 220.377 -1.89887 -3.84241 0
M  V30 2357 H 224.561 -2.85528 -4.0594 0
M  V30 2358 H 219.817 -4.22086 -4.42327 0
M  V30 2359 H 223.991 -5.18098 -4.65346 0
M  V30 2360 H 221.618 -5.86877 -4.83197 0
M  V30 2361 N 223.193 1.4272 -0.668489 0
M  V30 2362 C 224.123 2.335 -0.000100175 0
M  V30 2363 C 225.104 1.50328 0.795964 0
M  V30 2364 O 226.289 1.78949 0.754385 0
M  V30 2365 C 223.419 3.33874 0.956302 0
M  V30 2366 C 222.373 4.27152 0.269278 0
M  V30 2367 C 221.699 5.17684 1.33818 0
M  V30 2368 C 222.999 5.15373 -0.847805 0
M  V30 2369 H 224.693 2.89639 -0.758244 0
M  V30 2370 H 222.239 1.39269 -0.366079 0
M  V30 2371 H 224.192 3.9629 1.43292 0
M  V30 2372 H 222.916 2.76025 1.74579 0
M  V30 2373 H 221.575 3.66123 -0.187042 0
M  V30 2374 H 221.223 4.56165 2.1195 0
M  V30 2375 H 220.923 5.80918 0.883659 0
M  V30 2376 H 222.447 5.82974 1.81586 0
M  V30 2377 H 223.861 5.7151 -0.452681 0
M  V30 2378 H 222.258 5.87407 -1.22773 0
M  V30 2379 H 223.328 4.5415 -1.69929 0
M  V30 2380 N 224.671 0.411399 1.52136 0
M  V30 2381 C 225.618 -0.412975 2.27075 0
M  V30 2382 C 226.588 -1.03912 1.29582 0
M  V30 2383 O 227.773 -1.06296 1.58448 0
M  V30 2384 C 224.913 -1.52247 3.09701 0
M  V30 2385 C 224.026 -0.917021 4.22155 0
M  V30 2386 C 223.161 -1.9994 4.92135 0
M  V30 2387 C 222.2 -1.37101 5.96548 0
M  V30 2388 N 221.337 -2.39364 6.60038 0
M  V30 2389 H 226.177 0.232499 2.97092 0
M  V30 2390 H 223.714 0.126496 1.46555 0
M  V30 2391 H 225.672 -2.17674 3.55913 0
M  V30 2392 H 224.302 -2.13794 2.41851 0
M  V30 2393 H 223.354 -0.151742 3.80097 0
M  V30 2394 H 224.666 -0.418006 4.97045 0
M  V30 2395 H 223.82 -2.73088 5.41763 0
M  V30 2396 H 222.559 -2.53208 4.16818 0
M  V30 2397 H 221.564 -0.624873 5.46237 0
M  V30 2398 H 222.789 -0.845998 6.7381 0
M  V30 2399 H 220.735 -2.91759 5.87548 0
M  V30 2400 H 220.652 -1.9428 7.3061 0
M  V30 2401 H 221.92 -3.12074 7.14304 0
M  V30 2402 N 226.149 -1.5696 0.141893 0
M  V30 2403 C 227.097 -2.17784 -0.816874 0
M  V30 2404 C 228.091 -1.1334 -1.25899 0
M  V30 2405 O 229.297 -1.316 -1.22806 0
M  V30 2406 H 225.672 -0.697278 -0.281615 0
M  V30 2407 H 227.643 -2.97087 -0.279621 0
M  V30 2408 C 226.392 -2.80983 -2.04802 0
M  V30 2409 H 225.715 -3.61062 -1.7168 0
M  V30 2410 H 227.155 -3.2705 -2.69841 0
M  V30 2411 C 225.614 -1.79228 -2.8527 0
M  V30 2412 O 226.144 -1.25962 -3.8144 0
M  V30 2413 N 224.35 -1.48647 -2.49704 0
M  V30 2414 H 223.897 -1.92155 -1.71564 0
M  V30 2415 H 223.855 -0.808115 -3.03837 0
M  V30 2416 N 227.627 0.131896 -1.57047 0
M  V30 2417 C 228.852 0.860418 -1.8871 0
M  V30 2418 C 229.277 1.73251 -0.73251 0
M  V30 2419 O 228.635 1.785 0.317429 0
M  V30 2420 C 228.683 1.68047 -3.19049 0
M  V30 2421 O 227.787 2.7862 -3.04047 0
M  V30 2422 H 227.128 0.238743 -0.619595 0
M  V30 2423 H 229.658 0.118169 -2.04258 0
M  V30 2424 H 229.668 2.07238 -3.51449 0
M  V30 2425 H 228.343 1.04018 -4.02682 0
M  V30 2426 H 226.92 2.42726 -2.83088 0
M  V30 2427 N 229.106 1.52395 0.401703 0
M  V30 2428 C 230.346 1.68498 1.15705 0
M  V30 2429 C 230.71 0.409748 1.87577 0
M  V30 2430 O 231.911 0.446983 2.65058 0
M  V30 2431 C 230.182 2.87789 2.11924 0
M  V30 2432 S 231.741 3.24415 2.95466 0
M  V30 2433 H 228.559 0.593267 0.391862 0
M  V30 2434 H 231.161 1.90408 0.443282 0
M  V30 2435 H 229.865 3.7884 1.57824 0
M  V30 2436 H 229.396 2.68175 2.87829 0
M  V30 2437 H 231.411 2.73614 4.13944 0
M  V30 2438 N 230.584 -0.659388 1.43143 0
M  V30 2439 C 231.995 -1.24041 1.39537 0
M  V30 2440 C 232.346 -1.95963 0.0963364 0
M  V30 2441 O 231.471 -2.00892 -0.804438 0
M  V30 2442 C 232.066 -2.25601 2.52764 0
M  V30 2443 C 230.625 -2.79195 2.52443 0
M  V30 2444 C 229.772 -1.53743 2.30778 0
M  V30 2445 H 232.723 -0.451792 1.52133 0
M  V30 2446 H 232.744 -3.07651 2.23899 0
M  V30 2447 H 232.256 -1.73226 3.47296 0
M  V30 2448 H 230.357 -3.35649 1.61773 0
M  V30 2449 H 230.47 -3.2716 3.50004 0
M  V30 2450 H 228.834 -1.80869 1.79328 0
M  V30 2451 H 229.617 -1.03312 3.27386 0
M  V30 2452 N 232.062 -1.29571 -0.897171 0
M  V30 2453 C 233.473 -1.15964 -1.46319 0
M  V30 2454 C 233.824 0.244267 -1.94674 0
M  V30 2455 O 232.949 1.13998 -1.83939 0
M  V30 2456 C 233.544 -2.09906 -2.65942 0
M  V30 2457 C 232.103 -2.00314 -3.18671 0
M  V30 2458 C 231.25 -2.00687 -1.91363 0
M  V30 2459 H 234.201 -1.42019 -0.708268 0
M  V30 2460 H 234.222 -1.67276 -3.41759 0
M  V30 2461 H 233.734 -3.12075 -2.30718 0
M  V30 2462 H 231.835 -1.01242 -3.58582 0
M  V30 2463 H 231.948 -2.88102 -3.82798 0
M  V30 2464 H 230.312 -1.45319 -2.09175 0
M  V30 2465 H 231.095 -3.04566 -1.58413 0
M  V30 2466 N 233.54 1.10788 -1.12088 0
M  V30 2467 C 234.768 1.86461 -0.896651 0
M  V30 2468 C 235.183 1.80492 0.553912 0
M  V30 2469 O 234.54 1.19102 1.38278 0
M  V30 2470 C 234.591 3.35006 -1.35843 0
M  V30 2471 O 234.312 3.40866 -2.75213 0
M  V30 2472 C 235.813 4.27565 -1.1706 0
M  V30 2473 H 233.033 0.589425 -0.320654 0
M  V30 2474 H 235.577 1.40076 -1.48993 0
M  V30 2475 H 233.732 3.7887 -0.808458 0
M  V30 2476 H 234.146 4.33411 -2.9539 0
M  V30 2477 H 235.62 5.30007 -1.54263 0
M  V30 2478 H 236.097 4.3906 -0.110814 0
M  V30 2479 H 236.703 3.89501 -1.70789 0
M  V30 2480 N 235.018 0.912232 1.28515 0
M  V30 2481 C 236.243 0.559774 1.99703 0
M  V30 2482 C 236.668 -0.851393 1.67729 0
M  V30 2483 O 236.026 -1.56875 0.908834 0
M  V30 2484 C 236.074 0.773874 3.52198 0
M  V30 2485 O 235.178 -0.167842 4.12058 0
M  V30 2486 H 234.519 0.21723 0.627461 0
M  V30 2487 H 237.049 1.22725 1.63706 0
M  V30 2488 H 237.059 0.683386 4.02236 0
M  V30 2489 H 235.734 1.80261 3.74805 0
M  V30 2490 H 234.311 -0.0287509 3.72889 0
M  V30 2491 N 236.496 -1.42363 0.676048 0
M  V30 2492 C 237.773 -1.95183 0.127726 0
M  V30 2493 C 238.153 -1.61641 -1.35777 0
M  V30 2494 O 237.501 -0.913216 -2.09458 0
M  V30 2495 C 237.711 -3.46721 0.398199 0
M  V30 2496 C 239.059 -4.23427 0.315383 0
M  V30 2497 O 240.083 -3.54649 0.332016 0
M  V30 2498 O 238.942 -5.45888 0.25865 0
M  V30 2499 H 236.036 -0.826992 0.00359427 0
M  V30 2500 H 238.582 -1.52184 0.750864 0
M  V30 2501 H 237.354 -3.64344 1.4272 0
M  V30 2502 H 236.977 -3.96769 -0.256885 0
M  V30 2503 N 237.974 -0.419461 -1.51915 0
M  V30 2504 C 238.904 0.391813 -2.30189 0
M  V30 2505 C 239.885 1.03699 -1.34836 0
M  V30 2506 O 241.07 1.04403 -1.63748 0
M  V30 2507 C 238.2 1.50312 -3.13087 0
M  V30 2508 C 237.154 0.9824 -4.16573 0
M  V30 2509 C 236.48 2.18809 -4.8788 0
M  V30 2510 C 237.78 0.0292356 -5.22292 0
M  V30 2511 H 239.474 -0.26135 -2.98257 0
M  V30 2512 H 237.02 -0.127134 -1.43438 0
M  V30 2513 H 238.973 2.07773 -3.66617 0
M  V30 2514 H 237.697 2.18431 -2.42807 0
M  V30 2515 H 236.356 0.430119 -3.64068 0
M  V30 2516 H 236.004 2.85507 -4.14119 0
M  V30 2517 H 235.704 1.84615 -5.57845 0
M  V30 2518 H 237.228 2.76858 -5.44226 0
M  V30 2519 H 238.642 0.512976 -5.71 0
M  V30 2520 H 237.039 -0.2244 -5.9968 0
M  V30 2521 H 238.109 -0.912931 -4.76228 0
M  V30 2522 N 239.452 1.56882 -0.150215 0
M  V30 2523 C 240.382 2.19935 0.784284 0
M  V30 2524 C 241.363 1.14854 1.25469 0
M  V30 2525 O 242.548 1.43209 1.31168 0
M  V30 2526 C 239.678 2.82349 2.02229 0
M  V30 2527 C 238.632 3.93285 1.68853 0
M  V30 2528 C 237.958 4.42649 2.99944 0
M  V30 2529 C 239.258 5.13904 0.932714 0
M  V30 2530 H 240.952 2.9828 0.258781 0
M  V30 2531 H 238.498 1.43473 0.123029 0
M  V30 2532 H 240.451 3.25126 2.68088 0
M  V30 2533 H 239.175 2.0134 2.57157 0
M  V30 2534 H 237.834 3.5113 1.05371 0
M  V30 2535 H 237.482 3.58458 3.52869 0
M  V30 2536 H 237.182 5.17476 2.78374 0
M  V30 2537 H 238.706 4.88099 3.66868 0
M  V30 2538 H 240.12 5.53506 1.49345 0
M  V30 2539 H 238.517 5.94515 0.81684 0
M  V30 2540 H 239.587 4.84842 -0.0749568 0
M  V30 2541 N 240.93 -0.123565 1.57115 0
M  V30 2542 C 242.178 -0.83051 1.84247 0
M  V30 2543 C 242.499 -1.80629 0.73471 0
M  V30 2544 O 241.769 -1.94403 -0.241688 0
M  V30 2545 H 240.349 -0.309694 0.679778 0
M  V30 2546 H 243.011 -0.111976 1.94578 0
M  V30 2547 H 242.107 -1.37852 2.80006 0
M  V30 2548 N 242.408 -1.52605 -0.393616 0
M  V30 2549 C 243.633 -1.71592 -1.16495 0
M  V30 2550 C 244.058 -0.43133 -1.83088 0
M  V30 2551 O 243.416 0.612523 -1.7064 0
M  V30 2552 C 243.464 -2.86318 -2.19213 0
M  V30 2553 O 242.568 -2.52969 -3.257 0
M  V30 2554 H 241.909 -0.570734 -0.33935 0
M  V30 2555 H 244.439 -1.99377 -0.459324 0
M  V30 2556 H 244.449 -3.1168 -2.63286 0
M  V30 2557 H 243.124 -3.79511 -1.7013 0
M  V30 2558 H 241.701 -2.38332 -2.86797 0
M  V30 2559 N 243.887 0.651787 -1.4349 0
M  V30 2560 C 245.112 1.44434 -1.48841 0
M  V30 2561 C 245.537 1.8779 -0.107955 0
M  V30 2562 O 244.895 1.57464 0.898602 0
M  V30 2563 C 244.943 2.65458 -2.44059 0
M  V30 2564 O 244.047 3.64566 -1.92784 0
M  V30 2565 H 243.388 0.433005 -0.503391 0
M  V30 2566 H 245.918 0.797451 -1.88419 0
M  V30 2567 H 245.928 3.13255 -2.6141 0
M  V30 2568 H 244.603 2.33244 -3.4434 0
M  V30 2569 H 243.18 3.23716 -1.851 0
M  V30 2570 N 245.365 1.30045 0.890287 0
M  V30 2571 C 246.59 1.21598 1.68014 0
M  V30 2572 C 247.015 -0.218678 1.86825 0
M  V30 2573 O 246.373 -1.15756 1.39536 0
M  V30 2574 C 246.421 1.94434 3.03691 0
M  V30 2575 O 245.525 1.2678 3.92429 0
M  V30 2576 H 244.866 0.420856 0.513592 0
M  V30 2577 H 247.396 1.71775 1.11151 0
M  V30 2578 H 247.406 2.03251 3.5377 0
M  V30 2579 H 246.081 2.98777 2.89318 0
M  V30 2580 H 244.658 1.26282 3.50866 0
M  V30 2581 N 246.843 -1.10192 1.12674 0
M  V30 2582 C 247.775 -2.16418 0.754701 0
M  V30 2583 C 248.788 -1.61309 -0.21986 0
M  V30 2584 O 249.977 -1.785 -0.000826841 0
M  V30 2585 C 247.077 -3.38762 0.096698 0
M  V30 2586 C 246.25 -4.23307 1.10136 0
M  V30 2587 C 245.309 -5.24092 0.470513 0
M  V30 2588 O 244.335 -5.57906 1.12824 0
M  V30 2589 N 245.537 -5.75491 -0.760948 0
M  V30 2590 H 248.302 -2.48943 1.66875 0
M  V30 2591 H 245.863 -1.25834 1.01869 0
M  V30 2592 H 247.855 -4.03291 -0.337384 0
M  V30 2593 H 246.425 -3.04192 -0.720153 0
M  V30 2594 H 245.645 -3.55036 1.71299 0
M  V30 2595 H 246.933 -4.76624 1.78064 0
M  V30 2596 H 246.331 -5.50222 -1.31424 0
M  V30 2597 H 244.888 -6.41792 -1.13781 0
M  V30 2598 N 248.321 -0.919034 -1.28029 0
M  V30 2599 C 249.251 -0.428581 -2.29533 0
M  V30 2600 C 250.232 0.50659 -1.62381 0
M  V30 2601 O 251.417 0.413195 -1.89753 0
M  V30 2602 C 248.547 0.327388 -3.45753 0
M  V30 2603 C 247.501 -0.519137 -4.2484 0
M  V30 2604 C 246.827 0.365486 -5.33449 0
M  V30 2605 C 248.127 -1.77914 -4.91064 0
M  V30 2606 H 249.821 -1.27687 -2.70807 0
M  V30 2607 H 247.367 -0.615428 -1.30186 0
M  V30 2608 H 249.32 0.681378 -4.15855 0
M  V30 2609 H 248.044 1.20963 -3.03374 0
M  V30 2610 H 246.703 -0.855717 -3.56473 0
M  V30 2611 H 246.351 1.24642 -4.87312 0
M  V30 2612 H 246.051 -0.197356 -5.87268 0
M  V30 2613 H 247.575 0.715241 -6.06396 0
M  V30 2614 H 248.989 -1.49374 -5.53498 0
M  V30 2615 H 247.386 -2.2848 -5.54903 0
M  V30 2616 H 248.456 -2.50382 -4.15255 0
M  V30 2617 N 249.799 1.42003 -0.683588 0
M  V30 2618 C 251.046 2.01413 -0.209514 0
M  V30 2619 C 251.374 1.54088 1.1869 0
M  V30 2620 O 250.629 0.737591 1.81268 0
M  V30 2621 C 250.928 3.56827 -0.202357 0
M  V30 2622 C 250.594 4.23617 -1.54464 0
M  V30 2623 C 249.256 4.41577 -1.91215 0
M  V30 2624 C 251.608 4.61178 -2.42826 0
M  V30 2625 C 248.936 4.9437 -3.15935 0
M  V30 2626 C 251.288 5.15355 -3.66867 0
M  V30 2627 C 249.952 5.31528 -4.03776 0
M  V30 2628 H 249.222 0.737023 -0.0766668 0
M  V30 2629 H 251.869 1.70067 -0.880312 0
M  V30 2630 H 250.174 3.87892 0.551969 0
M  V30 2631 H 251.871 4.00588 0.181793 0
M  V30 2632 H 248.461 4.10004 -1.24877 0
M  V30 2633 H 252.645 4.46968 -2.15717 0
M  V30 2634 H 247.901 5.05076 -3.44541 0
M  V30 2635 H 252.075 5.43402 -4.35531 0
M  V30 2636 H 249.702 5.72199 -5.00492 0
M  V30 2637 N 251.277 0.427512 1.51691 0
M  V30 2638 C 252.523 -0.134744 2.02953 0
M  V30 2639 C 252.878 -1.41235 1.30654 0
M  V30 2640 O 252.171 -1.87168 0.409713 0
M  V30 2641 C 252.365 -0.418249 3.54944 0
M  V30 2642 C 252.194 0.830327 4.41968 0
M  V30 2643 C 250.964 1.36097 4.86627 0
M  V30 2644 C 253.162 1.7137 4.84909 0
M  V30 2645 N 251.144 2.56311 5.57833 0
M  V30 2646 C 252.515 2.76195 5.55082 0
M  V30 2647 C 254.57 1.72928 4.66905 0
M  V30 2648 C 253.273 3.82512 6.09161 0
M  V30 2649 C 255.299 2.78175 5.21894 0
M  V30 2650 C 254.661 3.8172 5.92004 0
M  V30 2651 H 250.76 -0.0103958 0.781931 0
M  V30 2652 H 253.344 0.585981 1.85673 0
M  V30 2653 H 251.515 -1.10801 3.7226 0
M  V30 2654 H 253.247 -0.970999 3.92879 0
M  V30 2655 H 250.002 0.916311 4.64651 0
M  V30 2656 H 250.426 3.17242 5.98069 0
M  V30 2657 H 255.068 0.942081 4.12171 0
M  V30 2658 H 252.786 4.62077 6.62956 0
M  V30 2659 H 256.372 2.8031 5.09821 0
M  V30 2660 H 255.252 4.61821 6.33791 0
M  V30 2661 N 252.755 -1.56801 0.158532 0
M  V30 2662 C 253.665 -2.20916 -0.789518 0
M  V30 2663 C 254.681 -1.1969 -1.26294 0
M  V30 2664 O 255.857 -1.52308 -1.31773 0
M  V30 2665 C 252.922 -2.82727 -2.00665 0
M  V30 2666 C 251.983 -3.99114 -1.58134 0
M  V30 2667 C 251.216 -4.57968 -2.74045 0
M  V30 2668 O 251.439 -4.15704 -3.90572 0
M  V30 2669 O 250.373 -5.48047 -2.48855 0
M  V30 2670 H 254.199 -3.02464 -0.273681 0
M  V30 2671 H 251.784 -1.4924 -0.0690548 0
M  V30 2672 H 253.666 -3.21968 -2.71872 0
M  V30 2673 H 252.341 -2.04184 -2.51179 0
M  V30 2674 H 251.248 -3.64567 -0.839155 0
M  V30 2675 H 252.581 -4.79212 -1.12325 0
M  V30 2676 N 254.233 0.115231 -1.57178 0
M  V30 2677 C 255.644 0.67197 -1.74188 0
M  V30 2678 C 255.995 1.80125 -0.777777 0
M  V30 2679 O 255.12 2.16346 0.0484376 0
M  V30 2680 C 255.715 1.22573 -3.1585 0
M  V30 2681 C 254.274 1.72872 -3.34353 0
M  V30 2682 C 253.421 0.629972 -2.70049 0
M  V30 2683 H 256.372 -0.110712 -1.58313 0
M  V30 2684 H 256.393 2.09535 -3.17609 0
M  V30 2685 H 255.905 0.403598 -3.85996 0
M  V30 2686 H 254.006 2.5755 -2.69256 0
M  V30 2687 H 254.119 1.83557 -4.42542 0
M  V30 2688 H 252.483 1.0645 -2.31388 0
M  V30 2689 H 253.266 -0.181241 -3.42821 0
M  V30 2690 N 255.711 1.52812 0.385517 0
M  V30 2691 C 256.644 1.72592 1.49289 0
M  V30 2692 C 257.622 0.573819 1.52138 0
M  V30 2693 O 258.806 0.80404 1.70492 0
M  V30 2694 C 255.933 1.78669 2.87741 0
M  V30 2695 C 254.979 3.00455 3.02703 0
M  V30 2696 S 255.812 4.60366 2.73538 0
M  V30 2697 C 256.968 4.69263 4.14177 0
M  V30 2698 H 257.201 2.66248 1.32285 0
M  V30 2699 H 254.734 1.43148 0.578611 0
M  V30 2700 H 256.692 1.82855 3.67524 0
M  V30 2701 H 255.353 0.861 3.02069 0
M  V30 2702 H 254.546 3.01258 4.04054 0
M  V30 2703 H 254.148 2.94278 2.30817 0
M  V30 2704 H 256.44 4.48092 5.08153 0
M  V30 2705 H 257.383 5.71276 4.18388 0
M  V30 2706 H 257.791 3.98072 4.00249 0
M  V30 2707 N 257.189 -0.644168 1.43834 0
M  V30 2708 C 258.136 -1.75671 1.49694 0
M  V30 2709 C 259.106 -1.6246 0.345809 0
M  V30 2710 O 260.291 -1.82573 0.554234 0
M  V30 2711 C 257.431 -3.13867 1.43463 0
M  V30 2712 C 256.544 -3.38147 2.6885 0
M  V30 2713 C 255.679 -4.66241 2.54544 0
M  V30 2714 C 254.718 -4.83657 3.75157 0
M  V30 2715 N 253.855 -6.03016 3.59605 0
M  V30 2716 H 258.695 -1.69998 2.44754 0
M  V30 2717 H 256.232 -0.829458 1.21484 0
M  V30 2718 H 258.19 -3.9377 1.37843 0
M  V30 2719 H 256.82 -3.18588 0.519783 0
M  V30 2720 H 255.872 -2.52276 2.84712 0
M  V30 2721 H 257.184 -3.46899 3.58417 0
M  V30 2722 H 256.338 -5.54285 2.46683 0
M  V30 2723 H 255.077 -4.59826 1.62516 0
M  V30 2724 H 254.082 -3.94046 3.83416 0
M  V30 2725 H 255.307 -4.91896 4.68204 0
M  V30 2726 H 253.253 -5.97715 2.7032 0
M  V30 2727 H 253.17 -6.12766 4.42779 0
M  V30 2728 H 254.438 -6.93657 3.55613 0
M  V30 2729 N 258.668 -1.30515 -0.883378 0
M  V30 2730 C 259.914 -1.19607 -1.63774 0
M  V30 2731 C 260.247 0.248314 -1.92606 0
M  V30 2732 O 259.522 1.17742 -1.54813 0
M  V30 2733 C 259.805 -2.02669 -2.97653 0
M  V30 2734 C 259.658 -3.55335 -2.75784 0
M  V30 2735 C 260.977 -1.86573 -3.98596 0
M  V30 2736 H 258.096 -0.435856 -0.594305 0
M  V30 2737 H 260.738 -1.60165 -1.02212 0
M  V30 2738 H 258.888 -1.68208 -3.50197 0
M  V30 2739 H 260.56 -3.99863 -2.30016 0
M  V30 2740 H 258.803 -3.79438 -2.1026 0
M  V30 2741 H 259.474 -4.08745 -3.70988 0
M  V30 2742 H 261.95 -2.16703 -3.55217 0
M  V30 2743 H 260.826 -2.47014 -4.90179 0
M  V30 2744 H 261.087 -0.825321 -4.34328 0
M  V30 2745 N 260.146 1.09593 -1.13257 0
M  V30 2746 C 261.096 2.14345 -0.777179 0
M  V30 2747 C 262.08 1.59277 0.227966 0
M  V30 2748 O 263.272 1.76971 0.0321413 0
M  V30 2749 C 260.401 3.42439 -0.242991 0
M  V30 2750 C 259.487 4.04419 -1.27694 0
M  V30 2751 N 259.878 4.40979 -2.47732 0
M  V30 2752 C 258.176 4.31596 -1.12432 0
M  V30 2753 C 258.877 4.89784 -3.13826 0
M  V30 2754 N 257.853 4.87133 -2.41252 0
M  V30 2755 H 261.655 2.40415 -1.69049 0
M  V30 2756 H 259.169 1.26803 -1.01463 0
M  V30 2757 H 261.166 4.16889 0.0298496 0
M  V30 2758 H 259.826 3.17824 0.66467 0
M  V30 2759 H 260.837 4.32396 -2.85051 0
M  V30 2760 H 257.514 4.16595 -0.274684 0
M  V30 2761 H 258.904 5.2755 -4.16102 0
M  V30 2762 N 261.624 0.925811 1.2754 0
M  V30 2763 C 262.901 0.483726 1.89524 0
M  V30 2764 C 263.281 -1.03809 1.83812 0
M  V30 2765 O 262.629 -1.89143 1.28207 0
M  V30 2766 C 262.839 1.02769 3.33526 0
M  V30 2767 C 264.187 1.08703 4.10449 0
M  V30 2768 O 265.211 0.977175 3.42534 0
M  V30 2769 O 264.07 1.25599 5.31871 0
M  V30 2770 H 261.164 0.15529 0.812289 0
M  V30 2771 H 263.71 1.01738 1.35822 0
M  V30 2772 H 262.482 2.07155 3.31967 0
M  V30 2773 H 262.105 0.475567 3.94746 0
M  V30 2774 N 263.102 -1.41638 0.69111 0
M  V30 2775 C 264.351 -2.00526 0.217318 0
M  V30 2776 C 264.664 -1.55353 -1.18848 0
M  V30 2777 O 265.87 -2.06769 -1.75951 0
M  V30 2778 C 264.326 -3.58313 0.337639 0
M  V30 2779 C 263.934 -4.12469 1.74852 0
M  V30 2780 C 265.678 -4.24431 -0.0766066 0
M  V30 2781 C 263.585 -5.62675 1.82074 0
M  V30 2782 H 262.515 -0.750008 0.0774893 0
M  V30 2783 H 265.166 -1.6217 0.858661 0
M  V30 2784 H 263.548 -3.9425 -0.371879 0
M  V30 2785 H 264.722 -3.8796 2.48644 0
M  V30 2786 H 263.037 -3.58861 2.11205 0
M  V30 2787 H 265.634 -5.34683 -0.0430284 0
M  V30 2788 H 265.977 -4.01101 -1.1146 0
M  V30 2789 H 266.51 -3.93512 0.582476 0
M  V30 2790 H 263.249 -5.90826 2.83911 0
M  V30 2791 H 262.769 -5.89124 1.12661 0
M  V30 2792 H 264.448 -6.27371 1.58159 0
M  V30 2793 N 264.58 -0.43555 -1.51462 0
M  V30 2794 C 265.996 -0.0877501 -1.59359 0
M  V30 2795 C 266.196 1.4027 -1.4466 0
M  V30 2796 O 265.252 2.17243 -1.28693 0
M  V30 2797 C 266.565 -0.606264 -2.94525 0
M  V30 2798 C 268.113 -0.566548 -3.0783 0
M  V30 2799 C 268.588 -1.06201 -4.45517 0
M  V30 2800 N 270.079 -1.01992 -4.51832 0
M  V30 2801 C 270.814 -1.37417 -5.5669 0
M  V30 2802 N 270.31 -1.80119 -6.68976 0
M  V30 2803 N 272.103 -1.29245 -5.47039 0
M  V30 2804 H 264.254 -1.40533 -1.59261 0
M  V30 2805 H 266.517 -0.578992 -0.750648 0
M  V30 2806 H 266.223 -1.64901 -3.10645 0
M  V30 2807 H 266.097 -0.0302097 -3.77188 0
M  V30 2808 H 268.484 0.467208 -2.91378 0
M  V30 2809 H 268.565 -1.17898 -2.2701 0
M  V30 2810 H 268.209 -2.09422 -4.62715 0
M  V30 2811 H 268.139 -0.426127 -5.24873 0
M  V30 2812 H 270.63 -0.706308 -3.71241 0
M  V30 2813 H 270.943 -2.05392 -7.45006 0
M  V30 2814 H 269.288 -1.84044 -6.70189 0
M  V30 2815 H 272.479 -0.957522 -4.58202 0
M  V30 2816 H 272.652 -1.57182 -6.28648 0
M  V30 2817 N 266.058 1.56714 -0.166846 0
M  V30 2818 C 267.304 1.97813 0.473473 0
M  V30 2819 C 267.659 1.05095 1.61161 0
M  V30 2820 O 266.952 0.0897541 1.9139 0
M  V30 2821 C 267.146 3.42889 1.00806 0
M  V30 2822 C 266.975 4.49635 -0.0767392 0
M  V30 2823 C 265.745 5.02566 -0.524894 0
M  V30 2824 C 267.943 5.06793 -0.875504 0
M  V30 2825 N 265.925 5.9294 -1.59047 0
M  V30 2826 C 267.296 5.93565 -1.79111 0
M  V30 2827 C 269.351 4.89306 -0.921083 0
M  V30 2828 C 268.054 6.64721 -2.74843 0
M  V30 2829 C 270.08 5.61179 -1.86633 0
M  V30 2830 C 269.442 6.47675 -2.76942 0
M  V30 2831 H 265.541 0.769093 0.141489 0
M  V30 2832 H 268.125 1.92874 -0.266031 0
M  V30 2833 H 266.296 3.48382 1.7171 0
M  V30 2834 H 268.028 3.71008 1.61664 0
M  V30 2835 H 264.783 4.73439 -0.123432 0
M  V30 2836 H 265.207 6.42831 -2.12361 0
M  V30 2837 H 269.849 4.22136 -0.23692 0
M  V30 2838 H 267.567 7.31107 -3.44249 0
M  V30 2839 H 271.153 5.49636 -1.90764 0
M  V30 2840 H 270.033 7.02313 -3.48893 0
M  V30 2841 N 267.536 -0.106894 1.57237 0
M  V30 2842 C 268.484 -1.14944 2.02215 0
M  V30 2843 C 269.478 -1.42167 0.92114 0
M  V30 2844 O 270.684 -1.41987 1.10634 0
M  V30 2845 H 267.059 -0.387841 0.64427 0
M  V30 2846 H 269.03 -0.743683 2.88984 0
M  V30 2847 C 267.779 -2.4647 2.4525 0
M  V30 2848 H 267.102 -2.26363 3.29545 0
M  V30 2849 H 268.542 -3.17948 2.80508 0
M  V30 2850 C 267.001 -3.09921 1.321 0
M  V30 2851 O 267.531 -3.9651 0.643622 0
M  V30 2852 N 265.737 -2.69986 1.07497 0
M  V30 2853 H 265.284 -1.99667 1.62761 0
M  V30 2854 H 265.242 -3.12769 0.319876 0
M  V30 2855 N 269.014 -1.53014 -0.377408 0
M  V30 2856 C 270.261 -1.68623 -1.12128 0
M  V30 2857 C 270.589 -0.431997 -1.89642 0
M  V30 2858 O 269.844 0.585855 -1.86725 0
M  V30 2859 C 270.143 -2.87982 -2.11663 0
M  V30 2860 C 269.809 -4.24964 -1.50719 0
M  V30 2861 C 268.471 -4.62217 -1.33825 0
M  V30 2862 C 270.823 -5.10199 -1.06519 0
M  V30 2863 C 268.151 -5.82352 -0.712963 0
M  V30 2864 C 270.503 -6.30969 -0.453955 0
M  V30 2865 C 269.167 -6.66944 -0.272411 0
M  V30 2866 H 268.437 -0.617034 -0.410305 0
M  V30 2867 H 271.084 -1.8718 -0.404484 0
M  V30 2868 H 269.389 -2.63889 -2.89603 0
M  V30 2869 H 271.086 -2.97253 -2.6915 0
M  V30 2870 H 267.676 -3.95626 -1.64858 0
M  V30 2871 H 271.86 -4.81978 -1.18368 0
M  V30 2872 H 267.116 -6.08824 -0.560611 0
M  V30 2873 H 271.29 -6.96324 -0.103217 0
M  V30 2874 H 268.917 -7.59898 0.214181 0
M  V30 2875 N 270.492 0.636531 -1.44174 0
M  V30 2876 C 271.402 1.77754 -1.53103 0
M  V30 2877 C 272.418 1.68928 -0.417034 0
M  V30 2878 O 273.594 1.89801 -0.6736 0
M  V30 2879 C 270.659 3.14115 -1.46741 0
M  V30 2880 C 269.72 3.34612 -2.68948 0
M  V30 2881 C 268.953 4.64467 -2.6288 0
M  V30 2882 O 269.176 5.44919 -1.68581 0
M  V30 2883 O 268.11 4.87049 -3.53648 0
M  V30 2884 H 271.936 1.73174 -2.49489 0
M  V30 2885 H 269.521 0.79709 -1.2636 0
M  V30 2886 H 271.403 3.95412 -1.45696 0
M  V30 2887 H 270.078 3.19249 -0.534975 0
M  V30 2888 H 268.985 2.53014 -2.75562 0
M  V30 2889 H 270.318 3.34336 -3.61221 0
M  V30 2890 N 271.97 1.30982 0.876444 0
M  V30 2891 C 272.917 1.18085 1.98304 0
M  V30 2892 C 273.887 0.0682263 1.6596 0
M  V30 2893 O 275.072 0.239937 1.89285 0
M  V30 2894 C 272.212 0.887475 3.33493 0
M  V30 2895 C 271.325 2.08281 3.78475 0
M  V30 2896 C 270.46 1.72678 5.0235 0
M  V30 2897 C 269.499 2.88657 5.39762 0
M  V30 2898 N 268.636 2.53292 6.54819 0
M  V30 2899 H 273.476 2.1275 2.08666 0
M  V30 2900 H 271.013 1.05839 1.02159 0
M  V30 2901 H 272.971 0.697961 4.1132 0
M  V30 2902 H 271.601 -0.022315 3.22792 0
M  V30 2903 H 270.653 2.3833 2.96484 0
M  V30 2904 H 271.965 2.95108 4.02135 0
M  V30 2905 H 271.119 1.50151 5.87826 0
M  V30 2906 H 269.858 0.830327 4.8058 0
M  V30 2907 H 268.863 3.1184 4.52809 0
M  V30 2908 H 270.088 3.79002 5.63502 0
M  V30 2909 H 268.034 1.66163 6.34607 0
M  V30 2910 H 267.951 3.3365 6.7839 0
M  V30 2911 H 269.219 2.34143 7.43503 0
M  V30 2912 N 273.449 -1.08991 1.13837 0
M  V30 2913 C 274.696 -1.81258 0.902882 0
M  V30 2914 C 275.024 -1.85936 -0.570803 0
M  V30 2915 O 274.279 -1.3267 -1.43865 0
M  V30 2916 C 274.578 -3.27042 1.44147 0
M  V30 2917 C 274.244 -3.4249 2.93276 0
M  V30 2918 C 272.906 -3.46414 3.33992 0
M  V30 2919 C 275.258 -3.4666 3.892 0
M  V30 2920 C 272.586 -3.52091 4.69307 0
M  V30 2921 C 274.938 -3.53872 5.24364 0
M  V30 2922 C 273.602 -3.56066 5.646 0
M  V30 2923 H 272.872 -0.663268 0.330388 0
M  V30 2924 H 275.519 -1.28368 1.42105 0
M  V30 2925 H 273.824 -3.82599 0.844097 0
M  V30 2926 H 275.521 -3.81499 1.23528 0
M  V30 2927 H 272.111 -3.40124 2.60794 0
M  V30 2928 H 276.295 -3.42865 3.58828 0
M  V30 2929 H 271.551 -3.52079 4.9985 0
M  V30 2930 H 275.725 -3.56043 5.98503 0
M  V30 2931 H 273.352 -3.60218 6.69438 0
M  V30 2932 N 274.927 -0.932562 -1.27047 0
M  V30 2933 C 275.857 -0.452902 -2.29066 0
M  V30 2934 C 276.838 0.489338 -1.62909 0
M  V30 2935 O 278.023 0.393046 -1.90181 0
M  V30 2936 C 275.153 0.290698 -3.46081 0
M  V30 2937 C 274.107 -0.564168 -4.24265 0
M  V30 2938 C 273.433 0.308886 -5.33807 0
M  V30 2939 C 274.733 -1.83112 -4.89149 0
M  V30 2940 H 276.427 -1.30552 -2.69437 0
M  V30 2941 H 273.973 -0.629201 -1.29526 0
M  V30 2942 H 275.926 0.637233 -4.16554 0
M  V30 2943 H 274.65 1.17738 -3.0464 0
M  V30 2944 H 273.309 -0.893477 -3.55545 0
M  V30 2945 H 272.957 1.19467 -4.88607 0
M  V30 2946 H 272.657 -0.259633 -5.87026 0
M  V30 2947 H 274.181 0.650884 -6.07121 0
M  V30 2948 H 275.595 -1.55236 -5.51883 0
M  V30 2949 H 273.992 -2.34353 -5.52448 0
M  V30 2950 H 275.062 -2.54772 -4.12576 0
M  V30 2951 N 276.405 1.4127 -0.698611 0
M  V30 2952 C 277.651 2.01478 -0.231207 0
M  V30 2953 C 277.984 1.55215 1.16713 0
M  V30 2954 O 277.259 0.764672 1.78838 0
M  V30 2955 C 277.542 3.58912 -0.292281 0
M  V30 2956 C 277.395 4.15293 -1.72778 0
M  V30 2957 C 278.714 4.38736 0.346194 0
M  V30 2958 H 275.833 0.732025 -0.0854878 0
M  V30 2959 H 278.475 1.67977 -0.887906 0
M  V30 2960 H 276.625 3.87582 0.26686 0
M  V30 2961 H 278.297 3.97486 -2.341 0
M  V30 2962 H 276.54 3.7022 -2.26096 0
M  V30 2963 H 277.211 5.24452 -1.72202 0
M  V30 2964 H 279.687 4.15897 -0.130035 0
M  V30 2965 H 278.563 5.48221 0.272932 0
M  V30 2966 H 278.824 4.18425 1.42734 0
M  V30 2967 N 277.883 0.443576 1.51229 0
M  V30 2968 C 279.131 -0.120557 2.0174 0
M  V30 2969 C 279.452 -1.42665 1.32935 0
M  V30 2970 O 278.722 -1.9028 0.465866 0
M  V30 2971 H 277.302 -0.0475426 0.745486 0
M  V30 2972 H 279.964 0.587711 1.85828 0
M  V30 2973 H 279.06 -0.291972 3.10731 0
M  V30 2974 N 279.361 -1.56624 0.175154 0
M  V30 2975 C 280.772 -1.83561 -0.340916 0
M  V30 2976 C 281.123 -1.09511 -1.62794 0
M  V30 2977 O 280.248 -0.349389 -2.13561 0
M  V30 2978 C 280.843 -3.32979 -0.625313 0
M  V30 2979 C 279.402 -3.60399 -1.08581 0
M  V30 2980 C 278.549 -2.77024 -0.123722 0
M  V30 2981 H 281.5 -1.53593 0.399344 0
M  V30 2982 H 281.521 -3.50666 -1.47694 0
M  V30 2983 H 281.033 -3.86847 0.311575 0
M  V30 2984 H 279.134 -3.11945 -2.03767 0
M  V30 2985 H 279.247 -4.68711 -0.992317 0
M  V30 2986 H 277.611 -2.46993 -0.621821 0
M  V30 2987 H 278.394 -3.33674 0.807256 0
M  V30 2988 N 280.839 0.0985539 -1.57292 0
M  V30 2989 C 282.116 0.834155 -1.76921 0
M  V30 2990 C 282.496 1.97101 -0.755928 0
M  V30 2991 O 281.844 2.27474 0.216245 0
M  V30 2992 C 282.054 1.33194 -3.22584 0
M  V30 2993 C 283.402 1.77611 -3.85668 0
M  V30 2994 O 284.426 1.42825 -3.26312 0
M  V30 2995 O 283.285 2.4192 -4.90038 0
M  V30 2996 H 280.379 0.397628 -0.725135 0
M  V30 2997 H 282.925 0.0807044 -1.69508 0
M  V30 2998 H 281.697 0.517248 -3.87866 0
M  V30 2999 H 281.32 2.1475 -3.34616 0
M  V30 3000 N 282.317 1.53212 0.369288 0
M  V30 3001 C 283.565 1.68881 1.11012 0
M  V30 3002 C 283.886 0.441285 1.89941 0
M  V30 3003 O 283.156 -0.544623 1.88177 0
M  V30 3004 H 281.736 0.622569 0.412816 0
M  V30 3005 H 284.398 1.90391 0.416802 0
M  V30 3006 H 283.494 2.54822 1.80201 0
M  V30 3007 N 283.795 -0.628877 1.44509 0
M  V30 3008 C 285.041 -1.39045 1.47629 0
M  V30 3009 C 285.374 -1.93892 0.109343 0
M  V30 3010 O 284.649 -1.7379 -0.87334 0
M  V30 3011 C 284.932 -2.55408 2.53848 0
M  V30 3012 C 284.785 -2.05896 3.99909 0
M  V30 3013 C 286.104 -3.5759 2.56549 0
M  V30 3014 H 283.223 -0.504232 0.537512 0
M  V30 3015 H 285.865 -0.710854 1.76201 0
M  V30 3016 H 284.015 -3.13384 2.29615 0
M  V30 3017 H 285.687 -1.52734 4.35282 0
M  V30 3018 H 283.93 -1.37061 4.11578 0
M  V30 3019 H 284.601 -2.89681 4.69882 0
M  V30 3020 H 287.077 -3.09419 2.78207 0
M  V30 3021 H 285.953 -4.36527 3.32769 0
M  V30 3022 H 286.214 -4.11808 1.60832 0
M  V30 3023 N 285.273 -1.31445 -0.869486 0
M  V30 3024 C 286.684 -1.19042 -1.43826 0
M  V30 3025 C 287.035 0.202919 -1.95148 0
M  V30 3026 O 286.16 1.10071 -1.86315 0
M  V30 3027 C 286.755 -2.15499 -2.6143 0
M  V30 3028 C 285.314 -2.07028 -3.14351 0
M  V30 3029 C 284.461 -2.04701 -1.87063 0
M  V30 3030 H 287.412 -1.43489 -0.677984 0
M  V30 3031 H 287.433 -1.74488 -3.38134 0
M  V30 3032 H 286.945 -3.16899 -2.24046 0
M  V30 3033 H 285.046 -1.08825 -3.56354 0
M  V30 3034 H 285.159 -2.96157 -3.766 0
M  V30 3035 H 283.523 -1.49724 -2.06046 0
M  V30 3036 H 284.306 -3.07857 -1.51917 0
M  V30 3037 N 286.751 1.08385 -1.14413 0
M  V30 3038 C 287.997 1.81044 -0.913834 0
M  V30 3039 C 288.33 1.86004 0.558209 0
M  V30 3040 O 287.605 1.33606 1.4135 0
M  V30 3041 C 287.888 3.26648 -1.51569 0
M  V30 3042 C 287.741 3.29895 -3.0576 0
M  V30 3043 C 289.06 4.23629 -1.19273 0
M  V30 3044 H 286.179 0.65727 -0.333414 0
M  V30 3045 H 288.821 1.26896 -1.41412 0
M  V30 3046 H 286.971 3.72889 -1.09023 0
M  V30 3047 H 288.643 2.91977 -3.57137 0
M  V30 3048 H 286.886 2.69163 -3.40197 0
M  V30 3049 H 287.557 4.32516 -3.42977 0
M  V30 3050 H 290.033 3.85727 -1.56057 0
M  V30 3051 H 288.909 5.23822 -1.64017 0
M  V30 3052 H 289.17 4.41968 -0.108068 0
M  V30 3053 N 288.23 0.939286 1.26551 0
M  V30 3054 C 289.163 0.391702 2.24813 0
M  V30 3055 C 290.141 -0.518421 1.54114 0
M  V30 3056 O 291.325 -0.456299 1.82894 0
M  V30 3057 C 288.452 -0.437382 3.35864 0
M  V30 3058 C 287.498 0.410946 4.24516 0
M  V30 3059 S 288.331 1.83372 5.03125 0
M  V30 3060 C 289.487 1.01264 6.17654 0
M  V30 3061 H 289.72 1.22448 2.70913 0
M  V30 3062 H 287.253 0.742269 1.35387 0
M  V30 3063 H 289.211 -0.909837 4.0029 0
M  V30 3064 H 287.872 -1.24482 2.8838 0
M  V30 3065 H 287.065 -0.224191 5.03501 0
M  V30 3066 H 286.667 0.818014 3.64945 0
M  V30 3067 H 288.959 0.254023 6.77024 0
M  V30 3068 H 289.902 1.77589 6.85469 0
M  V30 3069 H 290.31 0.549532 5.61819 0
M  V30 3070 N 289.708 -1.40897 0.706093 0
M  V30 3071 C 290.658 -2.27987 0.0240746 0
M  V30 3072 C 291.642 -1.42759 -0.742204 0
M  V30 3073 O 292.834 -1.65936 -0.615966 0
M  V30 3074 C 289.963 -3.31186 -0.903907 0
M  V30 3075 C 289.049 -4.2389 -0.133318 0
M  V30 3076 N 289.44 -4.98113 0.878444 0
M  V30 3077 C 287.738 -4.44485 -0.367269 0
M  V30 3078 C 288.439 -5.6604 1.34064 0
M  V30 3079 N 287.415 -5.39522 0.664565 0
M  V30 3080 H 291.217 -2.82812 0.799658 0
M  V30 3081 H 288.731 -1.53235 0.537845 0
M  V30 3082 H 290.728 -3.92413 -1.40775 0
M  V30 3083 H 289.388 -2.77922 -1.67897 0
M  V30 3084 H 290.399 -5.02364 1.25901 0
M  V30 3085 H 287.076 -4.02213 -1.1194 0
M  V30 3086 H 288.466 -6.35524 2.1808 0
M  V30 3087 N 291.186 -0.45159 -1.50991 0
M  V30 3088 C 292.432 0.102439 -2.03142 0
M  V30 3089 C 292.787 1.39138 -1.32884 0
M  V30 3090 O 292.08 1.86493 -0.439438 0
M  V30 3091 C 292.274 0.361728 -3.55565 0
M  V30 3092 C 292.103 -0.900535 -4.40591 0
M  V30 3093 C 290.873 -1.43821 -4.844 0
M  V30 3094 C 293.071 -1.79063 -4.82121 0
M  V30 3095 N 291.053 -2.65153 -5.53685 0
M  V30 3096 C 292.424 -2.84991 -5.50618 0
M  V30 3097 C 294.479 -1.80334 -4.64095 0
M  V30 3098 C 293.182 -3.92155 -6.02998 0
M  V30 3099 C 295.208 -2.86442 -5.17402 0
M  V30 3100 C 294.57 -3.9109 -5.85857 0
M  V30 3101 H 290.669 -0.00204537 -0.781997 0
M  V30 3102 H 293.253 -0.615446 -1.84717 0
M  V30 3103 H 291.424 1.04865 -3.73976 0
M  V30 3104 H 293.156 0.908372 -3.94374 0
M  V30 3105 H 289.911 -0.990117 -4.63135 0
M  V30 3106 H 290.335 -3.26717 -5.92946 0
M  V30 3107 H 294.977 -1.00753 -4.1062 0
M  V30 3108 H 292.695 -4.72565 -6.55521 0
M  V30 3109 H 296.281 -2.88386 -5.05297 0
M  V30 3110 H 295.161 -4.71845 -6.26364 0
M  V30 3111 N 292.664 1.56529 -0.183458 0
M  V30 3112 C 293.911 1.97244 0.458357 0
M  V30 3113 C 294.239 1.06992 1.62428 0
M  V30 3114 O 293.494 0.106542 1.9541 0
M  V30 3115 C 293.793 3.43939 0.971637 0
M  V30 3116 C 293.459 4.5083 -0.0796784 0
M  V30 3117 C 292.121 4.79786 -0.368584 0
M  V30 3118 C 294.473 5.15138 -0.792638 0
M  V30 3119 C 291.801 5.70345 -1.37563 0
M  V30 3120 C 294.153 6.06784 -1.78875 0
M  V30 3121 C 292.817 6.34102 -2.08497 0
M  V30 3122 H 292.087 0.721768 0.167725 0
M  V30 3123 H 294.734 1.89472 -0.277976 0
M  V30 3124 H 293.039 3.48724 1.78602 0
M  V30 3125 H 294.736 3.72791 1.47744 0
M  V30 3126 H 291.326 4.28317 0.155668 0
M  V30 3127 H 295.51 4.92868 -0.582659 0
M  V30 3128 H 290.766 5.89789 -1.61118 0
M  V30 3129 H 294.94 6.55677 -2.3465 0
M  V30 3130 H 292.567 7.04074 -2.86678 0
M  V30 3131 N 294.142 -0.090211 1.57342 0
M  V30 3132 C 295.092 -1.11557 1.98844 0
M  V30 3133 C 296.076 -1.35503 0.867624 0
M  V30 3134 O 297.268 -1.36113 1.13148 0
M  V30 3135 C 294.397 -2.43446 2.42051 0
M  V30 3136 C 293.483 -2.22853 3.60828 0
M  V30 3137 N 293.874 -1.72141 4.75606 0
M  V30 3138 C 292.172 -2.53401 3.67021 0
M  V30 3139 C 292.873 -1.65932 5.57531 0
M  V30 3140 N 291.849 -2.11323 5.00843 0
M  V30 3141 H 295.651 -0.716499 2.85032 0
M  V30 3142 H 293.165 -0.297567 1.59651 0
M  V30 3143 H 295.162 -3.17644 2.70014 0
M  V30 3144 H 293.822 -2.84087 1.57241 0
M  V30 3145 H 294.833 -1.41268 4.98261 0
M  V30 3146 H 291.51 -2.97532 2.92884 0
M  V30 3147 H 292.9 -1.27733 6.59647 0
M  V30 3148 N 295.62 -1.53406 -0.361157 0
M  V30 3149 C 296.552 -1.76446 -1.46286 0
M  V30 3150 C 297.565 -0.645322 -1.49464 0
M  V30 3151 O 298.754 -0.921681 -1.52864 0
M  V30 3152 C 295.854 -1.83332 -2.85031 0
M  V30 3153 C 295.027 -3.13033 -3.05498 0
M  V30 3154 C 294.086 -3.11104 -4.24383 0
M  V30 3155 O 293.112 -3.84888 -4.19344 0
M  V30 3156 N 294.314 -2.32234 -5.32022 0
M  V30 3157 H 297.079 -2.71508 -1.26899 0
M  V30 3158 H 294.64 -1.52238 -0.550915 0
M  V30 3159 H 296.632 -1.79514 -3.62708 0
M  V30 3160 H 295.202 -0.955342 -2.97644 0
M  V30 3161 H 294.422 -3.30119 -2.15442 0
M  V30 3162 H 295.71 -3.9874 -3.16044 0
M  V30 3163 H 295.108 -1.71807 -5.38979 0
M  V30 3164 H 293.665 -2.3423 -6.08259 0
M  V30 3165 N 297.098 0.621204 -1.44841 0
M  V30 3166 C 298.061 1.71459 -1.521 0
M  V30 3167 C 299.061 1.55696 -0.401933 0
M  V30 3168 O 300.251 1.61011 -0.664925 0
M  V30 3169 C 297.383 3.10624 -1.40447 0
M  V30 3170 H 298.576 1.66394 -2.49506 0
M  V30 3171 H 296.129 0.835745 -1.3208 0
M  V30 3172 H 296.864 3.21277 -0.441737 0
M  V30 3173 H 296.649 3.23473 -2.21602 0
M  V30 3174 H 298.139 3.90293 -1.4853 0
M  V30 3175 N 298.576 1.31904 0.862503 0
M  V30 3176 C 299.987 1.19803 1.43193 0
M  V30 3177 C 300.338 -0.192567 1.95253 0
M  V30 3178 O 299.463 -1.09081 1.86896 0
M  V30 3179 C 300.058 2.16883 2.60283 0
M  V30 3180 C 298.617 2.08692 3.13248 0
M  V30 3181 C 297.764 2.05691 1.85975 0
M  V30 3182 H 300.715 1.43846 0.670365 0
M  V30 3183 H 300.736 1.76278 3.37204 0
M  V30 3184 H 300.248 3.18083 2.22363 0
M  V30 3185 H 298.349 1.10713 3.55771 0
M  V30 3186 H 298.462 2.9815 3.75025 0
M  V30 3187 H 296.826 1.50814 2.05249 0
M  V30 3188 H 297.609 3.08659 1.50282 0
M  V30 3189 N 300.054 -1.07777 1.14986 0
M  V30 3190 C 301.3 -1.80557 0.923422 0
M  V30 3191 C 301.633 -1.86298 -0.548337 0
M  V30 3192 O 300.908 -1.34354 -1.40639 0
M  V30 3193 C 301.191 -3.25839 1.53299 0
M  V30 3194 C 301.044 -3.28269 3.07505 0
M  V30 3195 C 302.363 -4.22991 1.21518 0
M  V30 3196 H 299.482 -0.655493 0.336894 0
M  V30 3197 H 302.124 -1.26144 1.42083 0
M  V30 3198 H 300.274 -3.72306 1.10999 0
M  V30 3199 H 301.946 -2.90079 3.58681 0
M  V30 3200 H 300.189 -2.67355 3.4162 0
M  V30 3201 H 300.86 -4.30691 3.45266 0
M  V30 3202 H 303.336 -3.84894 1.581 0
M  V30 3203 H 302.212 -5.22945 1.66793 0
M  V30 3204 H 302.473 -4.41904 0.131505 0
M  V30 3205 N 301.532 -0.945985 -1.26051 0
M  V30 3206 C 302.757 -0.612525 -1.98149 0
M  V30 3207 C 303.182 0.806623 -1.69927 0
M  V30 3208 O 302.54 1.54411 -0.950108 0
M  V30 3209 C 302.588 -0.866981 -3.50023 0
M  V30 3210 O 301.692 0.0585333 -4.12358 0
M  V30 3211 H 301.033 -0.23379 -0.621481 0
M  V30 3212 H 303.563 -1.27023 -1.60395 0
M  V30 3213 H 303.573 -0.789792 -4.00283 0
M  V30 3214 H 302.248 -1.90135 -3.69894 0
M  V30 3215 H 300.825 -0.0701241 -3.72834 0
M  V30 3216 N 303.011 1.40521 -0.713556 0
M  V30 3217 C 304.239 2.05237 -0.261775 0
M  V30 3218 C 304.654 1.53755 1.09567 0
M  V30 3219 O 304.011 0.693268 1.6882 0
M  V30 3220 C 304.062 3.60763 -0.230706 0
M  V30 3221 O 303.783 4.10345 -1.53455 0
M  V30 3222 C 305.284 4.42651 0.239874 0
M  V30 3223 H 302.504 0.660533 -0.118057 0
M  V30 3224 H 305.048 1.79967 -0.971192 0
M  V30 3225 H 303.203 3.8501 0.429661 0
M  V30 3226 H 303.617 5.04526 -1.43366 0
M  V30 3227 H 305.091 5.51599 0.210468 0
M  V30 3228 H 305.568 4.20082 1.28171 0
M  V30 3229 H 306.174 4.23507 -0.390142 0
M  V30 3230 N 304.489 0.459591 1.5075 0
M  V30 3231 C 305.735 -0.0994966 2.02556 0
M  V30 3232 C 306.068 -1.40399 1.3417 0
M  V30 3233 O 305.343 -1.88892 0.463683 0
M  V30 3234 C 305.626 -0.295242 3.58888 0
M  V30 3235 C 305.479 1.02947 4.37861 0
M  V30 3236 C 306.798 -1.05502 4.27267 0
M  V30 3237 H 303.917 -0.034686 0.736183 0
M  V30 3238 H 306.559 0.602938 1.8018 0
M  V30 3239 H 304.709 -0.893563 3.78084 0
M  V30 3240 H 306.381 1.66348 4.30263 0
M  V30 3241 H 304.624 1.62885 4.02058 0
M  V30 3242 H 305.295 0.846281 5.45474 0
M  V30 3243 H 307.771 -0.547993 4.12476 0
M  V30 3244 H 306.647 -1.16077 5.36486 0
M  V30 3245 H 306.908 -2.08875 3.89645 0
M  V30 3246 N 305.967 -1.56429 0.191757 0
M  V30 3247 C 306.914 -2.18936 -0.730454 0
M  V30 3248 C 307.884 -1.13557 -1.21219 0
M  V30 3249 O 309.069 -1.41794 -1.27668 0
M  V30 3250 C 306.209 -2.85013 -1.9458 0
M  V30 3251 C 305.322 -4.04909 -1.50574 0
M  V30 3252 C 304.457 -4.58853 -2.67634 0
M  V30 3253 C 303.496 -5.71114 -2.20217 0
M  V30 3254 N 302.633 -6.19478 -3.30442 0
M  V30 3255 H 307.473 -2.97389 -0.190664 0
M  V30 3256 H 305.01 -1.46869 -0.0823694 0
M  V30 3257 H 306.968 -3.21492 -2.65893 0
M  V30 3258 H 305.598 -2.09129 -2.45896 0
M  V30 3259 H 304.65 -3.74115 -0.688605 0
M  V30 3260 H 305.962 -4.86113 -1.11784 0
M  V30 3261 H 305.116 -4.97619 -3.47074 0
M  V30 3262 H 303.855 -3.76749 -3.09696 0
M  V30 3263 H 302.86 -5.31879 -1.3923 0
M  V30 3264 H 304.085 -6.55033 -1.79189 0
M  V30 3265 H 302.031 -5.40297 -3.72041 0
M  V30 3266 H 301.948 -6.95725 -2.9581 0
M  V30 3267 H 303.216 -6.62898 -4.10106 0
M  V30 3268 N 307.445 0.0818655 -1.57387 0
M  V30 3269 C 308.67 0.799946 -1.91352 0
M  V30 3270 C 309.095 1.70833 -0.787258 0
M  V30 3271 O 308.453 1.79419 0.26048 0
M  V30 3272 C 308.501 1.57812 -3.24234 0
M  V30 3273 O 307.605 2.68806 -3.12757 0
M  V30 3274 H 306.946 0.21891 -0.626877 0
M  V30 3275 H 309.476 0.0531256 -2.04531 0
M  V30 3276 H 309.486 1.95952 -3.57864 0
M  V30 3277 H 308.161 0.911548 -4.05788 0
M  V30 3278 H 306.738 2.33597 -2.90666 0
M  V30 3279 N 308.923 1.53595 0.353017 0
M  V30 3280 C 310.2 1.61002 1.11075 0
M  V30 3281 C 310.58 0.425356 2.0677 0
M  V30 3282 O 309.928 -0.583267 2.2093 0
M  V30 3283 C 310.138 2.96631 1.83877 0
M  V30 3284 C 311.486 3.51653 2.37961 0
M  V30 3285 O 312.51 2.98743 1.93987 0
M  V30 3286 O 311.369 4.44177 3.18386 0
M  V30 3287 H 308.463 0.650825 0.510251 0
M  V30 3288 H 311.009 1.6594 0.35527 0
M  V30 3289 H 309.781 3.74293 1.14108 0
M  V30 3290 H 309.404 2.95242 2.66304 0
M  V30 3291 N 310.401 -0.613514 1.45168 0
M  V30 3292 C 311.65 -1.36874 1.4815 0
M  V30 3293 C 311.963 -1.952 0.124982 0
M  V30 3294 O 313.169 -2.71481 0.0324176 0
M  V30 3295 C 311.625 -2.47905 2.60904 0
M  V30 3296 C 311.233 -1.96016 4.02842 0
M  V30 3297 C 312.977 -3.24965 2.73126 0
M  V30 3298 C 310.884 -3.04494 5.06988 0
M  V30 3299 H 309.814 -0.514428 0.551253 0
M  V30 3300 H 312.465 -0.658182 1.7129 0
M  V30 3301 H 310.847 -3.21618 2.31037 0
M  V30 3302 H 312.021 -1.29051 4.4236 0
M  V30 3303 H 310.336 -1.31719 3.95018 0
M  V30 3304 H 312.933 -4.05865 3.48106 0
M  V30 3305 H 313.276 -3.75588 1.79553 0
M  V30 3306 H 313.809 -2.5835 3.0249 0
M  V30 3307 H 310.548 -2.58795 6.0225 0
M  V30 3308 H 310.068 -3.70044 4.72046 0
M  V30 3309 H 311.747 -3.68976 5.31475 0
M  V30 3310 N 311.879 -1.3236 -0.855495 0
M  V30 3311 C 312.809 -1.23833 -1.97958 0
M  V30 3312 C 313.79 -0.122361 -1.69659 0
M  V30 3313 O 314.975 -0.30939 -1.9172 0
M  V30 3314 C 312.105 -0.959772 -3.33775 0
M  V30 3315 C 311.059 -2.03689 -3.76424 0
M  V30 3316 C 310.385 -1.61075 -5.09862 0
M  V30 3317 C 311.685 -3.4518 -3.9198 0
M  V30 3318 H 313.379 -2.1788 -2.0535 0
M  V30 3319 H 310.925 -1.04891 -0.986605 0
M  V30 3320 H 312.878 -0.886678 -4.11966 0
M  V30 3321 H 311.602 0.0163404 -3.26596 0
M  V30 3322 H 310.261 -2.10012 -3.00484 0
M  V30 3323 H 309.909 -0.622107 -4.99138 0
M  V30 3324 H 309.609 -2.33143 -5.39368 0
M  V30 3325 H 311.133 -1.55201 -5.90546 0
M  V30 3326 H 312.547 -3.4145 -4.60526 0
M  V30 3327 H 310.944 -4.1559 -4.32903 0
M  V30 3328 H 312.014 -3.84903 -2.94919 0
M  V30 3329 N 313.357 1.07166 -1.15556 0
M  V30 3330 C 314.267 2.17947 -0.868116 0
M  V30 3331 C 315.283 1.73297 0.156297 0
M  V30 3332 O 316.459 2.01392 -0.0182327 0
M  V30 3333 C 313.524 3.44789 -0.36355 0
M  V30 3334 C 312.585 4.03996 -1.45209 0
M  V30 3335 C 311.818 5.24783 -0.971508 0
M  V30 3336 O 312.041 5.70109 0.182194 0
M  V30 3337 O 310.975 5.75715 -1.75603 0
M  V30 3338 H 314.801 2.4503 -1.79427 0
M  V30 3339 H 312.386 1.16539 -0.934824 0
M  V30 3340 H 314.268 4.21307 -0.0887113 0
M  V30 3341 H 312.943 3.19253 0.534708 0
M  V30 3342 H 311.85 3.29009 -1.78056 0
M  V30 3343 H 313.183 4.33808 -2.32533 0
M  V30 3344 N 314.835 0.952656 1.25548 0
M  V30 3345 C 316.065 0.622592 1.96996 0
M  V30 3346 C 316.473 -0.809112 1.71026 0
M  V30 3347 O 315.816 -1.55258 0.981861 0
M  V30 3348 C 315.878 0.798946 3.5051 0
M  V30 3349 C 315.542 2.20744 4.00151 0
M  V30 3350 C 316.539 3.18394 4.11001 0
M  V30 3351 C 314.224 2.5311 4.33867 0
M  V30 3352 C 316.218 4.46504 4.54877 0
M  V30 3353 C 313.905 3.8145 4.7743 0
M  V30 3354 C 314.903 4.77959 4.87897 0
M  V30 3355 O 314.591 6.04012 5.30494 0
M  V30 3356 H 314.323 0.232503 0.634758 0
M  V30 3357 H 316.877 1.2789 1.60728 0
M  V30 3358 H 315.107 0.0854903 3.86605 0
M  V30 3359 H 316.796 0.47023 4.03167 0
M  V30 3360 H 317.562 2.94715 3.85186 0
M  V30 3361 H 313.441 1.78719 4.24948 0
M  V30 3362 H 316.985 5.21835 4.62962 0
M  V30 3363 H 312.882 4.04936 5.0269 0
M  V30 3364 H 313.65 6.0736 5.48685 0
M  V30 3365 N 316.313 -1.40141 0.720998 0
M  V30 3366 C 317.243 -2.33339 0.0867621 0
M  V30 3367 C 318.224 -1.53178 -0.739622 0
M  V30 3368 O 319.409 -1.81625 -0.687449 0
M  V30 3369 C 316.539 -3.37194 -0.831728 0
M  V30 3370 C 315.493 -4.27857 -0.110558 0
M  V30 3371 C 314.819 -5.22294 -1.14513 0
M  V30 3372 C 316.119 -5.11872 1.0385 0
M  V30 3373 H 317.813 -2.86626 0.865219 0
M  V30 3374 H 315.359 -1.37814 0.417516 0
M  V30 3375 H 317.312 -4.01335 -1.28485 0
M  V30 3376 H 316.036 -2.82314 -1.64214 0
M  V30 3377 H 314.695 -3.65176 0.322797 0
M  V30 3378 H 314.343 -4.63717 -1.94874 0
M  V30 3379 H 314.043 -5.83797 -0.667446 0
M  V30 3380 H 315.567 -5.89312 -1.59824 0
M  V30 3381 H 316.981 -5.69436 0.664482 0
M  V30 3382 H 315.378 -5.82445 1.4449 0
M  V30 3383 H 316.448 -4.4753 1.86668 0
M  V30 3384 N 317.792 -0.46758 -1.50504 0
M  V30 3385 C 318.739 0.328413 -2.28452 0
M  V30 3386 C 319.709 0.990313 -1.33349 0
M  V30 3387 O 320.894 1.00343 -1.62284 0
M  V30 3388 C 318.034 1.40648 -3.15138 0
M  V30 3389 C 317.147 0.759709 -4.25267 0
M  V30 3390 C 316.282 1.81537 -4.99217 0
M  V30 3391 C 315.321 1.14866 -6.01226 0
M  V30 3392 N 314.458 2.14702 -6.68467 0
M  V30 3393 H 319.298 -0.342603 -2.96024 0
M  V30 3394 H 316.835 -0.180801 -1.45985 0
M  V30 3395 H 318.793 2.04315 -3.63746 0
M  V30 3396 H 317.423 2.04671 -2.49619 0
M  V30 3397 H 316.475 0.0105671 -3.80399 0
M  V30 3398 H 317.787 0.233243 -4.98254 0
M  V30 3399 H 316.941 2.52793 -5.51526 0
M  V30 3400 H 315.68 2.37564 -4.25928 0
M  V30 3401 H 314.685 0.42171 -5.4818 0
M  V30 3402 H 315.91 0.595334 -6.76485 0
M  V30 3403 H 313.856 2.69752 -5.97972 0
M  V30 3404 H 313.773 1.6703 -7.37317 0
M  V30 3405 H 315.041 2.85348 -7.25394 0
M  V30 3406 N 319.27 1.56325 -0.20005 0
M  V30 3407 C 320.202 2.16555 0.750771 0
M  V30 3408 C 321.215 1.12871 1.1732 0
M  V30 3409 O 322.404 1.39943 1.10807 0
M  V30 3410 C 319.504 2.71684 2.02586 0
M  V30 3411 C 318.677 4.00321 1.76244 0
M  V30 3412 C 317.736 4.40227 2.88248 0
M  V30 3413 O 316.762 5.07552 2.57642 0
M  V30 3414 N 317.964 4.04138 4.16717 0
M  V30 3415 H 320.729 2.98772 0.235685 0
M  V30 3416 H 318.29 1.6189 -0.0182594 0
M  V30 3417 H 320.282 2.95363 2.76664 0
M  V30 3418 H 318.852 1.93893 2.45202 0
M  V30 3419 H 318.072 3.84723 0.85919 0
M  V30 3420 H 319.36 4.84279 1.56048 0
M  V30 3421 H 318.758 3.49993 4.44434 0
M  V30 3422 H 317.315 4.32756 4.87407 0
M  V30 3423 N 320.748 -0.0735177 1.57428 0
M  V30 3424 C 321.995 -0.772999 1.87166 0
M  V30 3425 C 322.323 -1.77665 0.791551 0
M  V30 3426 O 321.578 -1.94541 -0.212636 0
M  V30 3427 C 321.877 -1.51799 3.23561 0
M  V30 3428 C 321.543 -0.654484 4.46125 0
M  V30 3429 C 320.205 -0.416511 4.79394 0
M  V30 3430 C 322.557 -0.0555862 5.2117 0
M  V30 3431 C 319.885 0.429869 5.85123 0
M  V30 3432 C 322.237 0.778239 6.27795 0
M  V30 3433 C 320.901 1.0261 6.59566 0
M  V30 3434 H 320.171 -0.282861 0.684888 0
M  V30 3435 H 322.818 -0.0338272 1.9147 0
M  V30 3436 H 321.123 -2.32932 3.1504 0
M  V30 3437 H 322.82 -2.06397 3.43804 0
M  V30 3438 H 319.41 -0.850091 4.20085 0
M  V30 3439 H 323.594 -0.226558 4.95783 0
M  V30 3440 H 318.85 0.630665 6.08139 0
M  V30 3441 H 323.024 1.24906 6.85107 0
M  V30 3442 H 320.651 1.68371 7.4132 0
M  V30 3443 N 322.226 -1.5378 -0.344866 0
M  V30 3444 C 323.174 -1.82373 -1.4437 0
M  V30 3445 C 324.168 -0.694128 -1.54526 0
M  V30 3446 O 325.374 -0.877442 -1.57165 0
M  V30 3447 H 321.749 -0.577765 -0.481344 0
M  V30 3448 H 323.72 -2.74306 -1.17468 0
M  V30 3449 C 322.469 -2.04898 -2.80913 0
M  V30 3450 H 321.792 -2.9127 -2.73865 0
M  V30 3451 H 323.232 -2.28871 -3.56923 0
M  V30 3452 C 321.691 -0.834116 -3.26411 0
M  V30 3453 O 322.221 -0.0328885 -4.01687 0
M  V30 3454 N 320.427 -0.65171 -2.83198 0
M  V30 3455 H 319.974 -1.30489 -2.22104 0
M  V30 3456 H 319.932 0.159686 -3.13994 0
M  V30 3457 N 323.704 0.605807 -1.45491 0
M  V30 3458 C 324.932 1.39136 -1.5313 0
M  V30 3459 C 325.347 1.88082 -0.164507 0
M  V30 3460 O 324.704 1.62316 0.834247 0
M  V30 3461 C 324.755 2.59463 -2.51716 0
M  V30 3462 O 324.476 2.12551 -3.83084 0
M  V30 3463 C 325.977 3.52301 -2.6907 0
M  V30 3464 H 323.197 0.425849 -0.51855 0
M  V30 3465 H 325.741 0.73865 -1.90694 0
M  V30 3466 H 323.896 3.20772 -2.17219 0
M  V30 3467 H 324.31 2.90744 -4.36541 0
M  V30 3468 H 325.784 4.33271 -3.42024 0
M  V30 3469 H 326.261 4.02757 -1.75167 0
M  V30 3470 H 326.867 2.96845 -3.04571 0
M  V30 3471 N 325.182 1.32811 0.848464 0
M  V30 3472 C 326.132 1.18842 1.94578 0
M  V30 3473 C 327.116 0.0937517 1.60627 0
M  V30 3474 O 328.308 0.320887 1.74067 0
M  V30 3475 C 325.437 0.91999 3.30743 0
M  V30 3476 C 324.523 2.05665 3.70894 0
M  V30 3477 N 324.914 3.30579 3.8282 0
M  V30 3478 C 323.212 1.9612 4.00566 0
M  V30 3479 C 323.913 4.05067 4.17487 0
M  V30 3480 N 322.889 3.33419 4.2934 0
M  V30 3481 H 326.691 2.13536 2.0194 0
M  V30 3482 H 324.205 1.2468 1.0406 0
M  V30 3483 H 326.202 0.800859 4.09136 0
M  V30 3484 H 324.862 -0.0185076 3.24695 0
M  V30 3485 H 325.873 3.65441 3.66978 0
M  V30 3486 H 322.55 1.09871 4.02784 0
M  V30 3487 H 323.94 5.12815 4.34131 0
M  V30 3488 O 326.699 -0.985968 1.2791 0
M  V30 3489 H 327.39 -1.60943 1.07783 0
M  V30 END ATOM
M  V30 BEGIN BOND
M  V30 END BOND
M  V30 END CTAB
M  END
$$$$
