drugbank_target|P06008 Reaction center protein H chain (DB04147; DB04464; DB07392; DB07551; DB07552; DB08215; DB08689; DB08690)
 OpenBabel12092120423D

  0  0  0     0  0            999 V3000
M  V30 BEGIN CTAB
M  V30 COUNTS 4037 4084 0 0 0
M  V30 BEGIN ATOM
M  V30 1 H -0.908 1.98254 -0.117106 0
M  V30 2 N 0 1.576 0 0
M  V30 3 C 0.933 2.03868 1.02534 0
M  V30 4 C 1.911 0.928543 1.3348 0
M  V30 5 O 3.095 1.19667 1.45644 0
M  V30 6 C 0.222 2.43627 2.35294 0
M  V30 7 C -0.732 3.65373 2.2001 0
M  V30 8 S 0.101 5.13292 1.52614 0
M  V30 9 C 1.257 5.56322 2.86805 0
M  V30 10 H 1.49 2.90518 0.631377 0
M  V30 11 H -0.977 1.52953 0.210867 0
M  V30 12 H 0.981 2.67203 3.11629 0
M  V30 13 H -0.358 1.57376 2.7183 0
M  V30 14 H -1.165 3.90944 3.18086 0
M  V30 15 H -1.563 3.418 1.51819 0
M  V30 16 H 0.729 5.58782 3.83104 0
M  V30 17 H 1.672 6.56266 2.65933 0
M  V30 18 H 2.08 4.83886 2.90714 0
M  V30 19 N 1.4781 -0.272755 1.55222 0
M  V30 20 C 2.7081 -1.02107 1.79604 0
M  V30 21 C 3.1161 -1.80419 0.569693 0
M  V30 22 O 2.4591 -1.77566 -0.470743 0
M  V30 23 C 2.5211 -2.02675 2.96922 0
M  V30 24 C 2.1851 -1.43299 4.33952 0
M  V30 25 C 3.1821 -0.84853 5.12929 0
M  V30 26 C 0.8671 -1.46012 4.8061 0
M  V30 27 C 2.8611 -0.299109 6.36698 0
M  V30 28 C 0.5481 -0.906833 6.04334 0
M  V30 29 C 1.5461 -0.32733 6.82215 0
M  V30 30 O 1.2341 0.217479 8.03606 0
M  V30 31 H 0.9661 -0.307322 0.602104 0
M  V30 32 H 3.5201 -0.308862 2.03065 0
M  V30 33 H 1.7501 -2.77656 2.69155 0
M  V30 34 H 3.4391 -2.63637 3.08626 0
M  V30 35 H 4.2051 -0.820265 4.78013 0
M  V30 36 H 0.0841 -1.90056 4.2 0
M  V30 37 H 3.6281 0.153852 6.9743 0
M  V30 38 H -0.4749 -0.932339 6.38731 0
M  V30 39 H 0.2931 0.106863 8.1843 0
M  V30 40 N 2.9562 -1.48159 -0.537278 0
M  V30 41 C 3.9062 -1.5854 -1.63857 0
M  V30 42 C 4.8902 -0.442969 -1.54682 0
M  V30 43 O 6.0822 -0.69401 -1.62827 0
M  V30 44 C 3.2112 -1.62144 -3.02596 0
M  V30 45 C 2.2972 -2.81841 -3.16901 0
M  V30 46 N 2.6882 -4.06337 -3.01204 0
M  V30 47 C 0.9862 -2.79021 -3.47942 0
M  V30 48 C 1.6872 -4.86606 -3.18731 0
M  V30 49 N 0.6632 -4.19288 -3.45974 0
M  V30 50 H 4.4652 -2.5255 -1.50319 0
M  V30 51 H 1.9792 -1.4443 -0.742555 0
M  V30 52 H 3.9762 -1.67674 -3.81695 0
M  V30 53 H 2.6362 -0.69245 -3.17231 0
M  V30 54 H 3.6472 -4.36888 -2.78117 0
M  V30 55 H 0.3242 -1.95347 -3.6898 0
M  V30 56 H 1.7142 -5.95385 -3.11394 0
M  V30 57 N 4.4343 0.785586 -1.36625 0
M  V30 58 C 5.6823 1.54057 -1.30808 0
M  V30 59 C 6.0033 1.94683 0.111157 0
M  V30 60 O 5.2733 1.65241 1.05224 0
M  V30 61 H 3.8533 0.571354 -0.481211 0
M  V30 62 H 6.5153 0.935821 -1.70963 0
M  V30 63 H 5.6113 2.44637 -1.93801 0
M  V30 64 N 5.9124 1.20967 1.01018 0
M  V30 65 C 6.8754 0.965918 2.07853 0
M  V30 66 C 7.8754 -0.0610545 1.60684 0
M  V30 67 O 9.0654 0.175681 1.73312 0
M  V30 68 C 6.1974 0.455513 3.37843 0
M  V30 69 H 7.3904 1.91365 2.3091 0
M  V30 70 H 4.9434 1.02594 1.17916 0
M  V30 71 H 5.6784 -0.497381 3.20463 0
M  V30 72 H 5.4634 1.19622 3.73407 0
M  V30 73 H 6.9534 0.304667 4.16487 0
M  V30 74 N 7.3905 -1.2043 1.01659 0
M  V30 75 C 8.3205 -2.25466 0.607226 0
M  V30 76 C 9.3015 -1.65853 -0.377716 0
M  V30 77 O 10.4865 -1.92409 -0.263149 0
M  V30 78 C 7.6165 -3.47256 -0.0552949 0
M  V30 79 C 6.5705 -4.19462 0.850632 0
M  V30 80 C 5.8965 -5.34673 0.0538859 0
M  V30 81 C 7.1965 -4.75603 2.15868 0
M  V30 82 H 8.8905 -2.59962 1.48526 0
M  V30 83 H 6.4365 -1.2496 0.715605 0
M  V30 84 H 8.3895 -4.19917 -0.353233 0
M  V30 85 H 7.1135 -3.11924 -0.968045 0
M  V30 86 H 5.7725 -3.48667 1.13257 0
M  V30 87 H 5.4205 -4.95585 -0.860514 0
M  V30 88 H 5.1205 -5.83913 0.657192 0
M  V30 89 H 6.6445 -6.10138 -0.237598 0
M  V30 90 H 8.0585 -5.40083 1.92311 0
M  V30 91 H 6.4555 -5.3528 2.71284 0
M  V30 92 H 7.5255 -3.94346 2.82169 0
M  V30 93 N 8.8686 -0.792821 -1.36206 0
M  V30 94 C 9.8316 -0.199459 -2.2833 0
M  V30 95 C 10.8316 0.605189 -1.48977 0
M  V30 96 O 12.0216 0.425685 -1.68919 0
M  V30 97 C 9.1536 0.723523 -3.33134 0
M  V30 98 H 10.3466 -1.01181 -2.82316 0
M  V30 99 H 7.8996 -0.562485 -1.45828 0
M  V30 100 H 8.6346 1.56008 -2.84309 0
M  V30 101 H 8.4196 0.148436 -3.91819 0
M  V30 102 H 9.9096 1.13344 -4.01924 0
M  V30 103 N 10.3467 1.47872 -0.545128 0
M  V30 104 C 11.2787 2.27869 0.246621 0
M  V30 105 C 12.2917 1.36282 0.890561 0
M  V30 106 O 13.4807 1.61207 0.766449 0
M  V30 107 C 10.5807 3.10159 1.36582 0
M  V30 108 C 9.7537 4.29627 0.820954 0
M  V30 109 C 8.8127 4.93607 1.82314 0
M  V30 110 O 7.8387 5.52366 1.37406 0
M  V30 111 N 9.0407 4.87211 3.15603 0
M  V30 112 H 11.8057 2.96459 -0.439539 0
M  V30 113 H 9.3667 1.57367 -0.380421 0
M  V30 114 H 11.3587 3.49829 2.03474 0
M  V30 115 H 9.9287 2.43891 1.9554 0
M  V30 116 H 9.1487 3.94192 -0.0244032 0
M  V30 117 H 10.4367 5.06928 0.436063 0
M  V30 118 H 9.8347 4.40651 3.54744 0
M  V30 119 H 8.3917 5.30937 3.78087 0
M  V30 120 N 11.8248 0.280983 1.55075 0
M  V30 121 C 12.7748 -0.618585 2.19448 0
M  V30 122 C 13.7588 -1.11401 1.16098 0
M  V30 123 O 14.9508 -1.0581 1.41891 0
M  V30 124 C 12.0798 -1.79951 2.92357 0
M  V30 125 C 11.1658 -1.321 4.03002 0
M  V30 126 N 11.5568 -0.559044 5.02701 0
M  V30 127 C 9.8548 -1.60346 4.16179 0
M  V30 128 C 10.5558 -0.306722 5.80891 0
M  V30 129 N 9.5318 -0.880825 5.36416 0
M  V30 130 H 13.3338 -0.0286638 2.93886 0
M  V30 131 H 10.8478 0.0848104 1.62178 0
M  V30 132 H 12.8448 -2.45531 3.36927 0
M  V30 133 H 11.5048 -2.39333 2.19431 0
M  V30 134 H 12.5158 -0.205827 5.17491 0
M  V30 135 H 9.1928 -2.20621 3.54447 0
M  V30 136 H 10.5828 0.30391 6.71212 0
M  V30 137 N 13.3029 -1.57598 0.00835791 0
M  V30 138 C 14.2329 -2.1198 -0.979113 0
M  V30 139 C 15.2139 -1.03091 -1.35301 0
M  V30 140 O 16.3989 -1.30818 -1.43528 0
M  V30 141 C 13.5289 -2.62995 -2.26828 0
M  V30 142 C 12.4829 -3.76485 -2.03576 0
M  V30 143 C 11.8089 -4.13846 -3.38579 0
M  V30 144 C 13.1089 -5.0342 -1.39161 0
M  V30 145 H 14.8029 -2.94738 -0.526281 0
M  V30 146 H 12.3489 -1.41783 -0.251704 0
M  V30 147 H 14.3019 -2.99669 -2.96271 0
M  V30 148 H 13.0259 -1.7737 -2.7424 0
M  V30 149 H 11.6849 -3.40217 -1.36557 0
M  V30 150 H 11.3329 -3.25232 -3.83709 0
M  V30 151 H 11.0329 -4.90312 -3.23834 0
M  V30 152 H 12.5569 -4.53086 -4.09323 0
M  V30 153 H 13.9709 -5.37812 -1.98573 0
M  V30 154 H 12.3679 -5.84746 -1.34878 0
M  V30 155 H 13.4379 -4.83548 -0.361868 0
M  V30 156 N 14.781 0.264519 -1.55364 0
M  V30 157 C 16.058 1.01677 -1.67096 0
M  V30 158 C 16.438 2.03996 -0.543015 0
M  V30 159 O 15.786 2.23907 0.45585 0
M  V30 160 C 15.996 1.66596 -3.0667 0
M  V30 161 C 17.344 2.17442 -3.64697 0
M  V30 162 O 18.368 1.76568 -3.09358 0
M  V30 163 O 17.227 2.92439 -4.61673 0
M  V30 164 H 14.321 0.472161 -0.678965 0
M  V30 165 H 16.867 0.259703 -1.67701 0
M  V30 166 H 15.639 0.924962 -3.80211 0
M  V30 167 H 15.262 2.48968 -3.10001 0
M  V30 168 N 16.2591 1.48442 0.529413 0
M  V30 169 C 17.5081 1.55742 1.28169 0
M  V30 170 C 17.8211 0.236511 1.94165 0
M  V30 171 O 19.0271 0.187761 2.7085 0
M  V30 172 C 17.4831 2.74667 2.32564 0
M  V30 173 C 17.0911 4.13402 1.72636 0
M  V30 174 C 18.8351 2.9128 3.08798 0
M  V30 175 C 16.7421 5.23587 2.74975 0
M  V30 176 H 15.6721 0.579796 0.48203 0
M  V30 177 H 18.3231 1.74776 0.559056 0
M  V30 178 H 16.7051 2.49067 3.07866 0
M  V30 179 H 17.8791 4.49022 1.03519 0
M  V30 180 H 16.1941 4.0191 1.08892 0
M  V30 181 H 18.7911 3.70767 3.85274 0
M  V30 182 H 19.1341 2.00757 3.64695 0
M  V30 183 H 19.6671 3.16782 2.40611 0
M  V30 184 H 16.4061 6.16076 2.23897 0
M  V30 185 H 15.9261 4.92454 3.42417 0
M  V30 186 H 17.6051 5.51724 3.37949 0
M  V30 187 N 17.7372 -0.778329 1.37039 0
M  V30 188 C 18.7002 -1.87301 1.32102 0
M  V30 189 C 19.7002 -1.59198 0.226405 0
M  V30 190 O 20.8902 -1.67403 0.481861 0
M  V30 191 C 18.0222 -3.24309 1.05055 0
M  V30 192 H 19.2152 -1.93093 2.29467 0
M  V30 193 H 16.7682 -0.977358 1.21973 0
M  V30 194 H 17.5032 -3.24196 0.0819373 0
M  V30 195 H 17.2882 -3.46098 1.84279 0
M  V30 196 H 18.7782 -4.04382 1.04234 0
M  V30 197 N 19.2153 -1.21501 -1.00376 0
M  V30 198 C 20.1473 -0.933174 -2.09343 0
M  V30 199 C 21.1603 0.0840896 -1.62583 0
M  V30 200 O 22.3493 -0.148563 -1.77881 0
M  V30 201 C 19.4493 -0.379869 -3.36764 0
M  V30 202 C 18.6223 -1.45176 -4.12605 0
M  V30 203 C 17.6813 -0.907476 -5.18316 0
M  V30 204 O 16.7073 -1.5912 -5.46507 0
M  V30 205 N 17.9093 0.276649 -5.7984 0
M  V30 206 H 20.6743 -1.87124 -2.34104 0
M  V30 207 H 18.2353 -1.12043 -1.16867 0
M  V30 208 H 20.2273 -0.00131488 -4.047 0
M  V30 209 H 18.7973 0.463048 -3.09151 0
M  V30 210 H 18.0173 -2.00411 -3.39454 0
M  V30 211 H 19.3053 -2.17328 -4.6005 0
M  V30 212 H 18.7033 0.849147 -5.59291 0
M  V30 213 H 17.2603 0.596702 -6.49063 0
M  V30 214 N 20.6934 1.19889 -1.02296 0
M  V30 215 C 21.6234 2.25141 -0.619174 0
M  V30 216 C 22.6044 1.66051 0.368915 0
M  V30 217 O 23.7894 1.92546 0.252941 0
M  V30 218 C 20.9194 3.4728 0.0368783 0
M  V30 219 C 19.8734 4.19005 -0.872865 0
M  V30 220 C 19.1994 5.34637 -0.0822402 0
M  V30 221 C 20.4994 4.74452 -2.18387 0
M  V30 222 H 22.1934 2.59171 -1.49903 0
M  V30 223 H 19.7394 1.24579 -0.722222 0
M  V30 224 H 21.6924 4.20098 0.330958 0
M  V30 225 H 20.4164 3.12433 0.95149 0
M  V30 226 H 19.0754 3.48061 -1.15105 0
M  V30 227 H 18.7234 4.96034 0.83422 0
M  V30 228 H 18.4234 5.83557 -0.688149 0
M  V30 229 H 19.9474 6.10255 0.205238 0
M  V30 230 H 21.3614 5.39055 -1.95172 0
M  V30 231 H 19.7584 5.33834 -2.74119 0
M  V30 232 H 20.8284 3.92844 -2.84257 0
M  V30 233 N 22.1715 0.800033 1.35784 0
M  V30 234 C 23.4175 0.377901 1.99248 0
M  V30 235 C 23.7505 -1.05052 1.63333 0
M  V30 236 O 23.0255 -1.72768 0.893385 0
M  V30 237 C 23.3085 0.553922 3.55814 0
M  V30 238 C 23.1615 2.0268 4.01548 0
M  V30 239 C 24.4805 -0.0244802 4.40093 0
M  V30 240 H 21.5995 0.138782 0.723815 0
M  V30 241 H 24.2415 1.00835 1.61035 0
M  V30 242 H 22.3915 0.0172398 3.88496 0
M  V30 243 H 24.0635 2.62536 3.79305 0
M  V30 244 H 22.3065 2.5256 3.52698 0
M  V30 245 H 22.9775 2.10087 5.10458 0
M  V30 246 H 25.4535 0.433775 4.13833 0
M  V30 247 H 24.3295 0.128637 5.48749 0
M  V30 248 H 24.5905 -1.11758 4.27741 0
M  V30 249 N 23.6496 -1.47581 0.552962 0
M  V30 250 C 24.8956 -2.03369 0.0355807 0
M  V30 251 C 25.2506 -1.42016 -1.29805 0
M  V30 252 O 24.5436 -0.564917 -1.83083 0
M  V30 253 C 24.7376 -3.57199 -0.119728 0
M  V30 254 C 24.5666 -4.33468 1.1973 0
M  V30 255 C 23.3366 -4.7353 1.76345 0
M  V30 256 C 25.5346 -4.68866 2.11351 0
M  V30 257 N 23.5166 -5.34426 3.02097 0
M  V30 258 C 24.8876 -5.3002 3.21681 0
M  V30 259 C 26.9426 -4.50795 2.11397 0
M  V30 260 C 25.6456 -5.75011 4.32151 0
M  V30 261 C 27.6716 -4.96782 3.20876 0
M  V30 262 C 27.0336 -5.57981 4.29926 0
M  V30 263 H 23.1326 -0.780058 0.0550806 0
M  V30 264 H 25.7166 -1.80117 0.739315 0
M  V30 265 H 23.8876 -3.80227 -0.792579 0
M  V30 266 H 25.6196 -3.99627 -0.638792 0
M  V30 267 H 22.3746 -4.55352 1.30196 0
M  V30 268 H 22.7986 -5.69421 3.66182 0
M  V30 269 H 27.4406 -4.0284 1.28372 0
M  V30 270 H 25.1586 -6.21959 5.15938 0
M  V30 271 H 28.7446 -4.84573 3.21994 0
M  V30 272 H 27.6246 -5.92918 5.13243 0
M  V30 273 N 25.1277 -0.289203 -1.54924 0
M  V30 274 C 26.3577 0.325989 -2.04012 0
M  V30 275 C 26.7657 1.48961 -1.1665 0
M  V30 276 O 26.1087 1.82794 -0.1822 0
M  V30 277 C 26.1707 0.856112 -3.49158 0
M  V30 278 C 25.8347 -0.180697 -4.56643 0
M  V30 279 C 26.8317 -1.0051 -5.10092 0
M  V30 280 C 24.5167 -0.318998 -5.01286 0
M  V30 281 C 26.5107 -1.95385 -6.06715 0
M  V30 282 C 24.1977 -1.27121 -5.97732 0
M  V30 283 C 25.1957 -2.08713 -6.50329 0
M  V30 284 O 24.8837 -3.02322 -7.44887 0
M  V30 285 H 24.6157 0.0765276 -0.671654 0
M  V30 286 H 27.1697 -0.423254 -2.00992 0
M  V30 287 H 25.3997 1.65567 -3.49463 0
M  V30 288 H 27.0887 1.38591 -3.81507 0
M  V30 289 H 27.8547 -0.90906 -4.76404 0
M  V30 290 H 23.7337 0.306108 -4.59983 0
M  V30 291 H 27.2777 -2.59111 -6.47694 0
M  V30 292 H 23.1747 -1.36801 -6.30837 0
M  V30 293 H 23.9427 -2.97165 -7.6265 0
M  V30 294 N 26.6058 1.57591 -0.0167156 0
M  V30 295 C 27.5688 2.08393 0.954204 0
M  V30 296 C 28.5688 0.996531 1.26198 0
M  V30 297 O 29.7588 1.25858 1.20438 0
M  V30 298 C 26.8908 2.5394 2.27436 0
M  V30 299 H 28.0838 2.95455 0.514451 0
M  V30 300 H 25.6368 1.54582 0.231089 0
M  V30 301 H 26.3718 1.70171 2.76066 0
M  V30 302 H 26.1568 3.33371 2.06412 0
M  V30 303 H 27.6468 2.93512 2.97053 0
M  V30 304 N 28.0839 -0.256276 1.55502 0
M  V30 305 C 29.0159 -1.33981 1.85962 0
M  V30 306 C 30.0289 -1.44743 0.745212 0
M  V30 307 O 31.2179 -1.4626 1.02324 0
M  V30 308 C 28.3179 -2.7194 2.02242 0
M  V30 309 C 27.4909 -2.83562 3.33033 0
M  V30 310 C 26.5499 -4.02304 3.39172 0
M  V30 311 O 25.5759 -3.92273 4.12444 0
M  V30 312 N 26.7779 -5.15045 2.67784 0
M  V30 313 H 29.5429 -1.08191 2.7949 0
M  V30 314 H 27.1039 -0.446388 1.55624 0
M  V30 315 H 29.0959 -3.49697 2.03701 0
M  V30 316 H 27.6659 -2.90479 1.15502 0
M  V30 317 H 26.8859 -1.92555 3.43971 0
M  V30 318 H 28.1739 -2.88271 4.19258 0
M  V30 319 H 27.5719 -5.26085 2.07968 0
M  V30 320 H 26.1289 -5.90972 2.74947 0
M  V30 321 N 29.562 -1.4872 -0.521534 0
M  V30 322 C 30.808 -1.58378 -1.27624 0
M  V30 323 C 31.163 -0.258028 -1.90662 0
M  V30 324 O 30.456 0.739917 -1.76736 0
M  V30 325 C 30.65 -2.66497 -2.38148 0
M  V30 326 C 30.479 -4.09456 -1.85945 0
M  V30 327 C 29.249 -4.76495 -1.68168 0
M  V30 328 C 31.447 -4.95353 -1.3831 0
M  V30 329 N 29.429 -6.0384 -1.1068 0
M  V30 330 C 30.8 -6.13012 -0.928238 0
M  V30 331 C 32.855 -4.81512 -1.26692 0
M  V30 332 C 31.558 -7.18354 -0.368701 0
M  V30 333 C 33.584 -5.86984 -0.721368 0
M  V30 334 C 32.946 -7.03857 -0.276623 0
M  V30 335 H 29.045 -0.634045 -0.457724 0
M  V30 336 H 31.629 -1.85639 -0.587049 0
M  V30 337 H 29.8 -2.41043 -3.04553 0
M  V30 338 H 31.532 -2.65791 -3.05184 0
M  V30 339 H 28.287 -4.32962 -1.91939 0
M  V30 340 H 28.711 -6.71778 -0.839217 0
M  V30 341 H 33.353 -3.91487 -1.5968 0
M  V30 342 H 31.071 -8.08096 -0.0265122 0
M  V30 343 H 34.657 -5.78329 -0.634531 0
M  V30 344 H 33.537 -7.84077 0.138947 0
M  V30 345 N 31.0401 0.771051 -1.3745 0
M  V30 346 C 31.9701 1.89827 -1.3597 0
M  V30 347 C 32.9511 1.68562 -0.228216 0
M  V30 348 O 34.1361 1.8941 -0.428675 0
M  V30 349 C 31.2661 3.2712 -1.16662 0
M  V30 350 C 30.2201 3.6295 -2.2683 0
M  V30 351 C 29.5461 4.98791 -1.92644 0
M  V30 352 C 30.8461 3.69627 -3.69017 0
M  V30 353 H 32.5401 1.91323 -2.30295 0
M  V30 354 H 30.0861 0.919082 -1.10855 0
M  V30 355 H 32.0391 4.05615 -1.14256 0
M  V30 356 H 30.7631 3.26059 -0.187926 0
M  V30 357 H 29.4221 2.86763 -2.28392 0
M  V30 358 H 29.0701 4.94271 -0.933021 0
M  V30 359 H 28.7701 5.23733 -2.66416 0
M  V30 360 H 30.2941 5.79685 -1.91826 0
M  V30 361 H 31.7081 4.38273 -3.69581 0
M  V30 362 H 30.1051 4.06067 -4.41848 0
M  V30 363 H 31.1751 2.70273 -4.02592 0
M  V30 364 N 32.5182 1.22032 0.997298 0
M  V30 365 C 33.7642 1.04376 1.73878 0
M  V30 366 C 34.0972 -0.420716 1.89588 0
M  V30 367 O 33.3722 -1.31202 1.43583 0
M  V30 368 C 33.6552 1.75047 3.14691 0
M  V30 369 C 33.5082 3.29062 3.06656 0
M  V30 370 C 34.8272 1.49928 4.13775 0
M  V30 371 H 31.9462 0.380578 0.631133 0
M  V30 372 H 34.5882 1.50312 1.16217 0
M  V30 373 H 32.7382 1.35996 3.63919 0
M  V30 374 H 34.4102 3.7753 2.65083 0
M  V30 375 H 32.6532 3.58967 2.43568 0
M  V30 376 H 33.3242 3.73683 4.06282 0
M  V30 377 H 35.8002 1.83842 3.73285 0
M  V30 378 H 34.6762 2.01878 5.10428 0
M  V30 379 H 34.9372 0.430929 4.39995 0
M  V30 380 N 33.9963 -1.19345 1.0293 0
M  V30 381 C 35.2453 -1.88363 0.721256 0
M  V30 382 C 35.5583 -1.80514 -0.753254 0
M  V30 383 O 36.7643 -2.44788 -1.17436 0
M  V30 384 C 35.2203 -3.37872 1.23978 0
M  V30 385 C 34.8283 -3.54278 2.74211 0
M  V30 386 C 36.5723 -4.12365 1.00775 0
M  V30 387 C 34.4793 -4.97682 3.19479 0
M  V30 388 H 33.4093 -0.705484 0.266098 0
M  V30 389 H 36.0603 -1.34928 1.24365 0
M  V30 390 H 34.4423 -3.90707 0.6453 0
M  V30 391 H 35.6163 -3.11769 3.39318 0
M  V30 392 H 33.9313 -2.93174 2.95699 0
M  V30 393 H 36.5283 -5.18119 1.32123 0
M  V30 394 H 36.8713 -4.16263 -0.0554308 0
M  V30 395 H 37.4043 -3.65668 1.56625 0
M  V30 396 H 34.1433 -4.98945 4.25128 0
M  V30 397 H 33.6633 -5.4095 2.591 0
M  V30 398 H 35.3423 -5.66337 3.12845 0
M  V30 399 N 35.4744 -0.807222 -1.35358 0
M  V30 400 C 36.7204 -0.397594 -1.99476 0
M  V30 401 C 37.0754 1.02405 -1.62883 0
M  V30 402 O 36.3684 1.70077 -0.882282 0
M  V30 403 C 36.5624 -0.519036 -3.53611 0
M  V30 404 C 36.3914 -1.95094 -4.05177 0
M  V30 405 C 35.1614 -2.57945 -4.34503 0
M  V30 406 C 37.3594 -2.91558 -4.23673 0
M  V30 407 N 35.3414 -3.92539 -4.72003 0
M  V30 408 C 36.7124 -4.11024 -4.64176 0
M  V30 409 C 38.7674 -2.88381 -4.05883 0
M  V30 410 C 37.4704 -5.27745 -4.88751 0
M  V30 411 C 39.4964 -4.04306 -4.31614 0
M  V30 412 C 38.8584 -5.22519 -4.72391 0
M  V30 413 H 34.9574 -0.193274 -0.75774 0
M  V30 414 H 37.5414 -1.0486 -1.6405 0
M  V30 415 H 35.7124 0.101979 -3.88266 0
M  V30 416 H 37.4444 -0.0839321 -4.04613 0
M  V30 417 H 34.1994 -2.09295 -4.24844 0
M  V30 418 H 34.6234 -4.61836 -4.95011 0
M  V30 419 H 39.2654 -1.98137 -3.73499 0
M  V30 420 H 36.9834 -6.1856 -5.20008 0
M  V30 421 H 40.5694 -4.03229 -4.19402 0
M  V30 422 H 39.4494 -6.1073 -4.91913 0
M  V30 423 N 36.9525 1.47285 -0.560781 0
M  V30 424 C 38.1805 2.06855 -0.0430262 0
M  V30 425 C 38.5955 1.41291 1.25229 0
M  V30 426 O 37.9525 0.510648 1.7521 0
M  V30 427 C 38.0035 3.61178 0.152518 0
M  V30 428 O 37.7245 4.24285 -1.0915 0
M  V30 429 C 39.2255 4.37624 0.707145 0
M  V30 430 H 36.4455 0.669319 -0.0474652 0
M  V30 431 H 38.9895 1.89237 -0.77521 0
M  V30 432 H 37.1445 3.78298 0.834843 0
M  V30 433 H 37.5585 5.16868 -0.891482 0
M  V30 434 H 39.0325 5.46271 0.793244 0
M  V30 435 H 39.5095 4.04152 1.71923 0
M  V30 436 H 40.1155 4.25257 0.0604027 0
M  V30 437 N 38.4306 0.297415 1.54768 0
M  V30 438 C 39.6766 -0.313376 2.00364 0
M  V30 439 C 40.0096 -1.53815 1.18553 0
M  V30 440 O 39.2846 -1.92739 0.261103 0
M  V30 441 C 39.5676 -0.673525 3.53745 0
M  V30 442 C 39.4206 0.560133 4.46299 0
M  V30 443 C 40.7396 -1.50143 4.13697 0
M  V30 444 H 37.8586 -0.112428 0.728374 0
M  V30 445 H 40.5006 0.4088 1.8555 0
M  V30 446 H 38.6506 -1.28881 3.665 0
M  V30 447 H 40.3226 1.19863 4.45455 0
M  V30 448 H 38.5656 1.19405 4.17043 0
M  V30 449 H 39.2366 0.26405 5.51368 0
M  V30 450 H 41.7126 -0.981588 4.04356 0
M  V30 451 H 40.5886 -1.72221 5.21182 0
M  V30 452 H 40.8496 -2.48952 3.65343 0
M  V30 453 N 39.9087 -1.5758 0.0250728 0
M  V30 454 C 41.1547 -1.91917 -0.655413 0
M  V30 455 C 41.4877 -0.901433 -1.72011 0
M  V30 456 O 40.7627 0.0764069 -1.9435 0
M  V30 457 C 41.0457 -3.36751 -1.27558 0
M  V30 458 C 40.8987 -4.49258 -0.220719 0
M  V30 459 C 42.2177 -3.81469 -2.19475 0
M  V30 460 H 39.3367 -0.697925 -0.23679 0
M  V30 461 H 41.9787 -1.89825 0.0815036 0
M  V30 462 H 40.1287 -3.38664 -1.90365 0
M  V30 463 H 41.8007 -4.59478 0.409601 0
M  V30 464 H 40.0437 -4.31415 0.454264 0
M  V30 465 H 40.7147 -5.47618 -0.694175 0
M  V30 466 H 43.1907 -3.81266 -1.66659 0
M  V30 467 H 42.0667 -4.83512 -2.59822 0
M  V30 468 H 42.3277 -3.16744 -3.08424 0
M  V30 469 N 41.3868 0.248026 -1.55636 0
M  V30 470 C 42.3168 1.31079 -1.93237 0
M  V30 471 C 43.2978 1.50264 -0.797174 0
M  V30 472 O 44.4828 1.62891 -1.05737 0
M  V30 473 C 41.6128 2.66575 -2.22609 0
M  V30 474 C 40.5668 2.62087 -3.3837 0
M  V30 475 C 39.8928 4.01369 -3.53281 0
M  V30 476 C 41.1928 2.19171 -4.7409 0
M  V30 477 H 42.8868 0.998556 -2.82257 0
M  V30 478 H 40.4328 0.47891 -1.35803 0
M  V30 479 H 42.3858 3.41057 -2.47503 0
M  V30 480 H 41.1098 2.99432 -1.30414 0
M  V30 481 H 39.7688 1.90063 -3.13483 0
M  V30 482 H 39.4168 4.31489 -2.58508 0
M  V30 483 H 39.1168 3.99254 -4.31127 0
M  V30 484 H 40.6408 4.77552 -3.80495 0
M  V30 485 H 42.0548 2.83384 -4.98363 0
M  V30 486 H 40.4518 2.2817 -5.5503 0
M  V30 487 H 41.5218 1.14336 -4.71227 0
M  V30 488 N 42.8649 1.48995 0.513639 0
M  V30 489 C 43.7949 1.67636 1.62544 0
M  V30 490 C 44.7759 0.525087 1.61793 0
M  V30 491 O 45.9609 0.759502 1.78732 0
M  V30 492 C 43.0909 1.73114 3.01079 0
M  V30 493 C 42.0449 2.87905 3.16693 0
M  V30 494 C 41.3709 2.78486 4.56453 0
M  V30 495 C 42.6709 4.29005 2.97913 0
M  V30 496 H 44.3649 2.60716 1.47198 0
M  V30 497 H 41.9109 1.25465 0.706714 0
M  V30 498 H 43.8639 1.84742 3.78746 0
M  V30 499 H 42.5879 0.766241 3.17484 0
M  V30 500 H 41.2469 2.75859 2.41448 0
M  V30 501 H 40.8949 1.7993 4.69717 0
M  V30 502 H 40.5949 3.55523 4.67843 0
M  V30 503 H 42.1189 2.92104 5.36197 0
M  V30 504 H 43.5329 4.41798 3.65359 0
M  V30 505 H 41.9299 5.07166 3.20785 0
M  V30 506 H 42.9999 4.44329 1.94165 0
M  V30 507 N 44.343 -0.763751 1.37857 0
M  V30 508 C 45.573 -1.55067 1.3652 0
M  V30 509 C 45.981 -1.89135 -0.0494227 0
M  V30 510 O 45.324 -1.52529 -1.02375 0
M  V30 511 C 45.386 -2.8838 2.14656 0
M  V30 512 C 45.05 -2.76905 3.63555 0
M  V30 513 C 46.047 -2.4739 4.57268 0
M  V30 514 C 43.732 -2.94676 4.06781 0
M  V30 515 C 45.726 -2.35786 5.92186 0
M  V30 516 C 43.413 -2.82692 5.41782 0
M  V30 517 C 44.411 -2.53289 6.34298 0
M  V30 518 O 44.099 -2.41345 7.66817 0
M  V30 519 H 43.831 -0.486776 0.469069 0
M  V30 520 H 46.385 -0.953812 1.81911 0
M  V30 521 H 44.615 -3.50217 1.63967 0
M  V30 522 H 46.304 -3.49828 2.05852 0
M  V30 523 H 47.07 -2.33339 4.2518 0
M  V30 524 H 42.949 -3.16563 3.35126 0
M  V30 525 H 46.493 -2.12757 6.64365 0
M  V30 526 H 42.39 -2.96314 5.7347 0
M  V30 527 H 43.158 -2.56634 7.77226 0
M  V30 528 N 45.8211 -1.22559 -0.990812 0
M  V30 529 C 46.7511 -1.0218 -2.09956 0
M  V30 530 C 47.7321 0.0579394 -1.70001 0
M  V30 531 O 48.9171 -0.104684 -1.93918 0
M  V30 532 C 46.0471 -0.601023 -3.4206 0
M  V30 533 C 45.0011 -1.62694 -3.95872 0
M  V30 534 C 44.3271 -1.06193 -5.24049 0
M  V30 535 C 45.6271 -3.01743 -4.2632 0
M  V30 536 H 47.3211 -1.94916 -2.27262 0
M  V30 537 H 44.8671 -0.938566 -1.09211 0
M  V30 538 H 46.8201 -0.445561 -4.19038 0
M  V30 539 H 45.5441 0.362005 -3.24588 0
M  V30 540 H 44.2031 -1.77021 -3.21028 0
M  V30 541 H 43.8511 -0.0901903 -5.02919 0
M  V30 542 H 43.5511 -1.74732 -5.61019 0
M  V30 543 H 45.0751 -0.918092 -6.03658 0
M  V30 544 H 46.4891 -2.90777 -4.94087 0
M  V30 545 H 44.8861 -3.67425 -4.74467 0
M  V30 546 H 45.9561 -3.51518 -3.34011 0
M  V30 547 N 47.2992 1.18797 -1.03562 0
M  V30 548 C 48.7152 1.40671 -0.753917 0
M  V30 549 C 48.9152 1.9043 0.658686 0
M  V30 550 O 47.9712 2.08538 1.42366 0
M  V30 551 C 49.2842 2.41192 -1.79574 0
M  V30 552 C 50.8322 2.54928 -1.81606 0
M  V30 553 C 51.3072 3.58709 -2.84766 0
M  V30 554 N 52.7982 3.66212 -2.83625 0
M  V30 555 C 53.5332 4.46225 -3.60098 0
M  V30 556 N 53.0292 5.29888 -4.46308 0
M  V30 557 N 54.8222 4.40939 -3.4861 0
M  V30 558 H 46.9732 0.848221 -1.94728 0
M  V30 559 H 49.2362 0.435081 -0.842264 0
M  V30 560 H 48.9422 2.11669 -2.80872 0
M  V30 561 H 48.8162 3.40467 -1.62365 0
M  V30 562 H 51.2032 2.83771 -0.809817 0
M  V30 563 H 51.2842 1.55784 -2.02891 0
M  V30 564 H 50.9282 3.30607 -3.85566 0
M  V30 565 H 50.8582 4.57519 -2.60737 0
M  V30 566 H 53.3492 3.06466 -2.21105 0
M  V30 567 H 53.6622 5.88078 -5.01382 0
M  V30 568 H 52.0072 5.29326 -4.50377 0
M  V30 569 H 55.1982 3.74624 -2.80668 0
M  V30 570 H 55.3712 5.03056 -4.08459 0
M  V30 571 N 48.7773 0.814389 1.34928 0
M  V30 572 C 50.1933 0.499084 1.51596 0
M  V30 573 C 50.3933 -0.978319 1.76157 0
M  V30 574 O 49.4493 -1.76309 1.80752 0
M  V30 575 C 50.7623 1.35121 2.68631 0
M  V30 576 C 52.3103 1.34746 2.82511 0
M  V30 577 C 52.7853 2.18388 4.0258 0
M  V30 578 N 54.2763 2.15966 4.09772 0
M  V30 579 C 55.0113 2.77437 5.01813 0
M  V30 580 N 54.5073 3.47866 5.99134 0
M  V30 581 N 56.3003 2.67037 4.94619 0
M  V30 582 H 48.4513 1.7711 1.17243 0
M  V30 583 H 50.7143 0.754256 0.574284 0
M  V30 584 H 50.4203 2.40001 2.57085 0
M  V30 585 H 50.2943 1.00991 3.63429 0
M  V30 586 H 52.6813 0.30648 2.93504 0
M  V30 587 H 52.7623 1.72869 1.88547 0
M  V30 588 H 52.4063 3.2253 3.92347 0
M  V30 589 H 52.3363 1.77621 4.9574 0
M  V30 590 H 54.8273 1.64729 3.40107 0
M  V30 591 H 55.1403 3.92038 6.65977 0
M  V30 592 H 53.4853 3.51972 5.99284 0
M  V30 593 H 56.6763 2.11597 4.17546 0
M  V30 594 H 56.8493 3.15232 5.66156 0
M  V30 595 N 50.2554 -1.46986 0.568584 0
M  V30 596 C 51.1654 -2.33942 -0.17555 0
M  V30 597 C 52.1814 -1.48891 -0.90041 0
M  V30 598 O 53.3574 -1.81794 -0.86676 0
M  V30 599 C 50.4224 -3.25811 -1.18524 0
M  V30 600 C 49.4834 -4.26757 -0.466582 0
M  V30 601 C 48.7164 -5.14236 -1.42817 0
M  V30 602 O 48.9394 -5.04379 -2.66379 0
M  V30 603 O 47.8734 -5.94412 -0.946453 0
M  V30 604 H 51.6994 -2.98896 0.538036 0
M  V30 605 H 49.2844 -1.4573 0.329097 0
M  V30 606 H 51.1664 -3.82527 -1.76779 0
M  V30 607 H 49.8414 -2.63471 -1.88055 0
M  V30 608 H 48.7484 -3.73769 0.157451 0
M  V30 609 H 50.0814 -4.91843 0.187485 0
M  V30 610 N 51.7335 -0.305618 -1.54608 0
M  V30 611 C 53.0105 0.355652 -1.92339 0
M  V30 612 C 53.3905 1.71324 -1.23335 0
M  V30 613 O 52.7385 2.25473 -0.370702 0
M  V30 614 C 52.9485 0.46572 -3.45879 0
M  V30 615 C 54.2965 0.734426 -4.182 0
M  V30 616 O 55.3205 0.54935 -3.51938 0
M  V30 617 O 54.1795 1.09024 -5.35515 0
M  V30 618 H 51.2735 0.199666 -0.802535 0
M  V30 619 H 53.8195 -0.354017 -1.65966 0
M  V30 620 H 52.5915 -0.488461 -3.88239 0
M  V30 621 H 52.2145 1.22367 -3.78301 0
M  V30 622 N 53.2116 1.57565 -0.0334293 0
M  V30 623 C 54.6276 1.56297 0.322997 0
M  V30 624 C 54.8276 1.03945 1.7262 0
M  V30 625 O 53.8836 0.688109 2.42943 0
M  V30 626 C 55.1966 3.00232 0.167664 0
M  V30 627 C 56.7446 3.12078 0.240107 0
M  V30 628 C 57.2196 4.57859 0.113513 0
M  V30 629 N 58.7106 4.62887 0.170359 0
M  V30 630 C 59.4456 5.73319 0.0962517 0
M  V30 631 N 58.9416 6.92794 -0.0291881 0
M  V30 632 N 60.7346 5.61898 0.150551 0
M  V30 633 H 52.8856 1.89923 -0.950956 0
M  V30 634 H 55.1486 0.873824 -0.367608 0
M  V30 635 H 54.8546 3.42501 -0.799102 0
M  V30 636 H 54.7286 3.654 0.936083 0
M  V30 637 H 57.1156 2.69718 1.19733 0
M  V30 638 H 57.1966 2.49623 -0.558763 0
M  V30 639 H 56.8406 5.009 -0.840314 0
M  V30 640 H 56.7706 5.18299 0.931302 0
M  V30 641 H 59.2616 3.76954 0.26728 0
M  V30 642 H 59.5746 7.7276 -0.0789252 0
M  V30 643 H 57.9196 6.94971 -0.0640299 0
M  V30 644 H 61.1106 4.67448 0.246981 0
M  V30 645 H 61.2836 6.47938 0.0893365 0
M  V30 646 N 54.6897 -0.239769 1.55765 0
M  V30 647 C 56.1057 -0.588624 1.48349 0
M  V30 648 C 56.3057 -1.88005 0.72502 0
M  V30 649 O 55.3617 -2.51186 0.257269 0
M  V30 650 C 56.6747 -0.68474 2.928 0
M  V30 651 C 58.2227 -0.77659 3.03213 0
M  V30 652 C 58.6977 -0.904207 4.48986 0
M  V30 653 N 60.1887 -0.968896 4.52953 0
M  V30 654 C 60.9237 -1.08703 5.63002 0
M  V30 655 N 60.4197 -1.17026 6.82845 0
M  V30 656 N 62.2127 -1.12074 5.50814 0
M  V30 657 H 54.3637 0.607911 2.03515 0
M  V30 658 H 56.6267 0.21083 0.924259 0
M  V30 659 H 56.3327 0.194284 3.51163 0
M  V30 660 H 56.2067 -1.55435 3.43686 0
M  V30 661 H 58.5937 -1.64606 2.44926 0
M  V30 662 H 58.6747 0.118315 2.55526 0
M  V30 663 H 58.3187 -0.0392633 5.07885 0
M  V30 664 H 58.2487 -1.81426 4.9436 0
M  V30 665 H 60.7397 -0.915633 3.6664 0
M  V30 666 H 61.0527 -1.25966 7.62465 0
M  V30 667 H 59.3977 -1.13971 6.85591 0
M  V30 668 H 62.5887 -1.05226 4.5612 0
M  V30 669 H 62.7617 -1.20936 6.36615 0
M  V30 670 N 56.1678 -1.49265 -0.50573 0
M  V30 671 C 57.0778 -1.68312 -1.63427 0
M  V30 672 C 58.0938 -0.565682 -1.64548 0
M  V30 673 O 59.2698 -0.839801 -1.83055 0
M  V30 674 C 56.3348 -1.74107 -2.99813 0
M  V30 675 C 55.3958 -2.97653 -3.09356 0
M  V30 676 C 54.6288 -3.03163 -4.39236 0
M  V30 677 O 54.8518 -2.16396 -5.27758 0
M  V30 678 O 53.7858 -3.9558 -4.53652 0
M  V30 679 H 57.6118 -2.63907 -1.50289 0
M  V30 680 H 55.1968 -1.32951 -0.681502 0
M  V30 681 H 57.0788 -1.803 -3.80881 0
M  V30 682 H 55.7538 -0.816901 -3.13223 0
M  V30 683 H 54.6608 -2.96981 -2.27493 0
M  V30 684 H 55.9938 -3.89535 -3.00871 0
M  V30 685 N 57.6459 0.756429 -1.3826 0
M  V30 686 C 58.8939 1.51248 -1.34047 0
M  V30 687 C 59.2149 1.94875 0.0698372 0
M  V30 688 O 58.4849 1.67436 1.01696 0
M  V30 689 H 57.0649 0.561018 -0.493222 0
M  V30 690 H 59.7269 0.899347 -1.7291 0
M  V30 691 H 58.8229 2.40472 -1.98947 0
M  V30 692 N 59.124 1.23083 0.984299 0
M  V30 693 C 60.354 1.08556 1.75781 0
M  V30 694 C 60.762 -0.366171 1.85623 0
M  V30 695 O 60.105 -1.26524 1.33182 0
M  V30 696 C 60.167 1.63208 3.20318 0
M  V30 697 C 59.831 3.11922 3.33997 0
M  V30 698 C 60.828 4.09259 3.2063 0
M  V30 699 C 58.513 3.51552 3.58771 0
M  V30 700 C 60.507 5.4421 3.31835 0
M  V30 701 C 58.194 4.86649 3.69616 0
M  V30 702 C 59.192 5.82787 3.56157 0
M  V30 703 O 58.88 7.15431 3.66626 0
M  V30 704 H 58.612 0.380713 0.5586 0
M  V30 705 H 61.166 1.63321 1.2456 0
M  V30 706 H 59.396 1.0286 3.72769 0
M  V30 707 H 61.085 1.44216 3.79416 0
M  V30 708 H 61.851 3.79984 3.01392 0
M  V30 709 H 57.73 2.77239 3.6832 0
M  V30 710 H 61.274 6.1923 3.21247 0
M  V30 711 H 57.171 5.15601 3.88363 0
M  V30 712 H 57.939 7.23127 3.83445 0
M  V30 713 N 60.6021 -1.18246 1.0419 0
M  V30 714 C 62.0131 -1.69914 0.773698 0
M  V30 715 C 62.3641 -1.83085 -0.705297 0
M  V30 716 O 61.4891 -1.51123 -1.5489 0
M  V30 717 C 62.0841 -3.08619 1.39784 0
M  V30 718 C 60.6431 -3.57494 1.17792 0
M  V30 719 C 59.7901 -2.34013 1.48773 0
M  V30 720 H 62.7411 -1.02904 1.20816 0
M  V30 721 H 62.7621 -3.71958 0.801714 0
M  V30 722 H 62.2741 -2.99001 2.47426 0
M  V30 723 H 60.3751 -3.72406 0.120295 0
M  V30 724 H 60.4881 -4.40852 1.87581 0
M  V30 725 H 58.8521 -2.37986 0.907463 0
M  V30 726 H 59.6351 -2.27013 2.57527 0
M  V30 727 N 62.0802 -0.821533 -1.34494 0
M  V30 728 C 63.0102 -0.257138 -2.3208 0
M  V30 729 C 63.9912 0.625645 -1.58176 0
M  V30 730 O 65.1762 0.552811 -1.86166 0
M  V30 731 C 62.3062 0.582958 -3.42372 0
M  V30 732 C 61.2602 -0.202571 -4.2752 0
M  V30 733 C 60.5862 0.760179 -5.29269 0
M  V30 734 C 61.8862 -1.40998 -5.02908 0
M  V30 735 H 63.5802 -1.07247 -2.79532 0
M  V30 736 H 61.1262 -0.517163 -1.34393 0
M  V30 737 H 63.0792 0.987972 -4.09655 0
M  V30 738 H 61.8032 1.43133 -2.93565 0
M  V30 739 H 60.4622 -0.588936 -3.61838 0
M  V30 740 H 60.1102 1.60447 -4.76724 0
M  V30 741 H 59.8102 0.238809 -5.87115 0
M  V30 742 H 61.3342 1.16308 -5.9942 0
M  V30 743 H 62.7482 -1.07905 -5.63054 0
M  V30 744 H 61.1452 -1.86689 -5.70322 0
M  V30 745 H 62.2152 -2.1889 -4.32684 0
M  V30 746 N 63.5583 1.46682 -0.576371 0
M  V30 747 C 64.8043 2.02712 -0.0596221 0
M  V30 748 C 65.1373 1.44765 1.29448 0
M  V30 749 O 64.4123 0.610355 1.84675 0
M  V30 750 C 64.6953 3.60098 0.0129503 0
M  V30 751 C 64.5483 4.28441 -1.3696 0
M  V30 752 C 65.8673 4.34224 0.71678 0
M  V30 753 H 62.9863 0.736637 -0.0231407 0
M  V30 754 H 65.6283 1.74898 -0.742351 0
M  V30 755 H 63.7783 3.83926 0.594378 0
M  V30 756 H 65.4503 4.15896 -1.9957 0
M  V30 757 H 63.6933 3.8805 -1.93907 0
M  V30 758 H 64.3643 5.3716 -1.27135 0
M  V30 759 H 66.8403 4.15503 0.222908 0
M  V30 760 H 65.7163 5.43936 0.73657 0
M  V30 761 H 65.9773 4.04823 1.77682 0
M  V30 762 N 65.0364 0.313813 1.54444 0
M  V30 763 C 65.9464 -0.565714 2.27677 0
M  V30 764 C 66.9624 -1.13754 1.31666 0
M  V30 765 O 68.1384 -1.15959 1.64668 0
M  V30 766 C 65.2034 -1.71528 3.01296 0
M  V30 767 C 64.2644 -1.17624 4.12872 0
M  V30 768 C 63.4974 -2.27102 4.8297 0
M  V30 769 O 63.7204 -3.47256 4.52514 0
M  V30 770 O 62.6544 -1.9307 5.70094 0
M  V30 771 H 66.4804 0.0287296 3.03686 0
M  V30 772 H 64.0654 0.0798312 1.49187 0
M  V30 773 H 65.9474 -2.38476 3.4743 0
M  V30 774 H 64.6224 -2.29608 2.2817 0
M  V30 775 H 63.5294 -0.472124 3.71109 0
M  V30 776 H 64.8624 -0.640695 4.88012 0
M  V30 777 N 66.5145 -1.57545 0.0417849 0
M  V30 778 C 67.9255 -1.80011 -0.495259 0
M  V30 779 C 68.2765 -0.953199 -1.71489 0
M  V30 780 O 67.4015 -0.167138 -2.15754 0
M  V30 781 C 67.9965 -3.26482 -0.905265 0
M  V30 782 C 66.5555 -3.499 -1.38734 0
M  V30 783 C 65.7025 -2.74979 -0.358056 0
M  V30 784 H 68.6535 -1.56425 0.267736 0
M  V30 785 H 68.6745 -3.36887 -1.76882 0
M  V30 786 H 68.1865 -3.88096 -0.017401 0
M  V30 787 H 66.2875 -2.93553 -2.29471 0
M  V30 788 H 66.4005 -4.58615 -1.38598 0
M  V30 789 H 64.7645 -2.40834 -0.828912 0
M  V30 790 H 65.5475 -3.39315 0.521561 0
M  V30 791 N 67.9926 0.231505 -1.5589 0
M  V30 792 C 68.9226 1.29022 -1.94617 0
M  V30 793 C 69.9036 1.4941 -0.813067 0
M  V30 794 O 71.0886 1.6176 -1.07459 0
M  V30 795 C 68.2186 2.64199 -2.25424 0
M  V30 796 C 67.1726 2.58484 -3.41131 0
M  V30 797 C 66.4986 3.97599 -3.57518 0
M  V30 798 C 67.7986 2.1413 -4.76388 0
M  V30 799 H 69.4926 0.968563 -2.83301 0
M  V30 800 H 67.0386 0.464479 -1.36303 0
M  V30 801 H 68.9916 3.38413 -2.51107 0
M  V30 802 H 67.7156 2.98032 -1.33583 0
M  V30 803 H 66.3746 1.86727 -3.15481 0
M  V30 804 H 66.0226 4.28723 -2.6307 0
M  V30 805 H 65.7226 3.94659 -4.35337 0
M  V30 806 H 67.2466 4.7349 -3.85538 0
M  V30 807 H 68.6606 2.78083 -5.01341 0
M  V30 808 H 67.0576 2.2227 -5.57419 0
M  V30 809 H 68.1276 1.09331 -4.72414 0
M  V30 810 N 69.4707 1.49531 0.497807 0
M  V30 811 C 70.7187 1.58865 1.24926 0
M  V30 812 C 71.0397 0.278721 1.92998 0
M  V30 813 O 70.3097 -0.702144 1.82885 0
M  V30 814 H 68.8897 0.585343 0.464094 0
M  V30 815 H 71.5517 1.86174 0.57666 0
M  V30 816 H 70.6477 2.38633 2.01149 0
M  V30 817 N 70.9488 -0.749086 1.3866 0
M  V30 818 C 71.8788 -1.8764 1.38973 0
M  V30 819 C 72.8598 -1.68178 0.255004 0
M  V30 820 O 74.0448 -1.88704 0.458754 0
M  V30 821 C 71.1748 -3.25222 1.21851 0
M  V30 822 C 70.1288 -3.59295 2.32575 0
M  V30 823 C 69.4548 -4.95663 2.00555 0
M  V30 824 C 70.7548 -3.63709 3.7485 0
M  V30 825 H 72.4488 -1.87635 2.3331 0
M  V30 826 H 69.9948 -0.901329 1.12303 0
M  V30 827 H 71.9478 -4.03746 1.20695 0
M  V30 828 H 70.6718 -3.25719 0.239775 0
M  V30 829 H 69.3308 -2.83093 2.32925 0
M  V30 830 H 68.9788 -4.92724 1.01154 0
M  V30 831 H 68.6788 -5.19429 2.74714 0
M  V30 832 H 70.2028 -5.7656 2.01024 0
M  V30 833 H 71.6168 -4.32338 3.76506 0
M  V30 834 H 70.0138 -3.98986 4.48252 0
M  V30 835 H 71.0838 -2.63834 4.06841 0
M  V30 836 N 72.4269 -1.23603 -0.977757 0
M  V30 837 C 73.6729 -1.07129 -1.72195 0
M  V30 838 C 74.0059 0.390501 -1.90233 0
M  V30 839 O 73.2809 1.28902 -1.45653 0
M  V30 840 C 73.5639 -1.80031 -3.11867 0
M  V30 841 C 73.4169 -3.33899 -3.01383 0
M  V30 842 C 74.7359 -1.56492 -4.11337 0
M  V30 843 H 71.8549 -0.390571 -0.624999 0
M  V30 844 H 74.4969 -1.52142 -1.13811 0
M  V30 845 H 72.6469 -1.41768 -3.6171 0
M  V30 846 H 74.3189 -3.81699 -2.59043 0
M  V30 847 H 72.5619 -3.62796 -2.37827 0
M  V30 848 H 73.2329 -3.801 -4.00285 0
M  V30 849 H 75.7089 -1.89757 -3.70313 0
M  V30 850 H 74.5849 -2.09973 -5.07151 0
M  V30 851 H 74.8459 -0.500874 -4.39254 0
M  V30 852 N 73.905 1.17692 -1.04816 0
M  V30 853 C 74.852 2.21581 -0.645797 0
M  V30 854 C 75.822 1.62367 0.350159 0
M  V30 855 O 77.007 1.89254 0.242433 0
M  V30 856 C 74.147 3.45092 -0.0227568 0
M  V30 857 C 73.26 4.18613 -1.06709 0
M  V30 858 C 72.395 5.29602 -0.411767 0
M  V30 859 C 71.434 5.94904 -1.44067 0
M  V30 860 N 70.571 6.97414 -0.809781 0
M  V30 861 H 75.411 2.55353 -1.5362 0
M  V30 862 H 72.948 1.25438 -0.768364 0
M  V30 863 H 74.906 4.15679 0.35588 0
M  V30 864 H 73.536 3.11917 0.831122 0
M  V30 865 H 72.588 3.46779 -1.5636 0
M  V30 866 H 73.9 4.63293 -1.84827 0
M  V30 867 H 73.054 6.06696 0.0206623 0
M  V30 868 H 71.793 4.86045 0.401438 0
M  V30 869 H 70.798 5.16544 -1.88316 0
M  V30 870 H 72.023 6.40542 -2.25571 0
M  V30 871 H 69.969 6.55998 -0.0170186 0
M  V30 872 H 69.886 7.40386 -1.52856 0
M  V30 873 H 71.154 7.78463 -0.401999 0
M  V30 874 N 75.3831 0.828654 1.34056 0
M  V30 875 C 76.3131 0.269443 2.3194 0
M  V30 876 C 77.2941 -0.617247 1.58506 0
M  V30 877 O 78.4791 -0.542931 1.86456 0
M  V30 878 C 75.6091 -0.564793 3.42677 0
M  V30 879 C 74.5631 0.225241 4.27407 0
M  V30 880 C 73.8891 -0.7321 5.29664 0
M  V30 881 C 75.1891 1.43663 5.02154 0
M  V30 882 H 76.8831 1.08728 2.7896 0
M  V30 883 H 74.4291 0.524283 1.34117 0
M  V30 884 H 76.3821 -0.966233 4.10173 0
M  V30 885 H 75.1061 -1.41574 2.9432 0
M  V30 886 H 73.7651 0.608117 3.61521 0
M  V30 887 H 73.4131 -1.57916 4.77568 0
M  V30 888 H 73.1131 -0.20767 5.87233 0
M  V30 889 H 74.6371 -1.13128 6.00029 0
M  V30 890 H 76.0511 1.1089 5.62473 0
M  V30 891 H 74.4481 1.89711 5.69324 0
M  V30 892 H 75.5181 2.21181 4.31517 0
M  V30 893 N 76.8612 -1.46375 0.584142 0
M  V30 894 C 77.8242 -2.28784 -0.138108 0
M  V30 895 C 78.8242 -1.38471 -0.817462 0
M  V30 896 O 80.0142 -1.60833 -0.669199 0
M  V30 897 C 77.1462 -3.18892 -1.20503 0
M  V30 898 H 78.3392 -2.94117 0.586127 0
M  V30 899 H 75.8922 -1.52509 0.342171 0
M  V30 900 H 76.6272 -2.58309 -1.96079 0
M  V30 901 H 76.4122 -3.85388 -0.722384 0
M  V30 902 H 77.9022 -3.80914 -1.71155 0
M  V30 903 N 78.3393 -0.321999 -1.54275 0
M  V30 904 C 79.7503 0.166384 -1.85957 0
M  V30 905 C 80.1013 1.51747 -1.24367 0
M  V30 906 O 79.2263 2.09317 -0.549124 0
M  V30 907 C 79.8213 0.308681 -3.37391 0
M  V30 908 C 78.3803 0.741286 -3.69028 0
M  V30 909 C 77.5273 -0.137937 -2.76957 0
M  V30 910 H 80.4783 -0.542335 -1.49146 0
M  V30 911 H 80.4993 1.13984 -3.63026 0
M  V30 912 H 80.0113 -0.674809 -3.82188 0
M  V30 913 H 78.1123 1.73458 -3.29762 0
M  V30 914 H 78.2253 0.546118 -4.75977 0
M  V30 915 H 76.5893 0.386251 -2.51754 0
M  V30 916 H 77.3723 -1.11816 -3.2458 0
M  V30 917 N 79.8174 1.5752 -0.0501392 0
M  V30 918 C 80.7274 2.14952 0.939827 0
M  V30 919 C 81.7434 1.10706 1.34239 0
M  V30 920 O 82.9194 1.42869 1.41952 0
M  V30 921 C 79.9844 2.68232 2.19665 0
M  V30 922 C 79.0454 3.87272 1.85253 0
M  V30 923 C 78.2784 4.38002 3.04943 0
M  V30 924 O 78.5014 3.87811 4.18281 0
M  V30 925 O 77.4354 5.29602 2.86017 0
M  V30 926 H 81.2614 2.9986 0.481392 0
M  V30 927 H 78.8464 1.4841 0.171699 0
M  V30 928 H 80.7284 3.02475 2.93406 0
M  V30 929 H 79.4034 1.86395 2.64648 0
M  V30 930 H 78.3104 3.5792 1.0883 0
M  V30 931 H 79.6434 4.70336 1.4507 0
M  V30 932 N 81.2955 -0.223234 1.56011 0
M  V30 933 C 82.5725 -0.972108 1.69733 0
M  V30 934 C 82.9525 -2.02485 0.59691 0
M  V30 935 O 82.3005 -2.25037 -0.396324 0
M  V30 936 C 82.5105 -1.58407 3.10979 0
M  V30 937 C 83.8585 -2.07696 3.70334 0
M  V30 938 O 84.8825 -1.68304 3.1393 0
M  V30 939 O 83.7415 -2.80096 4.69264 0
M  V30 940 H 80.8355 -0.453993 0.691245 0
M  V30 941 H 83.3815 -0.215149 1.68331 0
M  V30 942 H 82.1535 -0.823831 3.82529 0
M  V30 943 H 81.7765 -2.40661 3.16493 0
M  V30 944 N 82.7736 -1.49793 -0.48987 0
M  V30 945 C 84.0216 -1.59525 -1.24081 0
M  V30 946 C 84.3426 -0.288953 -1.92847 0
M  V30 947 O 83.6126 0.692436 -1.83254 0
M  V30 948 H 82.1926 -0.587796 -0.460983 0
M  V30 949 H 84.8546 -1.86477 -0.566778 0
M  V30 950 H 83.9506 -2.39696 -1.99881 0
M  V30 951 N 84.2517 0.741722 -1.39055 0
M  V30 952 C 85.1837 1.8657 -1.33133 0
M  V30 953 C 86.1967 1.61001 -0.241329 0
M  V30 954 O 87.3857 1.7136 -0.499784 0
M  V30 955 C 84.4857 3.22457 -1.04283 0
M  V30 956 C 83.6587 3.75435 -2.24427 0
M  V30 957 C 82.7177 4.89867 -1.92138 0
M  V30 958 O 81.7437 5.03879 -2.64754 0
M  V30 959 N 82.9457 5.73738 -0.88347 0
M  V30 960 H 85.7107 1.92156 -2.29991 0
M  V30 961 H 83.2717 0.922172 -1.3307 0
M  V30 962 H 85.2637 3.9657 -0.807128 0
M  V30 963 H 83.8337 3.12181 -0.161807 0
M  V30 964 H 83.0537 2.92751 -2.6399 0
M  V30 965 H 84.3417 4.07563 -3.04581 0
M  V30 966 H 83.7397 5.64999 -0.281517 0
M  V30 967 H 82.2967 6.47947 -0.707662 0
M  V30 968 N 85.7298 1.2412 0.971189 0
M  V30 969 C 86.9758 1.08041 1.71625 0
M  V30 970 C 87.3088 -0.380407 1.90438 0
M  V30 971 O 86.5838 -1.28127 1.46334 0
M  V30 972 C 86.8668 1.81682 3.10908 0
M  V30 973 C 86.7198 3.35493 2.99608 0
M  V30 974 C 88.0388 1.58671 4.10501 0
M  V30 975 H 85.1578 0.39388 0.622919 0
M  V30 976 H 87.7998 1.52743 1.13003 0
M  V30 977 H 85.9498 1.43684 3.60953 0
M  V30 978 H 87.6218 3.83068 2.57015 0
M  V30 979 H 85.8648 3.64052 2.35899 0
M  V30 980 H 86.5358 3.82217 3.98264 0
M  V30 981 H 89.0118 1.91719 3.69301 0
M  V30 982 H 87.8878 2.1266 5.06031 0
M  V30 983 H 88.1488 0.524161 4.38982 0
M  V30 984 N 87.2079 -1.17134 1.05439 0
M  V30 985 C 88.4379 -1.91094 0.785274 0
M  V30 986 C 88.8459 -1.77198 -0.663142 0
M  V30 987 O 88.1889 -1.10835 -1.46497 0
M  V30 988 C 88.2509 -3.42594 1.08949 0
M  V30 989 C 87.9149 -3.80274 2.53458 0
M  V30 990 C 88.9119 -3.82912 3.51673 0
M  V30 991 C 86.5969 -4.11162 2.88532 0
M  V30 992 C 88.5909 -4.15913 4.83006 0
M  V30 993 C 86.2779 -4.43831 4.20068 0
M  V30 994 C 87.2759 -4.46185 5.17115 0
M  V30 995 O 86.9639 -4.78083 6.46291 0
M  V30 996 H 86.6959 -0.613073 0.284811 0
M  V30 997 H 89.2499 -1.49461 1.40893 0
M  V30 998 H 87.4799 -3.84534 0.408741 0
M  V30 999 H 89.1689 -3.97817 0.805991 0
M  V30 1000 H 89.9349 -3.5917 3.25917 0
M  V30 1001 H 85.8139 -4.085 2.13656 0
M  V30 1002 H 89.3579 -4.17665 5.5875 0
M  V30 1003 H 85.2549 -4.67037 4.45586 0
M  V30 1004 H 86.0229 -4.9593 6.51149 0
M  V30 1005 N 88.686 -0.835752 -1.33615 0
M  V30 1006 C 89.596 -0.269088 -2.33052 0
M  V30 1007 C 90.612 0.603251 -1.63208 0
M  V30 1008 O 91.788 0.508112 -1.94885 0
M  V30 1009 C 88.853 0.549091 -3.42324 0
M  V30 1010 C 87.914 -0.347156 -4.27894 0
M  V30 1011 C 87.147 0.43207 -5.31948 0
M  V30 1012 O 87.37 1.66409 -5.45586 0
M  V30 1013 O 86.304 -0.192298 -6.01593 0
M  V30 1014 H 90.13 -1.09243 -2.83372 0
M  V30 1015 H 87.715 -0.598198 -1.36901 0
M  V30 1016 H 89.597 1.01414 -4.09015 0
M  V30 1017 H 88.272 1.34955 -2.94226 0
M  V30 1018 H 87.179 -0.859979 -3.64081 0
M  V30 1019 H 88.512 -1.1123 -4.79467 0
M  V30 1020 N 90.1641 1.46063 -0.591896 0
M  V30 1021 C 91.0941 2.33172 0.123673 0
M  V30 1022 C 92.0751 1.45897 0.87453 0
M  V30 1023 O 93.2601 1.74698 0.848181 0
M  V30 1024 C 90.3901 3.28336 1.13194 0
M  V30 1025 C 89.3441 4.25124 0.495324 0
M  V30 1026 C 88.6701 5.09863 1.61071 0
M  V30 1027 C 89.9701 5.19143 -0.573425 0
M  V30 1028 H 91.6641 2.93252 -0.603646 0
M  V30 1029 H 89.2101 1.41014 -0.291741 0
M  V30 1030 H 91.1631 3.88137 1.64097 0
M  V30 1031 H 89.8871 2.66383 1.88965 0
M  V30 1032 H 88.5461 3.66599 0.00729452 0
M  V30 1033 H 88.1941 4.44288 2.35832 0
M  V30 1034 H 87.8941 5.75417 1.19035 0
M  V30 1035 H 89.4181 5.72529 2.12233 0
M  V30 1036 H 90.8321 5.73106 -0.1491 0
M  V30 1037 H 89.2291 5.93089 -0.914636 0
M  V30 1038 H 90.2991 4.62519 -1.45617 0
M  V30 1039 N 91.6422 0.330177 1.54103 0
M  V30 1040 C 93.0532 -0.15652 1.86043 0
M  V30 1041 C 93.4042 -1.51086 1.2517 0
M  V30 1042 O 92.5292 -2.09023 0.560217 0
M  V30 1043 C 93.1242 -0.290784 3.3755 0
M  V30 1044 C 91.6832 -0.721705 3.69416 0
M  V30 1045 C 90.8302 0.152622 2.7688 0
M  V30 1046 H 93.7812 0.550237 1.48856 0
M  V30 1047 H 93.8022 -1.12058 3.63625 0
M  V30 1048 H 93.3142 0.695068 3.81825 0
M  V30 1049 H 91.4152 -1.71706 3.30678 0
M  V30 1050 H 91.5282 -0.520869 4.7626 0
M  V30 1051 H 89.8922 -0.372894 2.51956 0
M  V30 1052 H 90.6752 1.13536 3.23982 0
M  V30 1053 N 93.1203 -1.57491 0.0584922 0
M  V30 1054 C 94.3503 -1.9701 -0.622134 0
M  V30 1055 C 94.7583 -0.935034 -1.6448 0
M  V30 1056 O 94.1013 0.0882904 -1.83488 0
M  V30 1057 C 94.1633 -3.32794 -1.35972 0
M  V30 1058 C 93.8273 -4.54343 -0.492043 0
M  V30 1059 C 94.8243 -5.19323 0.244901 0
M  V30 1060 C 92.5093 -5.00534 -0.420821 0
M  V30 1061 C 94.5033 -6.28835 1.04143 0
M  V30 1062 C 92.1903 -6.09921 0.379389 0
M  V30 1063 C 93.1883 -6.73933 1.10919 0
M  V30 1064 O 92.8763 -7.81216 1.89623 0
M  V30 1065 H 92.6083 -0.653127 -0.174359 0
M  V30 1066 H 95.1623 -2.05029 0.123418 0
M  V30 1067 H 93.3923 -3.21351 -2.15105 0
M  V30 1068 H 95.0813 -3.5701 -1.93129 0
M  V30 1069 H 95.8473 -4.8459 0.19939 0
M  V30 1070 H 91.7263 -4.50496 -0.978474 0
M  V30 1071 H 95.2703 -6.7873 1.61157 0
M  V30 1072 H 91.1673 -6.44089 0.426512 0
M  V30 1073 H 91.9353 -7.98029 1.81913 0
M  V30 1074 N 94.5984 0.214957 -1.56127 0
M  V30 1075 C 96.0094 0.781386 -1.69562 0
M  V30 1076 C 96.3604 1.84707 -0.66165 0
M  V30 1077 O 95.4854 2.156 0.185927 0
M  V30 1078 C 96.0804 1.42411 -3.07416 0
M  V30 1079 C 94.6394 1.93786 -3.22683 0
M  V30 1080 C 93.7864 0.800438 -2.65496 0
M  V30 1081 H 96.7374 -0.00980633 -1.58697 0
M  V30 1082 H 96.7584 2.29309 -3.0364 0
M  V30 1083 H 96.2704 0.64826 -3.82648 0
M  V30 1084 H 94.3714 2.74152 -2.52332 0
M  V30 1085 H 94.4844 2.1133 -4.29973 0
M  V30 1086 H 92.8484 1.2095 -2.2415 0
M  V30 1087 H 93.6314 0.0371471 -3.4328 0
M  V30 1088 N 96.0765 1.50051 0.48192 0
M  V30 1089 C 97.0235 1.68122 1.58125 0
M  V30 1090 C 97.9935 0.522545 1.57666 0
M  V30 1091 O 99.1785 0.751844 1.75362 0
M  V30 1092 C 96.3185 1.77142 2.96167 0
M  V30 1093 C 95.4315 3.0444 3.06497 0
M  V30 1094 C 94.5665 3.04321 4.35387 0
M  V30 1095 C 93.6055 4.26118 4.3942 0
M  V30 1096 N 92.7425 4.238 5.59766 0
M  V30 1097 H 97.5825 2.6198 1.42022 0
M  V30 1098 H 95.1195 1.29877 0.690687 0
M  V30 1099 H 97.0775 1.80352 3.76203 0
M  V30 1100 H 95.7075 0.867329 3.1093 0
M  V30 1101 H 94.7595 3.10752 2.19402 0
M  V30 1102 H 96.0715 3.94426 3.05336 0
M  V30 1103 H 95.2255 3.062 5.23762 0
M  V30 1104 H 93.9645 2.12147 4.39141 0
M  V30 1105 H 92.9695 4.24463 3.49444 0
M  V30 1106 H 94.1945 5.19507 4.37366 0
M  V30 1107 H 92.1405 3.34474 5.64326 0
M  V30 1108 H 92.0575 5.07542 5.60301 0
M  V30 1109 H 93.3255 4.2981 6.50295 0
M  V30 1110 N 97.5546 -0.734337 1.39446 0
M  V30 1111 C 98.7826 -1.52358 1.39981 0
M  V30 1112 C 99.1976 -1.88799 -0.0054975 0
M  V30 1113 O 98.5546 -1.54146 -0.976998 0
M  V30 1114 C 98.6056 -2.81072 2.27333 0
M  V30 1115 O 98.3266 -2.46178 3.62392 0
M  V30 1116 C 99.8276 -3.75096 2.36259 0
M  V30 1117 H 97.0476 -0.470806 0.478103 0
M  V30 1118 H 99.5916 -0.907339 1.83269 0
M  V30 1119 H 97.7466 -3.39026 1.87457 0
M  V30 1120 H 98.1606 -3.28866 4.08592 0
M  V30 1121 H 99.6346 -4.62305 3.01626 0
M  V30 1122 H 100.112 -4.16892 1.38194 0
M  V30 1123 H 100.718 -3.23061 2.76608 0
M  V30 1124 N 99.0327 -1.24633 -0.964593 0
M  V30 1125 C 100.28 -1.08788 -1.70796 0
M  V30 1126 C 100.608 0.372783 -1.90894 0
M  V30 1127 O 99.8627 1.29167 -1.47018 0
M  V30 1128 C 100.162 -1.7763 -3.10133 0
M  V30 1129 C 99.8277 -3.27557 -3.09866 0
M  V30 1130 C 98.4897 -3.6846 -3.09501 0
M  V30 1131 C 100.842 -4.23389 -3.03959 0
M  V30 1132 C 98.1697 -5.03624 -3.00965 0
M  V30 1133 C 100.522 -5.58565 -2.96965 0
M  V30 1134 C 99.1857 -5.98809 -2.9493 0
M  V30 1135 H 98.4557 -0.398084 -0.624988 0
M  V30 1136 H 101.103 -1.54777 -1.12767 0
M  V30 1137 H 99.4077 -1.24044 -3.71645 0
M  V30 1138 H 101.105 -1.62832 -3.66451 0
M  V30 1139 H 97.6947 -2.95006 -3.10917 0
M  V30 1140 H 101.879 -3.92787 -3.03368 0
M  V30 1141 H 97.1347 -5.33998 -2.97752 0
M  V30 1142 H 101.309 -6.32523 -2.91354 0
M  V30 1143 H 98.9357 -7.03505 -2.88071 0
M  V30 1144 N 100.511 1.16574 -1.06058 0
M  V30 1145 C 101.757 1.87324 -0.777022 0
M  V30 1146 C 102.09 1.81351 0.694645 0
M  V30 1147 O 101.365 1.22753 1.50871 0
M  V30 1148 C 101.648 3.36991 -1.26922 0
M  V30 1149 C 101.501 3.51667 -2.80447 0
M  V30 1150 C 102.82 4.3131 -0.87521 0
M  V30 1151 H 99.9388 0.680191 -0.28374 0
M  V30 1152 H 102.581 1.37036 -1.3161 0
M  V30 1153 H 100.731 3.79949 -0.81063 0
M  V30 1154 H 102.403 3.17664 -3.34495 0
M  V30 1155 H 100.646 2.93656 -3.19294 0
M  V30 1156 H 101.317 4.56766 -3.0995 0
M  V30 1157 H 103.793 3.9624 -1.27014 0
M  V30 1158 H 102.669 5.34545 -1.2471 0
M  V30 1159 H 102.93 4.41552 0.220071 0
M  V30 1160 N 101.989 0.842826 1.3317 0
M  V30 1161 C 102.919 0.294028 2.31641 0
M  V30 1162 C 103.9 -0.600401 1.59151 0
M  V30 1163 O 105.085 -0.523124 1.87022 0
M  V30 1164 C 102.215 -0.528416 3.43257 0
M  V30 1165 C 101.169 0.27056 4.27144 0
M  V30 1166 C 100.495 -0.675881 5.30411 0
M  V30 1167 C 101.795 1.48981 5.00602 0
M  V30 1168 H 103.489 1.11681 2.77791 0
M  V30 1169 H 101.035 0.538478 1.33553 0
M  V30 1170 H 102.988 -0.922674 4.11175 0
M  V30 1171 H 101.712 -1.38445 2.95805 0
M  V30 1172 H 100.371 0.646427 3.60856 0
M  V30 1173 H 100.019 -1.52842 4.79216 0
M  V30 1174 H 99.7189 -0.145374 5.8742 0
M  V30 1175 H 101.243 -1.06757 6.01195 0
M  V30 1176 H 102.657 1.16849 5.61266 0
M  V30 1177 H 101.054 1.95739 5.6728 0
M  V30 1178 H 102.124 2.25746 4.29147 0
M  V30 1179 N 103.467 -1.45747 0.599634 0
M  V30 1180 C 104.878 -1.85853 0.177681 0
M  V30 1181 C 105.229 -1.50102 -1.26348 0
M  V30 1182 O 104.354 -0.923905 -1.95686 0
M  V30 1183 C 104.949 -3.37326 0.315688 0
M  V30 1184 C 103.508 -3.76365 -0.0515144 0
M  V30 1185 C 102.655 -2.69722 0.643822 0
M  V30 1186 H 105.606 -1.36661 0.806814 0
M  V30 1187 H 105.627 -3.77778 -0.454321 0
M  V30 1188 H 105.139 -3.63315 1.36468 0
M  V30 1189 H 103.24 -3.55993 -1.09999 0
M  V30 1190 H 103.353 -4.77916 0.336594 0
M  V30 1191 H 101.717 -2.54567 0.0822881 0
M  V30 1192 H 102.5 -2.98549 1.6948 0
M  V30 1193 N 104.945 -0.338344 -1.53925 0
M  V30 1194 C 105.895 0.536712 -2.21593 0
M  V30 1195 C 106.879 1.07015 -1.20153 0
M  V30 1196 O 108.071 1.00471 -1.45721 0
M  V30 1197 C 105.2 1.68977 -2.98834 0
M  V30 1198 C 104.286 1.17052 -4.07627 0
M  V30 1199 N 104.677 0.372085 -5.0443 0
M  V30 1200 C 102.975 1.44789 -4.21844 0
M  V30 1201 C 103.676 0.0909171 -5.81629 0
M  V30 1202 N 102.652 0.681131 -5.39316 0
M  V30 1203 H 106.454 -0.0804298 -2.9379 0
M  V30 1204 H 103.968 -0.144943 -1.61752 0
M  V30 1205 H 105.965 2.32857 -3.45808 0
M  V30 1206 H 104.625 2.31024 -2.28162 0
M  V30 1207 H 105.636 0.0136217 -5.17898 0
M  V30 1208 H 102.313 2.07313 -3.62391 0
M  V30 1209 H 103.703 -0.552817 -6.69622 0
M  V30 1210 N 106.423 1.57458 -0.0668435 0
M  V30 1211 C 107.671 1.92919 0.602214 0
M  V30 1212 C 107.992 0.947215 1.70449 0
M  V30 1213 O 107.262 -0.00544117 1.95899 0
M  V30 1214 H 105.842 0.71217 0.22544 0
M  V30 1215 H 108.504 1.94508 -0.123535 0
M  V30 1216 H 107.6 2.94589 1.03073 0
M  V30 1217 N 107.901 -0.206675 1.56239 0
M  V30 1218 C 109.149 -0.927007 1.79586 0
M  V30 1219 C 109.47 -1.8427 0.637929 0
M  V30 1220 O 108.74 -1.92849 -0.344398 0
M  V30 1221 H 107.32 -0.345292 0.662407 0
M  V30 1222 H 109.982 -0.21496 1.93711 0
M  V30 1223 H 109.078 -1.52501 2.72305 0
M  V30 1224 N 109.379 -1.50304 -0.473955 0
M  V30 1225 C 110.607 -1.64902 -1.24959 0
M  V30 1226 C 111.022 -0.331198 -1.85872 0
M  V30 1227 O 110.379 0.68652 -1.69095 0
M  V30 1228 C 110.43 -2.73803 -2.36038 0
M  V30 1229 O 110.151 -4.00477 -1.77624 0
M  V30 1230 C 111.652 -2.99349 -3.26964 0
M  V30 1231 H 108.872 -0.554383 -0.378022 0
M  V30 1232 H 111.416 -1.9651 -0.566054 0
M  V30 1233 H 109.571 -2.44898 -3.00173 0
M  V30 1234 H 109.985 -4.60678 -2.5075 0
M  V30 1235 H 111.459 -3.79217 -4.01121 0
M  V30 1236 H 111.936 -2.10307 -3.85574 0
M  V30 1237 H 112.542 -3.29774 -2.68569 0
M  V30 1238 N 110.857 0.726932 -1.39834 0
M  V30 1239 C 112.103 1.48884 -1.377 0
M  V30 1240 C 112.436 1.94185 0.0244852 0
M  V30 1241 O 111.711 1.67361 0.990986 0
M  V30 1242 C 111.994 2.72288 -2.3565 0
M  V30 1243 C 111.847 2.32956 -3.84775 0
M  V30 1244 C 113.166 3.74414 -2.31306 0
M  V30 1245 H 110.285 0.540062 -0.5015 0
M  V30 1246 H 112.927 0.830547 -1.70886 0
M  V30 1247 H 111.077 3.28457 -2.07481 0
M  V30 1248 H 112.749 1.82356 -4.23726 0
M  V30 1249 H 110.992 1.65088 -4.01159 0
M  V30 1250 H 111.663 3.21362 -4.4881 0
M  V30 1251 H 114.139 3.27849 -2.56231 0
M  V30 1252 H 113.015 4.58414 -3.01907 0
M  V30 1253 H 113.276 4.21909 -1.32081 0
M  V30 1254 N 112.336 1.25143 0.95797 0
M  V30 1255 C 113.564 1.12424 1.73691 0
M  V30 1256 C 113.979 -0.322304 1.86029 0
M  V30 1257 O 113.336 -1.22186 1.35561 0
M  V30 1258 C 113.387 1.76933 3.15241 0
M  V30 1259 O 113.108 3.15932 3.03511 0
M  V30 1260 C 114.609 1.6995 4.09429 0
M  V30 1261 H 111.829 0.3923 0.544373 0
M  V30 1262 H 114.373 1.6544 1.20207 0
M  V30 1263 H 112.528 1.27895 3.6568 0
M  V30 1264 H 112.942 3.47598 3.9278 0
M  V30 1265 H 114.416 2.19753 5.06372 0
M  V30 1266 H 114.893 0.662619 4.34173 0
M  V30 1267 H 115.499 2.18461 3.64904 0
M  V30 1268 N 113.814 -1.1601 1.06675 0
M  V30 1269 C 115.06 -1.86909 0.786945 0
M  V30 1270 C 115.393 -1.81717 -0.685018 0
M  V30 1271 O 114.668 -1.23551 -1.50218 0
M  V30 1272 C 114.951 -3.36313 1.28707 0
M  V30 1273 C 114.804 -3.50175 2.82308 0
M  V30 1274 C 116.123 -4.3084 0.898071 0
M  V30 1275 H 113.242 -0.678677 0.287343 0
M  V30 1276 H 115.884 -1.36336 1.32334 0
M  V30 1277 H 114.034 -3.79513 0.830768 0
M  V30 1278 H 115.706 -3.15886 3.36175 0
M  V30 1279 H 113.949 -2.91959 3.20847 0
M  V30 1280 H 114.62 -4.55116 3.12368 0
M  V30 1281 H 117.096 -3.95561 1.29114 0
M  V30 1282 H 115.972 -5.33876 1.27543 0
M  V30 1283 H 116.233 -4.41662 -0.196651 0
M  V30 1284 N 115.292 -0.849877 -1.32721 0
M  V30 1285 C 116.703 -0.506188 -1.79707 0
M  V30 1286 C 117.054 0.975627 -1.70223 0
M  V30 1287 O 116.179 1.76078 -1.25799 0
M  V30 1288 C 116.774 -0.912044 -3.26293 0
M  V30 1289 C 115.333 -0.620326 -3.71253 0
M  V30 1290 C 114.48 -1.11439 -2.53922 0
M  V30 1291 H 117.431 -1.03754 -1.20087 0
M  V30 1292 H 117.452 -0.226493 -3.79825 0
M  V30 1293 H 116.964 -1.99057 -3.33164 0
M  V30 1294 H 115.065 0.447674 -3.69901 0
M  V30 1295 H 115.178 -1.18327 -4.64258 0
M  V30 1296 H 113.542 -0.534834 -2.49021 0
M  V30 1297 H 114.325 -2.19992 -2.6355 0
M  V30 1298 N 116.77 1.45427 -0.607355 0
M  V30 1299 C 118.186 1.57283 -0.270985 0
M  V30 1300 C 118.386 1.59875 1.22647 0
M  V30 1301 O 117.442 1.52893 2.00948 0
M  V30 1302 C 118.755 2.85566 -0.941952 0
M  V30 1303 C 120.303 2.9924 -0.917849 0
M  V30 1304 C 120.778 4.30293 -1.56882 0
M  V30 1305 N 122.269 4.37051 -1.5343 0
M  V30 1306 C 123.004 5.37123 -2.00715 0
M  V30 1307 N 122.5 6.43734 -2.56084 0
M  V30 1308 N 124.293 5.28479 -1.91484 0
M  V30 1309 H 116.444 1.41988 -1.57966 0
M  V30 1310 H 118.707 0.67885 -0.661715 0
M  V30 1311 H 118.413 2.8955 -1.99633 0
M  V30 1312 H 118.287 3.74322 -0.465096 0
M  V30 1313 H 120.674 2.94822 0.127984 0
M  V30 1314 H 120.755 2.11895 -1.43297 0
M  V30 1315 H 120.399 4.35469 -2.61398 0
M  V30 1316 H 120.329 5.16454 -1.02873 0
M  V30 1317 H 122.82 3.60615 -1.12982 0
M  V30 1318 H 123.133 7.16341 -2.89958 0
M  V30 1319 H 121.478 6.44485 -2.60122 0
M  V30 1320 H 124.669 4.44098 -1.47967 0
M  V30 1321 H 124.842 6.0632 -2.28648 0
M  V30 1322 N 118.248 0.346503 1.53744 0
M  V30 1323 C 119.664 -0.00530975 1.59599 0
M  V30 1324 C 119.864 -1.48465 1.36236 0
M  V30 1325 O 118.92 -2.24376 1.15808 0
M  V30 1326 C 120.233 0.433516 2.97559 0
M  V30 1327 C 121.781 0.386111 3.10609 0
M  V30 1328 C 122.256 0.800451 4.50951 0
M  V30 1329 N 123.747 0.754753 4.5701 0
M  V30 1330 C 124.482 1.04727 5.63755 0
M  V30 1331 N 123.978 1.4081 6.7834 0
M  V30 1332 N 125.771 0.971316 5.53644 0
M  V30 1333 H 117.922 1.31009 1.67184 0
M  V30 1334 H 120.185 0.534242 0.783128 0
M  V30 1335 H 119.891 1.46509 3.19731 0
M  V30 1336 H 119.765 -0.189753 3.76722 0
M  V30 1337 H 122.152 -0.636295 2.88158 0
M  V30 1338 H 122.233 1.04462 2.33498 0
M  V30 1339 H 121.877 1.82088 4.74137 0
M  V30 1340 H 121.807 0.119386 5.26465 0
M  V30 1341 H 124.298 0.488662 3.74727 0
M  V30 1342 H 124.611 1.61607 7.55714 0
M  V30 1343 H 122.956 1.44657 6.79779 0
M  V30 1344 H 126.147 0.688748 4.63005 0
M  V30 1345 H 126.32 1.20263 6.36742 0
M  V30 1346 N 119.726 -1.57421 0.075193 0
M  V30 1347 C 121.142 -1.57099 -0.281444 0
M  V30 1348 C 121.342 -1.08486 -1.69803 0
M  V30 1349 O 120.398 -0.752279 -2.41033 0
M  V30 1350 C 121.711 -3.00571 -0.0880041 0
M  V30 1351 C 123.259 -3.12605 -0.157281 0
M  V30 1352 C 123.734 -4.57999 0.0079207 0
M  V30 1353 N 125.225 -4.63176 -0.0475725 0
M  V30 1354 C 125.96 -5.73373 0.0557876 0
M  V30 1355 N 125.456 -6.92473 0.21286 0
M  V30 1356 N 127.249 -5.621 -0.00152098 0
M  V30 1357 H 119.4 -1.87335 1.00098 0
M  V30 1358 H 121.663 -0.86377 0.390646 0
M  V30 1359 H 121.369 -3.40262 0.889629 0
M  V30 1360 H 121.243 -3.67754 -0.838875 0
M  V30 1361 H 123.63 -2.72798 -1.1254 0
M  V30 1362 H 123.711 -2.48053 0.62475 0
M  V30 1363 H 123.355 -4.98496 0.972824 0
M  V30 1364 H 123.285 -5.20586 -0.793556 0
M  V30 1365 H 125.776 -3.7753 -0.167244 0
M  V30 1366 H 126.089 -7.72279 0.283781 0
M  V30 1367 H 124.434 -6.94556 0.248267 0
M  V30 1368 H 127.625 -4.67938 -0.122958 0
M  V30 1369 H 127.798 -6.47948 0.0824844 0
M  V30 1370 N 121.204 0.198386 -1.56346 0
M  V30 1371 C 122.615 0.763358 -1.70381 0
M  V30 1372 C 122.966 1.83995 -0.681203 0
M  V30 1373 O 122.091 2.15785 0.16305 0
M  V30 1374 C 122.686 1.39143 -3.08909 0
M  V30 1375 C 121.245 1.90352 -3.2472 0
M  V30 1376 C 120.392 0.772233 -2.6633 0
M  V30 1377 H 123.343 -0.0266377 -1.58678 0
M  V30 1378 H 123.364 2.26076 -3.06055 0
M  V30 1379 H 122.876 0.607638 -3.83314 0
M  V30 1380 H 120.977 2.71461 -2.55225 0
M  V30 1381 H 121.09 2.06757 -4.3219 0
M  V30 1382 H 119.454 1.18566 -2.2542 0
M  V30 1383 H 120.237 0.00073556 -3.433 0
M  V30 1384 N 122.682 1.50554 0.465978 0
M  V30 1385 C 123.592 1.72585 1.58907 0
M  V30 1386 C 124.608 0.60911 1.6299 0
M  V30 1387 O 125.784 0.88804 1.80765 0
M  V30 1388 C 122.849 1.81995 2.95091 0
M  V30 1389 C 121.91 3.05751 3.01355 0
M  V30 1390 C 121.143 3.14702 4.31043 0
M  V30 1391 O 121.366 2.30313 5.21835 0
M  V30 1392 O 120.3 4.07468 4.43005 0
M  V30 1393 H 124.126 2.67799 1.43239 0
M  V30 1394 H 121.711 1.34711 0.646013 0
M  V30 1395 H 123.593 1.90335 3.75966 0
M  V30 1396 H 122.268 0.899659 3.10947 0
M  V30 1397 H 121.175 3.02908 2.19539 0
M  V30 1398 H 122.508 3.97375 2.90437 0
M  V30 1399 N 124.16 -0.719506 1.40217 0
M  V30 1400 C 125.388 -1.50864 1.41589 0
M  V30 1401 C 125.803 -1.88794 0.0145275 0
M  V30 1402 O 125.16 -1.55174 -0.960594 0
M  V30 1403 C 125.211 -2.78646 2.30302 0
M  V30 1404 O 124.932 -2.42321 3.64983 0
M  V30 1405 C 126.433 -3.72569 2.40224 0
M  V30 1406 H 123.653 -0.465709 0.48307 0
M  V30 1407 H 126.197 -0.88785 1.84221 0
M  V30 1408 H 124.352 -3.37019 1.91042 0
M  V30 1409 H 124.766 -3.24514 4.12057 0
M  V30 1410 H 126.24 -4.5908 3.06512 0
M  V30 1411 H 126.717 -4.15403 1.42608 0
M  V30 1412 H 127.323 -3.20109 2.80019 0
M  V30 1413 N 125.638 -1.25649 -0.95132 0
M  V30 1414 C 127.054 -1.02542 -1.223 0
M  V30 1415 C 127.254 0.255715 -1.99871 0
M  V30 1416 O 126.31 0.967558 -2.33226 0
M  V30 1417 C 127.623 -2.25065 -1.99415 0
M  V30 1418 C 129.171 -2.29861 -2.12446 0
M  V30 1419 C 129.646 -3.52048 -2.92961 0
M  V30 1420 N 131.137 -3.52465 -3.00538 0
M  V30 1421 C 131.872 -4.43672 -3.63239 0
M  V30 1422 N 131.368 -5.45157 -4.27523 0
M  V30 1423 N 133.161 -4.31346 -3.60412 0
M  V30 1424 H 125.312 -2.07951 -0.432471 0
M  V30 1425 H 127.575 -0.91339 -0.253816 0
M  V30 1426 H 127.281 -3.18194 -1.49817 0
M  V30 1427 H 127.155 -2.28502 -3.00111 0
M  V30 1428 H 129.542 -1.37252 -2.61239 0
M  V30 1429 H 129.623 -2.3044 -1.11044 0
M  V30 1430 H 129.267 -4.44981 -2.44856 0
M  V30 1431 H 129.197 -3.48715 -3.94596 0
M  V30 1432 H 131.688 -2.79056 -2.54826 0
M  V30 1433 H 132.001 -6.10958 -4.73234 0
M  V30 1434 H 130.346 -5.49025 -4.26141 0
M  V30 1435 H 133.537 -3.51288 -3.09377 0
M  V30 1436 H 133.71 -5.02624 -4.0899 0
M  V30 1437 N 127.117 1.15442 -1.07289 0
M  V30 1438 C 128.027 2.23786 -0.704057 0
M  V30 1439 C 129.043 1.7166 0.284413 0
M  V30 1440 O 130.219 2.00972 0.131205 0
M  V30 1441 C 127.284 3.46535 -0.106792 0
M  V30 1442 C 126.345 4.13654 -1.14842 0
M  V30 1443 C 125.578 5.30544 -0.57956 0
M  V30 1444 O 125.801 5.67187 0.604585 0
M  V30 1445 O 124.735 5.87154 -1.32414 0
M  V30 1446 H 128.561 2.57664 -1.60757 0
M  V30 1447 H 126.146 1.23152 -0.845803 0
M  V30 1448 H 128.028 4.20804 0.224048 0
M  V30 1449 H 126.703 3.14407 0.770049 0
M  V30 1450 H 125.61 3.4131 -1.5316 0
M  V30 1451 H 126.943 4.49861 -1.99714 0
M  V30 1452 N 128.595 0.856903 1.32268 0
M  V30 1453 C 129.525 0.31858 2.31316 0
M  V30 1454 C 130.506 -0.583487 1.59779 0
M  V30 1455 O 131.691 -0.503259 1.87566 0
M  V30 1456 C 128.821 -0.491979 3.43798 0
M  V30 1457 C 127.775 0.315849 4.26833 0
M  V30 1458 C 127.101 -0.619586 5.31098 0
M  V30 1459 C 128.401 1.54282 4.98993 0
M  V30 1460 H 130.095 1.14621 2.76591 0
M  V30 1461 H 127.641 0.552613 1.32974 0
M  V30 1462 H 129.594 -0.879012 4.1213 0
M  V30 1463 H 128.318 -1.35299 2.97257 0
M  V30 1464 H 126.977 0.684664 3.6015 0
M  V30 1465 H 126.625 -1.47751 4.8081 0
M  V30 1466 H 126.325 -0.0830621 5.87541 0
M  V30 1467 H 127.849 -1.00375 6.02293 0
M  V30 1468 H 129.263 1.22796 5.59995 0
M  V30 1469 H 127.66 2.01745 5.65172 0
M  V30 1470 H 128.73 2.30285 4.26728 0
M  V30 1471 N 130.073 -1.45103 0.615059 0
M  V30 1472 C 131.02 -2.30586 -0.0993978 0
M  V30 1473 C 131.99 -1.42544 -0.852669 0
M  V30 1474 O 133.175 -1.71465 -0.836917 0
M  V30 1475 C 130.315 -3.27572 -1.08583 0
M  V30 1476 C 129.428 -4.30717 -0.332656 0
M  V30 1477 C 128.563 -5.14807 -1.30947 0
M  V30 1478 C 127.602 -6.09673 -0.544538 0
M  V30 1479 N 126.739 -6.86517 -1.47101 0
M  V30 1480 H 131.579 -2.91144 0.635542 0
M  V30 1481 H 129.116 -1.4346 0.325206 0
M  V30 1482 H 131.074 -3.82276 -1.67095 0
M  V30 1483 H 129.704 -2.68751 -1.78809 0
M  V30 1484 H 128.756 -3.78615 0.368107 0
M  V30 1485 H 130.068 -4.98102 0.263842 0
M  V30 1486 H 129.222 -5.73948 -1.96643 0
M  V30 1487 H 127.961 -4.47458 -1.9399 0
M  V30 1488 H 126.966 -5.49656 0.126003 0
M  V30 1489 H 128.191 -6.79052 0.080947 0
M  V30 1490 H 126.137 -6.21851 -2.08895 0
M  V30 1491 H 126.054 -7.50281 -0.928137 0
M  V30 1492 H 127.322 -7.50194 -2.11731 0
M  V30 1493 N 131.551 -0.354651 -1.53558 0
M  V30 1494 C 132.481 0.489091 -2.2832 0
M  V30 1495 C 133.462 1.09324 -1.30316 0
M  V30 1496 O 134.647 1.11255 -1.59173 0
M  V30 1497 C 131.777 1.63456 -3.0643 0
M  V30 1498 C 130.731 1.1582 -4.12031 0
M  V30 1499 C 130.057 2.39305 -4.7816 0
M  V30 1500 C 131.357 0.250731 -5.21698 0
M  V30 1501 H 133.051 -0.134614 -2.99097 0
M  V30 1502 H 130.597 -0.0661826 -1.43848 0
M  V30 1503 H 132.55 2.23136 -3.57475 0
M  V30 1504 H 131.274 2.28533 -2.33325 0
M  V30 1505 H 129.933 0.584146 -3.61916 0
M  V30 1506 H 129.581 3.02814 -4.01637 0
M  V30 1507 H 129.281 2.08109 -5.49513 0
M  V30 1508 H 130.805 2.99691 -5.31994 0
M  V30 1509 H 132.219 0.754695 -5.68311 0
M  V30 1510 H 130.616 0.0301468 -6.00092 0
M  V30 1511 H 131.686 -0.710125 -4.79672 0
M  V30 1512 N 133.029 1.57378 -0.0835403 0
M  V30 1513 C 133.992 2.12252 0.864959 0
M  V30 1514 C 134.992 1.04916 1.21858 0
M  V30 1515 O 136.182 1.30853 1.14991 0
M  V30 1516 C 133.314 2.63358 2.16461 0
M  V30 1517 H 134.507 2.97371 0.388676 0
M  V30 1518 H 132.06 1.55423 0.165317 0
M  V30 1519 H 132.795 1.81727 2.686 0
M  V30 1520 H 132.58 3.41826 1.92087 0
M  V30 1521 H 134.07 3.05847 2.84337 0
M  V30 1522 N 134.507 -0.190092 1.56449 0
M  V30 1523 C 135.439 -1.25973 1.91477 0
M  V30 1524 C 136.452 -1.41452 0.805931 0
M  V30 1525 O 137.641 -1.41789 1.08435 0
M  V30 1526 C 134.741 -2.63117 2.13594 0
M  V30 1527 C 133.914 -2.69182 3.4476 0
M  V30 1528 C 132.973 -3.87557 3.5593 0
M  V30 1529 O 131.999 -3.74427 4.28711 0
M  V30 1530 N 133.201 -5.03224 2.89388 0
M  V30 1531 H 135.966 -0.962394 2.83828 0
M  V30 1532 H 133.527 -0.379981 1.57378 0
M  V30 1533 H 135.519 -3.40742 2.1835 0
M  V30 1534 H 134.089 -2.85319 1.27719 0
M  V30 1535 H 133.309 -1.77793 3.51828 0
M  V30 1536 H 134.597 -2.70229 4.31107 0
M  V30 1537 H 133.995 -5.16791 2.30094 0
M  V30 1538 H 132.552 -5.78778 2.99764 0
M  V30 1539 N 135.985 -1.50799 -0.457987 0
M  V30 1540 C 137.213 -1.66218 -1.23203 0
M  V30 1541 C 137.628 -0.350894 -1.85511 0
M  V30 1542 O 136.985 0.668546 -1.69814 0
M  V30 1543 C 137.036 -2.76291 -2.33121 0
M  V30 1544 O 136.757 -4.02338 -1.73366 0
M  V30 1545 C 138.258 -3.028 -3.2377 0
M  V30 1546 H 135.478 -0.558361 -0.372121 0
M  V30 1547 H 138.022 -1.97099 -0.545179 0
M  V30 1548 H 136.177 -2.48068 -2.97558 0
M  V30 1549 H 136.591 -4.63312 -2.4585 0
M  V30 1550 H 138.065 -3.8345 -3.97077 0
M  V30 1551 H 138.542 -2.14385 -3.83322 0
M  V30 1552 H 139.148 -3.32604 -2.65056 0
M  V30 1553 N 137.463 0.71206 -1.40597 0
M  V30 1554 C 138.74 1.46536 -1.29563 0
M  V30 1555 C 139.12 2.10931 0.0844217 0
M  V30 1556 O 138.468 2.00418 1.0975 0
M  V30 1557 C 138.678 2.49821 -2.43701 0
M  V30 1558 C 140.026 3.15551 -2.841 0
M  V30 1559 O 141.05 2.60142 -2.4332 0
M  V30 1560 O 139.909 4.15867 -3.54566 0
M  V30 1561 H 137.003 0.651801 -0.509004 0
M  V30 1562 H 139.549 0.743935 -1.52524 0
M  V30 1563 H 138.321 2.00778 -3.35863 0
M  V30 1564 H 137.944 3.29495 -2.22528 0
M  V30 1565 N 138.941 1.26152 0.944643 0
M  V30 1566 C 140.189 1.11271 1.6871 0
M  V30 1567 C 140.51 -0.345166 1.91921 0
M  V30 1568 O 139.78 -1.24387 1.51343 0
M  V30 1569 H 138.36 0.408783 0.625224 0
M  V30 1570 H 141.022 1.58427 1.1352 0
M  V30 1571 H 140.118 1.62879 2.66227 0
M  V30 1572 N 140.419 -1.14872 1.07899 0
M  V30 1573 C 141.666 -1.85789 0.805532 0
M  V30 1574 C 141.994 -1.82649 -0.668561 0
M  V30 1575 O 141.249 -1.24858 -1.50695 0
M  V30 1576 C 141.548 -3.34223 1.26609 0
M  V30 1577 C 141.214 -3.57555 2.74709 0
M  V30 1578 C 139.876 -3.63631 3.1516 0
M  V30 1579 C 142.228 -3.66803 3.70277 0
M  V30 1580 C 139.556 -3.76473 4.49983 0
M  V30 1581 C 141.908 -3.8117 5.04869 0
M  V30 1582 C 140.572 -3.85494 5.44932 0
M  V30 1583 H 139.842 -0.679849 0.294765 0
M  V30 1584 H 142.489 -1.3572 1.35101 0
M  V30 1585 H 140.794 -3.86536 0.640103 0
M  V30 1586 H 142.491 -3.87511 1.03132 0
M  V30 1587 H 139.081 -3.5347 2.42398 0
M  V30 1588 H 143.265 -3.61404 3.40149 0
M  V30 1589 H 138.521 -3.7808 4.80484 0
M  V30 1590 H 142.695 -3.87268 5.78789 0
M  V30 1591 H 140.322 -3.95197 6.49403 0
M  V30 1592 N 141.898 -0.863906 -1.31812 0
M  V30 1593 C 142.808 -0.318461 -2.32428 0
M  V30 1594 C 143.824 0.568496 -1.64451 0
M  V30 1595 O 145 0.46666 -1.95919 0
M  V30 1596 C 142.065 0.476355 -3.43412 0
M  V30 1597 C 141.126 -0.43784 -4.27061 0
M  V30 1598 C 140.359 0.319138 -5.32745 0
M  V30 1599 O 140.582 1.54799 -5.48993 0
M  V30 1600 O 139.516 -0.319861 -6.01049 0
M  V30 1601 H 143.342 -1.15229 -2.80991 0
M  V30 1602 H 140.927 -0.627103 -1.35602 0
M  V30 1603 H 142.809 0.927156 -4.11074 0
M  V30 1604 H 141.484 1.28683 -2.97022 0
M  V30 1605 H 140.391 -0.937013 -3.62175 0
M  V30 1606 H 141.724 -1.21375 -4.77 0
M  V30 1607 N 143.376 1.44774 -0.622745 0
M  V30 1608 C 144.624 2.01721 -0.123655 0
M  V30 1609 C 144.945 1.49172 1.25589 0
M  V30 1610 O 144.215 0.691974 1.83272 0
M  V30 1611 H 142.795 0.745777 -0.0427225 0
M  V30 1612 H 145.457 1.77382 -0.807559 0
M  V30 1613 H 144.553 3.11984 -0.0849534 0
M  V30 1614 N 144.854 0.36279 1.53368 0
M  V30 1615 C 145.817 -0.472679 2.24273 0
M  V30 1616 C 146.817 -1.012 1.24961 0
M  V30 1617 O 148.007 -0.898194 1.49259 0
M  V30 1618 C 145.139 -1.66039 2.97731 0
M  V30 1619 H 146.332 0.14773 2.99536 0
M  V30 1620 H 143.885 0.114434 1.55881 0
M  V30 1621 H 144.62 -2.31896 2.26704 0
M  V30 1622 H 144.405 -1.28066 3.70596 0
M  V30 1623 H 145.895 -2.25252 3.51641 0
M  V30 1624 N 146.332 -1.57332 0.0918853 0
M  V30 1625 C 147.743 -1.81496 -0.437739 0
M  V30 1626 C 148.094 -1.00727 -1.6837 0
M  V30 1627 O 147.219 -0.235694 -2.15113 0
M  V30 1628 C 147.814 -3.29197 -0.800939 0
M  V30 1629 C 146.373 -3.54136 -1.27532 0
M  V30 1630 C 145.52 -2.75979 -0.270392 0
M  V30 1631 H 148.471 -1.55494 0.317366 0
M  V30 1632 H 148.492 -3.42344 -1.66074 0
M  V30 1633 H 148.004 -3.87955 0.106078 0
M  V30 1634 H 146.105 -3.00705 -2.20016 0
M  V30 1635 H 146.218 -4.62792 -1.23938 0
M  V30 1636 H 144.582 -2.43349 -0.751872 0
M  V30 1637 H 145.365 -3.37484 0.629248 0
M  V30 1638 N 147.81 0.181792 -1.56548 0
M  V30 1639 C 148.74 1.22765 -1.98623 0
M  V30 1640 C 149.721 1.46747 -0.860189 0
M  V30 1641 O 150.906 1.58259 -1.12551 0
M  V30 1642 C 148.036 2.56894 -2.33715 0
M  V30 1643 C 146.99 2.475 -3.49182 0
M  V30 1644 C 146.316 3.86023 -3.69986 0
M  V30 1645 C 147.616 1.98866 -4.82959 0
M  V30 1646 H 149.31 0.877942 -2.86239 0
M  V30 1647 H 146.856 0.42088 -1.37712 0
M  V30 1648 H 148.809 3.30253 -2.61746 0
M  V30 1649 H 147.533 2.93632 -1.42997 0
M  V30 1650 H 146.192 1.76596 -3.21262 0
M  V30 1651 H 145.84 4.20136 -2.76576 0
M  V30 1652 H 145.54 3.80609 -4.47672 0
M  V30 1653 H 147.064 4.60984 -4.00407 0
M  V30 1654 H 148.478 2.61992 -5.09934 0
M  V30 1655 H 146.875 2.04424 -5.64208 0
M  V30 1656 H 147.945 0.942465 -4.75653 0
M  V30 1657 N 149.288 1.51039 0.449983 0
M  V30 1658 C 150.22 1.67617 1.56324 0
M  V30 1659 C 151.233 0.557083 1.52972 0
M  V30 1660 O 152.422 0.830989 1.57977 0
M  V30 1661 C 149.522 1.66402 2.95235 0
M  V30 1662 C 148.695 2.9469 3.23229 0
M  V30 1663 C 147.754 2.85832 4.41799 0
M  V30 1664 O 146.78 3.59785 4.41071 0
M  V30 1665 N 147.982 2.00821 5.44657 0
M  V30 1666 H 150.747 2.63648 1.42512 0
M  V30 1667 H 148.308 1.48767 0.638737 0
M  V30 1668 H 150.3 1.58062 3.72557 0
M  V30 1669 H 148.87 0.780182 3.02708 0
M  V30 1670 H 148.09 3.16996 2.34323 0
M  V30 1671 H 149.378 3.79636 3.38754 0
M  V30 1672 H 148.776 1.40091 5.48079 0
M  V30 1673 H 147.333 1.98368 6.20881 0
M  V30 1674 N 150.766 -0.704594 1.40972 0
M  V30 1675 C 152.177 -1.28418 1.3552 0
M  V30 1676 C 152.528 -1.96171 0.0339434 0
M  V30 1677 O 151.653 -1.98231 -0.867944 0
M  V30 1678 C 152.248 -2.33528 2.45459 0
M  V30 1679 C 150.807 -2.87085 2.43433 0
M  V30 1680 C 149.954 -1.61007 2.2577 0
M  V30 1681 H 152.905 -0.499963 1.50619 0
M  V30 1682 H 152.926 -3.14619 2.13998 0
M  V30 1683 H 152.438 -1.84187 3.41609 0
M  V30 1684 H 150.539 -3.40626 1.51013 0
M  V30 1685 H 150.652 -3.3813 3.39419 0
M  V30 1686 H 149.016 -1.86482 1.73483 0
M  V30 1687 H 149.799 -1.13675 3.23933 0
M  V30 1688 N 152.244 -1.26651 -0.937939 0
M  V30 1689 C 153.472 -1.15173 -1.7188 0
M  V30 1690 C 153.887 0.292668 -1.86518 0
M  V30 1691 O 153.244 1.20014 -1.37488 0
M  V30 1692 C 153.295 -1.81925 -3.12387 0
M  V30 1693 O 153.016 -3.2072 -2.98446 0
M  V30 1694 C 154.517 -1.76442 -4.06673 0
M  V30 1695 H 151.737 -0.400911 -0.538063 0
M  V30 1696 H 154.281 -1.67332 -1.1756 0
M  V30 1697 H 152.436 -1.33696 -3.63599 0
M  V30 1698 H 152.85 -3.53802 -3.872 0
M  V30 1699 H 154.324 -2.27781 -5.02812 0
M  V30 1700 H 154.801 -0.731608 -4.33064 0
M  V30 1701 H 155.407 -2.24238 -3.61382 0
M  V30 1702 N 153.722 1.14298 -1.08507 0
M  V30 1703 C 154.97 1.84993 -0.813763 0
M  V30 1704 C 155.291 1.83405 0.662393 0
M  V30 1705 O 154.561 1.28319 1.48024 0
M  V30 1706 H 153.141 0.684966 -0.298045 0
M  V30 1707 H 155.803 1.385 -1.37126 0
M  V30 1708 H 154.899 2.89788 -1.15884 0
M  V30 1709 N 155.201 0.870884 1.31352 0
M  V30 1710 C 156.149 0.316445 2.30437 0
M  V30 1711 C 157.143 -0.568965 1.59559 0
M  V30 1712 O 158.349 -0.454964 1.74155 0
M  V30 1713 H 154.724 0.0836521 0.747333 0
M  V30 1714 H 156.695 1.16606 2.74673 0
M  V30 1715 C 155.444 -0.46635 3.44558 0
M  V30 1716 H 154.767 0.205687 3.99271 0
M  V30 1717 H 156.207 -0.819614 4.16003 0
M  V30 1718 C 154.666 -1.65797 2.9328 0
M  V30 1719 O 155.196 -2.75728 2.92125 0
M  V30 1720 N 153.402 -1.49041 2.4947 0
M  V30 1721 H 152.949 -0.59612 2.50608 0
M  V30 1722 H 152.907 -2.28911 2.15516 0
M  V30 1723 N 156.679 -1.44442 0.630414 0
M  V30 1724 C 158.09 -1.85434 0.217063 0
M  V30 1725 C 158.441 -1.52748 -1.23136 0
M  V30 1726 O 157.566 -0.965205 -1.93682 0
M  V30 1727 C 158.161 -3.36581 0.387168 0
M  V30 1728 C 156.72 -3.76389 0.0283297 0
M  V30 1729 C 155.867 -2.68296 0.700889 0
M  V30 1730 H 158.818 -1.34919 0.83562 0
M  V30 1731 H 158.839 -3.78657 -0.374086 0
M  V30 1732 H 158.351 -3.60339 1.44144 0
M  V30 1733 H 156.452 -3.58246 -1.02423 0
M  V30 1734 H 156.565 -4.77095 0.437892 0
M  V30 1735 H 154.929 -2.54335 0.136267 0
M  V30 1736 H 155.712 -2.94887 1.75774 0
M  V30 1737 N 158.157 -0.370918 -1.53173 0
M  V30 1738 C 159.087 0.464847 -2.28826 0
M  V30 1739 C 160.068 1.07936 -1.31468 0
M  V30 1740 O 161.253 1.0956 -1.60344 0
M  V30 1741 C 158.383 1.60196 -3.08147 0
M  V30 1742 C 157.337 1.11443 -4.13237 0
M  V30 1743 C 156.663 2.3422 -4.80672 0
M  V30 1744 C 157.963 0.195384 -5.21934 0
M  V30 1745 H 159.657 -0.166329 -2.98938 0
M  V30 1746 H 157.203 -0.0814359 -1.4377 0
M  V30 1747 H 159.156 2.19332 -3.59822 0
M  V30 1748 H 157.88 2.26045 -2.35735 0
M  V30 1749 H 156.539 0.545727 -3.62515 0
M  V30 1750 H 156.187 2.98537 -4.04827 0
M  V30 1751 H 155.887 2.02269 -5.51689 0
M  V30 1752 H 157.411 2.94032 -5.35143 0
M  V30 1753 H 158.825 0.694375 -5.69079 0
M  V30 1754 H 157.222 -0.0335027 -6.00091 0
M  V30 1755 H 158.292 -0.760961 -4.78892 0
M  V30 1756 N 159.635 1.57281 -0.100228 0
M  V30 1757 C 160.881 1.94826 0.563101 0
M  V30 1758 C 161.214 0.982475 1.67514 0
M  V30 1759 O 160.489 0.0164069 1.94493 0
M  V30 1760 C 160.772 3.42453 1.11346 0
M  V30 1761 C 160.625 4.498 0.00612081 0
M  V30 1762 C 161.944 3.91506 2.01024 0
M  V30 1763 H 159.063 0.708428 0.203221 0
M  V30 1764 H 161.705 1.8922 -0.171979 0
M  V30 1765 H 159.855 3.47361 1.7399 0
M  V30 1766 H 161.527 4.57 -0.628357 0
M  V30 1767 H 159.77 4.28756 -0.659581 0
M  V30 1768 H 160.441 5.50306 0.432109 0
M  V30 1769 H 162.917 3.88784 1.48278 0
M  V30 1770 H 161.793 4.95358 2.36457 0
M  V30 1771 H 162.054 3.31099 2.92961 0
M  V30 1772 N 161.113 -0.173488 1.56642 0
M  V30 1773 C 162.39 -0.917617 1.7274 0
M  V30 1774 C 162.77 -2.00484 0.661027 0
M  V30 1775 O 162.118 -2.26184 -0.32453 0
M  V30 1776 C 162.328 -1.48433 3.15862 0
M  V30 1777 C 163.676 -1.95809 3.76754 0
M  V30 1778 O 164.7 -1.58231 3.19126 0
M  V30 1779 O 163.559 -2.65024 4.77938 0
M  V30 1780 H 160.653 -0.431772 0.705338 0
M  V30 1781 H 163.199 -0.161487 1.6893 0
M  V30 1782 H 161.971 -0.701715 3.84957 0
M  V30 1783 H 161.594 -2.30471 3.23989 0
M  V30 1784 N 162.591 -1.51276 -0.441967 0
M  V30 1785 C 163.554 -1.7167 -1.51862 0
M  V30 1786 C 164.554 -0.586793 -1.49711 0
M  V30 1787 O 165.744 -0.854276 -1.51815 0
M  V30 1788 C 162.876 -1.76889 -2.91416 0
M  V30 1789 H 164.069 -2.67754 -1.35084 0
M  V30 1790 H 161.622 -1.41196 -0.670333 0
M  V30 1791 H 162.357 -0.826026 -3.13604 0
M  V30 1792 H 162.142 -2.59001 -2.94382 0
M  V30 1793 H 163.632 -1.94522 -3.69528 0
M  V30 1794 N 164.069 0.697108 -1.41344 0
M  V30 1795 C 165.315 1.4593 -1.40827 0
M  V30 1796 C 165.648 1.94193 -0.0167098 0
M  V30 1797 O 164.923 1.69425 0.955263 0
M  V30 1798 C 165.206 2.67229 -2.41373 0
M  V30 1799 C 165.059 2.24741 -3.8963 0
M  V30 1800 C 166.378 3.69423 -2.39196 0
M  V30 1801 H 163.497 0.529303 -0.512842 0
M  V30 1802 H 166.139 0.794112 -1.72609 0
M  V30 1803 H 164.289 3.23982 -2.14401 0
M  V30 1804 H 165.961 1.73327 -4.27499 0
M  V30 1805 H 164.204 1.56542 -4.0457 0
M  V30 1806 H 164.875 3.1177 -4.55525 0
M  V30 1807 H 167.351 3.2234 -2.63128 0
M  V30 1808 H 166.227 4.51907 -3.11563 0
M  V30 1809 H 166.488 4.19012 -1.41001 0
M  V30 1810 N 165.547 1.27147 0.931209 0
M  V30 1811 C 166.795 1.13055 1.6752 0
M  V30 1812 C 167.116 -0.324791 1.92276 0
M  V30 1813 O 166.386 -1.22775 1.52654 0
M  V30 1814 H 164.966 0.415391 0.620854 0
M  V30 1815 H 167.628 1.59623 1.11833 0
M  V30 1816 H 166.724 1.65694 2.64485 0
M  V30 1817 N 167.025 -1.13721 1.09112 0
M  V30 1818 C 168.436 -1.6648 0.845068 0
M  V30 1819 C 168.787 -1.85911 -0.62701 0
M  V30 1820 O 167.912 -1.57556 -1.48341 0
M  V30 1821 C 168.507 -3.02413 1.52748 0
M  V30 1822 C 167.066 -3.52176 1.32849 0
M  V30 1823 C 166.213 -2.27492 1.58564 0
M  V30 1824 H 169.164 -0.976872 1.25072 0
M  V30 1825 H 169.185 -3.68223 0.958752 0
M  V30 1826 H 168.697 -2.88238 2.59885 0
M  V30 1827 H 166.798 -3.7156 0.278137 0
M  V30 1828 H 166.911 -4.32499 2.0611 0
M  V30 1829 H 165.275 -2.33923 1.00758 0
M  V30 1830 H 166.058 -2.15886 2.66924 0
M  V30 1831 N 168.503 -0.877838 -1.30888 0
M  V30 1832 C 169.466 -0.344265 -2.266 0
M  V30 1833 C 170.466 0.50922 -1.52524 0
M  V30 1834 O 171.656 0.317398 -1.71284 0
M  V30 1835 C 168.788 0.510198 -3.37061 0
M  V30 1836 H 169.981 -1.1893 -2.7531 0
M  V30 1837 H 167.534 -0.654088 -1.41956 0
M  V30 1838 H 168.269 1.37612 -2.93655 0
M  V30 1839 H 168.054 -0.101047 -3.9197 0
M  V30 1840 H 169.544 0.875537 -4.08319 0
M  V30 1841 N 169.982 1.44106 -0.638065 0
M  V30 1842 C 171.207 2.0685 -0.150916 0
M  V30 1843 C 171.632 1.47417 1.16833 0
M  V30 1844 O 170.99 0.578264 1.71831 0
M  V30 1845 C 171.038 3.60555 -0.05708 0
M  V30 1846 O 170.142 4.00465 0.984972 0
M  V30 1847 H 169.483 0.658151 -0.0879399 0
M  V30 1848 H 172.013 1.84865 -0.876707 0
M  V30 1849 H 172.023 4.07789 0.131232 0
M  V30 1850 H 170.698 4.03193 -1.02021 0
M  V30 1851 H 169.275 3.64849 0.770672 0
M  V30 1852 N 171.46 0.379036 1.52974 0
M  V30 1853 C 172.69 -0.20649 2.05566 0
M  V30 1854 C 173.098 -1.41906 1.25137 0
M  V30 1855 O 172.441 -1.81421 0.288464 0
M  V30 1856 C 172.503 -0.651086 3.53555 0
M  V30 1857 C 172.167 0.446626 4.54812 0
M  V30 1858 C 173.164 1.30079 5.03364 0
M  V30 1859 C 170.849 0.610719 4.98573 0
M  V30 1860 C 172.843 2.30426 5.94292 0
M  V30 1861 C 170.53 1.61754 5.89304 0
M  V30 1862 C 171.528 2.46274 6.37054 0
M  V30 1863 O 171.216 3.45237 7.25994 0
M  V30 1864 H 170.948 -0.0372381 0.674974 0
M  V30 1865 H 173.502 0.539718 1.98182 0
M  V30 1866 H 171.732 -1.44911 3.58522 0
M  V30 1867 H 173.421 -1.16112 3.88938 0
M  V30 1868 H 174.187 1.18527 4.70294 0
M  V30 1869 H 170.066 -0.0374044 4.60985 0
M  V30 1870 H 173.61 2.96432 6.31485 0
M  V30 1871 H 169.507 1.73348 6.21788 0
M  V30 1872 H 170.275 3.41124 7.44027 0
M  V30 1873 N 172.938 -1.57226 0.108567 0
M  V30 1874 C 173.901 -2.13602 -0.831082 0
M  V30 1875 C 174.901 -1.06841 -1.20173 0
M  V30 1876 O 176.091 -1.32666 -1.12895 0
M  V30 1877 C 173.223 -2.66769 -2.12243 0
M  V30 1878 H 174.416 -2.97951 -0.341317 0
M  V30 1879 H 171.969 -1.55667 -0.14057 0
M  V30 1880 H 172.704 -1.85977 -2.65675 0
M  V30 1881 H 172.489 -3.44839 -1.86625 0
M  V30 1882 H 173.979 -3.10332 -2.79435 0
M  V30 1883 N 174.416 0.165178 -1.56732 0
M  V30 1884 C 175.326 1.22423 -2.00125 0
M  V30 1885 C 176.342 1.48084 -0.913619 0
M  V30 1886 O 177.518 1.60112 -1.22172 0
M  V30 1887 C 174.583 2.54197 -2.35764 0
M  V30 1888 C 173.644 2.36343 -3.58386 0
M  V30 1889 C 172.877 3.61834 -3.92316 0
M  V30 1890 O 173.1 4.67267 -3.27135 0
M  V30 1891 O 172.034 3.55579 -4.85641 0
M  V30 1892 H 175.86 0.885886 -2.90492 0
M  V30 1893 H 173.445 0.372518 -1.44681 0
M  V30 1894 H 175.327 3.3192 -2.59629 0
M  V30 1895 H 174.002 2.87598 -1.48557 0
M  V30 1896 H 172.909 1.56632 -3.39731 0
M  V30 1897 H 174.242 2.07865 -4.46154 0
M  V30 1898 N 175.894 1.51508 0.433938 0
M  V30 1899 C 177.31 1.39759 0.770682 0
M  V30 1900 C 177.51 0.482594 1.95636 0
M  V30 1901 O 176.566 -0.0609691 2.52426 0
M  V30 1902 C 177.879 2.81851 1.04787 0
M  V30 1903 C 179.427 2.91025 1.1521 0
M  V30 1904 C 179.902 4.34032 1.46219 0
M  V30 1905 N 181.393 4.37154 1.53136 0
M  V30 1906 C 182.128 5.4484 1.78709 0
M  V30 1907 N 181.624 6.62682 2.02051 0
M  V30 1908 N 183.417 5.32324 1.80519 0
M  V30 1909 H 175.568 2.09548 -0.346892 0
M  V30 1910 H 177.831 0.943446 -0.0928074 0
M  V30 1911 H 177.537 3.50815 0.249304 0
M  V30 1912 H 177.411 3.21386 1.97461 0
M  V30 1913 H 179.798 2.22257 1.94128 0
M  V30 1914 H 179.879 2.54983 0.204281 0
M  V30 1915 H 179.523 5.03351 0.678274 0
M  V30 1916 H 179.453 4.6759 2.42212 0
M  V30 1917 H 181.944 3.52197 1.36987 0
M  V30 1918 H 182.257 7.40543 2.20943 0
M  V30 1919 H 180.602 6.65791 1.99366 0
M  V30 1920 H 183.793 4.39246 1.61805 0
M  V30 1921 H 183.966 6.16328 2.00111 0
M  V30 1922 N 177.372 -0.689602 1.41712 0
M  V30 1923 C 178.335 -1.78521 1.43746 0
M  V30 1924 C 179.335 -1.57436 0.327191 0
M  V30 1925 O 180.525 -1.64 0.587348 0
M  V30 1926 C 177.657 -3.16971 1.25467 0
M  V30 1927 H 178.85 -1.78108 2.41283 0
M  V30 1928 H 176.403 -0.89781 1.27942 0
M  V30 1929 H 177.138 -3.23019 0.287948 0
M  V30 1930 H 176.923 -3.33678 2.05917 0
M  V30 1931 H 178.413 -3.96935 1.2974 0
M  V30 1932 N 178.85 -1.27639 -0.924453 0
M  V30 1933 C 179.76 -1.12466 -2.05885 0
M  V30 1934 C 180.776 -0.053869 -1.73917 0
M  V30 1935 O 181.952 -0.261012 -1.99702 0
M  V30 1936 C 179.017 -0.776768 -3.37886 0
M  V30 1937 C 178.078 -1.92878 -3.83532 0
M  V30 1938 C 177.311 -1.59739 -5.09234 0
M  V30 1939 O 177.534 -0.506782 -5.68144 0
M  V30 1940 O 176.468 -2.43761 -5.50331 0
M  V30 1941 H 180.294 -2.07671 -2.21599 0
M  V30 1942 H 177.879 -1.06857 -1.04413 0
M  V30 1943 H 179.761 -0.596229 -4.17161 0
M  V30 1944 H 178.436 0.145732 -3.23372 0
M  V30 1945 H 177.343 -2.1644 -3.0513 0
M  V30 1946 H 178.676 -2.8316 -4.02593 0
M  V30 1947 N 180.328 1.1314 -1.09713 0
M  V30 1948 C 181.574 1.84757 -0.836224 0
M  V30 1949 C 181.907 1.8347 0.636598 0
M  V30 1950 O 181.182 1.27491 1.46889 0
M  V30 1951 C 181.465 3.32782 -1.37578 0
M  V30 1952 C 181.318 3.42567 -2.91493 0
M  V30 1953 C 182.637 4.28307 -1.01198 0
M  V30 1954 H 179.756 0.67082 -0.305236 0
M  V30 1955 H 182.398 1.3278 -1.35903 0
M  V30 1956 H 180.548 3.77177 -0.931097 0
M  V30 1957 H 182.22 3.06862 -3.44432 0
M  V30 1958 H 180.463 2.83349 -3.28475 0
M  V30 1959 H 181.134 4.46674 -3.24324 0
M  V30 1960 H 183.61 3.91999 -1.39556 0
M  V30 1961 H 182.486 5.30307 -1.41653 0
M  V30 1962 H 182.747 4.42029 0.0794833 0
M  V30 1963 N 181.806 0.884767 1.30421 0
M  V30 1964 C 183.052 0.503851 1.96441 0
M  V30 1965 C 183.385 -0.944518 1.69684 0
M  V30 1966 O 182.66 -1.66737 1.00145 0
M  V30 1967 C 182.943 0.779085 3.51571 0
M  V30 1968 C 182.796 2.27807 3.87846 0
M  V30 1969 C 184.115 0.255452 4.39358 0
M  V30 1970 H 181.234 0.184533 0.713524 0
M  V30 1971 H 183.876 1.10872 1.54297 0
M  V30 1972 H 182.026 0.264274 3.876 0
M  V30 1973 H 183.698 2.86127 3.61841 0
M  V30 1974 H 181.941 2.74479 3.35922 0
M  V30 1975 H 182.612 2.42125 4.96064 0
M  V30 1976 H 185.088 0.696079 4.10236 0
M  V30 1977 H 183.964 0.477361 5.4682 0
M  V30 1978 H 184.225 -0.843293 4.33983 0
M  V30 1979 N 183.284 -1.43765 0.645699 0
M  V30 1980 C 184.561 -1.9541 0.0862963 0
M  V30 1981 C 184.941 -1.58725 -1.39175 0
M  V30 1982 O 184.289 -0.868581 -2.11348 0
M  V30 1983 C 184.499 -3.47488 0.324565 0
M  V30 1984 C 185.847 -4.24001 0.225497 0
M  V30 1985 O 186.871 -3.55274 0.256715 0
M  V30 1986 O 185.73 -5.46313 0.142801 0
M  V30 1987 H 182.824 -0.826882 -0.0139483 0
M  V30 1988 H 185.37 -1.53743 0.718415 0
M  V30 1989 H 184.142 -3.67289 1.3496 0
M  V30 1990 H 183.765 -3.96135 -0.340987 0
M  V30 1991 N 184.763 -0.387143 -1.52771 0
M  V30 1992 C 185.726 0.436939 -2.24997 0
M  V30 1993 C 186.726 0.991991 -1.26555 0
M  V30 1994 O 187.916 0.874335 -1.50669 0
M  V30 1995 C 185.048 1.61281 -3.00335 0
M  V30 1996 H 186.241 -0.195365 -2.99263 0
M  V30 1997 H 183.794 -0.139218 -1.55679 0
M  V30 1998 H 184.529 2.2826 -2.30364 0
M  V30 1999 H 184.314 1.22154 -3.72587 0
M  V30 2000 H 185.804 2.19629 -3.5518 0
M  V30 2001 N 186.241 1.57166 -0.116904 0
M  V30 2002 C 187.469 1.99473 0.549383 0
M  V30 2003 C 187.884 0.996541 1.60357 0
M  V30 2004 O 187.241 -0.0108731 1.82497 0
M  V30 2005 C 187.292 3.41788 1.17741 0
M  V30 2006 O 187.013 4.37788 0.165362 0
M  V30 2007 C 188.514 3.99216 1.92722 0
M  V30 2008 H 185.734 0.655009 0.145616 0
M  V30 2009 H 188.278 2.03494 -0.202625 0
M  V30 2010 H 186.433 3.38713 1.88021 0
M  V30 2011 H 186.847 5.20806 0.621403 0
M  V30 2012 H 188.321 5.00882 2.31995 0
M  V30 2013 H 188.798 3.3824 2.80161 0
M  V30 2014 H 189.404 4.0583 1.27209 0
M  V30 2015 N 187.719 -0.156864 1.56817 0
M  V30 2016 C 188.965 -0.872416 1.83076 0
M  V30 2017 C 189.298 -1.81261 0.697001 0
M  V30 2018 O 188.573 -1.92171 -0.30008 0
M  V30 2019 C 188.856 -1.65551 3.19789 0
M  V30 2020 C 188.709 -0.737467 4.43713 0
M  V30 2021 C 190.028 -2.62012 3.53606 0
M  V30 2022 H 187.147 -0.315715 0.665953 0
M  V30 2023 H 189.789 -0.138004 1.89498 0
M  V30 2024 H 187.939 -2.28159 3.14445 0
M  V30 2025 H 189.611 -0.123143 4.61136 0
M  V30 2026 H 187.854 -0.0464067 4.33775 0
M  V30 2027 H 188.525 -1.32122 5.35955 0
M  V30 2028 H 191.001 -2.09525 3.59497 0
M  V30 2029 H 189.877 -3.13861 4.50314 0
M  V30 2030 H 190.138 -3.42902 2.79053 0
M  V30 2031 N 189.197 -1.51736 -0.425897 0
M  V30 2032 C 190.474 -1.55519 -1.1863 0
M  V30 2033 C 190.854 -0.326219 -2.08564 0
M  V30 2034 O 190.202 0.688012 -2.17896 0
M  V30 2035 C 190.412 -2.87521 -1.9782 0
M  V30 2036 C 191.76 -3.39899 -2.54468 0
M  V30 2037 O 192.784 -2.89148 -2.08019 0
M  V30 2038 O 191.643 -4.2848 -3.39215 0
M  V30 2039 H 188.737 -0.625739 -0.540721 0
M  V30 2040 H 191.283 -1.64055 -0.434038 0
M  V30 2041 H 190.055 -3.68422 -1.31836 0
M  V30 2042 H 189.678 -2.822 -2.80088 0
M  V30 2043 N 190.675 0.682077 -1.42076 0
M  V30 2044 C 191.923 1.4393 -1.41876 0
M  V30 2045 C 192.244 1.94971 -0.0335599 0
M  V30 2046 O 191.514 1.72591 0.926773 0
M  V30 2047 H 190.094 0.534085 -0.522267 0
M  V30 2048 H 192.756 0.806427 -1.77434 0
M  V30 2049 H 191.852 2.29588 -2.11414 0
M  V30 2050 N 192.153 1.28127 0.917671 0
M  V30 2051 C 193.1 1.11717 2.0196 0
M  V30 2052 C 194.07 0.0153929 1.66093 0
M  V30 2053 O 195.255 0.179596 1.89953 0
M  V30 2054 C 192.395 0.780927 3.36148 0
M  V30 2055 C 191.508 1.96135 3.84909 0
M  V30 2056 C 190.643 1.56609 5.0759 0
M  V30 2057 C 189.682 2.71339 5.48673 0
M  V30 2058 N 188.819 2.32332 6.62545 0
M  V30 2059 H 193.659 2.06003 2.15329 0
M  V30 2060 H 191.196 1.02535 1.05475 0
M  V30 2061 H 193.154 0.56675 4.13333 0
M  V30 2062 H 191.784 -0.124998 3.22558 0
M  V30 2063 H 190.836 2.28777 3.03916 0
M  V30 2064 H 192.148 2.82165 4.1132 0
M  V30 2065 H 191.302 1.31374 5.92305 0
M  V30 2066 H 190.041 0.677014 4.82978 0
M  V30 2067 H 189.046 2.97276 4.62501 0
M  V30 2068 H 190.271 3.60882 5.75274 0
M  V30 2069 H 188.217 1.45889 6.39572 0
M  V30 2070 H 188.134 3.11899 6.88662 0
M  V30 2071 H 189.402 2.10371 7.50576 0
M  V30 2072 N 193.631 -1.12557 1.10312 0
M  V30 2073 C 194.594 -2.16434 0.75424 0
M  V30 2074 C 195.594 -1.59278 -0.220685 0
M  V30 2075 O 196.784 -1.742 0.00230591 0
M  V30 2076 C 193.916 -3.40699 0.116987 0
M  V30 2077 H 195.109 -2.48811 1.67431 0
M  V30 2078 H 192.662 -1.27542 0.903475 0
M  V30 2079 H 193.397 -3.13921 -0.813877 0
M  V30 2080 H 193.182 -3.83459 0.818613 0
M  V30 2081 H 194.672 -4.17451 -0.111387 0
M  V30 2082 N 195.109 -0.891671 -1.2995 0
M  V30 2083 C 196.056 -0.361736 -2.27948 0
M  V30 2084 C 197.026 0.551761 -1.56668 0
M  V30 2085 O 198.211 0.478736 -1.84696 0
M  V30 2086 C 195.351 0.411825 -3.42634 0
M  V30 2087 C 194.464 -0.531651 -4.28716 0
M  V30 2088 C 193.599 0.258167 -5.30572 0
M  V30 2089 C 192.638 -0.680349 -6.08307 0
M  V30 2090 N 191.775 0.0745613 -7.0206 0
M  V30 2091 H 196.615 -1.20254 -2.72659 0
M  V30 2092 H 194.152 -0.604352 -1.34112 0
M  V30 2093 H 196.11 0.876304 -4.07893 0
M  V30 2094 H 194.74 1.21715 -2.98974 0
M  V30 2095 H 193.792 -1.11463 -3.63703 0
M  V30 2096 H 195.104 -1.25038 -4.82874 0
M  V30 2097 H 194.258 0.784204 -6.0161 0
M  V30 2098 H 192.997 1.01008 -4.77126 0
M  V30 2099 H 192.002 -1.21796 -5.3614 0
M  V30 2100 H 193.227 -1.43145 -6.63842 0
M  V30 2101 H 191.173 0.808883 -6.50994 0
M  V30 2102 H 191.09 -0.584409 -7.53738 0
M  V30 2103 H 192.358 0.581123 -7.77331 0
M  V30 2104 N 196.587 1.43421 -0.653314 0
M  V30 2105 C 197.836 2.01032 -0.164076 0
M  V30 2106 C 198.149 1.52147 1.22926 0
M  V30 2107 O 199.355 2.02031 1.81371 0
M  V30 2108 C 197.811 3.59082 -0.24252 0
M  V30 2109 C 197.419 4.1696 -1.63855 0
M  V30 2110 C 199.163 4.24079 0.18911 0
M  V30 2111 C 197.07 5.67304 -1.67092 0
M  V30 2112 H 196 0.751798 -0.0575769 0
M  V30 2113 H 198.651 1.6439 -0.815362 0
M  V30 2114 H 197.033 3.93125 0.476276 0
M  V30 2115 H 198.207 3.94416 -2.38271 0
M  V30 2116 H 196.522 3.64335 -2.01616 0
M  V30 2117 H 199.119 5.34381 0.184775 0
M  V30 2118 H 199.462 3.98005 1.22056 0
M  V30 2119 H 199.995 3.94918 -0.477938 0
M  V30 2120 H 196.734 5.98145 -2.68146 0
M  V30 2121 H 196.254 5.91904 -0.970014 0
M  V30 2122 H 197.933 6.31344 -1.4147 0
M  V30 2123 N 198.065 0.39524 1.52563 0
M  V30 2124 C 199.311 -0.185318 2.01952 0
M  V30 2125 C 199.644 -1.45964 1.28095 0
M  V30 2126 O 198.919 -1.90689 0.38315 0
M  V30 2127 C 199.202 -0.447193 3.57312 0
M  V30 2128 C 199.055 0.842828 4.41833 0
M  V30 2129 C 200.374 -1.23529 4.22408 0
M  V30 2130 H 197.493 -0.0658788 0.73405 0
M  V30 2131 H 200.135 0.525975 1.82575 0
M  V30 2132 H 198.285 -1.05312 3.73954 0
M  V30 2133 H 199.957 1.4795 4.36931 0
M  V30 2134 H 198.2 1.45686 4.08605 0
M  V30 2135 H 198.871 0.614165 5.48573 0
M  V30 2136 H 201.347 -0.722445 4.0978 0
M  V30 2137 H 200.223 -1.38727 5.3108 0
M  V30 2138 H 200.484 -2.25213 3.80436 0
M  V30 2139 N 199.544 -1.57102 0.125237 0
M  V30 2140 C 200.955 -1.82384 -0.399142 0
M  V30 2141 C 201.306 -1.04276 -1.66195 0
M  V30 2142 O 200.431 -0.281269 -2.14564 0
M  V30 2143 C 201.026 -3.30821 -0.730932 0
M  V30 2144 C 199.585 -3.56762 -1.19992 0
M  V30 2145 C 198.732 -2.7649 -0.211792 0
M  V30 2146 H 201.683 -1.54786 0.350277 0
M  V30 2147 H 201.704 -3.4579 -1.58775 0
M  V30 2148 H 201.216 -3.87643 0.188345 0
M  V30 2149 H 199.317 -3.05305 -2.13588 0
M  V30 2150 H 199.43 -4.65317 -1.14093 0
M  V30 2151 H 197.794 -2.4489 -0.700085 0
M  V30 2152 H 198.577 -3.36073 0.700691 0
M  V30 2153 N 201.022 0.148545 -1.56898 0
M  V30 2154 C 201.952 1.18524 -2.01182 0
M  V30 2155 C 202.933 1.4489 -0.891123 0
M  V30 2156 O 204.118 1.55836 -1.15882 0
M  V30 2157 C 201.248 2.51879 -2.39112 0
M  V30 2158 C 200.202 2.40038 -3.54353 0
M  V30 2159 C 199.528 3.78089 -3.78091 0
M  V30 2160 C 200.828 1.88577 -4.87069 0
M  V30 2161 H 202.522 0.817029 -2.88036 0
M  V30 2162 H 200.068 0.391575 -1.38574 0
M  V30 2163 H 202.021 3.24627 -2.68692 0
M  V30 2164 H 200.745 2.90532 -1.49193 0
M  V30 2165 H 199.404 1.69742 -3.24936 0
M  V30 2166 H 199.052 4.14175 -2.85426 0
M  V30 2167 H 198.752 3.71028 -4.55645 0
M  V30 2168 H 200.276 4.52387 -4.10095 0
M  V30 2169 H 201.69 2.51117 -5.15377 0
M  V30 2170 H 200.087 1.9241 -5.68417 0
M  V30 2171 H 201.157 0.84136 -4.77545 0
M  V30 2172 N 202.5 1.5196 0.417844 0
M  V30 2173 C 203.916 1.40569 0.755816 0
M  V30 2174 C 204.116 0.503316 1.95113 0
M  V30 2175 O 203.172 -0.0341925 2.52477 0
M  V30 2176 C 204.485 2.82947 1.01791 0
M  V30 2177 C 206.033 2.92231 1.12116 0
M  V30 2178 C 206.508 4.35559 1.41608 0
M  V30 2179 N 207.999 4.38753 1.48491 0
M  V30 2180 C 208.734 5.46705 1.7292 0
M  V30 2181 N 208.23 6.64788 1.95011 0
M  V30 2182 N 210.023 5.34209 1.74863 0
M  V30 2183 H 202.174 2.09168 -0.369098 0
M  V30 2184 H 204.437 0.942409 -0.102809 0
M  V30 2185 H 204.143 3.5106 0.212081 0
M  V30 2186 H 204.017 3.23462 1.94042 0
M  V30 2187 H 206.404 2.24304 1.9176 0
M  V30 2188 H 206.485 2.55185 0.177225 0
M  V30 2189 H 206.129 5.04042 0.624848 0
M  V30 2190 H 206.059 4.70133 2.37239 0
M  V30 2191 H 208.55 3.5363 1.33244 0
M  V30 2192 H 208.863 7.42845 2.13076 0
M  V30 2193 H 207.208 6.67869 1.92293 0
M  V30 2194 H 210.399 4.40937 1.57137 0
M  V30 2195 H 210.572 6.18415 1.93563 0
M  V30 2196 N 203.978 -0.674533 1.42435 0
M  V30 2197 C 205.224 -1.43671 1.43131 0
M  V30 2198 C 205.557 -1.94142 0.0476021 0
M  V30 2199 O 204.832 -1.70924 -0.928188 0
M  V30 2200 C 205.115 -2.63355 2.45594 0
M  V30 2201 C 204.968 -2.18514 3.93156 0
M  V30 2202 C 206.287 -3.65571 2.45043 0
M  V30 2203 H 203.406 -0.521077 0.521198 0
M  V30 2204 H 206.048 -0.766551 1.7385 0
M  V30 2205 H 204.198 -3.2053 2.19528 0
M  V30 2206 H 205.87 -1.66504 4.30202 0
M  V30 2207 H 204.113 -1.50086 4.07009 0
M  V30 2208 H 204.784 -3.04484 4.60428 0
M  V30 2209 H 207.26 -3.18113 2.68223 0
M  V30 2210 H 206.136 -4.46893 3.18713 0
M  V30 2211 H 206.397 -4.16716 1.47649 0
M  V30 2212 N 205.456 -1.28612 -0.910864 0
M  V30 2213 C 206.419 -1.12803 -1.9952 0
M  V30 2214 C 207.419 -0.0668264 -1.60661 0
M  V30 2215 O 208.609 -0.312847 -1.71368 0
M  V30 2216 C 205.741 -0.72254 -3.33155 0
M  V30 2217 H 206.934 -2.09109 -2.14973 0
M  V30 2218 H 204.487 -1.11639 -1.09391 0
M  V30 2219 H 205.222 0.241152 -3.23402 0
M  V30 2220 H 205.007 -1.48916 -3.62721 0
M  V30 2221 H 206.497 -0.634666 -4.12749 0
M  V30 2222 N 206.934 1.1197 -1.10907 0
M  V30 2223 C 208.162 1.87402 -0.876824 0
M  V30 2224 C 208.577 1.79894 0.573025 0
M  V30 2225 O 207.934 1.17629 1.39534 0
M  V30 2226 C 207.985 3.36428 -1.32282 0
M  V30 2227 O 207.706 3.43765 -2.71582 0
M  V30 2228 C 209.207 4.28783 -1.12518 0
M  V30 2229 H 206.427 0.592793 -0.314384 0
M  V30 2230 H 208.971 1.41649 -1.47499 0
M  V30 2231 H 207.126 3.79706 -0.768229 0
M  V30 2232 H 207.54 4.3652 -2.90776 0
M  V30 2233 H 209.014 5.31613 -1.48633 0
M  V30 2234 H 209.491 4.39153 -0.0642394 0
M  V30 2235 H 210.097 3.91291 -1.66648 0
M  V30 2236 N 208.412 0.89855 1.29475 0
M  V30 2237 C 209.689 0.443416 1.90508 0
M  V30 2238 C 210.069 -1.07685 1.81569 0
M  V30 2239 O 209.417 -1.9182 1.24166 0
M  V30 2240 C 209.627 0.956708 3.35631 0
M  V30 2241 C 210.975 0.999728 4.12663 0
M  V30 2242 O 211.999 0.904299 3.4453 0
M  V30 2243 O 210.858 1.14289 5.34416 0
M  V30 2244 H 207.952 0.138025 0.815401 0
M  V30 2245 H 210.498 0.98834 1.37949 0
M  V30 2246 H 209.27 2.00067 3.36287 0
M  V30 2247 H 208.893 0.391728 3.95666 0
M  V30 2248 N 209.89 -1.43072 0.660911 0
M  V30 2249 C 211.137 -2.01721 0.177445 0
M  V30 2250 C 211.465 -1.5218 -1.21126 0
M  V30 2251 O 210.72 -0.708659 -1.82419 0
M  V30 2252 C 211.019 -3.57103 0.145563 0
M  V30 2253 C 210.685 -4.26021 1.47705 0
M  V30 2254 C 209.347 -4.44563 1.84165 0
M  V30 2255 C 211.699 -4.64983 2.35458 0
M  V30 2256 C 209.027 -4.99334 3.0803 0
M  V30 2257 C 211.379 -5.21127 3.58622 0
M  V30 2258 C 210.043 -5.37884 3.95268 0
M  V30 2259 H 209.313 -0.73815 0.0649317 0
M  V30 2260 H 211.96 -1.71446 0.853144 0
M  V30 2261 H 210.265 -3.86965 -0.61361 0
M  V30 2262 H 211.962 -4.00248 -0.2455 0
M  V30 2263 H 208.552 -4.11939 1.18339 0
M  V30 2264 H 212.736 -4.50343 2.08579 0
M  V30 2265 H 207.992 -5.10493 3.36462 0
M  V30 2266 H 212.166 -5.50262 4.26831 0
M  V30 2267 H 209.793 -5.80089 4.91325 0
M  V30 2268 N 211.368 -0.403325 -1.52352 0
M  V30 2269 C 212.593 0.176499 -2.06648 0
M  V30 2270 C 213.018 1.38577 -1.27193 0
M  V30 2271 O 212.376 1.7879 -0.300637 0
M  V30 2272 C 212.424 0.511061 -3.5696 0
M  V30 2273 O 211.528 1.60294 -3.79973 0
M  V30 2274 H 210.869 0.0167337 -0.663789 0
M  V30 2275 H 213.399 -0.574848 -1.96359 0
M  V30 2276 H 213.409 0.771362 -4.00642 0
M  V30 2277 H 212.084 -0.37296 -4.14224 0
M  V30 2278 H 210.661 1.33526 -3.48174 0
M  V30 2279 N 212.846 1.57033 -0.133567 0
M  V30 2280 C 214.095 1.94861 0.520768 0
M  V30 2281 C 214.408 1.02012 1.66892 0
M  V30 2282 O 215.614 1.29365 2.38699 0
M  V30 2283 C 214.07 3.46362 0.977809 0
M  V30 2284 C 213.678 4.47773 -0.142674 0
M  V30 2285 C 215.422 3.93083 1.60269 0
M  V30 2286 C 213.329 5.90468 0.331883 0
M  V30 2287 H 212.259 0.727453 0.198315 0
M  V30 2288 H 214.91 1.82227 -0.215759 0
M  V30 2289 H 213.292 3.54282 1.7692 0
M  V30 2290 H 214.466 4.51536 -0.919317 0
M  V30 2291 H 212.781 4.10891 -0.675124 0
M  V30 2292 H 215.378 4.97121 1.96914 0
M  V30 2293 H 215.721 3.33876 2.48662 0
M  V30 2294 H 216.254 3.88025 0.876453 0
M  V30 2295 H 212.993 6.53463 -0.516341 0
M  V30 2296 H 212.513 5.90094 1.07469 0
M  V30 2297 H 214.192 6.42179 0.788332 0
M  V30 2298 N 214.325 -0.140222 1.56975 0
M  V30 2299 C 215.288 -1.15689 1.97861 0
M  V30 2300 C 216.288 -1.3549 0.865974 0
M  V30 2301 O 217.478 -1.32367 1.13246 0
M  V30 2302 C 214.61 -2.51582 2.30042 0
M  V30 2303 H 215.803 -0.805971 2.88867 0
M  V30 2304 H 213.356 -0.383801 1.51515 0
M  V30 2305 H 214.091 -2.91632 1.41849 0
M  V30 2306 H 213.876 -2.38569 3.11171 0
M  V30 2307 H 215.366 -3.24792 2.62488 0
M  V30 2308 N 215.803 -1.52179 -0.40978 0
M  V30 2309 C 216.713 -1.78364 -1.52392 0
M  V30 2310 C 217.729 -0.669183 -1.60617 0
M  V30 2311 O 218.905 -0.954518 -1.77344 0
M  V30 2312 C 215.97 -1.92822 -2.88133 0
M  V30 2313 C 215.031 -3.16725 -2.898 0
M  V30 2314 C 214.264 -3.30483 -4.19067 0
M  V30 2315 O 214.487 -2.49522 -5.12928 0
M  V30 2316 O 213.421 -4.2363 -4.27576 0
M  V30 2317 H 217.247 -2.72931 -1.33201 0
M  V30 2318 H 214.832 -1.37016 -0.59557 0
M  V30 2319 H 216.714 -2.04157 -3.68643 0
M  V30 2320 H 215.389 -1.01444 -3.07393 0
M  V30 2321 H 214.296 -3.10848 -2.08146 0
M  V30 2322 H 215.629 -4.07881 -2.75489 0
M  V30 2323 N 217.281 0.66697 -1.42791 0
M  V30 2324 C 218.529 1.42417 -1.43394 0
M  V30 2325 C 218.85 1.94925 -0.0542373 0
M  V30 2326 O 218.12 1.73564 0.908415 0
M  V30 2327 H 216.7 0.528515 -0.527902 0
M  V30 2328 H 219.362 0.787562 -1.78279 0
M  V30 2329 H 218.458 2.27333 -2.13837 0
M  V30 2330 N 218.759 1.29093 0.90403 0
M  V30 2331 C 220.036 1.075 1.63411 0
M  V30 2332 C 220.416 -0.382346 2.07609 0
M  V30 2333 O 219.764 -1.37031 1.82851 0
M  V30 2334 C 219.974 2.05858 2.81822 0
M  V30 2335 C 221.322 2.36539 3.52611 0
M  V30 2336 O 222.346 2.04019 2.91984 0
M  V30 2337 O 221.205 2.92085 4.61897 0
M  V30 2338 H 218.299 0.411547 0.717327 0
M  V30 2339 H 220.845 1.40449 0.952479 0
M  V30 2340 H 219.617 3.04037 2.46327 0
M  V30 2341 H 219.24 1.73613 3.57693 0
M  V30 2342 N 220.237 -1.11381 1.11499 0
M  V30 2343 C 221.483 -1.83403 0.865512 0
M  V30 2344 C 221.816 -1.84459 -0.607329 0
M  V30 2345 O 221.091 -1.29811 -1.44842 0
M  V30 2346 C 221.374 -3.30552 1.42855 0
M  V30 2347 C 221.227 -3.37886 2.96906 0
M  V30 2348 C 222.546 -4.26643 1.08 0
M  V30 2349 H 219.665 -0.665879 0.31587 0
M  V30 2350 H 222.307 -1.30601 1.37998 0
M  V30 2351 H 220.457 -3.75648 0.990985 0
M  V30 2352 H 222.129 -3.01343 3.49271 0
M  V30 2353 H 220.372 -2.78088 3.32941 0
M  V30 2354 H 221.043 -4.41458 3.31389 0
M  V30 2355 H 223.519 -3.89729 1.45775 0
M  V30 2356 H 222.395 -5.27986 1.50072 0
M  V30 2357 H 222.656 -4.42099 -0.00915037 0
M  V30 2358 N 221.715 -0.905404 -1.28997 0
M  V30 2359 C 222.992 -0.453513 -1.9027 0
M  V30 2360 C 223.372 1.06721 -1.82137 0
M  V30 2361 O 222.72 1.91159 -1.25182 0
M  V30 2362 C 222.93 -0.974494 -3.35119 0
M  V30 2363 C 224.278 -1.0216 -4.12127 0
M  V30 2364 O 225.302 -0.922557 -3.44046 0
M  V30 2365 O 224.161 -1.17121 -5.33802 0
M  V30 2366 H 221.255 -0.142347 -0.814657 0
M  V30 2367 H 223.801 -0.995642 -1.37423 0
M  V30 2368 H 222.573 -2.01848 -3.35221 0
M  V30 2369 H 222.196 -0.412706 -3.95452 0
M  V30 2370 N 223.193 1.4272 -0.668489 0
M  V30 2371 C 224.604 1.84793 -0.266151 0
M  V30 2372 C 224.955 1.55959 1.19043 0
M  V30 2373 O 224.08 1.01622 1.91055 0
M  V30 2374 C 224.675 3.35436 -0.476271 0
M  V30 2375 C 223.234 3.76182 -0.128113 0
M  V30 2376 C 222.381 2.66344 -0.771777 0
M  V30 2377 H 225.332 1.32656 -0.871098 0
M  V30 2378 H 225.353 3.79515 0.273561 0
M  V30 2379 H 224.865 3.5639 -1.53647 0
M  V30 2380 H 222.966 3.60836 0.928891 0
M  V30 2381 H 223.079 4.75766 -0.564231 0
M  V30 2382 H 221.443 2.53885 -0.203652 0
M  V30 2383 H 222.226 2.90123 -1.83531 0
M  V30 2384 N 224.671 0.411399 1.52136 0
M  V30 2385 C 226.087 0.0623865 1.59478 0
M  V30 2386 C 226.287 -1.42554 1.4241 0
M  V30 2387 O 225.343 -2.19263 1.2522 0
M  V30 2388 C 226.656 0.559331 2.95452 0
M  V30 2389 C 228.204 0.517503 3.08692 0
M  V30 2390 C 228.679 0.990994 4.4715 0
M  V30 2391 N 230.17 0.947908 4.53397 0
M  V30 2392 C 230.905 1.28544 5.58806 0
M  V30 2393 N 230.401 1.69454 6.71757 0
M  V30 2394 N 232.194 1.20526 5.49026 0
M  V30 2395 H 224.345 1.37982 1.61477 0
M  V30 2396 H 226.608 0.566977 0.759764 0
M  V30 2397 H 226.314 1.59938 3.1323 0
M  V30 2398 H 226.188 -0.0298014 3.77188 0
M  V30 2399 H 228.575 -0.513505 2.90598 0
M  V30 2400 H 228.656 1.14272 2.28857 0
M  V30 2401 H 228.3 2.02034 4.65988 0
M  V30 2402 H 228.23 0.34257 5.25485 0
M  V30 2403 H 230.721 0.647157 3.72317 0
M  V30 2404 H 231.034 1.93513 7.48179 0
M  V30 2405 H 229.379 1.73359 6.73032 0
M  V30 2406 H 232.57 0.884505 4.59667 0
M  V30 2407 H 232.743 1.47161 6.31069 0
M  V30 2408 N 226.149 -1.5696 0.141893 0
M  V30 2409 C 227.397 -1.95573 -0.509484 0
M  V30 2410 C 227.718 -1.02746 -1.65736 0
M  V30 2411 O 226.988 -0.0880311 -1.95702 0
M  V30 2412 H 225.568 -0.722115 -0.191205 0
M  V30 2413 H 228.23 -1.93697 0.216196 0
M  V30 2414 H 227.326 -2.99171 -0.889 0
M  V30 2415 N 227.627 0.131896 -1.57047 0
M  V30 2416 C 228.557 1.16384 -2.02428 0
M  V30 2417 C 229.538 1.43936 -0.90644 0
M  V30 2418 O 230.723 1.54599 -1.17528 0
M  V30 2419 C 227.853 2.49328 -2.4177 0
M  V30 2420 C 226.807 2.36266 -3.56879 0
M  V30 2421 C 226.133 3.74057 -3.8208 0
M  V30 2422 C 227.433 1.834 -4.89042 0
M  V30 2423 H 229.127 0.786433 -2.88887 0
M  V30 2424 H 226.673 0.376855 -1.38981 0
M  V30 2425 H 228.626 3.21759 -2.7212 0
M  V30 2426 H 227.35 2.88934 -1.52266 0
M  V30 2427 H 226.009 1.66286 -3.26718 0
M  V30 2428 H 225.657 4.11125 -2.89803 0
M  V30 2429 H 225.357 3.66174 -4.59554 0
M  V30 2430 H 226.881 4.48012 -4.1487 0
M  V30 2431 H 228.295 2.45636 -5.18011 0
M  V30 2432 H 226.692 1.8637 -5.70426 0
M  V30 2433 H 227.762 0.790662 -4.7841 0
M  V30 2434 N 229.106 1.52395 0.401703 0
M  V30 2435 C 230.517 1.58899 0.980202 0
M  V30 2436 C 230.868 0.434032 1.91339 0
M  V30 2437 O 229.993 -0.444619 2.11783 0
M  V30 2438 C 230.588 2.87994 1.78451 0
M  V30 2439 C 229.147 2.96953 2.31292 0
M  V30 2440 C 228.294 2.53903 1.11483 0
M  V30 2441 H 231.245 1.57657 0.18168 0
M  V30 2442 H 231.266 2.73765 2.64259 0
M  V30 2443 H 230.778 3.72035 1.10506 0
M  V30 2444 H 228.879 2.17422 3.02586 0
M  V30 2445 H 228.992 4.01344 2.61649 0
M  V30 2446 H 227.356 2.07925 1.47104 0
M  V30 2447 H 228.139 3.40326 0.450928 0
M  V30 2448 N 230.584 -0.659388 1.43143 0
M  V30 2449 C 231.83 -1.42145 1.44647 0
M  V30 2450 C 232.163 -1.9408 0.0681907 0
M  V30 2451 O 231.438 -1.71899 -0.910007 0
M  V30 2452 C 231.721 -2.60735 2.48373 0
M  V30 2453 C 231.574 -2.14332 3.95451 0
M  V30 2454 C 232.893 -3.62951 2.48906 0
M  V30 2455 H 230.012 -0.51552 0.526696 0
M  V30 2456 H 232.654 -0.748069 1.74654 0
M  V30 2457 H 230.804 -3.18184 2.22916 0
M  V30 2458 H 232.476 -1.61932 4.31944 0
M  V30 2459 H 230.719 -1.4576 4.08578 0
M  V30 2460 H 231.39 -2.99583 4.63631 0
M  V30 2461 H 233.866 -3.1525 2.71582 0
M  V30 2462 H 232.742 -4.43487 3.23435 0
M  V30 2463 H 233.003 -4.15126 1.52061 0
M  V30 2464 N 232.062 -1.29571 -0.897171 0
M  V30 2465 C 233.308 -1.17863 -1.65034 0
M  V30 2466 C 233.641 0.268729 -1.92332 0
M  V30 2467 O 232.916 1.19378 -1.53555 0
M  V30 2468 C 233.199 -1.995 -2.99786 0
M  V30 2469 C 233.052 -3.5239 -2.79538 0
M  V30 2470 C 234.371 -1.82335 -4.00552 0
M  V30 2471 H 231.49 -0.429528 -0.598895 0
M  V30 2472 H 234.132 -1.59072 -1.03905 0
M  V30 2473 H 232.282 -1.64485 -3.51962 0
M  V30 2474 H 233.954 -3.97401 -2.34244 0
M  V30 2475 H 232.197 -3.77187 -2.14273 0
M  V30 2476 H 232.868 -4.04787 -3.75302 0
M  V30 2477 H 235.344 -2.12924 -3.57495 0
M  V30 2478 H 234.22 -2.41801 -4.92771 0
M  V30 2479 H 234.481 -0.779209 -4.35179 0
M  V30 2480 N 233.54 1.10788 -1.12088 0
M  V30 2481 C 234.503 2.15207 -0.788577 0
M  V30 2482 C 235.503 1.59609 0.195317 0
M  V30 2483 O 236.693 1.74174 -0.0300193 0
M  V30 2484 C 233.825 3.4047 -0.171174 0
M  V30 2485 H 235.018 2.46116 -1.71368 0
M  V30 2486 H 232.571 1.26089 -0.923652 0
M  V30 2487 H 233.306 3.15176 0.763832 0
M  V30 2488 H 233.091 3.82109 -0.879514 0
M  V30 2489 H 234.581 4.17576 0.04496 0
M  V30 2490 N 235.018 0.912232 1.28515 0
M  V30 2491 C 235.981 0.404223 2.25607 0
M  V30 2492 C 236.981 -0.468602 1.53821 0
M  V30 2493 O 238.171 -0.271873 1.72065 0
M  V30 2494 C 235.303 -0.420653 3.38295 0
M  V30 2495 H 236.496 1.26188 2.7206 0
M  V30 2496 H 234.049 0.691495 1.40171 0
M  V30 2497 H 234.784 -1.29777 2.97201 0
M  V30 2498 H 234.569 0.204935 3.91564 0
M  V30 2499 H 236.059 -0.766971 4.10496 0
M  V30 2500 N 236.496 -1.42363 0.676048 0
M  V30 2501 C 237.773 -1.95183 0.127726 0
M  V30 2502 C 238.153 -1.61641 -1.35777 0
M  V30 2503 O 237.501 -0.913216 -2.09458 0
M  V30 2504 C 237.711 -3.46721 0.398199 0
M  V30 2505 C 239.059 -4.23427 0.315383 0
M  V30 2506 O 240.083 -3.54649 0.332016 0
M  V30 2507 O 238.942 -5.45888 0.25865 0
M  V30 2508 H 236.036 -0.826992 0.00359427 0
M  V30 2509 H 238.582 -1.52184 0.750864 0
M  V30 2510 H 237.354 -3.64344 1.4272 0
M  V30 2511 H 236.977 -3.96769 -0.256885 0
M  V30 2512 N 237.974 -0.419461 -1.51915 0
M  V30 2513 C 239.222 0.152637 -2.01523 0
M  V30 2514 C 239.543 1.44762 -1.30649 0
M  V30 2515 O 238.813 1.90997 -0.435535 0
M  V30 2516 H 237.393 0.0593966 -0.744635 0
M  V30 2517 H 240.055 -0.558073 -1.86739 0
M  V30 2518 H 239.151 0.341369 -3.10227 0
M  V30 2519 N 239.452 1.56882 -0.150215 0
M  V30 2520 C 240.698 1.96518 0.500834 0
M  V30 2521 C 241.031 1.03527 1.64304 0
M  V30 2522 O 240.306 0.0782751 1.94342 0
M  V30 2523 C 240.589 3.45822 1.00395 0
M  V30 2524 C 240.442 4.49591 -0.136983 0
M  V30 2525 C 241.761 3.97704 1.88467 0
M  V30 2526 H 238.88 0.714535 0.18058 0
M  V30 2527 H 241.522 1.88577 -0.232091 0
M  V30 2528 H 239.672 3.5272 1.62851 0
M  V30 2529 H 241.344 4.5477 -0.77343 0
M  V30 2530 H 239.587 4.26441 -0.795652 0
M  V30 2531 H 240.258 5.51402 0.256815 0
M  V30 2532 H 242.734 3.93304 1.35834 0
M  V30 2533 H 241.61 5.0263 2.20578 0
M  V30 2534 H 241.871 3.40252 2.82279 0
M  V30 2535 N 240.93 -0.123565 1.57115 0
M  V30 2536 C 241.84 -1.17074 2.033 0
M  V30 2537 C 242.856 -1.4561 0.952559 0
M  V30 2538 O 244.032 -1.56817 1.26374 0
M  V30 2539 C 241.097 -2.47857 2.42421 0
M  V30 2540 C 240.158 -2.26758 3.64526 0
M  V30 2541 C 239.391 -3.51305 4.01771 0
M  V30 2542 O 239.614 -4.5843 3.39409 0
M  V30 2543 O 238.548 -3.42578 4.94898 0
M  V30 2544 H 242.374 -0.808555 2.92739 0
M  V30 2545 H 239.959 -0.334027 1.45618 0
M  V30 2546 H 241.841 -3.2492 2.68338 0
M  V30 2547 H 240.516 -2.83558 1.5613 0
M  V30 2548 H 239.423 -1.47569 3.43765 0
M  V30 2549 H 240.756 -1.95963 4.51508 0
M  V30 2550 N 242.408 -1.52605 -0.393616 0
M  V30 2551 C 243.371 -1.76415 -1.46323 0
M  V30 2552 C 244.371 -0.634126 -1.47768 0
M  V30 2553 O 245.561 -0.902142 -1.4902 0
M  V30 2554 C 242.693 -1.8607 -2.85641 0
M  V30 2555 H 243.886 -2.71916 -1.26498 0
M  V30 2556 H 241.439 -1.43257 -0.625073 0
M  V30 2557 H 242.174 -0.925378 -3.10817 0
M  V30 2558 H 241.959 -2.68235 -2.85993 0
M  V30 2559 H 243.449 -2.06179 -3.63153 0
M  V30 2560 N 243.887 0.651787 -1.4349 0
M  V30 2561 C 245.135 1.40888 -1.44897 0
M  V30 2562 C 245.456 1.94856 -0.0749086 0
M  V30 2563 O 244.726 1.74518 0.889956 0
M  V30 2564 H 243.306 0.522887 -0.533478 0
M  V30 2565 H 245.968 0.768609 -1.79104 0
M  V30 2566 H 245.064 2.25052 -2.16236 0
M  V30 2567 N 245.365 1.30045 0.890287 0
M  V30 2568 C 246.593 1.21472 1.67487 0
M  V30 2569 C 247.008 -0.223241 1.87476 0
M  V30 2570 O 246.365 -1.14828 1.41847 0
M  V30 2571 C 246.416 1.93394 3.05419 0
M  V30 2572 O 246.137 3.31576 2.86337 0
M  V30 2573 C 247.638 1.91414 3.99844 0
M  V30 2574 H 244.858 0.420604 0.522813 0
M  V30 2575 H 247.402 1.7158 1.11268 0
M  V30 2576 H 245.557 1.47099 3.58386 0
M  V30 2577 H 245.971 3.67929 3.73802 0
M  V30 2578 H 247.445 2.46285 4.94012 0
M  V30 2579 H 247.922 0.891833 4.3005 0
M  V30 2580 H 248.528 2.37496 3.52811 0
M  V30 2581 N 246.843 -1.10192 1.12674 0
M  V30 2582 C 248.089 -1.82475 0.884915 0
M  V30 2583 C 248.422 -1.85093 -0.58773 0
M  V30 2584 O 247.697 -1.3134 -1.43457 0
M  V30 2585 C 247.98 -3.29018 1.46353 0
M  V30 2586 C 247.833 -3.34718 3.00473 0
M  V30 2587 C 249.152 -4.25473 1.12519 0
M  V30 2588 H 246.271 -0.662492 0.322915 0
M  V30 2589 H 248.913 -1.2913 1.39375 0
M  V30 2590 H 247.063 -3.74576 1.03077 0
M  V30 2591 H 248.735 -2.97622 3.52447 0
M  V30 2592 H 246.978 -2.74541 3.35872 0
M  V30 2593 H 247.649 -4.37918 3.36053 0
M  V30 2594 H 250.125 -3.88161 1.499 0
M  V30 2595 H 249.001 -5.26365 1.55663 0
M  V30 2596 H 249.262 -4.42084 0.0377407 0
M  V30 2597 N 248.321 -0.919034 -1.28029 0
M  V30 2598 C 249.549 -0.570971 -1.98866 0
M  V30 2599 C 249.964 0.848996 -1.68634 0
M  V30 2600 O 249.321 1.56307 -0.942036 0
M  V30 2601 C 249.372 -0.776876 -3.53054 0
M  V30 2602 O 249.093 -2.14097 -3.82222 0
M  V30 2603 C 250.594 -0.436356 -4.41147 0
M  V30 2604 H 247.814 -0.217175 -0.634883 0
M  V30 2605 H 250.358 -1.23368 -1.63097 0
M  V30 2606 H 248.513 -0.161085 -3.87065 0
M  V30 2607 H 248.927 -2.18455 -4.76841 0
M  V30 2608 H 250.401 -0.63117 -5.4838 0
M  V30 2609 H 250.878 0.627686 -4.34692 0
M  V30 2610 H 251.484 -1.02991 -4.12641 0
M  V30 2611 N 249.799 1.42003 -0.683588 0
M  V30 2612 C 251.076 1.95112 -0.138075 0
M  V30 2613 C 251.456 1.62359 1.34918 0
M  V30 2614 O 250.804 0.924311 2.08971 0
M  V30 2615 C 251.014 3.46505 -0.416581 0
M  V30 2616 C 252.362 4.23254 -0.337834 0
M  V30 2617 O 253.386 3.54468 -0.35082 0
M  V30 2618 O 252.245 5.45743 -0.287596 0
M  V30 2619 H 249.339 0.826961 -0.00797996 0
M  V30 2620 H 251.885 1.51784 -0.758924 0
M  V30 2621 H 250.657 3.63582 -1.4465 0
M  V30 2622 H 250.28 3.969 0.235839 0
M  V30 2623 N 251.277 0.427512 1.51691 0
M  V30 2624 C 252.207 -0.3796 2.30394 0
M  V30 2625 C 253.188 -1.02982 1.35384 0
M  V30 2626 O 254.373 -1.03534 1.643 0
M  V30 2627 C 251.503 -1.48649 3.1388 0
M  V30 2628 C 250.457 -0.960294 4.17088 0
M  V30 2629 C 249.783 -2.16219 4.89033 0
M  V30 2630 C 251.083 -0.00153679 5.223 0
M  V30 2631 H 252.777 0.277164 2.98114 0
M  V30 2632 H 250.323 0.134739 1.43368 0
M  V30 2633 H 252.276 -2.05826 3.67714 0
M  V30 2634 H 251 -2.1714 2.43962 0
M  V30 2635 H 249.659 -0.410806 3.64291 0
M  V30 2636 H 249.307 -2.83307 4.15628 0
M  V30 2637 H 249.007 -1.81654 5.58816 0
M  V30 2638 H 250.531 -2.73968 5.45687 0
M  V30 2639 H 251.945 -0.482687 5.71264 0
M  V30 2640 H 250.342 0.256199 5.99553 0
M  V30 2641 H 251.412 0.938174 4.75738 0
M  V30 2642 N 252.755 -1.56801 0.158532 0
M  V30 2643 C 254.001 -1.97559 -0.483957 0
M  V30 2644 C 254.356 -1.04239 -1.61716 0
M  V30 2645 O 253.649 -0.079603 -1.91435 0
M  V30 2646 C 253.843 -3.4235 -1.02623 0
M  V30 2647 C 253.672 -4.49669 0.0528929 0
M  V30 2648 C 252.442 -5.02838 0.498234 0
M  V30 2649 C 254.64 -5.0725 0.848616 0
M  V30 2650 N 252.622 -5.93775 1.559 0
M  V30 2651 C 253.993 -5.94506 1.7596 0
M  V30 2652 C 256.048 -4.89788 0.895121 0
M  V30 2653 C 254.751 -6.66169 2.71314 0
M  V30 2654 C 256.777 -5.62161 1.83654 0
M  V30 2655 C 256.139 -6.49134 2.73503 0
M  V30 2656 H 252.238 -0.768332 -0.145566 0
M  V30 2657 H 254.822 -1.93012 0.255799 0
M  V30 2658 H 252.993 -3.47467 -1.73555 0
M  V30 2659 H 254.725 -3.70145 -1.63629 0
M  V30 2660 H 251.48 -4.73498 0.0983222 0
M  V30 2661 H 251.904 -6.43948 2.08949 0
M  V30 2662 H 256.546 -4.22255 0.21453 0
M  V30 2663 H 254.264 -7.32923 3.40367 0
M  V30 2664 H 257.85 -5.5064 1.87847 0
M  V30 2665 H 256.73 -7.04153 3.45163 0
M  V30 2666 N 254.233 0.115231 -1.57178 0
M  V30 2667 C 255.479 0.82357 -1.85325 0
M  V30 2668 C 255.812 1.79349 -0.744814 0
M  V30 2669 O 255.087 1.92899 0.249024 0
M  V30 2670 C 255.37 1.57014 -3.24066 0
M  V30 2671 C 255.223 0.619565 -4.45513 0
M  V30 2672 C 256.542 2.52545 -3.60429 0
M  V30 2673 H 253.661 0.297948 -0.674089 0
M  V30 2674 H 256.303 0.0877138 -1.89797 0
M  V30 2675 H 254.453 2.19742 -3.20383 0
M  V30 2676 H 256.125 0.000837639 -4.613 0
M  V30 2677 H 254.368 -0.0686174 -4.33746 0
M  V30 2678 H 255.039 1.17866 -5.3927 0
M  V30 2679 H 257.515 1.9992 -3.64926 0
M  V30 2680 H 256.391 3.01811 -4.58477 0
M  V30 2681 H 256.652 3.35383 -2.88047 0
M  V30 2682 N 255.711 1.52812 0.385517 0
M  V30 2683 C 256.988 1.5861 1.14465 0
M  V30 2684 C 257.368 0.381402 2.07626 0
M  V30 2685 O 256.716 -0.629999 2.19643 0
M  V30 2686 C 256.926 2.92664 1.90128 0
M  V30 2687 C 258.274 3.46526 2.45367 0
M  V30 2688 O 259.298 2.94562 2.0028 0
M  V30 2689 O 258.157 4.37323 3.27736 0
M  V30 2690 H 255.251 0.639855 0.523941 0
M  V30 2691 H 257.797 1.65149 0.390389 0
M  V30 2692 H 256.569 3.71788 1.22022 0
M  V30 2693 H 256.192 2.89527 2.72507 0
M  V30 2694 N 257.189 -0.644168 1.43834 0
M  V30 2695 C 258.605 -0.960875 1.27434 0
M  V30 2696 C 258.805 -2.00499 0.200618 0
M  V30 2697 O 257.861 -2.49018 -0.417906 0
M  V30 2698 C 259.174 -1.43653 2.64167 0
M  V30 2699 C 260.722 -1.55271 2.71772 0
M  V30 2700 C 261.197 -2.06224 4.08944 0
M  V30 2701 N 262.688 -2.13513 4.11055 0
M  V30 2702 C 263.423 -2.54081 5.14033 0
M  V30 2703 N 262.919 -2.9388 6.27381 0
M  V30 2704 N 264.712 -2.54101 5.01387 0
M  V30 2705 H 256.863 0.0465779 2.12349 0
M  V30 2706 H 259.126 -0.0417638 0.94708 0
M  V30 2707 H 258.832 -0.743706 3.43747 0
M  V30 2708 H 258.706 -2.40993 2.90176 0
M  V30 2709 H 261.093 -2.23653 1.92519 0
M  V30 2710 H 261.174 -0.563395 2.49519 0
M  V30 2711 H 260.818 -1.38441 4.88668 0
M  V30 2712 H 260.748 -3.06003 4.28567 0
M  V30 2713 H 263.239 -1.85493 3.29242 0
M  V30 2714 H 263.552 -3.2361 7.01781 0
M  V30 2715 H 261.897 -2.91663 6.30839 0
M  V30 2716 H 265.088 -2.22391 4.11898 0
M  V30 2717 H 265.261 -2.85394 5.81768 0
M  V30 2718 N 258.668 -1.30515 -0.883378 0
M  V30 2719 C 259.893 -1.22487 -1.67367 0
M  V30 2720 C 260.318 0.208767 -1.86938 0
M  V30 2721 O 259.676 1.15015 -1.40148 0
M  V30 2722 C 259.724 -1.96041 -3.02655 0
M  V30 2723 O 258.828 -1.28859 -3.91751 0
M  V30 2724 H 258.169 -0.423573 -0.511353 0
M  V30 2725 H 260.699 -1.72362 -1.10239 0
M  V30 2726 H 260.709 -2.05124 -3.52687 0
M  V30 2727 H 259.384 -3.00307 -2.8773 0
M  V30 2728 H 257.961 -1.28141 -3.50192 0
M  V30 2729 N 260.146 1.09593 -1.13257 0
M  V30 2730 C 261.056 2.19739 -0.821691 0
M  V30 2731 C 262.072 1.72926 0.19302 0
M  V30 2732 O 263.248 2.01385 0.0244895 0
M  V30 2733 C 260.313 3.45482 -0.290333 0
M  V30 2734 C 259.374 4.06985 -1.36607 0
M  V30 2735 C 258.607 5.26726 -0.859975 0
M  V30 2736 O 258.83 5.69594 0.303082 0
M  V30 2737 O 257.764 5.7931 -1.63351 0
M  V30 2738 H 261.59 2.48781 -1.74189 0
M  V30 2739 H 259.175 1.18496 -0.909894 0
M  V30 2740 H 261.057 4.214 0.000674022 0
M  V30 2741 H 259.732 3.18047 0.602306 0
M  V30 2742 H 258.639 3.32712 -1.71037 0
M  V30 2743 H 259.972 4.38643 -2.23279 0
M  V30 2744 N 261.624 0.925811 1.2754 0
M  V30 2745 C 262.574 0.394488 2.24561 0
M  V30 2746 C 263.558 -0.500183 1.52928 0
M  V30 2747 O 264.75 -0.337936 1.73744 0
M  V30 2748 C 261.879 -0.353328 3.41477 0
M  V30 2749 C 260.965 0.557752 4.20416 0
M  V30 2750 N 261.356 1.67674 4.77199 0
M  V30 2751 C 259.654 0.360404 4.44541 0
M  V30 2752 C 260.355 2.24324 5.36706 0
M  V30 2753 N 259.331 1.53305 5.21535 0
M  V30 2754 H 263.133 1.2489 2.66045 0
M  V30 2755 H 260.647 0.779864 1.4245 0
M  V30 2756 H 262.644 -0.7509 4.10082 0
M  V30 2757 H 261.304 -1.20469 3.01525 0
M  V30 2758 H 262.315 2.05915 4.75204 0
M  V30 2759 H 258.992 -0.450454 4.15063 0
M  V30 2760 H 260.382 3.18521 5.91603 0
M  V30 2761 N 263.102 -1.41638 0.69111 0
M  V30 2762 C 264.332 -2.0533 0.228758 0
M  V30 2763 C 264.74 -1.52089 -1.12541 0
M  V30 2764 O 264.083 -0.662145 -1.71351 0
M  V30 2765 C 264.145 -3.59349 0.10407 0
M  V30 2766 C 263.809 -4.35362 1.38956 0
M  V30 2767 C 264.806 -4.64942 2.32648 0
M  V30 2768 C 262.491 -4.74714 1.64169 0
M  V30 2769 C 264.485 -5.32828 3.49818 0
M  V30 2770 C 262.172 -5.42338 2.81625 0
M  V30 2771 C 263.17 -5.71322 3.74273 0
M  V30 2772 O 262.858 -6.37554 4.89673 0
M  V30 2773 H 262.59 -0.667796 0.104997 0
M  V30 2774 H 265.144 -1.82477 0.942938 0
M  V30 2775 H 263.374 -3.80924 -0.665839 0
M  V30 2776 H 265.063 -4.04633 -0.320519 0
M  V30 2777 H 265.829 -4.35025 2.14425 0
M  V30 2778 H 261.708 -4.51538 0.929202 0
M  V30 2779 H 265.252 -5.55368 4.22152 0
M  V30 2780 H 261.149 -5.71673 2.99768 0
M  V30 2781 H 261.917 -6.56049 4.8943 0
M  V30 2782 N 264.58 -0.43555 -1.51462 0
M  V30 2783 C 265.827 0.131514 -2.02072 0
M  V30 2784 C 266.155 1.42868 -1.31981 0
M  V30 2785 O 265.41 1.91076 -0.422883 0
M  V30 2786 C 265.709 0.39942 -3.55161 0
M  V30 2787 C 265.375 -0.81172 -4.43533 0
M  V30 2788 C 264.037 -1.14387 -4.67407 0
M  V30 2789 C 266.389 -1.61976 -4.95392 0
M  V30 2790 C 263.717 -2.28477 -5.40384 0
M  V30 2791 C 266.069 -2.75164 -5.6962 0
M  V30 2792 C 264.733 -3.08835 -5.91758 0
M  V30 2793 H 264.003 0.0481244 -0.739436 0
M  V30 2794 H 266.65 -0.58238 -1.8243 0
M  V30 2795 H 264.955 1.19519 -3.73125 0
M  V30 2796 H 266.652 0.85157 -3.91854 0
M  V30 2797 H 263.242 -0.542898 -4.25148 0
M  V30 2798 H 267.426 -1.37637 -4.76833 0
M  V30 2799 H 262.682 -2.5488 -5.55739 0
M  V30 2800 H 266.856 -3.38147 -6.08793 0
M  V30 2801 H 264.483 -3.97353 -6.48086 0
M  V30 2802 N 266.058 1.56714 -0.166846 0
M  V30 2803 C 267.474 1.58473 0.189372 0
M  V30 2804 C 267.674 1.18201 1.63189 0
M  V30 2805 O 266.73 0.891528 2.36237 0
M  V30 2806 C 268.043 3.00573 -0.0873872 0
M  V30 2807 C 269.591 3.1299 -0.0252443 0
M  V30 2808 C 270.066 4.57174 -0.274934 0
M  V30 2809 N 271.557 4.62665 -0.222553 0
M  V30 2810 C 272.292 5.72072 -0.389985 0
M  V30 2811 N 271.788 6.90054 -0.616229 0
M  V30 2812 N 273.581 5.61153 -0.326202 0
M  V30 2813 H 265.732 1.8118 -1.10849 0
M  V30 2814 H 267.995 0.839525 -0.440342 0
M  V30 2815 H 267.701 3.34497 -1.0865 0
M  V30 2816 H 267.575 3.72019 0.623037 0
M  V30 2817 H 269.962 2.78895 0.96444 0
M  V30 2818 H 270.043 2.43989 -0.768309 0
M  V30 2819 H 269.687 4.91976 -1.26181 0
M  V30 2820 H 269.617 5.24328 0.48869 0
M  V30 2821 H 272.108 3.77863 -0.0531512 0
M  V30 2822 H 272.421 7.69311 -0.733559 0
M  V30 2823 H 270.766 6.91927 -0.652791 0
M  V30 2824 H 273.957 4.67859 -0.150072 0
M  V30 2825 H 274.13 6.46364 -0.460116 0
M  V30 2826 N 267.536 -0.106894 1.57237 0
M  V30 2827 C 268.766 -0.825191 1.89405 0
M  V30 2828 C 269.174 -1.73374 0.757496 0
M  V30 2829 O 268.517 -1.81552 -0.280115 0
M  V30 2830 C 268.579 -1.70102 3.1671 0
M  V30 2831 C 268.243 -0.965523 4.46684 0
M  V30 2832 C 269.24 -0.300741 5.19029 0
M  V30 2833 C 266.925 -0.943105 4.93367 0
M  V30 2834 C 268.919 0.376622 6.36286 0
M  V30 2835 C 266.606 -0.261949 6.10538 0
M  V30 2836 C 267.604 0.396748 6.81847 0
M  V30 2837 O 267.292 1.06701 7.96787 0
M  V30 2838 H 267.024 -0.241852 0.631255 0
M  V30 2839 H 269.578 -0.0921491 2.05193 0
M  V30 2840 H 267.808 -2.47601 2.97036 0
M  V30 2841 H 269.497 -2.29483 3.34802 0
M  V30 2842 H 270.263 -0.309599 4.84011 0
M  V30 2843 H 266.142 -1.44524 4.3776 0
M  V30 2844 H 269.686 0.891334 6.91882 0
M  V30 2845 H 265.583 -0.250896 6.45012 0
M  V30 2846 H 266.351 0.972707 8.127 0
M  V30 2847 N 269.014 -1.53014 -0.377408 0
M  V30 2848 C 269.944 -1.81589 -1.46791 0
M  V30 2849 C 270.925 -0.668622 -1.56408 0
M  V30 2850 O 272.11 -0.917337 -1.71168 0
M  V30 2851 C 269.24 -1.99519 -2.8427 0
M  V30 2852 C 268.194 -3.15249 -2.89486 0
M  V30 2853 C 267.52 -3.18451 -4.29527 0
M  V30 2854 C 268.82 -4.54084 -2.58079 0
M  V30 2855 H 270.514 -2.7291 -1.23127 0
M  V30 2856 H 268.06 -1.31319 -0.590883 0
M  V30 2857 H 270.013 -2.18092 -3.60575 0
M  V30 2858 H 268.737 -1.04897 -3.09296 0
M  V30 2859 H 267.396 -2.96477 -2.15631 0
M  V30 2860 H 267.044 -2.2149 -4.5161 0
M  V30 2861 H 266.744 -3.962 -4.33934 0
M  V30 2862 H 268.268 -3.39193 -5.07721 0
M  V30 2863 H 269.682 -4.72899 -3.24098 0
M  V30 2864 H 268.079 -5.33987 -2.7382 0
M  V30 2865 H 269.149 -4.60006 -1.53372 0
M  V30 2866 N 270.492 0.636531 -1.44174 0
M  V30 2867 C 271.402 1.77754 -1.53103 0
M  V30 2868 C 272.418 1.68928 -0.417034 0
M  V30 2869 O 273.594 1.89801 -0.6736 0
M  V30 2870 C 270.659 3.14115 -1.46741 0
M  V30 2871 C 269.72 3.34612 -2.68948 0
M  V30 2872 C 268.953 4.64467 -2.6288 0
M  V30 2873 O 269.176 5.44919 -1.68581 0
M  V30 2874 O 268.11 4.87049 -3.53648 0
M  V30 2875 H 271.936 1.73174 -2.49489 0
M  V30 2876 H 269.521 0.79709 -1.2636 0
M  V30 2877 H 271.403 3.95412 -1.45696 0
M  V30 2878 H 270.078 3.19249 -0.534975 0
M  V30 2879 H 268.985 2.53014 -2.75562 0
M  V30 2880 H 270.318 3.34336 -3.61221 0
M  V30 2881 N 271.97 1.30982 0.876444 0
M  V30 2882 C 272.9 1.20668 1.99903 0
M  V30 2883 C 273.881 0.095354 1.69833 0
M  V30 2884 O 275.066 0.27885 1.92188 0
M  V30 2885 C 272.196 0.90655 3.3526 0
M  V30 2886 C 271.15 1.97675 3.79617 0
M  V30 2887 C 270.476 1.52943 5.1236 0
M  V30 2888 C 271.776 3.389 3.97422 0
M  V30 2889 H 273.47 2.14586 2.0879 0
M  V30 2890 H 271.016 1.03308 1.00317 0
M  V30 2891 H 272.969 0.821025 4.13324 0
M  V30 2892 H 271.693 -0.0682969 3.26529 0
M  V30 2893 H 270.352 2.05205 3.03787 0
M  V30 2894 H 270 0.54262 5.00065 0
M  V30 2895 H 269.7 2.24532 5.43009 0
M  V30 2896 H 271.224 1.45786 5.92941 0
M  V30 2897 H 272.638 3.34081 4.659 0
M  V30 2898 H 271.035 4.0865 4.3946 0
M  V30 2899 H 272.105 3.80163 3.01006 0
M  V30 2900 N 273.449 -1.08991 1.13837 0
M  V30 2901 C 274.674 -1.85551 0.926585 0
M  V30 2902 C 275.099 -1.80782 -0.519566 0
M  V30 2903 O 274.457 -1.18855 -1.36906 0
M  V30 2904 C 274.505 -3.31266 1.42462 0
M  V30 2905 O 273.609 -4.07822 0.612789 0
M  V30 2906 H 272.95 -0.575192 0.331738 0
M  V30 2907 H 275.48 -1.37604 1.51414 0
M  V30 2908 H 275.49 -3.82112 1.43019 0
M  V30 2909 H 274.165 -3.34052 2.47754 0
M  V30 2910 H 272.742 -3.66731 0.675463 0
M  V30 2911 N 274.927 -0.932562 -1.27047 0
M  V30 2912 C 276.173 -0.576412 -1.94436 0
M  V30 2913 C 276.506 0.880891 -1.73072 0
M  V30 2914 O 275.781 1.62905 -1.06264 0
M  V30 2915 C 276.064 -0.909031 -3.48437 0
M  V30 2916 C 275.917 -2.42044 -3.79123 0
M  V30 2917 C 277.236 -0.418341 -4.38107 0
M  V30 2918 H 274.355 -0.210888 -0.706184 0
M  V30 2919 H 276.997 -1.16522 -1.50075 0
M  V30 2920 H 275.147 -0.407947 -3.86352 0
M  V30 2921 H 276.819 -2.99359 -3.50973 0
M  V30 2922 H 275.062 -2.86758 -3.25503 0
M  V30 2923 H 275.733 -2.6037 -4.86736 0
M  V30 2924 H 278.209 -0.847856 -4.0737 0
M  V30 2925 H 277.085 -0.679981 -5.44672 0
M  V30 2926 H 277.346 0.681642 -4.36814 0
M  V30 2927 N 276.405 1.4127 -0.698611 0
M  V30 2928 C 277.368 2.29158 -0.044132 0
M  V30 2929 C 278.368 1.44529 0.704841 0
M  V30 2930 O 279.558 1.65643 0.539276 0
M  V30 2931 C 276.69 3.27459 0.947809 0
M  V30 2932 H 277.883 2.88529 -0.817994 0
M  V30 2933 H 275.436 1.49307 -0.46228 0
M  V30 2934 H 276.171 2.73073 1.74933 0
M  V30 2935 H 275.956 3.8991 0.41385 0
M  V30 2936 H 277.446 3.93311 1.40344 0
M  V30 2937 N 277.883 0.443576 1.51229 0
M  V30 2938 C 279.131 -0.120557 2.0174 0
M  V30 2939 C 279.452 -1.42665 1.32935 0
M  V30 2940 O 278.722 -1.9028 0.465866 0
M  V30 2941 H 277.302 -0.0475426 0.745486 0
M  V30 2942 H 279.964 0.587711 1.85828 0
M  V30 2943 H 279.06 -0.291972 3.10731 0
M  V30 2944 N 279.361 -1.56624 0.175154 0
M  V30 2945 C 280.586 -2.01813 -0.478137 0
M  V30 2946 C 281.011 -1.05457 -1.55757 0
M  V30 2947 O 280.369 -0.0347439 -1.81267 0
M  V30 2948 C 280.417 -3.45581 -1.02987 0
M  V30 2949 O 279.521 -3.52305 -2.14371 0
M  V30 2950 H 278.862 -0.65413 -0.114059 0
M  V30 2951 H 281.392 -2.02673 0.280173 0
M  V30 2952 H 281.402 -3.84965 -1.35151 0
M  V30 2953 H 280.077 -4.1521 -0.239556 0
M  V30 2954 H 278.654 -3.24783 -1.83222 0
M  V30 2955 N 280.839 0.0985539 -1.57292 0
M  V30 2956 C 281.802 1.10402 -2.00858 0
M  V30 2957 C 282.802 1.33146 -0.901593 0
M  V30 2958 O 283.992 1.29318 -1.16716 0
M  V30 2959 C 281.124 2.45394 -2.36632 0
M  V30 2960 H 282.317 0.729099 -2.90902 0
M  V30 2961 H 279.87 0.343495 -1.52479 0
M  V30 2962 H 280.605 2.87769 -1.49531 0
M  V30 2963 H 280.39 2.30235 -3.17387 0
M  V30 2964 H 281.88 3.17718 -2.71007 0
M  V30 2965 N 282.317 1.53212 0.369288 0
M  V30 2966 C 283.733 1.42902 0.710712 0
M  V30 2967 C 283.933 0.565135 1.93413 0
M  V30 2968 O 282.989 0.0461484 2.52458 0
M  V30 2969 C 284.302 2.86042 0.927382 0
M  V30 2970 C 285.85 2.9565 1.02762 0
M  V30 2971 C 286.325 4.39843 1.27679 0
M  V30 2972 N 287.816 4.43256 1.34457 0
M  V30 2973 C 288.551 5.51929 1.55439 0
M  V30 2974 N 288.047 6.70655 1.73762 0
M  V30 2975 N 289.84 5.39502 1.57779 0
M  V30 2976 H 281.991 2.07888 -0.435457 0
M  V30 2977 H 284.254 0.938661 -0.132739 0
M  V30 2978 H 283.96 3.51557 0.100287 0
M  V30 2979 H 283.834 3.29472 1.83653 0
M  V30 2980 H 286.221 2.30291 1.84527 0
M  V30 2981 H 286.302 2.5562 0.0959504 0
M  V30 2982 H 285.946 5.05774 0.464175 0
M  V30 2983 H 285.876 4.77443 2.22162 0
M  V30 2984 H 288.367 3.5769 1.21926 0
M  V30 2985 H 288.68 7.49248 1.89335 0
M  V30 2986 H 287.025 6.73648 1.70948 0
M  V30 2987 H 290.216 4.45713 1.43029 0
M  V30 2988 H 290.389 6.2426 1.7379 0
M  V30 2989 N 283.795 -0.628877 1.44509 0
M  V30 2990 C 285.023 -1.41554 1.50897 0
M  V30 2991 C 285.438 -1.8832 0.134564 0
M  V30 2992 O 284.795 -1.60969 -0.859965 0
M  V30 2993 C 284.846 -2.63435 2.47556 0
M  V30 2994 O 284.567 -2.18619 3.79654 0
M  V30 2995 C 286.068 -3.56537 2.63431 0
M  V30 2996 H 283.288 -0.434044 0.511709 0
M  V30 2997 H 285.832 -0.768895 1.89495 0
M  V30 2998 H 283.987 -3.24187 2.12089 0
M  V30 2999 H 284.401 -2.97652 4.31861 0
M  V30 3000 H 285.875 -4.38657 3.35088 0
M  V30 3001 H 286.352 -4.05493 1.68738 0
M  V30 3002 H 286.958 -3.01653 2.9981 0
M  V30 3003 N 285.273 -1.31445 -0.869486 0
M  V30 3004 C 286.236 -1.19094 -1.9583 0
M  V30 3005 C 287.236 -0.117906 -1.60367 0
M  V30 3006 O 288.426 -0.367208 -1.70286 0
M  V30 3007 C 285.558 -0.828165 -3.30688 0
M  V30 3008 H 286.751 -2.15842 -2.08212 0
M  V30 3009 H 284.304 -1.15063 -1.05784 0
M  V30 3010 H 285.039 0.138142 -3.24006 0
M  V30 3011 H 284.824 -1.6038 -3.578 0
M  V30 3012 H 286.314 -0.765658 -4.10521 0
M  V30 3013 N 286.751 1.08385 -1.14413 0
M  V30 3014 C 287.681 2.17321 -0.854044 0
M  V30 3015 C 288.662 1.69024 0.191049 0
M  V30 3016 O 289.847 1.94141 0.0476779 0
M  V30 3017 C 286.977 3.45719 -0.330983 0
M  V30 3018 C 285.931 4.07409 -1.31155 0
M  V30 3019 C 285.257 5.30762 -0.64778 0
M  V30 3020 C 286.557 4.48665 -2.67388 0
M  V30 3021 H 288.251 2.41845 -1.76498 0
M  V30 3022 H 285.797 1.16233 -0.850051 0
M  V30 3023 H 287.75 4.21241 -0.115645 0
M  V30 3024 H 286.474 3.2075 0.615381 0
M  V30 3025 H 285.133 3.33919 -1.51306 0
M  V30 3026 H 284.781 5.02078 0.304398 0
M  V30 3027 H 284.481 5.72992 -1.30207 0
M  V30 3028 H 286.005 6.08998 -0.441972 0
M  V30 3029 H 287.419 5.15364 -2.51143 0
M  V30 3030 H 285.816 5.01814 -3.29093 0
M  V30 3031 H 286.886 3.60543 -3.24248 0
M  V30 3032 N 288.23 0.939286 1.26551 0
M  V30 3033 C 289.479 0.581601 1.93133 0
M  V30 3034 C 289.792 -0.883224 1.74524 0
M  V30 3035 O 290.998 -1.3502 2.35546 0
M  V30 3036 C 289.454 0.989425 3.46032 0
M  V30 3037 C 289.062 2.47573 3.73379 0
M  V30 3038 C 290.806 0.703544 4.18629 0
M  V30 3039 C 288.713 2.82235 5.19709 0
M  V30 3040 H 287.643 0.213803 0.723052 0
M  V30 3041 H 290.294 1.14167 1.4366 0
M  V30 3042 H 288.676 0.357902 3.94379 0
M  V30 3043 H 289.85 3.15614 3.35744 0
M  V30 3044 H 288.165 2.73471 3.1401 0
M  V30 3045 H 290.762 0.938869 5.26393 0
M  V30 3046 H 291.105 -0.359639 4.14744 0
M  V30 3047 H 291.638 1.2947 3.76141 0
M  V30 3048 H 288.377 3.87509 5.28694 0
M  V30 3049 H 287.897 2.18854 5.58447 0
M  V30 3050 H 289.576 2.70599 5.87695 0
M  V30 3051 N 289.708 -1.40897 0.706093 0
M  V30 3052 C 291.119 -1.84023 0.315052 0
M  V30 3053 C 291.47 -1.5906 -1.14866 0
M  V30 3054 O 290.595 -1.06651 -1.88293 0
M  V30 3055 C 291.19 -3.34055 0.565038 0
M  V30 3056 C 289.749 -3.7571 0.227806 0
M  V30 3057 C 288.896 -2.64204 0.842122 0
M  V30 3058 H 291.847 -1.303 0.905963 0
M  V30 3059 H 291.868 -3.80107 -0.172843 0
M  V30 3060 H 291.38 -3.52192 1.63042 0
M  V30 3061 H 289.481 -3.63172 -0.832895 0
M  V30 3062 H 289.594 -4.74103 0.690174 0
M  V30 3063 H 287.958 -2.53255 0.270893 0
M  V30 3064 H 288.741 -2.85155 1.91158 0
M  V30 3065 N 291.186 -0.45159 -1.50991 0
M  V30 3066 C 292.116 0.342898 -2.30969 0
M  V30 3067 C 293.097 1.00815 -1.37005 0
M  V30 3068 O 294.282 1.00907 -1.65926 0
M  V30 3069 C 291.412 1.43637 -3.16205 0
M  V30 3070 C 290.366 0.893818 -4.18563 0
M  V30 3071 C 289.692 2.08411 -4.92411 0
M  V30 3072 C 290.992 -0.0815568 -5.22236 0
M  V30 3073 H 292.686 -0.324556 -2.97636 0
M  V30 3074 H 290.232 -0.157531 -1.43136 0
M  V30 3075 H 292.185 1.9995 -3.70942 0
M  V30 3076 H 290.909 2.13232 -2.47386 0
M  V30 3077 H 289.568 0.352798 -3.64898 0
M  V30 3078 H 289.216 2.76658 -4.20082 0
M  V30 3079 H 288.916 1.72741 -5.61636 0
M  V30 3080 H 290.44 2.65251 -5.49976 0
M  V30 3081 H 291.854 0.391742 -5.7196 0
M  V30 3082 H 290.251 -0.351551 -5.99069 0
M  V30 3083 H 291.321 -1.01374 -4.74185 0
M  V30 3084 N 292.664 1.56529 -0.183458 0
M  V30 3085 C 293.912 1.96855 0.457452 0
M  V30 3086 C 294.233 1.07104 1.62953 0
M  V30 3087 O 293.503 0.139887 1.954 0
M  V30 3088 H 292.083 0.72693 0.171992 0
M  V30 3089 H 294.745 1.93056 -0.267476 0
M  V30 3090 H 293.841 3.01423 0.809368 0
M  V30 3091 N 294.142 -0.090211 1.57342 0
M  V30 3092 C 295.389 -0.792807 1.86335 0
M  V30 3093 C 295.717 -1.78494 0.772662 0
M  V30 3094 O 294.972 -1.94305 -0.233258 0
M  V30 3095 C 295.271 -1.55222 3.21933 0
M  V30 3096 C 294.937 -0.701765 4.45406 0
M  V30 3097 C 293.599 -0.467334 4.78925 0
M  V30 3098 C 295.951 -0.11086 5.21082 0
M  V30 3099 C 293.279 0.367785 5.85546 0
M  V30 3100 C 295.631 0.711609 6.28585 0
M  V30 3101 C 294.295 0.956086 6.60617 0
M  V30 3102 H 293.565 -0.290109 0.681849 0
M  V30 3103 H 296.212 -0.0541332 1.91423 0
M  V30 3104 H 294.517 -2.3626 3.12551 0
M  V30 3105 H 296.214 -2.10032 3.41595 0
M  V30 3106 H 292.804 -0.894598 4.1916 0
M  V30 3107 H 296.988 -0.279129 4.95514 0
M  V30 3108 H 292.244 0.566128 6.08773 0
M  V30 3109 H 296.418 1.17632 6.86393 0
M  V30 3110 H 294.045 1.60499 7.43064 0
M  V30 3111 N 295.62 -1.53406 -0.361157 0
M  V30 3112 C 296.86 -1.71507 -1.11197 0
M  V30 3113 C 297.224 -0.459337 -1.86425 0
M  V30 3114 O 298.425 -0.517102 -2.63779 0
M  V30 3115 C 296.696 -2.93307 -2.0422 0
M  V30 3116 S 298.255 -3.32135 -2.86761 0
M  V30 3117 H 295.073 -0.603448 -0.375995 0
M  V30 3118 H 297.675 -1.91516 -0.392642 0
M  V30 3119 H 296.379 -3.82891 -1.47724 0
M  V30 3120 H 295.91 -2.75712 -2.80618 0
M  V30 3121 H 297.925 -2.84493 -4.06544 0
M  V30 3122 N 297.098 0.621204 -1.44841 0
M  V30 3123 C 298.375 1.38 -1.38619 0
M  V30 3124 C 298.755 2.11041 -0.0498935 0
M  V30 3125 O 298.103 2.06992 0.967816 0
M  V30 3126 C 298.313 2.33817 -2.59096 0
M  V30 3127 C 299.661 2.96844 -3.03593 0
M  V30 3128 O 300.685 2.44141 -2.59371 0
M  V30 3129 O 299.544 3.92476 -3.80296 0
M  V30 3130 H 296.638 0.61811 -0.549426 0
M  V30 3131 H 299.184 0.645429 -1.56947 0
M  V30 3132 H 297.956 1.79012 -3.47952 0
M  V30 3133 H 297.579 3.14676 -2.43032 0
M  V30 3134 N 298.576 1.31904 0.862503 0
M  V30 3135 C 299.822 1.22197 1.61851 0
M  V30 3136 C 300.155 -0.217641 1.92977 0
M  V30 3137 O 299.43 -1.15264 1.56666 0
M  V30 3138 C 299.713 2.07378 2.94391 0
M  V30 3139 C 299.566 3.59678 2.70096 0
M  V30 3140 C 300.885 1.92891 3.95577 0
M  V30 3141 H 298.004 0.445255 0.587296 0
M  V30 3142 H 300.646 1.6177 0.99651 0
M  V30 3143 H 298.796 1.73758 3.47477 0
M  V30 3144 H 300.468 4.03472 2.23625 0
M  V30 3145 H 298.711 3.82735 2.04197 0
M  V30 3146 H 299.382 4.14595 3.64438 0
M  V30 3147 H 301.858 2.22327 3.51724 0
M  V30 3148 H 300.734 2.54781 4.86187 0
M  V30 3149 H 300.995 0.894315 4.3296 0
M  V30 3150 N 300.054 -1.07777 1.14986 0
M  V30 3151 C 301.001 -2.14867 0.842672 0
M  V30 3152 C 301.971 -1.6486 -0.202552 0
M  V30 3153 O 303.156 -1.90668 -0.0710568 0
M  V30 3154 C 300.296 -3.43486 0.333363 0
M  V30 3155 C 299.409 -4.07306 1.43965 0
M  V30 3156 C 298.544 -5.23744 0.886914 0
M  V30 3157 C 297.583 -5.79517 1.97043 0
M  V30 3158 N 296.72 -6.87291 1.4344 0
M  V30 3159 H 301.56 -2.40485 1.75986 0
M  V30 3160 H 299.097 -1.1801 0.878179 0
M  V30 3161 H 301.055 -4.17195 0.0198163 0
M  V30 3162 H 299.685 -3.18133 -0.546916 0
M  V30 3163 H 298.737 -3.31293 1.86946 0
M  V30 3164 H 300.049 -4.44771 2.25788 0
M  V30 3165 H 299.203 -6.04419 0.525651 0
M  V30 3166 H 297.942 -4.87685 0.0377957 0
M  V30 3167 H 296.947 -4.97491 2.34057 0
M  V30 3168 H 298.172 -6.17632 2.82325 0
M  V30 3169 H 296.118 -6.5318 0.607567 0
M  V30 3170 H 296.035 -7.23617 2.18895 0
M  V30 3171 H 297.303 -7.71682 1.10124 0
M  V30 3172 N 301.532 -0.945985 -1.26051 0
M  V30 3173 C 302.479 -0.45809 -2.26208 0
M  V30 3174 C 303.449 0.484816 -1.58867 0
M  V30 3175 O 304.634 0.399969 -1.86561 0
M  V30 3176 C 301.774 0.266131 -3.44072 0
M  V30 3177 C 300.887 -0.713005 -4.26075 0
M  V30 3178 C 300.022 0.0329013 -5.3119 0
M  V30 3179 C 299.061 -0.93774 -6.04874 0
M  V30 3180 N 298.198 -0.223274 -7.01745 0
M  V30 3181 H 303.038 -1.3171 -2.67313 0
M  V30 3182 H 300.575 -0.66069 -1.31428 0
M  V30 3183 H 302.533 0.702514 -4.11243 0
M  V30 3184 H 301.163 1.08925 -3.03867 0
M  V30 3185 H 300.215 -1.26789 -3.58648 0
M  V30 3186 H 301.527 -1.45406 -4.77136 0
M  V30 3187 H 300.681 0.528335 -6.04395 0
M  V30 3188 H 299.42 0.806801 -4.8098 0
M  V30 3189 H 298.425 -1.44425 -5.30492 0
M  V30 3190 H 299.65 -1.71172 -6.57173 0
M  V30 3191 H 297.596 0.532046 -6.53839 0
M  V30 3192 H 297.513 -0.90357 -7.50581 0
M  V30 3193 H 298.781 0.250907 -7.79096 0
M  V30 3194 N 303.011 1.40521 -0.713556 0
M  V30 3195 C 304.288 1.94775 -0.17943 0
M  V30 3196 C 304.668 1.65184 1.31444 0
M  V30 3197 O 304.016 0.968429 2.06963 0
M  V30 3198 C 304.226 3.45543 -0.489986 0
M  V30 3199 C 305.574 4.22442 -0.427536 0
M  V30 3200 O 306.598 3.53644 -0.425929 0
M  V30 3201 O 305.457 5.4501 -0.403292 0
M  V30 3202 H 302.551 0.826606 -0.0255192 0
M  V30 3203 H 305.097 1.5014 -0.790949 0
M  V30 3204 H 303.869 3.60432 -1.5233 0
M  V30 3205 H 303.492 3.97311 0.151598 0
M  V30 3206 N 304.489 0.459591 1.5075 0
M  V30 3207 C 305.436 -0.340524 2.28274 0
M  V30 3208 C 306.406 -0.997371 1.32822 0
M  V30 3209 O 307.591 -1.01202 1.61749 0
M  V30 3210 C 304.731 -1.42317 3.14388 0
M  V30 3211 C 303.844 -0.782251 4.24859 0
M  V30 3212 C 302.979 -1.84182 4.98247 0
M  V30 3213 C 302.018 -1.18053 6.00608 0
M  V30 3214 N 301.155 -2.18244 6.67319 0
M  V30 3215 H 305.995 0.326899 2.96202 0
M  V30 3216 H 303.532 0.173057 1.46078 0
M  V30 3217 H 305.49 -2.06241 3.62658 0
M  V30 3218 H 304.12 -2.05992 2.4853 0
M  V30 3219 H 303.172 -0.0307404 3.80388 0
M  V30 3220 H 304.484 -0.259663 4.98124 0
M  V30 3221 H 303.638 -2.55714 5.50177 0
M  V30 3222 H 302.377 -2.39819 4.24662 0
M  V30 3223 H 301.382 -0.450776 5.47949 0
M  V30 3224 H 302.607 -0.631202 6.7616 0
M  V30 3225 H 300.553 -2.72919 5.96533 0
M  V30 3226 H 300.47 -1.70938 7.36421 0
M  V30 3227 H 301.738 -2.89191 7.23871 0
M  V30 3228 N 305.967 -1.56429 0.191757 0
M  V30 3229 C 307.216 -1.9666 -0.448088 0
M  V30 3230 C 307.529 -1.08136 -1.62991 0
M  V30 3231 O 308.735 -1.38135 -2.33733 0
M  V30 3232 C 307.191 -3.49753 -0.848585 0
M  V30 3233 C 306.799 -4.46935 0.308764 0
M  V30 3234 C 308.543 -3.9876 -1.4557 0
M  V30 3235 C 306.45 -5.91293 -0.112506 0
M  V30 3236 H 305.38 -0.734312 -0.171179 0
M  V30 3237 H 308.031 -1.81301 0.283242 0
M  V30 3238 H 306.413 -3.60604 -1.63649 0
M  V30 3239 H 307.587 -4.47813 1.08627 0
M  V30 3240 H 305.902 -4.08102 0.827158 0
M  V30 3241 H 308.499 -5.04086 -1.78328 0
M  V30 3242 H 308.842 -3.42875 -2.36099 0
M  V30 3243 H 309.375 -3.9101 -0.731836 0
M  V30 3244 H 306.114 -6.51097 0.758514 0
M  V30 3245 H 305.634 -5.93676 -0.854941 0
M  V30 3246 H 307.313 -6.44663 -0.549448 0
M  V30 3247 N 307.445 0.0818655 -1.57387 0
M  V30 3248 C 308.691 0.784074 -1.8703 0
M  V30 3249 C 309.024 1.77729 -0.782689 0
M  V30 3250 O 308.299 1.93384 0.208051 0
M  V30 3251 C 308.582 1.50105 -3.27323 0
M  V30 3252 C 308.435 0.524925 -4.46727 0
M  V30 3253 C 309.754 2.44843 -3.65705 0
M  V30 3254 H 306.873 0.283582 -0.680257 0
M  V30 3255 H 309.515 0.0474352 -1.89941 0
M  V30 3256 H 307.665 2.12897 -3.24972 0
M  V30 3257 H 309.337 -0.0970111 -4.61198 0
M  V30 3258 H 307.58 -0.160606 -4.33503 0
M  V30 3259 H 308.251 1.064 -5.41648 0
M  V30 3260 H 310.727 1.92135 -3.69085 0
M  V30 3261 H 309.603 2.92018 -4.64776 0
M  V30 3262 H 309.864 3.29197 -2.95096 0
M  V30 3263 N 308.923 1.53595 0.353017 0
M  V30 3264 C 310.169 1.70638 1.09593 0
M  V30 3265 C 310.502 0.463286 1.88593 0
M  V30 3266 O 309.777 -0.539597 1.86865 0
M  V30 3267 C 310.06 2.96406 2.04489 0
M  V30 3268 C 309.913 4.30901 1.29014 0
M  V30 3269 C 311.232 3.17812 3.0444 0
M  V30 3270 H 308.351 0.620913 0.397034 0
M  V30 3271 H 310.993 1.86254 0.375446 0
M  V30 3272 H 309.143 2.83223 2.65927 0
M  V30 3273 H 310.815 4.55917 0.702638 0
M  V30 3274 H 309.058 4.29741 0.592071 0
M  V30 3275 H 309.729 5.1506 1.98537 0
M  V30 3276 H 312.205 3.30263 2.53112 0
M  V30 3277 H 311.081 4.07223 3.6805 0
M  V30 3278 H 311.342 2.33669 3.75301 0
M  V30 3279 N 310.401 -0.613514 1.45168 0
M  V30 3280 C 311.629 -1.39946 1.5239 0
M  V30 3281 C 312.044 -1.88167 0.154531 0
M  V30 3282 O 311.401 -1.61872 -0.842843 0
M  V30 3283 C 311.452 -2.60795 2.50337 0
M  V30 3284 O 311.173 -2.1458 3.81952 0
M  V30 3285 C 312.674 -3.53723 2.67198 0
M  V30 3286 H 309.894 -0.428593 0.516284 0
M  V30 3287 H 312.438 -0.748753 1.903 0
M  V30 3288 H 310.593 -3.21919 2.15515 0
M  V30 3289 H 311.007 -2.93055 4.34993 0
M  V30 3290 H 312.481 -4.35079 3.39721 0
M  V30 3291 H 312.958 -4.0368 1.73029 0
M  V30 3292 H 313.564 -2.98456 3.02992 0
M  V30 3293 N 311.879 -1.3236 -0.855495 0
M  V30 3294 C 313.104 -1.2601 -1.64731 0
M  V30 3295 C 313.529 0.169068 -1.87339 0
M  V30 3296 O 312.887 1.12016 -1.42556 0
M  V30 3297 C 312.935 -2.02417 -2.98429 0
M  V30 3298 O 312.039 -1.3714 -3.8893 0
M  V30 3299 H 311.38 -0.434325 -0.502253 0
M  V30 3300 H 313.91 -1.74661 -1.06558 0
M  V30 3301 H 313.92 -2.12559 -3.48257 0
M  V30 3302 H 312.595 -3.06343 -2.81295 0
M  V30 3303 H 311.172 -1.3554 -3.47395 0
M  V30 3304 N 313.357 1.07166 -1.15556 0
M  V30 3305 C 314.606 1.79181 -0.926132 0
M  V30 3306 C 314.919 1.87768 0.547967 0
M  V30 3307 O 316.125 2.56323 0.895036 0
M  V30 3308 C 314.581 3.22 -1.60761 0
M  V30 3309 C 314.189 3.21607 -3.11886 0
M  V30 3310 C 315.933 3.9861 -1.4598 0
M  V30 3311 C 313.84 4.59092 -3.72812 0
M  V30 3312 H 312.77 0.67154 -0.342856 0
M  V30 3313 H 315.421 1.2027 -1.3859 0
M  V30 3314 H 313.803 3.81115 -1.07553 0
M  V30 3315 H 314.977 2.72127 -3.71865 0
M  V30 3316 H 313.292 2.58495 -3.2645 0
M  V30 3317 H 315.889 5.00225 -1.88888 0
M  V30 3318 H 316.232 4.143 -0.407541 0
M  V30 3319 H 316.765 3.45996 -1.96295 0
M  V30 3320 H 313.504 4.48606 -4.77946 0
M  V30 3321 H 313.024 5.08803 -3.17616 0
M  V30 3322 H 314.703 5.28059 -3.73848 0
M  V30 3323 N 314.835 0.952656 1.25548 0
M  V30 3324 C 315.765 0.489287 2.28316 0
M  V30 3325 C 316.746 -0.463359 1.63667 0
M  V30 3326 O 317.931 -0.36274 1.90782 0
M  V30 3327 C 315.061 -0.235603 3.465 0
M  V30 3328 C 314.015 0.631593 4.23314 0
M  V30 3329 C 313.341 -0.223923 5.34231 0
M  V30 3330 C 314.641 1.90871 4.86174 0
M  V30 3331 H 316.335 1.34822 2.67326 0
M  V30 3332 H 313.881 0.649728 1.28509 0
M  V30 3333 H 315.834 -0.570882 4.17515 0
M  V30 3334 H 314.558 -1.12877 3.06474 0
M  V30 3335 H 313.217 0.949929 3.54079 0
M  V30 3336 H 312.865 -1.11678 4.90446 0
M  V30 3337 H 312.565 0.35299 5.86539 0
M  V30 3338 H 314.089 -0.554214 6.0808 0
M  V30 3339 H 315.503 1.63997 5.49343 0
M  V30 3340 H 313.9 2.43112 5.4865 0
M  V30 3341 H 314.97 2.61304 4.08471 0
M  V30 3342 N 316.313 -1.40141 0.720998 0
M  V30 3343 C 317.538 -2.05618 0.271258 0
M  V30 3344 C 317.963 -1.53978 -1.08039 0
M  V30 3345 O 317.321 -0.677463 -1.68167 0
M  V30 3346 C 317.369 -3.59609 0.267197 0
M  V30 3347 O 316.473 -4.05526 -0.749814 0
M  V30 3348 H 315.814 -0.651904 0.126162 0
M  V30 3349 H 318.344 -1.79439 0.982997 0
M  V30 3350 H 318.354 -4.0786 0.106744 0
M  V30 3351 H 317.029 -3.96559 1.25354 0
M  V30 3352 H 315.606 -3.68722 -0.556644 0
M  V30 3353 N 317.792 -0.46758 -1.50504 0
M  V30 3354 C 318.702 0.33382 -2.32213 0
M  V30 3355 C 319.718 0.999323 -1.42441 0
M  V30 3356 O 320.894 0.988068 -1.75497 0
M  V30 3357 C 317.959 1.4035 -3.17022 0
M  V30 3358 C 317.02 0.754961 -4.2261 0
M  V30 3359 C 316.253 1.77367 -5.03365 0
M  V30 3360 O 316.476 2.99976 -4.8515 0
M  V30 3361 O 315.41 1.34744 -5.86624 0
M  V30 3362 H 319.236 -0.334067 -3.01857 0
M  V30 3363 H 316.821 -0.229496 -1.47627 0
M  V30 3364 H 318.703 2.02318 -3.69656 0
M  V30 3365 H 317.378 2.05492 -2.5011 0
M  V30 3366 H 316.285 0.0964244 -3.73976 0
M  V30 3367 H 317.618 0.146545 -4.91982 0
M  V30 3368 N 319.27 1.56325 -0.20005 0
M  V30 3369 C 320.202 2.16555 0.750771 0
M  V30 3370 C 321.215 1.12871 1.1732 0
M  V30 3371 O 322.404 1.39943 1.10807 0
M  V30 3372 C 319.504 2.71684 2.02586 0
M  V30 3373 C 318.677 4.00321 1.76244 0
M  V30 3374 C 317.736 4.40227 2.88248 0
M  V30 3375 O 316.762 5.07552 2.57642 0
M  V30 3376 N 317.964 4.04138 4.16717 0
M  V30 3377 H 320.729 2.98772 0.235685 0
M  V30 3378 H 318.29 1.6189 -0.0182594 0
M  V30 3379 H 320.282 2.95363 2.76664 0
M  V30 3380 H 318.852 1.93893 2.45202 0
M  V30 3381 H 318.072 3.84723 0.85919 0
M  V30 3382 H 319.36 4.84279 1.56048 0
M  V30 3383 H 318.758 3.49993 4.44434 0
M  V30 3384 H 317.315 4.32756 4.87407 0
M  V30 3385 N 320.748 -0.0735177 1.57428 0
M  V30 3386 C 321.995 -0.772999 1.87166 0
M  V30 3387 C 322.323 -1.77665 0.791551 0
M  V30 3388 O 321.578 -1.94541 -0.212636 0
M  V30 3389 C 321.877 -1.51799 3.23561 0
M  V30 3390 C 321.543 -0.654484 4.46125 0
M  V30 3391 C 320.205 -0.416511 4.79394 0
M  V30 3392 C 322.557 -0.0555862 5.2117 0
M  V30 3393 C 319.885 0.429869 5.85123 0
M  V30 3394 C 322.237 0.778239 6.27795 0
M  V30 3395 C 320.901 1.0261 6.59566 0
M  V30 3396 H 320.171 -0.282861 0.684888 0
M  V30 3397 H 322.818 -0.0338272 1.9147 0
M  V30 3398 H 321.123 -2.32932 3.1504 0
M  V30 3399 H 322.82 -2.06397 3.43804 0
M  V30 3400 H 319.41 -0.850091 4.20085 0
M  V30 3401 H 323.594 -0.226558 4.95783 0
M  V30 3402 H 318.85 0.630665 6.08139 0
M  V30 3403 H 323.024 1.24906 6.85107 0
M  V30 3404 H 320.651 1.68371 7.4132 0
M  V30 3405 N 322.226 -1.5378 -0.344866 0
M  V30 3406 C 323.189 -1.80981 -1.40637 0
M  V30 3407 C 324.189 -0.680816 -1.45676 0
M  V30 3408 O 325.379 -0.949095 -1.46075 0
M  V30 3409 C 322.511 -1.95063 -2.79577 0
M  V30 3410 H 323.704 -2.75803 -1.17783 0
M  V30 3411 H 321.257 -1.45173 -0.579181 0
M  V30 3412 H 321.992 -1.02379 -3.07716 0
M  V30 3413 H 321.777 -2.77198 -2.77315 0
M  V30 3414 H 323.267 -2.17629 -3.56409 0
M  V30 3415 N 323.704 0.605807 -1.45491 0
M  V30 3416 C 324.652 1.73754 -1.54636 0
M  V30 3417 C 325.646 1.64207 -0.416219 0
M  V30 3418 O 326.852 1.69979 -0.592199 0
M  V30 3419 H 323.227 0.574073 -0.485741 0
M  V30 3420 H 325.198 1.63169 -2.49837 0
M  V30 3421 C 323.947 3.12135 -1.53189 0
M  V30 3422 H 323.27 3.20141 -2.39478 0
M  V30 3423 H 324.71 3.91147 -1.63645 0
M  V30 3424 C 323.169 3.35921 -0.256616 0
M  V30 3425 O 323.699 3.96194 0.662798 0
M  V30 3426 N 321.905 2.90204 -0.151751 0
M  V30 3427 H 321.452 2.41336 -0.90081 0
M  V30 3428 H 321.41 3.06492 0.700699 0
M  V30 3429 N 325.182 1.32811 0.848464 0
M  V30 3430 C 326.428 1.23907 1.60546 0
M  V30 3431 C 326.761 -0.197161 1.93197 0
M  V30 3432 O 326.036 -1.13596 1.5788 0
M  V30 3433 C 326.319 2.10489 2.92175 0
M  V30 3434 C 326.172 3.62522 2.66266 0
M  V30 3435 C 327.491 1.97075 3.93509 0
M  V30 3436 H 324.61 0.451459 0.58254 0
M  V30 3437 H 327.252 1.62818 0.979296 0
M  V30 3438 H 325.402 1.77434 3.45614 0
M  V30 3439 H 327.074 4.05821 2.19334 0
M  V30 3440 H 325.317 3.84879 2.00126 0
M  V30 3441 H 325.988 4.18437 3.6002 0
M  V30 3442 H 328.464 2.26045 3.49346 0
M  V30 3443 H 327.34 2.59923 4.83457 0
M  V30 3444 H 327.601 0.940186 4.31987 0
M  V30 3445 N 326.66 -1.06551 1.16123 0
M  V30 3446 C 328.071 -1.60768 0.949232 0
M  V30 3447 C 328.422 -1.89523 -0.507508 0
M  V30 3448 O 327.547 -1.66671 -1.38021 0
M  V30 3449 C 328.142 -2.92086 1.71671 0
M  V30 3450 C 326.701 -3.43015 1.54977 0
M  V30 3451 C 325.848 -2.16947 1.72711 0
M  V30 3452 H 328.799 -0.895354 1.31031 0
M  V30 3453 H 328.82 -3.6138 1.19099 0
M  V30 3454 H 328.332 -2.71127 2.7769 0
M  V30 3455 H 326.433 -3.69039 0.513873 0
M  V30 3456 H 326.546 -4.18516 2.33198 0
M  V30 3457 H 324.91 -2.27041 1.15431 0
M  V30 3458 H 325.693 -1.98473 2.80113 0
M  V30 3459 N 328.138 -0.959301 -1.25041 0
M  V30 3460 C 329.554 -0.664474 -1.4511 0
M  V30 3461 C 329.754 0.776481 -1.85938 0
M  V30 3462 O 328.81 1.55128 -1.99227 0
M  V30 3463 C 330.123 -1.64139 -2.5195 0
M  V30 3464 C 331.671 -1.65309 -2.65786 0
M  V30 3465 C 332.146 -2.61777 -3.75815 0
M  V30 3466 N 333.637 -2.60169 -3.83231 0
M  V30 3467 C 334.372 -3.31489 -4.6787 0
M  V30 3468 N 333.868 -4.12298 -5.56761 0
M  V30 3469 N 335.661 -3.20354 -4.61876 0
M  V30 3470 H 327.812 -1.89043 -0.968332 0
M  V30 3471 H 330.075 -0.813408 -0.4869 0
M  V30 3472 H 329.781 -2.67086 -2.28819 0
M  V30 3473 H 329.655 -1.40756 -3.49954 0
M  V30 3474 H 332.042 -0.630778 -2.8828 0
M  V30 3475 H 332.123 -1.92753 -1.68167 0
M  V30 3476 H 331.767 -3.64137 -3.54071 0
M  V30 3477 H 331.697 -2.31616 -4.72929 0
M  V30 3478 H 334.188 -2.01507 -3.19692 0
M  V30 3479 H 334.501 -4.63625 -6.18281 0
M  V30 3480 H 332.846 -4.16395 -5.56454 0
M  V30 3481 H 336.037 -2.56692 -3.91442 0
M  V30 3482 H 336.21 -3.76201 -5.27614 0
M  V30 3483 N 329.616 1.39756 -0.72842 0
M  V30 3484 C 330.546 2.33289 -0.0991354 0
M  V30 3485 C 331.527 1.53568 0.731489 0
M  V30 3486 O 332.712 1.81987 0.677807 0
M  V30 3487 C 329.842 3.3763 0.813834 0
M  V30 3488 C 328.796 4.2791 0.0878663 0
M  V30 3489 C 328.122 5.22894 1.11741 0
M  V30 3490 C 329.422 5.11314 -1.06563 0
M  V30 3491 H 331.116 2.86163 -0.880408 0
M  V30 3492 H 328.662 1.37591 -0.424819 0
M  V30 3493 H 330.615 4.0201 1.26355 0
M  V30 3494 H 329.339 2.83181 1.62715 0
M  V30 3495 H 327.998 3.65 -0.342159 0
M  V30 3496 H 327.646 4.64744 1.92412 0
M  V30 3497 H 327.346 5.84143 0.636477 0
M  V30 3498 H 328.87 5.90151 1.56697 0
M  V30 3499 H 330.284 5.69076 -0.694671 0
M  V30 3500 H 328.681 5.81671 -1.47577 0
M  V30 3501 H 329.751 4.46534 -1.89038 0
M  V30 3502 N 331.094 0.475555 1.50254 0
M  V30 3503 C 332.026 -0.352649 2.26471 0
M  V30 3504 C 333.039 -0.953165 1.3198 0
M  V30 3505 O 334.228 -0.840815 1.57457 0
M  V30 3506 C 331.328 -1.50902 3.0345 0
M  V30 3507 C 330.501 -1.02047 4.25329 0
M  V30 3508 C 329.56 -2.05142 4.84565 0
M  V30 3509 O 328.586 -1.63023 5.45355 0
M  V30 3510 N 329.788 -3.37987 4.71959 0
M  V30 3511 H 332.553 0.300767 2.98187 0
M  V30 3512 H 330.114 0.306598 1.5897 0
M  V30 3513 H 332.106 -2.19572 3.39956 0
M  V30 3514 H 330.676 -2.06705 2.34504 0
M  V30 3515 H 329.896 -0.159507 3.93877 0
M  V30 3516 H 331.184 -0.672061 5.04342 0
M  V30 3517 H 330.582 -3.74913 4.23623 0
M  V30 3518 H 329.139 -4.02443 5.12721 0
M  V30 3519 N 332.573 -1.56217 0.208337 0
M  V30 3520 C 333.798 -2.02782 -0.435222 0
M  V30 3521 C 334.223 -1.08738 -1.53485 0
M  V30 3522 O 333.581 -0.0731855 -1.81152 0
M  V30 3523 C 333.629 -3.47687 -0.956335 0
M  V30 3524 O 332.733 -3.56773 -2.06849 0
M  V30 3525 H 332.074 -0.656403 -0.100158 0
M  V30 3526 H 334.604 -2.02033 0.3231 0
M  V30 3527 H 334.614 -3.87745 -1.26955 0
M  V30 3528 H 333.289 -4.15624 -0.15143 0
M  V30 3529 H 331.866 -3.28597 -1.76292 0
M  V30 3530 N 334.051 0.0651679 -1.57465 0
M  V30 3531 C 335.467 0.420105 -1.53972 0
M  V30 3532 C 335.667 1.78782 -0.929474 0
M  V30 3533 O 334.723 2.46771 -0.534839 0
M  V30 3534 C 336.036 0.355084 -2.98596 0
M  V30 3535 C 337.584 0.434792 -3.09965 0
M  V30 3536 C 338.059 0.399609 -4.56253 0
M  V30 3537 N 339.55 0.459488 -4.60915 0
M  V30 3538 C 340.285 0.454584 -5.71595 0
M  V30 3539 N 339.781 0.404102 -6.9162 0
M  V30 3540 N 341.574 0.501635 -5.59857 0
M  V30 3541 H 333.725 -0.830328 -1.95498 0
M  V30 3542 H 335.988 -0.312244 -0.895102 0
M  V30 3543 H 335.694 -0.583357 -3.46828 0
M  V30 3544 H 335.568 1.16275 -3.58831 0
M  V30 3545 H 337.955 1.36366 -2.61703 0
M  V30 3546 H 338.036 -0.40157 -2.52628 0
M  V30 3547 H 337.68 -0.525436 -5.05175 0
M  V30 3548 H 337.61 1.25359 -5.11461 0
M  V30 3549 H 340.101 0.502482 -3.74544 0
M  V30 3550 H 340.414 0.404468 -7.71741 0
M  V30 3551 H 338.759 0.37069 -6.94011 0
M  V30 3552 H 341.95 0.538812 -4.64989 0
M  V30 3553 H 342.123 0.494345 -6.46112 0
M  V30 3554 N 335.529 1.53961 0.336706 0
M  V30 3555 C 336.806 1.62171 1.09361 0
M  V30 3556 C 337.186 0.447263 2.06307 0
M  V30 3557 O 336.534 -0.559802 2.21537 0
M  V30 3558 C 336.744 2.98565 1.80721 0
M  V30 3559 C 338.092 3.54157 2.34218 0
M  V30 3560 O 339.116 3.00784 1.90807 0
M  V30 3561 O 337.975 4.47528 3.13657 0
M  V30 3562 H 335.069 0.6562 0.503319 0
M  V30 3563 H 337.615 1.66307 0.33765 0
M  V30 3564 H 336.387 3.75482 1.10132 0
M  V30 3565 H 336.01 2.9805 2.63158 0
M  V30 3566 N 337.007 -0.598083 1.45811 0
M  V30 3567 C 337.939 -1.72231 1.51225 0
M  V30 3568 C 338.952 -1.57757 0.402059 0
M  V30 3569 O 340.141 -1.65464 0.669624 0
M  V30 3570 C 337.241 -3.10331 1.3619 0
M  V30 3571 C 336.414 -3.50955 2.61054 0
M  V30 3572 C 335.473 -4.68055 2.40439 0
M  V30 3573 O 334.499 -4.74691 3.14097 0
M  V30 3574 N 335.701 -5.61941 1.45612 0
M  V30 3575 H 338.466 -1.68046 2.48154 0
M  V30 3576 H 336.027 -0.783637 1.41671 0
M  V30 3577 H 338.019 -3.86439 1.20195 0
M  V30 3578 H 336.589 -3.0897 0.475015 0
M  V30 3579 H 335.809 -2.64711 2.92099 0
M  V30 3580 H 337.097 -3.74858 3.44034 0
M  V30 3581 H 336.495 -5.59301 0.848431 0
M  V30 3582 H 335.052 -6.37542 1.35585 0
M  V30 3583 N 338.485 -1.33259 -0.841409 0
M  V30 3584 C 339.734 -1.23921 -1.59143 0
M  V30 3585 C 340.047 0.1941 -1.94635 0
M  V30 3586 O 341.253 0.409474 -2.68394 0
M  V30 3587 C 339.709 -2.17119 -2.87032 0
M  V30 3588 C 339.317 -3.65606 -2.58914 0
M  V30 3589 C 341.061 -2.16648 -3.65053 0
M  V30 3590 C 338.968 -4.50726 -3.82884 0
M  V30 3591 H 337.898 -0.460264 -0.597221 0
M  V30 3592 H 340.549 -1.58307 -0.927959 0
M  V30 3593 H 338.931 -1.75663 -3.54906 0
M  V30 3594 H 340.105 -4.15487 -1.99267 0
M  V30 3595 H 338.42 -3.68341 -1.942 0
M  V30 3596 H 341.017 -2.77474 -4.57069 0
M  V30 3597 H 341.36 -1.16088 -3.99787 0
M  V30 3598 H 341.893 -2.56453 -3.041 0
M  V30 3599 H 338.632 -5.52151 -3.53283 0
M  V30 3600 H 338.152 -4.0559 -4.41879 0
M  V30 3601 H 339.831 -4.64401 -4.50489 0
M  V30 3602 N 339.963 1.05934 -1.16686 0
M  V30 3603 C 341.191 1.8249 -0.974929 0
M  V30 3604 C 341.606 1.82679 0.476861 0
M  V30 3605 O 340.963 1.2486 1.33103 0
M  V30 3606 C 341.014 3.28943 -1.49929 0
M  V30 3607 O 340.735 3.28886 -2.89423 0
M  V30 3608 C 342.236 4.22215 -1.35089 0
M  V30 3609 H 339.456 0.575295 -0.345365 0
M  V30 3610 H 342 1.33631 -1.548 0
M  V30 3611 H 340.155 3.751 -0.968423 0
M  V30 3612 H 340.569 4.20493 -3.13506 0
M  V30 3613 H 342.043 5.22987 -1.76603 0
M  V30 3614 H 342.52 4.38195 -0.296935 0
M  V30 3615 H 343.126 3.81907 -1.87155 0
M  V30 3616 N 341.441 0.965919 1.2453 0
M  V30 3617 C 342.371 0.513476 2.27784 0
M  V30 3618 C 343.352 -0.445974 1.6415 0
M  V30 3619 O 344.537 -0.342485 1.91156 0
M  V30 3620 C 341.667 -0.198839 3.4673 0
M  V30 3621 C 340.621 0.676456 4.2262 0
M  V30 3622 C 339.947 -0.167248 5.34438 0
M  V30 3623 C 341.247 1.96017 4.84123 0
M  V30 3624 H 342.941 1.3765 2.65881 0
M  V30 3625 H 340.487 0.663321 1.27813 0
M  V30 3626 H 342.44 -0.526567 4.18097 0
M  V30 3627 H 341.164 -1.0962 3.07654 0
M  V30 3628 H 339.823 0.98743 3.53052 0
M  V30 3629 H 339.471 -1.0647 4.91603 0
M  V30 3630 H 339.171 0.415181 5.86131 0
M  V30 3631 H 340.695 -0.489688 6.08633 0
M  V30 3632 H 342.109 1.69814 5.47573 0
M  V30 3633 H 340.506 2.48918 5.4604 0
M  V30 3634 H 341.576 2.65622 4.05676 0
M  V30 3635 N 342.919 -1.39368 0.735821 0
M  V30 3636 C 344.335 -1.54204 0.411492 0
M  V30 3637 C 344.535 -1.70268 -1.07755 0
M  V30 3638 O 343.591 -1.70364 -1.86366 0
M  V30 3639 C 344.904 -2.75925 1.19523 0
M  V30 3640 C 346.452 -2.89761 1.18354 0
M  V30 3641 C 346.927 -4.14421 1.94986 0
M  V30 3642 N 348.418 -4.21462 1.92156 0
M  V30 3643 C 349.153 -5.16871 2.48258 0
M  V30 3644 N 348.649 -6.18063 3.13001 0
M  V30 3645 N 350.442 -5.09093 2.38287 0
M  V30 3646 H 342.593 -1.27189 1.70108 0
M  V30 3647 H 344.856 -0.616517 0.720147 0
M  V30 3648 H 344.562 -2.70401 2.24892 0
M  V30 3649 H 344.436 -3.68614 0.800222 0
M  V30 3650 H 346.823 -2.94777 0.137975 0
M  V30 3651 H 346.904 -1.98133 1.61793 0
M  V30 3652 H 346.548 -4.10166 2.99543 0
M  V30 3653 H 346.478 -5.05095 1.48953 0
M  V30 3654 H 348.969 -3.48979 1.44991 0
M  V30 3655 H 349.282 -6.87326 3.53275 0
M  V30 3656 H 347.627 -6.18448 3.17091 0
M  V30 3657 H 350.818 -4.28973 1.8735 0
M  V30 3658 H 350.991 -5.83272 2.82308 0
M  V30 3659 N 344.397 -0.483516 -1.5 0
M  V30 3660 C 345.307 0.309172 -2.32554 0
M  V30 3661 C 346.323 0.984159 -1.43493 0
M  V30 3662 O 347.499 0.969399 -1.76535 0
M  V30 3663 C 344.564 1.36979 -3.18493 0
M  V30 3664 C 343.625 0.710095 -4.23387 0
M  V30 3665 C 342.858 1.72018 -5.05218 0
M  V30 3666 O 343.081 2.94813 -4.88305 0
M  V30 3667 O 342.015 1.28515 -5.8802 0
M  V30 3668 H 345.841 -0.366064 -3.01486 0
M  V30 3669 H 343.426 -0.24514 -1.47375 0
M  V30 3670 H 345.308 1.98385 -3.71781 0
M  V30 3671 H 343.983 2.02828 -2.52275 0
M  V30 3672 H 342.89 0.0567539 -3.74057 0
M  V30 3673 H 344.223 0.0943557 -4.9211 0
M  V30 3674 N 345.875 1.56104 -0.216619 0
M  V30 3675 C 346.785 2.23694 0.706982 0
M  V30 3676 C 347.801 1.24295 1.21765 0
M  V30 3677 O 348.977 1.57094 1.2603 0
M  V30 3678 C 346.042 2.8998 1.90033 0
M  V30 3679 C 345.103 4.04708 1.43213 0
M  V30 3680 C 344.336 4.67824 2.56859 0
M  V30 3681 O 344.559 4.29913 3.74874 0
M  V30 3682 O 343.493 5.56905 2.28343 0
M  V30 3683 H 347.319 3.03272 0.161235 0
M  V30 3684 H 344.904 1.49394 0.0136177 0
M  V30 3685 H 346.786 3.31837 2.59735 0
M  V30 3686 H 345.461 2.13365 2.43428 0
M  V30 3687 H 344.368 3.6743 0.70327 0
M  V30 3688 H 345.701 4.83051 0.944615 0
M  V30 3689 N 347.353 -0.0568162 1.57498 0
M  V30 3690 C 348.63 -0.786954 1.79071 0
M  V30 3691 C 349.01 -1.95028 0.80792 0
M  V30 3692 O 348.358 -2.27968 -0.155858 0
M  V30 3693 C 348.568 -1.24594 3.26002 0
M  V30 3694 C 349.916 -1.67323 3.90241 0
M  V30 3695 O 350.94 -1.34124 3.29984 0
M  V30 3696 O 349.799 -2.28842 4.9628 0
M  V30 3697 H 346.893 -0.378262 0.735423 0
M  V30 3698 H 349.439 -0.035734 1.69662 0
M  V30 3699 H 348.211 -0.41423 3.89101 0
M  V30 3700 H 347.834 -2.05803 3.40192 0
M  V30 3701 N 348.832 -1.54138 -0.328536 0
M  V30 3702 C 349.779 -1.83176 -1.40411 0
M  V30 3703 C 350.749 -0.678494 -1.5161 0
M  V30 3704 O 351.934 -0.92443 -1.6691 0
M  V30 3705 C 349.074 -2.06035 -2.76846 0
M  V30 3706 C 348.187 -3.33727 -2.74318 0
M  V30 3707 C 347.322 -3.46574 -4.02567 0
M  V30 3708 C 346.361 -4.68159 -3.94327 0
M  V30 3709 N 345.498 -4.77959 -5.14296 0
M  V30 3710 H 350.338 -2.74938 -1.14948 0
M  V30 3711 H 347.875 -1.36166 -0.556538 0
M  V30 3712 H 349.833 -2.1728 -3.56153 0
M  V30 3713 H 348.463 -1.1757 -3.00628 0
M  V30 3714 H 347.515 -3.31246 -1.8703 0
M  V30 3715 H 348.827 -4.23139 -2.64111 0
M  V30 3716 H 347.981 -3.57333 -4.90304 0
M  V30 3717 H 346.72 -2.55245 -4.15574 0
M  V30 3718 H 345.725 -4.57461 -3.04974 0
M  V30 3719 H 346.95 -5.60868 -3.82889 0
M  V30 3720 H 344.896 -3.89544 -5.27818 0
M  V30 3721 H 344.813 -5.6133 -5.06404 0
M  V30 3722 H 346.081 -4.93044 -6.03761 0
M  V30 3723 N 350.31 0.590341 -1.46126 0
M  V30 3724 C 351.556 1.35082 -1.51264 0
M  V30 3725 C 351.889 1.93534 -0.160711 0
M  V30 3726 O 351.164 1.76045 0.826956 0
M  V30 3727 C 351.447 2.48588 -2.6053 0
M  V30 3728 C 351.3 1.95221 -4.05227 0
M  V30 3729 C 352.619 3.50662 -2.6594 0
M  V30 3730 H 349.738 0.489803 -0.550692 0
M  V30 3731 H 352.38 0.663887 -1.78024 0
M  V30 3732 H 350.53 3.07186 -2.37843 0
M  V30 3733 H 352.202 1.41139 -4.39178 0
M  V30 3734 H 350.445 1.26101 -4.15068 0
M  V30 3735 H 351.116 2.77121 -4.77397 0
M  V30 3736 H 353.592 3.01934 -2.86313 0
M  V30 3737 H 352.468 4.27551 -3.44226 0
M  V30 3738 H 352.729 4.07399 -1.71694 0
M  V30 3739 N 351.788 1.33704 0.83433 0
M  V30 3740 C 353.013 1.28615 1.62705 0
M  V30 3741 C 353.438 -0.139242 1.87584 0
M  V30 3742 O 352.796 -1.09734 1.4432 0
M  V30 3743 C 352.844 2.07139 2.95171 0
M  V30 3744 O 351.948 1.4331 3.86699 0
M  V30 3745 H 351.289 0.44226 0.49528 0
M  V30 3746 H 353.819 1.76335 1.03766 0
M  V30 3747 H 353.829 2.18073 3.44831 0
M  V30 3748 H 352.504 3.10779 2.76386 0
M  V30 3749 H 351.081 1.4105 3.45195 0
M  V30 3750 N 353.266 -1.05314 1.17247 0
M  V30 3751 C 354.229 -2.112 0.890357 0
M  V30 3752 C 355.229 -1.60359 -0.118943 0
M  V30 3753 O 356.419 -1.73833 0.113086 0
M  V30 3754 C 353.551 -3.39266 0.333422 0
M  V30 3755 H 354.744 -2.37659 1.82916 0
M  V30 3756 H 352.297 -1.21538 0.982758 0
M  V30 3757 H 353.032 -3.18462 -0.612587 0
M  V30 3758 H 352.817 -3.77477 1.06082 0
M  V30 3759 H 354.307 -4.17315 0.154322 0
M  V30 3760 N 354.744 -0.972509 -1.24016 0
M  V30 3761 C 355.974 -0.653853 -1.9598 0
M  V30 3762 C 356.382 0.781801 -1.72292 0
M  V30 3763 O 355.725 1.53677 -1.00644 0
M  V30 3764 C 355.787 -0.854608 -3.49194 0
M  V30 3765 C 355.451 -2.27082 -3.96589 0
M  V30 3766 C 356.448 -3.24892 -4.05883 0
M  V30 3767 C 354.133 -2.5998 -4.29786 0
M  V30 3768 C 356.127 -4.53684 -4.47716 0
M  V30 3769 C 353.814 -3.88997 -4.71301 0
M  V30 3770 C 354.812 -4.85661 -4.80232 0
M  V30 3771 O 354.5 -6.12376 -5.20818 0
M  V30 3772 H 354.232 -0.242572 -0.630979 0
M  V30 3773 H 356.786 -1.30431 -1.58673 0
M  V30 3774 H 355.016 -0.146985 -3.86421 0
M  V30 3775 H 356.705 -0.534311 -4.02368 0
M  V30 3776 H 357.471 -3.00805 -3.80449 0
M  V30 3777 H 353.35 -1.85457 -4.22051 0
M  V30 3778 H 356.894 -5.29135 -4.54601 0
M  V30 3779 H 352.791 -4.12882 -4.96184 0
M  V30 3780 H 353.559 -6.16013 -5.38953 0
M  V30 3781 N 356.222 1.38976 -0.743202 0
M  V30 3782 C 357.452 2.04339 -0.304807 0
M  V30 3783 C 357.86 1.56162 1.06819 0
M  V30 3784 O 357.203 0.725284 1.68776 0
M  V30 3785 C 357.265 3.58716 -0.237369 0
M  V30 3786 C 356.929 4.29905 -1.55018 0
M  V30 3787 C 357.926 4.55987 -2.49744 0
M  V30 3788 C 355.611 4.68294 -1.81675 0
M  V30 3789 C 357.605 5.19478 -3.69353 0
M  V30 3790 C 355.292 5.31512 -3.0156 0
M  V30 3791 C 356.29 5.57037 -3.9522 0
M  V30 3792 O 355.978 6.18941 -5.12998 0
M  V30 3793 H 355.71 0.663439 -0.12971 0
M  V30 3794 H 358.264 1.78852 -1.01001 0
M  V30 3795 H 356.494 3.83133 0.524003 0
M  V30 3796 H 358.183 4.05543 0.170121 0
M  V30 3797 H 358.949 4.26767 -2.30423 0
M  V30 3798 H 354.828 4.47779 -1.09615 0
M  V30 3799 H 358.372 5.39318 -4.42473 0
M  V30 3800 H 354.269 5.60153 -3.20778 0
M  V30 3801 H 355.037 6.37433 -5.13441 0
M  V30 3802 N 357.7 0.491464 1.49741 0
M  V30 3803 C 358.663 -0.280906 2.27472 0
M  V30 3804 C 359.663 -0.902454 1.33088 0
M  V30 3805 O 360.853 -0.768465 1.56334 0
M  V30 3806 C 357.985 -1.40209 3.10732 0
M  V30 3807 H 359.178 0.401056 2.97206 0
M  V30 3808 H 356.731 0.246131 1.5435 0
M  V30 3809 H 357.466 -2.11849 2.45541 0
M  V30 3810 H 357.251 -0.961969 3.80117 0
M  V30 3811 H 358.741 -1.9464 3.69466 0
M  V30 3812 N 359.178 -1.55987 0.224894 0
M  V30 3813 C 360.426 -1.97998 -0.405099 0
M  V30 3814 C 360.747 -1.11387 -1.60056 0
M  V30 3815 O 360.017 -0.191645 -1.9496 0
M  V30 3816 H 358.597 -0.731235 -0.152658 0
M  V30 3817 H 361.259 -1.92279 0.318567 0
M  V30 3818 H 360.355 -3.03463 -0.729167 0
M  V30 3819 N 360.656 0.0484629 -1.57525 0
M  V30 3820 C 361.904 0.741657 -1.88 0
M  V30 3821 C 362.225 1.76918 -0.820054 0
M  V30 3822 O 361.495 1.95335 0.148661 0
M  V30 3823 H 360.075 0.276908 -0.69378 0
M  V30 3824 H 362.737 0.019013 -1.94891 0
M  V30 3825 H 361.833 1.24336 -2.86264 0
M  V30 3826 N 362.134 1.5431 0.320358 0
M  V30 3827 C 363.064 1.86912 1.3995 0
M  V30 3828 C 364.045 0.726211 1.53819 0
M  V30 3829 O 365.23 0.980233 1.67646 0
M  V30 3830 C 362.36 2.09932 2.7667 0
M  V30 3831 C 361.314 3.25776 2.77586 0
M  V30 3832 C 360.64 3.34173 4.17412 0
M  V30 3833 C 361.94 4.6335 2.41048 0
M  V30 3834 H 363.634 2.77292 1.12914 0
M  V30 3835 H 361.18 1.33421 0.541738 0
M  V30 3836 H 363.133 2.31324 3.52232 0
M  V30 3837 H 361.857 1.16304 3.0519 0
M  V30 3838 H 360.516 3.04276 2.04479 0
M  V30 3839 H 360.164 2.38098 4.43078 0
M  V30 3840 H 359.864 4.12033 4.18931 0
M  V30 3841 H 361.388 3.57803 4.94782 0
M  V30 3842 H 362.802 4.84602 3.06324 0
M  V30 3843 H 361.199 5.43782 2.53813 0
M  V30 3844 H 362.269 4.65381 1.36193 0
M  V30 3845 N 363.613 -0.582584 1.46437 0
M  V30 3846 C 364.543 -1.70187 1.59871 0
M  V30 3847 C 365.524 -1.64066 0.449042 0
M  V30 3848 O 366.709 -1.82081 0.6753 0
M  V30 3849 C 363.839 -3.08827 1.58881 0
M  V30 3850 C 362.793 -3.29779 2.72819 0
M  V30 3851 C 362.119 -4.68947 2.5689 0
M  V30 3852 C 363.419 -3.17601 4.1464 0
M  V30 3853 H 365.113 -1.592 2.53566 0
M  V30 3854 H 362.659 -0.764472 1.22032 0
M  V30 3855 H 364.612 -3.86951 1.66873 0
M  V30 3856 H 363.336 -3.20713 0.617306 0
M  V30 3857 H 361.995 -2.54054 2.64296 0
M  V30 3858 H 361.643 -4.77599 1.57823 0
M  V30 3859 H 361.343 -4.83919 3.33312 0
M  V30 3860 H 362.867 -5.4924 2.66773 0
M  V30 3861 H 364.281 -3.8557 4.24274 0
M  V30 3862 H 362.678 -3.44094 4.9165 0
M  V30 3863 H 363.748 -2.14681 4.34788 0
M  V30 3864 N 365.091 -1.34144 -0.827227 0
M  V30 3865 C 366.321 -1.29138 -1.61267 0
M  V30 3866 C 366.729 0.137597 -1.88699 0
M  V30 3867 O 366.072 1.09379 -1.47587 0
M  V30 3868 C 366.134 -2.0097 -2.9808 0
M  V30 3869 C 365.798 -3.50242 -2.93563 0
M  V30 3870 C 366.795 -4.4523 -2.68452 0
M  V30 3871 C 364.48 -3.92592 -3.13331 0
M  V30 3872 C 366.474 -5.80542 -2.63154 0
M  V30 3873 C 364.161 -5.28005 -3.07658 0
M  V30 3874 C 365.159 -6.21792 -2.82602 0
M  V30 3875 O 364.847 -7.54723 -2.76853 0
M  V30 3876 H 364.579 -0.445851 -0.508127 0
M  V30 3877 H 367.133 -1.77263 -1.03763 0
M  V30 3878 H 365.363 -1.47451 -3.57484 0
M  V30 3879 H 367.052 -1.89309 -3.5905 0
M  V30 3880 H 367.818 -4.13832 -2.52919 0
M  V30 3881 H 363.697 -3.19994 -3.31851 0
M  V30 3882 H 367.241 -6.53717 -2.43516 0
M  V30 3883 H 363.138 -5.59023 -3.22743 0
M  V30 3884 H 363.906 -7.64409 -2.92611 0
M  V30 3885 N 366.569 1.04691 -1.17803 0
M  V30 3886 C 367.532 2.10724 -0.901545 0
M  V30 3887 C 368.532 1.6042 0.110437 0
M  V30 3888 O 369.722 1.7377 -0.122303 0
M  V30 3889 C 366.854 3.39084 -0.351409 0
M  V30 3890 H 368.047 2.36686 -1.84174 0
M  V30 3891 H 365.6 1.21015 -0.98919 0
M  V30 3892 H 366.335 3.18782 0.59569 0
M  V30 3893 H 366.12 3.76909 -1.08083 0
M  V30 3894 H 367.61 4.17227 -0.176451 0
M  V30 3895 N 368.047 0.979072 1.23499 0
M  V30 3896 C 369.275 0.665202 1.95915 0
M  V30 3897 C 369.69 -0.767571 1.72493 0
M  V30 3898 O 369.047 -1.51635 1.01554 0
M  V30 3899 C 369.098 0.944438 3.48945 0
M  V30 3900 O 368.819 2.3209 3.71572 0
M  V30 3901 C 370.32 0.646336 4.38563 0
M  V30 3902 H 367.54 0.247218 0.623798 0
M  V30 3903 H 370.084 1.31009 1.57025 0
M  V30 3904 H 368.239 0.345575 3.85856 0
M  V30 3905 H 368.653 2.40957 4.65876 0
M  V30 3906 H 370.127 0.892091 5.44744 0
M  V30 3907 H 370.604 -0.419575 4.37191 0
M  V30 3908 H 371.21 1.22562 4.07258 0
M  V30 3909 N 369.525 -1.3858 0.750561 0
M  V30 3910 C 370.936 -1.82927 0.373438 0
M  V30 3911 C 371.287 -1.62634 -1.09748 0
M  V30 3912 O 370.412 -1.12588 -1.84805 0
M  V30 3913 C 371.007 -3.32088 0.671029 0
M  V30 3914 C 369.566 -3.74795 0.34722 0
M  V30 3915 C 368.713 -2.61391 0.92575 0
M  V30 3916 H 371.664 -1.27351 0.946958 0
M  V30 3917 H 371.685 -3.80465 -0.0518269 0
M  V30 3918 H 371.197 -3.46826 1.74164 0
M  V30 3919 H 369.298 -3.65638 -0.716933 0
M  V30 3920 H 369.411 -4.71667 0.840656 0
M  V30 3921 H 367.775 -2.52265 0.351327 0
M  V30 3922 H 368.558 -2.78929 2.00133 0
M  V30 3923 N 371.003 -0.499398 -1.49478 0
M  V30 3924 C 371.913 0.284489 -2.32869 0
M  V30 3925 C 372.929 0.968885 -1.44529 0
M  V30 3926 O 374.105 0.95062 -1.77553 0
M  V30 3927 C 371.17 1.33594 -3.19928 0
M  V30 3928 C 370.231 0.665149 -4.24116 0
M  V30 3929 C 369.464 1.6665 -5.07014 0
M  V30 3930 O 369.687 2.89618 -4.91404 0
M  V30 3931 O 368.621 1.22271 -5.8935 0
M  V30 3932 H 372.447 -0.39802 -3.01081 0
M  V30 3933 H 370.032 -0.260758 -1.47107 0
M  V30 3934 H 371.914 1.94431 -3.73864 0
M  V30 3935 H 370.589 2.0014 -2.54412 0
M  V30 3936 H 369.496 0.0170769 -3.74096 0
M  V30 3937 H 370.829 0.0421555 -4.92182 0
M  V30 3938 N 372.481 1.55866 -0.233164 0
M  V30 3939 C 373.897 1.59133 0.121988 0
M  V30 3940 C 374.097 1.25016 1.58029 0
M  V30 3941 O 373.153 0.990922 2.32243 0
M  V30 3942 C 374.466 2.99932 -0.214792 0
M  V30 3943 C 376.014 3.12601 -0.157971 0
M  V30 3944 C 376.489 4.55597 -0.46859 0
M  V30 3945 N 377.98 4.61305 -0.418585 0
M  V30 3946 C 378.715 5.69903 -0.63227 0
M  V30 3947 N 378.211 6.86819 -0.90835 0
M  V30 3948 N 380.004 5.59264 -0.563913 0
M  V30 3949 H 372.155 1.76315 -1.18434 0
M  V30 3950 H 374.418 0.820093 -0.475553 0
M  V30 3951 H 374.124 3.29588 -1.22739 0
M  V30 3952 H 373.998 3.74327 0.464691 0
M  V30 3953 H 376.385 2.82735 0.845283 0
M  V30 3954 H 376.466 2.40511 -0.871102 0
M  V30 3955 H 376.11 4.86182 -1.46934 0
M  V30 3956 H 376.04 5.25928 0.265865 0
M  V30 3957 H 378.531 3.77297 -0.213368 0
M  V30 3958 H 378.844 7.65507 -1.05919 0
M  V30 3959 H 377.189 6.88536 -0.945673 0
M  V30 3960 H 380.38 4.66802 -0.348372 0
M  V30 3961 H 380.553 6.43831 -0.733847 0
M  V30 3962 N 373.959 -0.0401083 1.57549 0
M  V30 3963 C 374.922 -1.02871 2.04817 0
M  V30 3964 C 375.922 -1.29708 0.950388 0
M  V30 3965 O 377.112 -1.24897 1.21435 0
M  V30 3966 C 374.244 -2.36443 2.45576 0
M  V30 3967 H 375.437 -0.620631 2.93408 0
M  V30 3968 H 372.99 -0.286667 1.53649 0
M  V30 3969 H 373.725 -2.82021 1.60108 0
M  V30 3970 H 373.51 -2.18296 3.25713 0
M  V30 3971 H 375 -3.07441 2.82612 0
M  V30 3972 N 375.437 -1.54477 -0.31217 0
M  V30 3973 C 376.347 -1.87695 -1.4074 0
M  V30 3974 C 377.363 -0.769975 -1.56036 0
M  V30 3975 O 378.539 -1.06537 -1.70915 0
M  V30 3976 C 375.604 -2.10755 -2.75287 0
M  V30 3977 C 374.665 -3.34514 -2.69071 0
M  V30 3978 C 373.898 -3.56465 -3.97201 0
M  V30 3979 O 374.121 -2.81637 -4.96021 0
M  V30 3980 O 373.055 -4.49964 -3.9977 0
M  V30 3981 H 376.881 -2.80849 -1.15574 0
M  V30 3982 H 374.466 -1.40526 -0.507228 0
M  V30 3983 H 376.348 -2.27188 -3.54913 0
M  V30 3984 H 375.023 -1.20788 -3.0032 0
M  V30 3985 H 373.93 -3.23456 -1.87955 0
M  V30 3986 H 375.263 -4.24575 -2.48992 0
M  V30 3987 N 376.915 0.57481 -1.46744 0
M  V30 3988 C 378.14 1.36341 -1.56288 0
M  V30 3989 C 378.565 1.86954 -0.207347 0
M  V30 3990 O 377.923 1.62006 0.813871 0
M  V30 3991 C 377.971 2.52147 -2.57787 0
M  V30 3992 O 377.075 3.53834 -2.11838 0
M  V30 3993 H 376.416 0.405713 -0.525636 0
M  V30 3994 H 378.946 0.696453 -1.92382 0
M  V30 3995 H 378.956 2.98958 -2.77648 0
M  V30 3996 H 377.631 2.14663 -3.5622 0
M  V30 3997 H 376.208 3.1345 -2.01999 0
M  V30 3998 N 378.394 1.34581 0.820102 0
M  V30 3999 C 379.324 1.29038 1.94606 0
M  V30 4000 C 380.305 0.1673 1.69275 0
M  V30 4001 O 381.49 0.360112 1.90832 0
M  V30 4002 C 378.62 1.04793 3.31113 0
M  V30 4003 C 377.574 2.13597 3.70891 0
M  V30 4004 C 376.9 1.74537 5.05412 0
M  V30 4005 C 378.2 3.55451 3.8269 0
M  V30 4006 H 379.894 2.23248 1.99501 0
M  V30 4007 H 377.44 1.0747 0.958449 0
M  V30 4008 H 379.393 0.995592 4.0947 0
M  V30 4009 H 378.117 0.0702565 3.26524 0
M  V30 4010 H 376.776 2.17905 2.9481 0
M  V30 4011 H 376.424 0.754226 4.97313 0
M  V30 4012 H 376.124 2.47361 5.32997 0
M  V30 4013 H 377.648 1.70803 5.86224 0
M  V30 4014 H 379.062 3.5354 4.51312 0
M  V30 4015 H 377.459 4.26922 4.21732 0
M  V30 4016 H 378.529 3.92587 2.84611 0
M  V30 4017 N 379.872 -1.04064 1.18357 0
M  V30 4018 C 380.802 -2.14001 0.934113 0
M  V30 4019 C 381.783 -1.69616 -0.128186 0
M  V30 4020 O 382.968 -1.94185 0.0244093 0
M  V30 4021 C 380.098 -3.44253 0.459066 0
M  V30 4022 C 379.052 -4.02261 1.46185 0
M  V30 4023 C 378.378 -5.27992 0.844322 0
M  V30 4024 C 379.678 -4.38432 2.83856 0
M  V30 4025 H 381.372 -2.35127 1.85352 0
M  V30 4026 H 378.918 -1.12998 0.892604 0
M  V30 4027 H 380.871 -4.20522 0.271907 0
M  V30 4028 H 379.595 -3.22813 -0.495912 0
M  V30 4029 H 378.254 -3.28074 1.63595 0
M  V30 4030 H 377.902 -5.02862 -0.117845 0
M  V30 4031 H 377.602 -5.67765 1.51384 0
M  V30 4032 H 379.126 -6.06938 0.667693 0
M  V30 4033 H 380.54 -5.05688 2.70098 0
M  V30 4034 H 378.937 -4.89254 3.47491 0
M  V30 4035 H 380.007 -3.4826 3.37406 0
M  V30 4036 O 381.389 -1.11421 -1.16909 0
M  V30 4037 H 382.08 -0.820425 -1.75467 0
M  V30 END ATOM
M  V30 BEGIN BOND
M  V30 END BOND
M  V30 END CTAB
M  END
$$$$
