drugbank_target|P97253 Light-harvesting protein B-800/850 alpha chain (DB07646)
 OpenBabel12092120453D

881895  0  0  0  0  0  0  0  0999 V2000
   -0.9080    1.9825   -0.1171 H   0  0  0  0  0 15  0  0  0  0  0  0
    0.0000    1.5760    0.0000 N   0  0  0  0  0 15  0  0  0  0  0  0
    0.9330    2.0387    1.0253 C   0  0  0  0  0 15  0  0  0  0  0  0
    1.9110    0.9285    1.3348 C   0  0  0  0  0 15  0  0  0  0  0  0
    3.0950    1.1967    1.4564 O   0  0  0  0  0 15  0  0  0  0  0  0
    0.2220    2.4363    2.3529 C   0  0  0  0  0 15  0  0  0  0  0  0
   -0.7320    3.6537    2.2001 C   0  0  0  0  0 15  0  0  0  0  0  0
    0.1010    5.1329    1.5261 S   0  0  0  0  0 15  0  0  0  0  0  0
    1.2570    5.5632    2.8680 C   0  0  0  0  0 15  0  0  0  0  0  0
    1.4900    2.9052    0.6314 H   0  0  0  0  0 15  0  0  0  0  0  0
   -0.9770    1.5295    0.2109 H   0  0  0  0  0 15  0  0  0  0  0  0
    0.9810    2.6720    3.1163 H   0  0  0  0  0 15  0  0  0  0  0  0
   -0.3580    1.5738    2.7183 H   0  0  0  0  0 15  0  0  0  0  0  0
   -1.1650    3.9094    3.1809 H   0  0  0  0  0 15  0  0  0  0  0  0
   -1.5630    3.4180    1.5182 H   0  0  0  0  0 15  0  0  0  0  0  0
    0.7290    5.5878    3.8310 H   0  0  0  0  0 15  0  0  0  0  0  0
    1.6720    6.5627    2.6593 H   0  0  0  0  0 15  0  0  0  0  0  0
    2.0800    4.8389    2.9071 H   0  0  0  0  0 15  0  0  0  0  0  0
    1.4781   -0.2728    1.5522 N   0  0  0  0  0 15  0  0  0  0  0  0
    2.7031   -1.0268    1.8020 C   0  0  0  0  0 15  0  0  0  0  0  0
    3.1281   -1.7914    0.5736 C   0  0  0  0  0 15  0  0  0  0  0  0
    2.4861   -1.7492   -0.4768 O   0  0  0  0  0 15  0  0  0  0  0  0
    2.5341   -1.9609    3.0262 C   0  0  0  0  0 15  0  0  0  0  0  0
    1.6381   -3.0486    2.7773 O   0  0  0  0  0 15  0  0  0  0  0  0
    0.9791   -0.2936    0.5956 H   0  0  0  0  0 15  0  0  0  0  0  0
    3.5091   -0.3016    2.0237 H   0  0  0  0  0 15  0  0  0  0  0  0
    3.5191   -2.3804    3.3136 H   0  0  0  0  0 15  0  0  0  0  0  0
    2.1941   -1.3985    3.9168 H   0  0  0  0  0 15  0  0  0  0  0  0
    0.7711   -2.6723    2.6008 H   0  0  0  0  0 15  0  0  0  0  0  0
    2.9562   -1.4816   -0.5373 N   0  0  0  0  0 15  0  0  0  0  0  0
    3.9042   -1.6257   -1.6635 C   0  0  0  0  0 15  0  0  0  0  0  0
    4.8982   -0.4924   -1.6209 C   0  0  0  0  0 15  0  0  0  0  0  0
    6.1042   -0.6708   -1.6703 O   0  0  0  0  0 15  0  0  0  0  0  0
    2.4792   -0.5120   -0.5508 H   0  0  0  0  0 15  0  0  0  0  0  0
    4.4502   -2.5718   -1.5134 H   0  0  0  0  0 15  0  0  0  0  0  0
    3.1992   -1.6758   -3.0465 C   0  0  0  0  0 15  0  0  0  0  0  0
    2.5222   -2.5415   -3.0862 H   0  0  0  0  0 15  0  0  0  0  0  0
    3.9622   -1.8171   -3.8309 H   0  0  0  0  0 15  0  0  0  0  0  0
    2.4212   -0.4130   -3.3436 C   0  0  0  0  0 15  0  0  0  0  0  0
    2.9512    0.4773   -3.9885 O   0  0  0  0  0 15  0  0  0  0  0  0
    1.1572   -0.2870   -2.8918 N   0  0  0  0  0 15  0  0  0  0  0  0
    0.7042   -1.0124   -2.3687 H   0  0  0  0  0 15  0  0  0  0  0  0
    0.6622    0.5570   -3.0943 H   0  0  0  0  0 15  0  0  0  0  0  0
    4.4343    0.7856   -1.3662 N   0  0  0  0  0 15  0  0  0  0  0  0
    5.8453    1.3610   -1.2780 C   0  0  0  0  0 15  0  0  0  0  0  0
    6.1963    1.9603    0.0805 C   0  0  0  0  0 15  0  0  0  0  0  0
    5.3213    1.9283    0.9820 O   0  0  0  0  0 15  0  0  0  0  0  0
    5.9163    2.4744   -2.3143 C   0  0  0  0  0 15  0  0  0  0  0  0
    4.4753    3.0079   -2.2628 C   0  0  0  0  0 15  0  0  0  0  0  0
    3.6223    1.7390   -2.1600 C   0  0  0  0  0 15  0  0  0  0  0  0
    6.5733    0.5869   -1.4745 H   0  0  0  0  0 15  0  0  0  0  0  0
    6.5943    3.2656   -1.9529 H   0  0  0  0  0 15  0  0  0  0  0  0
    6.1063    2.0379   -3.3029 H   0  0  0  0  0 15  0  0  0  0  0  0
    4.2073    3.4885   -1.3090 H   0  0  0  0  0 15  0  0  0  0  0  0
    4.3203    3.5734   -3.1913 H   0  0  0  0  0 15  0  0  0  0  0  0
    2.6843    1.9628   -1.6232 H   0  0  0  0  0 15  0  0  0  0  0  0
    3.4673    1.3237   -3.1675 H   0  0  0  0  0 15  0  0  0  0  0  0
    5.9124    1.2097    1.0102 N   0  0  0  0  0 15  0  0  0  0  0  0
    6.8594    0.9643    2.0969 C   0  0  0  0  0 15  0  0  0  0  0  0
    7.8294   -0.1079    1.6575 C   0  0  0  0  0 15  0  0  0  0  0  0
    9.0144    0.0382    1.9076 O   0  0  0  0  0 15  0  0  0  0  0  0
    6.1544    0.5294    3.4101 C   0  0  0  0  0 15  0  0  0  0  0  0
    5.2674    1.6704    3.9840 C   0  0  0  0  0 15  0  0  0  0  0  0
    4.4024    1.1853    5.1781 C   0  0  0  0  0 15  0  0  0  0  0  0
    3.4414    2.2989    5.6729 C   0  0  0  0  0 15  0  0  0  0  0  0
    2.5784    1.8255    6.7795 N   0  0  0  0  0 15  0  0  0  0  0  0
    7.4184    1.8946    2.3002 H   0  0  0  0  0 15  0  0  0  0  0  0
    4.9554    0.9443    1.1279 H   0  0  0  0  0 15  0  0  0  0  0  0
    6.9134    0.2586    4.1640 H   0  0  0  0  0 15  0  0  0  0  0  0
    5.5434   -0.3639    3.2074 H   0  0  0  0  0 15  0  0  0  0  0  0
    4.5954    2.0560    3.2005 H   0  0  0  0  0 15  0  0  0  0  0  0
    5.9074    2.5088    4.3112 H   0  0  0  0  0 15  0  0  0  0  0  0
    5.0614    0.8708    6.0042 H   0  0  0  0  0 15  0  0  0  0  0  0
    3.8004    0.3169    4.8667 H   0  0  0  0  0 15  0  0  0  0  0  0
    2.8054    2.6215    4.8328 H   0  0  0  0  0 15  0  0  0  0  0  0
    4.0304    3.1722    6.0046 H   0  0  0  0  0 15  0  0  0  0  0  0
    1.9764    0.9805    6.4863 H   0  0  0  0  0 15  0  0  0  0  0  0
    1.8934    2.5996    7.0990 H   0  0  0  0  0 15  0  0  0  0  0  0
    3.1614    1.5412    7.6411 H   0  0  0  0  0 15  0  0  0  0  0  0
    7.3905   -1.2043    1.0166 N   0  0  0  0  0 15  0  0  0  0  0  0
    8.6675   -1.8548    0.6210 C   0  0  0  0  0 15  0  0  0  0  0  0
    9.0475   -1.9091   -0.9009 C   0  0  0  0  0 15  0  0  0  0  0  0
    8.3955   -1.4169   -1.7926 O   0  0  0  0  0 15  0  0  0  0  0  0
    8.6055   -3.2512    1.2688 C   0  0  0  0  0 15  0  0  0  0  0  0
    9.9535   -4.0140    1.3842 C   0  0  0  0  0 15  0  0  0  0  0  0
   10.9775   -3.3447    1.2250 O   0  0  0  0  0 15  0  0  0  0  0  0
    9.8365   -5.2126    1.6415 O   0  0  0  0  0 15  0  0  0  0  0  0
    6.9305   -0.7988    0.2143 H   0  0  0  0  0 15  0  0  0  0  0  0
    9.4765   -1.2802    1.1140 H   0  0  0  0  0 15  0  0  0  0  0  0
    8.2485   -3.1593    2.3087 H   0  0  0  0  0 15  0  0  0  0  0  0
    7.8715   -3.9021    0.7629 H   0  0  0  0  0 15  0  0  0  0  0  0
    8.8686   -0.7928   -1.3621 N   0  0  0  0  0 15  0  0  0  0  0  0
   10.1456   -0.2906   -1.9343 C   0  0  0  0  0 15  0  0  0  0  0  0
   10.5256    1.2177   -1.7244 C   0  0  0  0  0 15  0  0  0  0  0  0
    9.8736    2.0108   -1.0853 O   0  0  0  0  0 15  0  0  0  0  0  0
   10.0836   -0.6870   -3.4217 C   0  0  0  0  0 15  0  0  0  0  0  0
   11.4316   -0.6686   -4.1930 C   0  0  0  0  0 15  0  0  0  0  0  0
   12.4556   -0.6277   -3.5063 O   0  0  0  0  0 15  0  0  0  0  0  0
   11.3146   -0.7146   -5.4181 O   0  0  0  0  0 15  0  0  0  0  0  0
    8.4086   -0.0728   -0.8238 H   0  0  0  0  0 15  0  0  0  0  0  0
   10.9546   -0.8756   -1.4537 H   0  0  0  0  0 15  0  0  0  0  0  0
    9.7266   -1.7271   -3.5112 H   0  0  0  0  0 15  0  0  0  0  0  0
    9.3496   -0.0761   -3.9753 H   0  0  0  0  0 15  0  0  0  0  0  0
   10.3467    1.4787   -0.5451 N   0  0  0  0  0 15  0  0  0  0  0  0
   11.5767    2.0659   -0.0211 C   0  0  0  0  0 15  0  0  0  0  0  0
   11.9847    1.4000    1.2727 C   0  0  0  0  0 15  0  0  0  0  0  0
   11.3277    0.4864    1.7714 O   0  0  0  0  0 15  0  0  0  0  0  0
   11.3897    3.5857    0.2579 C   0  0  0  0  0 15  0  0  0  0  0  0
   11.0537    4.4713   -0.9446 C   0  0  0  0  0 15  0  0  0  0  0  0
   12.0507    4.8599   -1.8470 C   0  0  0  0  0 15  0  0  0  0  0  0
    9.7357    4.8882   -1.1558 C   0  0  0  0  0 15  0  0  0  0  0  0
   11.7297    5.6531   -2.9445 C   0  0  0  0  0 15  0  0  0  0  0  0
    9.4167    5.6792   -2.2564 C   0  0  0  0  0 15  0  0  0  0  0  0
   10.4147    6.0607   -3.1490 C   0  0  0  0  0 15  0  0  0  0  0  0
   10.1027    6.8358   -4.2306 O   0  0  0  0  0 15  0  0  0  0  0  0
    9.8347    0.6750   -0.0373 H   0  0  0  0  0 15  0  0  0  0  0  0
   12.3887    1.9104   -0.7546 H   0  0  0  0  0 15  0  0  0  0  0  0
   10.6187    3.7229    1.0456 H   0  0  0  0  0 15  0  0  0  0  0  0
   12.3077    3.9936    0.7259 H   0  0  0  0  0 15  0  0  0  0  0  0
   13.0737    4.5439   -1.6958 H   0  0  0  0  0 15  0  0  0  0  0  0
    8.9527    4.5860   -0.4703 H   0  0  0  0  0 15  0  0  0  0  0  0
   12.4967    5.9502   -3.6415 H   0  0  0  0  0 15  0  0  0  0  0  0
    8.3937    5.9893   -2.4074 H   0  0  0  0  0 15  0  0  0  0  0  0
    9.1617    7.0195   -4.2095 H   0  0  0  0  0 15  0  0  0  0  0  0
   11.8248    0.2810    1.5507 N   0  0  0  0  0 15  0  0  0  0  0  0
   12.7718   -0.6039    2.2276 C   0  0  0  0  0 15  0  0  0  0  0  0
   13.7418   -1.1452    1.2031 C   0  0  0  0  0 15  0  0  0  0  0  0
   14.9268   -1.1934    1.4887 O   0  0  0  0  0 15  0  0  0  0  0  0
   12.0668   -1.7795    2.9568 C   0  0  0  0  0 15  0  0  0  0  0  0
   11.1798   -1.2715    4.1286 C   0  0  0  0  0 15  0  0  0  0  0  0
   10.3148   -2.4093    4.7342 C   0  0  0  0  0 15  0  0  0  0  0  0
    9.3538   -1.8717    5.8278 C   0  0  0  0  0 15  0  0  0  0  0  0
    8.4908   -2.9444    6.3738 N   0  0  0  0  0 15  0  0  0  0  0  0
   13.3308   -0.0201    2.9799 H   0  0  0  0  0 15  0  0  0  0  0  0
   10.8678    0.0018    1.4710 H   0  0  0  0  0 15  0  0  0  0  0  0
   12.8258   -2.4705    3.3618 H   0  0  0  0  0 15  0  0  0  0  0  0
   11.4558   -2.3352    2.2286 H   0  0  0  0  0 15  0  0  0  0  0  0
   10.5078   -0.4733    3.7744 H   0  0  0  0  0 15  0  0  0  0  0  0
   11.8198   -0.8378    4.9171 H   0  0  0  0  0 15  0  0  0  0  0  0
   10.9738   -3.1802    5.1667 H   0  0  0  0  0 15  0  0  0  0  0  0
    9.7128   -2.8762    3.9386 H   0  0  0  0  0 15  0  0  0  0  0  0
    8.7178   -1.0856    5.3898 H   0  0  0  0  0 15  0  0  0  0  0  0
    9.9428   -1.4140    6.6422 H   0  0  0  0  0 15  0  0  0  0  0  0
    7.8888   -3.4050    5.6071 H   0  0  0  0  0 15  0  0  0  0  0  0
    7.8058   -2.5550    7.1152 H   0  0  0  0  0 15  0  0  0  0  0  0
    9.0738   -3.7149    6.8529 H   0  0  0  0  0 15  0  0  0  0  0  0
   13.3029   -1.5760    0.0084 N   0  0  0  0  0 15  0  0  0  0  0  0
   14.5519   -1.9011   -0.6740 C   0  0  0  0  0 15  0  0  0  0  0  0
   14.8649   -0.8843   -1.7447 C   0  0  0  0  0 15  0  0  0  0  0  0
   16.0709   -1.0999   -2.4822 O   0  0  0  0  0 15  0  0  0  0  0  0
   14.5269   -3.3750   -1.2500 C   0  0  0  0  0 15  0  0  0  0  0  0
   14.1349   -4.4749   -0.2136 C   0  0  0  0  0 15  0  0  0  0  0  0
   15.8789   -3.7910   -1.9100 C   0  0  0  0  0 15  0  0  0  0  0  0
   13.7859   -5.8596   -0.8000 C   0  0  0  0  0 15  0  0  0  0  0  0
   12.7159   -0.7094   -0.2555 H   0  0  0  0  0 15  0  0  0  0  0  0
   15.3669   -1.8337    0.0703 H   0  0  0  0  0 15  0  0  0  0  0  0
   13.7489   -3.3910   -2.0451 H   0  0  0  0  0 15  0  0  0  0  0  0
   14.9229   -4.5741    0.5576 H   0  0  0  0  0 15  0  0  0  0  0  0
   13.2379   -4.1496    0.3465 H   0  0  0  0  0 15  0  0  0  0  0  0
   15.8349   -4.7990   -2.3580 H   0  0  0  0  0 15  0  0  0  0  0  0
   16.1779   -3.1306   -2.7441 H   0  0  0  0  0 15  0  0  0  0  0  0
   16.7109   -3.7983   -1.1820 H   0  0  0  0  0 15  0  0  0  0  0  0
   13.4499   -6.5550   -0.0046 H   0  0  0  0  0 15  0  0  0  0  0  0
   12.9699   -5.7969   -1.5402 H   0  0  0  0  0 15  0  0  0  0  0  0
   14.6489   -6.3388   -1.2961 H   0  0  0  0  0 15  0  0  0  0  0  0
   14.7810    0.2645   -1.5536 N   0  0  0  0  0 15  0  0  0  0  0  0
   16.0270    0.9923   -1.7755 C   0  0  0  0  0 15  0  0  0  0  0  0
   16.3820    1.8363   -0.5744 C   0  0  0  0  0 15  0  0  0  0  0  0
   15.6750    1.8665    0.4328 O   0  0  0  0  0 15  0  0  0  0  0  0
   15.8690    1.9004   -3.0269 C   0  0  0  0  0 15  0  0  0  0  0  0
   15.6980    1.1458   -4.3486 C   0  0  0  0  0 15  0  0  0  0  0  0
   14.4680    0.8581   -4.9796 C   0  0  0  0  0 15  0  0  0  0  0  0
   16.6660    0.5321   -5.1154 C   0  0  0  0  0 15  0  0  0  0  0  0
   14.6480    0.0776   -6.1385 N   0  0  0  0  0 15  0  0  0  0  0  0
   16.0190   -0.1138   -6.1990 C   0  0  0  0  0 15  0  0  0  0  0  0
   18.0740    0.4408   -4.9595 C   0  0  0  0  0 15  0  0  0  0  0  0
   16.7770   -0.8422   -7.1435 C   0  0  0  0  0 15  0  0  0  0  0  0
   18.8030   -0.2741   -5.9076 C   0  0  0  0  0 15  0  0  0  0  0  0
   18.1650   -0.9087   -6.9851 C   0  0  0  0  0 15  0  0  0  0  0  0
   14.2640    0.3448   -0.7019 H   0  0  0  0  0 15  0  0  0  0  0  0
   16.8480    0.2671   -1.9286 H   0  0  0  0  0 15  0  0  0  0  0  0
   15.0190    2.5978   -2.8874 H   0  0  0  0  0 15  0  0  0  0  0  0
   16.7510    2.5624   -3.1324 H   0  0  0  0  0 15  0  0  0  0  0  0
   13.5060    1.1655   -4.5904 H   0  0  0  0  0 15  0  0  0  0  0  0
   13.9300   -0.3002   -6.7633 H   0  0  0  0  0 15  0  0  0  0  0  0
   18.5720    0.9171   -4.1273 H   0  0  0  0  0 15  0  0  0  0  0  0
   16.2900   -1.3302   -7.9708 H   0  0  0  0  0 15  0  0  0  0  0  0
   19.8760   -0.3452   -5.8078 H   0  0  0  0  0 15  0  0  0  0  0  0
   18.7560   -1.4530   -7.7062 H   0  0  0  0  0 15  0  0  0  0  0  0
   16.2591    1.4844    0.5294 N   0  0  0  0  0 15  0  0  0  0  0  0
   17.1891    1.6590    1.6431 C   0  0  0  0  0 15  0  0  0  0  0  0
   18.1701    0.5079    1.6234 C   0  0  0  0  0 15  0  0  0  0  0  0
   19.3551    0.7405    1.7953 O   0  0  0  0  0 15  0  0  0  0  0  0
   16.4851    1.6991    3.0290 C   0  0  0  0  0 15  0  0  0  0  0  0
   15.4391    2.8453    3.1973 C   0  0  0  0  0 15  0  0  0  0  0  0
   14.7651    2.7363    4.5938 C   0  0  0  0  0 15  0  0  0  0  0  0
   16.0651    4.2582    3.0245 C   0  0  0  0  0 15  0  0  0  0  0  0
   17.7591    2.5914    1.4996 H   0  0  0  0  0 15  0  0  0  0  0  0
   15.3051    1.2471    0.7200 H   0  0  0  0  0 15  0  0  0  0  0  0
   17.2581    1.8071    3.8068 H   0  0  0  0  0 15  0  0  0  0  0  0
   15.9821    0.7325    3.1828 H   0  0  0  0  0 15  0  0  0  0  0  0
   14.6411    2.7328    2.4436 H   0  0  0  0  0 15  0  0  0  0  0  0
   14.2891    1.7494    4.7160 H   0  0  0  0  0 15  0  0  0  0  0  0
   13.9891    3.5054    4.7159 H   0  0  0  0  0 15  0  0  0  0  0  0
   15.5131    2.8640    5.3927 H   0  0  0  0  0 15  0  0  0  0  0  0
   16.9271    4.3790    3.7002 H   0  0  0  0  0 15  0  0  0  0  0  0
   15.3241    5.0373    3.2615 H   0  0  0  0  0 15  0  0  0  0  0  0
   16.3941    4.4224    1.9887 H   0  0  0  0  0 15  0  0  0  0  0  0
   17.7372   -0.7783    1.3704 N   0  0  0  0  0 15  0  0  0  0  0  0
   18.9832   -1.5389    1.3208 C   0  0  0  0  0 15  0  0  0  0  0  0
   19.3162   -1.9396   -0.0965 C   0  0  0  0  0 15  0  0  0  0  0  0
   18.5912   -1.6357   -1.0524 O   0  0  0  0  0 15  0  0  0  0  0  0
   18.8742   -2.8085    2.2538 C   0  0  0  0  0 15  0  0  0  0  0  0
   18.7272   -2.4708    3.7586 C   0  0  0  0  0 15  0  0  0  0  0  0
   20.0462   -3.8274    2.1725 C   0  0  0  0  0 15  0  0  0  0  0  0
   17.1652   -0.5583    0.4811 H   0  0  0  0  0 15  0  0  0  0  0  0
   19.8072   -0.8934    1.6769 H   0  0  0  0  0 15  0  0  0  0  0  0
   17.9572   -3.3593    1.9515 H   0  0  0  0  0 15  0  0  0  0  0  0
   19.6292   -1.9796    4.1667 H   0  0  0  0  0 15  0  0  0  0  0  0
   17.8722   -1.7986    3.9476 H   0  0  0  0  0 15  0  0  0  0  0  0
   18.5432   -3.3780    4.3657 H   0  0  0  0  0 15  0  0  0  0  0  0
   21.0192   -3.3713    2.4389 H   0  0  0  0  0 15  0  0  0  0  0  0
   19.8952   -4.6930    2.8469 H   0  0  0  0  0 15  0  0  0  0  0  0
   20.1562   -4.2652    1.1633 H   0  0  0  0  0 15  0  0  0  0  0  0
   19.2153   -1.2150   -1.0038 N   0  0  0  0  0 15  0  0  0  0  0  0
   20.4643   -1.0272   -1.7359 C   0  0  0  0  0 15  0  0  0  0  0  0
   20.7773    0.4396   -1.9060 C   0  0  0  0  0 15  0  0  0  0  0  0
   21.9833    0.7468   -2.6103 O   0  0  0  0  0 15  0  0  0  0  0  0
   20.4393   -1.7893   -3.1227 C   0  0  0  0  0 15  0  0  0  0  0  0
   20.0473   -3.2978   -3.0323 C   0  0  0  0  0 15  0  0  0  0  0  0
   21.7913   -1.6856   -3.8960 C   0  0  0  0  0 15  0  0  0  0  0  0
   19.6983   -3.9848   -4.3700 C   0  0  0  0  0 15  0  0  0  0  0  0
   18.6283   -0.3807   -0.6508 H   0  0  0  0  0 15  0  0  0  0  0  0
   21.2793   -1.4525   -1.1214 H   0  0  0  0  0 15  0  0  0  0  0  0
   19.6613   -1.2919   -3.7433 H   0  0  0  0  0 15  0  0  0  0  0  0
   20.8353   -3.8683   -2.5039 H   0  0  0  0  0 15  0  0  0  0  0  0
   19.1503   -3.4071   -2.3938 H   0  0  0  0  0 15  0  0  0  0  0  0
   21.7473   -2.1721   -4.8859 H   0  0  0  0  0 15  0  0  0  0  0  0
   22.0903   -0.6440   -4.1129 H   0  0  0  0  0 15  0  0  0  0  0  0
   22.6233   -2.1578   -3.3419 H   0  0  0  0  0 15  0  0  0  0  0  0
   19.3623   -5.0284   -4.2051 H   0  0  0  0  0 15  0  0  0  0  0  0
   18.8823   -3.4622   -4.8979 H   0  0  0  0  0 15  0  0  0  0  0  0
   20.5613   -4.0346   -5.0579 H   0  0  0  0  0 15  0  0  0  0  0  0
   20.6934    1.1989   -1.0230 N   0  0  0  0  0 15  0  0  0  0  0  0
   21.6414    2.2494   -0.5921 C   0  0  0  0  0 15  0  0  0  0  0  0
   22.6354    1.6526    0.3724 C   0  0  0  0  0 15  0  0  0  0  0  0
   23.8414    1.7837    0.2416 O   0  0  0  0  0 15  0  0  0  0  0  0
   20.2164    0.7318   -0.1732 H   0  0  0  0  0 15  0  0  0  0  0  0
   22.1874    2.5860   -1.4889 H   0  0  0  0  0 15  0  0  0  0  0  0
   20.9364    3.4767    0.0474 C   0  0  0  0  0 15  0  0  0  0  0  0
   20.2594    3.9387   -0.6858 H   0  0  0  0  0 15  0  0  0  0  0  0
   21.6994    4.2285    0.3119 H   0  0  0  0  0 15  0  0  0  0  0  0
   20.1584    3.1114    1.2921 C   0  0  0  0  0 15  0  0  0  0  0  0
   20.6884    3.2325    2.3848 O   0  0  0  0  0 15  0  0  0  0  0  0
   18.8944    2.6563    1.1786 N   0  0  0  0  0 15  0  0  0  0  0  0
   18.4414    2.5597    0.2895 H   0  0  0  0  0 15  0  0  0  0  0  0
   18.3994    2.4155    2.0125 H   0  0  0  0  0 15  0  0  0  0  0  0
   22.1715    0.8000    1.3578 N   0  0  0  0  0 15  0  0  0  0  0  0
   23.5825    0.4391    1.8146 C   0  0  0  0  0 15  0  0  0  0  0  0
   23.9335   -1.0381    1.6648 C   0  0  0  0  0 15  0  0  0  0  0  0
   23.0585   -1.8063    1.1918 O   0  0  0  0  0 15  0  0  0  0  0  0
   23.6535    0.7903    3.2945 C   0  0  0  0  0 15  0  0  0  0  0  0
   22.2125    0.4821    3.7330 C   0  0  0  0  0 15  0  0  0  0  0  0
   21.3595    1.0194    2.5788 C   0  0  0  0  0 15  0  0  0  0  0  0
   24.3105    0.9923    1.2385 H   0  0  0  0  0 15  0  0  0  0  0  0
   24.3315    0.0854    3.8040 H   0  0  0  0  0 15  0  0  0  0  0  0
   23.8435    1.8655    3.4032 H   0  0  0  0  0 15  0  0  0  0  0  0
   21.9445   -0.5847    3.6798 H   0  0  0  0  0 15  0  0  0  0  0  0
   22.0575    1.0102    4.6833 H   0  0  0  0  0 15  0  0  0  0  0  0
   20.4215    0.4420    2.5083 H   0  0  0  0  0 15  0  0  0  0  0  0
   21.2045    2.1006    2.7153 H   0  0  0  0  0 15  0  0  0  0  0  0
   23.6496   -1.4758    0.5530 N   0  0  0  0  0 15  0  0  0  0  0  0
   24.8746   -2.0738    0.0301 C   0  0  0  0  0 15  0  0  0  0  0  0
   25.2996   -1.4035   -1.2523 C   0  0  0  0  0 15  0  0  0  0  0  0
   24.6576   -0.4771   -1.7491 O   0  0  0  0  0 15  0  0  0  0  0  0
   24.7056   -3.6027   -0.1532 C   0  0  0  0  0 15  0  0  0  0  0  0
   23.8096   -3.9404   -1.2168 O   0  0  0  0  0 15  0  0  0  0  0  0
   23.1506   -0.6622    0.0494 H   0  0  0  0  0 15  0  0  0  0  0  0
   25.6806   -1.8966    0.7674 H   0  0  0  0  0 15  0  0  0  0  0  0
   25.6906   -4.0633   -0.3688 H   0  0  0  0  0 15  0  0  0  0  0  0
   24.3656   -4.0846    0.7834 H   0  0  0  0  0 15  0  0  0  0  0  0
   22.9426   -3.5974   -0.9821 H   0  0  0  0  0 15  0  0  0  0  0  0
   25.1277   -0.2892   -1.5492 N   0  0  0  0  0 15  0  0  0  0  0  0
   26.3557    0.3265   -2.0431 C   0  0  0  0  0 15  0  0  0  0  0  0
   26.7707    1.4841   -1.1670 C   0  0  0  0  0 15  0  0  0  0  0  0
   26.1277    1.8151   -0.1901 O   0  0  0  0  0 15  0  0  0  0  0  0
   26.1787    0.7940   -3.5267 C   0  0  0  0  0 15  0  0  0  0  0  0
   25.8997   -0.3176   -4.3695 O   0  0  0  0  0 15  0  0  0  0  0  0
   27.4007    1.4760   -4.1800 C   0  0  0  0  0 15  0  0  0  0  0  0
   24.6207    0.0726   -0.6671 H   0  0  0  0  0 15  0  0  0  0  0  0
   27.1647   -0.4254   -2.0003 H   0  0  0  0  0 15  0  0  0  0  0  0
   25.3197    1.4959   -3.5735 H   0  0  0  0  0 15  0  0  0  0  0  0
   25.7337    0.0443   -5.2448 H   0  0  0  0  0 15  0  0  0  0  0  0
   27.2077    1.7545   -5.2338 H   0  0  0  0  0 15  0  0  0  0  0  0
   27.6847    2.4122   -3.6703 H   0  0  0  0  0 15  0  0  0  0  0  0
   28.2907    0.8176   -4.1737 H   0  0  0  0  0 15  0  0  0  0  0  0
   26.6058    1.5759   -0.0167 N   0  0  0  0  0 15  0  0  0  0  0  0
   27.8518    1.9240    0.6599 C   0  0  0  0  0 15  0  0  0  0  0  0
   28.2068    0.8926    1.7044 C   0  0  0  0  0 15  0  0  0  0  0  0
   27.4998   -0.0931    1.9137 O   0  0  0  0  0 15  0  0  0  0  0  0
   27.6938    3.3172    1.3303 C   0  0  0  0  0 15  0  0  0  0  0  0
   27.5228    4.4832    0.3522 C   0  0  0  0  0 15  0  0  0  0  0  0
   26.2928    5.0528   -0.0435 C   0  0  0  0  0 15  0  0  0  0  0  0
   28.4908    5.1283   -0.3885 C   0  0  0  0  0 15  0  0  0  0  0  0
   26.4728    6.0540   -1.0181 N   0  0  0  0  0 15  0  0  0  0  0  0
   27.8438    6.0793   -1.2172 C   0  0  0  0  0 15  0  0  0  0  0  0
   29.8988    4.9586   -0.4505 C   0  0  0  0  0 15  0  0  0  0  0  0
   28.6018    6.8789   -2.1023 C   0  0  0  0  0 15  0  0  0  0  0  0
   30.6278    5.7641   -1.3229 C   0  0  0  0  0 15  0  0  0  0  0  0
   29.9898    6.7112   -2.1395 C   0  0  0  0  0 15  0  0  0  0  0  0
   26.0888    0.7521    0.2142 H   0  0  0  0  0 15  0  0  0  0  0  0
   28.6728    1.9453   -0.0810 H   0  0  0  0  0 15  0  0  0  0  0  0
   26.8438    3.3043    2.0413 H   0  0  0  0  0 15  0  0  0  0  0  0
   28.5758    3.5391    1.9629 H   0  0  0  0  0 15  0  0  0  0  0  0
   25.3308    4.7246    0.3284 H   0  0  0  0  0 15  0  0  0  0  0  0
   25.7548    6.6015   -1.5012 H   0  0  0  0  0 15  0  0  0  0  0  0
   30.3968    4.2247    0.1665 H   0  0  0  0  0 15  0  0  0  0  0  0
   28.1148    7.6059   -2.7300 H   0  0  0  0  0 15  0  0  0  0  0  0
   31.7008    5.6532   -1.3751 H   0  0  0  0  0 15  0  0  0  0  0  0
   30.5808    7.3237   -2.8036 H   0  0  0  0  0 15  0  0  0  0  0  0
   28.0839   -0.2563    1.5550 N   0  0  0  0  0 15  0  0  0  0  0  0
   29.0139   -1.3210    1.9254 C   0  0  0  0  0 15  0  0  0  0  0  0
   29.9949   -1.5068    0.7892 C   0  0  0  0  0 15  0  0  0  0  0  0
   31.1799   -1.6345    1.0487 O   0  0  0  0  0 15  0  0  0  0  0  0
   28.3099   -2.6775    2.2119 C   0  0  0  0  0 15  0  0  0  0  0  0
   27.2639   -2.6388    3.3698 C   0  0  0  0  0 15  0  0  0  0  0  0
   26.5899   -4.0324    3.5115 C   0  0  0  0  0 15  0  0  0  0  0  0
   27.8899   -2.2168    4.7292 C   0  0  0  0  0 15  0  0  0  0  0  0
   29.5839   -1.0135    2.8172 H   0  0  0  0  0 15  0  0  0  0  0  0
   27.1299   -0.4861    1.3555 H   0  0  0  0  0 15  0  0  0  0  0  0
   29.0829   -3.4237    2.4569 H   0  0  0  0  0 15  0  0  0  0  0  0
   27.8069   -3.0012    1.2882 H   0  0  0  0  0 15  0  0  0  0  0  0
   26.4659   -1.9172    3.1247 H   0  0  0  0  0 15  0  0  0  0  0  0
   26.1139   -4.3285    2.5622 H   0  0  0  0  0 15  0  0  0  0  0  0
   25.8139   -4.0153    4.2900 H   0  0  0  0  0 15  0  0  0  0  0  0
   27.3379   -4.7956    3.7796 H   0  0  0  0  0 15  0  0  0  0  0  0
   28.7519   -2.8602    4.9685 H   0  0  0  0  0 15  0  0  0  0  0  0
   27.1489   -2.3111    5.5381 H   0  0  0  0  0 15  0  0  0  0  0  0
   28.2189   -1.1683    4.7061 H   0  0  0  0  0 15  0  0  0  0  0  0
   29.5620   -1.4872   -0.5215 N   0  0  0  0  0 15  0  0  0  0  0  0
   30.9730   -1.5061   -1.1034 C   0  0  0  0  0 15  0  0  0  0  0  0
   31.3240   -0.2806   -1.9418 C   0  0  0  0  0 15  0  0  0  0  0  0
   30.4490    0.6115   -2.0758 O   0  0  0  0  0 15  0  0  0  0  0  0
   31.0440   -2.7290   -2.0077 C   0  0  0  0  0 15  0  0  0  0  0  0
   29.6030   -2.7763   -2.5416 C   0  0  0  0  0 15  0  0  0  0  0  0
   28.7500   -2.4424   -1.3131 C   0  0  0  0  0 15  0  0  0  0  0  0
   31.7010   -1.5571   -0.3064 H   0  0  0  0  0 15  0  0  0  0  0  0
   31.7220   -2.5190   -2.8518 H   0  0  0  0  0 15  0  0  0  0  0  0
   31.2340   -3.6208   -1.3972 H   0  0  0  0  0 15  0  0  0  0  0  0
   29.3350   -1.9269   -3.1891 H   0  0  0  0  0 15  0  0  0  0  0  0
   29.4480   -3.7928   -2.9271 H   0  0  0  0  0 15  0  0  0  0  0  0
   27.8120   -1.9558   -1.6316 H   0  0  0  0  0 15  0  0  0  0  0  0
   28.5950   -3.3567   -0.7199 H   0  0  0  0  0 15  0  0  0  0  0  0
   31.0401    0.7711   -1.3745 N   0  0  0  0  0 15  0  0  0  0  0  0
   32.2861    1.5319   -1.3289 C   0  0  0  0  0 15  0  0  0  0  0  0
   32.6191    1.9401    0.0863 C   0  0  0  0  0 15  0  0  0  0  0  0
   31.8941    1.6412    1.0437 O   0  0  0  0  0 15  0  0  0  0  0  0
   32.1771    2.7965   -2.2687 C   0  0  0  0  0 15  0  0  0  0  0  0
   32.0301    2.4508   -3.7717 C   0  0  0  0  0 15  0  0  0  0  0  0
   33.3491    3.8158   -2.1928 C   0  0  0  0  0 15  0  0  0  0  0  0
   30.4681    0.5557   -0.4841 H   0  0  0  0  0 15  0  0  0  0  0  0
   33.1101    0.8845   -1.6816 H   0  0  0  0  0 15  0  0  0  0  0  0
   31.2601    3.3489   -1.9693 H   0  0  0  0  0 15  0  0  0  0  0  0
   32.9321    1.9574   -4.1771 H   0  0  0  0  0 15  0  0  0  0  0  0
   31.1751    1.7777   -3.9570 H   0  0  0  0  0 15  0  0  0  0  0  0
   31.8461    3.3548   -4.3836 H   0  0  0  0  0 15  0  0  0  0  0  0
   34.3221    3.3583   -2.4567 H   0  0  0  0  0 15  0  0  0  0  0  0
   33.1981    4.6779   -2.8717 H   0  0  0  0  0 15  0  0  0  0  0  0
   33.4591    4.2590   -1.1859 H   0  0  0  0  0 15  0  0  0  0  0  0
   32.5182    1.2203    0.9973 N   0  0  0  0  0 15  0  0  0  0  0  0
   33.7672    1.0364    1.7304 C   0  0  0  0  0 15  0  0  0  0  0  0
   34.0802   -0.4295    1.9083 C   0  0  0  0  0 15  0  0  0  0  0  0
   35.2862   -0.7330    2.6142 O   0  0  0  0  0 15  0  0  0  0  0  0
   33.7422    1.8058    3.1132 C   0  0  0  0  0 15  0  0  0  0  0  0
   33.3502    3.3139    3.0147 C   0  0  0  0  0 15  0  0  0  0  0  0
   35.0942    1.7062    3.8870 C   0  0  0  0  0 15  0  0  0  0  0  0
   33.0012    4.0079    4.3488 C   0  0  0  0  0 15  0  0  0  0  0  0
   31.9312    0.3842    0.6488 H   0  0  0  0  0 15  0  0  0  0  0  0
   34.5822    1.4584    1.1137 H   0  0  0  0  0 15  0  0  0  0  0  0
   32.9642    1.3118    3.7364 H   0  0  0  0  0 15  0  0  0  0  0  0
   34.1382    3.8815    2.4834 H   0  0  0  0  0 15  0  0  0  0  0  0
   32.4532    3.4198    2.3757 H   0  0  0  0  0 15  0  0  0  0  0  0
   35.0502    2.1980    4.8743 H   0  0  0  0  0 15  0  0  0  0  0  0
   35.3932    0.6658    4.1094 H   0  0  0  0  0 15  0  0  0  0  0  0
   35.9262    2.1755    3.3304 H   0  0  0  0  0 15  0  0  0  0  0  0
   32.6652    5.0506    4.1784 H   0  0  0  0  0 15  0  0  0  0  0  0
   32.1852    3.4881    4.8795 H   0  0  0  0  0 15  0  0  0  0  0  0
   33.8642    4.0614    5.0365 H   0  0  0  0  0 15  0  0  0  0  0  0
   33.9963   -1.1934    1.0293 N   0  0  0  0  0 15  0  0  0  0  0  0
   35.2423   -1.8958    0.7368 C   0  0  0  0  0 15  0  0  0  0  0  0
   35.5973   -1.7815   -0.7267 C   0  0  0  0  0 15  0  0  0  0  0  0
   34.8903   -1.1633   -1.5224 O   0  0  0  0  0 15  0  0  0  0  0  0
   35.0843   -3.3929    1.1232 C   0  0  0  0  0 15  0  0  0  0  0  0
   34.9133   -3.6530    2.6227 C   0  0  0  0  0 15  0  0  0  0  0  0
   33.6833   -3.8330    3.2925 C   0  0  0  0  0 15  0  0  0  0  0  0
   35.8813   -3.6682    3.6048 C   0  0  0  0  0 15  0  0  0  0  0  0
   33.8633   -3.9694    4.6830 N   0  0  0  0  0 15  0  0  0  0  0  0
   35.2343   -3.8604    4.8516 C   0  0  0  0  0 15  0  0  0  0  0  0
   37.2893   -3.4985    3.5427 C   0  0  0  0  0 15  0  0  0  0  0  0
   35.9923   -3.9004    6.0437 C   0  0  0  0  0 15  0  0  0  0  0  0
   38.0183   -3.5513    4.7290 C   0  0  0  0  0 15  0  0  0  0  0  0
   37.3803   -3.7483    5.9639 C   0  0  0  0  0 15  0  0  0  0  0  0
   33.4793   -0.7129    0.3215 H   0  0  0  0  0 15  0  0  0  0  0  0
   36.0633   -1.4343    1.3167 H   0  0  0  0  0 15  0  0  0  0  0  0
   34.2343   -3.8417    0.5715 H   0  0  0  0  0 15  0  0  0  0  0  0
   35.9663   -3.9705    0.7829 H   0  0  0  0  0 15  0  0  0  0  0  0
   32.7213   -3.8221    2.7966 H   0  0  0  0  0 15  0  0  0  0  0  0
   33.1453   -4.0761    5.4054 H   0  0  0  0  0 15  0  0  0  0  0  0
   37.7873   -3.3357    2.5979 H   0  0  0  0  0 15  0  0  0  0  0  0
   35.5053   -4.0511    6.9922 H   0  0  0  0  0 15  0  0  0  0  0  0
   39.0913   -3.4329    4.6973 H   0  0  0  0  0 15  0  0  0  0  0  0
   37.9713   -3.7879    6.8665 H   0  0  0  0  0 15  0  0  0  0  0  0
   35.4744   -0.8072   -1.3536 N   0  0  0  0  0 15  0  0  0  0  0  0
   36.7234   -0.3844   -1.9800 C   0  0  0  0  0 15  0  0  0  0  0  0
   37.0364    1.0543   -1.6475 C   0  0  0  0  0 15  0  0  0  0  0  0
   38.2424    1.5803   -2.2077 O   0  0  0  0  0 15  0  0  0  0  0  0
   36.6984   -0.6363   -3.5423 C   0  0  0  0  0 15  0  0  0  0  0  0
   36.3064   -2.0876   -3.9639 C   0  0  0  0  0 15  0  0  0  0  0  0
   38.0504   -0.2789   -4.2358 C   0  0  0  0  0 15  0  0  0  0  0  0
   35.9574   -2.2853   -5.4546 C   0  0  0  0  0 15  0  0  0  0  0  0
   34.8874   -0.1400   -0.7409 H   0  0  0  0  0 15  0  0  0  0  0  0
   37.5384   -0.9914   -1.5442 H   0  0  0  0  0 15  0  0  0  0  0  0
   35.9204    0.0406   -3.9598 H   0  0  0  0  0 15  0  0  0  0  0  0
   37.0944   -2.8024   -3.6579 H   0  0  0  0  0 15  0  0  0  0  0  0
   35.4094   -2.4050   -3.3993 H   0  0  0  0  0 15  0  0  0  0  0  0
   38.0064   -0.4046   -5.3317 H   0  0  0  0  0 15  0  0  0  0  0  0
   38.3494    0.7750   -4.0902 H   0  0  0  0  0 15  0  0  0  0  0  0
   38.8824   -0.9098   -3.8726 H   0  0  0  0  0 15  0  0  0  0  0  0
   35.6214   -3.3236   -5.6499 H   0  0  0  0  0 15  0  0  0  0  0  0
   35.1414   -1.6157   -5.7763 H   0  0  0  0  0 15  0  0  0  0  0  0
   36.8204   -2.1011   -6.1193 H   0  0  0  0  0 15  0  0  0  0  0  0
   36.9525    1.4729   -0.5608 N   0  0  0  0  0 15  0  0  0  0  0  0
   38.1985    2.0276   -0.0381 C   0  0  0  0  0 15  0  0  0  0  0  0
   38.5315    1.4338    1.3098 C   0  0  0  0  0 15  0  0  0  0  0  0
   37.8065    0.5907    1.8531 O   0  0  0  0  0 15  0  0  0  0  0  0
   38.0895    3.6006    0.0511 C   0  0  0  0  0 15  0  0  0  0  0  0
   37.9425    4.2987   -1.3241 C   0  0  0  0  0 15  0  0  0  0  0  0
   39.2615    4.3344    0.7628 C   0  0  0  0  0 15  0  0  0  0  0  0
   36.3805    0.7368   -0.0153 H   0  0  0  0  0 15  0  0  0  0  0  0
   39.0225    1.7568   -0.7238 H   0  0  0  0  0 15  0  0  0  0  0  0
   37.1725    3.8327    0.6351 H   0  0  0  0  0 15  0  0  0  0  0  0
   38.8445    4.1799   -1.9515 H   0  0  0  0  0 15  0  0  0  0  0  0
   37.0875    3.9008   -1.8978 H   0  0  0  0  0 15  0  0  0  0  0  0
   37.7585    5.3848   -1.2143 H   0  0  0  0  0 15  0  0  0  0  0  0
   40.2345    4.1524    0.2670 H   0  0  0  0  0 15  0  0  0  0  0  0
   39.1105    5.4312    0.7942 H   0  0  0  0  0 15  0  0  0  0  0  0
   39.3715    4.0292    1.8197 H   0  0  0  0  0 15  0  0  0  0  0  0
   38.4306    0.2974    1.5477 N   0  0  0  0  0 15  0  0  0  0  0  0
   39.3936   -0.5674    2.2207 C   0  0  0  0  0 15  0  0  0  0  0  0
   40.3936   -1.0641    1.2056 C   0  0  0  0  0 15  0  0  0  0  0  0
   41.5836   -0.9607    1.4531 O   0  0  0  0  0 15  0  0  0  0  0  0
   38.7156   -1.7852    2.9042 C   0  0  0  0  0 15  0  0  0  0  0  0
   39.9086    0.0206    2.9989 H   0  0  0  0  0 15  0  0  0  0  0  0
   37.4616    0.0482    1.5623 H   0  0  0  0  0 15  0  0  0  0  0  0
   38.1966   -2.4130    2.1666 H   0  0  0  0  0 15  0  0  0  0  0  0
   37.9816   -1.4367    3.6483 H   0  0  0  0  0 15  0  0  0  0  0  0
   39.4716   -2.3996    3.4177 H   0  0  0  0  0 15  0  0  0  0  0  0
   39.9087   -1.5758    0.0251 N   0  0  0  0  0 15  0  0  0  0  0  0
   41.1367   -1.9593   -0.6647 C   0  0  0  0  0 15  0  0  0  0  0  0
   41.5517   -0.9014   -1.6589 C   0  0  0  0  0 15  0  0  0  0  0  0
   40.9087    0.1173   -1.8212 O   0  0  0  0  0 15  0  0  0  0  0  0
   40.9597   -3.3434   -1.3747 C   0  0  0  0  0 15  0  0  0  0  0  0
   40.6807   -4.3608   -0.4203 O   0  0  0  0  0 15  0  0  0  0  0  0
   42.1817   -3.8730   -2.1567 C   0  0  0  0  0 15  0  0  0  0  0  0
   39.4017   -0.6454   -0.1836 H   0  0  0  0  0 15  0  0  0  0  0  0
   41.9457   -2.0433    0.0836 H   0  0  0  0  0 15  0  0  0  0  0  0
   40.1007   -3.2717   -2.0745 H   0  0  0  0  0 15  0  0  0  0  0  0
   40.5147   -5.1630   -0.9240 H   0  0  0  0  0 15  0  0  0  0  0  0
   41.9887   -4.8650   -2.6080 H   0  0  0  0  0 15  0  0  0  0  0  0
   42.4657   -3.2133   -2.9940 H   0  0  0  0  0 15  0  0  0  0  0  0
   43.0717   -3.9772   -1.5065 H   0  0  0  0  0 15  0  0  0  0  0  0
   41.3868    0.2480   -1.5564 N   0  0  0  0  0 15  0  0  0  0  0  0
   42.6328    0.9777   -1.7768 C   0  0  0  0  0 15  0  0  0  0  0  0
   42.9658    1.8502   -0.5901 C   0  0  0  0  0 15  0  0  0  0  0  0
   42.2408    1.9009    0.4116 O   0  0  0  0  0 15  0  0  0  0  0  0
   42.5238    1.8391   -3.0959 C   0  0  0  0  0 15  0  0  0  0  0  0
   42.3768    0.9949   -4.3866 C   0  0  0  0  0 15  0  0  0  0  0  0
   43.6958    2.8218   -3.3773 C   0  0  0  0  0 15  0  0  0  0  0  0
   40.8148    0.3540   -0.6464 H   0  0  0  0  0 15  0  0  0  0  0  0
   43.4568    0.2483   -1.8837 H   0  0  0  0  0 15  0  0  0  0  0  0
   41.6068    2.4610   -3.0061 H   0  0  0  0  0 15  0  0  0  0  0  0
   43.2788    0.3918   -4.5963 H   0  0  0  0  0 15  0  0  0  0  0  0
   41.5218    0.2992   -4.3277 H   0  0  0  0  0 15  0  0  0  0  0  0
   42.1928    1.6315   -5.2734 H   0  0  0  0  0 15  0  0  0  0  0  0
   44.6688    2.3013   -3.4667 H   0  0  0  0  0 15  0  0  0  0  0  0
   43.5448    3.3958   -4.3125 H   0  0  0  0  0 15  0  0  0  0  0  0
   43.8058    3.5859   -2.5859 H   0  0  0  0  0 15  0  0  0  0  0  0
   42.8649    1.4899    0.5136 N   0  0  0  0  0 15  0  0  0  0  0  0
   44.1109    1.5808    1.2704 C   0  0  0  0  0 15  0  0  0  0  0  0
   44.4439    0.2610    1.9244 C   0  0  0  0  0 15  0  0  0  0  0  0
   43.7189   -0.7344    1.8010 O   0  0  0  0  0 15  0  0  0  0  0  0
   44.0019    2.7309    2.3472 C   0  0  0  0  0 15  0  0  0  0  0  0
   43.8549    4.1482    1.7391 C   0  0  0  0  0 15  0  0  0  0  0  0
   45.1739    2.8380    3.3637 C   0  0  0  0  0 15  0  0  0  0  0  0
   42.2929    0.5754    0.4605 H   0  0  0  0  0 15  0  0  0  0  0  0
   44.9349    1.8123    0.5705 H   0  0  0  0  0 15  0  0  0  0  0  0
   43.0849    2.5348    2.9442 H   0  0  0  0  0 15  0  0  0  0  0  0
   44.7569    4.4592    1.1814 H   0  0  0  0  0 15  0  0  0  0  0  0
   42.9999    4.2106    1.0437 H   0  0  0  0  0 15  0  0  0  0  0  0
   43.6709    4.9115    2.5195 H   0  0  0  0  0 15  0  0  0  0  0  0
   46.1469    3.0161    2.8665 H   0  0  0  0  0 15  0  0  0  0  0  0
   45.0229    3.6597    4.0909 H   0  0  0  0  0 15  0  0  0  0  0  0
   45.2839    1.9262    3.9793 H   0  0  0  0  0 15  0  0  0  0  0  0
   44.3430   -0.7638    1.3786 N   0  0  0  0  0 15  0  0  0  0  0  0
   45.3060   -1.8589    1.3408 C   0  0  0  0  0 15  0  0  0  0  0  0
   46.3060   -1.5895    0.2433 C   0  0  0  0  0 15  0  0  0  0  0  0
   47.4960   -1.6688    0.4996 O   0  0  0  0  0 15  0  0  0  0  0  0
   44.6280   -3.2318    1.0849 C   0  0  0  0  0 15  0  0  0  0  0  0
   45.8210   -1.9065    2.3150 H   0  0  0  0  0 15  0  0  0  0  0  0
   43.3740   -0.9644    1.2300 H   0  0  0  0  0 15  0  0  0  0  0  0
   44.1090   -3.2409    0.1163 H   0  0  0  0  0 15  0  0  0  0  0  0
   43.8940   -3.4412    1.8794 H   0  0  0  0  0 15  0  0  0  0  0  0
   45.3840   -4.0325    1.0852 H   0  0  0  0  0 15  0  0  0  0  0  0
   45.8211   -1.2256   -0.9908 N   0  0  0  0  0 15  0  0  0  0  0  0
   47.0701   -1.0455   -1.7249 C   0  0  0  0  0 15  0  0  0  0  0  0
   47.3831    0.4193   -1.9105 C   0  0  0  0  0 15  0  0  0  0  0  0
   48.5891    0.7191   -2.6180 O   0  0  0  0  0 15  0  0  0  0  0  0
   47.0451   -1.8223   -3.1035 C   0  0  0  0  0 15  0  0  0  0  0  0
   46.6531   -3.3298   -2.9971 C   0  0  0  0  0 15  0  0  0  0  0  0
   48.3971   -1.7268   -3.8779 C   0  0  0  0  0 15  0  0  0  0  0  0
   46.3041   -4.0309   -4.3275 C   0  0  0  0  0 15  0  0  0  0  0  0
   45.2341   -0.3876   -0.6467 H   0  0  0  0  0 15  0  0  0  0  0  0
   47.8851   -1.4643   -1.1059 H   0  0  0  0  0 15  0  0  0  0  0  0
   46.2671   -1.3315   -3.7294 H   0  0  0  0  0 15  0  0  0  0  0  0
   47.4411   -3.8947   -2.4628 H   0  0  0  0  0 15  0  0  0  0  0  0
   45.7561   -3.4323   -2.3576 H   0  0  0  0  0 15  0  0  0  0  0  0
   48.3531   -2.2238   -4.8626 H   0  0  0  0  0 15  0  0  0  0  0  0
   48.6961   -0.6876   -4.1058 H   0  0  0  0  0 15  0  0  0  0  0  0
   49.2291   -2.1931   -3.3189 H   0  0  0  0  0 15  0  0  0  0  0  0
   45.9681   -5.0727   -4.1516 H   0  0  0  0  0 15  0  0  0  0  0  0
   45.4881   -3.5139   -4.8609 H   0  0  0  0  0 15  0  0  0  0  0  0
   47.1671   -4.0880   -5.0149 H   0  0  0  0  0 15  0  0  0  0  0  0
   47.2992    1.1880   -1.0356 N   0  0  0  0  0 15  0  0  0  0  0  0
   48.2622    2.2046   -0.6268 C   0  0  0  0  0 15  0  0  0  0  0  0
   49.2622    1.5772    0.3132 C   0  0  0  0  0 15  0  0  0  0  0  0
   50.4522    1.7392    0.0993 O   0  0  0  0  0 15  0  0  0  0  0  0
   47.5842    3.4080    0.0818 C   0  0  0  0  0 15  0  0  0  0  0  0
   48.7772    2.5815   -1.5264 H   0  0  0  0  0 15  0  0  0  0  0  0
   46.3302    1.3259   -0.8276 H   0  0  0  0  0 15  0  0  0  0  0  0
   47.0652    3.0864    0.9955 H   0  0  0  0  0 15  0  0  0  0  0  0
   46.8502    3.8758   -0.5937 H   0  0  0  0  0 15  0  0  0  0  0  0
   48.3402    4.1609    0.3546 H   0  0  0  0  0 15  0  0  0  0  0  0
   48.7773    0.8144    1.3493 N   0  0  0  0  0 15  0  0  0  0  0  0
   50.0233    0.3990    1.9884 C   0  0  0  0  0 15  0  0  0  0  0  0
   50.3563   -1.0331    1.6444 C   0  0  0  0  0 15  0  0  0  0  0  0
   49.6313   -1.7181    0.9117 O   0  0  0  0  0 15  0  0  0  0  0  0
   49.9143    0.5916    3.5521 C   0  0  0  0  0 15  0  0  0  0  0  0
   49.7673    2.0693    3.9938 C   0  0  0  0  0 15  0  0  0  0  0  0
   51.0863    0.0222    4.4009 C   0  0  0  0  0 15  0  0  0  0  0  0
   48.2053    0.1465    0.7223 H   0  0  0  0  0 15  0  0  0  0  0  0
   50.8473    1.0254    1.5996 H   0  0  0  0  0 15  0  0  0  0  0  0
   48.9973    0.0584    3.8846 H   0  0  0  0  0 15  0  0  0  0  0  0
   50.6693    2.6654    3.7650 H   0  0  0  0  0 15  0  0  0  0  0  0
   48.9123    2.5629    3.5000 H   0  0  0  0  0 15  0  0  0  0  0  0
   49.5833    2.1549    5.0820 H   0  0  0  0  0 15  0  0  0  0  0  0
   52.0593    0.4776    4.1335 H   0  0  0  0  0 15  0  0  0  0  0  0
   50.9353    0.1868    5.4858 H   0  0  0  0  0 15  0  0  0  0  0  0
   51.1963   -1.0722    4.2890 H   0  0  0  0  0 15  0  0  0  0  0  0
   50.2554   -1.4699    0.5686 N   0  0  0  0  0 15  0  0  0  0  0  0
   51.2054   -2.2718   -0.1933 C   0  0  0  0  0 15  0  0  0  0  0  0
   52.1894   -1.3503   -0.8749 C   0  0  0  0  0 15  0  0  0  0  0  0
   53.3814   -1.5931   -0.7713 O   0  0  0  0  0 15  0  0  0  0  0  0
   50.5104   -3.2106   -1.2155 C   0  0  0  0  0 15  0  0  0  0  0  0
   49.5964   -4.2069   -0.5367 C   0  0  0  0  0 15  0  0  0  0  0  0
   49.9874   -5.0422    0.3997 N   0  0  0  0  0 15  0  0  0  0  0  0
   48.2854   -4.3896   -0.7893 C   0  0  0  0  0 15  0  0  0  0  0  0
   48.9864   -5.7624    0.7950 C   0  0  0  0  0 15  0  0  0  0  0  0
   47.9624   -5.4340    0.1473 N   0  0  0  0  0 15  0  0  0  0  0  0
   51.7644   -2.8915    0.5265 H   0  0  0  0  0 15  0  0  0  0  0  0
   49.2784   -1.5766    0.3893 H   0  0  0  0  0 15  0  0  0  0  0  0
   51.2754   -3.7721   -1.7754 H   0  0  0  0  0 15  0  0  0  0  0  0
   49.9354   -2.6065   -1.9362 H   0  0  0  0  0 15  0  0  0  0  0  0
   50.9464   -5.1208    0.7745 H   0  0  0  0  0 15  0  0  0  0  0  0
   47.6234   -3.8971   -1.4977 H   0  0  0  0  0 15  0  0  0  0  0  0
   49.0134   -6.5342    1.5651 H   0  0  0  0  0 15  0  0  0  0  0  0
   51.7335   -0.3056   -1.5461 N   0  0  0  0  0 15  0  0  0  0  0  0
   52.6965    0.5556   -2.2236 C   0  0  0  0  0 15  0  0  0  0  0  0
   53.6965    1.0577   -1.2112 C   0  0  0  0  0 15  0  0  0  0  0  0
   54.8865    0.9530   -1.4582 O   0  0  0  0  0 15  0  0  0  0  0  0
   52.0185    1.7697   -2.9136 C   0  0  0  0  0 15  0  0  0  0  0  0
   53.2115   -0.0365   -2.9988 H   0  0  0  0  0 15  0  0  0  0  0  0
   50.7645   -0.0565   -1.5620 H   0  0  0  0  0 15  0  0  0  0  0  0
   51.4995    2.4015   -2.1794 H   0  0  0  0  0 15  0  0  0  0  0  0
   51.2845    1.4173   -3.6559 H   0  0  0  0  0 15  0  0  0  0  0  0
   52.7745    2.3815   -3.4304 H   0  0  0  0  0 15  0  0  0  0  0  0
   53.2116    1.5756   -0.0334 N   0  0  0  0  0 15  0  0  0  0  0  0
   54.1746    2.0939    0.9320 C   0  0  0  0  0 15  0  0  0  0  0  0
   55.1746    1.0099    1.2513 C   0  0  0  0  0 15  0  0  0  0  0  0
   56.3646    1.2713    1.1910 O   0  0  0  0  0 15  0  0  0  0  0  0
   53.4966    2.5634    2.2473 C   0  0  0  0  0 15  0  0  0  0  0  0
   54.6896    2.9598    0.4831 H   0  0  0  0  0 15  0  0  0  0  0  0
   52.2426    1.5482    0.2147 H   0  0  0  0  0 15  0  0  0  0  0  0
   52.9776    1.7309    2.7425 H   0  0  0  0  0 15  0  0  0  0  0  0
   52.7626    3.3554    2.0286 H   0  0  0  0  0 15  0  0  0  0  0  0
   54.2526    2.9665    2.9392 H   0  0  0  0  0 15  0  0  0  0  0  0
   54.6897   -0.2398    1.5577 N   0  0  0  0  0 15  0  0  0  0  0  0
   55.9357   -0.9682    1.7819 C   0  0  0  0  0 15  0  0  0  0  0  0
   56.2687   -1.8470    0.5999 C   0  0  0  0  0 15  0  0  0  0  0  0
   55.5437   -1.9031   -0.4015 O   0  0  0  0  0 15  0  0  0  0  0  0
   55.8267   -1.8227    3.1056 C   0  0  0  0  0 15  0  0  0  0  0  0
   55.6797   -0.9716    4.3918 C   0  0  0  0  0 15  0  0  0  0  0  0
   56.9987   -2.8039    3.3922 C   0  0  0  0  0 15  0  0  0  0  0  0
   54.1177   -0.3506    0.6483 H   0  0  0  0  0 15  0  0  0  0  0  0
   56.7597   -0.2383    1.8850 H   0  0  0  0  0 15  0  0  0  0  0  0
   54.9097   -2.4451    3.0191 H   0  0  0  0  0 15  0  0  0  0  0  0
   56.5817   -0.3674    4.5983 H   0  0  0  0  0 15  0  0  0  0  0  0
   54.8247   -0.2763    4.3292 H   0  0  0  0  0 15  0  0  0  0  0  0
   55.4957   -1.6035    5.2820 H   0  0  0  0  0 15  0  0  0  0  0  0
   57.9717   -2.2829    3.4789 H   0  0  0  0  0 15  0  0  0  0  0  0
   56.8477   -3.3729    4.3304 H   0  0  0  0  0 15  0  0  0  0  0  0
   57.1087   -3.5721    2.6048 H   0  0  0  0  0 15  0  0  0  0  0  0
   56.1678   -1.4927   -0.5057 N   0  0  0  0  0 15  0  0  0  0  0  0
   57.0978   -1.6850   -1.6165 C   0  0  0  0  0 15  0  0  0  0  0  0
   58.0788   -0.5337   -1.6151 C   0  0  0  0  0 15  0  0  0  0  0  0
   59.2638   -0.7690   -1.7833 O   0  0  0  0  0 15  0  0  0  0  0  0
   56.3938   -1.7471   -3.0016 C   0  0  0  0  0 15  0  0  0  0  0  0
   55.3478   -2.8958   -3.1516 C   0  0  0  0  0 15  0  0  0  0  0  0
   54.6738   -2.8090   -4.5497 C   0  0  0  0  0 15  0  0  0  0  0  0
   55.9738   -4.3058   -2.9563 C   0  0  0  0  0 15  0  0  0  0  0  0
   57.6678   -2.6149   -1.4581 H   0  0  0  0  0 15  0  0  0  0  0  0
   55.2138   -1.2584   -0.7001 H   0  0  0  0  0 15  0  0  0  0  0  0
   57.1668   -1.8675   -3.7776 H   0  0  0  0  0 15  0  0  0  0  0  0
   55.8908   -0.7831   -3.1707 H   0  0  0  0  0 15  0  0  0  0  0  0
   54.5498   -2.7714   -2.3998 H   0  0  0  0  0 15  0  0  0  0  0  0
   54.1978   -1.8242   -4.6876 H   0  0  0  0  0 15  0  0  0  0  0  0
   53.8978   -3.5800   -4.6595 H   0  0  0  0  0 15  0  0  0  0  0  0
   55.4218   -2.9494   -5.3464 H   0  0  0  0  0 15  0  0  0  0  0  0
   56.8358   -4.4373   -3.6301 H   0  0  0  0  0 15  0  0  0  0  0  0
   55.2328   -5.0886   -3.1809 H   0  0  0  0  0 15  0  0  0  0  0  0
   56.3028   -4.4535   -1.9181 H   0  0  0  0  0 15  0  0  0  0  0  0
   57.6459    0.7564   -1.3826 N   0  0  0  0  0 15  0  0  0  0  0  0
   58.6089    1.8518   -1.3507 C   0  0  0  0  0 15  0  0  0  0  0  0
   59.6089    1.5882   -0.2517 C   0  0  0  0  0 15  0  0  0  0  0  0
   60.7989    1.6662   -0.5084 O   0  0  0  0  0 15  0  0  0  0  0  0
   57.9309    3.2260   -1.1020 C   0  0  0  0  0 15  0  0  0  0  0  0
   59.1239    1.8942   -2.3251 H   0  0  0  0  0 15  0  0  0  0  0  0
   56.6769    0.9578   -1.2351 H   0  0  0  0  0 15  0  0  0  0  0  0
   57.4119    3.2403   -0.1335 H   0  0  0  0  0 15  0  0  0  0  0  0
   57.1969    3.4312   -1.8976 H   0  0  0  0  0 15  0  0  0  0  0  0
   58.6869    4.0267   -1.1065 H   0  0  0  0  0 15  0  0  0  0  0  0
   59.1240    1.2308    0.9843 N   0  0  0  0  0 15  0  0  0  0  0  0
   60.0870    1.0098    2.0576 C   0  0  0  0  0 15  0  0  0  0  0  0
   61.0870   -0.0270    1.6078 C   0  0  0  0  0 15  0  0  0  0  0  0
   62.2770    0.2124    1.7290 O   0  0  0  0  0 15  0  0  0  0  0  0
   59.4090    0.5271    3.3680 C   0  0  0  0  0 15  0  0  0  0  0  0
   60.6020    1.9622    2.2680 H   0  0  0  0  0 15  0  0  0  0  0  0
   58.1550    1.0507    1.1571 H   0  0  0  0  0 15  0  0  0  0  0  0
   58.8900   -0.4293    3.2145 H   0  0  0  0  0 15  0  0  0  0  0  0
   58.6750    1.2752    3.7079 H   0  0  0  0  0 15  0  0  0  0  0  0
   60.1650    0.3929    4.1575 H   0  0  0  0  0 15  0  0  0  0  0  0
   60.6021   -1.1825    1.0419 N   0  0  0  0  0 15  0  0  0  0  0  0
   62.0131   -1.6991    0.7737 C   0  0  0  0  0 15  0  0  0  0  0  0
   62.3641   -1.8308   -0.7053 C   0  0  0  0  0 15  0  0  0  0  0  0
   61.4891   -1.5112   -1.5489 O   0  0  0  0  0 15  0  0  0  0  0  0
   62.0841   -3.0862    1.3978 C   0  0  0  0  0 15  0  0  0  0  0  0
   60.6431   -3.5749    1.1779 C   0  0  0  0  0 15  0  0  0  0  0  0
   59.7901   -2.3401    1.4877 C   0  0  0  0  0 15  0  0  0  0  0  0
   62.7411   -1.0290    1.2082 H   0  0  0  0  0 15  0  0  0  0  0  0
   62.7621   -3.7196    0.8017 H   0  0  0  0  0 15  0  0  0  0  0  0
   62.2741   -2.9900    2.4743 H   0  0  0  0  0 15  0  0  0  0  0  0
   60.3751   -3.7241    0.1203 H   0  0  0  0  0 15  0  0  0  0  0  0
   60.4881   -4.4085    1.8758 H   0  0  0  0  0 15  0  0  0  0  0  0
   58.8521   -2.3799    0.9075 H   0  0  0  0  0 15  0  0  0  0  0  0
   59.6351   -2.2701    2.5753 H   0  0  0  0  0 15  0  0  0  0  0  0
   62.0802   -0.8215   -1.3449 N   0  0  0  0  0 15  0  0  0  0  0  0
   63.3282   -0.4081   -1.9794 C   0  0  0  0  0 15  0  0  0  0  0  0
   63.6492    1.0319   -1.6546 C   0  0  0  0  0 15  0  0  0  0  0  0
   62.9192    1.7162   -0.9446 O   0  0  0  0  0 15  0  0  0  0  0  0
   61.4992   -0.1479   -0.7322 H   0  0  0  0  0 15  0  0  0  0  0  0
   64.1612   -1.0507   -1.6416 H   0  0  0  0  0 15  0  0  0  0  0  0
   63.2572   -0.5260   -3.0764 H   0  0  0  0  0 15  0  0  0  0  0  0
   63.5583    1.4668   -0.5764 N   0  0  0  0  0 15  0  0  0  0  0  0
   64.8053    2.0241   -0.0595 C   0  0  0  0  0 15  0  0  0  0  0  0
   65.1333    1.4486    1.2979 C   0  0  0  0  0 15  0  0  0  0  0  0
   64.3883    0.6011    1.8624 O   0  0  0  0  0 15  0  0  0  0  0  0
   64.6873    3.5734    0.0629 C   0  0  0  0  0 15  0  0  0  0  0  0
   64.3533    4.3391   -1.2262 C   0  0  0  0  0 15  0  0  0  0  0  0
   63.0153    4.5454   -1.5793 C   0  0  0  0  0 15  0  0  0  0  0  0
   65.3673    4.7792   -2.0795 C   0  0  0  0  0 15  0  0  0  0  0  0
   62.6953    5.1644   -2.7839 C   0  0  0  0  0 15  0  0  0  0  0  0
   65.0473    5.4115   -3.2763 C   0  0  0  0  0 15  0  0  0  0  0  0
   63.7113    5.6001   -3.6324 C   0  0  0  0  0 15  0  0  0  0  0  0
   62.9813    0.7407   -0.0218 H   0  0  0  0  0 15  0  0  0  0  0  0
   65.6283    1.7613   -0.7517 H   0  0  0  0  0 15  0  0  0  0  0  0
   63.9333    3.8273    0.8382 H   0  0  0  0  0 15  0  0  0  0  0  0
   65.6303    3.9814    0.4784 H   0  0  0  0  0 15  0  0  0  0  0  0
   62.2203    4.1814   -0.9412 H   0  0  0  0  0 15  0  0  0  0  0  0
   66.4043    4.6174   -1.8197 H   0  0  0  0  0 15  0  0  0  0  0  0
   61.6603    5.2924   -3.0613 H   0  0  0  0  0 15  0  0  0  0  0  0
   65.8343    5.7421   -3.9402 H   0  0  0  0  0 15  0  0  0  0  0  0
   63.4613    6.0775   -4.5667 H   0  0  0  0  0 15  0  0  0  0  0  0
   65.0364    0.3138    1.5444 N   0  0  0  0  0 15  0  0  0  0  0  0
   65.9844   -0.5722    2.2545 C   0  0  0  0  0 15  0  0  0  0  0  0
   66.9784   -1.1266    1.2651 C   0  0  0  0  0 15  0  0  0  0  0  0
   68.1844   -1.0757    1.4432 O   0  0  0  0  0 15  0  0  0  0  0  0
   64.5594   -0.2031    0.7240 H   0  0  0  0  0 15  0  0  0  0  0  0
   66.5304    0.0491    2.9836 H   0  0  0  0  0 15  0  0  0  0  0  0
   65.2794   -1.7263    3.0182 C   0  0  0  0  0 15  0  0  0  0  0  0
   64.6024   -1.3089    3.7777 H   0  0  0  0  0 15  0  0  0  0  0  0
   66.0424   -2.3220    3.5477 H   0  0  0  0  0 15  0  0  0  0  0  0
   64.5014   -2.6381    2.0954 C   0  0  0  0  0 15  0  0  0  0  0  0
   65.0314   -3.6526    1.6719 O   0  0  0  0  0 15  0  0  0  0  0  0
   63.2374   -2.3182    1.7523 N   0  0  0  0  0 15  0  0  0  0  0  0
   62.7844   -1.4937    2.0987 H   0  0  0  0  0 15  0  0  0  0  0  0
   62.7424   -2.9309    1.1377 H   0  0  0  0  0 15  0  0  0  0  0  0
   66.5145   -1.5754    0.0418 N   0  0  0  0  0 15  0  0  0  0  0  0
   67.7605   -1.9342   -0.6292 C   0  0  0  0  0 15  0  0  0  0  0  0
   68.1155   -0.9196   -1.6900 C   0  0  0  0  0 15  0  0  0  0  0  0
   67.4085    0.0626   -1.9150 O   0  0  0  0  0 15  0  0  0  0  0  0
   67.6025   -3.3379   -1.2774 C   0  0  0  0  0 15  0  0  0  0  0  0
   67.4315   -4.4882   -0.2808 C   0  0  0  0  0 15  0  0  0  0  0  0
   66.2015   -5.0515    0.1239 C   0  0  0  0  0 15  0  0  0  0  0  0
   68.3995   -5.1215    0.4700 C   0  0  0  0  0 15  0  0  0  0  0  0
   66.3815   -6.0370    1.1143 N   0  0  0  0  0 15  0  0  0  0  0  0
   67.7525   -6.0592    1.3138 C   0  0  0  0  0 15  0  0  0  0  0  0
   69.8075   -4.9508    0.5293 C   0  0  0  0  0 15  0  0  0  0  0  0
   68.5105   -6.8446    2.2115 C   0  0  0  0  0 15  0  0  0  0  0  0
   70.5365   -5.7424    1.4145 C   0  0  0  0  0 15  0  0  0  0  0  0
   69.8985   -6.6763    2.2460 C   0  0  0  0  0 15  0  0  0  0  0  0
   65.9975   -0.7554   -0.2022 H   0  0  0  0  0 15  0  0  0  0  0  0
   68.5815   -1.9438    0.1119 H   0  0  0  0  0 15  0  0  0  0  0  0
   66.7525   -3.3364   -1.9885 H   0  0  0  0  0 15  0  0  0  0  0  0
   68.4845   -3.5699   -1.9063 H   0  0  0  0  0 15  0  0  0  0  0  0
   65.2395   -4.7292   -0.2532 H   0  0  0  0  0 15  0  0  0  0  0  0
   65.6635   -6.5767    1.6061 H   0  0  0  0  0 15  0  0  0  0  0  0
   70.3055   -4.2268   -0.0993 H   0  0  0  0  0 15  0  0  0  0  0  0
   68.0235   -7.5615    2.8506 H   0  0  0  0  0 15  0  0  0  0  0  0
   71.6095   -5.6306    1.4648 H   0  0  0  0  0 15  0  0  0  0  0  0
   70.4895   -7.2782    2.9198 H   0  0  0  0  0 15  0  0  0  0  0  0
   67.9926    0.2315   -1.5589 N   0  0  0  0  0 15  0  0  0  0  0  0
   69.2416    0.9553   -1.7764 C   0  0  0  0  0 15  0  0  0  0  0  0
   69.5546    1.8589   -0.6085 C   0  0  0  0  0 15  0  0  0  0  0  0
   70.7606    2.6207   -0.7094 O   0  0  0  0  0 15  0  0  0  0  0  0
   69.2166    1.7489   -3.1455 C   0  0  0  0  0 15  0  0  0  0  0  0
   68.8246    0.8919   -4.3903 C   0  0  0  0  0 15  0  0  0  0  0  0
   70.5686    2.4645   -3.4563 C   0  0  0  0  0 15  0  0  0  0  0  0
   68.4756    1.6822   -5.6697 C   0  0  0  0  0 15  0  0  0  0  0  0
   67.4056    0.3604   -0.6623 H   0  0  0  0  0 15  0  0  0  0  0  0
   70.0566    0.2095   -1.8230 H   0  0  0  0  0 15  0  0  0  0  0  0
   68.4386    2.5372   -3.0404 H   0  0  0  0  0 15  0  0  0  0  0  0
   69.6126    0.1448   -4.6057 H   0  0  0  0  0 15  0  0  0  0  0  0
   67.9276    0.2889   -4.1540 H   0  0  0  0  0 15  0  0  0  0  0  0
   70.5246    3.0606   -4.3844 H   0  0  0  0  0 15  0  0  0  0  0  0
   70.8676    3.1884   -2.6767 H   0  0  0  0  0 15  0  0  0  0  0  0
   71.4006    1.7461   -3.5743 H   0  0  0  0  0 15  0  0  0  0  0  0
   68.1396    1.0018   -6.4780 H   0  0  0  0  0 15  0  0  0  0  0  0
   67.6596    2.4042   -5.4951 H   0  0  0  0  0 15  0  0  0  0  0  0
   69.3386    2.2454   -6.0679 H   0  0  0  0  0 15  0  0  0  0  0  0
   69.4707    1.4953    0.4978 N   0  0  0  0  0 15  0  0  0  0  0  0
   70.4337    1.6592    1.5813 C   0  0  0  0  0 15  0  0  0  0  0  0
   71.4337    0.5308    1.5179 C   0  0  0  0  0 15  0  0  0  0  0  0
   72.6237    0.7973    1.5488 O   0  0  0  0  0 15  0  0  0  0  0  0
   69.7557    1.6595    2.9778 C   0  0  0  0  0 15  0  0  0  0  0  0
   70.9487    2.6256    1.4493 H   0  0  0  0  0 15  0  0  0  0  0  0
   68.5017    1.3861    0.7223 H   0  0  0  0  0 15  0  0  0  0  0  0
   69.2367    0.7091    3.1645 H   0  0  0  0  0 15  0  0  0  0  0  0
   69.0217    2.4790    3.0379 H   0  0  0  0  0 15  0  0  0  0  0  0
   70.5117    1.8067    3.7649 H   0  0  0  0  0 15  0  0  0  0  0  0
   70.9488   -0.7491    1.3866 N   0  0  0  0  0 15  0  0  0  0  0  0
   71.8788   -1.8764    1.3897 C   0  0  0  0  0 15  0  0  0  0  0  0
   72.8598   -1.6818    0.2550 C   0  0  0  0  0 15  0  0  0  0  0  0
   74.0448   -1.8870    0.4588 O   0  0  0  0  0 15  0  0  0  0  0  0
   71.1748   -3.2522    1.2185 C   0  0  0  0  0 15  0  0  0  0  0  0
   70.1288   -3.5929    2.3258 C   0  0  0  0  0 15  0  0  0  0  0  0
   69.4548   -4.9566    2.0055 C   0  0  0  0  0 15  0  0  0  0  0  0
   70.7548   -3.6371    3.7485 C   0  0  0  0  0 15  0  0  0  0  0  0
   72.4488   -1.8763    2.3331 H   0  0  0  0  0 15  0  0  0  0  0  0
   69.9948   -0.9013    1.1230 H   0  0  0  0  0 15  0  0  0  0  0  0
   71.9478   -4.0375    1.2069 H   0  0  0  0  0 15  0  0  0  0  0  0
   70.6718   -3.2572    0.2398 H   0  0  0  0  0 15  0  0  0  0  0  0
   69.3308   -2.8309    2.3292 H   0  0  0  0  0 15  0  0  0  0  0  0
   68.9788   -4.9272    1.0115 H   0  0  0  0  0 15  0  0  0  0  0  0
   68.6788   -5.1943    2.7471 H   0  0  0  0  0 15  0  0  0  0  0  0
   70.2028   -5.7656    2.0102 H   0  0  0  0  0 15  0  0  0  0  0  0
   71.6168   -4.3234    3.7651 H   0  0  0  0  0 15  0  0  0  0  0  0
   70.0138   -3.9899    4.4825 H   0  0  0  0  0 15  0  0  0  0  0  0
   71.0838   -2.6383    4.0684 H   0  0  0  0  0 15  0  0  0  0  0  0
   72.4269   -1.2360   -0.9778 N   0  0  0  0  0 15  0  0  0  0  0  0
   73.6749   -1.0676   -1.7160 C   0  0  0  0  0 15  0  0  0  0  0  0
   73.9959    0.3959   -1.9094 C   0  0  0  0  0 15  0  0  0  0  0  0
   73.2659    1.2836   -1.4799 O   0  0  0  0  0 15  0  0  0  0  0  0
   71.8459   -0.3921   -0.6358 H   0  0  0  0  0 15  0  0  0  0  0  0
   74.5079   -1.5536   -1.1768 H   0  0  0  0  0 15  0  0  0  0  0  0
   73.6039   -1.5576   -2.7045 H   0  0  0  0  0 15  0  0  0  0  0  0
   73.9050    1.1769   -1.0482 N   0  0  0  0  0 15  0  0  0  0  0  0
   74.8680    2.1979   -0.6501 C   0  0  0  0  0 15  0  0  0  0  0  0
   75.8680    1.5804    0.2964 C   0  0  0  0  0 15  0  0  0  0  0  0
   77.0580    1.7401    0.0808 O   0  0  0  0  0 15  0  0  0  0  0  0
   74.1900    3.4087    0.0457 C   0  0  0  0  0 15  0  0  0  0  0  0
   75.3830    2.5652   -1.5537 H   0  0  0  0  0 15  0  0  0  0  0  0
   72.9360    1.3171   -0.8416 H   0  0  0  0  0 15  0  0  0  0  0  0
   73.6710    3.0968    0.9627 H   0  0  0  0  0 15  0  0  0  0  0  0
   73.4560    3.8693   -0.6347 H   0  0  0  0  0 15  0  0  0  0  0  0
   74.9460    4.1644    0.3104 H   0  0  0  0  0 15  0  0  0  0  0  0
   75.3831    0.8287    1.3406 N   0  0  0  0  0 15  0  0  0  0  0  0
   76.3461    0.2599    2.2772 C   0  0  0  0  0 15  0  0  0  0  0  0
   77.3461   -0.5655    1.5053 C   0  0  0  0  0 15  0  0  0  0  0  0
   78.5361   -0.3807    1.6999 O   0  0  0  0  0 15  0  0  0  0  0  0
   75.6681   -0.6349    3.3493 C   0  0  0  0  0 15  0  0  0  0  0  0
   76.8611    1.0863    2.7953 H   0  0  0  0  0 15  0  0  0  0  0  0
   74.4141    0.6010    1.4429 H   0  0  0  0  0 15  0  0  0  0  0  0
   75.1491   -1.4842    2.8835 H   0  0  0  0  0 15  0  0  0  0  0  0
   74.9341   -0.0445    3.9207 H   0  0  0  0  0 15  0  0  0  0  0  0
   76.4241   -1.0265    4.0479 H   0  0  0  0  0 15  0  0  0  0  0  0
   76.8612   -1.4637    0.5841 N   0  0  0  0  0 15  0  0  0  0  0  0
   77.8082   -2.3032   -0.1483 C   0  0  0  0  0 15  0  0  0  0  0  0
   78.7782   -1.4070   -0.8827 C   0  0  0  0  0 15  0  0  0  0  0  0
   79.9632   -1.6965   -0.8731 O   0  0  0  0  0 15  0  0  0  0  0  0
   77.1032   -3.2520   -1.1551 C   0  0  0  0  0 15  0  0  0  0  0  0
   76.2162   -4.2991   -0.4239 C   0  0  0  0  0 15  0  0  0  0  0  0
   75.3512   -5.1191   -1.4184 C   0  0  0  0  0 15  0  0  0  0  0  0
   74.3902   -6.0838   -0.6737 C   0  0  0  0  0 15  0  0  0  0  0  0
   73.5272   -6.8324   -1.6163 N   0  0  0  0  0 15  0  0  0  0  0  0
   78.3672   -2.9243    0.5736 H   0  0  0  0  0 15  0  0  0  0  0  0
   75.9042   -1.4412    0.2947 H   0  0  0  0  0 15  0  0  0  0  0  0
   77.8622   -3.7865   -1.7517 H   0  0  0  0  0 15  0  0  0  0  0  0
   76.4922   -2.6490   -1.8447 H   0  0  0  0  0 15  0  0  0  0  0  0
   75.5442   -3.7931    0.2877 H   0  0  0  0  0 15  0  0  0  0  0  0
   76.8562   -4.9855    0.1581 H   0  0  0  0  0 15  0  0  0  0  0  0
   76.0102   -5.6965   -2.0877 H   0  0  0  0  0 15  0  0  0  0  0  0
   74.7492   -4.4324   -2.0344 H   0  0  0  0  0 15  0  0  0  0  0  0
   73.7542   -5.4980    0.0094 H   0  0  0  0  0 15  0  0  0  0  0  0
   74.9792   -6.7907   -0.0631 H   0  0  0  0  0 15  0  0  0  0  0  0
   72.9252   -6.1728   -2.2204 H   0  0  0  0  0 15  0  0  0  0  0  0
   72.8422   -7.4814   -1.0871 H   0  0  0  0  0 15  0  0  0  0  0  0
   74.1102   -7.4553   -2.2760 H   0  0  0  0  0 15  0  0  0  0  0  0
   78.3393   -0.3220   -1.5428 N   0  0  0  0  0 15  0  0  0  0  0  0
   79.5643    0.2858   -2.0542 C   0  0  0  0  0 15  0  0  0  0  0  0
   79.9893    1.4512   -1.1967 C   0  0  0  0  0 15  0  0  0  0  0  0
   79.3473    1.8013   -0.2054 O   0  0  0  0  0 15  0  0  0  0  0  0
   79.3953    0.6996   -3.5375 C   0  0  0  0  0 15  0  0  0  0  0  0
   78.4993    1.8021   -3.7094 O   0  0  0  0  0 15  0  0  0  0  0  0
   77.8403    0.0519   -0.6620 H   0  0  0  0  0 15  0  0  0  0  0  0
   80.3703   -0.4700   -1.9913 H   0  0  0  0  0 15  0  0  0  0  0  0
   80.3803    0.9826   -3.9599 H   0  0  0  0  0 15  0  0  0  0  0  0
   79.0553   -0.1529   -4.1562 H   0  0  0  0  0 15  0  0  0  0  0  0
   77.6323    1.5179   -3.4061 H   0  0  0  0  0 15  0  0  0  0  0  0
   79.8174    1.5752   -0.0501 N   0  0  0  0  0 15  0  0  0  0  0  0
   80.7804    2.1037    0.9098 C   0  0  0  0  0 15  0  0  0  0  0  0
   81.7804    1.0231    1.2406 C   0  0  0  0  0 15  0  0  0  0  0  0
   82.9704    1.2838    1.1774 O   0  0  0  0  0 15  0  0  0  0  0  0
   80.1024    2.5871    2.2200 C   0  0  0  0  0 15  0  0  0  0  0  0
   81.2954    2.9648    0.4517 H   0  0  0  0  0 15  0  0  0  0  0  0
   78.8484    1.5504    0.1982 H   0  0  0  0  0 15  0  0  0  0  0  0
   79.5834    1.7599    2.7239 H   0  0  0  0  0 15  0  0  0  0  0  0
   79.3684    3.3767    1.9929 H   0  0  0  0  0 15  0  0  0  0  0  0
   80.8584    2.9975    2.9076 H   0  0  0  0  0 15  0  0  0  0  0  0
   81.2955   -0.2232    1.5601 N   0  0  0  0  0 15  0  0  0  0  0  0
   82.2585   -1.2601    1.9145 C   0  0  0  0  0 15  0  0  0  0  0  0
   83.2585   -1.3989    0.7929 C   0  0  0  0  0 15  0  0  0  0  0  0
   84.4485   -1.3818    1.0607 O   0  0  0  0  0 15  0  0  0  0  0  0
   81.5805   -2.6342    2.1638 C   0  0  0  0  0 15  0  0  0  0  0  0
   82.7735   -0.9580    2.8419 H   0  0  0  0  0 15  0  0  0  0  0  0
   80.3265   -0.4636    1.4927 H   0  0  0  0  0 15  0  0  0  0  0  0
   81.0615   -2.9874    1.2619 H   0  0  0  0  0 15  0  0  0  0  0  0
   80.8465   -2.5473    2.9809 H   0  0  0  0  0 15  0  0  0  0  0  0
   82.3365   -3.3825    2.4490 H   0  0  0  0  0 15  0  0  0  0  0  0
   82.7736   -1.4979   -0.4899 N   0  0  0  0  0 15  0  0  0  0  0  0
   83.7206   -1.6728   -1.5901 C   0  0  0  0  0 15  0  0  0  0  0  0
   84.6906   -0.5142   -1.5794 C   0  0  0  0  0 15  0  0  0  0  0  0
   85.8756   -0.7425   -1.7576 O   0  0  0  0  0 15  0  0  0  0  0  0
   83.0156   -1.7557   -2.9710 C   0  0  0  0  0 15  0  0  0  0  0  0
   82.1286   -3.0281   -3.0811 C   0  0  0  0  0 15  0  0  0  0  0  0
   81.2636   -3.0201   -4.3700 C   0  0  0  0  0 15  0  0  0  0  0  0
   80.3026   -4.2378   -4.4167 C   0  0  0  0  0 15  0  0  0  0  0  0
   79.4396   -4.2083   -5.6201 N   0  0  0  0  0 15  0  0  0  0  0  0
   84.2796   -2.6122   -1.4341 H   0  0  0  0  0 15  0  0  0  0  0  0
   81.8166   -1.2951   -0.6976 H   0  0  0  0  0 15  0  0  0  0  0  0
   83.7746   -1.7835   -3.7715 H   0  0  0  0  0 15  0  0  0  0  0  0
   82.4046   -0.8508   -3.1139 H   0  0  0  0  0 15  0  0  0  0  0  0
   81.4566   -3.0958   -2.2105 H   0  0  0  0  0 15  0  0  0  0  0  0
   82.7686   -3.9280   -3.0742 H   0  0  0  0  0 15  0  0  0  0  0  0
   81.9226   -3.0342   -5.2538 H   0  0  0  0  0 15  0  0  0  0  0  0
   80.6616   -2.0981   -4.4026 H   0  0  0  0  0 15  0  0  0  0  0  0
   79.6666   -4.2260   -3.5169 H   0  0  0  0  0 15  0  0  0  0  0  0
   80.8916   -5.1718   -4.4011 H   0  0  0  0  0 15  0  0  0  0  0  0
   78.8376   -3.3148   -5.6609 H   0  0  0  0  0 15  0  0  0  0  0  0
   78.7546   -5.0456   -5.6298 H   0  0  0  0  0 15  0  0  0  0  0  0
   80.0226   -4.2636   -6.5257 H   0  0  0  0  0 15  0  0  0  0  0  0
   84.2906    0.6353   -1.4848 O   0  0  0  0  0 15  0  0  0  0  0  0
   84.9816    1.2892   -1.4456 H   0  0  0  0  0 15  0  0  0  0  0  0
M  END
$$$$
