drugbank_target|P27361 Mitogen-activated protein kinase 3 (DB00605; DB01169; DB02733; DB04604; DB06195; DB08862; DB13930)
 OpenBabel12092119473D

  0  0  0     0  0            999 V3000
M  V30 BEGIN CTAB
M  V30 COUNTS 6074 6143 0 0 0
M  V30 BEGIN ATOM
M  V30 1 H -0.908 1.98254 -0.117106 0
M  V30 2 N 0 1.576 0 0
M  V30 3 C 0.933 2.03868 1.02534 0
M  V30 4 C 1.911 0.928543 1.3348 0
M  V30 5 O 3.095 1.19667 1.45644 0
M  V30 6 C 0.222 2.43627 2.35294 0
M  V30 7 C -0.732 3.65373 2.2001 0
M  V30 8 S 0.101 5.13292 1.52614 0
M  V30 9 C 1.257 5.56322 2.86805 0
M  V30 10 H 1.49 2.90518 0.631377 0
M  V30 11 H -0.977 1.52953 0.210867 0
M  V30 12 H 0.981 2.67203 3.11629 0
M  V30 13 H -0.358 1.57376 2.7183 0
M  V30 14 H -1.165 3.90944 3.18086 0
M  V30 15 H -1.563 3.418 1.51819 0
M  V30 16 H 0.729 5.58782 3.83104 0
M  V30 17 H 1.672 6.56266 2.65933 0
M  V30 18 H 2.08 4.83886 2.90714 0
M  V30 19 N 1.4781 -0.272755 1.55222 0
M  V30 20 C 2.4411 -1.32041 1.87344 0
M  V30 21 C 3.4411 -1.42342 0.74803 0
M  V30 22 O 4.6311 -1.41488 1.0162 0
M  V30 23 C 1.7631 -2.70173 2.07893 0
M  V30 24 H 2.9561 -1.04789 2.80997 0
M  V30 25 H 0.5091 -0.51083 1.47717 0
M  V30 26 H 1.2441 -3.02605 1.16622 0
M  V30 27 H 1.0291 -2.64082 2.89833 0
M  V30 28 H 2.5191 -3.45869 2.34017 0
M  V30 29 N 2.9562 -1.48159 -0.537278 0
M  V30 30 C 3.9192 -1.61665 -1.62472 0
M  V30 31 C 4.9192 -0.490395 -1.5314 0
M  V30 32 O 6.1092 -0.755998 -1.5694 0
M  V30 33 C 3.2412 -1.57997 -3.02076 0
M  V30 34 H 4.4342 -2.58621 -1.51839 0
M  V30 35 H 1.9872 -1.36647 -0.758771 0
M  V30 36 H 2.7222 -0.624913 -3.18222 0
M  V30 37 H 2.5072 -2.39755 -3.10258 0
M  V30 38 H 3.9972 -1.70627 -3.81151 0
M  V30 39 N 4.4343 0.785586 -1.36625 0
M  V30 40 C 5.3973 1.87999 -1.31107 0
M  V30 41 C 6.3973 1.59316 -0.217959 0
M  V30 42 O 7.5873 1.67656 -0.472977 0
M  V30 43 C 4.7193 3.24861 -1.03334 0
M  V30 44 H 5.9123 1.94307 -2.2844 0
M  V30 45 H 3.4653 0.983813 -1.21453 0
M  V30 46 H 4.2003 3.24235 -0.0647432 0
M  V30 47 H 3.9853 3.4707 -1.82441 0
M  V30 48 H 5.4753 4.04929 -1.02088 0
M  V30 49 N 5.9124 1.20967 1.01018 0
M  V30 50 C 6.8754 0.965918 2.07853 0
M  V30 51 C 7.8754 -0.0610545 1.60684 0
M  V30 52 O 9.0654 0.175681 1.73312 0
M  V30 53 C 6.1974 0.455513 3.37843 0
M  V30 54 H 7.3904 1.91365 2.3091 0
M  V30 55 H 4.9434 1.02594 1.17916 0
M  V30 56 H 5.6784 -0.497381 3.20463 0
M  V30 57 H 5.4634 1.19622 3.73407 0
M  V30 58 H 6.9534 0.304667 4.16487 0
M  V30 59 N 7.3905 -1.2043 1.01659 0
M  V30 60 C 8.3535 -2.21433 0.591616 0
M  V30 61 C 9.3535 -1.57203 -0.338226 0
M  V30 62 O 10.5435 -1.73737 -0.126918 0
M  V30 63 C 7.6755 -3.40628 -0.136058 0
M  V30 64 H 8.8685 -2.60545 1.48514 0
M  V30 65 H 6.4215 -1.33893 0.806379 0
M  V30 66 H 7.1565 -3.07019 -1.04449 0
M  V30 67 H 6.9415 -3.88475 0.531917 0
M  V30 68 H 8.4315 -4.15475 -0.420735 0
M  V30 69 N 8.8686 -0.792821 -1.36206 0
M  V30 70 C 9.8006 -0.151469 -2.28699 0
M  V30 71 C 10.8136 0.641262 -1.49638 0
M  V30 72 O 12.0026 0.475885 -1.72039 0
M  V30 73 C 9.1026 0.808424 -3.29117 0
M  V30 74 C 8.2756 0.0650202 -4.37352 0
M  V30 75 C 7.3346 0.941358 -5.17711 0
M  V30 76 O 6.3606 0.397352 -5.67811 0
M  V30 77 N 7.5626 2.2652 -5.3448 0
M  V30 78 H 10.3276 -0.945982 -2.84379 0
M  V30 79 H 7.8886 -0.647032 -1.48409 0
M  V30 80 H 9.8806 1.3986 -3.79765 0
M  V30 81 H 8.4506 1.5038 -2.74052 0
M  V30 82 H 7.6706 -0.706255 -3.87822 0
M  V30 83 H 8.9586 -0.447847 -5.06825 0
M  V30 84 H 8.3566 2.73128 -4.95396 0
M  V30 85 H 6.9136 2.80493 -5.88359 0
M  V30 86 N 10.3467 1.47872 -0.545128 0
M  V30 87 C 11.5947 2.02093 -0.016553 0
M  V30 88 C 11.9157 1.42305 1.3332 0
M  V30 89 O 11.1857 0.593853 1.86682 0
M  V30 90 H 9.7657 0.746993 -0.00313038 0
M  V30 91 H 12.4277 1.81414 -0.712397 0
M  V30 92 H 11.5237 3.11996 0.0805422 0
M  V30 93 N 11.8248 0.280983 1.55075 0
M  V30 94 C 13.0728 -0.333455 1.9933 0
M  V30 95 C 13.3938 -1.55937 1.17085 0
M  V30 96 O 12.6638 -1.94143 0.261805 0
M  V30 97 H 11.2438 -0.126197 0.736263 0
M  V30 98 H 13.9058 0.387678 1.91005 0
M  V30 99 H 13.0018 -0.619292 3.05894 0
M  V30 100 N 13.3029 -1.57598 0.00835791 0
M  V30 101 C 14.5509 -1.90551 -0.6734 0
M  V30 102 C 14.8719 -0.883301 -1.73847 0
M  V30 103 O 14.1419 0.0781442 -1.95744 0
M  V30 104 H 12.7219 -0.703312 -0.251717 0
M  V30 105 H 15.3839 -1.94833 0.0512592 0
M  V30 106 H 14.4799 -2.9056 -1.13935 0
M  V30 107 N 14.781 0.264519 -1.55364 0
M  V30 108 C 16.029 0.993021 -1.76021 0
M  V30 109 C 16.35 1.86511 -0.569099 0
M  V30 110 O 15.62 1.91438 0.415735 0
M  V30 111 H 14.2 0.369639 -0.649135 0
M  V30 112 H 16.862 0.286707 -1.9278 0
M  V30 113 H 15.958 1.62502 -2.66457 0
M  V30 114 N 16.2591 1.48442 0.529413 0
M  V30 115 C 17.5071 1.56179 1.28267 0
M  V30 116 C 17.8281 0.237721 1.93546 0
M  V30 117 O 17.0981 -0.740779 1.81354 0
M  V30 118 H 15.6781 0.575367 0.476405 0
M  V30 119 H 18.3401 1.84909 0.61602 0
M  V30 120 H 17.4361 2.34312 2.06165 0
M  V30 121 N 17.7372 -0.778329 1.37039 0
M  V30 122 C 18.6472 -1.92253 1.34446 0
M  V30 123 C 19.6632 -1.72267 0.244991 0
M  V30 124 O 20.8392 -1.95615 0.479258 0
M  V30 125 C 17.9042 -3.27282 1.144 0
M  V30 126 C 16.9652 -3.59969 2.33925 0
M  V30 127 C 16.1982 -4.88555 2.14825 0
M  V30 128 O 16.4212 -5.59113 1.12912 0
M  V30 129 O 15.3552 -5.20153 3.02861 0
M  V30 130 H 19.1812 -1.97392 2.30803 0
M  V30 131 H 16.7662 -0.920154 1.17701 0
M  V30 132 H 18.6482 -4.08062 1.05182 0
M  V30 133 H 17.3232 -3.23011 0.211124 0
M  V30 134 H 16.2302 -2.7945 2.48714 0
M  V30 135 H 17.5632 -3.68976 3.25757 0
M  V30 136 N 19.2153 -1.21501 -1.00376 0
M  V30 137 C 20.6263 -1.03146 -1.55621 0
M  V30 138 C 20.9773 0.408375 -1.91903 0
M  V30 139 O 20.1023 1.29177 -1.73616 0
M  V30 140 C 20.6973 -1.86612 -2.82775 0
M  V30 141 C 19.2563 -1.72586 -3.34501 0
M  V30 142 C 18.4033 -1.83747 -2.07683 0
M  V30 143 H 21.3543 -1.35505 -0.826081 0
M  V30 144 H 21.3753 -1.3771 -3.54706 0
M  V30 145 H 20.8873 -2.91399 -2.56336 0
M  V30 146 H 18.9883 -0.704877 -3.65872 0
M  V30 147 H 19.1013 -2.54623 -4.05837 0
M  V30 148 H 17.4653 -1.27069 -2.20739 0
M  V30 149 H 18.2483 -2.90044 -1.83655 0
M  V30 150 N 20.6934 1.19889 -1.02296 0
M  V30 151 C 22.1094 1.41462 -0.738954 0
M  V30 152 C 22.3094 1.89721 0.678846 0
M  V30 153 O 21.3654 2.07016 1.4457 0
M  V30 154 C 22.6784 2.43083 -1.77005 0
M  V30 155 C 24.2264 2.5684 -1.78892 0
M  V30 156 C 24.7014 3.61709 -2.80945 0
M  V30 157 N 26.1924 3.69199 -2.79725 0
M  V30 158 C 26.9274 4.50019 -3.55345 0
M  V30 159 N 26.4234 5.34592 -4.40662 0
M  V30 160 N 28.2164 4.44612 -3.43914 0
M  V30 161 H 20.3674 0.868827 -1.93817 0
M  V30 162 H 22.6304 0.44399 -0.837602 0
M  V30 163 H 22.3364 2.14636 -2.78612 0
M  V30 164 H 22.2104 3.4217 -1.58744 0
M  V30 165 H 24.5974 2.84614 -0.779674 0
M  V30 166 H 24.6784 1.57927 -2.01228 0
M  V30 167 H 24.3224 3.34678 -3.82038 0
M  V30 168 H 24.2524 4.60259 -2.5587 0
M  V30 169 H 26.7434 3.08794 -2.17842 0
M  V30 170 H 27.0564 5.93363 -4.95116 0
M  V30 171 H 25.4014 5.34073 -4.44737 0
M  V30 172 H 28.5924 3.7758 -2.76679 0
M  V30 173 H 28.7654 5.0736 -4.031 0
M  V30 174 N 22.1715 0.800033 1.35784 0
M  V30 175 C 23.5875 0.482977 1.52117 0
M  V30 176 C 23.7875 -0.996948 1.75109 0
M  V30 177 O 22.8435 -1.78216 1.78872 0
M  V30 178 C 24.1565 1.32264 2.70049 0
M  V30 179 C 25.7045 1.31742 2.83924 0
M  V30 180 C 26.1795 2.14106 4.04874 0
M  V30 181 N 27.6705 2.11607 4.12039 0
M  V30 182 C 28.4055 2.72099 5.04727 0
M  V30 183 N 27.9015 3.41492 6.02789 0
M  V30 184 N 29.6945 2.61776 4.97423 0
M  V30 185 H 21.8455 1.75856 1.19115 0
M  V30 186 H 24.1085 0.748122 0.582252 0
M  V30 187 H 23.8145 2.37261 2.59616 0
M  V30 188 H 23.6885 0.971303 3.6448 0
M  V30 189 H 26.0755 0.275333 2.93813 0
M  V30 190 H 26.1565 1.70859 1.9037 0
M  V30 191 H 25.8005 3.18351 3.95746 0
M  V30 192 H 25.7305 1.72353 4.97596 0
M  V30 193 H 28.2215 1.61112 3.41835 0
M  V30 194 H 28.5345 3.84953 6.70098 0
M  V30 195 H 26.8795 3.45596 6.02983 0
M  V30 196 H 30.0705 2.07157 4.19766 0
M  V30 197 H 30.2435 3.0921 5.69468 0
M  V30 198 N 23.6496 -1.47581 0.552962 0
M  V30 199 C 24.8776 -2.06875 0.0320556 0
M  V30 200 C 25.2926 -1.40625 -1.25976 0
M  V30 201 O 24.6496 -0.501349 -1.75479 0
M  V30 202 C 24.7006 -3.61092 -0.17167 0
M  V30 203 O 24.4216 -4.24858 1.06899 0
M  V30 204 C 25.9226 -4.37242 -0.730344 0
M  V30 205 H 23.1426 -0.669561 0.043915 0
M  V30 206 H 25.6866 -1.89646 0.765163 0
M  V30 207 H 23.8416 -3.7785 -0.854894 0
M  V30 208 H 24.2556 -5.17334 0.864059 0
M  V30 209 H 25.7296 -5.45842 -0.822203 0
M  V30 210 H 26.2066 -4.03235 -1.74064 0
M  V30 211 H 26.8126 -4.25219 -0.0829543 0
M  V30 212 N 25.1277 -0.289203 -1.54924 0
M  V30 213 C 26.0377 0.601863 -2.26748 0
M  V30 214 C 27.0537 1.15834 -1.2984 0
M  V30 215 O 28.2297 1.18564 -1.62802 0
M  V30 216 C 25.2947 1.76299 -2.98529 0
M  V30 217 C 24.3557 1.24178 -4.10948 0
M  V30 218 C 23.5887 2.34757 -4.79296 0
M  V30 219 O 23.8117 3.54411 -4.46933 0
M  V30 220 O 22.7457 2.02115 -5.66951 0
M  V30 221 H 26.5717 0.0195879 -3.03694 0
M  V30 222 H 24.1567 -0.0560868 -1.49295 0
M  V30 223 H 26.0387 2.43973 -3.43592 0
M  V30 224 H 24.7137 2.33209 -2.24488 0
M  V30 225 H 23.6207 0.531104 -3.70311 0
M  V30 226 H 24.9537 0.718252 -4.86931 0
M  V30 227 N 26.6058 1.57591 -0.0167156 0
M  V30 228 C 27.8538 1.90906 0.663285 0
M  V30 229 C 28.1748 0.892509 1.73376 0
M  V30 230 O 27.4448 -0.0677623 1.95783 0
M  V30 231 H 26.0248 0.704637 0.247983 0
M  V30 232 H 28.6868 1.94803 -0.0615909 0
M  V30 233 H 27.7828 2.9116 1.12393 0
M  V30 234 N 28.0839 -0.256276 1.55502 0
M  V30 235 C 29.3299 -0.987079 1.77157 0
M  V30 236 C 29.6629 -1.85327 0.580315 0
M  V30 237 O 28.9379 -1.89874 -0.421686 0
M  V30 238 C 29.2209 -1.85553 3.08613 0
M  V30 239 C 29.0739 -1.01816 4.38125 0
M  V30 240 C 30.3929 -2.8397 3.36228 0
M  V30 241 H 27.5119 -0.357428 0.644526 0
M  V30 242 H 30.1539 -0.258239 1.88237 0
M  V30 243 H 28.3039 -2.47695 2.99298 0
M  V30 244 H 29.9759 -0.416159 4.59419 0
M  V30 245 H 28.2189 -0.322178 4.32602 0
M  V30 246 H 28.8899 -1.65939 5.26468 0
M  V30 247 H 31.3659 -2.31964 3.45445 0
M  V30 248 H 30.2419 -3.41864 4.29442 0
M  V30 249 H 30.5029 -3.59955 2.56681 0
M  V30 250 N 29.562 -1.4872 -0.521534 0
M  V30 251 C 30.81 -1.56857 -1.27437 0
M  V30 252 C 31.131 -0.247982 -1.93417 0
M  V30 253 O 30.401 0.731151 -1.81744 0
M  V30 254 H 28.981 -0.577885 -0.473347 0
M  V30 255 H 31.643 -1.85233 -0.606205 0
M  V30 256 H 30.739 -2.35402 -2.0492 0
M  V30 257 N 31.0401 0.771051 -1.3745 0
M  V30 258 C 32.4511 1.34737 -1.29239 0
M  V30 259 C 32.8021 1.96109 0.0596908 0
M  V30 260 O 31.9271 1.93865 0.961534 0
M  V30 261 C 32.5221 2.44973 -2.34037 0
M  V30 262 C 31.0811 2.98372 -2.29458 0
M  V30 263 C 30.2281 1.71595 -2.17831 0
M  V30 264 H 33.1791 0.571256 -1.48062 0
M  V30 265 H 33.2001 3.24471 -1.98744 0
M  V30 266 H 32.7121 2.00276 -3.32432 0
M  V30 267 H 30.8131 3.47443 -1.34589 0
M  V30 268 H 30.9261 3.53939 -3.229 0
M  V30 269 H 29.2901 1.94547 -1.64388 0
M  V30 270 H 30.0731 1.29001 -3.18141 0
M  V30 271 N 32.5182 1.22032 0.997298 0
M  V30 272 C 33.7662 1.04016 1.73278 0
M  V30 273 C 34.0872 -0.426255 1.90284 0
M  V30 274 O 33.3572 -1.30694 1.45931 0
M  V30 275 H 31.9372 0.381897 0.642 0
M  V30 276 H 34.5992 1.5347 1.20137 0
M  V30 277 H 33.6952 1.51441 2.72896 0
M  V30 278 N 33.9963 -1.19345 1.0293 0
M  V30 279 C 35.2423 -1.89318 0.727083 0
M  V30 280 C 35.5753 -1.79446 -0.742483 0
M  V30 281 O 34.8503 -1.1871 -1.54072 0
M  V30 282 C 35.1333 -3.40238 1.17942 0
M  V30 283 C 34.9863 -3.58979 2.71024 0
M  V30 284 C 36.3053 -4.33479 0.760548 0
M  V30 285 H 33.4243 -0.687475 0.265606 0
M  V30 286 H 36.0663 -1.40477 1.2793 0
M  V30 287 H 34.2163 -3.81964 0.709608 0
M  V30 288 H 35.8883 -3.26421 3.25955 0
M  V30 289 H 34.1313 -3.02018 3.11396 0
M  V30 290 H 34.8023 -4.64823 2.9773 0
M  V30 291 H 37.2783 -3.99469 1.16464 0
M  V30 292 H 36.1543 -5.37664 1.10493 0
M  V30 293 H 36.4153 -4.40813 -0.337063 0
M  V30 294 N 35.4744 -0.807222 -1.35358 0
M  V30 295 C 36.8854 -0.44876 -1.81226 0
M  V30 296 C 37.2364 1.02929 -1.67033 0
M  V30 297 O 36.3614 1.79991 -1.20133 0
M  V30 298 C 36.9564 -0.807774 -3.2903 0
M  V30 299 C 35.5154 -0.501901 -3.73039 0
M  V30 300 C 34.6624 -1.03304 -2.57339 0
M  V30 301 H 37.6134 -0.998808 -1.23327 0
M  V30 302 H 37.6344 -0.10554 -3.80354 0
M  V30 303 H 37.1464 -1.88357 -3.39328 0
M  V30 304 H 35.2474 0.565128 -3.68289 0
M  V30 305 H 35.3604 -1.03497 -4.67787 0
M  V30 306 H 33.7244 -0.455339 -2.50597 0
M  V30 307 H 34.5074 -2.11496 -2.70415 0
M  V30 308 N 36.9525 1.47285 -0.560781 0
M  V30 309 C 38.2005 2.02064 -0.0379868 0
M  V30 310 C 38.5215 1.43711 1.31803 0
M  V30 311 O 37.7915 0.61362 1.86042 0
M  V30 312 H 36.3715 0.746918 -0.0110531 0
M  V30 313 H 39.0335 1.80648 -0.731598 0
M  V30 314 H 38.1295 3.12064 0.0474463 0
M  V30 315 N 38.4306 0.297415 1.54768 0
M  V30 316 C 39.3406 -0.58983 2.27064 0
M  V30 317 C 40.3566 -1.15144 1.30453 0
M  V30 318 O 41.5326 -1.17699 1.63428 0
M  V30 319 C 38.5976 -1.74714 2.9946 0
M  V30 320 C 37.6586 -1.21997 4.11601 0
M  V30 321 C 36.8916 -2.32212 4.80535 0
M  V30 322 O 37.1146 -3.52036 4.48806 0
M  V30 323 O 36.0486 -1.99106 5.68014 0
M  V30 324 H 39.8746 -0.00348199 3.037 0
M  V30 325 H 37.4596 0.0640035 1.49263 0
M  V30 326 H 39.3416 -2.42147 3.44881 0
M  V30 327 H 38.0166 -2.32016 2.25722 0
M  V30 328 H 36.9236 -0.511458 3.70587 0
M  V30 329 H 38.2566 -0.692419 4.87305 0
M  V30 330 N 39.9087 -1.5758 0.0250728 0
M  V30 331 C 41.1547 -1.91917 -0.655413 0
M  V30 332 C 41.4877 -0.901433 -1.72011 0
M  V30 333 O 40.7627 0.0764069 -1.9435 0
M  V30 334 C 41.0457 -3.36751 -1.27558 0
M  V30 335 C 40.8987 -4.49258 -0.220719 0
M  V30 336 C 42.2177 -3.81469 -2.19475 0
M  V30 337 H 39.3367 -0.697925 -0.23679 0
M  V30 338 H 41.9787 -1.89825 0.0815036 0
M  V30 339 H 40.1287 -3.38664 -1.90365 0
M  V30 340 H 41.8007 -4.59478 0.409601 0
M  V30 341 H 40.0437 -4.31415 0.454264 0
M  V30 342 H 40.7147 -5.47618 -0.694175 0
M  V30 343 H 43.1907 -3.81266 -1.66659 0
M  V30 344 H 42.0667 -4.83512 -2.59822 0
M  V30 345 H 42.3277 -3.16744 -3.08424 0
M  V30 346 N 41.3868 0.248026 -1.55636 0
M  V30 347 C 42.2968 1.32859 -1.93354 0
M  V30 348 C 43.3128 1.52719 -0.833838 0
M  V30 349 O 44.4888 1.66363 -1.13513 0
M  V30 350 C 41.5538 2.66337 -2.21958 0
M  V30 351 C 40.6148 2.55008 -3.45354 0
M  V30 352 C 39.8478 3.82121 -3.72584 0
M  V30 353 O 40.0708 4.83951 -3.01907 0
M  V30 354 O 39.0048 3.80822 -4.6611 0
M  V30 355 H 42.8308 1.03862 -2.85388 0
M  V30 356 H 40.4158 0.448686 -1.42503 0
M  V30 357 H 42.2978 3.45216 -2.4167 0
M  V30 358 H 40.9728 2.95068 -1.33103 0
M  V30 359 H 39.8798 1.7442 -3.30951 0
M  V30 360 H 41.2128 2.31222 -4.34508 0
M  V30 361 N 42.8649 1.48995 0.513639 0
M  V30 362 C 43.7979 1.59319 1.63379 0
M  V30 363 C 44.7759 0.442816 1.56454 0
M  V30 364 O 45.9599 0.656655 1.76693 0
M  V30 365 C 43.0869 1.5364 3.01848 0
M  V30 366 C 42.1329 2.7372 3.27078 0
M  V30 367 S 42.9659 4.35528 3.1157 0
M  V30 368 C 44.1219 4.32473 4.52458 0
M  V30 369 H 44.3549 2.54079 1.54374 0
M  V30 370 H 41.8879 1.3773 0.697849 0
M  V30 371 H 43.8459 1.51049 3.81699 0
M  V30 372 H 42.5069 0.601898 3.08279 0
M  V30 373 H 41.6999 2.6593 4.28132 0
M  V30 374 H 41.3019 2.73657 2.54927 0
M  V30 375 H 43.5939 4.03414 5.44301 0
M  V30 376 H 44.5369 5.33762 4.65299 0
M  V30 377 H 44.9449 3.62718 4.32546 0
M  V30 378 N 44.343 -0.763751 1.37857 0
M  V30 379 C 45.589 -1.52483 1.33704 0
M  V30 380 C 45.922 -1.94051 -0.0759612 0
M  V30 381 O 45.197 -1.64675 -1.03501 0
M  V30 382 C 45.48 -2.78441 2.28348 0
M  V30 383 C 45.333 -2.43075 3.78463 0
M  V30 384 C 46.652 -3.80415 2.21298 0
M  V30 385 H 43.771 -0.553169 0.487005 0
M  V30 386 H 46.413 -0.875562 1.68624 0
M  V30 387 H 44.563 -3.33842 1.987 0
M  V30 388 H 46.235 -1.93527 4.18742 0
M  V30 389 H 44.478 -1.75666 3.96641 0
M  V30 390 H 45.149 -3.33149 4.40132 0
M  V30 391 H 47.625 -3.34527 2.47449 0
M  V30 392 H 46.501 -4.66257 2.89647 0
M  V30 393 H 46.762 -4.25262 1.20849 0
M  V30 394 N 45.8211 -1.22559 -0.990812 0
M  V30 395 C 46.7681 -0.997519 -2.0813 0
M  V30 396 C 47.7381 0.0814702 -1.659 0
M  V30 397 O 48.9231 -0.0685424 -1.90677 0
M  V30 398 C 46.0631 -0.583615 -3.40129 0
M  V30 399 C 45.1761 -1.7336 -3.9569 0
M  V30 400 C 44.3111 -1.26748 -5.15857 0
M  V30 401 C 43.3501 -2.38888 -5.63559 0
M  V30 402 N 42.4871 -1.93308 -6.74964 0
M  V30 403 H 47.3271 -1.93099 -2.26973 0
M  V30 404 H 44.8641 -0.962114 -1.11273 0
M  V30 405 H 46.8221 -0.324801 -4.15934 0
M  V30 406 H 45.4521 0.312845 -3.2128 0
M  V30 407 H 44.5041 -2.10669 -3.16738 0
M  V30 408 H 45.8161 -2.57704 -4.27071 0
M  V30 409 H 44.9701 -0.966173 -5.98957 0
M  V30 410 H 43.7091 -0.394272 -4.86104 0
M  V30 411 H 42.7141 -2.69805 -4.79046 0
M  V30 412 H 43.9391 -3.26728 -5.95336 0
M  V30 413 H 41.8851 -1.08352 -6.4699 0
M  V30 414 H 41.8021 -2.71217 -7.05675 0
M  V30 415 H 43.0701 -1.66252 -7.61564 0
M  V30 416 N 47.2992 1.18797 -1.03562 0
M  V30 417 C 48.5472 1.88278 -0.734569 0
M  V30 418 C 48.8682 1.8043 0.739586 0
M  V30 419 O 48.1382 1.21925 1.53333 0
M  V30 420 H 46.7182 0.696991 -0.268725 0
M  V30 421 H 49.3802 1.44192 -1.31129 0
M  V30 422 H 48.4762 2.94443 -1.03489 0
M  V30 423 N 48.7773 0.814389 1.34928 0
M  V30 424 C 49.7093 0.187834 2.28429 0
M  V30 425 C 50.7223 -0.617374 1.5064 0
M  V30 426 O 51.9113 -0.448454 1.72775 0
M  V30 427 C 49.0113 -0.755962 3.30361 0
M  V30 428 C 48.1843 0.00456686 4.374 0
M  V30 429 C 47.2433 -0.858876 5.19143 0
M  V30 430 O 46.2693 -0.306968 5.68372 0
M  V30 431 N 47.4713 -2.17988 5.38016 0
M  V30 432 H 50.2363 0.991105 2.82838 0
M  V30 433 H 47.7973 0.670561 1.4736 0
M  V30 434 H 49.7893 -1.338 3.81942 0
M  V30 435 H 48.3593 -1.46001 2.7641 0
M  V30 436 H 47.5793 0.767865 3.86649 0
M  V30 437 H 48.8673 0.528422 5.06049 0
M  V30 438 H 48.2653 -2.65212 4.99679 0
M  V30 439 H 46.8223 -2.71098 5.92747 0
M  V30 440 N 50.2554 -1.46986 0.568584 0
M  V30 441 C 51.6664 -1.86188 0.138219 0
M  V30 442 C 52.0174 -1.47388 -1.29504 0
M  V30 443 O 51.1424 -0.88219 -1.97602 0
M  V30 444 C 51.7374 -3.3792 0.244065 0
M  V30 445 C 50.2964 -3.76171 -0.131335 0
M  V30 446 C 49.4434 -2.71027 0.586465 0
M  V30 447 H 52.3944 -1.38342 0.777645 0
M  V30 448 H 52.4154 -3.76729 -0.534351 0
M  V30 449 H 51.9274 -3.66128 1.28731 0
M  V30 450 H 50.0284 -3.5358 -1.17526 0
M  V30 451 H 50.1414 -4.78523 0.235146 0
M  V30 452 H 48.5054 -2.54684 0.0282722 0
M  V30 453 H 49.2884 -3.02077 1.63109 0
M  V30 454 N 51.7335 -0.305618 -1.54608 0
M  V30 455 C 52.9805 0.302298 -2.00231 0
M  V30 456 C 53.3085 1.5354 -1.19398 0
M  V30 457 O 52.5635 1.93973 -0.259423 0
M  V30 458 C 52.8625 0.698983 -3.50498 0
M  V30 459 C 52.5285 -0.432903 -4.48817 0
M  V30 460 C 51.1905 -0.743622 -4.75419 0
M  V30 461 C 53.5425 -1.19409 -5.07337 0
M  V30 462 C 50.8705 -1.81857 -5.57804 0
M  V30 463 C 53.2225 -2.25899 -5.90891 0
M  V30 464 C 51.8865 -2.57572 -6.15803 0
M  V30 465 H 51.1565 0.110619 -0.732697 0
M  V30 466 H 53.8035 -0.425674 -1.86709 0
M  V30 467 H 52.1085 1.50711 -3.61654 0
M  V30 468 H 53.8055 1.1806 -3.83227 0
M  V30 469 H 50.3955 -0.18063 -4.28219 0
M  V30 470 H 54.5795 -0.967295 -4.86782 0
M  V30 471 H 49.8355 -2.06864 -5.75341 0
M  V30 472 H 54.0095 -2.85335 -6.35261 0
M  V30 473 H 51.6365 -3.40998 -6.7943 0
M  V30 474 N 53.2116 1.57565 -0.0334293 0
M  V30 475 C 54.4886 1.83282 0.683163 0
M  V30 476 C 54.8686 0.91823 1.90084 0
M  V30 477 O 54.2166 -0.025113 2.28486 0
M  V30 478 C 54.4266 3.32599 1.0573 0
M  V30 479 C 55.7746 3.99179 1.44711 0
M  V30 480 O 56.7986 3.3712 1.15015 0
M  V30 481 O 55.6576 5.08565 2.0006 0
M  V30 482 H 52.7516 0.755869 0.335546 0
M  V30 483 H 55.2976 1.69589 -0.0614402 0
M  V30 484 H 54.0696 3.90834 0.190828 0
M  V30 485 H 53.6926 3.51415 1.85993 0
M  V30 486 N 54.6897 -0.239769 1.55765 0
M  V30 487 C 55.9357 -0.968234 1.78194 0
M  V30 488 C 56.2687 -1.84701 0.599938 0
M  V30 489 O 55.5437 -1.9031 -0.401524 0
M  V30 490 C 55.8267 -1.8227 3.10564 0
M  V30 491 C 55.6797 -0.971633 4.3918 0
M  V30 492 C 56.9987 -2.80388 3.39221 0
M  V30 493 H 54.1177 -0.350572 0.648281 0
M  V30 494 H 56.7597 -0.238259 1.885 0
M  V30 495 H 54.9097 -2.44507 3.01908 0
M  V30 496 H 56.5817 -0.367408 4.59835 0
M  V30 497 H 54.8247 -0.276276 4.32919 0
M  V30 498 H 55.4957 -1.60346 5.28198 0
M  V30 499 H 57.9717 -2.28287 3.47885 0
M  V30 500 H 56.8477 -3.3729 4.33044 0
M  V30 501 H 57.1087 -3.57212 2.60484 0
M  V30 502 N 56.1678 -1.49265 -0.50573 0
M  V30 503 C 57.4158 -1.582 -1.25766 0
M  V30 504 C 57.7368 -0.268482 -1.93143 0
M  V30 505 O 57.0068 0.711833 -1.8251 0
M  V30 506 H 55.5868 -0.582873 -0.467191 0
M  V30 507 H 58.2488 -1.85865 -0.586525 0
M  V30 508 H 57.3448 -2.37563 -2.02412 0
M  V30 509 N 57.6459 0.756429 -1.3826 0
M  V30 510 C 59.0569 1.33359 -1.30661 0
M  V30 511 C 59.4079 1.96161 0.0388875 0
M  V30 512 O 58.5329 1.94874 0.940918 0
M  V30 513 C 59.1279 2.42477 -2.36622 0
M  V30 514 C 57.6869 2.95922 -2.3261 0
M  V30 515 C 56.8339 1.69275 -2.19639 0
M  V30 516 H 59.7849 0.55552 -1.4866 0
M  V30 517 H 59.8059 3.22345 -2.02174 0
M  V30 518 H 59.3179 1.96739 -3.34538 0
M  V30 519 H 57.4189 3.45996 -1.38267 0
M  V30 520 H 57.5319 3.50494 -3.26636 0
M  V30 521 H 55.8959 1.92793 -1.66442 0
M  V30 522 H 56.6789 1.25619 -3.19491 0
M  V30 523 N 59.124 1.23083 0.984299 0
M  V30 524 C 60.54 0.992637 1.24975 0
M  V30 525 C 60.74 -0.308618 1.99123 0
M  V30 526 O 59.796 -1.02905 2.30579 0
M  V30 527 C 61.109 2.19698 2.05312 0
M  V30 528 C 62.657 2.24147 2.18465 0
M  V30 529 C 63.132 3.44157 3.02192 0
M  V30 530 N 64.623 3.44372 3.09777 0
M  V30 531 C 65.358 4.33886 3.74874 0
M  V30 532 N 64.854 5.3363 4.41827 0
M  V30 533 N 66.647 4.21639 3.71721 0
M  V30 534 H 58.798 2.06731 0.487453 0
M  V30 535 H 61.061 0.906339 0.277944 0
M  V30 536 H 60.767 3.1411 1.58201 0
M  V30 537 H 60.641 2.20465 3.06064 0
M  V30 538 H 63.028 1.30277 2.64786 0
M  V30 539 H 63.109 2.27415 1.17115 0
M  V30 540 H 62.753 4.38332 2.56568 0
M  V30 541 H 62.683 3.3813 4.03702 0
M  V30 542 H 65.174 2.72201 2.62135 0
M  V30 543 H 65.487 5.98196 4.89266 0
M  V30 544 H 63.832 5.37534 4.40548 0
M  V30 545 H 67.023 3.42962 3.18582 0
M  V30 546 H 67.196 4.91604 4.22173 0
M  V30 547 N 60.6021 -1.18246 1.0419 0
M  V30 548 C 61.8321 -1.91916 0.764961 0
M  V30 549 C 62.2401 -1.76485 -0.681898 0
M  V30 550 O 61.5831 -1.09275 -1.47664 0
M  V30 551 C 61.6451 -3.4373 1.05309 0
M  V30 552 C 61.3091 -3.8294 2.4941 0
M  V30 553 C 62.3061 -3.86621 3.47592 0
M  V30 554 C 59.9911 -4.142 2.84155 0
M  V30 555 C 61.9851 -4.21013 4.78568 0
M  V30 556 C 59.6721 -4.48262 4.15337 0
M  V30 557 C 60.6701 -4.51645 5.12353 0
M  V30 558 O 60.3581 -4.84911 6.41183 0
M  V30 559 H 60.0901 -0.61606 0.278292 0
M  V30 560 H 62.6441 -1.50947 1.39299 0
M  V30 561 H 60.8741 -3.84946 0.367933 0
M  V30 562 H 62.5631 -3.9865 0.763752 0
M  V30 563 H 63.3291 -3.62607 3.22089 0
M  V30 564 H 59.2081 -4.10743 2.09311 0
M  V30 565 H 62.7521 -4.23568 5.54289 0
M  V30 566 H 58.6491 -4.71737 4.40607 0
M  V30 567 H 59.4171 -5.02809 6.45852 0
M  V30 568 N 62.0802 -0.821533 -1.34494 0
M  V30 569 C 63.3082 -0.421884 -2.02553 0
M  V30 570 C 63.7232 0.971745 -1.61872 0
M  V30 571 O 63.0802 1.62864 -0.823496 0
M  V30 572 C 63.1312 -0.51285 -3.57844 0
M  V30 573 O 62.8522 -1.85155 -3.97051 0
M  V30 574 C 64.3532 -0.107921 -4.43169 0
M  V30 575 H 61.5732 -0.169482 -0.649243 0
M  V30 576 H 64.1172 -1.1093 -1.71798 0
M  V30 577 H 62.2722 0.126474 -3.87193 0
M  V30 578 H 62.6862 -1.82482 -4.91732 0
M  V30 579 H 64.1602 -0.222657 -5.51551 0
M  V30 580 H 64.6372 0.948401 -4.28838 0
M  V30 581 H 65.2432 -0.720989 -4.19144 0
M  V30 582 N 63.5583 1.46682 -0.576371 0
M  V30 583 C 64.4903 2.28341 0.198231 0
M  V30 584 C 65.5033 1.38141 0.861453 0
M  V30 585 O 66.6923 1.62797 0.732082 0
M  V30 586 C 63.7923 3.12986 1.29972 0
M  V30 587 C 62.9653 4.31271 0.729639 0
M  V30 588 C 62.0243 4.97363 1.71803 0
M  V30 589 O 61.0503 5.55156 1.25658 0
M  V30 590 N 62.2523 4.93796 3.05198 0
M  V30 591 H 65.0173 2.9546 -0.502324 0
M  V30 592 H 62.5783 1.56525 -0.413715 0
M  V30 593 H 64.5703 3.54066 1.96008 0
M  V30 594 H 63.1403 2.47984 1.90323 0
M  V30 595 H 62.3603 3.94052 -0.108012 0
M  V30 596 H 63.6483 5.07739 0.328438 0
M  V30 597 H 63.0463 4.48077 3.45317 0
M  V30 598 H 61.6033 5.38837 3.6674 0
M  V30 599 N 65.0364 0.313813 1.54444 0
M  V30 600 C 65.9664 -0.549454 2.26943 0
M  V30 601 C 66.9474 -1.12741 1.27372 0
M  V30 602 O 68.1324 -1.15436 1.56167 0
M  V30 603 C 65.2624 -1.71523 3.01989 0
M  V30 604 C 64.2164 -1.26703 4.08816 0
M  V30 605 C 63.5424 -2.51898 4.71647 0
M  V30 606 C 64.8424 -0.388962 5.2085 0
M  V30 607 H 66.5364 0.0552661 2.99349 0
M  V30 608 H 64.0824 0.0280207 1.43973 0
M  V30 609 H 66.0354 -2.32535 3.51433 0
M  V30 610 H 64.7594 -2.34639 2.27183 0
M  V30 611 H 63.4184 -0.679896 3.6024 0
M  V30 612 H 63.0664 -3.13356 3.93468 0
M  V30 613 H 62.7664 -2.22605 5.43802 0
M  V30 614 H 64.2904 -3.1369 5.23861 0
M  V30 615 H 65.7044 -0.905107 5.6611 0
M  V30 616 H 64.1014 -0.18924 5.99802 0
M  V30 617 H 65.1714 0.582699 4.81386 0
M  V30 618 N 66.5145 -1.57545 0.0417849 0
M  V30 619 C 67.4465 -2.07904 -0.964799 0
M  V30 620 C 68.4595 -1.00497 -1.28079 0
M  V30 621 O 69.6485 -1.28087 -1.24322 0
M  V30 622 C 66.7485 -2.49928 -2.28887 0
M  V30 623 C 65.9215 -3.80562 -2.15619 0
M  V30 624 C 64.9805 -4.08999 -3.31069 0
M  V30 625 O 64.0065 -4.79061 -3.0739 0
M  V30 626 N 65.2085 -3.6017 -4.55256 0
M  V30 627 H 67.9735 -2.94886 -0.535029 0
M  V30 628 H 65.5345 -1.61252 -0.144681 0
M  V30 629 H 67.5265 -2.66034 -3.04972 0
M  V30 630 H 66.0965 -1.68245 -2.63463 0
M  V30 631 H 65.3165 -3.74129 -1.24183 0
M  V30 632 H 66.6045 -4.66126 -2.03971 0
M  V30 633 H 66.0025 -3.03512 -4.77386 0
M  V30 634 H 64.5595 -3.81532 -5.28466 0
M  V30 635 N 67.9926 0.231505 -1.5589 0
M  V30 636 C 69.2226 0.973092 -1.82248 0
M  V30 637 C 69.6306 1.78845 -0.617328 0
M  V30 638 O 68.9736 1.78752 0.423499 0
M  V30 639 C 69.0356 1.94732 -3.02192 0
M  V30 640 C 68.6996 1.31743 -4.37599 0
M  V30 641 C 69.6966 0.712238 -5.14998 0
M  V30 642 C 67.3816 1.33218 -4.84312 0
M  V30 643 C 69.3756 0.130195 -6.37267 0
M  V30 644 C 67.0626 0.746286 -6.06526 0
M  V30 645 C 68.0606 0.146337 -6.82843 0
M  V30 646 O 67.7486 -0.430465 -8.02747 0
M  V30 647 H 67.4806 0.29125 -0.61004 0
M  V30 648 H 70.0346 0.254915 -2.03812 0
M  V30 649 H 68.2646 2.70422 -2.76422 0
M  V30 650 H 69.9536 2.55362 -3.15508 0
M  V30 651 H 70.7196 0.69324 -4.8002 0
M  V30 652 H 66.5986 1.78854 -4.24891 0
M  V30 653 H 70.1426 -0.33871 -6.96777 0
M  V30 654 H 66.0396 0.762663 -6.40979 0
M  V30 655 H 66.8076 -0.323818 -8.17859 0
M  V30 656 N 69.4707 1.49531 0.497807 0
M  V30 657 C 70.7197 1.58426 1.24837 0
M  V30 658 C 71.0327 0.277643 1.93619 0
M  V30 659 O 72.2387 0.24517 2.70391 0
M  V30 660 C 70.6947 2.79538 2.26686 0
M  V30 661 C 70.3027 4.16971 1.63828 0
M  V30 662 C 72.0467 2.97764 3.0255 0
M  V30 663 C 69.9537 5.29301 2.63807 0
M  V30 664 H 68.8837 0.58989 0.469623 0
M  V30 665 H 71.5347 1.75923 0.521857 0
M  V30 666 H 69.9167 2.55542 3.02514 0
M  V30 667 H 71.0907 4.51116 0.939711 0
M  V30 668 H 69.4057 4.04129 1.00342 0
M  V30 669 H 72.0027 3.78856 3.77323 0
M  V30 670 H 72.3457 2.08448 3.60354 0
M  V30 671 H 72.8787 3.21815 2.33838 0
M  V30 672 H 69.6177 6.20687 2.10779 0
M  V30 673 H 69.1377 4.99606 3.31894 0
M  V30 674 H 70.8167 5.58768 3.2617 0
M  V30 675 N 70.9488 -0.749086 1.3866 0
M  V30 676 C 72.1968 -1.50535 1.34847 0
M  V30 677 C 72.5178 -1.94909 -0.0595016 0
M  V30 678 O 71.7878 -1.67973 -1.00806 0
M  V30 679 H 70.3678 -0.558395 0.49619 0
M  V30 680 H 73.0298 -0.890165 1.73384 0
M  V30 681 H 72.1258 -2.39413 2.00219 0
M  V30 682 N 72.4269 -1.23603 -0.977757 0
M  V30 683 C 73.3369 -1.03632 -2.1047 0
M  V30 684 C 74.3529 0.0199435 -1.73989 0
M  V30 685 O 75.5289 -0.176076 -2.00629 0
M  V30 686 C 72.5939 -0.63276 -3.40877 0
M  V30 687 C 71.6549 -1.76437 -3.91367 0
M  V30 688 C 70.8879 -1.37997 -5.15551 0
M  V30 689 O 71.1109 -0.265357 -5.69782 0
M  V30 690 O 70.0449 -2.20201 -5.60174 0
M  V30 691 H 73.8709 -1.98086 -2.30208 0
M  V30 692 H 71.4559 -1.02332 -1.08851 0
M  V30 693 H 73.3379 -0.418761 -4.19314 0
M  V30 694 H 72.0129 0.282754 -3.22463 0
M  V30 695 H 70.9199 -2.03304 -3.14036 0
M  V30 696 H 72.2529 -2.6583 -4.14241 0
M  V30 697 N 73.905 1.17692 -1.04816 0
M  V30 698 C 75.153 1.87488 -0.754497 0
M  V30 699 C 75.474 1.81205 0.720407 0
M  V30 700 O 74.744 1.23544 1.52032 0
M  V30 701 H 73.324 0.694101 -0.276102 0
M  V30 702 H 75.986 1.42793 -1.32651 0
M  V30 703 H 75.082 2.93328 -1.06606 0
M  V30 704 N 75.3831 0.828654 1.34056 0
M  V30 705 C 76.3461 0.259927 2.27721 0
M  V30 706 C 77.3461 -0.565478 1.50529 0
M  V30 707 O 78.5361 -0.38075 1.69988 0
M  V30 708 C 75.6681 -0.634944 3.34935 0
M  V30 709 H 76.8611 1.0863 2.79534 0
M  V30 710 H 74.4141 0.600951 1.44285 0
M  V30 711 H 75.1491 -1.48416 2.88346 0
M  V30 712 H 74.9341 -0.0444999 3.92075 0
M  V30 713 H 76.4241 -1.02648 4.04788 0
M  V30 714 N 76.8612 -1.46375 0.584142 0
M  V30 715 C 78.0912 -2.06461 0.0758195 0
M  V30 716 C 78.4992 -1.43322 -1.23512 0
M  V30 717 O 77.8422 -0.533216 -1.75791 0
M  V30 718 C 77.9042 -3.59131 -0.162773 0
M  V30 719 C 77.5682 -4.4447 1.06279 0
M  V30 720 C 78.5652 -4.80918 1.97519 0
M  V30 721 C 76.2502 -4.85584 1.28504 0
M  V30 722 C 78.2442 -5.57309 3.09331 0
M  V30 723 C 75.9312 -5.61734 2.4062 0
M  V30 724 C 76.9292 -5.9751 3.30863 0
M  V30 725 O 76.6172 -6.72121 4.41032 0
M  V30 726 H 76.3492 -0.673745 0.0551725 0
M  V30 727 H 78.9032 -1.88969 0.804984 0
M  V30 728 H 77.1332 -3.74936 -0.946565 0
M  V30 729 H 78.8222 -4.0114 -0.619782 0
M  V30 730 H 79.5882 -4.49732 1.81565 0
M  V30 731 H 75.4672 -4.57187 0.591702 0
M  V30 732 H 79.0112 -5.85152 3.79793 0
M  V30 733 H 74.9082 -5.92334 2.56537 0
M  V30 734 H 75.6762 -6.90547 4.39417 0
M  V30 735 N 78.3393 -0.321999 -1.54275 0
M  V30 736 C 79.5873 0.280489 -2.00144 0
M  V30 737 C 79.9083 1.52777 -1.21178 0
M  V30 738 O 79.1783 1.9338 -0.313187 0
M  V30 739 H 77.7583 0.106632 -0.73935 0
M  V30 740 H 80.4203 -0.438184 -1.8991 0
M  V30 741 H 79.5163 0.537972 -3.07428 0
M  V30 742 N 79.8174 1.5752 -0.0501392 0
M  V30 743 C 80.7504 2.07026 0.959962 0
M  V30 744 C 81.7284 0.970539 1.30458 0
M  V30 745 O 82.9124 1.2424 1.41763 0
M  V30 746 C 80.0394 2.5099 2.27424 0
M  V30 747 C 79.0854 3.72188 2.08275 0
M  V30 748 S 79.9184 5.17888 1.36207 0
M  V30 749 C 81.0744 5.65165 2.6896 0
M  V30 750 H 81.3074 2.9238 0.538631 0
M  V30 751 H 78.8404 1.53547 0.162099 0
M  V30 752 H 80.7984 2.76982 3.02971 0
M  V30 753 H 79.4594 1.65944 2.66686 0
M  V30 754 H 78.6524 4.00866 3.05487 0
M  V30 755 H 78.2544 3.46457 1.40868 0
M  V30 756 H 80.5464 5.70687 3.65133 0
M  V30 757 H 81.4894 6.64394 2.4492 0
M  V30 758 H 81.8974 4.9289 2.75172 0
M  V30 759 N 81.2955 -0.223234 1.56011 0
M  V30 760 C 82.5415 -0.949279 1.79211 0
M  V30 761 C 82.8745 -1.84054 0.619494 0
M  V30 762 O 82.1495 -1.90726 -0.381317 0
M  V30 763 C 82.4325 -1.78965 3.12479 0
M  V30 764 C 82.2855 -0.924997 4.40186 0
M  V30 765 C 83.6045 -2.76774 3.42175 0
M  V30 766 H 80.7235 -0.343676 0.651963 0
M  V30 767 H 83.3655 -0.218253 1.88742 0
M  V30 768 H 81.5155 -2.41291 3.04485 0
M  V30 769 H 83.1875 -0.318615 4.60198 0
M  V30 770 H 81.4305 -0.230344 4.33188 0
M  V30 771 H 82.1015 -1.54735 5.29869 0
M  V30 772 H 84.5775 -2.24584 3.50287 0
M  V30 773 H 83.4535 -3.32678 4.36597 0
M  V30 774 H 83.7145 -3.54429 2.64258 0
M  V30 775 N 82.7736 -1.49793 -0.48987 0
M  V30 776 C 83.9986 -1.63836 -1.27172 0
M  V30 777 C 84.4236 -0.31402 -1.8546 0
M  V30 778 O 83.7816 0.719803 -1.66399 0
M  V30 779 C 83.8296 -2.71797 -2.36978 0
M  V30 780 O 82.9336 -2.31744 -3.41128 0
M  V30 781 H 82.2746 -0.547997 -0.37496 0
M  V30 782 H 84.8046 -1.96053 -0.585191 0
M  V30 783 H 84.8146 -2.94305 -2.82575 0
M  V30 784 H 83.4896 -3.67923 -1.93921 0
M  V30 785 H 82.0666 -2.1961 -3.01373 0
M  V30 786 N 84.2517 0.741722 -1.39055 0
M  V30 787 C 85.4767 1.53607 -1.39354 0
M  V30 788 C 85.9017 1.88096 0.0116905 0
M  V30 789 O 85.2597 1.5143 0.996924 0
M  V30 790 C 85.3077 2.80441 -2.26682 0
M  V30 791 O 84.4117 3.76088 -1.69208 0
M  V30 792 H 83.7527 0.464142 -0.474835 0
M  V30 793 H 86.2827 0.915665 -1.82967 0
M  V30 794 H 86.2927 3.29246 -2.40959 0
M  V30 795 H 84.9677 2.5467 -3.2881 0
M  V30 796 H 83.5447 3.34833 -1.64138 0
M  V30 797 N 85.7298 1.2412 0.971189 0
M  V30 798 C 86.6928 1.03156 2.04674 0
M  V30 799 C 87.6928 -0.00990322 1.60797 0
M  V30 800 O 88.8828 0.230729 1.72665 0
M  V30 801 C 86.0148 0.562765 3.36223 0
M  V30 802 H 87.2078 1.98614 2.24705 0
M  V30 803 H 84.7608 1.06293 1.14593 0
M  V30 804 H 85.4958 -0.395176 3.21883 0
M  V30 805 H 85.2808 1.31441 3.69413 0
M  V30 806 H 86.7708 0.437015 4.15307 0
M  V30 807 N 87.2079 -1.17134 1.05439 0
M  V30 808 C 88.4379 -1.91094 0.785274 0
M  V30 809 C 88.8459 -1.77198 -0.663142 0
M  V30 810 O 88.1889 -1.10835 -1.46497 0
M  V30 811 C 88.2509 -3.42594 1.08949 0
M  V30 812 C 87.9149 -3.80274 2.53458 0
M  V30 813 C 88.9119 -3.82912 3.51673 0
M  V30 814 C 86.5969 -4.11162 2.88532 0
M  V30 815 C 88.5909 -4.15913 4.83006 0
M  V30 816 C 86.2779 -4.43831 4.20068 0
M  V30 817 C 87.2759 -4.46185 5.17115 0
M  V30 818 O 86.9639 -4.78083 6.46291 0
M  V30 819 H 86.6959 -0.613073 0.284811 0
M  V30 820 H 89.2499 -1.49461 1.40893 0
M  V30 821 H 87.4799 -3.84534 0.408741 0
M  V30 822 H 89.1689 -3.97817 0.805991 0
M  V30 823 H 89.9349 -3.5917 3.25917 0
M  V30 824 H 85.8139 -4.085 2.13656 0
M  V30 825 H 89.3579 -4.17665 5.5875 0
M  V30 826 H 85.2549 -4.67037 4.45586 0
M  V30 827 H 86.0229 -4.9593 6.51149 0
M  V30 828 N 88.686 -0.835752 -1.33615 0
M  V30 829 C 89.963 -0.352017 -1.92406 0
M  V30 830 C 90.343 1.16225 -1.76224 0
M  V30 831 O 89.691 1.97526 -1.14873 0
M  V30 832 C 89.901 -0.795485 -3.39813 0
M  V30 833 C 91.249 -0.801703 -4.16963 0
M  V30 834 O 92.273 -0.738889 -3.48452 0
M  V30 835 O 91.132 -0.886607 -5.3926 0
M  V30 836 H 88.226 -0.0989641 -0.821057 0
M  V30 837 H 90.772 -0.921397 -1.42507 0
M  V30 838 H 89.544 -1.83795 -3.45449 0
M  V30 839 H 89.167 -0.202505 -3.97084 0
M  V30 840 N 90.1641 1.46063 -0.591896 0
M  V30 841 C 91.1141 2.27458 0.157172 0
M  V30 842 C 92.0981 1.3641 0.853301 0
M  V30 843 O 93.2901 1.60517 0.74588 0
M  V30 844 C 90.4191 3.22956 1.16423 0
M  V30 845 C 89.5051 4.2149 0.469742 0
M  V30 846 N 89.8961 5.03519 -0.479839 0
M  V30 847 C 88.1941 4.40161 0.719319 0
M  V30 848 C 88.8951 5.74904 -0.886591 0
M  V30 849 N 87.8711 5.43097 -0.233731 0
M  V30 850 H 91.6731 2.88272 -0.572392 0
M  V30 851 H 89.1871 1.57024 -0.414375 0
M  V30 852 H 91.1841 3.79986 1.71513 0
M  V30 853 H 89.8441 2.63701 1.89451 0
M  V30 854 H 90.8551 5.1078 -0.855823 0
M  V30 855 H 87.5321 3.92046 1.43548 0
M  V30 856 H 88.9221 6.50844 -1.66888 0
M  V30 857 N 91.6422 0.330177 1.54103 0
M  V30 858 C 92.8882 -0.270806 2.00984 0
M  V30 859 C 93.2212 -1.51265 1.21789 0
M  V30 860 O 92.4962 -1.92142 0.301927 0
M  V30 861 C 92.7792 -0.598339 3.55094 0
M  V30 862 C 92.6322 0.654674 4.4501 0
M  V30 863 C 93.9512 -1.41334 4.16789 0
M  V30 864 H 91.0702 -0.0969531 0.730595 0
M  V30 865 H 93.7122 0.448066 1.84641 0
M  V30 866 H 91.8622 -1.21078 3.69151 0
M  V30 867 H 93.5342 1.29285 4.42813 0
M  V30 868 H 91.7772 1.28224 4.14416 0
M  V30 869 H 92.4482 0.380944 5.50684 0
M  V30 870 H 94.9242 -0.895597 4.06347 0
M  V30 871 H 93.8002 -1.61127 5.24718 0
M  V30 872 H 94.0612 -2.41146 3.70541 0
M  V30 873 N 93.1203 -1.57491 0.0584922 0
M  V30 874 C 94.5363 -1.56792 -0.298091 0
M  V30 875 C 94.7363 -1.06679 -1.70944 0
M  V30 876 O 93.7923 -0.726672 -2.41818 0
M  V30 877 C 95.1053 -3.00461 -0.119879 0
M  V30 878 C 96.6533 -3.1242 -0.190428 0
M  V30 879 C 97.1283 -4.57982 -0.0406567 0
M  V30 880 N 98.6193 -4.63099 -0.0966958 0
M  V30 881 C 99.3543 -5.734 -0.00502943 0
M  V30 882 N 98.8503 -6.9266 0.139402 0
M  V30 883 N 100.643 -5.62067 -0.0611391 0
M  V30 884 H 92.7943 -1.88386 0.98105 0
M  V30 885 H 95.0573 -0.867865 0.381463 0
M  V30 886 H 94.7633 -3.41187 0.85349 0
M  V30 887 H 94.6373 -3.66843 -0.877833 0
M  V30 888 H 97.0243 -2.71589 -1.15427 0
M  V30 889 H 97.1053 -2.48702 0.598405 0
M  V30 890 H 96.7493 -4.995 0.919897 0
M  V30 891 H 96.6793 -5.19715 -0.848727 0
M  V30 892 H 99.1703 -3.77331 -0.207277 0
M  V30 893 H 99.4833 -7.72536 0.201855 0
M  V30 894 H 97.8283 -6.94781 0.174586 0
M  V30 895 H 101.019 -4.67782 -0.172583 0
M  V30 896 H 101.192 -6.47999 0.0137562 0
M  V30 897 N 94.5984 0.214957 -1.56127 0
M  V30 898 C 95.5454 1.26642 -1.92952 0
M  V30 899 C 96.5154 1.46244 -0.78753 0
M  V30 900 O 97.7004 1.59704 -1.04399 0
M  V30 901 C 94.8404 2.6104 -2.25726 0
M  V30 902 C 93.9534 2.49183 -3.52891 0
M  V30 903 C 93.0884 3.76149 -3.7508 0
M  V30 904 C 92.1274 3.59041 -4.95738 0
M  V30 905 N 91.2644 4.77972 -5.14283 0
M  V30 906 H 96.1044 0.945384 -2.82607 0
M  V30 907 H 93.6414 0.455489 -1.3987 0
M  V30 908 H 95.5994 3.39313 -2.42739 0
M  V30 909 H 94.2294 2.91227 -1.39236 0
M  V30 910 H 93.2814 1.6231 -3.44034 0
M  V30 911 H 94.5934 2.32466 -4.41318 0
M  V30 912 H 93.7474 4.62865 -3.92226 0
M  V30 913 H 92.4864 3.95799 -2.84947 0
M  V30 914 H 91.4914 2.7071 -4.78535 0
M  V30 915 H 92.7164 3.40856 -5.87362 0
M  V30 916 H 90.6624 4.97923 -4.27093 0
M  V30 917 H 90.5794 4.64006 -5.96853 0
M  V30 918 H 91.8474 5.66096 -5.35869 0
M  V30 919 N 96.0765 1.50051 0.48192 0
M  V30 920 C 97.3045 1.64237 1.25832 0
M  V30 921 C 97.7195 0.321336 1.86045 0
M  V30 922 O 97.0765 -0.695478 1.68729 0
M  V30 923 C 97.1275 2.72548 2.37487 0
M  V30 924 O 96.8485 3.99529 1.79745 0
M  V30 925 C 98.3495 2.9761 3.28547 0
M  V30 926 H 95.5695 0.55237 0.380957 0
M  V30 927 H 98.1135 1.96207 0.576467 0
M  V30 928 H 96.2685 2.43303 3.01467 0
M  V30 929 H 96.6825 4.59342 2.5319 0
M  V30 930 H 98.1565 3.77084 4.03127 0
M  V30 931 H 98.6335 2.0826 3.86684 0
M  V30 932 H 99.2395 3.28345 2.70314 0
M  V30 933 N 97.5546 -0.734337 1.39446 0
M  V30 934 C 98.9706 -1.03997 1.21065 0
M  V30 935 C 99.1706 -2.01369 0.0727019 0
M  V30 936 O 98.2266 -2.45856 -0.575426 0
M  V30 937 C 99.5396 -1.60163 2.54496 0
M  V30 938 C 101.088 -1.7224 2.61347 0
M  V30 939 C 101.563 -2.31814 3.95002 0
M  V30 940 N 103.054 -2.39223 3.96644 0
M  V30 941 C 103.789 -2.86258 4.96834 0
M  V30 942 N 103.285 -3.33184 6.07421 0
M  V30 943 N 105.078 -2.85473 4.84213 0
M  V30 944 H 97.2286 -0.0885624 2.12215 0
M  V30 945 H 99.4916 -0.10191 0.942506 0
M  V30 946 H 99.1976 -0.960811 3.38321 0
M  V30 947 H 99.0716 -2.5896 2.74262 0
M  V30 948 H 101.459 -2.35443 1.77906 0
M  V30 949 H 101.54 -0.720939 2.4543 0
M  V30 950 H 101.184 -1.69238 4.78875 0
M  V30 951 H 101.114 -3.32638 4.08239 0
M  V30 952 H 103.605 -2.06057 3.16779 0
M  V30 953 H 103.918 -3.67586 6.7978 0
M  V30 954 H 102.263 -3.31191 6.11013 0
M  V30 955 H 105.454 -2.48136 3.96921 0
M  V30 956 H 105.627 -3.21814 5.62441 0
M  V30 957 N 99.0327 -1.24633 -0.964593 0
M  V30 958 C 100.279 -1.08949 -1.71049 0
M  V30 959 C 100.612 0.370302 -1.90637 0
M  V30 960 O 99.8867 1.27349 -1.47011 0
M  V30 961 C 100.17 -1.83329 -3.0994 0
M  V30 962 C 100.023 -3.37077 -2.97824 0
M  V30 963 C 101.342 -1.60846 -4.09654 0
M  V30 964 H 98.4607 -0.397178 -0.620821 0
M  V30 965 H 101.103 -1.5334 -1.12191 0
M  V30 966 H 99.2527 -1.45597 -3.60186 0
M  V30 967 H 100.925 -3.84425 -2.5498 0
M  V30 968 H 99.1677 -3.65298 -2.33965 0
M  V30 969 H 99.8387 -3.84324 -3.96231 0
M  V30 970 H 102.315 -1.93674 -3.68279 0
M  V30 971 H 101.191 -2.1534 -5.04896 0
M  V30 972 H 101.452 -0.547434 -4.38698 0
M  V30 973 N 100.511 1.16574 -1.06058 0
M  V30 974 C 101.474 2.19085 -0.673392 0
M  V30 975 C 102.474 1.5835 0.279648 0
M  V30 976 O 103.664 1.74088 0.0623488 0
M  V30 977 C 100.796 3.40899 0.00954234 0
M  V30 978 H 101.989 2.54853 -1.58081 0
M  V30 979 H 99.5418 1.30808 -0.855516 0
M  V30 980 H 100.277 3.10684 0.929826 0
M  V30 981 H 100.062 3.86233 -0.67573 0
M  V30 982 H 101.552 4.1675 0.266245 0
M  V30 983 N 101.989 0.842826 1.3317 0
M  V30 984 C 103.238 0.436738 1.96915 0
M  V30 985 C 103.551 -1.01025 1.67491 0
M  V30 986 O 104.757 -1.5212 2.24881 0
M  V30 987 C 103.213 0.730021 3.52418 0
M  V30 988 C 102.821 2.19195 3.90714 0
M  V30 989 C 104.565 0.391076 4.22695 0
M  V30 990 C 102.472 2.42907 5.39212 0
M  V30 991 H 101.402 0.15958 0.736919 0
M  V30 992 H 104.053 1.03196 1.51733 0
M  V30 993 H 102.435 0.0643755 3.95948 0
M  V30 994 H 103.609 2.8984 3.58231 0
M  V30 995 H 101.924 2.49425 3.33431 0
M  V30 996 H 104.521 0.545817 5.31907 0
M  V30 997 H 104.864 -0.666294 4.10933 0
M  V30 998 H 105.397 1.01212 3.84709 0
M  V30 999 H 102.136 3.47224 5.55982 0
M  V30 1000 H 101.656 1.76827 5.73142 0
M  V30 1001 H 103.335 2.2626 6.06148 0
M  V30 1002 N 103.467 -1.45747 0.599634 0
M  V30 1003 C 104.414 -2.30467 -0.123849 0
M  V30 1004 C 105.384 -1.41632 -0.86774 0
M  V30 1005 O 106.569 -1.70568 -0.855056 0
M  V30 1006 C 103.709 -3.26402 -1.12051 0
M  V30 1007 C 102.822 -4.3034 -0.37832 0
M  V30 1008 C 101.957 -5.13389 -1.364 0
M  V30 1009 C 100.996 -6.09061 -0.609171 0
M  V30 1010 N 100.133 -6.84918 -1.54374 0
M  V30 1011 H 104.973 -2.91802 0.604627 0
M  V30 1012 H 102.51 -1.43797 0.309972 0
M  V30 1013 H 104.468 -3.80482 -1.7114 0
M  V30 1014 H 103.098 -2.66839 -1.8165 0
M  V30 1015 H 102.15 -3.78984 0.327929 0
M  V30 1016 H 103.462 -4.98354 0.210997 0
M  V30 1017 H 102.616 -5.7183 -2.02719 0
M  V30 1018 H 101.355 -4.45376 -1.98725 0
M  V30 1019 H 100.36 -5.49758 0.0676979 0
M  V30 1020 H 101.585 -6.79099 0.00891991 0
M  V30 1021 H 99.531 -6.19601 -2.15478 0
M  V30 1022 H 99.448 -7.49254 -1.00766 0
M  V30 1023 H 100.716 -7.47906 -2.19676 0
M  V30 1024 N 104.945 -0.338344 -1.53925 0
M  V30 1025 C 105.892 0.520845 -2.24846 0
M  V30 1026 C 106.862 1.09976 -1.24477 0
M  V30 1027 O 108.047 1.13735 -1.53196 0
M  V30 1028 C 105.187 1.6685 -3.02084 0
M  V30 1029 C 104.3 1.11739 -4.17299 0
M  V30 1030 C 103.435 2.23193 -4.82036 0
M  V30 1031 C 102.474 1.65407 -5.89328 0
M  V30 1032 N 101.611 2.70582 -6.47866 0
M  V30 1033 H 106.451 -0.0904881 -2.97863 0
M  V30 1034 H 103.988 -0.0564282 -1.46992 0
M  V30 1035 H 105.946 2.34407 -3.45122 0
M  V30 1036 H 104.576 2.2509 -2.31375 0
M  V30 1037 H 103.628 0.332919 -3.7894 0
M  V30 1038 H 104.94 0.654677 -4.94485 0
M  V30 1039 H 104.094 2.98626 -5.28117 0
M  V30 1040 H 102.833 2.72807 -4.04262 0
M  V30 1041 H 101.838 0.884779 -5.42634 0
M  V30 1042 H 103.063 1.16652 -6.69006 0
M  V30 1043 H 101.009 3.1946 -5.72959 0
M  V30 1044 H 100.926 2.28917 -7.20509 0
M  V30 1045 H 102.194 3.45799 -6.98601 0
M  V30 1046 N 106.423 1.57458 -0.0668435 0
M  V30 1047 C 107.672 1.92477 0.602947 0
M  V30 1048 C 107.985 0.948419 1.71068 0
M  V30 1049 O 109.191 1.19124 2.43971 0
M  V30 1050 C 107.647 3.41903 1.12383 0
M  V30 1051 C 107.255 4.47975 0.04737 0
M  V30 1052 C 108.999 3.85931 1.76797 0
M  V30 1053 C 106.906 5.88529 0.582022 0
M  V30 1054 H 105.836 0.718387 0.22899 0
M  V30 1055 H 108.487 1.82978 -0.138276 0
M  V30 1056 H 106.869 3.46459 1.91787 0
M  V30 1057 H 108.043 4.55029 -0.726978 0
M  V30 1058 H 106.358 4.13384 -0.500243 0
M  V30 1059 H 108.955 4.88322 2.17821 0
M  V30 1060 H 109.298 3.23029 2.62599 0
M  V30 1061 H 109.831 3.83958 1.04024 0
M  V30 1062 H 106.57 6.55065 -0.238721 0
M  V30 1063 H 106.09 5.85004 1.324 0
M  V30 1064 H 107.769 6.38258 1.05999 0
M  V30 1065 N 107.901 -0.206675 1.56239 0
M  V30 1066 C 109.126 -0.949474 1.8439 0
M  V30 1067 C 109.551 -1.76549 0.649016 0
M  V30 1068 O 108.909 -1.76782 -0.402231 0
M  V30 1069 C 108.957 -1.83078 3.10668 0
M  V30 1070 O 108.061 -2.9281 2.90407 0
M  V30 1071 H 107.402 -0.268033 0.607499 0
M  V30 1072 H 109.932 -0.215488 2.03462 0
M  V30 1073 H 109.942 -2.2377 3.41161 0
M  V30 1074 H 108.617 -1.23112 3.97261 0
M  V30 1075 H 107.194 -2.55956 2.71184 0
M  V30 1076 N 109.379 -1.50304 -0.473955 0
M  V30 1077 C 110.79 -1.54042 -1.0549 0
M  V30 1078 C 111.141 -0.342248 -1.93192 0
M  V30 1079 O 110.266 0.545157 -2.09421 0
M  V30 1080 C 110.861 -2.79152 -1.91989 0
M  V30 1081 C 109.42 -2.8558 -2.45196 0
M  V30 1082 C 108.567 -2.48295 -1.2347 0
M  V30 1083 H 111.518 -1.5661 -0.256693 0
M  V30 1084 H 111.539 -2.60845 -2.7702 0
M  V30 1085 H 111.051 -3.66339 -1.28131 0
M  V30 1086 H 109.152 -2.02738 -3.12615 0
M  V30 1087 H 109.265 -3.88403 -2.80499 0
M  V30 1088 H 107.629 -2.00669 -1.56856 0
M  V30 1089 H 108.412 -3.37787 -0.612789 0
M  V30 1090 N 110.857 0.726932 -1.39834 0
M  V30 1091 C 112.104 1.48664 -1.37496 0
M  V30 1092 C 112.432 1.94482 0.0264678 0
M  V30 1093 O 111.687 1.67692 1.00886 0
M  V30 1094 C 111.986 2.73495 -2.30077 0
M  V30 1095 C 111.652 2.46502 -3.77555 0
M  V30 1096 C 110.314 2.3885 -4.17737 0
M  V30 1097 C 112.666 2.23604 -4.70798 0
M  V30 1098 C 109.994 2.06352 -5.49214 0
M  V30 1099 C 112.346 1.92622 -6.02561 0
M  V30 1100 C 111.01 1.83444 -6.41798 0
M  V30 1101 H 110.28 0.544001 -0.503135 0
M  V30 1102 H 112.927 0.833657 -1.72402 0
M  V30 1103 H 111.232 3.43575 -1.88317 0
M  V30 1104 H 112.929 3.31549 -2.25558 0
M  V30 1105 H 109.519 2.5334 -3.45712 0
M  V30 1106 H 113.703 2.28479 -4.40581 0
M  V30 1107 H 108.959 1.97776 -5.78528 0
M  V30 1108 H 113.133 1.73914 -6.74334 0
M  V30 1109 H 110.76 1.58029 -7.43593 0
M  V30 1110 N 112.336 1.25143 0.95797 0
M  V30 1111 C 113.246 1.06968 2.08794 0
M  V30 1112 C 114.262 0.00773911 1.73998 0
M  V30 1113 O 115.438 0.207972 2.00323 0
M  V30 1114 C 112.503 0.68691 3.39827 0
M  V30 1115 C 111.564 1.82641 3.88511 0
M  V30 1116 C 110.797 1.46181 5.1329 0
M  V30 1117 O 111.02 0.355971 5.69288 0
M  V30 1118 O 109.954 2.29085 5.566 0
M  V30 1119 H 113.78 2.01723 2.27027 0
M  V30 1120 H 111.365 1.04051 1.07209 0
M  V30 1121 H 113.247 0.485417 4.18595 0
M  V30 1122 H 111.922 -0.231417 3.22872 0
M  V30 1123 H 110.829 2.08274 3.10762 0
M  V30 1124 H 112.162 2.72386 4.09959 0
M  V30 1125 N 113.814 -1.1601 1.06675 0
M  V30 1126 C 114.764 -2.18512 0.650888 0
M  V30 1127 C 115.748 -1.57677 -0.320441 0
M  V30 1128 O 116.94 -1.76482 -0.135266 0
M  V30 1129 C 114.069 -3.43273 0.0429255 0
M  V30 1130 C 113.155 -4.11176 1.03898 0
M  V30 1131 N 113.546 -4.54672 2.216 0
M  V30 1132 C 111.844 -4.37417 0.870779 0
M  V30 1133 C 112.545 -5.07248 2.84736 0
M  V30 1134 N 111.521 -5.0037 2.12441 0
M  V30 1135 H 115.323 -2.49863 1.54745 0
M  V30 1136 H 112.837 -1.32503 0.938975 0
M  V30 1137 H 114.834 -4.16006 -0.272857 0
M  V30 1138 H 113.494 -3.13408 -0.84884 0
M  V30 1139 H 114.505 -4.4828 2.59356 0
M  V30 1140 H 111.182 -4.17488 0.0313293 0
M  V30 1141 H 112.572 -5.50912 3.84636 0
M  V30 1142 N 115.292 -0.849877 -1.32721 0
M  V30 1143 C 116.224 -0.248332 -2.27851 0
M  V30 1144 C 117.237 0.577218 -1.52224 0
M  V30 1145 O 118.426 0.402489 -1.73903 0
M  V30 1146 C 115.526 0.668107 -3.32249 0
M  V30 1147 C 114.699 -0.120534 -4.37234 0
M  V30 1148 C 113.758 0.720932 -5.21238 0
M  V30 1149 O 112.784 0.156166 -5.68986 0
M  V30 1150 N 113.986 2.03647 -5.43607 0
M  V30 1151 H 116.751 -1.06575 -2.80111 0
M  V30 1152 H 114.312 -0.709395 -1.45531 0
M  V30 1153 H 116.304 1.23627 -3.85355 0
M  V30 1154 H 114.874 1.38621 -2.80184 0
M  V30 1155 H 114.094 -0.870108 -3.84477 0
M  V30 1156 H 115.382 -0.662406 -5.0447 0
M  V30 1157 H 114.78 2.51871 -5.06535 0
M  V30 1158 H 113.337 2.55287 -5.99727 0
M  V30 1159 N 116.77 1.45427 -0.607355 0
M  V30 1160 C 117.998 2.06614 -0.108814 0
M  V30 1161 C 118.413 1.45204 1.2067 0
M  V30 1162 O 117.77 0.566132 1.73497 0
M  V30 1163 C 117.821 3.61481 0.0375347 0
M  V30 1164 O 117.542 4.20598 -1.22593 0
M  V30 1165 C 119.043 4.39652 0.567561 0
M  V30 1166 H 116.263 0.66747 -0.0687351 0
M  V30 1167 H 118.807 1.86675 -0.835022 0
M  V30 1168 H 116.962 3.80762 0.714068 0
M  V30 1169 H 117.376 5.1377 -1.05547 0
M  V30 1170 H 118.85 5.48518 0.61905 0
M  V30 1171 H 119.327 4.09417 1.58978 0
M  V30 1172 H 119.933 4.25234 -0.0749202 0
M  V30 1173 N 118.248 0.346503 1.53744 0
M  V30 1174 C 119.478 -0.250047 2.05081 0
M  V30 1175 C 119.886 -1.44529 1.22098 0
M  V30 1176 O 119.229 -1.81992 0.249917 0
M  V30 1177 C 119.291 -0.725934 3.52094 0
M  V30 1178 C 118.955 0.350053 4.55657 0
M  V30 1179 C 119.952 1.19372 5.0601 0
M  V30 1180 C 117.637 0.504827 4.99757 0
M  V30 1181 C 119.631 2.17768 5.99046 0
M  V30 1182 C 117.318 1.49218 5.92602 0
M  V30 1183 C 118.316 2.32706 6.42135 0
M  V30 1184 O 118.004 3.2976 7.33153 0
M  V30 1185 H 117.736 -0.0515469 0.674032 0
M  V30 1186 H 120.29 0.497559 1.99282 0
M  V30 1187 H 118.52 -1.52483 3.55367 0
M  V30 1188 H 120.209 -1.24336 3.86388 0
M  V30 1189 H 120.975 1.08525 4.72702 0
M  V30 1190 H 116.854 -0.135178 4.60802 0
M  V30 1191 H 120.398 2.82971 6.37631 0
M  V30 1192 H 116.295 1.6012 6.25325 0
M  V30 1193 H 117.063 3.25265 7.51096 0
M  V30 1194 N 119.726 -1.57421 0.075193 0
M  V30 1195 C 120.966 -1.95495 -0.596757 0
M  V30 1196 C 121.33 -0.954886 -1.66571 0
M  V30 1197 O 122.531 -1.22341 -2.39345 0
M  V30 1198 C 120.802 -3.382 -1.15566 0
M  V30 1199 S 122.361 -3.98254 -1.84226 0
M  V30 1200 H 119.179 -0.683649 -0.195307 0
M  V30 1201 H 121.781 -1.94925 0.149859 0
M  V30 1202 H 120.485 -4.08766 -0.36588 0
M  V30 1203 H 120.016 -3.42321 -1.93856 0
M  V30 1204 H 122.031 -3.85435 -3.12497 0
M  V30 1205 N 121.204 0.198386 -1.56346 0
M  V30 1206 C 122.136 1.26987 -1.90806 0
M  V30 1207 C 123.149 1.41877 -0.798419 0
M  V30 1208 O 124.338 1.42362 -1.07682 0
M  V30 1209 C 121.438 2.64246 -2.12196 0
M  V30 1210 C 120.611 2.71007 -3.43328 0
M  V30 1211 C 119.67 3.89439 -3.5387 0
M  V30 1212 O 118.696 3.76695 -4.26719 0
M  V30 1213 N 119.898 5.04752 -2.86715 0
M  V30 1214 H 122.663 0.977433 -2.83313 0
M  V30 1215 H 120.224 0.388322 -1.57174 0
M  V30 1216 H 122.216 3.41896 -2.1654 0
M  V30 1217 H 120.786 2.85992 -1.26204 0
M  V30 1218 H 120.006 1.79657 -3.50881 0
M  V30 1219 H 121.294 2.72512 -4.29668 0
M  V30 1220 H 120.692 5.18004 -2.2735 0
M  V30 1221 H 119.249 5.8036 -2.96691 0
M  V30 1222 N 122.682 1.50554 0.465978 0
M  V30 1223 C 124.098 1.38093 0.800154 0
M  V30 1224 C 124.298 0.440988 1.96615 0
M  V30 1225 O 123.354 -0.114499 2.5224 0
M  V30 1226 C 124.667 2.79565 1.10742 0
M  V30 1227 C 126.215 2.88516 1.21357 0
M  V30 1228 C 126.69 4.30833 1.55393 0
M  V30 1229 N 128.181 4.33807 1.62375 0
M  V30 1230 C 128.916 5.40927 1.90225 0
M  V30 1231 N 128.412 6.58247 2.16062 0
M  V30 1232 N 130.205 5.28376 1.9177 0
M  V30 1233 H 122.356 2.10237 -0.302366 0
M  V30 1234 H 124.619 0.945203 -0.0727746 0
M  V30 1235 H 124.325 3.50208 0.323661 0
M  V30 1236 H 124.199 3.17125 2.04234 0
M  V30 1237 H 126.586 2.1809 1.98799 0
M  V30 1238 H 126.667 2.54492 0.258321 0
M  V30 1239 H 126.311 5.01799 0.784889 0
M  V30 1240 H 126.241 4.62347 2.52076 0
M  V30 1241 H 128.732 3.49212 1.44427 0
M  V30 1242 H 129.045 7.3569 2.36601 0
M  V30 1243 H 127.39 6.61413 2.13444 0
M  V30 1244 H 130.581 4.35715 1.71085 0
M  V30 1245 H 130.754 6.11944 2.13139 0
M  V30 1246 N 124.16 -0.719506 1.40217 0
M  V30 1247 C 125.388 -1.50864 1.41589 0
M  V30 1248 C 125.803 -1.88794 0.0145275 0
M  V30 1249 O 125.16 -1.55174 -0.960594 0
M  V30 1250 C 125.211 -2.78646 2.30302 0
M  V30 1251 O 124.932 -2.42321 3.64983 0
M  V30 1252 C 126.433 -3.72569 2.40224 0
M  V30 1253 H 123.653 -0.465709 0.48307 0
M  V30 1254 H 126.197 -0.88785 1.84221 0
M  V30 1255 H 124.352 -3.37019 1.91042 0
M  V30 1256 H 124.766 -3.24514 4.12057 0
M  V30 1257 H 126.24 -4.5908 3.06512 0
M  V30 1258 H 126.717 -4.15403 1.42608 0
M  V30 1259 H 127.323 -3.20109 2.80019 0
M  V30 1260 N 125.638 -1.25649 -0.95132 0
M  V30 1261 C 126.568 -1.08808 -2.06599 0
M  V30 1262 C 127.549 0.00382547 -1.701 0
M  V30 1263 O 128.734 -0.166325 -1.93486 0
M  V30 1264 C 125.864 -0.709542 -3.39975 0
M  V30 1265 C 124.818 -1.75206 -3.90496 0
M  V30 1266 C 124.144 -1.22811 -5.20405 0
M  V30 1267 C 125.444 -3.15153 -4.16504 0
M  V30 1268 H 127.138 -2.02048 -2.20946 0
M  V30 1269 H 124.684 -0.972835 -1.06169 0
M  V30 1270 H 126.637 -0.578649 -4.17408 0
M  V30 1271 H 125.361 0.258556 -3.25575 0
M  V30 1272 H 124.02 -1.87145 -3.15234 0
M  V30 1273 H 123.668 -0.250145 -5.02378 0
M  V30 1274 H 123.368 -1.92492 -5.55176 0
M  V30 1275 H 124.892 -1.10968 -6.00432 0
M  V30 1276 H 126.306 -3.06349 -4.84586 0
M  V30 1277 H 124.703 -3.82333 -4.62538 0
M  V30 1278 H 125.773 -3.61966 -3.22658 0
M  V30 1279 N 127.117 1.15442 -1.07289 0
M  V30 1280 C 128.533 1.38201 -0.798288 0
M  V30 1281 C 128.733 1.92429 0.597769 0
M  V30 1282 O 127.789 2.12962 1.3566 0
M  V30 1283 C 129.102 2.35357 -1.87156 0
M  V30 1284 C 130.65 2.49021 -1.89624 0
M  V30 1285 C 131.125 3.49468 -2.96034 0
M  V30 1286 N 132.616 3.57003 -2.95132 0
M  V30 1287 C 133.351 4.34543 -3.74112 0
M  V30 1288 N 132.847 5.15421 -4.6294 0
M  V30 1289 N 134.64 4.29625 -3.62462 0
M  V30 1290 H 126.791 0.78584 -1.97328 0
M  V30 1291 H 129.054 0.408065 -0.855679 0
M  V30 1292 H 128.76 2.02626 -2.87464 0
M  V30 1293 H 128.634 3.35129 -1.73114 0
M  V30 1294 H 131.021 2.81051 -0.899687 0
M  V30 1295 H 131.102 1.4925 -2.07745 0
M  V30 1296 H 130.746 3.18173 -3.95889 0
M  V30 1297 H 130.676 4.48992 -2.75161 0
M  V30 1298 H 133.167 2.99276 -2.30743 0
M  V30 1299 H 133.48 5.7183 -5.19837 0
M  V30 1300 H 131.825 5.14729 -4.66989 0
M  V30 1301 H 135.016 3.65505 -2.92444 0
M  V30 1302 H 135.189 4.89807 -4.24256 0
M  V30 1303 N 128.595 0.856903 1.32268 0
M  V30 1304 C 129.505 0.306131 2.32594 0
M  V30 1305 C 130.521 -0.577209 1.64147 0
M  V30 1306 O 131.697 -0.477043 1.95669 0
M  V30 1307 C 128.762 -0.494561 3.43154 0
M  V30 1308 C 127.823 0.415186 4.27288 0
M  V30 1309 C 127.056 -0.347387 5.32568 0
M  V30 1310 O 127.279 -1.57708 5.48165 0
M  V30 1311 O 126.213 0.287982 6.01211 0
M  V30 1312 H 130.039 1.13737 2.81598 0
M  V30 1313 H 127.624 0.619902 1.35932 0
M  V30 1314 H 129.506 -0.948944 4.10576 0
M  V30 1315 H 128.181 -1.30257 2.96336 0
M  V30 1316 H 127.088 0.917793 3.62667 0
M  V30 1317 H 128.421 1.18844 4.77637 0
M  V30 1318 N 130.073 -1.45103 0.615059 0
M  V30 1319 C 131.322 -2.01396 0.110718 0
M  V30 1320 C 131.635 -1.48834 -1.26916 0
M  V30 1321 O 132.841 -1.97152 -1.86664 0
M  V30 1322 C 131.297 -3.59599 0.14723 0
M  V30 1323 C 130.905 -4.21158 1.52743 0
M  V30 1324 C 132.649 -4.23428 -0.30148 0
M  V30 1325 C 130.556 -5.71535 1.51992 0
M  V30 1326 H 129.486 -0.753061 0.0376241 0
M  V30 1327 H 132.137 -1.66494 0.77149 0
M  V30 1328 H 130.519 -3.91724 -0.580339 0
M  V30 1329 H 131.693 -4.00594 2.2773 0
M  V30 1330 H 130.008 -3.69552 1.91886 0
M  V30 1331 H 132.605 -5.33703 -0.326392 0
M  V30 1332 H 132.948 -3.94629 -1.32565 0
M  V30 1333 H 133.481 -3.96047 0.373065 0
M  V30 1334 H 130.22 -6.05044 2.52193 0
M  V30 1335 H 129.74 -5.94268 0.81274 0
M  V30 1336 H 131.419 -6.34873 1.24681 0
M  V30 1337 N 131.551 -0.354651 -1.53558 0
M  V30 1338 C 132.483 0.5315 -2.22952 0
M  V30 1339 C 133.496 1.05503 -1.23988 0
M  V30 1340 O 134.685 0.963279 -1.50277 0
M  V30 1341 C 131.785 1.74538 -2.90499 0
M  V30 1342 C 130.958 1.35524 -4.15875 0
M  V30 1343 C 130.017 2.42999 -4.66731 0
M  V30 1344 O 129.043 2.05844 -5.30676 0
M  V30 1345 N 130.245 3.74423 -4.43608 0
M  V30 1346 H 133.01 -0.0628615 -2.99634 0
M  V30 1347 H 130.571 -0.179302 -1.60904 0
M  V30 1348 H 132.563 2.45892 -3.21433 0
M  V30 1349 H 131.133 2.24686 -2.17336 0
M  V30 1350 H 130.353 0.471998 -3.91364 0
M  V30 1351 H 131.641 1.07071 -4.97406 0
M  V30 1352 H 131.039 4.07391 -3.92491 0
M  V30 1353 H 129.596 4.41913 -4.7912 0
M  V30 1354 N 133.029 1.57378 -0.0835403 0
M  V30 1355 C 134.278 1.93106 0.582498 0
M  V30 1356 C 134.591 0.96651 1.70053 0
M  V30 1357 O 135.797 1.21705 2.42693 0
M  V30 1358 C 134.253 3.43076 1.08751 0
M  V30 1359 C 133.861 4.48 -0.000146404 0
M  V30 1360 C 135.605 3.87785 1.72694 0
M  V30 1361 C 133.512 5.89113 0.519568 0
M  V30 1362 H 132.442 0.720775 0.221358 0
M  V30 1363 H 135.093 1.82821 -0.157675 0
M  V30 1364 H 133.475 3.48474 1.88101 0
M  V30 1365 H 134.649 4.54233 -0.775199 0
M  V30 1366 H 132.964 4.1283 -0.54406 0
M  V30 1367 H 135.561 4.90604 2.1263 0
M  V30 1368 H 135.904 3.25796 2.59158 0
M  V30 1369 H 136.437 3.8504 0.999457 0
M  V30 1370 H 133.176 6.54775 -0.308186 0
M  V30 1371 H 132.696 5.86376 1.26188 0
M  V30 1372 H 134.375 6.39346 0.992237 0
M  V30 1373 N 134.507 -0.190092 1.56449 0
M  V30 1374 C 135.437 -1.23816 1.97969 0
M  V30 1375 C 136.418 -1.47201 0.852395 0
M  V30 1376 O 137.603 -1.58854 1.1171 0
M  V30 1377 C 134.733 -2.5813 2.3235 0
M  V30 1378 C 133.687 -2.49348 3.47864 0
M  V30 1379 C 133.013 -3.8798 3.67934 0
M  V30 1380 C 134.313 -2.01424 4.81898 0
M  V30 1381 H 136.007 -0.89311 2.85769 0
M  V30 1382 H 133.553 -0.428177 1.37487 0
M  V30 1383 H 135.506 -3.31637 2.59991 0
M  V30 1384 H 134.23 -2.94386 1.41438 0
M  V30 1385 H 132.889 -1.78297 3.20321 0
M  V30 1386 H 132.537 -4.21597 2.74344 0
M  V30 1387 H 132.237 -3.82978 4.45648 0
M  V30 1388 H 133.761 -4.63101 3.97957 0
M  V30 1389 H 135.175 -2.64693 5.08538 0
M  V30 1390 H 133.572 -2.07413 5.63116 0
M  V30 1391 H 134.642 -0.967677 4.75146 0
M  V30 1392 N 135.985 -1.50799 -0.457987 0
M  V30 1393 C 136.915 -1.73553 -1.5621 0
M  V30 1394 C 137.896 -0.584774 -1.59732 0
M  V30 1395 O 139.081 -0.825314 -1.7579 0
M  V30 1396 C 136.211 -1.84169 -2.94447 0
M  V30 1397 C 135.165 -2.99461 -3.0579 0
M  V30 1398 C 134.491 -2.95235 -4.45803 0
M  V30 1399 C 135.791 -4.39766 -2.81786 0
M  V30 1400 H 137.485 -2.66 -1.37421 0
M  V30 1401 H 135.031 -1.28002 -0.659662 0
M  V30 1402 H 136.984 -1.98672 -3.71628 0
M  V30 1403 H 135.708 -0.883545 -3.14422 0
M  V30 1404 H 134.367 -2.8463 -2.31044 0
M  V30 1405 H 134.015 -1.97239 -4.62715 0
M  V30 1406 H 133.715 -3.72642 -4.54326 0
M  V30 1407 H 135.239 -3.11803 -5.24987 0
M  V30 1408 H 136.653 -4.55054 -3.4871 0
M  V30 1409 H 135.05 -5.18722 -3.0174 0
M  V30 1410 H 136.12 -4.51229 -1.7754 0
M  V30 1411 N 137.463 0.71206 -1.40597 0
M  V30 1412 C 138.879 1.02058 -1.22704 0
M  V30 1413 C 139.079 2.01228 -0.104729 0
M  V30 1414 O 138.135 2.4674 0.53624 0
M  V30 1415 C 139.448 1.56094 -2.57012 0
M  V30 1416 C 140.996 1.6806 -2.64054 0
M  V30 1417 C 141.471 2.25501 -3.9864 0
M  V30 1418 N 142.962 2.32882 -4.004 0
M  V30 1419 C 143.697 2.78317 -5.01325 0
M  V30 1420 N 143.193 3.23478 -6.12645 0
M  V30 1421 N 144.986 2.77733 -4.88693 0
M  V30 1422 H 137.137 0.0547896 -2.12329 0
M  V30 1423 H 139.4 0.0869027 -0.944008 0
M  V30 1424 H 139.106 0.906865 -3.39807 0
M  V30 1425 H 138.98 2.54564 -2.78347 0
M  V30 1426 H 141.367 2.32583 -1.81629 0
M  V30 1427 H 141.448 0.681802 -2.46546 0
M  V30 1428 H 141.092 1.61598 -4.81506 0
M  V30 1429 H 141.022 3.26102 -4.13479 0
M  V30 1430 H 143.513 2.00991 -3.20017 0
M  V30 1431 H 143.826 3.56725 -6.85542 0
M  V30 1432 H 142.171 3.21429 -6.16205 0
M  V30 1433 H 145.362 2.4179 -4.00818 0
M  V30 1434 H 145.535 3.12826 -5.67489 0
M  V30 1435 N 138.941 1.26152 0.944643 0
M  V30 1436 C 140.188 1.11492 1.69044 0
M  V30 1437 C 140.516 -0.342366 1.91463 0
M  V30 1438 O 139.771 -1.26812 1.49054 0
M  V30 1439 C 140.07 1.82541 3.07268 0
M  V30 1440 C 139.736 3.32445 3.04616 0
M  V30 1441 C 138.398 3.73337 3.036 0
M  V30 1442 C 140.75 4.28171 2.97185 0
M  V30 1443 C 138.078 5.08348 2.92915 0
M  V30 1444 C 140.43 5.63218 2.88041 0
M  V30 1445 C 139.094 6.03426 2.85366 0
M  V30 1446 H 138.364 0.407977 0.618576 0
M  V30 1447 H 141.011 1.56551 1.10291 0
M  V30 1448 H 139.316 1.29941 3.69625 0
M  V30 1449 H 141.013 1.68642 3.63815 0
M  V30 1450 H 137.603 2.99915 3.06185 0
M  V30 1451 H 141.787 3.97563 2.97081 0
M  V30 1452 H 137.043 5.38667 2.89219 0
M  V30 1453 H 141.217 6.37078 2.81254 0
M  V30 1454 H 138.844 7.07999 2.76842 0
M  V30 1455 N 140.419 -1.14872 1.07899 0
M  V30 1456 C 141.835 -1.37776 0.805606 0
M  V30 1457 C 142.035 -1.92743 -0.587555 0
M  V30 1458 O 141.091 -2.13678 -1.34528 0
M  V30 1459 C 142.404 -2.34361 1.88402 0
M  V30 1460 C 143.952 -2.48012 1.90942 0
M  V30 1461 C 144.427 -3.47893 2.97883 0
M  V30 1462 N 145.918 -3.55433 2.97021 0
M  V30 1463 C 146.653 -4.32553 3.76412 0
M  V30 1464 N 146.149 -5.12959 4.65666 0
M  V30 1465 N 147.942 -4.27697 3.64735 0
M  V30 1466 H 140.093 -0.775365 1.97742 0
M  V30 1467 H 142.356 -0.403521 0.857831 0
M  V30 1468 H 142.062 -2.01098 2.88535 0
M  V30 1469 H 141.936 -3.34206 1.74889 0
M  V30 1470 H 144.323 -2.8057 0.914579 0
M  V30 1471 H 144.404 -1.48147 2.08534 0
M  V30 1472 H 144.048 -3.16069 3.97571 0
M  V30 1473 H 143.978 -4.47527 2.77538 0
M  V30 1474 H 146.469 -2.98048 2.32326 0
M  V30 1475 H 146.782 -5.69065 5.22862 0
M  V30 1476 H 145.127 -5.12245 4.69712 0
M  V30 1477 H 148.318 -3.63949 2.94378 0
M  V30 1478 H 148.491 -4.8755 4.26848 0
M  V30 1479 N 141.898 -0.863906 -1.31812 0
M  V30 1480 C 142.848 -0.286898 -2.26188 0
M  V30 1481 C 143.832 0.572577 -1.50367 0
M  V30 1482 O 145.024 0.420447 -1.71934 0
M  V30 1483 C 142.153 0.515849 -3.39402 0
M  V30 1484 C 141.239 -0.356531 -4.22599 0
M  V30 1485 N 141.63 -1.44716 -4.84656 0
M  V30 1486 C 139.928 -0.147898 -4.45755 0
M  V30 1487 C 140.629 -1.98462 -5.46798 0
M  V30 1488 N 139.605 -1.28247 -5.28255 0
M  V30 1489 H 143.407 -1.12055 -2.717 0
M  V30 1490 H 140.921 -0.711012 -1.46008 0
M  V30 1491 H 142.918 0.945701 -4.06032 0
M  V30 1492 H 141.578 1.34718 -2.95434 0
M  V30 1493 H 142.589 -1.83008 -4.84488 0
M  V30 1494 H 139.266 0.647973 -4.12441 0
M  V30 1495 H 140.656 -2.89932 -6.06126 0
M  V30 1496 N 143.376 1.44774 -0.622745 0
M  V30 1497 C 144.286 2.34433 0.0886031 0
M  V30 1498 C 145.302 1.52131 0.844529 0
M  V30 1499 O 146.478 1.84886 0.798691 0
M  V30 1500 C 143.543 3.29986 1.0635 0
M  V30 1501 C 142.604 4.28195 0.307873 0
M  V30 1502 C 141.837 5.19183 1.23633 0
M  V30 1503 O 142.06 5.13918 2.47476 0
M  V30 1504 O 140.994 5.97515 0.725189 0
M  V30 1505 H 144.82 2.96693 -0.648599 0
M  V30 1506 H 142.405 1.44408 -0.382957 0
M  V30 1507 H 144.287 3.88825 1.6246 0
M  V30 1508 H 142.962 2.70269 1.78146 0
M  V30 1509 H 141.869 3.72927 -0.296064 0
M  V30 1510 H 143.202 4.90808 -0.3699 0
M  V30 1511 N 144.854 0.36279 1.53368 0
M  V30 1512 C 145.802 -0.500155 2.27159 0
M  V30 1513 C 146.796 -1.08575 1.3003 0
M  V30 1514 O 148.002 -1.02927 1.47668 0
M  V30 1515 H 144.377 -0.180009 0.730138 0
M  V30 1516 H 146.348 0.14401 2.98052 0
M  V30 1517 C 145.097 -1.62937 3.07159 0
M  V30 1518 H 144.42 -1.18806 3.8174 0
M  V30 1519 H 145.86 -2.20795 3.61975 0
M  V30 1520 C 144.319 -2.57007 2.17829 0
M  V30 1521 O 144.849 -3.59752 1.78721 0
M  V30 1522 N 143.055 -2.26131 1.82518 0
M  V30 1523 H 142.602 -1.42616 2.14519 0
M  V30 1524 H 142.56 -2.89327 1.23034 0
M  V30 1525 N 146.332 -1.57332 0.0918853 0
M  V30 1526 C 147.578 -1.94524 -0.573425 0
M  V30 1527 C 147.911 -0.973578 -1.68033 0
M  V30 1528 O 147.186 -0.00609226 -1.94499 0
M  V30 1529 C 147.469 -3.41858 -1.13161 0
M  V30 1530 C 147.322 -4.4979 -0.0299747 0
M  V30 1531 C 148.641 -3.90435 -2.03098 0
M  V30 1532 H 145.76 -0.70734 -0.206975 0
M  V30 1533 H 148.402 -1.89309 0.161942 0
M  V30 1534 H 146.552 -3.46433 -1.7583 0
M  V30 1535 H 148.224 -4.57327 0.604112 0
M  V30 1536 H 146.467 -4.291 0.636833 0
M  V30 1537 H 147.138 -5.50069 -0.461287 0
M  V30 1538 H 149.614 -3.87992 -1.50338 0
M  V30 1539 H 148.49 -4.94097 -2.39081 0
M  V30 1540 H 148.751 -3.29541 -2.94712 0
M  V30 1541 N 147.81 0.181792 -1.56548 0
M  V30 1542 C 149.059 0.898348 -1.8059 0
M  V30 1543 C 149.372 1.83862 -0.667379 0
M  V30 1544 O 150.578 2.59678 -0.792446 0
M  V30 1545 C 149.034 1.64791 -3.19956 0
M  V30 1546 C 148.642 0.751789 -4.41647 0
M  V30 1547 C 150.386 2.35331 -3.53298 0
M  V30 1548 C 148.293 1.50098 -5.72035 0
M  V30 1549 H 147.223 0.339194 -0.673397 0
M  V30 1550 H 149.874 0.151413 -1.82874 0
M  V30 1551 H 148.256 2.43921 -3.11959 0
M  V30 1552 H 149.43 -0.0018076 -4.608 0
M  V30 1553 H 147.745 0.156562 -4.16106 0
M  V30 1554 H 150.342 2.91958 -4.47956 0
M  V30 1555 H 150.685 3.10164 -2.77676 0
M  V30 1556 H 151.218 1.63154 -3.62803 0
M  V30 1557 H 147.957 0.795175 -6.50659 0
M  V30 1558 H 147.477 2.22817 -5.56878 0
M  V30 1559 H 149.156 2.05125 -6.13622 0
M  V30 1560 N 149.288 1.51039 0.449983 0
M  V30 1561 C 150.536 1.62759 1.19808 0
M  V30 1562 C 150.857 0.339981 1.92013 0
M  V30 1563 O 150.127 -0.643606 1.85026 0
M  V30 1564 H 148.707 0.599811 0.445237 0
M  V30 1565 H 151.369 1.87914 0.517138 0
M  V30 1566 H 150.465 2.44911 1.93455 0
M  V30 1567 N 150.766 -0.704594 1.40972 0
M  V30 1568 C 152.015 -1.46018 1.39146 0
M  V30 1569 C 152.328 -1.956 0.000589254 0
M  V30 1570 O 153.534 -2.71137 -0.1403 0
M  V30 1571 C 151.99 -2.63996 2.4461 0
M  V30 1572 C 151.598 -2.21238 3.89561 0
M  V30 1573 C 153.342 -3.41677 2.51907 0
M  V30 1574 C 151.249 -3.3612 4.86598 0
M  V30 1575 H 150.179 -0.548444 0.517422 0
M  V30 1576 H 152.83 -0.765784 1.66757 0
M  V30 1577 H 151.212 -3.3566 2.10115 0
M  V30 1578 H 152.386 -1.56923 4.33257 0
M  V30 1579 H 150.701 -1.56574 3.85841 0
M  V30 1580 H 153.298 -4.27182 3.2159 0
M  V30 1581 H 153.641 -3.86247 1.55303 0
M  V30 1582 H 154.174 -2.77064 2.85448 0
M  V30 1583 H 150.913 -2.96572 5.84573 0
M  V30 1584 H 150.433 -3.99315 4.47557 0
M  V30 1585 H 152.112 -4.02029 5.06934 0
M  V30 1586 N 152.244 -1.26651 -0.937939 0
M  V30 1587 C 153.66 -1.03834 -1.21205 0
M  V30 1588 C 153.86 0.234502 -2.00131 0
M  V30 1589 O 152.916 0.942767 -2.3424 0
M  V30 1590 C 154.229 -2.27167 -1.97017 0
M  V30 1591 C 155.777 -2.32101 -2.09996 0
M  V30 1592 C 156.252 -3.55136 -2.8921 0
M  V30 1593 N 157.743 -3.55632 -2.96783 0
M  V30 1594 C 158.478 -4.475 -3.58512 0
M  V30 1595 N 157.974 -5.4966 -4.21717 0
M  V30 1596 N 159.767 -4.35145 -3.55816 0
M  V30 1597 H 151.918 -2.08398 -0.410391 0
M  V30 1598 H 154.181 -0.916031 -0.244114 0
M  V30 1599 H 153.887 -3.19765 -1.46434 0
M  V30 1600 H 153.761 -2.31672 -2.97671 0
M  V30 1601 H 156.148 -1.40015 -2.59769 0
M  V30 1602 H 156.229 -2.31605 -1.08594 0
M  V30 1603 H 155.873 -4.47553 -2.40123 0
M  V30 1604 H 155.803 -3.5288 -3.90875 0
M  V30 1605 H 158.294 -2.81743 -2.51852 0
M  V30 1606 H 158.607 -6.15943 -4.66727 0
M  V30 1607 H 156.952 -5.53514 -4.20294 0
M  V30 1608 H 160.143 -3.5455 -3.05634 0
M  V30 1609 H 160.316 -5.06934 -4.03636 0
M  V30 1610 N 153.722 1.14298 -1.08507 0
M  V30 1611 C 154.999 1.81544 -0.728088 0
M  V30 1612 C 155.379 1.95838 0.78808 0
M  V30 1613 O 154.727 1.51904 1.70697 0
M  V30 1614 C 154.937 3.17169 -1.45619 0
M  V30 1615 C 156.285 3.9265 -1.61591 0
M  V30 1616 O 157.309 3.26762 -1.41793 0
M  V30 1617 O 156.168 5.10807 -1.94263 0
M  V30 1618 H 153.262 0.78491 -0.260471 0
M  V30 1619 H 155.808 1.21307 -1.18671 0
M  V30 1620 H 154.58 3.01934 -2.489 0
M  V30 1621 H 154.203 3.851 -0.989124 0
M  V30 1622 N 155.201 0.870884 1.31352 0
M  V30 1623 C 156.45 0.478408 1.95944 0
M  V30 1624 C 156.763 -0.974493 1.69597 0
M  V30 1625 O 157.969 -1.47316 2.28058 0
M  V30 1626 C 156.425 0.804609 3.50791 0
M  V30 1627 C 156.033 2.27433 3.85977 0
M  V30 1628 C 157.777 0.480648 4.2177 0
M  V30 1629 C 155.684 2.5429 5.33939 0
M  V30 1630 H 154.614 0.175175 0.733369 0
M  V30 1631 H 157.265 1.06391 1.4951 0
M  V30 1632 H 155.647 0.148347 3.95722 0
M  V30 1633 H 156.821 2.97373 3.52002 0
M  V30 1634 H 155.136 2.56442 3.28065 0
M  V30 1635 H 157.733 0.658519 5.30629 0
M  V30 1636 H 158.076 -0.578979 4.12254 0
M  V30 1637 H 158.609 1.09349 3.82476 0
M  V30 1638 H 155.348 3.58939 5.48491 0
M  V30 1639 H 154.868 1.88945 5.69263 0
M  V30 1640 H 156.547 2.39066 6.01212 0
M  V30 1641 N 156.679 -1.44442 0.630414 0
M  V30 1642 C 157.609 -2.33418 -0.0618083 0
M  V30 1643 C 158.59 -1.48165 -0.835541 0
M  V30 1644 O 159.775 -1.76886 -0.801564 0
M  V30 1645 C 156.905 -3.31222 -1.04449 0
M  V30 1646 C 155.859 -4.26288 -0.382436 0
M  V30 1647 C 155.185 -5.13954 -1.47497 0
M  V30 1648 C 156.485 -5.1744 0.710865 0
M  V30 1649 H 158.179 -2.91548 0.681184 0
M  V30 1650 H 155.725 -1.40191 0.329026 0
M  V30 1651 H 157.678 -3.92351 -1.53748 0
M  V30 1652 H 156.402 -2.71299 -1.81836 0
M  V30 1653 H 155.061 -3.6649 0.0899054 0
M  V30 1654 H 154.709 -4.50385 -2.2397 0
M  V30 1655 H 154.409 -5.7837 -1.03737 0
M  V30 1656 H 155.933 -5.77955 -1.96979 0
M  V30 1657 H 157.347 -5.72509 0.300996 0
M  V30 1658 H 155.744 -5.90455 1.07156 0
M  V30 1659 H 156.814 -4.58496 1.57829 0
M  V30 1660 N 158.157 -0.370918 -1.53173 0
M  V30 1661 C 159.573 -0.0200818 -1.59587 0
M  V30 1662 C 159.773 1.46279 -1.38581 0
M  V30 1663 O 158.829 2.22506 -1.19363 0
M  V30 1664 C 160.142 -0.4808 -2.96831 0
M  V30 1665 C 161.69 -0.435477 -3.09956 0
M  V30 1666 C 162.165 -0.872092 -4.4962 0
M  V30 1667 N 163.656 -0.827364 -4.55751 0
M  V30 1668 C 164.391 -1.13683 -5.62018 0
M  V30 1669 N 163.887 -1.51584 -6.76014 0
M  V30 1670 N 165.68 -1.05927 -5.52029 0
M  V30 1671 H 157.831 -1.33652 -1.65079 0
M  V30 1672 H 160.094 -0.546634 -0.774529 0
M  V30 1673 H 159.8 -1.51577 -3.1736 0
M  V30 1674 H 159.674 0.129796 -3.76977 0
M  V30 1675 H 162.061 0.590371 -2.89134 0
M  V30 1676 H 162.142 -1.08164 -2.31806 0
M  V30 1677 H 161.786 -1.89608 -4.71181 0
M  V30 1678 H 161.716 -0.203127 -5.26208 0
M  V30 1679 H 164.207 -0.548216 -3.73902 0
M  V30 1680 H 164.52 -1.73609 -7.53047 0
M  V30 1681 H 162.865 -1.55454 -6.77391 0
M  V30 1682 H 166.056 -0.762321 -4.61851 0
M  V30 1683 H 166.229 -1.30378 -6.34749 0
M  V30 1684 N 159.635 1.57281 -0.100228 0
M  V30 1685 C 160.598 2.13158 0.842398 0
M  V30 1686 C 161.598 1.06202 1.20738 0
M  V30 1687 O 162.788 1.32066 1.13597 0
M  V30 1688 C 159.92 2.65639 2.13655 0
M  V30 1689 H 161.113 2.97766 0.357114 0
M  V30 1690 H 158.666 1.5559 0.148823 0
M  V30 1691 H 159.401 1.84566 2.66657 0
M  V30 1692 H 159.186 3.43844 1.88451 0
M  V30 1693 H 160.676 3.08846 2.81077 0
M  V30 1694 N 161.113 -0.173488 1.56642 0
M  V30 1695 C 162.338 -0.910149 1.86363 0
M  V30 1696 C 162.763 -1.75132 0.686318 0
M  V30 1697 O 162.121 -1.77595 -0.364643 0
M  V30 1698 C 162.169 -1.76447 3.14482 0
M  V30 1699 O 161.273 -2.86584 2.96553 0
M  V30 1700 H 160.614 -0.255086 0.613047 0
M  V30 1701 H 163.144 -0.172283 2.03873 0
M  V30 1702 H 163.154 -2.16483 3.45831 0
M  V30 1703 H 161.829 -1.14658 3.99783 0
M  V30 1704 H 160.406 -2.50146 2.76553 0
M  V30 1705 N 162.591 -1.51276 -0.441967 0
M  V30 1706 C 163.819 -1.67516 -1.21434 0
M  V30 1707 C 164.234 -0.37055 -1.85128 0
M  V30 1708 O 163.591 0.650498 -1.70513 0
M  V30 1709 C 163.642 -2.78748 -2.30177 0
M  V30 1710 O 163.363 -4.04154 -1.69089 0
M  V30 1711 C 164.864 -3.06217 -3.20541 0
M  V30 1712 H 162.084 -0.562276 -0.366178 0
M  V30 1713 H 164.628 -1.97666 -0.524244 0
M  V30 1714 H 162.783 -2.5121 -2.94911 0
M  V30 1715 H 163.197 -4.65894 -2.40922 0
M  V30 1716 H 164.671 -3.8764 -3.92987 0
M  V30 1717 H 165.148 -2.18439 -3.81026 0
M  V30 1718 H 165.754 -3.35397 -2.61513 0
M  V30 1719 N 164.069 0.697108 -1.41344 0
M  V30 1720 C 164.999 1.82353 -1.45841 0
M  V30 1721 C 165.98 1.67115 -0.317247 0
M  V30 1722 O 167.165 1.86871 -0.528474 0
M  V30 1723 C 164.295 3.20476 -1.33838 0
M  V30 1724 C 163.249 3.50415 -2.4575 0
M  V30 1725 C 162.575 4.87878 -2.18813 0
M  V30 1726 C 163.875 3.49546 -3.88091 0
M  V30 1727 H 165.569 1.78846 -2.40113 0
M  V30 1728 H 163.115 0.859028 -1.15571 0
M  V30 1729 H 165.068 3.98988 -1.35596 0
M  V30 1730 H 163.792 3.24604 -0.360498 0
M  V30 1731 H 162.451 2.74253 -2.43271 0
M  V30 1732 H 162.099 4.8863 -1.19371 0
M  V30 1733 H 161.799 5.08875 -2.93803 0
M  V30 1734 H 163.323 5.68702 -2.22284 0
M  V30 1735 H 164.737 4.18066 -3.92293 0
M  V30 1736 H 163.134 3.82075 -4.62751 0
M  V30 1737 H 164.204 2.48552 -4.16353 0
M  V30 1738 N 165.547 1.27147 0.931209 0
M  V30 1739 C 166.457 1.11372 2.06478 0
M  V30 1740 C 167.473 0.044645 1.73943 0
M  V30 1741 O 168.649 0.250417 1.99837 0
M  V30 1742 C 165.714 0.758838 3.38294 0
M  V30 1743 C 164.775 1.90841 3.84549 0
M  V30 1744 C 164.008 1.57036 5.10074 0
M  V30 1745 O 164.231 0.476645 5.68405 0
M  V30 1746 O 163.165 2.40839 5.51616 0
M  V30 1747 H 166.991 2.06493 2.22698 0
M  V30 1748 H 164.576 1.06301 1.04978 0
M  V30 1749 H 166.458 0.574098 4.17471 0
M  V30 1750 H 165.133 -0.162879 3.2329 0
M  V30 1751 H 164.04 2.14819 3.06274 0
M  V30 1752 H 165.373 2.81021 4.04089 0
M  V30 1753 N 167.025 -1.13721 1.09112 0
M  V30 1754 C 167.988 -2.17222 0.731241 0
M  V30 1755 C 168.988 -1.59035 -0.237566 0
M  V30 1756 O 170.178 -1.74192 -0.0161704 0
M  V30 1757 C 167.31 -3.40804 0.0808443 0
M  V30 1758 H 168.503 -2.50573 1.64783 0
M  V30 1759 H 166.056 -1.28493 0.889897 0
M  V30 1760 H 166.791 -3.1304 -0.847127 0
M  V30 1761 H 166.576 -3.84306 0.777896 0
M  V30 1762 H 168.066 -4.1731 -0.155657 0
M  V30 1763 N 168.503 -0.877838 -1.30888 0
M  V30 1764 C 169.436 -0.283995 -2.26426 0
M  V30 1765 C 170.414 0.591361 -1.51465 0
M  V30 1766 O 171.598 0.54304 -1.80509 0
M  V30 1767 C 168.725 0.597129 -3.33395 0
M  V30 1768 C 167.771 -0.207937 -4.25993 0
M  V30 1769 S 168.604 -1.59158 -5.11301 0
M  V30 1770 C 169.76 -0.716791 -6.21782 0
M  V30 1771 H 169.993 -1.09383 -2.76446 0
M  V30 1772 H 167.526 -0.676828 -1.38775 0
M  V30 1773 H 169.484 1.09978 -3.95493 0
M  V30 1774 H 168.145 1.38099 -2.82113 0
M  V30 1775 H 167.338 0.464163 -5.01858 0
M  V30 1776 H 166.94 -0.642963 -3.68432 0
M  V30 1777 H 169.232 0.0692833 -6.77465 0
M  V30 1778 H 170.175 -1.44682 -6.93161 0
M  V30 1779 H 170.583 -0.280855 -5.63801 0
M  V30 1780 N 169.982 1.44106 -0.638065 0
M  V30 1781 C 171.398 1.56672 -0.304286 0
M  V30 1782 C 171.598 1.6244 1.19228 0
M  V30 1783 O 170.654 1.57121 1.9766 0
M  V30 1784 C 171.967 2.83503 -1.00231 0
M  V30 1785 C 173.515 2.97226 -0.981116 0
M  V30 1786 C 173.99 4.26868 -1.65974 0
M  V30 1787 N 175.481 4.33698 -1.62666 0
M  V30 1788 C 176.216 5.32745 -2.12063 0
M  V30 1789 N 175.712 6.38157 -2.6968 0
M  V30 1790 N 177.505 5.24299 -2.02651 0
M  V30 1791 H 169.656 1.38605 -1.60942 0
M  V30 1792 H 171.919 0.664661 -0.675965 0
M  V30 1793 H 171.625 2.85251 -2.0573 0
M  V30 1794 H 171.499 3.73251 -0.54439 0
M  V30 1795 H 173.886 2.95027 0.0654188 0
M  V30 1796 H 173.967 2.08808 -1.47759 0
M  V30 1797 H 173.611 4.29826 -2.70576 0
M  V30 1798 H 173.541 5.14156 -1.13804 0
M  V30 1799 H 176.032 3.58138 -1.20606 0
M  V30 1800 H 176.345 7.10029 -3.05087 0
M  V30 1801 H 174.69 6.38823 -2.73734 0
M  V30 1802 H 177.881 4.4086 -1.57353 0
M  V30 1803 H 178.054 6.01334 -2.41457 0
M  V30 1804 N 171.46 0.379036 1.52974 0
M  V30 1805 C 172.737 -0.263479 1.93817 0
M  V30 1806 C 173.117 -1.65244 1.31368 0
M  V30 1807 O 172.465 -2.23448 0.477856 0
M  V30 1808 C 172.675 -0.300166 3.47707 0
M  V30 1809 C 174.023 -0.534061 4.21228 0
M  V30 1810 O 175.047 -0.38081 3.54159 0
M  V30 1811 O 173.906 -0.833501 5.40106 0
M  V30 1812 H 171 -0.161149 0.811147 0
M  V30 1813 H 173.546 0.432798 1.64088 0
M  V30 1814 H 172.318 0.673138 3.85467 0
M  V30 1815 H 171.941 -1.04179 3.83709 0
M  V30 1816 N 172.938 -1.57226 0.108567 0
M  V30 1817 C 174.184 -1.95121 -0.552761 0
M  V30 1818 C 174.517 -0.991345 -1.66991 0
M  V30 1819 O 173.792 -0.0267211 -1.94482 0
M  V30 1820 C 174.075 -3.43039 -1.09528 0
M  V30 1821 C 173.928 -4.49797 0.0177332 0
M  V30 1822 C 175.247 -3.92567 -1.98945 0
M  V30 1823 H 172.366 -0.709496 -0.199461 0
M  V30 1824 H 175.008 -1.89126 0.182011 0
M  V30 1825 H 173.158 -3.48279 -1.72146 0
M  V30 1826 H 174.83 -4.56661 0.652584 0
M  V30 1827 H 173.073 -4.284 0.682309 0
M  V30 1828 H 173.744 -5.50528 -0.402919 0
M  V30 1829 H 176.22 -3.89565 -1.46214 0
M  V30 1830 H 175.096 -4.96605 -2.33827 0
M  V30 1831 H 175.357 -3.32648 -2.91201 0
M  V30 1832 N 174.416 0.165178 -1.56732 0
M  V30 1833 C 175.646 0.894919 -1.86212 0
M  V30 1834 C 176.054 1.76066 -0.692627 0
M  V30 1835 O 175.397 1.80387 0.347303 0
M  V30 1836 C 175.459 1.8174 -3.10179 0
M  V30 1837 C 175.123 1.13064 -4.42793 0
M  V30 1838 C 176.12 0.493169 -5.17556 0
M  V30 1839 C 173.805 1.12556 -4.89527 0
M  V30 1840 C 175.799 -0.140209 -6.37246 0
M  V30 1841 C 173.486 0.488366 -6.09145 0
M  V30 1842 C 174.484 -0.143411 -6.82849 0
M  V30 1843 O 174.172 -0.77055 -8.00199 0
M  V30 1844 H 173.904 0.265114 -0.621844 0
M  V30 1845 H 176.458 0.168242 -2.0471 0
M  V30 1846 H 174.688 2.58455 -2.87642 0
M  V30 1847 H 176.377 2.4175 -3.26055 0
M  V30 1848 H 177.143 0.489023 -4.82528 0
M  V30 1849 H 173.022 1.60672 -4.32094 0
M  V30 1850 H 176.566 -0.633932 -6.94714 0
M  V30 1851 H 172.463 0.490116 -6.43637 0
M  V30 1852 H 173.231 -0.670408 -8.1575 0
M  V30 1853 N 175.894 1.51508 0.433938 0
M  V30 1854 C 177.143 1.63578 1.18005 0
M  V30 1855 C 177.456 0.359514 1.92268 0
M  V30 1856 O 178.662 0.359632 2.69108 0
M  V30 1857 C 177.118 2.88901 2.14626 0
M  V30 1858 C 176.726 4.23544 1.45995 0
M  V30 1859 C 178.47 3.10328 2.89649 0
M  V30 1860 C 176.377 5.40014 2.4112 0
M  V30 1861 H 175.307 0.609277 0.444182 0
M  V30 1862 H 177.958 1.77978 0.446773 0
M  V30 1863 H 176.34 2.68142 2.91403 0
M  V30 1864 H 177.514 4.54696 0.747532 0
M  V30 1865 H 175.829 4.08021 0.831115 0
M  V30 1866 H 178.426 3.94518 3.60915 0
M  V30 1867 H 178.769 2.23544 3.51189 0
M  V30 1868 H 179.302 3.31443 2.19978 0
M  V30 1869 H 176.041 6.29068 1.84264 0
M  V30 1870 H 175.561 5.13233 3.10406 0
M  V30 1871 H 177.24 5.72099 3.02177 0
M  V30 1872 N 177.372 -0.689602 1.41712 0
M  V30 1873 C 178.618 -1.45181 1.41599 0
M  V30 1874 C 178.951 -1.94181 0.0270081 0
M  V30 1875 O 178.226 -1.6993 -0.946265 0
M  V30 1876 C 178.509 -2.65945 2.42787 0
M  V30 1877 C 178.362 -2.22672 3.90816 0
M  V30 1878 C 179.681 -3.68149 2.41151 0
M  V30 1879 H 176.8 -0.526576 0.515642 0
M  V30 1880 H 179.442 -0.784947 1.73028 0
M  V30 1881 H 177.592 -3.2284 2.16116 0
M  V30 1882 H 179.264 -1.71058 4.28412 0
M  V30 1883 H 177.507 -1.54394 4.05395 0
M  V30 1884 H 178.178 -3.0935 4.57172 0
M  V30 1885 H 180.654 -3.2094 2.64834 0
M  V30 1886 H 179.53 -4.50248 3.13955 0
M  V30 1887 H 179.791 -4.18259 1.43221 0
M  V30 1888 N 178.85 -1.27639 -0.924453 0
M  V30 1889 C 179.782 -1.06442 -2.02985 0
M  V30 1890 C 180.795 -0.0194771 -1.62788 0
M  V30 1891 O 181.984 -0.261388 -1.76576 0
M  V30 1892 C 179.084 -0.59327 -3.33667 0
M  V30 1893 C 178.257 -1.71123 -4.02537 0
M  V30 1894 C 177.316 -1.23527 -5.11495 0
M  V30 1895 O 176.342 -1.93553 -5.35281 0
M  V30 1896 N 177.544 -0.0926678 -5.80426 0
M  V30 1897 H 180.309 -2.01633 -2.2173 0
M  V30 1898 H 177.87 -1.19248 -1.09505 0
M  V30 1899 H 179.862 -0.258686 -4.03872 0
M  V30 1900 H 178.432 0.265502 -3.1147 0
M  V30 1901 H 177.652 -2.21593 -3.26022 0
M  V30 1902 H 178.94 -2.46145 -4.45298 0
M  V30 1903 H 178.338 0.491741 -5.63559 0
M  V30 1904 H 176.895 0.182714 -6.51544 0
M  V30 1905 N 180.328 1.1314 -1.09713 0
M  V30 1906 C 181.605 1.80762 -0.747302 0
M  V30 1907 C 181.985 1.96663 0.767265 0
M  V30 1908 O 181.333 1.53706 1.69076 0
M  V30 1909 C 181.543 3.15606 -1.48975 0
M  V30 1910 C 182.891 3.90914 -1.65746 0
M  V30 1911 O 183.915 3.25239 -1.45251 0
M  V30 1912 O 182.774 5.08718 -1.9967 0
M  V30 1913 H 179.868 0.782103 -0.268782 0
M  V30 1914 H 182.414 1.20041 -1.19951 0
M  V30 1915 H 181.186 2.99278 -2.52088 0
M  V30 1916 H 180.809 3.84029 -1.02991 0
M  V30 1917 N 181.806 0.884767 1.30421 0
M  V30 1918 C 182.736 0.367574 2.30589 0
M  V30 1919 C 183.717 -0.549464 1.60981 0
M  V30 1920 O 184.902 -0.46336 1.88591 0
M  V30 1921 C 182.032 -0.418944 3.44764 0
M  V30 1922 C 180.986 0.406316 4.26067 0
M  V30 1923 C 180.312 -0.506793 5.32293 0
M  V30 1924 C 181.612 1.64832 4.95608 0
M  V30 1925 H 183.306 1.20462 2.74097 0
M  V30 1926 H 180.852 0.580695 1.31772 0
M  V30 1927 H 182.805 -0.791395 4.13902 0
M  V30 1928 H 181.529 -1.28964 3.0006 0
M  V30 1929 H 180.188 0.760903 3.58617 0
M  V30 1930 H 179.836 -1.37519 4.83836 0
M  V30 1931 H 179.536 0.0415828 5.87585 0
M  V30 1932 H 181.06 -0.875764 6.04287 0
M  V30 1933 H 182.474 1.34646 5.57264 0
M  V30 1934 H 180.871 2.13688 5.60765 0
M  V30 1935 H 181.941 2.39284 4.21748 0
M  V30 1936 N 183.284 -1.43765 0.645699 0
M  V30 1937 C 184.217 -2.2798 -0.100072 0
M  V30 1938 C 185.195 -1.39391 -0.837194 0
M  V30 1939 O 186.379 -1.68833 -0.838306 0
M  V30 1940 C 183.506 -3.18643 -1.14823 0
M  V30 1941 C 182.552 -4.2344 -0.510009 0
M  V30 1942 S 183.385 -5.30761 0.710824 0
M  V30 1943 C 184.541 -6.24992 -0.33699 0
M  V30 1944 H 184.774 -2.90884 0.614322 0
M  V30 1945 H 182.307 -1.48166 0.434304 0
M  V30 1946 H 184.265 -3.71424 -1.74799 0
M  V30 1947 H 182.926 -2.54932 -1.8349 0
M  V30 1948 H 182.119 -4.86948 -1.29991 0
M  V30 1949 H 181.721 -3.73997 0.0154577 0
M  V30 1950 H 184.013 -6.66691 -1.20537 0
M  V30 1951 H 184.956 -7.07612 0.262879 0
M  V30 1952 H 185.364 -5.60517 -0.669425 0
M  V30 1953 N 184.763 -0.387143 -1.52771 0
M  V30 1954 C 185.673 0.456442 -2.30117 0
M  V30 1955 C 186.689 1.07342 -1.36944 0
M  V30 1956 O 187.865 1.07971 -1.70013 0
M  V30 1957 C 184.93 1.56957 -3.09136 0
M  V30 1958 C 183.991 0.977916 -4.18014 0
M  V30 1959 C 183.224 2.038 -4.93256 0
M  V30 1960 O 183.447 3.25271 -4.68567 0
M  V30 1961 O 182.381 1.6565 -5.78657 0
M  V30 1962 H 186.207 -0.17359 -3.03203 0
M  V30 1963 H 183.792 -0.150919 -1.48636 0
M  V30 1964 H 185.674 2.21628 -3.58412 0
M  V30 1965 H 184.349 2.18461 -2.38865 0
M  V30 1966 H 183.256 0.294525 -3.72939 0
M  V30 1967 H 184.589 0.407128 -4.90513 0
M  V30 1968 N 186.241 1.57166 -0.116904 0
M  V30 1969 C 187.469 1.99473 0.549383 0
M  V30 1970 C 187.884 0.996541 1.60357 0
M  V30 1971 O 187.241 -0.0108731 1.82497 0
M  V30 1972 C 187.292 3.41788 1.17741 0
M  V30 1973 O 187.013 4.37788 0.165362 0
M  V30 1974 C 188.514 3.99216 1.92722 0
M  V30 1975 H 185.734 0.655009 0.145616 0
M  V30 1976 H 188.278 2.03494 -0.202625 0
M  V30 1977 H 186.433 3.38713 1.88021 0
M  V30 1978 H 186.847 5.20806 0.621403 0
M  V30 1979 H 188.321 5.00882 2.31995 0
M  V30 1980 H 188.798 3.3824 2.80161 0
M  V30 1981 H 189.404 4.0583 1.27209 0
M  V30 1982 N 187.719 -0.156864 1.56817 0
M  V30 1983 C 188.996 -0.899244 1.73704 0
M  V30 1984 C 189.376 -1.99771 0.682254 0
M  V30 1985 O 188.724 -2.26515 -0.300522 0
M  V30 1986 C 188.934 -1.45075 3.17418 0
M  V30 1987 C 190.282 -1.91802 3.7881 0
M  V30 1988 O 191.306 -1.54838 3.20786 0
M  V30 1989 O 190.165 -2.5994 4.80722 0
M  V30 1990 H 187.259 -0.424267 0.709878 0
M  V30 1991 H 189.805 -0.143561 1.69092 0
M  V30 1992 H 188.577 -0.660846 3.85679 0
M  V30 1993 H 188.2 -2.27021 3.26416 0
M  V30 1994 N 189.197 -1.51736 -0.425897 0
M  V30 1995 C 190.127 -1.76827 -1.52494 0
M  V30 1996 C 191.108 -0.618524 -1.58456 0
M  V30 1997 O 192.293 -0.862416 -1.74 0
M  V30 1998 C 189.423 -1.90374 -2.90474 0
M  V30 1999 C 188.377 -3.0588 -2.99369 0
M  V30 2000 C 187.703 -3.04625 -4.3944 0
M  V30 2001 C 189.003 -4.45644 -2.72394 0
M  V30 2002 H 190.697 -2.68855 -1.31748 0
M  V30 2003 H 188.243 -1.29372 -0.632362 0
M  V30 2004 H 190.196 -2.0651 -3.6733 0
M  V30 2005 H 188.92 -0.95004 -3.12477 0
M  V30 2006 H 187.579 -2.89467 -2.24954 0
M  V30 2007 H 187.227 -2.0701 -4.58428 0
M  V30 2008 H 186.927 -3.82195 -4.46319 0
M  V30 2009 H 188.451 -3.22869 -5.18255 0
M  V30 2010 H 189.865 -4.62348 -3.38979 0
M  V30 2011 H 188.262 -5.25006 -2.9067 0
M  V30 2012 H 189.332 -4.54893 -1.67929 0
M  V30 2013 N 190.675 0.682077 -1.42076 0
M  V30 2014 C 191.905 1.46844 -1.45329 0
M  V30 2015 C 192.313 1.89102 -0.0609328 0
M  V30 2016 O 191.656 1.58238 0.933082 0
M  V30 2017 C 191.718 2.75375 -2.31104 0
M  V30 2018 C 191.382 2.55238 -3.79081 0
M  V30 2019 C 192.379 2.20309 -4.70914 0
M  V30 2020 C 190.064 2.70459 -4.2327 0
M  V30 2021 C 192.058 2.00859 -6.04925 0
M  V30 2022 C 189.745 2.50624 -5.57343 0
M  V30 2023 C 190.743 2.15876 -6.47986 0
M  V30 2024 O 190.431 1.96227 -7.79583 0
M  V30 2025 H 190.163 0.4586 -0.496651 0
M  V30 2026 H 192.717 0.846131 -1.87162 0
M  V30 2027 H 190.947 3.40061 -1.84107 0
M  V30 2028 H 192.636 3.37231 -2.25898 0
M  V30 2029 H 193.402 2.08153 -4.38061 0
M  V30 2030 H 189.281 2.96485 -3.53012 0
M  V30 2031 H 192.825 1.7366 -6.75639 0
M  V30 2032 H 188.722 2.62375 -5.89771 0
M  V30 2033 H 189.49 2.10883 -7.90867 0
M  V30 2034 N 192.153 1.28127 0.917671 0
M  V30 2035 C 193.1 1.11717 2.0196 0
M  V30 2036 C 194.07 0.0153929 1.66093 0
M  V30 2037 O 195.255 0.179596 1.89953 0
M  V30 2038 C 192.395 0.780927 3.36148 0
M  V30 2039 C 191.508 1.96135 3.84909 0
M  V30 2040 C 190.643 1.56609 5.0759 0
M  V30 2041 C 189.682 2.71339 5.48673 0
M  V30 2042 N 188.819 2.32332 6.62545 0
M  V30 2043 H 193.659 2.06003 2.15329 0
M  V30 2044 H 191.196 1.02535 1.05475 0
M  V30 2045 H 193.154 0.56675 4.13333 0
M  V30 2046 H 191.784 -0.124998 3.22558 0
M  V30 2047 H 190.836 2.28777 3.03916 0
M  V30 2048 H 192.148 2.82165 4.1132 0
M  V30 2049 H 191.302 1.31374 5.92305 0
M  V30 2050 H 190.041 0.677014 4.82978 0
M  V30 2051 H 189.046 2.97276 4.62501 0
M  V30 2052 H 190.271 3.60882 5.75274 0
M  V30 2053 H 188.217 1.45889 6.39572 0
M  V30 2054 H 188.134 3.11899 6.88662 0
M  V30 2055 H 189.402 2.10371 7.50576 0
M  V30 2056 N 193.631 -1.12557 1.10312 0
M  V30 2057 C 194.561 -2.20341 0.772798 0
M  V30 2058 C 195.542 -1.68198 -0.25365 0
M  V30 2059 O 196.727 -1.93831 -0.119699 0
M  V30 2060 C 193.857 -3.46709 0.202443 0
M  V30 2061 C 192.811 -4.11996 1.15943 0
M  V30 2062 C 192.137 -5.328 0.450345 0
M  V30 2063 C 193.437 -4.5828 2.50552 0
M  V30 2064 H 195.131 -2.48229 1.674 0
M  V30 2065 H 192.677 -1.19308 0.806326 0
M  V30 2066 H 194.63 -4.2138 -0.0407752 0
M  V30 2067 H 193.354 -3.18245 -0.734001 0
M  V30 2068 H 192.013 -3.39305 1.38808 0
M  V30 2069 H 191.661 -5.00602 -0.490531 0
M  V30 2070 H 191.361 -5.7743 1.08851 0
M  V30 2071 H 192.885 -6.10219 0.215642 0
M  V30 2072 H 194.299 -5.2433 2.31843 0
M  V30 2073 H 192.696 -5.13683 3.10242 0
M  V30 2074 H 193.766 -3.72329 3.10643 0
M  V30 2075 N 195.109 -0.891671 -1.2995 0
M  V30 2076 C 196.039 -0.379797 -2.30391 0
M  V30 2077 C 197.02 0.540919 -1.6127 0
M  V30 2078 O 198.205 0.453352 -1.88834 0
M  V30 2079 C 195.335 0.400654 -3.44981 0
M  V30 2080 C 194.289 -0.428905 -4.25846 0
M  V30 2081 C 193.615 0.478557 -5.32554 0
M  V30 2082 C 194.915 -1.67458 -4.94727 0
M  V30 2083 H 196.609 -1.21914 -2.73454 0
M  V30 2084 H 194.155 -0.587675 -1.31462 0
M  V30 2085 H 196.108 0.769434 -4.14316 0
M  V30 2086 H 194.832 1.27371 -3.0074 0
M  V30 2087 H 193.491 -0.779911 -3.58208 0
M  V30 2088 H 193.139 1.34951 -4.84559 0
M  V30 2089 H 192.839 -0.0727433 -5.87555 0
M  V30 2090 H 194.363 0.843705 -6.04743 0
M  V30 2091 H 195.777 -1.376 -5.56542 0
M  V30 2092 H 194.174 -2.16659 -5.59624 0
M  V30 2093 H 195.244 -2.41518 -4.20473 0
M  V30 2094 N 196.587 1.43421 -0.653314 0
M  V30 2095 C 197.534 2.30768 0.0382271 0
M  V30 2096 C 198.504 1.44755 0.814576 0
M  V30 2097 O 199.689 1.73624 0.791162 0
M  V30 2098 C 196.829 3.30336 0.998599 0
M  V30 2099 C 195.942 4.31448 0.218342 0
M  V30 2100 C 195.077 5.18098 1.17252 0
M  V30 2101 C 194.116 6.10902 0.382702 0
M  V30 2102 N 193.253 6.90176 1.28848 0
M  V30 2103 H 198.093 2.89357 -0.712511 0
M  V30 2104 H 195.63 1.42548 -0.363128 0
M  V30 2105 H 197.588 3.86572 1.56901 0
M  V30 2106 H 196.218 2.73397 1.71621 0
M  V30 2107 H 195.27 3.77506 -0.46836 0
M  V30 2108 H 196.582 4.97227 -0.395812 0
M  V30 2109 H 195.736 5.7896 1.81356 0
M  V30 2110 H 194.475 4.52444 1.82058 0
M  V30 2111 H 193.48 5.49128 -0.27169 0
M  V30 2112 H 194.705 6.78598 -0.260957 0
M  V30 2113 H 192.651 6.27171 1.92334 0
M  V30 2114 H 192.568 7.52478 0.728887 0
M  V30 2115 H 193.836 7.55543 1.91766 0
M  V30 2116 N 198.065 0.39524 1.52563 0
M  V30 2117 C 199.29 -0.187456 2.06551 0
M  V30 2118 C 199.715 -1.39249 1.26457 0
M  V30 2119 O 199.073 -1.78947 0.291151 0
M  V30 2120 C 199.121 -0.529985 3.56684 0
M  V30 2121 O 198.225 -1.62307 3.79118 0
M  V30 2122 H 197.566 -0.0202537 0.663691 0
M  V30 2123 H 200.096 0.564426 1.96661 0
M  V30 2124 H 200.106 -0.792598 4.00227 0
M  V30 2125 H 198.781 0.350987 4.14416 0
M  V30 2126 H 197.358 -1.3537 3.47461 0
M  V30 2127 N 199.544 -1.57102 0.125237 0
M  V30 2128 C 200.476 -2.12726 -0.853237 0
M  V30 2129 C 201.489 -1.07145 -1.22571 0
M  V30 2130 O 202.678 -1.34497 -1.17358 0
M  V30 2131 C 199.778 -2.61709 -2.15317 0
M  V30 2132 C 198.951 -3.91456 -1.95143 0
M  V30 2133 C 198.01 -4.25973 -3.08923 0
M  V30 2134 O 197.036 -4.94682 -2.81564 0
M  V30 2135 N 198.238 -3.83795 -4.35524 0
M  V30 2136 H 201.003 -2.97307 -0.377964 0
M  V30 2137 H 198.564 -1.61792 -0.0590011 0
M  V30 2138 H 200.556 -2.81826 -2.90441 0
M  V30 2139 H 199.126 -1.81974 -2.54174 0
M  V30 2140 H 198.346 -3.80185 -1.04177 0
M  V30 2141 H 199.634 -4.76283 -1.78976 0
M  V30 2142 H 199.032 -3.2839 -4.60626 0
M  V30 2143 H 197.589 -4.09008 -5.07499 0
M  V30 2144 N 201.022 0.148545 -1.56898 0
M  V30 2145 C 201.954 1.20852 -1.9475 0
M  V30 2146 C 202.967 1.39265 -0.843152 0
M  V30 2147 O 204.156 1.38864 -1.12156 0
M  V30 2148 C 201.256 2.57362 -2.20495 0
M  V30 2149 C 200.429 2.59947 -3.51776 0
M  V30 2150 C 199.488 3.77984 -3.6608 0
M  V30 2151 O 198.514 3.62929 -4.38487 0
M  V30 2152 N 199.716 4.95375 -3.02629 0
M  V30 2153 H 202.481 0.886804 -2.86279 0
M  V30 2154 H 200.042 0.338121 -1.5833 0
M  V30 2155 H 202.034 3.34833 -2.27307 0
M  V30 2156 H 200.604 2.81832 -1.35238 0
M  V30 2157 H 199.824 1.68403 -3.56419 0
M  V30 2158 H 201.112 2.58704 -4.38121 0
M  V30 2159 H 200.51 5.10509 -2.43715 0
M  V30 2160 H 199.067 5.70627 -3.15004 0
M  V30 2161 N 202.5 1.5196 0.417844 0
M  V30 2162 C 203.43 1.77634 1.51554 0
M  V30 2163 C 204.411 0.626918 1.58126 0
M  V30 2164 O 205.596 0.871632 1.7354 0
M  V30 2165 C 202.726 1.91911 2.8946 0
M  V30 2166 C 201.68 3.07463 2.97743 0
M  V30 2167 C 201.006 3.06951 4.37819 0
M  V30 2168 C 202.306 4.47082 2.70027 0
M  V30 2169 H 204 2.6955 1.3032 0
M  V30 2170 H 201.546 1.29706 0.625492 0
M  V30 2171 H 203.499 2.08455 3.6623 0
M  V30 2172 H 202.223 0.966598 3.11969 0
M  V30 2173 H 200.882 2.90656 2.23416 0
M  V30 2174 H 200.53 2.09438 4.57323 0
M  V30 2175 H 200.23 3.84556 4.44286 0
M  V30 2176 H 201.754 3.25613 5.16535 0
M  V30 2177 H 203.168 4.6414 3.36522 0
M  V30 2178 H 201.565 5.2654 2.87881 0
M  V30 2179 H 202.635 4.55777 1.65514 0
M  V30 2180 N 203.978 -0.674533 1.42435 0
M  V30 2181 C 205.203 -1.46784 1.46524 0
M  V30 2182 C 205.628 -1.87938 0.078066 0
M  V30 2183 O 204.986 -1.56014 -0.92354 0
M  V30 2184 C 205.034 -2.69307 2.39805 0
M  V30 2185 O 204.138 -3.67587 1.86959 0
M  V30 2186 H 203.479 -0.440959 0.496439 0
M  V30 2187 H 206.009 -0.827326 1.87127 0
M  V30 2188 H 206.019 -3.17374 2.56393 0
M  V30 2189 H 204.694 -2.38692 3.40586 0
M  V30 2190 H 203.271 -3.2662 1.79927 0
M  V30 2191 N 205.456 -1.28612 -0.910864 0
M  V30 2192 C 206.404 -1.1265 -2.03501 0
M  V30 2193 C 207.398 -0.0450054 -1.6934 0
M  V30 2194 O 208.604 -0.203988 -1.7884 0
M  V30 2195 H 204.979 -0.347639 -0.666822 0
M  V30 2196 H 206.95 -2.07849 -2.14106 0
M  V30 2197 C 205.699 -0.808143 -3.38178 0
M  V30 2198 H 205.022 -1.63231 -3.6496 0
M  V30 2199 H 206.462 -0.736426 -4.17556 0
M  V30 2200 C 204.921 0.488226 -3.33344 0
M  V30 2201 O 205.451 1.51766 -3.71927 0
M  V30 2202 N 203.657 0.490009 -2.86439 0
M  V30 2203 H 203.204 -0.348161 -2.55236 0
M  V30 2204 H 203.162 1.35741 -2.83587 0
M  V30 2205 N 206.934 1.1197 -1.10907 0
M  V30 2206 C 208.211 1.79959 -0.766432 0
M  V30 2207 C 208.591 1.97466 0.746363 0
M  V30 2208 O 207.939 1.55491 1.67436 0
M  V30 2209 C 208.149 3.14009 -1.52314 0
M  V30 2210 C 209.497 3.89134 -1.69883 0
M  V30 2211 O 210.521 3.2368 -1.48692 0
M  V30 2212 O 209.38 5.06572 -2.05054 0
M  V30 2213 H 206.474 0.779208 -0.277062 0
M  V30 2214 H 209.02 1.18762 -1.21217 0
M  V30 2215 H 207.792 2.96587 -2.55249 0
M  V30 2216 H 207.415 3.82915 -1.07059 0
M  V30 2217 N 208.412 0.89855 1.29475 0
M  V30 2218 C 209.362 0.346767 2.25348 0
M  V30 2219 C 210.346 -0.532509 1.51833 0
M  V30 2220 O 211.538 -0.374714 1.72988 0
M  V30 2221 C 208.667 -0.425681 3.40651 0
M  V30 2222 C 207.753 0.46845 4.21505 0
M  V30 2223 N 208.144 1.57514 4.80648 0
M  V30 2224 C 206.442 0.26603 4.45206 0
M  V30 2225 C 207.143 2.12889 5.41344 0
M  V30 2226 N 206.119 1.42208 5.24669 0
M  V30 2227 H 209.921 1.19219 2.68634 0
M  V30 2228 H 207.435 0.749473 1.44072 0
M  V30 2229 H 209.432 -0.837716 4.08397 0
M  V30 2230 H 208.092 -1.26838 2.98902 0
M  V30 2231 H 209.103 1.95789 4.79465 0
M  V30 2232 H 205.78 -0.538394 4.14014 0
M  V30 2233 H 207.17 3.05901 5.98226 0
M  V30 2234 N 209.89 -1.43072 0.660911 0
M  V30 2235 C 211.139 -2.00942 0.174735 0
M  V30 2236 C 211.452 -1.52797 -1.22117 0
M  V30 2237 O 212.658 -2.02991 -1.80297 0
M  V30 2238 C 211.114 -3.58948 0.261559 0
M  V30 2239 C 210.722 -4.16085 1.66064 0
M  V30 2240 C 212.466 -4.24173 -0.166617 0
M  V30 2241 C 210.373 -5.6641 1.70098 0
M  V30 2242 H 209.303 -0.751483 0.0615631 0
M  V30 2243 H 211.954 -1.63955 0.824069 0
M  V30 2244 H 210.336 -3.93372 -0.455421 0
M  V30 2245 H 211.51 -3.93147 2.40359 0
M  V30 2246 H 209.825 -3.6326 2.03546 0
M  V30 2247 H 212.422 -5.34471 -0.156433 0
M  V30 2248 H 212.765 -3.98647 -1.19943 0
M  V30 2249 H 213.298 -3.94659 0.498875 0
M  V30 2250 H 210.037 -5.96715 2.71315 0
M  V30 2251 H 209.557 -5.91382 1.00139 0
M  V30 2252 H 211.236 -6.30585 1.44816 0
M  V30 2253 N 211.368 -0.403325 -1.52352 0
M  V30 2254 C 212.608 0.173946 -2.03659 0
M  V30 2255 C 212.972 1.42869 -1.28267 0
M  V30 2256 O 214.173 2.08403 -1.69769 0
M  V30 2257 C 212.444 0.421478 -3.54906 0
M  V30 2258 S 214.003 0.967027 -4.28012 0
M  V30 2259 H 210.821 0.0477461 -0.709395 0
M  V30 2260 H 213.423 -0.554906 -1.87459 0
M  V30 2261 H 212.127 -0.498616 -4.0736 0
M  V30 2262 H 211.658 1.17837 -3.75337 0
M  V30 2263 H 213.673 2.24812 -4.4235 0
M  V30 2264 N 212.846 1.57033 -0.133567 0
M  V30 2265 C 214.076 1.99754 0.527429 0
M  V30 2266 C 214.484 1.01245 1.59832 0
M  V30 2267 O 213.827 -0.000645496 1.837 0
M  V30 2268 C 213.889 3.38903 1.19939 0
M  V30 2269 C 213.553 4.56174 0.274709 0
M  V30 2270 C 214.55 5.17563 -0.492398 0
M  V30 2271 C 212.235 5.01972 0.18153 0
M  V30 2272 C 214.229 6.2315 -1.34027 0
M  V30 2273 C 211.916 6.07416 -0.669958 0
M  V30 2274 C 212.914 6.67874 -1.42947 0
M  V30 2275 O 212.602 7.71279 -2.2668 0
M  V30 2276 H 212.334 0.660702 0.142999 0
M  V30 2277 H 214.888 2.04207 -0.221099 0
M  V30 2278 H 213.118 3.31248 1.99528 0
M  V30 2279 H 214.807 3.65818 1.75875 0
M  V30 2280 H 215.573 4.83087 -0.430367 0
M  V30 2281 H 211.452 4.54652 0.762422 0
M  V30 2282 H 214.996 6.70268 -1.93357 0
M  V30 2283 H 210.893 6.41321 -0.73333 0
M  V30 2284 H 211.661 7.88441 -2.1978 0
M  V30 2285 N 214.325 -0.140222 1.56975 0
M  V30 2286 C 215.572 -0.851687 1.83719 0
M  V30 2287 C 215.9 -1.80862 0.715485 0
M  V30 2288 O 215.155 -1.93464 -0.294956 0
M  V30 2289 C 215.454 -1.65386 3.16832 0
M  V30 2290 C 215.12 -0.843112 4.42947 0
M  V30 2291 C 213.782 -0.619464 4.77196 0
M  V30 2292 C 216.134 -0.276582 5.20466 0
M  V30 2293 C 213.462 0.181312 5.8642 0
M  V30 2294 C 215.814 0.51127 6.30531 0
M  V30 2295 C 214.478 0.745432 6.63325 0
M  V30 2296 H 213.748 -0.311654 0.672274 0
M  V30 2297 H 216.395 -0.115006 1.91154 0
M  V30 2298 H 214.7 -2.46084 3.04877 0
M  V30 2299 H 216.397 -2.20793 3.34741 0
M  V30 2300 H 212.987 -1.0275 4.16101 0
M  V30 2301 H 217.171 -0.436632 4.94376 0
M  V30 2302 H 212.427 0.372165 6.10266 0
M  V30 2303 H 216.601 0.957354 6.89788 0
M  V30 2304 H 214.228 1.36778 7.47794 0
M  V30 2305 N 215.803 -1.52179 -0.40978 0
M  V30 2306 C 216.733 -1.78435 -1.5061 0
M  V30 2307 C 217.714 -0.635295 -1.57791 0
M  V30 2308 O 218.899 -0.880823 -1.73076 0
M  V30 2309 C 216.029 -1.93444 -2.88439 0
M  V30 2310 C 214.983 -3.09038 -2.96108 0
M  V30 2311 C 214.309 -3.09268 -4.36185 0
M  V30 2312 C 215.609 -4.48508 -2.67652 0
M  V30 2313 H 217.303 -2.70237 -1.28889 0
M  V30 2314 H 214.849 -1.30036 -0.618605 0
M  V30 2315 H 216.802 -2.10394 -3.65119 0
M  V30 2316 H 215.526 -0.983129 -3.11452 0
M  V30 2317 H 214.185 -2.91837 -2.21872 0
M  V30 2318 H 213.833 -2.11861 -4.56206 0
M  V30 2319 H 213.533 -3.86907 -4.42241 0
M  V30 2320 H 215.057 -3.28348 -5.14801 0
M  V30 2321 H 216.471 -4.65918 -3.34056 0
M  V30 2322 H 214.868 -5.28059 -2.85085 0
M  V30 2323 H 215.938 -4.56649 -1.63095 0
M  V30 2324 N 217.281 0.66697 -1.42791 0
M  V30 2325 C 218.511 1.45294 -1.46878 0
M  V30 2326 C 218.919 1.89027 -0.0809861 0
M  V30 2327 O 218.262 1.59219 0.916246 0
M  V30 2328 C 218.324 2.72908 -2.34012 0
M  V30 2329 C 217.988 2.51203 -3.81767 0
M  V30 2330 C 218.985 2.15302 -4.73224 0
M  V30 2331 C 216.67 2.65954 -4.26115 0
M  V30 2332 C 218.664 1.94431 -6.07022 0
M  V30 2333 C 216.351 2.44699 -5.59969 0
M  V30 2334 C 217.349 2.08992 -6.5024 0
M  V30 2335 O 217.037 1.87948 -7.81621 0
M  V30 2336 H 216.769 0.453306 -0.501487 0
M  V30 2337 H 219.323 0.826232 -1.88049 0
M  V30 2338 H 217.553 3.38089 -1.87703 0
M  V30 2339 H 219.242 3.34816 -2.29462 0
M  V30 2340 H 220.008 2.03495 -4.40244 0
M  V30 2341 H 215.887 2.92724 -3.56137 0
M  V30 2342 H 219.431 1.66484 -6.77443 0
M  V30 2343 H 215.328 2.56105 -5.9252 0
M  V30 2344 H 216.096 2.02483 -7.93059 0
M  V30 2345 N 218.759 1.29093 0.90403 0
M  V30 2346 C 219.691 1.09658 2.01266 0
M  V30 2347 C 220.704 0.0453729 1.62737 0
M  V30 2348 O 221.893 0.289446 1.76138 0
M  V30 2349 C 218.993 0.646278 3.32681 0
M  V30 2350 C 218.166 1.77505 3.99763 0
M  V30 2351 C 217.225 1.31649 5.09465 0
M  V30 2352 O 216.251 2.02045 5.32134 0
M  V30 2353 N 217.453 0.184997 5.80205 0
M  V30 2354 H 220.218 2.05135 2.18494 0
M  V30 2355 H 217.779 1.20975 1.07594 0
M  V30 2356 H 219.771 0.322906 4.0341 0
M  V30 2357 H 218.341 -0.215916 3.11853 0
M  V30 2358 H 217.561 2.26752 3.22455 0
M  V30 2359 H 218.849 2.53198 4.41325 0
M  V30 2360 H 218.247 -0.402021 5.6427 0
M  V30 2361 H 216.804 -0.0790358 6.51752 0
M  V30 2362 N 220.237 -1.11381 1.11499 0
M  V30 2363 C 221.486 -1.82494 0.858993 0
M  V30 2364 C 221.799 -1.85605 -0.617278 0
M  V30 2365 O 223.005 -2.52824 -0.989552 0
M  V30 2366 C 221.461 -3.27745 1.48699 0
M  V30 2367 C 221.069 -3.32961 2.99735 0
M  V30 2368 C 222.813 -4.03754 1.31085 0
M  V30 2369 C 220.72 -4.72612 3.55516 0
M  V30 2370 H 219.65 -0.683802 0.317696 0
M  V30 2371 H 222.301 -1.25331 1.34031 0
M  V30 2372 H 220.683 -3.84844 0.933339 0
M  V30 2373 H 221.857 -2.85741 3.61509 0
M  V30 2374 H 220.172 -2.70433 3.16631 0
M  V30 2375 H 222.769 -5.06891 1.70192 0
M  V30 2376 H 223.112 -4.15527 0.253496 0
M  V30 2377 H 223.645 -3.53043 1.83318 0
M  V30 2378 H 220.384 -4.66036 4.60967 0
M  V30 2379 H 219.904 -5.2024 2.98513 0
M  V30 2380 H 221.583 -5.4157 3.53992 0
M  V30 2381 N 221.715 -0.905404 -1.28997 0
M  V30 2382 C 222.645 -0.404212 -2.29975 0
M  V30 2383 C 223.626 0.523784 -1.61835 0
M  V30 2384 O 224.811 0.433298 -1.89304 0
M  V30 2385 C 221.941 0.364042 -3.45387 0
M  V30 2386 C 220.895 -0.474048 -4.25367 0
M  V30 2387 C 220.221 0.422045 -5.33032 0
M  V30 2388 C 221.521 -1.72696 -4.92923 0
M  V30 2389 H 223.215 -1.24807 -2.72146 0
M  V30 2390 H 220.761 -0.601585 -1.30832 0
M  V30 2391 H 222.714 0.725447 -4.15109 0
M  V30 2392 H 221.438 1.24174 -3.02074 0
M  V30 2393 H 220.097 -0.81786 -3.57361 0
M  V30 2394 H 219.745 1.29804 -4.85963 0
M  V30 2395 H 219.445 -0.135057 -5.87445 0
M  V30 2396 H 220.969 0.779517 -6.05604 0
M  V30 2397 H 222.383 -1.43495 -5.55051 0
M  V30 2398 H 220.78 -2.22582 -5.57295 0
M  V30 2399 H 221.85 -2.45964 -4.17887 0
M  V30 2400 N 223.193 1.4272 -0.668489 0
M  V30 2401 C 224.609 1.55992 -0.33745 0
M  V30 2402 C 224.809 1.64933 1.15756 0
M  V30 2403 O 223.865 1.61278 1.94282 0
M  V30 2404 C 225.178 2.81314 -1.06222 0
M  V30 2405 C 226.726 2.95078 -1.04394 0
M  V30 2406 C 227.201 4.23252 -1.74991 0
M  V30 2407 N 228.692 4.3015 -1.71829 0
M  V30 2408 C 229.427 5.28127 -2.23315 0
M  V30 2409 N 228.923 6.32293 -2.83156 0
M  V30 2410 N 230.716 5.19882 -2.13726 0
M  V30 2411 H 222.867 1.3516 -1.63846 0
M  V30 2412 H 225.13 0.650174 -0.689912 0
M  V30 2413 H 224.836 2.80823 -2.11734 0
M  V30 2414 H 224.71 3.72012 -0.62344 0
M  V30 2415 H 227.097 2.951 0.0028244 0
M  V30 2416 H 227.178 2.05627 -1.52155 0
M  V30 2417 H 226.822 4.2399 -2.79633 0
M  V30 2418 H 226.752 5.11626 -1.24685 0
M  V30 2419 H 229.243 3.55499 -1.28175 0
M  V30 2420 H 229.556 7.03398 -3.20079 0
M  V30 2421 H 227.901 6.32873 -2.87223 0
M  V30 2422 H 231.092 4.37423 -1.66669 0
M  V30 2423 H 231.265 5.96077 -2.54158 0
M  V30 2424 N 224.671 0.411399 1.52136 0
M  V30 2425 C 225.919 -0.163322 2.01439 0
M  V30 2426 C 226.24 -1.45453 1.29879 0
M  V30 2427 O 225.51 -1.91225 0.4254 0
M  V30 2428 H 224.09 -0.0633447 0.744309 0
M  V30 2429 H 226.752 0.548161 1.87033 0
M  V30 2430 H 225.848 -0.357817 3.10042 0
M  V30 2431 N 226.149 -1.5696 0.141893 0
M  V30 2432 C 227.079 -2.19516 -0.795936 0
M  V30 2433 C 228.06 -1.14187 -1.26077 0
M  V30 2434 O 229.245 -1.42511 -1.31925 0
M  V30 2435 C 226.375 -2.81272 -2.03723 0
M  V30 2436 C 225.329 -3.92384 -1.70936 0
M  V30 2437 C 224.655 -4.41052 -3.02287 0
M  V30 2438 C 225.955 -5.13403 -0.959954 0
M  V30 2439 H 227.649 -2.98138 -0.274596 0
M  V30 2440 H 225.195 -1.43406 -0.130636 0
M  V30 2441 H 227.148 -3.237 -2.69808 0
M  V30 2442 H 225.872 -1.99973 -2.58221 0
M  V30 2443 H 224.531 -3.50566 -1.07232 0
M  V30 2444 H 224.179 -3.56582 -3.54765 0
M  V30 2445 H 223.879 -5.15993 -2.81114 0
M  V30 2446 H 225.403 -4.86146 -3.69451 0
M  V30 2447 H 226.817 -5.52706 -1.52279 0
M  V30 2448 H 225.214 -5.94073 -0.848357 0
M  V30 2449 H 226.284 -4.84875 0.0492434 0
M  V30 2450 N 227.627 0.131896 -1.57047 0
M  V30 2451 C 228.574 1.16236 -1.99393 0
M  V30 2452 C 229.544 1.41863 -0.863943 0
M  V30 2453 O 230.729 1.53946 -1.12718 0
M  V30 2454 C 227.869 2.48708 -2.39245 0
M  V30 2455 C 226.982 2.30127 -3.65603 0
M  V30 2456 C 226.117 3.55738 -3.94492 0
M  V30 2457 C 225.156 3.32259 -5.14073 0
M  V30 2458 N 224.293 4.50039 -5.38896 0
M  V30 2459 H 229.133 0.794251 -2.87221 0
M  V30 2460 H 226.67 0.380707 -1.42088 0
M  V30 2461 H 228.628 3.25969 -2.60384 0
M  V30 2462 H 227.258 2.83437 -1.54478 0
M  V30 2463 H 226.31 1.43845 -3.52154 0
M  V30 2464 H 227.622 2.08746 -4.5302 0
M  V30 2465 H 226.776 4.41423 -4.1621 0
M  V30 2466 H 225.515 3.80138 -3.05526 0
M  V30 2467 H 224.52 2.44963 -4.92212 0
M  V30 2468 H 225.745 3.09242 -6.04604 0
M  V30 2469 H 223.691 4.74584 -4.52886 0
M  V30 2470 H 223.608 4.31716 -6.2061 0
M  V30 2471 H 224.876 5.36895 -5.65123 0
M  V30 2472 N 229.106 1.52395 0.401703 0
M  V30 2473 C 230.336 1.70429 1.1678 0
M  V30 2474 C 230.744 0.416702 1.84554 0
M  V30 2475 O 230.087 -0.617697 1.73003 0
M  V30 2476 C 230.149 2.78919 2.26814 0
M  V30 2477 C 229.813 4.20437 1.79113 0
M  V30 2478 C 230.81 5.04028 1.27482 0
M  V30 2479 C 228.495 4.66704 1.85722 0
M  V30 2480 C 230.489 6.31961 0.830913 0
M  V30 2481 C 228.176 5.94625 1.40942 0
M  V30 2482 C 229.174 6.77082 0.897128 0
M  V30 2483 O 228.862 8.02607 0.455822 0
M  V30 2484 H 228.594 0.574272 0.356634 0
M  V30 2485 H 231.148 1.99767 0.477724 0
M  V30 2486 H 229.378 2.44973 2.99207 0
M  V30 2487 H 231.067 2.8548 2.88541 0
M  V30 2488 H 231.833 4.69471 1.21744 0
M  V30 2489 H 227.712 4.0262 2.24539 0
M  V30 2490 H 231.256 6.96271 0.430368 0
M  V30 2491 H 227.153 6.28688 1.46362 0
M  V30 2492 H 227.921 8.16453 0.578457 0
M  V30 2493 N 230.584 -0.659388 1.43143 0
M  V30 2494 C 231.833 -1.41518 1.43721 0
M  V30 2495 C 232.146 -1.95499 0.0628176 0
M  V30 2496 O 233.352 -2.71446 -0.0539683 0
M  V30 2497 C 231.808 -2.5608 2.52885 0
M  V30 2498 C 231.416 -2.08733 3.96402 0
M  V30 2499 C 233.16 -3.3349 2.62649 0
M  V30 2500 C 231.067 -3.20469 4.97045 0
M  V30 2501 H 229.997 -0.531705 0.534608 0
M  V30 2502 H 232.648 -0.712343 1.69109 0
M  V30 2503 H 231.03 -3.28805 2.20688 0
M  V30 2504 H 232.204 -1.43059 4.3803 0
M  V30 2505 H 230.519 -1.44219 3.90627 0
M  V30 2506 H 233.116 -4.16734 3.35017 0
M  V30 2507 H 233.459 -3.8111 1.67513 0
M  V30 2508 H 233.992 -2.67842 2.94118 0
M  V30 2509 H 230.731 -2.77824 5.93712 0
M  V30 2510 H 230.251 -3.84874 4.60034 0
M  V30 2511 H 231.93 -3.85698 5.19467 0
M  V30 2512 N 232.062 -1.29571 -0.897171 0
M  V30 2513 C 233.012 -1.11539 -1.98855 0
M  V30 2514 C 233.996 -0.0340716 -1.60864 0
M  V30 2515 O 235.188 -0.256062 -1.75138 0
M  V30 2516 C 232.317 -0.796603 -3.3393 0
M  V30 2517 C 231.403 -1.91758 -3.78272 0
M  V30 2518 N 231.794 -3.16143 -3.94826 0
M  V30 2519 C 230.092 -1.81119 -4.07568 0
M  V30 2520 C 230.793 -3.89293 -4.32233 0
M  V30 2521 N 229.769 -3.17255 -4.41419 0
M  V30 2522 H 233.571 -2.05894 -2.09726 0
M  V30 2523 H 231.085 -1.20732 -1.08616 0
M  V30 2524 H 233.082 -0.648459 -4.11826 0
M  V30 2525 H 231.742 0.139003 -3.24402 0
M  V30 2526 H 232.753 -3.5157 -3.80288 0
M  V30 2527 H 229.43 -0.948461 -4.06584 0
M  V30 2528 H 230.82 -4.9635 -4.52865 0
M  V30 2529 N 233.54 1.10788 -1.12088 0
M  V30 2530 C 234.765 1.87002 -0.896949 0
M  V30 2531 C 235.19 1.79933 0.548261 0
M  V30 2532 O 234.548 1.16662 1.38779 0
M  V30 2533 C 234.596 3.3349 -1.37174 0
M  V30 2534 O 233.7 4.08745 -0.547831 0
M  V30 2535 H 233.041 0.580397 -0.322545 0
M  V30 2536 H 235.571 1.39996 -1.49206 0
M  V30 2537 H 235.581 3.84339 -1.36922 0
M  V30 2538 H 234.256 3.37951 -2.42408 0
M  V30 2539 H 232.833 3.6776 -0.617034 0
M  V30 2540 N 235.018 0.912232 1.28515 0
M  V30 2541 C 235.981 0.404223 2.25607 0
M  V30 2542 C 236.981 -0.468602 1.53821 0
M  V30 2543 O 238.171 -0.271873 1.72065 0
M  V30 2544 C 235.303 -0.420653 3.38295 0
M  V30 2545 H 236.496 1.26188 2.7206 0
M  V30 2546 H 234.049 0.691495 1.40171 0
M  V30 2547 H 234.784 -1.29777 2.97201 0
M  V30 2548 H 234.569 0.204935 3.91564 0
M  V30 2549 H 236.059 -0.766971 4.10496 0
M  V30 2550 N 236.496 -1.42363 0.676048 0
M  V30 2551 C 237.444 -2.32596 -0.0131507 0
M  V30 2552 C 238.438 -1.49891 -0.789238 0
M  V30 2553 O 239.644 -1.65955 -0.697061 0
M  V30 2554 H 236.019 -0.751647 -0.0230481 0
M  V30 2555 H 237.99 -2.88421 0.765243 0
M  V30 2556 C 236.739 -3.34479 -0.949702 0
M  V30 2557 H 236.062 -3.98158 -0.361938 0
M  V30 2558 H 237.502 -4.00199 -1.4006 0
M  V30 2559 C 235.961 -2.66838 -2.05667 0
M  V30 2560 O 236.491 -2.50124 -3.14326 0
M  V30 2561 N 234.697 -2.25843 -1.82875 0
M  V30 2562 H 234.244 -2.39637 -0.945085 0
M  V30 2563 H 234.202 -1.80918 -2.5713 0
M  V30 2564 N 237.974 -0.419461 -1.51915 0
M  V30 2565 C 239.22 0.153166 -2.02221 0
M  V30 2566 C 239.553 1.43907 -1.30401 0
M  V30 2567 O 238.828 1.90055 -0.413438 0
M  V30 2568 C 239.111 0.390291 -3.57979 0
M  V30 2569 C 238.964 -0.913014 -4.40436 0
M  V30 2570 C 240.283 1.16794 -4.2432 0
M  V30 2571 H 237.402 0.0541924 -0.735005 0
M  V30 2572 H 240.044 -0.554955 -1.81715 0
M  V30 2573 H 238.194 0.993491 -3.75582 0
M  V30 2574 H 239.866 -1.54882 -4.34522 0
M  V30 2575 H 238.109 -1.52168 -4.06236 0
M  V30 2576 H 238.78 -0.701361 -5.47526 0
M  V30 2577 H 241.256 0.657161 -4.10878 0
M  V30 2578 H 240.132 1.3026 -5.3322 0
M  V30 2579 H 240.393 2.19132 -3.83971 0
M  V30 2580 N 239.452 1.56882 -0.150215 0
M  V30 2581 C 240.382 2.19935 0.784284 0
M  V30 2582 C 241.363 1.14854 1.25469 0
M  V30 2583 O 242.548 1.43209 1.31168 0
M  V30 2584 C 239.678 2.82349 2.02229 0
M  V30 2585 C 238.632 3.93285 1.68853 0
M  V30 2586 C 237.958 4.42649 2.99944 0
M  V30 2587 C 239.258 5.13904 0.932714 0
M  V30 2588 H 240.952 2.9828 0.258781 0
M  V30 2589 H 238.498 1.43473 0.123029 0
M  V30 2590 H 240.451 3.25126 2.68088 0
M  V30 2591 H 239.175 2.0134 2.57157 0
M  V30 2592 H 237.834 3.5113 1.05371 0
M  V30 2593 H 237.482 3.58458 3.52869 0
M  V30 2594 H 237.182 5.17476 2.78374 0
M  V30 2595 H 238.706 4.88099 3.66868 0
M  V30 2596 H 240.12 5.53506 1.49345 0
M  V30 2597 H 238.517 5.94515 0.81684 0
M  V30 2598 H 239.587 4.84842 -0.0749568 0
M  V30 2599 N 240.93 -0.123565 1.57115 0
M  V30 2600 C 241.88 -1.1575 1.96433 0
M  V30 2601 C 242.864 -1.37313 0.838686 0
M  V30 2602 O 244.056 -1.38482 1.10235 0
M  V30 2603 C 241.185 -2.48526 2.36833 0
M  V30 2604 C 240.271 -2.30457 3.5602 0
M  V30 2605 N 240.662 -1.8219 4.71848 0
M  V30 2606 C 238.96 -2.61129 3.61563 0
M  V30 2607 C 239.661 -1.77721 5.53886 0
M  V30 2608 N 238.637 -2.21899 4.96248 0
M  V30 2609 H 242.439 -0.776797 2.83449 0
M  V30 2610 H 239.953 -0.331364 1.58983 0
M  V30 2611 H 241.95 -3.233 2.63216 0
M  V30 2612 H 240.61 -2.87358 1.5118 0
M  V30 2613 H 241.621 -1.51805 4.95152 0
M  V30 2614 H 238.298 -3.03678 2.86507 0
M  V30 2615 H 239.688 -1.41697 6.56789 0
M  V30 2616 N 242.408 -1.52605 -0.393616 0
M  V30 2617 C 243.824 -1.41753 -0.733357 0
M  V30 2618 C 244.024 -0.534293 -1.94287 0
M  V30 2619 O 243.08 -0.0059787 -2.52499 0
M  V30 2620 C 244.393 -2.84531 -0.972772 0
M  V30 2621 C 245.941 -2.93978 -1.07453 0
M  V30 2622 C 246.416 -4.37756 -1.3466 0
M  V30 2623 N 247.907 -4.4106 -1.41492 0
M  V30 2624 C 248.642 -5.49387 -1.642 0
M  V30 2625 N 248.138 -6.67806 -1.8441 0
M  V30 2626 N 249.931 -5.36923 -1.66342 0
M  V30 2627 H 242.082 -2.08555 0.402328 0
M  V30 2628 H 244.345 -0.940654 0.117789 0
M  V30 2629 H 244.051 -3.51353 -0.156204 0
M  V30 2630 H 243.925 -3.26508 -1.88871 0
M  V30 2631 H 246.312 -2.27326 -1.88167 0
M  V30 2632 H 246.393 -2.55435 -0.136605 0
M  V30 2633 H 246.037 -5.04972 -0.544581 0
M  V30 2634 H 245.967 -4.73848 -2.2973 0
M  V30 2635 H 248.458 -3.55705 -1.27601 0
M  V30 2636 H 248.771 -7.46141 -2.01231 0
M  V30 2637 H 247.116 -6.70843 -1.81644 0
M  V30 2638 H 250.307 -4.43381 -1.50102 0
M  V30 2639 H 250.48 -6.21416 -1.837 0
M  V30 2640 N 243.887 0.651787 -1.4349 0
M  V30 2641 C 245.164 1.40909 -1.35661 0
M  V30 2642 C 245.544 2.11099 -0.00511733 0
M  V30 2643 O 244.892 2.04892 1.0115 0
M  V30 2644 C 245.102 2.3926 -2.54078 0
M  V30 2645 C 246.45 3.03217 -2.97228 0
M  V30 2646 O 247.474 2.49588 -2.54135 0
M  V30 2647 O 246.333 4.00455 -3.71885 0
M  V30 2648 H 243.427 0.629625 -0.536191 0
M  V30 2649 H 245.973 0.678575 -1.55542 0
M  V30 2650 H 244.745 1.86352 -3.44076 0
M  V30 2651 H 244.368 3.1976 -2.36303 0
M  V30 2652 N 245.365 1.30045 0.890287 0
M  V30 2653 C 246.295 1.18541 2.01172 0
M  V30 2654 C 247.276 0.0773356 1.69924 0
M  V30 2655 O 248.461 0.25845 1.92473 0
M  V30 2656 C 245.591 0.870941 3.36202 0
M  V30 2657 C 244.545 1.93637 3.81692 0
M  V30 2658 C 243.871 1.475 5.13953 0
M  V30 2659 C 245.171 3.34666 4.00994 0
M  V30 2660 H 246.865 2.12359 2.11054 0
M  V30 2661 H 244.411 1.02238 1.01407 0
M  V30 2662 H 246.364 0.777141 4.14172 0
M  V30 2663 H 245.088 -0.102926 3.26438 0
M  V30 2664 H 243.747 2.01972 3.05946 0
M  V30 2665 H 243.395 0.489551 5.00612 0
M  V30 2666 H 243.095 2.1876 5.4536 0
M  V30 2667 H 244.619 1.39489 5.94454 0
M  V30 2668 H 246.033 3.2912 4.69417 0
M  V30 2669 H 244.43 4.03966 4.43769 0
M  V30 2670 H 245.5 3.76949 3.05021 0
M  V30 2671 N 246.843 -1.10192 1.12674 0
M  V30 2672 C 247.79 -2.16606 0.796906 0
M  V30 2673 C 248.76 -1.64394 -0.237476 0
M  V30 2674 O 249.945 -1.90474 -0.111484 0
M  V30 2675 C 247.085 -3.44116 0.26043 0
M  V30 2676 C 246.198 -4.10268 1.35293 0
M  V30 2677 C 245.333 -5.25507 0.775621 0
M  V30 2678 C 244.372 -5.83567 1.84706 0
M  V30 2679 N 243.509 -6.90179 1.28829 0
M  V30 2680 H 248.349 -2.44163 1.70846 0
M  V30 2681 H 245.886 -1.19846 0.85295 0
M  V30 2682 H 247.844 -4.17143 -0.0686814 0
M  V30 2683 H 246.474 -3.16901 -0.614274 0
M  V30 2684 H 245.526 -3.35184 1.79877 0
M  V30 2685 H 246.838 -4.4946 2.16303 0
M  V30 2686 H 245.992 -6.05398 0.397327 0
M  V30 2687 H 244.731 -4.87656 -0.0656581 0
M  V30 2688 H 243.736 -5.02344 2.23452 0
M  V30 2689 H 244.961 -6.23482 2.69161 0
M  V30 2690 H 242.907 -6.54322 0.468881 0
M  V30 2691 H 242.824 -7.28097 2.03497 0
M  V30 2692 H 244.092 -7.73844 0.937311 0
M  V30 2693 N 248.321 -0.919034 -1.28029 0
M  V30 2694 C 249.732 -0.600735 -1.76771 0
M  V30 2695 C 250.083 0.884024 -1.75156 0
M  V30 2696 O 249.208 1.69163 -1.34956 0
M  V30 2697 C 249.803 -1.08372 -3.21 0
M  V30 2698 C 248.362 -0.816248 -3.67443 0
M  V30 2699 C 247.509 -1.24742 -2.47658 0
M  V30 2700 H 250.46 -1.09974 -1.14418 0
M  V30 2701 H 250.481 -0.427512 -3.78091 0
M  V30 2702 H 249.993 -2.16437 -3.22144 0
M  V30 2703 H 248.094 0.250968 -3.71754 0
M  V30 2704 H 248.207 -1.4277 -4.57333 0
M  V30 2705 H 246.571 -0.666083 -2.45836 0
M  V30 2706 H 247.354 -2.33653 -2.51518 0
M  V30 2707 N 249.799 1.42003 -0.683588 0
M  V30 2708 C 251.024 2.06265 -0.216647 0
M  V30 2709 C 251.449 1.51059 1.12083 0
M  V30 2710 O 250.807 0.632638 1.69904 0
M  V30 2711 C 250.855 3.60191 -0.171759 0
M  V30 2712 O 249.959 4.03396 0.857069 0
M  V30 2713 H 249.3 0.65502 -0.108834 0
M  V30 2714 H 251.83 1.81982 -0.935077 0
M  V30 2715 H 251.84 4.08 0.0014303 0
M  V30 2716 H 250.515 3.99743 -1.14796 0
M  V30 2717 H 249.092 3.67117 0.654208 0
M  V30 2718 N 251.277 0.427512 1.51691 0
M  V30 2719 C 252.225 -0.403359 2.29076 0
M  V30 2720 C 253.219 -1.02962 1.34518 0
M  V30 2721 O 254.425 -0.965715 1.51901 0
M  V30 2722 H 250.8 -0.148879 0.737115 0
M  V30 2723 H 252.771 0.270295 2.97173 0
M  V30 2724 C 251.52 -1.49763 3.13794 0
M  V30 2725 H 250.843 -1.02508 3.86435 0
M  V30 2726 H 252.283 -2.05244 3.71014 0
M  V30 2727 C 250.742 -2.47536 2.28533 0
M  V30 2728 O 251.272 -3.51848 1.93819 0
M  V30 2729 N 249.478 -2.18187 1.91945 0
M  V30 2730 H 249.025 -1.33389 2.20375 0
M  V30 2731 H 248.983 -2.83848 1.35195 0
M  V30 2732 N 252.755 -1.56801 0.158532 0
M  V30 2733 C 253.685 -2.20347 -0.772609 0
M  V30 2734 C 254.666 -1.15518 -1.24859 0
M  V30 2735 O 255.851 -1.43902 -1.30406 0
M  V30 2736 C 252.981 -2.83417 -2.00729 0
M  V30 2737 C 251.935 -3.94174 -1.66765 0
M  V30 2738 C 251.261 -4.44233 -2.97592 0
M  V30 2739 C 252.561 -5.14392 -0.905447 0
M  V30 2740 H 254.255 -2.98413 -0.242959 0
M  V30 2741 H 251.801 -1.43537 -0.115419 0
M  V30 2742 H 253.754 -3.26543 -2.6636 0
M  V30 2743 H 252.478 -2.02701 -2.56086 0
M  V30 2744 H 251.137 -3.51684 -1.03508 0
M  V30 2745 H 250.785 -3.60325 -3.50963 0
M  V30 2746 H 250.485 -5.18945 -2.75626 0
M  V30 2747 H 252.009 -4.90037 -3.64274 0
M  V30 2748 H 253.423 -5.5429 -1.46408 0
M  V30 2749 H 251.82 -5.9494 -0.7853 0
M  V30 2750 H 252.89 -4.84795 0.100668 0
M  V30 2751 N 254.233 0.115231 -1.57178 0
M  V30 2752 C 255.163 1.1423 -2.03651 0
M  V30 2753 C 256.144 1.42967 -0.921655 0
M  V30 2754 O 257.329 1.53343 -1.19162 0
M  V30 2755 C 254.459 2.4675 -2.44401 0
M  V30 2756 C 253.413 2.32467 -3.59365 0
M  V30 2757 C 252.739 3.69984 -3.86026 0
M  V30 2758 C 254.039 1.78203 -4.90959 0
M  V30 2759 H 255.733 0.755749 -2.89705 0
M  V30 2760 H 253.279 0.362093 -1.39373 0
M  V30 2761 H 255.232 3.18854 -2.75517 0
M  V30 2762 H 253.956 2.87302 -1.55322 0
M  V30 2763 H 252.615 1.62811 -3.28463 0
M  V30 2764 H 252.263 4.08028 -2.94147 0
M  V30 2765 H 251.963 3.61279 -4.63412 0
M  V30 2766 H 253.487 4.43587 -4.19599 0
M  V30 2767 H 254.901 2.40128 -5.20587 0
M  V30 2768 H 253.298 1.8031 -5.72371 0
M  V30 2769 H 254.368 0.739876 -4.79222 0
M  V30 2770 N 255.711 1.52812 0.385517 0
M  V30 2771 C 256.96 1.67249 1.12741 0
M  V30 2772 C 257.273 0.4205 1.91027 0
M  V30 2773 O 258.479 0.445064 2.67827 0
M  V30 2774 C 256.935 2.95583 2.05326 0
M  V30 2775 C 256.543 4.27974 1.32447 0
M  V30 2776 C 258.287 3.19386 2.7963 0
M  V30 2777 C 256.194 5.47412 2.23818 0
M  V30 2778 H 255.124 0.6231 0.424573 0
M  V30 2779 H 257.775 1.79309 0.389924 0
M  V30 2780 H 256.157 2.77277 2.82725 0
M  V30 2781 H 257.331 4.56844 0.602495 0
M  V30 2782 H 255.646 4.10459 0.700885 0
M  V30 2783 H 258.243 4.05801 3.48181 0
M  V30 2784 H 258.586 2.34604 3.43899 0
M  V30 2785 H 259.119 3.38274 2.09322 0
M  V30 2786 H 255.858 6.34612 1.64157 0
M  V30 2787 H 255.378 5.22849 2.93921 0
M  V30 2788 H 257.057 5.81423 2.83824 0
M  V30 2789 N 257.189 -0.644168 1.43834 0
M  V30 2790 C 258.137 -1.77793 1.49974 0
M  V30 2791 C 259.131 -1.65253 0.372536 0
M  V30 2792 O 260.337 -1.7149 0.546924 0
M  V30 2793 H 256.712 -0.58675 0.47035 0
M  V30 2794 H 258.683 -1.69736 2.45423 0
M  V30 2795 C 257.432 -3.16087 1.4486 0
M  V30 2796 H 256.755 -3.26378 2.30905 0
M  V30 2797 H 258.195 -3.95349 1.53217 0
M  V30 2798 C 256.654 -3.36484 0.167463 0
M  V30 2799 O 257.184 -3.94298 -0.767609 0
M  V30 2800 N 255.39 -2.90504 0.0747556 0
M  V30 2801 H 254.937 -2.4364 0.836507 0
M  V30 2802 H 254.895 -3.04527 -0.781714 0
M  V30 2803 N 258.668 -1.30515 -0.883378 0
M  V30 2804 C 259.896 -1.22359 -1.66841 0
M  V30 2805 C 260.311 0.213296 -1.87591 0
M  V30 2806 O 259.668 1.14075 -1.42454 0
M  V30 2807 C 259.719 -1.95011 -3.04389 0
M  V30 2808 O 259.44 -3.3309 -2.84575 0
M  V30 2809 C 260.941 -1.93532 -3.98824 0
M  V30 2810 H 258.161 -0.423371 -0.520575 0
M  V30 2811 H 260.705 -1.72167 -1.10357 0
M  V30 2812 H 258.86 -1.48997 -3.57601 0
M  V30 2813 H 259.274 -3.69907 -3.71846 0
M  V30 2814 H 260.748 -2.48902 -4.92699 0
M  V30 2815 H 261.225 -0.914627 -4.29571 0
M  V30 2816 H 261.831 -2.39364 -3.51547 0
M  V30 2817 N 260.146 1.09593 -1.13257 0
M  V30 2818 C 261.374 1.855 -0.916378 0
M  V30 2819 C 261.789 1.81069 0.534738 0
M  V30 2820 O 261.146 1.20562 1.37007 0
M  V30 2821 C 261.197 3.33546 -1.39388 0
M  V30 2822 O 260.918 3.37927 -2.78813 0
M  V30 2823 C 262.419 4.26299 -1.21588 0
M  V30 2824 H 259.639 0.585991 -0.326887 0
M  V30 2825 H 262.183 1.38488 -1.5047 0
M  V30 2826 H 260.338 3.77992 -0.848597 0
M  V30 2827 H 260.752 4.30254 -2.9997 0
M  V30 2828 H 262.226 5.28341 -1.59876 0
M  V30 2829 H 262.703 4.38918 -0.157376 0
M  V30 2830 H 263.309 3.87668 -1.7491 0
M  V30 2831 N 261.624 0.925811 1.2754 0
M  V30 2832 C 262.864 0.572521 1.96218 0
M  V30 2833 C 263.228 -0.869719 1.71172 0
M  V30 2834 O 264.429 -1.33119 2.33523 0
M  V30 2835 C 262.7 0.887325 3.4621 0
M  V30 2836 S 264.259 0.642266 4.34074 0
M  V30 2837 H 261.077 0.211403 0.678845 0
M  V30 2838 H 263.679 1.19384 1.54815 0
M  V30 2839 H 262.383 1.93469 3.61936 0
M  V30 2840 H 261.914 0.255123 3.92572 0
M  V30 2841 H 263.929 -0.500822 4.93666 0
M  V30 2842 N 263.102 -1.41638 0.69111 0
M  V30 2843 C 264.379 -1.95036 0.148421 0
M  V30 2844 C 264.759 -1.63072 -1.34055 0
M  V30 2845 O 264.107 -0.93538 -2.08478 0
M  V30 2846 C 264.317 -3.46279 0.434951 0
M  V30 2847 C 265.665 -4.23069 0.360275 0
M  V30 2848 O 266.689 -3.54277 0.369613 0
M  V30 2849 O 265.548 -5.45583 0.316534 0
M  V30 2850 H 262.642 -0.826908 0.0123654 0
M  V30 2851 H 265.188 -1.5138 0.766963 0
M  V30 2852 H 263.96 -3.6281 1.46576 0
M  V30 2853 H 263.583 -3.97019 -0.214787 0
M  V30 2854 N 264.58 -0.43555 -1.51462 0
M  V30 2855 C 265.51 0.367376 -2.30592 0
M  V30 2856 C 266.491 1.02263 -1.35928 0
M  V30 2857 O 267.676 1.02661 -1.64847 0
M  V30 2858 C 264.806 1.46983 -3.14664 0
M  V30 2859 C 263.76 0.938161 -4.17591 0
M  V30 2860 C 263.086 2.13622 -4.90173 0
M  V30 2861 C 264.386 -0.0261621 -5.22293 0
M  V30 2862 H 266.08 -0.292969 -2.97963 0
M  V30 2863 H 263.626 -0.14234 -1.43295 0
M  V30 2864 H 265.579 2.03873 -3.688 0
M  V30 2865 H 264.303 2.15843 -2.4511 0
M  V30 2866 H 262.962 0.391481 -3.64504 0
M  V30 2867 H 262.61 2.81098 -4.17124 0
M  V30 2868 H 262.31 1.78688 -5.59772 0
M  V30 2869 H 263.834 2.7107 -5.47132 0
M  V30 2870 H 265.248 0.452384 -5.71512 0
M  V30 2871 H 263.645 -0.287992 -5.99409 0
M  V30 2872 H 264.715 -0.963391 -4.75233 0
M  V30 2873 N 266.058 1.56714 -0.166846 0
M  V30 2874 C 267.005 2.17746 0.765193 0
M  V30 2875 C 267.975 1.11614 1.23011 0
M  V30 2876 O 269.16 1.39745 1.29908 0
M  V30 2877 C 266.3 2.81882 1.9909 0
M  V30 2878 C 265.413 4.02462 1.56997 0
M  V30 2879 C 264.548 4.54537 2.749 0
M  V30 2880 C 263.587 5.67538 2.29275 0
M  V30 2881 N 262.724 6.14142 3.40255 0
M  V30 2882 H 267.564 2.97048 0.237952 0
M  V30 2883 H 265.101 1.4672 0.105725 0
M  V30 2884 H 267.059 3.17221 2.70974 0
M  V30 2885 H 265.689 2.05191 2.49192 0
M  V30 2886 H 264.741 3.72973 0.748037 0
M  V30 2887 H 266.053 4.84273 1.19503 0
M  V30 2888 H 265.207 4.92035 3.54946 0
M  V30 2889 H 263.946 3.71774 3.1565 0
M  V30 2890 H 262.951 5.29597 1.47674 0
M  V30 2891 H 264.176 6.52099 1.89588 0
M  V30 2892 H 262.122 5.3431 3.8059 0
M  V30 2893 H 262.039 6.9093 3.06841 0
M  V30 2894 H 263.307 6.56289 4.206 0
M  V30 2895 N 267.536 -0.106894 1.57237 0
M  V30 2896 C 268.785 -0.811163 1.8467 0
M  V30 2897 C 269.098 -1.80469 0.754342 0
M  V30 2898 O 270.304 -2.55601 0.915439 0
M  V30 2899 C 268.76 -1.49337 3.27454 0
M  V30 2900 C 268.368 -0.540217 4.44731 0
M  V30 2901 C 270.112 -2.18206 3.64124 0
M  V30 2902 C 268.019 -1.22634 5.78545 0
M  V30 2903 H 266.949 -0.306679 0.688813 0
M  V30 2904 H 269.6 -0.0639887 1.83388 0
M  V30 2905 H 267.982 -2.2876 3.23241 0
M  V30 2906 H 269.156 0.221659 4.60267 0
M  V30 2907 H 267.471 0.042146 4.16379 0
M  V30 2908 H 270.068 -2.70253 4.61376 0
M  V30 2909 H 270.411 -2.96562 2.92158 0
M  V30 2910 H 270.944 -1.45658 3.70174 0
M  V30 2911 H 267.683 -0.483832 6.53712 0
M  V30 2912 H 267.203 -1.95993 5.66874 0
M  V30 2913 H 268.882 -1.75615 6.2271 0
M  V30 2914 N 269.014 -1.53014 -0.377408 0
M  V30 2915 C 270.254 -1.70318 -1.1301 0
M  V30 2916 C 270.618 -0.439538 -1.86901 0
M  V30 2917 O 271.819 -0.489095 -2.64313 0
M  V30 2918 C 270.09 -2.91125 -2.07319 0
M  V30 2919 S 271.649 -3.29075 -2.90268 0
M  V30 2920 H 268.467 -0.599426 -0.382374 0
M  V30 2921 H 271.069 -1.91089 -0.412933 0
M  V30 2922 H 269.773 -3.81303 -1.51777 0
M  V30 2923 H 269.304 -2.7272 -2.83526 0
M  V30 2924 H 271.319 -2.80165 -4.09539 0
M  V30 2925 N 270.492 0.636531 -1.44174 0
M  V30 2926 C 271.769 1.39463 -1.37148 0
M  V30 2927 C 272.149 2.11082 -0.027507 0
M  V30 2928 O 271.497 2.05954 0.989716 0
M  V30 2929 C 271.707 2.36552 -2.56601 0
M  V30 2930 C 273.055 3.00048 -3.00427 0
M  V30 2931 O 274.079 2.46878 -2.56767 0
M  V30 2932 O 272.938 3.96488 -3.76111 0
M  V30 2933 H 270.032 0.623903 -0.542839 0
M  V30 2934 H 272.578 0.662039 -1.56253 0
M  V30 2935 H 271.35 1.82692 -3.46034 0
M  V30 2936 H 270.973 3.17236 -2.39681 0
M  V30 2937 N 271.97 1.30982 0.876444 0
M  V30 2938 C 273.217 1.20296 1.62896 0
M  V30 2939 C 273.545 -0.240395 1.93009 0
M  V30 2940 O 272.8 -1.18733 1.55567 0
M  V30 2941 C 273.099 1.98572 2.9716 0
M  V30 2942 C 272.765 3.48125 2.86566 0
M  V30 2943 C 271.427 3.88905 2.83383 0
M  V30 2944 C 273.779 4.43322 2.74071 0
M  V30 2945 C 271.107 5.2316 2.65556 0
M  V30 2946 C 273.459 5.77695 2.57781 0
M  V30 2947 C 272.123 6.17704 2.52979 0
M  V30 2948 H 271.393 0.440193 0.59608 0
M  V30 2949 H 274.04 1.62177 1.01837 0
M  V30 2950 H 272.345 1.49352 3.62217 0
M  V30 2951 H 274.042 1.8769 3.54364 0
M  V30 2952 H 270.632 3.15723 2.89856 0
M  V30 2953 H 274.816 4.12752 2.75589 0
M  V30 2954 H 270.072 5.53241 2.60259 0
M  V30 2955 H 274.246 6.51091 2.47089 0
M  V30 2956 H 271.873 7.21678 2.38924 0
M  V30 2957 N 273.449 -1.08991 1.13837 0
M  V30 2958 C 274.697 -1.80899 0.901098 0
M  V30 2959 C 275.018 -1.86356 -0.574134 0
M  V30 2960 O 274.288 -1.35235 -1.41733 0
M  V30 2961 H 272.868 -0.669966 0.330386 0
M  V30 2962 H 275.53 -1.318 1.43578 0
M  V30 2963 H 274.626 -2.83929 1.29578 0
M  V30 2964 N 274.927 -0.932562 -1.27047 0
M  V30 2965 C 275.857 -0.452902 -2.29066 0
M  V30 2966 C 276.838 0.489338 -1.62909 0
M  V30 2967 O 278.023 0.393046 -1.90181 0
M  V30 2968 C 275.153 0.290698 -3.46081 0
M  V30 2969 C 274.107 -0.564168 -4.24265 0
M  V30 2970 C 273.433 0.308886 -5.33807 0
M  V30 2971 C 274.733 -1.83112 -4.89149 0
M  V30 2972 H 276.427 -1.30552 -2.69437 0
M  V30 2973 H 273.973 -0.629201 -1.29526 0
M  V30 2974 H 275.926 0.637233 -4.16554 0
M  V30 2975 H 274.65 1.17738 -3.0464 0
M  V30 2976 H 273.309 -0.893477 -3.55545 0
M  V30 2977 H 272.957 1.19467 -4.88607 0
M  V30 2978 H 272.657 -0.259633 -5.87026 0
M  V30 2979 H 274.181 0.650884 -6.07121 0
M  V30 2980 H 275.595 -1.55236 -5.51883 0
M  V30 2981 H 273.992 -2.34353 -5.52448 0
M  V30 2982 H 275.062 -2.54772 -4.12576 0
M  V30 2983 N 276.405 1.4127 -0.698611 0
M  V30 2984 C 277.368 2.29158 -0.044132 0
M  V30 2985 C 278.368 1.44529 0.704841 0
M  V30 2986 O 279.558 1.65643 0.539276 0
M  V30 2987 C 276.69 3.27459 0.947809 0
M  V30 2988 H 277.883 2.88529 -0.817994 0
M  V30 2989 H 275.436 1.49307 -0.46228 0
M  V30 2990 H 276.171 2.73073 1.74933 0
M  V30 2991 H 275.956 3.8991 0.41385 0
M  V30 2992 H 277.446 3.93311 1.40344 0
M  V30 2993 N 277.883 0.443576 1.51229 0
M  V30 2994 C 279.299 0.0962001 1.5931 0
M  V30 2995 C 279.499 -1.39501 1.45402 0
M  V30 2996 O 278.555 -2.16557 1.29843 0
M  V30 2997 C 279.868 0.621875 2.94199 0
M  V30 2998 C 281.416 0.582865 3.07525 0
M  V30 2999 C 281.891 1.08562 4.44948 0
M  V30 3000 N 283.382 1.04387 4.51284 0
M  V30 3001 C 284.117 1.40368 5.55954 0
M  V30 3002 N 283.613 1.83664 6.68011 0
M  V30 3003 N 285.406 1.32145 5.46346 0
M  V30 3004 H 277.557 1.41376 1.58514 0
M  V30 3005 H 279.82 0.582965 0.747567 0
M  V30 3006 H 279.526 1.66546 3.09767 0
M  V30 3007 H 279.4 0.0502125 3.77167 0
M  V30 3008 H 281.787 -0.451749 2.91622 0
M  V30 3009 H 281.868 1.191 2.26382 0
M  V30 3010 H 281.512 2.11873 4.61598 0
M  V30 3011 H 281.442 0.453956 5.2464 0
M  V30 3012 H 283.933 0.725986 3.70861 0
M  V30 3013 H 284.246 2.0934 7.43906 0
M  V30 3014 H 282.591 1.87596 6.69203 0
M  V30 3015 H 285.782 0.981808 4.57688 0
M  V30 3016 H 285.955 1.60514 6.27805 0
M  V30 3017 N 279.361 -1.56624 0.175154 0
M  V30 3018 C 280.61 -1.96173 -0.468921 0
M  V30 3019 C 280.923 -1.06401 -1.64128 0
M  V30 3020 O 282.129 -1.35648 -2.35185 0
M  V30 3021 C 280.585 -3.48833 -0.885633 0
M  V30 3022 C 280.193 -4.47237 0.261343 0
M  V30 3023 C 281.937 -3.97194 -1.49791 0
M  V30 3024 C 279.844 -5.9114 -0.175214 0
M  V30 3025 H 278.774 -0.732455 -0.178958 0
M  V30 3026 H 281.425 -1.81591 0.263997 0
M  V30 3027 H 279.807 -3.58848 -1.67464 0
M  V30 3028 H 280.981 -4.4894 1.03871 0
M  V30 3029 H 279.296 -4.08956 0.783827 0
M  V30 3030 H 281.893 -5.02167 -1.83665 0
M  V30 3031 H 282.236 -3.40351 -2.39722 0
M  V30 3032 H 282.769 -3.90212 -0.773267 0
M  V30 3033 H 279.508 -6.51865 0.689414 0
M  V30 3034 H 279.028 -5.92735 -0.91786 0
M  V30 3035 H 280.707 -6.44044 -0.617792 0
M  V30 3036 N 280.839 0.0985539 -1.57292 0
M  V30 3037 C 281.802 1.10402 -2.00858 0
M  V30 3038 C 282.802 1.33146 -0.901593 0
M  V30 3039 O 283.992 1.29318 -1.16716 0
M  V30 3040 C 281.124 2.45394 -2.36632 0
M  V30 3041 H 282.317 0.729099 -2.90902 0
M  V30 3042 H 279.87 0.343495 -1.52479 0
M  V30 3043 H 280.605 2.87769 -1.49531 0
M  V30 3044 H 280.39 2.30235 -3.17387 0
M  V30 3045 H 281.88 3.17718 -2.71007 0
M  V30 3046 N 282.317 1.53212 0.369288 0
M  V30 3047 C 283.594 1.59815 1.12776 0
M  V30 3048 C 283.974 0.403402 2.0721 0
M  V30 3049 O 283.322 -0.606667 2.20299 0
M  V30 3050 C 283.532 2.94664 1.87013 0
M  V30 3051 C 284.88 3.49109 2.41677 0
M  V30 3052 O 285.904 2.96669 1.97144 0
M  V30 3053 O 284.763 4.40775 3.23079 0
M  V30 3054 H 281.857 0.645376 0.517125 0
M  V30 3055 H 284.403 1.65553 0.37285 0
M  V30 3056 H 283.175 3.73061 1.18071 0
M  V30 3057 H 282.798 2.92401 2.69421 0
M  V30 3058 N 283.795 -0.628877 1.44509 0
M  V30 3059 C 285.206 -1.21054 1.42137 0
M  V30 3060 C 285.557 -1.95715 0.137881 0
M  V30 3061 O 284.682 -2.02554 -0.761645 0
M  V30 3062 C 285.277 -2.20189 2.57493 0
M  V30 3063 C 283.836 -2.73777 2.58308 0
M  V30 3064 C 282.983 -1.48813 2.33987 0
M  V30 3065 H 285.934 -0.41942 1.53057 0
M  V30 3066 H 285.955 -3.02833 2.30375 0
M  V30 3067 H 285.467 -1.6582 3.50892 0
M  V30 3068 H 283.568 -3.32142 1.68856 0
M  V30 3069 H 283.681 -3.19662 3.56865 0
M  V30 3070 H 282.045 -1.77024 1.83124 0
M  V30 3071 H 282.828 -0.963442 3.29504 0
M  V30 3072 N 285.273 -1.31445 -0.869486 0
M  V30 3073 C 286.183 -1.21097 -2.0093 0
M  V30 3074 C 287.199 -0.127584 -1.73532 0
M  V30 3075 O 288.375 -0.345477 -1.98415 0
M  V30 3076 C 285.44 -0.919378 -3.34288 0
M  V30 3077 C 284.501 -2.08971 -3.75006 0
M  V30 3078 C 283.734 -1.81194 -5.02001 0
M  V30 3079 O 283.957 -0.747296 -5.65484 0
M  V30 3080 O 282.891 -2.66883 -5.39497 0
M  V30 3081 H 286.717 -2.16883 -2.12592 0
M  V30 3082 H 284.302 -1.11189 -0.997868 0
M  V30 3083 H 286.184 -0.772625 -4.14257 0
M  V30 3084 H 284.859 0.00844772 -3.23699 0
M  V30 3085 H 283.766 -2.29187 -2.95676 0
M  V30 3086 H 285.099 -2.9998 -3.90221 0
M  V30 3087 N 286.751 1.08385 -1.14413 0
M  V30 3088 C 287.701 2.13509 -0.79987 0
M  V30 3089 C 288.685 1.5951 0.211059 0
M  V30 3090 O 289.877 1.76995 0.0133694 0
M  V30 3091 C 287.006 3.42162 -0.279297 0
M  V30 3092 C 286.092 4.03042 -1.31976 0
M  V30 3093 N 286.483 4.38327 -2.52395 0
M  V30 3094 C 284.781 4.30379 -1.17004 0
M  V30 3095 C 285.482 4.86428 -3.19003 0
M  V30 3096 N 284.458 4.84547 -2.46405 0
M  V30 3097 H 288.26 2.38609 -1.7159 0
M  V30 3098 H 285.774 1.2572 -1.02802 0
M  V30 3099 H 287.771 4.16898 -0.0143688 0
M  V30 3100 H 286.431 3.18511 0.630923 0
M  V30 3101 H 287.442 4.29349 -2.89621 0
M  V30 3102 H 284.119 4.16281 -0.318854 0
M  V30 3103 H 285.509 5.23107 -4.21674 0
M  V30 3104 N 288.23 0.939286 1.26551 0
M  V30 3105 C 289.507 0.5038 1.89001 0
M  V30 3106 C 289.887 -1.01854 1.84903 0
M  V30 3107 O 289.235 -1.87773 1.30206 0
M  V30 3108 C 289.445 1.063 3.32417 0
M  V30 3109 C 290.793 1.13051 4.09273 0
M  V30 3110 O 291.817 1.01345 3.41479 0
M  V30 3111 O 290.676 1.31233 5.30509 0
M  V30 3112 H 287.77 0.163897 0.810597 0
M  V30 3113 H 290.316 1.03173 1.34735 0
M  V30 3114 H 289.088 2.10665 3.29752 0
M  V30 3115 H 288.711 0.517408 3.94219 0
M  V30 3116 N 289.708 -1.40897 0.706093 0
M  V30 3117 C 290.658 -2.27987 0.0240746 0
M  V30 3118 C 291.642 -1.42759 -0.742204 0
M  V30 3119 O 292.834 -1.65936 -0.615966 0
M  V30 3120 C 289.963 -3.31186 -0.903907 0
M  V30 3121 C 289.049 -4.2389 -0.133318 0
M  V30 3122 N 289.44 -4.98113 0.878444 0
M  V30 3123 C 287.738 -4.44485 -0.367269 0
M  V30 3124 C 288.439 -5.6604 1.34064 0
M  V30 3125 N 287.415 -5.39522 0.664565 0
M  V30 3126 H 291.217 -2.82812 0.799658 0
M  V30 3127 H 288.731 -1.53235 0.537845 0
M  V30 3128 H 290.728 -3.92413 -1.40775 0
M  V30 3129 H 289.388 -2.77922 -1.67897 0
M  V30 3130 H 290.399 -5.02364 1.25901 0
M  V30 3131 H 287.076 -4.02213 -1.1194 0
M  V30 3132 H 288.466 -6.35524 2.1808 0
M  V30 3133 N 291.186 -0.45159 -1.50991 0
M  V30 3134 C 292.414 0.108334 -2.06616 0
M  V30 3135 C 292.829 1.35224 -1.31757 0
M  V30 3136 O 292.186 1.78475 -0.381174 0
M  V30 3137 C 292.237 0.41619 -3.59096 0
M  V30 3138 O 291.958 -0.778361 -4.3113 0
M  V30 3139 C 293.459 1.02523 -4.31282 0
M  V30 3140 H 290.679 0.00159995 -0.670998 0
M  V30 3141 H 293.223 -0.634771 -1.94399 0
M  V30 3142 H 291.378 1.10921 -3.71181 0
M  V30 3143 H 291.792 -0.511181 -5.22003 0
M  V30 3144 H 293.266 1.19053 -5.39009 0
M  V30 3145 H 293.743 2.01013 -3.905 0
M  V30 3146 H 294.349 0.371173 -4.23677 0
M  V30 3147 N 292.664 1.56529 -0.183458 0
M  V30 3148 C 293.912 1.96855 0.457452 0
M  V30 3149 C 294.233 1.07104 1.62953 0
M  V30 3150 O 293.503 0.139887 1.954 0
M  V30 3151 H 292.083 0.72693 0.171992 0
M  V30 3152 H 294.745 1.93056 -0.267476 0
M  V30 3153 H 293.841 3.01423 0.809368 0
M  V30 3154 N 294.142 -0.090211 1.57342 0
M  V30 3155 C 295.389 -0.792807 1.86335 0
M  V30 3156 C 295.717 -1.78494 0.772662 0
M  V30 3157 O 294.972 -1.94305 -0.233258 0
M  V30 3158 C 295.271 -1.55222 3.21933 0
M  V30 3159 C 294.937 -0.701765 4.45406 0
M  V30 3160 C 293.599 -0.467334 4.78925 0
M  V30 3161 C 295.951 -0.11086 5.21082 0
M  V30 3162 C 293.279 0.367785 5.85546 0
M  V30 3163 C 295.631 0.711609 6.28585 0
M  V30 3164 C 294.295 0.956086 6.60617 0
M  V30 3165 H 293.565 -0.290109 0.681849 0
M  V30 3166 H 296.212 -0.0541332 1.91423 0
M  V30 3167 H 294.517 -2.3626 3.12551 0
M  V30 3168 H 296.214 -2.10032 3.41595 0
M  V30 3169 H 292.804 -0.894598 4.1916 0
M  V30 3170 H 296.988 -0.279129 4.95514 0
M  V30 3171 H 292.244 0.566128 6.08773 0
M  V30 3172 H 296.418 1.17632 6.86393 0
M  V30 3173 H 294.045 1.60499 7.43064 0
M  V30 3174 N 295.62 -1.53406 -0.361157 0
M  V30 3175 C 296.55 -1.83136 -1.44857 0
M  V30 3176 C 297.531 -0.685174 -1.5569 0
M  V30 3177 O 298.716 -0.93544 -1.70186 0
M  V30 3178 C 295.846 -2.02522 -2.82138 0
M  V30 3179 C 294.8 -3.18302 -2.86126 0
M  V30 3180 C 294.126 -3.22989 -4.26125 0
M  V30 3181 C 295.426 -4.56796 -2.53248 0
M  V30 3182 H 297.12 -2.74201 -1.20226 0
M  V30 3183 H 294.666 -1.31938 -0.576922 0
M  V30 3184 H 296.619 -2.21904 -3.58241 0
M  V30 3185 H 295.343 -1.08172 -3.08166 0
M  V30 3186 H 294.002 -2.98747 -2.12475 0
M  V30 3187 H 293.65 -2.26267 -4.49235 0
M  V30 3188 H 293.35 -4.00781 -4.29708 0
M  V30 3189 H 294.874 -3.44559 -5.04094 0
M  V30 3190 H 296.288 -4.7631 -3.19064 0
M  V30 3191 H 294.685 -5.36862 -2.68141 0
M  V30 3192 H 295.755 -4.61606 -1.48484 0
M  V30 3193 N 297.098 0.621204 -1.44841 0
M  V30 3194 C 298.326 1.40752 -1.51646 0
M  V30 3195 C 298.741 1.88246 -0.144549 0
M  V30 3196 O 298.098 1.61422 0.851416 0
M  V30 3197 C 298.149 2.62119 -2.4895 0
M  V30 3198 O 297.87 2.16602 -3.80808 0
M  V30 3199 C 299.371 3.55135 -2.65319 0
M  V30 3200 H 296.591 0.431325 -0.514004 0
M  V30 3201 H 299.135 0.758835 -1.899 0
M  V30 3202 H 297.29 3.23058 -2.13805 0
M  V30 3203 H 297.704 2.95358 -4.33433 0
M  V30 3204 H 299.178 4.36874 -3.37409 0
M  V30 3205 H 299.655 4.04592 -1.70886 0
M  V30 3206 H 300.261 3.00058 -3.01405 0
M  V30 3207 N 298.576 1.31904 0.862503 0
M  V30 3208 C 299.486 1.22161 2.00285 0
M  V30 3209 C 300.502 0.136785 1.73462 0
M  V30 3210 O 301.678 0.355994 1.98229 0
M  V30 3211 C 298.743 0.937093 3.33796 0
M  V30 3212 C 297.804 2.10957 3.73893 0
M  V30 3213 C 297.037 1.83853 5.01033 0
M  V30 3214 O 297.26 0.777274 5.65079 0
M  V30 3215 O 296.194 2.69741 5.38074 0
M  V30 3216 H 300.02 2.18008 2.11439 0
M  V30 3217 H 297.605 1.11716 0.991957 0
M  V30 3218 H 299.487 0.794583 4.13841 0
M  V30 3219 H 298.162 0.00871894 3.23699 0
M  V30 3220 H 297.069 2.30752 2.94456 0
M  V30 3221 H 298.402 3.02046 3.88625 0
M  V30 3222 N 300.054 -1.07777 1.14986 0
M  V30 3223 C 301.284 -1.83752 0.944402 0
M  V30 3224 C 301.692 -1.8218 -0.51058 0
M  V30 3225 O 301.035 -1.22852 -1.36576 0
M  V30 3226 C 301.097 -3.32128 1.37592 0
M  V30 3227 C 300.761 -3.57425 2.84775 0
M  V30 3228 C 301.758 -3.5173 3.8286 0
M  V30 3229 C 299.443 -3.8523 3.2234 0
M  V30 3230 C 301.437 -3.73482 5.16517 0
M  V30 3231 C 299.124 -4.06634 4.56171 0
M  V30 3232 C 300.122 -4.00754 5.53069 0
M  V30 3233 O 299.81 -4.2159 6.84483 0
M  V30 3234 H 299.542 -0.58673 0.335744 0
M  V30 3235 H 302.096 -1.36982 1.53052 0
M  V30 3236 H 300.326 -3.79686 0.733165 0
M  V30 3237 H 302.015 -3.89555 1.14024 0
M  V30 3238 H 302.781 -3.30256 3.55184 0
M  V30 3239 H 298.66 -3.88923 2.47508 0
M  V30 3240 H 302.204 -3.68808 5.92137 0
M  V30 3241 H 298.101 -4.27593 4.83564 0
M  V30 3242 H 298.869 -4.38961 6.90837 0
M  V30 3243 N 301.532 -0.945985 -1.26051 0
M  V30 3244 C 302.778 -0.597002 -1.93814 0
M  V30 3245 C 303.111 0.862484 -1.73997 0
M  V30 3246 O 302.386 1.61769 -1.07986 0
M  V30 3247 C 302.669 -0.945937 -3.47454 0
M  V30 3248 C 302.522 -2.46052 -3.76535 0
M  V30 3249 C 303.841 -0.464785 -4.37639 0
M  V30 3250 H 300.96 -0.218366 -0.703907 0
M  V30 3251 H 303.602 -1.18107 -1.48831 0
M  V30 3252 H 301.752 -0.448902 -3.85898 0
M  V30 3253 H 303.424 -3.03065 -3.47778 0
M  V30 3254 H 301.667 -2.90194 -3.22444 0
M  V30 3255 H 302.338 -2.65517 -4.83947 0
M  V30 3256 H 304.814 -0.891016 -4.06448 0
M  V30 3257 H 303.69 -0.737712 -5.4392 0
M  V30 3258 H 303.951 0.635274 -4.37512 0
M  V30 3259 N 303.011 1.40521 -0.713556 0
M  V30 3260 C 303.974 2.29098 -0.0684347 0
M  V30 3261 C 304.974 1.45268 0.689472 0
M  V30 3262 O 306.164 1.66205 0.521677 0
M  V30 3263 C 303.296 3.28446 0.913024 0
M  V30 3264 H 304.489 2.87645 -0.84855 0
M  V30 3265 H 302.042 1.48809 -0.47809 0
M  V30 3266 H 302.777 2.74913 1.72027 0
M  V30 3267 H 302.562 3.90327 0.372472 0
M  V30 3268 H 304.052 3.94777 1.36165 0
M  V30 3269 N 304.489 0.459591 1.5075 0
M  V30 3270 C 305.717 -0.0973749 2.06671 0
M  V30 3271 C 306.132 -1.34524 1.32472 0
M  V30 3272 O 305.489 -1.7827 0.390634 0
M  V30 3273 C 305.54 -0.39714 3.59312 0
M  V30 3274 O 305.261 0.801214 4.30711 0
M  V30 3275 C 306.762 -1.00234 4.31819 0
M  V30 3276 H 303.982 0.00195854 0.670997 0
M  V30 3277 H 306.526 0.645072 1.94059 0
M  V30 3278 H 304.681 -1.08951 3.71764 0
M  V30 3279 H 305.095 0.538857 5.21725 0
M  V30 3280 H 306.569 -1.16193 5.39632 0
M  V30 3281 H 307.046 -1.98939 3.91561 0
M  V30 3282 H 307.652 -0.348699 4.23868 0
M  V30 3283 N 305.967 -1.56429 0.191757 0
M  V30 3284 C 307.383 -1.58754 -0.164137 0
M  V30 3285 C 307.583 -1.20782 -1.61288 0
M  V30 3286 O 306.639 -0.928999 -2.34789 0
M  V30 3287 C 307.952 -3.00396 0.135195 0
M  V30 3288 C 309.5 -3.1291 0.0750351 0
M  V30 3289 C 309.975 -4.56679 0.347632 0
M  V30 3290 N 311.466 -4.62252 0.296131 0
M  V30 3291 C 312.201 -5.71379 0.480948 0
M  V30 3292 N 311.697 -6.88986 0.725933 0
M  V30 3293 N 313.49 -5.60563 0.415435 0
M  V30 3294 H 305.641 -1.79393 1.13718 0
M  V30 3295 H 307.904 -0.832414 0.453643 0
M  V30 3296 H 307.61 -3.32726 1.13958 0
M  V30 3297 H 307.484 -3.72963 -0.563773 0
M  V30 3298 H 309.871 -2.80394 -0.919948 0
M  V30 3299 H 309.952 -2.42736 0.807029 0
M  V30 3300 H 309.596 -4.89907 1.33992 0
M  V30 3301 H 309.526 -5.25039 -0.405212 0
M  V30 3302 H 312.017 -3.7773 0.113259 0
M  V30 3303 H 312.33 -7.68046 0.855857 0
M  V30 3304 H 310.675 -6.90801 0.762788 0
M  V30 3305 H 313.866 -4.67561 0.224486 0
M  V30 3306 H 314.039 -6.45551 0.562889 0
M  V30 3307 N 307.445 0.0818655 -1.57387 0
M  V30 3308 C 308.691 0.778884 -1.87896 0
M  V30 3309 C 309.046 1.75692 -0.784229 0
M  V30 3310 O 308.339 1.90417 0.212567 0
M  V30 3311 C 308.533 1.53513 -3.22752 0
M  V30 3312 C 308.362 0.631838 -4.45239 0
M  V30 3313 C 307.132 0.272571 -5.04564 0
M  V30 3314 C 309.33 -0.0670191 -5.14256 0
M  V30 3315 N 307.312 -0.637498 -6.10581 0
M  V30 3316 C 308.683 -0.834653 -6.14356 0
M  V30 3317 C 310.738 -0.139551 -4.97704 0
M  V30 3318 C 309.441 -1.66806 -6.99691 0
M  V30 3319 C 311.467 -0.959903 -5.83558 0
M  V30 3320 C 310.829 -1.71561 -6.83188 0
M  V30 3321 H 306.928 0.260764 -0.737242 0
M  V30 3322 H 309.512 0.0408227 -1.94657 0
M  V30 3323 H 307.683 2.24398 -3.17018 0
M  V30 3324 H 309.415 2.18038 -3.40942 0
M  V30 3325 H 306.17 0.62319 -4.69482 0
M  V30 3326 H 306.594 -1.08548 -6.68241 0
M  V30 3327 H 311.236 0.430376 -4.20604 0
M  V30 3328 H 308.954 -2.249 -7.76174 0
M  V30 3329 H 312.54 -1.01887 -5.72809 0
M  V30 3330 H 311.42 -2.34017 -7.48469 0
M  V30 3331 N 308.923 1.53595 0.353017 0
M  V30 3332 C 310.153 1.74058 1.11299 0
M  V30 3333 C 310.561 0.475205 1.83135 0
M  V30 3334 O 309.904 -0.562344 1.74881 0
M  V30 3335 C 309.966 2.85994 2.17825 0
M  V30 3336 C 309.63 4.25923 1.65647 0
M  V30 3337 C 310.627 5.07829 1.11383 0
M  V30 3338 C 308.312 4.72377 1.7078 0
M  V30 3339 C 310.306 6.34285 0.629439 0
M  V30 3340 C 307.993 5.98808 1.21953 0
M  V30 3341 C 308.991 6.79594 0.681265 0
M  V30 3342 O 308.679 8.03651 0.200248 0
M  V30 3343 H 308.411 0.585327 0.338183 0
M  V30 3344 H 310.965 2.01186 0.413927 0
M  V30 3345 H 309.195 2.54368 2.91262 0
M  V30 3346 H 310.884 2.94515 2.79313 0
M  V30 3347 H 311.65 4.73107 1.06746 0
M  V30 3348 H 307.529 4.0956 2.11617 0
M  V30 3349 H 311.073 6.97288 0.208636 0
M  V30 3350 H 306.97 6.33026 1.26287 0
M  V30 3351 H 307.738 8.1788 0.318416 0
M  V30 3352 N 310.401 -0.613514 1.45168 0
M  V30 3353 C 311.817 -0.933629 1.29443 0
M  V30 3354 C 312.017 -2.00028 0.243101 0
M  V30 3355 O 311.073 -2.49848 -0.364992 0
M  V30 3356 C 312.386 -1.38018 2.67155 0
M  V30 3357 C 313.934 -1.49471 2.75004 0
M  V30 3358 C 314.409 -1.97503 4.13227 0
M  V30 3359 N 315.9 -2.04746 4.15491 0
M  V30 3360 C 316.635 -2.43121 5.19307 0
M  V30 3361 N 316.131 -2.80506 6.33473 0
M  V30 3362 N 317.924 -2.43408 5.06664 0
M  V30 3363 H 310.075 0.0916097 2.12202 0
M  V30 3364 H 312.338 -0.0216655 0.947752 0
M  V30 3365 H 312.044 -0.670625 3.45247 0
M  V30 3366 H 311.918 -2.34784 2.95222 0
M  V30 3367 H 314.305 -2.19519 1.9722 0
M  V30 3368 H 314.386 -0.510342 2.50657 0
M  V30 3369 H 314.03 -1.28045 4.91495 0
M  V30 3370 H 313.96 -2.96843 4.34962 0
M  V30 3371 H 316.451 -1.78468 3.33103 0
M  V30 3372 H 316.764 -3.08652 7.08487 0
M  V30 3373 H 315.109 -2.78216 6.36884 0
M  V30 3374 H 318.3 -2.13604 4.16523 0
M  V30 3375 H 318.473 -2.72989 5.87691 0
M  V30 3376 N 311.879 -1.3236 -0.855495 0
M  V30 3377 C 312.842 -1.21164 -1.94556 0
M  V30 3378 C 313.842 -0.134908 -1.60233 0
M  V30 3379 O 315.032 -0.385249 -1.69887 0
M  V30 3380 C 312.164 -0.863192 -3.29791 0
M  V30 3381 H 313.357 -2.18038 -2.05911 0
M  V30 3382 H 310.91 -1.16179 -1.04557 0
M  V30 3383 H 311.645 0.103769 -3.24134 0
M  V30 3384 H 311.43 -1.64166 -3.56078 0
M  V30 3385 H 312.92 -0.809156 -4.09686 0
M  V30 3386 N 313.357 1.07166 -1.15556 0
M  V30 3387 C 314.768 1.6127 -0.940693 0
M  V30 3388 C 315.119 1.89251 0.517551 0
M  V30 3389 O 314.244 1.65937 1.38903 0
M  V30 3390 C 314.839 2.92993 -1.7012 0
M  V30 3391 C 313.398 3.43832 -1.53156 0
M  V30 3392 C 312.545 2.1786 -1.71558 0
M  V30 3393 H 315.496 0.90229 -1.30554 0
M  V30 3394 H 315.517 3.62007 -1.17181 0
M  V30 3395 H 315.029 2.72596 -2.76248 0
M  V30 3396 H 313.13 3.69307 -0.494294 0
M  V30 3397 H 313.243 4.19747 -2.30975 0
M  V30 3398 H 311.607 2.2765 -1.14225 0
M  V30 3399 H 312.39 1.99956 -2.79056 0
M  V30 3400 N 314.835 0.952656 1.25548 0
M  V30 3401 C 315.745 0.47782 2.29682 0
M  V30 3402 C 316.761 -0.453859 1.67977 0
M  V30 3403 O 317.937 -0.330587 1.98668 0
M  V30 3404 C 315.002 -0.238655 3.45878 0
M  V30 3405 C 314.063 0.730994 4.23031 0
M  V30 3406 C 313.296 0.0486165 5.33678 0
M  V30 3407 O 313.519 -1.16612 5.58353 0
M  V30 3408 O 312.453 0.733152 5.97418 0
M  V30 3409 H 316.279 1.34312 2.72386 0
M  V30 3410 H 313.864 0.719026 1.30959 0
M  V30 3411 H 315.746 -0.641774 4.16484 0
M  V30 3412 H 314.421 -1.07916 3.05181 0
M  V30 3413 H 313.328 1.18428 3.5486 0
M  V30 3414 H 314.661 1.53946 4.67506 0
M  V30 3415 N 316.313 -1.40141 0.720998 0
M  V30 3416 C 317.562 -2.0002 0.259804 0
M  V30 3417 C 317.875 -1.57839 -1.15526 0
M  V30 3418 O 319.081 -2.10455 -1.71525 0
M  V30 3419 C 317.537 -3.57516 0.413566 0
M  V30 3420 C 317.145 -4.08667 1.83562 0
M  V30 3421 C 318.889 -4.24498 0.0134387 0
M  V30 3422 C 316.796 -5.58686 1.93968 0
M  V30 3423 H 315.726 -0.748195 0.0933806 0
M  V30 3424 H 318.377 -1.60313 0.892866 0
M  V30 3425 H 316.759 -3.9495 -0.288169 0
M  V30 3426 H 317.933 -3.82598 2.56817 0
M  V30 3427 H 316.248 -3.543 2.1877 0
M  V30 3428 H 318.845 -5.34654 0.0703954 0
M  V30 3429 H 319.188 -4.03375 -1.02927 0
M  V30 3430 H 319.721 -3.92188 0.665815 0
M  V30 3431 H 316.46 -5.8467 2.96379 0
M  V30 3432 H 315.98 -5.86602 1.25131 0
M  V30 3433 H 317.659 -6.23875 1.71431 0
M  V30 3434 N 317.792 -0.46758 -1.50504 0
M  V30 3435 C 318.725 0.374324 -2.25109 0
M  V30 3436 C 319.703 0.99921 -1.28275 0
M  V30 3437 O 320.887 1.03583 -1.57489 0
M  V30 3438 C 318.014 1.52419 -3.02467 0
M  V30 3439 C 317.06 1.01702 -4.14197 0
M  V30 3440 S 317.893 -0.0654477 -5.3546 0
M  V30 3441 C 319.049 1.08837 -6.16365 0
M  V30 3442 H 319.282 -0.258983 -2.9617 0
M  V30 3443 H 316.815 -0.252421 -1.52323 0
M  V30 3444 H 318.773 2.18322 -3.47628 0
M  V30 3445 H 317.434 2.129 -2.30938 0
M  V30 3446 H 316.627 1.87776 -4.67714 0
M  V30 3447 H 316.229 0.435757 -3.71453 0
M  V30 3448 H 318.521 2.00071 -6.47285 0
M  V30 3449 H 319.464 0.592538 -7.05616 0
M  V30 3450 H 319.872 1.34061 -5.4835 0
M  V30 3451 N 319.27 1.56325 -0.20005 0
M  V30 3452 C 320.2 2.22318 0.713916 0
M  V30 3453 C 321.181 1.18788 1.21752 0
M  V30 3454 O 322.366 1.47309 1.26545 0
M  V30 3455 C 319.496 2.88639 1.93144 0
M  V30 3456 C 318.45 3.98457 1.56255 0
M  V30 3457 C 317.776 4.51967 2.85709 0
M  V30 3458 C 319.076 5.16612 0.768747 0
M  V30 3459 H 320.77 2.98952 0.163755 0
M  V30 3460 H 318.316 1.43792 0.0773219 0
M  V30 3461 H 320.269 3.33491 2.57608 0
M  V30 3462 H 318.993 2.09419 2.50621 0
M  V30 3463 H 317.652 3.54305 0.941471 0
M  V30 3464 H 317.3 3.69503 3.41287 0
M  V30 3465 H 317 5.26071 2.6177 0
M  V30 3466 H 318.524 4.99523 3.51154 0
M  V30 3467 H 319.938 5.57977 1.3166 0
M  V30 3468 H 318.335 5.96812 0.627286 0
M  V30 3469 H 319.405 4.84358 -0.229168 0
M  V30 3470 N 320.748 -0.0735177 1.57428 0
M  V30 3471 C 321.696 -1.10628 2.04607 0
M  V30 3472 C 322.69 -1.40181 0.951088 0
M  V30 3473 O 323.896 -1.39608 1.1362 0
M  V30 3474 H 320.271 -0.374088 0.652351 0
M  V30 3475 H 322.242 -0.682218 2.90497 0
M  V30 3476 C 320.991 -2.41212 2.50423 0
M  V30 3477 H 320.314 -2.19322 3.34272 0
M  V30 3478 H 321.754 -3.11927 2.87189 0
M  V30 3479 C 320.213 -3.0705 1.38644 0
M  V30 3480 O 320.743 -3.95056 0.727582 0
M  V30 3481 N 318.949 -2.67645 1.132 0
M  V30 3482 H 318.496 -1.96169 1.66959 0
M  V30 3483 H 318.454 -3.1202 0.386147 0
M  V30 3484 N 322.226 -1.5378 -0.344866 0
M  V30 3485 C 323.451 -1.75211 -1.10977 0
M  V30 3486 C 323.876 -0.48936 -1.81623 0
M  V30 3487 O 323.234 0.557925 -1.72502 0
M  V30 3488 C 323.282 -2.93147 -2.09993 0
M  V30 3489 O 322.386 -2.63203 -3.17487 0
M  V30 3490 H 321.727 -0.581241 -0.321021 0
M  V30 3491 H 324.257 -2.00738 -0.395661 0
M  V30 3492 H 324.267 -3.19898 -2.53237 0
M  V30 3493 H 322.942 -3.84731 -1.5797 0
M  V30 3494 H 321.519 -2.47336 -2.79069 0
M  V30 3495 N 323.704 0.605807 -1.45491 0
M  V30 3496 C 324.651 1.7164 -1.54299 0
M  V30 3497 C 325.621 1.61486 -0.388761 0
M  V30 3498 O 326.806 1.81039 -0.602445 0
M  V30 3499 C 323.946 3.09953 -1.51734 0
M  V30 3500 C 323.059 3.309 -2.77721 0
M  V30 3501 C 322.194 4.59329 -2.66816 0
M  V30 3502 C 321.233 4.7354 -3.87848 0
M  V30 3503 N 320.37 5.9327 -3.75467 0
M  V30 3504 H 325.21 1.63449 -2.49176 0
M  V30 3505 H 322.747 0.796957 -1.23641 0
M  V30 3506 H 324.705 3.89977 -1.48235 0
M  V30 3507 H 323.335 3.17098 -0.604068 0
M  V30 3508 H 322.387 2.44639 -2.913 0
M  V30 3509 H 323.699 3.37274 -3.67488 0
M  V30 3510 H 322.853 5.4755 -2.61292 0
M  V30 3511 H 321.592 4.55355 -1.74651 0
M  V30 3512 H 320.597 3.83741 -3.93729 0
M  V30 3513 H 321.822 4.79309 -4.81082 0
M  V30 3514 H 319.768 5.90338 -2.86072 0
M  V30 3515 H 319.685 6.00811 -4.5887 0
M  V30 3516 H 320.953 6.83984 -3.73879 0
M  V30 3517 N 325.182 1.32811 0.848464 0
M  V30 3518 C 326.43 1.23479 1.59991 0
M  V30 3519 C 326.751 -0.201853 1.93952 0
M  V30 3520 O 326.021 -1.12818 1.60153 0
M  V30 3521 H 324.601 0.454034 0.593179 0
M  V30 3522 H 327.263 1.66412 1.01455 0
M  V30 3523 H 326.359 1.82178 2.53412 0
M  V30 3524 N 326.66 -1.06551 1.16123 0
M  V30 3525 C 327.89 -1.8274 0.963838 0
M  V30 3526 C 328.298 -1.82712 -0.491228 0
M  V30 3527 O 327.641 -1.24294 -1.35265 0
M  V30 3528 C 327.703 -3.3065 1.41106 0
M  V30 3529 C 327.367 -3.54384 2.88549 0
M  V30 3530 C 328.364 -3.4765 3.86569 0
M  V30 3531 C 326.049 -3.81789 3.26408 0
M  V30 3532 C 328.043 -3.67982 5.2045 0
M  V30 3533 C 325.73 -4.01772 4.60459 0
M  V30 3534 C 326.728 -3.94866 5.57288 0
M  V30 3535 O 326.416 -4.14306 6.88916 0
M  V30 3536 H 326.148 -0.583136 0.341948 0
M  V30 3537 H 328.702 -1.35351 1.54497 0
M  V30 3538 H 326.932 -3.78887 0.773394 0
M  V30 3539 H 328.621 -3.88324 1.1815 0
M  V30 3540 H 329.387 -3.2647 3.58667 0
M  V30 3541 H 325.266 -3.86276 2.51619 0
M  V30 3542 H 328.81 -3.62507 5.96015 0
M  V30 3543 H 324.707 -4.2244 4.88072 0
M  V30 3544 H 325.475 -4.31609 6.95454 0
M  V30 3545 N 328.138 -0.959301 -1.25041 0
M  V30 3546 C 329.366 -0.633949 -1.96948 0
M  V30 3547 C 329.781 0.794916 -1.7125 0
M  V30 3548 O 329.138 1.53231 -0.991287 0
M  V30 3549 C 329.189 -0.888805 -3.50403 0
M  V30 3550 O 328.91 -2.26149 -3.75218 0
M  V30 3551 C 330.411 -0.576482 -4.39536 0
M  V30 3552 H 327.631 -0.237263 -0.627652 0
M  V30 3553 H 330.175 -1.28495 -1.59089 0
M  V30 3554 H 328.33 -0.284145 -3.86357 0
M  V30 3555 H 328.744 -2.33514 -4.6965 0
M  V30 3556 H 330.218 -0.805314 -5.46094 0
M  V30 3557 H 330.695 0.489075 -4.36468 0
M  V30 3558 H 331.301 -1.16067 -4.09156 0
M  V30 3559 N 329.616 1.39756 -0.72842 0
M  V30 3560 C 330.563 2.30647 -0.0841519 0
M  V30 3561 C 331.533 1.48869 0.7367 0
M  V30 3562 O 332.718 1.77574 0.698015 0
M  V30 3563 C 329.858 3.35165 0.822091 0
M  V30 3564 C 328.971 4.31999 -0.0106663 0
M  V30 3565 C 328.106 5.23585 0.896241 0
M  V30 3566 C 327.145 6.12072 0.0583381 0
M  V30 3567 N 326.282 6.96035 0.920818 0
M  V30 3568 H 331.122 2.85173 -0.864891 0
M  V30 3569 H 328.659 1.40422 -0.438179 0
M  V30 3570 H 330.617 3.94345 1.36189 0
M  V30 3571 H 329.247 2.8211 1.56888 0
M  V30 3572 H 328.299 3.74492 -0.66781 0
M  V30 3573 H 329.611 4.9443 -0.658825 0
M  V30 3574 H 328.765 5.87759 1.50412 0
M  V30 3575 H 327.504 4.61459 1.57819 0
M  V30 3576 H 326.509 5.46916 -0.562389 0
M  V30 3577 H 327.734 6.76261 -0.6203 0
M  V30 3578 H 325.68 6.36485 1.58818 0
M  V30 3579 H 325.597 7.55284 0.32899 0
M  V30 3580 H 326.865 7.64646 1.51447 0
M  V30 3581 N 331.094 0.475555 1.50254 0
M  V30 3582 C 332.319 -0.0777042 2.07254 0
M  V30 3583 C 332.744 -1.3235 1.3366 0
M  V30 3584 O 332.102 -1.77152 0.385597 0
M  V30 3585 C 332.15 -0.340169 3.58992 0
M  V30 3586 O 331.254 -1.41982 3.87188 0
M  V30 3587 H 330.595 0.0149556 0.663832 0
M  V30 3588 H 333.125 0.667878 1.93392 0
M  V30 3589 H 333.135 -0.579332 4.03866 0
M  V30 3590 H 331.81 0.570167 4.11973 0
M  V30 3591 H 330.387 -1.16762 3.54148 0
M  V30 3592 N 332.573 -1.56217 0.208337 0
M  V30 3593 C 333.822 -1.97124 -0.427204 0
M  V30 3594 C 334.135 -1.09859 -1.61835 0
M  V30 3595 O 335.341 -1.40606 -2.32255 0
M  V30 3596 C 333.797 -3.50633 -0.811442 0
M  V30 3597 C 333.405 -4.46582 0.35615 0
M  V30 3598 C 335.149 -4.00282 -1.41332 0
M  V30 3599 C 333.056 -5.91379 -0.0497852 0
M  V30 3600 H 331.986 -0.736086 -0.163381 0
M  V30 3601 H 334.637 -1.8099 0.302456 0
M  V30 3602 H 333.019 -3.62319 -1.59815 0
M  V30 3603 H 334.193 -4.46636 1.1337 0
M  V30 3604 H 332.508 -4.07202 0.870396 0
M  V30 3605 H 335.105 -5.0595 -1.72972 0
M  V30 3606 H 335.448 -3.45359 -2.32449 0
M  V30 3607 H 335.981 -3.91764 -0.690323 0
M  V30 3608 H 332.72 -6.50255 0.827529 0
M  V30 3609 H 332.24 -5.94549 -0.791926 0
M  V30 3610 H 333.919 -6.45209 -0.481042 0
M  V30 3611 N 334.051 0.0651679 -1.57465 0
M  V30 3612 C 335.328 0.79644 -1.78651 0
M  V30 3613 C 335.708 1.95454 -0.797566 0
M  V30 3614 O 335.056 2.27882 0.167946 0
M  V30 3615 C 335.266 1.26322 -3.25337 0
M  V30 3616 C 336.614 1.6939 -3.89348 0
M  V30 3617 O 337.638 1.35872 -3.29268 0
M  V30 3618 O 336.497 2.31471 -4.95059 0
M  V30 3619 H 333.591 0.382157 -0.733407 0
M  V30 3620 H 336.137 0.0447311 -1.69641 0
M  V30 3621 H 334.909 0.434859 -3.88876 0
M  V30 3622 H 334.532 2.07604 -3.39096 0
M  V30 3623 N 335.529 1.53961 0.336706 0
M  V30 3624 C 336.778 1.70751 1.07363 0
M  V30 3625 C 337.091 0.481061 1.89592 0
M  V30 3626 O 338.297 0.530046 2.66276 0
M  V30 3627 C 336.753 3.01965 1.95818 0
M  V30 3628 C 336.361 4.31971 1.18764 0
M  V30 3629 C 338.105 3.28121 2.69327 0
M  V30 3630 C 336.012 5.54255 2.06289 0
M  V30 3631 H 334.942 0.636292 0.404535 0
M  V30 3632 H 337.593 1.80459 0.332681 0
M  V30 3633 H 335.975 2.86132 2.7376 0
M  V30 3634 H 337.149 4.5853 0.456849 0
M  V30 3635 H 335.464 4.12481 0.569946 0
M  V30 3636 H 338.061 4.16673 3.35094 0
M  V30 3637 H 338.404 2.45426 3.36261 0
M  V30 3638 H 338.937 3.44762 1.98454 0
M  V30 3639 H 335.676 6.39513 1.43885 0
M  V30 3640 H 335.196 5.31935 2.77138 0
M  V30 3641 H 336.875 5.90159 2.65182 0
M  V30 3642 N 337.007 -0.598083 1.45811 0
M  V30 3643 C 338.253 -1.35679 1.51535 0
M  V30 3644 C 338.608 -1.91745 0.15864 0
M  V30 3645 O 337.901 -1.72654 -0.830724 0
M  V30 3646 C 338.095 -2.51669 2.53766 0
M  V30 3647 C 337.924 -2.06963 3.99245 0
M  V30 3648 C 336.694 -1.92693 4.67116 0
M  V30 3649 C 338.892 -1.63855 4.875 0
M  V30 3650 N 336.874 -1.41897 5.97276 0
M  V30 3651 C 338.245 -1.24541 6.07363 0
M  V30 3652 C 340.3 -1.51533 4.74281 0
M  V30 3653 C 339.003 -0.741354 7.15469 0
M  V30 3654 C 341.029 -1.0253 5.82444 0
M  V30 3655 C 340.391 -0.641869 7.01469 0
M  V30 3656 H 336.49 -0.490042 0.609412 0
M  V30 3657 H 339.074 -0.682687 1.82339 0
M  V30 3658 H 337.245 -3.16663 2.24898 0
M  V30 3659 H 338.977 -3.18578 2.4958 0
M  V30 3660 H 335.732 -2.1417 4.22408 0
M  V30 3661 H 336.156 -1.18704 6.66512 0
M  V30 3662 H 340.798 -1.798 3.82664 0
M  V30 3663 H 338.516 -0.446243 8.06867 0
M  V30 3664 H 342.102 -0.934088 5.74253 0
M  V30 3665 H 340.982 -0.268531 7.8374 0
M  V30 3666 N 338.485 -1.33259 -0.841409 0
M  V30 3667 C 339.71 -1.2775 -1.63385 0
M  V30 3668 C 340.135 0.149188 -1.87507 0
M  V30 3669 O 339.493 1.10498 -1.43736 0
M  V30 3670 C 339.541 -2.05571 -2.96265 0
M  V30 3671 O 338.645 -1.41257 -3.87453 0
M  V30 3672 H 337.986 -0.439627 -0.497618 0
M  V30 3673 H 340.516 -1.75782 -1.04699 0
M  V30 3674 H 340.526 -2.16241 -3.45982 0
M  V30 3675 H 339.201 -3.09309 -2.7803 0
M  V30 3676 H 337.778 -1.39217 -3.45938 0
M  V30 3677 N 339.963 1.05934 -1.16686 0
M  V30 3678 C 341.209 1.79065 -0.95203 0
M  V30 3679 C 341.542 1.87147 0.518629 0
M  V30 3680 O 340.817 1.36574 1.38484 0
M  V30 3681 C 341.1 3.23359 -1.58464 0
M  V30 3682 C 340.953 3.23336 -3.12689 0
M  V30 3683 C 342.272 4.21004 -1.28232 0
M  V30 3684 H 339.391 0.65005 -0.34728 0
M  V30 3685 H 342.033 1.23868 -1.44072 0
M  V30 3686 H 340.183 3.70493 -1.16908 0
M  V30 3687 H 341.855 2.84336 -3.6325 0
M  V30 3688 H 340.098 2.61886 -3.4583 0
M  V30 3689 H 340.769 4.25144 -3.52075 0
M  V30 3690 H 343.245 3.8233 -1.64203 0
M  V30 3691 H 342.121 5.20225 -1.75092 0
M  V30 3692 H 342.382 4.41639 -0.201791 0
M  V30 3693 N 341.441 0.965919 1.2453 0
M  V30 3694 C 342.689 0.625593 1.92174 0
M  V30 3695 C 343.01 -0.841652 1.75901 0
M  V30 3696 O 342.28 -1.60061 1.12948 0
M  V30 3697 H 340.86 0.228388 0.71123 0
M  V30 3698 H 343.522 1.2266 1.51461 0
M  V30 3699 H 342.618 0.864653 2.99884 0
M  V30 3700 N 342.919 -1.39368 0.735821 0
M  V30 3701 C 344.159 -2.02349 0.288813 0
M  V30 3702 C 344.523 -1.57127 -1.10341 0
M  V30 3703 O 345.724 -2.12312 -1.64854 0
M  V30 3704 C 343.995 -3.55288 0.387986 0
M  V30 3705 S 345.554 -4.38795 0.0209408 0
M  V30 3706 H 342.372 -0.701944 0.113115 0
M  V30 3707 H 344.974 -1.70164 0.962518 0
M  V30 3708 H 343.678 -3.85691 1.40252 0
M  V30 3709 H 343.209 -3.92227 -0.303512 0
M  V30 3710 H 345.224 -4.81595 -1.19503 0
M  V30 3711 N 344.397 -0.483516 -1.5 0
M  V30 3712 C 345.646 0.0689102 -2.01582 0
M  V30 3713 C 345.959 1.39655 -1.36952 0
M  V30 3714 O 347.165 2.03465 -1.79762 0
M  V30 3715 C 345.621 0.173302 -3.59483 0
M  V30 3716 C 345.229 -1.14665 -4.33077 0
M  V30 3717 C 346.973 0.677024 -4.19066 0
M  V30 3718 C 344.88 -1.00537 -5.82792 0
M  V30 3719 H 343.81 0.0295277 -0.753422 0
M  V30 3720 H 346.461 -0.620295 -1.72698 0
M  V30 3721 H 344.843 0.926569 -3.85007 0
M  V30 3722 H 346.017 -1.91184 -4.19268 0
M  V30 3723 H 344.332 -1.58244 -3.85159 0
M  V30 3724 H 346.929 0.799952 -5.28682 0
M  V30 3725 H 347.272 1.67151 -3.81269 0
M  V30 3726 H 347.805 -0.0192083 -3.97795 0
M  V30 3727 H 344.544 -1.9736 -6.25083 0
M  V30 3728 H 344.064 -0.280776 -5.99142 0
M  V30 3729 H 345.743 -0.677 -6.43448 0
M  V30 3730 N 345.875 1.56104 -0.216619 0
M  V30 3731 C 346.805 2.23063 0.690296 0
M  V30 3732 C 347.786 1.20072 1.20485 0
M  V30 3733 O 348.971 1.48643 1.24976 0
M  V30 3734 C 346.101 2.90672 1.90072 0
M  V30 3735 C 345.055 4.00092 1.5202 0
M  V30 3736 C 344.381 4.54972 2.80899 0
M  V30 3737 C 345.681 5.17398 0.71391 0
M  V30 3738 H 347.375 2.99109 0.132038 0
M  V30 3739 H 344.921 1.43866 0.0620664 0
M  V30 3740 H 346.874 3.36204 2.54057 0
M  V30 3741 H 345.598 2.12066 2.48386 0
M  V30 3742 H 344.257 3.55283 0.903839 0
M  V30 3743 H 343.905 3.73102 3.37348 0
M  V30 3744 H 343.605 5.28817 2.56176 0
M  V30 3745 H 345.129 5.0322 3.45836 0
M  V30 3746 H 346.543 5.59342 1.25735 0
M  V30 3747 H 344.94 5.97444 0.563951 0
M  V30 3748 H 346.01 4.84088 -0.280527 0
M  V30 3749 N 347.353 -0.0568162 1.57498 0
M  V30 3750 C 348.316 -1.05038 2.03715 0
M  V30 3751 C 349.316 -1.30709 0.936577 0
M  V30 3752 O 350.506 -1.26178 1.20103 0
M  V30 3753 C 347.638 -2.39034 2.43055 0
M  V30 3754 H 348.831 -0.651715 2.92733 0
M  V30 3755 H 346.384 -0.302947 1.53336 0
M  V30 3756 H 347.119 -2.83703 1.57108 0
M  V30 3757 H 346.904 -2.21739 3.2338 0
M  V30 3758 H 348.394 -3.10421 2.79336 0
M  V30 3759 N 348.832 -1.54138 -0.328536 0
M  V30 3760 C 349.742 -1.86192 -1.42723 0
M  V30 3761 C 350.758 -0.753382 -1.56844 0
M  V30 3762 O 351.934 -1.04718 -1.72035 0
M  V30 3763 C 348.999 -2.07824 -2.77507 0
M  V30 3764 C 348.06 -3.31641 -2.72603 0
M  V30 3765 C 347.293 -3.52232 -4.00959 0
M  V30 3766 O 347.516 -2.7636 -4.9898 0
M  V30 3767 O 346.45 -4.45699 -4.0452 0
M  V30 3768 H 350.276 -2.79608 -1.18547 0
M  V30 3769 H 347.861 -1.3998 -0.522104 0
M  V30 3770 H 349.743 -2.23411 -3.57303 0
M  V30 3771 H 348.418 -1.17596 -3.01584 0
M  V30 3772 H 347.325 -3.21444 -1.91376 0
M  V30 3773 H 348.658 -4.2191 -2.53481 0
M  V30 3774 N 350.31 0.590341 -1.46126 0
M  V30 3775 C 351.243 1.71434 -1.50617 0
M  V30 3776 C 352.221 1.58543 -0.360948 0
M  V30 3777 O 353.405 1.79865 -0.563985 0
M  V30 3778 C 350.532 3.09422 -1.37753 0
M  V30 3779 C 349.578 3.40854 -2.5636 0
M  V30 3780 S 350.411 3.33773 -4.18755 0
M  V30 3781 C 351.567 4.74312 -4.08386 0
M  V30 3782 H 351.8 1.67364 -2.45717 0
M  V30 3783 H 349.333 0.76845 -1.33919 0
M  V30 3784 H 351.291 3.8903 -1.31018 0
M  V30 3785 H 349.952 3.10989 -0.440949 0
M  V30 3786 H 349.145 4.41368 -2.43332 0
M  V30 3787 H 348.747 2.68798 -2.60046 0
M  V30 3788 H 351.039 5.64522 -3.74595 0
M  V30 3789 H 351.982 4.92397 -5.08872 0
M  V30 3790 H 352.39 4.50803 -3.3976 0
M  V30 3791 N 351.788 1.33704 0.83433 0
M  V30 3792 C 352.718 1.26967 1.95963 0
M  V30 3793 C 353.699 0.149337 1.69443 0
M  V30 3794 O 354.884 0.339852 1.91203 0
M  V30 3795 C 352.014 1.01275 3.32206 0
M  V30 3796 C 350.968 2.09652 3.73136 0
M  V30 3797 C 350.294 1.69166 5.07235 0
M  V30 3798 C 351.594 3.51372 3.86439 0
M  V30 3799 H 353.288 2.2112 2.01857 0
M  V30 3800 H 350.834 1.06447 0.969793 0
M  V30 3801 H 352.787 0.952106 4.10503 0
M  V30 3802 H 351.511 0.0356203 3.26581 0
M  V30 3803 H 350.17 2.14766 2.97104 0
M  V30 3804 H 349.818 0.701437 4.98085 0
M  V30 3805 H 349.518 2.41694 5.35591 0
M  V30 3806 H 351.042 1.64576 5.88003 0
M  V30 3807 H 352.456 3.48734 4.55036 0
M  V30 3808 H 350.853 4.22425 4.26236 0
M  V30 3809 H 351.923 3.89546 2.88759 0
M  V30 3810 N 353.266 -1.05314 1.17247 0
M  V30 3811 C 354.491 -1.82509 0.985148 0
M  V30 3812 C 354.916 -1.82343 -0.461788 0
M  V30 3813 O 354.274 -1.23151 -1.33055 0
M  V30 3814 C 354.322 -3.26566 1.52929 0
M  V30 3815 O 353.426 -4.05666 0.742225 0
M  V30 3816 H 352.767 -0.564347 0.349869 0
M  V30 3817 H 355.297 -1.32718 1.55715 0
M  V30 3818 H 355.307 -3.77369 1.55103 0
M  V30 3819 H 353.982 -3.26001 2.58256 0
M  V30 3820 H 352.559 -3.64397 0.791794 0
M  V30 3821 N 354.744 -0.972509 -1.24016 0
M  V30 3822 C 355.692 -0.498562 -2.27194 0
M  V30 3823 C 356.686 0.440372 -1.63576 0
M  V30 3824 O 357.892 0.315133 -1.7722 0
M  V30 3825 H 354.267 -0.142775 -0.738322 0
M  V30 3826 H 356.238 -1.38065 -2.64539 0
M  V30 3827 C 354.987 0.191072 -3.47175 0
M  V30 3828 H 354.31 -0.522318 -3.96373 0
M  V30 3829 H 355.75 0.486445 -4.212 0
M  V30 3830 C 354.209 1.41967 -3.05527 0
M  V30 3831 O 354.739 2.51642 -3.13112 0
M  V30 3832 N 352.945 1.28746 -2.60524 0
M  V30 3833 H 352.492 0.395089 -2.54552 0
M  V30 3834 H 352.45 2.11061 -2.33025 0
M  V30 3835 N 356.222 1.38976 -0.743202 0
M  V30 3836 C 357.638 1.53984 -0.419664 0
M  V30 3837 C 357.838 1.70837 1.0685 0
M  V30 3838 O 356.894 1.7135 1.8546 0
M  V30 3839 C 358.207 2.75287 -1.20985 0
M  V30 3840 C 359.755 2.89129 -1.19889 0
M  V30 3841 C 360.23 4.13381 -1.97181 0
M  V30 3842 N 361.721 4.20437 -1.94389 0
M  V30 3843 C 362.456 5.15547 -2.50996 0
M  V30 3844 N 361.952 6.16395 -3.16274 0
M  V30 3845 N 363.745 5.07822 -2.40984 0
M  V30 3846 H 355.896 1.26285 -1.7078 0
M  V30 3847 H 358.159 0.612689 -0.723406 0
M  V30 3848 H 357.865 2.69204 -2.26323 0
M  V30 3849 H 357.739 3.68184 -0.819759 0
M  V30 3850 H 360.126 2.947 -0.153606 0
M  V30 3851 H 360.207 1.97272 -1.62841 0
M  V30 3852 H 359.851 4.08572 -3.01714 0
M  V30 3853 H 359.781 5.04298 -1.51629 0
M  V30 3854 H 362.272 3.48205 -1.46839 0
M  V30 3855 H 362.585 6.85443 -3.56915 0
M  V30 3856 H 360.93 6.16758 -3.20367 0
M  V30 3857 H 364.121 4.27973 -1.89622 0
M  V30 3858 H 364.294 5.81767 -2.85397 0
M  V30 3859 N 357.7 0.491464 1.49741 0
M  V30 3860 C 359.111 0.0413169 1.86654 0
M  V30 3861 C 359.462 -1.36985 1.40462 0
M  V30 3862 O 358.587 -2.01917 0.778354 0
M  V30 3863 C 359.182 0.0682023 3.38731 0
M  V30 3864 C 357.741 -0.32656 3.74981 0
M  V30 3865 C 356.888 0.444888 2.73708 0
M  V30 3866 H 359.839 0.704733 1.42194 0
M  V30 3867 H 359.86 -0.729322 3.73445 0
M  V30 3868 H 359.372 1.09539 3.72321 0
M  V30 3869 H 357.473 -1.35734 3.46997 0
M  V30 3870 H 357.586 -0.013741 4.79098 0
M  V30 3871 H 355.95 -0.104062 2.54487 0
M  V30 3872 H 356.733 1.47197 3.10142 0
M  V30 3873 N 359.178 -1.55987 0.224894 0
M  V30 3874 C 360.427 -1.97566 -0.406273 0
M  V30 3875 C 360.74 -1.11569 -1.6066 0
M  V30 3876 O 361.946 -1.43062 -2.3075 0
M  V30 3877 C 360.402 -3.51474 -0.774207 0
M  V30 3878 C 360.01 -4.46179 0.403496 0
M  V30 3879 C 361.754 -4.01758 -1.37079 0
M  V30 3880 C 359.661 -5.91399 0.0129412 0
M  V30 3881 H 358.591 -0.737777 -0.155565 0
M  V30 3882 H 361.242 -1.80659 0.321635 0
M  V30 3883 H 359.624 -3.63994 -1.55963 0
M  V30 3884 H 360.798 -4.45409 1.18101 0
M  V30 3885 H 359.113 -4.06255 0.913536 0
M  V30 3886 H 361.71 -5.07756 -1.67596 0
M  V30 3887 H 362.053 -3.47805 -2.28773 0
M  V30 3888 H 362.586 -3.92475 -0.648733 0
M  V30 3889 H 359.325 -6.49341 0.896451 0
M  V30 3890 H 358.845 -5.95356 -0.728821 0
M  V30 3891 H 360.524 -6.45683 -0.412582 0
M  V30 3892 N 360.656 0.0484629 -1.57525 0
M  V30 3893 C 361.903 0.743125 -1.88372 0
M  V30 3894 C 362.231 1.76383 -0.819715 0
M  V30 3895 O 361.486 1.94855 0.181659 0
M  V30 3896 C 361.785 1.46632 -3.25935 0
M  V30 3897 C 361.451 0.583427 -4.4711 0
M  V30 3898 C 360.113 0.340191 -4.79996 0
M  V30 3899 C 362.465 -0.0273345 -5.21193 0
M  V30 3900 C 359.793 -0.522903 -5.84365 0
M  V30 3901 C 362.145 -0.878017 -6.26477 0
M  V30 3902 C 360.809 -1.1309 -6.5785 0
M  V30 3903 H 360.079 0.271929 -0.689301 0
M  V30 3904 H 362.726 0.00336166 -1.915 0
M  V30 3905 H 361.031 2.2789 -3.18706 0
M  V30 3906 H 362.728 2.00902 -3.47044 0
M  V30 3907 H 359.318 0.783151 -4.21384 0
M  V30 3908 H 363.502 0.147654 -4.9608 0
M  V30 3909 H 358.758 -0.727335 -6.07058 0
M  V30 3910 H 362.932 -1.35789 -6.83033 0
M  V30 3911 H 360.559 -1.80144 -7.38547 0
M  V30 3912 N 362.134 1.5431 0.320358 0
M  V30 3913 C 363.545 1.63872 0.894594 0
M  V30 3914 C 363.896 0.534847 1.88769 0
M  V30 3915 O 363.021 -0.331732 2.13842 0
M  V30 3916 C 363.616 2.97049 1.62934 0
M  V30 3917 C 362.175 3.08796 2.15226 0
M  V30 3918 C 361.322 2.59456 0.978671 0
M  V30 3919 H 364.273 1.58398 0.0978544 0
M  V30 3920 H 364.294 2.87388 2.49376 0
M  V30 3921 H 363.806 3.7737 0.906302 0
M  V30 3922 H 361.907 2.33156 2.90636 0
M  V30 3923 H 362.02 4.14649 2.40006 0
M  V30 3924 H 360.384 2.1543 1.35875 0
M  V30 3925 H 361.167 3.42237 0.269895 0
M  V30 3926 N 363.613 -0.582584 1.46437 0
M  V30 3927 C 364.861 -1.33814 1.51453 0
M  V30 3928 C 365.182 -1.94277 0.167792 0
M  V30 3929 O 364.452 -1.78566 -0.805677 0
M  V30 3930 H 363.032 -0.496838 0.557818 0
M  V30 3931 H 365.694 -0.682281 1.82568 0
M  V30 3932 H 364.79 -2.14479 2.26728 0
M  V30 3933 N 365.091 -1.34144 -0.827227 0
M  V30 3934 C 366.038 -1.25364 -1.93785 0
M  V30 3935 C 367.008 -0.129774 -1.65592 0
M  V30 3936 O 368.193 -0.310024 -1.88264 0
M  V30 3937 C 365.333 -1.01064 -3.2997 0
M  V30 3938 C 364.446 -2.22185 -3.70484 0
M  V30 3939 C 363.581 -1.91203 -4.95595 0
M  V30 3940 C 362.62 -3.08491 -5.28677 0
M  V30 3941 N 361.757 -2.77421 -6.44967 0
M  V30 3942 H 366.597 -2.20347 -2.00627 0
M  V30 3943 H 364.134 -1.09558 -0.981608 0
M  V30 3944 H 366.092 -0.850139 -4.08446 0
M  V30 3945 H 364.722 -0.0975026 -3.22653 0
M  V30 3946 H 363.774 -2.4917 -2.87434 0
M  V30 3947 H 365.086 -3.0983 -3.90905 0
M  V30 3948 H 364.24 -1.71864 -5.81848 0
M  V30 3949 H 362.979 -1.00812 -4.77167 0
M  V30 3950 H 361.984 -3.28431 -4.40923 0
M  V30 3951 H 363.209 -3.99655 -5.49047 0
M  V30 3952 H 361.155 -1.89601 -6.28003 0
M  V30 3953 H 361.072 -3.58598 -6.6554 0
M  V30 3954 H 362.34 -2.61577 -7.34301 0
M  V30 3955 N 366.569 1.04691 -1.17803 0
M  V30 3956 C 367.519 2.10856 -0.867391 0
M  V30 3957 C 368.503 1.601 0.160206 0
M  V30 3958 O 369.695 1.76948 -0.042947 0
M  V30 3959 C 366.824 3.411 -0.388012 0
M  V30 3960 C 365.91 3.9864 -1.44732 0
M  V30 3961 N 366.301 4.30075 -2.66212 0
M  V30 3962 C 364.599 4.26439 -1.30637 0
M  V30 3963 C 365.3 4.76033 -3.34317 0
M  V30 3964 N 364.276 4.76462 -2.61696 0
M  V30 3965 H 368.078 2.33029 -1.79094 0
M  V30 3966 H 365.592 1.22386 -1.0675 0
M  V30 3967 H 367.589 4.16641 -0.146994 0
M  V30 3968 H 366.249 3.20357 0.529271 0
M  V30 3969 H 367.26 4.19917 -3.03134 0
M  V30 3970 H 363.937 4.15056 -0.451129 0
M  V30 3971 H 365.327 5.09427 -4.38103 0
M  V30 3972 N 368.047 0.979072 1.23499 0
M  V30 3973 C 369.277 0.664237 1.95631 0
M  V30 3974 C 369.685 -0.772653 1.72704 0
M  V30 3975 O 369.028 -1.53141 1.01457 0
M  V30 3976 C 369.09 0.873115 3.48736 0
M  V30 3977 C 368.754 2.29182 3.95379 0
M  V30 3978 C 369.751 3.2704 4.04155 0
M  V30 3979 C 367.436 2.62256 4.28401 0
M  V30 3980 C 369.43 4.56052 4.45304 0
M  V30 3981 C 367.117 3.91491 4.69231 0
M  V30 3982 C 368.115 4.88201 4.77649 0
M  V30 3983 O 367.803 6.15129 5.17563 0
M  V30 3984 H 367.535 0.245915 0.629684 0
M  V30 3985 H 370.089 1.3127 1.57979 0
M  V30 3986 H 368.319 0.167476 3.86337 0
M  V30 3987 H 370.008 0.555642 4.02079 0
M  V30 3988 H 370.774 3.02819 3.78848 0
M  V30 3989 H 366.653 1.87692 4.21061 0
M  V30 3990 H 370.197 5.31538 4.51789 0
M  V30 3991 H 366.094 4.15508 4.93987 0
M  V30 3992 H 366.862 6.18862 5.35679 0
M  V30 3993 N 369.525 -1.3858 0.750561 0
M  V30 3994 C 370.455 -2.33102 0.136237 0
M  V30 3995 C 371.436 -1.54713 -0.706965 0
M  V30 3996 O 372.621 -1.83043 -0.648769 0
M  V30 3997 C 369.751 -3.38882 -0.760017 0
M  V30 3998 C 368.705 -4.27995 -0.0197785 0
M  V30 3999 C 368.031 -5.24605 -1.03408 0
M  V30 4000 C 369.331 -5.09554 1.14684 0
M  V30 4001 H 371.025 -2.84726 0.925822 0
M  V30 4002 H 368.571 -1.36898 0.446654 0
M  V30 4003 H 370.524 -4.0397 -1.19943 0
M  V30 4004 H 369.248 -2.85734 -1.58189 0
M  V30 4005 H 367.907 -3.64409 0.400184 0
M  V30 4006 H 367.555 -4.67746 -1.84994 0
M  V30 4007 H 367.255 -5.85081 -0.543464 0
M  V30 4008 H 368.779 -5.9257 -1.47288 0
M  V30 4009 H 370.193 -5.67899 0.785118 0
M  V30 4010 H 368.59 -5.7925 1.56812 0
M  V30 4011 H 369.66 -4.4347 1.96118 0
M  V30 4012 N 371.003 -0.499398 -1.49478 0
M  V30 4013 C 372.28 0.108629 -1.95298 0
M  V30 4014 C 372.66 1.54282 -1.44084 0
M  V30 4015 O 372.008 2.18944 -0.653908 0
M  V30 4016 C 372.218 0.0229111 -3.48992 0
M  V30 4017 C 373.566 0.197643 -4.2414 0
M  V30 4018 O 374.59 0.0981735 -3.56065 0
M  V30 4019 O 373.449 0.401669 -5.45022 0
M  V30 4020 H 370.543 0.096181 -0.821388 0
M  V30 4021 H 373.089 -0.561822 -1.6013 0
M  V30 4022 H 371.861 -0.977321 -3.78899 0
M  V30 4023 H 371.484 0.733579 -3.90774 0
M  V30 4024 N 372.481 1.55866 -0.233164 0
M  V30 4025 C 373.413 2.18099 0.704668 0
M  V30 4026 C 374.426 1.15334 1.14899 0
M  V30 4027 O 375.615 1.42262 1.07814 0
M  V30 4028 C 372.715 2.7592 1.96777 0
M  V30 4029 C 371.888 4.03969 1.67713 0
M  V30 4030 C 370.947 4.46242 2.78845 0
M  V30 4031 O 369.973 5.12903 2.46818 0
M  V30 4032 N 371.175 4.12886 4.08051 0
M  V30 4033 H 373.94 2.99205 0.172258 0
M  V30 4034 H 371.501 1.61815 -0.0525945 0
M  V30 4035 H 373.493 3.01165 2.70337 0
M  V30 4036 H 372.063 1.99051 2.41034 0
M  V30 4037 H 371.283 3.86459 0.777391 0
M  V30 4038 H 372.571 4.8748 1.4574 0
M  V30 4039 H 371.969 3.59342 4.3691 0
M  V30 4040 H 370.526 4.42997 4.78118 0
M  V30 4041 N 373.959 -0.0401083 1.57549 0
M  V30 4042 C 374.889 -1.04384 2.08869 0
M  V30 4043 C 375.87 -1.38407 0.988817 0
M  V30 4044 O 377.055 -1.47483 1.26342 0
M  V30 4045 C 374.185 -2.34808 2.55895 0
M  V30 4046 C 373.139 -2.15057 3.70047 0
M  V30 4047 C 372.465 -3.51145 4.03239 0
M  V30 4048 C 373.765 -1.54576 4.98902 0
M  V30 4049 H 375.459 -0.616666 2.92981 0
M  V30 4050 H 373.005 -0.295184 1.40942 0
M  V30 4051 H 374.958 -3.05346 2.90417 0
M  V30 4052 H 373.682 -2.79565 1.68853 0
M  V30 4053 H 372.341 -1.46954 3.35857 0
M  V30 4054 H 371.989 -3.93529 3.13279 0
M  V30 4055 H 371.689 -3.38758 4.80122 0
M  V30 4056 H 373.213 -4.23062 4.40285 0
M  V30 4057 H 374.627 -2.15017 5.31451 0
M  V30 4058 H 373.024 -1.52796 5.80322 0
M  V30 4059 H 374.094 -0.51039 4.82206 0
M  V30 4060 N 375.437 -1.54477 -0.31217 0
M  V30 4061 C 376.385 -1.85395 -1.40469 0
M  V30 4062 C 377.379 -0.726749 -1.53019 0
M  V30 4063 O 378.585 -0.910582 -1.55269 0
M  V30 4064 H 374.96 -0.587845 -0.46898 0
M  V30 4065 H 376.931 -2.76736 -1.11623 0
M  V30 4066 C 375.68 -2.10811 -2.76503 0
M  V30 4067 H 375.003 -2.97014 -2.67625 0
M  V30 4068 H 376.443 -2.3639 -3.51988 0
M  V30 4069 C 374.902 -0.903165 -3.24568 0
M  V30 4070 O 375.432 -0.118085 -4.01526 0
M  V30 4071 N 373.638 -0.711634 -2.81752 0
M  V30 4072 H 373.185 -1.35171 -2.19286 0
M  V30 4073 H 373.143 0.0930473 -3.14262 0
M  V30 4074 N 376.915 0.57481 -1.46744 0
M  V30 4075 C 377.865 1.67838 -1.54319 0
M  V30 4076 C 378.849 1.55759 -0.40346 0
M  V30 4077 O 380.041 1.6454 -0.652347 0
M  V30 4078 C 377.17 3.06624 -1.5439 0
M  V30 4079 C 376.256 3.23971 -2.73685 0
M  V30 4080 N 376.647 3.11447 -3.9854 0
M  V30 4081 C 374.945 3.5493 -2.70075 0
M  V30 4082 C 375.646 3.31011 -4.78337 0
M  V30 4083 N 374.622 3.56533 -4.10348 0
M  V30 4084 H 378.424 1.56698 -2.48642 0
M  V30 4085 H 375.938 0.779071 -1.42493 0
M  V30 4086 H 377.935 3.85839 -1.57905 0
M  V30 4087 H 376.595 3.1889 -0.611493 0
M  V30 4088 H 377.606 2.89145 -4.29669 0
M  V30 4089 H 374.283 3.73832 -1.85893 0
M  V30 4090 H 375.673 3.26445 -5.87268 0
M  V30 4091 N 378.394 1.34581 0.820102 0
M  V30 4092 C 379.643 1.26437 1.57151 0
M  V30 4093 C 379.956 -0.163111 1.94919 0
M  V30 4094 O 381.162 -0.366722 2.69012 0
M  V30 4095 C 379.618 2.21658 2.83541 0
M  V30 4096 C 379.226 3.69679 2.53065 0
M  V30 4097 C 380.97 2.22428 3.61561 0
M  V30 4098 C 378.877 4.56761 3.75664 0
M  V30 4099 H 377.807 0.469707 0.589823 0
M  V30 4100 H 380.458 1.59763 0.902656 0
M  V30 4101 H 378.84 1.81287 3.52067 0
M  V30 4102 H 380.014 4.18605 1.92631 0
M  V30 4103 H 378.329 3.71384 1.88316 0
M  V30 4104 H 380.926 2.8471 4.52597 0
M  V30 4105 H 381.269 1.22434 3.97889 0
M  V30 4106 H 381.802 2.61259 2.99981 0
M  V30 4107 H 378.541 5.57702 3.44454 0
M  V30 4108 H 378.061 4.12568 4.35371 0
M  V30 4109 H 379.74 4.71509 4.43044 0
M  V30 4110 N 379.872 -1.04064 1.18357 0
M  V30 4111 C 380.802 -2.14001 0.934113 0
M  V30 4112 C 381.783 -1.69616 -0.128186 0
M  V30 4113 O 382.968 -1.94185 0.0244093 0
M  V30 4114 C 380.098 -3.44253 0.459066 0
M  V30 4115 C 379.052 -4.02261 1.46185 0
M  V30 4116 C 378.378 -5.27992 0.844322 0
M  V30 4117 C 379.678 -4.38432 2.83856 0
M  V30 4118 H 381.372 -2.35127 1.85352 0
M  V30 4119 H 378.918 -1.12998 0.892604 0
M  V30 4120 H 380.871 -4.20522 0.271907 0
M  V30 4121 H 379.595 -3.22813 -0.495912 0
M  V30 4122 H 378.254 -3.28074 1.63595 0
M  V30 4123 H 377.902 -5.02862 -0.117845 0
M  V30 4124 H 377.602 -5.67765 1.51384 0
M  V30 4125 H 379.126 -6.06938 0.667693 0
M  V30 4126 H 380.54 -5.05688 2.70098 0
M  V30 4127 H 378.937 -4.89254 3.47491 0
M  V30 4128 H 380.007 -3.4826 3.37406 0
M  V30 4129 N 381.35 -0.985608 -1.22978 0
M  V30 4130 C 382.598 -0.656087 -1.91154 0
M  V30 4131 C 382.919 0.813561 -1.77218 0
M  V30 4132 O 382.189 1.58244 -1.1548 0
M  V30 4133 H 380.769 -0.239674 -0.707506 0
M  V30 4134 H 383.431 -1.25054 -1.49491 0
M  V30 4135 H 382.527 -0.912253 -2.9847 0
M  V30 4136 N 382.828 1.3818 -0.7579 0
M  V30 4137 C 384.077 1.99261 -0.312744 0
M  V30 4138 C 384.39 1.60846 1.11301 0
M  V30 4139 O 385.596 2.14929 1.65885 0
M  V30 4140 C 384.052 3.56294 -0.50821 0
M  V30 4141 C 383.66 4.03657 -1.94333 0
M  V30 4142 C 385.404 4.24313 -0.125982 0
M  V30 4143 C 383.311 5.53347 -2.08712 0
M  V30 4144 H 382.241 0.745456 -0.113185 0
M  V30 4145 H 384.892 1.57889 -0.935056 0
M  V30 4146 H 383.274 3.95575 0.183353 0
M  V30 4147 H 384.448 3.75655 -2.66871 0
M  V30 4148 H 382.763 3.48376 -2.28086 0
M  V30 4149 H 385.36 5.34279 -0.212125 0
M  V30 4150 H 385.703 4.05962 0.921964 0
M  V30 4151 H 386.236 3.90285 -0.769563 0
M  V30 4152 H 382.975 5.76607 -3.11777 0
M  V30 4153 H 382.495 5.83078 -1.4064 0
M  V30 4154 H 384.174 6.19111 -1.87912 0
M  V30 4155 N 384.306 0.507319 1.49211 0
M  V30 4156 C 385.236 -0.256939 2.32082 0
M  V30 4157 C 386.217 -0.956609 1.40652 0
M  V30 4158 O 387.402 -0.946788 1.69557 0
M  V30 4159 C 384.532 -1.31802 3.21318 0
M  V30 4160 C 383.486 -0.737855 4.21592 0
M  V30 4161 C 382.812 -1.89992 4.99807 0
M  V30 4162 C 384.112 0.275325 5.21574 0
M  V30 4163 H 385.806 0.434798 2.96226 0
M  V30 4164 H 383.352 0.210546 1.42452 0
M  V30 4165 H 385.305 -1.86045 3.78107 0
M  V30 4166 H 384.029 -2.03903 2.5513 0
M  V30 4167 H 382.688 -0.217126 3.65956 0
M  V30 4168 H 382.336 -2.60877 4.30061 0
M  V30 4169 H 382.036 -1.51777 5.6766 0
M  V30 4170 H 383.56 -2.44657 5.59442 0
M  V30 4171 H 384.974 -0.179193 5.7302 0
M  V30 4172 H 383.371 0.573649 5.97352 0
M  V30 4173 H 384.441 1.18903 4.70096 0
M  V30 4174 N 385.784 -1.5574 0.241426 0
M  V30 4175 C 387.032 -1.98417 -0.384075 0
M  V30 4176 C 387.353 -1.13078 -1.58866 0
M  V30 4177 O 386.623 -0.212312 -1.94746 0
M  V30 4178 H 385.203 -0.732813 -0.144894 0
M  V30 4179 H 387.865 -1.9193 0.338943 0
M  V30 4180 H 386.961 -3.04219 -0.696939 0
M  V30 4181 N 387.262 0.0317525 -1.57568 0
M  V30 4182 C 388.487 0.738664 -1.938 0
M  V30 4183 C 388.912 1.68242 -0.841208 0
M  V30 4184 O 388.27 1.80157 0.203267 0
M  V30 4185 C 388.318 1.47417 -3.29091 0
M  V30 4186 O 387.422 2.5872 -3.2115 0
M  V30 4187 H 386.763 0.198856 -0.633524 0
M  V30 4188 H 389.293 -0.0119713 -2.04596 0
M  V30 4189 H 389.303 1.84468 -3.63917 0
M  V30 4190 H 387.978 0.781988 -4.08482 0
M  V30 4191 H 386.555 2.24231 -2.97951 0
M  V30 4192 N 388.74 1.54641 0.303973 0
M  V30 4193 C 390.151 1.64811 0.877163 0
M  V30 4194 C 390.502 0.554838 1.88191 0
M  V30 4195 O 389.627 -0.309033 2.14182 0
M  V30 4196 C 390.222 2.9876 1.59775 0
M  V30 4197 C 388.781 3.11061 2.11938 0
M  V30 4198 C 387.928 2.60479 0.951097 0
M  V30 4199 H 390.879 1.58493 0.0810486 0
M  V30 4200 H 390.9 2.90017 2.46314 0
M  V30 4201 H 390.412 3.7831 0.866226 0
M  V30 4202 H 388.513 2.36225 2.88146 0
M  V30 4203 H 388.626 4.17171 2.35595 0
M  V30 4204 H 386.99 2.16859 1.33583 0
M  V30 4205 H 387.773 3.42504 0.233581 0
M  V30 4206 N 390.218 -0.567019 1.47046 0
M  V30 4207 C 391.443 -1.3551 1.57009 0
M  V30 4208 C 391.868 -1.86841 0.217259 0
M  V30 4209 O 391.226 -1.62435 -0.805268 0
M  V30 4210 C 391.274 -2.50777 2.5912 0
M  V30 4211 O 390.378 -3.52706 2.13711 0
M  V30 4212 H 389.719 -0.402919 0.52778 0
M  V30 4213 H 392.249 -0.686241 1.92748 0
M  V30 4214 H 392.259 -2.97481 2.79229 0
M  V30 4215 H 390.934 -2.12771 3.57353 0
M  V30 4216 H 389.511 -3.12374 2.03659 0
M  V30 4217 N 391.696 -1.35014 -0.812953 0
M  V30 4218 C 392.628 -1.23262 -1.93233 0
M  V30 4219 C 393.641 -0.157371 -1.62038 0
M  V30 4220 O 394.83 -0.410096 -1.73725 0
M  V30 4221 C 391.93 -0.87392 -3.27438 0
M  V30 4222 C 391.103 -2.04622 -3.86586 0
M  V30 4223 C 390.162 -1.66432 -4.99186 0
M  V30 4224 O 389.188 -2.38222 -5.16951 0
M  V30 4225 N 390.39 -0.584248 -5.77552 0
M  V30 4226 H 393.155 -2.19699 -2.03844 0
M  V30 4227 H 390.716 -1.281 -0.99005 0
M  V30 4228 H 392.708 -0.600039 -4.00227 0
M  V30 4229 H 391.278 0.00057392 -3.126 0
M  V30 4230 H 390.498 -2.48427 -3.06068 0
M  V30 4231 H 391.786 -2.82999 -4.22835 0
M  V30 4232 H 391.184 0.0123526 -5.65699 0
M  V30 4233 H 389.741 -0.37013 -6.50748 0
M  V30 4234 N 393.175 1.03435 -1.18907 0
M  V30 4235 C 394.085 2.15075 -0.937015 0
M  V30 4236 C 395.101 1.73706 0.101085 0
M  V30 4237 O 396.277 2.01232 -0.0822948 0
M  V30 4238 C 393.342 3.43458 -0.473057 0
M  V30 4239 C 392.403 3.99172 -1.57989 0
M  V30 4240 C 391.636 5.21427 -1.13797 0
M  V30 4241 O 391.859 5.704 0.000725941 0
M  V30 4242 O 390.793 5.69837 -1.9383 0
M  V30 4243 H 394.619 2.39198 -1.87131 0
M  V30 4244 H 392.204 1.13506 -0.971427 0
M  V30 4245 H 394.086 4.20811 -0.222702 0
M  V30 4246 H 392.761 3.20793 0.432869 0
M  V30 4247 H 391.668 3.23178 -1.88433 0
M  V30 4248 H 393.001 4.2619 -2.46217 0
M  V30 4249 N 394.653 0.992116 1.22453 0
M  V30 4250 C 395.93 0.583508 1.86694 0
M  V30 4251 C 396.31 -0.9392 1.89056 0
M  V30 4252 O 395.658 -1.82081 1.38053 0
M  V30 4253 C 395.868 1.20304 3.2761 0
M  V30 4254 C 397.216 1.30308 4.0411 0
M  V30 4255 O 398.24 1.15737 3.36873 0
M  V30 4256 O 397.099 1.53615 5.24466 0
M  V30 4257 H 394.193 0.198129 0.802916 0
M  V30 4258 H 396.739 1.08794 1.30238 0
M  V30 4259 H 395.511 2.24461 3.2052 0
M  V30 4260 H 395.134 0.684144 3.9167 0
M  V30 4261 N 396.131 -1.37776 0.765217 0
M  V30 4262 C 397.061 -2.32945 0.160953 0
M  V30 4263 C 398.042 -1.55454 -0.690516 0
M  V30 4264 O 399.227 -1.83721 -0.629318 0
M  V30 4265 C 396.357 -3.39669 -0.724031 0
M  V30 4266 C 395.311 -4.27992 0.0256173 0
M  V30 4267 C 394.637 -5.25673 -0.978383 0
M  V30 4268 C 395.937 -5.08309 1.20082 0
M  V30 4269 H 397.631 -2.83728 0.955969 0
M  V30 4270 H 395.177 -1.36416 0.461149 0
M  V30 4271 H 397.13 -4.05219 -1.15652 0
M  V30 4272 H 395.854 -2.87396 -1.5515 0
M  V30 4273 H 394.513 -3.63964 0.438812 0
M  V30 4274 H 394.161 -4.69682 -1.80022 0
M  V30 4275 H 393.861 -5.85625 -0.481378 0
M  V30 4276 H 395.385 -5.94098 -1.40995 0
M  V30 4277 H 396.799 -5.67034 0.845307 0
M  V30 4278 H 395.196 -5.77554 1.62947 0
M  V30 4279 H 396.266 -4.41365 2.00811 0
M  V30 4280 N 397.609 -0.515225 -1.4894 0
M  V30 4281 C 398.557 0.269115 -2.31038 0
M  V30 4282 C 399.551 0.949443 -1.40292 0
M  V30 4283 O 400.757 0.87551 -1.57273 0
M  V30 4284 H 397.132 0.10565 -0.744542 0
M  V30 4285 H 399.103 -0.443096 -2.95092 0
M  V30 4286 C 397.852 1.31213 -3.21991 0
M  V30 4287 H 397.175 0.798034 -3.91754 0
M  V30 4288 H 398.615 1.83263 -3.82349 0
M  V30 4289 C 397.074 2.33791 -2.42576 0
M  V30 4290 O 397.604 3.3995 -2.14003 0
M  V30 4291 N 395.81 2.06625 -2.0434 0
M  V30 4292 H 395.357 1.20314 -2.27777 0
M  V30 4293 H 395.315 2.75483 -1.51514 0
M  V30 4294 N 399.087 1.5561 -0.249682 0
M  V30 4295 C 400.327 2.00916 0.37579 0
M  V30 4296 C 400.691 1.13409 1.54927 0
M  V30 4297 O 401.892 1.48183 2.24266 0
M  V30 4298 C 400.163 3.48949 0.772633 0
M  V30 4299 S 401.722 4.16261 1.38824 0
M  V30 4300 H 398.54 0.70112 0.118117 0
M  V30 4301 H 401.142 1.92052 -0.365567 0
M  V30 4302 H 399.846 4.103 -0.090683 0
M  V30 4303 H 399.377 3.61745 1.5461 0
M  V30 4304 H 401.392 4.17778 2.67724 0
M  V30 4305 N 400.565 -0.0233959 1.57583 0
M  V30 4306 C 401.814 -0.712133 1.8871 0
M  V30 4307 C 402.127 -1.76217 0.848944 0
M  V30 4308 O 403.333 -2.50389 1.04964 0
M  V30 4309 C 401.789 -1.3177 3.3491 0
M  V30 4310 C 401.397 -0.303715 4.46969 0
M  V30 4311 C 403.141 -1.98598 3.75179 0
M  V30 4312 C 401.048 -0.917945 5.84233 0
M  V30 4313 H 399.978 -0.269735 0.704101 0
M  V30 4314 H 402.629 0.0333114 1.8347 0
M  V30 4315 H 401.011 -2.11304 3.34913 0
M  V30 4316 H 402.185 0.465325 4.58445 0
M  V30 4317 H 400.5 0.2628 4.1557 0
M  V30 4318 H 403.097 -2.45416 4.75053 0
M  V30 4319 H 403.44 -2.80659 3.07468 0
M  V30 4320 H 403.973 -1.25831 3.77374 0
M  V30 4321 H 400.712 -0.136633 6.55358 0
M  V30 4322 H 400.232 -1.65669 5.76467 0
M  V30 4323 H 401.911 -1.4236 6.31144 0
M  V30 4324 N 402.043 -1.548 -0.295768 0
M  V30 4325 C 403.292 -1.73538 -1.02798 0
M  V30 4326 C 403.605 -0.531159 -1.8825 0
M  V30 4327 O 404.811 -0.600458 -2.64777 0
M  V30 4328 C 403.267 -3.07051 -1.87744 0
M  V30 4329 C 402.875 -4.34968 -1.07269 0
M  V30 4330 C 404.619 -3.35146 -2.60533 0
M  V30 4331 C 402.526 -5.5953 -1.91521 0
M  V30 4332 H 401.456 -0.646794 -0.387522 0
M  V30 4333 H 404.107 -1.81278 -0.284718 0
M  V30 4334 H 402.489 -2.93289 -2.66078 0
M  V30 4335 H 403.663 -4.5958 -0.335117 0
M  V30 4336 H 401.978 -4.13847 -0.460384 0
M  V30 4337 H 404.575 -4.2541 -3.23929 0
M  V30 4338 H 404.918 -2.54255 -3.29636 0
M  V30 4339 H 405.451 -3.49902 -1.89244 0
M  V30 4340 H 402.19 -6.43103 -1.26878 0
M  V30 4341 H 401.71 -5.39096 -2.62937 0
M  V30 4342 H 403.389 -5.96982 -2.49442 0
M  V30 4343 N 403.521 0.559213 -1.47345 0
M  V30 4344 C 404.469 1.68747 -1.60085 0
M  V30 4345 C 405.463 1.628 -0.46825 0
M  V30 4346 O 406.669 1.68009 -0.645977 0
M  V30 4347 H 403.044 0.558329 -0.503759 0
M  V30 4348 H 405.015 1.55138 -2.54902 0
M  V30 4349 C 403.764 3.07103 -1.63042 0
M  V30 4350 H 403.087 3.12361 -2.49541 0
M  V30 4351 H 404.527 3.85743 -1.76006 0
M  V30 4352 C 402.986 3.34935 -0.363357 0
M  V30 4353 O 403.516 3.98102 0.536416 0
M  V30 4354 N 401.722 2.89574 -0.244 0
M  V30 4355 H 401.269 2.38348 -0.977133 0
M  V30 4356 H 401.227 3.08566 0.602836 0
M  V30 4357 N 404.999 1.35443 0.805782 0
M  V30 4358 C 405.932 1.22783 1.92353 0
M  V30 4359 C 406.91 0.115543 1.62189 0
M  V30 4360 O 408.094 0.283778 1.86352 0
M  V30 4361 C 405.221 0.890746 3.26777 0
M  V30 4362 C 404.267 2.01519 3.75889 0
M  V30 4363 S 405.1 3.63101 3.93596 0
M  V30 4364 C 406.256 3.31472 5.30921 0
M  V30 4365 H 406.489 2.17394 2.02798 0
M  V30 4366 H 404.022 1.20669 0.963245 0
M  V30 4367 H 405.98 0.703068 4.04434 0
M  V30 4368 H 404.641 -0.0373152 3.14078 0
M  V30 4369 H 403.834 1.7335 4.7325 0
M  V30 4370 H 403.436 2.16124 3.05231 0
M  V30 4371 H 405.728 2.8435 6.1494 0
M  V30 4372 H 406.671 4.28036 5.64084 0
M  V30 4373 H 407.079 2.67221 4.97246 0
M  V30 4374 N 406.477 -1.02803 1.19454 0
M  V30 4375 C 407.424 -2.11099 0.933046 0
M  V30 4376 C 408.394 -1.65571 -0.132447 0
M  V30 4377 O 409.579 -1.90797 0.00987576 0
M  V30 4378 C 406.719 -3.41763 0.478747 0
M  V30 4379 C 405.832 -4.00833 1.6111 0
M  V30 4380 C 404.967 -5.19511 1.10825 0
M  V30 4381 C 404.006 -5.70639 2.21445 0
M  V30 4382 N 403.143 -6.80589 1.72461 0
M  V30 4383 H 407.983 -2.32804 1.86028 0
M  V30 4384 H 405.52 -1.14179 0.927441 0
M  V30 4385 H 407.478 -4.16736 0.196745 0
M  V30 4386 H 406.108 -3.20166 -0.411493 0
M  V30 4387 H 405.16 -3.23066 2.00829 0
M  V30 4388 H 406.472 -4.34794 2.4445 0
M  V30 4389 H 405.626 -6.01645 0.781533 0
M  V30 4390 H 404.365 -4.87086 0.244606 0
M  V30 4391 H 403.37 -4.87116 2.54947 0
M  V30 4392 H 404.595 -6.05102 3.08267 0
M  V30 4393 H 402.541 -6.50016 0.884056 0
M  V30 4394 H 402.458 -7.13681 2.49389 0
M  V30 4395 H 403.726 -7.66317 1.42755 0
M  V30 4396 N 407.956 -0.998596 -1.21925 0
M  V30 4397 C 408.919 -0.558679 -2.22287 0
M  V30 4398 C 409.919 0.361525 -1.56683 0
M  V30 4399 O 411.109 0.152695 -1.73529 0
M  V30 4400 C 408.241 0.18661 -3.40389 0
M  V30 4401 H 409.434 -1.4463 -2.62721 0
M  V30 4402 H 406.987 -0.786413 -1.35075 0
M  V30 4403 H 407.722 1.08996 -3.05435 0
M  V30 4404 H 407.507 -0.474188 -3.89222 0
M  V30 4405 H 408.997 0.482367 -4.14805 0
M  V30 4406 N 409.434 1.37368 -0.772513 0
M  V30 4407 C 410.85 1.53059 -0.452231 0
M  V30 4408 C 411.05 1.73065 1.03203 0
M  V30 4409 O 410.106 1.75245 1.81784 0
M  V30 4410 C 411.419 2.72659 -1.26797 0
M  V30 4411 C 412.967 2.86521 -1.25995 0
M  V30 4412 C 413.442 4.09105 -2.05905 0
M  V30 4413 N 414.933 4.16219 -2.03263 0
M  V30 4414 C 415.668 5.10107 -2.61875 0
M  V30 4415 N 415.164 6.09547 -3.29278 0
M  V30 4416 N 416.957 5.02596 -2.51701 0
M  V30 4417 H 409.108 1.22634 -1.7342 0
M  V30 4418 H 411.371 0.597206 -0.736239 0
M  V30 4419 H 411.077 2.64343 -2.31982 0
M  V30 4420 H 410.951 3.66363 -0.897672 0
M  V30 4421 H 413.338 2.94308 -0.216081 0
M  V30 4422 H 413.419 1.93774 -1.66989 0
M  V30 4423 H 413.063 4.0208 -3.10313 0
M  V30 4424 H 412.993 5.00968 -1.62292 0
M  V30 4425 H 415.484 3.45012 -1.54192 0
M  V30 4426 H 415.797 6.77718 -3.71374 0
M  V30 4427 H 414.142 6.09824 -3.33377 0
M  V30 4428 H 417.333 4.23855 -1.98657 0
M  V30 4429 H 417.506 5.75582 -2.97673 0
M  V30 4430 N 410.912 0.523116 1.48665 0
M  V30 4431 C 411.86 -0.256859 2.31177 0
M  V30 4432 C 412.854 -0.94199 1.40794 0
M  V30 4433 O 414.06 -0.867157 1.57735 0
M  V30 4434 H 410.435 -0.1017 0.745091 0
M  V30 4435 H 412.406 0.458739 2.94853 0
M  V30 4436 C 411.155 -1.29503 3.22683 0
M  V30 4437 H 410.478 -0.777248 3.92172 0
M  V30 4438 H 411.918 -1.81233 3.83315 0
M  V30 4439 C 410.377 -2.32501 2.43813 0
M  V30 4440 O 410.907 -3.3881 2.15803 0
M  V30 4441 N 409.113 -2.05538 2.05432 0
M  V30 4442 H 408.66 -1.19104 2.28412 0
M  V30 4443 H 408.618 -2.74676 1.52973 0
M  V30 4444 N 412.39 -1.55475 0.257931 0
M  V30 4445 C 413.62 -2.03314 -0.367026 0
M  V30 4446 C 414.028 -1.13625 -1.51281 0
M  V30 4447 O 413.371 -0.145334 -1.83124 0
M  V30 4448 C 413.433 -3.47362 -0.926284 0
M  V30 4449 C 413.097 -4.56914 0.0886584 0
M  V30 4450 C 414.094 -5.12013 0.902123 0
M  V30 4451 C 411.779 -5.01827 0.217936 0
M  V30 4452 C 413.773 -6.10529 1.83122 0
M  V30 4453 C 411.46 -6.00172 1.15052 0
M  V30 4454 C 412.458 -6.54402 1.95568 0
M  V30 4455 O 412.146 -7.50827 2.87253 0
M  V30 4456 H 411.878 -0.669976 -0.0900443 0
M  V30 4457 H 414.432 -2.01804 0.382673 0
M  V30 4458 H 412.662 -3.46056 -1.72575 0
M  V30 4459 H 414.351 -3.78637 -1.46249 0
M  V30 4460 H 415.117 -4.78139 0.812891 0
M  V30 4461 H 410.996 -4.59272 -0.398721 0
M  V30 4462 H 414.54 -6.52783 2.46008 0
M  V30 4463 H 410.437 -6.33465 1.24064 0
M  V30 4464 H 411.205 -7.68483 2.81739 0
M  V30 4465 N 413.868 0.0150385 -1.57593 0
M  V30 4466 C 414.798 1.01047 -2.10503 0
M  V30 4467 C 415.779 1.36816 -1.01071 0
M  V30 4468 O 416.964 1.45455 -1.28672 0
M  V30 4469 C 414.094 2.30708 -2.59598 0
M  V30 4470 C 413.048 2.09142 -3.73421 0
M  V30 4471 C 412.374 3.44685 -4.08774 0
M  V30 4472 C 413.674 1.46619 -5.01298 0
M  V30 4473 H 415.368 0.569978 -2.93925 0
M  V30 4474 H 412.914 0.272724 -1.41394 0
M  V30 4475 H 414.867 3.00687 -2.95238 0
M  V30 4476 H 413.591 2.76843 -1.73279 0
M  V30 4477 H 412.25 1.41592 -3.38153 0
M  V30 4478 H 411.898 3.88495 -3.195 0
M  V30 4479 H 411.598 3.31077 -4.8545 0
M  V30 4480 H 413.122 4.16004 -4.4696 0
M  V30 4481 H 414.536 2.06535 -5.34805 0
M  V30 4482 H 412.933 1.43544 -5.82679 0
M  V30 4483 H 414.003 0.433611 -4.82957 0
M  V30 4484 N 415.346 1.54954 0.287554 0
M  V30 4485 C 416.278 1.83224 1.37701 0
M  V30 4486 C 417.291 0.715898 1.46215 0
M  V30 4487 O 418.48 0.993565 1.48292 0
M  V30 4488 C 415.58 1.96723 2.75959 0
M  V30 4489 C 414.753 3.27253 2.90215 0
M  V30 4490 C 413.812 3.30998 4.09056 0
M  V30 4491 O 412.838 4.04457 4.00503 0
M  V30 4492 N 414.04 2.57353 5.20336 0
M  V30 4493 H 416.805 2.77254 1.138 0
M  V30 4494 H 414.366 1.54694 0.477652 0
M  V30 4495 H 416.358 1.96615 3.5373 0
M  V30 4496 H 414.928 1.09626 2.92747 0
M  V30 4497 H 414.148 3.40022 1.99447 0
M  V30 4498 H 415.436 4.13365 2.96659 0
M  V30 4499 H 414.834 1.97327 5.30169 0
M  V30 4500 H 413.391 2.62984 5.96391 0
M  V30 4501 N 416.824 -0.551391 1.4764 0
M  V30 4502 C 418.049 -1.33837 1.58437 0
M  V30 4503 C 418.474 -1.866 0.237063 0
M  V30 4504 O 417.832 -1.6328 -0.787994 0
M  V30 4505 C 417.88 -2.48014 2.61766 0
M  V30 4506 O 416.984 -3.50419 2.1744 0
M  V30 4507 H 416.325 -0.397299 0.532024 0
M  V30 4508 H 418.855 -0.665759 1.93465 0
M  V30 4509 H 418.865 -2.94503 2.82369 0
M  V30 4510 H 417.54 -2.08969 3.5959 0
M  V30 4511 H 416.117 -3.10196 2.06961 0
M  V30 4512 N 418.302 -1.35869 -0.798587 0
M  V30 4513 C 419.232 -1.32118 -1.92528 0
M  V30 4514 C 420.213 -0.194209 -1.68988 0
M  V30 4515 O 421.398 -0.390426 -1.90235 0
M  V30 4516 C 418.528 -1.10047 -3.29404 0
M  V30 4517 C 417.482 -2.19471 -3.67446 0
M  V30 4518 C 416.808 -1.82555 -5.02571 0
M  V30 4519 C 418.108 -3.61495 -3.76987 0
M  V30 4520 H 419.802 -2.26394 -1.95924 0
M  V30 4521 H 417.348 -1.08981 -0.94123 0
M  V30 4522 H 419.301 -1.06061 -4.07835 0
M  V30 4523 H 418.025 -0.122195 -3.26371 0
M  V30 4524 H 416.684 -2.22568 -2.91306 0
M  V30 4525 H 416.332 -0.833249 -4.9605 0
M  V30 4526 H 416.032 -2.5581 -5.28995 0
M  V30 4527 H 417.556 -1.80108 -5.83432 0
M  V30 4528 H 418.97 -3.60676 -4.4563 0
M  V30 4529 H 417.367 -4.33577 -4.14887 0
M  V30 4530 H 418.437 -3.97065 -2.78329 0
M  V30 4531 N 419.78 1.02168 -1.19998 0
M  V30 4532 C 421.191 1.57135 -1.00825 0
M  V30 4533 C 421.542 1.91276 0.436818 0
M  V30 4534 O 420.667 1.71679 1.3174 0
M  V30 4535 C 421.262 2.85514 -1.82393 0
M  V30 4536 C 419.821 3.37027 -1.67601 0
M  V30 4537 C 418.968 2.10388 -1.80644 0
M  V30 4538 H 421.919 0.846106 -1.34264 0
M  V30 4539 H 421.94 3.56711 -1.32429 0
M  V30 4540 H 421.452 2.60634 -2.87561 0
M  V30 4541 H 419.553 3.66878 -0.650485 0
M  V30 4542 H 419.666 4.09572 -2.4857 0
M  V30 4543 H 418.03 2.22601 -1.23778 0
M  V30 4544 H 418.813 1.8794 -2.87286 0
M  V30 4545 N 421.258 1.00505 1.21394 0
M  V30 4546 C 422.483 0.706367 1.95001 0
M  V30 4547 C 422.908 -0.72463 1.73582 0
M  V30 4548 O 422.266 -1.49702 1.0227 0
M  V30 4549 C 422.314 1.03299 3.45487 0
M  V30 4550 O 421.418 0.138275 4.12168 0
M  V30 4551 H 420.759 0.263175 0.609619 0
M  V30 4552 H 423.289 1.34531 1.54151 0
M  V30 4553 H 423.299 0.979872 3.96059 0
M  V30 4554 H 421.974 2.07567 3.60401 0
M  V30 4555 H 420.551 0.247928 3.72075 0
M  V30 4556 N 422.737 -1.36956 0.779787 0
M  V30 4557 C 423.684 -2.30175 0.169697 0
M  V30 4558 C 424.654 -1.51501 -0.68094 0
M  V30 4559 O 425.839 -1.80042 -0.631629 0
M  V30 4560 C 422.979 -3.37985 -0.697131 0
M  V30 4561 C 422.092 -4.31661 0.170992 0
M  V30 4562 C 421.227 -5.2655 -0.701298 0
M  V30 4563 C 420.266 -6.11867 0.168869 0
M  V30 4564 N 419.403 -6.98973 -0.661855 0
M  V30 4565 H 424.243 -2.81767 0.970135 0
M  V30 4566 H 421.78 -1.38699 0.489994 0
M  V30 4567 H 423.738 -3.99128 -1.2146 0
M  V30 4568 H 422.368 -2.87739 -1.46309 0
M  V30 4569 H 421.42 -3.71756 0.80634 0
M  V30 4570 H 422.732 -4.91644 0.841875 0
M  V30 4571 H 421.886 -5.92937 -1.28494 0
M  V30 4572 H 420.625 -4.66998 -1.40584 0
M  V30 4573 H 419.63 -5.44452 0.764986 0
M  V30 4574 H 420.855 -6.73493 0.870863 0
M  V30 4575 H 418.801 -6.41941 -1.35086 0
M  V30 4576 H 418.718 -7.55984 -0.0484447 0
M  V30 4577 H 419.986 -7.6974 -1.22963 0
M  V30 4578 N 424.215 -0.530993 -1.48385 0
M  V30 4579 C 425.443 -0.00134122 -2.069 0
M  V30 4580 C 425.858 1.2805 -1.3874 0
M  V30 4581 O 425.215 1.76204 -0.475244 0
M  V30 4582 C 425.266 0.225256 -3.60798 0
M  V30 4583 O 424.987 -1.0058 -4.26398 0
M  V30 4584 C 426.488 0.795172 -4.3611 0
M  V30 4585 H 423.708 -0.0339704 -0.67014 0
M  V30 4586 H 426.252 -0.736926 -1.90761 0
M  V30 4587 H 424.407 0.910891 -3.76539 0
M  V30 4588 H 424.821 -0.787165 -5.1856 0
M  V30 4589 H 426.295 0.903143 -5.44562 0
M  V30 4590 H 426.772 1.80031 -4.00606 0
M  V30 4591 H 427.378 0.146069 -4.25049 0
M  V30 4592 N 425.693 1.55336 -0.266172 0
M  V30 4593 C 426.64 2.22172 0.625165 0
M  V30 4594 C 427.61 1.19211 1.15663 0
M  V30 4595 O 428.795 1.47723 1.20758 0
M  V30 4596 C 425.935 2.93972 1.8076 0
M  V30 4597 C 425.048 4.11632 1.31084 0
M  V30 4598 C 424.183 4.71099 2.45436 0
M  V30 4599 C 423.222 5.8097 1.92718 0
M  V30 4600 N 422.359 6.34538 3.00509 0
M  V30 4601 H 427.199 2.9796 0.0485582 0
M  V30 4602 H 424.736 1.47095 0.0122024 0
M  V30 4603 H 426.694 3.33811 2.50251 0
M  V30 4604 H 425.324 2.20623 2.35638 0
M  V30 4605 H 424.376 3.76975 0.509326 0
M  V30 4606 H 425.688 4.90893 0.884633 0
M  V30 4607 H 424.842 5.13612 3.22936 0
M  V30 4608 H 423.581 3.91096 2.91368 0
M  V30 4609 H 422.586 5.37916 1.13695 0
M  V30 4610 H 423.811 6.62836 1.47733 0
M  V30 4611 H 421.757 5.57433 3.45839 0
M  V30 4612 H 421.674 7.09046 2.62279 0
M  V30 4613 H 422.942 6.81709 3.78011 0
M  V30 4614 N 427.171 -0.0066808 1.57599 0
M  V30 4615 C 428.417 -0.693947 1.90558 0
M  V30 4616 C 428.75 -1.73792 0.866594 0
M  V30 4617 O 428.025 -1.94156 -0.115548 0
M  V30 4618 C 428.308 -1.34317 3.34112 0
M  V30 4619 C 428.161 -0.311189 4.48722 0
M  V30 4620 C 429.48 -2.27116 3.7697 0
M  V30 4621 H 426.599 -0.250803 0.693013 0
M  V30 4622 H 429.241 0.043242 1.89951 0
M  V30 4623 H 427.391 -1.9715 3.3476 0
M  V30 4624 H 429.063 0.316944 4.6021 0
M  V30 4625 H 427.306 0.367253 4.32243 0
M  V30 4626 H 427.977 -0.804366 5.46108 0
M  V30 4627 H 430.453 -1.74306 3.77831 0
M  V30 4628 H 429.329 -2.69511 4.78179 0
M  V30 4629 H 429.59 -3.14743 3.10466 0
M  V30 4630 N 428.649 -1.55105 -0.279332 0
M  V30 4631 C 429.612 -1.86783 -1.32834 0
M  V30 4632 C 430.612 -0.74199 -1.42657 0
M  V30 4633 O 431.802 -1.0102 -1.41918 0
M  V30 4634 C 428.934 -2.06746 -2.71052 0
M  V30 4635 H 430.127 -2.8055 -1.05979 0
M  V30 4636 H 427.68 -1.47499 -0.517087 0
M  V30 4637 H 428.415 -1.15339 -3.03097 0
M  V30 4638 H 428.2 -2.88711 -2.65309 0
M  V30 4639 H 429.69 -2.32549 -3.46858 0
M  V30 4640 N 430.127 0.543554 -1.4793 0
M  V30 4641 C 431.373 1.29961 -1.56466 0
M  V30 4642 C 431.728 1.91024 -0.229696 0
M  V30 4643 O 431.021 1.75619 0.766072 0
M  V30 4644 C 431.215 2.42078 -2.62932 0
M  V30 4645 C 431.044 1.92003 -4.06651 0
M  V30 4646 C 429.814 1.75223 -4.73946 0
M  V30 4647 C 432.012 1.45648 -4.93245 0
M  V30 4648 N 429.994 1.19632 -6.02131 0
M  V30 4649 C 431.365 1.01914 -6.11566 0
M  V30 4650 C 433.42 1.33826 -4.79578 0
M  V30 4651 C 432.123 0.475301 -7.17728 0
M  V30 4652 C 434.149 0.808427 -5.85848 0
M  V30 4653 C 433.511 0.381081 -7.03368 0
M  V30 4654 H 429.61 0.467086 -0.62718 0
M  V30 4655 H 432.194 0.614543 -1.84747 0
M  V30 4656 H 430.365 3.08098 -2.36496 0
M  V30 4657 H 432.097 3.09096 -2.61231 0
M  V30 4658 H 428.852 1.98345 -4.30065 0
M  V30 4659 H 429.276 0.93885 -6.70458 0
M  V30 4660 H 433.918 1.65474 -3.89074 0
M  V30 4661 H 431.636 0.146472 -8.07967 0
M  V30 4662 H 435.222 0.720315 -5.77324 0
M  V30 4663 H 434.102 -0.0225344 -7.84197 0
M  V30 4664 N 431.605 1.3629 0.791371 0
M  V30 4665 C 432.568 1.30309 1.88553 0
M  V30 4666 C 433.568 0.211204 1.59407 0
M  V30 4667 O 434.758 0.465865 1.67855 0
M  V30 4668 C 431.89 1.01956 3.25297 0
M  V30 4669 H 433.083 2.27614 1.95273 0
M  V30 4670 H 430.636 1.21035 0.988953 0
M  V30 4671 H 431.371 0.050998 3.2426 0
M  V30 4672 H 431.156 1.80968 3.4784 0
M  V30 4673 H 432.646 1.0037 4.05359 0
M  V30 4674 N 433.083 -1.0153 1.20538 0
M  V30 4675 C 434.03 -2.10098 0.955383 0
M  V30 4676 C 435 -1.65702 -0.114878 0
M  V30 4677 O 436.185 -1.90776 0.0301118 0
M  V30 4678 C 433.325 -3.41236 0.514969 0
M  V30 4679 C 432.438 -3.99102 1.65353 0
M  V30 4680 C 431.573 -5.18306 1.16329 0
M  V30 4681 C 430.612 -5.68258 2.27485 0
M  V30 4682 N 429.749 -6.78722 1.7967 0
M  V30 4683 H 434.589 -2.30818 1.88486 0
M  V30 4684 H 432.126 -1.13189 0.939499 0
M  V30 4685 H 434.084 -4.16504 0.240935 0
M  V30 4686 H 432.714 -3.20585 -0.377512 0
M  V30 4687 H 431.766 -3.20918 2.04245 0
M  V30 4688 H 433.078 -4.32177 2.49047 0
M  V30 4689 H 432.232 -6.00782 0.845302 0
M  V30 4690 H 430.971 -4.86799 0.296254 0
M  V30 4691 H 429.976 -4.84385 2.60099 0
M  V30 4692 H 431.201 -6.01798 3.14667 0
M  V30 4693 H 429.147 -6.49042 0.95295 0
M  V30 4694 H 429.064 -7.10996 2.56944 0
M  V30 4695 H 430.332 -7.64759 1.50875 0
M  V30 4696 N 434.561 -1.01147 -1.20859 0
M  V30 4697 C 435.491 -0.597663 -2.25722 0
M  V30 4698 C 436.472 0.384744 -1.65692 0
M  V30 4699 O 437.657 0.271303 -1.92296 0
M  V30 4700 C 434.787 0.0700149 -3.47229 0
M  V30 4701 C 433.741 -0.832843 -4.19819 0
M  V30 4702 C 433.067 -0.0312202 -5.34691 0
M  V30 4703 C 434.367 -2.1385 -4.76514 0
M  V30 4704 H 436.061 -1.47423 -2.60589 0
M  V30 4705 H 433.607 -0.710301 -1.25263 0
M  V30 4706 H 435.56 0.37103 -4.19763 0
M  V30 4707 H 434.284 0.981259 -3.11511 0
M  V30 4708 H 432.943 -1.11778 -3.49144 0
M  V30 4709 H 432.591 0.881515 -4.95215 0
M  V30 4710 H 432.291 -0.632434 -5.84187 0
M  V30 4711 H 433.815 0.26346 -6.10031 0
M  V30 4712 H 435.229 -1.9002 -5.40893 0
M  V30 4713 H 433.626 -2.69012 -5.36426 0
M  V30 4714 H 434.696 -2.80495 -3.95538 0
M  V30 4715 N 436.039 1.36541 -0.78704 0
M  V30 4716 C 437.286 1.99304 -0.358341 0
M  V30 4717 C 437.614 1.62467 1.06933 0
M  V30 4718 O 436.869 0.870019 1.75297 0
M  V30 4719 C 437.168 3.54343 -0.466485 0
M  V30 4720 C 436.834 4.10993 -1.85461 0
M  V30 4721 C 435.496 4.26177 -2.23443 0
M  V30 4722 C 437.848 4.41895 -2.76366 0
M  V30 4723 C 435.176 4.69573 -3.51736 0
M  V30 4724 C 437.528 4.86722 -4.04084 0
M  V30 4725 C 436.192 5.00112 -4.42091 0
M  V30 4726 H 435.462 0.729306 -0.131126 0
M  V30 4727 H 438.109 1.63068 -1.00404 0
M  V30 4728 H 436.414 3.90918 0.262719 0
M  V30 4729 H 438.111 4.00833 -0.115854 0
M  V30 4730 H 434.701 3.99612 -1.54946 0
M  V30 4731 H 438.885 4.29735 -2.48277 0
M  V30 4732 H 434.141 4.78127 -3.81057 0
M  V30 4733 H 438.315 5.09598 -4.7464 0
M  V30 4734 H 435.942 5.33498 -5.41557 0
M  V30 4735 N 437.518 0.538854 1.48102 0
M  V30 4736 C 438.929 0.100679 1.86428 0
M  V30 4737 C 439.28 -1.32447 1.44749 0
M  V30 4738 O 438.405 -1.99339 0.842199 0
M  V30 4739 C 439 0.175933 3.38343 0
M  V30 4740 C 437.559 -0.207098 3.7583 0
M  V30 4741 C 436.706 0.531741 2.72154 0
M  V30 4742 H 439.657 0.749614 1.3988 0
M  V30 4743 H 439.678 -0.610144 3.75576 0
M  V30 4744 H 439.19 1.21328 3.68648 0
M  V30 4745 H 437.291 -1.24626 3.5114 0
M  V30 4746 H 437.404 0.138687 4.78899 0
M  V30 4747 H 435.768 -0.0230462 2.5469 0
M  V30 4748 H 436.551 1.56989 3.05302 0
M  V30 4749 N 438.996 -1.55193 0.274407 0
M  V30 4750 C 439.943 -2.225 -0.613374 0
M  V30 4751 C 440.913 -1.19823 -1.15029 0
M  V30 4752 O 442.098 -1.48362 -1.19973 0
M  V30 4753 C 439.238 -2.94927 -1.79199 0
M  V30 4754 C 438.351 -4.12322 -1.28899 0
M  V30 4755 C 437.486 -4.72394 -2.42934 0
M  V30 4756 C 436.525 -5.81984 -1.89634 0
M  V30 4757 N 435.662 -6.36123 -2.9714 0
M  V30 4758 H 440.502 -2.97982 -0.032756 0
M  V30 4759 H 438.039 -1.47099 -0.00440146 0
M  V30 4760 H 439.997 -3.35134 -2.48478 0
M  V30 4761 H 438.627 -2.2187 -2.34465 0
M  V30 4762 H 437.679 -3.7724 -0.489327 0
M  V30 4763 H 438.991 -4.91355 -0.858587 0
M  V30 4764 H 438.145 -5.15317 -3.20208 0
M  V30 4765 H 436.884 -3.92636 -2.8929 0
M  V30 4766 H 435.889 -5.38511 -1.1084 0
M  V30 4767 H 437.114 -6.6361 -1.44215 0
M  V30 4768 H 435.06 -5.59259 -3.42878 0
M  V30 4769 H 434.977 -7.10427 -2.58515 0
M  V30 4770 H 436.245 -6.83704 -3.74391 0
M  V30 4771 N 440.474 -0.00167713 -1.576 0
M  V30 4772 C 441.699 0.69739 -1.95323 0
M  V30 4773 C 442.124 1.6642 -0.876706 0
M  V30 4774 O 441.482 1.80548 0.165007 0
M  V30 4775 C 441.53 1.40403 -3.32144 0
M  V30 4776 O 440.634 2.5185 -3.26566 0
M  V30 4777 H 439.975 0.185373 -0.637599 0
M  V30 4778 H 442.505 -0.0553665 -2.04525 0
M  V30 4779 H 442.515 1.76707 -3.67748 0
M  V30 4780 H 441.19 0.695167 -4.10049 0
M  V30 4781 H 439.767 2.17861 -3.0264 0
M  V30 4782 N 441.952 1.55251 0.271103 0
M  V30 4783 C 443.229 1.66664 1.02384 0
M  V30 4784 C 443.609 0.534363 2.04225 0
M  V30 4785 O 442.957 -0.465337 2.23712 0
M  V30 4786 C 443.167 3.05961 1.67895 0
M  V30 4787 C 444.515 3.63772 2.18986 0
M  V30 4788 O 445.539 3.08606 1.77878 0
M  V30 4789 O 444.398 4.60429 2.94393 0
M  V30 4790 H 441.492 0.676957 0.475035 0
M  V30 4791 H 444.038 1.67589 0.26681 0
M  V30 4792 H 442.81 3.79815 0.941071 0
M  V30 4793 H 442.433 3.08943 2.5028 0
M  V30 4794 N 443.43 -0.535701 1.48216 0
M  V30 4795 C 444.655 -1.32149 1.59848 0
M  V30 4796 C 445.08 -1.86338 0.256842 0
M  V30 4797 O 444.438 -1.64107 -0.770632 0
M  V30 4798 C 444.486 -2.45224 2.64381 0
M  V30 4799 O 443.59 -3.48093 2.21144 0
M  V30 4800 H 442.931 -0.391634 0.536208 0
M  V30 4801 H 445.461 -0.645202 1.94161 0
M  V30 4802 H 445.471 -2.91491 2.85476 0
M  V30 4803 H 444.146 -2.05143 3.61786 0
M  V30 4804 H 442.723 -3.07984 2.10239 0
M  V30 4805 N 444.908 -1.36708 -0.784132 0
M  V30 4806 C 445.855 -1.31466 -1.89698 0
M  V30 4807 C 446.825 -0.18239 -1.65096 0
M  V30 4808 O 448.01 -0.369762 -1.87183 0
M  V30 4809 C 445.15 -1.1151 -3.26588 0
M  V30 4810 C 444.263 -2.33859 -3.63227 0
M  V30 4811 C 443.398 -2.06873 -4.89262 0
M  V30 4812 C 442.437 -3.25154 -5.18595 0
M  V30 4813 N 441.574 -2.978 -6.35814 0
M  V30 4814 H 446.414 -2.26619 -1.93515 0
M  V30 4815 H 443.951 -1.12625 -0.946256 0
M  V30 4816 H 445.909 -0.979653 -4.05535 0
M  V30 4817 H 444.539 -0.200103 -3.22179 0
M  V30 4818 H 443.591 -2.58188 -2.79362 0
M  V30 4819 H 444.903 -3.22109 -3.8085 0
M  V30 4820 H 444.057 -1.90289 -5.76086 0
M  V30 4821 H 442.796 -1.15942 -4.73718 0
M  V30 4822 H 441.801 -3.42292 -4.30251 0
M  V30 4823 H 443.026 -4.1692 -5.36055 0
M  V30 4824 H 440.972 -2.09485 -6.21653 0
M  V30 4825 H 440.889 -3.7959 -6.53794 0
M  V30 4826 H 442.157 -2.84805 -7.25607 0
M  V30 4827 N 446.386 1.0089 -1.21074 0
M  V30 4828 C 447.349 2.0775 -0.968129 0
M  V30 4829 C 448.349 1.6069 0.0593445 0
M  V30 4830 O 449.539 1.73293 -0.177525 0
M  V30 4831 C 446.671 3.37794 -0.459108 0
M  V30 4832 H 447.864 2.30707 -1.9161 0
M  V30 4833 H 445.417 1.17807 -1.02719 0
M  V30 4834 H 446.152 3.20516 0.49397 0
M  V30 4835 H 445.937 3.7328 -1.20019 0
M  V30 4836 H 447.427 4.16454 -0.309099 0
M  V30 4837 N 447.864 1.01787 1.20321 0
M  V30 4838 C 448.794 0.609625 2.25401 0
M  V30 4839 C 449.775 -0.375951 1.65893 0
M  V30 4840 O 450.96 -0.261101 1.92437 0
M  V30 4841 C 448.09 -0.0515995 3.47262 0
M  V30 4842 C 447.044 0.855095 4.19371 0
M  V30 4843 C 446.37 0.0595757 5.34667 0
M  V30 4844 C 447.67 2.16374 4.75373 0
M  V30 4845 H 449.364 1.48803 2.59804 0
M  V30 4846 H 446.91 0.716934 1.24884 0
M  V30 4847 H 448.863 -0.348764 4.19954 0
M  V30 4848 H 447.587 -0.964726 3.12027 0
M  V30 4849 H 446.246 1.13628 3.48546 0
M  V30 4850 H 445.894 -0.85524 4.95676 0
M  V30 4851 H 445.594 0.663406 5.83843 0
M  V30 4852 H 447.118 -0.231105 6.10162 0
M  V30 4853 H 448.532 1.92885 5.39878 0
M  V30 4854 H 446.929 2.71853 5.34991 0
M  V30 4855 H 447.999 2.82589 3.94045 0
M  V30 4856 N 449.342 -1.36122 0.79427 0
M  V30 4857 C 450.619 -1.93398 0.292685 0
M  V30 4858 C 450.999 -1.72567 -1.21589 0
M  V30 4859 O 450.347 -1.08745 -2.00965 0
M  V30 4860 C 450.557 -3.42099 0.690614 0
M  V30 4861 C 451.905 -4.19231 0.673105 0
M  V30 4862 O 452.929 -3.50559 0.631389 0
M  V30 4863 O 451.788 -5.41732 0.720362 0
M  V30 4864 H 448.882 -0.823712 0.0736693 0
M  V30 4865 H 451.428 -1.45273 0.87714 0
M  V30 4866 H 450.2 -3.50938 1.73085 0
M  V30 4867 H 449.823 -3.97519 0.0803036 0
M  V30 4868 N 450.82 -0.546701 -1.47814 0
M  V30 4869 C 451.75 0.195317 -2.32682 0
M  V30 4870 C 452.731 0.918981 -1.43139 0
M  V30 4871 O 453.916 0.901501 -1.72008 0
M  V30 4872 C 451.046 1.23237 -3.247 0
M  V30 4873 C 450 0.625818 -4.234 0
M  V30 4874 C 449.326 1.76674 -5.04669 0
M  V30 4875 C 450.626 -0.413515 -5.2066 0
M  V30 4876 H 452.32 -0.513184 -2.94969 0
M  V30 4877 H 449.866 -0.248241 -1.41844 0
M  V30 4878 H 451.819 1.75955 -3.82907 0
M  V30 4879 H 450.543 1.97067 -2.60446 0
M  V30 4880 H 449.202 0.120023 -3.66403 0
M  V30 4881 H 448.85 2.49383 -4.36826 0
M  V30 4882 H 448.55 1.36673 -5.71484 0
M  V30 4883 H 450.074 2.29738 -5.65732 0
M  V30 4884 H 451.488 0.0272042 -5.73294 0
M  V30 4885 H 449.885 -0.731825 -5.95621 0
M  V30 4886 H 450.955 -1.31325 -4.66778 0
M  V30 4887 N 452.299 1.55045 -0.282633 0
M  V30 4888 C 453.229 2.2579 0.595066 0
M  V30 4889 C 454.21 1.25074 1.15284 0
M  V30 4890 O 455.395 1.5381 1.18559 0
M  V30 4891 C 452.525 2.98472 1.77572 0
M  V30 4892 C 451.479 4.0618 1.34914 0
M  V30 4893 C 450.805 4.66477 2.6135 0
M  V30 4894 C 452.105 5.1996 0.493821 0
M  V30 4895 H 453.799 2.994 0.00505653 0
M  V30 4896 H 451.345 1.44 0.000992001 0
M  V30 4897 H 453.298 3.46677 2.39568 0
M  V30 4898 H 452.022 2.2241 2.39168 0
M  V30 4899 H 450.681 3.58797 0.752338 0
M  V30 4900 H 450.329 3.87074 3.2122 0
M  V30 4901 H 450.029 5.39207 2.33516 0
M  V30 4902 H 451.553 5.17435 3.24181 0
M  V30 4903 H 452.967 5.64172 1.01898 0
M  V30 4904 H 451.364 5.99299 0.310047 0
M  V30 4905 H 452.434 4.82462 -0.485593 0
M  V30 4906 N 453.777 0.010035 1.57597 0
M  V30 4907 C 455.054 -0.710296 1.82248 0
M  V30 4908 C 455.434 -1.91426 0.889911 0
M  V30 4909 O 454.782 -2.28424 -0.0590292 0
M  V30 4910 C 454.992 -1.10655 3.30993 0
M  V30 4911 C 456.34 -1.50621 3.96987 0
M  V30 4912 O 457.364 -1.20007 3.35375 0
M  V30 4913 O 456.223 -2.07587 5.05539 0
M  V30 4914 H 453.317 -0.34673 0.750804 0
M  V30 4915 H 455.863 0.0362578 1.69661 0
M  V30 4916 H 454.635 -0.248826 3.90508 0
M  V30 4917 H 454.258 -1.91189 3.48615 0
M  V30 4918 N 455.255 -1.55392 -0.262866 0
M  V30 4919 C 456.671 -1.47459 -0.610582 0
M  V30 4920 C 456.871 -0.697031 -1.8906 0
M  V30 4921 O 455.927 -0.219952 -2.5154 0
M  V30 4922 C 457.24 -2.91751 -0.728131 0
M  V30 4923 C 458.788 -3.02027 -0.821517 0
M  V30 4924 C 459.263 -4.47594 -0.97076 0
M  V30 4925 N 460.754 -4.51465 -1.03603 0
M  V30 4926 C 461.489 -5.61326 -1.17049 0
M  V30 4927 N 460.985 -6.81032 -1.2715 0
M  V30 4928 N 462.778 -5.49089 -1.20239 0
M  V30 4929 H 454.929 -2.04395 0.577632 0
M  V30 4930 H 457.192 -0.927287 0.197086 0
M  V30 4931 H 456.898 -3.51413 0.142132 0
M  V30 4932 H 456.772 -3.4134 -1.6052 0
M  V30 4933 H 459.159 -2.42456 -1.68224 0
M  V30 4934 H 459.24 -2.55674 0.0803688 0
M  V30 4935 H 458.884 -5.07771 -0.114655 0
M  V30 4936 H 458.814 -4.91613 -1.88745 0
M  V30 4937 H 461.305 -3.6524 -0.96996 0
M  V30 4938 H 461.618 -7.60511 -1.37271 0
M  V30 4939 H 459.963 -6.83824 -1.24136 0
M  V30 4940 H 463.154 -4.54507 -1.11985 0
M  V30 4941 H 463.327 -6.34749 -1.30373 0
M  V30 4942 N 456.733 0.527833 -1.48498 0
M  V30 4943 C 457.666 1.64892 -1.57753 0
M  V30 4944 C 458.644 1.5687 -0.427867 0
M  V30 4945 O 459.828 1.77311 -0.639764 0
M  V30 4946 C 456.955 3.03301 -1.50752 0
M  V30 4947 C 456.001 3.29675 -2.70586 0
M  V30 4948 S 456.834 3.15712 -4.32535 0
M  V30 4949 C 457.99 4.56564 -4.28136 0
M  V30 4950 H 458.223 1.56792 -2.52594 0
M  V30 4951 H 455.756 0.710959 -1.37057 0
M  V30 4952 H 457.714 3.83123 -1.474 0
M  V30 4953 H 456.375 3.08839 -0.572454 0
M  V30 4954 H 455.568 4.3065 -2.61833 0
M  V30 4955 H 455.17 2.57526 -2.71212 0
M  V30 4956 H 457.462 5.48126 -3.98201 0
M  V30 4957 H 458.405 4.70371 -5.29298 0
M  V30 4958 H 458.813 4.35987 -3.58574 0
M  V30 4959 N 458.211 1.37122 0.776871 0
M  V30 4960 C 459.141 1.35164 1.90402 0
M  V30 4961 C 460.122 0.221069 1.68657 0
M  V30 4962 O 461.307 0.420642 1.8959 0
M  V30 4963 C 458.437 1.15274 3.27611 0
M  V30 4964 C 457.391 2.25289 3.63908 0
M  V30 4965 C 456.717 1.90527 4.99603 0
M  V30 4966 C 458.017 3.67446 3.71188 0
M  V30 4967 H 459.711 2.29482 1.92297 0
M  V30 4968 H 457.257 1.10465 0.923773 0
M  V30 4969 H 459.21 1.12536 4.06096 0
M  V30 4970 H 457.934 0.174102 3.26136 0
M  V30 4971 H 456.593 2.27174 2.87728 0
M  V30 4972 H 456.241 0.91206 4.94662 0
M  V30 4973 H 455.941 2.64193 5.24858 0
M  V30 4974 H 457.465 1.89367 5.80493 0
M  V30 4975 H 458.879 3.67719 4.39836 0
M  V30 4976 H 457.276 4.40123 4.07936 0
M  V30 4977 H 458.346 4.01443 2.71977 0
M  V30 4978 N 459.689 -1.00246 1.21608 0
M  V30 4979 C 460.917 -1.77631 1.06089 0
M  V30 4980 C 461.332 -1.84746 -0.38916 0
M  V30 4981 O 460.689 -1.31068 -1.26994 0
M  V30 4982 C 460.74 -3.21415 1.65453 0
M  V30 4983 O 460.461 -3.14703 3.04785 0
M  V30 4984 C 461.962 -4.15289 1.55079 0
M  V30 4985 H 459.182 -0.558162 0.37242 0
M  V30 4986 H 461.726 -1.26093 1.60999 0
M  V30 4987 H 459.881 -3.70053 1.14629 0
M  V30 4988 H 460.295 -4.05056 3.33212 0
M  V30 4989 H 461.769 -5.13965 2.01355 0
M  V30 4990 H 462.246 -4.36279 0.505665 0
M  V30 4991 H 462.852 -3.72543 2.05163 0
M  V30 4992 N 461.167 -1.02423 -1.1978 0
M  V30 4993 C 462.414 -0.717988 -1.89344 0
M  V30 4994 C 462.742 0.753036 -1.79331 0
M  V30 4995 O 461.997 1.56355 -1.17692 0
M  V30 4996 C 462.296 -1.1088 -3.39765 0
M  V30 4997 C 461.962 -2.57731 -3.6998 0
M  V30 4998 C 460.624 -2.97854 -3.77937 0
M  V30 4999 C 462.976 -3.52763 -3.83677 0
M  V30 5000 C 460.304 -4.31931 -3.97054 0
M  V30 5001 C 462.656 -4.86538 -4.04306 0
M  V30 5002 C 461.32 -5.26356 -4.10494 0
M  V30 5003 H 460.59 -0.26273 -0.692859 0
M  V30 5004 H 463.237 -1.28623 -1.41875 0
M  V30 5005 H 461.542 -0.459094 -3.89101 0
M  V30 5006 H 463.239 -0.849432 -3.919 0
M  V30 5007 H 459.829 -2.25646 -3.64393 0
M  V30 5008 H 464.013 -3.2292 -3.76877 0
M  V30 5009 H 459.269 -4.62324 -4.00083 0
M  V30 5010 H 463.443 -5.60093 -4.13846 0
M  V30 5011 H 461.07 -6.3026 -4.2506 0
M  V30 5012 N 462.645 1.35699 -0.801477 0
M  V30 5013 C 463.593 2.3177 -0.196317 0
M  V30 5014 C 464.587 1.56388 0.651081 0
M  V30 5015 O 465.793 1.71557 0.544815 0
M  V30 5016 H 462.168 0.750669 -0.0447189 0
M  V30 5017 H 464.139 2.8036 -1.02181 0
M  V30 5018 C 462.888 3.41671 0.644702 0
M  V30 5019 H 462.211 3.998 0.0019921 0
M  V30 5020 H 463.651 4.11184 1.0346 0
M  V30 5021 C 462.11 2.84271 1.80808 0
M  V30 5022 O 462.64 2.77408 2.9053 0
M  V30 5023 N 460.846 2.41391 1.61799 0
M  V30 5024 H 460.393 2.47173 0.725493 0
M  V30 5025 H 460.351 2.03334 2.39797 0
M  V30 5026 N 464.123 0.554532 1.47522 0
M  V30 5027 C 465.534 0.120446 1.86311 0
M  V30 5028 C 465.885 -1.30904 1.46145 0
M  V30 5029 O 465.01 -1.98434 0.863294 0
M  V30 5030 C 465.605 0.211808 3.38137 0
M  V30 5031 C 464.164 -0.167224 3.76028 0
M  V30 5032 C 463.311 0.560576 2.71575 0
M  V30 5033 H 466.262 0.764408 1.39077 0
M  V30 5034 H 466.283 -0.570275 3.76202 0
M  V30 5035 H 465.795 1.25232 3.6734 0
M  V30 5036 H 463.896 -1.20894 3.52442 0
M  V30 5037 H 464.009 0.189473 4.78725 0
M  V30 5038 H 462.373 0.00396836 2.547 0
M  V30 5039 H 463.156 1.60219 3.0362 0
M  V30 5040 N 465.601 -1.54893 0.290851 0
M  V30 5041 C 466.549 -2.24579 -0.605576 0
M  V30 5042 C 467.543 -1.24824 -1.14522 0
M  V30 5043 O 468.749 -1.42706 -1.09704 0
M  V30 5044 H 465.124 -0.720946 -0.213872 0
M  V30 5045 H 467.095 -2.984 0.0048173 0
M  V30 5046 C 465.844 -2.99224 -1.77088 0
M  V30 5047 H 465.167 -3.75782 -1.36484 0
M  V30 5048 H 466.607 -3.51281 -2.3744 0
M  V30 5049 C 465.066 -2.05602 -2.66888 0
M  V30 5050 O 465.596 -1.61745 -3.67698 0
M  V30 5051 N 463.802 -1.71771 -2.34399 0
M  V30 5052 H 463.349 -2.07633 -1.52468 0
M  V30 5053 H 463.307 -1.09403 -2.94751 0
M  V30 5054 N 467.08 -0.0183926 -1.57589 0
M  V30 5055 C 468.027 0.967022 -2.09565 0
M  V30 5056 C 468.997 1.32983 -0.995225 0
M  V30 5057 O 470.182 1.42501 -1.26878 0
M  V30 5058 C 467.322 2.24772 -2.61861 0
M  V30 5059 C 466.435 1.94232 -3.85873 0
M  V30 5060 C 465.57 3.16518 -4.26603 0
M  V30 5061 C 464.609 2.81748 -5.43401 0
M  V30 5062 N 463.746 3.96626 -5.79338 0
M  V30 5063 H 468.586 0.516874 -2.93483 0
M  V30 5064 H 466.123 0.243544 -1.4507 0
M  V30 5065 H 468.081 2.99667 -2.90268 0
M  V30 5066 H 466.711 2.67423 -1.8079 0
M  V30 5067 H 465.763 1.09625 -3.64262 0
M  V30 5068 H 467.075 1.64616 -4.70853 0
M  V30 5069 H 466.229 3.99743 -4.56389 0
M  V30 5070 H 464.968 3.49286 -3.40368 0
M  V30 5071 H 463.973 1.96933 -5.1332 0
M  V30 5072 H 465.198 2.50207 -6.31327 0
M  V30 5073 H 463.144 4.29257 -4.96059 0
M  V30 5074 H 463.061 3.70598 -6.58933 0
M  V30 5075 H 464.329 4.80586 -6.13724 0
M  V30 5076 N 468.558 1.5553 0.254621 0
M  V30 5077 C 469.974 1.4778 0.602753 0
M  V30 5078 C 470.174 0.707047 1.88688 0
M  V30 5079 O 469.23 0.233288 2.5142 0
M  V30 5080 C 470.543 2.92133 0.712648 0
M  V30 5081 C 472.091 3.02458 0.805488 0
M  V30 5082 C 472.566 4.48102 0.947009 0
M  V30 5083 N 474.057 4.52008 1.01207 0
M  V30 5084 C 474.792 5.61939 1.1407 0
M  V30 5085 N 474.288 6.81697 1.23536 0
M  V30 5086 N 476.081 5.49719 1.17325 0
M  V30 5087 H 468.232 2.04085 -0.588463 0
M  V30 5088 H 470.495 0.926229 -0.202001 0
M  V30 5089 H 470.201 3.51332 -0.160766 0
M  V30 5090 H 470.075 3.42187 1.58707 0
M  V30 5091 H 472.462 2.43344 1.66936 0
M  V30 5092 H 472.543 2.55627 -0.0939266 0
M  V30 5093 H 472.187 5.07824 0.087725 0
M  V30 5094 H 472.117 4.92607 1.86135 0
M  V30 5095 H 474.608 3.65749 0.950577 0
M  V30 5096 H 474.921 7.61228 1.33236 0
M  V30 5097 H 473.266 6.84473 1.20508 0
M  V30 5098 H 476.457 4.55095 1.09573 0
M  V30 5099 H 476.63 6.35432 1.27005 0
M  V30 5100 N 470.036 -0.519951 1.48776 0
M  V30 5101 C 471.285 -1.27175 1.56555 0
M  V30 5102 C 471.598 -1.9401 0.248869 0
M  V30 5103 O 472.804 -2.70725 0.205004 0
M  V30 5104 C 471.26 -2.30811 2.76142 0
M  V30 5105 C 470.868 -1.7 4.14493 0
M  V30 5106 C 472.612 -3.06937 2.9324 0
M  V30 5107 C 470.519 -2.71635 5.25327 0
M  V30 5108 H 469.449 -0.478329 0.582853 0
M  V30 5109 H 472.1 -0.547916 1.75129 0
M  V30 5110 H 470.482 -3.06274 2.51023 0
M  V30 5111 H 471.656 -1.00658 4.49672 0
M  V30 5112 H 469.971 -1.06331 4.02595 0
M  V30 5113 H 472.568 -3.82905 3.73213 0
M  V30 5114 H 472.911 -3.63409 2.03075 0
M  V30 5115 H 473.444 -2.38589 3.18308 0
M  V30 5116 H 470.183 -2.1997 6.1749 0
M  V30 5117 H 469.703 -3.39275 4.94624 0
M  V30 5118 H 471.382 -3.34429 5.53865 0
M  V30 5119 N 471.514 -1.37532 -0.769588 0
M  V30 5120 C 472.742 -1.36059 -1.55871 0
M  V30 5121 C 473.157 0.053544 -1.88724 0
M  V30 5122 O 472.514 1.01591 -1.5161 0
M  V30 5123 C 472.565 -2.20107 -2.86767 0
M  V30 5124 O 472.286 -3.56009 -2.55321 0
M  V30 5125 C 473.787 -2.26636 -3.80987 0
M  V30 5126 H 471.007 -0.465967 -0.482821 0
M  V30 5127 H 473.551 -1.80901 -0.953686 0
M  V30 5128 H 471.706 -1.78768 -3.43687 0
M  V30 5129 H 472.12 -4.0009 -3.39158 0
M  V30 5130 H 473.594 -2.89763 -4.69831 0
M  V30 5131 H 474.071 -1.2754 -4.20274 0
M  V30 5132 H 474.677 -2.68296 -3.29996 0
M  V30 5133 N 472.992 0.995999 -1.22138 0
M  V30 5134 C 474.238 1.73767 -1.04561 0
M  V30 5135 C 474.571 1.89633 0.418698 0
M  V30 5136 O 473.846 1.43723 1.3105 0
M  V30 5137 C 474.129 3.14505 -1.75382 0
M  V30 5138 C 473.982 3.06306 -3.29388 0
M  V30 5139 C 475.301 4.13615 -1.50369 0
M  V30 5140 H 472.42 0.630728 -0.38125 0
M  V30 5141 H 475.062 1.16057 -1.50435 0
M  V30 5142 H 473.212 3.63775 -1.36383 0
M  V30 5143 H 474.884 2.64681 -3.77812 0
M  V30 5144 H 473.127 2.43186 -3.59226 0
M  V30 5145 H 473.798 4.05884 -3.74116 0
M  V30 5146 H 476.274 3.73089 -1.84239 0
M  V30 5147 H 475.15 5.10212 -2.02421 0
M  V30 5148 H 475.411 4.39949 -0.435611 0
M  V30 5149 N 474.47 1.03057 1.19235 0
M  V30 5150 C 475.38 0.622922 2.26179 0
M  V30 5151 C 476.396 -0.346113 1.70523 0
M  V30 5152 O 477.572 -0.203572 2.00369 0
M  V30 5153 C 474.637 -0.0182063 3.46695 0
M  V30 5154 C 473.698 0.998546 4.17526 0
M  V30 5155 C 472.931 0.387917 5.32288 0
M  V30 5156 O 473.154 -0.808668 5.64639 0
M  V30 5157 O 472.088 1.1116 5.91546 0
M  V30 5158 H 475.914 1.51363 2.63292 0
M  V30 5159 H 473.499 0.800856 1.26122 0
M  V30 5160 H 475.381 -0.375606 4.19723 0
M  V30 5161 H 474.056 -0.882895 3.11427 0
M  V30 5162 H 472.963 1.40756 3.4661 0
M  V30 5163 H 474.296 1.83366 4.56769 0
M  V30 5164 N 475.948 -1.35272 0.808662 0
M  V30 5165 C 476.858 -2.33546 0.222079 0
M  V30 5166 C 477.874 -1.6196 -0.636011 0
M  V30 5167 O 479.05 -1.93822 -0.547274 0
M  V30 5168 C 476.115 -3.41148 -0.61795 0
M  V30 5169 C 475.176 -4.28507 0.260875 0
M  V30 5170 C 474.409 -5.3097 -0.539156 0
M  V30 5171 O 474.632 -5.42123 -1.77367 0
M  V30 5172 O 473.566 -6.01858 0.0710526 0
M  V30 5173 H 477.392 -2.85515 1.03512 0
M  V30 5174 H 474.977 -1.38079 0.570495 0
M  V30 5175 H 476.859 -4.06889 -1.09634 0
M  V30 5176 H 475.534 -2.91447 -1.40855 0
M  V30 5177 H 474.441 -3.6574 0.786451 0
M  V30 5178 H 475.774 -4.81611 1.01547 0
M  V30 5179 N 477.426 -0.562348 -1.47226 0
M  V30 5180 C 478.389 0.172056 -2.28553 0
M  V30 5181 C 479.389 0.837928 -1.37242 0
M  V30 5182 O 480.579 0.693001 -1.59822 0
M  V30 5183 C 477.711 1.25223 -3.17068 0
M  V30 5184 H 478.904 -0.542401 -2.94954 0
M  V30 5185 H 476.457 -0.319493 -1.53 0
M  V30 5186 H 477.192 1.99892 -2.55369 0
M  V30 5187 H 476.977 0.779515 -3.84273 0
M  V30 5188 H 478.467 1.76791 -3.78332 0
M  V30 5189 N 478.904 1.54736 -0.299062 0
M  V30 5190 C 479.834 2.26409 0.571085 0
M  V30 5191 C 480.815 1.2629 1.13951 0
M  V30 5192 O 482 1.55059 1.16921 0
M  V30 5193 C 479.13 3.00338 1.74396 0
M  V30 5194 C 478.084 4.07588 1.30599 0
M  V30 5195 C 477.41 4.69222 2.56387 0
M  V30 5196 C 478.71 5.20455 0.438645 0
M  V30 5197 H 480.404 2.99388 -0.0266991 0
M  V30 5198 H 477.95 1.43993 -0.0142812 0
M  V30 5199 H 479.903 3.49198 2.35878 0
M  V30 5200 H 478.627 2.24934 2.36796 0
M  V30 5201 H 477.286 3.59575 0.71424 0
M  V30 5202 H 476.934 3.9046 3.17097 0
M  V30 5203 H 476.634 5.41653 2.27784 0
M  V30 5204 H 478.158 5.20844 3.18675 0
M  V30 5205 H 479.572 5.65221 0.959085 0
M  V30 5206 H 477.969 5.99594 0.246466 0
M  V30 5207 H 479.039 4.8192 -0.536738 0
M  V30 5208 N 480.382 0.0267497 1.57577 0
M  V30 5209 C 481.345 -0.940916 2.08996 0
M  V30 5210 C 482.345 -1.25561 1.00455 0
M  V30 5211 O 483.535 -1.19634 1.26623 0
M  V30 5212 C 480.667 -2.25814 2.55384 0
M  V30 5213 H 481.86 -0.495628 2.95776 0
M  V30 5214 H 479.413 -0.221241 1.54726 0
M  V30 5215 H 480.148 -2.74976 1.71926 0
M  V30 5216 H 479.933 -2.04285 3.34679 0
M  V30 5217 H 481.423 -2.95178 2.95398 0
M  V30 5218 N 481.861 -1.55662 -0.24637 0
M  V30 5219 C 482.811 -1.86753 -1.30795 0
M  V30 5220 C 483.795 -0.728445 -1.43466 0
M  V30 5221 O 484.987 -0.99038 -1.46699 0
M  V30 5222 C 482.116 -2.16618 -2.66329 0
M  V30 5223 C 481.202 -3.36855 -2.57661 0
M  V30 5224 N 481.593 -4.56111 -2.18624 0
M  V30 5225 C 479.891 -3.39976 -2.88673 0
M  V30 5226 C 480.592 -5.38247 -2.20601 0
M  V30 5227 N 479.568 -4.77322 -2.60124 0
M  V30 5228 H 483.37 -2.76486 -0.996642 0
M  V30 5229 H 480.884 -1.55896 -0.454994 0
M  V30 5230 H 482.881 -2.37057 -3.42942 0
M  V30 5231 H 481.541 -1.28185 -2.98327 0
M  V30 5232 H 482.552 -4.81726 -1.9016 0
M  V30 5233 H 479.229 -2.61815 -3.25206 0
M  V30 5234 H 480.619 -6.43657 -1.92756 0
M  V30 5235 N 483.339 0.512053 -1.4905 0
M  V30 5236 C 484.75 1.09376 -1.51307 0
M  V30 5237 C 485.101 1.94 -0.292971 0
M  V30 5238 O 484.226 2.07965 0.598277 0
M  V30 5239 C 484.821 1.99031 -2.74176 0
M  V30 5240 C 483.38 2.52385 -2.79247 0
M  V30 5241 C 482.527 1.29749 -2.45073 0
M  V30 5242 H 485.478 0.296467 -1.55906 0
M  V30 5243 H 485.499 2.83569 -2.53711 0
M  V30 5244 H 485.011 1.37412 -3.62959 0
M  V30 5245 H 483.112 3.17673 -1.94716 0
M  V30 5246 H 483.225 2.90293 -3.81139 0
M  V30 5247 H 481.589 1.61912 -1.96612 0
M  V30 5248 H 482.372 0.698555 -3.36118 0
M  V30 5249 N 484.817 1.37938 0.762283 0
M  V30 5250 C 486.047 1.36685 1.54922 0
M  V30 5251 C 486.455 -0.0474099 1.89141 0
M  V30 5252 O 485.798 -1.02213 1.52638 0
M  V30 5253 C 485.86 2.14963 2.88152 0
M  V30 5254 C 485.524 3.6385 2.76518 0
M  V30 5255 C 486.521 4.57531 2.46904 0
M  V30 5256 C 484.206 4.07095 2.94243 0
M  V30 5257 C 486.2 5.92436 2.35156 0
M  V30 5258 C 483.887 5.42083 2.82116 0
M  V30 5259 C 484.885 6.34567 2.52614 0
M  V30 5260 O 484.573 7.67073 2.40529 0
M  V30 5261 H 484.305 0.469586 0.486276 0
M  V30 5262 H 486.859 1.82012 0.951876 0
M  V30 5263 H 485.089 1.6434 3.50042 0
M  V30 5264 H 486.778 2.06224 3.49609 0
M  V30 5265 H 487.544 4.25428 2.32886 0
M  V30 5266 H 483.423 3.35462 3.16206 0
M  V30 5267 H 486.967 6.64591 2.12049 0
M  V30 5268 H 482.864 5.73785 2.95704 0
M  V30 5269 H 483.632 7.77499 2.55807 0
M  V30 5270 N 486.295 -0.989507 1.22664 0
M  V30 5271 C 487.225 -2.09847 1.02404 0
M  V30 5272 C 488.206 -1.70007 -0.0561303 0
M  V30 5273 O 489.391 -1.93906 0.106748 0
M  V30 5274 C 486.521 -3.41996 0.604663 0
M  V30 5275 C 485.475 -3.95699 1.63115 0
M  V30 5276 C 484.801 -5.23936 1.0675 0
M  V30 5277 C 486.101 -4.25999 3.02196 0
M  V30 5278 H 487.795 -2.27054 1.95158 0
M  V30 5279 H 485.341 -1.09111 0.939727 0
M  V30 5280 H 487.294 -4.1899 0.45002 0
M  V30 5281 H 486.018 -3.24626 -0.35855 0
M  V30 5282 H 484.677 -3.2084 1.77362 0
M  V30 5283 H 484.325 -5.02909 0.0955422 0
M  V30 5284 H 484.025 -5.60833 1.75328 0
M  V30 5285 H 485.549 -6.0356 0.924516 0
M  V30 5286 H 486.963 -4.93777 2.91303 0
M  V30 5287 H 485.36 -4.74076 3.67929 0
M  V30 5288 H 486.43 -3.33636 3.51873 0
M  V30 5289 N 487.773 -1.03688 -1.18687 0
M  V30 5290 C 488.683 -0.634908 -2.25845 0
M  V30 5291 C 489.699 0.337065 -1.70704 0
M  V30 5292 O 490.875 0.192943 -2.00474 0
M  V30 5293 C 487.94 -0.000180054 -3.467 0
M  V30 5294 C 487.001 -1.02067 -4.1699 0
M  V30 5295 C 486.234 -0.41614 -5.32075 0
M  V30 5296 O 486.457 0.778712 -5.65059 0
M  V30 5297 O 485.391 -1.14296 -5.90948 0
M  V30 5298 H 489.217 -1.52757 -2.62486 0
M  V30 5299 H 486.802 -0.807533 -1.25695 0
M  V30 5300 H 488.684 0.353342 -4.19916 0
M  V30 5301 H 487.359 0.866367 -3.11891 0
M  V30 5302 H 486.266 -1.42592 -3.45859 0
M  V30 5303 H 487.599 -1.85786 -4.5579 0
M  V30 5304 N 489.251 1.34841 -0.815825 0
M  V30 5305 C 490.183 2.28409 -0.190265 0
M  V30 5306 C 491.196 1.50705 0.615771 0
M  V30 5307 O 492.385 1.72822 0.446616 0
M  V30 5308 C 489.485 3.30441 0.752446 0
M  V30 5309 C 488.658 4.37399 -0.00922152 0
M  V30 5310 C 487.717 5.19234 0.853351 0
M  V30 5311 O 486.743 5.68404 0.300919 0
M  V30 5312 N 487.945 5.38248 2.17416 0
M  V30 5313 H 490.71 2.82732 -0.994114 0
M  V30 5314 H 488.271 1.47289 -0.672129 0
M  V30 5315 H 490.263 3.82084 1.33394 0
M  V30 5316 H 488.833 2.76565 1.45707 0
M  V30 5317 H 488.053 3.86567 -0.771979 0
M  V30 5318 H 489.341 5.05992 -0.533807 0
M  V30 5319 H 488.739 4.99961 2.6468 0
M  V30 5320 H 487.296 5.93035 2.70467 0
M  V30 5321 N 490.729 0.570148 1.46925 0
M  V30 5322 C 491.959 0.0561151 2.06524 0
M  V30 5323 C 492.367 -1.24874 1.42137 0
M  V30 5324 O 491.71 -1.76292 0.516417 0
M  V30 5325 C 491.772 -0.197035 3.5896 0
M  V30 5326 C 491.436 1.02033 4.45464 0
M  V30 5327 C 492.433 1.92921 4.82781 0
M  V30 5328 C 490.118 1.23864 4.86788 0
M  V30 5329 C 492.112 3.03999 5.60235 0
M  V30 5330 C 489.799 2.35249 5.64004 0
M  V30 5331 C 490.797 3.25146 6.0064 0
M  V30 5332 O 490.485 4.34598 6.76299 0
M  V30 5333 H 490.217 0.0487409 0.674241 0
M  V30 5334 H 492.771 0.786915 1.89728 0
M  V30 5335 H 491.001 -0.982299 3.74016 0
M  V30 5336 H 492.69 -0.658032 4.00531 0
M  V30 5337 H 493.456 1.77265 4.51444 0
M  V30 5338 H 489.335 0.54805 4.57731 0
M  V30 5339 H 492.879 3.74192 5.8875 0
M  V30 5340 H 488.776 2.50873 5.94755 0
M  V30 5341 H 489.544 4.32808 6.94708 0
M  V30 5342 N 492.207 -1.54576 0.307264 0
M  V30 5343 C 493.437 -2.04378 -0.302158 0
M  V30 5344 C 493.845 -1.18381 -1.47589 0
M  V30 5345 O 493.188 -0.20352 -1.82569 0
M  V30 5346 C 493.25 -3.50133 -0.815305 0
M  V30 5347 C 492.914 -4.56401 0.233977 0
M  V30 5348 C 493.911 -5.08884 1.06456 0
M  V30 5349 C 491.596 -5.0088 0.377478 0
M  V30 5350 C 493.59 -6.04394 2.02452 0
M  V30 5351 C 491.277 -5.96208 1.34088 0
M  V30 5352 C 492.275 -6.47849 2.16288 0
M  V30 5353 O 491.963 -7.41308 3.10994 0
M  V30 5354 H 491.695 -0.672502 -0.0686839 0
M  V30 5355 H 494.249 -2.00484 0.446682 0
M  V30 5356 H 492.479 -3.51371 -1.61478 0
M  V30 5357 H 494.168 -3.83098 -1.34129 0
M  V30 5358 H 494.934 -4.75311 0.964596 0
M  V30 5359 H 490.813 -4.60309 -0.252405 0
M  V30 5360 H 494.357 -6.44626 2.66652 0
M  V30 5361 H 490.254 -6.29198 1.44154 0
M  V30 5362 H 491.022 -7.5913 3.06045 0
M  V30 5363 N 493.685 -0.035106 -1.57561 0
M  V30 5364 C 494.962 0.681212 -1.83354 0
M  V30 5365 C 495.342 1.89986 -0.920252 0
M  V30 5366 O 494.69 2.28489 0.0226815 0
M  V30 5367 C 494.9 1.05376 -3.32712 0
M  V30 5368 C 496.248 1.44286 -3.99333 0
M  V30 5369 O 497.272 1.14656 -3.37242 0
M  V30 5370 O 496.131 1.99518 -5.08778 0
M  V30 5371 H 493.225 0.334741 -0.756226 0
M  V30 5372 H 495.771 -0.0632448 -1.69582 0
M  V30 5373 H 494.543 0.186668 -3.90854 0
M  V30 5374 H 494.166 1.85619 -3.51613 0
M  V30 5375 N 495.163 1.55791 0.238111 0
M  V30 5376 C 496.574 1.68383 0.806472 0
M  V30 5377 C 496.925 0.634157 1.85669 0
M  V30 5378 O 496.05 -0.217913 2.153 0
M  V30 5379 C 496.645 3.05268 1.46959 0
M  V30 5380 C 495.204 3.1977 1.98555 0
M  V30 5381 C 494.351 2.64279 0.839763 0
M  V30 5382 H 497.302 1.58694 0.0137535 0
M  V30 5383 H 497.323 3.00203 2.33792 0
M  V30 5384 H 496.835 3.81643 0.704993 0
M  V30 5385 H 494.936 2.48234 2.77868 0
M  V30 5386 H 495.049 4.26788 2.17689 0
M  V30 5387 H 493.413 2.22329 1.24265 0
M  V30 5388 H 494.196 3.43187 0.0881032 0
M  V30 5389 N 496.642 -0.504142 1.49319 0
M  V30 5390 C 497.87 -1.28256 1.62351 0
M  V30 5391 C 498.285 -1.86502 0.293682 0
M  V30 5392 O 497.642 -1.67678 -0.720449 0
M  V30 5393 C 497.693 -2.41507 2.68992 0
M  V30 5394 O 497.414 -1.85656 3.96817 0
M  V30 5395 C 498.915 -3.32929 2.927 0
M  V30 5396 H 496.135 -0.389115 0.546654 0
M  V30 5397 H 498.679 -0.605531 1.95329 0
M  V30 5398 H 496.834 -3.05046 2.38801 0
M  V30 5399 H 497.248 -2.59981 4.55533 0
M  V30 5400 H 498.722 -4.0868 3.71058 0
M  V30 5401 H 499.199 -3.89733 2.02496 0
M  V30 5402 H 499.805 -2.75158 3.24296 0
M  V30 5403 N 498.12 -1.38341 -0.754957 0
M  V30 5404 C 499.397 -1.24995 -1.50451 0
M  V30 5405 C 499.777 0.149244 -2.10572 0
M  V30 5406 O 499.125 1.15861 -1.96948 0
M  V30 5407 C 499.335 -2.35904 -2.57197 0
M  V30 5408 C 500.683 -2.74262 -3.24138 0
M  V30 5409 O 501.707 -2.35205 -2.67501 0
M  V30 5410 O 500.566 -3.4161 -4.26574 0
M  V30 5411 H 497.66 -0.48872 -0.667144 0
M  V30 5412 H 500.206 -1.50165 -0.790486 0
M  V30 5413 H 498.978 -3.2953 -2.11011 0
M  V30 5414 H 498.601 -2.12291 -3.36182 0
M  V30 5415 N 499.598 0.982988 -1.23187 0
M  V30 5416 C 500.508 2.10907 -1.02739 0
M  V30 5417 C 501.524 1.73979 0.0273188 0
M  V30 5418 O 502.7 2.00702 -0.16757 0
M  V30 5419 C 499.765 3.41142 -0.618304 0
M  V30 5420 C 498.826 3.92112 -1.74777 0
M  V30 5421 C 498.059 5.16131 -1.3581 0
M  V30 5422 O 498.282 5.6989 -0.241201 0
M  V30 5423 O 497.216 5.61103 -2.17824 0
M  V30 5424 H 501.042 2.31046 -1.97108 0
M  V30 5425 H 498.627 1.09284 -1.01869 0
M  V30 5426 H 500.509 4.19488 -0.400982 0
M  V30 5427 H 499.184 3.2234 0.296421 0
M  V30 5428 H 498.091 3.14895 -2.0197 0
M  V30 5429 H 499.424 4.15364 -2.64071 0
M  V30 5430 N 501.076 1.04316 1.18135 0
M  V30 5431 C 502.487 0.775505 1.69832 0
M  V30 5432 C 502.838 -0.703348 1.8316 0
M  V30 5433 O 501.963 -1.54729 1.51287 0
M  V30 5434 C 502.558 1.40112 3.0847 0
M  V30 5435 C 501.117 1.18172 3.57368 0
M  V30 5436 C 500.264 1.49022 2.33854 0
M  V30 5437 H 503.215 1.20925 1.02775 0
M  V30 5438 H 503.236 0.805672 3.71873 0
M  V30 5439 H 502.748 2.47744 2.98738 0
M  V30 5440 H 500.849 0.124258 3.72393 0
M  V30 5441 H 500.962 1.8805 4.40652 0
M  V30 5442 H 499.326 0.909995 2.37889 0
M  V30 5443 H 500.109 2.57768 2.26738 0
M  V30 5444 N 502.554 -1.34406 0.822964 0
M  V30 5445 C 503.8 -1.98578 0.411666 0
M  V30 5446 C 504.133 -1.65093 -1.02264 0
M  V30 5447 O 503.408 -0.92258 -1.71227 0
M  V30 5448 C 503.691 -3.54823 0.614235 0
M  V30 5449 C 503.544 -3.9805 2.09466 0
M  V30 5450 C 504.863 -4.40071 0.050221 0
M  V30 5451 H 501.982 -0.721355 0.151047 0
M  V30 5452 H 504.624 -1.59301 1.03554 0
M  V30 5453 H 502.774 -3.88411 0.0831774 0
M  V30 5454 H 504.446 -3.74795 2.68936 0
M  V30 5455 H 502.689 -3.4836 2.5851 0
M  V30 5456 H 503.36 -5.06819 2.18721 0
M  V30 5457 H 505.836 -4.13037 0.503953 0
M  V30 5458 H 504.712 -5.48452 0.221759 0
M  V30 5459 H 504.973 -4.29576 -1.04482 0
M  V30 5460 N 504.032 -0.577932 -1.46621 0
M  V30 5461 C 504.995 0.147805 -2.28723 0
M  V30 5462 C 505.995 0.823325 -1.38123 0
M  V30 5463 O 507.185 0.676011 -1.60548 0
M  V30 5464 C 504.317 1.21853 -3.18378 0
M  V30 5465 H 505.51 -0.573654 -2.94362 0
M  V30 5466 H 503.063 -0.335703 -1.52652 0
M  V30 5467 H 503.798 1.97173 -2.57475 0
M  V30 5468 H 503.583 0.738714 -3.85078 0
M  V30 5469 H 505.073 1.72768 -3.80186 0
M  V30 5470 N 505.51 1.54411 -0.315457 0
M  V30 5471 C 506.42 2.27737 0.56329 0
M  V30 5472 C 507.436 1.31787 1.13614 0
M  V30 5473 O 508.612 1.64791 1.15784 0
M  V30 5474 C 505.677 3.01478 1.71207 0
M  V30 5475 C 504.738 4.12997 1.17185 0
M  V30 5476 C 503.971 4.83212 2.26588 0
M  V30 5477 O 504.194 4.52884 3.46775 0
M  V30 5478 O 503.128 5.70299 1.92463 0
M  V30 5479 H 506.954 3.03683 -0.0319614 0
M  V30 5480 H 504.539 1.49178 -0.0814188 0
M  V30 5481 H 506.421 3.47683 2.38106 0
M  V30 5482 H 505.096 2.28414 2.29366 0
M  V30 5483 H 504.003 3.71159 0.468174 0
M  V30 5484 H 505.336 4.8808 0.635501 0
M  V30 5485 N 506.988 0.0434614 1.5754 0
M  V30 5486 C 507.898 -0.94893 2.14552 0
M  V30 5487 C 508.914 -1.34707 1.10136 0
M  V30 5488 O 510.09 -1.42557 1.42266 0
M  V30 5489 C 507.155 -2.208 2.67298 0
M  V30 5490 C 506.216 -1.86893 3.86484 0
M  V30 5491 C 505.449 -3.06797 4.36705 0
M  V30 5492 O 505.672 -4.19921 3.86034 0
M  V30 5493 O 504.606 -2.8826 5.28384 0
M  V30 5494 H 508.432 -0.494099 2.99654 0
M  V30 5495 H 506.017 -0.177989 1.48336 0
M  V30 5496 H 507.899 -2.94686 3.01228 0
M  V30 5497 H 506.574 -2.65436 1.85272 0
M  V30 5498 H 505.481 -1.10347 3.57455 0
M  V30 5499 H 506.814 -1.47062 4.69716 0
M  V30 5500 N 508.466 -1.55915 -0.229846 0
M  V30 5501 C 509.877 -1.68809 -0.797531 0
M  V30 5502 C 510.228 -0.643995 -1.8533 0
M  V30 5503 O 509.353 0.206492 -2.15413 0
M  V30 5504 C 509.948 -3.06043 -1.45338 0
M  V30 5505 C 508.507 -3.20819 -1.96856 0
M  V30 5506 C 507.654 -2.6472 -0.825736 0
M  V30 5507 H 510.605 -1.58699 -0.00533733 0
M  V30 5508 H 510.626 -3.01438 -2.32196 0
M  V30 5509 H 510.138 -3.82012 -0.684743 0
M  V30 5510 H 508.239 -2.49704 -2.76548 0
M  V30 5511 H 508.352 -4.27937 -2.15423 0
M  V30 5512 H 506.716 -2.22985 -1.23084 0
M  V30 5513 H 507.499 -3.43229 -0.0699019 0
M  V30 5514 N 509.944 0.496216 -1.49584 0
M  V30 5515 C 511.191 1.25003 -1.59312 0
M  V30 5516 C 511.519 1.92445 -0.28198 0
M  V30 5517 O 510.774 1.81557 0.730452 0
M  V30 5518 C 511.073 2.3359 -2.705 0
M  V30 5519 C 510.739 1.83574 -4.11839 0
M  V30 5520 C 509.401 1.69653 -4.50302 0
M  V30 5521 C 511.753 1.46193 -5.00277 0
M  V30 5522 C 509.081 1.16736 -5.74969 0
M  V30 5523 C 511.433 0.947265 -6.25468 0
M  V30 5524 C 510.097 0.794485 -6.62755 0
M  V30 5525 H 509.367 0.45742 -0.582965 0
M  V30 5526 H 512.014 0.549996 -1.83432 0
M  V30 5527 H 510.319 3.09401 -2.40371 0
M  V30 5528 H 512.016 2.91627 -2.75235 0
M  V30 5529 H 508.606 1.9537 -3.81482 0
M  V30 5530 H 512.79 1.55793 -4.71214 0
M  V30 5531 H 508.046 1.03623 -6.02555 0
M  V30 5532 H 512.22 0.648846 -6.93371 0
M  V30 5533 H 509.847 0.382271 -7.59238 0
M  V30 5534 N 511.423 1.38739 0.74761 0
M  V30 5535 C 512.651 1.38521 1.53686 0
M  V30 5536 C 513.066 -0.0235129 1.88785 0
M  V30 5537 O 512.423 -0.991662 1.53207 0
M  V30 5538 C 512.474 2.24641 2.83229 0
M  V30 5539 O 512.195 3.60026 2.49625 0
M  V30 5540 C 513.696 2.32669 3.77333 0
M  V30 5541 H 510.916 0.473589 0.475347 0
M  V30 5542 H 513.46 1.82395 0.924786 0
M  V30 5543 H 511.615 1.84213 3.40799 0
M  V30 5544 H 512.029 4.05435 3.3275 0
M  V30 5545 H 513.503 2.97201 4.65162 0
M  V30 5546 H 513.98 1.3421 4.18192 0
M  V30 5547 H 514.586 2.73512 3.25685 0
M  V30 5548 N 512.901 -0.976442 1.23707 0
M  V30 5549 C 514.148 -1.71827 1.07153 0
M  V30 5550 C 514.476 -1.9053 -0.390982 0
M  V30 5551 O 513.731 -1.45779 -1.30564 0
M  V30 5552 C 514.03 -3.11814 1.74662 0
M  V30 5553 C 513.696 -3.12978 3.24585 0
M  V30 5554 C 512.358 -3.13003 3.6549 0
M  V30 5555 C 514.71 -3.07986 4.20469 0
M  V30 5556 C 512.038 -3.05757 5.00729 0
M  V30 5557 C 514.39 -3.02282 5.55705 0
M  V30 5558 C 513.054 -3.00631 5.95968 0
M  V30 5559 H 512.324 -0.628758 0.392102 0
M  V30 5560 H 514.971 -1.14239 1.53693 0
M  V30 5561 H 513.276 -3.72812 1.20492 0
M  V30 5562 H 514.973 -3.67989 1.59328 0
M  V30 5563 H 511.563 -3.13718 2.92026 0
M  V30 5564 H 515.747 -3.07103 3.89874 0
M  V30 5565 H 511.003 -3.02834 5.31132 0
M  V30 5566 H 515.177 -2.97376 6.29714 0
M  V30 5567 H 512.804 -2.94771 7.00724 0
M  V30 5568 N 514.379 -1.04941 -1.1758 0
M  V30 5569 C 515.342 -0.652456 -2.19717 0
M  V30 5570 C 516.342 0.294745 -1.58076 0
M  V30 5571 O 517.532 0.0789579 -1.74021 0
M  V30 5572 C 514.664 0.0420712 -3.40874 0
M  V30 5573 H 515.857 -1.55642 -2.5635 0
M  V30 5574 H 513.41 -0.842995 -1.31618 0
M  V30 5575 H 514.145 0.95943 -3.09783 0
M  V30 5576 H 513.93 -0.638844 -3.86861 0
M  V30 5577 H 515.42 0.306 -4.16477 0
M  V30 5578 N 515.857 1.33968 -0.830081 0
M  V30 5579 C 516.79 2.27303 -0.202182 0
M  V30 5580 C 517.768 1.49235 0.645581 0
M  V30 5581 O 518.952 1.78433 0.607762 0
M  V30 5582 C 516.079 3.31025 0.716932 0
M  V30 5583 C 515.125 4.26466 -0.0542271 0
M  V30 5584 S 515.958 5.16707 -1.40622 0
M  V30 5585 C 517.114 6.23962 -0.492167 0
M  V30 5586 H 517.347 2.8021 -0.99346 0
M  V30 5587 H 514.88 1.41124 -0.626359 0
M  V30 5588 H 516.838 3.91271 1.24165 0
M  V30 5589 H 515.499 2.76951 1.4818 0
M  V30 5590 H 514.692 4.99858 0.644785 0
M  V30 5591 H 514.294 3.7051 -0.509722 0
M  V30 5592 H 516.586 6.76774 0.31347 0
M  V30 5593 H 517.529 6.97927 -1.19599 0
M  V30 5594 H 517.937 5.64447 -0.0774176 0
M  V30 5595 N 517.335 0.585699 1.46312 0
M  V30 5596 C 518.245 -0.148236 2.34131 0
M  V30 5597 C 519.261 -0.882972 1.49932 0
M  V30 5598 O 520.437 -0.845484 1.82794 0
M  V30 5599 C 517.502 -1.14714 3.27172 0
M  V30 5600 C 516.563 -0.416746 4.27272 0
M  V30 5601 C 515.796 -1.36806 5.15868 0
M  V30 5602 O 516.019 -2.60475 5.07454 0
M  V30 5603 O 514.953 -0.877018 5.95476 0
M  V30 5604 H 518.779 0.572882 2.98248 0
M  V30 5605 H 516.364 0.346082 1.45336 0
M  V30 5606 H 518.246 -1.72303 3.84564 0
M  V30 5607 H 516.921 -1.84967 2.65648 0
M  V30 5608 H 515.828 0.201061 3.73559 0
M  V30 5609 H 517.161 0.244872 4.9159 0
M  V30 5610 N 518.813 -1.54241 0.323641 0
M  V30 5611 C 519.743 -2.27289 -0.534993 0
M  V30 5612 C 520.724 -1.28087 -1.11927 0
M  V30 5613 O 521.909 -1.56899 -1.14439 0
M  V30 5614 C 519.039 -3.03075 -1.69596 0
M  V30 5615 C 517.993 -4.09614 -1.24098 0
M  V30 5616 C 517.319 -4.73242 -2.4889 0
M  V30 5617 C 518.619 -5.21087 -0.355789 0
M  V30 5618 H 520.313 -2.99308 0.0743257 0
M  V30 5619 H 517.859 -1.43952 0.0371874 0
M  V30 5620 H 519.812 -3.52907 -2.30293 0
M  V30 5621 H 518.536 -2.28673 -2.33187 0
M  V30 5622 H 517.195 -3.60666 -0.656945 0
M  V30 5623 H 516.843 -3.95455 -3.10845 0
M  V30 5624 H 516.543 -5.45209 -2.19138 0
M  V30 5625 H 518.067 -5.25848 -3.10348 0
M  V30 5626 H 519.481 -5.66675 -0.869042 0
M  V30 5627 H 517.878 -5.9991 -0.151045 0
M  V30 5628 H 518.948 -4.81005 0.613339 0
M  V30 5629 N 520.291 -0.0518155 -1.57515 0
M  V30 5630 C 521.568 0.661727 -1.84067 0
M  V30 5631 C 521.948 1.88999 -0.940351 0
M  V30 5632 O 521.296 2.285 -0.00155404 0
M  V30 5633 C 521.506 1.01841 -3.3381 0
M  V30 5634 C 522.854 1.40043 -4.00841 0
M  V30 5635 O 523.878 1.11073 -3.38439 0
M  V30 5636 O 522.737 1.94111 -5.10865 0
M  V30 5637 H 519.831 0.326702 -0.759733 0
M  V30 5638 H 522.377 -0.0812277 -1.69505 0
M  V30 5639 H 521.149 0.145202 -3.91031 0
M  V30 5640 H 520.772 1.81879 -3.53562 0
M  V30 5641 N 521.769 1.56035 0.221574 0
M  V30 5642 C 523.046 1.69837 0.970301 0
M  V30 5643 C 523.426 0.599065 2.02421 0
M  V30 5644 O 522.774 -0.393929 2.25079 0
M  V30 5645 C 522.984 3.11148 1.58076 0
M  V30 5646 C 524.332 3.70555 2.07302 0
M  V30 5647 O 525.356 3.14109 1.6797 0
M  V30 5648 O 524.215 4.69562 2.79596 0
M  V30 5649 H 521.309 0.691727 0.453257 0
M  V30 5650 H 523.855 1.68353 0.213358 0
M  V30 5651 H 522.627 3.82617 0.819759 0
M  V30 5652 H 522.25 3.16749 2.40324 0
M  V30 5653 N 523.247 -0.488276 1.49845 0
M  V30 5654 C 524.177 -1.59675 1.70371 0
M  V30 5655 C 525.158 -1.60878 0.552473 0
M  V30 5656 O 526.343 -1.77417 0.78973 0
M  V30 5657 C 523.473 -2.98098 1.782 0
M  V30 5658 C 522.427 -3.11761 2.93239 0
M  V30 5659 C 521.753 -4.51661 2.86193 0
M  V30 5660 C 523.053 -2.90589 4.33999 0
M  V30 5661 H 524.747 -1.42752 2.63177 0
M  V30 5662 H 522.293 -0.685317 1.26647 0
M  V30 5663 H 524.246 -3.75555 1.91144 0
M  V30 5664 H 522.97 -3.16138 0.820018 0
M  V30 5665 H 521.629 -2.36732 2.79917 0
M  V30 5666 H 521.277 -4.66595 1.87877 0
M  V30 5667 H 520.977 -4.61742 3.63412 0
M  V30 5668 H 522.501 -5.31162 3.01163 0
M  V30 5669 H 523.915 -3.57807 4.47936 0
M  V30 5670 H 522.312 -3.1213 5.12538 0
M  V30 5671 H 523.382 -1.86595 4.4756 0
M  V30 5672 N 524.725 -1.39134 -0.740242 0
M  V30 5673 C 526.136 -1.32208 -1.31825 0
M  V30 5674 C 526.487 0.0159919 -1.96193 0
M  V30 5675 O 525.612 0.918111 -1.95958 0
M  V30 5676 C 526.207 -2.39436 -2.39699 0
M  V30 5677 C 524.766 -2.36048 -2.93187 0
M  V30 5678 C 523.913 -2.21599 -1.66701 0
M  V30 5679 H 526.864 -1.49298 -0.538133 0
M  V30 5680 H 526.885 -2.05922 -3.19963 0
M  V30 5681 H 526.397 -3.36811 -1.92821 0
M  V30 5682 H 524.498 -1.42295 -3.44359 0
M  V30 5683 H 524.611 -3.30704 -3.46658 0
M  V30 5684 H 522.975 -1.68681 -1.90837 0
M  V30 5685 H 523.758 -3.20936 -1.21882 0
M  V30 5686 N 526.204 0.969867 -1.24223 0
M  V30 5687 C 527.151 2.06407 -1.0327 0
M  V30 5688 C 528.121 1.66014 0.0533 0
M  V30 5689 O 529.306 1.90533 -0.100896 0
M  V30 5690 C 526.446 3.3909 -0.641262 0
M  V30 5691 C 525.559 3.9269 -1.80051 0
M  V30 5692 C 524.694 5.13631 -1.35486 0
M  V30 5693 C 523.733 5.59423 -2.48419 0
M  V30 5694 N 522.87 6.71586 -2.04737 0
M  V30 5695 H 527.71 2.23663 -1.96923 0
M  V30 5696 H 525.247 1.09624 -0.980862 0
M  V30 5697 H 527.205 4.15323 -0.395351 0
M  V30 5698 H 525.835 3.21765 0.258269 0
M  V30 5699 H 524.887 3.13116 -2.16014 0
M  V30 5700 H 526.199 4.22636 -2.64916 0
M  V30 5701 H 525.353 5.97231 -1.0677 0
M  V30 5702 H 524.092 4.85364 -0.476722 0
M  V30 5703 H 523.097 4.74398 -2.77897 0
M  V30 5704 H 524.322 5.89705 -3.36786 0
M  V30 5705 H 522.268 6.45058 -1.19318 0
M  V30 5706 H 522.185 7.0097 -2.83156 0
M  V30 5707 H 523.453 7.58633 -1.79154 0
M  V30 5708 N 527.682 1.05563 1.17022 0
M  V30 5709 C 528.592 0.670758 2.24807 0
M  V30 5710 C 529.608 -0.309865 1.71219 0
M  V30 5711 O 530.784 -0.161025 2.00755 0
M  V30 5712 C 527.849 0.055337 3.46656 0
M  V30 5713 C 526.91 1.08688 4.15314 0
M  V30 5714 C 526.143 0.500736 5.31346 0
M  V30 5715 O 526.366 -0.688718 5.66227 0
M  V30 5716 O 525.3 1.23683 5.89055 0
M  V30 5717 H 529.126 1.56914 2.60023 0
M  V30 5718 H 526.711 0.827428 1.24395 0
M  V30 5719 H 528.593 -0.286492 4.20425 0
M  V30 5720 H 527.268 -0.816638 3.13229 0
M  V30 5721 H 526.175 1.48077 3.43546 0
M  V30 5722 H 527.508 1.93014 4.52777 0
M  V30 5723 N 529.16 -1.33526 0.837174 0
M  V30 5724 C 530.576 -1.50727 0.524743 0
M  V30 5725 C 530.776 -1.77792 -0.948279 0
M  V30 5726 O 529.832 -1.83719 -1.73216 0
M  V30 5727 C 531.145 -2.66299 1.39661 0
M  V30 5728 C 532.693 -2.80183 1.39521 0
M  V30 5729 C 533.168 -3.98815 2.25189 0
M  V30 5730 N 534.659 -4.06047 2.2289 0
M  V30 5731 C 535.394 -4.97032 2.85915 0
M  V30 5732 N 534.89 -5.93143 3.57985 0
M  V30 5733 N 536.683 -4.90015 2.75394 0
M  V30 5734 H 528.834 -1.1422 1.79074 0
M  V30 5735 H 531.097 -0.561399 0.763894 0
M  V30 5736 H 530.803 -2.52974 2.4433 0
M  V30 5737 H 530.677 -3.61663 1.07145 0
M  V30 5738 H 533.064 -2.92942 0.356253 0
M  V30 5739 H 533.145 -1.85586 1.76044 0
M  V30 5740 H 532.789 -3.86817 3.29143 0
M  V30 5741 H 532.719 -4.92654 1.86009 0
M  V30 5742 H 535.21 -3.37262 1.70478 0
M  V30 5743 H 535.523 -6.59227 4.03286 0
M  V30 5744 H 533.868 -5.93223 3.62093 0
M  V30 5745 H 537.059 -4.13894 2.18654 0
M  V30 5746 H 537.232 -5.60724 3.24796 0
M  V30 5747 N 530.638 -0.59345 -1.46 0
M  V30 5748 C 531.568 0.121192 -2.33185 0
M  V30 5749 C 532.549 0.872977 -1.4599 0
M  V30 5750 O 533.734 0.846321 -1.74789 0
M  V30 5751 C 530.864 1.12844 -3.28456 0
M  V30 5752 C 529.818 0.4908 -4.25177 0
M  V30 5753 C 529.144 1.60529 -5.10034 0
M  V30 5754 C 530.444 -0.578949 -5.19081 0
M  V30 5755 H 532.138 -0.606767 -2.93187 0
M  V30 5756 H 529.684 -0.293242 -1.40983 0
M  V30 5757 H 531.637 1.63684 -3.88311 0
M  V30 5758 H 530.361 1.88681 -2.66584 0
M  V30 5759 H 529.02 0.00339328 -3.666 0
M  V30 5760 H 528.668 2.35359 -4.44539 0
M  V30 5761 H 528.368 1.18422 -5.75543 0
M  V30 5762 H 529.892 2.11623 -5.72755 0
M  V30 5763 H 531.306 -0.155199 -5.7309 0
M  V30 5764 H 529.703 -0.920947 -5.92991 0
M  V30 5765 H 530.773 -1.46109 -4.62364 0
M  V30 5766 N 532.116 1.54067 -0.331816 0
M  V30 5767 C 533.063 2.24623 0.530372 0
M  V30 5768 C 534.033 1.24009 1.10503 0
M  V30 5769 O 535.218 1.52712 1.14384 0
M  V30 5770 C 532.358 3.01374 1.68129 0
M  V30 5771 C 531.471 4.16821 1.13507 0
M  V30 5772 C 530.606 4.81085 2.25234 0
M  V30 5773 C 529.645 5.88621 1.67903 0
M  V30 5774 N 528.782 6.46713 2.73326 0
M  V30 5775 H 533.622 2.97898 -0.0778607 0
M  V30 5776 H 531.159 1.47014 -0.0501965 0
M  V30 5777 H 533.117 3.44125 2.35868 0
M  V30 5778 H 531.747 2.30419 2.26069 0
M  V30 5779 H 530.799 3.78796 0.348979 0
M  V30 5780 H 532.111 4.94203 0.675633 0
M  V30 5781 H 531.265 5.26846 3.00862 0
M  V30 5782 H 530.004 4.03102 2.74518 0
M  V30 5783 H 529.009 5.42254 0.907773 0
M  V30 5784 H 530.234 6.68506 1.19487 0
M  V30 5785 H 528.18 5.71599 3.21886 0
M  V30 5786 H 528.097 7.19532 2.3197 0
M  V30 5787 H 529.365 6.97129 3.48758 0
M  V30 5788 N 533.594 0.0601682 1.57485 0
M  V30 5789 C 534.504 -0.926121 2.15546 0
M  V30 5790 C 535.52 -1.33532 1.11558 0
M  V30 5791 O 536.696 -1.4104 1.4377 0
M  V30 5792 C 533.761 -2.17952 2.69625 0
M  V30 5793 C 532.822 -1.82783 3.88444 0
M  V30 5794 C 532.055 -3.02148 4.39935 0
M  V30 5795 O 532.278 -4.15803 3.90466 0
M  V30 5796 O 531.212 -2.82639 5.31412 0
M  V30 5797 H 535.038 -0.462289 3.00161 0
M  V30 5798 H 532.623 -0.162246 1.48516 0
M  V30 5799 H 534.505 -2.91474 3.04337 0
M  V30 5800 H 533.18 -2.63456 1.88077 0
M  V30 5801 H 532.087 -1.06549 3.58606 0
M  V30 5802 H 533.42 -1.42072 4.7125 0
M  V30 5803 N 535.072 -1.5615 -0.213296 0
M  V30 5804 C 536.002 -1.96109 -1.26742 0
M  V30 5805 C 536.983 -0.830448 -1.48451 0
M  V30 5806 O 538.168 -1.09339 -1.60495 0
M  V30 5807 C 535.298 -2.28492 -2.61551 0
M  V30 5808 C 534.252 -3.44124 -2.54485 0
M  V30 5809 C 533.578 -3.62134 -3.93399 0
M  V30 5810 C 534.878 -4.78855 -2.08556 0
M  V30 5811 H 536.572 -2.84412 -0.935434 0
M  V30 5812 H 534.118 -1.36836 -0.44854 0
M  V30 5813 H 536.071 -2.55039 -3.3546 0
M  V30 5814 H 534.795 -1.37052 -2.96453 0
M  V30 5815 H 533.454 -3.17639 -1.83033 0
M  V30 5816 H 533.102 -2.68055 -4.25623 0
M  V30 5817 H 532.802 -4.39913 -3.89551 0
M  V30 5818 H 534.326 -3.91038 -4.68958 0
M  V30 5819 H 535.74 -5.04552 -2.72213 0
M  V30 5820 H 534.137 -5.59975 -2.1575 0
M  V30 5821 H 535.207 -4.73657 -1.03811 0
M  V30 5822 N 536.55 0.480323 -1.50102 0
M  V30 5823 C 537.799 1.22979 -1.59872 0
M  V30 5824 C 538.112 1.93282 -0.30022 0
M  V30 5825 O 539.318 2.70086 -0.276709 0
M  V30 5826 C 537.774 2.23408 -2.82164 0
M  V30 5827 C 537.382 1.5895 -4.18854 0
M  V30 5828 C 539.126 2.99055 -3.01275 0
M  V30 5829 C 537.033 2.57611 -5.32344 0
M  V30 5830 H 535.963 0.462707 -0.59533 0
M  V30 5831 H 538.614 0.501291 -1.7652 0
M  V30 5832 H 536.996 2.99511 -2.59055 0
M  V30 5833 H 538.17 0.887 -4.52182 0
M  V30 5834 H 536.485 0.956191 -4.05273 0
M  V30 5835 H 539.082 3.72876 -3.83233 0
M  V30 5836 H 539.425 3.57897 -2.12639 0
M  V30 5837 H 539.958 2.30066 -3.24522 0
M  V30 5838 H 536.697 2.03521 -6.23105 0
M  V30 5839 H 536.217 3.26041 -5.03445 0
M  V30 5840 H 537.896 3.19627 -5.62537 0
M  V30 5841 N 538.028 1.39524 0.732853 0
M  V30 5842 C 539.275 1.36865 1.49246 0
M  V30 5843 C 539.603 -0.0347118 1.94469 0
M  V30 5844 O 538.858 -1.01596 1.67262 0
M  V30 5845 C 539.157 2.28916 2.74468 0
M  V30 5846 C 538.823 3.76506 2.481 0
M  V30 5847 C 537.485 4.16721 2.40619 0
M  V30 5848 C 539.837 4.69846 2.25598 0
M  V30 5849 C 537.165 5.48334 2.08679 0
M  V30 5850 C 539.517 6.01739 1.95174 0
M  V30 5851 C 538.181 6.41015 1.86163 0
M  V30 5852 H 537.451 0.500824 0.546129 0
M  V30 5853 H 540.098 1.72047 0.840958 0
M  V30 5854 H 538.403 1.86859 3.4437 0
M  V30 5855 H 540.1 2.2415 3.32502 0
M  V30 5856 H 536.69 3.44635 2.54803 0
M  V30 5857 H 540.874 4.39608 2.30344 0
M  V30 5858 H 536.13 5.77685 2.00226 0
M  V30 5859 H 540.304 6.73591 1.76771 0
M  V30 5860 H 537.931 7.42917 1.61179 0
M  V30 5861 N 539.506 -0.963266 1.24736 0
M  V30 5862 C 540.438 -2.06162 1.0015 0
M  V30 5863 C 541.451 -1.62771 -0.0305905 0
M  V30 5864 O 542.64 -1.77296 0.206966 0
M  V30 5865 C 539.74 -3.35333 0.490385 0
M  V30 5866 C 538.913 -4.07609 1.58663 0
M  V30 5867 C 537.972 -5.15052 1.0774 0
M  V30 5868 O 536.998 -5.4098 1.77002 0
M  V30 5869 N 538.2 -5.80436 -0.0858605 0
M  V30 5870 H 540.965 -2.27825 1.94719 0
M  V30 5871 H 538.526 -1.13121 1.15825 0
M  V30 5872 H 540.518 -4.04477 0.134371 0
M  V30 5873 H 539.088 -3.10507 -0.361155 0
M  V30 5874 H 538.308 -3.32681 2.11463 0
M  V30 5875 H 539.596 -4.52656 2.32336 0
M  V30 5876 H 538.994 -5.6178 -0.664806 0
M  V30 5877 H 537.551 -6.50674 -0.382981 0
M  V30 5878 N 540.985 -1.06182 -1.16461 0
M  V30 5879 C 541.895 -0.682671 -2.24448 0
M  V30 5880 C 542.911 0.30078 -1.71381 0
M  V30 5881 O 544.087 0.150376 -2.00838 0
M  V30 5882 C 541.152 -0.0737202 -3.46622 0
M  V30 5883 C 540.213 -1.10889 -4.14731 0
M  V30 5884 C 539.446 -0.528908 -5.31073 0
M  V30 5885 O 539.669 0.65868 -5.66584 0
M  V30 5886 O 538.603 -1.26805 -5.88391 0
M  V30 5887 H 542.429 -1.58291 -2.59187 0
M  V30 5888 H 540.014 -0.834013 -1.23954 0
M  V30 5889 H 541.896 0.264192 -4.20571 0
M  V30 5890 H 540.571 0.800015 -3.13658 0
M  V30 5891 H 539.478 -1.49896 -3.42756 0
M  V30 5892 H 540.811 -1.95412 -4.51747 0
M  V30 5893 N 542.463 1.3308 -0.844243 0
M  V30 5894 C 543.691 2.01808 -0.456203 0
M  V30 5895 C 544.106 1.63498 0.944131 0
M  V30 5896 O 543.463 0.85102 1.61443 0
M  V30 5897 C 543.514 3.56922 -0.573513 0
M  V30 5898 O 543.235 3.93851 -1.91868 0
M  V30 5899 C 544.736 4.42922 -0.183125 0
M  V30 5900 H 541.956 0.646273 -0.180477 0
M  V30 5901 H 544.5 1.69891 -1.1383 0
M  V30 5902 H 542.655 3.87352 0.0607367 0
M  V30 5903 H 543.069 4.88564 -1.90802 0
M  V30 5904 H 544.543 5.51093 -0.316241 0
M  V30 5905 H 545.02 4.30386 0.875477 0
M  V30 5906 H 545.626 4.1786 -0.792027 0
M  V30 5907 N 543.941 0.601185 1.45683 0
M  V30 5908 C 544.904 -0.111398 2.28929 0
M  V30 5909 C 545.904 -0.801246 1.39416 0
M  V30 5910 O 547.094 -0.650383 1.61603 0
M  V30 5911 C 544.226 -1.16773 3.20276 0
M  V30 5912 H 545.419 0.620412 2.93413 0
M  V30 5913 H 542.972 0.359946 1.52099 0
M  V30 5914 H 543.707 -1.93051 2.60579 0
M  V30 5915 H 543.492 -0.677358 3.86205 0
M  V30 5916 H 544.982 -1.66698 3.82886 0
M  V30 5917 N 545.419 -1.53889 0.339982 0
M  V30 5918 C 546.835 -1.59595 -0.0120752 0
M  V30 5919 C 547.035 -1.35605 -1.49042 0
M  V30 5920 O 546.091 -1.14856 -2.24865 0
M  V30 5921 C 547.404 -2.9774 0.420898 0
M  V30 5922 C 548.952 -3.1077 0.37294 0
M  V30 5923 C 549.427 -4.51286 0.781327 0
M  V30 5924 N 550.918 -4.57325 0.735374 0
M  V30 5925 C 551.653 -5.64194 1.02336 0
M  V30 5926 N 551.149 -6.7893 1.37933 0
M  V30 5927 N 552.942 -5.54051 0.947838 0
M  V30 5928 H 545.093 -1.67738 1.30299 0
M  V30 5929 H 547.356 -0.785385 0.530918 0
M  V30 5930 H 547.062 -3.20349 1.45152 0
M  V30 5931 H 546.936 -3.76639 -0.205721 0
M  V30 5932 H 549.323 -2.87886 -0.648505 0
M  V30 5933 H 549.404 -2.33939 1.03472 0
M  V30 5934 H 549.048 -4.74905 1.80077 0
M  V30 5935 H 548.978 -5.26511 0.0970679 0
M  V30 5936 H 551.469 -3.74931 0.472773 0
M  V30 5937 H 551.782 -7.56392 1.58402 0
M  V30 5938 H 550.127 -6.80386 1.41774 0
M  V30 5939 H 553.318 -4.63293 0.669115 0
M  V30 5940 H 553.491 -6.37246 1.17563 0
M  V30 5941 N 546.897 -0.0685191 -1.57451 0
M  V30 5942 C 548.144 0.601348 -1.93365 0
M  V30 5943 C 548.472 1.69816 -0.948294 0
M  V30 5944 O 547.727 1.95666 0.0366199 0
M  V30 5945 C 548.026 1.22051 -3.35914 0
M  V30 5946 C 547.692 0.250165 -4.50205 0
M  V30 5947 C 546.354 -0.0167954 -4.81197 0
M  V30 5948 C 548.706 -0.413867 -5.19554 0
M  V30 5949 C 546.034 -0.95493 -5.78876 0
M  V30 5950 C 548.386 -1.3403 -6.18238 0
M  V30 5951 C 547.05 -1.61576 -6.47649 0
M  V30 5952 H 546.32 0.220049 -0.707573 0
M  V30 5953 H 548.967 -0.138697 -1.90997 0
M  V30 5954 H 547.272 2.03622 -3.34732 0
M  V30 5955 H 548.969 1.74605 -3.6099 0
M  V30 5956 H 545.559 0.468421 -4.26033 0
M  V30 5957 H 549.743 -0.220733 -4.95809 0
M  V30 5958 H 544.999 -1.17563 -5.99991 0
M  V30 5959 H 549.173 -1.86081 -6.71079 0
M  V30 5960 H 546.8 -2.34431 -7.2315 0
M  V30 5961 N 548.375 1.56261 0.205012 0
M  V30 5962 C 549.307 1.90266 1.27795 0
M  V30 5963 C 550.32 0.792397 1.42214 0
M  V30 5964 O 551.509 1.07077 1.42817 0
M  V30 5965 C 548.609 2.11074 2.65143 0
M  V30 5966 C 547.782 3.42176 2.7246 0
M  V30 5967 C 546.841 3.52216 3.90936 0
M  V30 5968 O 545.867 4.25119 3.78501 0
M  V30 5969 N 547.069 2.84573 5.05963 0
M  V30 5970 H 549.834 2.82896 0.989434 0
M  V30 5971 H 547.395 1.57008 0.394981 0
M  V30 5972 H 549.387 2.15089 3.4281 0
M  V30 5973 H 547.957 1.2499 2.86524 0
M  V30 5974 H 547.177 3.50116 1.81142 0
M  V30 5975 H 548.465 4.28509 2.74331 0
M  V30 5976 H 547.863 2.25152 5.18963 0
M  V30 5977 H 546.42 2.94228 5.81613 0
M  V30 5978 N 549.853 -0.472356 1.50355 0
M  V30 5979 C 551.264 -1.05326 1.54154 0
M  V30 5980 C 551.615 -1.93155 0.344303 0
M  V30 5981 O 550.74 -2.09479 -0.542928 0
M  V30 5982 C 551.335 -1.91691 2.79356 0
M  V30 5983 C 549.894 -2.44892 2.8584 0
M  V30 5984 C 549.041 -1.23205 2.48426 0
M  V30 5985 H 551.992 -0.255027 1.56637 0
M  V30 5986 H 552.013 -2.76742 2.6114 0
M  V30 5987 H 551.525 -1.27741 3.66475 0
M  V30 5988 H 549.626 -3.12399 2.0307 0
M  V30 5989 H 549.739 -2.80086 3.88701 0
M  V30 5990 H 548.103 -1.56643 2.00836 0
M  V30 5991 H 548.886 -0.609194 3.37852 0
M  V30 5992 N 551.331 -1.39911 -0.725443 0
M  V30 5993 C 552.579 -1.37382 -1.48224 0
M  V30 5994 C 552.9 0.0264107 -1.94982 0
M  V30 5995 O 552.17 0.979408 -1.6966 0
M  V30 5996 H 550.75 -0.505596 -0.549892 0
M  V30 5997 H 553.412 -1.7487 -0.860608 0
M  V30 5998 H 552.508 -2.04254 -2.3598 0
M  V30 5999 N 552.809 0.956637 -1.25245 0
M  V30 6000 C 554.055 1.70352 -1.10036 0
M  V30 6001 C 554.388 1.90869 0.358156 0
M  V30 6002 O 553.663 1.47819 1.26411 0
M  V30 6003 C 553.946 3.08766 -1.85298 0
M  V30 6004 C 553.799 2.95672 -3.38966 0
M  V30 6005 C 555.118 4.08622 -1.63451 0
M  V30 6006 H 552.237 0.618279 -0.401123 0
M  V30 6007 H 554.879 1.11212 -1.54051 0
M  V30 6008 H 553.029 3.59252 -1.47887 0
M  V30 6009 H 554.701 2.52527 -3.86041 0
M  V30 6010 H 552.944 2.31634 -3.6678 0
M  V30 6011 H 553.615 3.93776 -3.86839 0
M  V30 6012 H 556.091 3.67038 -1.96015 0
M  V30 6013 H 554.967 5.03514 -2.18551 0
M  V30 6014 H 555.228 4.3834 -0.575357 0
M  V30 6015 N 554.287 1.06798 1.15896 0
M  V30 6016 C 555.217 0.704677 2.22613 0
M  V30 6017 C 556.198 -0.305252 1.67339 0
M  V30 6018 O 557.383 -0.179247 1.93371 0
M  V30 6019 C 554.513 0.0957325 3.47168 0
M  V30 6020 C 553.467 1.0322 4.15367 0
M  V30 6021 C 552.793 0.286293 5.33933 0
M  V30 6022 C 554.093 2.36341 4.65768 0
M  V30 6023 H 555.787 1.59688 2.53259 0
M  V30 6024 H 553.333 0.769257 1.21731 0
M  V30 6025 H 555.286 -0.170333 4.21056 0
M  V30 6026 H 554.01 -0.831516 3.15838 0
M  V30 6027 H 552.669 1.28309 3.43413 0
M  V30 6028 H 552.317 -0.644237 4.98857 0
M  V30 6029 H 552.017 0.910436 5.80504 0
M  V30 6030 H 553.541 0.0278938 6.10594 0
M  V30 6031 H 554.955 2.1561 5.31211 0
M  V30 6032 H 553.352 2.94299 5.2298 0
M  V30 6033 H 554.422 2.99047 3.81705 0
M  V30 6034 N 555.766 -1.3263 0.851289 0
M  V30 6035 C 556.676 -2.32722 0.296268 0
M  V30 6036 C 557.692 -1.63901 -0.584162 0
M  V30 6037 O 558.868 -1.95465 -0.485334 0
M  V30 6038 C 555.933 -3.42942 -0.509103 0
M  V30 6039 C 554.994 -4.2746 0.397069 0
M  V30 6040 C 554.227 -5.32416 -0.36996 0
M  V30 6041 O 554.45 -5.47491 -1.6003 0
M  V30 6042 O 553.384 -6.01327 0.262493 0
M  V30 6043 H 557.21 -2.82078 1.12543 0
M  V30 6044 H 554.795 -1.36194 0.614135 0
M  V30 6045 H 556.677 -4.1017 -0.96634 0
M  V30 6046 H 555.352 -2.95781 -1.31512 0
M  V30 6047 H 554.259 -3.63053 0.902411 0
M  V30 6048 H 555.592 -4.78136 1.16818 0
M  V30 6049 N 557.244 -0.608902 -1.45362 0
M  V30 6050 C 558.207 0.0992563 -2.28985 0
M  V30 6051 C 559.207 0.793841 -1.39838 0
M  V30 6052 O 560.397 0.641804 -1.61946 0
M  V30 6053 C 557.529 1.15073 -3.20891 0
M  V30 6054 H 558.722 -0.635964 -2.93079 0
M  V30 6055 H 556.275 -0.368007 -1.51906 0
M  V30 6056 H 557.01 1.91667 -2.616 0
M  V30 6057 H 556.795 0.656867 -3.86559 0
M  V30 6058 H 558.285 1.64665 -3.83765 0
M  V30 6059 N 558.722 1.53707 -0.348139 0
M  V30 6060 C 560.133 1.86213 0.134797 0
M  V30 6061 C 560.484 1.26925 1.49614 0
M  V30 6062 O 559.609 0.584573 2.08355 0
M  V30 6063 C 560.204 3.37866 0.251371 0
M  V30 6064 C 558.763 3.70233 0.678543 0
M  V30 6065 C 557.91 2.76683 -0.184925 0
M  V30 6066 H 560.861 1.48204 -0.567571 0
M  V30 6067 H 560.882 3.64908 1.07806 0
M  V30 6068 H 560.394 3.80988 -0.739581 0
M  V30 6069 H 558.495 3.32659 1.67835 0
M  V30 6070 H 558.608 4.76836 0.465251 0
M  V30 6071 H 556.972 2.52374 0.343465 0
M  V30 6072 H 557.755 3.22635 -1.1731 0
M  V30 6073 O 560.239 0.216617 1.60041 0
M  V30 6074 H 560.93 -0.364805 1.90234 0
M  V30 END ATOM
M  V30 BEGIN BOND
M  V30 END BOND
M  V30 END CTAB
M  END
$$$$
