drugbank_target|P31677 Alpha,alpha-trehalose-phosphate synthase [UDP-forming] (DB01861; DB02007; DB03366; DB03435; DB03488)
 OpenBabel12092119523D

  0  0  0     0  0            999 V3000
M  V30 BEGIN CTAB
M  V30 COUNTS 7560 7655 0 0 0
M  V30 BEGIN ATOM
M  V30 1 H -0.908 1.98254 -0.117106 0
M  V30 2 N 0 1.576 0 0
M  V30 3 C 0.933 2.03868 1.02534 0
M  V30 4 C 1.911 0.928543 1.3348 0
M  V30 5 O 3.095 1.19667 1.45644 0
M  V30 6 C 0.222 2.43627 2.35294 0
M  V30 7 C -0.732 3.65373 2.2001 0
M  V30 8 S 0.101 5.13292 1.52614 0
M  V30 9 C 1.257 5.56322 2.86805 0
M  V30 10 H 1.49 2.90518 0.631377 0
M  V30 11 H -0.977 1.52953 0.210867 0
M  V30 12 H 0.981 2.67203 3.11629 0
M  V30 13 H -0.358 1.57376 2.7183 0
M  V30 14 H -1.165 3.90944 3.18086 0
M  V30 15 H -1.563 3.418 1.51819 0
M  V30 16 H 0.729 5.58782 3.83104 0
M  V30 17 H 1.672 6.56266 2.65933 0
M  V30 18 H 2.08 4.83886 2.90714 0
M  V30 19 N 1.4781 -0.272755 1.55222 0
M  V30 20 C 2.7031 -1.02683 1.80197 0
M  V30 21 C 3.1281 -1.79142 0.573551 0
M  V30 22 O 2.4861 -1.74917 -0.476849 0
M  V30 23 C 2.5341 -1.9609 3.02624 0
M  V30 24 O 1.6381 -3.04863 2.77727 0
M  V30 25 H 0.9791 -0.293557 0.595584 0
M  V30 26 H 3.5091 -0.30159 2.02365 0
M  V30 27 H 3.5191 -2.38039 3.31363 0
M  V30 28 H 2.1941 -1.39851 3.91682 0
M  V30 29 H 0.7711 -2.67228 2.60084 0
M  V30 30 N 2.9562 -1.48159 -0.537278 0
M  V30 31 C 4.3722 -1.34118 -0.865129 0
M  V30 32 C 4.5722 -0.346678 -1.98495 0
M  V30 33 O 3.6282 0.234715 -2.51407 0
M  V30 34 C 4.9412 -2.73963 -1.23954 0
M  V30 35 C 6.4892 -2.82397 -1.34984 0
M  V30 36 C 6.9642 -4.22928 -1.75772 0
M  V30 37 N 8.4552 -4.25566 -1.82887 0
M  V30 38 C 9.1902 -5.31235 -2.15817 0
M  V30 39 N 8.6862 -6.47189 -2.47222 0
M  V30 40 N 10.4792 -5.18624 -2.16761 0
M  V30 41 H 2.6302 -2.1144 0.201715 0
M  V30 42 H 4.8932 -0.947598 0.0275949 0
M  V30 43 H 4.5992 -3.48264 -0.490381 0
M  V30 44 H 4.4732 -3.0702 -2.19132 0
M  V30 45 H 6.8602 -2.08356 -2.08978 0
M  V30 46 H 6.9412 -2.5297 -0.379448 0
M  V30 47 H 6.5852 -4.97482 -1.02341 0
M  V30 48 H 6.5152 -4.49794 -2.73848 0
M  V30 49 H 9.0062 -3.41924 -1.60924 0
M  V30 50 H 9.3192 -7.23564 -2.71433 0
M  V30 51 H 7.6642 -6.50476 -2.44757 0
M  V30 52 H 10.8552 -4.27056 -1.91679 0
M  V30 53 H 11.0282 -6.01078 -2.42093 0
M  V30 54 N 4.4343 0.785586 -1.36625 0
M  V30 55 C 5.3643 1.91259 -1.33949 0
M  V30 56 C 6.3453 1.68795 -0.210325 0
M  V30 57 O 7.5303 1.89854 -0.408561 0
M  V30 58 C 4.6603 3.28339 -1.13186 0
M  V30 59 C 3.6143 3.65335 -2.22967 0
M  V30 60 C 2.9403 5.00806 -1.87342 0
M  V30 61 C 4.2403 3.7352 -3.65075 0
M  V30 62 H 5.9343 1.93755 -2.28253 0
M  V30 63 H 3.4803 0.930788 -1.09874 0
M  V30 64 H 5.4333 4.06804 -1.09948 0
M  V30 65 H 4.1573 3.2624 -0.153332 0
M  V30 66 H 2.8163 2.89169 -2.25337 0
M  V30 67 H 2.4643 4.95233 -0.880545 0
M  V30 68 H 2.1643 5.26529 -2.60846 0
M  V30 69 H 3.6883 5.81687 -1.85667 0
M  V30 70 H 5.1023 4.42168 -3.64911 0
M  V30 71 H 3.4993 4.10731 -4.37516 0
M  V30 72 H 4.5693 2.74527 -3.99703 0
M  V30 73 N 5.9124 1.20967 1.01018 0
M  V30 74 C 7.1584 1.02526 1.74975 0
M  V30 75 C 7.4914 -0.4408 1.89131 0
M  V30 76 O 6.7664 -1.32718 1.42184 0
M  V30 77 C 7.0494 1.71699 3.1653 0
M  V30 78 C 6.9024 3.25791 3.10129 0
M  V30 79 C 8.2214 1.45531 4.15342 0
M  V30 80 H 5.3404 0.373863 0.635134 0
M  V30 81 H 7.9824 1.49071 1.17805 0
M  V30 82 H 6.1324 1.32128 3.65341 0
M  V30 83 H 7.8044 3.74697 2.69072 0
M  V30 84 H 6.0474 3.56363 2.47362 0
M  V30 85 H 6.7184 3.69353 4.10222 0
M  V30 86 H 9.1944 1.79872 3.75213 0
M  V30 87 H 8.0704 1.96453 5.1254 0
M  V30 88 H 8.3314 0.384237 4.40427 0
M  V30 89 N 7.3905 -1.2043 1.01659 0
M  V30 90 C 8.6365 -1.90079 0.706963 0
M  V30 91 C 8.9695 -1.78648 -0.761474 0
M  V30 92 O 8.2445 -1.17069 -1.55323 0
M  V30 93 C 8.5275 -3.41469 1.14327 0
M  V30 94 C 8.3805 -3.61833 2.67201 0
M  V30 95 C 9.6995 -4.34261 0.714529 0
M  V30 96 H 6.8185 -0.690254 0.2583 0
M  V30 97 H 9.4605 -1.41826 1.26433 0
M  V30 98 H 7.6105 -3.82696 0.669056 0
M  V30 99 H 9.2825 -3.2986 3.22475 0
M  V30 100 H 7.5255 -3.05304 3.08175 0
M  V30 101 H 8.1965 -4.67955 2.92783 0
M  V30 102 H 10.6725 -4.00682 1.12221 0
M  V30 103 H 9.5485 -5.38806 1.04784 0
M  V30 104 H 9.8095 -4.40431 -0.383799 0
M  V30 105 N 8.8686 -0.792821 -1.36206 0
M  V30 106 C 10.1146 -0.36733 -1.99446 0
M  V30 107 C 10.4476 1.05917 -1.62774 0
M  V30 108 O 9.7226 1.7324 -0.88421 0
M  V30 109 C 10.0056 -0.535044 -3.56103 0
M  V30 110 C 9.8586 -2.00548 -4.02617 0
M  V30 111 C 11.1776 0.0478191 -4.40074 0
M  V30 112 H 8.2966 -0.134941 -0.724541 0
M  V30 113 H 10.9386 -0.999794 -1.61568 0
M  V30 114 H 9.0886 0.00336329 -3.885 0
M  V30 115 H 10.7606 -2.60521 -3.80692 0
M  V30 116 H 9.0036 -2.50686 -3.54032 0
M  V30 117 H 9.6746 -2.07377 -5.11565 0
M  V30 118 H 12.1506 -0.411822 -4.14057 0
M  V30 119 H 11.0266 -0.0995336 -5.4881 0
M  V30 120 H 11.2876 1.14025 -4.27142 0
M  V30 121 N 10.3467 1.47872 -0.545128 0
M  V30 122 C 11.5717 2.07391 -0.0190611 0
M  V30 123 C 11.9967 1.39688 1.25971 0
M  V30 124 O 11.3547 0.467816 1.7516 0
M  V30 125 C 11.4027 3.60188 0.172335 0
M  V30 126 O 10.5067 3.9339 1.23766 0
M  V30 127 H 9.8477 0.662411 -0.0459059 0
M  V30 128 H 12.3777 1.90066 -0.757365 0
M  V30 129 H 12.3877 4.06129 0.390305 0
M  V30 130 H 11.0627 4.08865 -0.761725 0
M  V30 131 H 9.6397 3.5921 1.00114 0
M  V30 132 N 11.8248 0.280983 1.55075 0
M  V30 133 C 12.7728 -0.619864 2.24188 0
M  V30 134 C 13.7668 -1.15315 1.24092 0
M  V30 135 O 14.9728 -1.1061 1.42005 0
M  V30 136 H 11.3478 -0.218459 0.719569 0
M  V30 137 H 13.3188 -0.0141831 2.98397 0
M  V30 138 C 12.0678 -1.7899 2.98091 0
M  V30 139 H 11.3908 -1.38874 3.74905 0
M  V30 140 H 12.8308 -2.39672 3.49762 0
M  V30 141 C 11.2898 -2.68192 2.03899 0
M  V30 142 O 11.8198 -3.6872 1.594 0
M  V30 143 N 10.0258 -2.35488 1.70275 0
M  V30 144 H 9.5728 -1.53787 2.06658 0
M  V30 145 H 9.5308 -2.95442 1.07524 0
M  V30 146 N 13.3029 -1.57598 0.00835791 0
M  V30 147 C 14.7189 -1.55764 -0.347822 0
M  V30 148 C 14.9189 -1.01186 -1.74252 0
M  V30 149 O 13.9749 -0.649371 -2.44007 0
M  V30 150 C 15.2879 -2.99927 -0.215407 0
M  V30 151 C 16.8359 -3.11656 -0.289725 0
M  V30 152 C 17.3109 -4.57621 -0.18634 0
M  V30 153 N 18.8019 -4.62557 -0.243978 0
M  V30 154 C 19.5369 -5.73094 -0.18745 0
M  V30 155 N 19.0329 -6.92753 -0.0810331 0
M  V30 156 N 20.8259 -5.61588 -0.239925 0
M  V30 157 H 12.9769 -1.91411 0.92062 0
M  V30 158 H 15.2399 -0.879562 0.353659 0
M  V30 159 H 14.9459 -3.43729 0.744512 0
M  V30 160 H 14.8199 -3.63865 -0.994097 0
M  V30 161 H 17.2069 -2.67779 -1.24009 0
M  V30 162 H 17.2879 -2.5048 0.51898 0
M  V30 163 H 16.9319 -5.02174 0.760519 0
M  V30 164 H 16.8619 -5.16752 -1.01364 0
M  V30 165 H 19.3529 -3.76481 -0.327217 0
M  V30 166 H 19.6659 -7.72787 -0.0440241 0
M  V30 167 H 18.0109 -6.94984 -0.0465419 0
M  V30 168 H 21.2019 -4.66996 -0.321317 0
M  V30 169 H 21.3749 -6.47714 -0.192407 0
M  V30 170 N 14.781 0.264519 -1.55364 0
M  V30 171 C 16.03 0.992812 -1.75574 0
M  V30 172 C 16.343 1.87142 -0.568979 0
M  V30 173 O 17.549 2.63513 -0.653682 0
M  V30 174 C 16.005 1.81519 -3.10771 0
M  V30 175 C 15.613 0.984839 -4.37041 0
M  V30 176 C 17.357 2.53727 -3.40327 0
M  V30 177 C 15.264 1.80209 -5.63275 0
M  V30 178 H 14.194 0.374412 -0.65447 0
M  V30 179 H 16.845 0.248138 -1.81815 0
M  V30 180 H 15.227 2.60115 -2.98591 0
M  V30 181 H 16.401 0.242455 -4.60162 0
M  V30 182 H 14.716 0.37691 -4.14691 0
M  V30 183 H 17.313 3.15292 -4.3185 0
M  V30 184 H 17.656 3.24447 -2.60845 0
M  V30 185 H 18.189 1.82156 -3.53644 0
M  V30 186 H 14.928 1.13896 -6.45529 0
M  V30 187 H 14.448 2.52022 -5.44284 0
M  V30 188 H 16.127 2.37364 -6.01887 0
M  V30 189 N 16.2591 1.48442 0.529413 0
M  V30 190 C 17.2221 1.62524 1.61612 0
M  V30 191 C 18.2221 0.498509 1.52877 0
M  V30 192 O 19.4121 0.76431 1.56537 0
M  V30 193 C 16.5441 1.59597 3.01233 0
M  V30 194 H 17.7371 2.59423 1.50465 0
M  V30 195 H 15.2901 1.37047 0.751514 0
M  V30 196 H 16.0251 0.641781 3.17886 0
M  V30 197 H 15.8101 2.41397 3.08982 0
M  V30 198 H 17.3001 1.72646 3.80241 0
M  V30 199 N 17.7372 -0.778329 1.37039 0
M  V30 200 C 19.1482 -1.35421 1.28523 0
M  V30 201 C 19.4992 -1.96075 -0.0700901 0
M  V30 202 O 18.6242 -1.93352 -0.971801 0
M  V30 203 C 19.2192 -2.46211 2.32735 0
M  V30 204 C 17.7782 -2.99585 2.27873 0
M  V30 205 C 16.9252 -1.72748 2.16918 0
M  V30 206 H 19.8762 -0.5791 1.47757 0
M  V30 207 H 19.8972 -3.2552 1.9702 0
M  V30 208 H 19.4092 -2.02036 3.31365 0
M  V30 209 H 17.5102 -3.48152 1.32745 0
M  V30 210 H 17.6232 -3.55646 3.21018 0
M  V30 211 H 15.9872 -1.95416 1.63354 0
M  V30 212 H 16.7702 -1.30686 3.17452 0
M  V30 213 N 19.2153 -1.21501 -1.00376 0
M  V30 214 C 20.6263 -1.03146 -1.55621 0
M  V30 215 C 20.9773 0.408375 -1.91903 0
M  V30 216 O 20.1023 1.29177 -1.73616 0
M  V30 217 C 20.6973 -1.86612 -2.82775 0
M  V30 218 C 19.2563 -1.72586 -3.34501 0
M  V30 219 C 18.4033 -1.83747 -2.07683 0
M  V30 220 H 21.3543 -1.35505 -0.826081 0
M  V30 221 H 21.3753 -1.3771 -3.54706 0
M  V30 222 H 20.8873 -2.91399 -2.56336 0
M  V30 223 H 18.9883 -0.704877 -3.65872 0
M  V30 224 H 19.1013 -2.54623 -4.05837 0
M  V30 225 H 17.4653 -1.27069 -2.20739 0
M  V30 226 H 18.2483 -2.90044 -1.83655 0
M  V30 227 N 20.6934 1.19889 -1.02296 0
M  V30 228 C 21.9704 1.85148 -0.630832 0
M  V30 229 C 22.3504 1.91385 0.890782 0
M  V30 230 O 21.6984 1.42642 1.78509 0
M  V30 231 C 21.9084 3.24442 -1.28602 0
M  V30 232 C 23.2564 4.00663 -1.4055 0
M  V30 233 O 24.2804 3.33818 -1.24273 0
M  V30 234 O 23.1394 5.20387 -1.66913 0
M  V30 235 H 20.2334 0.797613 -0.218499 0
M  V30 236 H 22.7794 1.27427 -1.12074 0
M  V30 237 H 21.5514 3.14704 -2.32545 0
M  V30 238 H 21.1744 3.89802 -0.7836 0
M  V30 239 N 22.1715 0.800033 1.35784 0
M  V30 240 C 23.0815 0.207204 2.33683 0
M  V30 241 C 24.0975 -0.64631 1.61551 0
M  V30 242 O 25.2735 -0.559604 1.93469 0
M  V30 243 C 22.3385 -0.639659 3.40748 0
M  V30 244 C 21.3995 0.233585 4.28664 0
M  V30 245 C 20.6325 -0.572954 5.30616 0
M  V30 246 O 20.8555 -1.80816 5.40982 0
M  V30 247 O 19.7895 0.0327285 6.01891 0
M  V30 248 H 23.6155 1.01692 2.86169 0
M  V30 249 H 21.2005 0.561691 1.38439 0
M  V30 250 H 23.0825 -1.12223 4.06182 0
M  V30 251 H 21.7575 -1.42708 2.90544 0
M  V30 252 H 20.6645 0.763147 3.66233 0
M  V30 253 H 21.9975 0.984784 4.82248 0
M  V30 254 N 23.6496 -1.47581 0.552962 0
M  V30 255 C 24.5996 -2.26961 -0.217423 0
M  V30 256 C 25.5836 -1.34099 -0.889168 0
M  V30 257 O 26.7756 -1.58483 -0.788176 0
M  V30 258 C 23.9046 -3.19756 -1.24944 0
M  V30 259 C 22.9906 -4.20097 -0.581327 0
M  V30 260 N 23.3816 -5.04614 0.346171 0
M  V30 261 C 21.6796 -4.38099 -0.835767 0
M  V30 262 C 22.3806 -5.77052 0.733854 0
M  V30 263 N 21.3566 -5.43526 0.0896567 0
M  V30 264 H 25.1586 -2.89688 0.495761 0
M  V30 265 H 22.6726 -1.58068 0.372597 0
M  V30 266 H 24.6696 -3.75305 -1.81527 0
M  V30 267 H 23.3296 -2.58585 -1.96376 0
M  V30 268 H 24.3406 -5.12869 0.720098 0
M  V30 269 H 21.0176 -3.88102 -1.53892 0
M  V30 270 H 22.4076 -6.5504 1.49574 0
M  V30 271 N 25.1277 -0.289203 -1.54924 0
M  V30 272 C 26.0907 0.579144 -2.21762 0
M  V30 273 C 27.0907 1.07047 -1.1999 0
M  V30 274 O 28.2807 0.968384 -1.44803 0
M  V30 275 C 25.4127 1.80055 -2.8947 0
M  V30 276 H 26.6057 -0.00464908 -2.999 0
M  V30 277 H 24.1587 -0.0399306 -1.56249 0
M  V30 278 H 24.8937 2.42449 -2.15381 0
M  V30 279 H 24.6787 1.45602 -3.64064 0
M  V30 280 H 26.1687 2.41773 -3.40493 0
M  V30 281 N 26.6058 1.57591 -0.0167156 0
M  V30 282 C 27.5688 2.08393 0.954204 0
M  V30 283 C 28.5688 0.996531 1.26198 0
M  V30 284 O 29.7588 1.25858 1.20438 0
M  V30 285 C 26.8908 2.5394 2.27436 0
M  V30 286 H 28.0838 2.95455 0.514451 0
M  V30 287 H 25.6368 1.54582 0.231089 0
M  V30 288 H 26.3718 1.70171 2.76066 0
M  V30 289 H 26.1568 3.33371 2.06412 0
M  V30 290 H 27.6468 2.93512 2.97053 0
M  V30 291 N 28.0839 -0.256276 1.55502 0
M  V30 292 C 29.3089 -1.00766 1.81276 0
M  V30 293 C 29.7339 -1.78524 0.59252 0
M  V30 294 O 29.0919 -1.75413 -0.45827 0
M  V30 295 C 29.1399 -1.92869 3.04687 0
M  V30 296 O 28.2439 -3.019 2.80945 0
M  V30 297 H 27.5849 -0.287224 0.598664 0
M  V30 298 H 30.1149 -0.280109 2.02674 0
M  V30 299 H 30.1249 -2.34511 3.33869 0
M  V30 300 H 28.7999 -1.35689 3.93143 0
M  V30 301 H 27.3769 -2.64454 2.62904 0
M  V30 302 N 29.562 -1.4872 -0.521534 0
M  V30 303 C 30.525 -1.63379 -1.60748 0
M  V30 304 C 31.525 -0.50661 -1.52611 0
M  V30 305 O 32.715 -0.772601 -1.5613 0
M  V30 306 C 29.847 -1.61192 -3.00383 0
M  V30 307 H 31.04 -2.60217 -1.49087 0
M  V30 308 H 28.593 -1.37444 -0.744235 0
M  V30 309 H 29.328 -0.65863 -3.17541 0
M  V30 310 H 29.113 -2.43032 -3.07698 0
M  V30 311 H 30.603 -1.7466 -3.7932 0
M  V30 312 N 31.0401 0.771051 -1.3745 0
M  V30 313 C 32.2881 1.52661 -1.32435 0
M  V30 314 C 32.6091 1.9479 0.0905024 0
M  V30 315 O 31.8791 1.66348 1.03466 0
M  V30 316 H 30.4591 0.566218 -0.487244 0
M  V30 317 H 33.1211 0.917636 -1.71946 0
M  V30 318 H 32.2171 2.42568 -1.96385 0
M  V30 319 N 32.5182 1.22032 0.997298 0
M  V30 320 C 33.7662 1.04016 1.73278 0
M  V30 321 C 34.0872 -0.426255 1.90284 0
M  V30 322 O 33.3572 -1.30694 1.45931 0
M  V30 323 H 31.9372 0.381897 0.642 0
M  V30 324 H 34.5992 1.5347 1.20137 0
M  V30 325 H 33.6952 1.51441 2.72896 0
M  V30 326 N 33.9963 -1.19345 1.0293 0
M  V30 327 C 34.9263 -2.2481 0.631105 0
M  V30 328 C 35.9073 -1.66245 -0.360104 0
M  V30 329 O 37.0923 -1.92677 -0.242726 0
M  V30 330 C 34.2223 -3.47295 -0.0184607 0
M  V30 331 C 33.1763 -4.18536 0.895073 0
M  V30 332 C 32.5023 -5.34586 0.110592 0
M  V30 333 C 33.8023 -4.73287 2.209 0
M  V30 334 H 35.4963 -2.58372 1.51275 0
M  V30 335 H 33.0423 -1.24194 0.728818 0
M  V30 336 H 34.9953 -4.20268 -0.308675 0
M  V30 337 H 33.7193 -3.12933 -0.934907 0
M  V30 338 H 32.3783 -3.47446 1.16949 0
M  V30 339 H 32.0263 -4.96469 -0.807902 0
M  V30 340 H 31.7263 -5.83183 0.719087 0
M  V30 341 H 33.2503 -6.10355 -0.172871 0
M  V30 342 H 34.6643 -5.38013 1.98028 0
M  V30 343 H 33.0613 -5.32373 2.76946 0
M  V30 344 H 34.1313 -3.91331 2.86336 0
M  V30 345 N 35.4744 -0.807222 -1.35358 0
M  V30 346 C 36.4374 -0.223665 -2.28106 0
M  V30 347 C 37.4374 0.589354 -1.4961 0
M  V30 348 O 38.6274 0.407745 -1.69361 0
M  V30 349 C 35.7594 0.688149 -3.33882 0
M  V30 350 H 36.9524 -1.04169 -2.81227 0
M  V30 351 H 34.5054 -0.577921 -1.45223 0
M  V30 352 H 35.2404 1.52984 -2.85948 0
M  V30 353 H 35.0254 0.10687 -3.91954 0
M  V30 354 H 36.5154 1.09075 -4.03104 0
M  V30 355 N 36.9525 1.47285 -0.560781 0
M  V30 356 C 38.1985 2.02764 -0.0381184 0
M  V30 357 C 38.5315 1.43384 1.30976 0
M  V30 358 O 37.8065 0.590733 1.85312 0
M  V30 359 C 38.0895 3.60064 0.0511427 0
M  V30 360 C 37.9425 4.2987 -1.32408 0
M  V30 361 C 39.2615 4.33439 0.762795 0
M  V30 362 H 36.3805 0.736841 -0.0153264 0
M  V30 363 H 39.0225 1.75675 -0.723759 0
M  V30 364 H 37.1725 3.83274 0.635065 0
M  V30 365 H 38.8445 4.17989 -1.95148 0
M  V30 366 H 37.0875 3.90085 -1.8978 0
M  V30 367 H 37.7585 5.38478 -1.21431 0
M  V30 368 H 40.2345 4.15243 0.266965 0
M  V30 369 H 39.1105 5.43124 0.794221 0
M  V30 370 H 39.3715 4.02915 1.81966 0
M  V30 371 N 38.4306 0.297415 1.54768 0
M  V30 372 C 39.6786 -0.312295 1.99673 0
M  V30 373 C 39.9996 -1.54686 1.18732 0
M  V30 374 O 39.2696 -1.93854 0.282382 0
M  V30 375 H 37.8496 -0.118381 0.73756 0
M  V30 376 H 40.5116 0.407915 1.90583 0
M  V30 377 H 39.6076 -0.586813 3.06534 0
M  V30 378 N 39.9087 -1.5758 0.0250728 0
M  V30 379 C 41.1577 -1.90811 -0.653767 0
M  V30 380 C 41.4707 -0.90273 -1.73523 0
M  V30 381 O 42.6767 -1.12614 -2.47043 0
M  V30 382 C 41.1327 -3.38804 -1.21409 0
M  V30 383 C 40.7407 -4.47692 -0.166126 0
M  V30 384 C 42.4847 -3.81108 -1.86967 0
M  V30 385 C 40.3917 -5.86779 -0.737856 0
M  V30 386 H 39.3217 -0.712063 -0.247956 0
M  V30 387 H 41.9727 -1.83281 0.0897137 0
M  V30 388 H 40.3547 -3.41252 -2.00905 0
M  V30 389 H 41.5287 -4.56797 0.606079 0
M  V30 390 H 39.8437 -4.14565 0.390466 0
M  V30 391 H 42.4407 -4.82375 -2.30692 0
M  V30 392 H 42.7837 -3.15953 -2.71071 0
M  V30 393 H 43.3167 -3.81065 -1.14167 0
M  V30 394 H 40.0557 -6.55468 0.0649577 0
M  V30 395 H 39.5757 -5.81288 -1.47864 0
M  V30 396 H 41.2547 -6.35223 -1.22884 0
M  V30 397 N 41.3868 0.248026 -1.55636 0
M  V30 398 C 42.3168 1.31079 -1.93237 0
M  V30 399 C 43.2978 1.50264 -0.797174 0
M  V30 400 O 44.4828 1.62891 -1.05737 0
M  V30 401 C 41.6128 2.66575 -2.22609 0
M  V30 402 C 40.5668 2.62087 -3.3837 0
M  V30 403 C 39.8928 4.01369 -3.53281 0
M  V30 404 C 41.1928 2.19171 -4.7409 0
M  V30 405 H 42.8868 0.998556 -2.82257 0
M  V30 406 H 40.4328 0.47891 -1.35803 0
M  V30 407 H 42.3858 3.41057 -2.47503 0
M  V30 408 H 41.1098 2.99432 -1.30414 0
M  V30 409 H 39.7688 1.90063 -3.13483 0
M  V30 410 H 39.4168 4.31489 -2.58508 0
M  V30 411 H 39.1168 3.99254 -4.31127 0
M  V30 412 H 40.6408 4.77552 -3.80495 0
M  V30 413 H 42.0548 2.83384 -4.98363 0
M  V30 414 H 40.4518 2.2817 -5.5503 0
M  V30 415 H 41.5218 1.14336 -4.71227 0
M  V30 416 N 42.8649 1.48995 0.513639 0
M  V30 417 C 44.1129 1.57531 1.26604 0
M  V30 418 C 44.4339 0.258236 1.93283 0
M  V30 419 O 43.7039 -0.721502 1.8213 0
M  V30 420 H 42.2839 0.580387 0.470276 0
M  V30 421 H 44.9459 1.85552 0.596373 0
M  V30 422 H 44.0419 2.36486 2.03669 0
M  V30 423 N 44.343 -0.763751 1.37857 0
M  V30 424 C 45.306 -1.85889 1.34081 0
M  V30 425 C 46.306 -1.58949 0.243277 0
M  V30 426 O 47.496 -1.66882 0.499589 0
M  V30 427 C 44.628 -3.23176 1.08489 0
M  V30 428 H 45.821 -1.90648 2.31502 0
M  V30 429 H 43.374 -0.964367 1.23003 0
M  V30 430 H 44.109 -3.24091 0.116318 0
M  V30 431 H 43.894 -3.44124 1.8794 0
M  V30 432 H 45.384 -4.03254 1.08517 0
M  V30 433 N 45.8211 -1.22559 -0.990812 0
M  V30 434 C 46.7511 -1.0218 -2.09956 0
M  V30 435 C 47.7321 0.0579394 -1.70001 0
M  V30 436 O 48.9171 -0.104684 -1.93918 0
M  V30 437 C 46.0471 -0.601023 -3.4206 0
M  V30 438 C 45.0011 -1.62694 -3.95872 0
M  V30 439 C 44.3271 -1.06193 -5.24049 0
M  V30 440 C 45.6271 -3.01743 -4.2632 0
M  V30 441 H 47.3211 -1.94916 -2.27262 0
M  V30 442 H 44.8671 -0.938566 -1.09211 0
M  V30 443 H 46.8201 -0.445561 -4.19038 0
M  V30 444 H 45.5441 0.362005 -3.24588 0
M  V30 445 H 44.2031 -1.77021 -3.21028 0
M  V30 446 H 43.8511 -0.0901903 -5.02919 0
M  V30 447 H 43.5511 -1.74732 -5.61019 0
M  V30 448 H 45.0751 -0.918092 -6.03658 0
M  V30 449 H 46.4891 -2.90777 -4.94087 0
M  V30 450 H 44.8861 -3.67425 -4.74467 0
M  V30 451 H 45.9561 -3.51518 -3.34011 0
M  V30 452 N 47.2992 1.18797 -1.03562 0
M  V30 453 C 48.2462 2.22253 -0.622259 0
M  V30 454 C 49.2162 1.61987 0.36736 0
M  V30 455 O 50.4012 1.88986 0.262492 0
M  V30 456 C 47.5412 3.45097 0.0138462 0
M  V30 457 C 46.6542 4.19722 -1.02263 0
M  V30 458 C 45.7892 5.30009 -0.355573 0
M  V30 459 C 44.8282 5.96399 -1.37749 0
M  V30 460 N 43.9652 6.98234 -0.735766 0
M  V30 461 H 48.8052 2.56968 -1.50903 0
M  V30 462 H 46.3422 1.26245 -0.755017 0
M  V30 463 H 48.3002 4.15279 0.399948 0
M  V30 464 H 46.9302 3.11018 0.864158 0
M  V30 465 H 45.9822 3.48418 -1.52673 0
M  V30 466 H 47.2942 4.65227 -1.79903 0
M  V30 467 H 46.4482 6.0664 0.0850095 0
M  V30 468 H 45.1872 4.85592 0.452967 0
M  V30 469 H 44.1922 5.18512 -1.82826 0
M  V30 470 H 45.4172 6.42899 -2.18764 0
M  V30 471 H 43.3632 6.55979 0.0525597 0
M  V30 472 H 43.2802 7.41965 -1.44995 0
M  V30 473 H 44.5482 7.78845 -0.31941 0
M  V30 474 N 48.7773 0.814389 1.34928 0
M  V30 475 C 49.7403 0.235759 2.27984 0
M  V30 476 C 50.7403 -0.581412 1.49921 0
M  V30 477 O 51.9303 -0.398758 1.69575 0
M  V30 478 C 49.0623 -0.670433 3.34242 0
M  V30 479 H 50.2553 1.05659 2.80671 0
M  V30 480 H 47.8083 0.585614 1.44915 0
M  V30 481 H 48.5433 -1.51466 2.86755 0
M  V30 482 H 48.3283 -0.0860822 3.92005 0
M  V30 483 H 49.8183 -1.06935 4.03676 0
M  V30 484 N 50.2554 -1.46986 0.568584 0
M  V30 485 C 51.2184 -2.28624 -0.162366 0
M  V30 486 C 52.2184 -1.37596 -0.832103 0
M  V30 487 O 53.4084 -1.60115 -0.68622 0
M  V30 488 C 50.5404 -3.17596 -1.23878 0
M  V30 489 H 51.7334 -2.94722 0.554899 0
M  V30 490 H 49.2864 -1.52863 0.325976 0
M  V30 491 H 50.0214 -2.56214 -1.98808 0
M  V30 492 H 49.8064 -3.846 -0.763219 0
M  V30 493 H 51.2964 -3.79078 -1.75185 0
M  V30 494 N 51.7335 -0.305618 -1.54608 0
M  V30 495 C 52.9815 0.301701 -1.99835 0
M  V30 496 C 53.3025 1.54054 -1.19551 0
M  V30 497 O 52.5725 1.93702 -0.292658 0
M  V30 498 H 51.1525 0.114468 -0.738178 0
M  V30 499 H 53.8145 -0.418016 -1.90364 0
M  V30 500 H 52.9105 0.570548 -3.06841 0
M  V30 501 N 53.2116 1.57565 -0.0334293 0
M  V30 502 C 54.4596 1.91598 0.642999 0
M  V30 503 C 54.7806 0.910847 1.7242 0
M  V30 504 O 54.0506 -0.0469931 1.95844 0
M  V30 505 H 52.6306 0.707228 0.240496 0
M  V30 506 H 55.2926 1.94726 -0.0822488 0
M  V30 507 H 54.3886 2.92336 1.09298 0
M  V30 508 N 54.6897 -0.239769 1.55765 0
M  V30 509 C 55.6197 -1.30052 1.9393 0
M  V30 510 C 56.6007 -1.49839 0.805132 0
M  V30 511 O 57.7857 -1.62328 1.06599 0
M  V30 512 C 54.9157 -2.65391 2.2402 0
M  V30 513 C 53.8697 -2.60289 3.39755 0
M  V30 514 C 53.1957 -3.99489 3.55405 0
M  V30 515 C 54.4957 -2.16654 4.75246 0
M  V30 516 H 56.1897 -0.983573 2.82783 0
M  V30 517 H 53.7357 -0.471701 1.36055 0
M  V30 518 H 55.6887 -3.3974 2.49308 0
M  V30 519 H 54.4127 -2.98736 1.32 0
M  V30 520 H 53.0717 -1.88398 3.14487 0
M  V30 521 H 52.7197 -4.30112 2.60793 0
M  V30 522 H 52.4197 -3.96962 4.33238 0
M  V30 523 H 53.9437 -4.75528 3.83022 0
M  V30 524 H 55.3577 -2.80737 4.99859 0
M  V30 525 H 53.7547 -2.25223 5.56232 0
M  V30 526 H 54.8247 -1.11835 4.71827 0
M  V30 527 N 56.1678 -1.49265 -0.50573 0
M  V30 528 C 57.4138 -1.59723 -1.25937 0
M  V30 529 C 57.7688 -0.278236 -1.90378 0
M  V30 530 O 57.0618 0.72113 -1.77511 0
M  V30 531 C 57.2558 -2.69008 -2.35308 0
M  V30 532 C 57.0848 -4.11405 -1.81592 0
M  V30 533 C 55.8548 -4.78252 -1.63105 0
M  V30 534 C 58.0528 -4.96792 -1.33048 0
M  V30 535 N 56.0348 -6.0498 -1.04269 0
M  V30 536 C 57.4058 -6.13962 -0.863168 0
M  V30 537 C 59.4608 -4.82828 -1.21577 0
M  V30 538 C 58.1638 -7.18705 -0.292489 0
M  V30 539 C 60.1898 -5.87716 -0.65907 0
M  V30 540 C 59.5518 -7.0411 -0.201954 0
M  V30 541 H 55.6508 -0.638864 -0.450973 0
M  V30 542 H 58.2348 -1.86251 -0.567326 0
M  V30 543 H 56.4058 -2.4426 -3.01979 0
M  V30 544 H 58.1378 -2.69013 -3.02348 0
M  V30 545 H 54.8928 -4.34974 -1.87336 0
M  V30 546 H 55.3168 -6.72631 -0.767919 0
M  V30 547 H 59.9588 -3.93159 -1.55518 0
M  V30 548 H 57.6768 -8.08078 0.0591987 0
M  V30 549 H 61.2628 -5.7897 -0.573156 0
M  V30 550 H 60.1428 -7.83885 0.222101 0
M  V30 551 N 57.6459 0.756429 -1.3826 0
M  V30 552 C 58.8929 1.51547 -1.34312 0
M  V30 553 C 59.2209 1.94382 0.0677144 0
M  V30 554 O 58.4759 1.65514 1.04421 0
M  V30 555 C 58.7749 2.78313 -2.24224 0
M  V30 556 C 58.4409 2.54455 -3.72241 0
M  V30 557 C 57.1029 2.47657 -4.12576 0
M  V30 558 C 59.4549 2.3354 -4.65949 0
M  V30 559 C 56.7829 2.17956 -5.44713 0
M  V30 560 C 59.1349 2.05359 -5.9834 0
M  V30 561 C 57.7989 1.97016 -6.37762 0
M  V30 562 H 57.0689 0.55455 -0.491482 0
M  V30 563 H 59.7159 0.870039 -1.70595 0
M  V30 564 H 58.0209 3.47492 -1.80987 0
M  V30 565 H 59.7179 3.36259 -2.18474 0
M  V30 566 H 56.3079 2.60616 -3.40261 0
M  V30 567 H 60.4919 2.37772 -4.35635 0
M  V30 568 H 55.7479 2.10003 -5.74203 0
M  V30 569 H 59.9219 1.88179 -6.70494 0
M  V30 570 H 57.5489 1.73766 -7.40074 0
M  V30 571 N 59.124 1.23083 0.984299 0
M  V30 572 C 60.372 1.05848 1.72165 0
M  V30 573 C 60.693 -0.406049 1.90726 0
M  V30 574 O 59.963 -1.29139 1.47309 0
M  V30 575 H 58.543 0.388685 0.637913 0
M  V30 576 H 61.205 1.54736 1.18503 0
M  V30 577 H 60.301 1.54327 2.71274 0
M  V30 578 N 60.6021 -1.18246 1.0419 0
M  V30 579 C 61.8481 -1.88793 0.75689 0
M  V30 580 C 62.2031 -1.78909 -0.707767 0
M  V30 581 O 61.4961 -1.1794 -1.50999 0
M  V30 582 C 61.6901 -3.38082 1.15911 0
M  V30 583 C 61.5191 -3.62496 2.66133 0
M  V30 584 C 60.2891 -3.7979 3.33298 0
M  V30 585 C 62.4871 -3.62976 3.64353 0
M  V30 586 N 60.4691 -3.91955 4.72487 0
M  V30 587 C 61.8401 -3.80869 4.89222 0
M  V30 588 C 63.8951 -3.46071 3.57965 0
M  V30 589 C 62.5981 -3.83608 6.08471 0
M  V30 590 C 64.6241 -3.50093 4.76643 0
M  V30 591 C 63.9861 -3.68484 6.00332 0
M  V30 592 H 60.0851 -0.709406 0.32904 0
M  V30 593 H 62.6691 -1.42022 1.33183 0
M  V30 594 H 60.8401 -3.83544 0.612238 0
M  V30 595 H 62.5721 -3.96202 0.824989 0
M  V30 596 H 59.3271 -3.79224 2.83701 0
M  V30 597 H 59.7511 -4.01857 5.44831 0
M  V30 598 H 64.3931 -3.30797 2.63311 0
M  V30 599 H 62.1111 -3.97669 7.0348 0
M  V30 600 H 65.6971 -3.38285 4.73344 0
M  V30 601 H 64.5771 -3.71488 6.90627 0
M  V30 602 N 62.0802 -0.821533 -1.34494 0
M  V30 603 C 63.3052 -0.420873 -2.03085 0
M  V30 604 C 63.7302 0.964915 -1.61465 0
M  V30 605 O 63.0882 1.62763 -0.798607 0
M  V30 606 C 63.1362 -0.529414 -3.56693 0
M  V30 607 O 62.2402 0.451302 -4.09923 0
M  V30 608 H 61.5812 -0.173489 -0.640935 0
M  V30 609 H 64.1112 -1.11157 -1.71771 0
M  V30 610 H 64.1212 -0.404671 -4.05988 0
M  V30 611 H 62.7962 -1.54014 -3.86332 0
M  V30 612 H 61.3732 0.285558 -3.71805 0
M  V30 613 N 63.5583 1.46682 -0.576371 0
M  V30 614 C 64.8063 2.02013 -0.0594163 0
M  V30 615 C 65.1273 1.45101 1.30271 0
M  V30 616 O 64.3973 0.633317 1.8538 0
M  V30 617 H 62.9773 0.746759 -0.0189745 0
M  V30 618 H 65.6393 1.79862 -0.750717 0
M  V30 619 H 64.7353 3.12097 0.014345 0
M  V30 620 N 65.0364 0.313813 1.54444 0
M  V30 621 C 65.9464 -0.565714 2.27677 0
M  V30 622 C 66.9624 -1.13754 1.31666 0
M  V30 623 O 68.1384 -1.15959 1.64668 0
M  V30 624 C 65.2034 -1.71528 3.01296 0
M  V30 625 C 64.2644 -1.17624 4.12872 0
M  V30 626 C 63.4974 -2.27102 4.8297 0
M  V30 627 O 63.7204 -3.47256 4.52514 0
M  V30 628 O 62.6544 -1.9307 5.70094 0
M  V30 629 H 66.4804 0.0287296 3.03686 0
M  V30 630 H 64.0654 0.0798312 1.49187 0
M  V30 631 H 65.9474 -2.38476 3.4743 0
M  V30 632 H 64.6224 -2.29608 2.2817 0
M  V30 633 H 63.5294 -0.472124 3.71109 0
M  V30 634 H 64.8624 -0.640695 4.88012 0
M  V30 635 N 66.5145 -1.57545 0.0417849 0
M  V30 636 C 67.7425 -1.96624 -0.643928 0
M  V30 637 C 68.1575 -0.918897 -1.64929 0
M  V30 638 O 67.5145 0.0979323 -1.82237 0
M  V30 639 C 67.5655 -3.35781 -1.33914 0
M  V30 640 O 67.2865 -4.365 -0.374048 0
M  V30 641 C 68.7875 -3.89566 -2.1155 0
M  V30 642 H 66.0075 -0.647316 -0.176702 0
M  V30 643 H 68.5515 -2.04229 0.105304 0
M  V30 644 H 66.7065 -3.29357 -2.03968 0
M  V30 645 H 67.1205 -5.17248 -0.869179 0
M  V30 646 H 68.5945 -4.89242 -2.55628 0
M  V30 647 H 69.0715 -3.24488 -2.9598 0
M  V30 648 H 69.6775 -3.99298 -1.46427 0
M  V30 649 N 67.9926 0.231505 -1.5589 0
M  V30 650 C 69.2406 0.955461 -1.78088 0
M  V30 651 C 69.5616 1.85262 -0.608533 0
M  V30 652 O 68.8316 1.92277 0.375035 0
M  V30 653 H 67.4116 0.355787 -0.656829 0
M  V30 654 H 70.0736 0.245751 -1.93344 0
M  V30 655 H 69.1696 1.56814 -2.69844 0
M  V30 656 N 69.4707 1.49531 0.497807 0
M  V30 657 C 70.4187 1.66926 1.61983 0
M  V30 658 C 71.4127 0.535167 1.60724 0
M  V30 659 O 72.6187 0.714896 1.65195 0
M  V30 660 H 68.9937 0.526415 0.537021 0
M  V30 661 H 70.9647 2.61098 1.44465 0
M  V30 662 C 69.7137 1.75602 3.00099 0
M  V30 663 H 69.0367 2.62244 3.01775 0
M  V30 664 H 70.4767 1.91807 3.78135 0
M  V30 665 C 68.9357 0.501543 3.33146 0
M  V30 666 O 69.4657 -0.371342 3.9998 0
M  V30 667 N 67.6717 0.363531 2.88317 0
M  V30 668 H 67.2187 1.07485 2.34104 0
M  V30 669 H 67.1767 -0.474728 3.10795 0
M  V30 670 N 70.9488 -0.749086 1.3866 0
M  V30 671 C 71.8588 -1.89358 1.38494 0
M  V30 672 C 72.8748 -1.71708 0.281476 0
M  V30 673 O 74.0508 -1.94554 0.520643 0
M  V30 674 C 71.1158 -3.24782 1.21316 0
M  V30 675 C 70.1768 -3.54926 2.41508 0
M  V30 676 C 69.4098 -4.83888 2.2514 0
M  V30 677 O 69.6328 -5.56592 1.24746 0
M  V30 678 O 68.5668 -5.13612 3.13826 0
M  V30 679 H 72.3928 -1.92452 2.34938 0
M  V30 680 H 69.9778 -0.894981 1.19626 0
M  V30 681 H 71.8598 -4.05739 1.13814 0
M  V30 682 H 70.5348 -3.2249 0.279592 0
M  V30 683 H 69.4418 -2.74112 2.54585 0
M  V30 684 H 70.7748 -3.61983 3.3351 0
M  V30 685 N 72.4269 -1.23603 -0.977757 0
M  V30 686 C 73.7039 -0.977897 -1.69401 0
M  V30 687 C 74.0839 0.502738 -2.05026 0
M  V30 688 O 73.4319 1.47459 -1.74551 0
M  V30 689 C 73.6419 -1.89077 -2.93345 0
M  V30 690 C 74.9899 -2.15579 -3.65802 0
M  V30 691 O 76.0139 -1.86648 -3.03383 0
M  V30 692 O 74.8729 -2.64658 -4.78141 0
M  V30 693 H 71.9669 -0.369025 -0.740101 0
M  V30 694 H 74.5129 -1.34657 -1.03274 0
M  V30 695 H 73.2849 -2.89158 -2.63634 0
M  V30 696 H 72.9079 -1.52463 -3.67207 0
M  V30 697 N 73.905 1.17692 -1.04816 0
M  V30 698 C 74.837 2.21103 -0.603822 0
M  V30 699 C 75.85 1.59411 0.33046 0
M  V30 700 O 77.039 1.7807 0.12379 0
M  V30 701 C 74.139 3.38623 0.136898 0
M  V30 702 C 73.312 4.29888 -0.807137 0
M  V30 703 C 72.371 5.26088 -0.10836 0
M  V30 704 O 71.397 5.64353 -0.741232 0
M  V30 705 N 72.599 5.68882 1.15558 0
M  V30 706 H 75.364 2.59848 -1.49329 0
M  V30 707 H 72.925 1.32553 -0.929587 0
M  V30 708 H 74.917 4.00009 0.614401 0
M  V30 709 H 73.487 2.98508 0.927993 0
M  V30 710 H 72.707 3.65993 -1.46434 0
M  V30 711 H 73.995 4.87759 -1.44807 0
M  V30 712 H 73.393 5.39861 1.69015 0
M  V30 713 H 71.95 6.32429 1.57722 0
M  V30 714 N 75.3831 0.828654 1.34056 0
M  V30 715 C 76.7941 0.477534 1.8049 0
M  V30 716 C 77.1451 -1.00258 1.6865 0
M  V30 717 O 76.2701 -1.78057 1.22982 0
M  V30 718 C 76.8651 0.860018 3.27703 0
M  V30 719 C 75.4241 0.561185 3.72193 0
M  V30 720 C 74.5711 1.07385 2.55663 0
M  V30 721 H 77.5221 1.0183 1.21722 0
M  V30 722 H 77.5431 0.166038 3.80138 0
M  V30 723 H 77.0551 1.93731 3.36288 0
M  V30 724 H 75.1561 -0.506465 3.69142 0
M  V30 725 H 75.2691 1.10926 4.66082 0
M  V30 726 H 73.6331 0.495149 2.49841 0
M  V30 727 H 74.4161 2.15771 2.67016 0
M  V30 728 N 76.8612 -1.46375 0.584142 0
M  V30 729 C 77.7912 -2.33103 -0.136037 0
M  V30 730 C 78.7722 -1.45431 -0.882255 0
M  V30 731 O 79.9572 -1.74246 -0.857434 0
M  V30 732 C 77.0872 -3.27731 -1.14933 0
M  V30 733 C 76.0412 -4.24855 -0.517862 0
M  V30 734 C 75.3672 -5.09001 -1.63773 0
M  V30 735 C 76.6672 -5.19439 0.545886 0
M  V30 736 H 78.3612 -2.93568 0.588086 0
M  V30 737 H 75.9072 -1.41166 0.284259 0
M  V30 738 H 77.8602 -3.87261 -1.66153 0
M  V30 739 H 76.5842 -2.65377 -1.90375 0
M  V30 740 H 75.2432 -3.6659 -0.0267361 0
M  V30 741 H 74.8912 -4.43031 -2.38185 0
M  V30 742 H 74.5912 -5.74777 -1.22085 0
M  V30 743 H 76.1152 -5.71396 -2.15266 0
M  V30 744 H 77.5292 -5.73177 0.118704 0
M  V30 745 H 75.9262 -5.93566 0.88317 0
M  V30 746 H 76.9962 -4.63285 1.43162 0
M  V30 747 N 78.3393 -0.321999 -1.54275 0
M  V30 748 C 79.2863 0.544664 -2.24281 0
M  V30 749 C 80.2563 1.1129 -1.23303 0
M  V30 750 O 81.4413 1.15354 -1.51981 0
M  V30 751 C 78.5813 1.70045 -3.00298 0
M  V30 752 C 77.6943 1.16159 -4.1609 0
M  V30 753 C 76.8293 2.28293 -4.79641 0
M  V30 754 C 75.8683 1.71648 -5.8754 0
M  V30 755 N 75.0053 2.77438 -6.44959 0
M  V30 756 H 79.8453 -0.0588907 -2.97942 0
M  V30 757 H 77.3823 -0.0408345 -1.47043 0
M  V30 758 H 79.3403 2.38054 -3.42616 0
M  V30 759 H 77.9703 2.27531 -2.28975 0
M  V30 760 H 77.0223 0.373092 -3.78566 0
M  V30 761 H 78.3343 0.707087 -4.93763 0
M  V30 762 H 77.4883 3.0421 -5.2492 0
M  V30 763 H 76.2273 2.77079 -4.01346 0
M  V30 764 H 75.2323 0.942282 -5.41665 0
M  V30 765 H 76.4573 1.23741 -6.67731 0
M  V30 766 H 74.4033 3.25519 -5.69538 0
M  V30 767 H 74.3203 2.36547 -7.1804 0
M  V30 768 H 75.5883 3.53189 -6.94894 0
M  V30 769 N 79.8174 1.5752 -0.0501392 0
M  V30 770 C 80.7644 2.1147 0.924603 0
M  V30 771 C 81.7344 1.02182 1.30951 0
M  V30 772 O 82.9194 1.29723 1.39916 0
M  V30 773 C 80.0594 2.66337 2.19451 0
M  V30 774 C 79.1724 3.89708 1.86418 0
M  V30 775 C 78.3074 4.32893 3.07859 0
M  V30 776 C 77.3464 5.48967 2.70742 0
M  V30 777 N 76.4834 5.87211 3.84874 0
M  V30 778 H 81.3234 2.94465 0.457639 0
M  V30 779 H 78.8604 1.45531 0.214266 0
M  V30 780 H 80.8184 2.96247 2.93758 0
M  V30 781 H 79.4484 1.86141 2.63726 0
M  V30 782 H 78.5004 3.66396 1.02264 0
M  V30 783 H 79.8124 4.74074 1.55096 0
M  V30 784 H 78.9664 4.6435 3.90466 0
M  V30 785 H 77.7054 3.47336 3.42358 0
M  V30 786 H 76.7104 5.17183 1.86551 0
M  V30 787 H 77.9354 6.3624 2.37436 0
M  V30 788 H 75.8814 5.04607 4.19175 0
M  V30 789 H 75.7984 6.66266 3.57247 0
M  V30 790 H 77.0664 6.23282 4.68123 0
M  V30 791 N 81.2955 -0.223234 1.56011 0
M  V30 792 C 82.5415 -0.949279 1.79211 0
M  V30 793 C 82.8745 -1.84054 0.619494 0
M  V30 794 O 82.1495 -1.90726 -0.381317 0
M  V30 795 C 82.4325 -1.78965 3.12479 0
M  V30 796 C 82.2855 -0.924997 4.40186 0
M  V30 797 C 83.6045 -2.76774 3.42175 0
M  V30 798 H 80.7235 -0.343676 0.651963 0
M  V30 799 H 83.3655 -0.218253 1.88742 0
M  V30 800 H 81.5155 -2.41291 3.04485 0
M  V30 801 H 83.1875 -0.318615 4.60198 0
M  V30 802 H 81.4305 -0.230344 4.33188 0
M  V30 803 H 82.1015 -1.54735 5.29869 0
M  V30 804 H 84.5775 -2.24584 3.50287 0
M  V30 805 H 83.4535 -3.32678 4.36597 0
M  V30 806 H 83.7145 -3.54429 2.64258 0
M  V30 807 N 82.7736 -1.49793 -0.48987 0
M  V30 808 C 83.7206 -1.67281 -1.59014 0
M  V30 809 C 84.6906 -0.514177 -1.57941 0
M  V30 810 O 85.8756 -0.742533 -1.75759 0
M  V30 811 C 83.0156 -1.75569 -2.97102 0
M  V30 812 C 82.1286 -3.0281 -3.08107 0
M  V30 813 C 81.2636 -3.02008 -4.36995 0
M  V30 814 C 80.3026 -4.23782 -4.41673 0
M  V30 815 N 79.4396 -4.20826 -5.62005 0
M  V30 816 H 84.2796 -2.61224 -1.43409 0
M  V30 817 H 81.8166 -1.29508 -0.697565 0
M  V30 818 H 83.7746 -1.78354 -3.77155 0
M  V30 819 H 82.4046 -0.850827 -3.11385 0
M  V30 820 H 81.4566 -3.09584 -2.21047 0
M  V30 821 H 82.7686 -3.92801 -3.07423 0
M  V30 822 H 81.9226 -3.03418 -5.25378 0
M  V30 823 H 80.6616 -2.09815 -4.4026 0
M  V30 824 H 79.6666 -4.22604 -3.5169 0
M  V30 825 H 80.8916 -5.17181 -4.40115 0
M  V30 826 H 78.8376 -3.31476 -5.66091 0
M  V30 827 H 78.7546 -5.04564 -5.62984 0
M  V30 828 H 80.0226 -4.26355 -6.52565 0
M  V30 829 N 84.2517 0.741722 -1.39055 0
M  V30 830 C 85.1987 1.85566 -1.37237 0
M  V30 831 C 86.1687 1.64457 -0.233072 0
M  V30 832 O 87.3537 1.85957 -0.427147 0
M  V30 833 C 84.4937 3.23004 -1.215 0
M  V30 834 C 83.6067 3.55864 -2.44918 0
M  V30 835 C 82.7417 4.82669 -2.21821 0
M  V30 836 C 81.7807 5.08351 -3.40948 0
M  V30 837 N 80.9177 6.26356 -3.17211 0
M  V30 838 H 85.7577 1.86455 -2.32462 0
M  V30 839 H 83.2947 0.911176 -1.15482 0
M  V30 840 H 85.2527 4.02331 -1.10389 0
M  V30 841 H 83.8827 3.21411 -0.29908 0
M  V30 842 H 82.9347 2.7129 -2.66657 0
M  V30 843 H 84.2467 3.70765 -3.33668 0
M  V30 844 H 83.4007 5.69962 -2.07914 0
M  V30 845 H 82.1397 4.69929 -1.30454 0
M  V30 846 H 81.1447 4.19522 -3.55361 0
M  V30 847 H 82.3697 5.22981 -4.33207 0
M  V30 848 H 80.3157 6.14917 -2.28502 0
M  V30 849 H 80.2327 6.41813 -3.99515 0
M  V30 850 H 81.5007 7.16506 -3.06984 0
M  V30 851 N 85.7298 1.2412 0.971189 0
M  V30 852 C 86.9778 1.07668 1.71032 0
M  V30 853 C 87.2988 -0.385797 1.91146 0
M  V30 854 O 86.5688 -1.27569 1.4867 0
M  V30 855 H 85.1488 0.395429 0.633755 0
M  V30 856 H 87.8108 1.55984 1.16855 0
M  V30 857 H 86.9068 1.57195 2.69622 0
M  V30 858 N 87.2079 -1.17134 1.05439 0
M  V30 859 C 88.1559 -2.23289 0.651511 0
M  V30 860 C 89.1499 -1.66186 -0.328411 0
M  V30 861 O 90.3559 -1.78949 -0.194206 0
M  V30 862 H 86.7309 -0.726938 0.192523 0
M  V30 863 H 88.7019 -2.54565 1.55689 0
M  V30 864 C 87.4509 -3.47671 0.0448436 0
M  V30 865 H 86.7739 -3.91918 0.78996 0
M  V30 866 H 88.2139 -4.2353 -0.19964 0
M  V30 867 C 86.6729 -3.14453 -1.20918 0
M  V30 868 O 87.2029 -3.29459 -2.29825 0
M  V30 869 N 85.4089 -2.68657 -1.10779 0
M  V30 870 H 84.9559 -2.56646 -0.221526 0
M  V30 871 H 84.9139 -2.46804 -1.9477 0
M  V30 872 N 88.686 -0.835752 -1.33615 0
M  V30 873 C 89.935 -0.426289 -1.97144 0
M  V30 874 C 90.248 1.01912 -1.66953 0
M  V30 875 O 91.454 1.53311 -2.24072 0
M  V30 876 C 89.91 -0.711321 -3.52801 0
M  V30 877 C 89.518 -2.1712 -3.91871 0
M  V30 878 C 91.262 -0.368654 -4.22896 0
M  V30 879 C 89.169 -2.40044 -5.40493 0
M  V30 880 H 88.099 -0.15567 -0.737755 0
M  V30 881 H 90.75 -1.0239 -1.52278 0
M  V30 882 H 89.132 -0.0433766 -3.95976 0
M  V30 883 H 90.306 -2.87936 -3.59763 0
M  V30 884 H 88.621 -2.47654 -3.34749 0
M  V30 885 H 91.218 -0.517601 -5.32189 0
M  V30 886 H 91.561 0.688078 -4.10574 0
M  V30 887 H 92.094 -0.991702 -3.8524 0
M  V30 888 H 88.833 -3.44271 -5.57815 0
M  V30 889 H 88.353 -1.73785 -5.74072 0
M  V30 890 H 90.032 -2.23042 -6.0734 0
M  V30 891 N 90.1641 1.46063 -0.591896 0
M  V30 892 C 91.3921 2.06717 -0.0868936 0
M  V30 893 C 91.8071 1.43916 1.22203 0
M  V30 894 O 91.1641 0.547698 1.74088 0
M  V30 895 C 91.2151 3.6142 0.0758725 0
M  V30 896 O 90.9361 4.21874 -1.18126 0
M  V30 897 C 92.4371 4.39025 0.61416 0
M  V30 898 H 89.6571 0.668162 -0.0616518 0
M  V30 899 H 92.2011 1.8755 -0.815175 0
M  V30 900 H 90.3561 3.79983 0.754413 0
M  V30 901 H 90.7701 5.14861 -1.00092 0
M  V30 902 H 92.2441 5.4783 0.677193 0
M  V30 903 H 92.7211 4.07708 1.63312 0
M  V30 904 H 93.3271 4.2529 -0.0298142 0
M  V30 905 N 91.6422 0.330177 1.54103 0
M  V30 906 C 92.8882 -0.263542 2.01685 0
M  V30 907 C 93.2432 -1.49258 1.21408 0
M  V30 908 O 92.5362 -1.89395 0.289852 0
M  V30 909 C 92.7302 -0.643134 3.51566 0
M  V30 910 C 92.5592 0.547571 4.46354 0
M  V30 911 C 91.3292 1.04873 4.94297 0
M  V30 912 C 93.5272 1.40184 4.94826 0
M  V30 913 N 91.5092 2.20316 5.73005 0
M  V30 914 C 92.8802 2.40335 5.71524 0
M  V30 915 C 94.9352 1.42884 4.76958 0
M  V30 916 C 93.6382 3.42998 6.32254 0
M  V30 917 C 95.6642 2.44421 5.38528 0
M  V30 918 C 95.0262 3.43298 6.15082 0
M  V30 919 H 91.1252 -0.0601026 0.779687 0
M  V30 920 H 93.7092 0.466714 1.89023 0
M  V30 921 H 91.8802 -1.34251 3.6446 0
M  V30 922 H 93.6122 -1.21889 3.85908 0
M  V30 923 H 90.3672 0.618956 4.69538 0
M  V30 924 H 90.7912 2.78565 6.17034 0
M  V30 925 H 95.4332 0.678049 4.17328 0
M  V30 926 H 93.1512 4.1898 6.91 0
M  V30 927 H 96.7372 2.4732 5.26616 0
M  V30 928 H 95.6172 4.20579 6.61878 0
M  V30 929 N 93.1203 -1.57491 0.0584922 0
M  V30 930 C 94.0833 -2.1085 -0.898617 0
M  V30 931 C 95.0833 -1.02964 -1.23511 0
M  V30 932 O 96.2733 -1.29007 -1.17059 0
M  V30 933 C 93.4053 -2.59881 -2.20623 0
M  V30 934 H 94.5983 -2.96715 -0.435936 0
M  V30 935 H 92.1513 -1.55141 -0.190023 0
M  V30 936 H 92.8863 -1.77431 -2.71457 0
M  V30 937 H 92.6713 -3.38727 -1.97501 0
M  V30 938 H 94.1613 -3.01285 -2.89166 0
M  V30 939 N 94.5984 0.214957 -1.56127 0
M  V30 940 C 95.8234 0.95924 -1.83884 0
M  V30 941 C 96.2484 1.7689 -0.639644 0
M  V30 942 O 95.6064 1.76566 0.411601 0
M  V30 943 C 95.6544 1.84723 -3.09693 0
M  V30 944 O 94.7584 2.94346 -2.8885 0
M  V30 945 H 94.0994 0.27125 -0.606069 0
M  V30 946 H 96.6294 0.226276 -2.03345 0
M  V30 947 H 96.6394 2.25576 -3.39969 0
M  V30 948 H 95.3144 1.25218 -3.96602 0
M  V30 949 H 93.8914 2.57391 -2.69823 0
M  V30 950 N 96.0765 1.50051 0.48192 0
M  V30 951 C 97.3235 1.60498 1.23477 0
M  V30 952 C 97.6515 0.300331 1.92167 0
M  V30 953 O 96.9065 -0.713094 1.82246 0
M  V30 954 C 97.2055 2.72717 2.30998 0
M  V30 955 C 96.8715 4.13572 1.79636 0
M  V30 956 C 95.5335 4.519 1.65348 0
M  V30 957 C 97.8855 5.01649 1.41412 0
M  V30 958 C 95.2135 5.76057 1.11244 0
M  V30 959 C 97.5655 6.26343 0.887538 0
M  V30 960 C 96.2295 6.63483 0.731207 0
M  V30 961 H 95.4995 0.587303 0.451836 0
M  V30 962 H 98.1465 1.83948 0.532468 0
M  V30 963 H 96.4515 2.43312 3.07094 0
M  V30 964 H 98.1485 2.78006 2.88988 0
M  V30 965 H 94.7385 3.83329 1.91721 0
M  V30 966 H 98.9225 4.72679 1.51289 0
M  V30 967 H 94.1785 6.03516 0.978686 0
M  V30 968 H 98.3525 6.93958 0.582654 0
M  V30 969 H 95.9795 7.59568 0.309806 0
M  V30 970 N 97.5546 -0.734337 1.39446 0
M  V30 971 C 98.5026 -1.86971 1.38364 0
M  V30 972 C 99.4966 -1.67288 0.266687 0
M  V30 973 O 100.703 -1.74621 0.436755 0
M  V30 974 H 97.0776 -0.615474 0.432082 0
M  V30 975 H 99.0486 -1.85 2.34132 0
M  V30 976 C 97.7976 -3.2466 1.24465 0
M  V30 977 H 97.1206 -3.40402 2.09682 0
M  V30 978 H 98.5606 -4.04292 1.27764 0
M  V30 979 C 97.0196 -3.36867 -0.0468674 0
M  V30 980 O 97.5496 -3.88618 -1.01681 0
M  V30 981 N 95.7556 -2.90391 -0.110145 0
M  V30 982 H 95.3026 -2.48466 0.679868 0
M  V30 983 H 95.2606 -2.98939 -0.973799 0
M  V30 984 N 99.0327 -1.24633 -0.964593 0
M  V30 985 C 99.9627 -1.06611 -2.07741 0
M  V30 986 C 100.944 0.0218666 -1.70086 0
M  V30 987 O 102.129 -0.145793 -1.93652 0
M  V30 988 C 99.2587 -0.673444 -3.40708 0
M  V30 989 C 98.2127 -1.71054 -3.92332 0
M  V30 990 C 97.5387 -1.17285 -5.21678 0
M  V30 991 C 98.8387 -3.10718 -4.19824 0
M  V30 992 H 100.533 -1.99693 -2.23076 0
M  V30 993 H 98.0787 -0.96152 -1.07195 0
M  V30 994 H 100.032 -0.534345 -4.17998 0
M  V30 995 H 98.7557 0.293073 -3.25282 0
M  V30 996 H 97.4147 -1.83791 -3.17201 0
M  V30 997 H 97.0627 -0.196847 -5.02615 0
M  V30 998 H 96.7627 -1.86592 -5.57187 0
M  V30 999 H 98.2867 -1.04593 -6.01575 0
M  V30 1000 H 99.7007 -3.01192 -4.87808 0
M  V30 1001 H 98.0977 -3.77406 -4.66567 0
M  V30 1002 H 99.1677 -3.58524 -3.26479 0
M  V30 1003 N 100.511 1.16574 -1.06058 0
M  V30 1004 C 101.736 1.91493 -0.796562 0
M  V30 1005 C 102.161 1.76773 0.642868 0
M  V30 1006 O 101.519 1.09142 1.44768 0
M  V30 1007 C 101.567 3.40293 -1.19303 0
M  V30 1008 O 100.671 4.11074 -0.330394 0
M  V30 1009 H 100.012 0.596678 -0.291326 0
M  V30 1010 H 102.542 1.47708 -1.41575 0
M  V30 1011 H 102.552 3.91057 -1.16356 0
M  V30 1012 H 101.227 3.50326 -2.24153 0
M  V30 1013 H 99.8038 3.70513 -0.421225 0
M  V30 1014 N 101.989 0.842826 1.3317 0
M  V30 1015 C 102.899 0.281444 2.32906 0
M  V30 1016 C 103.915 -0.594587 1.63526 0
M  V30 1017 O 105.091 -0.49777 1.95152 0
M  V30 1018 C 102.156 -0.530929 3.42611 0
M  V30 1019 C 101.217 0.369843 4.27704 0
M  V30 1020 C 100.45 -0.403853 5.3217 0
M  V30 1021 O 100.673 -1.63513 5.46461 0
M  V30 1022 O 99.6069 0.224199 6.01482 0
M  V30 1023 H 103.433 1.10744 2.82789 0
M  V30 1024 H 101.018 0.60545 1.36582 0
M  V30 1025 H 102.9 -0.992437 4.09547 0
M  V30 1026 H 101.575 -1.33392 2.94938 0
M  V30 1027 H 100.482 0.879275 3.6362 0
M  V30 1028 H 101.815 1.13771 4.78871 0
M  V30 1029 N 103.467 -1.45747 0.599634 0
M  V30 1030 C 104.399 -2.28628 -0.161879 0
M  V30 1031 C 105.412 -1.39494 -0.839367 0
M  V30 1032 O 106.601 -1.63941 -0.706089 0
M  V30 1033 C 103.701 -3.15014 -1.24976 0
M  V30 1034 C 102.874 -4.32378 -0.660935 0
M  V30 1035 C 101.933 -5.00033 -1.63869 0
M  V30 1036 O 100.959 -5.57085 -1.1681 0
M  V30 1037 N 102.161 -4.98589 -2.97303 0
M  V30 1038 H 104.926 -2.94624 0.549265 0
M  V30 1039 H 102.487 -1.55847 0.438565 0
M  V30 1040 H 104.479 -3.5714 -1.9035 0
M  V30 1041 H 103.049 -2.5098 -1.86354 0
M  V30 1042 H 102.269 -3.9383 0.170688 0
M  V30 1043 H 103.557 -5.08197 -0.247619 0
M  V30 1044 H 102.955 -4.53514 -3.38145 0
M  V30 1045 H 101.512 -5.44603 -3.58121 0
M  V30 1046 N 104.945 -0.338344 -1.53925 0
M  V30 1047 C 106.222 0.314774 -1.93051 0
M  V30 1048 C 106.602 1.68669 -1.26941 0
M  V30 1049 O 105.95 2.24636 -0.418445 0
M  V30 1050 C 106.16 0.392249 -3.46789 0
M  V30 1051 C 107.508 0.645554 -4.19664 0
M  V30 1052 O 108.532 0.474575 -3.53024 0
M  V30 1053 O 107.391 0.976408 -5.37707 0
M  V30 1054 H 104.485 0.182598 -0.80659 0
M  V30 1055 H 107.031 -0.389141 -1.65178 0
M  V30 1056 H 105.803 -0.570702 -3.87116 0
M  V30 1057 H 105.426 1.14316 -3.80812 0
M  V30 1058 N 106.423 1.57458 -0.0668435 0
M  V30 1059 C 107.353 2.15468 0.899764 0
M  V30 1060 C 108.334 1.08042 1.31381 0
M  V30 1061 O 109.519 1.36054 1.38574 0
M  V30 1062 C 106.649 2.71232 2.16911 0
M  V30 1063 C 105.603 3.83781 1.89463 0
M  V30 1064 C 104.929 4.26127 3.22986 0
M  V30 1065 C 106.229 5.08238 1.20381 0
M  V30 1066 H 107.923 2.96488 0.416529 0
M  V30 1067 H 105.469 1.4262 0.198908 0
M  V30 1068 H 107.422 3.10458 2.84945 0
M  V30 1069 H 106.146 1.87426 2.67468 0
M  V30 1070 H 104.805 3.45051 1.23836 0
M  V30 1071 H 104.453 3.39249 3.71374 0
M  V30 1072 H 104.153 5.01993 3.05413 0
M  V30 1073 H 105.677 4.67966 3.92225 0
M  V30 1074 H 107.091 5.44811 1.78475 0
M  V30 1075 H 105.488 5.89349 1.13083 0
M  V30 1076 H 106.558 4.84558 0.182153 0
M  V30 1077 N 107.901 -0.206675 1.56239 0
M  V30 1078 C 109.178 -0.954051 1.70755 0
M  V30 1079 C 109.558 -2.01841 0.618353 0
M  V30 1080 O 108.906 -2.25444 -0.372434 0
M  V30 1081 C 109.116 -1.551 3.12642 0
M  V30 1082 C 110.464 -2.03757 3.72516 0
M  V30 1083 O 111.488 -1.64965 3.15698 0
M  V30 1084 O 110.347 -2.75103 4.72208 0
M  V30 1085 H 107.441 -0.446636 0.696021 0
M  V30 1086 H 109.987 -0.197283 1.68549 0
M  V30 1087 H 108.759 -0.783212 3.83382 0
M  V30 1088 H 108.382 -2.37291 3.19028 0
M  V30 1089 N 109.379 -1.50304 -0.473955 0
M  V30 1090 C 110.289 -1.7174 -1.5982 0
M  V30 1091 C 111.305 -0.600457 -1.63311 0
M  V30 1092 O 112.481 -0.878441 -1.81233 0
M  V30 1093 C 109.546 -1.80427 -2.96052 0
M  V30 1094 C 108.607 -3.04148 -3.02972 0
M  V30 1095 C 107.84 -3.12411 -4.32706 0
M  V30 1096 O 108.063 -2.27542 -5.23049 0
M  V30 1097 O 106.997 -4.05113 -4.45159 0
M  V30 1098 H 110.823 -2.67035 -1.44657 0
M  V30 1099 H 108.408 -1.34366 -0.653148 0
M  V30 1100 H 110.29 -1.88338 -3.7697 0
M  V30 1101 H 108.965 -0.883156 -3.11419 0
M  V30 1102 H 107.872 -3.0174 -2.21142 0
M  V30 1103 H 109.205 -3.95829 -2.92541 0
M  V30 1104 N 110.857 0.726932 -1.39834 0
M  V30 1105 C 112.087 1.51393 -1.40583 0
M  V30 1106 C 112.495 1.892 -0.000740625 0
M  V30 1107 O 111.838 1.55189 0.982951 0
M  V30 1108 C 111.9 2.82588 -2.22226 0
M  V30 1109 C 111.564 2.67169 -3.70769 0
M  V30 1110 C 112.561 2.3518 -4.63666 0
M  V30 1111 C 110.246 2.83788 -4.14451 0
M  V30 1112 C 112.24 2.20002 -5.98229 0
M  V30 1113 C 109.927 2.68229 -5.49087 0
M  V30 1114 C 110.925 2.36382 -6.4079 0
M  V30 1115 O 110.613 2.2093 -7.72946 0
M  V30 1116 H 110.345 0.474168 -0.48181 0
M  V30 1117 H 112.899 0.905247 -1.84376 0
M  V30 1118 H 111.129 3.45746 -1.73195 0
M  V30 1119 H 112.818 3.44247 -2.15055 0
M  V30 1120 H 113.584 2.21984 -4.31217 0
M  V30 1121 H 109.463 3.07566 -3.43401 0
M  V30 1122 H 113.007 1.95067 -6.69772 0
M  V30 1123 H 108.904 2.81006 -5.81125 0
M  V30 1124 H 109.672 2.35937 -7.83757 0
M  V30 1125 N 112.336 1.25143 0.95797 0
M  V30 1126 C 113.566 1.12261 1.73439 0
M  V30 1127 C 113.974 -0.326715 1.86358 0
M  V30 1128 O 113.317 -1.2367 1.35836 0
M  V30 1129 C 113.379 1.69966 3.16784 0
M  V30 1130 C 113.043 3.18936 3.27305 0
M  V30 1131 C 114.04 4.15968 3.11877 0
M  V30 1132 C 111.725 3.59083 3.51234 0
M  V30 1133 C 113.719 5.51126 3.20217 0
M  V30 1134 C 111.406 4.9438 3.5921 0
M  V30 1135 C 112.404 5.90211 3.43716 0
M  V30 1136 O 112.092 7.23046 3.51368 0
M  V30 1137 H 111.824 0.392476 0.550399 0
M  V30 1138 H 114.378 1.65927 1.21068 0
M  V30 1139 H 112.608 1.10744 3.70503 0
M  V30 1140 H 114.297 1.52232 3.76272 0
M  V30 1141 H 115.063 3.86292 2.93264 0
M  V30 1142 H 110.942 2.84989 3.62356 0
M  V30 1143 H 114.486 6.25905 3.0804 0
M  V30 1144 H 110.383 5.23723 3.77339 0
M  V30 1145 H 111.151 7.31097 3.6802 0
M  V30 1146 N 113.814 -1.1601 1.06675 0
M  V30 1147 C 114.762 -2.22586 0.675157 0
M  V30 1148 C 115.756 -1.66525 -0.310766 0
M  V30 1149 O 116.962 -1.79145 -0.175215 0
M  V30 1150 H 113.337 -0.724855 0.200223 0
M  V30 1151 H 115.308 -2.52899 1.58381 0
M  V30 1152 C 114.057 -3.47604 0.0817162 0
M  V30 1153 H 113.38 -3.91058 0.831484 0
M  V30 1154 H 114.82 -4.23718 -0.154708 0
M  V30 1155 C 113.279 -3.15718 -1.17576 0
M  V30 1156 O 113.809 -3.31878 -2.26318 0
M  V30 1157 N 112.015 -2.69816 -1.07923 0
M  V30 1158 H 111.562 -2.56866 -0.194293 0
M  V30 1159 H 111.52 -2.48855 -1.92141 0
M  V30 1160 N 115.292 -0.849877 -1.32721 0
M  V30 1161 C 116.224 -0.248332 -2.27851 0
M  V30 1162 C 117.237 0.577218 -1.52224 0
M  V30 1163 O 118.426 0.402489 -1.73903 0
M  V30 1164 C 115.526 0.668107 -3.32249 0
M  V30 1165 C 114.699 -0.120534 -4.37234 0
M  V30 1166 C 113.758 0.720932 -5.21238 0
M  V30 1167 O 112.784 0.156166 -5.68986 0
M  V30 1168 N 113.986 2.03647 -5.43607 0
M  V30 1169 H 116.751 -1.06575 -2.80111 0
M  V30 1170 H 114.312 -0.709395 -1.45531 0
M  V30 1171 H 116.304 1.23627 -3.85355 0
M  V30 1172 H 114.874 1.38621 -2.80184 0
M  V30 1173 H 114.094 -0.870108 -3.84477 0
M  V30 1174 H 115.382 -0.662406 -5.0447 0
M  V30 1175 H 114.78 2.51871 -5.06535 0
M  V30 1176 H 113.337 2.55287 -5.99727 0
M  V30 1177 N 116.77 1.45427 -0.607355 0
M  V30 1178 C 118.017 2.02241 -0.102455 0
M  V30 1179 C 118.345 1.4758 1.26691 0
M  V30 1180 O 117.6 0.640468 1.84923 0
M  V30 1181 C 117.899 3.57398 -0.0129263 0
M  V30 1182 C 117.565 4.3121 -1.31792 0
M  V30 1183 C 116.227 4.51092 -1.67539 0
M  V30 1184 C 118.579 4.73401 -2.18039 0
M  V30 1185 C 115.907 5.10422 -2.89285 0
M  V30 1186 C 118.259 5.34078 -3.39034 0
M  V30 1187 C 116.923 5.52184 -3.75033 0
M  V30 1188 H 116.193 0.740051 -0.037491 0
M  V30 1189 H 118.84 1.74494 -0.788926 0
M  V30 1190 H 117.145 3.84421 0.756806 0
M  V30 1191 H 118.842 3.99061 0.393881 0
M  V30 1192 H 115.432 4.16047 -1.02968 0
M  V30 1193 H 119.616 4.57774 -1.91721 0
M  V30 1194 H 114.872 5.22629 -3.17283 0
M  V30 1195 H 119.046 5.65724 -4.06115 0
M  V30 1196 H 116.673 5.97925 -4.69457 0
M  V30 1197 N 118.248 0.346503 1.53744 0
M  V30 1198 C 119.473 -0.253074 2.0585 0
M  V30 1199 C 119.898 -1.43202 1.21962 0
M  V30 1200 O 119.256 -1.79783 0.234073 0
M  V30 1201 C 119.304 -0.643193 3.54817 0
M  V30 1202 O 118.408 -1.74286 3.73762 0
M  V30 1203 H 117.749 -0.0413583 0.662711 0
M  V30 1204 H 120.279 0.501574 1.98357 0
M  V30 1205 H 120.289 -0.919526 3.97503 0
M  V30 1206 H 118.964 0.218966 4.15323 0
M  V30 1207 H 117.541 -1.46356 3.42979 0
M  V30 1208 N 119.726 -1.57421 0.075193 0
M  V30 1209 C 120.674 -2.14124 -0.908508 0
M  V30 1210 C 121.668 -1.07898 -1.30592 0
M  V30 1211 O 122.874 -1.26273 -1.28277 0
M  V30 1212 H 119.249 -0.684707 -0.310935 0
M  V30 1213 H 121.22 -2.95634 -0.405374 0
M  V30 1214 C 119.969 -2.72044 -2.16535 0
M  V30 1215 H 119.292 -3.53456 -1.86839 0
M  V30 1216 H 120.732 -3.15311 -2.83469 0
M  V30 1217 C 119.191 -1.66968 -2.92615 0
M  V30 1218 O 119.721 -1.0967 -3.86439 0
M  V30 1219 N 117.927 -1.37923 -2.55784 0
M  V30 1220 H 117.474 -1.84706 -1.79559 0
M  V30 1221 H 117.432 -0.67852 -3.06991 0
M  V30 1222 N 121.204 0.198386 -1.56346 0
M  V30 1223 C 122.167 1.22952 -1.93431 0
M  V30 1224 C 123.167 1.38611 -0.815092 0
M  V30 1225 O 124.357 1.36479 -1.08255 0
M  V30 1226 C 121.489 2.59946 -2.20546 0
M  V30 1227 H 122.682 0.912626 -2.85677 0
M  V30 1228 H 120.235 0.43977 -1.49986 0
M  V30 1229 H 120.97 2.96696 -1.30927 0
M  V30 1230 H 120.755 2.49953 -3.02102 0
M  V30 1231 H 122.245 3.3431 -2.50253 0
M  V30 1232 N 122.682 1.50554 0.465978 0
M  V30 1233 C 123.928 1.62038 1.21949 0
M  V30 1234 C 124.261 0.322116 1.9151 0
M  V30 1235 O 123.536 -0.676723 1.82348 0
M  V30 1236 C 123.819 2.80421 2.25912 0
M  V30 1237 C 123.672 4.20144 1.60622 0
M  V30 1238 C 124.991 2.94354 3.27176 0
M  V30 1239 H 122.11 0.589752 0.441998 0
M  V30 1240 H 124.752 1.82956 0.51257 0
M  V30 1241 H 122.902 2.62717 2.86203 0
M  V30 1242 H 124.574 4.49449 1.03889 0
M  V30 1243 H 122.817 4.24165 0.909211 0
M  V30 1244 H 123.488 4.98914 2.36196 0
M  V30 1245 H 125.964 3.10578 2.76913 0
M  V30 1246 H 124.84 3.788 3.97242 0
M  V30 1247 H 125.101 2.05186 3.916 0
M  V30 1248 N 124.16 -0.719506 1.40217 0
M  V30 1249 C 125.09 -1.8465 1.42922 0
M  V30 1250 C 126.071 -1.67599 0.29062 0
M  V30 1251 O 127.256 -1.87688 0.498677 0
M  V30 1252 C 124.386 -3.22565 1.28722 0
M  V30 1253 C 123.34 -3.54281 2.40144 0
M  V30 1254 C 122.666 -4.91298 2.11023 0
M  V30 1255 C 123.966 -3.55676 3.82481 0
M  V30 1256 H 125.66 -1.82644 2.37237 0
M  V30 1257 H 123.206 -0.877305 1.1419 0
M  V30 1258 H 125.159 -4.01095 1.29232 0
M  V30 1259 H 123.883 -3.25137 0.308811 0
M  V30 1260 H 122.542 -2.78088 2.38877 0
M  V30 1261 H 122.19 -4.90468 1.11582 0
M  V30 1262 H 121.89 -5.13485 2.8567 0
M  V30 1263 H 123.414 -5.72166 2.13209 0
M  V30 1264 H 124.828 -4.24254 3.85592 0
M  V30 1265 H 123.225 -3.89388 4.56614 0
M  V30 1266 H 124.295 -2.55144 4.12346 0
M  V30 1267 N 125.638 -1.25649 -0.95132 0
M  V30 1268 C 126.884 -1.11766 -1.69941 0
M  V30 1269 C 127.239 0.33735 -1.89419 0
M  V30 1270 O 126.532 1.24491 -1.45645 0
M  V30 1271 C 126.726 -1.80909 -3.08231 0
M  V30 1272 C 126.555 -3.32984 -3.02245 0
M  V30 1273 C 125.325 -4.02247 -3.05819 0
M  V30 1274 C 127.523 -4.29332 -2.83157 0
M  V30 1275 N 125.505 -5.41072 -2.90024 0
M  V30 1276 C 126.876 -5.55265 -2.75828 0
M  V30 1277 C 128.931 -4.19707 -2.67863 0
M  V30 1278 C 127.634 -6.72671 -2.54767 0
M  V30 1279 C 129.66 -5.36809 -2.48173 0
M  V30 1280 C 129.022 -6.61683 -2.41567 0
M  V30 1281 H 125.121 -0.463708 -0.629682 0
M  V30 1282 H 127.705 -1.58796 -1.12659 0
M  V30 1283 H 125.876 -1.36369 -3.63673 0
M  V30 1284 H 127.608 -1.59739 -3.71841 0
M  V30 1285 H 124.363 -3.53531 -3.15139 0
M  V30 1286 H 124.787 -6.13938 -2.85323 0
M  V30 1287 H 129.429 -3.23907 -2.71743 0
M  V30 1288 H 127.147 -7.68577 -2.49629 0
M  V30 1289 H 130.733 -5.31224 -2.37259 0
M  V30 1290 H 129.613 -7.50768 -2.26531 0
M  V30 1291 N 127.117 1.15442 -1.07289 0
M  V30 1292 C 128.528 1.67803 -0.818475 0
M  V30 1293 C 128.879 1.8489 0.656507 0
M  V30 1294 O 128.004 1.55176 1.50829 0
M  V30 1295 C 128.599 3.04805 -1.47917 0
M  V30 1296 C 127.158 3.54245 -1.27229 0
M  V30 1297 C 126.305 2.29986 -1.54925 0
M  V30 1298 H 129.256 0.996646 -1.23502 0
M  V30 1299 H 129.277 3.69702 -0.90005 0
M  V30 1300 H 128.789 2.92336 -2.55267 0
M  V30 1301 H 126.89 3.71956 -0.21899 0
M  V30 1302 H 127.003 4.35723 -1.99203 0
M  V30 1303 H 125.367 2.35496 -0.970242 0
M  V30 1304 H 126.15 2.20105 -2.63455 0
M  V30 1305 N 128.595 0.856903 1.32268 0
M  V30 1306 C 129.558 0.308171 2.27119 0
M  V30 1307 C 130.558 -0.533421 1.51695 0
M  V30 1308 O 131.748 -0.344607 1.70757 0
M  V30 1309 C 128.88 -0.563757 3.36206 0
M  V30 1310 H 130.073 1.14535 2.77167 0
M  V30 1311 H 127.626 0.631421 1.42978 0
M  V30 1312 H 128.361 -1.42266 2.91429 0
M  V30 1313 H 128.146 0.0386749 3.92081 0
M  V30 1314 H 129.636 -0.940386 4.06874 0
M  V30 1315 N 130.073 -1.45103 0.615059 0
M  V30 1316 C 131.32 -2.02183 0.113179 0
M  V30 1317 C 131.648 -1.48249 -1.25906 0
M  V30 1318 O 130.903 -0.650265 -1.84581 0
M  V30 1319 C 131.202 -3.57386 0.0318797 0
M  V30 1320 C 130.868 -4.30505 1.34077 0
M  V30 1321 C 129.53 -4.50197 1.69929 0
M  V30 1322 C 131.882 -4.72238 2.20546 0
M  V30 1323 C 129.21 -5.08881 2.91988 0
M  V30 1324 C 131.562 -5.32272 3.41861 0
M  V30 1325 C 130.226 -5.50187 3.77956 0
M  V30 1326 H 129.496 -0.739842 0.0414151 0
M  V30 1327 H 132.143 -1.74073 0.798168 0
M  V30 1328 H 130.448 -3.84817 -0.736409 0
M  V30 1329 H 132.145 -3.99264 -0.372712 0
M  V30 1330 H 128.735 -4.15496 1.05173 0
M  V30 1331 H 132.919 -4.56751 1.94146 0
M  V30 1332 H 128.175 -5.20939 3.2005 0
M  V30 1333 H 132.349 -5.63563 4.09109 0
M  V30 1334 H 129.976 -5.95427 4.72622 0
M  V30 1335 N 131.551 -0.354651 -1.53558 0
M  V30 1336 C 132.501 0.513179 -2.2215 0
M  V30 1337 C 133.485 1.05734 -1.21281 0
M  V30 1338 O 134.677 0.989202 -1.46778 0
M  V30 1339 C 131.806 1.65798 -3.00609 0
M  V30 1340 C 130.892 1.12722 -4.08845 0
M  V30 1341 N 131.283 0.318563 -5.04796 0
M  V30 1342 C 129.581 1.40307 -4.23356 0
M  V30 1343 C 130.282 0.0292224 -5.81693 0
M  V30 1344 N 129.258 0.623891 -5.40008 0
M  V30 1345 H 133.06 -0.111586 -2.93688 0
M  V30 1346 H 130.574 -0.162091 -1.61589 0
M  V30 1347 H 132.571 2.29176 -3.48258 0
M  V30 1348 H 131.231 2.28591 -2.306 0
M  V30 1349 H 132.242 -0.0413091 -5.17884 0
M  V30 1350 H 128.919 2.03458 -3.6457 0
M  V30 1351 H 130.309 -0.623808 -6.68998 0
M  V30 1352 N 133.029 1.57378 -0.0835403 0
M  V30 1353 C 134.259 1.97975 0.590713 0
M  V30 1354 C 134.667 0.961083 1.62972 0
M  V30 1355 O 134.01 -0.0590879 1.83605 0
M  V30 1356 C 134.072 3.34915 1.3066 0
M  V30 1357 C 133.736 4.55069 0.419698 0
M  V30 1358 C 134.733 5.18868 -0.32749 0
M  V30 1359 C 132.418 5.0114 0.341137 0
M  V30 1360 C 134.412 6.27098 -1.14134 0
M  V30 1361 C 132.099 6.0924 -0.476374 0
M  V30 1362 C 133.097 6.72083 -1.21627 0
M  V30 1363 O 132.785 7.781 -2.02028 0
M  V30 1364 H 132.517 0.655818 0.163947 0
M  V30 1365 H 135.071 2.04807 -0.156021 0
M  V30 1366 H 133.301 3.24733 2.09966 0
M  V30 1367 H 134.99 3.60037 1.87424 0
M  V30 1368 H 135.756 4.84211 -0.276459 0
M  V30 1369 H 131.635 4.51996 0.90668 0
M  V30 1370 H 135.179 6.7608 -1.71935 0
M  V30 1371 H 131.076 6.43329 -0.528927 0
M  V30 1372 H 131.844 7.95034 -1.94586 0
M  V30 1373 N 134.507 -0.190092 1.56449 0
M  V30 1374 C 135.923 -0.54113 1.50146 0
M  V30 1375 C 136.123 -1.85603 0.784465 0
M  V30 1376 O 135.179 -2.5024 0.337051 0
M  V30 1377 C 136.492 -0.591241 2.9483 0
M  V30 1378 C 138.04 -0.679732 3.0553 0
M  V30 1379 C 138.515 -0.760908 4.51635 0
M  V30 1380 N 140.006 -0.824302 4.55806 0
M  V30 1381 C 140.741 -0.907365 5.66175 0
M  V30 1382 N 140.237 -0.952422 6.86222 0
M  V30 1383 N 142.03 -0.94494 5.541 0
M  V30 1384 H 134.181 0.67235 2.01478 0
M  V30 1385 H 136.444 0.240127 0.917084 0
M  V30 1386 H 136.15 0.305905 3.50367 0
M  V30 1387 H 136.024 -1.44422 3.48457 0
M  V30 1388 H 138.411 -1.56731 2.50039 0
M  V30 1389 H 138.492 0.199549 2.5502 0
M  V30 1390 H 138.136 0.122336 5.07753 0
M  V30 1391 H 138.066 -1.65606 4.99882 0
M  V30 1392 H 140.557 -0.798526 3.69367 0
M  V30 1393 H 140.87 -1.01645 7.66086 0
M  V30 1394 H 139.215 -0.921014 6.8887 0
M  V30 1395 H 142.406 -0.906612 4.59236 0
M  V30 1396 H 142.579 -1.00622 6.4014 0
M  V30 1397 N 135.985 -1.50799 -0.457987 0
M  V30 1398 C 136.915 -1.73553 -1.5621 0
M  V30 1399 C 137.896 -0.584774 -1.59732 0
M  V30 1400 O 139.081 -0.825314 -1.7579 0
M  V30 1401 C 136.211 -1.84169 -2.94447 0
M  V30 1402 C 135.165 -2.99461 -3.0579 0
M  V30 1403 C 134.491 -2.95235 -4.45803 0
M  V30 1404 C 135.791 -4.39766 -2.81786 0
M  V30 1405 H 137.485 -2.66 -1.37421 0
M  V30 1406 H 135.031 -1.28002 -0.659662 0
M  V30 1407 H 136.984 -1.98672 -3.71628 0
M  V30 1408 H 135.708 -0.883545 -3.14422 0
M  V30 1409 H 134.367 -2.8463 -2.31044 0
M  V30 1410 H 134.015 -1.97239 -4.62715 0
M  V30 1411 H 133.715 -3.72642 -4.54326 0
M  V30 1412 H 135.239 -3.11803 -5.24987 0
M  V30 1413 H 136.653 -4.55054 -3.4871 0
M  V30 1414 H 135.05 -5.18722 -3.0174 0
M  V30 1415 H 136.12 -4.51229 -1.7754 0
M  V30 1416 N 137.463 0.71206 -1.40597 0
M  V30 1417 C 138.74 1.46536 -1.29563 0
M  V30 1418 C 139.12 2.10931 0.0844217 0
M  V30 1419 O 138.468 2.00418 1.0975 0
M  V30 1420 C 138.678 2.49821 -2.43701 0
M  V30 1421 C 140.026 3.15551 -2.841 0
M  V30 1422 O 141.05 2.60142 -2.4332 0
M  V30 1423 O 139.909 4.15867 -3.54566 0
M  V30 1424 H 137.003 0.651801 -0.509004 0
M  V30 1425 H 139.549 0.743935 -1.52524 0
M  V30 1426 H 138.321 2.00778 -3.35863 0
M  V30 1427 H 137.944 3.29495 -2.22528 0
M  V30 1428 N 138.941 1.26152 0.944643 0
M  V30 1429 C 139.871 1.09902 2.06019 0
M  V30 1430 C 140.852 0.00519538 1.70099 0
M  V30 1431 O 142.037 0.176583 1.93396 0
M  V30 1432 C 139.167 0.727562 3.39594 0
M  V30 1433 C 138.121 1.77274 3.89561 0
M  V30 1434 C 137.447 1.25569 5.19747 0
M  V30 1435 C 138.747 3.17357 4.14827 0
M  V30 1436 H 140.441 2.03217 2.19871 0
M  V30 1437 H 137.987 0.978452 1.05652 0
M  V30 1438 H 139.94 0.600777 4.17095 0
M  V30 1439 H 138.664 -0.241287 3.25707 0
M  V30 1440 H 137.323 1.88814 3.14237 0
M  V30 1441 H 136.971 0.276783 5.02238 0
M  V30 1442 H 136.671 1.95433 5.54148 0
M  V30 1443 H 138.195 1.1415 5.99835 0
M  V30 1444 H 139.609 3.08914 4.82954 0
M  V30 1445 H 138.006 3.84781 4.60504 0
M  V30 1446 H 139.076 3.63673 3.20734 0
M  V30 1447 N 140.419 -1.14872 1.07899 0
M  V30 1448 C 141.665 -1.86064 0.806725 0
M  V30 1449 C 141.998 -1.82434 -0.665706 0
M  V30 1450 O 141.273 -1.25138 -1.48899 0
M  V30 1451 C 141.556 -3.34929 1.32267 0
M  V30 1452 C 141.409 -3.47161 2.86006 0
M  V30 1453 C 142.728 -4.29863 0.943717 0
M  V30 1454 H 139.847 -0.675591 0.294526 0
M  V30 1455 H 142.489 -1.34925 1.33773 0
M  V30 1456 H 140.639 -3.78611 0.870974 0
M  V30 1457 H 142.311 -3.12302 3.39507 0
M  V30 1458 H 140.554 -2.88539 3.23925 0
M  V30 1459 H 141.225 -4.51777 3.17177 0
M  V30 1460 H 143.701 -3.9417 1.33302 0
M  V30 1461 H 142.577 -5.32494 1.33198 0
M  V30 1462 H 142.838 -4.41846 -0.149796 0
M  V30 1463 N 141.898 -0.863906 -1.31812 0
M  V30 1464 C 142.83 -0.272485 -2.27575 0
M  V30 1465 C 143.843 0.56104 -1.52827 0
M  V30 1466 O 145.032 0.384021 -1.7432 0
M  V30 1467 C 142.132 0.63283 -3.32939 0
M  V30 1468 C 141.305 -0.166902 -4.37081 0
M  V30 1469 C 140.364 0.665608 -5.21973 0
M  V30 1470 O 139.39 0.0958091 -5.69119 0
M  V30 1471 N 140.592 1.9787 -5.45736 0
M  V30 1472 H 143.357 -1.0954 -2.78964 0
M  V30 1473 H 140.918 -0.724791 -1.4477 0
M  V30 1474 H 142.91 1.19532 -3.86645 0
M  V30 1475 H 141.48 1.35642 -2.81638 0
M  V30 1476 H 140.7 -0.910838 -3.83533 0
M  V30 1477 H 141.988 -0.715874 -5.03739 0
M  V30 1478 H 141.386 2.46484 -5.09178 0
M  V30 1479 H 139.943 2.48911 -6.024 0
M  V30 1480 N 143.376 1.44774 -0.622745 0
M  V30 1481 C 144.623 2.02121 -0.1239 0
M  V30 1482 C 144.951 1.48915 1.25118 0
M  V30 1483 O 144.206 0.660045 1.84233 0
M  V30 1484 C 144.505 3.57364 -0.0508323 0
M  V30 1485 C 144.171 4.29787 -1.36358 0
M  V30 1486 C 142.833 4.4929 -1.72314 0
M  V30 1487 C 145.185 4.71062 -2.23048 0
M  V30 1488 C 142.513 5.07325 -2.94682 0
M  V30 1489 C 144.865 5.30452 -3.44679 0
M  V30 1490 C 143.529 5.48175 -3.80868 0
M  V30 1491 H 142.799 0.739612 -0.0453381 0
M  V30 1492 H 145.446 1.73648 -0.807389 0
M  V30 1493 H 143.751 3.85202 0.715991 0
M  V30 1494 H 145.448 3.99456 0.351533 0
M  V30 1495 H 142.038 4.14932 -1.07375 0
M  V30 1496 H 146.222 4.55715 -1.96565 0
M  V30 1497 H 141.478 5.19235 -3.22809 0
M  V30 1498 H 145.652 5.61385 -4.12092 0
M  V30 1499 H 143.279 5.92912 -4.75773 0
M  V30 1500 N 144.854 0.36279 1.53368 0
M  V30 1501 C 145.786 -0.519668 2.23231 0
M  V30 1502 C 146.799 -1.04844 1.24546 0
M  V30 1503 O 147.988 -0.955296 1.50786 0
M  V30 1504 C 145.088 -1.72995 2.9142 0
M  V30 1505 C 144.261 -1.33316 4.16588 0
M  V30 1506 C 143.32 -2.40521 4.68013 0
M  V30 1507 O 142.346 -2.03027 5.3176 0
M  V30 1508 N 143.548 -3.72065 4.45587 0
M  V30 1509 H 146.313 0.078751 2.99597 0
M  V30 1510 H 143.874 0.187833 1.60807 0
M  V30 1511 H 145.866 -2.44184 3.22733 0
M  V30 1512 H 144.436 -2.2353 2.18525 0
M  V30 1513 H 143.656 -0.451236 3.91609 0
M  V30 1514 H 144.944 -1.04432 4.97967 0
M  V30 1515 H 144.342 -4.05304 3.94646 0
M  V30 1516 H 142.899 -4.39366 4.81457 0
M  V30 1517 N 146.332 -1.57332 0.0918853 0
M  V30 1518 C 147.748 -1.57389 -0.264766 0
M  V30 1519 C 147.948 -1.10281 -1.68643 0
M  V30 1520 O 147.004 -0.777801 -2.40222 0
M  V30 1521 C 148.317 -3.00648 -0.0561195 0
M  V30 1522 C 149.865 -3.12754 -0.124116 0
M  V30 1523 C 150.34 -4.57965 0.0564972 0
M  V30 1524 N 151.831 -4.632 0.00155611 0
M  V30 1525 C 152.566 -5.73281 0.116598 0
M  V30 1526 N 152.062 -6.92208 0.286294 0
M  V30 1527 N 153.855 -5.6207 0.0580973 0
M  V30 1528 H 146.006 -1.86262 1.02079 0
M  V30 1529 H 148.269 -0.859579 0.399786 0
M  V30 1530 H 147.975 -3.393 0.925669 0
M  V30 1531 H 147.849 -3.68623 -0.799823 0
M  V30 1532 H 150.236 -2.73976 -1.09641 0
M  V30 1533 H 150.317 -2.47377 0.651024 0
M  V30 1534 H 149.961 -4.97436 1.02564 0
M  V30 1535 H 149.891 -5.21399 -0.738297 0
M  V30 1536 H 152.382 -3.77686 -0.127192 0
M  V30 1537 H 152.695 -7.71934 0.365676 0
M  V30 1538 H 151.04 -6.94254 0.32192 0
M  V30 1539 H 154.231 -4.68043 -0.0733204 0
M  V30 1540 H 154.404 -6.47824 0.151203 0
M  V30 1541 N 147.81 0.181792 -1.56548 0
M  V30 1542 C 149.221 0.745244 -1.71181 0
M  V30 1543 C 149.572 1.83262 -0.70068 0
M  V30 1544 O 148.697 2.15946 0.140154 0
M  V30 1545 C 149.292 1.35859 -3.10367 0
M  V30 1546 C 147.851 1.86898 -3.2672 0
M  V30 1547 C 146.998 0.743942 -2.67134 0
M  V30 1548 H 149.949 -0.0434661 -1.5864 0
M  V30 1549 H 149.97 2.22817 -3.08436 0
M  V30 1550 H 149.482 0.566948 -3.83937 0
M  V30 1551 H 147.583 2.68738 -2.5809 0
M  V30 1552 H 147.696 2.02162 -4.34359 0
M  V30 1553 H 146.06 1.16169 -2.26665 0
M  V30 1554 H 146.843 -0.035676 -3.43281 0
M  V30 1555 N 149.288 1.51039 0.449983 0
M  V30 1556 C 150.251 1.70863 1.5277 0
M  V30 1557 C 151.251 0.578846 1.5002 0
M  V30 1558 O 152.441 0.846213 1.52266 0
M  V30 1559 C 149.573 1.75341 2.9235 0
M  V30 1560 H 150.766 2.67034 1.36502 0
M  V30 1561 H 148.319 1.40838 0.677812 0
M  V30 1562 H 149.054 0.809383 3.14037 0
M  V30 1563 H 148.839 2.57436 2.95752 0
M  V30 1564 H 150.329 1.92559 3.70555 0
M  V30 1565 N 150.766 -0.704594 1.40972 0
M  V30 1566 C 152.012 -1.46546 1.41053 0
M  V30 1567 C 152.367 -1.92393 0.0159714 0
M  V30 1568 O 151.66 -1.66017 -0.956506 0
M  V30 1569 C 151.854 -2.698 2.34399 0
M  V30 1570 C 151.683 -2.36008 3.82793 0
M  V30 1571 C 150.453 -2.26812 4.51536 0
M  V30 1572 C 152.651 -1.99565 4.74003 0
M  V30 1573 N 150.633 -1.8581 5.85105 0
M  V30 1574 C 152.004 -1.69251 5.96451 0
M  V30 1575 C 154.059 -1.86296 4.61734 0
M  V30 1576 C 152.762 -1.27003 7.07999 0
M  V30 1577 C 154.788 -1.45452 5.73234 0
M  V30 1578 C 154.15 -1.16043 6.94776 0
M  V30 1579 H 150.249 -0.533896 0.571383 0
M  V30 1580 H 152.833 -0.816061 1.76773 0
M  V30 1581 H 151.004 -3.32473 2.00789 0
M  V30 1582 H 152.736 -3.36214 2.25261 0
M  V30 1583 H 149.491 -2.44913 4.05357 0
M  V30 1584 H 149.915 -1.67817 6.55871 0
M  V30 1585 H 154.557 -2.0769 3.68273 0
M  V30 1586 H 152.275 -1.04353 8.01334 0
M  V30 1587 H 155.861 -1.35748 5.65742 0
M  V30 1588 H 154.741 -0.84915 7.79589 0
M  V30 1589 N 152.244 -1.26651 -0.937939 0
M  V30 1590 C 153.521 -1.0313 -1.66204 0
M  V30 1591 C 153.901 0.437256 -2.06522 0
M  V30 1592 O 153.249 1.41831 -1.79154 0
M  V30 1593 C 153.459 -1.98314 -2.87181 0
M  V30 1594 C 154.807 -2.27107 -3.58758 0
M  V30 1595 O 155.831 -1.96205 -2.97291 0
M  V30 1596 O 154.69 -2.79736 -4.69479 0
M  V30 1597 H 151.784 -0.392384 -0.727986 0
M  V30 1598 H 154.33 -1.37874 -0.989382 0
M  V30 1599 H 153.102 -2.97399 -2.54302 0
M  V30 1600 H 152.725 -1.64068 -3.6217 0
M  V30 1601 N 153.722 1.14298 -1.08507 0
M  V30 1602 C 154.97 1.84993 -0.813763 0
M  V30 1603 C 155.291 1.83405 0.662393 0
M  V30 1604 O 154.561 1.28319 1.48024 0
M  V30 1605 H 153.141 0.684966 -0.298045 0
M  V30 1606 H 155.803 1.385 -1.37126 0
M  V30 1607 H 154.899 2.89788 -1.15884 0
M  V30 1608 N 155.201 0.870884 1.31352 0
M  V30 1609 C 156.431 0.496049 2.00557 0
M  V30 1610 C 156.839 -0.916241 1.65534 0
M  V30 1611 O 156.182 -1.61188 0.881134 0
M  V30 1612 C 156.244 0.574418 3.54881 0
M  V30 1613 C 155.908 1.94849 4.1338 0
M  V30 1614 C 156.905 2.91611 4.30417 0
M  V30 1615 C 154.59 2.25005 4.49086 0
M  V30 1616 C 156.584 4.16672 4.82352 0
M  V30 1617 C 154.271 3.50315 5.00722 0
M  V30 1618 C 155.269 4.45964 5.17306 0
M  V30 1619 O 154.957 5.69052 5.67833 0
M  V30 1620 H 154.689 0.191664 0.64826 0
M  V30 1621 H 157.243 1.17409 1.68536 0
M  V30 1622 H 155.473 -0.160549 3.86367 0
M  V30 1623 H 157.162 0.212879 4.05341 0
M  V30 1624 H 157.928 2.69622 4.03149 0
M  V30 1625 H 153.807 1.51332 4.35453 0
M  V30 1626 H 157.351 4.91336 4.95211 0
M  V30 1627 H 153.248 3.72147 5.27424 0
M  V30 1628 H 154.016 5.71236 5.86201 0
M  V30 1629 N 156.679 -1.44442 0.630414 0
M  V30 1630 C 157.609 -2.33418 -0.0618083 0
M  V30 1631 C 158.59 -1.48165 -0.835541 0
M  V30 1632 O 159.775 -1.76886 -0.801564 0
M  V30 1633 C 156.905 -3.31222 -1.04449 0
M  V30 1634 C 155.859 -4.26288 -0.382436 0
M  V30 1635 C 155.185 -5.13954 -1.47497 0
M  V30 1636 C 156.485 -5.1744 0.710865 0
M  V30 1637 H 158.179 -2.91548 0.681184 0
M  V30 1638 H 155.725 -1.40191 0.329026 0
M  V30 1639 H 157.678 -3.92351 -1.53748 0
M  V30 1640 H 156.402 -2.71299 -1.81836 0
M  V30 1641 H 155.061 -3.6649 0.0899054 0
M  V30 1642 H 154.709 -4.50385 -2.2397 0
M  V30 1643 H 154.409 -5.7837 -1.03737 0
M  V30 1644 H 155.933 -5.77955 -1.96979 0
M  V30 1645 H 157.347 -5.72509 0.300996 0
M  V30 1646 H 155.744 -5.90455 1.07156 0
M  V30 1647 H 156.814 -4.58496 1.57829 0
M  V30 1648 N 158.157 -0.370918 -1.53173 0
M  V30 1649 C 159.573 -0.0200818 -1.59587 0
M  V30 1650 C 159.773 1.46279 -1.38581 0
M  V30 1651 O 158.829 2.22506 -1.19363 0
M  V30 1652 C 160.142 -0.4808 -2.96831 0
M  V30 1653 C 161.69 -0.435477 -3.09956 0
M  V30 1654 C 162.165 -0.872092 -4.4962 0
M  V30 1655 N 163.656 -0.827364 -4.55751 0
M  V30 1656 C 164.391 -1.13683 -5.62018 0
M  V30 1657 N 163.887 -1.51584 -6.76014 0
M  V30 1658 N 165.68 -1.05927 -5.52029 0
M  V30 1659 H 157.831 -1.33652 -1.65079 0
M  V30 1660 H 160.094 -0.546634 -0.774529 0
M  V30 1661 H 159.8 -1.51577 -3.1736 0
M  V30 1662 H 159.674 0.129796 -3.76977 0
M  V30 1663 H 162.061 0.590371 -2.89134 0
M  V30 1664 H 162.142 -1.08164 -2.31806 0
M  V30 1665 H 161.786 -1.89608 -4.71181 0
M  V30 1666 H 161.716 -0.203127 -5.26208 0
M  V30 1667 H 164.207 -0.548216 -3.73902 0
M  V30 1668 H 164.52 -1.73609 -7.53047 0
M  V30 1669 H 162.865 -1.55454 -6.77391 0
M  V30 1670 H 166.056 -0.762321 -4.61851 0
M  V30 1671 H 166.229 -1.30378 -6.34749 0
M  V30 1672 N 159.635 1.57281 -0.100228 0
M  V30 1673 C 160.881 1.94826 0.563101 0
M  V30 1674 C 161.214 0.982475 1.67514 0
M  V30 1675 O 160.489 0.0164069 1.94493 0
M  V30 1676 C 160.772 3.42453 1.11346 0
M  V30 1677 C 160.625 4.498 0.00612081 0
M  V30 1678 C 161.944 3.91506 2.01024 0
M  V30 1679 H 159.063 0.708428 0.203221 0
M  V30 1680 H 161.705 1.8922 -0.171979 0
M  V30 1681 H 159.855 3.47361 1.7399 0
M  V30 1682 H 161.527 4.57 -0.628357 0
M  V30 1683 H 159.77 4.28756 -0.659581 0
M  V30 1684 H 160.441 5.50306 0.432109 0
M  V30 1685 H 162.917 3.88784 1.48278 0
M  V30 1686 H 161.793 4.95358 2.36457 0
M  V30 1687 H 162.054 3.31099 2.92961 0
M  V30 1688 N 161.113 -0.173488 1.56642 0
M  V30 1689 C 162.061 -1.23417 1.97157 0
M  V30 1690 C 163.055 -1.45946 0.860013 0
M  V30 1691 O 164.261 -1.46551 1.04512 0
M  V30 1692 H 160.636 -0.414818 0.62724 0
M  V30 1693 H 162.607 -0.865582 2.8557 0
M  V30 1694 C 161.356 -2.5665 2.34576 0
M  V30 1695 H 160.679 -2.40137 3.19647 0
M  V30 1696 H 162.119 -3.2956 2.6677 0
M  V30 1697 C 160.578 -3.15245 1.18836 0
M  V30 1698 O 161.108 -3.98883 0.474869 0
M  V30 1699 N 159.314 -2.74303 0.959497 0
M  V30 1700 H 158.861 -2.0639 1.54146 0
M  V30 1701 H 158.819 -3.13844 0.186932 0
M  V30 1702 N 162.591 -1.51276 -0.441967 0
M  V30 1703 C 163.554 -1.7167 -1.51862 0
M  V30 1704 C 164.554 -0.586793 -1.49711 0
M  V30 1705 O 165.744 -0.854276 -1.51815 0
M  V30 1706 C 162.876 -1.76889 -2.91416 0
M  V30 1707 H 164.069 -2.67754 -1.35084 0
M  V30 1708 H 161.622 -1.41196 -0.670333 0
M  V30 1709 H 162.357 -0.826026 -3.13604 0
M  V30 1710 H 162.142 -2.59001 -2.94382 0
M  V30 1711 H 163.632 -1.94522 -3.69528 0
M  V30 1712 N 164.069 0.697108 -1.41344 0
M  V30 1713 C 164.999 1.82353 -1.45841 0
M  V30 1714 C 165.98 1.67115 -0.317247 0
M  V30 1715 O 167.165 1.86871 -0.528474 0
M  V30 1716 C 164.295 3.20476 -1.33838 0
M  V30 1717 C 163.249 3.50415 -2.4575 0
M  V30 1718 C 162.575 4.87878 -2.18813 0
M  V30 1719 C 163.875 3.49546 -3.88091 0
M  V30 1720 H 165.569 1.78846 -2.40113 0
M  V30 1721 H 163.115 0.859028 -1.15571 0
M  V30 1722 H 165.068 3.98988 -1.35596 0
M  V30 1723 H 163.792 3.24604 -0.360498 0
M  V30 1724 H 162.451 2.74253 -2.43271 0
M  V30 1725 H 162.099 4.8863 -1.19371 0
M  V30 1726 H 161.799 5.08875 -2.93803 0
M  V30 1727 H 163.323 5.68702 -2.22284 0
M  V30 1728 H 164.737 4.18066 -3.92293 0
M  V30 1729 H 163.134 3.82075 -4.62751 0
M  V30 1730 H 164.204 2.48552 -4.16353 0
M  V30 1731 N 165.547 1.27147 0.931209 0
M  V30 1732 C 166.477 1.12081 2.04842 0
M  V30 1733 C 167.458 0.0232364 1.70084 0
M  V30 1734 O 168.643 0.197085 1.93197 0
M  V30 1735 C 165.773 0.76354 3.38803 0
M  V30 1736 C 164.727 1.81396 3.87659 0
M  V30 1737 C 164.053 1.31075 5.18385 0
M  V30 1738 C 165.353 3.21739 4.11438 0
M  V30 1739 H 167.047 2.05537 2.17703 0
M  V30 1740 H 164.593 0.989603 1.04608 0
M  V30 1741 H 166.546 0.644982 4.16435 0
M  V30 1742 H 165.27 -0.206727 3.25945 0
M  V30 1743 H 163.929 1.92136 3.12217 0
M  V30 1744 H 163.577 0.330037 5.01916 0
M  V30 1745 H 163.277 2.013 5.52044 0
M  V30 1746 H 164.801 1.20506 5.98591 0
M  V30 1747 H 166.215 3.14019 4.79651 0
M  V30 1748 H 164.612 3.89644 4.56397 0
M  V30 1749 H 165.682 3.67054 3.16859 0
M  V30 1750 N 167.025 -1.13721 1.09112 0
M  V30 1751 C 167.988 -2.17222 0.731241 0
M  V30 1752 C 168.988 -1.59035 -0.237566 0
M  V30 1753 O 170.178 -1.74192 -0.0161704 0
M  V30 1754 C 167.31 -3.40804 0.0808443 0
M  V30 1755 H 168.503 -2.50573 1.64783 0
M  V30 1756 H 166.056 -1.28493 0.889897 0
M  V30 1757 H 166.791 -3.1304 -0.847127 0
M  V30 1758 H 166.576 -3.84306 0.777896 0
M  V30 1759 H 168.066 -4.1731 -0.155657 0
M  V30 1760 N 168.503 -0.877838 -1.30888 0
M  V30 1761 C 169.78 -0.413052 -1.91189 0
M  V30 1762 C 170.16 1.1056 -1.79832 0
M  V30 1763 O 169.508 1.93771 -1.21099 0
M  V30 1764 C 169.718 -0.903191 -3.3711 0
M  V30 1765 C 171.066 -0.93395 -4.14201 0
M  V30 1766 O 172.09 -0.849373 -3.45925 0
M  V30 1767 O 170.949 -1.05772 -5.36167 0
M  V30 1768 H 168.043 -0.125035 -0.817493 0
M  V30 1769 H 170.589 -0.966269 -1.39504 0
M  V30 1770 H 169.361 -1.94692 -3.39427 0
M  V30 1771 H 168.984 -0.328732 -3.96239 0
M  V30 1772 N 169.982 1.44106 -0.638065 0
M  V30 1773 C 170.929 2.30715 0.062701 0
M  V30 1774 C 171.899 1.43882 0.829883 0
M  V30 1775 O 173.084 1.72775 0.809532 0
M  V30 1776 C 170.224 3.29258 1.03358 0
M  V30 1777 C 169.337 4.31192 0.26409 0
M  V30 1778 C 168.472 5.16825 1.22741 0
M  V30 1779 C 167.511 6.10462 0.447475 0
M  V30 1780 N 166.648 6.8877 1.36161 0
M  V30 1781 H 171.488 2.90096 -0.681781 0
M  V30 1782 H 169.025 1.42925 -0.347988 0
M  V30 1783 H 170.983 3.84886 1.60992 0
M  V30 1784 H 169.613 2.71562 1.74511 0
M  V30 1785 H 168.665 3.77981 -0.428295 0
M  V30 1786 H 169.977 4.97619 -0.343052 0
M  V30 1787 H 169.131 5.77004 1.87487 0
M  V30 1788 H 167.87 4.50488 1.86847 0
M  V30 1789 H 166.875 5.49386 -0.213433 0
M  V30 1790 H 168.1 6.78837 -0.188968 0
M  V30 1791 H 166.046 6.25096 1.98975 0
M  V30 1792 H 165.963 7.51663 0.808656 0
M  V30 1793 H 167.231 7.53467 1.99769 0
M  V30 1794 N 171.46 0.379036 1.52974 0
M  V30 1795 C 172.39 -0.452706 2.29069 0
M  V30 1796 C 173.371 -1.07237 1.32039 0
M  V30 1797 O 174.556 -1.08708 1.60923 0
M  V30 1798 C 171.686 -1.5856 3.08992 0
M  V30 1799 C 170.64 -1.0925 4.13822 0
M  V30 1800 C 169.966 -2.31668 4.81907 0
M  V30 1801 C 171.266 -0.167702 5.22031 0
M  V30 1802 H 172.96 0.182181 2.98845 0
M  V30 1803 H 170.506 0.0890592 1.43724 0
M  V30 1804 H 172.459 -2.1742 3.6098 0
M  V30 1805 H 171.183 -2.24792 2.36931 0
M  V30 1806 H 169.842 -0.526494 3.628 0
M  V30 1807 H 169.49 -2.96386 4.06404 0
M  V30 1808 H 169.19 -1.9934 5.52754 0
M  V30 1809 H 170.714 -2.91189 5.36695 0
M  V30 1810 H 172.128 -0.664186 5.6944 0
M  V30 1811 H 170.525 0.0653265 6.00064 0
M  V30 1812 H 171.595 0.786347 4.78482 0
M  V30 1813 N 172.938 -1.57226 0.108567 0
M  V30 1814 C 173.868 -2.17778 -0.84232 0
M  V30 1815 C 174.849 -1.11487 -1.2847 0
M  V30 1816 O 176.034 -1.39681 -1.34918 0
M  V30 1817 C 173.164 -2.76888 -2.09644 0
M  V30 1818 C 172.118 -3.88669 -1.79221 0
M  V30 1819 C 171.444 -4.34541 -3.11574 0
M  V30 1820 C 172.744 -5.11251 -1.06864 0
M  V30 1821 H 174.438 -2.97489 -0.337774 0
M  V30 1822 H 171.984 -1.43097 -0.161025 0
M  V30 1823 H 173.937 -3.17904 -2.76614 0
M  V30 1824 H 172.661 -1.94451 -2.62405 0
M  V30 1825 H 171.32 -3.48213 -1.14644 0
M  V30 1826 H 170.968 -3.48977 -3.62249 0
M  V30 1827 H 170.668 -5.09914 -2.91996 0
M  V30 1828 H 172.192 -4.782 -3.7968 0
M  V30 1829 H 173.606 -5.49352 -1.63968 0
M  V30 1830 H 172.003 -5.9214 -0.974178 0
M  V30 1831 H 173.073 -4.8487 -0.0536168 0
M  V30 1832 N 174.416 0.165178 -1.56732 0
M  V30 1833 C 175.827 0.727046 -1.71962 0
M  V30 1834 C 176.178 1.82508 -0.720078 0
M  V30 1835 O 175.303 2.16082 0.117242 0
M  V30 1836 C 175.898 1.32559 -3.11791 0
M  V30 1837 C 174.457 1.83422 -3.28684 0
M  V30 1838 C 173.604 0.715567 -2.67908 0
M  V30 1839 H 176.555 -0.0602896 -1.58585 0
M  V30 1840 H 176.576 2.19533 -3.10782 0
M  V30 1841 H 176.088 0.526195 -3.84516 0
M  V30 1842 H 174.189 2.65986 -2.60926 0
M  V30 1843 H 174.302 1.97543 -4.36478 0
M  V30 1844 H 172.666 1.13758 -2.27884 0
M  V30 1845 H 173.449 -0.0720836 -3.43224 0
M  V30 1846 N 175.894 1.51508 0.433938 0
M  V30 1847 C 176.824 1.76016 1.53429 0
M  V30 1848 C 177.805 0.610112 1.58782 0
M  V30 1849 O 178.99 0.853177 1.74455 0
M  V30 1850 C 176.12 1.88831 2.9148 0
M  V30 1851 C 175.074 3.04288 3.00987 0
M  V30 1852 C 174.4 3.0229 4.4105 0
M  V30 1853 C 175.7 4.44193 2.74754 0
M  V30 1854 H 177.394 2.68152 1.33171 0
M  V30 1855 H 174.94 1.29035 0.639214 0
M  V30 1856 H 176.893 2.04559 3.6842 0
M  V30 1857 H 175.617 0.933455 3.12976 0
M  V30 1858 H 174.276 2.8827 2.26486 0
M  V30 1859 H 173.924 2.04576 4.59519 0
M  V30 1860 H 173.624 3.79822 4.4834 0
M  V30 1861 H 175.148 3.20116 5.1996 0
M  V30 1862 H 176.562 4.60544 3.41426 0
M  V30 1863 H 174.959 5.23457 2.9345 0
M  V30 1864 H 176.029 4.53996 1.70339 0
M  V30 1865 N 177.372 -0.689602 1.41712 0
M  V30 1866 C 178.302 -1.81577 1.46806 0
M  V30 1867 C 179.283 -1.66945 0.326105 0
M  V30 1868 O 180.468 -1.86588 0.538377 0
M  V30 1869 C 177.598 -3.19762 1.35535 0
M  V30 1870 C 176.552 -3.49107 2.47605 0
M  V30 1871 C 175.878 -4.86711 2.21397 0
M  V30 1872 C 177.178 -3.47483 3.89939 0
M  V30 1873 H 178.872 -1.7757 2.41058 0
M  V30 1874 H 176.418 -0.852887 1.16025 0
M  V30 1875 H 178.371 -3.98263 1.3771 0
M  V30 1876 H 177.095 -3.24409 0.377708 0
M  V30 1877 H 175.754 -2.72959 2.44722 0
M  V30 1878 H 175.402 -4.8799 1.21961 0
M  V30 1879 H 175.102 -5.0731 2.96497 0
M  V30 1880 H 176.626 -5.67515 2.25297 0
M  V30 1881 H 178.04 -4.1598 3.94505 0
M  V30 1882 H 176.437 -3.79615 4.64771 0
M  V30 1883 H 177.507 -2.46341 4.17665 0
M  V30 1884 N 178.85 -1.27639 -0.924453 0
M  V30 1885 C 179.782 -1.06442 -2.02985 0
M  V30 1886 C 180.795 -0.0194771 -1.62788 0
M  V30 1887 O 181.984 -0.261388 -1.76576 0
M  V30 1888 C 179.084 -0.59327 -3.33667 0
M  V30 1889 C 178.257 -1.71123 -4.02537 0
M  V30 1890 C 177.316 -1.23527 -5.11495 0
M  V30 1891 O 176.342 -1.93553 -5.35281 0
M  V30 1892 N 177.544 -0.0926678 -5.80426 0
M  V30 1893 H 180.309 -2.01633 -2.2173 0
M  V30 1894 H 177.87 -1.19248 -1.09505 0
M  V30 1895 H 179.862 -0.258686 -4.03872 0
M  V30 1896 H 178.432 0.265502 -3.1147 0
M  V30 1897 H 177.652 -2.21593 -3.26022 0
M  V30 1898 H 178.94 -2.46145 -4.45298 0
M  V30 1899 H 178.338 0.491741 -5.63559 0
M  V30 1900 H 176.895 0.182714 -6.51544 0
M  V30 1901 N 180.328 1.1314 -1.09713 0
M  V30 1902 C 181.605 1.80762 -0.747302 0
M  V30 1903 C 181.985 1.96663 0.767265 0
M  V30 1904 O 181.333 1.53706 1.69076 0
M  V30 1905 C 181.543 3.15606 -1.48975 0
M  V30 1906 C 182.891 3.90914 -1.65746 0
M  V30 1907 O 183.915 3.25239 -1.45251 0
M  V30 1908 O 182.774 5.08718 -1.9967 0
M  V30 1909 H 179.868 0.782103 -0.268782 0
M  V30 1910 H 182.414 1.20041 -1.19951 0
M  V30 1911 H 181.186 2.99278 -2.52088 0
M  V30 1912 H 180.809 3.84029 -1.02991 0
M  V30 1913 N 181.806 0.884767 1.30421 0
M  V30 1914 C 183.083 0.423185 1.90967 0
M  V30 1915 C 183.463 -1.09605 1.80416 0
M  V30 1916 O 182.811 -1.93126 1.22125 0
M  V30 1917 C 183.021 0.921056 3.36627 0
M  V30 1918 C 184.369 0.955903 4.137 0
M  V30 1919 O 185.393 0.867706 3.4547 0
M  V30 1920 O 184.252 1.08614 5.35598 0
M  V30 1921 H 181.346 0.129369 0.816819 0
M  V30 1922 H 183.892 0.973653 1.3899 0
M  V30 1923 H 182.664 1.96489 3.3839 0
M  V30 1924 H 182.287 0.349741 3.96059 0
M  V30 1925 N 183.284 -1.43765 0.645699 0
M  V30 1926 C 184.561 -1.9541 0.0862963 0
M  V30 1927 C 184.941 -1.58725 -1.39175 0
M  V30 1928 O 184.289 -0.868581 -2.11348 0
M  V30 1929 C 184.499 -3.47488 0.324565 0
M  V30 1930 C 185.847 -4.24001 0.225497 0
M  V30 1931 O 186.871 -3.55274 0.256715 0
M  V30 1932 O 185.73 -5.46313 0.142801 0
M  V30 1933 H 182.824 -0.826882 -0.0139483 0
M  V30 1934 H 185.37 -1.53743 0.718415 0
M  V30 1935 H 184.142 -3.67289 1.3496 0
M  V30 1936 H 183.765 -3.96135 -0.340987 0
M  V30 1937 N 184.763 -0.387143 -1.52771 0
M  V30 1938 C 186.012 0.19697 -2.00736 0
M  V30 1939 C 186.325 1.48082 -1.27793 0
M  V30 1940 O 187.531 2.14485 -1.66458 0
M  V30 1941 C 185.987 0.401568 -3.57653 0
M  V30 1942 C 185.595 -0.868907 -4.39493 0
M  V30 1943 C 187.339 0.942164 -4.13912 0
M  V30 1944 C 185.246 -0.632705 -5.88006 0
M  V30 1945 H 184.176 0.0773827 -0.750019 0
M  V30 1946 H 186.827 -0.50921 -1.76293 0
M  V30 1947 H 185.209 1.16954 -3.78335 0
M  V30 1948 H 186.383 -1.64133 -4.30577 0
M  V30 1949 H 184.698 -1.33429 -3.94443 0
M  V30 1950 H 187.295 1.13455 -5.22525 0
M  V30 1951 H 187.638 1.9106 -3.69867 0
M  V30 1952 H 188.171 0.233814 -3.97112 0
M  V30 1953 H 184.91 -1.57208 -6.36369 0
M  V30 1954 H 184.43 0.100825 -5.99715 0
M  V30 1955 H 186.109 -0.26642 -6.46451 0
M  V30 1956 N 186.241 1.57166 -0.116904 0
M  V30 1957 C 187.49 1.94298 0.541407 0
M  V30 1958 C 187.803 1.00236 1.67964 0
M  V30 1959 O 189.009 1.26826 2.40057 0
M  V30 1960 C 187.465 3.45306 1.01449 0
M  V30 1961 C 187.073 4.47899 -0.0951738 0
M  V30 1962 C 188.817 3.91361 1.6443 0
M  V30 1963 C 186.724 5.90083 0.394491 0
M  V30 1964 H 185.654 0.725308 0.206019 0
M  V30 1965 H 188.305 1.82446 -0.196419 0
M  V30 1966 H 186.687 3.52385 1.80667 0
M  V30 1967 H 187.861 4.52486 -0.871374 0
M  V30 1968 H 186.176 4.11583 -0.631505 0
M  V30 1969 H 188.773 4.95004 2.02176 0
M  V30 1970 H 189.116 3.3122 2.52189 0
M  V30 1971 H 189.649 3.87073 0.917559 0
M  V30 1972 H 186.388 6.53974 -0.447004 0
M  V30 1973 H 185.908 5.88921 1.13722 0
M  V30 1974 H 187.587 6.41307 0.856399 0
M  V30 1975 N 187.719 -0.156864 1.56817 0
M  V30 1976 C 188.965 -0.867645 1.83966 0
M  V30 1977 C 189.32 -1.79233 0.699511 0
M  V30 1978 O 188.613 -1.89186 -0.303176 0
M  V30 1979 C 188.807 -1.68737 3.1506 0
M  V30 1980 C 188.636 -0.843548 4.41718 0
M  V30 1981 C 187.406 -0.512994 5.02689 0
M  V30 1982 C 189.604 -0.178416 5.1399 0
M  V30 1983 N 187.586 0.345456 6.12927 0
M  V30 1984 C 188.957 0.540586 6.17639 0
M  V30 1985 C 191.012 -0.0980696 4.97803 0
M  V30 1986 C 189.715 1.33233 7.06853 0
M  V30 1987 C 191.741 0.680387 5.87473 0
M  V30 1988 C 191.103 1.3877 6.90596 0
M  V30 1989 H 187.202 -0.295642 0.723961 0
M  V30 1990 H 189.786 -0.13365 1.94241 0
M  V30 1991 H 187.957 -2.39268 3.0595 0
M  V30 1992 H 189.689 -2.34056 3.30151 0
M  V30 1993 H 186.444 -0.846476 4.65974 0
M  V30 1994 H 186.868 0.765415 6.72659 0
M  V30 1995 H 191.51 -0.630562 4.18071 0
M  V30 1996 H 189.228 1.87612 7.8602 0
M  V30 1997 H 192.814 0.744415 5.77018 0
M  V30 1998 H 191.694 1.9804 7.58782 0
M  V30 1999 N 189.197 -1.51736 -0.425897 0
M  V30 2000 C 190.446 -1.64201 -1.17136 0
M  V30 2001 C 190.759 -0.369705 -1.92074 0
M  V30 2002 O 191.965 -0.373898 -2.68913 0
M  V30 2003 C 190.421 -2.90035 -2.13091 0
M  V30 2004 C 190.029 -4.24312 -1.43747 0
M  V30 2005 C 191.773 -3.1186 -2.87999 0
M  V30 2006 C 189.68 -5.41285 -2.38253 0
M  V30 2007 H 188.61 -0.611624 -0.440944 0
M  V30 2008 H 191.261 -1.78212 -0.437328 0
M  V30 2009 H 189.643 -2.69684 -2.89977 0
M  V30 2010 H 190.817 -4.55086 -0.723408 0
M  V30 2011 H 189.132 -4.08456 -0.809465 0
M  V30 2012 H 191.729 -3.96427 -3.58817 0
M  V30 2013 H 192.072 -2.25403 -3.49999 0
M  V30 2014 H 192.605 -3.32605 -2.18217 0
M  V30 2015 H 189.344 -6.30037 -1.80925 0
M  V30 2016 H 188.864 -5.14872 -3.0768 0
M  V30 2017 H 190.543 -5.73694 -2.99139 0
M  V30 2018 N 190.675 0.682077 -1.42076 0
M  V30 2019 C 191.625 1.78823 -1.41444 0
M  V30 2020 C 192.609 1.58323 -0.28681 0
M  V30 2021 O 193.801 1.68926 -0.528498 0
M  V30 2022 C 190.93 3.17232 -1.3122 0
M  V30 2023 C 190.016 3.4338 -2.489 0
M  V30 2024 N 190.407 3.40152 -3.7434 0
M  V30 2025 C 188.705 3.73986 -2.43003 0
M  V30 2026 C 189.406 3.65581 -4.52466 0
M  V30 2027 N 188.382 3.85989 -3.8277 0
M  V30 2028 H 192.184 1.7471 -2.36334 0
M  V30 2029 H 189.698 0.882622 -1.36321 0
M  V30 2030 H 191.695 3.96489 -1.2885 0
M  V30 2031 H 190.355 3.22547 -0.373263 0
M  V30 2032 H 191.366 3.20221 -4.07037 0
M  V30 2033 H 188.043 3.86591 -1.57651 0
M  V30 2034 H 189.433 3.69108 -5.61435 0
M  V30 2035 N 192.153 1.28127 0.917671 0
M  V30 2036 C 193.43 1.05761 1.64542 0
M  V30 2037 C 193.81 -0.404344 2.07191 0
M  V30 2038 O 193.158 -1.38963 1.81388 0
M  V30 2039 C 193.368 2.02857 2.83989 0
M  V30 2040 C 194.716 2.32786 3.551 0
M  V30 2041 O 195.74 2.0091 2.94132 0
M  V30 2042 O 194.599 2.87169 4.64969 0
M  V30 2043 H 191.693 0.403916 0.721652 0
M  V30 2044 H 194.239 1.39431 0.967322 0
M  V30 2045 H 193.011 3.01407 2.49538 0
M  V30 2046 H 192.634 1.69809 3.59514 0
M  V30 2047 N 193.631 -1.12557 1.10312 0
M  V30 2048 C 194.861 -1.87592 0.865617 0
M  V30 2049 C 195.269 -1.79851 -0.587389 0
M  V30 2050 O 194.612 -1.16949 -1.41664 0
M  V30 2051 C 194.674 -3.37665 1.23381 0
M  V30 2052 C 194.338 -3.69181 2.69359 0
M  V30 2053 C 195.335 -3.67652 3.67597 0
M  V30 2054 C 193.02 -3.98555 3.05711 0
M  V30 2055 C 195.014 -3.95053 5.00212 0
M  V30 2056 C 192.701 -4.25616 4.38514 0
M  V30 2057 C 193.699 -4.23851 5.35574 0
M  V30 2058 O 193.387 -4.50242 6.65986 0
M  V30 2059 H 193.119 -0.600442 0.310557 0
M  V30 2060 H 195.673 -1.4335 1.47105 0
M  V30 2061 H 193.903 -3.82454 0.571467 0
M  V30 2062 H 195.592 -3.94041 0.973994 0
M  V30 2063 H 196.358 -3.45024 3.40857 0
M  V30 2064 H 192.237 -3.99071 2.30789 0
M  V30 2065 H 195.781 -3.93591 5.75962 0
M  V30 2066 H 191.678 -4.47718 4.64994 0
M  V30 2067 H 192.446 -4.67867 6.71597 0
M  V30 2068 N 195.109 -0.891671 -1.2995 0
M  V30 2069 C 196.059 -0.334811 -2.25528 0
M  V30 2070 C 197.043 0.540553 -1.51548 0
M  V30 2071 O 198.235 0.383882 -1.72787 0
M  V30 2072 C 195.364 0.44374 -3.4042 0
M  V30 2073 C 194.45 -0.44609 -4.21747 0
M  V30 2074 N 194.841 -1.54963 -4.81477 0
M  V30 2075 C 193.139 -0.242415 -4.45341 0
M  V30 2076 C 193.84 -2.10015 -5.42465 0
M  V30 2077 N 192.816 -1.39423 -5.25416 0
M  V30 2078 H 196.618 -1.17792 -2.69262 0
M  V30 2079 H 194.132 -0.741822 -1.44467 0
M  V30 2080 H 196.129 0.859362 -4.07947 0
M  V30 2081 H 194.789 1.28421 -2.98225 0
M  V30 2082 H 195.8 -1.93244 -4.80497 0
M  V30 2083 H 192.477 0.560342 -4.13723 0
M  V30 2084 H 193.867 -3.02724 -5.9984 0
M  V30 2085 N 196.587 1.43421 -0.653314 0
M  V30 2086 C 197.517 2.33487 0.0246656 0
M  V30 2087 C 198.498 1.49475 0.811863 0
M  V30 2088 O 199.683 1.78139 0.773322 0
M  V30 2089 C 196.813 3.32841 0.99166 0
M  V30 2090 C 195.767 4.26842 0.314568 0
M  V30 2091 C 195.093 5.16236 1.39302 0
M  V30 2092 C 196.393 5.16243 -0.793095 0
M  V30 2093 H 198.087 2.90427 -0.727481 0
M  V30 2094 H 195.633 1.39649 -0.351287 0
M  V30 2095 H 197.586 3.94747 1.47487 0
M  V30 2096 H 196.31 2.74158 1.77497 0
M  V30 2097 H 194.969 3.663 -0.148199 0
M  V30 2098 H 194.617 4.53891 2.16776 0
M  V30 2099 H 194.317 5.79948 0.945223 0
M  V30 2100 H 195.841 5.81015 1.87759 0
M  V30 2101 H 197.255 5.71958 -0.392039 0
M  V30 2102 H 195.652 5.88676 -1.16536 0
M  V30 2103 H 196.722 4.55927 -1.65103 0
M  V30 2104 N 198.065 0.39524 1.52563 0
M  V30 2105 C 198.995 -0.428384 2.29537 0
M  V30 2106 C 199.976 -1.05831 1.33169 0
M  V30 2107 O 201.161 -1.06995 1.62067 0
M  V30 2108 C 198.291 -1.55274 3.10656 0
M  V30 2109 C 197.245 -1.04855 4.14957 0
M  V30 2110 C 196.571 -2.26543 4.84337 0
M  V30 2111 C 197.871 -0.112324 5.22179 0
M  V30 2112 H 199.565 0.213867 2.98635 0
M  V30 2113 H 197.111 0.104298 1.43622 0
M  V30 2114 H 199.064 -2.1358 3.63265 0
M  V30 2115 H 197.788 -2.22266 2.39302 0
M  V30 2116 H 196.447 -0.487985 3.63338 0
M  V30 2117 H 196.095 -2.92059 4.09525 0
M  V30 2118 H 195.795 -1.93466 5.54837 0
M  V30 2119 H 197.319 -2.85481 5.39753 0
M  V30 2120 H 198.733 -0.603752 5.70112 0
M  V30 2121 H 197.13 0.128968 5.99961 0
M  V30 2122 H 198.2 0.837052 4.77621 0
M  V30 2123 N 199.544 -1.57102 0.125237 0
M  V30 2124 C 200.955 -1.82384 -0.399142 0
M  V30 2125 C 201.306 -1.04276 -1.66195 0
M  V30 2126 O 200.431 -0.281269 -2.14564 0
M  V30 2127 C 201.026 -3.30821 -0.730932 0
M  V30 2128 C 199.585 -3.56762 -1.19992 0
M  V30 2129 C 198.732 -2.7649 -0.211792 0
M  V30 2130 H 201.683 -1.54786 0.350277 0
M  V30 2131 H 201.704 -3.4579 -1.58775 0
M  V30 2132 H 201.216 -3.87643 0.188345 0
M  V30 2133 H 199.317 -3.05305 -2.13588 0
M  V30 2134 H 199.43 -4.65317 -1.14093 0
M  V30 2135 H 197.794 -2.4489 -0.700085 0
M  V30 2136 H 198.577 -3.36073 0.700691 0
M  V30 2137 N 201.022 0.148545 -1.56898 0
M  V30 2138 C 202.269 0.861418 -1.83264 0
M  V30 2139 C 202.597 1.81239 -0.705883 0
M  V30 2140 O 201.852 1.93305 0.305212 0
M  V30 2141 C 202.151 1.67064 -3.1595 0
M  V30 2142 C 201.817 0.866591 -4.42494 0
M  V30 2143 C 200.479 0.644762 -4.76861 0
M  V30 2144 C 202.831 0.30418 -5.20312 0
M  V30 2145 C 200.159 -0.15021 -5.86508 0
M  V30 2146 C 202.511 -0.477824 -6.30793 0
M  V30 2147 C 201.175 -0.710244 -6.63711 0
M  V30 2148 H 200.445 0.315215 -0.670612 0
M  V30 2149 H 203.092 0.125142 -1.91091 0
M  V30 2150 H 201.397 2.47698 -3.03567 0
M  V30 2151 H 203.094 2.22566 -3.33565 0
M  V30 2152 H 199.684 1.04955 -4.15551 0
M  V30 2153 H 203.868 0.462844 -4.94137 0
M  V30 2154 H 199.124 -0.339796 -6.10455 0
M  V30 2155 H 203.298 -0.92076 -6.90286 0
M  V30 2156 H 200.925 -1.3281 -7.48509 0
M  V30 2157 N 202.5 1.5196 0.417844 0
M  V30 2158 C 203.463 1.74065 1.49111 0
M  V30 2159 C 204.463 0.610537 1.48758 0
M  V30 2160 O 205.653 0.87832 1.50437 0
M  V30 2161 C 202.785 1.81502 2.88565 0
M  V30 2162 H 203.978 2.69869 1.30807 0
M  V30 2163 H 201.531 1.42244 0.647785 0
M  V30 2164 H 202.266 0.875813 3.1225 0
M  V30 2165 H 202.051 2.63651 2.90225 0
M  V30 2166 H 203.541 2.00376 3.66387 0
M  V30 2167 N 203.978 -0.674533 1.42435 0
M  V30 2168 C 204.928 -1.7807 1.4239 0
M  V30 2169 C 205.912 -1.58169 0.295202 0
M  V30 2170 O 207.104 -1.68643 0.537449 0
M  V30 2171 C 204.233 -3.16532 1.32901 0
M  V30 2172 C 203.319 -3.42055 2.50717 0
M  V30 2173 N 203.71 -3.38162 3.76139 0
M  V30 2174 C 202.008 -3.72692 2.44983 0
M  V30 2175 C 202.709 -3.63177 4.54398 0
M  V30 2176 N 201.685 -3.83954 3.84812 0
M  V30 2177 H 205.487 -1.73454 2.37257 0
M  V30 2178 H 203.001 -0.875381 1.36788 0
M  V30 2179 H 204.998 -3.958 1.30951 0
M  V30 2180 H 203.658 -3.22345 0.390363 0
M  V30 2181 H 204.669 -3.18057 4.0873 0
M  V30 2182 H 201.346 -3.85749 1.59699 0
M  V30 2183 H 202.736 -3.66125 5.63384 0
M  V30 2184 N 205.456 -1.28612 -0.910864 0
M  V30 2185 C 206.366 -1.14643 -2.0468 0
M  V30 2186 C 207.382 -0.0723121 -1.7385 0
M  V30 2187 O 208.558 -0.282178 -1.99413 0
M  V30 2188 C 205.623 -0.812561 -3.37044 0
M  V30 2189 C 204.684 -1.96935 -3.81465 0
M  V30 2190 C 203.917 -1.65131 -5.07511 0
M  V30 2191 O 204.14 -0.567013 -5.67575 0
M  V30 2192 O 203.074 -2.49585 -5.47714 0
M  V30 2193 H 206.9 -2.1001 -2.19384 0
M  V30 2194 H 204.485 -1.07958 -1.03274 0
M  V30 2195 H 206.367 -0.640441 -4.16505 0
M  V30 2196 H 205.042 0.111426 -3.23508 0
M  V30 2197 H 203.949 -2.19664 -3.02818 0
M  V30 2198 H 205.282 -2.87414 -3.99567 0
M  V30 2199 N 206.934 1.1197 -1.10907 0
M  V30 2200 C 207.864 2.19928 -0.784473 0
M  V30 2201 C 208.845 1.6833 0.244726 0
M  V30 2202 O 210.03 1.93892 0.109418 0
M  V30 2203 C 207.16 3.46597 -0.220827 0
M  V30 2204 C 206.114 4.11376 -1.18127 0
M  V30 2205 C 205.44 5.32554 -0.478594 0
M  V30 2206 C 206.74 4.56945 -2.52979 0
M  V30 2207 H 208.434 2.47337 -1.68715 0
M  V30 2208 H 205.98 1.18879 -0.812642 0
M  V30 2209 H 207.933 4.21396 0.0184278 0
M  V30 2210 H 206.657 3.1863 0.717113 0
M  V30 2211 H 205.316 3.38564 -1.40606 0
M  V30 2212 H 204.964 5.00856 0.463976 0
M  V30 2213 H 204.664 5.76844 -1.11912 0
M  V30 2214 H 206.188 6.10096 -0.248 0
M  V30 2215 H 207.602 5.23093 -2.3462 0
M  V30 2216 H 205.999 5.1203 -3.12962 0
M  V30 2217 H 207.069 3.70676 -3.12614 0
M  V30 2218 N 208.412 0.89855 1.29475 0
M  V30 2219 C 209.828 0.594483 1.48115 0
M  V30 2220 C 210.028 -0.86431 1.82022 0
M  V30 2221 O 209.084 -1.64457 1.91599 0
M  V30 2222 C 210.397 1.51932 2.59494 0
M  V30 2223 C 211.945 1.5244 2.7337 0
M  V30 2224 C 212.42 2.43548 3.87877 0
M  V30 2225 N 213.911 2.41589 3.95208 0
M  V30 2226 C 214.646 3.08789 4.83153 0
M  V30 2227 N 214.142 3.85265 5.75798 0
M  V30 2228 N 215.935 2.97952 4.76635 0
M  V30 2229 H 208.086 1.84207 1.05742 0
M  V30 2230 H 210.349 0.789251 0.525154 0
M  V30 2231 H 210.055 2.55865 2.41301 0
M  V30 2232 H 209.929 1.23899 3.56271 0
M  V30 2233 H 212.316 0.492518 2.90961 0
M  V30 2234 H 212.397 1.8451 1.77172 0
M  V30 2235 H 212.041 3.46829 3.71041 0
M  V30 2236 H 211.971 2.08788 4.83441 0
M  V30 2237 H 214.462 1.86025 3.28943 0
M  V30 2238 H 214.775 4.33598 6.39697 0
M  V30 2239 H 213.12 3.89371 5.75687 0
M  V30 2240 H 216.311 2.37723 4.03244 0
M  V30 2241 H 216.484 3.50599 5.44962 0
M  V30 2242 N 209.89 -1.43072 0.660911 0
M  V30 2243 C 210.837 -2.30785 -0.0259884 0
M  V30 2244 C 211.807 -1.45184 -0.806888 0
M  V30 2245 O 212.992 -1.74041 -0.781943 0
M  V30 2246 C 210.132 -3.30861 -0.981067 0
M  V30 2247 C 209.245 -4.31558 -0.195458 0
M  V30 2248 C 208.38 -5.18712 -1.14503 0
M  V30 2249 C 207.419 -6.11097 -0.350299 0
M  V30 2250 N 206.556 -6.90849 -1.25186 0
M  V30 2251 H 211.396 -2.88975 0.727846 0
M  V30 2252 H 208.933 -1.42353 0.370682 0
M  V30 2253 H 210.891 -3.87399 -1.54849 0
M  V30 2254 H 209.521 -2.74304 -1.70169 0
M  V30 2255 H 208.573 -3.77252 0.488374 0
M  V30 2256 H 209.885 -4.9701 0.422176 0
M  V30 2257 H 209.039 -5.79914 -1.78284 0
M  V30 2258 H 207.778 -4.53404 -1.79656 0
M  V30 2259 H 206.783 -5.48976 0.300808 0
M  V30 2260 H 208.008 -6.7845 0.296941 0
M  V30 2261 H 205.954 -6.28182 -1.89005 0
M  V30 2262 H 205.871 -7.52854 -0.688971 0
M  V30 2263 H 207.139 -7.5655 -1.87757 0
M  V30 2264 N 211.368 -0.403325 -1.52352 0
M  V30 2265 C 212.784 -0.0539281 -1.59509 0
M  V30 2266 C 212.984 1.43307 -1.41652 0
M  V30 2267 O 212.04 2.19924 -1.24056 0
M  V30 2268 C 213.353 -0.543654 -2.95745 0
M  V30 2269 C 214.901 -0.501125 -3.08962 0
M  V30 2270 C 215.376 -0.967267 -4.47669 0
M  V30 2271 N 216.867 -0.923849 -4.53893 0
M  V30 2272 C 217.602 -1.25578 -5.5948 0
M  V30 2273 N 217.098 -1.65889 -6.72646 0
M  V30 2274 N 218.891 -1.17613 -5.49658 0
M  V30 2275 H 211.042 -1.37123 -1.62206 0
M  V30 2276 H 213.305 -0.56294 -0.76276 0
M  V30 2277 H 213.011 -1.58275 -3.14073 0
M  V30 2278 H 212.885 0.0498042 -3.77167 0
M  V30 2279 H 215.272 0.528909 -2.90321 0
M  V30 2280 H 215.353 -1.13056 -2.2946 0
M  V30 2281 H 214.997 -1.9956 -4.67053 0
M  V30 2282 H 214.927 -0.314698 -5.25659 0
M  V30 2283 H 217.418 -0.627403 -3.72655 0
M  V30 2284 H 217.731 -1.89543 -7.49195 0
M  V30 2285 H 216.076 -1.69787 -6.73942 0
M  V30 2286 H 219.267 -0.860115 -4.6013 0
M  V30 2287 H 219.44 -1.43812 -6.3184 0
M  V30 2288 N 212.846 1.57033 -0.133567 0
M  V30 2289 C 214.094 1.953 0.519848 0
M  V30 2290 C 214.415 1.01866 1.66278 0
M  V30 2291 O 213.685 0.0776513 1.95746 0
M  V30 2292 H 212.265 0.721091 0.195032 0
M  V30 2293 H 214.927 1.93809 -0.205921 0
M  V30 2294 H 214.023 2.98695 0.904854 0
M  V30 2295 N 214.325 -0.140222 1.56975 0
M  V30 2296 C 215.571 -0.852949 1.83991 0
M  V30 2297 C 215.904 -1.80512 0.716187 0
M  V30 2298 O 215.179 -1.92479 -0.279681 0
M  V30 2299 C 215.462 -1.6215 3.21527 0
M  V30 2300 C 215.315 -0.690363 4.4447 0
M  V30 2301 C 216.634 -2.58247 3.56366 0
M  V30 2302 H 213.753 -0.308634 0.669264 0
M  V30 2303 H 216.395 -0.117898 1.89634 0
M  V30 2304 H 214.545 -2.24812 3.16847 0
M  V30 2305 H 216.217 -0.0742264 4.6124 0
M  V30 2306 H 214.46 -0.000396433 4.338 0
M  V30 2307 H 215.131 -1.2643 5.37326 0
M  V30 2308 H 217.607 -2.05701 3.61699 0
M  V30 2309 H 216.483 -3.09067 4.53617 0
M  V30 2310 H 216.744 -3.39923 2.82674 0
M  V30 2311 N 215.803 -1.52179 -0.40978 0
M  V30 2312 C 216.751 -1.76086 -1.51975 0
M  V30 2313 C 217.745 -0.627964 -1.57331 0
M  V30 2314 O 218.951 -0.809993 -1.60745 0
M  V30 2315 H 215.326 -0.556829 -0.505416 0
M  V30 2316 H 217.297 -2.69077 -1.28996 0
M  V30 2317 C 216.046 -1.92799 -2.8935 0
M  V30 2318 H 215.369 -2.79392 -2.85972 0
M  V30 2319 H 216.809 -2.13527 -3.66309 0
M  V30 2320 C 215.268 -0.694923 -3.29655 0
M  V30 2321 O 215.798 0.13751 -4.01465 0
M  V30 2322 N 214.004 -0.53101 -2.85707 0
M  V30 2323 H 213.551 -1.20952 -2.27439 0
M  V30 2324 H 213.509 0.292718 -3.13034 0
M  V30 2325 N 217.281 0.66697 -1.42791 0
M  V30 2326 C 218.229 1.80157 -1.47127 0
M  V30 2327 C 219.223 1.65825 -0.346199 0
M  V30 2328 O 220.429 1.72338 -0.519572 0
M  V30 2329 H 216.804 0.594158 -0.460956 0
M  V30 2330 H 218.775 1.73619 -2.42692 0
M  V30 2331 C 217.524 3.18351 -1.39813 0
M  V30 2332 H 216.847 3.3001 -2.25684 0
M  V30 2333 H 218.287 3.97736 -1.46908 0
M  V30 2334 C 216.746 3.36707 -0.11391 0
M  V30 2335 O 217.276 3.93027 0.830241 0
M  V30 2336 N 215.482 2.90586 -0.0285295 0
M  V30 2337 H 215.029 2.4494 -0.79764 0
M  V30 2338 H 214.987 3.03245 0.830063 0
M  V30 2339 N 218.759 1.29093 0.90403 0
M  V30 2340 C 220.175 1.07011 1.1841 0
M  V30 2341 C 220.375 -0.181358 2.00682 0
M  V30 2342 O 219.431 -0.880331 2.36657 0
M  V30 2343 C 220.744 2.32311 1.90924 0
M  V30 2344 C 222.292 2.37587 2.03768 0
M  V30 2345 C 222.767 3.62679 2.79693 0
M  V30 2346 N 224.258 3.63376 2.87249 0
M  V30 2347 C 224.993 4.56848 3.46522 0
M  V30 2348 N 224.489 5.60648 4.06996 0
M  V30 2349 N 226.282 4.44426 3.44154 0
M  V30 2350 H 218.433 2.09412 0.354993 0
M  V30 2351 H 220.696 0.922181 0.219742 0
M  V30 2352 H 220.402 3.23536 1.37905 0
M  V30 2353 H 220.276 2.39483 2.91424 0
M  V30 2354 H 222.663 1.46853 2.55965 0
M  V30 2355 H 222.744 2.34403 1.02415 0
M  V30 2356 H 222.388 4.53762 2.28173 0
M  V30 2357 H 222.318 3.63119 3.81381 0
M  V30 2358 H 224.809 2.88321 2.44293 0
M  V30 2359 H 225.122 6.28101 4.50232 0
M  V30 2360 H 223.467 5.64463 4.05471 0
M  V30 2361 H 226.658 3.62529 2.96126 0
M  V30 2362 H 226.831 5.17457 3.90054 0
M  V30 2363 N 220.237 -1.11381 1.11499 0
M  V30 2364 C 221.486 -1.82494 0.858993 0
M  V30 2365 C 221.799 -1.85605 -0.617278 0
M  V30 2366 O 223.005 -2.52824 -0.989552 0
M  V30 2367 C 221.461 -3.27745 1.48699 0
M  V30 2368 C 221.069 -3.32961 2.99735 0
M  V30 2369 C 222.813 -4.03754 1.31085 0
M  V30 2370 C 220.72 -4.72612 3.55516 0
M  V30 2371 H 219.65 -0.683802 0.317696 0
M  V30 2372 H 222.301 -1.25331 1.34031 0
M  V30 2373 H 220.683 -3.84844 0.933339 0
M  V30 2374 H 221.857 -2.85741 3.61509 0
M  V30 2375 H 220.172 -2.70433 3.16631 0
M  V30 2376 H 222.769 -5.06891 1.70192 0
M  V30 2377 H 223.112 -4.15527 0.253496 0
M  V30 2378 H 223.645 -3.53043 1.83318 0
M  V30 2379 H 220.384 -4.66036 4.60967 0
M  V30 2380 H 219.904 -5.2024 2.98513 0
M  V30 2381 H 221.583 -5.4157 3.53992 0
M  V30 2382 N 221.715 -0.905404 -1.28997 0
M  V30 2383 C 222.963 -0.533192 -1.9494 0
M  V30 2384 C 223.284 0.924618 -1.71685 0
M  V30 2385 O 222.554 1.65268 -1.05183 0
M  V30 2386 H 221.134 -0.194194 -0.721317 0
M  V30 2387 H 223.796 -1.15294 -1.57141 0
M  V30 2388 H 222.892 -0.72059 -3.03667 0
M  V30 2389 N 223.193 1.4272 -0.668489 0
M  V30 2390 C 224.44 2.01624 -0.18814 0
M  V30 2391 C 224.768 1.5282 1.20317 0
M  V30 2392 O 224.023 0.718323 1.8204 0
M  V30 2393 C 224.322 3.57021 -0.164499 0
M  V30 2394 C 223.988 4.25232 -1.49962 0
M  V30 2395 C 222.65 4.4358 -1.8652 0
M  V30 2396 C 225.002 4.63727 -2.37921 0
M  V30 2397 C 222.33 4.97694 -3.10674 0
M  V30 2398 C 224.682 5.19218 -3.6138 0
M  V30 2399 C 223.346 5.3578 -3.98115 0
M  V30 2400 H 222.616 0.737795 -0.0688454 0
M  V30 2401 H 225.263 1.70991 -0.862225 0
M  V30 2402 H 223.568 3.87285 0.593079 0
M  V30 2403 H 225.265 4.00372 0.224271 0
M  V30 2404 H 221.855 4.11306 -1.20522 0
M  V30 2405 H 226.039 4.4923 -2.10964 0
M  V30 2406 H 221.295 5.08702 -3.39164 0
M  V30 2407 H 225.469 5.4799 -4.29743 0
M  V30 2408 H 223.096 5.77475 -4.94395 0
M  V30 2409 N 224.671 0.411399 1.52136 0
M  V30 2410 C 225.918 -0.163645 2.01838 0
M  V30 2411 C 226.246 -1.4495 1.29691 0
M  V30 2412 O 225.501 -1.91725 0.392431 0
M  V30 2413 C 225.8 -0.455872 3.54481 0
M  V30 2414 C 225.466 0.741055 4.44769 0
M  V30 2415 C 224.128 1.06936 4.69167 0
M  V30 2416 C 226.48 1.54075 4.97906 0
M  V30 2417 C 223.808 2.19851 5.43951 0
M  V30 2418 C 226.16 2.66067 5.73926 0
M  V30 2419 C 224.824 2.99381 5.96596 0
M  V30 2420 H 224.094 -0.0598821 0.738576 0
M  V30 2421 H 226.741 0.553283 1.83333 0
M  V30 2422 H 225.046 -1.2544 3.71177 0
M  V30 2423 H 226.743 -0.913802 3.90449 0
M  V30 2424 H 223.333 0.475192 4.25958 0
M  V30 2425 H 227.517 1.30033 4.78963 0
M  V30 2426 H 222.773 2.46006 5.59724 0
M  V30 2427 H 226.947 3.28419 6.14096 0
M  V30 2428 H 224.574 3.86992 6.54325 0
M  V30 2429 N 226.149 -1.5696 0.141893 0
M  V30 2430 C 227.079 -2.19516 -0.795936 0
M  V30 2431 C 228.06 -1.14187 -1.26077 0
M  V30 2432 O 229.245 -1.42511 -1.31925 0
M  V30 2433 C 226.375 -2.81272 -2.03723 0
M  V30 2434 C 225.329 -3.92384 -1.70936 0
M  V30 2435 C 224.655 -4.41052 -3.02287 0
M  V30 2436 C 225.955 -5.13403 -0.959954 0
M  V30 2437 H 227.649 -2.98138 -0.274596 0
M  V30 2438 H 225.195 -1.43406 -0.130636 0
M  V30 2439 H 227.148 -3.237 -2.69808 0
M  V30 2440 H 225.872 -1.99973 -2.58221 0
M  V30 2441 H 224.531 -3.50566 -1.07232 0
M  V30 2442 H 224.179 -3.56582 -3.54765 0
M  V30 2443 H 223.879 -5.15993 -2.81114 0
M  V30 2444 H 225.403 -4.86146 -3.69451 0
M  V30 2445 H 226.817 -5.52706 -1.52279 0
M  V30 2446 H 225.214 -5.94073 -0.848357 0
M  V30 2447 H 226.284 -4.84875 0.0492434 0
M  V30 2448 N 227.627 0.131896 -1.57047 0
M  V30 2449 C 228.577 1.1679 -1.95816 0
M  V30 2450 C 229.561 1.37756 -0.831393 0
M  V30 2451 O 230.753 1.39065 -1.09499 0
M  V30 2452 C 227.882 2.49778 -2.35512 0
M  V30 2453 C 226.968 2.32342 -3.54793 0
M  V30 2454 N 227.359 1.8469 -4.70875 0
M  V30 2455 C 225.657 2.63043 -3.60173 0
M  V30 2456 C 226.358 1.80656 -5.52936 0
M  V30 2457 N 225.334 2.24528 -4.95064 0
M  V30 2458 H 229.136 0.791818 -2.83033 0
M  V30 2459 H 226.65 0.339791 -1.58805 0
M  V30 2460 H 228.647 3.24692 -2.61498 0
M  V30 2461 H 227.307 2.88156 -1.49654 0
M  V30 2462 H 228.318 1.54429 -4.9434 0
M  V30 2463 H 224.995 3.05193 -2.84892 0
M  V30 2464 H 226.385 1.45178 -6.56028 0
M  V30 2465 N 229.106 1.52395 0.401703 0
M  V30 2466 C 230.355 1.66044 1.14509 0
M  V30 2467 C 230.668 0.400216 1.91462 0
M  V30 2468 O 231.874 0.416632 2.68284 0
M  V30 2469 C 230.33 2.93388 2.0845 0
M  V30 2470 C 229.938 4.26545 1.36978 0
M  V30 2471 C 231.682 3.16402 2.83001 0
M  V30 2472 C 229.589 5.45007 2.29611 0
M  V30 2473 H 228.519 0.618562 0.431158 0
M  V30 2474 H 231.17 1.78886 0.40892 0
M  V30 2475 H 229.552 2.74263 2.8565 0
M  V30 2476 H 230.726 4.56179 0.650916 0
M  V30 2477 H 229.041 4.09692 0.74438 0
M  V30 2478 H 231.638 4.02085 3.52465 0
M  V30 2479 H 231.981 2.30943 3.46368 0
M  V30 2480 H 232.514 3.36034 2.12898 0
M  V30 2481 H 229.253 6.32835 1.70879 0
M  V30 2482 H 228.773 5.19702 2.9945 0
M  V30 2483 H 230.452 5.7838 2.89974 0
M  V30 2484 N 230.584 -0.659388 1.43143 0
M  V30 2485 C 231.995 -1.24041 1.39537 0
M  V30 2486 C 232.346 -1.95963 0.0963364 0
M  V30 2487 O 231.471 -2.00892 -0.804438 0
M  V30 2488 C 232.066 -2.25601 2.52764 0
M  V30 2489 C 230.625 -2.79195 2.52443 0
M  V30 2490 C 229.772 -1.53743 2.30778 0
M  V30 2491 H 232.723 -0.451792 1.52133 0
M  V30 2492 H 232.744 -3.07651 2.23899 0
M  V30 2493 H 232.256 -1.73226 3.47296 0
M  V30 2494 H 230.357 -3.35649 1.61773 0
M  V30 2495 H 230.47 -3.2716 3.50004 0
M  V30 2496 H 228.834 -1.80869 1.79328 0
M  V30 2497 H 229.617 -1.03312 3.27386 0
M  V30 2498 N 232.062 -1.29571 -0.897171 0
M  V30 2499 C 233.309 -1.17689 -1.6479 0
M  V30 2500 C 233.637 0.27107 -1.92602 0
M  V30 2501 O 232.892 1.21193 -1.53658 0
M  V30 2502 C 233.191 -1.9382 -3.00281 0
M  V30 2503 C 232.857 -3.43522 -2.92068 0
M  V30 2504 C 231.519 -3.84348 -2.89535 0
M  V30 2505 C 233.871 -4.38906 -2.81089 0
M  V30 2506 C 231.199 -5.18869 -2.73846 0
M  V30 2507 C 233.551 -5.73521 -2.66939 0
M  V30 2508 C 232.215 -6.13601 -2.62774 0
M  V30 2509 H 231.485 -0.430654 -0.603008 0
M  V30 2510 H 234.132 -1.60536 -1.04404 0
M  V30 2511 H 232.437 -1.4357 -3.64547 0
M  V30 2512 H 234.134 -1.82028 -3.57305 0
M  V30 2513 H 230.724 -3.11072 -2.94842 0
M  V30 2514 H 234.908 -4.08315 -2.82121 0
M  V30 2515 H 230.164 -5.4903 -2.69027 0
M  V30 2516 H 234.338 -6.47078 -2.57416 0
M  V30 2517 H 231.965 -7.17786 -2.50375 0
M  V30 2518 N 233.54 1.10788 -1.12088 0
M  V30 2519 C 234.951 1.64181 -0.88891 0
M  V30 2520 C 235.302 1.87508 0.577498 0
M  V30 2521 O 234.427 1.61434 1.44112 0
M  V30 2522 C 235.022 2.98257 -1.60712 0
M  V30 2523 C 233.581 3.4853 -1.42139 0
M  V30 2524 C 232.728 2.23208 -1.6454 0
M  V30 2525 H 235.679 0.943368 -1.27618 0
M  V30 2526 H 235.7 3.65552 -1.05604 0
M  V30 2527 H 235.212 2.81246 -2.67436 0
M  V30 2528 H 233.313 3.70692 -0.376552 0
M  V30 2529 H 233.426 4.26882 -2.17505 0
M  V30 2530 H 231.79 2.31169 -1.06925 0
M  V30 2531 H 232.573 2.08733 -2.72554 0
M  V30 2532 N 235.018 0.912232 1.28515 0
M  V30 2533 C 236.246 0.560416 1.99166 0
M  V30 2534 C 236.661 -0.857927 1.68182 0
M  V30 2535 O 236.018 -1.56805 0.933733 0
M  V30 2536 C 236.069 0.758142 3.53461 0
M  V30 2537 O 235.79 2.12067 3.83352 0
M  V30 2538 C 237.291 0.412954 4.41372 0
M  V30 2539 H 234.511 0.213805 0.636026 0
M  V30 2540 H 237.055 1.22502 1.63749 0
M  V30 2541 H 235.21 0.140556 3.87145 0
M  V30 2542 H 235.624 2.15923 4.77993 0
M  V30 2543 H 237.098 0.60208 5.48707 0
M  V30 2544 H 237.575 -0.65073 4.34353 0
M  V30 2545 H 238.181 1.00802 4.13182 0
M  V30 2546 N 236.496 -1.42363 0.676048 0
M  V30 2547 C 237.907 -1.84649 0.275948 0
M  V30 2548 C 238.258 -1.56588 -1.18214 0
M  V30 2549 O 237.383 -1.02634 -1.90513 0
M  V30 2550 C 237.978 -3.35178 0.494053 0
M  V30 2551 C 236.537 -3.76109 0.148061 0
M  V30 2552 C 235.684 -2.65931 0.785891 0
M  V30 2553 H 238.635 -1.32192 0.878121 0
M  V30 2554 H 238.656 -3.79655 -0.25343 0
M  V30 2555 H 238.168 -3.55571 1.55535 0
M  V30 2556 H 236.269 -3.61323 -0.909742 0
M  V30 2557 H 236.382 -4.7546 0.589454 0
M  V30 2558 H 234.746 -2.53773 0.217113 0
M  V30 2559 H 235.529 -2.89146 1.85067 0
M  V30 2560 N 237.974 -0.419461 -1.51915 0
M  V30 2561 C 238.884 0.407528 -2.31033 0
M  V30 2562 C 239.9 1.04413 -1.3919 0
M  V30 2563 O 241.076 1.0434 -1.72265 0
M  V30 2564 C 238.141 1.50365 -3.12396 0
M  V30 2565 C 237.202 0.889029 -4.19994 0
M  V30 2566 C 236.435 1.93291 -4.97468 0
M  V30 2567 O 236.658 3.15259 -4.75361 0
M  V30 2568 O 235.592 1.53339 -5.8204 0
M  V30 2569 H 239.418 -0.237865 -3.02767 0
M  V30 2570 H 237.003 -0.182413 -1.48282 0
M  V30 2571 H 238.885 2.13975 -3.63032 0
M  V30 2572 H 237.56 2.13345 -2.43445 0
M  V30 2573 H 236.467 0.215353 -3.7348 0
M  V30 2574 H 237.8 0.302991 -4.91267 0
M  V30 2575 N 239.452 1.56882 -0.150215 0
M  V30 2576 C 240.701 1.95403 0.500071 0
M  V30 2577 C 241.014 1.03777 1.658 0
M  V30 2578 O 242.22 1.31889 2.37313 0
M  V30 2579 C 240.676 3.4738 0.941018 0
M  V30 2580 C 240.284 4.47596 -0.190158 0
M  V30 2581 C 242.028 3.9476 1.56091 0
M  V30 2582 C 239.935 5.90787 0.269237 0
M  V30 2583 H 238.865 0.729515 0.190588 0
M  V30 2584 H 241.516 1.81988 -0.235074 0
M  V30 2585 H 239.898 3.56138 1.73152 0
M  V30 2586 H 241.072 4.50536 -0.967157 0
M  V30 2587 H 239.387 4.10151 -0.718666 0
M  V30 2588 H 241.984 4.99181 1.9163 0
M  V30 2589 H 242.327 3.36494 2.45107 0
M  V30 2590 H 242.86 3.88932 0.835249 0
M  V30 2591 H 239.599 6.52879 -0.585621 0
M  V30 2592 H 239.119 5.912 1.01204 0
M  V30 2593 H 240.798 6.42979 0.720176 0
M  V30 2594 N 240.93 -0.123565 1.57115 0
M  V30 2595 C 242.177 -0.832153 1.84612 0
M  V30 2596 C 242.505 -1.80093 0.734627 0
M  V30 2597 O 241.76 -1.93766 -0.27442 0
M  V30 2598 C 242.059 -1.62016 3.18568 0
M  V30 2599 C 241.725 -0.796084 4.43817 0
M  V30 2600 C 240.387 -0.568816 4.77826 0
M  V30 2601 C 242.739 -0.221364 5.2073 0
M  V30 2602 C 240.067 0.243499 5.86194 0
M  V30 2603 C 242.419 0.578117 6.29953 0
M  V30 2604 C 241.083 0.815744 6.62497 0
M  V30 2605 H 240.353 -0.304507 0.675542 0
M  V30 2606 H 243 -0.0947248 1.91266 0
M  V30 2607 H 241.305 -2.42837 3.0747 0
M  V30 2608 H 243.002 -2.17231 3.37064 0
M  V30 2609 H 239.592 -0.983307 4.17168 0
M  V30 2610 H 243.776 -0.384173 4.94811 0
M  V30 2611 H 239.032 0.436871 6.09837 0
M  V30 2612 H 243.206 1.03046 6.88734 0
M  V30 2613 H 240.833 1.44701 7.46301 0
M  V30 2614 N 242.408 -1.52605 -0.393616 0
M  V30 2615 C 243.356 -1.77688 -1.50099 0
M  V30 2616 C 244.35 -0.644615 -1.56656 0
M  V30 2617 O 245.556 -0.826997 -1.59877 0
M  V30 2618 H 241.931 -0.562159 -0.499481 0
M  V30 2619 H 243.902 -2.7043 -1.26135 0
M  V30 2620 C 242.651 -1.95858 -2.87289 0
M  V30 2621 H 241.974 -2.8241 -2.82992 0
M  V30 2622 H 243.414 -2.174 -3.64024 0
M  V30 2623 C 241.873 -0.729848 -3.28899 0
M  V30 2624 O 242.403 0.0949217 -4.01588 0
M  V30 2625 N 240.609 -0.561283 -2.85128 0
M  V30 2626 H 240.156 -1.23357 -2.26143 0
M  V30 2627 H 240.114 0.2595 -3.13327 0
M  V30 2628 N 243.887 0.651787 -1.4349 0
M  V30 2629 C 244.85 1.74647 -1.48429 0
M  V30 2630 C 245.85 1.56513 -0.368817 0
M  V30 2631 O 247.04 1.62385 -0.630623 0
M  V30 2632 C 244.172 3.13533 -1.33827 0
M  V30 2633 H 245.365 1.71649 -2.4592 0
M  V30 2634 H 242.918 0.863573 -1.30277 0
M  V30 2635 H 243.653 3.22142 -0.37349 0
M  V30 2636 H 243.438 3.28101 -2.14691 0
M  V30 2637 H 244.928 3.93356 -1.40218 0
M  V30 2638 N 245.365 1.30045 0.890287 0
M  V30 2639 C 246.295 1.18541 2.01172 0
M  V30 2640 C 247.276 0.0773356 1.69924 0
M  V30 2641 O 248.461 0.25845 1.92473 0
M  V30 2642 C 245.591 0.870941 3.36202 0
M  V30 2643 C 244.545 1.93637 3.81692 0
M  V30 2644 C 243.871 1.475 5.13953 0
M  V30 2645 C 245.171 3.34666 4.00994 0
M  V30 2646 H 246.865 2.12359 2.11054 0
M  V30 2647 H 244.411 1.02238 1.01407 0
M  V30 2648 H 246.364 0.777141 4.14172 0
M  V30 2649 H 245.088 -0.102926 3.26438 0
M  V30 2650 H 243.747 2.01972 3.05946 0
M  V30 2651 H 243.395 0.489551 5.00612 0
M  V30 2652 H 243.095 2.1876 5.4536 0
M  V30 2653 H 244.619 1.39489 5.94454 0
M  V30 2654 H 246.033 3.2912 4.69417 0
M  V30 2655 H 244.43 4.03966 4.43769 0
M  V30 2656 H 245.5 3.76949 3.05021 0
M  V30 2657 N 246.843 -1.10192 1.12674 0
M  V30 2658 C 248.254 -1.63707 0.897604 0
M  V30 2659 C 248.605 -1.87812 -0.567546 0
M  V30 2660 O 247.73 -1.62196 -1.43253 0
M  V30 2661 C 248.325 -2.974 1.62292 0
M  V30 2662 C 246.884 -3.47772 1.43986 0
M  V30 2663 C 246.031 -2.22332 1.65722 0
M  V30 2664 H 248.982 -0.936587 1.28116 0
M  V30 2665 H 249.003 -3.64986 1.07541 0
M  V30 2666 H 248.515 -2.79824 2.68924 0
M  V30 2667 H 246.616 -3.70487 0.396206 0
M  V30 2668 H 246.729 -4.25723 2.19765 0
M  V30 2669 H 245.093 -2.30599 1.08149 0
M  V30 2670 H 245.876 -2.07285 2.73657 0
M  V30 2671 N 248.321 -0.919034 -1.28029 0
M  V30 2672 C 249.549 -0.570971 -1.98866 0
M  V30 2673 C 249.964 0.848996 -1.68634 0
M  V30 2674 O 249.321 1.56307 -0.942036 0
M  V30 2675 C 249.372 -0.776876 -3.53054 0
M  V30 2676 O 249.093 -2.14097 -3.82222 0
M  V30 2677 C 250.594 -0.436356 -4.41147 0
M  V30 2678 H 247.814 -0.217175 -0.634883 0
M  V30 2679 H 250.358 -1.23368 -1.63097 0
M  V30 2680 H 248.513 -0.161085 -3.87065 0
M  V30 2681 H 248.927 -2.18455 -4.76841 0
M  V30 2682 H 250.401 -0.63117 -5.4838 0
M  V30 2683 H 250.878 0.627686 -4.34692 0
M  V30 2684 H 251.484 -1.02991 -4.12641 0
M  V30 2685 N 249.799 1.42003 -0.683588 0
M  V30 2686 C 251.029 2.05448 -0.217866 0
M  V30 2687 C 251.437 1.51491 1.13346 0
M  V30 2688 O 250.78 0.653048 1.717 0
M  V30 2689 C 250.842 3.59399 -0.0850118 0
M  V30 2690 C 250.506 4.36093 -1.36645 0
M  V30 2691 C 251.503 4.66169 -2.30179 0
M  V30 2692 C 249.188 4.75578 -1.61649 0
M  V30 2693 C 251.182 5.34676 -3.46988 0
M  V30 2694 C 248.869 5.43824 -2.78745 0
M  V30 2695 C 249.867 5.73299 -3.71238 0
M  V30 2696 O 249.555 6.40142 -4.86285 0
M  V30 2697 H 249.287 0.668344 -0.101454 0
M  V30 2698 H 251.841 1.82974 -0.933248 0
M  V30 2699 H 250.071 3.80566 0.686031 0
M  V30 2700 H 251.76 4.04457 0.341973 0
M  V30 2701 H 252.526 4.36156 -2.12115 0
M  V30 2702 H 248.405 4.52025 -0.905243 0
M  V30 2703 H 251.949 5.57599 -4.19201 0
M  V30 2704 H 247.846 5.73254 -2.96732 0
M  V30 2705 H 248.614 6.58636 -4.85944 0
M  V30 2706 N 251.277 0.427512 1.51691 0
M  V30 2707 C 252.554 -0.201684 1.94557 0
M  V30 2708 C 252.934 -1.60981 1.36559 0
M  V30 2709 O 252.282 -2.21814 0.548702 0
M  V30 2710 C 252.492 -0.189394 3.48486 0
M  V30 2711 C 253.84 -0.39978 4.22714 0
M  V30 2712 O 254.864 -0.267945 3.55191 0
M  V30 2713 O 253.723 -0.661249 5.42485 0
M  V30 2714 H 250.817 -0.135261 0.815864 0
M  V30 2715 H 253.363 0.484782 1.62628 0
M  V30 2716 H 252.135 0.795431 3.8313 0
M  V30 2717 H 251.758 -0.919187 3.86829 0
M  V30 2718 N 252.755 -1.56801 0.158532 0
M  V30 2719 C 253.983 -2.00859 -0.496303 0
M  V30 2720 C 254.398 -1.03871 -1.57659 0
M  V30 2721 O 253.755 -0.0375165 -1.82461 0
M  V30 2722 C 253.806 -3.4479 -1.08638 0
M  V30 2723 O 253.527 -4.38072 -0.0492322 0
M  V30 2724 C 255.028 -4.04185 -1.8207 0
M  V30 2725 H 252.248 -0.65864 -0.128199 0
M  V30 2726 H 254.792 -2.02885 0.256506 0
M  V30 2727 H 252.947 -3.43579 -1.78975 0
M  V30 2728 H 253.361 -5.2227 -0.483102 0
M  V30 2729 H 254.835 -5.06857 -2.18633 0
M  V30 2730 H 255.312 -3.45549 -2.71095 0
M  V30 2731 H 255.918 -4.0906 -1.16405 0
M  V30 2732 N 254.233 0.115231 -1.57178 0
M  V30 2733 C 255.163 1.1423 -2.03651 0
M  V30 2734 C 256.144 1.42967 -0.921655 0
M  V30 2735 O 257.329 1.53343 -1.19162 0
M  V30 2736 C 254.459 2.4675 -2.44401 0
M  V30 2737 C 253.413 2.32467 -3.59365 0
M  V30 2738 C 252.739 3.69984 -3.86026 0
M  V30 2739 C 254.039 1.78203 -4.90959 0
M  V30 2740 H 255.733 0.755749 -2.89705 0
M  V30 2741 H 253.279 0.362093 -1.39373 0
M  V30 2742 H 255.232 3.18854 -2.75517 0
M  V30 2743 H 253.956 2.87302 -1.55322 0
M  V30 2744 H 252.615 1.62811 -3.28463 0
M  V30 2745 H 252.263 4.08028 -2.94147 0
M  V30 2746 H 251.963 3.61279 -4.63412 0
M  V30 2747 H 253.487 4.43587 -4.19599 0
M  V30 2748 H 254.901 2.40128 -5.20587 0
M  V30 2749 H 253.298 1.8031 -5.72371 0
M  V30 2750 H 254.368 0.739876 -4.79222 0
M  V30 2751 N 255.711 1.52812 0.385517 0
M  V30 2752 C 256.641 1.80808 1.47752 0
M  V30 2753 C 257.622 0.660318 1.5676 0
M  V30 2754 O 258.807 0.908246 1.71652 0
M  V30 2755 C 255.937 1.98008 2.85324 0
M  V30 2756 C 254.891 3.13709 2.91154 0
M  V30 2757 C 254.217 3.16169 4.31209 0
M  V30 2758 C 255.517 4.52709 2.60483 0
M  V30 2759 H 257.211 2.72253 1.24573 0
M  V30 2760 H 254.757 1.31003 0.597839 0
M  V30 2761 H 256.71 2.16176 3.61726 0
M  V30 2762 H 255.434 1.03255 3.09848 0
M  V30 2763 H 254.093 2.95329 2.17201 0
M  V30 2764 H 253.741 2.19092 4.52778 0
M  V30 2765 H 253.441 3.93894 4.36029 0
M  V30 2766 H 254.965 3.36496 5.09512 0
M  V30 2767 H 256.379 4.71173 3.26602 0
M  V30 2768 H 254.776 5.32528 2.76648 0
M  V30 2769 H 255.846 4.59186 1.55809 0
M  V30 2770 N 257.189 -0.644168 1.43834 0
M  V30 2771 C 258.099 -1.78563 1.52159 0
M  V30 2772 C 259.115 -1.69147 0.408069 0
M  V30 2773 O 260.291 -1.90156 0.663524 0
M  V30 2774 C 257.356 -3.14888 1.45073 0
M  V30 2775 C 256.417 -3.36034 2.6717 0
M  V30 2776 C 255.65 -4.65855 2.60413 0
M  V30 2777 O 255.873 -5.45805 1.65689 0
M  V30 2778 O 254.807 -4.88918 3.5106 0
M  V30 2779 H 258.633 -1.74494 2.48567 0
M  V30 2780 H 256.218 -0.80378 1.25935 0
M  V30 2781 H 258.1 -3.96179 1.43597 0
M  V30 2782 H 256.775 -3.19528 0.518037 0
M  V30 2783 H 255.682 -2.54472 2.74217 0
M  V30 2784 H 257.015 -3.36247 3.59442 0
M  V30 2785 N 258.668 -1.30515 -0.883378 0
M  V30 2786 C 259.6 -1.12846 -1.99496 0
M  V30 2787 C 260.613 -0.0712571 -1.62644 0
M  V30 2788 O 261.802 -0.317432 -1.75655 0
M  V30 2789 C 258.902 -0.699123 -3.3161 0
M  V30 2790 C 258.075 -1.83842 -3.96889 0
M  V30 2791 C 257.134 -1.39737 -5.07307 0
M  V30 2792 O 256.16 -2.10485 -5.28852 0
M  V30 2793 N 257.362 -0.277279 -5.79837 0
M  V30 2794 H 260.127 -2.08585 -2.15203 0
M  V30 2795 H 257.688 -1.22672 -1.05656 0
M  V30 2796 H 259.68 -0.387044 -4.02845 0
M  V30 2797 H 258.25 0.166276 -3.12157 0
M  V30 2798 H 257.47 -2.31853 -3.18807 0
M  V30 2799 H 258.758 -2.60187 -4.37241 0
M  V30 2800 H 258.156 0.3122 -5.64838 0
M  V30 2801 H 256.713 -0.0246623 -6.51795 0
M  V30 2802 N 260.146 1.09593 -1.13257 0
M  V30 2803 C 261.076 2.18214 -0.830946 0
M  V30 2804 C 262.057 1.68812 0.208966 0
M  V30 2805 O 263.242 1.9408 0.0682666 0
M  V30 2806 C 260.372 3.46051 -0.294296 0
M  V30 2807 C 259.326 4.08778 -1.26826 0
M  V30 2808 C 258.652 5.31419 -0.591449 0
M  V30 2809 C 259.952 4.51476 -2.62615 0
M  V30 2810 H 261.646 2.43703 -1.73923 0
M  V30 2811 H 259.192 1.17128 -0.837675 0
M  V30 2812 H 261.145 4.2134 -0.0709606 0
M  V30 2813 H 259.869 3.20079 0.649366 0
M  V30 2814 H 258.528 3.35505 -1.47756 0
M  V30 2815 H 258.176 5.01727 0.357633 0
M  V30 2816 H 257.876 5.74341 -1.24123 0
M  V30 2817 H 259.4 6.09433 -0.377355 0
M  V30 2818 H 260.814 5.17999 -2.45663 0
M  V30 2819 H 259.211 5.05277 -3.23752 0
M  V30 2820 H 260.281 3.63962 -3.20406 0
M  V30 2821 N 261.624 0.925811 1.2754 0
M  V30 2822 C 262.864 0.572521 1.96218 0
M  V30 2823 C 263.228 -0.869719 1.71172 0
M  V30 2824 O 264.429 -1.33119 2.33523 0
M  V30 2825 C 262.7 0.887325 3.4621 0
M  V30 2826 S 264.259 0.642266 4.34074 0
M  V30 2827 H 261.077 0.211403 0.678845 0
M  V30 2828 H 263.679 1.19384 1.54815 0
M  V30 2829 H 262.383 1.93469 3.61936 0
M  V30 2830 H 261.914 0.255123 3.92572 0
M  V30 2831 H 263.929 -0.500822 4.93666 0
M  V30 2832 N 263.102 -1.41638 0.69111 0
M  V30 2833 C 264.379 -1.95036 0.148421 0
M  V30 2834 C 264.759 -1.63072 -1.34055 0
M  V30 2835 O 264.107 -0.93538 -2.08478 0
M  V30 2836 C 264.317 -3.46279 0.434951 0
M  V30 2837 C 265.665 -4.23069 0.360275 0
M  V30 2838 O 266.689 -3.54277 0.369613 0
M  V30 2839 O 265.548 -5.45583 0.316534 0
M  V30 2840 H 262.642 -0.826908 0.0123654 0
M  V30 2841 H 265.188 -1.5138 0.766963 0
M  V30 2842 H 263.96 -3.6281 1.46576 0
M  V30 2843 H 263.583 -3.97019 -0.214787 0
M  V30 2844 N 264.58 -0.43555 -1.51462 0
M  V30 2845 C 265.81 0.130053 -2.0619 0
M  V30 2846 C 266.218 1.37164 -1.30317 0
M  V30 2847 O 265.561 1.80225 -0.355598 0
M  V30 2848 C 265.623 0.519418 -3.55728 0
M  V30 2849 C 265.287 -0.615119 -4.52841 0
M  V30 2850 C 266.284 -1.48671 -4.9819 0
M  V30 2851 C 263.969 -0.795341 -4.95963 0
M  V30 2852 C 265.963 -2.52324 -5.8533 0
M  V30 2853 C 263.65 -1.83514 -5.82894 0
M  V30 2854 C 264.648 -2.69748 -6.27475 0
M  V30 2855 O 264.336 -3.71944 -7.1268 0
M  V30 2856 H 264.068 0.0121612 -0.675891 0
M  V30 2857 H 266.622 -0.6129 -1.96043 0
M  V30 2858 H 264.852 1.31505 -3.63653 0
M  V30 2859 H 266.541 1.01597 -3.92979 0
M  V30 2860 H 267.307 -1.359 -4.65571 0
M  V30 2861 H 263.186 -0.133713 -4.60806 0
M  V30 2862 H 266.73 -3.19665 -6.20048 0
M  V30 2863 H 262.627 -1.96306 -6.14926 0
M  V30 2864 H 263.395 -3.68503 -7.30854 0
M  V30 2865 N 266.058 1.56714 -0.166846 0
M  V30 2866 C 267.335 1.88412 0.525373 0
M  V30 2867 C 267.715 1.07602 1.81618 0
M  V30 2868 O 267.063 0.168621 2.27877 0
M  V30 2869 C 267.273 3.40363 0.771613 0
M  V30 2870 C 268.621 4.10007 1.1036 0
M  V30 2871 O 269.645 3.45655 0.860304 0
M  V30 2872 O 268.504 5.2369 1.56239 0
M  V30 2873 H 265.598 0.781587 0.270278 0
M  V30 2874 H 268.144 1.68458 -0.204946 0
M  V30 2875 H 266.916 3.91046 -0.141093 0
M  V30 2876 H 266.539 3.65914 1.55541 0
M  V30 2877 N 267.536 -0.106894 1.57237 0
M  V30 2878 C 268.466 -1.13148 2.04254 0
M  V30 2879 C 269.447 -1.42476 0.929224 0
M  V30 2880 O 270.632 -1.52709 1.19973 0
M  V30 2881 C 267.762 -2.4545 2.45706 0
M  V30 2882 C 266.716 -2.30558 3.60592 0
M  V30 2883 C 266.042 -3.67931 3.87983 0
M  V30 2884 C 267.342 -1.75597 4.91897 0
M  V30 2885 H 269.036 -0.740374 2.90101 0
M  V30 2886 H 266.582 -0.354696 1.39563 0
M  V30 2887 H 268.535 -3.17389 2.77205 0
M  V30 2888 H 267.259 -2.86475 1.56843 0
M  V30 2889 H 265.918 -1.61067 3.29322 0
M  V30 2890 H 265.566 -4.06462 2.96306 0
M  V30 2891 H 265.266 -3.58817 4.65322 0
M  V30 2892 H 266.79 -4.41356 4.21945 0
M  V30 2893 H 268.204 -2.37364 5.21854 0
M  V30 2894 H 266.601 -1.77272 5.73319 0
M  V30 2895 H 267.671 -0.714451 4.79608 0
M  V30 2896 N 269.014 -1.53014 -0.377408 0
M  V30 2897 C 269.944 -1.81589 -1.46791 0
M  V30 2898 C 270.925 -0.668622 -1.56408 0
M  V30 2899 O 272.11 -0.917337 -1.71168 0
M  V30 2900 C 269.24 -1.99519 -2.8427 0
M  V30 2901 C 268.194 -3.15249 -2.89486 0
M  V30 2902 C 267.52 -3.18451 -4.29527 0
M  V30 2903 C 268.82 -4.54084 -2.58079 0
M  V30 2904 H 270.514 -2.7291 -1.23127 0
M  V30 2905 H 268.06 -1.31319 -0.590883 0
M  V30 2906 H 270.013 -2.18092 -3.60575 0
M  V30 2907 H 268.737 -1.04897 -3.09296 0
M  V30 2908 H 267.396 -2.96477 -2.15631 0
M  V30 2909 H 267.044 -2.2149 -4.5161 0
M  V30 2910 H 266.744 -3.962 -4.33934 0
M  V30 2911 H 268.268 -3.39193 -5.07721 0
M  V30 2912 H 269.682 -4.72899 -3.24098 0
M  V30 2913 H 268.079 -5.33987 -2.7382 0
M  V30 2914 H 269.149 -4.60006 -1.53372 0
M  V30 2915 N 270.492 0.636531 -1.44174 0
M  V30 2916 C 271.74 1.39343 -1.46383 0
M  V30 2917 C 272.061 1.94766 -0.0955715 0
M  V30 2918 O 271.331 1.75452 0.871395 0
M  V30 2919 H 269.911 0.517199 -0.538994 0
M  V30 2920 H 272.573 0.74957 -1.7991 0
M  V30 2921 H 271.669 2.22746 -2.18611 0
M  V30 2922 N 271.97 1.30982 0.876444 0
M  V30 2923 C 273.217 1.20296 1.62896 0
M  V30 2924 C 273.545 -0.240395 1.93009 0
M  V30 2925 O 272.8 -1.18733 1.55567 0
M  V30 2926 C 273.099 1.98572 2.9716 0
M  V30 2927 C 272.765 3.48125 2.86566 0
M  V30 2928 C 271.427 3.88905 2.83383 0
M  V30 2929 C 273.779 4.43322 2.74071 0
M  V30 2930 C 271.107 5.2316 2.65556 0
M  V30 2931 C 273.459 5.77695 2.57781 0
M  V30 2932 C 272.123 6.17704 2.52979 0
M  V30 2933 H 271.393 0.440193 0.59608 0
M  V30 2934 H 274.04 1.62177 1.01837 0
M  V30 2935 H 272.345 1.49352 3.62217 0
M  V30 2936 H 274.042 1.8769 3.54364 0
M  V30 2937 H 270.632 3.15723 2.89856 0
M  V30 2938 H 274.816 4.12752 2.75589 0
M  V30 2939 H 270.072 5.53241 2.60259 0
M  V30 2940 H 274.246 6.51091 2.47089 0
M  V30 2941 H 271.873 7.21678 2.38924 0
M  V30 2942 N 273.449 -1.08991 1.13837 0
M  V30 2943 C 274.381 -2.15606 0.777612 0
M  V30 2944 C 275.394 -1.61533 -0.202739 0
M  V30 2945 O 276.583 -1.78491 0.0181055 0
M  V30 2946 C 273.683 -3.3864 0.132623 0
M  V30 2947 C 272.856 -4.22115 1.1462 0
M  V30 2948 C 271.915 -5.23564 0.526074 0
M  V30 2949 O 270.941 -5.56678 1.18735 0
M  V30 2950 N 272.143 -5.76266 -0.699866 0
M  V30 2951 H 274.908 -2.47159 1.69506 0
M  V30 2952 H 272.469 -1.24747 1.03198 0
M  V30 2953 H 274.461 -4.03626 -0.29459 0
M  V30 2954 H 273.031 -3.04938 -0.687849 0
M  V30 2955 H 272.251 -3.53199 1.75055 0
M  V30 2956 H 273.539 -4.74709 1.83109 0
M  V30 2957 H 272.937 -5.51585 -1.25581 0
M  V30 2958 H 271.494 -6.42963 -1.06968 0
M  V30 2959 N 274.927 -0.932562 -1.27047 0
M  V30 2960 C 276.155 -0.592031 -1.98249 0
M  V30 2961 C 276.57 0.831062 -1.69525 0
M  V30 2962 O 275.927 1.55299 -0.958561 0
M  V30 2963 C 275.978 -0.814279 -3.5221 0
M  V30 2964 O 275.699 -2.18139 -3.7993 0
M  V30 2965 C 277.2 -0.483121 -4.4066 0
M  V30 2966 H 274.42 -0.223896 -0.632544 0
M  V30 2967 H 276.964 -1.25091 -1.61779 0
M  V30 2968 H 275.119 -0.20213 -3.86872 0
M  V30 2969 H 275.533 -2.235 -4.74498 0
M  V30 2970 H 277.007 -0.689298 -5.47679 0
M  V30 2971 H 277.484 0.581546 -4.35333 0
M  V30 2972 H 278.09 -1.07362 -4.11526 0
M  V30 2973 N 276.405 1.4127 -0.698611 0
M  V30 2974 C 277.315 2.34573 -0.0357891 0
M  V30 2975 C 278.331 1.56393 0.762701 0
M  V30 2976 O 279.507 1.8886 0.699564 0
M  V30 2977 C 276.572 3.35159 0.887089 0
M  V30 2978 C 275.633 4.29225 0.0804634 0
M  V30 2979 C 274.866 5.25006 0.959387 0
M  V30 2980 O 275.089 5.26314 2.19886 0
M  V30 2981 O 274.023 6.00519 0.407439 0
M  V30 2982 H 277.849 2.92838 -0.804957 0
M  V30 2983 H 275.434 1.42175 -0.458966 0
M  V30 2984 H 277.316 3.9689 1.41621 0
M  V30 2985 H 275.991 2.79333 1.6357 0
M  V30 2986 H 274.898 3.70833 -0.493328 0
M  V30 2987 H 276.231 4.88157 -0.629547 0
M  V30 2988 N 277.883 0.443576 1.51229 0
M  V30 2989 C 278.831 -0.37904 2.29491 0
M  V30 2990 C 279.825 -1.0153 1.35603 0
M  V30 2991 O 281.031 -0.94955 1.52917 0
M  V30 2992 H 277.406 -0.141053 0.738653 0
M  V30 2993 H 279.377 0.301799 2.9687 0
M  V30 2994 C 278.126 -1.46426 3.15364 0
M  V30 2995 H 277.449 -0.984037 3.87501 0
M  V30 2996 H 278.889 -2.01297 3.7317 0
M  V30 2997 C 277.348 -2.45099 2.31146 0
M  V30 2998 O 277.878 -3.49773 1.9754 0
M  V30 2999 N 276.084 -2.16139 1.94249 0
M  V30 3000 H 275.631 -1.31044 2.21777 0
M  V30 3001 H 275.589 -2.82398 1.38198 0
M  V30 3002 N 279.361 -1.56624 0.175154 0
M  V30 3003 C 280.638 -1.88688 -0.515373 0
M  V30 3004 C 281.018 -1.08564 -1.81044 0
M  V30 3005 O 280.366 -0.180703 -2.27784 0
M  V30 3006 C 280.576 -3.40768 -0.753552 0
M  V30 3007 C 281.924 -4.10587 -1.08184 0
M  V30 3008 O 282.948 -3.46106 -0.841961 0
M  V30 3009 O 281.807 -5.24512 -1.53459 0
M  V30 3010 H 278.901 -0.78301 -0.26613 0
M  V30 3011 H 281.447 -1.68347 0.213877 0
M  V30 3012 H 280.219 -3.90965 0.161829 0
M  V30 3013 H 279.842 -3.66733 -1.53598 0
M  V30 3014 N 280.839 0.0985539 -1.57292 0
M  V30 3015 C 282.255 0.45267 -1.53046 0
M  V30 3016 C 282.455 1.80713 -0.891342 0
M  V30 3017 O 281.511 2.4785 -0.482375 0
M  V30 3018 C 282.824 0.418341 -2.97776 0
M  V30 3019 C 284.372 0.500443 -3.08973 0
M  V30 3020 C 284.847 0.496297 -4.55303 0
M  V30 3021 N 286.338 0.557151 -4.59837 0
M  V30 3022 C 287.073 0.575726 -5.70502 0
M  V30 3023 N 286.569 0.550714 -6.90608 0
M  V30 3024 N 288.362 0.620277 -5.58667 0
M  V30 3025 H 280.513 -0.788673 -1.97215 0
M  V30 3026 H 282.776 -0.293188 -0.901524 0
M  V30 3027 H 282.482 -0.509659 -3.47988 0
M  V30 3028 H 282.356 1.2386 -3.56284 0
M  V30 3029 H 284.743 1.41886 -2.58751 0
M  V30 3030 H 284.824 -0.347894 -2.53423 0
M  V30 3031 H 284.468 -0.418162 -5.06176 0
M  V30 3032 H 284.398 1.3618 -5.08687 0
M  V30 3033 H 286.889 0.581816 -3.73394 0
M  V30 3034 H 287.202 0.568075 -7.70709 0
M  V30 3035 H 285.547 0.517816 -6.93068 0
M  V30 3036 H 288.738 0.637322 -4.63741 0
M  V30 3037 H 288.911 0.631283 -6.44918 0
M  V30 3038 N 282.317 1.53212 0.369288 0
M  V30 3039 C 283.247 1.82365 1.45826 0
M  V30 3040 C 284.228 0.676907 1.56051 0
M  V30 3041 O 285.413 0.926401 1.70679 0
M  V30 3042 C 282.543 2.01023 2.83208 0
M  V30 3043 C 281.497 3.1678 2.8781 0
M  V30 3044 C 280.823 3.20724 4.27832 0
M  V30 3045 C 282.123 4.55447 2.55667 0
M  V30 3046 H 283.817 2.73559 1.21678 0
M  V30 3047 H 281.363 1.3163 0.583911 0
M  V30 3048 H 283.316 2.20001 3.59413 0
M  V30 3049 H 282.04 1.06536 3.08736 0
M  V30 3050 H 280.699 2.97616 2.14056 0
M  V30 3051 H 280.347 2.23882 4.50429 0
M  V30 3052 H 280.047 3.98496 4.31827 0
M  V30 3053 H 281.571 3.41881 5.05915 0
M  V30 3054 H 282.985 4.74611 3.21586 0
M  V30 3055 H 281.382 5.35432 2.70984 0
M  V30 3056 H 282.452 4.60812 1.5093 0
M  V30 3057 N 283.795 -0.628877 1.44509 0
M  V30 3058 C 284.758 -1.72263 1.51188 0
M  V30 3059 C 285.758 -1.55907 0.39367 0
M  V30 3060 O 286.948 -1.61361 0.656377 0
M  V30 3061 C 284.08 -3.11365 1.38798 0
M  V30 3062 H 285.273 -1.67714 2.4862 0
M  V30 3063 H 282.826 -0.842737 1.31634 0
M  V30 3064 H 283.561 -3.21507 0.424693 0
M  V30 3065 H 283.346 -3.24644 2.19884 0
M  V30 3066 H 284.836 -3.91075 1.46458 0
M  V30 3067 N 285.273 -1.31445 -0.869486 0
M  V30 3068 C 286.52 -1.21158 -1.62256 0
M  V30 3069 C 286.848 0.230155 -1.93133 0
M  V30 3070 O 286.103 1.17906 -1.56194 0
M  V30 3071 C 286.402 -2.00145 -2.96102 0
M  V30 3072 C 286.068 -3.4964 -2.84715 0
M  V30 3073 C 284.73 -3.90403 -2.81317 0
M  V30 3074 C 287.082 -4.44769 -2.71716 0
M  V30 3075 C 284.41 -5.24561 -2.62778 0
M  V30 3076 C 286.762 -5.79054 -2.54714 0
M  V30 3077 C 285.426 -6.19037 -2.49699 0
M  V30 3078 H 284.696 -0.443348 -0.593737 0
M  V30 3079 H 287.343 -1.62715 -1.00976 0
M  V30 3080 H 285.648 -1.5127 -3.6142 0
M  V30 3081 H 287.345 -1.89566 -3.53363 0
M  V30 3082 H 283.935 -3.17256 -2.88178 0
M  V30 3083 H 288.119 -4.14208 -2.73397 0
M  V30 3084 H 283.375 -5.54613 -2.57321 0
M  V30 3085 H 287.549 -6.52393 -2.43632 0
M  V30 3086 H 285.176 -7.22935 -2.35093 0
M  V30 3087 N 286.751 1.08385 -1.14413 0
M  V30 3088 C 287.681 2.17321 -0.854044 0
M  V30 3089 C 288.662 1.69024 0.191049 0
M  V30 3090 O 289.847 1.94141 0.0476779 0
M  V30 3091 C 286.977 3.45719 -0.330983 0
M  V30 3092 C 285.931 4.07409 -1.31155 0
M  V30 3093 C 285.257 5.30762 -0.64778 0
M  V30 3094 C 286.557 4.48665 -2.67388 0
M  V30 3095 H 288.251 2.41845 -1.76498 0
M  V30 3096 H 285.797 1.16233 -0.850051 0
M  V30 3097 H 287.75 4.21241 -0.115645 0
M  V30 3098 H 286.474 3.2075 0.615381 0
M  V30 3099 H 285.133 3.33919 -1.51306 0
M  V30 3100 H 284.781 5.02078 0.304398 0
M  V30 3101 H 284.481 5.72992 -1.30207 0
M  V30 3102 H 286.005 6.08998 -0.441972 0
M  V30 3103 H 287.419 5.15364 -2.51143 0
M  V30 3104 H 285.816 5.01814 -3.29093 0
M  V30 3105 H 286.886 3.60543 -3.24248 0
M  V30 3106 N 288.23 0.939286 1.26551 0
M  V30 3107 C 289.507 0.5038 1.89001 0
M  V30 3108 C 289.887 -1.01854 1.84903 0
M  V30 3109 O 289.235 -1.87773 1.30206 0
M  V30 3110 C 289.445 1.063 3.32417 0
M  V30 3111 C 290.793 1.13051 4.09273 0
M  V30 3112 O 291.817 1.01345 3.41479 0
M  V30 3113 O 290.676 1.31233 5.30509 0
M  V30 3114 H 287.77 0.163897 0.810597 0
M  V30 3115 H 290.316 1.03173 1.34735 0
M  V30 3116 H 289.088 2.10665 3.29752 0
M  V30 3117 H 288.711 0.517408 3.94219 0
M  V30 3118 N 289.708 -1.40897 0.706093 0
M  V30 3119 C 290.948 -2.02916 0.245827 0
M  V30 3120 C 291.312 -1.54751 -1.13649 0
M  V30 3121 O 292.513 -2.08768 -1.69321 0
M  V30 3122 C 290.784 -3.56031 0.312537 0
M  V30 3123 S 292.343 -4.38741 -0.0721388 0
M  V30 3124 H 289.161 -0.704186 0.0982007 0
M  V30 3125 H 291.763 -1.72168 0.926207 0
M  V30 3126 H 290.467 -3.88579 1.32039 0
M  V30 3127 H 289.998 -3.91495 -0.386641 0
M  V30 3128 H 292.013 -4.78952 -1.29692 0
M  V30 3129 N 291.186 -0.45159 -1.50991 0
M  V30 3130 C 292.116 0.342898 -2.30969 0
M  V30 3131 C 293.097 1.00815 -1.37005 0
M  V30 3132 O 294.282 1.00907 -1.65926 0
M  V30 3133 C 291.412 1.43637 -3.16205 0
M  V30 3134 C 290.366 0.893818 -4.18563 0
M  V30 3135 C 289.692 2.08411 -4.92411 0
M  V30 3136 C 290.992 -0.0815568 -5.22236 0
M  V30 3137 H 292.686 -0.324556 -2.97636 0
M  V30 3138 H 290.232 -0.157531 -1.43136 0
M  V30 3139 H 292.185 1.9995 -3.70942 0
M  V30 3140 H 290.909 2.13232 -2.47386 0
M  V30 3141 H 289.568 0.352798 -3.64898 0
M  V30 3142 H 289.216 2.76658 -4.20082 0
M  V30 3143 H 288.916 1.72741 -5.61636 0
M  V30 3144 H 290.44 2.65251 -5.49976 0
M  V30 3145 H 291.854 0.391742 -5.7196 0
M  V30 3146 H 290.251 -0.351551 -5.99069 0
M  V30 3147 H 291.321 -1.01374 -4.74185 0
M  V30 3148 N 292.664 1.56529 -0.183458 0
M  V30 3149 C 293.889 2.02064 0.467428 0
M  V30 3150 C 294.314 1.06282 1.55196 0
M  V30 3151 O 293.672 0.0443565 1.81246 0
M  V30 3152 C 293.72 3.46122 1.01153 0
M  V30 3153 O 292.824 3.53437 2.12499 0
M  V30 3154 H 292.165 0.654726 0.110588 0
M  V30 3155 H 294.695 2.02521 -0.290917 0
M  V30 3156 H 294.705 3.85676 1.33108 0
M  V30 3157 H 293.38 4.15331 0.217533 0
M  V30 3158 H 291.957 3.2575 1.81497 0
M  V30 3159 N 294.142 -0.090211 1.57342 0
M  V30 3160 C 295.09 -1.12792 2.03422 0
M  V30 3161 C 296.084 -1.41182 0.936166 0
M  V30 3162 O 297.29 -1.40805 1.12133 0
M  V30 3163 H 293.665 -0.380986 0.648347 0
M  V30 3164 H 295.636 -0.71299 2.89757 0
M  V30 3165 C 294.385 -2.43855 2.47851 0
M  V30 3166 H 293.708 -2.22855 3.31927 0
M  V30 3167 H 295.148 -3.14955 2.83865 0
M  V30 3168 C 293.607 -3.08503 1.3538 0
M  V30 3169 O 294.137 -3.95805 0.685641 0
M  V30 3170 N 292.343 -2.68831 1.10355 0
M  V30 3171 H 291.89 -1.97929 1.64869 0
M  V30 3172 H 291.848 -3.12412 0.353031 0
M  V30 3173 N 295.62 -1.53406 -0.361157 0
M  V30 3174 C 296.55 -1.83136 -1.44857 0
M  V30 3175 C 297.531 -0.685174 -1.5569 0
M  V30 3176 O 298.716 -0.93544 -1.70186 0
M  V30 3177 C 295.846 -2.02522 -2.82138 0
M  V30 3178 C 294.8 -3.18302 -2.86126 0
M  V30 3179 C 294.126 -3.22989 -4.26125 0
M  V30 3180 C 295.426 -4.56796 -2.53248 0
M  V30 3181 H 297.12 -2.74201 -1.20226 0
M  V30 3182 H 294.666 -1.31938 -0.576922 0
M  V30 3183 H 296.619 -2.21904 -3.58241 0
M  V30 3184 H 295.343 -1.08172 -3.08166 0
M  V30 3185 H 294.002 -2.98747 -2.12475 0
M  V30 3186 H 293.65 -2.26267 -4.49235 0
M  V30 3187 H 293.35 -4.00781 -4.29708 0
M  V30 3188 H 294.874 -3.44559 -5.04094 0
M  V30 3189 H 296.288 -4.7631 -3.19064 0
M  V30 3190 H 294.685 -5.36862 -2.68141 0
M  V30 3191 H 295.755 -4.61606 -1.48484 0
M  V30 3192 N 297.098 0.621204 -1.44841 0
M  V30 3193 C 298.326 1.40752 -1.51646 0
M  V30 3194 C 298.741 1.88246 -0.144549 0
M  V30 3195 O 298.098 1.61422 0.851416 0
M  V30 3196 C 298.149 2.62119 -2.4895 0
M  V30 3197 O 297.87 2.16602 -3.80808 0
M  V30 3198 C 299.371 3.55135 -2.65319 0
M  V30 3199 H 296.591 0.431325 -0.514004 0
M  V30 3200 H 299.135 0.758835 -1.899 0
M  V30 3201 H 297.29 3.23058 -2.13805 0
M  V30 3202 H 297.704 2.95358 -4.33433 0
M  V30 3203 H 299.178 4.36874 -3.37409 0
M  V30 3204 H 299.655 4.04592 -1.70886 0
M  V30 3205 H 300.261 3.00058 -3.01405 0
M  V30 3206 N 298.576 1.31904 0.862503 0
M  V30 3207 C 299.992 1.10724 1.14945 0
M  V30 3208 C 300.192 -0.117421 2.01158 0
M  V30 3209 O 299.248 -0.804595 2.39338 0
M  V30 3210 C 300.561 2.38267 1.83437 0
M  V30 3211 C 302.109 2.43949 1.96106 0
M  V30 3212 C 302.584 3.71394 2.68013 0
M  V30 3213 N 304.075 3.72331 2.75543 0
M  V30 3214 C 304.81 4.67641 3.31812 0
M  V30 3215 N 304.306 5.73313 3.88953 0
M  V30 3216 N 306.099 4.5515 3.29841 0
M  V30 3217 H 298.25 2.10436 0.288191 0
M  V30 3218 H 300.513 0.928705 0.190292 0
M  V30 3219 H 300.219 3.27759 1.27542 0
M  V30 3220 H 300.093 2.48633 2.83657 0
M  V30 3221 H 302.48 1.54922 2.51164 0
M  V30 3222 H 302.561 2.37543 0.949059 0
M  V30 3223 H 302.205 4.60791 2.13621 0
M  V30 3224 H 302.135 3.75069 3.69636 0
M  V30 3225 H 304.626 2.95947 2.34997 0
M  V30 3226 H 304.939 6.42107 4.30022 0
M  V30 3227 H 303.284 5.77077 3.87308 0
M  V30 3228 H 306.475 3.71766 2.84443 0
M  V30 3229 H 306.648 5.29604 3.73394 0
M  V30 3230 N 300.054 -1.07777 1.14986 0
M  V30 3231 C 301.3 -1.80557 0.923422 0
M  V30 3232 C 301.633 -1.86298 -0.548337 0
M  V30 3233 O 300.908 -1.34354 -1.40639 0
M  V30 3234 C 301.191 -3.25839 1.53299 0
M  V30 3235 C 301.044 -3.28269 3.07505 0
M  V30 3236 C 302.363 -4.22991 1.21518 0
M  V30 3237 H 299.482 -0.655493 0.336894 0
M  V30 3238 H 302.124 -1.26144 1.42083 0
M  V30 3239 H 300.274 -3.72306 1.10999 0
M  V30 3240 H 301.946 -2.90079 3.58681 0
M  V30 3241 H 300.189 -2.67355 3.4162 0
M  V30 3242 H 300.86 -4.30691 3.45266 0
M  V30 3243 H 303.336 -3.84894 1.581 0
M  V30 3244 H 302.212 -5.22945 1.66793 0
M  V30 3245 H 302.473 -4.41904 0.131505 0
M  V30 3246 N 301.532 -0.945985 -1.26051 0
M  V30 3247 C 302.76 -0.613025 -1.9761 0
M  V30 3248 C 303.175 0.813035 -1.70397 0
M  V30 3249 O 302.532 1.54274 -0.974979 0
M  V30 3250 C 302.583 -0.85159 -3.51326 0
M  V30 3251 O 302.304 -2.22157 -3.77595 0
M  V30 3252 C 303.805 -0.529831 -4.40122 0
M  V30 3253 H 301.025 -0.230593 -0.630133 0
M  V30 3254 H 303.569 -1.268 -1.60443 0
M  V30 3255 H 301.724 -0.243151 -3.86636 0
M  V30 3256 H 302.138 -2.2852 -4.721 0
M  V30 3257 H 303.612 -0.747348 -5.46917 0
M  V30 3258 H 304.089 0.535341 -4.35925 0
M  V30 3259 H 304.695 -1.11721 -4.10364 0
M  V30 3260 N 303.011 1.40521 -0.713556 0
M  V30 3261 C 304.239 2.05237 -0.261775 0
M  V30 3262 C 304.654 1.53755 1.09567 0
M  V30 3263 O 304.011 0.693268 1.6882 0
M  V30 3264 C 304.062 3.60763 -0.230706 0
M  V30 3265 O 303.783 4.10345 -1.53455 0
M  V30 3266 C 305.284 4.42651 0.239874 0
M  V30 3267 H 302.504 0.660533 -0.118057 0
M  V30 3268 H 305.048 1.79967 -0.971192 0
M  V30 3269 H 303.203 3.8501 0.429661 0
M  V30 3270 H 303.617 5.04526 -1.43366 0
M  V30 3271 H 305.091 5.51599 0.210468 0
M  V30 3272 H 305.568 4.20082 1.28171 0
M  V30 3273 H 306.174 4.23507 -0.390142 0
M  V30 3274 N 304.489 0.459591 1.5075 0
M  V30 3275 C 305.905 0.113092 1.59199 0
M  V30 3276 C 306.105 -1.37951 1.46874 0
M  V30 3277 O 305.161 -2.15168 1.32132 0
M  V30 3278 C 306.474 0.653043 2.93523 0
M  V30 3279 C 308.022 0.615449 3.0689 0
M  V30 3280 C 308.497 1.13275 4.43771 0
M  V30 3281 N 309.988 1.09167 4.50152 0
M  V30 3282 C 310.723 1.46256 5.54434 0
M  V30 3283 N 310.219 1.90739 6.66026 0
M  V30 3284 N 312.012 1.37932 5.44914 0
M  V30 3285 H 304.163 1.43049 1.57005 0
M  V30 3286 H 306.426 0.590861 0.741341 0
M  V30 3287 H 306.132 1.69822 3.07983 0
M  V30 3288 H 306.006 0.0902132 3.77092 0
M  V30 3289 H 308.393 -0.420793 2.92084 0
M  V30 3290 H 308.474 1.21495 2.25106 0
M  V30 3291 H 308.118 2.16757 4.59324 0
M  V30 3292 H 308.048 0.509576 5.24129 0
M  V30 3293 H 310.539 0.76528 3.7007 0
M  V30 3294 H 310.852 2.17218 7.41644 0
M  V30 3295 H 309.197 1.94683 6.67176 0
M  V30 3296 H 312.388 1.0303 4.56621 0
M  V30 3297 H 312.561 1.67164 6.26067 0
M  V30 3298 N 305.967 -1.56429 0.191757 0
M  V30 3299 C 307.192 -2.02309 -0.456706 0
M  V30 3300 C 307.617 -1.07103 -1.5463 0
M  V30 3301 O 306.975 -0.0539677 -1.8122 0
M  V30 3302 C 307.023 -3.46654 -0.993159 0
M  V30 3303 O 306.127 -3.54559 -2.10622 0
M  V30 3304 H 305.468 -0.655303 -0.107114 0
M  V30 3305 H 307.998 -2.02364 0.301653 0
M  V30 3306 H 308.008 -3.86377 -1.31061 0
M  V30 3307 H 306.683 -4.1544 -0.195504 0
M  V30 3308 H 305.26 -3.26708 -1.79767 0
M  V30 3309 N 307.445 0.0818655 -1.57387 0
M  V30 3310 C 308.408 1.08265 -2.02018 0
M  V30 3311 C 309.408 1.32183 -0.915664 0
M  V30 3312 O 310.598 1.28073 -1.18081 0
M  V30 3313 C 307.73 2.42871 -2.39221 0
M  V30 3314 H 308.923 0.698204 -2.91659 0
M  V30 3315 H 306.476 0.327303 -1.52835 0
M  V30 3316 H 307.211 2.86167 -1.52575 0
M  V30 3317 H 306.996 2.26855 -3.19811 0
M  V30 3318 H 308.486 3.14826 -2.74362 0
M  V30 3319 N 308.923 1.53595 0.353017 0
M  V30 3320 C 309.87 1.80919 1.43308 0
M  V30 3321 C 310.84 0.654288 1.5267 0
M  V30 3322 O 312.025 0.897759 1.6836 0
M  V30 3323 C 309.165 2.01605 2.80089 0
M  V30 3324 C 308.278 3.29321 2.79593 0
M  V30 3325 C 307.413 3.40125 4.0803 0
M  V30 3326 C 306.452 4.61826 4.01725 0
M  V30 3327 N 305.589 4.69716 5.21834 0
M  V30 3328 H 310.429 2.73074 1.19308 0
M  V30 3329 H 307.966 1.35263 0.578131 0
M  V30 3330 H 309.924 2.11586 3.59565 0
M  V30 3331 H 308.554 1.12772 3.0246 0
M  V30 3332 H 307.606 3.28229 1.92276 0
M  V30 3333 H 308.918 4.18884 2.70809 0
M  V30 3334 H 308.072 3.49488 4.95927 0
M  V30 3335 H 306.811 2.48601 4.19582 0
M  V30 3336 H 305.816 4.52552 3.12213 0
M  V30 3337 H 307.041 5.54705 3.91764 0
M  V30 3338 H 304.987 3.81097 5.33948 0
M  V30 3339 H 304.904 5.53202 5.1527 0
M  V30 3340 H 306.172 4.83376 6.11529 0
M  V30 3341 N 310.401 -0.613514 1.45168 0
M  V30 3342 C 311.626 -1.40437 1.52618 0
M  V30 3343 C 312.051 -1.87438 0.157707 0
M  V30 3344 O 311.409 -1.59791 -0.856537 0
M  V30 3345 C 311.457 -2.58894 2.51011 0
M  V30 3346 O 310.561 -3.59326 2.02382 0
M  V30 3347 H 309.902 -0.419506 0.514695 0
M  V30 3348 H 312.432 -0.747215 1.90467 0
M  V30 3349 H 312.442 -3.06214 2.69624 0
M  V30 3350 H 311.117 -2.24032 3.50403 0
M  V30 3351 H 309.694 -3.18695 1.93618 0
M  V30 3352 N 311.879 -1.3236 -0.855495 0
M  V30 3353 C 312.829 -1.17809 -1.95205 0
M  V30 3354 C 313.813 -0.0852319 -1.60674 0
M  V30 3355 O 315.005 -0.311651 -1.74235 0
M  V30 3356 C 312.134 -0.902437 -3.31226 0
M  V30 3357 C 311.22 -2.03695 -3.7198 0
M  V30 3358 N 311.611 -3.28544 -3.84568 0
M  V30 3359 C 309.909 -1.93993 -4.016 0
M  V30 3360 C 310.61 -4.02847 -4.19629 0
M  V30 3361 N 309.586 -3.31138 -4.31102 0
M  V30 3362 H 313.388 -2.12462 -2.0307 0
M  V30 3363 H 310.902 -1.24127 -1.0472 0
M  V30 3364 H 312.899 -0.77915 -4.09554 0
M  V30 3365 H 311.559 0.0357267 -3.2468 0
M  V30 3366 H 312.57 -3.6349 -3.68911 0
M  V30 3367 H 309.247 -1.07733 -4.03361 0
M  V30 3368 H 310.637 -5.10506 -4.36845 0
M  V30 3369 N 313.357 1.07166 -1.15556 0
M  V30 3370 C 314.585 1.83514 -0.955519 0
M  V30 3371 C 315 1.82163 0.49621 0
M  V30 3372 O 314.357 1.23441 1.34419 0
M  V30 3373 C 314.408 3.30515 -1.46432 0
M  V30 3374 O 314.129 3.31937 -2.85918 0
M  V30 3375 C 315.63 4.23625 -1.30603 0
M  V30 3376 H 312.85 0.578926 -0.339244 0
M  V30 3377 H 315.394 1.35265 -1.53374 0
M  V30 3378 H 313.549 3.76106 -0.928584 0
M  V30 3379 H 313.963 4.23794 -3.09029 0
M  V30 3380 H 315.437 5.24831 -1.71047 0
M  V30 3381 H 315.914 4.38485 -0.250441 0
M  V30 3382 H 316.52 3.83871 -1.83094 0
M  V30 3383 N 314.835 0.952656 1.25548 0
M  V30 3384 C 315.798 0.475794 2.24207 0
M  V30 3385 C 316.798 -0.419428 1.55234 0
M  V30 3386 O 317.988 -0.216994 1.72843 0
M  V30 3387 C 315.12 -0.312814 3.39462 0
M  V30 3388 H 316.313 1.34779 2.67908 0
M  V30 3389 H 313.866 0.735739 1.37901 0
M  V30 3390 H 314.601 -1.20257 3.01179 0
M  V30 3391 H 314.386 0.329404 3.90714 0
M  V30 3392 H 315.876 -0.635986 4.12729 0
M  V30 3393 N 316.313 -1.40141 0.720998 0
M  V30 3394 C 317.559 -2.01572 0.272075 0
M  V30 3395 C 317.914 -1.5616 -1.12391 0
M  V30 3396 O 317.207 -0.774198 -1.75262 0
M  V30 3397 C 317.401 -3.56165 0.296892 0
M  V30 3398 C 317.23 -4.16584 1.69375 0
M  V30 3399 C 316 -4.49783 2.30269 0
M  V30 3400 C 318.198 -4.41076 2.64493 0
M  V30 3401 N 316.18 -4.95626 3.62254 0
M  V30 3402 C 317.551 -4.88971 3.81192 0
M  V30 3403 C 319.606 -4.23122 2.62435 0
M  V30 3404 C 318.309 -5.20796 4.96149 0
M  V30 3405 C 320.335 -4.56052 3.76524 0
M  V30 3406 C 319.697 -5.04141 4.91956 0
M  V30 3407 H 315.796 -0.768343 0.145511 0
M  V30 3408 H 318.38 -1.70287 0.943959 0
M  V30 3409 H 316.551 -3.86868 -0.344578 0
M  V30 3410 H 318.283 -4.04346 -0.169254 0
M  V30 3411 H 315.038 -4.37101 1.82318 0
M  V30 3412 H 315.462 -5.22923 4.29977 0
M  V30 3413 H 320.104 -3.85158 1.74393 0
M  V30 3414 H 317.822 -5.57672 5.84831 0
M  V30 3415 H 321.408 -4.43796 3.76213 0
M  V30 3416 H 320.288 -5.29142 5.78774 0
M  V30 3417 N 317.792 -0.46758 -1.50504 0
M  V30 3418 C 319.04 0.0884469 -2.01906 0
M  V30 3419 C 319.361 1.40532 -1.35188 0
M  V30 3420 O 318.631 1.89515 -0.496079 0
M  V30 3421 H 317.211 0.0356765 -0.746148 0
M  V30 3422 H 319.873 -0.6172 -1.84869 0
M  V30 3423 H 318.969 0.2425 -3.11156 0
M  V30 3424 N 319.27 1.56325 -0.20005 0
M  V30 3425 C 320.217 2.1932 0.718833 0
M  V30 3426 C 321.187 1.14198 1.20615 0
M  V30 3427 O 322.372 1.42469 1.26914 0
M  V30 3428 C 319.512 2.86041 1.93066 0
M  V30 3429 C 318.625 4.05702 1.48425 0
M  V30 3430 C 317.76 4.60266 2.65196 0
M  V30 3431 C 316.799 5.72273 2.17185 0
M  V30 3432 N 315.936 6.21221 3.27152 0
M  V30 3433 H 320.776 2.97486 0.17489 0
M  V30 3434 H 318.313 1.46911 0.0745794 0
M  V30 3435 H 320.271 3.22897 2.64184 0
M  V30 3436 H 318.901 2.1043 2.44783 0
M  V30 3437 H 317.953 3.74475 0.668755 0
M  V30 3438 H 319.265 4.86699 1.09204 0
M  V30 3439 H 318.419 4.99453 3.4443 0
M  V30 3440 H 317.158 3.78386 3.07693 0
M  V30 3441 H 316.163 5.3261 1.36407 0
M  V30 3442 H 317.388 6.55974 1.75713 0
M  V30 3443 H 315.334 5.42263 3.69171 0
M  V30 3444 H 315.251 6.97284 2.92116 0
M  V30 3445 H 316.519 6.65063 4.06585 0
M  V30 3446 N 320.748 -0.0735177 1.57428 0
M  V30 3447 C 321.711 -1.07192 2.02589 0
M  V30 3448 C 322.711 -1.31695 0.922661 0
M  V30 3449 O 323.901 -1.27445 1.18758 0
M  V30 3450 C 321.033 -2.41599 2.40506 0
M  V30 3451 H 322.226 -0.682727 2.92025 0
M  V30 3452 H 319.779 -0.319193 1.53006 0
M  V30 3453 H 320.514 -2.85354 1.5409 0
M  V30 3454 H 320.299 -2.25156 3.21009 0
M  V30 3455 H 321.789 -3.13367 2.76027 0
M  V30 3456 N 322.226 -1.5378 -0.344866 0
M  V30 3457 C 323.473 -1.70963 -1.08526 0
M  V30 3458 C 323.801 -0.472126 -1.88683 0
M  V30 3459 O 323.056 0.546116 -1.87926 0
M  V30 3460 C 323.355 -2.92407 -2.05506 0
M  V30 3461 C 323.021 -4.28066 -1.41671 0
M  V30 3462 C 321.683 -4.64951 -1.2399 0
M  V30 3463 C 324.035 -5.12344 -0.956726 0
M  V30 3464 C 321.363 -5.83733 -0.589277 0
M  V30 3465 C 323.715 -6.3179 -0.320015 0
M  V30 3466 C 322.379 -6.67372 -0.130881 0
M  V30 3467 H 321.649 -0.625598 -0.397124 0
M  V30 3468 H 324.296 -1.87995 -0.36469 0
M  V30 3469 H 322.601 -2.69973 -2.8394 0
M  V30 3470 H 324.298 -3.02895 -2.62784 0
M  V30 3471 H 320.888 -3.99034 -1.56429 0
M  V30 3472 H 325.072 -4.8438 -1.08118 0
M  V30 3473 H 320.328 -6.09877 -0.431344 0
M  V30 3474 H 324.502 -6.96386 0.0445072 0
M  V30 3475 H 322.129 -7.59273 0.375318 0
M  V30 3476 N 323.704 0.605807 -1.45491 0
M  V30 3477 C 325.12 0.926751 -1.29936 0
M  V30 3478 C 325.32 1.99896 -0.253706 0
M  V30 3479 O 324.376 2.50038 0.351737 0
M  V30 3480 C 325.689 1.36599 -2.67883 0
M  V30 3481 C 327.237 1.4801 -2.75793 0
M  V30 3482 C 327.712 1.95309 -4.14268 0
M  V30 3483 N 329.203 2.0254 -4.16571 0
M  V30 3484 C 329.938 2.40363 -5.20589 0
M  V30 3485 N 329.434 2.77143 -6.34952 0
M  V30 3486 N 331.227 2.40718 -5.07948 0
M  V30 3487 H 323.378 -0.102862 -2.12151 0
M  V30 3488 H 325.641 0.016639 -0.947854 0
M  V30 3489 H 325.347 0.652306 -3.45598 0
M  V30 3490 H 325.221 2.33215 -2.96463 0
M  V30 3491 H 327.608 2.1847 -1.98381 0
M  V30 3492 H 327.689 0.497041 -2.50925 0
M  V30 3493 H 327.333 1.25436 -4.92167 0
M  V30 3494 H 327.263 2.94532 -4.3653 0
M  V30 3495 H 329.754 1.76699 -3.34045 0
M  V30 3496 H 330.067 3.0489 -7.10114 0
M  V30 3497 H 328.412 2.74834 -6.3835 0
M  V30 3498 H 331.603 2.11392 -4.1765 0
M  V30 3499 H 331.776 2.69869 -5.89131 0
M  V30 3500 N 325.182 1.32811 0.848464 0
M  V30 3501 C 326.41 1.26739 1.63538 0
M  V30 3502 C 326.825 -0.163484 1.88091 0
M  V30 3503 O 326.182 -1.10258 1.45429 0
M  V30 3504 C 326.233 2.03013 2.99112 0
M  V30 3505 O 325.954 3.40518 2.75643 0
M  V30 3506 C 327.455 2.04038 3.93552 0
M  V30 3507 H 324.675 0.437024 0.509167 0
M  V30 3508 H 327.219 1.75033 1.05753 0
M  V30 3509 H 325.374 1.58426 3.53525 0
M  V30 3510 H 325.788 3.79635 3.61908 0
M  V30 3511 H 327.262 2.61877 4.85926 0
M  V30 3512 H 327.739 1.0282 4.26995 0
M  V30 3513 H 328.345 2.486 3.45077 0
M  V30 3514 N 326.66 -1.06551 1.16123 0
M  V30 3515 C 327.57 -2.17484 0.879662 0
M  V30 3516 C 328.586 -1.73377 -0.147104 0
M  V30 3517 O 329.762 -2.01379 0.0289128 0
M  V30 3518 C 326.827 -3.44591 0.381829 0
M  V30 3519 C 325.888 -4.0322 1.4735 0
M  V30 3520 C 325.121 -5.24261 0.999324 0
M  V30 3521 O 325.344 -5.70198 -0.151957 0
M  V30 3522 O 324.278 -5.74775 1.78653 0
M  V30 3523 H 328.104 -2.44075 1.80724 0
M  V30 3524 H 325.689 -1.16042 0.940992 0
M  V30 3525 H 327.571 -4.21254 0.111053 0
M  V30 3526 H 326.246 -3.19532 -0.51777 0
M  V30 3527 H 325.153 -3.2806 1.79798 0
M  V30 3528 H 326.486 -4.32568 2.34831 0
M  V30 3529 N 328.138 -0.959301 -1.25041 0
M  V30 3530 C 329.384 -0.617525 -1.9317 0
M  V30 3531 C 329.717 0.843981 -1.74902 0
M  V30 3532 O 328.992 1.60615 -1.09696 0
M  V30 3533 C 329.275 -0.982736 -3.46431 0
M  V30 3534 C 329.128 -2.50032 -3.73904 0
M  V30 3535 C 330.447 -0.511176 -4.37121 0
M  V30 3536 H 327.566 -0.22582 -0.701552 0
M  V30 3537 H 330.208 -1.19679 -1.4757 0
M  V30 3538 H 328.358 -0.489806 -3.854 0
M  V30 3539 H 330.03 -3.06737 -3.44544 0
M  V30 3540 H 328.273 -2.93598 -3.19348 0
M  V30 3541 H 328.944 -2.70635 -4.81103 0
M  V30 3542 H 331.42 -0.934075 -4.0548 0
M  V30 3543 H 330.296 -0.795361 -5.43107 0
M  V30 3544 H 330.557 0.588834 -4.38161 0
M  V30 3545 N 329.616 1.39756 -0.72842 0
M  V30 3546 C 330.846 2.04651 -0.283117 0
M  V30 3547 C 331.254 1.5502 1.08469 0
M  V30 3548 O 330.597 0.707343 1.69536 0
M  V30 3549 C 330.659 3.58947 -0.199309 0
M  V30 3550 C 330.323 4.31525 -1.5045 0
M  V30 3551 C 331.32 4.5861 -2.44894 0
M  V30 3552 C 329.005 4.70195 -1.76698 0
M  V30 3553 C 330.999 5.23366 -3.63822 0
M  V30 3554 C 328.686 5.3468 -2.95906 0
M  V30 3555 C 329.684 5.61198 -3.89289 0
M  V30 3556 O 329.372 6.24347 -5.06404 0
M  V30 3557 H 329.104 0.664777 -0.122666 0
M  V30 3558 H 331.658 1.79913 -0.990987 0
M  V30 3559 H 329.888 3.82556 0.56461 0
M  V30 3560 H 331.577 4.0534 0.213125 0
M  V30 3561 H 332.343 4.29187 -2.25883 0
M  V30 3562 H 328.222 4.48916 -1.04859 0
M  V30 3563 H 331.766 5.4398 -4.36728 0
M  V30 3564 H 327.663 5.63524 -3.14819 0
M  V30 3565 H 328.431 6.42842 -5.06652 0
M  V30 3566 N 331.094 0.475555 1.50254 0
M  V30 3567 C 332.505 0.0215174 1.86688 0
M  V30 3568 C 332.856 -1.38467 1.39001 0
M  V30 3569 O 331.981 -2.02732 0.756894 0
M  V30 3570 C 332.576 0.0322715 3.38785 0
M  V30 3571 C 331.135 -0.366314 3.74613 0
M  V30 3572 C 330.282 0.415832 2.74164 0
M  V30 3573 H 333.233 0.689612 1.42934 0
M  V30 3574 H 333.254 -0.76889 3.7265 0
M  V30 3575 H 332.766 1.05584 3.73462 0
M  V30 3576 H 330.867 -1.39406 3.45538 0
M  V30 3577 H 330.98 -0.064555 4.79057 0
M  V30 3578 H 329.344 -0.131048 2.54363 0
M  V30 3579 H 330.127 1.43899 3.11686 0
M  V30 3580 N 332.573 -1.56217 0.208337 0
M  V30 3581 C 333.822 -1.97124 -0.427204 0
M  V30 3582 C 334.135 -1.09859 -1.61835 0
M  V30 3583 O 335.341 -1.40606 -2.32255 0
M  V30 3584 C 333.797 -3.50633 -0.811442 0
M  V30 3585 C 333.405 -4.46582 0.35615 0
M  V30 3586 C 335.149 -4.00282 -1.41332 0
M  V30 3587 C 333.056 -5.91379 -0.0497852 0
M  V30 3588 H 331.986 -0.736086 -0.163381 0
M  V30 3589 H 334.637 -1.8099 0.302456 0
M  V30 3590 H 333.019 -3.62319 -1.59815 0
M  V30 3591 H 334.193 -4.46636 1.1337 0
M  V30 3592 H 332.508 -4.07202 0.870396 0
M  V30 3593 H 335.105 -5.0595 -1.72972 0
M  V30 3594 H 335.448 -3.45359 -2.32449 0
M  V30 3595 H 335.981 -3.91764 -0.690323 0
M  V30 3596 H 332.72 -6.50255 0.827529 0
M  V30 3597 H 332.24 -5.94549 -0.791926 0
M  V30 3598 H 333.919 -6.45209 -0.481042 0
M  V30 3599 N 334.051 0.0651679 -1.57465 0
M  V30 3600 C 335.299 0.761555 -1.87202 0
M  V30 3601 C 335.62 1.77778 -0.801243 0
M  V30 3602 O 334.89 1.95166 0.16937 0
M  V30 3603 H 333.47 0.284251 -0.690804 0
M  V30 3604 H 336.132 0.0396827 -1.9486 0
M  V30 3605 H 335.228 1.27365 -2.84929 0
M  V30 3606 N 335.529 1.53961 0.336706 0
M  V30 3607 C 336.778 1.70751 1.07363 0
M  V30 3608 C 337.091 0.481061 1.89592 0
M  V30 3609 O 338.297 0.530046 2.66276 0
M  V30 3610 C 336.753 3.01965 1.95818 0
M  V30 3611 C 336.361 4.31971 1.18764 0
M  V30 3612 C 338.105 3.28121 2.69327 0
M  V30 3613 C 336.012 5.54255 2.06289 0
M  V30 3614 H 334.942 0.636292 0.404535 0
M  V30 3615 H 337.593 1.80459 0.332681 0
M  V30 3616 H 335.975 2.86132 2.7376 0
M  V30 3617 H 337.149 4.5853 0.456849 0
M  V30 3618 H 335.464 4.12481 0.569946 0
M  V30 3619 H 338.061 4.16673 3.35094 0
M  V30 3620 H 338.404 2.45426 3.36261 0
M  V30 3621 H 338.937 3.44762 1.98454 0
M  V30 3622 H 335.676 6.39513 1.43885 0
M  V30 3623 H 335.196 5.31935 2.77138 0
M  V30 3624 H 336.875 5.90159 2.65182 0
M  V30 3625 N 337.007 -0.598083 1.45811 0
M  V30 3626 C 337.917 -1.73632 1.57763 0
M  V30 3627 C 338.933 -1.67763 0.461676 0
M  V30 3628 O 340.109 -1.87949 0.723685 0
M  V30 3629 C 337.174 -3.10114 1.55018 0
M  V30 3630 C 336.235 -3.27364 2.77726 0
M  V30 3631 C 335.468 -4.57334 2.75102 0
M  V30 3632 O 335.691 -5.40258 1.8297 0
M  V30 3633 O 334.625 -4.77502 3.66437 0
M  V30 3634 H 338.451 -1.66498 2.53992 0
M  V30 3635 H 336.036 -0.763308 1.28429 0
M  V30 3636 H 337.918 -3.9141 1.56129 0
M  V30 3637 H 336.593 -3.17718 0.619431 0
M  V30 3638 H 335.5 -2.45619 2.82174 0
M  V30 3639 H 336.833 -3.24641 3.69958 0
M  V30 3640 N 338.485 -1.33259 -0.841409 0
M  V30 3641 C 339.896 -1.22066 -1.41269 0
M  V30 3642 C 340.247 0.161479 -1.95534 0
M  V30 3643 O 339.372 1.06094 -1.88608 0
M  V30 3644 C 339.967 -2.20996 -2.568 0
M  V30 3645 C 338.526 -2.13649 -3.09888 0
M  V30 3646 C 337.673 -2.08623 -1.82679 0
M  V30 3647 H 340.624 -1.44895 -0.647395 0
M  V30 3648 H 340.645 -1.81621 -3.34356 0
M  V30 3649 H 340.157 -3.2158 -2.17274 0
M  V30 3650 H 338.258 -1.16359 -3.53965 0
M  V30 3651 H 338.371 -3.04079 -3.70234 0
M  V30 3652 H 336.735 -1.54061 -2.02824 0
M  V30 3653 H 337.518 -3.1101 -1.45353 0
M  V30 3654 N 339.963 1.05934 -1.16686 0
M  V30 3655 C 340.91 2.13499 -0.876748 0
M  V30 3656 C 341.88 1.65162 0.176299 0
M  V30 3657 O 343.065 1.90757 0.0407143 0
M  V30 3658 C 340.205 3.42912 -0.387967 0
M  V30 3659 C 339.318 4.04964 -1.50426 0
M  V30 3660 C 338.453 5.22266 -0.970125 0
M  V30 3661 C 337.492 5.76309 -2.06238 0
M  V30 3662 N 336.629 6.84922 -1.54356 0
M  V30 3663 H 341.469 2.37654 -1.7979 0
M  V30 3664 H 339.006 1.16598 -0.896843 0
M  V30 3665 H 340.964 4.17111 -0.086186 0
M  V30 3666 H 339.594 3.18963 0.496235 0
M  V30 3667 H 338.646 3.28277 -1.92193 0
M  V30 3668 H 339.958 4.41122 -2.32836 0
M  V30 3669 H 339.112 6.03506 -0.621743 0
M  V30 3670 H 337.851 4.87564 -0.115377 0
M  V30 3671 H 336.856 4.93704 -2.41942 0
M  V30 3672 H 338.081 6.13062 -2.92115 0
M  V30 3673 H 336.027 6.52131 -0.711406 0
M  V30 3674 H 335.944 7.20043 -2.30379 0
M  V30 3675 H 337.212 7.69832 -1.22387 0
M  V30 3676 N 341.441 0.965919 1.2453 0
M  V30 3677 C 342.351 0.502154 2.29163 0
M  V30 3678 C 343.367 -0.436017 1.68448 0
M  V30 3679 O 344.543 -0.309497 1.99008 0
M  V30 3680 C 341.608 -0.201956 3.46111 0
M  V30 3681 C 340.669 0.775821 4.22232 0
M  V30 3682 C 339.902 0.105217 5.33596 0
M  V30 3683 O 340.125 -1.10683 5.59558 0
M  V30 3684 O 339.059 0.796475 5.96607 0
M  V30 3685 H 342.885 1.37194 2.70946 0
M  V30 3686 H 340.47 0.732875 1.30189 0
M  V30 3687 H 342.352 -0.597564 4.17142 0
M  V30 3688 H 341.027 -1.04673 3.06309 0
M  V30 3689 H 339.934 1.22185 3.53584 0
M  V30 3690 H 341.267 1.58896 4.65846 0
M  V30 3691 N 342.919 -1.39368 0.735821 0
M  V30 3692 C 344.168 -1.99733 0.281004 0
M  V30 3693 C 344.481 -1.59055 -1.13846 0
M  V30 3694 O 345.687 -2.12262 -1.69284 0
M  V30 3695 C 344.143 -3.57057 0.451462 0
M  V30 3696 C 343.751 -4.06697 1.87886 0
M  V30 3697 C 345.495 -4.2446 0.0584616 0
M  V30 3698 C 343.402 -5.56598 1.99883 0
M  V30 3699 H 342.332 -0.747163 0.101311 0
M  V30 3700 H 344.983 -1.59357 0.909819 0
M  V30 3701 H 343.365 -3.95234 -0.246263 0
M  V30 3702 H 344.539 -3.79853 2.60861 0
M  V30 3703 H 342.854 -3.5196 2.22515 0
M  V30 3704 H 345.451 -5.34549 0.127099 0
M  V30 3705 H 345.794 -4.04444 -0.986433 0
M  V30 3706 H 346.327 -3.9146 0.707374 0
M  V30 3707 H 343.066 -5.81494 3.02564 0
M  V30 3708 H 342.586 -5.85242 1.31346 0
M  V30 3709 H 344.265 -6.22022 1.78039 0
M  V30 3710 N 344.397 -0.483516 -1.5 0
M  V30 3711 C 345.36 0.292965 -2.2732 0
M  V30 3712 C 346.36 0.909499 -1.32608 0
M  V30 3713 O 347.55 0.776745 -1.55924 0
M  V30 3714 C 344.682 1.41854 -3.09984 0
M  V30 3715 H 345.875 -0.385289 -2.97415 0
M  V30 3716 H 343.428 -0.237942 -1.54478 0
M  V30 3717 H 344.163 2.13148 -2.44414 0
M  V30 3718 H 343.948 0.982114 -3.79601 0
M  V30 3719 H 345.438 1.96597 -3.68429 0
M  V30 3720 N 345.875 1.56104 -0.216619 0
M  V30 3721 C 346.822 2.2007 0.695531 0
M  V30 3722 C 347.792 1.15471 1.19397 0
M  V30 3723 O 348.977 1.43807 1.25396 0
M  V30 3724 C 346.117 2.88073 1.90021 0
M  V30 3725 C 345.23 4.07253 1.44113 0
M  V30 3726 C 344.365 4.63052 2.603 0
M  V30 3727 C 343.404 5.74545 2.11103 0
M  V30 3728 N 342.541 6.24656 3.20545 0
M  V30 3729 H 347.381 2.97655 0.143327 0
M  V30 3730 H 344.918 1.46982 0.0589934 0
M  V30 3731 H 346.876 3.25681 2.60745 0
M  V30 3732 H 345.506 2.13015 2.42538 0
M  V30 3733 H 344.558 3.75164 0.628999 0
M  V30 3734 H 345.87 4.8783 1.04036 0
M  V30 3735 H 345.024 5.03078 3.39113 0
M  V30 3736 H 343.763 3.81628 3.03663 0
M  V30 3737 H 342.768 5.34027 1.3075 0
M  V30 3738 H 343.993 6.57801 1.68746 0
M  V30 3739 H 341.939 5.46148 3.63399 0
M  V30 3740 H 341.856 7.00343 2.84704 0
M  V30 3741 H 343.124 6.69338 3.99508 0
M  V30 3742 N 347.353 -0.0568162 1.57498 0
M  V30 3743 C 348.285 -1.09292 2.01464 0
M  V30 3744 C 349.298 -1.34112 0.922913 0
M  V30 3745 O 350.487 -1.32089 1.20062 0
M  V30 3746 C 347.587 -2.44068 2.35125 0
M  V30 3747 C 346.76 -2.38995 3.66333 0
M  V30 3748 C 345.819 -3.55997 3.87495 0
M  V30 3749 O 344.845 -3.36746 4.58901 0
M  V30 3750 N 346.047 -4.76888 3.30996 0
M  V30 3751 H 348.812 -0.718386 2.90963 0
M  V30 3752 H 346.373 -0.245235 1.60032 0
M  V30 3753 H 348.365 -3.21011 2.46443 0
M  V30 3754 H 346.935 -2.73468 1.5144 0
M  V30 3755 H 346.155 -1.47336 3.65631 0
M  V30 3756 H 347.443 -2.3272 4.52458 0
M  V30 3757 H 346.841 -4.95431 2.73065 0
M  V30 3758 H 345.398 -5.51291 3.47738 0
M  V30 3759 N 348.832 -1.54138 -0.328536 0
M  V30 3760 C 349.795 -1.82462 -1.38709 0
M  V30 3761 C 350.795 -0.696229 -1.44946 0
M  V30 3762 O 351.985 -0.964535 -1.4506 0
M  V30 3763 C 349.117 -1.98018 -2.77492 0
M  V30 3764 H 350.31 -2.77037 -1.14851 0
M  V30 3765 H 347.863 -1.45779 -0.563751 0
M  V30 3766 H 348.598 -1.05637 -3.06613 0
M  V30 3767 H 348.383 -2.80124 -2.74359 0
M  V30 3768 H 349.873 -2.21396 -3.54081 0
M  V30 3769 N 350.31 0.590341 -1.46126 0
M  V30 3770 C 351.273 1.68194 -1.55703 0
M  V30 3771 C 352.273 1.54808 -0.434868 0
M  V30 3772 O 353.463 1.59564 -0.698928 0
M  V30 3773 C 350.595 3.07575 -1.47005 0
M  V30 3774 H 351.788 1.61064 -2.52979 0
M  V30 3775 H 349.341 0.807541 -1.33823 0
M  V30 3776 H 350.076 3.20268 -0.509785 0
M  V30 3777 H 349.861 3.187 -2.28414 0
M  V30 3778 H 351.351 3.87055 -1.56776 0
M  V30 3779 N 351.788 1.33704 0.83433 0
M  V30 3780 C 353.036 1.25169 1.58673 0
M  V30 3781 C 353.357 -0.18127 1.94156 0
M  V30 3782 O 352.627 -1.11113 1.6134 0
M  V30 3783 H 351.207 0.4603 0.58833 0
M  V30 3784 H 353.869 1.67478 0.996847 0
M  V30 3785 H 352.965 1.84856 2.51465 0
M  V30 3786 N 353.266 -1.05314 1.17247 0
M  V30 3787 C 354.677 -1.59753 0.96623 0
M  V30 3788 C 355.028 -1.9005 -0.487378 0
M  V30 3789 O 354.153 -1.68126 -1.36245 0
M  V30 3790 C 354.748 -2.90249 1.74759 0
M  V30 3791 C 353.307 -3.41352 1.58606 0
M  V30 3792 C 352.454 -2.15103 1.75002 0
M  V30 3793 H 355.405 -0.881406 1.31973 0
M  V30 3794 H 355.426 -3.60097 1.22925 0
M  V30 3795 H 354.938 -2.68166 2.8055 0
M  V30 3796 H 353.039 -3.68474 0.552985 0
M  V30 3797 H 353.152 -4.16019 2.37624 0
M  V30 3798 H 351.516 -2.25804 1.17833 0
M  V30 3799 H 352.299 -1.95491 2.82202 0
M  V30 3800 N 354.744 -0.972509 -1.24016 0
M  V30 3801 C 355.674 -0.525548 -2.27509 0
M  V30 3802 C 356.655 0.437262 -1.64384 0
M  V30 3803 O 357.84 0.332343 -1.91335 0
M  V30 3804 C 354.97 0.180448 -3.46831 0
M  V30 3805 C 353.924 -0.698859 -4.22256 0
M  V30 3806 C 353.25 0.138903 -5.3452 0
M  V30 3807 C 354.55 -1.98582 -4.83076 0
M  V30 3808 H 356.244 -1.39058 -2.65148 0
M  V30 3809 H 353.79 -0.67009 -1.27459 0
M  V30 3810 H 355.743 0.504387 -4.18371 0
M  V30 3811 H 354.467 1.07987 -3.08231 0
M  V30 3812 H 353.126 -1.00614 -3.52523 0
M  V30 3813 H 352.774 1.03862 -4.9216 0
M  V30 3814 H 352.474 -0.446259 -5.85903 0
M  V30 3815 H 353.998 0.457404 -6.08884 0
M  V30 3816 H 355.412 -1.72715 -5.46665 0
M  V30 3817 H 353.809 -2.5181 -5.44713 0
M  V30 3818 H 354.879 -2.67769 -4.04262 0
M  V30 3819 N 356.222 1.38976 -0.743202 0
M  V30 3820 C 357.633 1.83123 -0.363732 0
M  V30 3821 C 357.984 1.6205 1.10609 0
M  V30 3822 O 357.109 1.11606 1.854 0
M  V30 3823 C 357.704 3.32439 -0.653408 0
M  V30 3824 C 356.263 3.74974 -0.327338 0
M  V30 3825 C 355.41 2.61878 -0.911875 0
M  V30 3826 H 358.361 1.27852 -0.940191 0
M  V30 3827 H 358.382 3.80432 0.0720031 0
M  V30 3828 H 357.894 3.47745 -1.72323 0
M  V30 3829 H 355.995 3.65252 0.736314 0
M  V30 3830 H 356.108 4.72106 -0.815631 0
M  V30 3831 H 354.472 2.52448 -0.337944 0
M  V30 3832 H 355.255 2.79987 -1.98651 0
M  V30 3833 N 357.7 0.491464 1.49741 0
M  V30 3834 C 359.111 0.0413169 1.86654 0
M  V30 3835 C 359.462 -1.36985 1.40462 0
M  V30 3836 O 358.587 -2.01917 0.778354 0
M  V30 3837 C 359.182 0.0682023 3.38731 0
M  V30 3838 C 357.741 -0.32656 3.74981 0
M  V30 3839 C 356.888 0.444888 2.73708 0
M  V30 3840 H 359.839 0.704733 1.42194 0
M  V30 3841 H 359.86 -0.729322 3.73445 0
M  V30 3842 H 359.372 1.09539 3.72321 0
M  V30 3843 H 357.473 -1.35734 3.46997 0
M  V30 3844 H 357.586 -0.013741 4.79098 0
M  V30 3845 H 355.95 -0.104062 2.54487 0
M  V30 3846 H 356.733 1.47197 3.10142 0
M  V30 3847 N 359.178 -1.55987 0.224894 0
M  V30 3848 C 360.125 -2.20436 -0.68385 0
M  V30 3849 C 361.095 -1.16102 -1.18783 0
M  V30 3850 O 362.28 -1.4447 -1.24632 0
M  V30 3851 C 359.42 -2.89076 -1.88491 0
M  V30 3852 C 358.533 -4.08012 -1.41951 0
M  V30 3853 C 357.668 -4.64426 -2.5784 0
M  V30 3854 C 356.707 -5.75656 -2.08053 0
M  V30 3855 N 355.844 -6.26347 -3.17227 0
M  V30 3856 H 360.684 -2.97727 -0.12754 0
M  V30 3857 H 358.221 -1.47011 -0.0511978 0
M  V30 3858 H 360.179 -3.27059 -2.59014 0
M  V30 3859 H 358.809 -2.14298 -2.41405 0
M  V30 3860 H 357.861 -3.75492 -0.609095 0
M  V30 3861 H 359.173 -4.88375 -1.01447 0
M  V30 3862 H 358.327 -5.04869 -3.3644 0
M  V30 3863 H 357.066 -3.83233 -3.01635 0
M  V30 3864 H 356.071 -5.34712 -1.27916 0
M  V30 3865 H 357.296 -6.58686 -1.65255 0
M  V30 3866 H 355.242 -5.48067 -3.60497 0
M  V30 3867 H 355.159 -7.01843 -2.80986 0
M  V30 3868 H 356.427 -6.71447 -3.95953 0
M  V30 3869 N 360.656 0.0484629 -1.57525 0
M  V30 3870 C 361.586 1.0549 -2.08313 0
M  V30 3871 C 362.567 1.38929 -0.981463 0
M  V30 3872 O 363.752 1.48151 -1.25558 0
M  V30 3873 C 360.882 2.36162 -2.54646 0
M  V30 3874 C 359.836 2.17016 -3.68901 0
M  V30 3875 C 359.162 3.53278 -4.01371 0
M  V30 3876 C 360.462 1.57219 -4.98076 0
M  V30 3877 H 362.156 0.632195 -2.92649 0
M  V30 3878 H 359.702 0.302654 -1.40784 0
M  V30 3879 H 361.655 3.06882 -2.88793 0
M  V30 3880 H 360.379 2.80456 -1.67368 0
M  V30 3881 H 359.038 1.48733 -3.35073 0
M  V30 3882 H 358.686 3.95185 -3.11188 0
M  V30 3883 H 358.386 3.41299 -4.78318 0
M  V30 3884 H 359.91 4.25391 -4.38035 0
M  V30 3885 H 361.324 2.17832 -5.30304 0
M  V30 3886 H 359.721 1.55871 -5.79503 0
M  V30 3887 H 360.791 0.535956 -4.81929 0
M  V30 3888 N 362.134 1.5431 0.320358 0
M  V30 3889 C 363.097 1.83195 1.3774 0
M  V30 3890 C 364.097 0.703906 1.44575 0
M  V30 3891 O 365.287 0.972214 1.44546 0
M  V30 3892 C 362.419 1.99487 2.76438 0
M  V30 3893 H 363.612 2.77642 1.1338 0
M  V30 3894 H 361.165 1.46076 0.556012 0
M  V30 3895 H 361.9 1.07262 3.06048 0
M  V30 3896 H 361.685 2.81575 2.7287 0
M  V30 3897 H 363.175 2.23271 3.52902 0
M  V30 3898 N 363.613 -0.582584 1.46437 0
M  V30 3899 C 364.545 -1.70618 1.53043 0
M  V30 3900 C 365.558 -1.57322 0.418769 0
M  V30 3901 O 366.747 -1.64744 0.687136 0
M  V30 3902 C 363.847 -3.08869 1.39474 0
M  V30 3903 C 363.02 -3.48166 2.64762 0
M  V30 3904 C 362.079 -4.65478 2.4539 0
M  V30 3905 O 361.105 -4.71333 3.19114 0
M  V30 3906 N 362.307 -5.60365 1.51564 0
M  V30 3907 H 365.072 -1.65405 2.49923 0
M  V30 3908 H 362.633 -0.768567 1.42494 0
M  V30 3909 H 364.625 -3.85143 1.24287 0
M  V30 3910 H 363.195 -3.08449 0.507758 0
M  V30 3911 H 362.415 -2.61598 2.9489 0
M  V30 3912 H 363.703 -3.71188 3.4799 0
M  V30 3913 H 363.101 -5.5837 0.907705 0
M  V30 3914 H 361.658 -6.36068 1.4234 0
M  V30 3915 N 365.091 -1.34144 -0.827227 0
M  V30 3916 C 366.021 -1.28005 -1.95287 0
M  V30 3917 C 367.002 -0.158321 -1.69362 0
M  V30 3918 O 368.187 -0.349987 -1.9102 0
M  V30 3919 C 365.317 -1.03036 -3.31664 0
M  V30 3920 C 364.271 -2.11628 -3.72019 0
M  V30 3921 C 363.597 -1.71854 -5.0633 0
M  V30 3922 C 364.897 -3.53417 -3.8457 0
M  V30 3923 H 366.591 -2.22187 -2.00682 0
M  V30 3924 H 364.137 -1.0696 -0.964135 0
M  V30 3925 H 366.09 -0.973863 -4.09993 0
M  V30 3926 H 364.814 -0.0529391 -3.26557 0
M  V30 3927 H 363.473 -2.16339 -2.95961 0
M  V30 3928 H 363.121 -0.727841 -4.97706 0
M  V30 3929 H 362.821 -2.44531 -5.34302 0
M  V30 3930 H 364.345 -1.67692 -5.87122 0
M  V30 3931 H 365.759 -3.51142 -4.5318 0
M  V30 3932 H 364.156 -4.24679 -4.2399 0
M  V30 3933 H 365.226 -3.91072 -2.86689 0
M  V30 3934 N 366.569 1.04691 -1.17803 0
M  V30 3935 C 367.516 2.12557 -0.899343 0
M  V30 3936 C 368.486 1.65339 0.158771 0
M  V30 3937 O 369.671 1.90789 0.0204797 0
M  V30 3938 C 366.811 3.42481 -0.424315 0
M  V30 3939 C 365.924 4.03346 -1.54713 0
M  V30 3940 C 365.059 5.21208 -1.02546 0
M  V30 3941 C 364.098 5.74089 -2.12339 0
M  V30 3942 N 363.235 6.83247 -1.61612 0
M  V30 3943 H 368.075 2.35734 -1.823 0
M  V30 3944 H 365.612 1.1564 -0.909159 0
M  V30 3945 H 367.57 4.16996 -0.130421 0
M  V30 3946 H 366.2 3.19471 0.462377 0
M  V30 3947 H 365.252 3.2622 -1.95664 0
M  V30 3948 H 366.564 4.38628 -2.37501 0
M  V30 3949 H 365.718 6.02812 -0.685718 0
M  V30 3950 H 364.457 4.87414 -0.167084 0
M  V30 3951 H 363.462 4.91111 -2.47165 0
M  V30 3952 H 364.687 6.0993 -2.98601 0
M  V30 3953 H 362.633 6.5134 -0.780533 0
M  V30 3954 H 362.55 7.17559 -2.38003 0
M  V30 3955 H 363.818 7.68491 -1.30545 0
M  V30 3956 N 368.047 0.979072 1.23499 0
M  V30 3957 C 369.01 0.523244 2.23147 0
M  V30 3958 C 370.01 -0.386406 1.56088 0
M  V30 3959 O 371.2 -0.180283 1.73265 0
M  V30 3960 C 368.332 -0.240739 3.40049 0
M  V30 3961 H 369.525 1.40432 2.64989 0
M  V30 3962 H 367.078 0.764824 1.36309 0
M  V30 3963 H 367.813 -1.13841 3.03662 0
M  V30 3964 H 367.598 0.412207 3.89927 0
M  V30 3965 H 369.088 -0.548297 4.13985 0
M  V30 3966 N 369.525 -1.3858 0.750561 0
M  V30 3967 C 370.435 -2.34278 0.122825 0
M  V30 3968 C 371.451 -1.59116 -0.704131 0
M  V30 3969 O 372.627 -1.91326 -0.628987 0
M  V30 3970 C 369.692 -3.38221 -0.762086 0
M  V30 3971 C 368.753 -4.29227 0.078896 0
M  V30 3972 C 367.986 -5.28205 -0.763874 0
M  V30 3973 O 368.209 -5.34112 -2.00201 0
M  V30 3974 O 367.143 -6.01618 -0.18428 0
M  V30 3975 H 370.969 -2.89649 0.913088 0
M  V30 3976 H 368.554 -1.40374 0.511417 0
M  V30 3977 H 370.436 -4.01872 -1.26793 0
M  V30 3978 H 369.111 -2.85211 -1.5309 0
M  V30 3979 H 368.018 -3.68747 0.630621 0
M  V30 3980 H 369.351 -4.85484 0.810289 0
M  V30 3981 N 371.003 -0.499398 -1.49478 0
M  V30 3982 C 371.933 0.269244 -2.31943 0
M  V30 3983 C 372.914 0.964054 -1.40143 0
M  V30 3984 O 374.099 0.955767 -1.69052 0
M  V30 3985 C 371.229 1.33504 -3.20615 0
M  V30 3986 C 370.183 0.760202 -4.21195 0
M  V30 3987 C 369.509 1.9264 -4.98792 0
M  V30 3988 C 370.809 -0.247661 -5.21712 0
M  V30 3989 H 372.503 -0.419082 -2.96452 0
M  V30 3990 H 370.049 -0.202988 -1.42562 0
M  V30 3991 H 372.002 1.88048 -3.77115 0
M  V30 3992 H 370.726 2.05253 -2.54045 0
M  V30 3993 H 369.385 0.23653 -3.65836 0
M  V30 3994 H 369.033 2.63154 -4.28671 0
M  V30 3995 H 368.733 1.54785 -5.66847 0
M  V30 3996 H 370.257 2.4762 -5.58137 0
M  V30 3997 H 371.671 0.209579 -5.72917 0
M  V30 3998 H 370.068 -0.541962 -5.97648 0
M  V30 3999 H 371.138 -1.16409 -4.7072 0
M  V30 4000 N 372.481 1.55866 -0.233164 0
M  V30 4001 C 373.428 2.20796 0.67215 0
M  V30 4002 C 374.398 1.16731 1.18166 0
M  V30 4003 O 375.583 1.45129 1.23864 0
M  V30 4004 C 372.723 2.90072 1.86955 0
M  V30 4005 C 371.836 4.08759 1.39786 0
M  V30 4006 C 370.971 4.65787 2.55374 0
M  V30 4007 C 370.01 5.76752 2.04998 0
M  V30 4008 N 369.147 6.28021 3.13901 0
M  V30 4009 H 373.987 2.9779 0.111749 0
M  V30 4010 H 371.524 1.47036 0.0434007 0
M  V30 4011 H 373.482 3.28428 2.57276 0
M  V30 4012 H 372.112 2.15575 2.40265 0
M  V30 4013 H 371.164 3.7581 0.589173 0
M  V30 4014 H 372.476 4.88906 0.98856 0
M  V30 4015 H 371.63 5.06646 3.33758 0
M  V30 4016 H 370.369 3.84828 2.99598 0
M  V30 4017 H 369.374 5.35383 1.25079 0
M  V30 4018 H 370.599 6.59553 1.61759 0
M  V30 4019 H 368.545 5.49971 3.57586 0
M  V30 4020 H 368.462 7.03323 2.7726 0
M  V30 4021 H 369.73 6.73538 3.92386 0
M  V30 4022 N 373.959 -0.0401083 1.57549 0
M  V30 4023 C 374.907 -1.06264 2.06908 0
M  V30 4024 C 375.901 -1.38132 0.980608 0
M  V30 4025 O 377.107 -1.37167 1.16556 0
M  V30 4026 H 373.482 -0.360166 0.660139 0
M  V30 4027 H 375.453 -0.620445 2.91878 0
M  V30 4028 C 374.202 -2.35846 2.55483 0
M  V30 4029 H 373.525 -2.12183 3.38849 0
M  V30 4030 H 374.965 -3.05765 2.93741 0
M  V30 4031 C 373.424 -3.0404 1.45126 0
M  V30 4032 O 373.954 -3.93424 0.811216 0
M  V30 4033 N 372.16 -2.65184 1.18852 0
M  V30 4034 H 371.707 -1.92584 1.71083 0
M  V30 4035 H 371.665 -3.1113 0.452244 0
M  V30 4036 N 375.437 -1.54477 -0.31217 0
M  V30 4037 C 376.683 -1.73483 -1.0503 0
M  V30 4038 C 377.016 -0.513125 -1.87298 0
M  V30 4039 O 376.291 0.489864 -1.8823 0
M  V30 4040 C 376.574 -3.01723 -1.96558 0
M  V30 4041 C 376.427 -4.3417 -1.17545 0
M  V30 4042 C 377.746 -3.25772 -2.95907 0
M  V30 4043 H 374.865 -0.631222 -0.380432 0
M  V30 4044 H 377.507 -1.87184 -0.325932 0
M  V30 4045 H 375.657 -2.90174 -2.58324 0
M  V30 4046 H 377.329 -4.5762 -0.581513 0
M  V30 4047 H 375.572 -4.31159 -0.477925 0
M  V30 4048 H 376.243 -5.20143 -1.84811 0
M  V30 4049 H 378.719 -3.36857 -2.44267 0
M  V30 4050 H 377.595 -4.16838 -3.57123 0
M  V30 4051 H 377.856 -2.43537 -3.68974 0
M  V30 4052 N 376.915 0.57481 -1.46744 0
M  V30 4053 C 377.847 1.69804 -1.53946 0
M  V30 4054 C 378.86 1.57098 -0.427106 0
M  V30 4055 O 380.049 1.64378 -0.695863 0
M  V30 4056 C 377.149 3.08125 -1.4111 0
M  V30 4057 C 376.322 3.46757 -2.66605 0
M  V30 4058 C 375.381 4.6417 -2.47855 0
M  V30 4059 O 374.407 4.69634 -3.21609 0
M  V30 4060 N 375.609 5.59553 -1.54534 0
M  V30 4061 H 378.374 1.64077 -2.50796 0
M  V30 4062 H 375.935 0.761 -1.429 0
M  V30 4063 H 377.927 3.84478 -1.26328 0
M  V30 4064 H 376.497 3.08175 -0.524109 0
M  V30 4065 H 375.717 2.6003 -2.96274 0
M  V30 4066 H 377.005 3.69337 -3.49954 0
M  V30 4067 H 376.403 5.57881 -0.937304 0
M  V30 4068 H 374.96 6.35304 -1.45711 0
M  V30 4069 N 378.394 1.34581 0.820102 0
M  V30 4070 C 379.342 1.26401 1.95258 0
M  V30 4071 C 380.336 0.161553 1.68628 0
M  V30 4072 O 381.542 0.326703 1.7701 0
M  V30 4073 H 377.917 0.392749 0.64129 0
M  V30 4074 H 379.888 2.22105 1.99279 0
M  V30 4075 C 378.637 1.03919 3.31807 0
M  V30 4076 H 377.96 1.87984 3.52848 0
M  V30 4077 H 379.4 1.02232 4.11491 0
M  V30 4078 C 377.859 -0.257433 3.35915 0
M  V30 4079 O 378.389 -1.25784 3.81499 0
M  V30 4080 N 376.595 -0.291524 2.89134 0
M  V30 4081 H 376.142 0.523161 2.52232 0
M  V30 4082 H 376.1 -1.15883 2.92264 0
M  V30 4083 N 379.872 -1.04064 1.18357 0
M  V30 4084 C 381.121 -1.76662 0.973313 0
M  V30 4085 C 381.434 -1.89154 -0.497991 0
M  V30 4086 O 382.64 -2.58606 -0.826762 0
M  V30 4087 C 381.096 -3.17624 1.69242 0
M  V30 4088 C 380.704 -3.13225 3.20303 0
M  V30 4089 C 382.448 -3.946 1.56497 0
M  V30 4090 C 380.355 -4.49046 3.84853 0
M  V30 4091 H 379.285 -0.662214 0.36054 0
M  V30 4092 H 381.936 -1.16553 1.41731 0
M  V30 4093 H 380.318 -3.78129 1.1762 0
M  V30 4094 H 381.492 -2.62172 3.78949 0
M  V30 4095 H 379.807 -2.49749 3.33189 0
M  V30 4096 H 382.404 -4.95042 2.02084 0
M  V30 4097 H 382.747 -4.13074 0.517243 0
M  V30 4098 H 383.28 -3.4067 2.05399 0
M  V30 4099 H 380.019 -4.35777 4.89672 0
M  V30 4100 H 379.539 -5.00203 3.30994 0
M  V30 4101 H 381.218 -5.17961 3.87718 0
M  V30 4102 N 381.35 -0.985608 -1.22978 0
M  V30 4103 C 382.597 -0.657386 -1.91532 0
M  V30 4104 C 382.925 0.809707 -1.76845 0
M  V30 4105 O 382.18 1.60021 -1.12658 0
M  V30 4106 C 382.479 -1.00014 -3.43121 0
M  V30 4107 C 382.145 -2.4583 -3.77993 0
M  V30 4108 C 380.807 -2.85679 -3.87222 0
M  V30 4109 C 383.159 -3.40378 -3.94705 0
M  V30 4110 C 380.487 -4.19081 -4.10595 0
M  V30 4111 C 382.839 -4.73429 -4.1958 0
M  V30 4112 C 381.503 -5.1303 -4.27032 0
M  V30 4113 H 380.773 -0.240555 -0.700867 0
M  V30 4114 H 383.42 -1.24044 -1.45895 0
M  V30 4115 H 381.725 -0.335072 -3.90365 0
M  V30 4116 H 383.422 -0.724322 -3.94404 0
M  V30 4117 H 380.012 -2.13939 -3.71387 0
M  V30 4118 H 384.196 -3.10766 -3.8696 0
M  V30 4119 H 379.452 -4.49362 -4.14589 0
M  V30 4120 H 383.626 -5.46644 -4.31455 0
M  V30 4121 H 381.253 -6.16418 -4.44896 0
M  V30 4122 N 382.828 1.3818 -0.7579 0
M  V30 4123 C 384.053 2.04827 -0.325679 0
M  V30 4124 C 384.478 1.56788 1.03919 0
M  V30 4125 O 383.836 0.721811 1.66312 0
M  V30 4126 C 383.884 3.58774 -0.362447 0
M  V30 4127 O 382.988 4.07372 0.642033 0
M  V30 4128 H 382.329 0.64833 -0.143402 0
M  V30 4129 H 384.859 1.7677 -1.03023 0
M  V30 4130 H 384.869 4.07434 -0.214844 0
M  V30 4131 H 383.544 3.93096 -1.35824 0
M  V30 4132 H 382.121 3.70068 0.458688 0
M  V30 4133 N 384.306 0.507319 1.49211 0
M  V30 4134 C 385.552 -0.0350047 2.0277 0
M  V30 4135 C 385.885 -1.3606 1.38569 0
M  V30 4136 O 385.16 -1.87321 0.523542 0
M  V30 4137 C 385.443 -0.180916 3.59645 0
M  V30 4138 C 385.296 1.16825 4.34364 0
M  V30 4139 C 386.615 -0.918558 4.30407 0
M  V30 4140 H 383.734 -0.0112473 0.736914 0
M  V30 4141 H 386.376 0.659956 1.7817 0
M  V30 4142 H 384.526 -0.772826 3.80736 0
M  V30 4143 H 386.198 1.79952 4.24753 0
M  V30 4144 H 384.441 1.75594 3.96673 0
M  V30 4145 H 385.112 1.01939 5.42506 0
M  V30 4146 H 387.588 -0.41649 4.1401 0
M  V30 4147 H 386.464 -0.989505 5.39907 0
M  V30 4148 H 386.725 -1.96373 3.96093 0
M  V30 4149 N 385.784 -1.5574 0.241426 0
M  V30 4150 C 386.694 -2.2479 -0.671305 0
M  V30 4151 C 387.71 -1.26217 -1.19772 0
M  V30 4152 O 388.886 -1.59079 -1.23514 0
M  V30 4153 C 385.951 -2.92966 -1.85396 0
M  V30 4154 C 385.012 -4.06935 -1.36756 0
M  V30 4155 C 384.245 -4.71851 -2.49384 0
M  V30 4156 O 384.468 -4.35823 -3.67987 0
M  V30 4157 O 383.402 -5.60467 -2.19454 0
M  V30 4158 H 387.228 -3.0349 -0.112966 0
M  V30 4159 H 384.813 -1.49397 0.0101513 0
M  V30 4160 H 386.695 -3.35927 -2.54423 0
M  V30 4161 H 385.37 -2.17211 -2.40002 0
M  V30 4162 H 384.277 -3.68503 -0.644726 0
M  V30 4163 H 385.61 -4.84492 -0.867647 0
M  V30 4164 N 387.262 0.0317525 -1.57568 0
M  V30 4165 C 388.678 0.38735 -1.54828 0
M  V30 4166 C 388.878 1.7677 -0.967187 0
M  V30 4167 O 387.934 2.45581 -0.587063 0
M  V30 4168 C 389.247 0.291667 -2.99282 0
M  V30 4169 C 390.795 0.368946 -3.10818 0
M  V30 4170 C 391.27 0.302741 -4.56998 0
M  V30 4171 N 392.761 0.361617 -4.61786 0
M  V30 4172 C 393.496 0.333238 -5.72431 0
M  V30 4173 N 392.992 0.257308 -6.92322 0
M  V30 4174 N 394.785 0.382769 -5.60795 0
M  V30 4175 H 386.936 -0.871609 -1.93692 0
M  V30 4176 H 389.199 -0.331161 -0.888277 0
M  V30 4177 H 388.905 -0.656794 -3.45513 0
M  V30 4178 H 388.779 1.08638 -3.61217 0
M  V30 4179 H 391.166 1.30784 -2.64536 0
M  V30 4180 H 391.247 -0.455066 -2.5172 0
M  V30 4181 H 390.891 -0.632473 -5.03947 0
M  V30 4182 H 390.821 1.14482 -5.14005 0
M  V30 4183 H 393.312 0.422923 -3.75526 0
M  V30 4184 H 393.625 0.24068 -7.72425 0
M  V30 4185 H 391.97 0.223396 -6.94641 0
M  V30 4186 H 395.161 0.44006 -4.66027 0
M  V30 4187 H 395.334 0.357184 -6.47015 0
M  V30 4188 N 388.74 1.54641 0.303973 0
M  V30 4189 C 389.67 1.88386 1.3796 0
M  V30 4190 C 390.651 0.742485 1.5304 0
M  V30 4191 O 391.836 0.997959 1.66597 0
M  V30 4192 C 388.966 2.12854 2.74427 0
M  V30 4193 C 387.92 3.28702 2.74115 0
M  V30 4194 C 387.246 3.38582 4.13844 0
M  V30 4195 C 388.546 4.65881 2.3612 0
M  V30 4196 H 390.24 2.78474 1.09966 0
M  V30 4197 H 387.786 1.33988 0.527556 0
M  V30 4198 H 389.739 2.35047 3.49758 0
M  V30 4199 H 388.463 1.19535 3.03939 0
M  V30 4200 H 387.122 3.06428 2.0124 0
M  V30 4201 H 386.77 2.42784 4.40528 0
M  V30 4202 H 386.47 4.16453 4.14537 0
M  V30 4203 H 387.994 3.63031 4.90959 0
M  V30 4204 H 389.408 4.87823 3.01167 0
M  V30 4205 H 387.805 5.46444 2.48031 0
M  V30 4206 H 388.875 4.66799 1.3125 0
M  V30 4207 N 390.218 -0.567019 1.47046 0
M  V30 4208 C 391.495 -1.3276 1.43646 0
M  V30 4209 C 391.875 -2.1071 0.128186 0
M  V30 4210 O 391.223 -2.10441 -0.890326 0
M  V30 4211 C 391.433 -2.2404 2.67595 0
M  V30 4212 C 392.781 -2.85372 3.14401 0
M  V30 4213 O 393.805 -2.34346 2.68254 0
M  V30 4214 O 392.664 -3.78091 3.946 0
M  V30 4215 H 389.758 -0.597293 0.571988 0
M  V30 4216 H 392.304 -0.586735 1.59234 0
M  V30 4217 H 391.076 -1.65975 3.54356 0
M  V30 4218 H 390.699 -3.05439 2.54544 0
M  V30 4219 N 391.696 -1.35014 -0.812953 0
M  V30 4220 C 392.926 -1.30841 -1.59888 0
M  V30 4221 C 393.334 0.117576 -1.88834 0
M  V30 4222 O 392.677 1.07807 -1.48739 0
M  V30 4223 C 392.739 -2.0412 -2.95931 0
M  V30 4224 C 392.403 -3.53336 -2.89832 0
M  V30 4225 C 393.4 -4.48052 -2.63714 0
M  V30 4226 C 391.085 -3.95894 -3.0915 0
M  V30 4227 C 393.079 -5.833 -2.56982 0
M  V30 4228 C 390.766 -5.31239 -3.0204 0
M  V30 4229 C 391.764 -6.24754 -2.75991 0
M  V30 4230 O 391.452 -7.57617 -2.68833 0
M  V30 4231 H 391.184 -0.451215 -0.50337 0
M  V30 4232 H 393.738 -1.78354 -1.01877 0
M  V30 4233 H 391.968 -1.51235 -3.559 0
M  V30 4234 H 393.657 -1.93107 -3.57022 0
M  V30 4235 H 394.423 -4.16492 -2.48515 0
M  V30 4236 H 390.302 -3.23495 -3.28438 0
M  V30 4237 H 393.846 -6.56263 -2.36569 0
M  V30 4238 H 389.743 -5.62415 -3.16796 0
M  V30 4239 H 390.511 -7.67469 -2.84487 0
M  V30 4240 N 393.175 1.03435 -1.18907 0
M  V30 4241 C 394.4 1.80919 -1.01406 0
M  V30 4242 C 394.825 1.83055 0.432721 0
M  V30 4243 O 394.183 1.25252 1.31079 0
M  V30 4244 C 394.231 3.24091 -1.58105 0
M  V30 4245 O 393.335 4.04434 -0.806669 0
M  V30 4246 H 392.676 0.558709 -0.358803 0
M  V30 4247 H 395.206 1.30223 -1.57807 0
M  V30 4248 H 395.216 3.74853 -1.61087 0
M  V30 4249 H 393.891 3.21851 -2.6341 0
M  V30 4250 H 392.468 3.63091 -0.849666 0
M  V30 4251 N 394.653 0.992116 1.22453 0
M  V30 4252 C 395.6 0.541731 2.24352 0
M  V30 4253 C 396.57 -0.425519 1.60557 0
M  V30 4254 O 397.755 -0.330453 1.87917 0
M  V30 4255 C 394.895 -0.138248 3.44823 0
M  V30 4256 C 394.008 0.870649 4.23136 0
M  V30 4257 C 393.143 0.164269 5.30946 0
M  V30 4258 C 392.182 1.16159 6.00977 0
M  V30 4259 N 391.319 0.483568 7.00433 0
M  V30 4260 H 396.159 1.41541 2.62241 0
M  V30 4261 H 393.696 0.709013 1.28885 0
M  V30 4262 H 395.654 -0.5494 4.13567 0
M  V30 4263 H 394.284 -0.975721 3.077 0
M  V30 4264 H 393.336 1.40013 3.53696 0
M  V30 4265 H 394.648 1.63014 4.7141 0
M  V30 4266 H 393.802 -0.303653 6.0594 0
M  V30 4267 H 392.541 -0.627733 4.83643 0
M  V30 4268 H 391.546 1.64015 5.24766 0
M  V30 4269 H 392.771 1.95445 6.50368 0
M  V30 4270 H 390.717 -0.289012 6.55363 0
M  V30 4271 H 390.634 1.18152 7.4671 0
M  V30 4272 H 391.902 0.0384219 7.79491 0
M  V30 4273 N 396.131 -1.37776 0.765217 0
M  V30 4274 C 397.379 -1.99454 0.325943 0
M  V30 4275 C 397.7 -1.61049 -1.09947 0
M  V30 4276 O 396.97 -0.872821 -1.75381 0
M  V30 4277 H 395.55 -0.737697 0.117525 0
M  V30 4278 H 398.212 -1.68359 0.981895 0
M  V30 4279 H 397.308 -3.09547 0.398353 0
M  V30 4280 N 397.609 -0.515225 -1.4894 0
M  V30 4281 C 398.539 0.244628 -2.32215 0
M  V30 4282 C 399.52 0.949136 -1.41157 0
M  V30 4283 O 400.705 0.937783 -1.70057 0
M  V30 4284 C 397.835 1.30096 -3.22013 0
M  V30 4285 C 396.789 0.715486 -4.21977 0
M  V30 4286 C 396.115 1.87339 -5.00808 0
M  V30 4287 C 397.415 -0.302982 -5.2142 0
M  V30 4288 H 399.109 -0.450501 -2.95991 0
M  V30 4289 H 396.655 -0.218098 -1.42339 0
M  V30 4290 H 398.608 1.84037 -3.79089 0
M  V30 4291 H 397.332 2.02547 -2.56207 0
M  V30 4292 H 395.991 0.197715 -3.66066 0
M  V30 4293 H 395.639 2.58592 -4.31438 0
M  V30 4294 H 395.339 1.48764 -5.68457 0
M  V30 4295 H 396.863 2.41686 -5.60732 0
M  V30 4296 H 398.277 0.148802 -5.73107 0
M  V30 4297 H 396.674 -0.60532 -5.97039 0
M  V30 4298 H 397.744 -1.21395 -4.69459 0
M  V30 4299 N 399.087 1.5561 -0.249682 0
M  V30 4300 C 400.498 1.84979 0.252949 0
M  V30 4301 C 400.849 1.17153 1.57384 0
M  V30 4302 O 399.974 0.450884 2.11651 0
M  V30 4303 C 400.569 3.35584 0.465732 0
M  V30 4304 C 399.128 3.65169 0.912624 0
M  V30 4305 C 398.275 2.77299 -0.00859085 0
M  V30 4306 H 401.226 1.51513 -0.47217 0
M  V30 4307 H 401.247 3.57313 1.30795 0
M  V30 4308 H 400.759 3.8492 -0.49579 0
M  V30 4309 H 398.86 3.21312 1.88652 0
M  V30 4310 H 398.973 4.72912 0.767559 0
M  V30 4311 H 397.337 2.49678 0.50327 0
M  V30 4312 H 398.12 3.29442 -0.965537 0
M  V30 4313 N 400.565 -0.0233959 1.57583 0
M  V30 4314 C 401.475 -1.03907 2.10334 0
M  V30 4315 C 402.491 -1.39257 1.04323 0
M  V30 4316 O 403.667 -1.48462 1.36091 0
M  V30 4317 C 400.732 -2.31938 2.57693 0
M  V30 4318 C 399.793 -2.03117 3.78209 0
M  V30 4319 C 399.026 -3.25043 4.233 0
M  V30 4320 O 399.249 -4.35916 3.67876 0
M  V30 4321 O 398.183 -3.10411 5.15683 0
M  V30 4322 H 402.009 -0.620748 2.97288 0
M  V30 4323 H 399.594 -0.240743 1.47448 0
M  V30 4324 H 401.476 -3.07196 2.88458 0
M  V30 4325 H 400.151 -2.73055 1.73847 0
M  V30 4326 H 399.058 -1.25408 3.52454 0
M  V30 4327 H 400.391 -1.66852 4.63056 0
M  V30 4328 N 402.043 -1.548 -0.295768 0
M  V30 4329 C 403.459 -1.4613 -0.641722 0
M  V30 4330 C 403.659 -0.656771 -1.90496 0
M  V30 4331 O 402.715 -0.166547 -2.5195 0
M  V30 4332 C 404.028 -2.90141 -0.789852 0
M  V30 4333 C 405.576 -3.00216 -0.885396 0
M  V30 4334 C 406.051 -4.45434 -1.06548 0
M  V30 4335 N 407.542 -4.49166 -1.13156 0
M  V30 4336 C 408.277 -5.58717 -1.28929 0
M  V30 4337 N 407.773 -6.78182 -1.41567 0
M  V30 4338 N 409.566 -5.46415 -1.31859 0
M  V30 4339 H 401.717 -2.05574 0.534147 0
M  V30 4340 H 403.98 -0.931259 0.177372 0
M  V30 4341 H 403.686 -3.51635 0.0675598 0
M  V30 4342 H 403.56 -3.37859 -1.67724 0
M  V30 4343 H 405.947 -2.38833 -1.73329 0
M  V30 4344 H 406.028 -2.55787 0.0261185 0
M  V30 4345 H 405.672 -5.07413 -0.222335 0
M  V30 4346 H 405.602 -4.87499 -1.9913 0
M  V30 4347 H 408.093 -3.631 -1.04721 0
M  V30 4348 H 408.406 -7.57428 -1.53372 0
M  V30 4349 H 406.751 -6.81037 -1.38613 0
M  V30 4350 H 409.942 -4.5203 -1.21601 0
M  V30 4351 H 410.115 -6.31841 -1.43808 0
M  V30 4352 N 403.521 0.559213 -1.47345 0
M  V30 4353 C 404.768 1.31648 -1.53867 0
M  V30 4354 C 405.096 1.93468 -0.200104 0
M  V30 4355 O 404.351 1.78295 0.806799 0
M  V30 4356 C 404.65 2.44853 -2.6035 0
M  V30 4357 C 404.316 2.00876 -4.03683 0
M  V30 4358 C 402.978 1.88599 -4.42701 0
M  V30 4359 C 405.33 1.67279 -4.93626 0
M  V30 4360 C 402.658 1.41017 -5.69501 0
M  V30 4361 C 405.01 1.21169 -6.20887 0
M  V30 4362 C 403.674 1.07487 -6.58789 0
M  V30 4363 H 402.944 0.481734 -0.56304 0
M  V30 4364 H 405.591 0.627301 -1.80934 0
M  V30 4365 H 403.896 3.19318 -2.27032 0
M  V30 4366 H 405.593 3.03039 -2.62619 0
M  V30 4367 H 402.183 2.11374 -3.72853 0
M  V30 4368 H 406.367 1.75638 -4.64182 0
M  V30 4369 H 401.623 1.29086 -5.97618 0
M  V30 4370 H 405.797 0.942345 -6.89995 0
M  V30 4371 H 403.424 0.703946 -7.56934 0
M  V30 4372 N 404.999 1.35443 0.805782 0
M  V30 4373 C 405.929 1.31095 1.93226 0
M  V30 4374 C 406.91 0.185244 1.69088 0
M  V30 4375 O 408.095 0.380332 1.90439 0
M  V30 4376 C 405.225 1.08299 3.29983 0
M  V30 4377 C 404.179 2.17519 3.68605 0
M  V30 4378 C 403.505 1.79887 5.03532 0
M  V30 4379 C 404.805 3.5949 3.78898 0
M  V30 4380 H 406.499 2.25352 1.97122 0
M  V30 4381 H 404.045 1.0848 0.946996 0
M  V30 4382 H 405.998 1.03897 4.08391 0
M  V30 4383 H 404.722 0.104885 3.26432 0
M  V30 4384 H 403.381 2.2102 2.92482 0
M  V30 4385 H 403.029 0.80693 4.96485 0
M  V30 4386 H 402.729 2.53001 5.30344 0
M  V30 4387 H 404.253 1.77011 5.84379 0
M  V30 4388 H 405.667 3.58307 4.47536 0
M  V30 4389 H 404.064 4.31371 4.1718 0
M  V30 4390 H 405.134 3.95584 2.80431 0
M  V30 4391 N 406.477 -1.02803 1.19454 0
M  V30 4392 C 407.44 -2.09264 0.934955 0
M  V30 4393 C 408.44 -1.60576 -0.0849015 0
M  V30 4394 O 409.63 -1.73554 0.149933 0
M  V30 4395 C 406.762 -3.38482 0.40531 0
M  V30 4396 H 407.955 -2.33726 1.87916 0
M  V30 4397 H 405.508 -1.19426 1.00832 0
M  V30 4398 H 406.243 -3.19689 -0.544899 0
M  V30 4399 H 406.028 -3.75142 1.14065 0
M  V30 4400 H 407.518 -4.16894 0.242806 0
M  V30 4401 N 407.956 -0.998596 -1.21925 0
M  V30 4402 C 409.186 -0.695276 -1.94549 0
M  V30 4403 C 409.594 0.745079 -1.73911 0
M  V30 4404 O 408.937 1.51507 -1.03881 0
M  V30 4405 C 408.999 -0.928485 -3.47303 0
M  V30 4406 C 408.663 -2.35443 -3.91683 0
M  V30 4407 C 409.66 -3.33428 -3.98901 0
M  V30 4408 C 407.345 -2.69038 -4.24174 0
M  V30 4409 C 409.339 -4.63079 -4.37992 0
M  V30 4410 C 407.026 -3.98906 -4.62944 0
M  V30 4411 C 408.024 -4.95738 -4.69822 0
M  V30 4412 O 407.712 -6.23285 -5.07711 0
M  V30 4413 H 407.444 -0.255902 -0.625692 0
M  V30 4414 H 409.998 -1.33767 -1.5587 0
M  V30 4415 H 408.228 -0.228917 -3.86022 0
M  V30 4416 H 409.917 -0.619539 -4.01144 0
M  V30 4417 H 410.683 -3.08807 -3.73983 0
M  V30 4418 H 406.562 -1.94367 -4.18022 0
M  V30 4419 H 410.106 -5.38658 -4.43275 0
M  V30 4420 H 406.003 -4.23314 -4.87314 0
M  V30 4421 H 406.771 -6.27306 -5.25766 0
M  V30 4422 N 409.434 1.37368 -0.772513 0
M  V30 4423 C 410.344 2.34053 -0.160081 0
M  V30 4424 C 411.36 1.60216 0.678728 0
M  V30 4425 O 412.536 1.92303 0.59847 0
M  V30 4426 C 409.601 3.3939 0.708182 0
M  V30 4427 C 408.662 4.29048 -0.147172 0
M  V30 4428 C 407.895 5.29354 0.679744 0
M  V30 4429 O 408.118 5.3723 1.91678 0
M  V30 4430 O 407.052 6.01835 0.0885444 0
M  V30 4431 H 410.878 2.88159 -0.959053 0
M  V30 4432 H 408.463 1.39543 -0.533685 0
M  V30 4433 H 410.345 4.03839 1.20384 0
M  V30 4434 H 409.02 2.8761 1.48533 0
M  V30 4435 H 407.927 3.67697 -0.689205 0
M  V30 4436 H 409.26 4.84134 -0.887423 0
M  V30 4437 N 410.912 0.523116 1.48665 0
M  V30 4438 C 411.875 -0.232592 2.28017 0
M  V30 4439 C 412.875 -0.874021 1.34972 0
M  V30 4440 O 414.065 -0.735132 1.57929 0
M  V30 4441 C 411.197 -1.33586 3.13636 0
M  V30 4442 H 412.39 0.464008 2.96289 0
M  V30 4443 H 409.943 0.278816 1.53793 0
M  V30 4444 H 410.678 -2.06593 2.4998 0
M  V30 4445 H 410.463 -0.881125 3.82071 0
M  V30 4446 H 411.953 -1.86759 3.73511 0
M  V30 4447 N 412.39 -1.55475 0.257931 0
M  V30 4448 C 413.32 -2.24815 -0.630912 0
M  V30 4449 C 414.301 -1.23224 -1.17259 0
M  V30 4450 O 415.486 -1.51904 -1.20991 0
M  V30 4451 C 412.616 -2.95609 -1.82298 0
M  V30 4452 C 411.57 -4.03982 -1.41359 0
M  V30 4453 C 410.896 -4.6226 -2.68738 0
M  V30 4454 C 412.196 -5.19109 -0.57648 0
M  V30 4455 H 413.89 -2.99354 -0.0526878 0
M  V30 4456 H 411.436 -1.4398 -0.023901 0
M  V30 4457 H 413.389 -3.42822 -2.45054 0
M  V30 4458 H 412.113 -2.18577 -2.42676 0
M  V30 4459 H 410.772 -3.57555 -0.809324 0
M  V30 4460 H 410.42 -3.81915 -3.27338 0
M  V30 4461 H 410.12 -5.35424 -2.42065 0
M  V30 4462 H 411.644 -5.12212 -3.32372 0
M  V30 4463 H 413.058 -5.62479 -1.10861 0
M  V30 4464 H 411.455 -5.98729 -0.405351 0
M  V30 4465 H 412.525 -4.83174 0.408776 0
M  V30 4466 N 413.868 0.0150385 -1.57593 0
M  V30 4467 C 414.798 1.01047 -2.10503 0
M  V30 4468 C 415.779 1.36816 -1.01071 0
M  V30 4469 O 416.964 1.45455 -1.28672 0
M  V30 4470 C 414.094 2.30708 -2.59598 0
M  V30 4471 C 413.048 2.09142 -3.73421 0
M  V30 4472 C 412.374 3.44685 -4.08774 0
M  V30 4473 C 413.674 1.46619 -5.01298 0
M  V30 4474 H 415.368 0.569978 -2.93925 0
M  V30 4475 H 412.914 0.272724 -1.41394 0
M  V30 4476 H 414.867 3.00687 -2.95238 0
M  V30 4477 H 413.591 2.76843 -1.73279 0
M  V30 4478 H 412.25 1.41592 -3.38153 0
M  V30 4479 H 411.898 3.88495 -3.195 0
M  V30 4480 H 411.598 3.31077 -4.8545 0
M  V30 4481 H 413.122 4.16004 -4.4696 0
M  V30 4482 H 414.536 2.06535 -5.34805 0
M  V30 4483 H 412.933 1.43544 -5.82679 0
M  V30 4484 H 414.003 0.433611 -4.82957 0
M  V30 4485 N 415.346 1.54954 0.287554 0
M  V30 4486 C 416.256 1.8991 1.37736 0
M  V30 4487 C 417.272 0.794701 1.54792 0
M  V30 4488 O 418.448 1.09243 1.69198 0
M  V30 4489 C 415.513 2.15108 2.71899 0
M  V30 4490 C 414.574 3.38752 2.63715 0
M  V30 4491 C 413.807 3.62739 3.91479 0
M  V30 4492 O 414.03 2.89492 4.91478 0
M  V30 4493 O 412.964 4.56267 3.92561 0
M  V30 4494 H 416.79 2.82652 1.11092 0
M  V30 4495 H 414.375 1.41315 0.484807 0
M  V30 4496 H 416.257 2.32806 3.51254 0
M  V30 4497 H 414.932 1.25551 2.9836 0
M  V30 4498 H 413.839 3.26405 1.82786 0
M  V30 4499 H 415.172 4.28483 2.42205 0
M  V30 4500 N 416.824 -0.551391 1.4764 0
M  V30 4501 C 417.771 -1.65796 1.60563 0
M  V30 4502 C 418.741 -1.59932 0.448428 0
M  V30 4503 O 419.926 -1.78679 0.669222 0
M  V30 4504 C 417.066 -3.04108 1.63133 0
M  V30 4505 C 416.179 -3.20365 2.89811 0
M  V30 4506 C 415.314 -4.49109 2.8368 0
M  V30 4507 C 414.353 -4.58819 4.05156 0
M  V30 4508 N 413.49 -5.78926 3.97227 0
M  V30 4509 H 418.33 -1.54088 2.5507 0
M  V30 4510 H 415.867 -0.75052 1.26513 0
M  V30 4511 H 417.825 -3.84207 1.62606 0
M  V30 4512 H 416.455 -3.14637 0.721341 0
M  V30 4513 H 415.507 -2.33659 3.00179 0
M  V30 4514 H 416.819 -3.23402 3.79753 0
M  V30 4515 H 415.973 -5.37475 2.81434 0
M  V30 4516 H 414.712 -4.4856 1.91431 0
M  V30 4517 H 413.717 -3.68864 4.077 0
M  V30 4518 H 414.942 -4.61124 4.98539 0
M  V30 4519 H 412.888 -5.79314 3.07785 0
M  V30 4520 H 412.805 -5.83367 4.80853 0
M  V30 4521 H 414.073 -6.69637 3.99007 0
M  V30 4522 N 418.302 -1.35869 -0.798587 0
M  V30 4523 C 419.532 -1.32529 -1.58491 0
M  V30 4524 C 419.94 0.0975405 -1.88948 0
M  V30 4525 O 419.283 1.06224 -1.49874 0
M  V30 4526 C 419.345 -2.07247 -2.9375 0
M  V30 4527 C 419.009 -3.56391 -2.86068 0
M  V30 4528 C 420.006 -4.50824 -2.58947 0
M  V30 4529 C 417.691 -3.9915 -3.04933 0
M  V30 4530 C 419.685 -5.85993 -2.5078 0
M  V30 4531 C 417.372 -5.34413 -2.96389 0
M  V30 4532 C 418.37 -6.27646 -2.69349 0
M  V30 4533 O 418.058 -7.60426 -2.60782 0
M  V30 4534 H 417.79 -0.456529 -0.498556 0
M  V30 4535 H 420.344 -1.79425 -0.999799 0
M  V30 4536 H 418.574 -1.55001 -3.54276 0
M  V30 4537 H 420.263 -1.96883 -3.54954 0
M  V30 4538 H 421.029 -4.19104 -2.44084 0
M  V30 4539 H 416.908 -3.26961 -3.24989 0
M  V30 4540 H 420.452 -6.58735 -2.29595 0
M  V30 4541 H 416.349 -5.65743 -3.10813 0
M  V30 4542 H 417.117 -7.70444 -2.76331 0
M  V30 4543 N 419.78 1.02168 -1.19998 0
M  V30 4544 C 421.191 1.57135 -1.00825 0
M  V30 4545 C 421.542 1.91276 0.436818 0
M  V30 4546 O 420.667 1.71679 1.3174 0
M  V30 4547 C 421.262 2.85514 -1.82393 0
M  V30 4548 C 419.821 3.37027 -1.67601 0
M  V30 4549 C 418.968 2.10388 -1.80644 0
M  V30 4550 H 421.919 0.846106 -1.34264 0
M  V30 4551 H 421.94 3.56711 -1.32429 0
M  V30 4552 H 421.452 2.60634 -2.87561 0
M  V30 4553 H 419.553 3.66878 -0.650485 0
M  V30 4554 H 419.666 4.09572 -2.4857 0
M  V30 4555 H 418.03 2.22601 -1.23778 0
M  V30 4556 H 418.813 1.8794 -2.87286 0
M  V30 4557 N 421.258 1.00505 1.21394 0
M  V30 4558 C 422.19 0.52372 2.23136 0
M  V30 4559 C 423.203 -0.387714 1.58116 0
M  V30 4560 O 424.392 -0.187905 1.77508 0
M  V30 4561 C 421.492 -0.258885 3.3791 0
M  V30 4562 C 420.665 0.651634 4.32519 0
M  V30 4563 C 419.724 -0.0813705 5.26137 0
M  V30 4564 O 418.75 0.537295 5.66658 0
M  V30 4565 N 419.952 -1.35992 5.64346 0
M  V30 4566 H 422.717 1.39865 2.65062 0
M  V30 4567 H 420.278 0.881196 1.35818 0
M  V30 4568 H 422.27 -0.758208 3.97534 0
M  V30 4569 H 420.84 -1.035 2.94968 0
M  V30 4570 H 420.06 1.33145 3.71034 0
M  V30 4571 H 421.348 1.27129 4.92662 0
M  V30 4572 H 420.746 -1.88368 5.33417 0
M  V30 4573 H 419.303 -1.8042 6.26332 0
M  V30 4574 N 422.737 -1.36956 0.779787 0
M  V30 4575 C 423.687 -2.27539 0.144892 0
M  V30 4576 C 424.671 -1.46493 -0.665488 0
M  V30 4577 O 425.863 -1.68968 -0.527141 0
M  V30 4578 C 422.992 -3.35512 -0.727082 0
M  V30 4579 C 422.078 -4.24001 0.0915642 0
M  V30 4580 N 422.469 -4.92757 1.14125 0
M  V30 4581 C 420.767 -4.45807 -0.131141 0
M  V30 4582 C 421.468 -5.58138 1.6388 0
M  V30 4583 N 420.444 -5.35241 0.94962 0
M  V30 4584 H 424.246 -2.78176 0.948446 0
M  V30 4585 H 421.76 -1.50169 0.618315 0
M  V30 4586 H 423.757 -3.99324 -1.19776 0
M  V30 4587 H 422.417 -2.86431 -1.52929 0
M  V30 4588 H 423.428 -4.94984 1.52353 0
M  V30 4589 H 420.105 -4.07582 -0.904621 0
M  V30 4590 H 421.495 -6.23071 2.51461 0
M  V30 4591 N 424.215 -0.530993 -1.48385 0
M  V30 4592 C 425.165 0.251092 -2.26613 0
M  V30 4593 C 426.149 0.908977 -1.32765 0
M  V30 4594 O 427.341 0.811616 -1.57295 0
M  V30 4595 C 424.47 1.29677 -3.17866 0
M  V30 4596 C 423.556 0.643627 -4.19188 0
M  V30 4597 N 423.947 -0.271223 -5.05072 0
M  V30 4598 C 422.245 0.900711 -4.3681 0
M  V30 4599 C 422.946 -0.648109 -5.78078 0
M  V30 4600 N 421.922 -0.00895987 -5.43599 0
M  V30 4601 H 425.724 -0.452702 -2.90393 0
M  V30 4602 H 423.238 -0.349091 -1.58604 0
M  V30 4603 H 425.235 1.87079 -3.72568 0
M  V30 4604 H 423.895 2.00193 -2.55642 0
M  V30 4605 H 424.906 -0.643883 -5.13882 0
M  V30 4606 H 421.583 1.59636 -3.85775 0
M  V30 4607 H 422.973 -1.39833 -6.57188 0
M  V30 4608 N 425.693 1.55336 -0.266172 0
M  V30 4609 C 426.941 1.99003 0.35246 0
M  V30 4610 C 427.262 1.15591 1.57047 0
M  V30 4611 O 426.532 0.243268 1.94384 0
M  V30 4612 H 425.112 0.735025 0.133217 0
M  V30 4613 H 427.774 1.91367 -0.369434 0
M  V30 4614 H 426.87 3.05289 0.648453 0
M  V30 4615 N 427.171 -0.0066808 1.57599 0
M  V30 4616 C 428.118 -1.00024 2.08 0
M  V30 4617 C 429.088 -1.34549 0.973943 0
M  V30 4618 O 430.273 -1.44502 1.24595 0
M  V30 4619 C 427.413 -2.2891 2.58252 0
M  V30 4620 C 426.526 -2.00346 3.82734 0
M  V30 4621 C 425.661 -3.23265 4.21513 0
M  V30 4622 C 424.7 -2.90357 5.3885 0
M  V30 4623 N 423.837 -4.05793 5.72954 0
M  V30 4624 H 428.677 -0.563499 2.92624 0
M  V30 4625 H 426.214 -0.266592 1.44664 0
M  V30 4626 H 428.172 -3.04247 2.85464 0
M  V30 4627 H 426.802 -2.70265 1.76512 0
M  V30 4628 H 425.854 -1.15406 3.62471 0
M  V30 4629 H 427.166 -1.72086 4.68175 0
M  V30 4630 H 426.32 -4.06953 4.49971 0
M  V30 4631 H 425.059 -3.54657 3.34768 0
M  V30 4632 H 424.064 -2.05075 5.10122 0
M  V30 4633 H 425.289 -2.60219 6.27266 0
M  V30 4634 H 423.235 -4.37094 4.89167 0
M  V30 4635 H 423.152 -3.81034 6.52954 0
M  V30 4636 H 424.42 -4.90289 6.06001 0
M  V30 4637 N 428.649 -1.55105 -0.279332 0
M  V30 4638 C 429.898 -1.74618 -1.00952 0
M  V30 4639 C 430.211 -0.551096 -1.87676 0
M  V30 4640 O 431.417 -0.628507 -2.64125 0
M  V30 4641 C 429.873 -3.09025 -1.84476 0
M  V30 4642 C 429.481 -4.36081 -1.0265 0
M  V30 4643 C 431.225 -3.37891 -2.56963 0
M  V30 4644 C 429.132 -5.6153 -1.85576 0
M  V30 4645 H 428.062 -0.650868 -0.38064 0
M  V30 4646 H 430.713 -1.81569 -0.265475 0
M  V30 4647 H 429.095 -2.96095 -2.62952 0
M  V30 4648 H 430.269 -4.59909 -0.286354 0
M  V30 4649 H 428.584 -4.14312 -0.416464 0
M  V30 4650 H 431.181 -4.28822 -3.19399 0
M  V30 4651 H 431.524 -2.57737 -3.26921 0
M  V30 4652 H 432.057 -3.5189 -1.85522 0
M  V30 4653 H 428.796 -6.44413 -1.2005 0
M  V30 4654 H 428.316 -5.41854 -2.57204 0
M  V30 4655 H 429.995 -5.99594 -2.43096 0
M  V30 4656 N 430.127 0.543554 -1.4793 0
M  V30 4657 C 431.543 0.870806 -1.3375 0
M  V30 4658 C 431.743 1.9864 -0.338261 0
M  V30 4659 O 430.799 2.51305 0.245371 0
M  V30 4660 C 432.112 1.25114 -2.73435 0
M  V30 4661 C 433.66 1.3618 -2.81823 0
M  V30 4662 C 434.135 1.77563 -4.22179 0
M  V30 4663 N 435.626 1.8469 -4.24787 0
M  V30 4664 C 436.361 2.18067 -5.30315 0
M  V30 4665 N 435.857 2.49963 -6.46135 0
M  V30 4666 N 437.65 2.18958 -5.17701 0
M  V30 4667 H 429.801 -0.19275 -2.11524 0
M  V30 4668 H 432.064 -0.0235777 -0.947707 0
M  V30 4669 H 431.77 0.50514 -3.48053 0
M  V30 4670 H 431.644 2.20431 -3.06088 0
M  V30 4671 H 434.031 2.09859 -2.07468 0
M  V30 4672 H 434.112 0.390169 -2.52807 0
M  V30 4673 H 433.756 1.04449 -4.97044 0
M  V30 4674 H 433.686 2.75753 -4.48629 0
M  V30 4675 H 436.177 1.62372 -3.41239 0
M  V30 4676 H 436.49 2.74497 -7.22406 0
M  V30 4677 H 434.835 2.47513 -6.49432 0
M  V30 4678 H 438.026 1.93488 -4.2624 0
M  V30 4679 H 438.199 2.44639 -6.00047 0
M  V30 4680 N 431.605 1.3629 0.791371 0
M  V30 4681 C 432.835 1.33368 1.57786 0
M  V30 4682 C 433.243 -0.0875188 1.88997 0
M  V30 4683 O 432.586 -1.05427 1.50435 0
M  V30 4684 C 432.648 2.08802 2.92646 0
M  V30 4685 C 432.312 3.57903 2.84174 0
M  V30 4686 C 433.309 4.52191 2.56553 0
M  V30 4687 C 430.994 4.00762 3.02812 0
M  V30 4688 C 432.988 5.87315 2.47669 0
M  V30 4689 C 430.675 5.35977 2.93551 0
M  V30 4690 C 431.673 6.29066 2.66017 0
M  V30 4691 O 431.361 7.61798 2.56746 0
M  V30 4692 H 431.093 0.459166 0.496128 0
M  V30 4693 H 433.647 1.79952 0.990269 0
M  V30 4694 H 431.877 1.56878 3.53449 0
M  V30 4695 H 433.566 1.98762 3.53904 0
M  V30 4696 H 434.332 4.20393 2.41858 0
M  V30 4697 H 430.211 3.2868 3.2325 0
M  V30 4698 H 433.755 6.59943 2.26099 0
M  V30 4699 H 429.652 5.67384 3.07808 0
M  V30 4700 H 430.42 7.71898 2.72242 0
M  V30 4701 N 433.083 -1.0153 1.20538 0
M  V30 4702 C 434.311 -1.78746 1.04199 0
M  V30 4703 C 434.726 -1.84323 -0.408733 0
M  V30 4704 O 434.083 -1.29714 -1.28377 0
M  V30 4705 C 434.134 -3.23152 1.62035 0
M  V30 4706 O 433.855 -3.17918 3.0143 0
M  V30 4707 C 435.356 -4.16911 1.50666 0
M  V30 4708 H 432.576 -0.56208 0.366479 0
M  V30 4709 H 435.12 -1.27794 1.59653 0
M  V30 4710 H 433.275 -3.71248 1.10697 0
M  V30 4711 H 433.689 -4.08567 3.28897 0
M  V30 4712 H 435.163 -5.16072 1.95892 0
M  V30 4713 H 435.64 -4.36791 0.459363 0
M  V30 4714 H 436.246 -3.74698 2.01201 0
M  V30 4715 N 434.561 -1.01147 -1.20859 0
M  V30 4716 C 435.493 -0.535546 -2.22855 0
M  V30 4717 C 436.506 0.379323 -1.58319 0
M  V30 4718 O 437.695 0.178489 -1.77605 0
M  V30 4719 C 434.795 0.240962 -3.38042 0
M  V30 4720 C 433.968 -0.674562 -4.32167 0
M  V30 4721 C 433.027 0.053467 -5.26173 0
M  V30 4722 O 432.053 -0.567339 -5.66366 0
M  V30 4723 N 433.255 1.32997 -5.65059 0
M  V30 4724 H 436.02 -1.41268 -2.64317 0
M  V30 4725 H 433.581 -0.888386 -1.35349 0
M  V30 4726 H 435.573 0.737115 -3.97931 0
M  V30 4727 H 434.143 1.01935 -2.95513 0
M  V30 4728 H 433.363 -1.35111 -3.70322 0
M  V30 4729 H 434.651 -1.2974 -4.91981 0
M  V30 4730 H 434.049 1.85536 -5.34409 0
M  V30 4731 H 432.606 1.77095 -6.2728 0
M  V30 4732 N 436.039 1.36541 -0.78704 0
M  V30 4733 C 437.288 1.98552 -0.35494 0
M  V30 4734 C 437.601 1.63171 1.07864 0
M  V30 4735 O 438.807 2.18399 1.61289 0
M  V30 4736 C 437.263 3.55136 -0.583671 0
M  V30 4737 C 436.871 3.99444 -2.02851 0
M  V30 4738 C 438.615 4.2395 -0.215957 0
M  V30 4739 C 436.522 5.48796 -2.20403 0
M  V30 4740 H 435.452 0.742888 -0.128972 0
M  V30 4741 H 438.103 1.5587 -0.968337 0
M  V30 4742 H 436.485 3.95875 0.0994046 0
M  V30 4743 H 437.659 3.6991 -2.74779 0
M  V30 4744 H 435.974 3.43459 -2.35425 0
M  V30 4745 H 438.571 5.33709 -0.325405 0
M  V30 4746 H 438.914 4.07827 0.835646 0
M  V30 4747 H 439.447 3.88565 -0.852175 0
M  V30 4748 H 436.186 5.69864 -3.23937 0
M  V30 4749 H 435.706 5.79964 -1.52977 0
M  V30 4750 H 437.385 6.14986 -2.01002 0
M  V30 4751 N 437.518 0.538854 1.48102 0
M  V30 4752 C 438.481 -0.208395 2.28251 0
M  V30 4753 C 439.481 -0.859656 1.35892 0
M  V30 4754 O 440.671 -0.71834 1.58699 0
M  V30 4755 C 437.803 -1.30252 3.15035 0
M  V30 4756 H 438.996 0.495407 2.9578 0
M  V30 4757 H 436.549 0.295112 1.53489 0
M  V30 4758 H 437.284 -2.0393 2.52157 0
M  V30 4759 H 437.069 -0.840551 3.82985 0
M  V30 4760 H 438.559 -1.82787 3.75471 0
M  V30 4761 N 438.996 -1.55193 0.274407 0
M  V30 4762 C 440.407 -1.85358 -0.223488 0
M  V30 4763 C 440.758 -1.19642 -1.555 0
M  V30 4764 O 439.883 -0.484498 -2.10907 0
M  V30 4765 C 440.478 -3.36282 -0.412285 0
M  V30 4766 C 439.037 -3.66574 -0.854413 0
M  V30 4767 C 438.184 -2.7725 0.0527056 0
M  V30 4768 H 441.135 -1.50743 0.496215 0
M  V30 4769 H 441.156 -3.59349 -1.25094 0
M  V30 4770 H 440.668 -3.84083 0.556965 0
M  V30 4771 H 438.769 -3.24273 -1.83516 0
M  V30 4772 H 438.882 -4.74073 -0.692226 0
M  V30 4773 H 437.246 -2.50447 -0.463484 0
M  V30 4774 H 438.029 -3.27865 1.01783 0
M  V30 4775 N 440.474 -0.00167713 -1.576 0
M  V30 4776 C 441.702 0.693759 -1.94922 0
M  V30 4777 C 442.117 1.67215 -0.876626 0
M  V30 4778 O 441.474 1.81929 0.144279 0
M  V30 4779 C 441.525 1.42416 -3.32265 0
M  V30 4780 O 441.246 0.485014 -4.35407 0
M  V30 4781 C 442.747 2.21395 -3.84056 0
M  V30 4782 H 439.967 0.193118 -0.642609 0
M  V30 4783 H 442.511 -0.0532952 -2.04431 0
M  V30 4784 H 440.666 2.12284 -3.24059 0
M  V30 4785 H 441.08 1.00053 -5.14868 0
M  V30 4786 H 442.554 2.67996 -4.82578 0
M  V30 4787 H 443.031 3.04142 -3.16851 0
M  V30 4788 H 443.637 1.56542 -3.95443 0
M  V30 4789 N 441.952 1.55251 0.271103 0
M  V30 4790 C 443.177 1.80306 1.02491 0
M  V30 4791 C 443.602 0.575457 1.79081 0
M  V30 4792 O 442.96 -0.474987 1.74967 0
M  V30 4793 C 443.008 3.02832 1.95768 0
M  V30 4794 O 442.112 2.78051 3.04568 0
M  V30 4795 H 441.453 0.595896 0.292923 0
M  V30 4796 H 443.983 2.02397 0.299436 0
M  V30 4797 H 443.993 3.31616 2.37686 0
M  V30 4798 H 442.668 3.9183 1.39434 0
M  V30 4799 H 441.245 2.60369 2.66951 0
M  V30 4800 N 443.43 -0.535701 1.48216 0
M  V30 4801 C 444.846 -0.863701 1.3421 0
M  V30 4802 C 445.046 -1.98458 0.34879 0
M  V30 4803 O 444.102 -2.51432 -0.23204 0
M  V30 4804 C 445.415 -1.23662 2.74095 0
M  V30 4805 C 446.963 -1.34683 2.82541 0
M  V30 4806 C 447.438 -1.75322 4.23115 0
M  V30 4807 N 448.929 -1.82434 4.2576 0
M  V30 4808 C 449.664 -2.15252 5.31464 0
M  V30 4809 N 449.16 -2.46533 6.47452 0
M  V30 4810 N 450.953 -2.16209 5.18855 0
M  V30 4811 H 443.104 0.203965 2.11418 0
M  V30 4812 H 445.367 0.0286033 0.947568 0
M  V30 4813 H 445.073 -0.486674 3.48316 0
M  V30 4814 H 444.947 -2.18805 3.07253 0
M  V30 4815 H 447.334 -2.08756 2.08579 0
M  V30 4816 H 447.415 -0.376756 2.5301 0
M  V30 4817 H 447.059 -1.01812 4.97591 0
M  V30 4818 H 446.989 -2.7337 4.50085 0
M  V30 4819 H 449.48 -1.6056 3.42095 0
M  V30 4820 H 449.793 -2.70662 7.23852 0
M  V30 4821 H 448.138 -2.44065 6.50736 0
M  V30 4822 H 451.329 -1.91224 4.2726 0
M  V30 4823 H 451.502 -2.41453 6.01335 0
M  V30 4824 N 444.908 -1.36708 -0.784132 0
M  V30 4825 C 446.156 -1.30972 -1.53918 0
M  V30 4826 C 446.477 0.109086 -1.94695 0
M  V30 4827 O 445.747 1.05048 -1.65353 0
M  V30 4828 H 444.327 -0.481819 -0.570841 0
M  V30 4829 H 446.989 -1.71063 -0.934002 0
M  V30 4830 H 446.085 -1.94061 -2.44431 0
M  V30 4831 N 446.386 1.0089 -1.21074 0
M  V30 4832 C 447.663 1.71834 -0.934469 0
M  V30 4833 C 448.043 2.0368 0.554753 0
M  V30 4834 O 447.391 1.70742 1.51854 0
M  V30 4835 C 447.601 2.98061 -1.8155 0
M  V30 4836 C 448.949 3.7117 -2.06199 0
M  V30 4837 O 449.973 3.08034 -1.78867 0
M  V30 4838 O 448.832 4.84721 -2.52404 0
M  V30 4839 H 445.926 0.749253 -0.35007 0
M  V30 4840 H 448.472 1.06668 -1.31985 0
M  V30 4841 H 447.244 2.70908 -2.82355 0
M  V30 4842 H 446.867 3.70968 -1.43068 0
M  V30 4843 N 447.864 1.01787 1.20321 0
M  V30 4844 C 449.11 0.708985 1.90003 0
M  V30 4845 C 449.443 -0.759572 1.78729 0
M  V30 4846 O 448.718 -1.55198 1.17234 0
M  V30 4847 C 449.001 1.1469 3.41348 0
M  V30 4848 C 448.854 2.67586 3.61549 0
M  V30 4849 C 450.173 0.71915 4.34185 0
M  V30 4850 H 447.292 0.259034 0.689978 0
M  V30 4851 H 449.934 1.26584 1.41692 0
M  V30 4852 H 448.084 0.673128 3.82624 0
M  V30 4853 H 449.756 3.22826 3.29517 0
M  V30 4854 H 447.999 3.085 3.04976 0
M  V30 4855 H 448.67 2.93281 4.67643 0
M  V30 4856 H 451.146 1.12647 4.00562 0
M  V30 4857 H 450.022 1.05358 5.38694 0
M  V30 4858 H 450.283 -0.379111 4.40472 0
M  V30 4859 N 449.342 -1.36122 0.79427 0
M  V30 4860 C 450.274 -2.28683 0.153903 0
M  V30 4861 C 451.287 -1.49707 -0.639669 0
M  V30 4862 O 452.476 -1.7209 -0.474054 0
M  V30 4863 C 449.576 -3.29202 -0.804921 0
M  V30 4864 C 448.749 -4.37358 -0.060366 0
M  V30 4865 C 447.808 -5.17811 -0.935849 0
M  V30 4866 O 446.834 -5.67853 -0.391309 0
M  V30 4867 N 448.036 -5.34721 -2.25951 0
M  V30 4868 H 450.801 -2.84278 0.949008 0
M  V30 4869 H 448.362 -1.4834 0.648611 0
M  V30 4870 H 450.354 -3.79914 -1.39455 0
M  V30 4871 H 448.924 -2.74212 -1.50088 0
M  V30 4872 H 448.144 -3.87746 0.710382 0
M  V30 4873 H 449.432 -5.06777 0.45324 0
M  V30 4874 H 448.83 -4.95687 -2.72601 0
M  V30 4875 H 447.387 -5.88657 -2.79867 0
M  V30 4876 N 450.82 -0.546701 -1.47814 0
M  V30 4877 C 451.783 0.196287 -2.28358 0
M  V30 4878 C 452.783 0.852437 -1.36346 0
M  V30 4879 O 453.973 0.709913 -1.59078 0
M  V30 4880 C 451.105 1.28579 -3.15722 0
M  V30 4881 H 452.298 -0.511086 -2.95513 0
M  V30 4882 H 449.851 -0.303248 -1.5333 0
M  V30 4883 H 450.586 2.0259 -2.53235 0
M  V30 4884 H 450.371 0.820229 -3.83425 0
M  V30 4885 H 451.861 1.80793 -3.76435 0
M  V30 4886 N 452.299 1.55045 -0.282633 0
M  V30 4887 C 453.529 2.03872 0.334635 0
M  V30 4888 C 453.937 1.16018 1.49454 0
M  V30 4889 O 453.28 0.174449 1.8287 0
M  V30 4890 C 453.342 3.48791 0.870905 0
M  V30 4891 C 453.006 4.56715 -0.161338 0
M  V30 4892 C 454.003 5.10513 -0.983466 0
M  V30 4893 C 451.688 5.01417 -0.297745 0
M  V30 4894 C 453.682 6.07538 -1.92811 0
M  V30 4895 C 451.369 5.98265 -1.24586 0
M  V30 4896 C 452.367 6.51208 -2.05954 0
M  V30 4897 O 452.055 7.46162 -2.99162 0
M  V30 4898 H 451.787 0.671324 0.0793742 0
M  V30 4899 H 454.341 2.01169 -0.41473 0
M  V30 4900 H 452.571 3.48758 1.67047 0
M  V30 4901 H 454.26 3.80916 1.40207 0
M  V30 4902 H 455.026 4.76785 -0.888856 0
M  V30 4903 H 450.905 4.59849 0.325604 0
M  V30 4904 H 454.449 6.48787 -2.56363 0
M  V30 4905 H 450.346 6.31412 -1.34126 0
M  V30 4906 H 451.114 7.63903 -2.93929 0
M  V30 4907 N 453.777 0.010035 1.57597 0
M  V30 4908 C 454.709 -1.00649 2.05918 0
M  V30 4909 C 455.722 -1.30077 0.978964 0
M  V30 4910 O 456.911 -1.26878 1.25556 0
M  V30 4911 C 454.011 -2.33876 2.45265 0
M  V30 4912 C 453.184 -2.23242 3.7614 0
M  V30 4913 C 452.243 -3.39242 4.02245 0
M  V30 4914 O 451.269 -3.1698 4.72771 0
M  V30 4915 N 452.471 -4.6242 3.50924 0
M  V30 4916 H 455.236 -0.594333 2.93748 0
M  V30 4917 H 452.797 -0.17714 1.60928 0
M  V30 4918 H 454.789 -3.1027 2.59836 0
M  V30 4919 H 453.359 -2.66799 1.62902 0
M  V30 4920 H 452.579 -1.31696 3.71551 0
M  V30 4921 H 453.867 -2.13321 4.61922 0
M  V30 4922 H 453.265 -4.83404 2.93832 0
M  V30 4923 H 451.822 -5.36046 3.70807 0
M  V30 4924 N 455.255 -1.55392 -0.262866 0
M  V30 4925 C 456.532 -1.67204 -1.01499 0
M  V30 4926 C 456.912 -0.545186 -2.03939 0
M  V30 4927 O 456.26 0.453467 -2.23955 0
M  V30 4928 C 456.47 -3.06847 -1.6627 0
M  V30 4929 C 457.818 -3.64928 -2.17054 0
M  V30 4930 O 458.842 -3.09545 -1.76239 0
M  V30 4931 O 457.701 -4.61984 -2.91947 0
M  V30 4932 H 454.795 -0.679467 -0.471438 0
M  V30 4933 H 457.341 -1.67729 -0.257918 0
M  V30 4934 H 456.113 -3.80309 -0.920915 0
M  V30 4935 H 455.736 -3.10266 -2.48638 0
M  V30 4936 N 456.733 0.527833 -1.48498 0
M  V30 4937 C 457.982 1.28003 -1.55878 0
M  V30 4938 C 458.295 1.9414 -0.238577 0
M  V30 4939 O 459.501 2.7083 -0.190643 0
M  V30 4940 C 457.957 2.32272 -2.74914 0
M  V30 4941 C 457.565 1.72196 -4.13585 0
M  V30 4942 C 459.309 3.08488 -2.91608 0
M  V30 4943 C 457.216 2.74417 -5.23879 0
M  V30 4944 H 456.146 0.481413 -0.580308 0
M  V30 4945 H 458.797 0.557195 -1.74836 0
M  V30 4946 H 457.179 3.07601 -2.49395 0
M  V30 4947 H 458.353 1.03041 -4.49132 0
M  V30 4948 H 456.668 1.08464 -4.02025 0
M  V30 4949 H 459.265 3.84879 -3.71177 0
M  V30 4950 H 459.608 3.64481 -2.01145 0
M  V30 4951 H 460.141 2.40274 -3.17038 0
M  V30 4952 H 456.88 2.23242 -6.16314 0
M  V30 4953 H 456.4 3.41893 -4.92818 0
M  V30 4954 H 458.079 3.37362 -5.52083 0
M  V30 4955 N 458.211 1.37122 0.776871 0
M  V30 4956 C 459.627 1.1781 1.07671 0
M  V30 4957 C 459.827 0.0107454 2.01497 0
M  V30 4958 O 458.883 -0.650756 2.4397 0
M  V30 4959 C 460.196 2.49451 1.67913 0
M  V30 4960 C 461.744 2.55927 1.80195 0
M  V30 4961 C 462.219 3.87686 2.43851 0
M  V30 4962 N 463.71 3.891 2.51307 0
M  V30 4963 C 464.445 4.87797 3.014 0
M  V30 4964 N 463.941 5.96888 3.51705 0
M  V30 4965 N 465.734 4.75205 3.00227 0
M  V30 4966 H 457.885 2.11843 0.153778 0
M  V30 4967 H 460.148 0.938927 0.130844 0
M  V30 4968 H 459.854 3.35207 1.06439 0
M  V30 4969 H 459.728 2.66169 2.67271 0
M  V30 4970 H 462.115 1.70582 2.40803 0
M  V30 4971 H 462.196 2.43097 0.796069 0
M  V30 4972 H 461.84 4.73444 1.83884 0
M  V30 4973 H 461.77 3.97817 3.45035 0
M  V30 4974 H 464.261 3.10293 2.157 0
M  V30 4975 H 464.574 6.68155 3.88316 0
M  V30 4976 H 462.919 6.0054 3.49824 0
M  V30 4977 H 466.11 3.89103 2.60224 0
M  V30 4978 H 466.283 5.52279 3.38957 0
M  V30 4979 N 459.689 -1.00246 1.21608 0
M  V30 4980 C 460.639 -2.07492 0.945051 0
M  V30 4981 C 461.623 -1.60585 -0.100675 0
M  V30 4982 O 462.815 -1.76667 0.10859 0
M  V30 4983 C 459.944 -3.39425 0.514342 0
M  V30 4984 C 459.03 -3.92993 1.59428 0
M  V30 4985 N 459.421 -4.19898 2.81991 0
M  V30 4986 C 457.719 -4.21297 1.46374 0
M  V30 4987 C 458.42 -4.63297 3.51754 0
M  V30 4988 N 457.396 -4.66421 2.79199 0
M  V30 4989 H 461.198 -2.26222 1.87619 0
M  V30 4990 H 458.712 -1.18339 1.11219 0
M  V30 4991 H 460.709 -4.15808 0.301527 0
M  V30 4992 H 459.369 -3.22101 -0.410008 0
M  V30 4993 H 460.38 -4.08377 3.1851 0
M  V30 4994 H 457.057 -4.13095 0.604863 0
M  V30 4995 H 458.447 -4.92816 4.56708 0
M  V30 4996 N 461.167 -1.02423 -1.1978 0
M  V30 4997 C 462.099 -0.559152 -2.22275 0
M  V30 4998 C 463.112 0.36251 -1.58713 0
M  V30 4999 O 464.301 0.159641 -1.77785 0
M  V30 5000 C 461.401 0.205094 -3.38279 0
M  V30 5001 C 460.574 -0.720361 -4.31427 0
M  V30 5002 C 459.633 -0.00234368 -5.262 0
M  V30 5003 O 458.659 -0.627378 -5.65732 0
M  V30 5004 N 459.861 1.26996 -5.66438 0
M  V30 5005 H 462.626 -1.44064 -2.62804 0
M  V30 5006 H 460.187 -0.902692 -1.34399 0
M  V30 5007 H 462.179 0.694868 -3.9869 0
M  V30 5008 H 460.749 0.987947 -2.96578 0
M  V30 5009 H 459.969 -1.39031 -3.68869 0
M  V30 5010 H 461.257 -1.3495 -4.90577 0
M  V30 5011 H 460.655 1.79858 -5.36347 0
M  V30 5012 H 459.212 1.70432 -6.29123 0
M  V30 5013 N 462.645 1.35699 -0.801477 0
M  V30 5014 C 463.575 2.32436 -0.222658 0
M  V30 5015 C 464.556 1.5723 0.649057 0
M  V30 5016 O 465.741 1.85324 0.580387 0
M  V30 5017 C 462.871 3.41469 0.633719 0
M  V30 5018 C 461.825 4.27774 -0.139083 0
M  V30 5019 C 461.151 5.28082 0.838666 0
M  V30 5020 C 462.451 5.04946 -1.33517 0
M  V30 5021 H 464.145 2.81094 -1.03086 0
M  V30 5022 H 461.691 1.35146 -0.497155 0
M  V30 5023 H 463.644 4.08143 1.04868 0
M  V30 5024 H 462.368 2.91408 1.47475 0
M  V30 5025 H 461.027 3.62673 -0.535156 0
M  V30 5026 H 460.675 4.7429 1.67506 0
M  V30 5027 H 460.375 5.86695 0.32594 0
M  V30 5028 H 461.899 5.97628 1.25194 0
M  V30 5029 H 463.313 5.64593 -0.995349 0
M  V30 5030 H 461.71 5.7303 -1.78202 0
M  V30 5031 H 462.78 4.35886 -2.12442 0
M  V30 5032 N 464.123 0.554532 1.47522 0
M  V30 5033 C 465.033 -0.197865 2.33764 0
M  V30 5034 C 466.049 -0.914576 1.48025 0
M  V30 5035 O 467.225 -0.884067 1.80959 0
M  V30 5036 C 464.29 -1.21628 3.24665 0
M  V30 5037 C 463.351 -0.507283 4.26292 0
M  V30 5038 C 462.584 -1.47718 5.1285 0
M  V30 5039 O 462.807 -2.7118 5.01814 0
M  V30 5040 O 461.741 -1.00313 5.93482 0
M  V30 5041 H 465.567 0.50949 2.99396 0
M  V30 5042 H 463.152 0.315176 1.46038 0
M  V30 5043 H 465.034 -1.80421 3.80823 0
M  V30 5044 H 463.709 -1.9056 2.61665 0
M  V30 5045 H 462.616 0.121778 3.73902 0
M  V30 5046 H 463.949 0.140544 4.91999 0
M  V30 5047 N 465.601 -1.54893 0.290851 0
M  V30 5048 C 466.549 -2.24579 -0.605576 0
M  V30 5049 C 467.543 -1.24824 -1.14522 0
M  V30 5050 O 468.749 -1.42706 -1.09704 0
M  V30 5051 H 465.124 -0.720946 -0.213872 0
M  V30 5052 H 467.095 -2.984 0.0048173 0
M  V30 5053 C 465.844 -2.99224 -1.77088 0
M  V30 5054 H 465.167 -3.75782 -1.36484 0
M  V30 5055 H 466.607 -3.51281 -2.3744 0
M  V30 5056 C 465.066 -2.05602 -2.66888 0
M  V30 5057 O 465.596 -1.61745 -3.67698 0
M  V30 5058 N 463.802 -1.71771 -2.34399 0
M  V30 5059 H 463.349 -2.07633 -1.52468 0
M  V30 5060 H 463.307 -1.09403 -2.94751 0
M  V30 5061 N 467.08 -0.0183926 -1.57589 0
M  V30 5062 C 467.99 0.982943 -2.13015 0
M  V30 5063 C 469.006 1.36443 -1.07979 0
M  V30 5064 O 470.182 1.44802 -1.3998 0
M  V30 5065 C 467.247 2.25024 -2.63752 0
M  V30 5066 C 466.308 1.93018 -3.83461 0
M  V30 5067 C 465.541 3.13706 -4.31769 0
M  V30 5068 O 465.764 4.2601 -3.79305 0
M  V30 5069 O 464.698 2.96629 -5.23732 0
M  V30 5070 H 468.524 0.541709 -2.9883 0
M  V30 5071 H 466.109 0.201565 -1.48034 0
M  V30 5072 H 467.991 2.99441 -2.96502 0
M  V30 5073 H 466.666 2.68349 -1.81026 0
M  V30 5074 H 465.573 1.16019 -3.55655 0
M  V30 5075 H 466.906 1.54516 -4.67317 0
M  V30 5076 N 468.558 1.5553 0.254621 0
M  V30 5077 C 469.521 1.88872 1.29846 0
M  V30 5078 C 470.521 0.764591 1.41459 0
M  V30 5079 O 471.711 1.03265 1.40293 0
M  V30 5080 C 468.843 2.11032 2.67728 0
M  V30 5081 H 470.036 2.82201 1.01502 0
M  V30 5082 H 467.589 1.48303 0.493556 0
M  V30 5083 H 468.324 1.20146 3.01223 0
M  V30 5084 H 468.109 2.92895 2.60682 0
M  V30 5085 H 469.599 2.38038 3.43115 0
M  V30 5086 N 470.036 -0.519951 1.48776 0
M  V30 5087 C 471.284 -1.2727 1.56993 0
M  V30 5088 C 471.605 -1.9339 0.25004 0
M  V30 5089 O 470.875 -1.81822 -0.729216 0
M  V30 5090 H 469.455 -0.472732 0.578389 0
M  V30 5091 H 472.117 -0.604234 1.85297 0
M  V30 5092 H 471.213 -2.04669 2.3562 0
M  V30 5093 N 471.514 -1.37532 -0.769588 0
M  V30 5094 C 472.93 -1.18379 -1.07045 0
M  V30 5095 C 473.13 -0.0214312 -2.01489 0
M  V30 5096 O 472.186 0.637809 -2.44312 0
M  V30 5097 C 473.499 -2.50338 -1.66588 0
M  V30 5098 C 475.047 -2.56879 -1.78835 0
M  V30 5099 C 475.522 -3.88974 -2.41792 0
M  V30 5100 N 477.013 -3.90428 -2.4924 0
M  V30 5101 C 477.748 -4.89388 -2.98809 0
M  V30 5102 N 477.244 -5.98745 -3.48535 0
M  V30 5103 N 479.037 -4.76791 -2.97703 0
M  V30 5104 H 471.188 -2.11921 -0.142541 0
M  V30 5105 H 473.451 -0.939608 -0.125863 0
M  V30 5106 H 473.157 -3.35767 -1.0466 0
M  V30 5107 H 473.031 -2.67583 -2.65856 0
M  V30 5108 H 475.418 -1.71856 -2.39895 0
M  V30 5109 H 475.499 -2.43516 -0.783166 0
M  V30 5110 H 475.143 -4.74412 -1.81371 0
M  V30 5111 H 475.073 -3.99641 -3.4292 0
M  V30 5112 H 477.564 -3.11433 -2.14052 0
M  V30 5113 H 477.877 -6.70205 -3.84767 0
M  V30 5114 H 476.222 -6.02387 -3.46634 0
M  V30 5115 H 479.413 -3.90478 -2.58157 0
M  V30 5116 H 479.586 -5.54069 -3.36024 0
M  V30 5117 N 472.992 0.995999 -1.22138 0
M  V30 5118 C 474.241 1.72928 -1.03821 0
M  V30 5119 C 474.554 1.90872 0.427444 0
M  V30 5120 O 475.76 2.61496 0.730212 0
M  V30 5121 C 474.216 3.11124 -1.80913 0
M  V30 5122 C 473.824 3.01122 -3.31707 0
M  V30 5123 C 475.568 3.8852 -1.71035 0
M  V30 5124 C 473.475 4.34453 -4.01253 0
M  V30 5125 H 472.405 0.648376 -0.384869 0
M  V30 5126 H 475.056 1.11213 -1.45959 0
M  V30 5127 H 473.438 3.73503 -1.31573 0
M  V30 5128 H 474.612 2.47926 -3.88419 0
M  V30 5129 H 472.927 2.3721 -3.42228 0
M  V30 5130 H 475.524 4.872 -2.20318 0
M  V30 5131 H 475.867 4.1087 -0.670196 0
M  V30 5132 H 476.4 3.32812 -2.17902 0
M  V30 5133 H 473.139 4.17303 -5.05508 0
M  V30 5134 H 472.659 4.87574 -3.49331 0
M  V30 5135 H 474.338 5.03215 -4.06674 0
M  V30 5136 N 474.47 1.03057 1.19235 0
M  V30 5137 C 475.418 0.606391 2.24557 0
M  V30 5138 C 476.412 -0.361826 1.65491 0
M  V30 5139 O 477.618 -0.23022 1.78522 0
M  V30 5140 H 473.993 0.177838 0.730669 0
M  V30 5141 H 475.964 1.50529 2.5765 0
M  V30 5142 C 474.713 -0.0252127 3.47691 0
M  V30 5143 H 474.036 0.710838 3.9343 0
M  V30 5144 H 475.476 -0.284931 4.23042 0
M  V30 5145 C 473.935 -1.27229 3.11953 0
M  V30 5146 O 474.465 -2.36416 3.24762 0
M  V30 5147 N 472.671 -1.16169 2.6637 0
M  V30 5148 H 472.218 -0.273189 2.56147 0
M  V30 5149 H 472.176 -1.99703 2.42829 0
M  V30 5150 N 475.948 -1.35272 0.808662 0
M  V30 5151 C 477.196 -1.98316 0.389233 0
M  V30 5152 C 477.517 -1.64465 -1.04767 0
M  V30 5153 O 476.787 -0.928175 -1.72516 0
M  V30 5154 H 475.367 -0.733585 0.140935 0
M  V30 5155 H 478.029 -1.6515 1.03496 0
M  V30 5156 H 477.125 -3.08123 0.496631 0
M  V30 5157 N 477.426 -0.562348 -1.47226 0
M  V30 5158 C 478.373 0.182461 -2.30078 0
M  V30 5159 C 479.343 0.903503 -1.39377 0
M  V30 5160 O 480.528 0.898188 -1.68337 0
M  V30 5161 C 477.668 1.20322 -3.23445 0
M  V30 5162 C 476.781 0.487717 -4.29238 0
M  V30 5163 C 475.916 1.49422 -5.09752 0
M  V30 5164 C 474.955 0.763976 -6.07314 0
M  V30 5165 N 474.092 1.71755 -6.80768 0
M  V30 5166 H 478.932 -0.530169 -2.93246 0
M  V30 5167 H 476.469 -0.273276 -1.44539 0
M  V30 5168 H 478.427 1.80768 -3.76004 0
M  V30 5169 H 477.057 1.88382 -2.6213 0
M  V30 5170 H 476.109 -0.231374 -3.79696 0
M  V30 5171 H 477.421 -0.0841003 -4.98729 0
M  V30 5172 H 476.575 2.17206 -5.66486 0
M  V30 5173 H 475.314 2.09995 -4.40174 0
M  V30 5174 H 474.319 0.0722344 -5.49753 0
M  V30 5175 H 475.544 0.16391 -6.78902 0
M  V30 5176 H 473.49 2.31177 -6.13916 0
M  V30 5177 H 473.407 1.19802 -7.46447 0
M  V30 5178 H 474.675 2.38638 -7.42073 0
M  V30 5179 N 478.904 1.54736 -0.299062 0
M  V30 5180 C 480.134 2.04215 0.312992 0
M  V30 5181 C 480.542 1.17596 1.48215 0
M  V30 5182 O 479.885 0.193835 1.82674 0
M  V30 5183 C 479.947 3.49696 0.833862 0
M  V30 5184 C 479.611 4.56518 -0.20977 0
M  V30 5185 C 480.608 5.09442 -1.03756 0
M  V30 5186 C 478.293 5.01073 -0.35091 0
M  V30 5187 C 480.287 6.05459 -1.99244 0
M  V30 5188 C 477.974 5.9691 -1.30924 0
M  V30 5189 C 478.972 6.48987 -2.1285 0
M  V30 5190 O 478.66 7.42947 -3.07059 0
M  V30 5191 H 478.392 0.672128 0.0722494 0
M  V30 5192 H 480.946 2.00718 -0.436043 0
M  V30 5193 H 479.176 3.5051 1.63339 0
M  V30 5194 H 480.865 3.82381 1.36159 0
M  V30 5195 H 481.631 4.75816 -0.939376 0
M  V30 5196 H 477.51 4.60168 0.276813 0
M  V30 5197 H 481.054 6.46031 -2.63229 0
M  V30 5198 H 476.951 6.29953 -1.40815 0
M  V30 5199 H 477.719 7.60743 -3.02015 0
M  V30 5200 N 480.382 0.0267497 1.57577 0
M  V30 5201 C 481.63 -0.651116 1.91324 0
M  V30 5202 C 481.951 -1.72804 0.90353 0
M  V30 5203 O 481.221 -1.95822 -0.0552946 0
M  V30 5204 H 479.801 -0.243491 0.706202 0
M  V30 5205 H 482.463 0.0739935 1.94759 0
M  V30 5206 H 481.559 -1.10536 2.9187 0
M  V30 5207 N 481.861 -1.55662 -0.24637 0
M  V30 5208 C 482.793 -1.86811 -1.32794 0
M  V30 5209 C 483.806 -0.754413 -1.44265 0
M  V30 5210 O 484.995 -1.03253 -1.45606 0
M  V30 5211 C 482.095 -2.0397 -2.70646 0
M  V30 5212 C 481.268 -3.34832 -2.81436 0
M  V30 5213 C 480.327 -3.41727 -4.00136 0
M  V30 5214 O 479.353 -4.14934 -3.89639 0
M  V30 5215 N 480.555 -2.71058 -5.1333 0
M  V30 5216 H 483.32 -2.80174 -1.06409 0
M  V30 5217 H 480.881 -1.55906 -0.43647 0
M  V30 5218 H 482.873 -2.05924 -3.48393 0
M  V30 5219 H 481.443 -1.1735 -2.89738 0
M  V30 5220 H 480.663 -3.4519 -1.90361 0
M  V30 5221 H 481.951 -4.21085 -2.85595 0
M  V30 5222 H 481.349 -2.11314 -5.2475 0
M  V30 5223 H 479.906 -2.78704 -5.89209 0
M  V30 5224 N 483.339 0.512053 -1.4905 0
M  V30 5225 C 484.269 1.62365 -1.67809 0
M  V30 5226 C 485.25 1.61737 -0.526809 0
M  V30 5227 O 486.435 1.78651 -0.761404 0
M  V30 5228 C 483.565 3.00895 -1.73435 0
M  V30 5229 C 482.519 3.16387 -2.88242 0
M  V30 5230 C 481.845 4.56157 -2.78971 0
M  V30 5231 C 483.145 2.97457 -4.29321 0
M  V30 5232 H 484.839 1.46921 -2.60873 0
M  V30 5233 H 482.385 0.705379 -1.2554 0
M  V30 5234 H 484.338 3.78549 -1.85145 0
M  V30 5235 H 483.062 3.17403 -0.769619 0
M  V30 5236 H 481.721 2.41155 -2.76116 0
M  V30 5237 H 481.369 4.69525 -1.8043 0
M  V30 5238 H 481.069 4.67465 -3.5602 0
M  V30 5239 H 482.593 5.35886 -2.92675 0
M  V30 5240 H 484.007 3.64888 -4.42187 0
M  V30 5241 H 482.404 3.20245 -5.07507 0
M  V30 5242 H 483.474 1.93692 -4.44535 0
M  V30 5243 N 484.817 1.37938 0.762283 0
M  V30 5244 C 486.065 1.33404 1.51815 0
M  V30 5245 C 486.386 -0.0780975 1.94844 0
M  V30 5246 O 485.656 -1.02405 1.67003 0
M  V30 5247 H 484.236 0.490839 0.563104 0
M  V30 5248 H 486.898 1.72527 0.906669 0
M  V30 5249 H 485.994 1.97926 2.41313 0
M  V30 5250 N 486.295 -0.989507 1.22664 0
M  V30 5251 C 487.541 -1.73298 1.06487 0
M  V30 5252 C 487.896 -1.88292 -0.395438 0
M  V30 5253 O 487.189 -1.41748 -1.28911 0
M  V30 5254 C 487.383 -3.13649 1.71345 0
M  V30 5255 C 487.212 -3.12341 3.23532 0
M  V30 5256 C 485.982 -3.18044 3.92653 0
M  V30 5257 C 488.18 -2.96226 4.20422 0
M  V30 5258 N 486.162 -3.06526 5.31898 0
M  V30 5259 C 487.533 -2.92773 5.4652 0
M  V30 5260 C 489.588 -2.80642 4.11271 0
M  V30 5261 C 488.291 -2.75332 6.64519 0
M  V30 5262 C 490.317 -2.64563 5.28924 0
M  V30 5263 C 489.679 -2.618 6.53942 0
M  V30 5264 H 485.778 -0.643643 0.444126 0
M  V30 5265 H 488.362 -1.17489 1.55256 0
M  V30 5266 H 486.533 -3.67694 1.25122 0
M  V30 5267 H 488.265 -3.76577 1.48229 0
M  V30 5268 H 485.02 -3.25861 3.43673 0
M  V30 5269 H 485.444 -3.04067 6.04874 0
M  V30 5270 H 490.086 -2.81574 3.15398 0
M  V30 5271 H 487.804 -2.73145 7.60538 0
M  V30 5272 H 491.39 -2.53482 5.23677 0
M  V30 5273 H 490.27 -2.49511 7.43447 0
M  V30 5274 N 487.773 -1.03688 -1.18687 0
M  V30 5275 C 489.001 -0.757918 -1.92518 0
M  V30 5276 C 489.416 0.684398 -1.75959 0
M  V30 5277 O 488.773 1.46617 -1.08673 0
M  V30 5278 C 488.824 -1.10985 -3.44042 0
M  V30 5279 O 488.545 -2.49554 -3.60076 0
M  V30 5280 C 490.046 -0.854844 -4.3498 0
M  V30 5281 H 487.266 -0.276699 -0.611293 0
M  V30 5282 H 489.81 -1.38352 -1.50595 0
M  V30 5283 H 487.965 -0.529279 -3.83767 0
M  V30 5284 H 488.379 -2.6291 -4.53849 0
M  V30 5285 H 489.853 -1.15098 -5.39867 0
M  V30 5286 H 490.33 0.210507 -4.38695 0
M  V30 5287 H 490.936 -1.41853 -4.00946 0
M  V30 5288 N 489.251 1.34841 -0.815825 0
M  V30 5289 C 490.662 1.80937 -0.46029 0
M  V30 5290 C 491.013 1.67685 1.01863 0
M  V30 5291 O 490.138 1.21277 1.79223 0
M  V30 5292 C 490.733 3.28509 -0.828708 0
M  V30 5293 C 489.292 3.72712 -0.525644 0
M  V30 5294 C 488.439 2.56676 -1.04941 0
M  V30 5295 H 491.39 1.22688 -1.00664 0
M  V30 5296 H 491.411 3.80279 -0.129757 0
M  V30 5297 H 490.923 3.38122 -1.90513 0
M  V30 5298 H 489.024 3.68642 0.541666 0
M  V30 5299 H 489.137 4.67119 -1.06474 0
M  V30 5300 H 487.501 2.50302 -0.471286 0
M  V30 5301 H 488.284 2.69063 -2.13214 0
M  V30 5302 N 490.729 0.570148 1.46925 0
M  V30 5303 C 491.659 -0.158274 2.32963 0
M  V30 5304 C 492.64 -0.896093 1.44583 0
M  V30 5305 O 493.825 -0.874022 1.7342 0
M  V30 5306 C 490.955 -1.18055 3.26619 0
M  V30 5307 C 489.909 -0.558379 4.24342 0
M  V30 5308 C 489.235 -1.68623 5.07415 0
M  V30 5309 C 490.535 0.496295 5.19937 0
M  V30 5310 H 492.229 0.560046 2.94115 0
M  V30 5311 H 489.775 0.270775 1.41431 0
M  V30 5312 H 491.728 -1.69841 3.85658 0
M  V30 5313 H 490.452 -1.92899 2.63548 0
M  V30 5314 H 489.111 -0.0617157 3.66548 0
M  V30 5315 H 488.759 -2.42402 4.40738 0
M  V30 5316 H 488.459 -1.27564 5.73586 0
M  V30 5317 H 489.983 -2.20709 5.69315 0
M  V30 5318 H 491.397 0.0640052 5.73264 0
M  V30 5319 H 489.794 0.82649 5.94381 0
M  V30 5320 H 490.864 1.38735 4.6463 0
M  V30 5321 N 492.207 -1.54576 0.307264 0
M  V30 5322 C 493.437 -2.04378 -0.302158 0
M  V30 5323 C 493.845 -1.18381 -1.47589 0
M  V30 5324 O 493.188 -0.20352 -1.82569 0
M  V30 5325 C 493.25 -3.50133 -0.815305 0
M  V30 5326 C 492.914 -4.56401 0.233977 0
M  V30 5327 C 493.911 -5.08884 1.06456 0
M  V30 5328 C 491.596 -5.0088 0.377478 0
M  V30 5329 C 493.59 -6.04394 2.02452 0
M  V30 5330 C 491.277 -5.96208 1.34088 0
M  V30 5331 C 492.275 -6.47849 2.16288 0
M  V30 5332 O 491.963 -7.41308 3.10994 0
M  V30 5333 H 491.695 -0.672502 -0.0686839 0
M  V30 5334 H 494.249 -2.00484 0.446682 0
M  V30 5335 H 492.479 -3.51371 -1.61478 0
M  V30 5336 H 494.168 -3.83098 -1.34129 0
M  V30 5337 H 494.934 -4.75311 0.964596 0
M  V30 5338 H 490.813 -4.60309 -0.252405 0
M  V30 5339 H 494.357 -6.44626 2.66652 0
M  V30 5340 H 490.254 -6.29198 1.44154 0
M  V30 5341 H 491.022 -7.5913 3.06045 0
M  V30 5342 N 493.685 -0.035106 -1.57561 0
M  V30 5343 C 494.915 0.651312 -1.96065 0
M  V30 5344 C 495.323 1.6585 -0.910514 0
M  V30 5345 O 494.666 1.83336 0.11552 0
M  V30 5346 C 494.728 1.40897 -3.30739 0
M  V30 5347 C 494.392 0.559436 -4.53563 0
M  V30 5348 C 495.389 -0.16778 -5.19629 0
M  V30 5349 C 493.074 0.495079 -4.99854 0
M  V30 5350 C 495.068 -0.947963 -6.30311 0
M  V30 5351 C 492.755 -0.288804 -6.10417 0
M  V30 5352 C 493.753 -1.00903 -6.75505 0
M  V30 5353 O 493.441 -1.78005 -7.83945 0
M  V30 5354 H 493.173 0.184036 -0.650467 0
M  V30 5355 H 495.727 -0.0929677 -2.05189 0
M  V30 5356 H 493.957 2.19852 -3.18123 0
M  V30 5357 H 495.646 1.98407 -3.54104 0
M  V30 5358 H 496.412 -0.12743 -4.84833 0
M  V30 5359 H 492.291 1.04524 -4.48994 0
M  V30 5360 H 495.835 -1.51064 -6.81047 0
M  V30 5361 H 491.732 -0.33085 -6.44652 0
M  V30 5362 H 492.5 -1.70046 -8.00641 0
M  V30 5363 N 495.163 1.55791 0.238111 0
M  V30 5364 C 496.093 1.94068 1.29846 0
M  V30 5365 C 497.074 0.806726 1.49753 0
M  V30 5366 O 498.259 1.06772 1.62214 0
M  V30 5367 C 495.389 2.24302 2.65153 0
M  V30 5368 C 494.343 3.40032 2.59927 0
M  V30 5369 C 493.669 3.55829 3.99111 0
M  V30 5370 C 494.969 4.75476 2.16148 0
M  V30 5371 H 496.663 2.82887 0.980563 0
M  V30 5372 H 494.209 1.36105 0.470253 0
M  V30 5373 H 496.162 2.4967 3.39475 0
M  V30 5374 H 494.886 1.32318 2.98596 0
M  V30 5375 H 493.545 3.14687 1.88063 0
M  V30 5376 H 493.193 2.6125 4.29834 0
M  V30 5377 H 492.893 4.3366 3.96501 0
M  V30 5378 H 494.417 3.83528 4.7512 0
M  V30 5379 H 495.831 5.00158 2.80205 0
M  V30 5380 H 494.228 5.56472 2.24631 0
M  V30 5381 H 495.298 4.71946 1.11333 0
M  V30 5382 N 496.642 -0.504142 1.49319 0
M  V30 5383 C 497.59 -1.62689 1.66238 0
M  V30 5384 C 498.584 -1.6095 0.528349 0
M  V30 5385 O 499.79 -1.65496 0.707887 0
M  V30 5386 H 496.165 -0.539247 0.524134 0
M  V30 5387 H 498.136 -1.45571 2.60484 0
M  V30 5388 C 496.885 -3.00841 1.74328 0
M  V30 5389 H 496.208 -3.02884 2.60963 0
M  V30 5390 H 497.648 -3.78945 1.90202 0
M  V30 5391 C 496.107 -3.33355 0.487416 0
M  V30 5392 O 496.637 -3.99819 -0.388294 0
M  V30 5393 N 494.843 -2.88469 0.351306 0
M  V30 5394 H 494.39 -2.34557 1.06492 0
M  V30 5395 H 494.348 -3.10591 -0.487899 0
M  V30 5396 N 498.12 -1.38341 -0.754957 0
M  V30 5397 C 499.052 -1.31347 -1.87831 0
M  V30 5398 C 500.065 -0.225955 -1.61224 0
M  V30 5399 O 501.254 -0.48341 -1.7183 0
M  V30 5400 C 498.354 -1.01201 -3.23437 0
M  V30 5401 C 497.527 -2.20834 -3.77559 0
M  V30 5402 C 496.586 -1.87454 -4.91678 0
M  V30 5403 O 495.612 -2.59934 -5.06382 0
M  V30 5404 N 496.814 -0.828682 -5.74555 0
M  V30 5405 H 499.579 -2.28147 -1.94342 0
M  V30 5406 H 497.14 -1.32184 -0.934828 0
M  V30 5407 H 499.132 -0.769249 -3.97322 0
M  V30 5408 H 497.702 -0.132011 -3.12321 0
M  V30 5409 H 496.922 -2.61184 -2.95256 0
M  V30 5410 H 498.21 -3.00678 -4.10451 0
M  V30 5411 H 497.608 -0.227591 -5.65242 0
M  V30 5412 H 496.165 -0.645802 -6.48593 0
M  V30 5413 N 499.598 0.982988 -1.23187 0
M  V30 5414 C 500.548 2.05962 -0.977942 0
M  V30 5415 C 501.532 1.60725 0.0751148 0
M  V30 5416 O 502.724 1.76471 -0.136683 0
M  V30 5417 C 499.853 3.38564 -0.568276 0
M  V30 5418 C 498.939 3.90407 -1.6566 0
M  V30 5419 N 499.33 4.15359 -2.88635 0
M  V30 5420 C 497.628 4.18915 -1.53058 0
M  V30 5421 C 498.329 4.57642 -3.5908 0
M  V30 5422 N 497.305 4.6192 -2.86584 0
M  V30 5423 H 501.107 2.23208 -1.91195 0
M  V30 5424 H 498.621 1.16555 -1.13087 0
M  V30 5425 H 500.618 4.15276 -0.36764 0
M  V30 5426 H 499.278 3.22712 0.358713 0
M  V30 5427 H 500.289 4.03258 -3.24966 0
M  V30 5428 H 496.966 4.12081 -0.670506 0
M  V30 5429 H 498.356 4.85488 -4.6449 0
M  V30 5430 N 501.076 1.04316 1.18135 0
M  V30 5431 C 502.323 0.74802 1.88178 0
M  V30 5432 C 502.651 -0.72441 1.80506 0
M  V30 5433 O 501.906 -1.54463 1.20165 0
M  V30 5434 C 502.205 1.16271 3.37958 0
M  V30 5435 C 501.871 2.63585 3.65833 0
M  V30 5436 C 500.533 3.03829 3.73151 0
M  V30 5437 C 502.885 3.58822 3.78016 0
M  V30 5438 C 500.213 4.38194 3.90132 0
M  V30 5439 C 502.565 4.92909 3.96514 0
M  V30 5440 C 501.229 5.3282 4.02068 0
M  V30 5441 H 500.499 0.27372 0.688592 0
M  V30 5442 H 503.146 1.30863 1.39811 0
M  V30 5443 H 501.451 0.520938 3.88321 0
M  V30 5444 H 503.148 0.911672 3.90499 0
M  V30 5445 H 499.738 2.31414 3.60757 0
M  V30 5446 H 503.922 3.28875 3.71692 0
M  V30 5447 H 499.178 4.68631 3.92677 0
M  V30 5448 H 503.352 5.66606 4.04883 0
M  V30 5449 H 500.979 6.36943 4.14979 0
M  V30 5450 N 502.554 -1.34406 0.822964 0
M  V30 5451 C 503.831 -1.92733 0.333641 0
M  V30 5452 C 504.211 -1.75107 -1.17901 0
M  V30 5453 O 503.559 -1.12983 -1.98613 0
M  V30 5454 C 503.769 -3.40557 0.763023 0
M  V30 5455 C 505.117 -4.17709 0.761879 0
M  V30 5456 O 506.141 -3.49141 0.705606 0
M  V30 5457 O 505 -5.40082 0.835109 0
M  V30 5458 H 502.094 -0.821964 0.0911249 0
M  V30 5459 H 504.64 -1.4338 0.907757 0
M  V30 5460 H 503.412 -3.47187 1.8049 0
M  V30 5461 H 503.035 -3.97259 0.164605 0
M  V30 5462 N 504.032 -0.577932 -1.46621 0
M  V30 5463 C 505.448 -0.239242 -1.57797 0
M  V30 5464 C 505.648 1.25843 -1.57371 0
M  V30 5465 O 504.704 2.03988 -1.48813 0
M  V30 5466 C 506.017 -0.884227 -2.87405 0
M  V30 5467 C 507.565 -0.857373 -3.01028 0
M  V30 5468 C 508.04 -1.48181 -4.33366 0
M  V30 5469 N 509.531 -1.44593 -4.40053 0
M  V30 5470 C 510.266 -1.89852 -5.41058 0
M  V30 5471 N 509.762 -2.43062 -6.48762 0
M  V30 5472 N 511.555 -1.80797 -5.3223 0
M  V30 5473 H 503.706 -1.55073 -1.45142 0
M  V30 5474 H 505.969 -0.647903 -0.692044 0
M  V30 5475 H 505.675 -1.93759 -2.93514 0
M  V30 5476 H 505.549 -0.389585 -3.75183 0
M  V30 5477 H 507.936 0.187357 -2.94505 0
M  V30 5478 H 508.017 -1.38999 -2.14739 0
M  V30 5479 H 507.661 -2.52572 -4.40647 0
M  V30 5480 H 507.591 -0.924464 -5.18422 0
M  V30 5481 H 510.082 -1.05694 -3.62819 0
M  V30 5482 H 510.395 -2.75466 -7.22038 0
M  V30 5483 H 508.74 -2.47085 -6.49595 0
M  V30 5484 H 511.931 -1.38989 -4.46989 0
M  V30 5485 H 512.104 -2.16385 -6.10804 0
M  V30 5486 N 505.51 1.54411 -0.315457 0
M  V30 5487 C 506.457 2.24048 0.554166 0
M  V30 5488 C 507.427 1.2283 1.11812 0
M  V30 5489 O 508.612 1.51491 1.15997 0
M  V30 5490 C 505.752 2.99574 1.71316 0
M  V30 5491 C 504.865 4.15594 1.17922 0
M  V30 5492 C 504 4.78669 2.30324 0
M  V30 5493 C 503.039 5.86807 1.74137 0
M  V30 5494 N 502.176 6.43777 2.8017 0
M  V30 5495 H 507.016 2.97964 -0.0462602 0
M  V30 5496 H 504.553 1.47059 -0.0346009 0
M  V30 5497 H 506.511 3.41604 2.39505 0
M  V30 5498 H 505.141 2.28008 2.285 0
M  V30 5499 H 504.193 3.78404 0.389136 0
M  V30 5500 H 505.505 4.93459 0.728012 0
M  V30 5501 H 504.659 5.23626 3.06433 0
M  V30 5502 H 503.398 4.00168 2.78778 0
M  V30 5503 H 502.403 5.41261 0.965236 0
M  V30 5504 H 503.628 6.67201 1.2657 0
M  V30 5505 H 501.574 5.68153 3.2793 0
M  V30 5506 H 501.491 7.17031 2.39588 0
M  V30 5507 H 502.759 6.9339 3.56132 0
M  V30 5508 N 506.988 0.0434614 1.5754 0
M  V30 5509 C 507.918 -0.931651 2.14109 0
M  V30 5510 C 508.899 -1.32971 1.06079 0
M  V30 5511 O 510.084 -1.40579 1.33982 0
M  V30 5512 C 507.214 -2.20914 2.67982 0
M  V30 5513 C 506.168 -1.95139 3.80926 0
M  V30 5514 C 505.494 -3.29276 4.21285 0
M  V30 5515 C 506.794 -1.27913 5.06395 0
M  V30 5516 H 508.488 -0.460497 2.95837 0
M  V30 5517 H 506.034 -0.220058 1.42309 0
M  V30 5518 H 507.987 -2.89522 3.06194 0
M  V30 5519 H 506.711 -2.70221 1.83434 0
M  V30 5520 H 505.37 -1.28945 3.43175 0
M  V30 5521 H 505.018 -3.76369 3.33699 0
M  V30 5522 H 504.718 -3.12831 4.97404 0
M  V30 5523 H 506.242 -3.99129 4.62091 0
M  V30 5524 H 507.656 -1.86544 5.42102 0
M  V30 5525 H 506.053 -1.2182 5.87605 0
M  V30 5526 H 507.123 -0.254066 4.84234 0
M  V30 5527 N 508.466 -1.55915 -0.229846 0
M  V30 5528 C 509.396 -1.94754 -1.28815 0
M  V30 5529 C 510.377 -0.814657 -1.49323 0
M  V30 5530 O 511.562 -1.07631 -1.61645 0
M  V30 5531 C 508.692 -2.25705 -2.63959 0
M  V30 5532 C 507.646 -3.41406 -2.5812 0
M  V30 5533 C 506.972 -3.57941 -3.97218 0
M  V30 5534 C 508.272 -4.76616 -2.13623 0
M  V30 5535 H 509.966 -2.83404 -0.965547 0
M  V30 5536 H 507.512 -1.36353 -0.463028 0
M  V30 5537 H 509.465 -2.51467 -3.38146 0
M  V30 5538 H 508.189 -1.339 -2.9789 0
M  V30 5539 H 506.848 -3.1568 -1.86391 0
M  V30 5540 H 506.496 -2.63526 -4.28443 0
M  V30 5541 H 506.196 -4.35757 -3.94195 0
M  V30 5542 H 507.72 -3.86042 -4.73079 0
M  V30 5543 H 509.134 -5.01637 -2.77549 0
M  V30 5544 H 507.531 -5.57655 -2.21677 0
M  V30 5545 H 508.601 -4.7253 -1.08829 0
M  V30 5546 N 509.944 0.496216 -1.49584 0
M  V30 5547 C 510.877 1.61508 -1.61215 0
M  V30 5548 C 511.855 1.55927 -0.461045 0
M  V30 5549 O 513.039 1.75914 -0.677231 0
M  V30 5550 C 510.166 3.00035 -1.57152 0
M  V30 5551 C 509.212 3.23861 -2.77518 0
M  V30 5552 S 510.045 3.06466 -4.39134 0
M  V30 5553 C 511.201 4.4738 -4.37724 0
M  V30 5554 H 511.434 1.51398 -2.55863 0
M  V30 5555 H 508.967 0.681727 -1.38535 0
M  V30 5556 H 510.925 3.7991 -1.55494 0
M  V30 5557 H 509.586 3.07556 -0.637834 0
M  V30 5558 H 508.779 4.25 -2.70908 0
M  V30 5559 H 508.381 2.51716 -2.76614 0
M  V30 5560 H 510.673 5.39556 -4.09738 0
M  V30 5561 H 511.616 4.59038 -5.39156 0
M  V30 5562 H 512.024 4.28283 -3.67742 0
M  V30 5563 N 511.423 1.38739 0.74761 0
M  V30 5564 C 512.37 1.36449 1.86146 0
M  V30 5565 C 513.34 0.226098 1.64554 0
M  V30 5566 O 514.525 0.41926 1.86137 0
M  V30 5567 C 511.665 1.2013 3.23516 0
M  V30 5568 C 510.778 2.43407 3.56899 0
M  V30 5569 C 509.913 2.19773 4.83605 0
M  V30 5570 C 508.952 3.3879 5.09792 0
M  V30 5571 N 508.089 3.14553 6.27695 0
M  V30 5572 H 512.929 2.3167 1.87438 0
M  V30 5573 H 510.466 1.15094 0.916063 0
M  V30 5574 H 512.424 1.08683 4.02795 0
M  V30 5575 H 511.054 0.285453 3.21535 0
M  V30 5576 H 510.106 2.65504 2.72418 0
M  V30 5577 H 511.418 3.32094 3.72176 0
M  V30 5578 H 510.572 2.05496 5.70838 0
M  V30 5579 H 509.311 1.28461 4.70478 0
M  V30 5580 H 508.316 3.53579 4.21025 0
M  V30 5581 H 509.541 4.30986 5.24812 0
M  V30 5582 H 507.487 2.25893 6.1588 0
M  V30 5583 H 507.404 3.96791 6.435 0
M  V30 5584 H 508.672 3.03943 7.17801 0
M  V30 5585 N 512.901 -0.976442 1.23707 0
M  V30 5586 C 514.15 -1.71254 1.06559 0
M  V30 5587 C 514.463 -1.91528 -0.397024 0
M  V30 5588 O 515.669 -2.62625 -0.688518 0
M  V30 5589 C 514.125 -3.08207 1.8584 0
M  V30 5590 C 513.733 -2.95806 3.36456 0
M  V30 5591 C 515.477 -3.85749 1.77194 0
M  V30 5592 C 513.384 -4.28015 4.08114 0
M  V30 5593 H 512.314 -0.642171 0.395136 0
M  V30 5594 H 514.965 -1.08877 1.4771 0
M  V30 5595 H 513.347 -3.71363 1.37498 0
M  V30 5596 H 514.521 -2.41716 3.92314 0
M  V30 5597 H 512.836 -2.31736 3.45959 0
M  V30 5598 H 515.433 -4.83633 2.28041 0
M  V30 5599 H 515.776 -4.09752 0.735477 0
M  V30 5600 H 516.309 -3.29303 2.23169 0
M  V30 5601 H 513.048 -4.09208 5.12083 0
M  V30 5602 H 512.568 -4.81955 3.57043 0
M  V30 5603 H 514.247 -4.96681 4.14629 0
M  V30 5604 N 514.379 -1.04941 -1.1758 0
M  V30 5605 C 515.626 -0.757989 -1.87779 0
M  V30 5606 C 515.954 0.714827 -1.80888 0
M  V30 5607 O 515.209 1.53824 -1.20982 0
M  V30 5608 C 515.508 -1.18062 -3.37337 0
M  V30 5609 C 515.174 -2.65521 -3.6443 0
M  V30 5610 C 513.836 -3.05804 -3.71534 0
M  V30 5611 C 516.188 -3.60822 -3.76108 0
M  V30 5612 C 513.516 -4.40256 -3.87803 0
M  V30 5613 C 515.868 -4.95005 -3.93895 0
M  V30 5614 C 514.532 -5.34945 -3.99237 0
M  V30 5615 H 513.802 -0.277368 -0.68713 0
M  V30 5616 H 516.449 -1.31603 -1.39115 0
M  V30 5617 H 514.754 -0.541525 -3.8804 0
M  V30 5618 H 516.451 -0.932368 -3.9001 0
M  V30 5619 H 513.041 -2.33324 -3.59524 0
M  V30 5620 H 517.225 -3.30841 -3.69943 0
M  V30 5621 H 512.481 -4.70707 -3.90186 0
M  V30 5622 H 516.655 -5.68746 -4.01872 0
M  V30 5623 H 514.282 -6.39135 -4.11596 0
M  V30 5624 N 515.857 1.33968 -0.830081 0
M  V30 5625 C 517.273 1.51003 -0.516742 0
M  V30 5626 C 517.473 1.77286 0.957694 0
M  V30 5627 O 516.529 1.82797 1.74188 0
M  V30 5628 C 517.842 2.67036 -1.38247 0
M  V30 5629 C 519.39 2.80919 -1.38034 0
M  V30 5630 C 519.865 4.00004 -2.23071 0
M  V30 5631 N 521.356 4.07224 -2.20733 0
M  V30 5632 C 522.091 4.98541 -2.83275 0
M  V30 5633 N 521.587 5.95033 -3.54835 0
M  V30 5634 N 523.38 4.91469 -2.72791 0
M  V30 5635 H 515.531 1.15168 -1.78466 0
M  V30 5636 H 517.794 0.565443 -0.760906 0
M  V30 5637 H 517.5 2.54266 -2.42985 0
M  V30 5638 H 517.374 3.62226 -1.05225 0
M  V30 5639 H 519.761 2.93127 -0.340713 0
M  V30 5640 H 519.842 1.86517 -1.75057 0
M  V30 5641 H 519.486 3.88557 -3.27087 0
M  V30 5642 H 519.416 4.93634 -1.83394 0
M  V30 5643 H 521.907 3.38162 -1.68687 0
M  V30 5644 H 522.22 6.61357 -3.99784 0
M  V30 5645 H 520.565 5.95135 -3.58942 0
M  V30 5646 H 523.756 4.15048 -2.16456 0
M  V30 5647 H 523.929 5.62439 -3.21818 0
M  V30 5648 N 517.335 0.585699 1.46312 0
M  V30 5649 C 518.565 0.0780166 2.06453 0
M  V30 5650 C 518.973 -1.2336 1.43454 0
M  V30 5651 O 518.316 -1.75734 0.535086 0
M  V30 5652 C 518.378 -0.158951 3.59148 0
M  V30 5653 C 518.042 1.06752 4.44357 0
M  V30 5654 C 519.039 1.98031 4.80708 0
M  V30 5655 C 516.724 1.2902 4.85447 0
M  V30 5656 C 518.718 3.09924 5.5698 0
M  V30 5657 C 516.405 2.41218 5.61478 0
M  V30 5658 C 517.403 3.31499 5.97158 0
M  V30 5659 O 517.091 4.41747 6.71651 0
M  V30 5660 H 516.823 0.0558894 0.673686 0
M  V30 5661 H 519.377 0.806994 1.88883 0
M  V30 5662 H 517.607 -0.942575 3.75037 0
M  V30 5663 H 519.296 -0.615513 4.01206 0
M  V30 5664 H 520.062 1.82043 4.49539 0
M  V30 5665 H 515.941 0.596567 4.57124 0
M  V30 5666 H 519.485 3.80415 5.84748 0
M  V30 5667 H 515.382 2.57167 5.9206 0
M  V30 5668 H 516.15 4.40152 6.90079 0
M  V30 5669 N 518.813 -1.54241 0.323641 0
M  V30 5670 C 520.038 -2.05452 -0.283605 0
M  V30 5671 C 520.463 -1.19823 -1.44997 0
M  V30 5672 O 519.821 -0.207358 -1.8011 0
M  V30 5673 C 519.869 -3.53823 -0.695795 0
M  V30 5674 O 518.973 -3.71134 -1.79815 0
M  V30 5675 H 518.314 -0.662024 -0.0511917 0
M  V30 5676 H 520.844 -1.99079 0.472073 0
M  V30 5677 H 520.854 -3.96094 -0.978434 0
M  V30 5678 H 519.529 -4.15602 0.157287 0
M  V30 5679 H 518.106 -3.40768 -1.51431 0
M  V30 5680 N 520.291 -0.0518155 -1.57515 0
M  V30 5681 C 521.568 0.661727 -1.84067 0
M  V30 5682 C 521.948 1.88999 -0.940351 0
M  V30 5683 O 521.296 2.285 -0.00155404 0
M  V30 5684 C 521.506 1.01841 -3.3381 0
M  V30 5685 C 522.854 1.40043 -4.00841 0
M  V30 5686 O 523.878 1.11073 -3.38439 0
M  V30 5687 O 522.737 1.94111 -5.10865 0
M  V30 5688 H 519.831 0.326702 -0.759733 0
M  V30 5689 H 522.377 -0.0812277 -1.69505 0
M  V30 5690 H 521.149 0.145202 -3.91031 0
M  V30 5691 H 520.772 1.81879 -3.53562 0
M  V30 5692 N 521.769 1.56035 0.221574 0
M  V30 5693 C 523.015 1.79312 0.947372 0
M  V30 5694 C 523.348 0.621453 1.83988 0
M  V30 5695 O 522.623 -0.379287 1.90766 0
M  V30 5696 C 522.906 3.1267 1.78633 0
M  V30 5697 C 522.759 4.40284 0.920312 0
M  V30 5698 C 524.078 3.4247 2.7641 0
M  V30 5699 H 521.197 0.652328 0.342982 0
M  V30 5700 H 523.839 1.88765 0.216244 0
M  V30 5701 H 521.989 3.04741 2.40967 0
M  V30 5702 H 523.661 4.60232 0.313718 0
M  V30 5703 H 521.904 4.33212 0.225734 0
M  V30 5704 H 522.575 5.30033 1.54171 0
M  V30 5705 H 525.051 3.50526 2.24211 0
M  V30 5706 H 523.927 4.3695 3.32213 0
M  V30 5707 H 524.188 2.64635 3.54148 0
M  V30 5708 N 523.247 -0.488276 1.49845 0
M  V30 5709 C 524.495 -1.23911 1.59657 0
M  V30 5710 C 524.816 -1.92816 0.291005 0
M  V30 5711 O 524.086 -1.83328 -0.690485 0
M  V30 5712 H 522.666 -0.460357 0.588286 0
M  V30 5713 H 525.328 -0.564794 1.86537 0
M  V30 5714 H 524.424 -1.99625 2.39909 0
M  V30 5715 N 524.725 -1.39134 -0.740242 0
M  V30 5716 C 525.655 -1.40165 -1.86751 0
M  V30 5717 C 526.636 -0.265708 -1.68012 0
M  V30 5718 O 527.821 -0.47076 -1.88408 0
M  V30 5719 C 524.951 -1.2392 -3.2444 0
M  V30 5720 C 523.905 -2.34858 -3.57807 0
M  V30 5721 C 523.231 -2.03707 -4.94376 0
M  V30 5722 C 524.531 -3.77159 -3.61315 0
M  V30 5723 H 526.225 -2.345 -1.86145 0
M  V30 5724 H 523.771 -1.12875 -0.89416 0
M  V30 5725 H 525.724 -1.23263 -4.02969 0
M  V30 5726 H 524.448 -0.26051 -3.25559 0
M  V30 5727 H 523.107 -2.34723 -2.81604 0
M  V30 5728 H 522.755 -1.04289 -4.9207 0
M  V30 5729 H 522.455 -2.78016 -5.17669 0
M  V30 5730 H 523.979 -2.04691 -5.75268 0
M  V30 5731 H 525.393 -3.79252 -4.29931 0
M  V30 5732 H 523.79 -4.50784 -3.96124 0
M  V30 5733 H 524.86 -4.08513 -2.61238 0
M  V30 5734 N 526.204 0.969867 -1.24223 0
M  V30 5735 C 527.45 1.7151 -1.08223 0
M  V30 5736 C 527.783 1.90478 0.37838 0
M  V30 5737 O 527.058 1.4647 1.27971 0
M  V30 5738 C 527.341 3.10714 -1.82013 0
M  V30 5739 C 527.194 2.9925 -3.35811 0
M  V30 5740 C 528.513 4.10332 -1.59108 0
M  V30 5741 H 525.632 0.622499 -0.394543 0
M  V30 5742 H 528.274 1.1284 -1.52863 0
M  V30 5743 H 526.424 3.608 -1.44068 0
M  V30 5744 H 528.096 2.56608 -3.83341 0
M  V30 5745 H 526.339 2.35512 -3.64303 0
M  V30 5746 H 527.01 3.97857 -3.82641 0
M  V30 5747 H 529.486 3.69097 -1.92111 0
M  V30 5748 H 528.362 5.05804 -2.13198 0
M  V30 5749 H 528.623 4.38926 -0.528832 0
M  V30 5750 N 527.682 1.05563 1.17022 0
M  V30 5751 C 528.91 0.78845 1.91288 0
M  V30 5752 C 529.325 -0.656318 1.77025 0
M  V30 5753 O 528.682 -1.44869 1.10992 0
M  V30 5754 C 528.733 1.16444 3.42232 0
M  V30 5755 O 528.454 2.5525 3.5606 0
M  V30 5756 C 529.955 0.923937 4.33565 0
M  V30 5757 H 527.175 0.286389 0.606813 0
M  V30 5758 H 529.719 1.4073 1.48375 0
M  V30 5759 H 527.874 0.590266 3.82877 0
M  V30 5760 H 528.288 2.70097 4.49609 0
M  V30 5761 H 529.762 1.23672 5.37968 0
M  V30 5762 H 530.239 -0.140688 4.38975 0
M  V30 5763 H 530.845 1.48214 3.98639 0
M  V30 5764 N 529.16 -1.33526 0.837174 0
M  V30 5765 C 530.571 -1.80182 0.489017 0
M  V30 5766 C 530.922 -1.69285 -0.991826 0
M  V30 5767 O 530.047 -1.24113 -1.77271 0
M  V30 5768 C 530.642 -3.27149 0.880866 0
M  V30 5769 C 529.201 -3.71828 0.584872 0
M  V30 5770 C 528.348 -2.54974 1.09011 0
M  V30 5771 H 531.299 -1.21071 1.02603 0
M  V30 5772 H 531.32 -3.80024 0.190239 0
M  V30 5773 H 530.832 -3.35048 1.95869 0
M  V30 5774 H 528.933 -3.69457 -0.48295 0
M  V30 5775 H 529.046 -4.65366 1.13892 0
M  V30 5776 H 527.41 -2.4952 0.511047 0
M  V30 5777 H 528.193 -2.65637 2.17467 0
M  V30 5778 N 530.638 -0.59345 -1.46 0
M  V30 5779 C 531.568 0.121192 -2.33185 0
M  V30 5780 C 532.549 0.872977 -1.4599 0
M  V30 5781 O 533.734 0.846321 -1.74789 0
M  V30 5782 C 530.864 1.12844 -3.28456 0
M  V30 5783 C 529.818 0.4908 -4.25177 0
M  V30 5784 C 529.144 1.60529 -5.10034 0
M  V30 5785 C 530.444 -0.578949 -5.19081 0
M  V30 5786 H 532.138 -0.606767 -2.93187 0
M  V30 5787 H 529.684 -0.293242 -1.40983 0
M  V30 5788 H 531.637 1.63684 -3.88311 0
M  V30 5789 H 530.361 1.88681 -2.66584 0
M  V30 5790 H 529.02 0.00339328 -3.666 0
M  V30 5791 H 528.668 2.35359 -4.44539 0
M  V30 5792 H 528.368 1.18422 -5.75543 0
M  V30 5793 H 529.892 2.11623 -5.72755 0
M  V30 5794 H 531.306 -0.155199 -5.7309 0
M  V30 5795 H 529.703 -0.920947 -5.92991 0
M  V30 5796 H 530.773 -1.46109 -4.62364 0
M  V30 5797 N 532.116 1.54067 -0.331816 0
M  V30 5798 C 533.532 1.59587 0.0205388 0
M  V30 5799 C 533.732 1.34813 1.49759 0
M  V30 5800 O 532.788 1.13661 2.25471 0
M  V30 5801 C 534.101 2.97959 -0.405103 0
M  V30 5802 C 535.649 3.10964 -0.356454 0
M  V30 5803 C 536.124 4.51694 -0.757384 0
M  V30 5804 N 537.615 4.57709 -0.71111 0
M  V30 5805 C 538.35 5.64729 -0.993427 0
M  V30 5806 N 537.846 6.79652 -1.3433 0
M  V30 5807 N 539.639 5.54546 -0.918442 0
M  V30 5808 H 531.79 1.68426 -1.29407 0
M  V30 5809 H 534.053 0.78819 -0.526745 0
M  V30 5810 H 533.759 3.21115 -1.43451 0
M  V30 5811 H 533.633 3.76524 0.225692 0
M  V30 5812 H 536.02 2.87538 0.663763 0
M  V30 5813 H 536.101 2.34484 -1.02229 0
M  V30 5814 H 535.745 4.75853 -1.77555 0
M  V30 5815 H 535.675 5.26555 -0.0691444 0
M  V30 5816 H 538.166 3.75176 -0.452883 0
M  V30 5817 H 538.479 7.57221 -1.54388 0
M  V30 5818 H 536.824 6.81128 -1.38164 0
M  V30 5819 H 540.015 4.63641 -0.644536 0
M  V30 5820 H 540.188 6.37861 -1.14181 0
M  V30 5821 N 533.594 0.0601682 1.57485 0
M  V30 5822 C 534.871 -0.651956 1.84415 0
M  V30 5823 C 535.251 -1.88498 0.950361 0
M  V30 5824 O 534.599 -2.28496 0.0136719 0
M  V30 5825 C 534.809 -1.00069 3.34346 0
M  V30 5826 C 536.157 -1.37915 4.01578 0
M  V30 5827 O 537.181 -1.09277 3.39024 0
M  V30 5828 O 536.04 -1.91399 5.11887 0
M  V30 5829 H 533.134 -0.322668 0.761455 0
M  V30 5830 H 535.68 0.0902159 1.6946 0
M  V30 5831 H 534.452 -0.124463 3.91102 0
M  V30 5832 H 534.075 -1.80001 3.54521 0
M  V30 5833 N 535.072 -1.5615 -0.213296 0
M  V30 5834 C 536.32 -1.79191 -0.934612 0
M  V30 5835 C 536.641 -0.630112 -1.84539 0
M  V30 5836 O 535.911 0.35257 -1.92701 0
M  V30 5837 H 534.491 -0.660937 -0.348097 0
M  V30 5838 H 537.153 -1.93618 -0.22317 0
M  V30 5839 H 536.249 -2.71656 -1.53654 0
M  V30 5840 N 536.55 0.480323 -1.50102 0
M  V30 5841 C 537.483 1.59789 -1.62919 0
M  V30 5842 C 538.461 1.55429 -0.477557 0
M  V30 5843 O 539.645 1.75186 -0.695851 0
M  V30 5844 C 536.772 2.98351 -1.60325 0
M  V30 5845 C 535.818 3.20899 -2.80938 0
M  V30 5846 S 536.651 3.01791 -4.4236 0
M  V30 5847 C 537.807 4.42712 -4.42444 0
M  V30 5848 H 538.04 1.48676 -2.57454 0
M  V30 5849 H 535.573 0.666996 -1.3925 0
M  V30 5850 H 537.531 3.7824 -1.59514 0
M  V30 5851 H 536.192 3.06862 -0.670419 0
M  V30 5852 H 535.385 4.22102 -2.75401 0
M  V30 5853 H 534.987 2.48768 -2.79268 0
M  V30 5854 H 537.279 5.3518 -4.15438 0
M  V30 5855 H 538.222 4.53294 -5.43995 0
M  V30 5856 H 538.63 4.24359 -3.72263 0
M  V30 5857 N 538.028 1.39524 0.732853 0
M  V30 5858 C 538.976 1.38563 1.86824 0
M  V30 5859 C 539.97 0.268467 1.67259 0
M  V30 5860 O 541.176 0.438613 1.74574 0
M  V30 5861 H 537.551 0.432737 0.615014 0
M  V30 5862 H 539.522 2.34328 1.84751 0
M  V30 5863 C 538.271 1.2481 3.24527 0
M  V30 5864 H 537.594 2.10044 3.40179 0
M  V30 5865 H 539.034 1.28194 4.04156 0
M  V30 5866 C 537.493 -0.0432825 3.36872 0
M  V30 5867 O 538.023 -1.01268 3.88726 0
M  V30 5868 N 536.229 -0.107055 2.90403 0
M  V30 5869 H 535.776 0.682512 2.48394 0
M  V30 5870 H 535.734 -0.970618 2.99042 0
M  V30 5871 N 539.506 -0.963266 1.24736 0
M  V30 5872 C 540.436 -2.07628 1.06832 0
M  V30 5873 C 541.417 -1.70088 -0.0200566 0
M  V30 5874 O 542.602 -1.93636 0.147854 0
M  V30 5875 C 539.732 -3.40636 0.677069 0
M  V30 5876 C 538.686 -3.9215 1.71471 0
M  V30 5877 C 538.012 -5.21553 1.1784 0
M  V30 5878 C 539.312 -4.19493 3.11164 0
M  V30 5879 H 541.006 -2.22864 1.9993 0
M  V30 5880 H 538.552 -1.07093 0.96266 0
M  V30 5881 H 540.505 -4.17941 0.538792 0
M  V30 5882 H 539.229 -3.25313 -0.289612 0
M  V30 5883 H 537.888 -3.17005 1.84128 0
M  V30 5884 H 537.536 -5.02593 0.202195 0
M  V30 5885 H 537.236 -5.56988 1.87185 0
M  V30 5886 H 538.76 -6.01463 1.05233 0
M  V30 5887 H 540.174 -4.87487 3.01711 0
M  V30 5888 H 538.571 -4.66165 3.77902 0
M  V30 5889 H 539.641 -3.26097 3.58871 0
M  V30 5890 N 540.985 -1.06182 -1.16461 0
M  V30 5891 C 542.231 -0.779015 -1.87241 0
M  V30 5892 C 542.564 0.692715 -1.81425 0
M  V30 5893 O 541.839 1.5074 -1.22913 0
M  V30 5894 C 542.122 -1.2728 -3.36856 0
M  V30 5895 C 541.975 -2.80821 -3.51368 0
M  V30 5896 C 543.294 -0.879799 -4.31216 0
M  V30 5897 H 540.413 -0.284464 -0.679889 0
M  V30 5898 H 543.055 -1.31755 -1.36896 0
M  V30 5899 H 541.205 -0.814673 -3.79862 0
M  V30 5900 H 542.877 -3.34833 -3.17308 0
M  V30 5901 H 541.12 -3.19606 -2.93316 0
M  V30 5902 H 541.791 -3.10435 -4.56436 0
M  V30 5903 H 544.267 -1.27436 -3.96105 0
M  V30 5904 H 543.143 -1.25278 -5.34412 0
M  V30 5905 H 543.404 0.215372 -4.41575 0
M  V30 5906 N 542.463 1.3308 -0.844243 0
M  V30 5907 C 543.426 2.27403 -0.286485 0
M  V30 5908 C 544.426 1.51179 0.547872 0
M  V30 5909 O 545.616 1.70421 0.360886 0
M  V30 5910 C 542.748 3.35653 0.595813 0
M  V30 5911 H 543.941 2.78248 -1.11885 0
M  V30 5912 H 541.494 1.43574 -0.617749 0
M  V30 5913 H 542.229 2.90058 1.4504 0
M  V30 5914 H 542.014 3.921 -0.00125994 0
M  V30 5915 H 543.504 4.05958 0.979168 0
M  V30 5916 N 543.941 0.601185 1.45683 0
M  V30 5917 C 544.888 -0.121396 2.30481 0
M  V30 5918 C 545.858 -0.866232 1.41724 0
M  V30 5919 O 547.043 -0.85324 1.70659 0
M  V30 5920 C 544.183 -1.11704 3.26521 0
M  V30 5921 C 543.296 -0.373741 4.3038 0
M  V30 5922 C 542.431 -1.35854 5.13534 0
M  V30 5923 C 541.47 -0.602689 6.09126 0
M  V30 5924 N 540.607 -1.53645 6.85082 0
M  V30 5925 H 545.447 0.607732 2.91737 0
M  V30 5926 H 542.984 0.311502 1.43764 0
M  V30 5927 H 544.942 -1.70735 3.80664 0
M  V30 5928 H 543.572 -1.81366 2.67032 0
M  V30 5929 H 542.624 0.331962 3.78949 0
M  V30 5930 H 543.936 0.2163 4.98331 0
M  V30 5931 H 543.09 -2.02111 5.72046 0
M  V30 5932 H 541.829 -1.98251 4.45587 0
M  V30 5933 H 540.834 0.0735482 5.49751 0
M  V30 5934 H 542.059 0.0161467 6.79098 0
M  V30 5935 H 540.005 -2.14819 6.1983 0
M  V30 5936 H 539.922 -0.999688 7.49361 0
M  V30 5937 H 541.19 -2.1888 7.48139 0
M  V30 5938 N 545.419 -1.53889 0.339982 0
M  V30 5939 C 546.329 -2.28604 -0.526988 0
M  V30 5940 C 547.345 -1.33578 -1.11503 0
M  V30 5941 O 548.521 -1.66612 -1.13148 0
M  V30 5942 C 545.586 -3.04164 -1.66389 0
M  V30 5943 C 544.647 -4.14809 -1.10599 0
M  V30 5944 C 543.88 -4.86756 -2.18871 0
M  V30 5945 O 544.103 -4.58343 -3.39526 0
M  V30 5946 O 543.037 -5.73289 -1.83366 0
M  V30 5947 H 546.863 -3.03594 0.0802707 0
M  V30 5948 H 544.448 -1.4903 0.105141 0
M  V30 5949 H 546.33 -3.51427 -2.32544 0
M  V30 5950 H 545.005 -2.32035 -2.25703 0
M  V30 5951 H 543.912 -3.71857 -0.409067 0
M  V30 5952 H 545.245 -4.89029 -0.557771 0
M  V30 5953 N 546.897 -0.0685191 -1.57451 0
M  V30 5954 C 548.127 0.609577 -1.97402 0
M  V30 5955 C 548.535 1.63882 -0.945489 0
M  V30 5956 O 547.878 1.8354 0.0766052 0
M  V30 5957 C 547.94 1.3385 -3.33653 0
M  V30 5958 C 547.604 0.463103 -4.54648 0
M  V30 5959 C 548.601 -0.277964 -5.19156 0
M  V30 5960 C 546.286 0.388941 -5.00792 0
M  V30 5961 C 548.28 -1.08145 -6.28159 0
M  V30 5962 C 545.967 -0.418217 -6.09667 0
M  V30 5963 C 546.965 -1.15208 -6.73213 0
M  V30 5964 O 546.653 -1.94594 -7.79993 0
M  V30 5965 H 546.385 0.170197 -0.654224 0
M  V30 5966 H 548.939 -0.13647 -2.04946 0
M  V30 5967 H 547.169 2.13055 -3.22714 0
M  V30 5968 H 548.858 1.90851 -3.58233 0
M  V30 5969 H 549.624 -0.230241 -4.84453 0
M  V30 5970 H 545.503 0.949769 -4.5111 0
M  V30 5971 H 549.047 -1.65476 -6.7769 0
M  V30 5972 H 544.944 -0.467515 -6.43805 0
M  V30 5973 H 545.712 -1.8699 -7.96854 0
M  V30 5974 N 548.375 1.56261 0.205012 0
M  V30 5975 C 549.621 1.80306 0.9283 0
M  V30 5976 C 549.954 0.640932 1.83319 0
M  V30 5977 O 549.229 -0.359032 1.91158 0
M  V30 5978 C 549.512 3.14547 1.75306 0
M  V30 5979 C 549.365 4.41236 0.873562 0
M  V30 5980 C 550.684 3.45382 2.72762 0
M  V30 5981 H 547.803 0.655929 0.336044 0
M  V30 5982 H 550.445 1.88984 0.196211 0
M  V30 5983 H 548.595 3.0728 2.37721 0
M  V30 5984 H 550.267 4.60539 0.264887 0
M  V30 5985 H 548.51 4.33427 0.179773 0
M  V30 5986 H 549.181 5.31639 1.48541 0
M  V30 5987 H 551.657 3.52884 2.20481 0
M  V30 5988 H 550.533 4.40449 3.2756 0
M  V30 5989 H 550.794 2.68377 3.51321 0
M  V30 5990 N 549.853 -0.472356 1.50355 0
M  V30 5991 C 550.816 -1.5529 1.68576 0
M  V30 5992 C 551.816 -1.50863 0.556511 0
M  V30 5993 O 553.006 -1.53505 0.823516 0
M  V30 5994 C 550.138 -2.94921 1.70981 0
M  V30 5995 H 551.331 -1.40451 2.64978 0
M  V30 5996 H 548.884 -0.698645 1.39816 0
M  V30 5997 H 549.619 -3.15204 0.762675 0
M  V30 5998 H 549.404 -2.99541 2.53017 0
M  V30 5999 H 550.894 -3.73372 1.87037 0
M  V30 6000 N 551.331 -1.39911 -0.725443 0
M  V30 6001 C 552.294 -1.39156 -1.82121 0
M  V30 6002 C 553.294 -0.287018 -1.58218 0
M  V30 6003 O 554.484 -0.545421 -1.65441 0
M  V30 6004 C 551.616 -1.1736 -3.20062 0
M  V30 6005 H 552.809 -2.36672 -1.84191 0
M  V30 6006 H 550.362 -1.25615 -0.930079 0
M  V30 6007 H 551.097 -0.205648 -3.23647 0
M  V30 6008 H 550.882 -1.97358 -3.3881 0
M  V30 6009 H 552.372 -1.19596 -4.00108 0
M  V30 6010 N 552.809 0.956637 -1.25245 0
M  V30 6011 C 553.741 2.05628 -1.01242 0
M  V30 6012 C 554.754 1.62785 0.0219579 0
M  V30 6013 O 555.943 1.77184 -0.216365 0
M  V30 6014 C 553.043 3.35069 -0.508161 0
M  V30 6015 C 552.216 4.06761 -1.60823 0
M  V30 6016 C 551.275 5.14473 -1.1047 0
M  V30 6017 O 550.301 5.40033 -1.79868 0
M  V30 6018 N 551.503 5.80474 0.0550773 0
M  V30 6019 H 554.268 2.2679 -1.95925 0
M  V30 6020 H 551.829 1.12505 -1.16423 0
M  V30 6021 H 553.821 4.044 -0.155819 0
M  V30 6022 H 552.391 3.10694 0.344683 0
M  V30 6023 H 551.611 3.31555 -2.13224 0
M  V30 6024 H 552.899 4.51418 -2.34733 0
M  V30 6025 H 552.297 5.62125 0.635004 0
M  V30 6026 H 550.854 6.50868 0.348469 0
M  V30 6027 N 554.287 1.06798 1.15896 0
M  V30 6028 C 555.564 0.701057 1.82605 0
M  V30 6029 C 555.944 -0.817066 1.94646 0
M  V30 6030 O 555.292 -1.72933 1.49353 0
M  V30 6031 C 555.502 1.40895 3.19296 0
M  V30 6032 C 556.85 1.55744 3.95005 0
M  V30 6033 O 557.874 1.36927 3.28831 0
M  V30 6034 O 556.733 1.86658 5.13635 0
M  V30 6035 H 553.827 0.248791 0.78869 0
M  V30 6036 H 556.373 1.16857 1.23055 0
M  V30 6037 H 555.145 2.4439 3.05596 0
M  V30 6038 H 554.768 0.931847 3.86526 0
M  V30 6039 N 555.766 -1.3263 0.851289 0
M  V30 6040 C 557.177 -1.79653 0.5081 0
M  V30 6041 C 557.528 -1.70327 -0.973815 0
M  V30 6042 O 556.653 -1.25986 -1.75944 0
M  V30 6043 C 557.248 -3.26196 0.915515 0
M  V30 6044 C 555.807 -3.71187 0.624277 0
M  V30 6045 C 554.954 -2.53804 1.11709 0
M  V30 6046 H 557.905 -1.19976 1.03882 0
M  V30 6047 H 557.926 -3.79801 0.230535 0
M  V30 6048 H 557.438 -3.32952 1.99411 0
M  V30 6049 H 555.539 -3.69948 -0.443737 0
M  V30 6050 H 555.652 -4.64132 1.18821 0
M  V30 6051 H 554.016 -2.48964 0.537484 0
M  V30 6052 H 554.799 -2.63315 2.20272 0
M  V30 6053 N 557.244 -0.608902 -1.45362 0
M  V30 6054 C 558.207 0.0992563 -2.28985 0
M  V30 6055 C 559.207 0.793841 -1.39838 0
M  V30 6056 O 560.397 0.641804 -1.61946 0
M  V30 6057 C 557.529 1.15073 -3.20891 0
M  V30 6058 H 558.722 -0.635964 -2.93079 0
M  V30 6059 H 556.275 -0.368007 -1.51906 0
M  V30 6060 H 557.01 1.91667 -2.616 0
M  V30 6061 H 556.795 0.656867 -3.86559 0
M  V30 6062 H 558.285 1.64665 -3.83765 0
M  V30 6063 N 558.722 1.53707 -0.348139 0
M  V30 6064 C 559.67 2.26671 0.521808 0
M  V30 6065 C 560.664 1.28988 1.09811 0
M  V30 6066 O 561.87 1.4668 1.04332 0
M  V30 6067 H 558.245 0.728387 0.186968 0
M  V30 6068 H 560.216 2.98176 -0.115563 0
M  V30 6069 C 558.965 3.05591 1.6586 0
M  V30 6070 H 558.288 3.80589 1.22443 0
M  V30 6071 H 559.728 3.59851 2.24239 0
M  V30 6072 C 558.187 2.15366 2.59073 0
M  V30 6073 O 558.717 1.7528 3.61441 0
M  V30 6074 N 556.923 1.80352 2.27863 0
M  V30 6075 H 556.47 2.13149 1.44656 0
M  V30 6076 H 556.428 1.20268 2.90488 0
M  V30 6077 N 560.2 0.0768682 1.57412 0
M  V30 6078 C 561.611 -0.455037 1.8107 0
M  V30 6079 C 561.962 -1.69323 0.991162 0
M  V30 6080 O 561.087 -2.15328 0.215156 0
M  V30 6081 C 561.682 -0.832316 3.28417 0
M  V30 6082 C 560.241 -1.30906 3.52903 0
M  V30 6083 C 559.388 -0.296714 2.75708 0
M  V30 6084 H 562.339 0.302514 1.5579 0
M  V30 6085 H 562.36 -1.69333 3.40744 0
M  V30 6086 H 561.872 0.0690532 3.88039 0
M  V30 6087 H 559.973 -2.22875 2.98592 0
M  V30 6088 H 560.086 -1.28348 4.61588 0
M  V30 6089 H 558.45 -0.775059 2.42621 0
M  V30 6090 H 559.233 0.597015 3.38069 0
M  V30 6091 N 561.678 -1.56367 -0.196722 0
M  V30 6092 C 562.926 -1.80172 -0.915554 0
M  V30 6093 C 563.247 -0.649649 -1.8386 0
M  V30 6094 O 562.517 0.332111 -1.93064 0
M  V30 6095 H 561.097 -0.664592 -0.341067 0
M  V30 6096 H 563.759 -1.93844 -0.202622 0
M  V30 6097 H 562.855 -2.7327 -1.50764 0
M  V30 6098 N 563.156 0.464375 -1.50603 0
M  V30 6099 C 564.402 1.21776 -1.62168 0
M  V30 6100 C 564.735 1.91476 -0.324154 0
M  V30 6101 O 564.01 1.8242 0.674782 0
M  V30 6102 C 564.293 2.25614 -2.80661 0
M  V30 6103 C 564.146 1.60175 -4.20314 0
M  V30 6104 C 565.465 3.26862 -2.94702 0
M  V30 6105 H 562.584 0.44137 -0.590222 0
M  V30 6106 H 565.226 0.510623 -1.8301 0
M  V30 6107 H 563.376 2.85923 -2.63021 0
M  V30 6108 H 565.048 1.03411 -4.4956 0
M  V30 6109 H 563.291 0.904697 -4.24261 0
M  V30 6110 H 563.962 2.35665 -4.99165 0
M  V30 6111 H 566.438 2.76582 -3.10872 0
M  V30 6112 H 565.314 3.96839 -3.79223 0
M  V30 6113 H 565.575 3.91382 -2.05603 0
M  V30 6114 N 564.634 1.40294 0.718013 0
M  V30 6115 C 565.564 1.43118 1.84498 0
M  V30 6116 C 566.545 0.292403 1.67568 0
M  V30 6117 O 567.73 0.500675 1.87635 0
M  V30 6118 C 564.86 1.29065 3.22427 0
M  V30 6119 C 563.814 2.40521 3.54025 0
M  V30 6120 C 563.14 2.11546 4.91073 0
M  V30 6121 C 564.44 3.82859 3.55269 0
M  V30 6122 H 566.134 2.37432 1.82391 0
M  V30 6123 H 563.68 1.14283 0.87609 0
M  V30 6124 H 565.633 1.29658 4.00957 0
M  V30 6125 H 564.357 0.312271 3.25104 0
M  V30 6126 H 563.016 2.39173 2.77834 0
M  V30 6127 H 562.664 1.12104 4.90348 0
M  V30 6128 H 562.364 2.86216 5.1318 0
M  V30 6129 H 563.888 2.13817 5.71939 0
M  V30 6130 H 565.302 3.86044 4.23843 0
M  V30 6131 H 563.699 4.57029 3.88902 0
M  V30 6132 H 564.769 4.12617 2.54706 0
M  V30 6133 N 566.112 -0.949982 1.2575 0
M  V30 6134 C 567.358 -1.69766 1.10938 0
M  V30 6135 C 567.691 -1.91056 -0.348028 0
M  V30 6136 O 566.966 -1.48488 -1.25625 0
M  V30 6137 C 567.249 -3.07779 1.86933 0
M  V30 6138 C 567.102 -2.9387 3.4053 0
M  V30 6139 C 568.421 -4.07749 1.65616 0
M  V30 6140 H 565.54 -0.616144 0.404396 0
M  V30 6141 H 568.182 -1.10394 1.54639 0
M  V30 6142 H 566.332 -3.58462 1.4979 0
M  V30 6143 H 568.004 -2.50476 3.87375 0
M  V30 6144 H 566.247 -2.29686 3.68004 0
M  V30 6145 H 566.918 -3.91719 3.88922 0
M  V30 6146 H 569.394 -3.65994 1.97959 0
M  V30 6147 H 568.27 -5.02348 2.21218 0
M  V30 6148 H 568.531 -4.38029 0.598595 0
M  V30 6149 N 567.59 -1.07411 -1.15328 0
M  V30 6150 C 568.52 -0.716472 -2.22236 0
M  V30 6151 C 569.501 0.296373 -1.67498 0
M  V30 6152 O 570.686 0.168989 -1.93463 0
M  V30 6153 C 567.816 -0.114142 -3.47112 0
M  V30 6154 C 566.77 -1.05421 -4.14814 0
M  V30 6155 C 566.096 -0.314604 -5.33774 0
M  V30 6156 C 567.396 -2.38808 -4.64508 0
M  V30 6157 H 569.09 -1.61029 -2.52408 0
M  V30 6158 H 566.636 -0.775702 -1.21321 0
M  V30 6159 H 568.589 0.148001 -4.2114 0
M  V30 6160 H 567.313 0.814755 -3.16274 0
M  V30 6161 H 565.972 -1.30128 -3.42728 0
M  V30 6162 H 565.62 0.617772 -4.99192 0
M  V30 6163 H 565.32 -0.941209 -5.80013 0
M  V30 6164 H 566.844 -0.0602747 -6.1057 0
M  V30 6165 H 568.258 -2.18424 -5.3006 0
M  V30 6166 H 566.655 -2.97069 -5.21412 0
M  V30 6167 H 567.725 -3.01067 -3.80114 0
M  V30 6168 N 569.068 1.32177 -0.85831 0
M  V30 6169 C 570.293 2.01847 -0.476718 0
M  V30 6170 C 570.718 1.64065 0.920021 0
M  V30 6171 O 570.076 0.843189 1.60499 0
M  V30 6172 C 570.124 3.55097 -0.627578 0
M  V30 6173 O 569.228 4.11012 0.338086 0
M  V30 6174 H 568.569 0.635907 -0.191099 0
M  V30 6175 H 571.099 1.68641 -1.15851 0
M  V30 6176 H 571.109 4.04718 -0.516476 0
M  V30 6177 H 569.784 3.81938 -1.64609 0
M  V30 6178 H 568.361 3.72451 0.182917 0
M  V30 6179 N 570.547 0.616602 1.45037 0
M  V30 6180 C 571.479 -0.135186 2.28801 0
M  V30 6181 C 572.492 -0.82303 1.40464 0
M  V30 6182 O 573.681 -0.686909 1.64754 0
M  V30 6183 C 570.781 -1.21292 3.16451 0
M  V30 6184 C 569.954 -0.61043 4.3312 0
M  V30 6185 C 569.013 -1.58022 5.01912 0
M  V30 6186 O 568.039 -1.10301 5.58411 0
M  V30 6187 N 569.241 -2.91464 5.02025 0
M  V30 6188 H 572.006 0.583612 2.93963 0
M  V30 6189 H 569.567 0.456723 1.55324 0
M  V30 6190 H 571.559 -1.86169 3.59337 0
M  V30 6191 H 570.129 -1.83412 2.53138 0
M  V30 6192 H 569.349 0.216638 3.93604 0
M  V30 6193 H 570.637 -0.188293 5.08451 0
M  V30 6194 H 570.035 -3.32829 4.57429 0
M  V30 6195 H 568.592 -3.51741 5.48745 0
M  V30 6196 N 572.025 -1.5352 0.356285 0
M  V30 6197 C 573.272 -2.01117 -0.236303 0
M  V30 6198 C 573.6 -1.24381 -1.49531 0
M  V30 6199 O 572.855 -0.323057 -1.93015 0
M  V30 6200 C 573.154 -3.52607 -0.583369 0
M  V30 6201 C 572.82 -4.47151 0.58023 0
M  V30 6202 C 571.482 -4.72718 0.899528 0
M  V30 6203 C 573.834 -5.03137 1.36024 0
M  V30 6204 C 571.162 -5.51523 2.00098 0
M  V30 6205 C 573.514 -5.83145 2.45204 0
M  V30 6206 C 572.178 -6.07001 2.77679 0
M  V30 6207 H 571.448 -0.735938 -0.0864695 0
M  V30 6208 H 574.095 -1.85209 0.48683 0
M  V30 6209 H 572.4 -3.66413 -1.38739 0
M  V30 6210 H 574.097 -3.86901 -1.05397 0
M  V30 6211 H 570.687 -4.27394 0.321322 0
M  V30 6212 H 574.871 -4.83339 1.12682 0
M  V30 6213 H 570.127 -5.68229 2.25668 0
M  V30 6214 H 574.301 -6.25537 3.06067 0
M  V30 6215 H 571.928 -6.67851 3.63151 0
M  V30 6216 N 573.503 -0.0852151 -1.57369 0
M  V30 6217 C 574.466 0.8627 -2.12344 0
M  V30 6218 C 575.466 1.21746 -1.05046 0
M  V30 6219 O 576.656 1.14852 -1.30976 0
M  V30 6220 C 573.788 2.1618 -2.63589 0
M  V30 6221 H 574.981 0.385511 -2.97412 0
M  V30 6222 H 572.534 0.163663 -1.55441 0
M  V30 6223 H 573.269 2.68406 -1.82013 0
M  V30 6224 H 573.054 1.91723 -3.4203 0
M  V30 6225 H 574.544 2.84011 -3.06149 0
M  V30 6226 N 574.981 1.5647 0.188427 0
M  V30 6227 C 576.229 1.80655 0.905986 0
M  V30 6228 C 576.55 0.659391 1.83513 0
M  V30 6229 O 575.82 -0.321868 1.93238 0
M  V30 6230 H 574.4 0.666391 0.337538 0
M  V30 6231 H 577.062 1.93949 0.192339 0
M  V30 6232 H 576.158 2.74066 1.49313 0
M  V30 6233 N 576.459 -0.456382 1.50847 0
M  V30 6234 C 577.422 -1.53493 1.70213 0
M  V30 6235 C 578.422 -1.50264 0.572481 0
M  V30 6236 O 579.612 -1.52623 0.839751 0
M  V30 6237 C 576.744 -2.93091 1.741 0
M  V30 6238 H 577.937 -1.37633 2.66453 0
M  V30 6239 H 575.49 -0.683776 1.4055 0
M  V30 6240 H 576.225 -3.14378 0.796063 0
M  V30 6241 H 576.01 -2.9684 2.5618 0
M  V30 6242 H 577.5 -3.71368 1.90987 0
M  V30 6243 N 577.937 -1.40673 -0.710563 0
M  V30 6244 C 578.9 -1.4108 -1.80635 0
M  V30 6245 C 579.9 -0.303783 -1.57904 0
M  V30 6246 O 581.09 -0.562937 -1.64853 0
M  V30 6247 C 578.222 -1.20748 -3.18799 0
M  V30 6248 H 579.415 -2.38612 -1.81671 0
M  V30 6249 H 576.968 -1.26595 -0.916704 0
M  V30 6250 H 577.703 -0.239964 -3.23411 0
M  V30 6251 H 577.488 -2.00941 -3.36698 0
M  V30 6252 H 578.978 -1.23833 -3.98817 0
M  V30 6253 N 579.415 0.9433 -1.26252 0
M  V30 6254 C 580.363 2.06302 -1.07434 0
M  V30 6255 C 581.357 1.694 -0.00189471 0
M  V30 6256 O 582.563 1.79302 -0.158408 0
M  V30 6257 H 578.938 0.675453 -0.330556 0
M  V30 6258 H 580.909 2.19326 -2.02333 0
M  V30 6259 C 579.658 3.40125 -0.721817 0
M  V30 6260 H 578.981 3.68996 -1.5389 0
M  V30 6261 H 580.421 4.19295 -0.629922 0
M  V30 6262 C 578.88 3.31993 0.572902 0
M  V30 6263 O 579.41 3.67945 1.61182 0
M  V30 6264 N 577.616 2.85099 0.562748 0
M  V30 6265 H 577.163 2.5604 -0.283092 0
M  V30 6266 H 577.121 2.80041 1.42915 0
M  V30 6267 N 580.893 1.08022 1.14757 0
M  V30 6268 C 581.803 0.718292 2.23333 0
M  V30 6269 C 582.819 -0.273477 1.71837 0
M  V30 6270 O 583.995 -0.118406 2.01052 0
M  V30 6271 C 581.06 0.128855 3.4646 0
M  V30 6272 C 580.121 1.17473 4.12915 0
M  V30 6273 C 579.354 0.61333 5.30164 0
M  V30 6274 O 579.577 -0.568458 5.6756 0
M  V30 6275 O 578.511 1.3615 5.86299 0
M  V30 6276 H 582.337 1.62394 2.56636 0
M  V30 6277 H 579.922 0.853628 1.22611 0
M  V30 6278 H 581.804 -0.197249 4.20938 0
M  V30 6279 H 580.479 -0.750014 3.14891 0
M  V30 6280 H 579.386 1.5533 3.40328 0
M  V30 6281 H 580.719 2.02574 4.48581 0
M  V30 6282 N 582.371 -1.3172 0.865308 0
M  V30 6283 C 583.301 -2.31109 0.333302 0
M  V30 6284 C 584.282 -1.60148 -0.573301 0
M  V30 6285 O 585.467 -1.87882 -0.491305 0
M  V30 6286 C 582.597 -3.44104 -0.470078 0
M  V30 6287 C 581.551 -4.26623 0.343021 0
M  V30 6288 C 580.877 -5.31482 -0.585756 0
M  V30 6289 C 582.177 -4.98001 1.57456 0
M  V30 6290 H 583.871 -2.75855 1.1638 0
M  V30 6291 H 581.417 -1.3262 0.561069 0
M  V30 6292 H 583.37 -4.12682 -0.852752 0
M  V30 6293 H 582.094 -2.98112 -1.33404 0
M  V30 6294 H 580.753 -3.59707 0.707583 0
M  V30 6295 H 580.401 -4.81741 -1.44686 0
M  V30 6296 H 580.101 -5.87582 -0.0456494 0
M  V30 6297 H 581.625 -6.0292 -0.965375 0
M  V30 6298 H 583.039 -5.59201 1.26359 0
M  V30 6299 H 581.436 -5.63876 2.05339 0
M  V30 6300 H 582.506 -4.25253 2.32997 0
M  V30 6301 N 583.85 -0.624285 -1.44708 0
M  V30 6302 C 585.077 -0.132919 -2.06473 0
M  V30 6303 C 585.493 1.18967 -1.46602 0
M  V30 6304 O 584.85 1.72824 -0.586341 0
M  V30 6305 C 584.901 -0.00465418 -3.615 0
M  V30 6306 O 584.622 -1.27494 -4.19138 0
M  V30 6307 C 586.123 0.516213 -4.40284 0
M  V30 6308 H 583.343 -0.0765201 -0.666623 0
M  V30 6309 H 585.887 -0.856751 -1.85688 0
M  V30 6310 H 584.042 0.669583 -3.8157 0
M  V30 6311 H 584.456 -1.11536 -5.12504 0
M  V30 6312 H 585.93 0.554994 -5.49203 0
M  V30 6313 H 586.407 1.5419 -4.11245 0
M  V30 6314 H 587.013 -0.124542 -4.25118 0
M  V30 6315 N 585.328 1.53329 -0.364422 0
M  V30 6316 C 586.553 2.06132 0.229033 0
M  V30 6317 C 586.978 1.23625 1.41769 0
M  V30 6318 O 586.336 0.255038 1.79497 0
M  V30 6319 C 586.384 3.55544 0.60174 0
M  V30 6320 O 585.488 3.75771 1.69912 0
M  V30 6321 H 584.829 0.663148 0.0336213 0
M  V30 6322 H 587.359 1.97758 -0.524689 0
M  V30 6323 H 587.369 3.98549 0.873073 0
M  V30 6324 H 586.044 4.15039 -0.267421 0
M  V30 6325 H 584.621 3.44663 1.42343 0
M  V30 6326 N 586.806 0.0935595 1.57322 0
M  V30 6327 C 587.769 -0.851426 2.12799 0
M  V30 6328 C 588.769 -1.21187 1.0569 0
M  V30 6329 O 589.959 -1.14156 1.31583 0
M  V30 6330 C 587.091 -2.14779 2.64731 0
M  V30 6331 H 588.284 -0.369733 2.97612 0
M  V30 6332 H 585.837 -0.155417 1.55525 0
M  V30 6333 H 586.572 -2.67437 1.83434 0
M  V30 6334 H 586.357 -1.89907 3.43042 0
M  V30 6335 H 587.847 -2.82383 3.07651 0
M  V30 6336 N 588.284 -1.56567 -0.180126 0
M  V30 6337 C 589.214 -1.98753 -1.22553 0
M  V30 6338 C 590.195 -0.86175 -1.46656 0
M  V30 6339 O 591.38 -1.12719 -1.58139 0
M  V30 6340 C 588.51 -2.33988 -2.56645 0
M  V30 6341 C 587.464 -3.49445 -2.47128 0
M  V30 6342 C 586.79 -3.70397 -3.8563 0
M  V30 6343 C 588.09 -4.83171 -1.98352 0
M  V30 6344 H 589.784 -2.86332 -0.874896 0
M  V30 6345 H 587.33 -1.37757 -0.419414 0
M  V30 6346 H 589.283 -2.62097 -3.29974 0
M  V30 6347 H 588.007 -1.43309 -2.93479 0
M  V30 6348 H 586.666 -3.2145 -1.76254 0
M  V30 6349 H 586.314 -2.77023 -4.19842 0
M  V30 6350 H 586.014 -4.48077 -3.80132 0
M  V30 6351 H 587.538 -4.00897 -4.60558 0
M  V30 6352 H 588.952 -5.10213 -2.61449 0
M  V30 6353 H 587.349 -5.64425 -2.03823 0
M  V30 6354 H 588.419 -4.75753 -0.937402 0
M  V30 6355 N 589.762 0.448376 -1.51087 0
M  V30 6356 C 591.011 1.19561 -1.62444 0
M  V30 6357 C 591.324 1.92602 -0.341151 0
M  V30 6358 O 592.53 2.69439 -0.333936 0
M  V30 6359 C 590.986 2.17373 -2.8684 0
M  V30 6360 C 590.594 1.5003 -4.22131 0
M  V30 6361 C 592.338 2.92597 -3.0755 0
M  V30 6362 C 590.245 2.46262 -5.37689 0
M  V30 6363 H 589.175 0.449975 -0.605011 0
M  V30 6364 H 591.826 0.463735 -1.77544 0
M  V30 6365 H 590.208 2.93948 -2.65349 0
M  V30 6366 H 591.382 0.790886 -4.53962 0
M  V30 6367 H 589.697 0.870011 -4.0721 0
M  V30 6368 H 592.294 3.64663 -3.91056 0
M  V30 6369 H 592.637 3.53306 -2.20183 0
M  V30 6370 H 593.17 2.23131 -3.29329 0
M  V30 6371 H 589.909 1.90258 -6.27281 0
M  V30 6372 H 589.429 3.15289 -5.10248 0
M  V30 6373 H 591.108 3.07623 -5.6919 0
M  V30 6374 N 591.24 1.41047 0.703093 0
M  V30 6375 C 592.486 1.40207 1.46526 0
M  V30 6376 C 592.819 0.00847763 1.94198 0
M  V30 6377 O 592.094 -0.962437 1.69019 0
M  V30 6378 C 592.377 2.40238 2.6825 0
M  V30 6379 C 592.23 3.88674 2.26391 0
M  V30 6380 C 593.549 2.37627 3.70434 0
M  V30 6381 H 590.668 0.510594 0.531472 0
M  V30 6382 H 593.31 1.72271 0.801422 0
M  V30 6383 H 591.46 2.13026 3.24888 0
M  V30 6384 H 593.132 4.2676 1.75138 0
M  V30 6385 H 591.375 4.03903 1.58255 0
M  V30 6386 H 592.046 4.542 3.13698 0
M  V30 6387 H 594.522 2.61759 3.23452 0
M  V30 6388 H 593.398 3.09645 4.53223 0
M  V30 6389 H 593.659 1.39223 4.19606 0
M  V30 6390 N 592.718 -0.936591 1.26751 0
M  V30 6391 C 593.666 -2.0573 1.08527 0
M  V30 6392 C 594.66 -1.69397 0.0108784 0
M  V30 6393 O 595.866 -1.79215 0.167915 0
M  V30 6394 H 592.241 -0.673691 0.334133 0
M  V30 6395 H 594.212 -2.1825 2.03493 0
M  V30 6396 C 592.961 -3.39738 0.739845 0
M  V30 6397 H 592.284 -3.68174 1.55845 0
M  V30 6398 H 593.724 -4.18955 0.652149 0
M  V30 6399 C 592.183 -3.32292 -0.555288 0
M  V30 6400 O 592.713 -3.68794 -1.59229 0
M  V30 6401 N 590.919 -2.85394 -0.54762 0
M  V30 6402 H 590.466 -2.55886 0.296667 0
M  V30 6403 H 590.424 -2.80795 -1.41427 0
M  V30 6404 N 594.196 -1.08629 -1.14182 0
M  V30 6405 C 595.607 -0.838003 -1.66836 0
M  V30 6406 C 595.958 0.634885 -1.85644 0
M  V30 6407 O 595.083 1.49008 -1.56926 0
M  V30 6408 C 595.678 -1.51465 -3.03058 0
M  V30 6409 C 594.237 -1.31355 -3.52736 0
M  V30 6410 C 593.384 -1.57599 -2.28162 0
M  V30 6411 H 596.335 -1.24656 -0.982165 0
M  V30 6412 H 596.356 -0.943134 -3.68626 0
M  V30 6413 H 595.868 -2.58661 -2.89337 0
M  V30 6414 H 593.969 -0.262384 -3.71675 0
M  V30 6415 H 594.082 -2.04275 -4.33369 0
M  V30 6416 H 592.446 -0.997659 -2.34348 0
M  V30 6417 H 593.229 -2.66006 -2.17015 0
M  V30 6418 N 595.674 1.31259 -0.872281 0
M  V30 6419 C 596.904 2.00504 -0.498183 0
M  V30 6420 C 597.312 1.65632 0.914479 0
M  V30 6421 O 596.655 0.882849 1.61095 0
M  V30 6422 C 596.717 3.5482 -0.578194 0
M  V30 6423 C 596.381 4.13172 -1.95289 0
M  V30 6424 C 597.378 4.30107 -2.92069 0
M  V30 6425 C 595.063 4.48846 -2.25483 0
M  V30 6426 C 597.057 4.81908 -4.17185 0
M  V30 6427 C 594.744 5.00349 -3.50847 0
M  V30 6428 C 595.742 5.16831 -4.46514 0
M  V30 6429 O 595.43 5.67228 -5.69656 0
M  V30 6430 H 595.162 0.648055 -0.192354 0
M  V30 6431 H 597.716 1.6841 -1.17589 0
M  V30 6432 H 595.946 3.86383 0.156438 0
M  V30 6433 H 597.635 4.05318 -0.217192 0
M  V30 6434 H 598.401 4.02862 -2.7005 0
M  V30 6435 H 594.28 4.35292 -1.51795 0
M  V30 6436 H 597.824 4.94688 -4.91863 0
M  V30 6437 H 593.721 5.27028 -3.72708 0
M  V30 6438 H 594.489 5.85592 -5.7186 0
M  V30 6439 N 597.152 0.631951 1.44375 0
M  V30 6440 C 598.429 0.067646 1.95483 0
M  V30 6441 C 598.809 -1.40683 1.57389 0
M  V30 6442 O 598.157 -2.12167 0.848375 0
M  V30 6443 C 598.367 0.291392 3.47781 0
M  V30 6444 C 599.715 0.185028 4.24197 0
M  V30 6445 O 600.739 0.222803 3.55503 0
M  V30 6446 O 599.598 0.0906642 5.46425 0
M  V30 6447 H 596.692 -0.0218379 0.826712 0
M  V30 6448 H 599.238 0.703711 1.54421 0
M  V30 6449 H 598.01 1.31449 3.68561 0
M  V30 6450 H 597.633 -0.378772 3.95792 0
M  V30 6451 N 598.631 -1.53133 0.372548 0
M  V30 6452 C 600.047 -1.59585 0.02178 0
M  V30 6453 C 600.247 -1.38736 -1.46132 0
M  V30 6454 O 599.303 -1.19599 -2.22379 0
M  V30 6455 C 600.616 -2.9678 0.483959 0
M  V30 6456 C 602.164 -3.09909 0.438775 0
M  V30 6457 C 602.639 -4.49527 0.876876 0
M  V30 6458 N 604.13 -4.55663 0.832214 0
M  V30 6459 C 604.865 -5.61896 1.14281 0
M  V30 6460 N 604.361 -6.75852 1.52303 0
M  V30 6461 N 606.154 -5.51916 1.06515 0
M  V30 6462 H 598.305 -1.64936 1.33827 0
M  V30 6463 H 600.568 -0.773947 0.547458 0
M  V30 6464 H 600.274 -3.17198 1.51915 0
M  V30 6465 H 600.148 -3.7699 -0.125784 0
M  V30 6466 H 602.535 -2.89197 -0.587294 0
M  V30 6467 H 602.616 -2.31691 1.0841 0
M  V30 6468 H 602.26 -4.70979 1.90109 0
M  V30 6469 H 602.19 -5.26186 0.208727 0
M  V30 6470 H 604.681 -3.73844 0.552195 0
M  V30 6471 H 604.994 -7.52862 1.7441 0
M  V30 6472 H 603.339 -6.77226 1.56175 0
M  V30 6473 H 606.53 -4.6177 0.767235 0
M  V30 6474 H 606.703 -6.34609 1.31053 0
M  V30 6475 N 600.109 -0.101901 -1.5727 0
M  V30 6476 C 601.386 0.602832 -1.86079 0
M  V30 6477 C 601.766 1.85912 -1 0
M  V30 6478 O 601.114 2.28379 -0.0742488 0
M  V30 6479 C 601.324 0.911694 -3.36881 0
M  V30 6480 C 602.672 1.2722 -4.05093 0
M  V30 6481 O 603.696 1.0025 -3.41802 0
M  V30 6482 O 602.555 1.7776 -5.16782 0
M  V30 6483 H 599.649 0.302366 -0.769743 0
M  V30 6484 H 602.195 -0.135113 -1.69161 0
M  V30 6485 H 600.967 0.0207256 -3.91295 0
M  V30 6486 H 600.59 1.70538 -3.59169 0
M  V30 6487 N 601.587 1.56661 0.17182 0
M  V30 6488 C 602.497 1.99604 1.2327 0
M  V30 6489 C 603.513 0.907333 1.4847 0
M  V30 6490 O 604.689 1.21492 1.60629 0
M  V30 6491 C 601.754 2.34685 2.55194 0
M  V30 6492 C 600.815 3.57381 2.3786 0
M  V30 6493 C 600.048 3.90779 3.63494 0
M  V30 6494 O 600.271 3.25152 4.6865 0
M  V30 6495 O 599.205 4.84129 3.57634 0
M  V30 6496 H 603.031 2.90114 0.898192 0
M  V30 6497 H 600.616 1.44522 0.378647 0
M  V30 6498 H 602.498 2.5822 3.33017 0
M  V30 6499 H 601.173 1.47336 2.88225 0
M  V30 6500 H 600.08 3.39064 1.5807 0
M  V30 6501 H 601.413 4.45268 2.09754 0
M  V30 6502 N 603.065 -0.440357 1.51323 0
M  V30 6503 C 604.311 -1.19181 1.64085 0
M  V30 6504 C 604.644 -1.90936 0.354575 0
M  V30 6505 O 603.919 -1.8347 -0.645675 0
M  V30 6506 C 604.202 -2.2112 2.84215 0
M  V30 6507 C 604.055 -1.53468 4.22809 0
M  V30 6508 C 605.374 -3.22133 2.99864 0
M  V30 6509 H 602.493 -0.431924 0.597169 0
M  V30 6510 H 605.135 -0.481443 1.83799 0
M  V30 6511 H 603.285 -2.81703 2.67537 0
M  V30 6512 H 604.957 -0.962455 4.51148 0
M  V30 6513 H 603.2 -0.837086 4.25647 0
M  V30 6514 H 603.871 -2.27694 5.02852 0
M  V30 6515 H 606.347 -2.71601 3.15233 0
M  V30 6516 H 605.223 -3.90756 3.85488 0
M  V30 6517 H 605.484 -3.88061 2.11804 0
M  V30 6518 N 604.543 -1.41418 -0.695603 0
M  V30 6519 C 605.506 -1.42988 -1.79129 0
M  V30 6520 C 606.506 -0.320514 -1.57573 0
M  V30 6521 O 607.696 -0.58039 -1.64247 0
M  V30 6522 C 604.828 -1.24122 -3.175 0
M  V30 6523 H 606.021 -2.40526 -1.7913 0
M  V30 6524 H 603.574 -1.2756 -0.903225 0
M  V30 6525 H 604.309 -0.274253 -3.23138 0
M  V30 6526 H 604.094 -2.045 -3.34547 0
M  V30 6527 H 605.584 -1.28056 -3.97481 0
M  V30 6528 N 606.021 0.929856 -1.27246 0
M  V30 6529 C 606.984 2.01172 -1.09829 0
M  V30 6530 C 607.984 1.60743 -0.0429687 0
M  V30 6531 O 609.174 1.71813 -0.287373 0
M  V30 6532 C 606.306 3.34191 -0.673003 0
M  V30 6533 H 607.499 2.18054 -2.05895 0
M  V30 6534 H 605.052 1.11036 -1.10003 0
M  V30 6535 H 605.787 3.23009 0.289134 0
M  V30 6536 H 605.572 3.64892 -1.43515 0
M  V30 6537 H 607.062 4.13646 -0.573323 0
M  V30 6538 N 607.499 1.09233 1.13605 0
M  V30 6539 C 608.462 0.733553 2.17144 0
M  V30 6540 C 609.462 -0.235873 1.59061 0
M  V30 6541 O 610.652 -0.0143167 1.74194 0
M  V30 6542 C 607.784 0.084471 3.40795 0
M  V30 6543 H 608.977 1.65049 2.50397 0
M  V30 6544 H 606.53 0.891264 1.28399 0
M  V30 6545 H 607.265 -0.843795 3.1313 0
M  V30 6546 H 607.05 0.781985 3.84223 0
M  V30 6547 H 608.54 -0.151216 4.17326 0
M  V30 6548 N 608.977 -1.30795 0.87923 0
M  V30 6549 C 609.907 -2.30742 0.357796 0
M  V30 6550 C 610.888 -1.60747 -0.556283 0
M  V30 6551 O 612.073 -1.88393 -0.47135 0
M  V30 6552 C 609.203 -3.44583 -0.433555 0
M  V30 6553 C 608.157 -4.26235 0.388251 0
M  V30 6554 C 607.483 -5.32073 -0.529352 0
M  V30 6555 C 608.783 -4.96303 1.62729 0
M  V30 6556 H 610.477 -2.74605 1.19299 0
M  V30 6557 H 608.023 -1.32017 0.575104 0
M  V30 6558 H 609.976 -4.13563 -0.808934 0
M  V30 6559 H 608.7 -2.99511 -1.30234 0
M  V30 6560 H 607.359 -3.58936 0.745695 0
M  V30 6561 H 607.007 -4.83249 -1.39569 0
M  V30 6562 H 606.707 -5.87598 0.0166741 0
M  V30 6563 H 608.231 -6.0391 -0.901373 0
M  V30 6564 H 609.645 -5.5783 1.32283 0
M  V30 6565 H 608.042 -5.61666 2.11309 0
M  V30 6566 H 609.112 -4.22758 2.37494 0
M  V30 6567 N 610.455 -0.639598 -1.44038 0
M  V30 6568 C 611.732 -0.078012 -1.95444 0
M  V30 6569 C 612.112 1.39847 -1.58133 0
M  V30 6570 O 611.46 2.11714 -0.859614 0
M  V30 6571 C 611.67 -0.309832 -3.47622 0
M  V30 6572 C 613.018 -0.207521 -4.24093 0
M  V30 6573 O 614.042 -0.241653 -3.55379 0
M  V30 6574 O 612.901 -0.119641 -5.46369 0
M  V30 6575 H 609.995 0.0174534 -0.826816 0
M  V30 6576 H 612.541 -0.711891 -1.54046 0
M  V30 6577 H 611.313 -1.33401 -3.67858 0
M  V30 6578 H 610.936 0.357777 -3.95987 0
M  V30 6579 N 611.933 1.52934 -0.380664 0
M  V30 6580 C 613.349 1.59571 -0.0302429 0
M  V30 6581 C 613.549 1.39509 1.45394 0
M  V30 6582 O 612.605 1.20777 2.21741 0
M  V30 6583 C 613.918 2.96519 -0.499691 0
M  V30 6584 C 615.466 3.09672 -0.455204 0
M  V30 6585 C 615.941 4.49056 -0.900703 0
M  V30 6586 N 617.432 4.55215 -0.856367 0
M  V30 6587 C 618.167 5.61282 -1.17259 0
M  V30 6588 N 617.663 6.75035 -1.55885 0
M  V30 6589 N 619.456 5.51343 -1.0944 0
M  V30 6590 H 611.607 1.64224 -1.347 0
M  V30 6591 H 613.87 0.771033 -0.551554 0
M  V30 6592 H 613.576 3.16388 -1.53595 0
M  V30 6593 H 613.45 3.77052 0.105789 0
M  V30 6594 H 615.837 2.89504 0.571949 0
M  V30 6595 H 615.918 2.31113 -1.09638 0
M  V30 6596 H 615.562 4.69964 -1.92604 0
M  V30 6597 H 615.492 5.26068 -0.236629 0
M  V30 6598 H 617.983 3.73546 -0.572013 0
M  V30 6599 H 618.296 7.51926 -1.784 0
M  V30 6600 H 616.641 6.76388 -1.59764 0
M  V30 6601 H 619.832 4.61356 -0.791713 0
M  V30 6602 H 620.005 6.33905 -1.34417 0
M  V30 6603 N 613.412 0.11024 1.57214 0
M  V30 6604 C 614.375 -0.828808 2.1369 0
M  V30 6605 C 615.375 -1.20059 1.06969 0
M  V30 6606 O 616.565 -1.12754 1.32786 0
M  V30 6607 C 613.697 -2.11959 2.66994 0
M  V30 6608 H 614.89 -0.338146 2.97988 0
M  V30 6609 H 612.443 -0.138913 1.55681 0
M  V30 6610 H 613.178 -2.65476 1.8626 0
M  V30 6611 H 612.963 -1.86258 3.45037 0
M  V30 6612 H 614.453 -2.79105 3.10629 0
M  V30 6613 N 614.89 -1.56749 -0.16351 0
M  V30 6614 C 615.82 -2.00042 -1.20438 0
M  V30 6615 C 616.801 -0.877256 -1.45733 0
M  V30 6616 O 617.986 -1.1439 -1.56935 0
M  V30 6617 C 615.116 -2.36697 -2.54149 0
M  V30 6618 C 614.07 -3.52046 -2.43408 0
M  V30 6619 C 613.396 -3.74466 -3.81679 0
M  V30 6620 C 614.696 -4.85247 -1.93216 0
M  V30 6621 H 616.39 -2.87244 -0.844477 0
M  V30 6622 H 613.936 -1.38194 -0.40478 0
M  V30 6623 H 615.889 -2.65582 -3.27176 0
M  V30 6624 H 614.613 -1.46414 -2.91943 0
M  V30 6625 H 613.272 -3.23301 -1.72834 0
M  V30 6626 H 612.92 -2.81461 -4.1688 0
M  V30 6627 H 612.62 -4.52084 -3.75359 0
M  V30 6628 H 614.144 -4.0576 -4.5628 0
M  V30 6629 H 615.558 -5.12957 -2.56023 0
M  V30 6630 H 613.955 -5.66556 -1.97825 0
M  V30 6631 H 615.025 -4.7672 -0.88689 0
M  V30 6632 N 616.368 0.432326 -1.51554 0
M  V30 6633 C 617.596 1.20364 -1.68286 0
M  V30 6634 C 618.011 1.84888 -0.38233 0
M  V30 6635 O 617.368 1.70924 0.639627 0
M  V30 6636 C 617.419 2.28398 -2.80208 0
M  V30 6637 O 617.14 1.66512 -4.05223 0
M  V30 6638 C 618.641 3.18584 -3.08251 0
M  V30 6639 H 615.861 0.36259 -0.564596 0
M  V30 6640 H 618.405 0.511647 -1.97996 0
M  V30 6641 H 616.56 2.93305 -2.53083 0
M  V30 6642 H 616.974 2.37951 -4.67418 0
M  V30 6643 H 618.448 3.90511 -3.90135 0
M  V30 6644 H 618.925 3.79628 -2.2086 0
M  V30 6645 H 619.531 2.59372 -3.37055 0
M  V30 6646 N 617.846 1.41785 0.688094 0
M  V30 6647 C 618.779 1.38643 1.81255 0
M  V30 6648 C 619.757 0.252583 1.60626 0
M  V30 6649 O 620.941 0.440691 1.83276 0
M  V30 6650 C 618.068 1.16449 3.18053 0
M  V30 6651 C 617.114 2.32651 3.57457 0
M  V30 6652 S 617.947 3.95152 3.61407 0
M  V30 6653 C 619.103 3.75275 5.00919 0
M  V30 6654 H 619.336 2.33799 1.83644 0
M  V30 6655 H 616.869 1.28398 0.857513 0
M  V30 6656 H 618.827 1.0433 3.97021 0
M  V30 6657 H 617.488 0.229002 3.13264 0
M  V30 6658 H 616.681 2.12835 4.56856 0
M  V30 6659 H 616.283 2.41215 2.85817 0
M  V30 6660 H 618.575 3.35443 5.88629 0
M  V30 6661 H 619.518 4.74302 5.25778 0
M  V30 6662 H 619.926 3.08401 4.7281 0
M  V30 6663 N 619.324 -0.923095 1.27737 0
M  V30 6664 C 620.549 -1.71054 1.17283 0
M  V30 6665 C 620.974 -1.86208 -0.266153 0
M  V30 6666 O 620.332 -1.36545 -1.1927 0
M  V30 6667 C 620.38 -3.0854 1.86642 0
M  V30 6668 O 619.484 -3.95528 1.16752 0
M  V30 6669 H 618.825 -0.524136 0.407649 0
M  V30 6670 H 621.355 -1.15487 1.6889 0
M  V30 6671 H 621.365 -3.58828 1.94182 0
M  V30 6672 H 620.04 -2.96828 2.91317 0
M  V30 6673 H 618.617 -3.53967 1.17312 0
M  V30 6674 N 620.802 -1.09834 -1.13024 0
M  V30 6675 C 621.732 -0.763451 -2.20666 0
M  V30 6676 C 622.713 0.260778 -1.68089 0
M  V30 6677 O 623.898 0.127915 -1.93778 0
M  V30 6678 C 621.028 -0.187744 -3.46792 0
M  V30 6679 C 619.982 -1.14196 -4.12484 0
M  V30 6680 C 619.308 -0.427755 -5.32986 0
M  V30 6681 C 620.608 -2.48607 -4.59338 0
M  V30 6682 H 622.302 -1.66347 -2.48936 0
M  V30 6683 H 619.848 -0.801261 -1.19649 0
M  V30 6684 H 621.801 0.0586375 -4.21359 0
M  V30 6685 H 620.525 0.747485 -3.17931 0
M  V30 6686 H 619.184 -1.37369 -3.3989 0
M  V30 6687 H 618.832 0.511747 -5.0039 0
M  V30 6688 H 618.532 -1.06403 -5.77886 0
M  V30 6689 H 620.056 -0.189772 -6.10305 0
M  V30 6690 H 621.47 -2.29618 -5.25308 0
M  V30 6691 H 619.867 -3.08062 -5.14993 0
M  V30 6692 H 620.937 -3.09062 -3.73642 0
M  V30 6693 N 622.28 1.30327 -0.886154 0
M  V30 6694 C 623.243 2.26376 -0.358687 0
M  V30 6695 C 624.243 1.52845 0.499498 0
M  V30 6696 O 625.433 1.71483 0.306485 0
M  V30 6697 C 622.565 3.37379 0.488726 0
M  V30 6698 H 623.758 2.74547 -1.20681 0
M  V30 6699 H 621.311 1.41536 -0.663113 0
M  V30 6700 H 622.046 2.94526 1.35739 0
M  V30 6701 H 621.831 3.91897 -0.126003 0
M  V30 6702 H 623.321 4.08868 0.84952 0
M  V30 6703 N 623.758 0.647228 1.43697 0
M  V30 6704 C 624.668 -0.0487997 2.34549 0
M  V30 6705 C 625.684 -0.818586 1.53542 0
M  V30 6706 O 626.86 -0.767195 1.86215 0
M  V30 6707 C 623.925 -1.00734 3.31743 0
M  V30 6708 C 622.986 -0.23515 4.28655 0
M  V30 6709 C 622.219 -1.14803 5.21206 0
M  V30 6710 O 622.442 -2.38717 5.18045 0
M  V30 6711 O 621.376 -0.623667 5.9866 0
M  V30 6712 H 625.202 0.698863 2.9555 0
M  V30 6713 H 622.787 0.407412 1.43738 0
M  V30 6714 H 624.669 -1.55837 3.91526 0
M  V30 6715 H 623.344 -1.73534 2.73254 0
M  V30 6716 H 622.251 0.359319 3.7237 0
M  V30 6717 H 623.584 0.453152 4.9011 0
M  V30 6718 N 625.236 -1.5273 0.388769 0
M  V30 6719 C 626.652 -1.59553 0.0387049 0
M  V30 6720 C 626.852 -1.40278 -1.44652 0
M  V30 6721 O 625.908 -1.21951 -2.21098 0
M  V30 6722 C 627.221 -2.9625 0.515409 0
M  V30 6723 C 628.769 -3.09426 0.471621 0
M  V30 6724 C 629.244 -4.48572 0.924505 0
M  V30 6725 N 630.735 -4.54754 0.880496 0
M  V30 6726 C 631.47 -5.60653 1.20234 0
M  V30 6727 N 630.966 -6.74198 1.59463 0
M  V30 6728 N 632.759 -5.50755 1.12363 0
M  V30 6729 H 624.91 -1.63508 1.35569 0
M  V30 6730 H 627.173 -0.768097 0.555636 0
M  V30 6731 H 626.879 -3.15569 1.5527 0
M  V30 6732 H 626.753 -3.77102 -0.085792 0
M  V30 6733 H 629.14 -2.89804 -0.556588 0
M  V30 6734 H 629.221 -2.30528 1.10862 0
M  V30 6735 H 628.865 -4.68936 1.95094 0
M  V30 6736 H 628.795 -5.25935 0.264524 0
M  V30 6737 H 631.286 -3.73237 0.591815 0
M  V30 6738 H 631.599 -7.5097 1.82385 0
M  V30 6739 H 629.944 -6.75531 1.63349 0
M  V30 6740 H 633.135 -4.6093 0.816169 0
M  V30 6741 H 633.308 -6.33184 1.37777 0
M  V30 6742 N 626.714 -0.118576 -1.57153 0
M  V30 6743 C 627.963 0.539339 -1.94355 0
M  V30 6744 C 628.276 1.67858 -1.00415 0
M  V30 6745 O 629.482 2.39922 -1.27081 0
M  V30 6746 C 627.938 1.01082 -3.45414 0
M  V30 6747 C 627.546 -0.0999402 -4.47889 0
M  V30 6748 C 629.29 1.64013 -3.91535 0
M  V30 6749 C 627.197 0.388212 -5.90124 0
M  V30 6750 H 626.127 0.205247 -0.725527 0
M  V30 6751 H 628.778 -0.19836 -1.82425 0
M  V30 6752 H 627.16 1.80292 -3.52577 0
M  V30 6753 H 628.334 -0.876189 -4.52393 0
M  V30 6754 H 626.649 -0.635885 -4.11516 0
M  V30 6755 H 629.246 2.01649 -4.95219 0
M  V30 6756 H 629.589 2.51836 -3.31488 0
M  V30 6757 H 630.122 0.913439 -3.87171 0
M  V30 6758 H 626.861 -0.453963 -6.53926 0
M  V30 6759 H 626.381 1.13095 -5.89041 0
M  V30 6760 H 628.06 0.849574 -6.41398 0
M  V30 6761 N 628.193 1.56834 0.155195 0
M  V30 6762 C 629.418 1.87412 0.888337 0
M  V30 6763 C 629.843 0.70671 1.74319 0
M  V30 6764 O 629.201 -0.343892 1.78009 0
M  V30 6765 C 629.249 3.1652 1.72765 0
M  V30 6766 O 628.353 2.99877 2.83103 0
M  V30 6767 H 627.694 0.615983 0.247914 0
M  V30 6768 H 630.224 2.04061 0.148478 0
M  V30 6769 H 630.234 3.48334 2.12433 0
M  V30 6770 H 628.909 4.01094 1.09985 0
M  V30 6771 H 627.486 2.79453 2.46902 0
M  V30 6772 N 629.671 -0.424282 1.51781 0
M  V30 6773 C 631.087 -0.761768 1.40247 0
M  V30 6774 C 631.287 -1.95324 0.495041 0
M  V30 6775 O 630.343 -2.5246 -0.0448949 0
M  V30 6776 C 631.656 -1.0299 2.82513 0
M  V30 6777 C 633.204 -1.13354 2.91753 0
M  V30 6778 C 633.679 -1.43453 4.34954 0
M  V30 6779 N 635.17 -1.5035 4.3812 0
M  V30 6780 C 635.905 -1.75236 5.45967 0
M  V30 6781 N 635.401 -1.97827 6.63955 0
M  V30 6782 N 637.194 -1.77126 5.33463 0
M  V30 6783 H 629.345 0.360228 2.09323 0
M  V30 6784 H 631.608 0.0988128 0.942836 0
M  V30 6785 H 631.314 -0.226961 3.50967 0
M  V30 6786 H 631.188 -1.95411 3.22637 0
M  V30 6787 H 633.575 -1.92709 2.23489 0
M  V30 6788 H 633.656 -0.188041 2.55108 0
M  V30 6789 H 633.3 -0.646209 5.03772 0
M  V30 6790 H 633.23 -2.3923 4.69123 0
M  V30 6791 H 635.721 -1.34742 3.53062 0
M  V30 6792 H 636.034 -2.16223 7.41935 0
M  V30 6793 H 634.379 -1.95123 6.67047 0
M  V30 6794 H 637.57 -1.59005 4.40267 0
M  V30 6795 H 637.743 -1.96182 6.17589 0
M  V30 6796 N 631.149 -1.42148 -0.680565 0
M  V30 6797 C 632.099 -1.41634 -1.78672 0
M  V30 6798 C 633.083 -0.288494 -1.58293 0
M  V30 6799 O 634.275 -0.530295 -1.68869 0
M  V30 6800 C 631.404 -1.31558 -3.17092 0
M  V30 6801 C 630.49 -2.49265 -3.43115 0
M  V30 6802 N 630.881 -3.74702 -3.39753 0
M  V30 6803 C 629.179 -2.43401 -3.73727 0
M  V30 6804 C 629.88 -4.52854 -3.651 0
M  V30 6805 N 628.856 -3.83181 -3.85582 0
M  V30 6806 H 632.658 -2.3652 -1.74458 0
M  V30 6807 H 630.172 -1.36415 -0.881171 0
M  V30 6808 H 632.169 -1.29272 -3.96351 0
M  V30 6809 H 630.829 -0.376696 -3.22508 0
M  V30 6810 H 631.84 -4.07378 -3.19787 0
M  V30 6811 H 628.517 -1.58062 -3.86423 0
M  V30 6812 H 629.907 -5.61827 -3.6851 0
M  V30 6813 N 632.627 0.916307 -1.28225 0
M  V30 6814 C 633.59 1.99996 -1.11957 0
M  V30 6815 C 634.59 1.60688 -0.0600152 0
M  V30 6816 O 635.78 1.71499 -0.30558 0
M  V30 6817 C 632.912 3.33458 -0.708411 0
M  V30 6818 H 634.105 2.15858 -2.08196 0
M  V30 6819 H 631.658 1.09863 -1.11175 0
M  V30 6820 H 632.393 3.23297 0.254859 0
M  V30 6821 H 632.178 3.63349 -1.47377 0
M  V30 6822 H 633.668 4.13014 -0.617164 0
M  V30 6823 N 634.105 1.10431 1.1244 0
M  V30 6824 C 635.015 0.765502 2.21759 0
M  V30 6825 C 636.031 -0.236966 1.72379 0
M  V30 6826 O 637.207 -0.0757329 2.01258 0
M  V30 6827 C 634.272 0.202316 3.46109 0
M  V30 6828 C 633.333 1.26205 4.1033 0
M  V30 6829 C 632.566 0.725648 5.28744 0
M  V30 6830 O 632.789 -0.447942 5.68638 0
M  V30 6831 O 631.723 1.48555 5.83279 0
M  V30 6832 H 635.549 1.67801 2.53133 0
M  V30 6833 H 633.134 0.879443 1.20773 0
M  V30 6834 H 635.016 -0.107918 4.21262 0
M  V30 6835 H 633.691 -0.683052 3.16411 0
M  V30 6836 H 632.598 1.62514 3.36957 0
M  V30 6837 H 633.931 2.12044 4.44183 0
M  V30 6838 N 635.583 -1.29855 0.893053 0
M  V30 6839 C 636.516 -2.26079 0.3104 0
M  V30 6840 C 637.494 -1.52145 -0.573644 0
M  V30 6841 O 638.678 -1.8113 -0.521937 0
M  V30 6842 C 635.805 -3.34069 -0.558179 0
M  V30 6843 C 634.851 -4.25721 0.257638 0
M  V30 6844 S 635.684 -5.09409 1.65114 0
M  V30 6845 C 636.84 -6.20903 0.789307 0
M  V30 6846 H 637.073 -2.75151 1.12602 0
M  V30 6847 H 634.606 -1.37975 0.692978 0
M  V30 6848 H 636.564 -3.9675 -1.05355 0
M  V30 6849 H 635.225 -2.83705 -1.34797 0
M  V30 6850 H 634.418 -5.02366 -0.405562 0
M  V30 6851 H 634.02 -3.67656 0.685917 0
M  V30 6852 H 636.312 -6.77499 0.00978451 0
M  V30 6853 H 637.255 -6.91426 1.52762 0
M  V30 6854 H 637.663 -5.63435 0.346634 0
M  V30 6855 N 637.061 -0.65484 -1.43351 0
M  V30 6856 C 637.991 0.0221809 -2.33489 0
M  V30 6857 C 638.972 0.810272 -1.49561 0
M  V30 6858 O 640.157 0.771426 -1.78221 0
M  V30 6859 C 637.287 0.988117 -3.32947 0
M  V30 6860 C 636.241 0.310026 -4.26876 0
M  V30 6861 C 635.567 1.38752 -5.16384 0
M  V30 6862 C 636.867 -0.798589 -5.16159 0
M  V30 6863 H 638.561 -0.730571 -2.9035 0
M  V30 6864 H 636.107 -0.352773 -1.39612 0
M  V30 6865 H 638.06 1.47067 -3.94904 0
M  V30 6866 H 636.784 1.77205 -2.74346 0
M  V30 6867 H 635.443 -0.152097 -3.66284 0
M  V30 6868 H 635.091 2.16293 -4.54121 0
M  V30 6869 H 634.791 0.939051 -5.80048 0
M  V30 6870 H 636.315 1.87141 -5.81215 0
M  V30 6871 H 637.729 -0.398126 -5.71916 0
M  V30 6872 H 636.126 -1.17163 -5.88552 0
M  V30 6873 H 637.196 -1.65588 -4.55751 0
M  V30 6874 N 638.539 1.52521 -0.396863 0
M  V30 6875 C 639.816 1.94112 0.240842 0
M  V30 6876 C 640.196 1.33288 1.637 0
M  V30 6877 O 639.544 0.503901 2.22875 0
M  V30 6878 C 639.754 3.48033 0.259567 0
M  V30 6879 C 641.102 4.21822 0.484866 0
M  V30 6880 O 642.126 3.54579 0.339453 0
M  V30 6881 O 640.985 5.41042 0.770412 0
M  V30 6882 H 638.079 0.812973 0.151671 0
M  V30 6883 H 640.625 1.63572 -0.451918 0
M  V30 6884 H 639.397 3.84655 -0.718078 0
M  V30 6885 H 639.02 3.84899 0.996937 0
M  V30 6886 N 640.017 0.126909 1.57088 0
M  V30 6887 C 641.263 -0.529952 1.95753 0
M  V30 6888 C 641.596 -1.65823 1.01077 0
M  V30 6889 O 640.871 -1.94437 0.0494162 0
M  V30 6890 C 641.154 -1.05517 3.44294 0
M  V30 6891 C 641.007 0.0702253 4.49745 0
M  V30 6892 C 642.326 -1.9435 3.94862 0
M  V30 6893 H 639.445 -0.191168 0.711775 0
M  V30 6894 H 642.087 0.204071 1.88901 0
M  V30 6895 H 640.237 -1.68069 3.50264 0
M  V30 6896 H 641.909 0.705834 4.55868 0
M  V30 6897 H 640.152 0.732259 4.27575 0
M  V30 6898 H 640.823 -0.338642 5.5096 0
M  V30 6899 H 643.299 -1.41658 3.91244 0
M  V30 6900 H 642.175 -2.28015 4.993 0
M  V30 6901 H 642.436 -2.87299 3.36024 0
M  V30 6902 N 641.495 -1.56914 -0.146875 0
M  V30 6903 C 642.744 -1.82546 -0.857898 0
M  V30 6904 C 643.057 -0.708169 -1.8233 0
M  V30 6905 O 644.263 -0.850093 -2.57848 0
M  V30 6906 C 642.719 -3.23548 -1.57623 0
M  V30 6907 C 642.327 -4.43212 -0.653224 0
M  V30 6908 C 644.071 -3.58453 -2.27402 0
M  V30 6909 C 641.978 -5.75237 -1.37318 0
M  V30 6910 H 640.908 -0.680786 -0.32411 0
M  V30 6911 H 643.559 -1.83166 -0.110639 0
M  V30 6912 H 641.941 -3.17315 -2.36912 0
M  V30 6913 H 643.115 -4.60682 0.104452 0
M  V30 6914 H 641.43 -4.16351 -0.0638336 0
M  V30 6915 H 644.027 -4.54349 -2.81907 0
M  V30 6916 H 644.37 -2.84516 -3.03901 0
M  V30 6917 H 644.903 -3.66347 -1.55032 0
M  V30 6918 H 641.642 -6.52269 -0.650041 0
M  V30 6919 H 641.162 -5.61703 -2.10357 0
M  V30 6920 H 642.841 -6.18039 -1.91406 0
M  V30 6921 N 642.974 0.416227 -1.52004 0
M  V30 6922 C 644.22 1.16555 -1.6596 0
M  V30 6923 C 644.553 1.90347 -0.384906 0
M  V30 6924 O 643.828 1.84474 0.616405 0
M  V30 6925 C 644.111 2.1657 -2.87696 0
M  V30 6926 C 643.964 1.46722 -4.25197 0
M  V30 6927 C 645.283 3.17321 -3.04951 0
M  V30 6928 H 642.402 0.422369 -0.603965 0
M  V30 6929 H 645.044 0.452141 -1.84542 0
M  V30 6930 H 643.194 2.77411 -2.71985 0
M  V30 6931 H 644.866 0.89056 -4.52622 0
M  V30 6932 H 643.109 0.769263 -4.26925 0
M  V30 6933 H 643.78 2.19665 -5.0641 0
M  V30 6934 H 646.256 2.66552 -3.19514 0
M  V30 6935 H 645.132 3.84573 -3.91656 0
M  V30 6936 H 645.393 3.84643 -2.17951 0
M  V30 6937 N 644.452 1.42507 0.673017 0
M  V30 6938 C 645.399 1.46124 1.78651 0
M  V30 6939 C 646.369 0.313007 1.63124 0
M  V30 6940 O 647.554 0.517337 1.83653 0
M  V30 6941 C 644.694 1.3711 3.16694 0
M  V30 6942 C 643.807 2.61983 3.43495 0
M  V30 6943 C 642.942 2.45098 4.71275 0
M  V30 6944 C 641.981 3.65336 4.91117 0
M  V30 6945 N 641.118 3.47383 6.10139 0
M  V30 6946 H 645.958 2.4128 1.74895 0
M  V30 6947 H 643.495 1.19788 0.853766 0
M  V30 6948 H 645.453 1.29881 3.96468 0
M  V30 6949 H 644.083 0.45549 3.1957 0
M  V30 6950 H 643.135 2.79571 2.57961 0
M  V30 6951 H 644.447 3.51355 3.5405 0
M  V30 6952 H 643.601 2.35466 5.59143 0
M  V30 6953 H 642.34 1.53219 4.63007 0
M  V30 6954 H 641.345 3.754 4.0169 0
M  V30 6955 H 642.57 4.58199 5.01229 0
M  V30 6956 H 640.516 2.58222 6.0304 0
M  V30 6957 H 640.433 4.30344 6.21563 0
M  V30 6958 H 641.701 3.41565 7.00681 0
M  V30 6959 N 645.93 -0.909495 1.28709 0
M  V30 6960 C 646.878 -2.03381 1.12866 0
M  V30 6961 C 647.872 -1.69335 0.0468074 0
M  V30 6962 O 649.078 -1.78819 0.205891 0
M  V30 6963 H 645.453 -0.666452 0.348348 0
M  V30 6964 H 647.424 -2.13885 2.08077 0
M  V30 6965 C 646.173 -3.38092 0.811742 0
M  V30 6966 H 645.496 -3.64786 1.63619 0
M  V30 6967 H 646.936 -4.17477 0.740869 0
M  V30 6968 C 645.395 -3.33395 -0.484679 0
M  V30 6969 O 645.925 -3.72089 -1.5137 0
M  V30 6970 N 644.131 -2.86491 -0.486961 0
M  V30 6971 H 643.678 -2.55199 0.350877 0
M  V30 6972 H 643.636 -2.83731 -1.3544 0
M  V30 6973 N 647.408 -1.11026 -1.11852 0
M  V30 6974 C 648.685 -0.768347 -1.79877 0
M  V30 6975 C 649.065 0.744261 -1.97545 0
M  V30 6976 O 648.413 1.67271 -1.55669 0
M  V30 6977 C 648.623 -1.52648 -3.13846 0
M  V30 6978 C 649.971 -1.70297 -3.88953 0
M  V30 6979 O 650.995 -1.49037 -3.23522 0
M  V30 6980 O 649.854 -2.05593 -5.06353 0
M  V30 6981 H 646.948 -0.277891 -0.778913 0
M  V30 6982 H 649.494 -1.21343 -1.18633 0
M  V30 6983 H 648.266 -2.55564 -2.96315 0
M  V30 6984 H 647.889 -1.07466 -3.82801 0
M  V30 6985 N 648.886 1.2938 -0.899927 0
M  V30 6986 C 650.135 1.9483 -0.521937 0
M  V30 6987 C 650.448 1.71725 0.936473 0
M  V30 6988 O 651.654 2.31282 1.42199 0
M  V30 6989 C 650.11 3.48911 -0.88255 0
M  V30 6990 C 649.718 3.80815 -2.35974 0
M  V30 6991 C 651.462 4.20595 -0.57448 0
M  V30 6992 C 649.369 5.28142 -2.66121 0
M  V30 6993 H 648.299 0.729285 -0.191468 0
M  V30 6994 H 650.95 1.47103 -1.09695 0
M  V30 6995 H 649.332 3.95293 -0.236459 0
M  V30 6996 H 650.506 3.45291 -3.05141 0
M  V30 6997 H 648.821 3.22271 -2.63686 0
M  V30 6998 H 651.418 5.29031 -0.776556 0
M  V30 6999 H 651.761 4.13442 0.487005 0
M  V30 7000 H 652.294 3.79945 -1.17842 0
M  V30 7001 H 649.033 5.4036 -3.71068 0
M  V30 7002 H 648.553 5.64913 -2.01578 0
M  V30 7003 H 650.232 5.95738 -2.52399 0
M  V30 7004 N 650.364 0.662433 1.43002 0
M  V30 7005 C 651.312 -0.035345 2.32573 0
M  V30 7006 C 652.306 -0.803505 1.49131 0
M  V30 7007 O 653.512 -0.712865 1.65282 0
M  V30 7008 H 649.887 -0.0302194 0.751393 0
M  V30 7009 H 651.858 0.737686 2.89138 0
M  V30 7010 C 650.607 -0.981575 3.33557 0
M  V30 7011 H 649.93 -0.399914 3.97795 0
M  V30 7012 H 651.37 -1.43873 3.98844 0
M  V30 7013 C 649.829 -2.08204 2.64863 0
M  V30 7014 O 650.359 -3.16698 2.47113 0
M  V30 7015 N 648.565 -1.85022 2.24088 0
M  V30 7016 H 648.112 -0.967909 2.38724 0
M  V30 7017 H 648.07 -2.58845 1.78457 0
M  V30 7018 N 651.842 -1.52309 0.404946 0
M  V30 7019 C 652.792 -2.23717 -0.439864 0
M  V30 7020 C 653.776 -1.24692 -1.0169 0
M  V30 7021 O 654.968 -1.49951 -0.940409 0
M  V30 7022 C 652.097 -3.05898 -1.55825 0
M  V30 7023 C 651.183 -4.12331 -0.992188 0
M  V30 7024 N 651.574 -5.0557 -0.152424 0
M  V30 7025 C 649.872 -4.2774 -1.26312 0
M  V30 7026 C 650.573 -5.81474 0.162041 0
M  V30 7027 N 649.549 -5.41767 -0.44601 0
M  V30 7028 H 653.351 -2.93162 0.208084 0
M  V30 7029 H 650.865 -1.60969 0.215131 0
M  V30 7030 H 652.862 -3.55605 -2.17603 0
M  V30 7031 H 651.522 -2.37991 -2.20886 0
M  V30 7032 H 652.533 -5.17468 0.211556 0
M  V30 7033 H 649.21 -3.71062 -1.91362 0
M  V30 7034 H 650.6 -6.66585 0.843423 0
M  V30 7035 N 653.32 -0.135238 -1.57019 0
M  V30 7036 C 654.566 0.513232 -1.96818 0
M  V30 7037 C 654.921 1.63245 -1.01827 0
M  V30 7038 O 654.214 1.91532 -0.0511756 0
M  V30 7039 C 654.408 1.07694 -3.40788 0
M  V30 7040 C 654.237 0.0138667 -4.49698 0
M  V30 7041 C 653.007 -0.423532 -5.03522 0
M  V30 7042 C 655.205 -0.77322 -5.08454 0
M  V30 7043 N 653.187 -1.47068 -5.96024 0
M  V30 7044 C 654.558 -1.67115 -5.97053 0
M  V30 7045 C 656.613 -0.822313 -4.91063 0
M  V30 7046 C 655.316 -2.61395 -6.70123 0
M  V30 7047 C 657.342 -1.75288 -5.64826 0
M  V30 7048 C 656.704 -2.63836 -6.53123 0
M  V30 7049 H 652.803 0.156956 -0.766087 0
M  V30 7050 H 655.387 -0.227118 -1.93371 0
M  V30 7051 H 653.558 1.78694 -3.44852 0
M  V30 7052 H 655.29 1.69106 -3.67675 0
M  V30 7053 H 652.045 -0.0280202 -4.73592 0
M  V30 7054 H 652.469 -1.99366 -6.46979 0
M  V30 7055 H 657.111 -0.151822 -4.22527 0
M  V30 7056 H 654.829 -3.2945 -7.37895 0
M  V30 7057 H 658.415 -1.79652 -5.53368 0
M  V30 7058 H 657.295 -3.34672 -7.092 0
M  V30 7059 N 654.798 1.5699 0.138552 0
M  V30 7060 C 655.73 1.95515 1.1961 0
M  V30 7061 C 656.743 0.852002 1.38726 0
M  V30 7062 O 657.932 1.13038 1.38147 0
M  V30 7063 C 655.032 2.2213 2.55952 0
M  V30 7064 C 654.205 3.53424 2.57702 0
M  V30 7065 C 653.264 3.6848 3.75645 0
M  V30 7066 O 652.29 4.4079 3.60129 0
M  V30 7067 N 653.492 3.05777 4.93438 0
M  V30 7068 H 656.257 2.86838 0.868557 0
M  V30 7069 H 653.818 1.58542 0.328033 0
M  V30 7070 H 655.81 2.29435 3.33379 0
M  V30 7071 H 654.38 1.3703 2.80965 0
M  V30 7072 H 653.6 3.57484 1.6613 0
M  V30 7073 H 654.888 4.39759 2.55909 0
M  V30 7074 H 654.286 2.46961 5.08947 0
M  V30 7075 H 652.843 3.18631 5.6861 0
M  V30 7076 N 656.276 -0.40816 1.52223 0
M  V30 7077 C 657.186 -1.52202 1.78526 0
M  V30 7078 C 658.202 -1.60546 0.670892 0
M  V30 7079 O 659.378 -1.77242 0.956404 0
M  V30 7080 C 656.443 -2.87928 1.93128 0
M  V30 7081 C 655.504 -2.89463 3.17033 0
M  V30 7082 C 654.737 -4.18715 3.30929 0
M  V30 7083 O 654.96 -5.12662 2.50067 0
M  V30 7084 O 653.894 -4.27125 4.24084 0
M  V30 7085 H 657.72 -1.32911 2.73072 0
M  V30 7086 H 655.305 -0.594112 1.37079 0
M  V30 7087 H 657.187 -3.68426 2.04549 0
M  V30 7088 H 655.862 -3.07285 1.01772 0
M  V30 7089 H 654.769 -2.07815 3.11069 0
M  V30 7090 H 656.102 -2.75055 4.08174 0
M  V30 7091 N 657.755 -1.42862 -0.66545 0
M  V30 7092 C 658.995 -1.45323 -1.43738 0
M  V30 7093 C 659.359 -0.0707969 -1.91869 0
M  V30 7094 O 660.56 0.0298852 -2.68783 0
M  V30 7095 C 658.831 -2.45671 -2.59577 0
M  V30 7096 S 660.39 -2.6691 -3.48288 0
M  V30 7097 H 657.208 -0.51442 -0.490809 0
M  V30 7098 H 659.81 -1.79537 -0.773745 0
M  V30 7099 H 658.514 -3.44869 -2.22471 0
M  V30 7100 H 658.045 -2.12914 -3.30804 0
M  V30 7101 H 660.06 -1.95914 -4.55886 0
M  V30 7102 N 659.233 0.902656 -1.29189 0
M  V30 7103 C 660.48 1.65287 -1.16989 0
M  V30 7104 C 660.808 1.92485 0.279232 0
M  V30 7105 O 660.063 1.53143 1.21843 0
M  V30 7106 C 660.362 3.011 -1.92545 0
M  V30 7107 C 660.028 2.93521 -3.42281 0
M  V30 7108 C 658.69 2.91161 -3.83117 0
M  V30 7109 C 661.042 2.82947 -4.3771 0
M  V30 7110 C 658.37 2.76043 -5.17704 0
M  V30 7111 C 660.722 2.69368 -5.72384 0
M  V30 7112 C 659.386 2.65373 -6.12482 0
M  V30 7113 H 658.656 0.604828 -0.428094 0
M  V30 7114 H 661.303 1.05084 -1.60092 0
M  V30 7115 H 659.608 3.65153 -1.42024 0
M  V30 7116 H 661.305 3.58073 -1.80512 0
M  V30 7117 H 657.895 2.96158 -3.09819 0
M  V30 7118 H 662.079 2.83849 -4.07116 0
M  V30 7119 H 657.335 2.71352 -5.47885 0
M  V30 7120 H 661.509 2.60156 -6.45981 0
M  V30 7121 H 659.136 2.53415 -7.16718 0
M  V30 7122 N 660.711 1.11618 1.11262 0
M  V30 7123 C 661.96 0.860934 1.82403 0
M  V30 7124 C 662.273 -0.615303 1.8567 0
M  V30 7125 O 663.479 -0.986861 2.52929 0
M  V30 7126 C 661.935 1.49048 3.27586 0
M  V30 7127 C 661.543 3.00089 3.32642 0
M  V30 7128 C 663.287 1.31515 4.03614 0
M  V30 7129 C 661.194 3.56019 4.72234 0
M  V30 7130 H 660.124 0.318423 0.683464 0
M  V30 7131 H 662.775 1.34165 1.25188 0
M  V30 7132 H 661.157 0.937434 3.84744 0
M  V30 7133 H 662.331 3.61813 2.85356 0
M  V30 7134 H 660.646 3.16919 2.70096 0
M  V30 7135 H 663.243 1.70732 5.0671 0
M  V30 7136 H 663.586 0.257917 4.155 0
M  V30 7137 H 664.119 1.83694 3.52848 0
M  V30 7138 H 660.858 4.61463 4.65545 0
M  V30 7139 H 660.378 2.99066 5.19923 0
M  V30 7140 H 662.057 3.54568 5.41193 0
M  V30 7141 N 662.189 -1.289 0.906776 0
M  V30 7142 C 663.414 -1.99939 0.551303 0
M  V30 7143 C 663.839 -1.67366 -0.858496 0
M  V30 7144 O 663.197 -0.902176 -1.57259 0
M  V30 7145 C 663.245 -3.52523 0.758937 0
M  V30 7146 O 662.349 -4.11983 -0.185308 0
M  V30 7147 H 661.69 -0.628376 0.214568 0
M  V30 7148 H 664.22 -1.64225 1.2203 0
M  V30 7149 H 664.23 -4.02522 0.666329 0
M  V30 7150 H 662.905 -3.75566 1.78671 0
M  V30 7151 H 661.482 -3.72873 -0.0445577 0
M  V30 7152 N 663.667 -0.670007 -1.42649 0
M  V30 7153 C 664.944 -0.119451 -1.95235 0
M  V30 7154 C 665.324 1.36461 -1.61064 0
M  V30 7155 O 664.672 2.09843 -0.904329 0
M  V30 7156 C 664.882 -0.383498 -3.46887 0
M  V30 7157 C 666.23 -0.297431 -4.23557 0
M  V30 7158 O 667.254 -0.31698 -3.54787 0
M  V30 7159 O 666.113 -0.235507 -5.45992 0
M  V30 7160 H 663.207 -8.85474e-05 -0.827 0
M  V30 7161 H 665.753 -0.744406 -1.52501 0
M  V30 7162 H 664.525 -1.41174 -3.64946 0
M  V30 7163 H 664.148 0.273702 -3.96657 0
M  V30 7164 N 665.145 1.52092 -0.413018 0
M  V30 7165 C 666.075 2.30021 0.401567 0
M  V30 7166 C 667.056 1.34395 1.04269 0
M  V30 7167 O 668.241 1.63304 1.05097 0
M  V30 7168 C 665.371 3.12447 1.51638 0
M  V30 7169 C 664.325 4.16153 1.00005 0
M  V30 7170 C 663.651 4.86948 2.20875 0
M  V30 7171 C 664.951 5.22275 0.0513757 0
M  V30 7172 H 666.645 2.98365 -0.248704 0
M  V30 7173 H 664.191 1.4349 -0.121052 0
M  V30 7174 H 666.144 3.65733 2.09326 0
M  V30 7175 H 664.868 2.41879 2.19458 0
M  V30 7176 H 663.527 3.63882 0.445549 0
M  V30 7177 H 663.175 4.12905 2.8726 0
M  V30 7178 H 662.875 5.57057 1.86978 0
M  V30 7179 H 664.399 5.43048 2.79162 0
M  V30 7180 H 665.813 5.70778 0.537176 0
M  V30 7181 H 664.21 5.9977 -0.198977 0
M  V30 7182 H 665.28 4.76611 -0.892736 0
M  V30 7183 N 666.623 0.143563 1.56945 0
M  V30 7184 C 667.57 -0.797433 2.16586 0
M  V30 7185 C 668.54 -1.24654 1.09775 0
M  V30 7186 O 669.725 -1.31968 1.37801 0
M  V30 7187 C 666.865 -2.03253 2.78895 0
M  V30 7188 C 665.978 -1.62954 4.00087 0
M  V30 7189 C 665.113 -2.81617 4.50406 0
M  V30 7190 C 664.152 -2.37675 5.64072 0
M  V30 7191 N 663.289 -3.49335 6.09023 0
M  V30 7192 H 668.129 -0.282023 2.96662 0
M  V30 7193 H 665.666 -0.127494 1.46546 0
M  V30 7194 H 667.624 -2.75653 3.13163 0
M  V30 7195 H 666.254 -2.52211 2.01469 0
M  V30 7196 H 665.306 -0.803322 3.71821 0
M  V30 7197 H 666.618 -1.26679 4.82446 0
M  V30 7198 H 665.772 -3.62212 4.86711 0
M  V30 7199 H 664.511 -3.21134 3.67048 0
M  V30 7200 H 663.516 -1.55519 5.27346 0
M  V30 7201 H 664.741 -1.99247 6.49213 0
M  V30 7202 H 662.687 -3.8848 5.28601 0
M  V30 7203 H 662.604 -3.17064 6.86299 0
M  V30 7204 H 663.872 -4.30297 6.49973 0
M  V30 7205 N 668.101 -1.57061 -0.130224 0
M  V30 7206 C 669.033 -1.96147 -1.18571 0
M  V30 7207 C 670.046 -0.859347 -1.38272 0
M  V30 7208 O 671.235 -1.13769 -1.37545 0
M  V30 7209 C 668.335 -2.23484 -2.54771 0
M  V30 7210 C 667.508 -3.54786 -2.55824 0
M  V30 7211 C 666.567 -3.70467 -3.73686 0
M  V30 7212 O 665.593 -4.42693 -3.57787 0
M  V30 7213 N 666.795 -3.08389 -4.91809 0
M  V30 7214 H 669.56 -2.87295 -0.853333 0
M  V30 7215 H 667.121 -1.58714 -0.319621 0
M  V30 7216 H 669.113 -2.312 -3.32158 0
M  V30 7217 H 667.683 -1.38518 -2.80235 0
M  V30 7218 H 666.903 -3.5836 -1.64232 0
M  V30 7219 H 668.191 -4.4111 -2.53573 0
M  V30 7220 H 667.589 -2.49656 -5.0763 0
M  V30 7221 H 666.146 -3.21642 -5.66912 0
M  V30 7222 N 669.579 0.400081 -1.52437 0
M  V30 7223 C 670.828 1.14332 -1.66166 0
M  V30 7224 C 671.141 1.91419 -0.402253 0
M  V30 7225 O 672.347 2.6824 -0.419487 0
M  V30 7226 C 670.803 2.08137 -2.9361 0
M  V30 7227 C 670.411 1.36524 -4.26691 0
M  V30 7228 C 672.155 2.82664 -3.16703 0
M  V30 7229 C 670.062 2.29031 -5.45251 0
M  V30 7230 H 668.992 0.430499 -0.61902 0
M  V30 7231 H 671.643 0.407017 -1.78929 0
M  V30 7232 H 670.025 2.85358 -2.74567 0
M  V30 7233 H 671.199 0.646061 -4.56249 0
M  V30 7234 H 669.514 0.74002 -4.09771 0
M  V30 7235 H 672.111 3.52037 -4.0246 0
M  V30 7236 H 672.454 3.46122 -2.31312 0
M  V30 7237 H 672.987 2.12541 -3.36261 0
M  V30 7238 H 669.726 1.70206 -6.33017 0
M  V30 7239 H 669.246 2.98896 -5.2002 0
M  V30 7240 H 670.925 2.89359 -5.78689 0
M  V30 7241 N 671.057 1.43213 0.657864 0
M  V30 7242 C 672.303 1.44798 1.41991 0
M  V30 7243 C 672.636 0.070256 1.94073 0
M  V30 7244 O 671.911 -0.908177 1.71995 0
M  V30 7245 C 672.194 2.4865 2.60471 0
M  V30 7246 C 672.047 3.95679 2.13911 0
M  V30 7247 C 673.366 2.49292 3.62686 0
M  V30 7248 H 670.485 0.527244 0.514959 0
M  V30 7249 H 673.127 1.74733 0.74621 0
M  V30 7250 H 671.277 2.23254 3.17946 0
M  V30 7251 H 672.949 4.32116 1.61472 0
M  V30 7252 H 671.192 4.08733 1.45325 0
M  V30 7253 H 671.863 4.6395 2.99089 0
M  V30 7254 H 674.339 2.71917 3.14961 0
M  V30 7255 H 673.215 3.23907 4.43143 0
M  V30 7256 H 673.476 1.52502 4.14964 0
M  V30 7257 N 672.536 -0.895792 1.29666 0
M  V30 7258 C 673.947 -1.46195 1.1612 0
M  V30 7259 C 674.298 -1.94699 -0.242195 0
M  V30 7260 O 673.423 -1.8406 -1.13802 0
M  V30 7261 C 674.018 -2.65718 2.10189 0
M  V30 7262 C 672.577 -3.18458 2.00653 0
M  V30 7263 C 671.724 -1.91149 2.00891 0
M  V30 7264 H 674.675 -0.706756 1.42094 0
M  V30 7265 H 674.696 -3.4158 1.6764 0
M  V30 7266 H 674.208 -2.30386 3.12321 0
M  V30 7267 H 672.309 -3.58474 1.01623 0
M  V30 7268 H 672.422 -3.82491 2.88509 0
M  V30 7269 H 670.786 -2.09021 1.45542 0
M  V30 7270 H 671.569 -1.58089 3.04734 0
M  V30 7271 N 674.014 -1.12206 -1.10668 0
M  V30 7272 C 675.43 -0.857619 -1.346 0
M  V30 7273 C 675.63 0.513542 -1.94846 0
M  V30 7274 O 674.686 1.26273 -2.18658 0
M  V30 7275 C 675.999 -1.97212 -2.26998 0
M  V30 7276 C 677.547 -2.00272 -2.40542 0
M  V30 7277 C 678.022 -3.10948 -3.36267 0
M  V30 7278 N 679.513 -3.10375 -3.43834 0
M  V30 7279 C 680.248 -3.92651 -4.17867 0
M  V30 7280 N 679.744 -4.84911 -4.94807 0
M  V30 7281 N 681.537 -3.80798 -4.1346 0
M  V30 7282 H 673.688 -2.00558 -0.699306 0
M  V30 7283 H 675.951 -0.872612 -0.370477 0
M  V30 7284 H 675.657 -2.96002 -1.89936 0
M  V30 7285 H 675.531 -1.87521 -3.27286 0
M  V30 7286 H 677.918 -1.02103 -2.76874 0
M  V30 7287 H 677.999 -2.14037 -1.40077 0
M  V30 7288 H 677.643 -4.09348 -3.00661 0
M  V30 7289 H 677.573 -2.94421 -4.36605 0
M  V30 7290 H 680.064 -2.43536 -2.88961 0
M  V30 7291 H 680.377 -5.44207 -5.48688 0
M  V30 7292 H 678.722 -4.88926 -4.93939 0
M  V30 7293 H 681.913 -3.08058 -3.52445 0
M  V30 7294 H 682.086 -4.4515 -4.70898 0
M  V30 7295 N 675.492 1.28418 -0.913599 0
M  V30 7296 C 676.717 1.99643 -0.561899 0
M  V30 7297 C 677.142 1.67819 0.849608 0
M  V30 7298 O 676.5 0.910503 1.56779 0
M  V30 7299 C 676.548 3.52116 -0.777622 0
M  V30 7300 O 675.652 4.12076 0.163457 0
M  V30 7301 H 674.993 0.627229 -0.217898 0
M  V30 7302 H 677.523 1.63575 -1.229 0
M  V30 7303 H 677.533 4.02163 -0.687666 0
M  V30 7304 H 676.208 3.74613 -1.8066 0
M  V30 7305 H 674.785 3.72892 0.0247827 0
M  V30 7306 N 676.97 0.677563 1.42291 0
M  V30 7307 C 677.933 0.0101085 2.29198 0
M  V30 7308 C 678.933 -0.726219 1.43467 0
M  V30 7309 O 680.123 -0.563807 1.64824 0
M  V30 7310 C 677.255 -0.996316 3.26016 0
M  V30 7311 H 678.448 0.775071 2.89711 0
M  V30 7312 H 676.001 0.440065 1.49977 0
M  V30 7313 H 676.736 -1.78967 2.70446 0
M  V30 7314 H 676.521 -0.471687 3.89253 0
M  V30 7315 H 678.011 -1.46167 3.91184 0
M  V30 7316 N 678.448 -1.51871 0.421078 0
M  V30 7317 C 679.358 -2.31077 -0.405069 0
M  V30 7318 C 680.374 -1.39301 -1.04265 0
M  V30 7319 O 681.55 -1.72376 -1.04157 0
M  V30 7320 C 678.615 -3.12556 -1.50032 0
M  V30 7321 C 677.676 -4.20088 -0.884559 0
M  V30 7322 C 676.909 -4.97673 -1.92762 0
M  V30 7323 O 677.132 -4.75696 -3.14753 0
M  V30 7324 O 676.066 -5.82203 -1.52719 0
M  V30 7325 H 679.892 -3.02742 0.241086 0
M  V30 7326 H 677.477 -1.48263 0.183991 0
M  V30 7327 H 679.359 -3.6326 -2.13589 0
M  V30 7328 H 678.034 -2.43672 -2.13086 0
M  V30 7329 H 676.941 -3.73502 -0.211379 0
M  V30 7330 H 678.274 -4.91298 -0.297763 0
M  V30 7331 N 679.926 -0.151884 -1.56866 0
M  V30 7332 C 681.151 0.508044 -2.01081 0
M  V30 7333 C 681.576 1.57306 -1.03134 0
M  V30 7334 O 680.934 1.81298 -0.0078309 0
M  V30 7335 C 680.982 1.08106 -3.44014 0
M  V30 7336 O 680.086 2.19577 -3.49084 0
M  V30 7337 H 679.427 0.123757 -0.652365 0
M  V30 7338 H 681.957 -0.250055 -2.03066 0
M  V30 7339 H 681.967 1.40851 -3.82916 0
M  V30 7340 H 680.642 0.301168 -4.14808 0
M  V30 7341 H 679.219 1.88023 -3.22027 0
M  V30 7342 N 681.404 1.57128 0.121893 0
M  V30 7343 C 682.336 1.96773 1.17529 0
M  V30 7344 C 683.349 0.866668 1.37814 0
M  V30 7345 O 684.538 1.14497 1.3694 0
M  V30 7346 C 681.638 2.24832 2.53582 0
M  V30 7347 C 680.811 3.56138 2.53939 0
M  V30 7348 C 679.87 3.72443 3.71716 0
M  V30 7349 O 678.896 4.44584 3.55434 0
M  V30 7350 N 680.098 3.10993 4.90167 0
M  V30 7351 H 682.863 2.87743 0.838086 0
M  V30 7352 H 680.424 1.58881 0.311199 0
M  V30 7353 H 682.416 2.32958 3.30927 0
M  V30 7354 H 680.986 1.40002 2.79496 0
M  V30 7355 H 680.206 3.59226 1.62329 0
M  V30 7356 H 681.494 4.42448 2.51231 0
M  V30 7357 H 680.892 2.52345 5.06299 0
M  V30 7358 H 679.449 3.24644 5.65198 0
M  V30 7359 N 682.882 -0.391992 1.52647 0
M  V30 7360 C 683.814 -1.49811 1.73463 0
M  V30 7361 C 684.827 -1.50734 0.615078 0
M  V30 7362 O 686.016 -1.5469 0.890696 0
M  V30 7363 C 683.116 -2.88667 1.77552 0
M  V30 7364 C 682.289 -3.11743 3.06815 0
M  V30 7365 C 681.348 -4.30564 3.02491 0
M  V30 7366 O 680.374 -4.27014 3.76361 0
M  V30 7367 N 681.576 -5.36593 2.21468 0
M  V30 7368 H 684.341 -1.32343 2.68897 0
M  V30 7369 H 681.902 -0.581475 1.51098 0
M  V30 7370 H 683.894 -3.66251 1.7217 0
M  V30 7371 H 682.464 -2.99508 0.895181 0
M  V30 7372 H 681.684 -2.2205 3.25711 0
M  V30 7373 H 682.972 -3.24013 3.92292 0
M  V30 7374 H 682.37 -5.42332 1.60913 0
M  V30 7375 H 680.927 -6.12855 2.21928 0
M  V30 7376 N 684.36 -1.4356 -0.65026 0
M  V30 7377 C 685.776 -1.27025 -0.966269 0
M  V30 7378 C 685.976 -0.192117 -2.00582 0
M  V30 7379 O 685.032 0.428459 -2.48838 0
M  V30 7380 C 686.345 -2.63556 -1.44772 0
M  V30 7381 C 687.893 -2.71111 -1.56421 0
M  V30 7382 C 688.368 -4.08067 -2.07956 0
M  V30 7383 N 689.859 -4.10146 -2.15254 0
M  V30 7384 C 690.594 -5.12952 -2.56258 0
M  V30 7385 N 690.09 -6.26129 -2.96537 0
M  V30 7386 N 691.883 -5.00306 -2.56224 0
M  V30 7387 H 684.034 -2.12367 0.0375758 0
M  V30 7388 H 686.297 -0.946894 -0.0457782 0
M  V30 7389 H 686.003 -3.43429 -0.758271 0
M  V30 7390 H 685.877 -2.89152 -2.42221 0
M  V30 7391 H 688.264 -1.91569 -2.24467 0
M  V30 7392 H 688.345 -2.49277 -0.573967 0
M  V30 7393 H 687.989 -4.88077 -1.40511 0
M  V30 7394 H 687.919 -4.27266 -3.07817 0
M  V30 7395 H 690.41 -3.28453 -1.86887 0
M  V30 7396 H 690.723 -7.00403 -3.26582 0
M  V30 7397 H 689.068 -6.29597 -2.94334 0
M  V30 7398 H 692.259 -4.10952 -2.24135 0
M  V30 7399 H 692.432 -5.80553 -2.87857 0
M  V30 7400 N 685.838 0.888903 -1.30139 0
M  V30 7401 C 687.115 1.62145 -1.094 0
M  V30 7402 C 687.495 2.08041 0.358091 0
M  V30 7403 O 686.843 1.84438 1.34888 0
M  V30 7404 C 687.053 2.794 -2.09133 0
M  V30 7405 C 688.401 3.49826 -2.40638 0
M  V30 7406 O 689.425 2.89583 -2.07412 0
M  V30 7407 O 688.284 4.58457 -2.97455 0
M  V30 7408 H 685.378 0.712475 -0.41989 0
M  V30 7409 H 687.924 0.936023 -1.41551 0
M  V30 7410 H 686.696 2.42762 -3.06891 0
M  V30 7411 H 686.319 3.55643 -1.77776 0
M  V30 7412 N 687.317 1.12792 1.10072 0
M  V30 7413 C 688.264 0.79921 2.16521 0
M  V30 7414 C 689.234 -0.235726 1.64419 0
M  V30 7415 O 690.419 -0.109457 1.90486 0
M  V30 7416 C 687.559 0.264091 3.44088 0
M  V30 7417 C 686.672 1.35729 4.10124 0
M  V30 7418 C 685.807 0.781212 5.25424 0
M  V30 7419 C 684.846 1.85327 5.8337 0
M  V30 7420 N 683.983 1.29564 6.90042 0
M  V30 7421 H 688.823 1.71105 2.43981 0
M  V30 7422 H 686.36 0.854225 1.19756 0
M  V30 7423 H 688.318 -0.0642423 4.17151 0
M  V30 7424 H 686.948 -0.610901 3.16967 0
M  V30 7425 H 686 1.80234 3.34993 0
M  V30 7426 H 687.312 2.16782 4.4923 0
M  V30 7427 H 686.466 0.403769 6.05355 0
M  V30 7428 H 685.205 -0.0604686 4.87663 0
M  V30 7429 H 684.21 2.23986 5.02106 0
M  V30 7430 H 685.435 2.69824 6.23195 0
M  V30 7431 H 683.381 0.475844 6.54272 0
M  V30 7432 H 683.298 2.04271 7.2788 0
M  V30 7433 H 684.566 0.945545 7.73744 0
M  V30 7434 N 688.795 -1.27931 0.920396 0
M  V30 7435 C 690.041 -1.94977 0.557832 0
M  V30 7436 C 690.374 -1.72224 -0.897365 0
M  V30 7437 O 689.649 -1.04705 -1.63912 0
M  V30 7438 C 689.932 -3.49289 0.875741 0
M  V30 7439 C 689.785 -3.81416 2.38416 0
M  V30 7440 C 691.104 -4.38486 0.376517 0
M  V30 7441 H 688.223 -0.708164 0.20414 0
M  V30 7442 H 690.865 -1.5118 1.15085 0
M  V30 7443 H 689.015 -3.86724 0.371062 0
M  V30 7444 H 690.687 -3.53813 2.95997 0
M  V30 7445 H 688.93 -3.28225 2.83639 0
M  V30 7446 H 689.601 -4.89198 2.55713 0
M  V30 7447 H 692.077 -4.08161 0.808945 0
M  V30 7448 H 690.953 -5.45296 0.627976 0
M  V30 7449 H 691.214 -4.36143 -0.723293 0
M  V30 7450 N 690.273 -0.685099 -1.4193 0
M  V30 7451 C 691.236 -0.0222632 -2.29189 0
M  V30 7452 C 692.236 0.7186 -1.4385 0
M  V30 7453 O 693.426 0.555058 -1.6512 0
M  V30 7454 C 690.558 0.979013 -3.2654 0
M  V30 7455 H 691.751 -0.790424 -2.89296 0
M  V30 7456 H 689.304 -0.448012 -1.49742 0
M  V30 7457 H 690.039 1.77531 -2.71392 0
M  V30 7458 H 689.824 0.451037 -3.89497 0
M  V30 7459 H 691.314 1.44091 -3.91954 0
M  V30 7460 N 691.751 1.51645 -0.429126 0
M  V30 7461 C 692.979 2.06433 0.138994 0
M  V30 7462 C 693.394 1.29735 1.37165 0
M  V30 7463 O 692.751 0.354638 1.79021 0
M  V30 7464 C 692.802 3.58439 0.469452 0
M  V30 7465 O 692.523 4.32238 -0.714273 0
M  V30 7466 C 694.024 4.29712 1.08914 0
M  V30 7467 H 691.244 0.6709 0.0115608 0
M  V30 7468 H 693.788 1.9532 -0.605843 0
M  V30 7469 H 691.943 3.69494 1.16419 0
M  V30 7470 H 692.357 5.22704 -0.433633 0
M  V30 7471 H 693.831 5.37182 1.27042 0
M  V30 7472 H 694.308 3.87473 2.06788 0
M  V30 7473 H 694.914 4.2308 0.434028 0
M  V30 7474 N 693.229 0.160201 1.56784 0
M  V30 7475 C 694.476 -0.487588 1.96542 0
M  V30 7476 C 694.804 -1.63999 1.04569 0
M  V30 7477 O 694.059 -1.95546 0.0775211 0
M  V30 7478 C 694.358 -1.02259 3.42459 0
M  V30 7479 C 694.024 0.0127436 4.50898 0
M  V30 7480 C 692.686 0.297318 4.80281 0
M  V30 7481 C 695.038 0.716078 5.16257 0
M  V30 7482 C 692.366 1.29081 5.72324 0
M  V30 7483 C 694.718 1.69847 6.09372 0
M  V30 7484 C 693.382 1.99061 6.37127 0
M  V30 7485 H 692.652 -0.178421 0.719199 0
M  V30 7486 H 695.299 0.249818 1.89864 0
M  V30 7487 H 693.604 -1.8376 3.46034 0
M  V30 7488 H 695.301 -1.53261 3.70556 0
M  V30 7489 H 691.891 -0.219235 4.28039 0
M  V30 7490 H 696.075 0.509428 4.93679 0
M  V30 7491 H 691.331 1.52344 5.92116 0
M  V30 7492 H 695.505 2.2489 6.59088 0
M  V30 7493 H 693.132 2.76194 7.08252 0
M  V30 7494 N 694.707 -1.5719 -0.113559 0
M  V30 7495 C 696.118 -1.74259 -0.670116 0
M  V30 7496 C 696.469 -0.779694 -1.80042 0
M  V30 7497 O 695.594 0.0461353 -2.16351 0
M  V30 7498 C 696.189 -3.15981 -1.22236 0
M  V30 7499 C 694.748 -3.34537 -1.72516 0
M  V30 7500 C 693.895 -2.70116 -0.627098 0
M  V30 7501 H 696.846 -1.58301 0.112396 0
M  V30 7502 H 696.867 -3.17832 -2.09197 0
M  V30 7503 H 696.379 -3.86038 -0.39949 0
M  V30 7504 H 694.48 -2.6953 -2.57263 0
M  V30 7505 H 694.593 -4.42737 -1.83086 0
M  V30 7506 H 692.957 -2.31501 -1.06204 0
M  V30 7507 H 693.74 -3.42802 0.184889 0
M  V30 7508 N 696.185 0.383891 -1.52853 0
M  V30 7509 C 697.132 1.46924 -1.77995 0
M  V30 7510 C 698.102 1.53958 -0.623396 0
M  V30 7511 O 699.287 1.70134 -0.863657 0
M  V30 7512 C 696.427 2.84093 -1.95921 0
M  V30 7513 C 695.54 2.86171 -3.23621 0
M  V30 7514 C 694.675 4.14799 -3.31836 0
M  V30 7515 C 693.714 4.10948 -4.53639 0
M  V30 7516 N 692.851 5.31192 -4.59107 0
M  V30 7517 H 697.691 1.24786 -2.70615 0
M  V30 7518 H 695.228 0.605265 -1.34071 0
M  V30 7519 H 697.186 3.63755 -2.04299 0
M  V30 7520 H 695.816 3.04671 -1.06656 0
M  V30 7521 H 694.868 1.9885 -3.24288 0
M  V30 7522 H 696.18 2.79194 -4.13343 0
M  V30 7523 H 695.334 5.02867 -3.39425 0
M  V30 7524 H 694.073 4.24505 -2.40097 0
M  V30 7525 H 693.078 3.21268 -4.46169 0
M  V30 7526 H 694.303 4.0286 -5.467 0
M  V30 7527 H 692.249 5.41518 -3.70262 0
M  V30 7528 H 692.166 5.26311 -5.42708 0
M  V30 7529 H 693.434 6.21143 -4.70958 0
M  V30 7530 N 697.663 1.43903 0.642637 0
M  V30 7531 C 698.593 1.52697 1.76652 0
M  V30 7532 C 699.574 0.380816 1.65782 0
M  V30 7533 O 700.759 0.599432 1.84717 0
M  V30 7534 C 697.889 1.45975 3.15133 0
M  V30 7535 C 696.843 2.58949 3.40778 0
M  V30 7536 C 696.169 2.37279 4.79169 0
M  V30 7537 C 697.469 4.01153 3.34475 0
M  V30 7538 H 699.163 2.46766 1.69549 0
M  V30 7539 H 696.709 1.18767 0.814279 0
M  V30 7540 H 698.662 1.5073 3.93521 0
M  V30 7541 H 697.386 0.484162 3.22991 0
M  V30 7542 H 696.045 2.53564 2.64765 0
M  V30 7543 H 695.693 1.37939 4.83717 0
M  V30 7544 H 695.393 3.13016 4.97287 0
M  V30 7545 H 696.917 2.43834 5.59801 0
M  V30 7546 H 698.331 4.07968 4.02784 0
M  V30 7547 H 696.728 4.77001 3.64129 0
M  V30 7548 H 697.798 4.25539 2.32475 0
M  V30 7549 N 699.141 -0.881989 1.30609 0
M  V30 7550 C 700.104 -1.96957 1.1722 0
M  V30 7551 C 701.104 -1.60472 0.102598 0
M  V30 7552 O 702.294 -1.70628 0.350943 0
M  V30 7553 C 699.426 -3.31463 0.796572 0
M  V30 7554 H 700.619 -2.10262 2.13846 0
M  V30 7555 H 698.172 -1.06877 1.14048 0
M  V30 7556 H 698.907 -3.23859 -0.169053 0
M  V30 7557 H 698.692 -3.59314 1.56959 0
M  V30 7558 H 700.182 -4.11233 0.72645 0
M  V30 7559 O 700.658 -1.25359 -1.0182 0
M  V30 7560 H 701.349 -1.03652 -1.63634 0
M  V30 END ATOM
M  V30 BEGIN BOND
M  V30 END BOND
M  V30 END CTAB
M  END
$$$$
