drugbank_target|P02787 Serotransferrin (DB00515; DB00677; DB01370; DB01592; DB01593; DB06757; DB09130; DB11397; DB14487; DB14488; DB14489; DB14490; DB14491; DB14501; DB14517; DB14518; DB14533; DB14548)
 OpenBabel12092119333D

  0  0  0     0  0            999 V3000
M  V30 BEGIN CTAB
M  V30 COUNTS 10677 10797 0 0 0
M  V30 BEGIN ATOM
M  V30 1 H -0.908 1.98254 -0.117106 0
M  V30 2 N 0 1.576 0 0
M  V30 3 C 0.933 2.03868 1.02534 0
M  V30 4 C 1.911 0.928543 1.3348 0
M  V30 5 O 3.095 1.19667 1.45644 0
M  V30 6 C 0.222 2.43627 2.35294 0
M  V30 7 C -0.732 3.65373 2.2001 0
M  V30 8 S 0.101 5.13292 1.52614 0
M  V30 9 C 1.257 5.56322 2.86805 0
M  V30 10 H 1.49 2.90518 0.631377 0
M  V30 11 H -0.977 1.52953 0.210867 0
M  V30 12 H 0.981 2.67203 3.11629 0
M  V30 13 H -0.358 1.57376 2.7183 0
M  V30 14 H -1.165 3.90944 3.18086 0
M  V30 15 H -1.563 3.418 1.51819 0
M  V30 16 H 0.729 5.58782 3.83104 0
M  V30 17 H 1.672 6.56266 2.65933 0
M  V30 18 H 2.08 4.83886 2.90714 0
M  V30 19 N 1.4781 -0.272755 1.55222 0
M  V30 20 C 2.8941 -0.619959 1.47067 0
M  V30 21 C 3.0941 -1.895 0.684978 0
M  V30 22 O 2.1501 -2.51675 0.203931 0
M  V30 23 C 3.4631 -0.746693 2.91282 0
M  V30 24 C 5.0111 -0.840731 3.01497 0
M  V30 25 C 5.4861 -0.99924 4.46967 0
M  V30 26 N 6.9771 -1.06476 4.50796 0
M  V30 27 C 7.7121 -1.20621 5.6057 0
M  V30 28 N 7.2081 -1.31483 6.80209 0
M  V30 29 N 9.0011 -1.23733 5.48312 0
M  V30 30 H 1.1521 0.564606 2.04758 0
M  V30 31 H 3.4151 0.191177 0.928523 0
M  V30 32 H 3.1211 0.119753 3.51496 0
M  V30 33 H 2.9951 -1.6269 3.40311 0
M  V30 34 H 5.3821 -1.69764 2.41379 0
M  V30 35 H 5.4631 0.0640874 2.5572 0
M  V30 36 H 5.1071 -0.146984 5.07687 0
M  V30 37 H 5.0371 -1.91871 4.90401 0
M  V30 38 H 7.5281 -0.993196 3.64615 0
M  V30 39 H 7.8411 -1.42111 7.59621 0
M  V30 40 H 6.1861 -1.28487 6.8302 0
M  V30 41 H 9.3771 -1.14877 4.53785 0
M  V30 42 H 9.5501 -1.34412 6.33906 0
M  V30 43 N 2.9562 -1.48159 -0.537278 0
M  V30 44 C 3.8862 -1.65029 -1.6519 0
M  V30 45 C 4.8672 -0.499281 -1.62607 0
M  V30 46 O 6.0522 -0.730972 -1.79918 0
M  V30 47 C 3.1822 -1.68303 -3.03795 0
M  V30 48 C 2.1362 -2.8283 -3.21234 0
M  V30 49 C 1.4622 -2.71189 -4.60826 0
M  V30 50 C 2.7622 -4.24211 -3.04701 0
M  V30 51 H 4.4562 -2.58341 -1.51328 0
M  V30 52 H 2.0022 -1.24325 -0.726585 0
M  V30 53 H 3.9552 -1.78693 -3.81637 0
M  V30 54 H 2.6792 -0.715635 -3.18663 0
M  V30 55 H 1.3382 -2.71983 -2.45807 0
M  V30 56 H 0.9862 -1.72435 -4.7252 0
M  V30 57 H 0.6862 -3.48035 -4.7344 0
M  V30 58 H 2.2102 -2.83537 -5.40777 0
M  V30 59 H 3.6242 -4.3593 -3.72341 0
M  V30 60 H 2.0212 -5.01998 -3.28813 0
M  V30 61 H 3.0912 -4.41184 -2.01209 0
M  V30 62 N 4.4343 0.785586 -1.36625 0
M  V30 63 C 5.3973 1.87999 -1.31107 0
M  V30 64 C 6.3973 1.59316 -0.217959 0
M  V30 65 O 7.5873 1.67656 -0.472977 0
M  V30 66 C 4.7193 3.24861 -1.03334 0
M  V30 67 H 5.9123 1.94307 -2.2844 0
M  V30 68 H 3.4653 0.983813 -1.21453 0
M  V30 69 H 4.2003 3.24235 -0.0647432 0
M  V30 70 H 3.9853 3.4707 -1.82441 0
M  V30 71 H 5.4753 4.04929 -1.02088 0
M  V30 72 N 5.9124 1.20967 1.01018 0
M  V30 73 C 7.1584 1.02526 1.74975 0
M  V30 74 C 7.4914 -0.4408 1.89131 0
M  V30 75 O 6.7664 -1.32718 1.42184 0
M  V30 76 C 7.0494 1.71699 3.1653 0
M  V30 77 C 6.9024 3.25791 3.10129 0
M  V30 78 C 8.2214 1.45531 4.15342 0
M  V30 79 H 5.3404 0.373863 0.635134 0
M  V30 80 H 7.9824 1.49071 1.17805 0
M  V30 81 H 6.1324 1.32128 3.65341 0
M  V30 82 H 7.8044 3.74697 2.69072 0
M  V30 83 H 6.0474 3.56363 2.47362 0
M  V30 84 H 6.7184 3.69353 4.10222 0
M  V30 85 H 9.1944 1.79872 3.75213 0
M  V30 86 H 8.0704 1.96453 5.1254 0
M  V30 87 H 8.3314 0.384237 4.40427 0
M  V30 88 N 7.3905 -1.2043 1.01659 0
M  V30 89 C 8.6385 -1.89423 0.704522 0
M  V30 90 C 8.9595 -1.79231 -0.768197 0
M  V30 91 O 8.2295 -1.1947 -1.55254 0
M  V30 92 H 6.8095 -0.701178 0.257602 0
M  V30 93 H 9.4715 -1.4626 1.28818 0
M  V30 94 H 8.5675 -2.96052 0.987916 0
M  V30 95 N 8.8686 -0.792821 -1.36206 0
M  V30 96 C 9.8316 -0.199459 -2.2833 0
M  V30 97 C 10.8316 0.605189 -1.48977 0
M  V30 98 O 12.0216 0.425685 -1.68919 0
M  V30 99 C 9.1536 0.723523 -3.33134 0
M  V30 100 H 10.3466 -1.01181 -2.82316 0
M  V30 101 H 7.8996 -0.562485 -1.45828 0
M  V30 102 H 8.6346 1.56008 -2.84309 0
M  V30 103 H 8.4196 0.148436 -3.91819 0
M  V30 104 H 9.9096 1.13344 -4.01924 0
M  V30 105 N 10.3467 1.47872 -0.545128 0
M  V30 106 C 11.2767 2.32661 0.197793 0
M  V30 107 C 12.2577 1.43041 0.920504 0
M  V30 108 O 13.4427 1.71912 0.90333 0
M  V30 109 C 10.5727 3.24569 1.23582 0
M  V30 110 C 9.5267 4.23333 0.630323 0
M  V30 111 C 8.8527 5.0448 1.77211 0
M  V30 112 C 10.1527 5.20704 -0.407974 0
M  V30 113 H 11.8467 2.95024 -0.510045 0
M  V30 114 H 9.3927 1.4187 -0.246731 0
M  V30 115 H 11.3457 3.8272 1.76362 0
M  V30 116 H 10.0697 2.60236 1.97344 0
M  V30 117 H 8.7287 3.6639 0.123922 0
M  V30 118 H 8.3767 4.36561 2.49847 0
M  V30 119 H 8.0767 5.71339 1.37281 0
M  V30 120 H 9.6007 5.65487 2.3034 0
M  V30 121 H 11.0147 5.7329 0.033305 0
M  V30 122 H 9.4117 5.95699 -0.725486 0
M  V30 123 H 10.4817 4.66917 -1.30828 0
M  V30 124 N 11.8248 0.280983 1.55075 0
M  V30 125 C 12.7548 -0.597469 2.25727 0
M  V30 126 C 13.7358 -1.15417 1.24952 0
M  V30 127 O 14.9208 -1.18722 1.53684 0
M  V30 128 C 12.0508 -1.7789 2.98283 0
M  V30 129 C 11.0048 -1.35347 4.06036 0
M  V30 130 C 10.3308 -2.61846 4.66198 0
M  V30 131 C 11.6308 -0.499354 5.19907 0
M  V30 132 H 13.3248 -0.00824265 2.99399 0
M  V30 133 H 10.8708 -0.0025244 1.44 0
M  V30 134 H 12.8238 -2.39937 3.46422 0
M  V30 135 H 11.5478 -2.39405 2.22155 0
M  V30 136 H 10.2068 -0.756156 3.58717 0
M  V30 137 H 9.8548 -3.21632 3.86732 0
M  V30 138 H 9.5548 -2.3409 5.38958 0
M  V30 139 H 11.0788 -3.24732 5.1709 0
M  V30 140 H 12.4928 -1.02498 5.64063 0
M  V30 141 H 10.8898 -0.316424 5.99265 0
M  V30 142 H 11.9598 0.480459 4.82514 0
M  V30 143 N 13.3029 -1.57598 0.00835791 0
M  V30 144 C 14.5489 -1.91211 -0.675732 0
M  V30 145 C 14.8819 -0.883139 -1.72958 0
M  V30 146 O 14.1569 0.097016 -1.94258 0
M  V30 147 C 14.4399 -3.35379 -1.31123 0
M  V30 148 C 14.2929 -4.48999 -0.268356 0
M  V30 149 C 15.6119 -3.7912 -2.23508 0
M  V30 150 H 12.7309 -0.695374 -0.244179 0
M  V30 151 H 15.3729 -1.89901 0.0613655 0
M  V30 152 H 13.5229 -3.36626 -1.93946 0
M  V30 153 H 15.1949 -4.59887 0.360844 0
M  V30 154 H 13.4379 -4.31873 0.408482 0
M  V30 155 H 14.1089 -5.46851 -0.752218 0
M  V30 156 H 16.5849 -3.79477 -1.70693 0
M  V30 157 H 15.4609 -4.80729 -2.64936 0
M  V30 158 H 15.7219 -3.13455 -3.11766 0
M  V30 159 N 14.781 0.264519 -1.55364 0
M  V30 160 C 16.021 1.00254 -1.78125 0
M  V30 161 C 16.385 1.83187 -0.575017 0
M  V30 162 O 17.586 2.60029 -0.681042 0
M  V30 163 C 15.857 1.85478 -3.05504 0
M  V30 164 S 17.416 2.6543 -3.49417 0
M  V30 165 H 14.234 0.337522 -0.625779 0
M  V30 166 H 16.836 0.272111 -1.93597 0
M  V30 167 H 15.54 1.23491 -3.9138 0
M  V30 168 H 15.071 2.62827 -2.92721 0
M  V30 169 H 17.086 3.87958 -3.09359 0
M  V30 170 N 16.2591 1.48442 0.529413 0
M  V30 171 C 17.2221 1.62524 1.61612 0
M  V30 172 C 18.2221 0.498509 1.52877 0
M  V30 173 O 19.4121 0.76431 1.56537 0
M  V30 174 C 16.5441 1.59597 3.01233 0
M  V30 175 H 17.7371 2.59423 1.50465 0
M  V30 176 H 15.2901 1.37047 0.751514 0
M  V30 177 H 16.0251 0.641781 3.17886 0
M  V30 178 H 15.8101 2.41397 3.08982 0
M  V30 179 H 17.3001 1.72646 3.80241 0
M  V30 180 N 17.7372 -0.778329 1.37039 0
M  V30 181 C 18.9832 -1.53892 1.32079 0
M  V30 182 C 19.3162 -1.9396 -0.0965386 0
M  V30 183 O 18.5912 -1.63568 -1.05242 0
M  V30 184 C 18.8742 -2.80847 2.25382 0
M  V30 185 C 18.7272 -2.47076 3.75864 0
M  V30 186 C 20.0462 -3.82741 2.1725 0
M  V30 187 H 17.1652 -0.558303 0.48111 0
M  V30 188 H 19.8072 -0.893397 1.67685 0
M  V30 189 H 17.9572 -3.35931 1.95148 0
M  V30 190 H 19.6292 -1.97957 4.16666 0
M  V30 191 H 17.8722 -1.79863 3.94755 0
M  V30 192 H 18.5432 -3.37798 4.36574 0
M  V30 193 H 21.0192 -3.37133 2.43887 0
M  V30 194 H 19.8952 -4.69303 2.84686 0
M  V30 195 H 20.1562 -4.2652 1.16331 0
M  V30 196 N 19.2153 -1.21501 -1.00376 0
M  V30 197 C 20.1453 -0.999478 -2.11028 0
M  V30 198 C 21.1263 0.0759671 -1.6993 0
M  V30 199 O 22.3113 -0.0841106 -1.94018 0
M  V30 200 C 19.4413 -0.564709 -3.42678 0
M  V30 201 C 18.3953 -1.58486 -3.97576 0
M  V30 202 C 17.7213 -1.00628 -5.25146 0
M  V30 203 C 19.0213 -2.97204 -4.29496 0
M  V30 204 H 20.7153 -1.92495 -2.29317 0
M  V30 205 H 18.2613 -0.92693 -1.102 0
M  V30 206 H 20.2143 -0.401091 -4.19487 0
M  V30 207 H 18.9383 0.396411 -3.24185 0
M  V30 208 H 17.5973 -1.73606 -3.22888 0
M  V30 209 H 17.2453 -0.0368439 -5.02987 0
M  V30 210 H 16.9453 -1.68771 -5.62841 0
M  V30 211 H 18.4693 -0.854015 -6.04598 0
M  V30 212 H 19.8833 -2.8552 -4.97143 0
M  V30 213 H 18.2803 -3.62372 -4.78338 0
M  V30 214 H 19.3503 -3.47956 -3.3772 0
M  V30 215 N 20.6934 1.19889 -1.02296 0
M  V30 216 C 21.9414 1.89046 -0.714558 0
M  V30 217 C 22.2624 1.79636 0.758681 0
M  V30 218 O 21.5324 1.20292 1.54618 0
M  V30 219 H 20.1124 0.699802 -0.261317 0
M  V30 220 H 22.7744 1.45574 -1.29592 0
M  V30 221 H 21.8704 2.95524 -1.0036 0
M  V30 222 N 22.1715 0.800033 1.35784 0
M  V30 223 C 23.1015 0.220184 2.3246 0
M  V30 224 C 24.0825 -0.65073 1.57161 0
M  V30 225 O 25.2675 -0.582359 1.85263 0
M  V30 226 C 22.3975 -0.637353 3.41402 0
M  V30 227 C 21.3515 0.134531 4.27789 0
M  V30 228 C 20.6775 -0.844285 5.27992 0
M  V30 229 C 21.9775 1.32979 5.05088 0
M  V30 230 H 23.6715 1.02787 2.81203 0
M  V30 231 H 21.2175 0.495717 1.35199 0
M  V30 232 H 23.1705 -1.05302 4.08031 0
M  V30 233 H 21.8945 -1.47785 2.91251 0
M  V30 234 H 20.5535 0.531296 3.6273 0
M  V30 235 H 20.2015 -1.68011 4.74111 0
M  V30 236 H 19.9015 -0.332184 5.8666 0
M  V30 237 H 21.4255 -1.2583 5.97494 0
M  V30 238 H 22.8395 0.98934 5.64699 0
M  V30 239 H 21.2365 1.77593 5.7322 0
M  V30 240 H 22.3065 2.11978 4.36111 0
M  V30 241 N 23.6496 -1.47581 0.552962 0
M  V30 242 C 24.8896 -2.04379 0.0296245 0
M  V30 243 C 25.2536 -1.4185 -1.29393 0
M  V30 244 O 26.4546 -1.89669 -1.90471 0
M  V30 245 C 24.7256 -3.57339 -0.0661371 0
M  V30 246 S 26.2846 -4.35511 -0.536213 0
M  V30 247 H 23.1026 -0.710625 0.0230991 0
M  V30 248 H 25.7046 -1.81005 0.738734 0
M  V30 249 H 24.4086 -4.00374 0.901596 0
M  V30 250 H 23.9396 -3.85202 -0.798931 0
M  V30 251 H 25.9546 -4.6253 -1.79668 0
M  V30 252 N 25.1277 -0.289203 -1.54924 0
M  V30 253 C 26.0577 0.58549 -2.2604 0
M  V30 254 C 27.0387 1.14753 -1.25562 0
M  V30 255 O 28.2237 1.17906 -1.54311 0
M  V30 256 C 25.3537 1.76305 -2.99222 0
M  V30 257 C 24.3077 1.33191 -4.06748 0
M  V30 258 C 23.6337 2.5937 -4.6758 0
M  V30 259 C 24.9337 0.471775 -5.20165 0
M  V30 260 H 26.6277 -0.00763532 -2.99399 0
M  V30 261 H 24.1737 -0.00511229 -1.43999 0
M  V30 262 H 26.1267 2.38097 -3.47689 0
M  V30 263 H 24.8507 2.38223 -2.23422 0
M  V30 264 H 23.5097 0.737121 -3.59113 0
M  V30 265 H 23.1577 3.19576 -3.88433 0
M  V30 266 H 22.8577 2.31228 -5.40192 0
M  V30 267 H 24.3817 3.21985 -5.18804 0
M  V30 268 H 25.7957 0.995056 -5.64599 0
M  V30 269 H 24.1927 0.284639 -5.99425 0
M  V30 270 H 25.2627 -0.506041 -4.82252 0
M  V30 271 N 26.6058 1.57591 -0.0167156 0
M  V30 272 C 27.5688 2.08393 0.954204 0
M  V30 273 C 28.5688 0.996531 1.26198 0
M  V30 274 O 29.7588 1.25858 1.20438 0
M  V30 275 C 26.8908 2.5394 2.27436 0
M  V30 276 H 28.0838 2.95455 0.514451 0
M  V30 277 H 25.6368 1.54582 0.231089 0
M  V30 278 H 26.3718 1.70171 2.76066 0
M  V30 279 H 26.1568 3.33371 2.06412 0
M  V30 280 H 27.6468 2.93512 2.97053 0
M  V30 281 N 28.0839 -0.256276 1.55502 0
M  V30 282 C 29.3299 -0.987079 1.77157 0
M  V30 283 C 29.6629 -1.85327 0.580315 0
M  V30 284 O 28.9379 -1.89874 -0.421686 0
M  V30 285 C 29.2209 -1.85553 3.08613 0
M  V30 286 C 29.0739 -1.01816 4.38125 0
M  V30 287 C 30.3929 -2.8397 3.36228 0
M  V30 288 H 27.5119 -0.357428 0.644526 0
M  V30 289 H 30.1539 -0.258239 1.88237 0
M  V30 290 H 28.3039 -2.47695 2.99298 0
M  V30 291 H 29.9759 -0.416159 4.59419 0
M  V30 292 H 28.2189 -0.322178 4.32602 0
M  V30 293 H 28.8899 -1.65939 5.26468 0
M  V30 294 H 31.3659 -2.31964 3.45445 0
M  V30 295 H 30.2419 -3.41864 4.29442 0
M  V30 296 H 30.5029 -3.59955 2.56681 0
M  V30 297 N 29.562 -1.4872 -0.521534 0
M  V30 298 C 30.973 -1.50607 -1.10337 0
M  V30 299 C 31.324 -0.280612 -1.94183 0
M  V30 300 O 30.449 0.611507 -2.0758 0
M  V30 301 C 31.044 -2.72903 -2.00772 0
M  V30 302 C 29.603 -2.77634 -2.54158 0
M  V30 303 C 28.75 -2.44241 -1.31307 0
M  V30 304 H 31.701 -1.55714 -0.306388 0
M  V30 305 H 31.722 -2.519 -2.85178 0
M  V30 306 H 31.234 -3.62077 -1.39721 0
M  V30 307 H 29.335 -1.92689 -3.18907 0
M  V30 308 H 29.448 -3.79283 -2.92714 0
M  V30 309 H 27.812 -1.95577 -1.63161 0
M  V30 310 H 28.595 -3.35666 -0.719943 0
M  V30 311 N 31.0401 0.771051 -1.3745 0
M  V30 312 C 32.3171 1.519 -1.23231 0
M  V30 313 C 32.6971 2.10383 0.173809 0
M  V30 314 O 32.0451 1.95583 1.18151 0
M  V30 315 C 32.2551 2.59933 -2.32886 0
M  V30 316 C 33.6031 3.27316 -2.70461 0
M  V30 317 O 34.6271 2.70228 -2.32068 0
M  V30 318 O 33.4861 4.30531 -3.36608 0
M  V30 319 H 30.5801 0.672803 -0.480901 0
M  V30 320 H 33.1261 0.807957 -1.49232 0
M  V30 321 H 31.8981 2.14842 -3.27045 0
M  V30 322 H 31.5211 3.38637 -2.08353 0
M  V30 323 N 32.5182 1.22032 0.997298 0
M  V30 324 C 33.4652 0.986467 2.08656 0
M  V30 325 C 34.4352 -0.0902671 1.65855 0
M  V30 326 O 35.6202 0.0584294 1.90711 0
M  V30 327 C 32.7602 0.565569 3.40434 0
M  V30 328 C 31.8732 1.71259 3.96604 0
M  V30 329 C 31.0082 1.24011 5.16522 0
M  V30 330 C 30.0472 2.35896 5.64818 0
M  V30 331 N 29.1842 1.89726 6.7598 0
M  V30 332 H 34.0242 1.91892 2.27994 0
M  V30 333 H 31.5612 0.956199 1.11782 0
M  V30 334 H 33.5192 0.302738 4.161 0
M  V30 335 H 32.1492 -0.329879 3.2111 0
M  V30 336 H 31.2012 2.08986 3.17851 0
M  V30 337 H 32.5132 2.55436 4.28432 0
M  V30 338 H 31.6672 0.934395 5.99461 0
M  V30 339 H 30.4062 0.368487 4.86306 0
M  V30 340 H 29.4112 2.67261 4.8047 0
M  V30 341 H 30.6362 3.23567 5.97061 0
M  V30 342 H 28.5822 1.0492 6.47555 0
M  V30 343 H 28.4992 2.67471 7.07103 0
M  V30 344 H 29.7672 1.62211 7.62435 0
M  V30 345 N 33.9963 -1.19345 1.0293 0
M  V30 346 C 35.2243 -1.92997 0.745644 0
M  V30 347 C 35.6393 -1.75519 -0.695589 0
M  V30 348 O 34.9963 -1.07737 -1.47306 0
M  V30 349 C 35.0473 -3.44741 1.08792 0
M  V30 350 O 34.7683 -3.61658 2.47256 0
M  V30 351 C 36.2693 -4.35515 0.827129 0
M  V30 352 H 33.4893 -0.613042 0.272801 0
M  V30 353 H 36.0333 -1.51473 1.3739 0
M  V30 354 H 34.1883 -3.84097 0.504832 0
M  V30 355 H 34.6023 -4.55514 2.60015 0
M  V30 356 H 36.0763 -5.40589 1.11658 0
M  V30 357 H 36.5533 -4.38552 -0.238436 0
M  V30 358 H 37.1593 -4.01841 1.39297 0
M  V30 359 N 35.4744 -0.807222 -1.35358 0
M  V30 360 C 36.7204 -0.388463 -1.99045 0
M  V30 361 C 37.0534 1.04184 -1.63888 0
M  V30 362 O 36.3284 1.72292 -0.902535 0
M  V30 363 C 36.6114 -0.572783 -3.55515 0
M  V30 364 C 36.4644 -2.04807 -4.00468 0
M  V30 365 C 37.7834 0.00114064 -4.401 0
M  V30 366 H 34.9024 -0.142619 -0.723069 0
M  V30 367 H 37.5444 -1.01687 -1.60498 0
M  V30 368 H 35.6944 -0.0378425 -3.88482 0
M  V30 369 H 37.3664 -2.64544 -3.77908 0
M  V30 370 H 35.6094 -2.54427 -3.51353 0
M  V30 371 H 36.2804 -2.12792 -5.09337 0
M  V30 372 H 38.7564 -0.455716 -4.13597 0
M  V30 373 H 37.6324 -0.157737 -5.48673 0
M  V30 374 H 37.8934 1.09488 -4.28328 0
M  V30 375 N 36.9525 1.47285 -0.560781 0
M  V30 376 C 38.3685 1.58065 -0.22081 0
M  V30 377 C 38.5685 1.55892 1.27671 0
M  V30 378 O 37.6245 1.46422 2.0571 0
M  V30 379 C 38.9375 2.88418 -0.850625 0
M  V30 380 C 40.4855 3.02009 -0.822184 0
M  V30 381 C 40.9605 4.35066 -1.43113 0
M  V30 382 N 42.4515 4.41711 -1.39448 0
M  V30 383 C 43.1865 5.43237 -1.83525 0
M  V30 384 N 42.6825 6.51555 -2.35474 0
M  V30 385 N 44.4755 5.34304 -1.74574 0
M  V30 386 H 36.6265 1.46941 -1.53369 0
M  V30 387 H 38.8895 0.699558 -0.639783 0
M  V30 388 H 38.5955 2.95755 -1.9032 0
M  V30 389 H 38.4695 3.75612 -0.345773 0
M  V30 390 H 40.8565 2.94266 0.221714 0
M  V30 391 H 40.9375 2.16347 -1.36483 0
M  V30 392 H 40.5815 4.43565 -2.47412 0
M  V30 393 H 40.5115 5.19465 -0.863899 0
M  V30 394 H 43.0025 3.64027 -1.01452 0
M  V30 395 H 43.3155 7.25203 -2.67021 0
M  V30 396 H 41.6605 6.52435 -2.39487 0
M  V30 397 H 44.8515 4.48581 -1.33763 0
M  V30 398 H 45.0245 6.13288 -2.09242 0
M  V30 399 N 38.4306 0.297415 1.54768 0
M  V30 400 C 39.6766 -0.306263 2.01081 0
M  V30 401 C 40.0316 -1.518 1.18214 0
M  V30 402 O 39.3246 -1.89967 0.249613 0
M  V30 403 C 39.5186 -0.717561 3.50123 0
M  V30 404 C 39.3476 0.45277 4.47415 0
M  V30 405 C 38.1176 0.943651 4.9641 0
M  V30 406 C 40.3156 1.29657 4.97688 0
M  V30 407 N 38.2976 2.08112 5.77549 0
M  V30 408 C 39.6686 2.28158 5.76493 0
M  V30 409 C 41.7236 1.32735 4.79881 0
M  V30 410 C 40.4266 3.29509 6.39387 0
M  V30 411 C 42.4526 2.32943 5.43591 0
M  V30 412 C 41.8146 3.30174 6.22225 0
M  V30 413 H 37.9136 -0.0766274 0.778237 0
M  V30 414 H 40.4976 0.426515 1.89971 0
M  V30 415 H 38.6686 -1.41952 3.6153 0
M  V30 416 H 40.4006 -1.30047 3.83236 0
M  V30 417 H 37.1556 0.51922 4.70745 0
M  V30 418 H 37.5796 2.65414 6.22803 0
M  V30 419 H 42.2216 0.589375 4.18672 0
M  V30 420 H 39.9396 4.04228 6.99732 0
M  V30 421 H 43.5256 2.36094 5.31743 0
M  V30 422 H 42.4056 4.06445 6.7065 0
M  V30 423 N 39.9087 -1.5758 0.0250728 0
M  V30 424 C 41.1487 -1.93497 -0.65865 0
M  V30 425 C 41.5127 -0.901409 -1.69525 0
M  V30 426 O 42.7137 -1.14664 -2.43116 0
M  V30 427 C 40.9847 -3.34352 -1.26267 0
M  V30 428 S 42.5437 -3.92191 -1.96803 0
M  V30 429 H 39.3617 -0.67709 -0.216958 0
M  V30 430 H 41.9637 -1.95303 0.0877692 0
M  V30 431 H 40.6677 -4.07395 -0.495741 0
M  V30 432 H 40.1987 -3.3598 -2.04648 0
M  V30 433 H 42.2137 -3.75298 -3.24601 0
M  V30 434 N 41.3868 0.248026 -1.55636 0
M  V30 435 C 42.3498 1.29044 -1.89421 0
M  V30 436 C 43.3498 1.41134 -0.770581 0
M  V30 437 O 44.5398 1.39854 -1.03858 0
M  V30 438 C 41.6718 2.66831 -2.12165 0
M  V30 439 H 42.8648 1.00305 -2.82629 0
M  V30 440 H 40.4178 0.487265 -1.48511 0
M  V30 441 H 41.1528 3.00711 -1.21422 0
M  V30 442 H 40.9378 2.59438 -2.93997 0
M  V30 443 H 42.4278 3.42103 -2.3949 0
M  V30 444 N 42.8649 1.48995 0.513639 0
M  V30 445 C 44.1109 1.58076 1.27042 0
M  V30 446 C 44.4439 0.261026 1.92438 0
M  V30 447 O 43.7189 -0.734393 1.80103 0
M  V30 448 C 44.0019 2.73091 2.34719 0
M  V30 449 C 43.8549 4.14821 1.73907 0
M  V30 450 C 45.1739 2.83796 3.36375 0
M  V30 451 H 42.2929 0.575391 0.460536 0
M  V30 452 H 44.9349 1.81232 0.570516 0
M  V30 453 H 43.0849 2.53479 2.94416 0
M  V30 454 H 44.7569 4.45917 1.18135 0
M  V30 455 H 42.9999 4.21058 1.0437 0
M  V30 456 H 43.6709 4.91147 2.51949 0
M  V30 457 H 46.1469 3.01611 2.86653 0
M  V30 458 H 45.0229 3.65971 4.09093 0
M  V30 459 H 45.2839 1.92624 3.9793 0
M  V30 460 N 44.343 -0.763751 1.37857 0
M  V30 461 C 45.568 -1.55805 1.36893 0
M  V30 462 C 45.993 -1.88054 -0.0416135 0
M  V30 463 O 45.351 -1.49825 -1.02089 0
M  V30 464 C 45.399 -2.84012 2.22192 0
M  V30 465 O 44.503 -3.78732 1.63204 0
M  V30 466 H 43.844 -0.471638 0.46739 0
M  V30 467 H 46.374 -0.944657 1.81487 0
M  V30 468 H 46.384 -3.33037 2.35691 0
M  V30 469 H 45.059 -2.59869 3.24716 0
M  V30 470 H 43.636 -3.37402 1.58791 0
M  V30 471 N 45.8211 -1.22559 -0.990812 0
M  V30 472 C 46.7311 -1.01394 -2.11557 0
M  V30 473 C 47.7471 0.0383962 -1.73958 0
M  V30 474 O 48.9231 -0.154787 -2.00804 0
M  V30 475 C 45.9881 -0.596569 -3.41529 0
M  V30 476 C 45.0491 -1.72276 -3.93217 0
M  V30 477 C 44.2821 -1.32521 -5.16985 0
M  V30 478 O 44.5051 -0.204909 -5.70032 0
M  V30 479 O 43.4391 -2.14247 -5.62478 0
M  V30 480 H 47.2651 -1.95633 -2.32296 0
M  V30 481 H 44.8501 -1.01172 -1.0993 0
M  V30 482 H 46.7321 -0.374263 -4.19735 0
M  V30 483 H 45.4071 0.316939 -3.22145 0
M  V30 484 H 44.3141 -1.99961 -3.16174 0
M  V30 485 H 45.6471 -2.61421 -4.17037 0
M  V30 486 N 47.2992 1.18797 -1.03562 0
M  V30 487 C 48.2492 2.20161 -0.592724 0
M  V30 488 C 49.2332 1.56772 0.362133 0
M  V30 489 O 50.4252 1.76062 0.182009 0
M  V30 490 C 47.5542 3.43266 0.0481024 0
M  V30 491 C 46.6402 4.13786 -0.9296 0
M  V30 492 N 47.0312 4.60388 -2.09467 0
M  V30 493 C 45.3292 4.39572 -0.754499 0
M  V30 494 C 46.0302 5.14619 -2.71187 0
M  V30 495 N 45.0062 5.05826 -1.991 0
M  V30 496 H 48.8082 2.53877 -1.48066 0
M  V30 497 H 46.3222 1.34946 -0.903514 0
M  V30 498 H 48.3192 4.15136 0.383058 0
M  V30 499 H 46.9792 3.11048 0.931636 0
M  V30 500 H 47.9902 4.54999 -2.47379 0
M  V30 501 H 44.6672 4.17425 0.0793713 0
M  V30 502 H 46.0572 5.60917 -3.69895 0
M  V30 503 N 48.7773 0.814389 1.34928 0
M  V30 504 C 49.6873 0.231978 2.3345 0
M  V30 505 C 50.7033 -0.629139 1.62228 0
M  V30 506 O 51.8793 -0.539052 1.94052 0
M  V30 507 C 48.9443 -0.603482 3.41407 0
M  V30 508 C 48.0053 0.279037 4.28392 0
M  V30 509 C 47.2383 -0.516643 5.31193 0
M  V30 510 O 47.4613 -1.75068 5.4287 0
M  V30 511 O 46.3953 0.0965652 6.01823 0
M  V30 512 H 50.2213 1.04721 2.85074 0
M  V30 513 H 47.8063 0.576343 1.37836 0
M  V30 514 H 49.6883 -1.07908 4.0735 0
M  V30 515 H 48.3633 -1.39618 2.92042 0
M  V30 516 H 47.2703 0.801948 3.65403 0
M  V30 517 H 48.6033 1.03588 4.81176 0
M  V30 518 N 50.2554 -1.46986 0.568584 0
M  V30 519 C 51.2184 -2.28624 -0.162366 0
M  V30 520 C 52.2184 -1.37596 -0.832103 0
M  V30 521 O 53.4084 -1.60115 -0.68622 0
M  V30 522 C 50.5404 -3.17596 -1.23878 0
M  V30 523 H 51.7334 -2.94722 0.554899 0
M  V30 524 H 49.2864 -1.52863 0.325976 0
M  V30 525 H 50.0214 -2.56214 -1.98808 0
M  V30 526 H 49.8064 -3.846 -0.763219 0
M  V30 527 H 51.2964 -3.79078 -1.75185 0
M  V30 528 N 51.7335 -0.305618 -1.54608 0
M  V30 529 C 52.9615 0.304775 -2.04643 0
M  V30 530 C 53.3765 1.47167 -1.18268 0
M  V30 531 O 52.7335 1.81296 -0.209328 0
M  V30 532 C 52.7845 0.756564 -3.53495 0
M  V30 533 O 52.5055 -0.36389 -4.36586 0
M  V30 534 C 54.0065 1.43163 -4.19546 0
M  V30 535 H 51.2265 0.0655481 -0.667791 0
M  V30 536 H 53.7705 -0.446592 -1.99564 0
M  V30 537 H 51.9255 1.45794 -3.58919 0
M  V30 538 H 52.3395 -0.0113121 -5.24499 0
M  V30 539 H 53.8135 1.69886 -5.25207 0
M  V30 540 H 54.2905 2.37318 -3.69563 0
M  V30 541 H 54.8965 0.773307 -4.18211 0
M  V30 542 N 53.2116 1.57565 -0.0334293 0
M  V30 543 C 54.1586 2.10478 0.946981 0
M  V30 544 C 55.1286 1.00787 1.32027 0
M  V30 545 O 56.3136 1.28232 1.41284 0
M  V30 546 C 53.4536 2.63994 2.22263 0
M  V30 547 C 52.5666 3.87709 1.90541 0
M  V30 548 C 51.7016 4.29604 3.12433 0
M  V30 549 C 50.7406 5.46065 2.76549 0
M  V30 550 N 49.8776 5.83096 3.9108 0
M  V30 551 H 54.7176 2.93963 0.488846 0
M  V30 552 H 52.2546 1.45296 0.22969 0
M  V30 553 H 54.2126 2.93114 2.96884 0
M  V30 554 H 52.8426 1.83333 2.65685 0
M  V30 555 H 51.8946 3.65291 1.06144 0
M  V30 556 H 53.2066 4.72403 1.60116 0
M  V30 557 H 52.3606 4.60182 3.9537 0
M  V30 558 H 51.0996 3.43685 3.46023 0
M  V30 559 H 50.1046 5.15176 1.92026 0
M  V30 560 H 51.3296 6.33685 2.44171 0
M  V30 561 H 49.2756 5.00132 4.24504 0
M  V30 562 H 49.1926 6.6244 3.64293 0
M  V30 563 H 50.4606 6.18282 4.74708 0
M  V30 564 N 54.6897 -0.239769 1.55765 0
M  V30 565 C 55.9297 -0.974076 1.79697 0
M  V30 566 C 56.2937 -1.82249 0.604088 0
M  V30 567 O 57.4947 -2.58913 0.722324 0
M  V30 568 C 55.7657 -1.80595 3.08416 0
M  V30 569 S 57.3247 -2.59838 3.53596 0
M  V30 570 H 54.1427 -0.327524 0.63107 0
M  V30 571 H 56.7447 -0.241277 1.94005 0
M  V30 572 H 55.4487 -1.17249 3.93295 0
M  V30 573 H 54.9797 -2.58137 2.96865 0
M  V30 574 H 56.9947 -3.82987 3.15492 0
M  V30 575 N 56.1678 -1.49265 -0.50573 0
M  V30 576 C 57.0998 -1.617 -1.62437 0
M  V30 577 C 58.1128 -0.499924 -1.54934 0
M  V30 578 O 59.3018 -0.771785 -1.60953 0
M  V30 579 C 56.4018 -1.5533 -3.01207 0
M  V30 580 C 55.5748 -2.8249 -3.33943 0
M  V30 581 C 54.6338 -2.69238 -4.52103 0
M  V30 582 O 53.6598 -3.43167 -4.5412 0
M  V30 583 N 54.8618 -1.80468 -5.51735 0
M  V30 584 H 57.6268 -2.58177 -1.52199 0
M  V30 585 H 55.1878 -1.46294 -0.693511 0
M  V30 586 H 57.1798 -1.44125 -3.78167 0
M  V30 587 H 55.7498 -0.667297 -3.05395 0
M  V30 588 H 54.9698 -3.08081 -2.45926 0
M  V30 589 H 56.2578 -3.66802 -3.5261 0
M  V30 590 H 55.6558 -1.19653 -5.52901 0
M  V30 591 H 54.2128 -1.75188 -6.27816 0
M  V30 592 N 57.6459 0.756429 -1.3826 0
M  V30 593 C 58.8709 1.55077 -1.37717 0
M  V30 594 C 59.2959 1.88073 0.03164 0
M  V30 595 O 58.6539 1.50364 1.01293 0
M  V30 596 C 58.7019 2.8283 -2.23695 0
M  V30 597 O 57.8059 3.77862 -1.6521 0
M  V30 598 H 57.1469 0.469152 -0.469885 0
M  V30 599 H 59.6769 0.935019 -1.81985 0
M  V30 600 H 59.6869 3.31783 -2.37453 0
M  V30 601 H 58.3619 2.58144 -3.2609 0
M  V30 602 H 56.9389 3.36555 -1.60578 0
M  V30 603 N 59.124 1.23083 0.984299 0
M  V30 604 C 60.371 1.06057 1.72505 0
M  V30 605 C 60.699 -0.403105 1.90277 0
M  V30 606 O 59.954 -1.3149 1.44944 0
M  V30 607 C 60.253 1.72673 3.1292 0
M  V30 608 C 59.919 3.22586 3.15038 0
M  V30 609 C 58.581 3.63489 3.15324 0
M  V30 610 C 60.933 4.185 3.10657 0
M  V30 611 C 58.261 4.98772 3.08939 0
M  V30 612 C 60.613 5.53769 3.05814 0
M  V30 613 C 59.277 5.94041 3.04419 0
M  V30 614 H 58.547 0.388091 0.631242 0
M  V30 615 H 61.194 1.52963 1.15215 0
M  V30 616 H 59.499 1.18116 3.73572 0
M  V30 617 H 61.196 1.56982 3.68996 0
M  V30 618 H 57.786 2.90022 3.15571 0
M  V30 619 H 61.97 3.87911 3.09579 0
M  V30 620 H 57.226 5.29193 3.0621 0
M  V30 621 H 61.4 6.27808 3.0138 0
M  V30 622 H 59.027 6.98833 2.99227 0
M  V30 623 N 60.6021 -1.18246 1.0419 0
M  V30 624 C 62.0181 -1.40269 0.761366 0
M  V30 625 C 62.2181 -1.90777 -0.648578 0
M  V30 626 O 61.2741 -2.0929 -1.41258 0
M  V30 627 C 62.5871 -2.40237 1.8085 0
M  V30 628 C 64.1351 -2.53961 1.82955 0
M  V30 629 C 64.6101 -3.57194 2.86664 0
M  V30 630 N 66.1011 -3.64702 2.85563 0
M  V30 631 C 66.8361 -4.44309 3.6246 0
M  V30 632 N 66.3321 -5.27514 4.49111 0
M  V30 633 N 68.1251 -4.39084 3.50944 0
M  V30 634 H 60.2761 -0.837882 1.95175 0
M  V30 635 H 62.5391 -0.430608 0.84456 0
M  V30 636 H 62.2451 -2.10176 2.81991 0
M  V30 637 H 62.1191 -3.39601 1.64168 0
M  V30 638 H 64.5061 -2.83338 0.824855 0
M  V30 639 H 64.5871 -1.54706 2.03715 0
M  V30 640 H 64.2311 -3.28558 3.87314 0
M  V30 641 H 64.1611 -4.5613 2.6316 0
M  V30 642 H 66.6521 -3.05289 2.22727 0
M  V30 643 H 66.9651 -5.85411 5.04493 0
M  V30 644 H 65.3101 -5.2693 4.53178 0
M  V30 645 H 68.5011 -3.7313 2.82651 0
M  V30 646 H 68.6741 -5.00883 4.11121 0
M  V30 647 N 62.0802 -0.821533 -1.34494 0
M  V30 648 C 63.3572 -0.33159 -1.92769 0
M  V30 649 C 63.7372 1.18088 -1.74981 0
M  V30 650 O 63.0852 1.98733 -1.12772 0
M  V30 651 C 63.2952 -0.759398 -3.40638 0
M  V30 652 C 64.6432 -0.757433 -4.1779 0
M  V30 653 O 65.6672 -0.70189 -3.49216 0
M  V30 654 O 64.5262 -0.829361 -5.4017 0
M  V30 655 H 61.6202 -0.0902502 -0.822061 0
M  V30 656 H 64.1662 -0.906231 -1.43477 0
M  V30 657 H 62.9382 -1.8012 -3.47379 0
M  V30 658 H 62.5612 -0.160378 -3.97276 0
M  V30 659 N 63.5583 1.46682 -0.576371 0
M  V30 660 C 64.5083 2.27278 0.181288 0
M  V30 661 C 65.4923 1.35497 0.867721 0
M  V30 662 O 66.6843 1.59717 0.762863 0
M  V30 663 C 63.8133 3.21703 1.19841 0
M  V30 664 C 62.8993 4.20969 0.51442 0
M  V30 665 N 63.2903 5.03999 -0.426407 0
M  V30 666 C 61.5883 4.39373 0.765963 0
M  V30 667 C 62.2893 5.75812 -0.825565 0
M  V30 668 N 61.2653 5.43315 -0.176116 0
M  V30 669 H 65.0673 2.88863 -0.541785 0
M  V30 670 H 62.5813 1.57455 -0.397697 0
M  V30 671 H 64.5783 3.78145 1.75533 0
M  V30 672 H 63.2383 2.61677 1.92238 0
M  V30 673 H 64.2493 5.11659 -0.8016 0
M  V30 674 H 60.9263 3.90502 1.47698 0
M  V30 675 H 62.3163 6.52577 -1.59976 0
M  V30 676 N 65.0364 0.313813 1.54444 0
M  V30 677 C 65.9694 -0.598866 2.20202 0
M  V30 678 C 66.9474 -1.12318 1.17573 0
M  V30 679 O 68.1314 -1.18899 1.46271 0
M  V30 680 C 65.2584 -1.82071 2.85601 0
M  V30 681 C 64.3044 -1.42851 4.01865 0
M  V30 682 S 65.1374 -0.473512 5.33402 0
M  V30 683 C 66.2934 -1.70286 6.0229 0
M  V30 684 H 66.5264 -0.0402532 2.97273 0
M  V30 685 H 64.0594 0.0979165 1.54089 0
M  V30 686 H 66.0174 -2.52184 3.23904 0
M  V30 687 H 64.6784 -2.3505 2.08351 0
M  V30 688 H 63.8714 -2.33871 4.46453 0
M  V30 689 H 63.4734 -0.807198 3.65185 0
M  V30 690 H 65.7654 -2.64168 6.23876 0
M  V30 691 H 66.7084 -1.29932 6.96077 0
M  V30 692 H 67.1164 -1.88541 5.32083 0
M  V30 693 N 66.5145 -1.57545 0.0417849 0
M  V30 694 C 67.4615 -2.10977 -0.935805 0
M  V30 695 C 68.4315 -1.01486 -1.31491 0
M  V30 696 O 69.6165 -1.2898 -1.40602 0
M  V30 697 C 66.7565 -2.65169 -2.2086 0
M  V30 698 C 65.8695 -3.88714 -1.88482 0
M  V30 699 C 65.0045 -4.31254 -3.1015 0
M  V30 700 C 64.0435 -5.47524 -2.7365 0
M  V30 701 N 63.1805 -5.85162 -3.87982 0
M  V30 702 H 68.0205 -2.94218 -0.473249 0
M  V30 703 H 65.5575 -1.45415 -0.221981 0
M  V30 704 H 67.5155 -2.94685 -2.95325 0
M  V30 705 H 66.1455 -1.8474 -2.64709 0
M  V30 706 H 65.1975 -3.65849 -1.04205 0
M  V30 707 H 66.5095 -4.73245 -1.57608 0
M  V30 708 H 65.6635 -4.62273 -3.92923 0
M  V30 709 H 64.4025 -3.45516 -3.44195 0
M  V30 710 H 63.4075 -5.16187 -1.89291 0
M  V30 711 H 64.6325 -6.34971 -2.40807 0
M  V30 712 H 62.5785 -5.02377 -4.21846 0
M  V30 713 H 62.4955 -6.64362 -3.60775 0
M  V30 714 H 63.7635 -6.20791 -4.71422 0
M  V30 715 N 67.9926 0.231505 -1.5589 0
M  V30 716 C 69.2176 0.978689 -1.82856 0
M  V30 717 C 69.6426 1.77559 -0.620846 0
M  V30 718 O 69.0006 1.76119 0.430305 0
M  V30 719 C 69.0486 1.87997 -3.07716 0
M  V30 720 O 68.1526 2.97393 -2.85712 0
M  V30 721 H 67.4936 0.277663 -0.603158 0
M  V30 722 H 70.0236 0.24783 -2.03093 0
M  V30 723 H 70.0336 2.2917 -3.37558 0
M  V30 724 H 68.7086 1.29417 -3.95252 0
M  V30 725 H 67.2856 2.60238 -2.67078 0
M  V30 726 N 69.4707 1.49531 0.497807 0
M  V30 727 C 70.7167 1.59415 1.25358 0
M  V30 728 C 71.0497 0.281422 1.9215 0
M  V30 729 O 70.3247 -0.715249 1.80871 0
M  V30 730 C 70.6077 2.75566 2.3181 0
M  V30 731 C 70.4607 4.16642 1.69498 0
M  V30 732 C 71.7797 2.87347 3.33346 0
M  V30 733 H 68.8987 0.580244 0.454408 0
M  V30 734 H 71.5407 1.81827 0.551262 0
M  V30 735 H 69.6907 2.56587 2.91711 0
M  V30 736 H 71.3627 4.47145 1.13399 0
M  V30 737 H 69.6057 4.22141 0.998978 0
M  V30 738 H 70.2767 4.93792 2.46725 0
M  V30 739 H 72.7527 3.04634 2.83438 0
M  V30 740 H 71.6287 3.70289 4.05188 0
M  V30 741 H 71.8897 1.96834 3.95865 0
M  V30 742 N 70.9488 -0.749086 1.3866 0
M  V30 743 C 72.1978 -1.50371 1.3443 0
M  V30 744 C 72.5108 -1.95503 -0.0616397 0
M  V30 745 O 73.7168 -2.70554 -0.226489 0
M  V30 746 C 72.1728 -2.71644 2.36088 0
M  V30 747 C 71.7808 -2.3352 3.82325 0
M  V30 748 C 73.5248 -3.49518 2.40909 0
M  V30 749 C 71.4318 -3.51431 4.75658 0
M  V30 750 H 70.3618 -0.564628 0.499712 0
M  V30 751 H 73.0128 -0.818449 1.64237 0
M  V30 752 H 71.3948 -3.42175 1.9933 0
M  V30 753 H 72.5688 -1.70627 4.28046 0
M  V30 754 H 70.8838 -1.6877 3.80665 0
M  V30 755 H 73.4808 -4.37197 3.07836 0
M  V30 756 H 73.8238 -3.90992 1.42937 0
M  V30 757 H 74.3568 -2.86005 2.76489 0
M  V30 758 H 71.0958 -3.15019 5.74842 0
M  V30 759 H 70.6158 -4.13352 4.34627 0
M  V30 760 H 72.2948 -4.17953 4.93887 0
M  V30 761 N 72.4269 -1.23603 -0.977757 0
M  V30 762 C 73.8379 -1.06424 -1.53398 0
M  V30 763 C 74.1889 0.367578 -1.92726 0
M  V30 764 O 73.3139 1.25465 -1.76316 0
M  V30 765 C 73.9089 -1.92568 -2.78753 0
M  V30 766 C 72.4679 -1.79642 -3.30765 0
M  V30 767 C 71.6149 -1.88111 -2.03739 0
M  V30 768 H 74.5659 -1.37227 -0.797152 0
M  V30 769 H 74.5869 -1.45203 -3.51705 0
M  V30 770 H 74.0989 -2.96771 -2.50098 0
M  V30 771 H 72.1999 -0.782325 -3.64294 0
M  V30 772 H 72.3129 -2.63174 -4.00345 0
M  V30 773 H 70.6769 -1.31723 -2.17994 0
M  V30 774 H 71.4599 -2.93875 -1.77461 0
M  V30 775 N 73.905 1.17692 -1.04816 0
M  V30 776 C 75.13 1.92327 -0.776207 0
M  V30 777 C 75.555 1.76082 0.661581 0
M  V30 778 O 74.913 1.076 1.45917 0
M  V30 779 C 74.961 3.41539 -1.15687 0
M  V30 780 O 74.065 4.11402 -0.286775 0
M  V30 781 H 73.406 0.599735 -0.284981 0
M  V30 782 H 75.936 1.49201 -1.4 0
M  V30 783 H 75.946 3.92269 -1.12202 0
M  V30 784 H 74.621 3.52684 -2.20425 0
M  V30 785 H 73.198 3.70939 -0.381903 0
M  V30 786 N 75.3831 0.828654 1.34056 0
M  V30 787 C 76.6601 0.341809 1.9259 0
M  V30 788 C 77.0401 -1.17158 1.75605 0
M  V30 789 O 76.3881 -1.98132 1.13824 0
M  V30 790 C 76.5981 0.777453 3.4023 0
M  V30 791 C 77.9461 0.779579 4.17382 0
M  V30 792 O 78.9701 0.7204 3.48839 0
M  V30 793 O 77.8291 0.857996 5.39723 0
M  V30 794 H 74.9231 0.0946085 0.821571 0
M  V30 795 H 77.4691 0.913827 1.42994 0
M  V30 796 H 76.2411 1.8196 3.46419 0
M  V30 797 H 75.8641 0.181444 3.97186 0
M  V30 798 N 76.8612 -1.46375 0.584142 0
M  V30 799 C 78.1092 -2.01978 0.0701287 0
M  V30 800 C 78.4302 -1.4579 -1.295 0
M  V30 801 O 77.7002 -0.64314 -1.85042 0
M  V30 802 H 76.2802 -0.746648 0.0229345 0
M  V30 803 H 78.9422 -1.79461 0.760245 0
M  V30 804 H 78.0382 -3.121 0.0022064 0
M  V30 805 N 78.3393 -0.321999 -1.54275 0
M  V30 806 C 79.7503 0.166384 -1.85957 0
M  V30 807 C 80.1013 1.51747 -1.24367 0
M  V30 808 O 79.2263 2.09317 -0.549124 0
M  V30 809 C 79.8213 0.308681 -3.37391 0
M  V30 810 C 78.3803 0.741286 -3.69028 0
M  V30 811 C 77.5273 -0.137937 -2.76957 0
M  V30 812 H 80.4783 -0.542335 -1.49146 0
M  V30 813 H 80.4993 1.13984 -3.63026 0
M  V30 814 H 80.0113 -0.674809 -3.82188 0
M  V30 815 H 78.1123 1.73458 -3.29762 0
M  V30 816 H 78.2253 0.546118 -4.75977 0
M  V30 817 H 76.5893 0.386251 -2.51754 0
M  V30 818 H 77.3723 -1.11816 -3.2458 0
M  V30 819 N 79.8174 1.5752 -0.0501392 0
M  V30 820 C 81.0424 1.97376 0.636997 0
M  V30 821 C 81.4674 0.927466 1.63645 0
M  V30 822 O 80.8254 -0.10941 1.8097 0
M  V30 823 C 80.8734 3.36304 1.30123 0
M  V30 824 O 79.9774 3.34156 2.41689 0
M  V30 825 H 79.3184 0.642998 0.165679 0
M  V30 826 H 81.8484 2.04258 -0.118233 0
M  V30 827 H 81.8584 3.73008 1.65315 0
M  V30 828 H 80.5334 4.11993 0.568746 0
M  V30 829 H 79.1104 3.09196 2.08451 0
M  V30 830 N 81.2955 -0.223234 1.56011 0
M  V30 831 C 82.5415 -0.949279 1.79211 0
M  V30 832 C 82.8745 -1.84054 0.619494 0
M  V30 833 O 82.1495 -1.90726 -0.381317 0
M  V30 834 C 82.4325 -1.78965 3.12479 0
M  V30 835 C 82.2855 -0.924997 4.40186 0
M  V30 836 C 83.6045 -2.76774 3.42175 0
M  V30 837 H 80.7235 -0.343676 0.651963 0
M  V30 838 H 83.3655 -0.218253 1.88742 0
M  V30 839 H 81.5155 -2.41291 3.04485 0
M  V30 840 H 83.1875 -0.318615 4.60198 0
M  V30 841 H 81.4305 -0.230344 4.33188 0
M  V30 842 H 82.1015 -1.54735 5.29869 0
M  V30 843 H 84.5775 -2.24584 3.50287 0
M  V30 844 H 83.4535 -3.32678 4.36597 0
M  V30 845 H 83.7145 -3.54429 2.64258 0
M  V30 846 N 82.7736 -1.49793 -0.48987 0
M  V30 847 C 83.7366 -1.66752 -1.57246 0
M  V30 848 C 84.7366 -0.538867 -1.51502 0
M  V30 849 O 85.9266 -0.805545 -1.54456 0
M  V30 850 C 83.0586 -1.67528 -2.96896 0
M  V30 851 H 84.2516 -2.63321 -1.43534 0
M  V30 852 H 81.8046 -1.38992 -0.714914 0
M  V30 853 H 82.5396 -0.725837 -3.16073 0
M  V30 854 H 82.3246 -2.49504 -3.02473 0
M  V30 855 H 83.8146 -1.82667 -3.7553 0
M  V30 856 N 84.2517 0.741722 -1.39055 0
M  V30 857 C 85.4917 1.51385 -1.37338 0
M  V30 858 C 85.8557 1.91972 0.0330513 0
M  V30 859 O 87.0567 2.68229 0.175174 0
M  V30 860 C 85.3277 2.72481 -2.31276 0
M  V30 861 S 86.8867 3.62211 -2.47687 0
M  V30 862 H 83.7047 0.517906 -0.487129 0
M  V30 863 H 86.3067 0.86969 -1.7509 0
M  V30 864 H 85.0107 2.40793 -3.32336 0
M  V30 865 H 84.5417 3.41832 -1.94716 0
M  V30 866 H 86.5567 4.65812 -1.70978 0
M  V30 867 N 85.7298 1.2412 0.971189 0
M  V30 868 C 86.9758 1.08041 1.71625 0
M  V30 869 C 87.3088 -0.380407 1.90438 0
M  V30 870 O 86.5838 -1.28127 1.46334 0
M  V30 871 C 86.8668 1.81682 3.10908 0
M  V30 872 C 86.7198 3.35493 2.99608 0
M  V30 873 C 88.0388 1.58671 4.10501 0
M  V30 874 H 85.1578 0.39388 0.622919 0
M  V30 875 H 87.7998 1.52743 1.13003 0
M  V30 876 H 85.9498 1.43684 3.60953 0
M  V30 877 H 87.6218 3.83068 2.57015 0
M  V30 878 H 85.8648 3.64052 2.35899 0
M  V30 879 H 86.5358 3.82217 3.98264 0
M  V30 880 H 89.0118 1.91719 3.69301 0
M  V30 881 H 87.8878 2.1266 5.06031 0
M  V30 882 H 88.1488 0.524161 4.38982 0
M  V30 883 N 87.2079 -1.17134 1.05439 0
M  V30 884 C 88.1549 -2.21235 0.657539 0
M  V30 885 C 89.1249 -1.62551 -0.341543 0
M  V30 886 O 90.3099 -1.89379 -0.232393 0
M  V30 887 C 87.4499 -3.45076 0.0410575 0
M  V30 888 C 86.5629 -4.18042 1.08927 0
M  V30 889 C 85.6979 -5.29376 0.439848 0
M  V30 890 C 84.7369 -5.94132 1.4722 0
M  V30 891 N 83.8739 -6.96975 0.846756 0
M  V30 892 H 88.7139 -2.54534 1.54972 0
M  V30 893 H 86.2509 -1.25028 0.775006 0
M  V30 894 H 88.2089 -4.15862 -0.33383 0
M  V30 895 H 86.8389 -3.12353 -0.814568 0
M  V30 896 H 85.8909 -3.45945 1.58196 0
M  V30 897 H 87.2029 -4.62306 1.87282 0
M  V30 898 H 86.3569 -6.06699 0.0115125 0
M  V30 899 H 85.0959 -4.86251 -0.375656 0
M  V30 900 H 84.1009 -5.15538 1.91052 0
M  V30 901 H 85.3259 -6.39337 2.28965 0
M  V30 902 H 83.2719 -6.5598 0.0518075 0
M  V30 903 H 83.1889 -7.39565 1.5678 0
M  V30 904 H 84.4569 -7.78239 0.443277 0
M  V30 905 N 88.686 -0.835752 -1.33615 0
M  V30 906 C 89.633 -0.26473 -2.29277 0
M  V30 907 C 90.603 0.617712 -1.54187 0
M  V30 908 O 91.788 0.556641 -1.825 0
M  V30 909 C 88.928 0.556777 -3.40579 0
M  V30 910 C 88.041 -0.349339 -4.30585 0
M  V30 911 C 87.176 0.482969 -5.29 0
M  V30 912 C 86.215 -0.421732 -6.10645 0
M  V30 913 N 85.352 0.372262 -7.01112 0
M  V30 914 H 90.192 -1.08582 -2.77514 0
M  V30 915 H 87.729 -0.546927 -1.36554 0
M  V30 916 H 89.687 1.04852 -4.03809 0
M  V30 917 H 88.317 1.34286 -2.93542 0
M  V30 918 H 87.369 -0.959372 -3.68104 0
M  V30 919 H 88.681 -1.04445 -4.87742 0
M  V30 920 H 87.835 1.03866 -5.97743 0
M  V30 921 H 86.574 1.21153 -4.72412 0
M  V30 922 H 85.579 -0.989464 -5.40823 0
M  V30 923 H 86.804 -1.14861 -6.69316 0
M  V30 924 H 84.75 1.08426 -6.46977 0
M  V30 925 H 84.667 -0.264198 -7.55538 0
M  V30 926 H 85.935 0.910293 -7.74167 0
M  V30 927 N 90.1641 1.46063 -0.591896 0
M  V30 928 C 91.1271 2.28854 0.125973 0
M  V30 929 C 92.1271 1.38903 0.810107 0
M  V30 930 O 93.3171 1.61186 0.66066 0
M  V30 931 C 90.4491 3.19526 1.1881 0
M  V30 932 H 91.6421 2.93802 -0.601717 0
M  V30 933 H 89.1951 1.52325 -0.350254 0
M  V30 934 H 89.9301 2.59345 1.94707 0
M  V30 935 H 89.7151 3.85766 0.701936 0
M  V30 936 H 91.2051 3.81817 1.69132 0
M  V30 937 N 91.6422 0.330177 1.54103 0
M  V30 938 C 92.8672 -0.274893 2.0557 0
M  V30 939 C 93.2922 -1.44487 1.20437 0
M  V30 940 O 92.6502 -1.80021 0.214991 0
M  V30 941 C 92.6982 -0.68079 3.54115 0
M  V30 942 O 91.8022 -1.7824 3.71893 0
M  V30 943 H 91.1432 -0.0483849 0.662235 0
M  V30 944 H 93.6732 0.480508 1.98878 0
M  V30 945 H 93.6832 -0.961635 3.96505 0
M  V30 946 H 92.3582 0.174903 4.15532 0
M  V30 947 H 90.9352 -1.49985 3.41407 0
M  V30 948 N 93.1203 -1.57491 0.0584922 0
M  V30 949 C 94.3503 -1.9701 -0.622134 0
M  V30 950 C 94.7583 -0.935034 -1.6448 0
M  V30 951 O 94.1013 0.0882904 -1.83488 0
M  V30 952 C 94.1633 -3.32794 -1.35972 0
M  V30 953 C 93.8273 -4.54343 -0.492043 0
M  V30 954 C 94.8243 -5.19323 0.244901 0
M  V30 955 C 92.5093 -5.00534 -0.420821 0
M  V30 956 C 94.5033 -6.28835 1.04143 0
M  V30 957 C 92.1903 -6.09921 0.379389 0
M  V30 958 C 93.1883 -6.73933 1.10919 0
M  V30 959 O 92.8763 -7.81216 1.89623 0
M  V30 960 H 92.6083 -0.653127 -0.174359 0
M  V30 961 H 95.1623 -2.05029 0.123418 0
M  V30 962 H 93.3923 -3.21351 -2.15105 0
M  V30 963 H 95.0813 -3.5701 -1.93129 0
M  V30 964 H 95.8473 -4.8459 0.19939 0
M  V30 965 H 91.7263 -4.50496 -0.978474 0
M  V30 966 H 95.2703 -6.7873 1.61157 0
M  V30 967 H 91.1673 -6.44089 0.426512 0
M  V30 968 H 91.9353 -7.98029 1.81913 0
M  V30 969 N 94.5984 0.214957 -1.56127 0
M  V30 970 C 95.5284 1.2695 -1.95974 0
M  V30 971 C 96.5094 1.48539 -0.828868 0
M  V30 972 O 97.6944 1.60611 -1.09168 0
M  V30 973 C 94.8244 2.61794 -2.28214 0
M  V30 974 C 93.7784 2.54851 -3.43853 0
M  V30 975 C 93.1044 3.93785 -3.61715 0
M  V30 976 C 94.4044 2.09065 -4.78632 0
M  V30 977 H 96.0984 0.93846 -2.84312 0
M  V30 978 H 93.6444 0.449996 -1.36788 0
M  V30 979 H 95.5974 3.35731 -2.54682 0
M  V30 980 H 94.3214 2.96599 -1.36736 0
M  V30 981 H 92.9804 1.8337 -3.17444 0
M  V30 982 H 92.6284 4.25908 -2.67602 0
M  V30 983 H 92.3284 3.90019 -4.39498 0
M  V30 984 H 93.8524 4.69374 -3.90539 0
M  V30 985 H 95.2664 2.7275 -5.04262 0
M  V30 986 H 93.6634 2.16346 -5.59745 0
M  V30 987 H 94.7334 1.04315 -4.73547 0
M  V30 988 N 96.0765 1.50051 0.48192 0
M  V30 989 C 97.3535 1.51009 1.2432 0
M  V30 990 C 97.7335 0.248587 2.09631 0
M  V30 991 O 97.0815 -0.768409 2.15192 0
M  V30 992 C 97.2915 2.79981 2.08355 0
M  V30 993 C 98.6395 3.3022 2.66908 0
M  V30 994 O 99.6635 2.81228 2.18607 0
M  V30 995 O 98.5225 4.15595 3.54884 0
M  V30 996 H 95.6165 0.605239 0.563573 0
M  V30 997 H 98.1625 1.62332 0.494627 0
M  V30 998 H 96.9345 3.63275 1.45419 0
M  V30 999 H 96.5575 2.7161 2.90368 0
M  V30 1000 N 97.5546 -0.734337 1.39446 0
M  V30 1001 C 98.7946 -1.50655 1.38139 0
M  V30 1002 C 99.1586 -1.91986 -0.0228701 0
M  V30 1003 O 100.36 -2.68318 -0.160947 0
M  V30 1004 C 98.6306 -2.71251 2.32718 0
M  V30 1005 S 100.19 -3.60892 2.49605 0
M  V30 1006 H 97.0076 -0.515315 0.489869 0
M  V30 1007 H 99.6096 -0.860392 1.75549 0
M  V30 1008 H 98.3136 -2.39027 3.33608 0
M  V30 1009 H 97.8446 -3.40795 1.96526 0
M  V30 1010 H 99.8596 -4.64899 1.73446 0
M  V30 1011 N 99.0327 -1.24633 -0.964593 0
M  V30 1012 C 100.282 -1.08188 -1.7023 0
M  V30 1013 C 100.595 0.37873 -1.91898 0
M  V30 1014 O 101.801 0.663427 -2.6327 0
M  V30 1015 C 100.257 -1.88773 -3.06419 0
M  V30 1016 C 99.8647 -3.39263 -2.92582 0
M  V30 1017 C 101.609 -1.80867 -3.84041 0
M  V30 1018 C 99.5157 -4.1218 -4.24101 0
M  V30 1019 H 98.4457 -0.401245 -0.638372 0
M  V30 1020 H 101.097 -1.48742 -1.07462 0
M  V30 1021 H 99.4787 -1.41035 -3.70034 0
M  V30 1022 H 100.653 -3.94603 -2.37961 0
M  V30 1023 H 98.9677 -3.48154 -2.28424 0
M  V30 1024 H 101.565 -2.32646 -4.81435 0
M  V30 1025 H 101.908 -0.774543 -4.09031 0
M  V30 1026 H 102.441 -2.26301 -3.27159 0
M  V30 1027 H 99.1797 -5.15965 -4.04303 0
M  V30 1028 H 98.6997 -3.61626 -4.78526 0
M  V30 1029 H 100.379 -4.19349 -4.92702 0
M  V30 1030 N 100.511 1.16574 -1.06058 0
M  V30 1031 C 101.927 1.3904 -0.783585 0
M  V30 1032 C 102.127 1.91784 0.618145 0
M  V30 1033 O 101.183 2.11511 1.37911 0
M  V30 1034 C 102.496 2.37329 -1.84649 0
M  V30 1035 C 104.044 2.51018 -1.86973 0
M  V30 1036 C 104.519 3.52588 -2.92311 0
M  V30 1037 N 106.01 3.60113 -2.91329 0
M  V30 1038 C 106.745 4.38486 -3.69482 0
M  V30 1039 N 106.241 5.20302 -4.57447 0
M  V30 1040 N 108.034 4.33446 -3.57885 0
M  V30 1041 H 100.185 0.806725 -1.96483 0
M  V30 1042 H 102.448 0.417117 -0.851303 0
M  V30 1043 H 102.154 2.05663 -2.85299 0
M  V30 1044 H 102.028 3.36946 -1.6955 0
M  V30 1045 H 104.415 2.81989 -0.869827 0
M  V30 1046 H 104.496 1.51445 -2.0615 0
M  V30 1047 H 104.14 3.22354 -3.92492 0
M  V30 1048 H 104.07 4.51886 -2.70383 0
M  V30 1049 H 106.561 3.01707 -2.27555 0
M  V30 1050 H 106.874 5.77311 -5.13743 0
M  V30 1051 H 105.219 5.19653 -4.61503 0
M  V30 1052 H 108.41 3.68586 -2.88551 0
M  V30 1053 H 108.583 4.94279 -4.19037 0
M  V30 1054 N 101.989 0.842826 1.3317 0
M  V30 1055 C 102.952 0.284065 2.27433 0
M  V30 1056 C 103.952 -0.54948 1.5112 0
M  V30 1057 O 105.142 -0.362699 1.70382 0
M  V30 1058 C 102.274 -0.599384 3.35589 0
M  V30 1059 H 103.467 1.11589 2.78366 0
M  V30 1060 H 101.02 0.616221 1.4364 0
M  V30 1061 H 101.755 -1.45349 2.89904 0
M  V30 1062 H 101.54 -0.00291266 3.921 0
M  V30 1063 H 103.03 -0.983488 4.05854 0
M  V30 1064 N 103.467 -1.45747 0.599634 0
M  V30 1065 C 104.716 -2.01502 0.0893511 0
M  V30 1066 C 105.029 -1.4748 -1.28488 0
M  V30 1067 O 106.235 -1.95161 -1.88745 0
M  V30 1068 C 104.691 -3.59735 0.109082 0
M  V30 1069 C 104.299 -4.22754 1.48267 0
M  V30 1070 C 106.043 -4.23085 -0.346374 0
M  V30 1071 C 103.95 -5.73115 1.45921 0
M  V30 1072 H 102.88 -0.753417 0.0296347 0
M  V30 1073 H 105.531 -1.67303 0.753788 0
M  V30 1074 H 103.913 -3.91087 -0.621854 0
M  V30 1075 H 105.087 -4.02987 2.23468 0
M  V30 1076 H 103.402 -3.71567 1.87955 0
M  V30 1077 H 105.999 -5.33327 -0.38298 0
M  V30 1078 H 106.342 -3.93201 -1.36743 0
M  V30 1079 H 106.875 -3.9642 0.331038 0
M  V30 1080 H 103.614 -6.07685 2.45762 0
M  V30 1081 H 103.134 -5.95097 0.749665 0
M  V30 1082 H 104.813 -6.3616 1.17941 0
M  V30 1083 N 104.945 -0.338344 -1.53925 0
M  V30 1084 C 105.908 0.508299 -2.23493 0
M  V30 1085 C 106.908 1.03175 -1.23335 0
M  V30 1086 O 108.098 0.921826 -1.47811 0
M  V30 1087 C 105.23 1.70754 -2.95052 0
M  V30 1088 H 106.423 -0.100058 -2.99733 0
M  V30 1089 H 103.976 -0.0896198 -1.56043 0
M  V30 1090 H 104.711 2.35474 -2.22986 0
M  V30 1091 H 104.496 1.33946 -3.68512 0
M  V30 1092 H 105.986 2.30818 -3.48013 0
M  V30 1093 N 106.423 1.57458 -0.0668435 0
M  V30 1094 C 107.386 2.11323 0.887422 0
M  V30 1095 C 108.386 1.03618 1.22964 0
M  V30 1096 O 109.576 1.29626 1.16373 0
M  V30 1097 C 106.708 2.61048 2.19242 0
M  V30 1098 H 107.901 2.96942 0.420194 0
M  V30 1099 H 105.454 1.55239 0.181793 0
M  V30 1100 H 106.189 1.78868 2.70512 0
M  V30 1101 H 105.974 3.39769 1.95702 0
M  V30 1102 H 107.464 3.02814 2.87565 0
M  V30 1103 N 107.901 -0.206675 1.56239 0
M  V30 1104 C 108.849 -1.27571 1.94495 0
M  V30 1105 C 109.843 -1.47737 0.828862 0
M  V30 1106 O 111.049 -1.48735 1.0138 0
M  V30 1107 H 107.424 -0.428029 0.6183 0
M  V30 1108 H 109.395 -0.925961 2.8367 0
M  V30 1109 C 108.144 -2.61568 2.29079 0
M  V30 1110 H 107.467 -2.46863 3.14482 0
M  V30 1111 H 108.907 -3.35144 2.5972 0
M  V30 1112 C 107.366 -3.17695 1.12123 0
M  V30 1113 O 107.896 -3.99801 0.390153 0
M  V30 1114 N 106.102 -2.76276 0.901097 0
M  V30 1115 H 105.649 -2.09613 1.49733 0
M  V30 1116 H 105.607 -3.1417 0.120319 0
M  V30 1117 N 109.379 -1.50304 -0.473955 0
M  V30 1118 C 110.289 -1.7174 -1.5982 0
M  V30 1119 C 111.305 -0.600457 -1.63311 0
M  V30 1120 O 112.481 -0.878441 -1.81233 0
M  V30 1121 C 109.546 -1.80427 -2.96052 0
M  V30 1122 C 108.607 -3.04148 -3.02972 0
M  V30 1123 C 107.84 -3.12411 -4.32706 0
M  V30 1124 O 108.063 -2.27542 -5.23049 0
M  V30 1125 O 106.997 -4.05113 -4.45159 0
M  V30 1126 H 110.823 -2.67035 -1.44657 0
M  V30 1127 H 108.408 -1.34366 -0.653148 0
M  V30 1128 H 110.29 -1.88338 -3.7697 0
M  V30 1129 H 108.965 -0.883156 -3.11419 0
M  V30 1130 H 107.872 -3.0174 -2.21142 0
M  V30 1131 H 109.205 -3.95829 -2.92541 0
M  V30 1132 N 110.857 0.726932 -1.39834 0
M  V30 1133 C 111.82 1.82269 -1.38962 0
M  V30 1134 C 112.82 1.58248 -0.285334 0
M  V30 1135 O 114.01 1.65499 -0.54366 0
M  V30 1136 C 111.142 3.20186 -1.17019 0
M  V30 1137 H 112.335 1.84443 -2.36476 0
M  V30 1138 H 109.888 0.931416 -1.25516 0
M  V30 1139 H 110.623 3.23669 -0.202204 0
M  V30 1140 H 110.408 3.3902 -1.96998 0
M  V30 1141 H 111.898 4.00235 -1.1917 0
M  V30 1142 N 112.336 1.25143 0.95797 0
M  V30 1143 C 113.613 1.00472 1.67823 0
M  V30 1144 C 113.993 -0.470056 2.058 0
M  V30 1145 O 113.341 -1.44663 1.76875 0
M  V30 1146 C 113.551 1.9372 2.90299 0
M  V30 1147 C 114.899 2.21371 3.62326 0
M  V30 1148 O 115.923 1.91451 3.00375 0
M  V30 1149 O 114.782 2.72231 4.7387 0
M  V30 1150 H 111.876 0.380752 0.734137 0
M  V30 1151 H 114.422 1.36283 1.01119 0
M  V30 1152 H 113.194 2.93316 2.59001 0
M  V30 1153 H 112.817 1.58286 3.64735 0
M  V30 1154 N 113.814 -1.1601 1.06675 0
M  V30 1155 C 114.777 -2.18724 0.685001 0
M  V30 1156 C 115.777 -1.58496 -0.271246 0
M  V30 1157 O 116.967 -1.74119 -0.0531156 0
M  V30 1158 C 114.099 -3.40899 0.00853648 0
M  V30 1159 H 115.292 -2.54011 1.59431 0
M  V30 1160 H 112.845 -1.30352 0.862441 0
M  V30 1161 H 113.58 -3.11173 -0.913337 0
M  V30 1162 H 113.365 -3.8587 0.696204 0
M  V30 1163 H 114.855 -4.16886 -0.24414 0
M  V30 1164 N 115.292 -0.849877 -1.32721 0
M  V30 1165 C 116.538 -0.451591 -1.97708 0
M  V30 1166 C 116.871 0.989175 -1.6712 0
M  V30 1167 O 116.146 1.69334 -0.956891 0
M  V30 1168 C 116.429 -0.685598 -3.53513 0
M  V30 1169 C 116.282 -2.17444 -3.93749 0
M  V30 1170 C 117.601 -0.138874 -4.39881 0
M  V30 1171 H 114.72 -0.16555 -0.718166 0
M  V30 1172 H 117.362 -1.06742 -1.57182 0
M  V30 1173 H 115.512 -0.161416 -3.88165 0
M  V30 1174 H 117.184 -2.76433 -3.693 0
M  V30 1175 H 115.427 -2.65476 -3.43081 0
M  V30 1176 H 116.098 -2.28888 -5.02309 0
M  V30 1177 H 118.574 -0.587068 -4.11938 0
M  V30 1178 H 117.45 -0.332213 -5.47894 0
M  V30 1179 H 117.711 0.95806 -4.31594 0
M  V30 1180 N 116.77 1.45427 -0.607355 0
M  V30 1181 C 117.998 2.06614 -0.108814 0
M  V30 1182 C 118.413 1.45204 1.2067 0
M  V30 1183 O 117.77 0.566132 1.73497 0
M  V30 1184 C 117.821 3.61481 0.0375347 0
M  V30 1185 O 117.542 4.20598 -1.22593 0
M  V30 1186 C 119.043 4.39652 0.567561 0
M  V30 1187 H 116.263 0.66747 -0.0687351 0
M  V30 1188 H 118.807 1.86675 -0.835022 0
M  V30 1189 H 116.962 3.80762 0.714068 0
M  V30 1190 H 117.376 5.1377 -1.05547 0
M  V30 1191 H 118.85 5.48518 0.61905 0
M  V30 1192 H 119.327 4.09417 1.58978 0
M  V30 1193 H 119.933 4.25234 -0.0749202 0
M  V30 1194 N 118.248 0.346503 1.53744 0
M  V30 1195 C 119.178 -0.501193 2.28058 0
M  V30 1196 C 120.159 -1.10014 1.29734 0
M  V30 1197 O 121.344 -1.12097 1.58581 0
M  V30 1198 C 118.474 -1.65078 3.05559 0
M  V30 1199 C 117.428 -1.18003 4.11411 0
M  V30 1200 C 116.754 -2.41837 4.76884 0
M  V30 1201 C 118.054 -0.278394 5.21558 0
M  V30 1202 H 119.748 0.11875 2.99164 0
M  V30 1203 H 117.294 0.0585531 1.43881 0
M  V30 1204 H 119.247 -2.25028 3.56287 0
M  V30 1205 H 117.971 -2.29767 2.32109 0
M  V30 1206 H 116.63 -0.603331 3.61601 0
M  V30 1207 H 116.278 -3.0494 4.00026 0
M  V30 1208 H 115.978 -2.1102 5.48402 0
M  V30 1209 H 117.502 -3.02508 5.30397 0
M  V30 1210 H 118.916 -0.784823 5.67903 0
M  V30 1211 H 117.313 -0.0619707 6.00068 0
M  V30 1212 H 118.383 0.684677 4.80042 0
M  V30 1213 N 119.726 -1.57421 0.075193 0
M  V30 1214 C 121.003 -1.85029 -0.634329 0
M  V30 1215 C 121.383 -0.968305 -1.87582 0
M  V30 1216 O 120.731 -0.0354749 -2.28472 0
M  V30 1217 C 120.941 -3.35286 -0.968742 0
M  V30 1218 C 122.289 -4.02875 -1.34077 0
M  V30 1219 O 123.313 -3.40051 -1.06037 0
M  V30 1220 O 122.172 -5.13691 -1.86506 0
M  V30 1221 H 119.266 -0.7645 -0.315387 0
M  V30 1222 H 121.812 -1.69366 0.106382 0
M  V30 1223 H 120.584 -3.91203 -0.0871376 0
M  V30 1224 H 120.207 -3.56223 -1.7661 0
M  V30 1225 N 121.204 0.198386 -1.56346 0
M  V30 1226 C 122.167 1.22952 -1.93431 0
M  V30 1227 C 123.167 1.38611 -0.815092 0
M  V30 1228 O 124.357 1.36479 -1.08255 0
M  V30 1229 C 121.489 2.59946 -2.20546 0
M  V30 1230 H 122.682 0.912626 -2.85677 0
M  V30 1231 H 120.235 0.43977 -1.49986 0
M  V30 1232 H 120.97 2.96696 -1.30927 0
M  V30 1233 H 120.755 2.49953 -3.02102 0
M  V30 1234 H 122.245 3.3431 -2.50253 0
M  V30 1235 N 122.682 1.50554 0.465978 0
M  V30 1236 C 123.93 1.61479 1.21528 0
M  V30 1237 C 124.251 0.319596 1.92363 0
M  V30 1238 O 123.521 -0.663194 1.84333 0
M  V30 1239 H 122.101 0.595055 0.451573 0
M  V30 1240 H 124.763 1.87355 0.53704 0
M  V30 1241 H 123.859 2.42846 1.96042 0
M  V30 1242 N 124.16 -0.719506 1.40217 0
M  V30 1243 C 125.09 -1.8465 1.42922 0
M  V30 1244 C 126.071 -1.67599 0.29062 0
M  V30 1245 O 127.256 -1.87688 0.498677 0
M  V30 1246 C 124.386 -3.22565 1.28722 0
M  V30 1247 C 123.34 -3.54281 2.40144 0
M  V30 1248 C 122.666 -4.91298 2.11023 0
M  V30 1249 C 123.966 -3.55676 3.82481 0
M  V30 1250 H 125.66 -1.82644 2.37237 0
M  V30 1251 H 123.206 -0.877305 1.1419 0
M  V30 1252 H 125.159 -4.01095 1.29232 0
M  V30 1253 H 123.883 -3.25137 0.308811 0
M  V30 1254 H 122.542 -2.78088 2.38877 0
M  V30 1255 H 122.19 -4.90468 1.11582 0
M  V30 1256 H 121.89 -5.13485 2.8567 0
M  V30 1257 H 123.414 -5.72166 2.13209 0
M  V30 1258 H 124.828 -4.24254 3.85592 0
M  V30 1259 H 123.225 -3.89388 4.56614 0
M  V30 1260 H 124.295 -2.55144 4.12346 0
M  V30 1261 N 125.638 -1.25649 -0.95132 0
M  V30 1262 C 126.884 -1.10757 -1.69884 0
M  V30 1263 C 127.217 0.350061 -1.91019 0
M  V30 1264 O 126.492 1.25783 -1.48354 0
M  V30 1265 C 126.775 -1.86606 -3.07978 0
M  V30 1266 C 126.628 -3.40217 -2.94232 0
M  V30 1267 C 127.947 -1.65182 -4.07925 0
M  V30 1268 H 125.066 -0.40374 -0.616574 0
M  V30 1269 H 127.708 -1.54521 -1.10558 0
M  V30 1270 H 125.858 -1.49409 -3.58621 0
M  V30 1271 H 127.53 -3.87108 -2.50889 0
M  V30 1272 H 125.773 -3.67759 -2.30078 0
M  V30 1273 H 126.444 -3.88505 -3.92133 0
M  V30 1274 H 128.92 -1.9757 -3.66204 0
M  V30 1275 H 127.796 -2.20683 -5.02583 0
M  V30 1276 H 128.057 -0.593933 -4.38092 0
M  V30 1277 N 127.117 1.15442 -1.07289 0
M  V30 1278 C 128.347 1.89821 -0.815576 0
M  V30 1279 C 128.755 1.7823 0.634867 0
M  V30 1280 O 128.098 1.13152 1.44715 0
M  V30 1281 C 128.16 3.40817 -1.14385 0
M  V30 1282 C 127.824 3.76193 -2.59476 0
M  V30 1283 C 128.821 3.77269 -3.57721 0
M  V30 1284 C 126.506 4.0652 -2.95037 0
M  V30 1285 C 128.5 4.08176 -4.89562 0
M  V30 1286 C 126.187 4.37092 -4.27076 0
M  V30 1287 C 127.185 4.37902 -5.24148 0
M  V30 1288 O 126.873 4.67741 -6.53815 0
M  V30 1289 H 126.605 0.608465 -0.294528 0
M  V30 1290 H 129.159 1.472 -1.43252 0
M  V30 1291 H 127.389 3.83835 -0.469865 0
M  V30 1292 H 129.078 3.96485 -0.869179 0
M  V30 1293 H 129.844 3.5394 -3.3159 0
M  V30 1294 H 125.723 4.05049 -2.20128 0
M  V30 1295 H 129.267 4.08723 -5.65324 0
M  V30 1296 H 125.164 4.59889 -4.5296 0
M  V30 1297 H 125.932 4.85509 -6.58957 0
M  V30 1298 N 128.595 0.856903 1.32268 0
M  V30 1299 C 129.872 0.382583 1.91822 0
M  V30 1300 C 130.252 -1.13407 1.78051 0
M  V30 1301 O 129.6 -1.95673 1.18001 0
M  V30 1302 C 129.81 0.849446 3.38505 0
M  V30 1303 C 131.158 0.867936 4.15634 0
M  V30 1304 O 132.182 0.794232 3.47232 0
M  V30 1305 O 131.041 0.972286 5.37781 0
M  V30 1306 H 128.135 0.112014 0.819379 0
M  V30 1307 H 130.681 0.943952 1.41024 0
M  V30 1308 H 129.453 1.89267 3.42482 0
M  V30 1309 H 129.076 0.265652 3.96712 0
M  V30 1310 N 130.073 -1.45103 0.615059 0
M  V30 1311 C 131.036 -2.29025 -0.0895485 0
M  V30 1312 C 132.036 -1.40174 -0.787906 0
M  V30 1313 O 133.226 -1.62217 -0.634933 0
M  V30 1314 C 130.358 -3.21376 -1.13711 0
M  V30 1315 H 131.551 -2.92807 0.648382 0
M  V30 1316 H 129.104 -1.51749 0.374444 0
M  V30 1317 H 129.839 -2.6241 -1.90556 0
M  V30 1318 H 129.624 -3.86834 -0.640475 0
M  V30 1319 H 131.114 -3.84459 -1.63036 0
M  V30 1320 N 131.551 -0.354651 -1.53558 0
M  V30 1321 C 132.781 0.239167 -2.05211 0
M  V30 1322 C 133.189 1.43879 -1.22863 0
M  V30 1323 O 132.532 1.81857 -0.259565 0
M  V30 1324 C 132.594 0.707251 -3.52474 0
M  V30 1325 C 132.258 -0.374212 -4.55465 0
M  V30 1326 C 133.255 -1.22054 -5.0537 0
M  V30 1327 C 130.94 -0.531323 -4.99482 0
M  V30 1328 C 132.934 -2.20942 -5.97882 0
M  V30 1329 C 130.621 -1.52358 -5.91802 0
M  V30 1330 C 131.619 -2.36108 -6.40892 0
M  V30 1331 O 131.307 -3.33643 -7.31394 0
M  V30 1332 H 131.039 0.0479716 -0.674296 0
M  V30 1333 H 133.593 -0.508121 -1.99016 0
M  V30 1334 H 131.823 1.50596 -3.56171 0
M  V30 1335 H 133.512 1.22285 -3.87042 0
M  V30 1336 H 134.278 -1.1103 -4.7212 0
M  V30 1337 H 130.157 0.110738 -4.60867 0
M  V30 1338 H 133.701 -2.86348 -6.36121 0
M  V30 1339 H 129.598 -1.63434 -6.24467 0
M  V30 1340 H 130.366 -3.29244 -7.4936 0
M  V30 1341 N 133.029 1.57378 -0.0835403 0
M  V30 1342 C 133.959 2.1641 0.87686 0
M  V30 1343 C 134.94 1.09429 1.30228 0
M  V30 1344 O 136.125 1.37516 1.37124 0
M  V30 1345 C 133.255 2.73517 2.14022 0
M  V30 1346 C 132.209 3.85769 1.85381 0
M  V30 1347 C 131.535 4.29529 3.18448 0
M  V30 1348 C 132.835 5.09486 1.14984 0
M  V30 1349 H 134.529 2.96914 0.385059 0
M  V30 1350 H 132.075 1.42823 0.18377 0
M  V30 1351 H 134.028 3.13463 2.81636 0
M  V30 1352 H 132.752 1.90252 2.65465 0
M  V30 1353 H 131.411 3.46345 1.20169 0
M  V30 1354 H 131.059 3.43169 3.67755 0
M  V30 1355 H 130.759 5.05204 3.00071 0
M  V30 1356 H 132.283 4.72099 3.8724 0
M  V30 1357 H 133.697 5.46674 1.72687 0
M  V30 1358 H 132.094 5.90515 1.06826 0
M  V30 1359 H 133.164 4.84724 0.130749 0
M  V30 1360 N 134.507 -0.190092 1.56449 0
M  V30 1361 C 135.47 -1.21925 1.9408 0
M  V30 1362 C 136.47 -1.38176 0.822431 0
M  V30 1363 O 137.66 -1.35903 1.08977 0
M  V30 1364 C 134.792 -2.58773 2.21922 0
M  V30 1365 H 135.985 -0.897464 2.86157 0
M  V30 1366 H 133.538 -0.43181 1.50217 0
M  V30 1367 H 134.273 -2.95998 1.32499 0
M  V30 1368 H 134.058 -2.48348 3.03424 0
M  V30 1369 H 135.548 -3.32978 2.52022 0
M  V30 1370 N 135.985 -1.50799 -0.457987 0
M  V30 1371 C 137.396 -1.55152 -1.0385 0
M  V30 1372 C 137.747 -0.362719 -1.92818 0
M  V30 1373 O 136.872 0.522915 -2.09987 0
M  V30 1374 C 137.467 -2.81173 -1.89017 0
M  V30 1375 C 136.026 -2.88164 -2.42154 0
M  V30 1376 C 135.173 -2.49591 -1.20829 0
M  V30 1377 H 138.124 -1.56874 -0.240068 0
M  V30 1378 H 138.145 -2.63769 -2.74238 0
M  V30 1379 H 137.657 -3.67677 -1.24238 0
M  V30 1380 H 135.758 -2.06042 -3.10447 0
M  V30 1381 H 135.871 -3.91356 -2.76364 0
M  V30 1382 H 134.235 -2.02322 -1.54719 0
M  V30 1383 H 135.018 -3.38418 -0.576927 0
M  V30 1384 N 137.463 0.71206 -1.40597 0
M  V30 1385 C 138.411 1.84746 -1.41321 0
M  V30 1386 C 139.405 1.66842 -0.293268 0
M  V30 1387 O 140.611 1.73904 -0.464481 0
M  V30 1388 H 136.986 0.608522 -0.441819 0
M  V30 1389 H 138.957 1.81252 -2.37045 0
M  V30 1390 C 137.706 3.22638 -1.29614 0
M  V30 1391 H 137.029 3.37023 -2.15071 0
M  V30 1392 H 138.469 4.02209 -1.3418 0
M  V30 1393 C 136.928 3.36899 -0.00673121 0
M  V30 1394 O 137.458 3.90186 0.954859 0
M  V30 1395 N 135.664 2.9053 0.0639327 0
M  V30 1396 H 135.211 2.47353 -0.719311 0
M  V30 1397 H 135.169 3.0045 0.926118 0
M  V30 1398 N 138.941 1.26152 0.944643 0
M  V30 1399 C 139.889 1.07215 2.06417 0
M  V30 1400 C 140.883 9.2007e-05 1.694 0
M  V30 1401 O 142.089 0.1565 1.79318 0
M  V30 1402 H 138.464 0.329837 0.675805 0
M  V30 1403 H 140.435 2.02099 2.19541 0
M  V30 1404 C 139.184 0.718197 3.40202 0
M  V30 1405 H 138.507 1.53497 3.69159 0
M  V30 1406 H 139.947 0.625459 4.19361 0
M  V30 1407 C 138.406 -0.576435 3.31932 0
M  V30 1408 O 138.936 -1.61574 3.67773 0
M  V30 1409 N 137.142 -0.565781 2.85039 0
M  V30 1410 H 136.689 0.280367 2.5607 0
M  V30 1411 H 136.647 -1.43213 2.79888 0
M  V30 1412 N 140.419 -1.14872 1.07899 0
M  V30 1413 C 141.349 -2.2193 0.725887 0
M  V30 1414 C 142.33 -1.67622 -0.28927 0
M  V30 1415 O 143.515 -1.93533 -0.160787 0
M  V30 1416 C 140.645 -3.47061 0.128856 0
M  V30 1417 C 139.599 -4.14363 1.07178 0
M  V30 1418 C 138.925 -5.33636 0.337229 0
M  V30 1419 C 140.225 -4.63492 2.40775 0
M  V30 1420 H 141.919 -2.51724 1.62097 0
M  V30 1421 H 139.465 -1.20991 0.780838 0
M  V30 1422 H 141.418 -4.21199 -0.130147 0
M  V30 1423 H 140.142 -3.16617 -0.80134 0
M  V30 1424 H 138.801 -3.42173 1.3158 0
M  V30 1425 H 138.449 -4.99449 -0.596606 0
M  V30 1426 H 138.149 -5.79609 0.965788 0
M  V30 1427 H 139.673 -6.10539 0.0861567 0
M  V30 1428 H 141.087 -5.2913 2.20669 0
M  V30 1429 H 139.484 -5.20148 2.99276 0
M  V30 1430 H 140.554 -3.78834 3.02676 0
M  V30 1431 N 141.898 -0.863906 -1.31812 0
M  V30 1432 C 142.845 -0.313303 -2.28664 0
M  V30 1433 C 143.815 0.584868 -1.55462 0
M  V30 1434 O 145 0.517805 -1.83639 0
M  V30 1435 C 142.14 0.48441 -3.41683 0
M  V30 1436 C 141.253 -0.440594 -4.29747 0
M  V30 1437 C 140.388 0.370652 -5.29905 0
M  V30 1438 C 139.427 -0.551164 -6.09613 0
M  V30 1439 N 138.564 0.223462 -7.01744 0
M  V30 1440 H 143.404 -1.14444 -2.75148 0
M  V30 1441 H 140.941 -0.575769 -1.35364 0
M  V30 1442 H 142.899 0.962627 -4.05943 0
M  V30 1443 H 141.529 1.28029 -2.96325 0
M  V30 1444 H 140.581 -1.03724 -3.65986 0
M  V30 1445 H 141.893 -1.14767 -4.85417 0
M  V30 1446 H 141.047 0.911638 -5.99812 0
M  V30 1447 H 139.786 1.11105 -4.74876 0
M  V30 1448 H 138.791 -1.10396 -5.38603 0
M  V30 1449 H 140.016 -1.29032 -6.66729 0
M  V30 1450 H 137.962 0.946787 -6.49132 0
M  V30 1451 H 137.879 -0.424399 -7.54808 0
M  V30 1452 H 139.147 0.745876 -7.75923 0
M  V30 1453 N 143.376 1.44774 -0.622745 0
M  V30 1454 C 144.787 1.85546 -0.207226 0
M  V30 1455 C 145.138 1.52093 1.23944 0
M  V30 1456 O 144.263 0.95492 1.94191 0
M  V30 1457 C 144.858 3.36781 -0.369313 0
M  V30 1458 C 143.417 3.76399 -0.00836847 0
M  V30 1459 C 142.564 2.68664 -0.686651 0
M  V30 1460 H 145.515 1.3536 -0.828454 0
M  V30 1461 H 145.536 3.78453 0.394162 0
M  V30 1462 H 145.048 3.61098 -1.42231 0
M  V30 1463 H 143.149 3.57698 1.04322 0
M  V30 1464 H 143.262 4.7732 -0.412584 0
M  V30 1465 H 141.626 2.54404 -0.122777 0
M  V30 1466 H 142.409 2.95815 -1.74208 0
M  V30 1467 N 144.854 0.36279 1.53368 0
M  V30 1468 C 146.1 -0.228113 2.01513 0
M  V30 1469 C 146.433 -1.48648 1.2497 0
M  V30 1470 O 145.708 -1.91459 0.342616 0
M  V30 1471 C 145.991 -0.522884 3.56284 0
M  V30 1472 C 145.844 0.74892 4.43521 0
M  V30 1473 C 147.163 -1.32461 4.19693 0
M  V30 1474 H 144.282 -0.0814343 0.732487 0
M  V30 1475 H 146.924 0.48713 1.83649 0
M  V30 1476 H 145.074 -1.1322 3.71636 0
M  V30 1477 H 146.746 1.38648 4.39971 0
M  V30 1478 H 144.989 1.36986 4.11603 0
M  V30 1479 H 145.66 0.497667 5.49752 0
M  V30 1480 H 148.136 -0.809203 4.08156 0
M  V30 1481 H 147.012 -1.49961 5.28018 0
M  V30 1482 H 147.273 -2.33232 3.75573 0
M  V30 1483 N 146.332 -1.57332 0.0918853 0
M  V30 1484 C 147.578 -1.94524 -0.573425 0
M  V30 1485 C 147.911 -0.973578 -1.68033 0
M  V30 1486 O 147.186 -0.00609226 -1.94499 0
M  V30 1487 C 147.469 -3.41858 -1.13161 0
M  V30 1488 C 147.322 -4.4979 -0.0299747 0
M  V30 1489 C 148.641 -3.90435 -2.03098 0
M  V30 1490 H 145.76 -0.70734 -0.206975 0
M  V30 1491 H 148.402 -1.89309 0.161942 0
M  V30 1492 H 146.552 -3.46433 -1.7583 0
M  V30 1493 H 148.224 -4.57327 0.604112 0
M  V30 1494 H 146.467 -4.291 0.636833 0
M  V30 1495 H 147.138 -5.50069 -0.461287 0
M  V30 1496 H 149.614 -3.87992 -1.50338 0
M  V30 1497 H 148.49 -4.94097 -2.39081 0
M  V30 1498 H 148.751 -3.29541 -2.94712 0
M  V30 1499 N 147.81 0.181792 -1.56548 0
M  V30 1500 C 148.773 1.20894 -1.94724 0
M  V30 1501 C 149.773 1.37738 -0.829747 0
M  V30 1502 O 150.963 1.35323 -1.09697 0
M  V30 1503 C 148.095 2.57593 -2.23291 0
M  V30 1504 H 149.288 0.882275 -2.86629 0
M  V30 1505 H 146.841 0.423838 -1.50444 0
M  V30 1506 H 147.576 2.95291 -1.34067 0
M  V30 1507 H 147.361 2.46735 -3.04736 0
M  V30 1508 H 148.851 3.31637 -2.53785 0
M  V30 1509 N 149.288 1.51039 0.449983 0
M  V30 1510 C 150.198 1.74261 1.57067 0
M  V30 1511 C 151.214 0.626363 1.62335 0
M  V30 1512 O 152.39 0.907162 1.79812 0
M  V30 1513 C 149.455 1.85114 2.93144 0
M  V30 1514 C 148.516 3.0893 2.98095 0
M  V30 1515 C 147.749 3.19256 4.27681 0
M  V30 1516 O 147.972 2.35835 5.19363 0
M  V30 1517 O 146.906 4.12144 4.38658 0
M  V30 1518 H 150.732 2.69303 1.40391 0
M  V30 1519 H 148.317 1.35389 0.631688 0
M  V30 1520 H 150.199 1.94311 3.73926 0
M  V30 1521 H 148.874 0.932588 3.09975 0
M  V30 1522 H 147.781 3.0522 2.16314 0
M  V30 1523 H 149.114 4.00433 2.86206 0
M  V30 1524 N 150.766 -0.704594 1.40972 0
M  V30 1525 C 152.013 -1.46458 1.39844 0
M  V30 1526 C 152.341 -1.94499 0.00447594 0
M  V30 1527 O 151.596 -1.69275 -0.982057 0
M  V30 1528 C 151.895 -2.698 2.34399 0
M  V30 1529 C 151.561 -2.40464 3.81429 0
M  V30 1530 C 150.223 -2.32174 4.21484 0
M  V30 1531 C 152.575 -2.16086 4.74296 0
M  V30 1532 C 149.903 -1.97589 5.52427 0
M  V30 1533 C 152.255 -1.83011 6.05549 0
M  V30 1534 C 150.919 -1.7321 6.44635 0
M  V30 1535 H 150.189 -0.535927 0.511725 0
M  V30 1536 H 152.836 -0.806124 1.73706 0
M  V30 1537 H 151.141 -3.40536 1.93759 0
M  V30 1538 H 152.838 -3.27919 2.30804 0
M  V30 1539 H 149.428 -2.47808 3.49699 0
M  V30 1540 H 153.612 -2.2144 4.4416 0
M  V30 1541 H 148.868 -1.88547 5.81601 0
M  V30 1542 H 153.042 -1.63164 6.77016 0
M  V30 1543 H 150.669 -1.46179 7.46013 0
M  V30 1544 N 152.244 -1.26651 -0.937939 0
M  V30 1545 C 153.474 -1.15006 -1.71631 0
M  V30 1546 C 153.882 0.297026 -1.86854 0
M  V30 1547 O 153.225 1.21493 -1.37786 0
M  V30 1548 C 153.287 -1.74984 -3.14039 0
M  V30 1549 C 152.951 -3.24103 -3.2219 0
M  V30 1550 C 153.948 -4.20877 -3.05219 0
M  V30 1551 C 151.633 -3.64625 -3.45476 0
M  V30 1552 C 153.627 -5.56151 -3.11408 0
M  V30 1553 C 151.314 -5.00032 -3.513 0
M  V30 1554 C 152.312 -5.95604 -3.34282 0
M  V30 1555 O 152 -7.28545 -3.3982 0
M  V30 1556 H 151.732 -0.401183 -0.544085 0
M  V30 1557 H 154.286 -1.67832 -1.18413 0
M  V30 1558 H 152.516 -1.16624 -3.68695 0
M  V30 1559 H 154.205 -1.58199 -3.73802 0
M  V30 1560 H 154.971 -3.90908 -2.87081 0
M  V30 1561 H 150.85 -2.90718 -3.57777 0
M  V30 1562 H 154.394 -6.30727 -2.98043 0
M  V30 1563 H 150.291 -5.29659 -3.68959 0
M  V30 1564 H 151.059 -7.3686 -3.56343 0
M  V30 1565 N 153.722 1.14298 -1.08507 0
M  V30 1566 C 154.97 1.84993 -0.813763 0
M  V30 1567 C 155.291 1.83405 0.662393 0
M  V30 1568 O 154.561 1.28319 1.48024 0
M  V30 1569 H 153.141 0.684966 -0.298045 0
M  V30 1570 H 155.803 1.385 -1.37126 0
M  V30 1571 H 154.899 2.89788 -1.15884 0
M  V30 1572 N 155.201 0.870884 1.31352 0
M  V30 1573 C 156.426 0.495957 2.01383 0
M  V30 1574 C 156.851 -0.904324 1.64935 0
M  V30 1575 O 156.209 -1.59687 0.858466 0
M  V30 1576 C 156.257 0.661433 3.54482 0
M  V30 1577 O 155.361 -0.298851 4.11316 0
M  V30 1578 H 154.702 0.197158 0.634054 0
M  V30 1579 H 157.232 1.17455 1.67527 0
M  V30 1580 H 157.242 0.555072 4.04207 0
M  V30 1581 H 155.917 1.68246 3.8035 0
M  V30 1582 H 154.494 -0.147368 3.72609 0
M  V30 1583 N 156.679 -1.44442 0.630414 0
M  V30 1584 C 157.626 -2.30678 -0.0749355 0
M  V30 1585 C 158.596 -1.4344 -0.837502 0
M  V30 1586 O 159.781 -1.72343 -0.818684 0
M  V30 1587 C 156.921 -3.28706 -1.05103 0
M  V30 1588 C 156.034 -4.31046 -0.286954 0
M  V30 1589 C 155.169 -5.16167 -1.2548 0
M  V30 1590 C 154.208 -6.10216 -0.479843 0
M  V30 1591 N 153.345 -6.88039 -1.39811 0
M  V30 1592 H 158.185 -2.90454 0.666386 0
M  V30 1593 H 155.722 -1.43107 0.340404 0
M  V30 1594 H 157.68 -3.84027 -1.63031 0
M  V30 1595 H 156.31 -2.70632 -1.75949 0
M  V30 1596 H 155.362 -3.78203 0.408243 0
M  V30 1597 H 156.674 -4.97794 0.316657 0
M  V30 1598 H 155.828 -5.76002 -1.90544 0
M  V30 1599 H 154.567 -4.49491 -1.89233 0
M  V30 1600 H 153.572 -5.49491 0.184295 0
M  V30 1601 H 154.797 -6.78928 0.152965 0
M  V30 1602 H 152.743 -6.24032 -2.02287 0
M  V30 1603 H 152.66 -7.51223 -0.848508 0
M  V30 1604 H 153.928 -7.52397 -2.03762 0
M  V30 1605 N 158.157 -0.370918 -1.53173 0
M  V30 1606 C 159.067 0.480823 -2.2962 0
M  V30 1607 C 160.083 1.08789 -1.35798 0
M  V30 1608 O 161.259 1.09768 -1.68858 0
M  V30 1609 C 158.324 1.60227 -3.07454 0
M  V30 1610 C 157.385 1.0222 -4.16953 0
M  V30 1611 C 156.618 2.0902 -4.91066 0
M  V30 1612 O 156.841 3.30222 -4.65091 0
M  V30 1613 O 155.775 1.71778 -5.76867 0
M  V30 1614 H 159.601 -0.141421 -3.03371 0
M  V30 1615 H 157.186 -0.135146 -1.48787 0
M  V30 1616 H 159.068 2.25417 -3.56041 0
M  V30 1617 H 157.743 2.20982 -2.36535 0
M  V30 1618 H 156.65 0.334064 -3.72605 0
M  V30 1619 H 157.983 0.459131 -4.90054 0
M  V30 1620 N 159.635 1.57281 -0.100228 0
M  V30 1621 C 160.912 1.86014 0.604812 0
M  V30 1622 C 161.292 0.998025 1.86018 0
M  V30 1623 O 160.64 0.0718184 2.28387 0
M  V30 1624 C 160.85 3.36784 0.915278 0
M  V30 1625 C 162.198 4.04957 1.27651 0
M  V30 1626 O 163.222 3.41695 1.00613 0
M  V30 1627 O 162.081 5.16593 1.7831 0
M  V30 1628 H 159.175 0.76942 0.303185 0
M  V30 1629 H 161.721 1.69176 -0.133313 0
M  V30 1630 H 160.493 3.91292 0.0248896 0
M  V30 1631 H 160.116 3.58987 1.70921 0
M  V30 1632 N 161.113 -0.173488 1.56642 0
M  V30 1633 C 162.524 -0.736155 1.71574 0
M  V30 1634 C 162.875 -1.82888 0.710389 0
M  V30 1635 O 162 -2.16017 -0.1287 0
M  V30 1636 C 162.595 -1.34211 3.11083 0
M  V30 1637 C 161.154 -1.85162 3.27707 0
M  V30 1638 C 160.301 -0.729765 2.67525 0
M  V30 1639 H 163.252 0.0518786 1.58615 0
M  V30 1640 H 163.273 -2.21178 3.09613 0
M  V30 1641 H 162.785 -0.546579 3.84232 0
M  V30 1642 H 160.886 -2.67366 2.59512 0
M  V30 1643 H 160.999 -1.99855 4.35425 0
M  V30 1644 H 159.363 -1.14965 2.27278 0
M  V30 1645 H 160.146 0.0538806 3.43258 0
M  V30 1646 N 162.591 -1.51276 -0.441967 0
M  V30 1647 C 163.523 -1.68444 -1.55433 0
M  V30 1648 C 164.536 -0.565187 -1.52674 0
M  V30 1649 O 165.725 -0.839356 -1.57534 0
M  V30 1650 C 162.825 -1.67966 -2.94348 0
M  V30 1651 C 161.998 -2.964 -3.21661 0
M  V30 1652 C 161.057 -2.88171 -4.40277 0
M  V30 1653 O 160.083 -3.62119 -4.39157 0
M  V30 1654 N 161.285 -2.03706 -5.43584 0
M  V30 1655 H 164.05 -2.644 -1.41112 0
M  V30 1656 H 161.611 -1.49104 -0.630838 0
M  V30 1657 H 163.603 -1.60035 -3.71713 0
M  V30 1658 H 162.173 -0.796225 -3.0229 0
M  V30 1659 H 161.393 -3.18234 -2.32638 0
M  V30 1660 H 162.681 -3.81427 -3.36736 0
M  V30 1661 H 162.079 -1.42995 -5.47329 0
M  V30 1662 H 160.636 -2.01658 -6.1982 0
M  V30 1663 N 164.069 0.697108 -1.41344 0
M  V30 1664 C 165.297 1.48593 -1.43972 0
M  V30 1665 C 165.712 1.88747 -0.0445612 0
M  V30 1666 O 165.069 1.56682 0.935785 0
M  V30 1667 C 165.12 2.74946 -2.34706 0
M  V30 1668 O 164.841 2.36484 -3.68791 0
M  V30 1669 C 166.342 3.687 -2.46121 0
M  V30 1670 H 163.562 0.457964 -0.490418 0
M  V30 1671 H 166.106 0.858429 -1.8561 0
M  V30 1672 H 164.261 3.33937 -1.9638 0
M  V30 1673 H 164.675 3.17918 -4.17167 0
M  V30 1674 H 166.149 4.54145 -3.13777 0
M  V30 1675 H 166.626 4.13081 -1.49199 0
M  V30 1676 H 167.232 3.15613 -2.85076 0
M  V30 1677 N 165.547 1.27147 0.931209 0
M  V30 1678 C 166.794 1.13278 1.67852 0
M  V30 1679 C 167.122 -0.32204 1.91815 0
M  V30 1680 O 166.377 -1.25224 1.50391 0
M  V30 1681 C 166.676 1.8579 3.05314 0
M  V30 1682 C 166.342 3.35657 3.01073 0
M  V30 1683 C 165.004 3.76536 2.99623 0
M  V30 1684 C 167.356 4.31299 2.92627 0
M  V30 1685 C 164.684 5.11426 2.87506 0
M  V30 1686 C 167.036 5.66242 2.82051 0
M  V30 1687 C 165.7 6.06418 2.7895 0
M  V30 1688 H 164.97 0.414515 0.614214 0
M  V30 1689 H 167.617 1.57712 1.08624 0
M  V30 1690 H 165.922 1.33854 3.68226 0
M  V30 1691 H 167.619 1.72491 3.62005 0
M  V30 1692 H 164.209 3.03146 3.02986 0
M  V30 1693 H 168.393 4.00692 2.92848 0
M  V30 1694 H 163.649 5.41705 2.83489 0
M  V30 1695 H 167.823 6.40026 2.74481 0
M  V30 1696 H 165.45 7.10895 2.69318 0
M  V30 1697 N 167.025 -1.13721 1.09112 0
M  V30 1698 C 168.255 -1.88499 0.845671 0
M  V30 1699 C 168.663 -1.79218 -0.606432 0
M  V30 1700 O 168.006 -1.1544 -1.42896 0
M  V30 1701 C 168.068 -3.38954 1.19793 0
M  V30 1702 C 167.732 -3.72018 2.65428 0
M  V30 1703 C 168.729 -3.7153 3.63677 0
M  V30 1704 C 166.414 -4.01775 3.01467 0
M  V30 1705 C 168.408 -4.00336 4.95994 0
M  V30 1706 C 166.095 -4.30243 4.33975 0
M  V30 1707 C 167.093 -4.29508 5.31048 0
M  V30 1708 O 166.781 -4.5728 6.61173 0
M  V30 1709 H 166.513 -0.603702 0.304171 0
M  V30 1710 H 169.067 -1.44903 1.45576 0
M  V30 1711 H 167.297 -3.83039 0.530871 0
M  V30 1712 H 168.986 -3.95052 0.932146 0
M  V30 1713 H 169.752 -3.4862 3.37179 0
M  V30 1714 H 165.631 -4.01496 2.26544 0
M  V30 1715 H 169.175 -3.99678 5.71755 0
M  V30 1716 H 165.072 -4.52625 4.60219 0
M  V30 1717 H 165.84 -4.74964 6.66597 0
M  V30 1718 N 168.503 -0.877838 -1.30888 0
M  V30 1719 C 169.733 -0.506678 -2.00291 0
M  V30 1720 C 170.141 0.907449 -1.66018 0
M  V30 1721 O 169.484 1.60719 -0.88967 0
M  V30 1722 C 169.546 -0.59323 -3.54572 0
M  V30 1723 C 169.21 -1.97038 -4.12341 0
M  V30 1724 C 170.207 -2.93889 -4.28865 0
M  V30 1725 C 167.892 -2.27383 -4.47886 0
M  V30 1726 C 169.886 -4.19224 -4.80136 0
M  V30 1727 C 167.573 -3.52965 -4.98857 0
M  V30 1728 C 168.571 -4.48701 -5.14934 0
M  V30 1729 O 168.259 -5.72056 -5.64808 0
M  V30 1730 H 167.991 -0.1951 -0.647234 0
M  V30 1731 H 170.545 -1.18301 -1.6791 0
M  V30 1732 H 168.775 0.140057 -3.86446 0
M  V30 1733 H 170.464 -0.234372 -4.05223 0
M  V30 1734 H 171.23 -2.71756 -4.01714 0
M  V30 1735 H 167.109 -1.53639 -4.34645 0
M  V30 1736 H 170.653 -4.93956 -4.92599 0
M  V30 1737 H 166.55 -3.74939 -5.25443 0
M  V30 1738 H 167.318 -5.74337 -5.83163 0
M  V30 1739 N 169.982 1.44106 -0.638065 0
M  V30 1740 C 170.945 2.29138 0.0531013 0
M  V30 1741 C 171.945 1.41409 0.765506 0
M  V30 1742 O 173.135 1.63206 0.609046 0
M  V30 1743 C 170.267 3.23144 1.08584 0
M  V30 1744 H 171.46 2.91739 -0.694883 0
M  V30 1745 H 169.013 1.51134 -0.398538 0
M  V30 1746 H 169.748 2.65408 1.86357 0
M  V30 1747 H 169.533 3.87804 0.578852 0
M  V30 1748 H 171.023 3.87004 1.56899 0
M  V30 1749 N 171.46 0.379036 1.52974 0
M  V30 1750 C 172.706 -0.206727 2.01744 0
M  V30 1751 C 173.039 -1.47314 1.26539 0
M  V30 1752 O 172.314 -1.91084 0.362903 0
M  V30 1753 C 172.597 -0.485066 3.56818 0
M  V30 1754 C 172.45 0.795919 4.42702 0
M  V30 1755 C 173.769 -1.28003 4.21074 0
M  V30 1756 H 170.888 -0.0736607 0.73331 0
M  V30 1757 H 173.53 0.506581 1.83122 0
M  V30 1758 H 171.68 -1.09272 3.72816 0
M  V30 1759 H 173.352 1.43307 4.38476 0
M  V30 1760 H 171.595 1.41344 4.10127 0
M  V30 1761 H 172.266 0.555947 5.49193 0
M  V30 1762 H 174.742 -0.765867 4.08991 0
M  V30 1763 H 173.618 -1.44352 5.29579 0
M  V30 1764 H 173.879 -2.29236 3.78026 0
M  V30 1765 N 172.938 -1.57226 0.108567 0
M  V30 1766 C 173.901 -2.13602 -0.831082 0
M  V30 1767 C 174.901 -1.06841 -1.20173 0
M  V30 1768 O 176.091 -1.32666 -1.12895 0
M  V30 1769 C 173.223 -2.66769 -2.12243 0
M  V30 1770 H 174.416 -2.97951 -0.341317 0
M  V30 1771 H 171.969 -1.55667 -0.14057 0
M  V30 1772 H 172.704 -1.85977 -2.65675 0
M  V30 1773 H 172.489 -3.44839 -1.86625 0
M  V30 1774 H 173.979 -3.10332 -2.79435 0
M  V30 1775 N 174.416 0.165178 -1.56732 0
M  V30 1776 C 175.662 0.882112 -1.82611 0
M  V30 1777 C 175.995 1.81628 -0.687378 0
M  V30 1778 O 175.27 1.92009 0.310267 0
M  V30 1779 C 175.553 1.67245 -3.18906 0
M  V30 1780 C 175.406 0.760987 -4.43316 0
M  V30 1781 C 176.725 2.63884 -3.52212 0
M  V30 1782 H 173.844 0.319242 -0.664269 0
M  V30 1783 H 176.486 0.148052 -1.89422 0
M  V30 1784 H 174.636 2.29824 -3.1323 0
M  V30 1785 H 176.308 0.147596 -4.61064 0
M  V30 1786 H 174.551 0.0694102 -4.33744 0
M  V30 1787 H 175.222 1.34962 -5.35247 0
M  V30 1788 H 177.698 2.11429 -3.58381 0
M  V30 1789 H 176.574 3.16245 -4.48643 0
M  V30 1790 H 176.835 3.44377 -2.77231 0
M  V30 1791 N 175.894 1.51508 0.433938 0
M  V30 1792 C 177.14 1.64588 1.18484 0
M  V30 1793 C 177.473 0.362666 1.90784 0
M  V30 1794 O 176.748 -0.637892 1.83742 0
M  V30 1795 C 177.031 2.85149 2.19913 0
M  V30 1796 C 176.884 4.23456 1.51674 0
M  V30 1797 C 178.203 3.01227 3.20858 0
M  V30 1798 H 175.322 0.598994 0.429389 0
M  V30 1799 H 177.964 1.84002 0.473647 0
M  V30 1800 H 176.114 2.68729 2.80566 0
M  V30 1801 H 177.786 4.51552 0.943322 0
M  V30 1802 H 176.029 4.25998 0.819035 0
M  V30 1803 H 176.7 5.03812 2.2556 0
M  V30 1804 H 179.176 3.16382 2.70263 0
M  V30 1805 H 178.052 3.87141 3.89118 0
M  V30 1806 H 178.313 2.13447 3.8716 0
M  V30 1807 N 177.372 -0.689602 1.41712 0
M  V30 1808 C 178.319 -1.80345 1.44029 0
M  V30 1809 C 179.289 -1.63478 0.293948 0
M  V30 1810 O 180.474 -1.84244 0.495869 0
M  V30 1811 C 177.614 -3.18272 1.33405 0
M  V30 1812 C 176.727 -3.46529 2.57956 0
M  V30 1813 C 175.862 -4.74103 2.39582 0
M  V30 1814 C 174.901 -4.95347 3.5958 0
M  V30 1815 N 174.038 -6.14151 3.40239 0
M  V30 1816 H 178.878 -1.77698 2.39222 0
M  V30 1817 H 176.415 -0.867688 1.18784 0
M  V30 1818 H 178.373 -3.97956 1.25246 0
M  V30 1819 H 177.003 -3.2008 0.418164 0
M  V30 1820 H 176.055 -2.61207 2.76542 0
M  V30 1821 H 177.367 -3.58126 3.47199 0
M  V30 1822 H 176.521 -5.61853 2.28924 0
M  V30 1823 H 175.26 -4.64763 1.47805 0
M  V30 1824 H 174.265 -4.06044 3.70686 0
M  V30 1825 H 175.49 -5.06542 4.52318 0
M  V30 1826 H 173.436 -6.06013 2.51167 0
M  V30 1827 H 173.353 -6.26543 4.23061 0
M  V30 1828 H 174.621 -7.04619 3.33365 0
M  V30 1829 N 178.85 -1.27639 -0.924453 0
M  V30 1830 C 179.797 -1.10644 -2.0255 0
M  V30 1831 C 180.767 -0.00658438 -1.66099 0
M  V30 1832 O 181.952 -0.16952 -1.90045 0
M  V30 1833 C 179.092 -0.76309 -3.36557 0
M  V30 1834 C 178.205 -1.94091 -3.85944 0
M  V30 1835 C 177.34 -1.53914 -5.08413 0
M  V30 1836 C 176.379 -2.68425 -5.50104 0
M  V30 1837 N 175.516 -2.28815 -6.63768 0
M  V30 1838 H 180.356 -2.04858 -2.16419 0
M  V30 1839 H 177.893 -1.01974 -1.06017 0
M  V30 1840 H 179.851 -0.544822 -4.13627 0
M  V30 1841 H 178.481 0.142102 -3.22487 0
M  V30 1842 H 177.533 -2.27162 -3.05125 0
M  V30 1843 H 178.845 -2.7998 -4.12811 0
M  V30 1844 H 177.999 -1.28231 -5.92994 0
M  V30 1845 H 176.738 -0.651391 -4.8333 0
M  V30 1846 H 175.743 -2.94819 -4.64071 0
M  V30 1847 H 176.968 -3.57826 -5.7718 0
M  V30 1848 H 174.914 -1.42495 -6.40337 0
M  V30 1849 H 174.831 -3.08242 -6.90306 0
M  V30 1850 H 176.099 -2.06387 -7.51681 0
M  V30 1851 N 180.328 1.1314 -1.09713 0
M  V30 1852 C 181.605 1.80762 -0.747302 0
M  V30 1853 C 181.985 1.96663 0.767265 0
M  V30 1854 O 181.333 1.53706 1.69076 0
M  V30 1855 C 181.543 3.15606 -1.48975 0
M  V30 1856 C 182.891 3.90914 -1.65746 0
M  V30 1857 O 183.915 3.25239 -1.45251 0
M  V30 1858 O 182.774 5.08718 -1.9967 0
M  V30 1859 H 179.868 0.782103 -0.268782 0
M  V30 1860 H 182.414 1.20041 -1.19951 0
M  V30 1861 H 181.186 2.99278 -2.52088 0
M  V30 1862 H 180.809 3.84029 -1.02991 0
M  V30 1863 N 181.806 0.884767 1.30421 0
M  V30 1864 C 183.031 0.517288 2.00845 0
M  V30 1865 C 183.456 -0.886779 1.65885 0
M  V30 1866 O 182.814 -1.58768 0.875354 0
M  V30 1867 C 182.862 0.698994 3.5376 0
M  V30 1868 O 181.966 -0.255208 4.1161 0
M  V30 1869 H 181.307 0.203872 0.631927 0
M  V30 1870 H 183.837 1.19225 1.66272 0
M  V30 1871 H 183.847 0.597912 4.03595 0
M  V30 1872 H 182.522 1.72271 3.78544 0
M  V30 1873 H 181.099 -0.10784 3.72744 0
M  V30 1874 N 183.284 -1.43765 0.645699 0
M  V30 1875 C 184.532 -2.01499 0.155731 0
M  V30 1876 C 184.853 -1.51151 -1.232 0
M  V30 1877 O 184.123 -0.721044 -1.82148 0
M  V30 1878 H 182.703 -0.745003 0.0545817 0
M  V30 1879 H 185.365 -1.76075 0.835677 0
M  V30 1880 H 184.461 -3.1181 0.134577 0
M  V30 1881 N 184.763 -0.387143 -1.52771 0
M  V30 1882 C 186.01 0.195735 -2.01552 0
M  V30 1883 C 186.338 1.46995 -1.27369 0
M  V30 1884 O 185.593 1.92325 -0.361879 0
M  V30 1885 C 185.892 0.512209 -3.53711 0
M  V30 1886 C 185.558 -0.670202 -4.45891 0
M  V30 1887 C 184.22 -0.994586 -4.70809 0
M  V30 1888 C 186.572 -1.46134 -5.00294 0
M  V30 1889 C 183.9 -2.11169 -5.4738 0
M  V30 1890 C 186.252 -2.56903 -5.78086 0
M  V30 1891 C 184.916 -2.89852 -6.01284 0
M  V30 1892 H 184.186 0.0716246 -0.73753 0
M  V30 1893 H 186.833 -0.524046 -1.8419 0
M  V30 1894 H 185.138 1.31329 -3.69134 0
M  V30 1895 H 186.835 0.975804 -3.88946 0
M  V30 1896 H 183.425 -0.407366 -4.2666 0
M  V30 1897 H 187.609 -1.22397 -4.80971 0
M  V30 1898 H 182.865 -2.3707 -5.63567 0
M  V30 1899 H 187.039 -3.18608 -6.19243 0
M  V30 1900 H 184.666 -3.76533 -6.60399 0
M  V30 1901 N 186.241 1.57166 -0.116904 0
M  V30 1902 C 187.173 2.12271 0.864507 0
M  V30 1903 C 188.186 1.06494 1.23138 0
M  V30 1904 O 189.375 1.33873 1.18069 0
M  V30 1905 C 186.475 2.60564 2.16702 0
M  V30 1906 C 185.648 3.90416 1.97216 0
M  V30 1907 C 184.707 4.24329 3.11178 0
M  V30 1908 O 183.733 4.93182 2.84184 0
M  V30 1909 N 184.935 3.8148 4.37554 0
M  V30 1910 H 187.7 2.97102 0.393726 0
M  V30 1911 H 185.261 1.61759 0.0675805 0
M  V30 1912 H 187.253 2.80282 2.91932 0
M  V30 1913 H 185.823 1.80623 2.55135 0
M  V30 1914 H 185.043 3.79627 1.06192 0
M  V30 1915 H 186.331 4.75327 1.81499 0
M  V30 1916 H 185.729 3.25943 4.62361 0
M  V30 1917 H 184.286 4.06311 5.09661 0
M  V30 1918 N 187.719 -0.156864 1.56817 0
M  V30 1919 C 188.652 -1.22316 1.9265 0
M  V30 1920 C 189.63 -1.42059 0.791076 0
M  V30 1921 O 190.814 -1.56831 1.04576 0
M  V30 1922 C 187.941 -2.58375 2.18998 0
M  V30 1923 C 186.987 -2.55284 3.41661 0
M  V30 1924 S 187.82 -2.02946 4.95553 0
M  V30 1925 C 188.976 -3.40753 5.25013 0
M  V30 1926 H 189.209 -0.917403 2.82791 0
M  V30 1927 H 186.742 -0.362059 1.50095 0
M  V30 1928 H 188.7 -3.36677 2.34859 0
M  V30 1929 H 187.361 -2.86145 1.29538 0
M  V30 1930 H 186.554 -3.55418 3.57343 0
M  V30 1931 H 186.156 -1.85086 3.24991 0
M  V30 1932 H 188.448 -4.36819 5.17876 0
M  V30 1933 H 189.391 -3.29933 6.26538 0
M  V30 1934 H 189.799 -3.37433 4.52548 0
M  V30 1935 N 189.197 -1.51736 -0.425897 0
M  V30 1936 C 190.145 -1.74464 -1.53834 0
M  V30 1937 C 191.139 -0.611241 -1.57988 0
M  V30 1938 O 192.345 -0.792899 -1.61596 0
M  V30 1939 H 188.72 -0.551437 -0.511293 0
M  V30 1940 H 190.691 -2.67694 -1.31843 0
M  V30 1941 C 189.44 -1.8972 -2.91379 0
M  V30 1942 H 188.763 -2.76344 -2.88919 0
M  V30 1943 H 190.203 -2.09629 -3.68553 0
M  V30 1944 C 188.662 -0.65992 -3.30374 0
M  V30 1945 O 189.192 0.180083 -4.01296 0
M  V30 1946 N 187.398 -0.500677 -2.86254 0
M  V30 1947 H 186.945 -1.18532 -2.28709 0
M  V30 1948 H 186.903 0.325903 -3.12706 0
M  V30 1949 N 190.675 0.682077 -1.42076 0
M  V30 1950 C 191.607 1.80755 -1.40926 0
M  V30 1951 C 192.62 1.59833 -0.309398 0
M  V30 1952 O 193.809 1.69087 -0.572014 0
M  V30 1953 C 190.909 3.17744 -1.17865 0
M  V30 1954 C 190.082 3.65578 -2.40149 0
M  V30 1955 C 189.141 4.81277 -2.12742 0
M  V30 1956 O 188.167 4.92197 -2.85887 0
M  V30 1957 N 189.369 5.69474 -1.12602 0
M  V30 1958 H 192.134 1.82229 -2.37935 0
M  V30 1959 H 189.695 0.864903 -1.36861 0
M  V30 1960 H 191.687 3.9279 -0.9746 0
M  V30 1961 H 190.257 3.11214 -0.294068 0
M  V30 1962 H 189.477 2.81291 -2.76169 0
M  V30 1963 H 190.765 3.94278 -3.21593 0
M  V30 1964 H 190.163 5.63297 -0.520899 0
M  V30 1965 H 188.72 6.44363 -0.981842 0
M  V30 1966 N 192.153 1.28127 0.917671 0
M  V30 1967 C 193.083 1.14248 2.03641 0
M  V30 1968 C 194.064 0.0412748 1.7005 0
M  V30 1969 O 195.249 0.217566 1.92977 0
M  V30 1970 C 192.379 0.799431 3.37974 0
M  V30 1971 C 191.333 1.85497 3.85713 0
M  V30 1972 C 190.659 1.36565 5.16966 0
M  V30 1973 C 191.959 3.26085 4.08002 0
M  V30 1974 H 193.653 2.07835 2.15511 0
M  V30 1975 H 191.199 1.00064 1.03553 0
M  V30 1976 H 193.152 0.689114 4.15727 0
M  V30 1977 H 191.876 -0.172145 3.26146 0
M  V30 1978 H 190.535 1.95437 3.10161 0
M  V30 1979 H 190.183 0.383253 5.01538 0
M  V30 1980 H 189.883 2.07143 5.49878 0
M  V30 1981 H 191.407 1.26848 5.97279 0
M  V30 1982 H 192.821 3.19089 4.76293 0
M  V30 1983 H 191.218 3.94462 4.52238 0
M  V30 1984 H 192.288 3.70394 3.12948 0
M  V30 1985 N 193.631 -1.12557 1.10312 0
M  V30 1986 C 195.047 -1.36036 0.834649 0
M  V30 1987 C 195.247 -1.93946 -0.546539 0
M  V30 1988 O 194.303 -2.16484 -1.29966 0
M  V30 1989 C 195.616 -2.30312 1.9333 0
M  V30 1990 C 197.164 -2.43906 1.9616 0
M  V30 1991 C 197.639 -3.41496 3.05195 0
M  V30 1992 N 199.13 -3.49053 3.04494 0
M  V30 1993 C 199.865 -4.24471 3.85502 0
M  V30 1994 N 199.361 -5.02966 4.76442 0
M  V30 1995 N 201.154 -4.19864 3.73725 0
M  V30 1996 H 193.305 -0.733246 1.99342 0
M  V30 1997 H 195.568 -0.385234 0.866198 0
M  V30 1998 H 195.274 -1.94933 2.92735 0
M  V30 1999 H 195.148 -3.30421 1.81939 0
M  V30 2000 H 197.535 -2.78567 0.973886 0
M  V30 2001 H 197.616 -1.4369 2.11629 0
M  V30 2002 H 197.26 -3.07565 4.04186 0
M  V30 2003 H 197.19 -4.41539 2.86968 0
M  V30 2004 H 199.681 -2.93053 2.38596 0
M  V30 2005 H 199.994 -5.57846 5.34815 0
M  V30 2006 H 198.339 -5.02167 4.80472 0
M  V30 2007 H 201.53 -3.57623 3.02032 0
M  V30 2008 H 201.703 -4.78386 4.37093 0
M  V30 2009 N 195.109 -0.891671 -1.2995 0
M  V30 2010 C 196.357 -0.512486 -1.95494 0
M  V30 2011 C 196.678 0.942776 -1.70695 0
M  V30 2012 O 195.948 1.66374 -1.03424 0
M  V30 2013 H 194.528 -0.186533 -0.723336 0
M  V30 2014 H 197.19 -1.13621 -1.58355 0
M  V30 2015 H 196.286 -0.688342 -3.04415 0
M  V30 2016 N 196.587 1.43421 -0.653314 0
M  V30 2017 C 197.534 2.30768 0.0382271 0
M  V30 2018 C 198.504 1.44755 0.814576 0
M  V30 2019 O 199.689 1.73624 0.791162 0
M  V30 2020 C 196.829 3.30336 0.998599 0
M  V30 2021 C 195.942 4.31448 0.218342 0
M  V30 2022 C 195.077 5.18098 1.17252 0
M  V30 2023 C 194.116 6.10902 0.382702 0
M  V30 2024 N 193.253 6.90176 1.28848 0
M  V30 2025 H 198.093 2.89357 -0.712511 0
M  V30 2026 H 195.63 1.42548 -0.363128 0
M  V30 2027 H 197.588 3.86572 1.56901 0
M  V30 2028 H 196.218 2.73397 1.71621 0
M  V30 2029 H 195.27 3.77506 -0.46836 0
M  V30 2030 H 196.582 4.97227 -0.395812 0
M  V30 2031 H 195.736 5.7896 1.81356 0
M  V30 2032 H 194.475 4.52444 1.82058 0
M  V30 2033 H 193.48 5.49128 -0.27169 0
M  V30 2034 H 194.705 6.78598 -0.260957 0
M  V30 2035 H 192.651 6.27171 1.92334 0
M  V30 2036 H 192.568 7.52478 0.728887 0
M  V30 2037 H 193.836 7.55543 1.91766 0
M  V30 2038 N 198.065 0.39524 1.52563 0
M  V30 2039 C 199.012 -0.437036 2.26624 0
M  V30 2040 C 199.982 -1.05281 1.28472 0
M  V30 2041 O 201.167 -1.07971 1.57311 0
M  V30 2042 C 198.307 -1.55524 3.08069 0
M  V30 2043 C 197.42 -0.961745 4.21158 0
M  V30 2044 C 196.555 -2.05149 4.89987 0
M  V30 2045 C 195.594 -1.4342 5.95061 0
M  V30 2046 N 194.731 -2.46351 6.57462 0
M  V30 2047 H 199.571 0.200976 2.97322 0
M  V30 2048 H 197.108 0.110944 1.46681 0
M  V30 2049 H 199.066 -2.21437 3.53584 0
M  V30 2050 H 197.696 -2.16348 2.3957 0
M  V30 2051 H 196.748 -0.192048 3.79915 0
M  V30 2052 H 198.06 -0.470701 4.96574 0
M  V30 2053 H 197.214 -2.78819 5.38837 0
M  V30 2054 H 195.953 -2.57615 4.14109 0
M  V30 2055 H 194.958 -0.682774 5.45544 0
M  V30 2056 H 196.183 -0.917416 6.72875 0
M  V30 2057 H 194.129 -2.97975 5.8442 0
M  V30 2058 H 194.046 -2.02019 7.28508 0
M  V30 2059 H 195.314 -3.19633 7.10954 0
M  V30 2060 N 199.544 -1.57102 0.125237 0
M  V30 2061 C 200.769 -2.0019 -0.542101 0
M  V30 2062 C 201.194 -1.00449 -1.59034 0
M  V30 2063 O 200.552 0.0229423 -1.81285 0
M  V30 2064 C 200.6 -3.42129 -1.13929 0
M  V30 2065 O 199.704 -3.45307 -2.2547 0
M  V30 2066 H 199.045 -0.650171 -0.134812 0
M  V30 2067 H 201.575 -2.03461 0.215553 0
M  V30 2068 H 201.585 -3.80471 -1.4733 0
M  V30 2069 H 200.26 -4.14237 -0.371531 0
M  V30 2070 H 198.837 -3.1879 -1.93462 0
M  V30 2071 N 201.022 0.148545 -1.56898 0
M  V30 2072 C 202.262 0.86765 -1.85071 0
M  V30 2073 C 202.626 1.78417 -0.709317 0
M  V30 2074 O 203.827 2.54261 -0.872049 0
M  V30 2075 C 202.098 1.62306 -3.1842 0
M  V30 2076 S 203.657 2.3878 -3.68143 0
M  V30 2077 H 200.475 0.290174 -0.649092 0
M  V30 2078 H 203.077 0.127755 -1.95082 0
M  V30 2079 H 201.781 0.941192 -3.99462 0
M  V30 2080 H 201.312 2.4039 -3.1141 0
M  V30 2081 H 203.327 3.63942 -3.37285 0
M  V30 2082 N 202.5 1.5196 0.417844 0
M  V30 2083 C 203.45 1.7106 1.5074 0
M  V30 2084 C 204.434 0.564487 1.50673 0
M  V30 2085 O 205.626 0.821206 1.56797 0
M  V30 2086 C 202.755 1.85677 2.88754 0
M  V30 2087 C 201.841 3.06133 2.93502 0
M  V30 2088 N 202.232 4.28987 2.67962 0
M  V30 2089 C 200.53 3.05787 3.24669 0
M  V30 2090 C 201.231 5.10395 2.79055 0
M  V30 2091 N 200.207 4.45455 3.11561 0
M  V30 2092 H 204.009 2.63696 1.29775 0
M  V30 2093 H 201.523 1.49873 0.625436 0
M  V30 2094 H 203.52 1.97475 3.67164 0
M  V30 2095 H 202.18 0.942348 3.10725 0
M  V30 2096 H 203.191 4.57607 2.4252 0
M  V30 2097 H 199.868 2.2405 3.52289 0
M  V30 2098 H 201.258 6.18247 2.63097 0
M  V30 2099 N 203.978 -0.674533 1.42435 0
M  V30 2100 C 205.206 -1.46283 1.46317 0
M  V30 2101 C 205.621 -1.88653 0.0745836 0
M  V30 2102 O 204.978 -1.58151 -0.91074 0
M  V30 2103 C 205.029 -2.71178 2.3905 0
M  V30 2104 O 204.75 -2.30586 3.72507 0
M  V30 2105 C 206.251 -3.64738 2.51955 0
M  V30 2106 H 203.471 -0.450104 0.497642 0
M  V30 2107 H 206.015 -0.828792 1.86953 0
M  V30 2108 H 204.17 -3.3077 2.01667 0
M  V30 2109 H 204.584 -3.11241 4.22172 0
M  V30 2110 H 206.058 -4.49096 3.20962 0
M  V30 2111 H 206.535 -4.10656 1.55752 0
M  V30 2112 H 207.141 -3.11038 2.90061 0
M  V30 2113 N 205.456 -1.28612 -0.910864 0
M  V30 2114 C 206.704 -1.15705 -1.65701 0
M  V30 2115 C 207.025 0.29416 -1.92769 0
M  V30 2116 O 206.295 1.20331 -1.54588 0
M  V30 2117 H 204.875 -0.425216 -0.614167 0
M  V30 2118 H 207.537 -1.61381 -1.0928 0
M  V30 2119 H 206.633 -1.6988 -2.61815 0
M  V30 2120 N 206.934 1.1197 -1.10907 0
M  V30 2121 C 207.864 2.19928 -0.784473 0
M  V30 2122 C 208.845 1.6833 0.244726 0
M  V30 2123 O 210.03 1.93892 0.109418 0
M  V30 2124 C 207.16 3.46597 -0.220827 0
M  V30 2125 C 206.114 4.11376 -1.18127 0
M  V30 2126 C 205.44 5.32554 -0.478594 0
M  V30 2127 C 206.74 4.56945 -2.52979 0
M  V30 2128 H 208.434 2.47337 -1.68715 0
M  V30 2129 H 205.98 1.18879 -0.812642 0
M  V30 2130 H 207.933 4.21396 0.0184278 0
M  V30 2131 H 206.657 3.1863 0.717113 0
M  V30 2132 H 205.316 3.38564 -1.40606 0
M  V30 2133 H 204.964 5.00856 0.463976 0
M  V30 2134 H 204.664 5.76844 -1.11912 0
M  V30 2135 H 206.188 6.10096 -0.248 0
M  V30 2136 H 207.602 5.23093 -2.3462 0
M  V30 2137 H 205.999 5.1203 -3.12962 0
M  V30 2138 H 207.069 3.70676 -3.12614 0
M  V30 2139 N 208.412 0.89855 1.29475 0
M  V30 2140 C 209.66 0.522847 1.9522 0
M  V30 2141 C 209.981 -0.93371 1.71192 0
M  V30 2142 O 209.251 -1.65823 1.04305 0
M  V30 2143 H 207.831 0.190366 0.722336 0
M  V30 2144 H 210.493 1.14459 1.5775 0
M  V30 2145 H 209.589 0.704476 3.04045 0
M  V30 2146 N 209.89 -1.43072 0.660911 0
M  V30 2147 C 211.306 -1.56169 0.329173 0
M  V30 2148 C 211.506 -1.64317 -1.16629 0
M  V30 2149 O 210.562 -1.60245 -1.95135 0
M  V30 2150 C 211.875 -2.81873 1.04729 0
M  V30 2151 C 213.423 -2.95627 1.02828 0
M  V30 2152 C 213.898 -4.24174 1.72744 0
M  V30 2153 N 215.389 -4.31055 1.69545 0
M  V30 2154 C 216.124 -5.29304 2.20511 0
M  V30 2155 N 215.62 -6.33786 2.79799 0
M  V30 2156 N 217.413 -5.21008 2.10966 0
M  V30 2157 H 209.564 -1.36027 1.63127 0
M  V30 2158 H 211.827 -0.653823 0.686454 0
M  V30 2159 H 211.533 -2.81942 2.10242 0
M  V30 2160 H 211.407 -3.72338 0.603702 0
M  V30 2161 H 213.794 -2.95094 -0.0184742 0
M  V30 2162 H 213.875 -2.06431 1.51063 0
M  V30 2163 H 213.519 -4.25467 2.7738 0
M  V30 2164 H 213.449 -5.1228 1.2197 0
M  V30 2165 H 215.94 -3.56174 1.26288 0
M  V30 2166 H 216.253 -7.05086 3.16344 0
M  V30 2167 H 214.598 -6.34387 2.83863 0
M  V30 2168 H 217.789 -4.38301 1.64347 0
M  V30 2169 H 217.962 -5.97416 2.50993 0
M  V30 2170 N 211.368 -0.403325 -1.52352 0
M  V30 2171 C 212.593 0.176499 -2.06648 0
M  V30 2172 C 213.018 1.38577 -1.27193 0
M  V30 2173 O 212.376 1.7879 -0.300637 0
M  V30 2174 C 212.424 0.511061 -3.5696 0
M  V30 2175 O 211.528 1.60294 -3.79973 0
M  V30 2176 H 210.869 0.0167337 -0.663789 0
M  V30 2177 H 213.399 -0.574848 -1.96359 0
M  V30 2178 H 213.409 0.771362 -4.00642 0
M  V30 2179 H 212.084 -0.37296 -4.14224 0
M  V30 2180 H 210.661 1.33526 -3.48174 0
M  V30 2181 N 212.846 1.57033 -0.133567 0
M  V30 2182 C 213.809 2.14897 0.796995 0
M  V30 2183 C 214.809 1.0874 1.18458 0
M  V30 2184 O 215.999 1.34446 1.1077 0
M  V30 2185 C 213.131 2.70112 2.07973 0
M  V30 2186 H 214.324 2.98457 0.293873 0
M  V30 2187 H 211.877 1.55871 0.115787 0
M  V30 2188 H 212.612 1.9018 2.62682 0
M  V30 2189 H 212.397 3.47764 1.81115 0
M  V30 2190 H 213.887 3.14738 2.74462 0
M  V30 2191 N 214.325 -0.140222 1.56975 0
M  V30 2192 C 215.573 -0.850005 1.83356 0
M  V30 2193 C 215.894 -1.81399 0.71551 0
M  V30 2194 O 215.164 -1.94136 -0.262294 0
M  V30 2195 H 213.744 -0.316886 0.676456 0
M  V30 2196 H 216.406 -0.132608 1.94448 0
M  V30 2197 H 215.502 -1.40814 2.78528 0
M  V30 2198 N 215.803 -1.52179 -0.40978 0
M  V30 2199 C 217.049 -1.67408 -1.15525 0
M  V30 2200 C 217.404 -0.398746 -1.88223 0
M  V30 2201 O 216.697 0.60678 -1.81738 0
M  V30 2202 C 216.891 -2.83428 -2.17723 0
M  V30 2203 C 216.72 -4.22121 -1.55061 0
M  V30 2204 C 215.49 -4.87657 -1.3236 0
M  V30 2205 C 217.688 -5.04248 -1.01185 0
M  V30 2206 N 215.67 -6.10387 -0.655834 0
M  V30 2207 C 217.041 -6.18209 -0.470963 0
M  V30 2208 C 219.096 -4.89583 -0.906252 0
M  V30 2209 C 217.799 -7.1911 0.165172 0
M  V30 2210 C 219.825 -5.90718 -0.28397 0
M  V30 2211 C 219.187 -7.03969 0.246243 0
M  V30 2212 H 215.286 -0.666251 -0.409431 0
M  V30 2213 H 217.87 -1.89482 -0.447729 0
M  V30 2214 H 216.041 -2.6297 -2.85834 0
M  V30 2215 H 217.773 -2.87697 -2.84627 0
M  V30 2216 H 214.528 -4.46007 -1.59294 0
M  V30 2217 H 214.952 -6.76153 -0.338596 0
M  V30 2218 H 219.594 -4.02253 -1.302 0
M  V30 2219 H 217.312 -8.06066 0.572986 0
M  V30 2220 H 220.898 -5.81443 -0.203792 0
M  V30 2221 H 219.778 -7.80886 0.720173 0
M  V30 2222 N 217.281 0.66697 -1.42791 0
M  V30 2223 C 218.229 1.80157 -1.47127 0
M  V30 2224 C 219.223 1.65825 -0.346199 0
M  V30 2225 O 220.429 1.72338 -0.519572 0
M  V30 2226 H 216.804 0.594158 -0.460956 0
M  V30 2227 H 218.775 1.73619 -2.42692 0
M  V30 2228 C 217.524 3.18351 -1.39813 0
M  V30 2229 H 216.847 3.3001 -2.25684 0
M  V30 2230 H 218.287 3.97736 -1.46908 0
M  V30 2231 C 216.746 3.36707 -0.11391 0
M  V30 2232 O 217.276 3.93027 0.830241 0
M  V30 2233 N 215.482 2.90586 -0.0285295 0
M  V30 2234 H 215.029 2.4494 -0.79764 0
M  V30 2235 H 214.987 3.03245 0.830063 0
M  V30 2236 N 218.759 1.29093 0.90403 0
M  V30 2237 C 220.008 1.16187 1.64874 0
M  V30 2238 C 220.321 -0.286742 1.93487 0
M  V30 2239 O 221.527 -0.537062 2.66135 0
M  V30 2240 C 219.983 2.03177 2.97064 0
M  V30 2241 C 219.591 3.52836 2.76062 0
M  V30 2242 C 221.335 1.98984 3.74974 0
M  V30 2243 C 219.242 4.31945 4.03952 0
M  V30 2244 H 218.172 0.431246 0.618501 0
M  V30 2245 H 220.823 1.53699 1.00243 0
M  V30 2246 H 219.205 1.5853 3.62883 0
M  V30 2247 H 220.379 4.05507 2.18863 0
M  V30 2248 H 218.694 3.58656 2.11553 0
M  V30 2249 H 221.291 2.55351 4.69787 0
M  V30 2250 H 221.634 0.968815 4.0487 0
M  V30 2251 H 222.167 2.41652 3.15989 0
M  V30 2252 H 218.906 5.34667 3.79225 0
M  V30 2253 H 218.426 3.84045 4.60727 0
M  V30 2254 H 220.105 4.42379 4.72133 0
M  V30 2255 N 220.237 -1.11381 1.11499 0
M  V30 2256 C 221.648 -1.6465 0.880191 0
M  V30 2257 C 221.999 -1.87199 -0.587434 0
M  V30 2258 O 221.124 -1.60667 -1.44966 0
M  V30 2259 C 221.719 -2.99105 1.59128 0
M  V30 2260 C 220.278 -3.49279 1.40289 0
M  V30 2261 C 219.425 -2.24077 1.63354 0
M  V30 2262 H 222.376 -0.950123 1.27116 0
M  V30 2263 H 222.397 -3.66107 1.03664 0
M  V30 2264 H 221.909 -2.82661 2.65941 0
M  V30 2265 H 220.01 -3.70887 0.356888 0
M  V30 2266 H 220.123 -4.2803 2.15238 0
M  V30 2267 H 218.487 -2.31733 1.05698 0
M  V30 2268 H 219.27 -2.10175 2.71443 0
M  V30 2269 N 221.715 -0.905404 -1.28997 0
M  V30 2270 C 222.964 -0.530191 -1.94607 0
M  V30 2271 C 223.277 0.929185 -1.72121 0
M  V30 2272 O 224.483 1.41218 -2.31883 0
M  V30 2273 C 222.939 -0.897333 -3.48534 0
M  V30 2274 C 222.547 -2.37587 -3.79811 0
M  V30 2275 C 224.291 -0.592304 -4.20347 0
M  V30 2276 C 222.198 -2.68357 -5.27009 0
M  V30 2277 H 221.128 -0.194558 -0.728466 0
M  V30 2278 H 223.779 -1.10318 -1.46636 0
M  V30 2279 H 222.161 -0.253214 -3.9519 0
M  V30 2280 H 223.335 -3.06602 -3.43994 0
M  V30 2281 H 221.65 -2.6505 -3.2115 0
M  V30 2282 H 224.247 -0.798975 -5.28697 0
M  V30 2283 H 224.59 0.469474 -4.13644 0
M  V30 2284 H 225.123 -1.19452 -3.79442 0
M  V30 2285 H 221.862 -3.73355 -5.38782 0
M  V30 2286 H 221.382 -2.03971 -5.64053 0
M  V30 2287 H 223.061 -2.54922 -5.94663 0
M  V30 2288 N 223.193 1.4272 -0.668489 0
M  V30 2289 C 224.441 2.01226 -0.187769 0
M  V30 2290 C 224.762 1.53092 1.2078 0
M  V30 2291 O 224.032 0.74993 1.80977 0
M  V30 2292 H 222.612 0.744041 -0.0664272 0
M  V30 2293 H 225.274 1.74723 -0.863583 0
M  V30 2294 H 224.37 3.11556 -0.184166 0
M  V30 2295 N 224.671 0.411399 1.52136 0
M  V30 2296 C 225.601 -0.404015 2.29978 0
M  V30 2297 C 226.582 -1.04412 1.34284 0
M  V30 2298 O 227.767 -1.0527 1.63192 0
M  V30 2299 C 224.897 -1.5197 3.12286 0
M  V30 2300 C 223.851 -1.00448 4.16046 0
M  V30 2301 C 223.177 -2.21393 4.86712 0
M  V30 2302 C 224.477 -0.0569336 5.22269 0
M  V30 2303 H 226.171 0.245529 2.98392 0
M  V30 2304 H 223.717 0.119525 1.43503 0
M  V30 2305 H 225.67 -2.09715 3.6551 0
M  V30 2306 H 224.394 -2.19716 2.41646 0
M  V30 2307 H 223.053 -0.449421 3.63835 0
M  V30 2308 H 222.701 -2.87699 4.12599 0
M  V30 2309 H 222.401 -1.87571 5.56858 0
M  V30 2310 H 223.925 -2.7974 5.4275 0
M  V30 2311 H 225.339 -0.54325 5.7072 0
M  V30 2312 H 223.736 0.192594 5.99791 0
M  V30 2313 H 224.806 0.887663 4.76706 0
M  V30 2314 N 226.149 -1.5696 0.141893 0
M  V30 2315 C 227.079 -2.19516 -0.795936 0
M  V30 2316 C 228.06 -1.14187 -1.26077 0
M  V30 2317 O 229.245 -1.42511 -1.31925 0
M  V30 2318 C 226.375 -2.81272 -2.03723 0
M  V30 2319 C 225.329 -3.92384 -1.70936 0
M  V30 2320 C 224.655 -4.41052 -3.02287 0
M  V30 2321 C 225.955 -5.13403 -0.959954 0
M  V30 2322 H 227.649 -2.98138 -0.274596 0
M  V30 2323 H 225.195 -1.43406 -0.130636 0
M  V30 2324 H 227.148 -3.237 -2.69808 0
M  V30 2325 H 225.872 -1.99973 -2.58221 0
M  V30 2326 H 224.531 -3.50566 -1.07232 0
M  V30 2327 H 224.179 -3.56582 -3.54765 0
M  V30 2328 H 223.879 -5.15993 -2.81114 0
M  V30 2329 H 225.403 -4.86146 -3.69451 0
M  V30 2330 H 226.817 -5.52706 -1.52279 0
M  V30 2331 H 225.214 -5.94073 -0.848357 0
M  V30 2332 H 226.284 -4.84875 0.0492434 0
M  V30 2333 N 227.627 0.131896 -1.57047 0
M  V30 2334 C 228.857 0.855219 -1.88068 0
M  V30 2335 C 229.265 1.74557 -0.729817 0
M  V30 2336 O 228.608 1.81083 0.308962 0
M  V30 2337 C 228.67 1.75119 -3.13964 0
M  V30 2338 C 228.334 1.03646 -4.45091 0
M  V30 2339 C 229.331 0.383276 -5.18485 0
M  V30 2340 C 227.016 1.02148 -4.91804 0
M  V30 2341 C 229.01 -0.275347 -6.36805 0
M  V30 2342 C 226.697 0.359047 -6.10044 0
M  V30 2343 C 227.695 -0.288222 -6.82392 0
M  V30 2344 O 227.383 -0.94011 -7.98384 0
M  V30 2345 H 227.115 0.251864 -0.627328 0
M  V30 2346 H 229.669 0.124782 -2.05021 0
M  V30 2347 H 227.899 2.52295 -2.9306 0
M  V30 2348 H 229.588 2.3478 -3.31109 0
M  V30 2349 H 230.354 0.386562 -4.83457 0
M  V30 2350 H 226.233 1.5147 -4.35405 0
M  V30 2351 H 229.777 -0.781148 -6.93213 0
M  V30 2352 H 225.674 0.35348 -6.44531 0
M  V30 2353 H 226.442 -0.84329 -8.14144 0
M  V30 2354 N 229.106 1.52395 0.401703 0
M  V30 2355 C 230.346 1.68498 1.15705 0
M  V30 2356 C 230.71 0.409748 1.87577 0
M  V30 2357 O 231.911 0.446983 2.65058 0
M  V30 2358 C 230.182 2.87789 2.11924 0
M  V30 2359 S 231.741 3.24415 2.95466 0
M  V30 2360 H 228.559 0.593267 0.391862 0
M  V30 2361 H 231.161 1.90408 0.443282 0
M  V30 2362 H 229.865 3.7884 1.57824 0
M  V30 2363 H 229.396 2.68175 2.87829 0
M  V30 2364 H 231.411 2.73614 4.13944 0
M  V30 2365 N 230.584 -0.659388 1.43143 0
M  V30 2366 C 231.861 -1.41627 1.34912 0
M  V30 2367 C 232.241 -2.11099 -0.00607785 0
M  V30 2368 O 231.589 -2.04353 -1.02236 0
M  V30 2369 C 231.799 -2.40604 2.52805 0
M  V30 2370 C 233.147 -3.04789 2.95616 0
M  V30 2371 O 234.171 -2.50932 2.52807 0
M  V30 2372 O 233.03 -4.02421 3.69756 0
M  V30 2373 H 230.124 -0.63246 0.532844 0
M  V30 2374 H 232.67 -0.686814 1.5518 0
M  V30 2375 H 231.442 -1.88174 3.43083 0
M  V30 2376 H 231.065 -3.21009 2.34604 0
M  V30 2377 N 232.062 -1.29571 -0.897171 0
M  V30 2378 C 232.992 -1.17473 -2.01798 0
M  V30 2379 C 233.973 -0.068323 -1.69963 0
M  V30 2380 O 235.158 -0.248239 -1.92607 0
M  V30 2381 C 232.288 -0.853099 -3.36659 0
M  V30 2382 C 231.242 -1.9161 -3.82713 0
M  V30 2383 C 230.568 -1.44773 -5.14728 0
M  V30 2384 C 231.868 -3.32535 -4.02763 0
M  V30 2385 H 233.562 -2.11237 -2.12177 0
M  V30 2386 H 231.108 -1.01699 -1.01948 0
M  V30 2387 H 233.061 -0.755165 -4.14578 0
M  V30 2388 H 231.785 0.120236 -3.26379 0
M  V30 2389 H 230.444 -2.00346 -3.07013 0
M  V30 2390 H 230.092 -0.462995 -5.00865 0
M  V30 2391 H 229.792 -2.15865 -5.46513 0
M  V30 2392 H 231.316 -1.36334 -5.95185 0
M  V30 2393 H 232.73 -3.26626 -4.71156 0
M  V30 2394 H 231.127 -4.01607 -4.45905 0
M  V30 2395 H 232.197 -3.75326 -3.07016 0
M  V30 2396 N 233.54 1.10788 -1.12088 0
M  V30 2397 C 234.951 1.64181 -0.88891 0
M  V30 2398 C 235.302 1.87508 0.577498 0
M  V30 2399 O 234.427 1.61434 1.44112 0
M  V30 2400 C 235.022 2.98257 -1.60712 0
M  V30 2401 C 233.581 3.4853 -1.42139 0
M  V30 2402 C 232.728 2.23208 -1.6454 0
M  V30 2403 H 235.679 0.943368 -1.27618 0
M  V30 2404 H 235.7 3.65552 -1.05604 0
M  V30 2405 H 235.212 2.81246 -2.67436 0
M  V30 2406 H 233.313 3.70692 -0.376552 0
M  V30 2407 H 233.426 4.26882 -2.17505 0
M  V30 2408 H 231.79 2.31169 -1.06925 0
M  V30 2409 H 232.573 2.08733 -2.72554 0
M  V30 2410 N 235.018 0.912232 1.28515 0
M  V30 2411 C 235.928 0.404506 2.31086 0
M  V30 2412 C 236.944 -0.50707 1.66448 0
M  V30 2413 O 238.12 -0.393624 1.97516 0
M  V30 2414 C 235.185 -0.348572 3.44943 0
M  V30 2415 C 234.246 0.59604 4.25142 0
M  V30 2416 C 233.479 -0.121194 5.33562 0
M  V30 2417 O 233.702 -1.34317 5.5436 0
M  V30 2418 O 232.636 0.542716 5.99448 0
M  V30 2419 H 236.462 1.25579 2.76521 0
M  V30 2420 H 234.047 0.676998 1.33181 0
M  V30 2421 H 235.929 -0.77395 4.14232 0
M  V30 2422 H 234.604 -1.17571 3.01594 0
M  V30 2423 H 233.511 1.07079 3.58448 0
M  V30 2424 H 234.844 1.38995 4.72167 0
M  V30 2425 N 236.496 -1.42363 0.676048 0
M  V30 2426 C 237.907 -1.84649 0.275948 0
M  V30 2427 C 238.258 -1.56588 -1.18214 0
M  V30 2428 O 237.383 -1.02634 -1.90513 0
M  V30 2429 C 237.978 -3.35178 0.494053 0
M  V30 2430 C 236.537 -3.76109 0.148061 0
M  V30 2431 C 235.684 -2.65931 0.785891 0
M  V30 2432 H 238.635 -1.32192 0.878121 0
M  V30 2433 H 238.656 -3.79655 -0.25343 0
M  V30 2434 H 238.168 -3.55571 1.55535 0
M  V30 2435 H 236.269 -3.61323 -0.909742 0
M  V30 2436 H 236.382 -4.7546 0.589454 0
M  V30 2437 H 234.746 -2.53773 0.217113 0
M  V30 2438 H 235.529 -2.89146 1.85067 0
M  V30 2439 N 237.974 -0.419461 -1.51915 0
M  V30 2440 C 239.39 -0.0708431 -1.59443 0
M  V30 2441 C 239.59 1.41796 -1.43164 0
M  V30 2442 O 238.646 2.18596 -1.26381 0
M  V30 2443 C 239.959 -0.574991 -2.95151 0
M  V30 2444 C 241.507 -0.533867 -3.08413 0
M  V30 2445 C 241.982 -1.01469 -4.46618 0
M  V30 2446 N 243.473 -0.971939 -4.52888 0
M  V30 2447 C 244.208 -1.31505 -5.58116 0
M  V30 2448 N 243.704 -1.73014 -6.70849 0
M  V30 2449 N 245.497 -1.23436 -5.48379 0
M  V30 2450 H 237.648 -1.38836 -1.60743 0
M  V30 2451 H 239.911 -0.570998 -0.756747 0
M  V30 2452 H 239.617 -1.61597 -3.12377 0
M  V30 2453 H 239.491 0.00979777 -3.77199 0
M  V30 2454 H 241.878 0.498086 -2.90866 0
M  V30 2455 H 241.959 -1.15484 -2.28248 0
M  V30 2456 H 241.603 -2.04502 -4.6491 0
M  V30 2457 H 241.533 -0.370433 -5.25295 0
M  V30 2458 H 244.024 -0.666893 -3.71969 0
M  V30 2459 H 244.337 -1.97479 -7.47143 0
M  V30 2460 H 242.682 -1.76926 -6.72103 0
M  V30 2461 H 245.873 -0.908869 -4.59192 0
M  V30 2462 H 246.046 -1.50506 -6.30279 0
M  V30 2463 N 239.452 1.56882 -0.150215 0
M  V30 2464 C 240.399 2.16922 0.788244 0
M  V30 2465 C 241.369 1.10303 1.24187 0
M  V30 2466 O 242.554 1.38359 1.31383 0
M  V30 2467 C 239.694 2.79754 2.02068 0
M  V30 2468 C 238.807 4.00775 1.61257 0
M  V30 2469 C 237.942 4.51595 2.79705 0
M  V30 2470 C 236.981 5.65074 2.35282 0
M  V30 2471 N 236.118 6.10499 3.4675 0
M  V30 2472 H 240.958 2.96779 0.269444 0
M  V30 2473 H 238.495 1.46599 0.12128 0
M  V30 2474 H 240.453 3.14329 2.74323 0
M  V30 2475 H 239.083 2.02536 2.51354 0
M  V30 2476 H 238.135 3.72158 0.787553 0
M  V30 2477 H 239.447 4.82978 1.24633 0
M  V30 2478 H 238.601 4.88242 3.60145 0
M  V30 2479 H 237.34 3.68406 3.19576 0
M  V30 2480 H 236.345 5.28 1.53283 0
M  V30 2481 H 237.57 6.50052 1.96493 0
M  V30 2482 H 235.516 5.30243 3.86236 0
M  V30 2483 H 235.433 6.87637 3.14152 0
M  V30 2484 H 236.701 6.51791 4.27537 0
M  V30 2485 N 240.93 -0.123565 1.57115 0
M  V30 2486 C 242.341 -0.681198 1.73829 0
M  V30 2487 C 242.692 -1.80535 0.768214 0
M  V30 2488 O 241.817 -2.16317 -0.0599103 0
M  V30 2489 C 242.412 -1.24246 3.15196 0
M  V30 2490 C 240.971 -1.74643 3.33432 0
M  V30 2491 C 240.118 -0.644284 2.69711 0
M  V30 2492 H 243.069 0.102315 1.5837 0
M  V30 2493 H 243.09 -2.11216 3.16493 0
M  V30 2494 H 242.602 -0.424062 3.85776 0
M  V30 2495 H 240.703 -2.58974 2.67886 0
M  V30 2496 H 240.816 -1.85902 4.41562 0
M  V30 2497 H 239.18 -1.07676 2.3082 0
M  V30 2498 H 239.963 0.163058 3.42913 0
M  V30 2499 N 242.408 -1.52605 -0.393616 0
M  V30 2500 C 243.338 -1.80022 -1.48709 0
M  V30 2501 C 244.319 -0.651995 -1.57108 0
M  V30 2502 O 245.504 -0.89913 -1.72132 0
M  V30 2503 C 242.634 -1.96492 -2.86371 0
M  V30 2504 C 241.588 -3.12161 -2.92813 0
M  V30 2505 C 240.914 -3.13877 -4.3288 0
M  V30 2506 C 242.214 -4.51322 -2.6288 0
M  V30 2507 H 243.908 -2.71589 -1.26015 0
M  V30 2508 H 241.454 -1.30684 -0.604778 0
M  V30 2509 H 243.407 -2.14255 -3.62867 0
M  V30 2510 H 242.131 -1.01611 -3.10391 0
M  V30 2511 H 240.79 -2.94173 -2.18764 0
M  V30 2512 H 240.438 -2.16687 -4.53933 0
M  V30 2513 H 240.138 -3.91576 -4.38112 0
M  V30 2514 H 241.662 -3.33789 -5.1129 0
M  V30 2515 H 243.076 -4.69435 -3.29096 0
M  V30 2516 H 241.473 -5.31053 -2.79468 0
M  V30 2517 H 242.543 -4.58353 -1.58242 0
M  V30 2518 N 243.887 0.651787 -1.4349 0
M  V30 2519 C 244.797 1.79368 -1.5121 0
M  V30 2520 C 245.813 1.69361 -0.399093 0
M  V30 2521 O 246.989 1.90505 -0.653431 0
M  V30 2522 C 244.054 3.15653 -1.43401 0
M  V30 2523 C 243.115 3.37446 -2.65384 0
M  V30 2524 C 242.348 4.67229 -2.57939 0
M  V30 2525 O 242.571 5.46676 -1.62792 0
M  V30 2526 O 241.505 4.90773 -3.48462 0
M  V30 2527 H 245.331 1.7581 -2.47638 0
M  V30 2528 H 242.916 0.810447 -1.25507 0
M  V30 2529 H 244.798 3.96935 -1.41494 0
M  V30 2530 H 243.473 3.19798 -0.501085 0
M  V30 2531 H 242.38 2.55923 -2.72863 0
M  V30 2532 H 243.713 3.38148 -3.57654 0
M  V30 2533 N 245.365 1.30045 0.890287 0
M  V30 2534 C 246.312 1.15976 1.99545 0
M  V30 2535 C 247.282 0.0506202 1.66023 0
M  V30 2536 O 248.467 0.219847 1.89529 0
M  V30 2537 C 245.607 0.852054 3.34416 0
M  V30 2538 C 244.72 2.04255 3.80662 0
M  V30 2539 C 243.855 1.6734 5.04154 0
M  V30 2540 C 242.894 2.82916 5.42794 0
M  V30 2541 N 242.031 2.46333 6.57468 0
M  V30 2542 H 246.871 2.10524 2.10911 0
M  V30 2543 H 244.408 1.04749 1.03276 0
M  V30 2544 H 246.366 0.654296 4.12037 0
M  V30 2545 H 244.996 -0.0565502 3.2275 0
M  V30 2546 H 244.048 2.35172 2.98995 0
M  V30 2547 H 245.36 2.90826 4.05242 0
M  V30 2548 H 244.514 1.43908 5.89386 0
M  V30 2549 H 243.253 0.779308 4.81433 0
M  V30 2550 H 242.258 3.0702 4.56091 0
M  V30 2551 H 243.483 3.73004 5.6749 0
M  V30 2552 H 241.429 1.59423 6.36334 0
M  V30 2553 H 241.346 3.26436 6.81891 0
M  V30 2554 H 242.614 2.26244 7.45945 0
M  V30 2555 N 246.843 -1.10192 1.12674 0
M  V30 2556 C 247.806 -2.14786 0.799979 0
M  V30 2557 C 248.806 -1.59711 -0.18685 0
M  V30 2558 O 249.996 -1.74156 0.0392558 0
M  V30 2559 C 247.128 -3.40374 0.189228 0
M  V30 2560 H 248.321 -2.45203 1.72671 0
M  V30 2561 H 245.874 -1.25597 0.930326 0
M  V30 2562 H 246.609 -3.15577 -0.747107 0
M  V30 2563 H 246.394 -3.81637 0.899766 0
M  V30 2564 H 247.884 -4.17594 -0.0228143 0
M  V30 2565 N 248.321 -0.919034 -1.28029 0
M  V30 2566 C 249.567 -0.555757 -1.95036 0
M  V30 2567 C 249.9 0.899198 -1.72128 0
M  V30 2568 O 249.175 1.64023 -1.04531 0
M  V30 2569 C 249.458 -0.872024 -3.49382 0
M  V30 2570 C 249.311 -2.3801 -3.81669 0
M  V30 2571 C 250.63 -0.37185 -4.38526 0
M  V30 2572 H 247.749 -0.203386 -0.708381 0
M  V30 2573 H 250.391 -1.14924 -1.51303 0
M  V30 2574 H 248.541 -0.366946 -3.86763 0
M  V30 2575 H 250.213 -2.9562 -3.54128 0
M  V30 2576 H 248.456 -2.83289 -3.28526 0
M  V30 2577 H 249.127 -2.55192 -4.8947 0
M  V30 2578 H 251.603 -0.804602 -4.08247 0
M  V30 2579 H 250.479 -0.622173 -5.45362 0
M  V30 2580 H 250.74 0.727934 -4.36066 0
M  V30 2581 N 249.799 1.42003 -0.683588 0
M  V30 2582 C 250.762 2.29191 -0.0198243 0
M  V30 2583 C 251.762 1.43773 0.72013 0
M  V30 2584 O 252.952 1.65061 0.556815 0
M  V30 2585 C 250.084 3.26435 0.982487 0
M  V30 2586 H 251.277 2.8938 -0.787345 0
M  V30 2587 H 248.83 1.49789 -0.446418 0
M  V30 2588 H 249.565 2.71203 1.77819 0
M  V30 2589 H 249.35 3.89449 0.455182 0
M  V30 2590 H 250.84 3.918 1.44508 0
M  V30 2591 N 251.277 0.427512 1.51691 0
M  V30 2592 C 252.225 -0.403359 2.29076 0
M  V30 2593 C 253.219 -1.02962 1.34518 0
M  V30 2594 O 254.425 -0.965715 1.51901 0
M  V30 2595 H 250.8 -0.148879 0.737115 0
M  V30 2596 H 252.771 0.270295 2.97173 0
M  V30 2597 C 251.52 -1.49763 3.13794 0
M  V30 2598 H 250.843 -1.02508 3.86435 0
M  V30 2599 H 252.283 -2.05244 3.71014 0
M  V30 2600 C 250.742 -2.47536 2.28533 0
M  V30 2601 O 251.272 -3.51848 1.93819 0
M  V30 2602 N 249.478 -2.18187 1.91945 0
M  V30 2603 H 249.025 -1.33389 2.20375 0
M  V30 2604 H 248.983 -2.83848 1.35195 0
M  V30 2605 N 252.755 -1.56801 0.158532 0
M  V30 2606 C 254.002 -1.9649 -0.489679 0
M  V30 2607 C 254.33 -1.04394 -1.6411 0
M  V30 2608 O 253.585 -0.0754401 -1.95555 0
M  V30 2609 C 253.884 -3.4235 -1.02623 0
M  V30 2610 C 253.55 -4.50899 0.00794526 0
M  V30 2611 C 252.212 -4.80312 0.292207 0
M  V30 2612 C 254.564 -5.16333 0.710584 0
M  V30 2613 C 251.892 -5.72461 1.28472 0
M  V30 2614 C 254.244 -6.09553 1.69199 0
M  V30 2615 C 252.908 -6.37339 1.98383 0
M  V30 2616 H 252.178 -0.719009 -0.179186 0
M  V30 2617 H 254.825 -1.8989 0.247798 0
M  V30 2618 H 253.13 -3.45838 -1.84128 0
M  V30 2619 H 254.827 -3.70393 -1.53656 0
M  V30 2620 H 251.417 -4.28015 -0.22379 0
M  V30 2621 H 255.601 -4.93732 0.504174 0
M  V30 2622 H 250.857 -5.92278 1.51714 0
M  V30 2623 H 255.031 -6.59327 2.24189 0
M  V30 2624 H 252.658 -7.08546 2.7544 0
M  V30 2625 N 254.233 0.115231 -1.57178 0
M  V30 2626 C 255.48 0.822351 -1.8505 0
M  V30 2627 C 255.808 1.79701 -0.744168 0
M  V30 2628 O 255.063 1.93909 0.26414 0
M  V30 2629 C 255.362 1.60324 -3.19423 0
M  V30 2630 C 255.028 0.772536 -4.44233 0
M  V30 2631 C 253.69 0.543468 -4.78121 0
M  V30 2632 C 256.042 0.193746 -5.2084 0
M  V30 2633 C 253.37 -0.274583 -5.86057 0
M  V30 2634 C 255.722 -0.611517 -6.29637 0
M  V30 2635 C 254.386 -0.850867 -6.62055 0
M  V30 2636 H 253.656 0.30092 -0.677147 0
M  V30 2637 H 256.303 0.0845802 -1.91313 0
M  V30 2638 H 254.608 2.41203 -3.08753 0
M  V30 2639 H 256.305 2.1544 -3.38211 0
M  V30 2640 H 252.895 0.96117 -4.17683 0
M  V30 2641 H 257.079 0.357926 -4.95008 0
M  V30 2642 H 252.335 -0.469206 -6.09597 0
M  V30 2643 H 256.509 -1.06697 -6.88178 0
M  V30 2644 H 254.136 -1.48657 -7.45523 0
M  V30 2645 N 255.711 1.52812 0.385517 0
M  V30 2646 C 256.936 1.72207 1.15583 0
M  V30 2647 C 257.361 0.441034 1.82857 0
M  V30 2648 O 256.719 -0.603465 1.70962 0
M  V30 2649 C 256.767 2.87476 2.17692 0
M  V30 2650 O 255.871 2.54693 3.24354 0
M  V30 2651 H 255.212 0.572526 0.336319 0
M  V30 2652 H 257.742 1.99618 0.448744 0
M  V30 2653 H 257.752 3.13072 2.6163 0
M  V30 2654 H 256.427 3.80408 1.68115 0
M  V30 2655 H 255.004 2.3985 2.85529 0
M  V30 2656 N 257.189 -0.644168 1.43834 0
M  V30 2657 C 258.437 -1.40117 1.45642 0
M  V30 2658 C 258.758 -1.94814 0.0852413 0
M  V30 2659 O 258.028 -1.74988 -0.880688 0
M  V30 2660 H 256.608 -0.52005 0.536243 0
M  V30 2661 H 259.27 -0.7591 1.7951 0
M  V30 2662 H 258.366 -2.23902 2.17427 0
M  V30 2663 N 258.668 -1.30515 -0.883378 0
M  V30 2664 C 259.893 -1.22487 -1.67367 0
M  V30 2665 C 260.318 0.208767 -1.86938 0
M  V30 2666 O 259.676 1.15015 -1.40148 0
M  V30 2667 C 259.724 -1.96041 -3.02655 0
M  V30 2668 O 258.828 -1.28859 -3.91751 0
M  V30 2669 H 258.169 -0.423573 -0.511353 0
M  V30 2670 H 260.699 -1.72362 -1.10239 0
M  V30 2671 H 260.709 -2.05124 -3.52687 0
M  V30 2672 H 259.384 -3.00307 -2.8773 0
M  V30 2673 H 257.961 -1.28141 -3.50192 0
M  V30 2674 N 260.146 1.09593 -1.13257 0
M  V30 2675 C 261.386 1.83349 -0.903472 0
M  V30 2676 C 261.75 1.83641 0.560351 0
M  V30 2677 O 262.951 2.53037 0.906947 0
M  V30 2678 C 261.222 3.25629 -1.47311 0
M  V30 2679 S 262.781 4.16408 -1.38382 0
M  V30 2680 H 259.599 0.632014 -0.325699 0
M  V30 2681 H 262.201 1.31817 -1.44376 0
M  V30 2682 H 260.905 3.22991 -2.53189 0
M  V30 2683 H 260.436 3.82233 -0.930689 0
M  V30 2684 H 262.451 4.94884 -0.361113 0
M  V30 2685 N 261.624 0.925811 1.2754 0
M  V30 2686 C 262.587 0.428129 2.25166 0
M  V30 2687 C 263.587 -0.452261 1.54309 0
M  V30 2688 O 264.777 -0.253608 1.72344 0
M  V30 2689 C 261.909 -0.384749 3.38722 0
M  V30 2690 H 263.102 1.29066 2.70706 0
M  V30 2691 H 260.655 0.706323 1.3943 0
M  V30 2692 H 261.39 -1.26618 2.98561 0
M  V30 2693 H 261.175 0.246454 3.91325 0
M  V30 2694 H 262.665 -0.723389 4.11287 0
M  V30 2695 N 263.102 -1.41638 0.69111 0
M  V30 2696 C 264.513 -1.84346 0.295517 0
M  V30 2697 C 264.864 -1.57833 -1.16547 0
M  V30 2698 O 263.989 -1.04648 -1.89414 0
M  V30 2699 C 264.584 -3.34636 0.529575 0
M  V30 2700 C 263.143 -3.7593 0.187944 0
M  V30 2701 C 262.29 -2.65082 0.814052 0
M  V30 2702 H 265.241 -1.31253 0.892092 0
M  V30 2703 H 265.262 -3.79903 -0.213148 0
M  V30 2704 H 264.774 -3.53901 1.59297 0
M  V30 2705 H 262.875 -3.62268 -0.871367 0
M  V30 2706 H 262.988 -4.74808 0.63985 0
M  V30 2707 H 261.352 -2.53528 0.244017 0
M  V30 2708 H 262.135 -2.87167 1.88123 0
M  V30 2709 N 264.58 -0.43555 -1.51462 0
M  V30 2710 C 265.82 0.130708 -2.03982 0
M  V30 2711 C 266.184 1.40117 -1.31268 0
M  V30 2712 O 267.385 2.04755 -1.74152 0
M  V30 2713 C 265.656 0.346102 -3.5572 0
M  V30 2714 S 267.215 0.876022 -4.29967 0
M  V30 2715 H 264.033 0.0326881 -0.710248 0
M  V30 2716 H 266.635 -0.594544 -1.8624 0
M  V30 2717 H 265.339 -0.584911 -4.0621 0
M  V30 2718 H 264.87 1.09849 -3.77752 0
M  V30 2719 H 266.885 2.15379 -4.47019 0
M  V30 2720 N 266.058 1.56714 -0.166846 0
M  V30 2721 C 267.021 2.16539 0.751232 0
M  V30 2722 C 268.021 1.11228 1.16125 0
M  V30 2723 O 269.211 1.36765 1.07894 0
M  V30 2724 C 266.343 2.74462 2.02196 0
M  V30 2725 H 267.536 2.99013 0.230499 0
M  V30 2726 H 265.089 1.56081 0.0826982 0
M  V30 2727 H 265.824 1.95709 2.58589 0
M  V30 2728 H 265.609 3.51527 1.73698 0
M  V30 2729 H 267.099 3.20489 2.67725 0
M  V30 2730 N 267.536 -0.106894 1.57237 0
M  V30 2731 C 268.813 -0.843526 1.76477 0
M  V30 2732 C 269.193 -1.97499 0.745464 0
M  V30 2733 O 268.541 -2.27357 -0.228306 0
M  V30 2734 C 268.751 -1.34903 3.21873 0
M  V30 2735 C 270.099 -1.79654 3.8472 0
M  V30 2736 O 271.123 -1.44554 3.2555 0
M  V30 2737 O 269.982 -2.44515 4.88748 0
M  V30 2738 H 267.076 -0.401468 0.723016 0
M  V30 2739 H 269.622 -0.0896927 1.69463 0
M  V30 2740 H 268.394 -0.53781 3.87586 0
M  V30 2741 H 268.017 -2.16522 3.33473 0
M  V30 2742 N 269.014 -1.53014 -0.377408 0
M  V30 2743 C 270.262 -1.6829 -1.11906 0
M  V30 2744 C 270.583 -0.431206 -1.90173 0
M  V30 2745 O 269.853 0.554595 -1.87886 0
M  V30 2746 H 268.433 -0.620371 -0.416112 0
M  V30 2747 H 271.095 -1.90167 -0.426893 0
M  V30 2748 H 270.191 -2.53862 -1.8155 0
M  V30 2749 N 270.492 0.636531 -1.44174 0
M  V30 2750 C 271.72 1.42353 -1.50144 0
M  V30 2751 C 272.135 1.88389 -0.124575 0
M  V30 2752 O 271.492 1.6051 0.868489 0
M  V30 2753 C 271.543 2.64744 -2.46156 0
M  V30 2754 O 271.264 2.20629 -3.7849 0
M  V30 2755 C 272.765 3.57929 -2.61537 0
M  V30 2756 H 269.985 0.436752 -0.5094 0
M  V30 2757 H 272.529 0.778933 -1.89084 0
M  V30 2758 H 270.684 3.25307 -2.10366 0
M  V30 2759 H 271.098 2.99938 -4.30276 0
M  V30 2760 H 272.572 4.40428 -3.32757 0
M  V30 2761 H 273.049 4.06382 -1.66585 0
M  V30 2762 H 273.655 3.03238 -2.98206 0
M  V30 2763 N 271.97 1.30982 0.876444 0
M  V30 2764 C 273.247 1.10942 1.61094 0
M  V30 2765 C 273.627 -0.338223 2.08373 0
M  V30 2766 O 272.975 -1.33122 1.85717 0
M  V30 2767 C 273.185 2.11789 2.77392 0
M  V30 2768 C 274.533 2.43965 3.47514 0
M  V30 2769 O 275.557 2.10166 2.87591 0
M  V30 2770 O 274.416 3.01817 4.55597 0
M  V30 2771 H 271.51 0.42667 0.708436 0
M  V30 2772 H 274.056 1.42438 0.922474 0
M  V30 2773 H 272.828 3.09194 2.39823 0
M  V30 2774 H 272.451 1.81161 3.5393 0
M  V30 2775 N 273.449 -1.08991 1.13837 0
M  V30 2776 C 274.696 -1.81258 0.902882 0
M  V30 2777 C 275.024 -1.85936 -0.570803 0
M  V30 2778 O 274.279 -1.3267 -1.43865 0
M  V30 2779 C 274.578 -3.27042 1.44147 0
M  V30 2780 C 274.244 -3.4249 2.93276 0
M  V30 2781 C 272.906 -3.46414 3.33992 0
M  V30 2782 C 275.258 -3.4666 3.892 0
M  V30 2783 C 272.586 -3.52091 4.69307 0
M  V30 2784 C 274.938 -3.53872 5.24364 0
M  V30 2785 C 273.602 -3.56066 5.646 0
M  V30 2786 H 272.872 -0.663268 0.330388 0
M  V30 2787 H 275.519 -1.28368 1.42105 0
M  V30 2788 H 273.824 -3.82599 0.844097 0
M  V30 2789 H 275.521 -3.81499 1.23528 0
M  V30 2790 H 272.111 -3.40124 2.60794 0
M  V30 2791 H 276.295 -3.42865 3.58828 0
M  V30 2792 H 271.551 -3.52079 4.9985 0
M  V30 2793 H 275.725 -3.56043 5.98503 0
M  V30 2794 H 273.352 -3.60218 6.69438 0
M  V30 2795 N 274.927 -0.932562 -1.27047 0
M  V30 2796 C 276.338 -0.619451 -1.76124 0
M  V30 2797 C 276.689 0.865397 -1.76083 0
M  V30 2798 O 275.814 1.67722 -1.36742 0
M  V30 2799 C 276.409 -1.11771 -3.19832 0
M  V30 2800 C 274.968 -0.855174 -3.66557 0
M  V30 2801 C 274.115 -1.27362 -2.46321 0
M  V30 2802 H 277.066 -1.11181 -1.13245 0
M  V30 2803 H 277.087 -0.46759 -3.77616 0
M  V30 2804 H 276.599 -2.19842 -3.1983 0
M  V30 2805 H 274.7 0.211524 -3.71999 0
M  V30 2806 H 274.813 -1.47613 -4.55793 0
M  V30 2807 H 273.177 -0.692119 -2.45116 0
M  V30 2808 H 273.96 -2.36307 -2.49025 0
M  V30 2809 N 276.405 1.4127 -0.698611 0
M  V30 2810 C 277.337 2.292 0.00399731 0
M  V30 2811 C 278.35 1.44944 0.741279 0
M  V30 2812 O 279.539 1.68416 0.591477 0
M  V30 2813 C 276.639 3.22875 1.02979 0
M  V30 2814 C 275.812 4.35904 0.36151 0
M  V30 2815 C 274.871 5.10134 1.29033 0
M  V30 2816 O 273.897 5.63809 0.781562 0
M  V30 2817 N 275.099 5.17885 2.6225 0
M  V30 2818 H 277.864 2.9014 -0.750921 0
M  V30 2819 H 275.425 1.52455 -0.544882 0
M  V30 2820 H 277.417 3.69404 1.65296 0
M  V30 2821 H 275.987 2.63221 1.68622 0
M  V30 2822 H 275.207 3.91719 -0.441584 0
M  V30 2823 H 276.495 5.08696 -0.103055 0
M  V30 2824 H 275.893 4.7573 3.061 0
M  V30 2825 H 274.45 5.6798 3.19754 0
M  V30 2826 N 277.883 0.443576 1.51229 0
M  V30 2827 C 278.813 -0.355142 2.30783 0
M  V30 2828 C 279.794 -1.0154 1.36468 0
M  V30 2829 O 280.979 -1.01785 1.65389 0
M  V30 2830 C 278.109 -1.45312 3.15439 0
M  V30 2831 C 277.063 -0.916002 4.18083 0
M  V30 2832 C 276.389 -2.1102 4.91299 0
M  V30 2833 C 277.689 0.0538602 5.22272 0
M  V30 2834 H 279.383 0.308767 2.97804 0
M  V30 2835 H 276.929 0.149937 1.43217 0
M  V30 2836 H 278.882 -2.01914 3.69876 0
M  V30 2837 H 277.606 -2.14541 2.46252 0
M  V30 2838 H 276.265 -0.372145 3.64706 0
M  V30 2839 H 275.913 -2.78882 4.18609 0
M  V30 2840 H 275.613 -1.75717 5.60712 0
M  V30 2841 H 277.137 -2.68164 5.48562 0
M  V30 2842 H 278.551 -0.422069 5.71744 0
M  V30 2843 H 276.948 0.319776 5.99247 0
M  V30 2844 H 278.018 0.98858 4.74716 0
M  V30 2845 N 279.361 -1.56624 0.175154 0
M  V30 2846 C 280.601 -1.98894 -0.471221 0
M  V30 2847 C 280.965 -1.05889 -1.60161 0
M  V30 2848 O 282.166 -1.37315 -2.3108 0
M  V30 2849 C 280.437 -3.44865 -0.938241 0
M  V30 2850 S 281.996 -4.09164 -1.58526 0
M  V30 2851 H 278.814 -0.694686 -0.151434 0
M  V30 2852 H 281.416 -1.93577 0.27352 0
M  V30 2853 H 280.12 -4.10265 -0.10518 0
M  V30 2854 H 279.651 -3.53956 -1.71693 0
M  V30 2855 H 281.666 -4.04528 -2.87352 0
M  V30 2856 N 280.839 0.0985539 -1.57292 0
M  V30 2857 C 281.771 1.14595 -1.98496 0
M  V30 2858 C 282.784 1.36512 -0.887031 0
M  V30 2859 O 283.973 1.35225 -1.16518 0
M  V30 2860 C 281.073 2.50216 -2.28572 0
M  V30 2861 C 280.246 2.48624 -3.59868 0
M  V30 2862 C 279.305 3.66146 -3.7792 0
M  V30 2863 O 278.331 3.48795 -4.49812 0
M  V30 2864 N 279.533 4.85496 -3.18235 0
M  V30 2865 H 282.298 0.795277 -2.88956 0
M  V30 2866 H 279.859 0.287579 -1.59325 0
M  V30 2867 H 281.851 3.27432 -2.37845 0
M  V30 2868 H 280.421 2.77387 -1.44136 0
M  V30 2869 H 279.641 1.56978 -3.61596 0
M  V30 2870 H 280.929 2.44635 -4.46129 0
M  V30 2871 H 280.327 5.02497 -2.59833 0
M  V30 2872 H 278.884 5.60317 -3.32999 0
M  V30 2873 N 282.317 1.53212 0.369288 0
M  V30 2874 C 283.247 1.82365 1.45826 0
M  V30 2875 C 284.228 0.676907 1.56051 0
M  V30 2876 O 285.413 0.926401 1.70679 0
M  V30 2877 C 282.543 2.01023 2.83208 0
M  V30 2878 C 281.497 3.1678 2.8781 0
M  V30 2879 C 280.823 3.20724 4.27832 0
M  V30 2880 C 282.123 4.55447 2.55667 0
M  V30 2881 H 283.817 2.73559 1.21678 0
M  V30 2882 H 281.363 1.3163 0.583911 0
M  V30 2883 H 283.316 2.20001 3.59413 0
M  V30 2884 H 282.04 1.06536 3.08736 0
M  V30 2885 H 280.699 2.97616 2.14056 0
M  V30 2886 H 280.347 2.23882 4.50429 0
M  V30 2887 H 280.047 3.98496 4.31827 0
M  V30 2888 H 281.571 3.41881 5.05915 0
M  V30 2889 H 282.985 4.74611 3.21586 0
M  V30 2890 H 281.382 5.35432 2.70984 0
M  V30 2891 H 282.452 4.60812 1.5093 0
M  V30 2892 N 283.795 -0.628877 1.44509 0
M  V30 2893 C 285.035 -1.39993 1.48934 0
M  V30 2894 C 285.399 -1.91627 0.119604 0
M  V30 2895 O 286.6 -2.68772 0.0385283 0
M  V30 2896 C 284.871 -2.53241 2.52198 0
M  V30 2897 S 286.43 -3.41383 2.75687 0
M  V30 2898 H 283.248 -0.477558 0.526744 0
M  V30 2899 H 285.85 -0.727804 1.81448 0
M  V30 2900 H 284.554 -2.13622 3.50419 0
M  V30 2901 H 284.085 -3.25278 2.21264 0
M  V30 2902 H 286.1 -4.50752 2.07453 0
M  V30 2903 N 285.273 -1.31445 -0.869486 0
M  V30 2904 C 286.684 -1.19042 -1.43826 0
M  V30 2905 C 287.035 0.202919 -1.95148 0
M  V30 2906 O 286.16 1.10071 -1.86315 0
M  V30 2907 C 286.755 -2.15499 -2.6143 0
M  V30 2908 C 285.314 -2.07028 -3.14351 0
M  V30 2909 C 284.461 -2.04701 -1.87063 0
M  V30 2910 H 287.412 -1.43489 -0.677984 0
M  V30 2911 H 287.433 -1.74488 -3.38134 0
M  V30 2912 H 286.945 -3.16899 -2.24046 0
M  V30 2913 H 285.046 -1.08825 -3.56354 0
M  V30 2914 H 285.159 -2.96157 -3.766 0
M  V30 2915 H 283.523 -1.49724 -2.06046 0
M  V30 2916 H 284.306 -3.07857 -1.51917 0
M  V30 2917 N 286.751 1.08385 -1.14413 0
M  V30 2918 C 287.999 1.80419 -0.910679 0
M  V30 2919 C 288.32 1.86658 0.564243 0
M  V30 2920 O 287.59 1.35985 1.41014 0
M  V30 2921 H 286.17 0.668204 -0.333934 0
M  V30 2922 H 288.832 1.31037 -1.44275 0
M  V30 2923 H 287.928 2.83238 -1.31082 0
M  V30 2924 N 288.23 0.939286 1.26551 0
M  V30 2925 C 289.47 0.5933 1.956 0
M  V30 2926 C 289.834 -0.851515 1.72085 0
M  V30 2927 O 291.035 -1.30634 2.34921 0
M  V30 2928 C 289.306 0.923996 3.45249 0
M  V30 2929 S 290.865 0.688269 4.33369 0
M  V30 2930 H 287.683 0.218591 0.676564 0
M  V30 2931 H 290.285 1.2102 1.5354 0
M  V30 2932 H 288.989 1.97297 3.59864 0
M  V30 2933 H 288.52 0.296746 3.92279 0
M  V30 2934 H 290.535 -0.448434 4.9417 0
M  V30 2935 N 289.708 -1.40897 0.706093 0
M  V30 2936 C 290.956 -2.00657 0.241054 0
M  V30 2937 C 291.277 -1.56241 -1.16678 0
M  V30 2938 O 290.547 -0.79765 -1.78926 0
M  V30 2939 H 289.127 -0.742018 0.0861308 0
M  V30 2940 H 291.789 -1.72372 0.909604 0
M  V30 2941 H 290.885 -3.10958 0.266705 0
M  V30 2942 N 291.186 -0.45159 -1.50991 0
M  V30 2943 C 292.426 0.109066 -2.04109 0
M  V30 2944 C 292.79 1.38716 -1.32747 0
M  V30 2945 O 293.991 2.02896 -1.76314 0
M  V30 2946 C 292.262 0.308354 -3.56067 0
M  V30 2947 S 293.821 0.830369 -4.30872 0
M  V30 2948 H 290.639 0.0251531 -0.710555 0
M  V30 2949 H 293.241 -0.614264 -1.85599 0
M  V30 2950 H 291.945 -0.627962 -4.05567 0
M  V30 2951 H 291.476 1.05836 -3.78896 0
M  V30 2952 H 293.491 2.10626 -4.49279 0
M  V30 2953 N 292.664 1.56529 -0.183458 0
M  V30 2954 C 293.889 2.02064 0.467428 0
M  V30 2955 C 294.314 1.06282 1.55196 0
M  V30 2956 O 293.672 0.0443565 1.81246 0
M  V30 2957 C 293.72 3.46122 1.01153 0
M  V30 2958 O 292.824 3.53437 2.12499 0
M  V30 2959 H 292.165 0.654726 0.110588 0
M  V30 2960 H 294.695 2.02521 -0.290917 0
M  V30 2961 H 294.705 3.85676 1.33108 0
M  V30 2962 H 293.38 4.15331 0.217533 0
M  V30 2963 H 291.957 3.2575 1.81497 0
M  V30 2964 N 294.142 -0.090211 1.57342 0
M  V30 2965 C 295.37 -0.806224 1.90546 0
M  V30 2966 C 295.785 -1.72041 0.777644 0
M  V30 2967 O 295.142 -1.80778 -0.250103 0
M  V30 2968 C 295.193 -1.61546 3.23396 0
M  V30 2969 O 294.914 -0.738043 4.31839 0
M  V30 2970 C 296.415 -2.4341 3.70495 0
M  V30 2971 H 293.635 -0.230256 0.630257 0
M  V30 2972 H 296.179 -0.0659843 2.04394 0
M  V30 2973 H 294.334 -2.30816 3.11131 0
M  V30 2974 H 294.748 -1.29901 5.08159 0
M  V30 2975 H 296.222 -2.95676 4.66133 0
M  V30 2976 H 296.699 -3.22098 2.98579 0
M  V30 2977 H 297.305 -1.79331 3.85643 0
M  V30 2978 N 295.62 -1.53406 -0.361157 0
M  V30 2979 C 296.55 -1.83136 -1.44857 0
M  V30 2980 C 297.531 -0.685174 -1.5569 0
M  V30 2981 O 298.716 -0.93544 -1.70186 0
M  V30 2982 C 295.846 -2.02522 -2.82138 0
M  V30 2983 C 294.8 -3.18302 -2.86126 0
M  V30 2984 C 294.126 -3.22989 -4.26125 0
M  V30 2985 C 295.426 -4.56796 -2.53248 0
M  V30 2986 H 297.12 -2.74201 -1.20226 0
M  V30 2987 H 294.666 -1.31938 -0.576922 0
M  V30 2988 H 296.619 -2.21904 -3.58241 0
M  V30 2989 H 295.343 -1.08172 -3.08166 0
M  V30 2990 H 294.002 -2.98747 -2.12475 0
M  V30 2991 H 293.65 -2.26267 -4.49235 0
M  V30 2992 H 293.35 -4.00781 -4.29708 0
M  V30 2993 H 294.874 -3.44559 -5.04094 0
M  V30 2994 H 296.288 -4.7631 -3.19064 0
M  V30 2995 H 294.685 -5.36862 -2.68141 0
M  V30 2996 H 295.755 -4.61606 -1.48484 0
M  V30 2997 N 297.098 0.621204 -1.44841 0
M  V30 2998 C 298.046 1.75385 -1.52784 0
M  V30 2999 C 299.04 1.64639 -0.398779 0
M  V30 3000 O 300.246 1.70598 -0.574137 0
M  V30 3001 H 296.621 0.579193 -0.479625 0
M  V30 3002 H 298.592 1.6581 -2.48092 0
M  V30 3003 C 297.341 3.13742 -1.4987 0
M  V30 3004 H 296.664 3.22663 -2.36069 0
M  V30 3005 H 298.104 3.92861 -1.59487 0
M  V30 3006 C 296.563 3.36175 -0.220973 0
M  V30 3007 O 297.093 3.95469 0.704782 0
M  V30 3008 N 295.299 2.90348 -0.120963 0
M  V30 3009 H 294.846 2.42278 -0.875162 0
M  V30 3010 H 294.804 3.05732 0.733168 0
M  V30 3011 N 298.576 1.31904 0.862503 0
M  V30 3012 C 299.508 1.16005 1.97675 0
M  V30 3013 C 300.521 0.0971234 1.6251 0
M  V30 3014 O 301.71 0.345337 1.75128 0
M  V30 3015 C 298.81 0.751791 3.30456 0
M  V30 3016 C 297.983 1.90133 3.93914 0
M  V30 3017 C 297.042 1.4779 5.05019 0
M  V30 3018 O 296.068 2.18872 5.25437 0
M  V30 3019 N 297.27 0.369491 5.79323 0
M  V30 3020 H 300.035 2.11982 2.11857 0
M  V30 3021 H 297.596 1.24337 1.03691 0
M  V30 3022 H 299.588 0.451084 4.02178 0
M  V30 3023 H 298.158 -0.116593 3.12382 0
M  V30 3024 H 297.378 2.36896 3.15078 0
M  V30 3025 H 298.666 2.67111 4.33047 0
M  V30 3026 H 298.064 -0.222299 5.65263 0
M  V30 3027 H 296.621 0.128354 6.51674 0
M  V30 3028 N 300.054 -1.07777 1.14986 0
M  V30 3029 C 301.284 -1.83752 0.944402 0
M  V30 3030 C 301.692 -1.8218 -0.51058 0
M  V30 3031 O 301.035 -1.22852 -1.36576 0
M  V30 3032 C 301.097 -3.32128 1.37592 0
M  V30 3033 C 300.761 -3.57425 2.84775 0
M  V30 3034 C 301.758 -3.5173 3.8286 0
M  V30 3035 C 299.443 -3.8523 3.2234 0
M  V30 3036 C 301.437 -3.73482 5.16517 0
M  V30 3037 C 299.124 -4.06634 4.56171 0
M  V30 3038 C 300.122 -4.00754 5.53069 0
M  V30 3039 O 299.81 -4.2159 6.84483 0
M  V30 3040 H 299.542 -0.58673 0.335744 0
M  V30 3041 H 302.096 -1.36982 1.53052 0
M  V30 3042 H 300.326 -3.79686 0.733165 0
M  V30 3043 H 302.015 -3.89555 1.14024 0
M  V30 3044 H 302.781 -3.30256 3.55184 0
M  V30 3045 H 298.66 -3.88923 2.47508 0
M  V30 3046 H 302.204 -3.68808 5.92137 0
M  V30 3047 H 298.101 -4.27593 4.83564 0
M  V30 3048 H 298.869 -4.38961 6.90837 0
M  V30 3049 N 301.532 -0.945985 -1.26051 0
M  V30 3050 C 302.779 -0.596118 -1.93527 0
M  V30 3051 C 303.107 0.865559 -1.74179 0
M  V30 3052 O 302.362 1.63524 -1.0751 0
M  V30 3053 C 302.661 -0.890475 -3.46129 0
M  V30 3054 C 302.327 -2.3368 -3.85622 0
M  V30 3055 C 300.989 -2.73216 -3.96114 0
M  V30 3056 C 303.341 -3.27648 -4.05334 0
M  V30 3057 C 300.669 -4.05806 -4.2372 0
M  V30 3058 C 303.021 -4.59841 -4.3443 0
M  V30 3059 C 301.685 -4.99185 -4.43137 0
M  V30 3060 H 300.955 -0.218135 -0.708165 0
M  V30 3061 H 303.602 -1.1934 -1.49768 0
M  V30 3062 H 301.907 -0.210711 -3.91233 0
M  V30 3063 H 303.604 -0.598478 -3.96509 0
M  V30 3064 H 300.194 -2.02015 -3.78005 0
M  V30 3065 H 304.378 -2.98298 -3.96651 0
M  V30 3066 H 299.634 -4.35945 -4.28675 0
M  V30 3067 H 303.808 -5.32641 -4.48628 0
M  V30 3068 H 301.435 -6.01952 -4.64282 0
M  V30 3069 N 303.011 1.40521 -0.713556 0
M  V30 3070 C 304.259 2.00527 -0.251692 0
M  V30 3071 C 304.58 1.56857 1.15848 0
M  V30 3072 O 303.85 0.807127 1.785 0
M  V30 3073 H 302.43 0.741551 -0.0900646 0
M  V30 3074 H 305.092 1.71887 -0.918733 0
M  V30 3075 H 304.188 3.10813 -0.283192 0
M  V30 3076 N 304.489 0.459591 1.5075 0
M  V30 3077 C 305.719 -0.0972338 2.06371 0
M  V30 3078 C 306.127 -1.35074 1.32483 0
M  V30 3079 O 305.47 -1.79637 0.384226 0
M  V30 3080 C 305.532 -0.462759 3.56509 0
M  V30 3081 C 305.196 0.687084 4.51805 0
M  V30 3082 C 306.193 1.56578 4.95761 0
M  V30 3083 C 303.878 0.874144 4.94635 0
M  V30 3084 C 305.872 2.61604 5.81242 0
M  V30 3085 C 303.559 1.92765 5.79901 0
M  V30 3086 C 304.557 2.79697 6.23104 0
M  V30 3087 O 304.245 3.83235 7.06673 0
M  V30 3088 H 303.977 -0.00140687 0.675999 0
M  V30 3089 H 306.531 0.644011 1.95043 0
M  V30 3090 H 304.761 -1.25703 3.65699 0
M  V30 3091 H 306.45 -0.953323 3.94546 0
M  V30 3092 H 307.216 1.4329 4.6335 0
M  V30 3093 H 303.095 0.207006 4.60535 0
M  V30 3094 H 306.639 3.29489 6.14884 0
M  V30 3095 H 302.536 2.06064 6.11725 0
M  V30 3096 H 303.304 3.80084 7.24899 0
M  V30 3097 N 305.967 -1.56429 0.191757 0
M  V30 3098 C 307.192 -2.02309 -0.456706 0
M  V30 3099 C 307.617 -1.07103 -1.5463 0
M  V30 3100 O 306.975 -0.0539677 -1.8122 0
M  V30 3101 C 307.023 -3.46654 -0.993159 0
M  V30 3102 O 306.127 -3.54559 -2.10622 0
M  V30 3103 H 305.468 -0.655303 -0.107114 0
M  V30 3104 H 307.998 -2.02364 0.301653 0
M  V30 3105 H 308.008 -3.86377 -1.31061 0
M  V30 3106 H 306.683 -4.1544 -0.195504 0
M  V30 3107 H 305.26 -3.26708 -1.79767 0
M  V30 3108 N 307.445 0.0818655 -1.57387 0
M  V30 3109 C 308.693 0.781368 -1.86384 0
M  V30 3110 C 309.014 1.78618 -0.782342 0
M  V30 3111 O 308.284 1.94976 0.190061 0
M  V30 3112 H 306.864 0.291562 -0.687751 0
M  V30 3113 H 309.526 0.060348 -1.94807 0
M  V30 3114 H 308.622 1.3038 -2.83562 0
M  V30 3115 N 308.923 1.53595 0.353017 0
M  V30 3116 C 309.886 1.80232 1.41594 0
M  V30 3117 C 310.886 0.673081 1.46035 0
M  V30 3118 O 312.076 0.941335 1.46576 0
M  V30 3119 C 309.208 1.93578 2.80607 0
M  V30 3120 H 310.401 2.75174 1.19244 0
M  V30 3121 H 307.954 1.44864 0.586872 0
M  V30 3122 H 308.689 1.00746 3.08254 0
M  V30 3123 H 308.474 2.75724 2.78781 0
M  V30 3124 H 309.964 2.15735 3.57558 0
M  V30 3125 N 310.401 -0.613514 1.45168 0
M  V30 3126 C 311.648 -1.37268 1.48875 0
M  V30 3127 C 311.976 -1.94077 0.128161 0
M  V30 3128 O 311.231 -1.75178 -0.872416 0
M  V30 3129 C 311.53 -2.54347 2.51083 0
M  V30 3130 C 311.196 -2.1572 3.95949 0
M  V30 3131 C 309.858 -2.04899 4.35396 0
M  V30 3132 C 312.21 -1.85485 4.87078 0
M  V30 3133 C 309.538 -1.62057 5.63875 0
M  V30 3134 C 311.89 -1.4413 6.15962 0
M  V30 3135 C 310.554 -1.31863 6.54346 0
M  V30 3136 H 309.824 -0.502299 0.544773 0
M  V30 3137 H 312.471 -0.694021 1.78481 0
M  V30 3138 H 310.776 -3.27524 2.15024 0
M  V30 3139 H 312.473 -3.12577 2.51191 0
M  V30 3140 H 309.063 -2.25066 3.64751 0
M  V30 3141 H 313.247 -1.92745 4.57343 0
M  V30 3142 H 308.503 -1.51177 5.92415 0
M  V30 3143 H 312.677 -1.19778 6.86022 0
M  V30 3144 H 310.304 -0.984392 7.538 0
M  V30 3145 N 311.879 -1.3236 -0.855495 0
M  V30 3146 C 312.826 -1.21225 -1.964 0
M  V30 3147 C 313.796 -0.0946204 -1.6583 0
M  V30 3148 O 314.981 -0.27002 -1.8888 0
M  V30 3149 C 312.121 -0.940419 -3.32039 0
M  V30 3150 C 311.234 -2.14276 -3.75113 0
M  V30 3151 C 310.369 -1.80648 -4.9954 0
M  V30 3152 C 309.408 -2.97208 -5.35102 0
M  V30 3153 N 308.545 -2.63678 -6.50706 0
M  V30 3154 H 313.385 -2.16042 -2.05255 0
M  V30 3155 H 310.922 -1.07451 -1.00463 0
M  V30 3156 H 312.88 -0.763311 -4.10158 0
M  V30 3157 H 311.51 -0.0290413 -3.22787 0
M  V30 3158 H 310.562 -2.43017 -2.92655 0
M  V30 3159 H 311.874 -3.01468 -3.97389 0
M  V30 3160 H 311.028 -1.59484 -5.85363 0
M  V30 3161 H 309.767 -0.906678 -4.79198 0
M  V30 3162 H 308.772 -3.19004 -4.47791 0
M  V30 3163 H 309.997 -3.87918 -5.57401 0
M  V30 3164 H 307.943 -1.76238 -6.31883 0
M  V30 3165 H 307.86 -3.444 -6.72997 0
M  V30 3166 H 309.128 -2.45942 -7.39684 0
M  V30 3167 N 313.357 1.07166 -1.15556 0
M  V30 3168 C 314.597 1.81391 -0.94216 0
M  V30 3169 C 314.961 1.84788 0.521272 0
M  V30 3170 O 316.162 2.54904 0.85307 0
M  V30 3171 C 314.433 3.22431 -1.54185 0
M  V30 3172 S 315.992 4.13379 -1.47183 0
M  V30 3173 H 312.81 0.624963 -0.339031 0
M  V30 3174 H 315.412 1.28725 -1.4714 0
M  V30 3175 H 314.116 3.17548 -2.59984 0
M  V30 3176 H 313.647 3.80172 -1.01156 0
M  V30 3177 H 315.662 4.94007 -0.466004 0
M  V30 3178 N 314.835 0.952656 1.25548 0
M  V30 3179 C 315.765 0.489287 2.28316 0
M  V30 3180 C 316.746 -0.463359 1.63667 0
M  V30 3181 O 317.931 -0.36274 1.90782 0
M  V30 3182 C 315.061 -0.235603 3.465 0
M  V30 3183 C 314.015 0.631593 4.23314 0
M  V30 3184 C 313.341 -0.223923 5.34231 0
M  V30 3185 C 314.641 1.90871 4.86174 0
M  V30 3186 H 316.335 1.34822 2.67326 0
M  V30 3187 H 313.881 0.649728 1.28509 0
M  V30 3188 H 315.834 -0.570882 4.17515 0
M  V30 3189 H 314.558 -1.12877 3.06474 0
M  V30 3190 H 313.217 0.949929 3.54079 0
M  V30 3191 H 312.865 -1.11678 4.90446 0
M  V30 3192 H 312.565 0.35299 5.86539 0
M  V30 3193 H 314.089 -0.554214 6.0808 0
M  V30 3194 H 315.503 1.63997 5.49343 0
M  V30 3195 H 313.9 2.43112 5.4865 0
M  V30 3196 H 314.97 2.61304 4.08471 0
M  V30 3197 N 316.313 -1.40141 0.720998 0
M  V30 3198 C 317.26 -2.30688 0.071919 0
M  V30 3199 C 318.23 -1.48476 -0.744584 0
M  V30 3200 O 319.415 -1.77201 -0.707423 0
M  V30 3201 C 316.555 -3.34724 -0.839855 0
M  V30 3202 C 315.668 -4.31998 -0.0122438 0
M  V30 3203 C 314.803 -5.23102 -0.923995 0
M  V30 3204 C 313.842 -6.12033 -0.0907969 0
M  V30 3205 N 312.979 -6.95537 -0.957718 0
M  V30 3206 H 317.819 -2.85628 0.849755 0
M  V30 3207 H 315.356 -1.40653 0.430726 0
M  V30 3208 H 317.314 -3.93618 -1.38279 0
M  V30 3209 H 315.944 -2.81274 -1.58381 0
M  V30 3210 H 314.996 -3.74841 0.64794 0
M  V30 3211 H 316.308 -4.94772 0.632595 0
M  V30 3212 H 315.462 -5.86953 -1.53527 0
M  V30 3213 H 314.201 -4.60615 -1.60264 0
M  V30 3214 H 313.206 -5.47207 0.533377 0
M  V30 3215 H 314.431 -6.76581 0.584428 0
M  V30 3216 H 312.377 -6.35633 -1.62192 0
M  V30 3217 H 312.294 -7.55099 -0.36904 0
M  V30 3218 H 313.562 -7.63832 -1.555 0
M  V30 3219 N 317.792 -0.46758 -1.50504 0
M  V30 3220 C 319.069 0.15003 -1.95024 0
M  V30 3221 C 319.449 1.57304 -1.40779 0
M  V30 3222 O 318.797 2.20281 -0.607319 0
M  V30 3223 C 319.007 0.0969324 -3.48865 0
M  V30 3224 C 320.355 0.287565 -4.23625 0
M  V30 3225 O 321.379 0.173678 -3.55776 0
M  V30 3226 O 320.238 0.517186 -5.44047 0
M  V30 3227 H 317.332 0.113582 -0.819163 0
M  V30 3228 H 319.878 -0.52773 -1.61286 0
M  V30 3229 H 318.65 -0.896732 -3.80886 0
M  V30 3230 H 318.273 0.816303 -3.8913 0
M  V30 3231 N 319.27 1.56325 -0.20005 0
M  V30 3232 C 320.518 1.97329 0.436547 0
M  V30 3233 C 320.839 1.08826 1.61808 0
M  V30 3234 O 320.109 0.160604 1.95241 0
M  V30 3235 H 318.689 0.728714 0.164272 0
M  V30 3236 H 321.351 1.92761 -0.287937 0
M  V30 3237 H 320.447 3.02264 0.777353 0
M  V30 3238 N 320.748 -0.0735177 1.57428 0
M  V30 3239 C 321.711 -1.07192 2.02589 0
M  V30 3240 C 322.711 -1.31695 0.922661 0
M  V30 3241 O 323.901 -1.27445 1.18758 0
M  V30 3242 C 321.033 -2.41599 2.40506 0
M  V30 3243 H 322.226 -0.682727 2.92025 0
M  V30 3244 H 319.779 -0.319193 1.53006 0
M  V30 3245 H 320.514 -2.85354 1.5409 0
M  V30 3246 H 320.299 -2.25156 3.21009 0
M  V30 3247 H 321.789 -3.13367 2.76027 0
M  V30 3248 N 322.226 -1.5378 -0.344866 0
M  V30 3249 C 323.474 -1.70625 -1.08311 0
M  V30 3250 C 323.795 -0.471447 -1.89215 0
M  V30 3251 O 323.065 0.514616 -1.8902 0
M  V30 3252 H 321.645 -0.629058 -0.402859 0
M  V30 3253 H 324.307 -1.9103 -0.386459 0
M  V30 3254 H 323.403 -2.57656 -1.76124 0
M  V30 3255 N 323.704 0.605807 -1.45491 0
M  V30 3256 C 324.981 1.36522 -1.40075 0
M  V30 3257 C 325.361 2.10976 -0.0722744 0
M  V30 3258 O 324.709 2.08007 0.945808 0
M  V30 3259 C 324.919 2.31056 -2.61561 0
M  V30 3260 C 326.267 2.93608 -3.06724 0
M  V30 3261 O 327.291 2.41376 -2.61946 0
M  V30 3262 O 326.15 3.88421 -3.84437 0
M  V30 3263 H 323.244 0.612248 -0.555951 0
M  V30 3264 H 325.79 0.628747 -1.57623 0
M  V30 3265 H 324.562 1.75311 -3.49831 0
M  V30 3266 H 324.185 3.12081 -2.46356 0
M  V30 3267 N 325.182 1.32811 0.848464 0
M  V30 3268 C 326.428 1.23907 1.60546 0
M  V30 3269 C 326.761 -0.197161 1.93197 0
M  V30 3270 O 326.036 -1.13596 1.5788 0
M  V30 3271 C 326.319 2.10489 2.92175 0
M  V30 3272 C 326.172 3.62522 2.66266 0
M  V30 3273 C 327.491 1.97075 3.93509 0
M  V30 3274 H 324.61 0.451459 0.58254 0
M  V30 3275 H 327.252 1.62818 0.979296 0
M  V30 3276 H 325.402 1.77434 3.45614 0
M  V30 3277 H 327.074 4.05821 2.19334 0
M  V30 3278 H 325.317 3.84879 2.00126 0
M  V30 3279 H 325.988 4.18437 3.6002 0
M  V30 3280 H 328.464 2.26045 3.49346 0
M  V30 3281 H 327.34 2.59923 4.83457 0
M  V30 3282 H 327.601 0.940186 4.31987 0
M  V30 3283 N 326.66 -1.06551 1.16123 0
M  V30 3284 C 327.623 -2.12132 0.867906 0
M  V30 3285 C 328.623 -1.60224 -0.135944 0
M  V30 3286 O 329.813 -1.73943 0.0946422 0
M  V30 3287 C 326.945 -3.396 0.297419 0
M  V30 3288 H 328.138 -2.39586 1.80385 0
M  V30 3289 H 325.691 -1.22574 0.969812 0
M  V30 3290 H 326.426 -3.17794 -0.64633 0
M  V30 3291 H 326.211 -3.78581 1.02073 0
M  V30 3292 H 327.701 -4.17455 0.110052 0
M  V30 3293 N 328.138 -0.959301 -1.25041 0
M  V30 3294 C 329.385 -0.616611 -1.92884 0
M  V30 3295 C 329.713 0.847036 -1.75087 0
M  V30 3296 O 328.968 1.62374 -1.09239 0
M  V30 3297 C 329.267 -0.927136 -3.45165 0
M  V30 3298 C 328.933 -2.37757 -3.83122 0
M  V30 3299 C 327.595 -2.77402 -3.93194 0
M  V30 3300 C 329.947 -3.31929 -4.01836 0
M  V30 3301 C 327.275 -4.10277 -4.19392 0
M  V30 3302 C 329.627 -4.64423 -4.29528 0
M  V30 3303 C 328.291 -5.03857 -4.37818 0
M  V30 3304 H 327.561 -0.225634 -0.705812 0
M  V30 3305 H 330.208 -1.20921 -1.48493 0
M  V30 3306 H 328.513 -0.252195 -3.90987 0
M  V30 3307 H 330.21 -0.6405 -3.95852 0
M  V30 3308 H 326.8 -2.06013 -3.75841 0
M  V30 3309 H 330.984 -3.02488 -3.93465 0
M  V30 3310 H 326.24 -4.40467 -4.24027 0
M  V30 3311 H 330.414 -5.37369 -4.42953 0
M  V30 3312 H 328.041 -6.06843 -4.57871 0
M  V30 3313 N 329.616 1.39756 -0.72842 0
M  V30 3314 C 330.862 2.00942 -0.273892 0
M  V30 3315 C 331.195 1.57656 1.13394 0
M  V30 3316 O 330.47 0.802434 1.77176 0
M  V30 3317 C 330.753 3.58211 -0.368346 0
M  V30 3318 C 330.606 4.11534 -1.81548 0
M  V30 3319 C 331.925 4.39372 0.253054 0
M  V30 3320 H 329.044 0.730047 -0.100996 0
M  V30 3321 H 331.686 1.66056 -0.923337 0
M  V30 3322 H 329.836 3.88061 0.184588 0
M  V30 3323 H 331.508 3.92431 -2.42478 0
M  V30 3324 H 329.751 3.65341 -2.33898 0
M  V30 3325 H 330.422 5.20682 -1.83288 0
M  V30 3326 H 332.898 4.15527 -0.218224 0
M  V30 3327 H 331.774 5.48677 0.156585 0
M  V30 3328 H 332.035 4.21358 1.33826 0
M  V30 3329 N 331.094 0.475555 1.50254 0
M  V30 3330 C 332.041 -0.316293 2.28622 0
M  V30 3331 C 333.011 -0.983227 1.33873 0
M  V30 3332 O 334.196 -0.994805 1.62814 0
M  V30 3333 C 331.336 -1.38975 3.1588 0
M  V30 3334 C 330.449 -0.737146 4.25664 0
M  V30 3335 C 329.584 -1.78887 5.00173 0
M  V30 3336 C 328.623 -1.11676 6.01826 0
M  V30 3337 N 327.76 -2.11154 6.69596 0
M  V30 3338 H 332.6 0.358297 2.95838 0
M  V30 3339 H 330.137 0.188541 1.45887 0
M  V30 3340 H 332.095 -2.02383 3.64825 0
M  V30 3341 H 330.725 -2.03344 2.50701 0
M  V30 3342 H 329.777 0.0096065 3.80399 0
M  V30 3343 H 331.089 -0.206816 4.98371 0
M  V30 3344 H 330.243 -2.49865 5.52859 0
M  V30 3345 H 328.982 -2.35302 4.27182 0
M  V30 3346 H 327.987 -0.392633 5.48396 0
M  V30 3347 H 329.212 -0.55945 6.76792 0
M  V30 3348 H 327.158 -2.66577 5.99394 0
M  V30 3349 H 327.075 -1.63118 7.38193 0
M  V30 3350 H 328.343 -2.81497 7.26897 0
M  V30 3351 N 332.573 -1.56217 0.208337 0
M  V30 3352 C 333.523 -2.16324 -0.720281 0
M  V30 3353 C 334.507 -1.10775 -1.16695 0
M  V30 3354 O 335.699 -1.36801 -1.12314 0
M  V30 3355 C 332.828 -2.83644 -1.93393 0
M  V30 3356 C 331.914 -3.96401 -1.50755 0
M  V30 3357 N 332.305 -4.99546 -0.792937 0
M  V30 3358 C 330.603 -4.08246 -1.79585 0
M  V30 3359 C 331.304 -5.78828 -0.577364 0
M  V30 3360 N 330.28 -5.31723 -1.1301 0
M  V30 3361 H 334.082 -2.93432 -0.165725 0
M  V30 3362 H 331.596 -1.62397 0.00906463 0
M  V30 3363 H 333.593 -3.25107 -2.60981 0
M  V30 3364 H 332.253 -2.08027 -2.49308 0
M  V30 3365 H 333.264 -5.15967 -0.447004 0
M  V30 3366 H 329.941 -3.4377 -2.36915 0
M  V30 3367 H 331.331 -6.71899 -0.00952956 0
M  V30 3368 N 334.051 0.0651679 -1.57465 0
M  V30 3369 C 335.276 0.779605 -1.9219 0
M  V30 3370 C 335.701 1.69988 -0.805333 0
M  V30 3371 O 335.059 1.79685 0.241435 0
M  V30 3372 C 335.107 1.54364 -3.2589 0
M  V30 3373 O 334.211 2.65474 -3.1559 0
M  V30 3374 H 333.552 0.212249 -0.629163 0
M  V30 3375 H 336.082 0.0314294 -2.04576 0
M  V30 3376 H 336.092 1.92146 -3.59922 0
M  V30 3377 H 334.767 0.868457 -4.06732 0
M  V30 3378 H 333.344 2.30501 -2.93128 0
M  V30 3379 N 335.529 1.53961 0.336706 0
M  V30 3380 C 336.757 1.75483 1.09605 0
M  V30 3381 C 337.172 0.4972 1.82136 0
M  V30 3382 O 336.529 -0.53149 1.74589 0
M  V30 3383 C 336.58 2.93943 2.10428 0
M  V30 3384 O 336.301 4.14842 1.40846 0
M  V30 3385 C 337.802 3.27571 2.98684 0
M  V30 3386 H 335.022 0.586166 0.326574 0
M  V30 3387 H 337.566 2.00808 0.38683 0
M  V30 3388 H 335.721 2.70929 2.76905 0
M  V30 3389 H 336.135 4.81383 2.08255 0
M  V30 3390 H 337.609 4.13791 3.6535 0
M  V30 3391 H 338.086 2.44168 3.65074 0
M  V30 3392 H 338.692 3.52615 2.37787 0
M  V30 3393 N 337.007 -0.598083 1.45811 0
M  V30 3394 C 338.256 -1.35295 1.49594 0
M  V30 3395 C 338.569 -1.95057 0.145679 0
M  V30 3396 O 339.775 -2.71431 0.0612099 0
M  V30 3397 C 338.231 -2.45124 2.63519 0
M  V30 3398 C 337.839 -1.91732 4.04899 0
M  V30 3399 C 339.583 -3.2205 2.76558 0
M  V30 3400 C 337.49 -2.991 5.1019 0
M  V30 3401 H 336.42 -0.508552 0.556679 0
M  V30 3402 H 339.071 -0.639977 1.71978 0
M  V30 3403 H 337.453 -3.19149 2.34435 0
M  V30 3404 H 338.627 -1.24352 4.43704 0
M  V30 3405 H 336.942 -1.27522 3.96393 0
M  V30 3406 H 339.539 -4.0215 3.52391 0
M  V30 3407 H 339.882 -3.73663 1.83526 0
M  V30 3408 H 340.415 -2.55127 3.05213 0
M  V30 3409 H 337.154 -2.52393 6.04961 0
M  V30 3410 H 336.674 -3.65017 4.75944 0
M  V30 3411 H 338.353 -3.63318 5.35359 0
M  V30 3412 N 338.485 -1.33259 -0.841409 0
M  V30 3413 C 339.732 -1.24572 -1.5965 0
M  V30 3414 C 340.06 0.189137 -1.93578 0
M  V30 3415 O 339.315 1.14566 -1.5866 0
M  V30 3416 C 339.614 -2.06381 -2.9179 0
M  V30 3417 C 339.28 -3.556 -2.77235 0
M  V30 3418 C 337.942 -3.96282 -2.72973 0
M  V30 3419 C 340.294 -4.50433 -2.62221 0
M  V30 3420 C 337.622 -5.30017 -2.51592 0
M  V30 3421 C 339.974 -5.84327 -2.42374 0
M  V30 3422 C 338.638 -6.24194 -2.36512 0
M  V30 3423 H 337.908 -0.455842 -0.5842 0
M  V30 3424 H 340.555 -1.6482 -0.975016 0
M  V30 3425 H 338.86 -1.58903 -3.5813 0
M  V30 3426 H 340.557 -1.97019 -3.49263 0
M  V30 3427 H 337.147 -3.23298 -2.81384 0
M  V30 3428 H 341.331 -4.19914 -2.64549 0
M  V30 3429 H 336.587 -5.59947 -2.45499 0
M  V30 3430 H 340.761 -6.57414 -2.29739 0
M  V30 3431 H 338.388 -7.27759 -2.19706 0
M  V30 3432 N 339.963 1.05934 -1.16686 0
M  V30 3433 C 340.873 2.17014 -0.891183 0
M  V30 3434 C 341.889 1.73453 0.137907 0
M  V30 3435 O 343.065 2.01361 -0.039592 0
M  V30 3436 C 340.13 3.44384 -0.400099 0
M  V30 3437 C 339.191 4.02433 -1.49486 0
M  V30 3438 C 338.424 5.23723 -1.02711 0
M  V30 3439 O 338.647 5.7027 0.121716 0
M  V30 3440 O 337.581 5.7382 -1.81699 0
M  V30 3441 H 341.407 2.43113 -1.82015 0
M  V30 3442 H 338.992 1.15541 -0.947132 0
M  V30 3443 H 340.874 4.21189 -0.133392 0
M  V30 3444 H 339.549 3.19802 0.500817 0
M  V30 3445 H 338.456 3.27102 -1.81535 0
M  V30 3446 H 339.789 4.31317 -2.37121 0
M  V30 3447 N 341.441 0.965919 1.2453 0
M  V30 3448 C 342.389 0.486506 2.27455 0
M  V30 3449 C 343.383 -0.449041 1.6334 0
M  V30 3450 O 344.589 -0.324527 1.7705 0
M  V30 3451 H 340.964 0.138857 0.739069 0
M  V30 3452 H 342.935 1.3666 2.65267 0
M  V30 3453 C 341.684 -0.209481 3.47068 0
M  V30 3454 H 341.007 0.50129 3.96645 0
M  V30 3455 H 342.447 -0.508775 4.20936 0
M  V30 3456 C 340.906 -1.43586 3.0477 0
M  V30 3457 O 341.436 -2.53299 3.11773 0
M  V30 3458 N 339.642 -1.30126 2.59838 0
M  V30 3459 H 339.189 -0.408583 2.54339 0
M  V30 3460 H 339.147 -2.12294 2.31902 0
M  V30 3461 N 342.919 -1.39368 0.735821 0
M  V30 3462 C 343.849 -2.33234 0.111506 0
M  V30 3463 C 344.83 -1.53954 -0.723334 0
M  V30 3464 O 346.015 -1.82344 -0.668147 0
M  V30 3465 C 343.145 -3.38057 -0.795917 0
M  V30 3466 C 342.099 -4.2795 -0.065172 0
M  V30 3467 C 341.425 -5.23479 -1.08967 0
M  V30 3468 C 342.725 -5.10741 1.09273 0
M  V30 3469 H 344.419 -2.85692 0.895571 0
M  V30 3470 H 341.965 -1.37364 0.432109 0
M  V30 3471 H 343.918 -4.02675 -1.24221 0
M  V30 3472 H 342.642 -2.8404 -1.61211 0
M  V30 3473 H 341.301 -3.64813 0.361511 0
M  V30 3474 H 340.949 -4.65758 -1.89944 0
M  V30 3475 H 340.649 -5.84472 -0.605489 0
M  V30 3476 H 342.173 -5.90974 -1.53565 0
M  V30 3477 H 343.587 -5.68699 0.724841 0
M  V30 3478 H 341.984 -5.8088 1.50659 0
M  V30 3479 H 343.054 -4.45525 1.91404 0
M  V30 3480 N 344.397 -0.483516 -1.5 0
M  V30 3481 C 345.36 0.292965 -2.2732 0
M  V30 3482 C 346.36 0.909499 -1.32608 0
M  V30 3483 O 347.55 0.776745 -1.55924 0
M  V30 3484 C 344.682 1.41854 -3.09984 0
M  V30 3485 H 345.875 -0.385289 -2.97415 0
M  V30 3486 H 343.428 -0.237942 -1.54478 0
M  V30 3487 H 344.163 2.13148 -2.44414 0
M  V30 3488 H 343.948 0.982114 -3.79601 0
M  V30 3489 H 345.438 1.96597 -3.68429 0
M  V30 3490 N 345.875 1.56104 -0.216619 0
M  V30 3491 C 346.823 2.21434 0.712036 0
M  V30 3492 C 347.817 1.19218 1.20348 0
M  V30 3493 O 349.023 1.3731 1.16387 0
M  V30 3494 H 345.398 0.70992 0.248026 0
M  V30 3495 H 347.369 2.98083 0.137558 0
M  V30 3496 C 346.118 2.90434 1.91163 0
M  V30 3497 H 345.441 3.68842 1.54258 0
M  V30 3498 H 346.881 3.39552 2.5393 0
M  V30 3499 C 345.34 1.92635 2.76394 0
M  V30 3500 O 345.87 1.44017 3.74996 0
M  V30 3501 N 344.076 1.60392 2.42328 0
M  V30 3502 H 343.623 2.00122 1.622 0
M  V30 3503 H 343.581 0.952159 2.99635 0
M  V30 3504 N 347.353 -0.0568162 1.57498 0
M  V30 3505 C 348.3 -1.06591 2.04712 0
M  V30 3506 C 349.27 -1.3758 0.930644 0
M  V30 3507 O 350.455 -1.48392 1.19935 0
M  V30 3508 C 347.595 -2.3701 2.50839 0
M  V30 3509 C 346.708 -2.12421 3.76167 0
M  V30 3510 C 345.843 -3.36511 4.11015 0
M  V30 3511 C 344.882 -3.07353 5.2934 0
M  V30 3512 N 344.019 -4.23816 5.59754 0
M  V30 3513 H 348.859 -0.65631 2.90683 0
M  V30 3514 H 346.396 -0.312481 1.43743 0
M  V30 3515 H 348.354 -3.13175 2.7564 0
M  V30 3516 H 346.984 -2.75744 1.67825 0
M  V30 3517 H 346.036 -1.2688 3.58616 0
M  V30 3518 H 347.348 -1.86894 4.62463 0
M  V30 3519 H 346.502 -4.21062 4.36797 0
M  V30 3520 H 345.241 -3.65128 3.23315 0
M  V30 3521 H 344.246 -2.212 5.03339 0
M  V30 3522 H 345.471 -2.80043 6.1867 0
M  V30 3523 H 343.417 -4.52436 4.75014 0
M  V30 3524 H 343.334 -4.01614 6.40501 0
M  V30 3525 H 344.602 -5.0932 5.90096 0
M  V30 3526 N 348.832 -1.54138 -0.328536 0
M  V30 3527 C 349.795 -1.82462 -1.38709 0
M  V30 3528 C 350.795 -0.696229 -1.44946 0
M  V30 3529 O 351.985 -0.964535 -1.4506 0
M  V30 3530 C 349.117 -1.98018 -2.77492 0
M  V30 3531 H 350.31 -2.77037 -1.14851 0
M  V30 3532 H 347.863 -1.45779 -0.563751 0
M  V30 3533 H 348.598 -1.05637 -3.06613 0
M  V30 3534 H 348.383 -2.80124 -2.74359 0
M  V30 3535 H 349.873 -2.21396 -3.54081 0
M  V30 3536 N 350.31 0.590341 -1.46126 0
M  V30 3537 C 351.587 1.35029 -1.41515 0
M  V30 3538 C 351.967 2.10888 -0.0946472 0
M  V30 3539 O 351.315 2.08998 0.923693 0
M  V30 3540 C 351.525 2.28269 -2.63997 0
M  V30 3541 C 352.873 2.90338 -3.09821 0
M  V30 3542 O 353.897 2.38585 -2.64492 0
M  V30 3543 O 352.756 3.84321 -3.88535 0
M  V30 3544 H 349.85 0.606317 -0.562413 0
M  V30 3545 H 352.396 0.611994 -1.58281 0
M  V30 3546 H 351.168 1.71591 -3.51671 0
M  V30 3547 H 350.791 3.0945 -2.49652 0
M  V30 3548 N 351.788 1.33704 0.83433 0
M  V30 3549 C 353.204 1.13137 1.12571 0
M  V30 3550 C 353.404 -0.0747261 2.01361 0
M  V30 3551 O 352.46 -0.753647 2.4099 0
M  V30 3552 C 353.773 2.42105 1.78342 0
M  V30 3553 C 355.321 2.48054 1.90888 0
M  V30 3554 C 355.796 3.76995 2.60075 0
M  V30 3555 N 357.287 3.78092 2.67584 0
M  V30 3556 C 358.022 4.74574 3.21818 0
M  V30 3557 N 357.518 5.81434 3.76705 0
M  V30 3558 N 359.311 4.62044 3.20112 0
M  V30 3559 H 351.462 2.11 0.243489 0
M  V30 3560 H 353.725 0.932532 0.17055 0
M  V30 3561 H 353.431 3.30391 1.20561 0
M  V30 3562 H 353.305 2.54594 2.7832 0
M  V30 3563 H 355.692 1.60215 2.47821 0
M  V30 3564 H 355.773 2.39502 0.898459 0
M  V30 3565 H 355.417 4.65219 2.03799 0
M  V30 3566 H 355.347 3.82825 3.61597 0
M  V30 3567 H 357.838 3.00865 2.28667 0
M  V30 3568 H 358.151 6.51084 4.16305 0
M  V30 3569 H 356.496 5.85163 3.7498 0
M  V30 3570 H 359.687 3.77716 2.76493 0
M  V30 3571 H 359.86 5.37406 3.62076 0
M  V30 3572 N 353.266 -1.05314 1.17247 0
M  V30 3573 C 354.543 -1.75184 0.87005 0
M  V30 3574 C 354.923 -2.01481 -0.629965 0
M  V30 3575 O 354.271 -1.64988 -1.58086 0
M  V30 3576 C 354.481 -3.04594 1.70363 0
M  V30 3577 C 355.829 -3.78567 1.92281 0
M  V30 3578 O 356.853 -3.14461 1.67311 0
M  V30 3579 O 355.712 -4.93755 2.3424 0
M  V30 3580 H 352.806 -0.761729 0.322021 0
M  V30 3581 H 355.352 -1.11493 1.27935 0
M  V30 3582 H 354.124 -2.81201 2.72106 0
M  V30 3583 H 353.747 -3.76022 1.29202 0
M  V30 3584 N 354.744 -0.972509 -1.24016 0
M  V30 3585 C 355.676 -0.464375 -2.24446 0
M  V30 3586 C 356.689 0.4295 -1.57032 0
M  V30 3587 O 357.878 0.234902 -1.76948 0
M  V30 3588 C 354.978 0.348385 -3.37105 0
M  V30 3589 C 354.151 -0.53673 -4.34094 0
M  V30 3590 C 353.21 0.220838 -5.25736 0
M  V30 3591 O 352.236 -0.386867 -5.67884 0
M  V30 3592 N 353.438 1.50907 -5.60542 0
M  V30 3593 H 356.203 -1.32788 -2.68677 0
M  V30 3594 H 353.764 -0.844877 -1.38107 0
M  V30 3595 H 355.756 0.863341 -3.95384 0
M  V30 3596 H 354.326 1.11285 -2.92121 0
M  V30 3597 H 353.546 -1.23261 -3.74433 0
M  V30 3598 H 354.834 -1.14022 -4.95859 0
M  V30 3599 H 354.232 2.02444 -5.28236 0
M  V30 3600 H 352.789 1.96962 -6.21329 0
M  V30 3601 N 356.222 1.38976 -0.743202 0
M  V30 3602 C 357.452 2.04339 -0.304807 0
M  V30 3603 C 357.86 1.56162 1.06819 0
M  V30 3604 O 357.203 0.725284 1.68776 0
M  V30 3605 C 357.265 3.58716 -0.237369 0
M  V30 3606 C 356.929 4.29905 -1.55018 0
M  V30 3607 C 357.926 4.55987 -2.49744 0
M  V30 3608 C 355.611 4.68294 -1.81675 0
M  V30 3609 C 357.605 5.19478 -3.69353 0
M  V30 3610 C 355.292 5.31512 -3.0156 0
M  V30 3611 C 356.29 5.57037 -3.9522 0
M  V30 3612 O 355.978 6.18941 -5.12998 0
M  V30 3613 H 355.71 0.663439 -0.12971 0
M  V30 3614 H 358.264 1.78852 -1.01001 0
M  V30 3615 H 356.494 3.83133 0.524003 0
M  V30 3616 H 358.183 4.05543 0.170121 0
M  V30 3617 H 358.949 4.26767 -2.30423 0
M  V30 3618 H 354.828 4.47779 -1.09615 0
M  V30 3619 H 358.372 5.39318 -4.42473 0
M  V30 3620 H 354.269 5.60153 -3.20778 0
M  V30 3621 H 355.037 6.37433 -5.13441 0
M  V30 3622 N 357.7 0.491464 1.49741 0
M  V30 3623 C 358.61 -0.296835 2.32715 0
M  V30 3624 C 359.626 -0.976536 1.44013 0
M  V30 3625 O 360.802 -0.960023 1.77047 0
M  V30 3626 C 357.867 -1.35288 3.19215 0
M  V30 3627 C 356.928 -0.687632 4.23757 0
M  V30 3628 C 356.161 -1.69336 5.06123 0
M  V30 3629 O 356.384 -2.92219 4.89861 0
M  V30 3630 O 355.318 -1.25394 5.88693 0
M  V30 3631 H 359.144 0.382048 3.01287 0
M  V30 3632 H 356.729 0.252953 1.47243 0
M  V30 3633 H 358.611 -1.96411 3.72828 0
M  V30 3634 H 357.286 -2.01487 2.53347 0
M  V30 3635 H 356.193 -0.0369159 3.74082 0
M  V30 3636 H 357.526 -0.0682566 4.92153 0
M  V30 3637 N 359.178 -1.55987 0.224894 0
M  V30 3638 C 360.108 -2.23426 -0.678457 0
M  V30 3639 C 361.089 -1.20709 -1.19847 0
M  V30 3640 O 362.274 -1.49304 -1.24186 0
M  V30 3641 C 359.404 -2.91676 -1.88527 0
M  V30 3642 C 358.358 -4.00893 -1.49896 0
M  V30 3643 C 357.684 -4.56455 -2.78483 0
M  V30 3644 C 358.984 -5.17769 -0.686461 0
M  V30 3645 H 360.678 -2.99175 -0.116173 0
M  V30 3646 H 358.224 -1.43897 -0.054436 0
M  V30 3647 H 360.177 -3.37547 -2.5227 0
M  V30 3648 H 358.901 -2.1338 -2.47258 0
M  V30 3649 H 357.56 -3.55758 -0.884985 0
M  V30 3650 H 357.208 -3.74886 -3.35365 0
M  V30 3651 H 356.908 -5.30169 -2.53368 0
M  V30 3652 H 358.432 -5.05047 -3.43162 0
M  V30 3653 H 359.846 -5.60001 -1.22767 0
M  V30 3654 H 358.243 -5.97735 -0.532259 0
M  V30 3655 H 359.313 -4.83932 0.306196 0
M  V30 3656 N 360.656 0.0484629 -1.57525 0
M  V30 3657 C 361.586 1.0549 -2.08313 0
M  V30 3658 C 362.567 1.38929 -0.981463 0
M  V30 3659 O 363.752 1.48151 -1.25558 0
M  V30 3660 C 360.882 2.36162 -2.54646 0
M  V30 3661 C 359.836 2.17016 -3.68901 0
M  V30 3662 C 359.162 3.53278 -4.01371 0
M  V30 3663 C 360.462 1.57219 -4.98076 0
M  V30 3664 H 362.156 0.632195 -2.92649 0
M  V30 3665 H 359.702 0.302654 -1.40784 0
M  V30 3666 H 361.655 3.06882 -2.88793 0
M  V30 3667 H 360.379 2.80456 -1.67368 0
M  V30 3668 H 359.038 1.48733 -3.35073 0
M  V30 3669 H 358.686 3.95185 -3.11188 0
M  V30 3670 H 358.386 3.41299 -4.78318 0
M  V30 3671 H 359.91 4.25391 -4.38035 0
M  V30 3672 H 361.324 2.17832 -5.30304 0
M  V30 3673 H 359.721 1.55871 -5.79503 0
M  V30 3674 H 360.791 0.535956 -4.81929 0
M  V30 3675 N 362.134 1.5431 0.320358 0
M  V30 3676 C 363.374 1.74395 1.0661 0
M  V30 3677 C 363.738 0.508602 1.85141 0
M  V30 3678 O 364.939 0.586856 2.62316 0
M  V30 3679 C 363.21 2.98619 1.96371 0
M  V30 3680 S 364.769 3.39621 2.77854 0
M  V30 3681 H 361.587 0.613204 0.359863 0
M  V30 3682 H 364.189 1.9249 0.341727 0
M  V30 3683 H 362.893 3.86673 1.3752 0
M  V30 3684 H 362.424 2.83055 2.73209 0
M  V30 3685 H 364.439 2.95172 3.98858 0
M  V30 3686 N 363.613 -0.582584 1.46437 0
M  V30 3687 C 364.543 -1.70187 1.59871 0
M  V30 3688 C 365.524 -1.64066 0.449042 0
M  V30 3689 O 366.709 -1.82081 0.6753 0
M  V30 3690 C 363.839 -3.08827 1.58881 0
M  V30 3691 C 362.793 -3.29779 2.72819 0
M  V30 3692 C 362.119 -4.68947 2.5689 0
M  V30 3693 C 363.419 -3.17601 4.1464 0
M  V30 3694 H 365.113 -1.592 2.53566 0
M  V30 3695 H 362.659 -0.764472 1.22032 0
M  V30 3696 H 364.612 -3.86951 1.66873 0
M  V30 3697 H 363.336 -3.20713 0.617306 0
M  V30 3698 H 361.995 -2.54054 2.64296 0
M  V30 3699 H 361.643 -4.77599 1.57823 0
M  V30 3700 H 361.343 -4.83919 3.33312 0
M  V30 3701 H 362.867 -5.4924 2.66773 0
M  V30 3702 H 364.281 -3.8557 4.24274 0
M  V30 3703 H 362.678 -3.44094 4.9165 0
M  V30 3704 H 363.748 -2.14681 4.34788 0
M  V30 3705 N 365.091 -1.34144 -0.827227 0
M  V30 3706 C 366.368 -1.16844 -1.56865 0
M  V30 3707 C 366.748 0.260654 -2.09485 0
M  V30 3708 O 366.096 1.26138 -1.9053 0
M  V30 3709 C 366.306 -2.21939 -2.6934 0
M  V30 3710 C 367.654 -2.56695 -3.3822 0
M  V30 3711 O 368.678 -2.20695 -2.79593 0
M  V30 3712 O 367.537 -3.18518 -4.44082 0
M  V30 3713 H 364.631 -0.452669 -0.692112 0
M  V30 3714 H 367.177 -1.45763 -0.868973 0
M  V30 3715 H 365.949 -3.17882 -2.28182 0
M  V30 3716 H 365.572 -1.94172 -3.46962 0
M  V30 3717 N 366.569 1.04691 -1.17803 0
M  V30 3718 C 367.517 2.14665 -0.895635 0
M  V30 3719 C 368.511 1.68806 0.141679 0
M  V30 3720 O 369.717 1.79999 -0.00587914 0
M  V30 3721 H 366.092 0.701038 -0.272121 0
M  V30 3722 H 368.063 2.35685 -1.83017 0
M  V30 3723 C 366.812 3.45019 -0.430962 0
M  V30 3724 H 366.135 3.8071 -1.22064 0
M  V30 3725 H 367.575 4.23125 -0.272301 0
M  V30 3726 C 366.034 3.25943 0.852207 0
M  V30 3727 O 366.564 3.5296 1.91786 0
M  V30 3728 N 364.77 2.79304 0.802346 0
M  V30 3729 H 364.317 2.57518 -0.0650788 0
M  V30 3730 H 364.275 2.66921 1.66134 0
M  V30 3731 N 368.047 0.979072 1.23499 0
M  V30 3732 C 369.275 0.665202 1.95915 0
M  V30 3733 C 369.69 -0.767571 1.72493 0
M  V30 3734 O 369.047 -1.51635 1.01554 0
M  V30 3735 C 369.098 0.944438 3.48945 0
M  V30 3736 O 368.819 2.3209 3.71572 0
M  V30 3737 C 370.32 0.646336 4.38563 0
M  V30 3738 H 367.54 0.247218 0.623798 0
M  V30 3739 H 370.084 1.31009 1.57025 0
M  V30 3740 H 368.239 0.345575 3.85856 0
M  V30 3741 H 368.653 2.40957 4.65876 0
M  V30 3742 H 370.127 0.892091 5.44744 0
M  V30 3743 H 370.604 -0.419575 4.37191 0
M  V30 3744 H 371.21 1.22562 4.07258 0
M  V30 3745 N 369.525 -1.3858 0.750561 0
M  V30 3746 C 370.941 -1.53759 0.427824 0
M  V30 3747 C 371.141 -1.71401 -1.05943 0
M  V30 3748 O 370.197 -1.72331 -1.84549 0
M  V30 3749 C 371.51 -2.74642 1.22443 0
M  V30 3750 C 373.058 -2.88489 1.2142 0
M  V30 3751 C 373.533 -4.12329 1.9937 0
M  V30 3752 N 375.024 -4.194 1.96616 0
M  V30 3753 C 375.759 -5.14209 2.53727 0
M  V30 3754 N 375.255 -6.14709 3.19539 0
M  V30 3755 N 377.048 -5.06537 2.43673 0
M  V30 3756 H 369.199 -1.25377 1.71447 0
M  V30 3757 H 371.462 -0.608844 0.726645 0
M  V30 3758 H 371.168 -2.68 2.27747 0
M  V30 3759 H 371.042 -3.67745 0.839273 0
M  V30 3760 H 373.429 -2.94614 0.169232 0
M  V30 3761 H 373.51 -1.96406 1.63885 0
M  V30 3762 H 373.154 -4.06966 3.03877 0
M  V30 3763 H 373.084 -5.03486 1.54302 0
M  V30 3764 H 375.575 -3.47421 1.48684 0
M  V30 3765 H 375.888 -6.8354 3.60545 0
M  V30 3766 H 374.233 -6.1505 3.23633 0
M  V30 3767 H 377.424 -4.26962 1.91889 0
M  V30 3768 H 377.597 -5.80245 2.88479 0
M  V30 3769 N 371.003 -0.499398 -1.49478 0
M  V30 3770 C 371.95 0.279881 -2.29097 0
M  V30 3771 C 372.92 0.961805 -1.3542 0
M  V30 3772 O 374.105 0.968777 -1.64376 0
M  V30 3773 C 371.245 1.33932 -3.18051 0
M  V30 3774 C 370.358 0.669333 -4.26783 0
M  V30 3775 C 369.493 1.70907 -5.02955 0
M  V30 3776 C 368.532 1.02087 -6.03527 0
M  V30 3777 N 367.669 2.00474 -6.7287 0
M  V30 3778 H 372.509 -0.405317 -2.95231 0
M  V30 3779 H 370.046 -0.211726 -1.45568 0
M  V30 3780 H 372.004 1.96553 -3.67998 0
M  V30 3781 H 370.634 1.9933 -2.53904 0
M  V30 3782 H 369.686 -0.0701234 -3.80335 0
M  V30 3783 H 370.998 0.127503 -4.98637 0
M  V30 3784 H 370.152 2.41037 -5.56764 0
M  V30 3785 H 368.891 2.28476 -4.30871 0
M  V30 3786 H 367.896 0.305338 -5.48951 0
M  V30 3787 H 369.121 0.451708 -6.77596 0
M  V30 3788 H 367.067 2.57007 -6.03559 0
M  V30 3789 H 366.984 1.51353 -7.40694 0
M  V30 3790 H 368.252 2.69897 -7.31284 0
M  V30 3791 N 372.481 1.55866 -0.233164 0
M  V30 3792 C 373.892 1.847 0.272554 0
M  V30 3793 C 374.243 1.15477 1.58617 0
M  V30 3794 O 373.368 0.42841 2.12117 0
M  V30 3795 C 373.963 3.35071 0.501299 0
M  V30 3796 C 372.522 3.6418 0.951304 0
M  V30 3797 C 371.669 2.77292 0.0208209 0
M  V30 3798 H 374.62 1.52005 -0.456074 0
M  V30 3799 H 374.641 3.55906 1.34577 0
M  V30 3800 H 374.153 3.85424 -0.454936 0
M  V30 3801 H 372.254 3.19293 1.92049 0
M  V30 3802 H 372.367 4.72071 0.817675 0
M  V30 3803 H 370.731 2.49131 0.529723 0
M  V30 3804 H 371.514 3.30448 -0.93054 0
M  V30 3805 N 373.959 -0.0401083 1.57549 0
M  V30 3806 C 375.205 -0.734211 1.89043 0
M  V30 3807 C 375.538 -1.75591 0.829535 0
M  V30 3808 O 374.813 -1.93868 -0.156706 0
M  V30 3809 C 375.096 -1.41374 3.31188 0
M  V30 3810 C 374.949 -0.406299 4.47961 0
M  V30 3811 C 376.268 -2.35061 3.72068 0
M  V30 3812 H 373.387 -0.265447 0.687537 0
M  V30 3813 H 376.029 0.00294087 1.9 0
M  V30 3814 H 374.179 -2.04206 3.30503 0
M  V30 3815 H 375.851 0.219255 4.60779 0
M  V30 3816 H 374.094 0.275485 4.32924 0
M  V30 3817 H 374.765 -0.920022 5.44279 0
M  V30 3818 H 377.241 -1.82282 3.74049 0
M  V30 3819 H 376.117 -2.79593 4.72355 0
M  V30 3820 H 376.378 -3.21258 3.0372 0
M  V30 3821 N 375.437 -1.54477 -0.31217 0
M  V30 3822 C 376.714 -1.63891 -1.06767 0
M  V30 3823 C 377.094 -0.480028 -2.0557 0
M  V30 3824 O 376.442 0.524487 -2.22399 0
M  V30 3825 C 376.652 -3.01402 -1.75948 0
M  V30 3826 C 378 -3.57838 -2.28554 0
M  V30 3827 O 379.024 -3.03782 -1.85998 0
M  V30 3828 O 377.883 -4.52462 -3.06497 0
M  V30 3829 H 374.977 -0.664125 -0.492816 0
M  V30 3830 H 377.523 -1.66823 -0.311149 0
M  V30 3831 H 376.295 -3.77187 -1.04144 0
M  V30 3832 H 375.918 -3.02199 -2.58383 0
M  V30 3833 N 376.915 0.57481 -1.46744 0
M  V30 3834 C 377.825 1.711 -1.60505 0
M  V30 3835 C 378.841 1.67008 -0.488307 0
M  V30 3836 O 380.017 1.86774 -0.753495 0
M  V30 3837 C 377.082 3.07608 -1.59932 0
M  V30 3838 C 376.143 3.22904 -2.82898 0
M  V30 3839 C 375.376 4.529 -2.82343 0
M  V30 3840 O 375.599 5.37278 -1.91542 0
M  V30 3841 O 374.533 4.71611 -3.73987 0
M  V30 3842 H 378.359 1.62436 -2.56609 0
M  V30 3843 H 375.944 0.742779 -1.29627 0
M  V30 3844 H 377.826 3.88877 -1.62336 0
M  V30 3845 H 376.501 3.16692 -0.669898 0
M  V30 3846 H 375.408 2.41099 -2.86046 0
M  V30 3847 H 376.741 3.18715 -3.75076 0
M  V30 3848 N 378.394 1.34581 0.820102 0
M  V30 3849 C 379.624 1.29991 1.6058 0
M  V30 3850 C 380.032 -0.127588 1.88769 0
M  V30 3851 O 379.375 -1.08595 1.48165 0
M  V30 3852 C 379.437 2.02548 2.9701 0
M  V30 3853 C 379.101 3.51794 2.91701 0
M  V30 3854 C 380.098 4.46647 2.66087 0
M  V30 3855 C 377.783 3.94249 3.11245 0
M  V30 3856 C 379.777 5.81929 2.60071 0
M  V30 3857 C 377.464 5.2963 3.04853 0
M  V30 3858 C 378.462 6.23282 2.793 0
M  V30 3859 O 378.15 7.56181 2.72847 0
M  V30 3860 H 377.882 0.448539 0.505756 0
M  V30 3861 H 380.436 1.77811 1.02822 0
M  V30 3862 H 378.666 1.49345 3.56697 0
M  V30 3863 H 380.355 1.91211 3.58041 0
M  V30 3864 H 381.121 4.15168 2.5072 0
M  V30 3865 H 377 3.21749 3.30149 0
M  V30 3866 H 380.544 6.54999 2.40046 0
M  V30 3867 H 376.441 5.60727 3.19774 0
M  V30 3868 H 377.209 7.6595 2.88553 0
M  V30 3869 N 379.872 -1.04064 1.18357 0
M  V30 3870 C 380.819 -2.12077 0.910603 0
M  V30 3871 C 381.789 -1.65421 -0.15 0
M  V30 3872 O 382.974 -1.90797 -0.0103614 0
M  V30 3873 C 380.114 -3.42252 0.442472 0
M  V30 3874 C 379.227 -4.0252 1.5685 0
M  V30 3875 C 378.362 -5.20657 1.05309 0
M  V30 3876 C 377.401 -5.72955 2.1538 0
M  V30 3877 N 376.538 -6.8238 1.65233 0
M  V30 3878 H 381.378 -2.34764 1.83548 0
M  V30 3879 H 378.915 -1.15157 0.915279 0
M  V30 3880 H 380.873 -4.16921 0.152534 0
M  V30 3881 H 379.503 -3.19712 -0.445428 0
M  V30 3882 H 378.555 -3.25178 1.97391 0
M  V30 3883 H 379.867 -4.37362 2.39824 0
M  V30 3884 H 379.021 -6.0244 0.717677 0
M  V30 3885 H 377.76 -4.87318 0.19293 0
M  V30 3886 H 376.765 -4.89793 2.49766 0
M  V30 3887 H 377.99 -6.08337 3.01832 0
M  V30 3888 H 375.936 -6.50917 0.815064 0
M  V30 3889 H 375.853 -7.16286 2.41805 0
M  V30 3890 H 377.121 -7.67788 1.34619 0
M  V30 3891 N 381.35 -0.985608 -1.22978 0
M  V30 3892 C 382.627 -0.573599 -1.87001 0
M  V30 3893 C 383.007 0.949213 -1.88555 0
M  V30 3894 O 382.355 1.82811 -1.37086 0
M  V30 3895 C 382.565 -1.18564 -3.28243 0
M  V30 3896 C 383.913 -1.28163 -4.04796 0
M  V30 3897 O 384.937 -1.13949 -3.37482 0
M  V30 3898 O 383.796 -1.50832 -5.25273 0
M  V30 3899 H 380.89 -0.193868 -0.803955 0
M  V30 3900 H 383.436 -1.08102 -1.30813 0
M  V30 3901 H 382.208 -2.22758 -3.21706 0
M  V30 3902 H 381.831 -0.663363 -3.92027 0
M  V30 3903 N 382.828 1.3818 -0.7579 0
M  V30 3904 C 384.068 2.01864 -0.320968 0
M  V30 3905 C 384.432 1.58863 1.07827 0
M  V30 3906 O 385.633 2.14908 1.61456 0
M  V30 3907 C 383.904 3.54626 -0.44446 0
M  V30 3908 S 385.463 4.38706 -0.0907467 0
M  V30 3909 H 382.281 0.700056 -0.124268 0
M  V30 3910 H 384.883 1.68611 -0.989468 0
M  V30 3911 H 383.587 3.83411 -1.4637 0
M  V30 3912 H 383.118 3.92661 0.241073 0
M  V30 3913 H 385.133 4.83435 1.11826 0
M  V30 3914 N 384.306 0.507319 1.49211 0
M  V30 3915 C 385.256 -0.287112 2.26185 0
M  V30 3916 C 386.24 -0.929983 1.31302 0
M  V30 3917 O 387.432 -0.836538 1.55984 0
M  V30 3918 C 384.561 -1.34718 3.15763 0
M  V30 3919 C 383.647 -0.710235 4.18111 0
M  V30 3920 N 384.038 0.190836 5.0544 0
M  V30 3921 C 382.336 -0.97009 4.35322 0
M  V30 3922 C 383.037 0.55606 5.79036 0
M  V30 3923 N 382.013 -0.0775232 5.43545 0
M  V30 3924 H 385.815 0.406445 2.91076 0
M  V30 3925 H 383.329 0.323814 1.59139 0
M  V30 3926 H 385.326 -1.92982 3.69545 0
M  V30 3927 H 383.986 -2.04235 2.52424 0
M  V30 3928 H 384.997 0.562047 5.14841 0
M  V30 3929 H 381.674 -1.65753 3.83187 0
M  V30 3930 H 383.064 1.2936 6.5933 0
M  V30 3931 N 385.784 -1.5574 0.241426 0
M  V30 3932 C 386.714 -2.24133 -0.654722 0
M  V30 3933 C 387.695 -1.21974 -1.1856 0
M  V30 3934 O 388.88 -1.50612 -1.22595 0
M  V30 3935 C 386.01 -2.93659 -1.85423 0
M  V30 3936 C 384.964 -4.0246 -1.45636 0
M  V30 3937 C 384.29 -4.59383 -2.73626 0
M  V30 3938 C 385.59 -5.18468 -0.631506 0
M  V30 3939 H 387.284 -2.99281 -0.0844353 0
M  V30 3940 H 384.83 -1.43947 -0.0391707 0
M  V30 3941 H 386.783 -3.40203 -2.48676 0
M  V30 3942 H 385.507 -2.15991 -2.44981 0
M  V30 3943 H 384.166 -3.56676 -0.847202 0
M  V30 3944 H 383.814 -3.78422 -3.3137 0
M  V30 3945 H 383.514 -5.32826 -2.4773 0
M  V30 3946 H 385.038 -5.08658 -3.37786 0
M  V30 3947 H 386.452 -5.61272 -1.1682 0
M  V30 3948 H 384.849 -5.98266 -0.468831 0
M  V30 3949 H 385.919 -4.8358 0.357506 0
M  V30 3950 N 387.262 0.0317525 -1.57568 0
M  V30 3951 C 388.225 1.01783 -2.0536 0
M  V30 3952 C 389.225 1.29203 -0.957253 0
M  V30 3953 O 390.415 1.24251 -1.22095 0
M  V30 3954 C 387.547 2.35137 -2.46827 0
M  V30 3955 H 388.74 0.605062 -2.93733 0
M  V30 3956 H 386.293 0.278514 -1.53799 0
M  V30 3957 H 387.028 2.81168 -1.61602 0
M  V30 3958 H 386.813 2.16566 -3.26866 0
M  V30 3959 H 388.303 3.05938 -2.84239 0
M  V30 3960 N 388.74 1.54641 0.303973 0
M  V30 3961 C 389.672 1.81754 1.39636 0
M  V30 3962 C 390.685 0.70035 1.46966 0
M  V30 3963 O 391.874 0.97778 1.49338 0
M  V30 3964 C 388.974 1.93785 2.7803 0
M  V30 3965 C 388.147 3.24156 2.93669 0
M  V30 3966 C 387.206 3.26641 4.12544 0
M  V30 3967 O 386.232 4.00187 4.04771 0
M  V30 3968 N 387.434 2.5182 5.23036 0
M  V30 3969 H 390.199 2.76031 1.16734 0
M  V30 3970 H 387.76 1.54178 0.494033 0
M  V30 3971 H 389.752 1.92852 3.55795 0
M  V30 3972 H 388.322 1.06515 2.93893 0
M  V30 3973 H 387.542 3.37887 2.03042 0
M  V30 3974 H 388.83 4.10195 3.01027 0
M  V30 3975 H 388.228 1.91692 5.32232 0
M  V30 3976 H 386.785 2.56644 5.99147 0
M  V30 3977 N 390.218 -0.567019 1.47046 0
M  V30 3978 C 391.464 -1.32658 1.53394 0
M  V30 3979 C 391.797 -1.93254 0.19148 0
M  V30 3980 O 391.072 -1.77338 -0.798844 0
M  V30 3981 C 391.355 -2.44412 2.64452 0
M  V30 3982 C 391.208 -1.88749 4.08282 0
M  V30 3983 C 392.527 -3.46387 2.71485 0
M  V30 3984 H 389.646 -0.48098 0.558415 0
M  V30 3985 H 392.288 -0.635481 1.79058 0
M  V30 3986 H 390.438 -3.03363 2.427 0
M  V30 3987 H 392.11 -1.34134 4.41368 0
M  V30 3988 H 390.353 -1.19481 4.17021 0
M  V30 3989 H 391.024 -2.69491 4.81745 0
M  V30 3990 H 393.5 -2.9734 2.91081 0
M  V30 3991 H 392.376 -4.2202 3.50985 0
M  V30 3992 H 392.637 -4.04616 1.78153 0
M  V30 3993 N 391.696 -1.35014 -0.812953 0
M  V30 3994 C 393.107 -1.25035 -1.38648 0
M  V30 3995 C 393.458 0.119967 -1.95833 0
M  V30 3996 O 392.583 1.02069 -1.90816 0
M  V30 3997 C 393.178 -2.26394 -2.52054 0
M  V30 3998 C 391.737 -2.20175 -3.05287 0
M  V30 3999 C 390.884 -2.12451 -1.78213 0
M  V30 4000 H 393.835 -1.46235 -0.616516 0
M  V30 4001 H 393.856 -1.88672 -3.30429 0
M  V30 4002 H 393.368 -3.26116 -2.10404 0
M  V30 4003 H 391.469 -1.23841 -3.51417 0
M  V30 4004 H 391.582 -3.11863 -3.63701 0
M  V30 4005 H 389.946 -1.58328 -1.9951 0
M  V30 4006 H 390.729 -3.14024 -1.38723 0
M  V30 4007 N 393.175 1.03435 -1.18907 0
M  V30 4008 C 394.4 1.80919 -1.01406 0
M  V30 4009 C 394.825 1.83055 0.432721 0
M  V30 4010 O 394.183 1.25252 1.31079 0
M  V30 4011 C 394.231 3.24091 -1.58105 0
M  V30 4012 O 393.335 4.04434 -0.806669 0
M  V30 4013 H 392.676 0.558709 -0.358803 0
M  V30 4014 H 395.206 1.30223 -1.57807 0
M  V30 4015 H 395.216 3.74853 -1.61087 0
M  V30 4016 H 393.891 3.21851 -2.6341 0
M  V30 4017 H 392.468 3.63091 -0.849666 0
M  V30 4018 N 394.653 0.992116 1.22453 0
M  V30 4019 C 395.603 0.512969 2.22155 0
M  V30 4020 C 396.587 -0.418416 1.55364 0
M  V30 4021 O 397.779 -0.245363 1.75291 0
M  V30 4022 C 394.908 -0.171822 3.4287 0
M  V30 4023 C 393.994 0.779822 4.16869 0
M  V30 4024 N 394.385 1.92734 4.6764 0
M  V30 4025 C 392.683 0.59554 4.42006 0
M  V30 4026 C 393.384 2.52458 5.24061 0
M  V30 4027 N 392.36 1.80735 5.12675 0
M  V30 4028 H 396.162 1.38817 2.5905 0
M  V30 4029 H 393.676 0.854277 1.38115 0
M  V30 4030 H 395.673 -0.532469 4.13486 0
M  V30 4031 H 394.333 -1.04317 3.07487 0
M  V30 4032 H 395.344 2.30816 4.63621 0
M  V30 4033 H 392.021 -0.229805 4.16867 0
M  V30 4034 H 393.411 3.49433 5.73887 0
M  V30 4035 N 396.131 -1.37776 0.765217 0
M  V30 4036 C 397.359 -2.04124 0.337767 0
M  V30 4037 C 397.774 -1.57715 -1.03785 0
M  V30 4038 O 397.131 -0.755447 -1.6613 0
M  V30 4039 C 397.182 -3.59658 0.364442 0
M  V30 4040 O 396.903 -4.04367 1.68579 0
M  V30 4041 C 398.404 -4.43236 -0.0754221 0
M  V30 4042 H 395.624 -0.655696 0.142491 0
M  V30 4043 H 398.168 -1.76238 1.03732 0
M  V30 4044 H 396.323 -3.86339 -0.286471 0
M  V30 4045 H 396.737 -4.98857 1.61993 0
M  V30 4046 H 398.211 -5.52 -0.00560067 0
M  V30 4047 H 398.688 -4.2455 -1.12491 0
M  V30 4048 H 399.294 -4.21767 0.547055 0
M  V30 4049 N 397.609 -0.515225 -1.4894 0
M  V30 4050 C 398.855 0.0242508 -2.02785 0
M  V30 4051 C 399.188 1.35323 -1.39289 0
M  V30 4052 O 398.463 1.87041 -0.533469 0
M  V30 4053 C 398.746 0.16184 -3.59736 0
M  V30 4054 C 398.599 -1.19127 -4.33738 0
M  V30 4055 C 399.918 0.895719 -4.30888 0
M  V30 4056 H 397.037 0.00733914 -0.736963 0
M  V30 4057 H 399.679 -0.669395 -1.77818 0
M  V30 4058 H 397.829 0.752624 -3.8114 0
M  V30 4059 H 399.501 -1.82202 -4.23792 0
M  V30 4060 H 397.744 -1.77695 -3.95736 0
M  V30 4061 H 398.415 -1.04815 -5.41957 0
M  V30 4062 H 400.891 0.394528 -4.14225 0
M  V30 4063 H 399.767 0.960859 -5.40425 0
M  V30 4064 H 400.028 1.9427 -3.97129 0
M  V30 4065 N 399.087 1.5561 -0.249682 0
M  V30 4066 C 400.333 1.99306 0.374841 0
M  V30 4067 C 400.666 1.13767 1.57387 0
M  V30 4068 O 399.941 0.201711 1.93451 0
M  V30 4069 C 400.224 3.51507 0.781986 0
M  V30 4070 C 400.077 4.4781 -0.422629 0
M  V30 4071 C 401.396 4.08884 1.62793 0
M  V30 4072 H 398.515 0.724572 0.134773 0
M  V30 4073 H 401.157 1.86719 -0.351549 0
M  V30 4074 H 399.307 3.62363 1.4009 0
M  V30 4075 H 400.979 4.48931 -1.06108 0
M  V30 4076 H 399.222 4.20518 -1.06524 0
M  V30 4077 H 399.893 5.51919 -0.0943766 0
M  V30 4078 H 402.369 4.01147 1.10547 0
M  V30 4079 H 401.245 5.1564 1.88166 0
M  V30 4080 H 401.506 3.57515 2.60068 0
M  V30 4081 N 400.565 -0.0233959 1.57583 0
M  V30 4082 C 401.528 -1.00693 2.05897 0
M  V30 4083 C 402.528 -1.28693 0.964092 0
M  V30 4084 O 403.718 -1.23602 1.22753 0
M  V30 4085 C 400.85 -2.33825 2.4807 0
M  V30 4086 H 402.043 -0.589476 2.9405 0
M  V30 4087 H 399.596 -0.270354 1.53944 0
M  V30 4088 H 400.331 -2.80307 1.6309 0
M  V30 4089 H 400.116 -2.1483 3.2801 0
M  V30 4090 H 401.606 -3.04426 2.85857 0
M  V30 4091 N 402.043 -1.548 -0.295768 0
M  V30 4092 C 403.459 -1.4613 -0.641722 0
M  V30 4093 C 403.659 -0.656771 -1.90496 0
M  V30 4094 O 402.715 -0.166547 -2.5195 0
M  V30 4095 C 404.028 -2.90141 -0.789852 0
M  V30 4096 C 405.576 -3.00216 -0.885396 0
M  V30 4097 C 406.051 -4.45434 -1.06548 0
M  V30 4098 N 407.542 -4.49166 -1.13156 0
M  V30 4099 C 408.277 -5.58717 -1.28929 0
M  V30 4100 N 407.773 -6.78182 -1.41567 0
M  V30 4101 N 409.566 -5.46415 -1.31859 0
M  V30 4102 H 401.717 -2.05574 0.534147 0
M  V30 4103 H 403.98 -0.931259 0.177372 0
M  V30 4104 H 403.686 -3.51635 0.0675598 0
M  V30 4105 H 403.56 -3.37859 -1.67724 0
M  V30 4106 H 405.947 -2.38833 -1.73329 0
M  V30 4107 H 406.028 -2.55787 0.0261185 0
M  V30 4108 H 405.672 -5.07413 -0.222335 0
M  V30 4109 H 405.602 -4.87499 -1.9913 0
M  V30 4110 H 408.093 -3.631 -1.04721 0
M  V30 4111 H 408.406 -7.57428 -1.53372 0
M  V30 4112 H 406.751 -6.81037 -1.38613 0
M  V30 4113 H 409.942 -4.5203 -1.21601 0
M  V30 4114 H 410.115 -6.31841 -1.43808 0
M  V30 4115 N 403.521 0.559213 -1.47345 0
M  V30 4116 C 404.746 1.34676 -1.57725 0
M  V30 4117 C 405.171 1.86723 -0.227164 0
M  V30 4118 O 404.529 1.6286 0.796642 0
M  V30 4119 C 404.577 2.49399 -2.60447 0
M  V30 4120 O 403.681 3.51567 -2.15578 0
M  V30 4121 H 403.022 0.400115 -0.52991 0
M  V30 4122 H 405.552 0.676009 -1.93109 0
M  V30 4123 H 405.562 2.95996 -2.80803 0
M  V30 4124 H 404.237 2.10873 -3.58477 0
M  V30 4125 H 402.814 3.11289 -2.05313 0
M  V30 4126 N 404.999 1.35443 0.805782 0
M  V30 4127 C 405.932 1.22783 1.92353 0
M  V30 4128 C 406.91 0.115543 1.62189 0
M  V30 4129 O 408.094 0.283778 1.86352 0
M  V30 4130 C 405.221 0.890746 3.26777 0
M  V30 4131 C 404.267 2.01519 3.75889 0
M  V30 4132 S 405.1 3.63101 3.93596 0
M  V30 4133 C 406.256 3.31472 5.30921 0
M  V30 4134 H 406.489 2.17394 2.02798 0
M  V30 4135 H 404.022 1.20669 0.963245 0
M  V30 4136 H 405.98 0.703068 4.04434 0
M  V30 4137 H 404.641 -0.0373152 3.14078 0
M  V30 4138 H 403.834 1.7335 4.7325 0
M  V30 4139 H 403.436 2.16124 3.05231 0
M  V30 4140 H 405.728 2.8435 6.1494 0
M  V30 4141 H 406.671 4.28036 5.64084 0
M  V30 4142 H 407.079 2.67221 4.97246 0
M  V30 4143 N 406.477 -1.02803 1.19454 0
M  V30 4144 C 407.725 -1.75869 0.995722 0
M  V30 4145 C 408.046 -1.89138 -0.474543 0
M  V30 4146 O 407.316 -1.42558 -1.34366 0
M  V30 4147 H 405.896 -0.651511 0.365435 0
M  V30 4148 H 408.558 -1.24004 1.50363 0
M  V30 4149 H 407.654 -2.76661 1.44447 0
M  V30 4150 N 407.956 -0.998596 -1.21925 0
M  V30 4151 C 409.204 -0.676325 -1.90448 0
M  V30 4152 C 409.525 0.794719 -1.78071 0
M  V30 4153 O 408.795 1.5701 -1.17152 0
M  V30 4154 H 407.375 -0.247165 -0.704925 0
M  V30 4155 H 410.037 -1.26633 -1.48156 0
M  V30 4156 H 409.133 -0.943858 -2.97486 0
M  V30 4157 N 409.434 1.37368 -0.772513 0
M  V30 4158 C 410.381 2.30262 -0.157488 0
M  V30 4159 C 411.351 1.51137 0.688965 0
M  V30 4160 O 412.536 1.79704 0.641168 0
M  V30 4161 C 409.676 3.37611 0.715045 0
M  V30 4162 C 408.789 4.31746 -0.148098 0
M  V30 4163 C 407.924 5.26171 0.729213 0
M  V30 4164 C 406.963 6.11948 -0.136418 0
M  V30 4165 N 406.1 6.98613 0.698914 0
M  V30 4166 H 410.94 2.82277 -0.955179 0
M  V30 4167 H 408.477 1.38957 -0.482631 0
M  V30 4168 H 410.435 3.98479 1.23575 0
M  V30 4169 H 409.065 2.86959 1.47833 0
M  V30 4170 H 408.117 3.72178 -0.786613 0
M  V30 4171 H 409.429 4.92084 -0.81579 0
M  V30 4172 H 408.583 5.92247 1.31637 0
M  V30 4173 H 407.322 4.66246 1.43059 0
M  V30 4174 H 406.327 5.4485 -0.736102 0
M  V30 4175 H 407.552 6.73945 -0.835134 0
M  V30 4176 H 405.498 6.41215 1.38489 0
M  V30 4177 H 405.415 7.55948 0.0885358 0
M  V30 4178 H 406.683 7.69077 1.27044 0
M  V30 4179 N 410.912 0.523116 1.48665 0
M  V30 4180 C 411.822 -0.247406 2.33292 0
M  V30 4181 C 412.838 -0.945769 1.46052 0
M  V30 4182 O 414.014 -0.922253 1.79043 0
M  V30 4183 C 411.079 -1.28487 3.22012 0
M  V30 4184 C 410.14 -0.597592 4.2512 0
M  V30 4185 C 409.373 -1.58563 5.09601 0
M  V30 4186 O 409.596 -2.81763 4.95949 0
M  V30 4187 O 408.53 -1.12879 5.91221 0
M  V30 4188 H 412.356 0.445869 3.00409 0
M  V30 4189 H 409.941 0.284128 1.46673 0
M  V30 4190 H 411.823 -1.88459 3.7691 0
M  V30 4191 H 410.498 -1.96068 2.57564 0
M  V30 4192 H 409.405 0.0424407 3.74076 0
M  V30 4193 H 410.738 0.0361517 4.92187 0
M  V30 4194 N 412.39 -1.55475 0.257931 0
M  V30 4195 C 413.667 -1.91155 -0.414629 0
M  V30 4196 C 414.047 -1.18008 -1.75035 0
M  V30 4197 O 413.395 -0.301193 -2.26506 0
M  V30 4198 C 413.605 -3.44283 -0.571859 0
M  V30 4199 C 414.953 -4.15744 -0.862678 0
M  V30 4200 O 415.977 -3.50083 -0.657314 0
M  V30 4201 O 414.836 -5.31909 -1.2544 0
M  V30 4202 H 411.93 -0.796016 -0.22425 0
M  V30 4203 H 414.476 -1.66976 0.302814 0
M  V30 4204 H 413.248 -3.89558 0.368844 0
M  V30 4205 H 412.871 -3.7436 -1.33943 0
M  V30 4206 N 413.868 0.0150385 -1.57593 0
M  V30 4207 C 414.798 1.01047 -2.10503 0
M  V30 4208 C 415.779 1.36816 -1.01071 0
M  V30 4209 O 416.964 1.45455 -1.28672 0
M  V30 4210 C 414.094 2.30708 -2.59598 0
M  V30 4211 C 413.048 2.09142 -3.73421 0
M  V30 4212 C 412.374 3.44685 -4.08774 0
M  V30 4213 C 413.674 1.46619 -5.01298 0
M  V30 4214 H 415.368 0.569978 -2.93925 0
M  V30 4215 H 412.914 0.272724 -1.41394 0
M  V30 4216 H 414.867 3.00687 -2.95238 0
M  V30 4217 H 413.591 2.76843 -1.73279 0
M  V30 4218 H 412.25 1.41592 -3.38153 0
M  V30 4219 H 411.898 3.88495 -3.195 0
M  V30 4220 H 411.598 3.31077 -4.8545 0
M  V30 4221 H 413.122 4.16004 -4.4696 0
M  V30 4222 H 414.536 2.06535 -5.34805 0
M  V30 4223 H 412.933 1.43544 -5.82679 0
M  V30 4224 H 414.003 0.433611 -4.82957 0
M  V30 4225 N 415.346 1.54954 0.287554 0
M  V30 4226 C 416.595 1.74081 1.01877 0
M  V30 4227 C 416.908 0.541135 1.87966 0
M  V30 4228 O 418.114 0.614491 2.64455 0
M  V30 4229 C 416.57 3.08042 1.86113 0
M  V30 4230 C 416.178 4.35531 1.04961 0
M  V30 4231 C 417.922 3.36523 2.58752 0
M  V30 4232 C 415.829 5.60538 1.88551 0
M  V30 4233 H 414.759 0.64884 0.384087 0
M  V30 4234 H 417.41 1.81426 0.275101 0
M  V30 4235 H 415.792 2.94696 2.64519 0
M  V30 4236 H 416.966 4.59751 0.31074 0
M  V30 4237 H 415.281 4.14085 0.43843 0
M  V30 4238 H 417.878 4.27122 3.21668 0
M  V30 4239 H 418.221 2.56 3.28283 0
M  V30 4240 H 418.754 3.50901 1.87386 0
M  V30 4241 H 415.493 6.43767 1.23466 0
M  V30 4242 H 415.013 5.40483 2.60074 0
M  V30 4243 H 416.692 5.98297 2.46273 0
M  V30 4244 N 416.824 -0.551391 1.4764 0
M  V30 4245 C 418.07 -1.30789 1.55774 0
M  V30 4246 C 418.425 -1.91143 0.219562 0
M  V30 4247 O 417.718 -1.7521 -0.775375 0
M  V30 4248 C 417.912 -2.43469 2.61644 0
M  V30 4249 C 417.741 -1.94157 4.05627 0
M  V30 4250 C 416.511 -1.77734 4.7301 0
M  V30 4251 C 418.709 -1.48262 4.92466 0
M  V30 4252 N 416.691 -1.22823 6.01488 0
M  V30 4253 C 418.062 -1.05156 6.11017 0
M  V30 4254 C 420.117 -1.36367 4.78862 0
M  V30 4255 C 418.82 -0.513357 7.17466 0
M  V30 4256 C 420.846 -0.839484 5.85411 0
M  V30 4257 C 420.208 -0.418377 7.03156 0
M  V30 4258 H 416.307 -0.470406 0.624694 0
M  V30 4259 H 418.891 -0.624331 1.84419 0
M  V30 4260 H 417.062 -3.09348 2.34859 0
M  V30 4261 H 418.794 -3.10477 2.59589 0
M  V30 4262 H 415.549 -2.00623 4.29007 0
M  V30 4263 H 415.973 -0.974393 6.69951 0
M  V30 4264 H 420.615 -1.67535 3.88191 0
M  V30 4265 H 418.333 -0.189318 8.07878 0
M  V30 4266 H 421.919 -0.750921 5.76934 0
M  V30 4267 H 420.799 -0.0190538 7.84198 0
M  V30 4268 N 418.302 -1.35869 -0.798587 0
M  V30 4269 C 419.212 -1.31578 -1.94228 0
M  V30 4270 C 420.228 -0.21939 -1.72611 0
M  V30 4271 O 421.404 -0.450167 -1.96305 0
M  V30 4272 C 418.469 -1.09528 -3.28944 0
M  V30 4273 C 417.53 -2.28556 -3.63402 0
M  V30 4274 C 416.763 -2.07549 -4.9169 0
M  V30 4275 O 416.986 -1.046 -5.60727 0
M  V30 4276 O 415.92 -2.95106 -5.24591 0
M  V30 4277 H 419.746 -2.27847 -2.00796 0
M  V30 4278 H 417.331 -1.16322 -0.937526 0
M  V30 4279 H 419.213 -0.991127 -4.09579 0
M  V30 4280 H 417.888 -0.16315 -3.23289 0
M  V30 4281 H 416.795 -2.44538 -2.83112 0
M  V30 4282 H 418.128 -3.20244 -3.73771 0
M  V30 4283 N 419.78 1.02168 -1.19998 0
M  V30 4284 C 420.71 2.12488 -0.96804 0
M  V30 4285 C 421.691 1.69799 0.101185 0
M  V30 4286 O 422.876 1.94121 -0.0552993 0
M  V30 4287 C 420.006 3.43479 -0.513776 0
M  V30 4288 C 418.96 3.99884 -1.52566 0
M  V30 4289 C 418.286 5.26582 -0.928214 0
M  V30 4290 C 419.586 4.33861 -2.90795 0
M  V30 4291 H 421.28 2.32149 -1.89069 0
M  V30 4292 H 418.826 1.11564 -0.910468 0
M  V30 4293 H 420.779 4.20036 -0.338774 0
M  V30 4294 H 419.503 3.23561 0.444493 0
M  V30 4295 H 418.162 3.25429 -1.68794 0
M  V30 4296 H 417.81 5.02986 0.0378289 0
M  V30 4297 H 417.51 5.65284 -1.60397 0
M  V30 4298 H 419.034 6.05799 -0.764167 0
M  V30 4299 H 420.448 5.01327 -2.78109 0
M  V30 4300 H 418.845 4.83664 -3.55231 0
M  V30 4301 H 419.915 3.42848 -3.42904 0
M  V30 4302 N 421.258 1.00505 1.21394 0
M  V30 4303 C 422.188 0.585684 2.26035 0
M  V30 4304 C 423.169 -0.393525 1.65485 0
M  V30 4305 O 424.354 -0.281497 1.92149 0
M  V30 4306 C 421.484 -0.0884283 3.47187 0
M  V30 4307 C 420.438 0.810567 4.20254 0
M  V30 4308 C 419.764 0.00286382 5.347 0
M  V30 4309 C 421.064 2.1132 4.77641 0
M  V30 4310 H 422.758 1.46039 2.61368 0
M  V30 4311 H 420.304 0.703648 1.25638 0
M  V30 4312 H 422.257 -0.393286 4.19561 0
M  V30 4313 H 420.981 -0.997766 3.10986 0
M  V30 4314 H 419.64 1.09925 3.49731 0
M  V30 4315 H 419.288 -0.907765 4.94741 0
M  V30 4316 H 418.988 0.601444 5.84514 0
M  V30 4317 H 420.512 -0.295808 6.09883 0
M  V30 4318 H 421.926 1.87148 5.41893 0
M  V30 4319 H 420.323 2.66164 5.37845 0
M  V30 4320 H 421.393 2.78393 3.9702 0
M  V30 4321 N 422.737 -1.36956 0.779787 0
M  V30 4322 C 423.685 -2.32053 0.15942 0
M  V30 4323 C 424.679 -1.55333 -0.675878 0
M  V30 4324 O 425.885 -1.70668 -0.57204 0
M  V30 4325 H 422.26 -0.751286 0.0327707 0
M  V30 4326 H 424.231 -2.8195 0.977078 0
M  V30 4327 C 422.98 -3.40602 -0.698977 0
M  V30 4328 H 422.303 -3.99746 -0.0655966 0
M  V30 4329 H 423.743 -4.09486 -1.09989 0
M  V30 4330 C 422.202 -2.81359 -1.85307 0
M  V30 4331 O 422.732 -2.72751 -2.94906 0
M  V30 4332 N 420.938 -2.38786 -1.65619 0
M  V30 4333 H 420.485 -2.45987 -0.764725 0
M  V30 4334 H 420.443 -1.99493 -2.43002 0
M  V30 4335 N 424.215 -0.530993 -1.48385 0
M  V30 4336 C 425.147 0.268353 -2.27624 0
M  V30 4337 C 426.16 0.903525 -1.35426 0
M  V30 4338 O 427.349 0.781796 -1.60469 0
M  V30 4339 C 424.449 1.39535 -3.08842 0
M  V30 4340 C 423.622 0.861913 -4.28824 0
M  V30 4341 C 422.681 1.87016 -4.91845 0
M  V30 4342 O 421.707 1.4267 -5.5103 0
M  V30 4343 N 422.909 3.20238 -4.84178 0
M  V30 4344 H 425.674 -0.41123 -2.96865 0
M  V30 4345 H 423.235 -0.365387 -1.57723 0
M  V30 4346 H 425.227 2.06803 -3.47871 0
M  V30 4347 H 423.797 1.97859 -2.42014 0
M  V30 4348 H 423.017 0.0132126 -3.94198 0
M  V30 4349 H 424.305 0.484415 -5.06489 0
M  V30 4350 H 423.703 3.58932 -4.37246 0
M  V30 4351 H 422.26 3.83136 -5.27305 0
M  V30 4352 N 425.693 1.55336 -0.266172 0
M  V30 4353 C 426.656 2.20878 0.612001 0
M  V30 4354 C 427.656 1.18388 1.08816 0
M  V30 4355 O 428.846 1.4335 0.989774 0
M  V30 4356 C 425.978 2.86765 1.84332 0
M  V30 4357 H 427.171 2.99873 0.0398718 0
M  V30 4358 H 424.724 1.56291 -0.0167309 0
M  V30 4359 H 425.459 2.11759 2.45619 0
M  V30 4360 H 425.244 3.61862 1.5099 0
M  V30 4361 H 426.734 3.36867 2.46801 0
M  V30 4362 N 427.171 -0.0066808 1.57599 0
M  V30 4363 C 428.103 -1.02827 2.04839 0
M  V30 4364 C 429.116 -1.31108 0.965113 0
M  V30 4365 O 430.305 -1.28202 1.24203 0
M  V30 4366 C 427.405 -2.36464 2.42771 0
M  V30 4367 C 426.578 -2.27219 3.73751 0
M  V30 4368 C 425.637 -3.43489 3.98625 0
M  V30 4369 O 424.663 -3.21976 4.69382 0
M  V30 4370 N 425.865 -4.66116 3.46 0
M  V30 4371 H 428.63 -0.625455 2.93101 0
M  V30 4372 H 426.191 -0.194198 1.60731 0
M  V30 4373 H 428.183 -3.13008 2.56531 0
M  V30 4374 H 426.753 -2.68512 1.60063 0
M  V30 4375 H 425.973 -1.35629 3.70133 0
M  V30 4376 H 427.261 -2.18208 4.59633 0
M  V30 4377 H 426.659 -4.86493 2.88688 0
M  V30 4378 H 425.216 -5.39949 3.65101 0
M  V30 4379 N 428.649 -1.55105 -0.279332 0
M  V30 4380 C 429.559 -1.90638 -1.36727 0
M  V30 4381 C 430.575 -0.802899 -1.54368 0
M  V30 4382 O 431.751 -1.10138 -1.68616 0
M  V30 4383 C 428.816 -2.16547 -2.70755 0
M  V30 4384 C 427.877 -3.40146 -2.61915 0
M  V30 4385 C 427.11 -3.6481 -3.8955 0
M  V30 4386 O 427.333 -2.92095 -4.89935 0
M  V30 4387 O 426.267 -4.58343 -3.90135 0
M  V30 4388 H 430.093 -2.83237 -1.09591 0
M  V30 4389 H 427.678 -1.4157 -0.477306 0
M  V30 4390 H 429.56 -2.34665 -3.50014 0
M  V30 4391 H 428.235 -1.27131 -2.9769 0
M  V30 4392 H 427.142 -3.2737 -1.81052 0
M  V30 4393 H 428.475 -4.29761 -2.3993 0
M  V30 4394 N 430.127 0.543554 -1.4793 0
M  V30 4395 C 431.077 1.64527 -1.57844 0
M  V30 4396 C 432.061 1.54869 -0.436408 0
M  V30 4397 O 433.253 1.63119 -0.687101 0
M  V30 4398 C 430.382 3.03281 -1.6086 0
M  V30 4399 C 429.468 3.18093 -2.80495 0
M  V30 4400 N 429.859 3.02923 -4.05057 0
M  V30 4401 C 428.157 3.49121 -2.77543 0
M  V30 4402 C 428.858 3.20791 -4.85251 0
M  V30 4403 N 427.834 3.47749 -4.17818 0
M  V30 4404 H 431.636 1.51388 -2.5191 0
M  V30 4405 H 429.15 0.748671 -1.44113 0
M  V30 4406 H 431.147 3.82403 -1.66054 0
M  V30 4407 H 429.807 3.17521 -0.678996 0
M  V30 4408 H 430.818 2.79966 -4.35705 0
M  V30 4409 H 427.495 3.69804 -1.93781 0
M  V30 4410 H 428.885 3.13915 -5.9406 0
M  V30 4411 N 431.605 1.3629 0.791371 0
M  V30 4412 C 432.852 1.30412 1.54916 0
M  V30 4413 C 433.18 -0.117162 1.94147 0
M  V30 4414 O 432.435 -1.08599 1.62803 0
M  V30 4415 C 432.734 2.17068 2.8393 0
M  V30 4416 C 432.4 3.65645 2.63846 0
M  V30 4417 C 431.062 4.0614 2.58077 0
M  V30 4418 C 433.414 4.59855 2.45322 0
M  V30 4419 C 430.742 5.3899 2.31748 0
M  V30 4420 C 433.094 5.9292 2.2052 0
M  V30 4421 C 431.758 6.32542 2.13183 0
M  V30 4422 H 431.028 0.47721 0.566879 0
M  V30 4423 H 433.675 1.68325 0.913172 0
M  V30 4424 H 431.98 1.72085 3.51986 0
M  V30 4425 H 433.677 2.09846 3.4171 0
M  V30 4426 H 430.267 3.33518 2.69191 0
M  V30 4427 H 434.451 4.29443 2.48782 0
M  V30 4428 H 429.707 5.68672 2.24548 0
M  V30 4429 H 433.881 6.65487 2.05182 0
M  V30 4430 H 431.508 7.35412 1.92544 0
M  V30 4431 N 433.083 -1.0153 1.20538 0
M  V30 4432 C 434.331 -1.74803 1.01432 0
M  V30 4433 C 434.652 -1.8963 -0.454456 0
M  V30 4434 O 433.922 -1.43975 -1.32846 0
M  V30 4435 H 432.502 -0.647598 0.372324 0
M  V30 4436 H 435.164 -1.22402 1.5167 0
M  V30 4437 H 434.26 -2.75114 1.47373 0
M  V30 4438 N 434.561 -1.01147 -1.20859 0
M  V30 4439 C 435.508 -0.577354 -2.23462 0
M  V30 4440 C 436.478 0.399922 -1.61214 0
M  V30 4441 O 437.663 0.300515 -1.88419 0
M  V30 4442 C 434.803 0.083372 -3.44999 0
M  V30 4443 C 433.916 -0.937856 -4.21697 0
M  V30 4444 C 433.051 -0.248717 -5.30617 0
M  V30 4445 C 432.09 -1.25705 -5.99053 0
M  V30 4446 N 431.227 -0.594939 -6.99575 0
M  V30 4447 H 436.067 -1.45695 -2.59956 0
M  V30 4448 H 433.604 -0.729428 -1.27741 0
M  V30 4449 H 435.562 0.483535 -4.14388 0
M  V30 4450 H 434.192 0.926645 -3.09214 0
M  V30 4451 H 433.244 -1.45622 -3.51423 0
M  V30 4452 H 434.556 -1.70493 -4.68757 0
M  V30 4453 H 433.71 0.207215 -6.06346 0
M  V30 4454 H 432.449 0.55071 -4.84581 0
M  V30 4455 H 431.454 -1.72343 -5.2209 0
M  V30 4456 H 432.679 -2.05767 -6.47176 0
M  V30 4457 H 430.625 0.184713 -6.5574 0
M  V30 4458 H 430.542 -1.30017 -7.44736 0
M  V30 4459 H 431.81 -0.162427 -7.79331 0
M  V30 4460 N 436.039 1.36541 -0.78704 0
M  V30 4461 C 437.316 1.9355 -0.282424 0
M  V30 4462 C 437.696 1.71919 1.22503 0
M  V30 4463 O 437.044 1.07677 2.01539 0
M  V30 4464 C 437.254 3.4246 -0.672462 0
M  V30 4465 C 438.602 4.19582 -0.650863 0
M  V30 4466 O 439.626 3.50889 -0.612789 0
M  V30 4467 O 438.485 5.42106 -0.691623 0
M  V30 4468 H 435.579 0.824091 -0.0693 0
M  V30 4469 H 438.125 1.45736 -0.869423 0
M  V30 4470 H 436.897 3.51851 -1.71221 0
M  V30 4471 H 436.52 3.97556 -0.0592211 0
M  V30 4472 N 437.518 0.538854 1.48102 0
M  V30 4473 C 438.465 -0.219042 2.29758 0
M  V30 4474 C 439.435 -0.925562 1.37922 0
M  V30 4475 O 440.62 -0.924855 1.66886 0
M  V30 4476 C 437.76 -1.25452 3.2149 0
M  V30 4477 C 436.873 -0.555943 4.28408 0
M  V30 4478 C 436.008 -1.57512 5.0731 0
M  V30 4479 C 435.047 -0.860498 6.06021 0
M  V30 4480 N 434.184 -1.82564 6.77949 0
M  V30 4481 H 439.024 0.483449 2.94052 0
M  V30 4482 H 436.561 0.250247 1.44956 0
M  V30 4483 H 438.519 -1.86727 3.7308 0
M  V30 4484 H 437.149 -1.92528 2.591 0
M  V30 4485 H 436.201 0.170938 3.80016 0
M  V30 4486 H 437.513 0.00474616 4.988 0
M  V30 4487 H 436.667 -2.26191 5.62959 0
M  V30 4488 H 435.406 -2.16972 4.36778 0
M  V30 4489 H 434.411 -0.159686 5.49568 0
M  V30 4490 H 435.636 -0.271897 6.78555 0
M  V30 4491 H 433.582 -2.40915 6.10161 0
M  V30 4492 H 433.499 -1.31662 7.44447 0
M  V30 4493 H 434.767 -2.50414 7.38182 0
M  V30 4494 N 438.996 -1.55193 0.274407 0
M  V30 4495 C 440.221 -2.04446 -0.348824 0
M  V30 4496 C 440.646 -1.15149 -1.48735 0
M  V30 4497 O 440.004 -0.149952 -1.80679 0
M  V30 4498 C 440.052 -3.51431 -0.808009 0
M  V30 4499 O 439.156 -3.65225 -1.91531 0
M  V30 4500 H 438.497 -0.66006 -0.0722276 0
M  V30 4501 H 441.027 -2.00481 0.408498 0
M  V30 4502 H 441.037 -3.92781 -1.10395 0
M  V30 4503 H 439.712 -4.15892 0.0249865 0
M  V30 4504 H 438.289 -3.35778 -1.62196 0
M  V30 4505 N 440.474 -0.00167713 -1.576 0
M  V30 4506 C 441.421 0.989195 -2.08527 0
M  V30 4507 C 442.391 1.34031 -0.981065 0
M  V30 4508 O 443.576 1.43839 -1.2536 0
M  V30 4509 C 440.716 2.27537 -2.59463 0
M  V30 4510 C 439.829 1.98314 -3.83791 0
M  V30 4511 C 438.964 3.21025 -4.23222 0
M  V30 4512 C 438.003 2.87495 -5.40382 0
M  V30 4513 N 437.14 4.02749 -5.75098 0
M  V30 4514 H 441.98 0.547973 -2.92919 0
M  V30 4515 H 439.517 0.258917 -1.44803 0
M  V30 4516 H 441.475 3.02729 -2.87073 0
M  V30 4517 H 440.105 2.69325 -1.77943 0
M  V30 4518 H 439.157 1.13482 -3.63078 0
M  V30 4519 H 440.469 1.69601 -4.69081 0
M  V30 4520 H 439.623 4.04561 -4.52123 0
M  V30 4521 H 438.362 3.52877 -3.36644 0
M  V30 4522 H 437.367 2.02367 -5.11202 0
M  V30 4523 H 438.592 2.56889 -6.28637 0
M  V30 4524 H 436.538 4.34494 -4.91478 0
M  V30 4525 H 436.455 3.77566 -6.54966 0
M  V30 4526 H 437.723 4.87068 -6.08592 0
M  V30 4527 N 441.952 1.55251 0.271103 0
M  V30 4528 C 442.862 1.9136 1.35714 0
M  V30 4529 C 443.878 0.811075 1.5394 0
M  V30 4530 O 445.054 1.11031 1.6803 0
M  V30 4531 C 442.119 2.1798 2.69603 0
M  V30 4532 C 441.18 3.4153 2.60107 0
M  V30 4533 C 440.413 3.66871 3.8761 0
M  V30 4534 O 440.636 2.94689 4.8838 0
M  V30 4535 O 439.57 4.60405 3.87699 0
M  V30 4536 H 443.396 2.83815 1.08088 0
M  V30 4537 H 440.981 1.41821 0.469792 0
M  V30 4538 H 442.863 2.36518 3.48765 0
M  V30 4539 H 441.538 1.28708 2.97012 0
M  V30 4540 H 440.445 3.28325 1.79314 0
M  V30 4541 H 441.778 4.31027 2.37647 0
M  V30 4542 N 443.43 -0.535701 1.48216 0
M  V30 4543 C 444.677 -1.29183 1.55942 0
M  V30 4544 C 445.005 -1.93125 0.230857 0
M  V30 4545 O 444.26 -1.79556 -0.778331 0
M  V30 4546 C 444.559 -2.4068 2.64212 0
M  V30 4547 C 444.225 -1.94428 4.06827 0
M  V30 4548 C 442.887 -1.81532 4.45645 0
M  V30 4549 C 445.239 -1.59405 4.96225 0
M  V30 4550 C 442.567 -1.31939 5.71672 0
M  V30 4551 C 444.919 -1.11276 6.22736 0
M  V30 4552 C 443.583 -0.969924 6.60416 0
M  V30 4553 H 442.853 -0.472715 0.570632 0
M  V30 4554 H 445.5 -0.598437 1.81909 0
M  V30 4555 H 443.805 -3.15666 2.32083 0
M  V30 4556 H 445.502 -2.98822 2.67407 0
M  V30 4557 H 442.092 -2.05415 3.76168 0
M  V30 4558 H 446.276 -1.68231 4.66917 0
M  V30 4559 H 441.532 -1.19562 5.99596 0
M  V30 4560 H 445.706 -0.832453 6.91407 0
M  V30 4561 H 443.333 -0.583436 7.57958 0
M  V30 4562 N 444.908 -1.36708 -0.784132 0
M  V30 4563 C 445.84 -1.27333 -1.90575 0
M  V30 4564 C 446.853 -0.191706 -1.61667 0
M  V30 4565 O 448.042 -0.446854 -1.72816 0
M  V30 4566 C 445.142 -0.943177 -3.25511 0
M  V30 4567 C 444.315 -2.12776 -3.82158 0
M  V30 4568 C 443.374 -1.76983 -4.95544 0
M  V30 4569 O 442.4 -2.49134 -5.11782 0
M  V30 4570 N 443.602 -0.706624 -5.76183 0
M  V30 4571 H 446.367 -2.23974 -1.99138 0
M  V30 4572 H 443.928 -1.30171 -0.962656 0
M  V30 4573 H 445.92 -0.684799 -3.98864 0
M  V30 4574 H 444.49 -0.0657333 -3.12531 0
M  V30 4575 H 443.71 -2.54863 -3.0073 0
M  V30 4576 H 444.998 -2.91904 -4.16737 0
M  V30 4577 H 444.396 -0.107643 -5.65598 0
M  V30 4578 H 442.953 -0.50808 -6.49817 0
M  V30 4579 N 446.386 1.0089 -1.21074 0
M  V30 4580 C 447.316 2.1145 -0.990523 0
M  V30 4581 C 448.297 1.69897 0.0831699 0
M  V30 4582 O 449.482 1.94052 -0.0758853 0
M  V30 4583 C 446.612 3.42914 -0.550177 0
M  V30 4584 C 445.566 3.98244 -1.56799 0
M  V30 4585 C 444.892 5.25568 -0.984013 0
M  V30 4586 C 446.192 4.30752 -2.95381 0
M  V30 4587 H 447.886 2.3013 -1.91521 0
M  V30 4588 H 445.432 1.10592 -0.92225 0
M  V30 4589 H 447.385 4.19653 -0.383305 0
M  V30 4590 H 446.109 3.24014 0.41015 0
M  V30 4591 H 444.768 3.23621 -1.72236 0
M  V30 4592 H 444.416 5.02998 -0.0155216 0
M  V30 4593 H 444.116 5.63551 -1.66384 0
M  V30 4594 H 445.64 6.04955 -0.828378 0
M  V30 4595 H 447.054 4.98349 -2.8341 0
M  V30 4596 H 445.451 4.79869 -3.60341 0
M  V30 4597 H 446.521 3.39192 -3.46521 0
M  V30 4598 N 447.864 1.01787 1.20321 0
M  V30 4599 C 449.111 0.707936 1.89722 0
M  V30 4600 C 449.439 -0.762535 1.78929 0
M  V30 4601 O 448.694 -1.56977 1.16861 0
M  V30 4602 C 448.993 1.09076 3.40349 0
M  V30 4603 C 448.659 2.55765 3.71342 0
M  V30 4604 C 447.321 2.95845 3.79511 0
M  V30 4605 C 449.673 3.50723 3.85542 0
M  V30 4606 C 447.001 4.2982 3.99339 0
M  V30 4607 C 449.353 4.84387 4.06881 0
M  V30 4608 C 448.017 5.24172 4.1328 0
M  V30 4609 H 447.287 0.259052 0.694243 0
M  V30 4610 H 449.934 1.27868 1.42555 0
M  V30 4611 H 448.239 0.438453 3.89339 0
M  V30 4612 H 449.936 0.828636 3.92345 0
M  V30 4613 H 446.526 2.2371 3.65584 0
M  V30 4614 H 450.71 3.20916 3.78585 0
M  V30 4615 H 445.966 4.60196 4.02529 0
M  V30 4616 H 450.14 5.57891 4.1681 0
M  V30 4617 H 447.767 6.27997 4.28396 0
M  V30 4618 N 449.342 -1.36122 0.79427 0
M  V30 4619 C 450.567 -2.03891 0.379871 0
M  V30 4620 C 450.992 -1.59488 -0.997251 0
M  V30 4621 O 450.35 -0.765652 -1.64339 0
M  V30 4622 C 450.398 -3.57687 0.457442 0
M  V30 4623 O 449.502 -4.08931 -0.5338 0
M  V30 4624 H 448.843 -0.6443 0.160541 0
M  V30 4625 H 451.373 -1.73976 1.07673 0
M  V30 4626 H 451.383 -4.06721 0.322792 0
M  V30 4627 H 450.058 -3.89357 1.46199 0
M  V30 4628 H 448.635 -3.71154 -0.360409 0
M  V30 4629 N 450.82 -0.546701 -1.47814 0
M  V30 4630 C 452.045 -0.021268 -2.07389 0
M  V30 4631 C 452.47 1.25822 -1.39822 0
M  V30 4632 O 451.828 1.75111 -0.46968 0
M  V30 4633 C 451.876 0.168502 -3.60206 0
M  V30 4634 O 450.98 1.23347 -3.93522 0
M  V30 4635 H 450.321 -0.0466108 -0.662362 0
M  V30 4636 H 452.851 -0.759387 -1.89985 0
M  V30 4637 H 452.861 0.385982 -4.0617 0
M  V30 4638 H 451.536 -0.766075 -4.08784 0
M  V30 4639 H 450.113 0.997319 -3.59316 0
M  V30 4640 N 452.299 1.55045 -0.282633 0
M  V30 4641 C 453.71 1.85473 0.213655 0
M  V30 4642 C 454.061 1.20465 1.54863 0
M  V30 4643 O 453.186 0.495676 2.10647 0
M  V30 4644 C 453.781 3.36496 0.394445 0
M  V30 4645 C 452.34 3.67022 0.834961 0
M  V30 4646 C 451.487 2.77218 -0.0674081 0
M  V30 4647 H 454.438 1.50478 -0.504202 0
M  V30 4648 H 454.459 3.60007 1.23186 0
M  V30 4649 H 453.971 3.83782 -0.577326 0
M  V30 4650 H 452.072 3.25241 1.81794 0
M  V30 4651 H 452.185 4.74433 0.667075 0
M  V30 4652 H 450.549 2.5069 0.450196 0
M  V30 4653 H 451.332 3.2732 -1.0352 0
M  V30 4654 N 453.777 0.010035 1.57597 0
M  V30 4655 C 454.727 -0.986858 2.05536 0
M  V30 4656 C 455.711 -1.29711 0.952042 0
M  V30 4657 O 456.903 -1.28641 1.21575 0
M  V30 4658 C 454.032 -2.2756 2.57043 0
M  V30 4659 C 453.118 -1.99455 3.74271 0
M  V30 4660 N 453.509 -1.41546 4.85591 0
M  V30 4661 C 451.807 -2.29547 3.82393 0
M  V30 4662 C 452.508 -1.3014 5.66956 0
M  V30 4663 N 451.484 -1.79044 5.13268 0
M  V30 4664 H 455.286 -0.533778 2.89012 0
M  V30 4665 H 452.8 -0.195432 1.6122 0
M  V30 4666 H 454.797 -2.99829 2.89669 0
M  V30 4667 H 453.457 -2.73512 1.7499 0
M  V30 4668 H 454.468 -1.09294 5.06236 0
M  V30 4669 H 451.145 -2.78304 3.11213 0
M  V30 4670 H 452.535 -0.855237 6.66435 0
M  V30 4671 N 455.255 -1.55392 -0.262866 0
M  V30 4672 C 456.503 -1.76127 -0.991147 0
M  V30 4673 C 456.824 -0.571083 -1.8645 0
M  V30 4674 O 456.094 0.413698 -1.91482 0
M  V30 4675 H 454.674 -0.649528 -0.368948 0
M  V30 4676 H 457.336 -1.9281 -0.284655 0
M  V30 4677 H 456.432 -2.6663 -1.62219 0
M  V30 4678 N 456.733 0.527833 -1.48498 0
M  V30 4679 C 457.68 1.6322 -1.6318 0
M  V30 4680 C 458.65 1.59199 -0.473815 0
M  V30 4681 O 459.835 1.77591 -0.697563 0
M  V30 4682 C 456.975 3.01474 -1.67951 0
M  V30 4683 C 456.088 3.15713 -2.94871 0
M  V30 4684 C 455.223 4.44539 -2.90789 0
M  V30 4685 C 454.262 4.52315 -4.12404 0
M  V30 4686 N 453.399 5.72533 -4.06387 0
M  V30 4687 H 458.239 1.50011 -2.57489 0
M  V30 4688 H 455.776 0.730298 -1.27691 0
M  V30 4689 H 457.734 3.81572 -1.68698 0
M  V30 4690 H 456.364 3.1345 -0.771306 0
M  V30 4691 H 455.416 2.28854 -3.03859 0
M  V30 4692 H 456.728 3.1732 -3.8485 0
M  V30 4693 H 455.882 5.3293 -2.89949 0
M  V30 4694 H 454.621 4.45457 -1.98542 0
M  V30 4695 H 453.626 3.62331 -4.13517 0
M  V30 4696 H 454.851 4.53134 -5.05812 0
M  V30 4697 H 452.797 5.74344 -3.16962 0
M  V30 4698 H 452.714 5.75643 -4.90073 0
M  V30 4699 H 453.982 6.63204 -4.0961 0
M  V30 4700 N 458.211 1.37122 0.776871 0
M  V30 4701 C 459.488 1.22586 1.52421 0
M  V30 4702 C 459.868 -0.182726 2.10308 0
M  V30 4703 O 459.216 -1.18979 1.9508 0
M  V30 4704 C 459.426 2.31782 2.60918 0
M  V30 4705 C 460.774 2.69071 3.2846 0
M  V30 4706 O 461.798 2.3092 2.71209 0
M  V30 4707 O 460.657 3.3478 4.31954 0
M  V30 4708 H 457.751 0.478045 0.674835 0
M  V30 4709 H 460.297 1.48888 0.814275 0
M  V30 4710 H 459.069 3.26131 2.16227 0
M  V30 4711 H 458.692 2.06916 3.39517 0
M  V30 4712 N 459.689 -1.00246 1.21608 0
M  V30 4713 C 460.619 -2.10921 1.00172 0
M  V30 4714 C 461.6 -1.69938 -0.0741587 0
M  V30 4715 O 462.785 -1.94009 0.0861753 0
M  V30 4716 C 459.915 -3.42618 0.568355 0
M  V30 4717 C 458.869 -3.97407 1.58909 0
M  V30 4718 C 458.195 -5.25038 1.01187 0
M  V30 4719 C 459.495 -4.2918 2.97661 0
M  V30 4720 H 461.189 -2.29112 1.92739 0
M  V30 4721 H 458.735 -1.10101 0.928102 0
M  V30 4722 H 460.688 -4.19444 0.405555 0
M  V30 4723 H 459.412 -3.24227 -0.392961 0
M  V30 4724 H 458.071 -3.22703 1.73949 0
M  V30 4725 H 457.719 -5.02982 0.0421965 0
M  V30 4726 H 457.419 -5.62661 1.6937 0
M  V30 4727 H 458.943 -6.04507 0.860448 0
M  V30 4728 H 460.357 -4.96839 2.86049 0
M  V30 4729 H 458.754 -4.77952 3.6288 0
M  V30 4730 H 459.824 -3.3735 3.48315 0
M  V30 4731 N 461.167 -1.02423 -1.1978 0
M  V30 4732 C 462.097 -0.62157 -2.25075 0
M  V30 4733 C 463.078 0.367148 -1.6609 0
M  V30 4734 O 464.263 0.250892 -1.92573 0
M  V30 4735 C 461.393 0.0331826 -3.47284 0
M  V30 4736 C 460.347 -0.877323 -4.18912 0
M  V30 4737 C 459.673 -0.0879296 -5.34628 0
M  V30 4738 C 460.973 -2.18892 -4.74219 0
M  V30 4739 H 462.667 -1.50179 -2.59011 0
M  V30 4740 H 460.213 -0.723547 -1.24502 0
M  V30 4741 H 462.166 0.326488 -4.20133 0
M  V30 4742 H 460.89 0.948164 -3.12534 0
M  V30 4743 H 459.549 -1.15475 -3.47938 0
M  V30 4744 H 459.197 0.828941 -4.96123 0
M  V30 4745 H 458.897 -0.694359 -5.83483 0
M  V30 4746 H 460.421 0.198743 -6.10276 0
M  V30 4747 H 461.835 -1.95746 -5.38847 0
M  V30 4748 H 460.232 -2.74686 -5.33542 0
M  V30 4749 H 461.302 -2.84674 -3.92541 0
M  V30 4750 N 462.645 1.35699 -0.801477 0
M  V30 4751 C 463.892 1.98913 -0.379459 0
M  V30 4752 C 464.22 1.63592 1.05204 0
M  V30 4753 O 463.475 0.888563 1.74365 0
M  V30 4754 C 463.774 3.53828 -0.504041 0
M  V30 4755 C 463.44 4.09002 -1.8981 0
M  V30 4756 C 462.102 4.23783 -2.27951 0
M  V30 4757 C 464.454 4.38939 -2.81038 0
M  V30 4758 C 461.782 4.65816 -3.56696 0
M  V30 4759 C 464.134 4.82409 -4.09224 0
M  V30 4760 C 462.798 4.95395 -4.4737 0
M  V30 4761 H 462.068 0.727874 -0.138854 0
M  V30 4762 H 464.715 1.61994 -1.02128 0
M  V30 4763 H 463.02 3.91175 0.221242 0
M  V30 4764 H 464.717 4.00687 -0.158361 0
M  V30 4765 H 461.307 3.97946 -1.59176 0
M  V30 4766 H 465.491 4.27077 -2.52821 0
M  V30 4767 H 460.747 4.74059 -3.86106 0
M  V30 4768 H 464.921 5.04535 -4.80018 0
M  V30 4769 H 462.548 5.27724 -5.47185 0
M  V30 4770 N 464.123 0.554532 1.47522 0
M  V30 4771 C 465.07 -0.19466 2.29978 0
M  V30 4772 C 466.04 -0.910882 1.38896 0
M  V30 4773 O 467.225 -0.907102 1.67858 0
M  V30 4774 C 464.365 -1.22035 3.22802 0
M  V30 4775 C 463.478 -0.510474 4.28973 0
M  V30 4776 C 462.613 -1.52123 5.08952 0
M  V30 4777 C 461.652 -0.796173 6.069 0
M  V30 4778 N 460.789 -1.75363 6.79847 0
M  V30 4779 H 465.629 0.51461 2.93523 0
M  V30 4780 H 463.166 0.265607 1.44682 0
M  V30 4781 H 465.124 -1.8276 3.7504 0
M  V30 4782 H 463.754 -1.89769 2.61127 0
M  V30 4783 H 462.806 0.211234 3.79813 0
M  V30 4784 H 464.118 0.0576503 4.98767 0
M  V30 4785 H 463.272 -2.20207 5.65326 0
M  V30 4786 H 462.011 -2.12327 4.39054 0
M  V30 4787 H 461.016 -0.101388 5.49707 0
M  V30 4788 H 462.241 -0.199911 6.78806 0
M  V30 4789 H 460.187 -2.3443 6.12682 0
M  V30 4790 H 460.104 -1.23759 7.45801 0
M  V30 4791 H 461.372 -2.4257 7.40797 0
M  V30 4792 N 465.601 -1.54893 0.290851 0
M  V30 4793 C 466.878 -1.91991 -0.373989 0
M  V30 4794 C 467.258 -1.21694 -1.72493 0
M  V30 4795 O 466.606 -0.34917 -2.25816 0
M  V30 4796 C 466.816 -3.45419 -0.498703 0
M  V30 4797 C 468.164 -4.1748 -0.774298 0
M  V30 4798 O 469.188 -3.51398 -0.582908 0
M  V30 4799 O 468.047 -5.3445 -1.14129 0
M  V30 4800 H 465.141 -0.800593 -0.207315 0
M  V30 4801 H 467.687 -1.66297 0.338164 0
M  V30 4802 H 466.459 -3.88688 0.451392 0
M  V30 4803 H 466.082 -3.77117 -1.25972 0
M  V30 4804 N 467.08 -0.0183926 -1.57589 0
M  V30 4805 C 468.305 0.676634 -1.96052 0
M  V30 4806 C 468.73 1.6548 -0.894307 0
M  V30 4807 O 468.088 1.80712 0.145849 0
M  V30 4808 C 468.136 1.36872 -3.33614 0
M  V30 4809 O 467.24 2.48372 -3.29219 0
M  V30 4810 H 466.581 0.1786 -0.63953 0
M  V30 4811 H 469.111 -0.077056 -2.04455 0
M  V30 4812 H 469.121 1.72797 -3.69601 0
M  V30 4813 H 467.796 0.651636 -4.10763 0
M  V30 4814 H 466.373 2.14639 -3.04934 0
M  V30 4815 N 468.558 1.5553 0.254621 0
M  V30 4816 C 469.521 1.88872 1.29846 0
M  V30 4817 C 470.521 0.764591 1.41459 0
M  V30 4818 O 471.711 1.03265 1.40293 0
M  V30 4819 C 468.843 2.11032 2.67728 0
M  V30 4820 H 470.036 2.82201 1.01502 0
M  V30 4821 H 467.589 1.48303 0.493556 0
M  V30 4822 H 468.324 1.20146 3.01223 0
M  V30 4823 H 468.109 2.92895 2.60682 0
M  V30 4824 H 469.599 2.38038 3.43115 0
M  V30 4825 N 470.036 -0.519951 1.48776 0
M  V30 4826 C 470.986 -1.61995 1.60442 0
M  V30 4827 C 471.97 -1.54155 0.460991 0
M  V30 4828 O 473.162 -1.62006 0.712965 0
M  V30 4829 C 470.291 -3.00683 1.65664 0
M  V30 4830 C 469.377 -3.1359 2.8552 0
M  V30 4831 N 469.768 -2.96441 4.09825 0
M  V30 4832 C 468.066 -3.44662 2.83062 0
M  V30 4833 C 468.767 -3.1303 4.90293 0
M  V30 4834 N 467.743 -3.41058 4.23297 0
M  V30 4835 H 471.545 -1.47362 2.54287 0
M  V30 4836 H 469.059 -0.725649 1.45286 0
M  V30 4837 H 471.056 -3.79712 1.72117 0
M  V30 4838 H 469.716 -3.16401 0.729425 0
M  V30 4839 H 470.727 -2.72999 4.40104 0
M  V30 4840 H 467.404 -3.66675 1.9964 0
M  V30 4841 H 468.794 -3.04424 5.98979 0
M  V30 4842 N 471.514 -1.37532 -0.769588 0
M  V30 4843 C 472.762 -1.32597 -1.5252 0
M  V30 4844 C 473.083 0.0884294 -1.94799 0
M  V30 4845 O 472.353 1.03289 -1.66458 0
M  V30 4846 H 470.933 -0.487846 -0.565699 0
M  V30 4847 H 473.595 -1.72044 -0.915806 0
M  V30 4848 H 472.691 -1.96643 -2.42359 0
M  V30 4849 N 472.992 0.995999 -1.22138 0
M  V30 4850 C 474.239 1.7351 -1.04406 0
M  V30 4851 C 474.567 1.89884 0.421244 0
M  V30 4852 O 473.822 1.43683 1.32867 0
M  V30 4853 C 474.121 3.14553 -1.6968 0
M  V30 4854 C 473.787 3.18102 -3.19565 0
M  V30 4855 C 472.449 3.18778 -3.60464 0
M  V30 4856 C 474.801 3.14636 -4.15516 0
M  V30 4857 C 472.129 3.13684 -4.95801 0
M  V30 4858 C 474.481 3.11084 -5.50826 0
M  V30 4859 C 473.145 3.10074 -5.91109 0
M  V30 4860 H 472.415 0.634916 -0.38205 0
M  V30 4861 H 475.062 1.1667 -1.51857 0
M  V30 4862 H 473.367 3.74682 -1.14546 0
M  V30 4863 H 475.064 3.70477 -1.53454 0
M  V30 4864 H 471.654 3.18324 -2.86998 0
M  V30 4865 H 475.838 3.13266 -3.84939 0
M  V30 4866 H 471.094 3.11245 -5.26247 0
M  V30 4867 H 475.268 3.07357 -6.24904 0
M  V30 4868 H 472.895 3.05882 -6.95946 0
M  V30 4869 N 474.47 1.03057 1.19235 0
M  V30 4870 C 475.4 0.633497 2.24742 0
M  V30 4871 C 476.381 -0.358335 1.66283 0
M  V30 4872 O 477.566 -0.240676 1.92703 0
M  V30 4873 C 474.696 -0.0147648 3.47297 0
M  V30 4874 C 473.65 0.899527 4.18441 0
M  V30 4875 C 472.976 0.116281 5.34574 0
M  V30 4876 C 474.276 2.21404 4.73051 0
M  V30 4877 H 475.97 1.5155 2.58211 0
M  V30 4878 H 473.516 0.73014 1.24117 0
M  V30 4879 H 475.469 -0.304202 4.20301 0
M  V30 4880 H 474.193 -0.931577 3.13032 0
M  V30 4881 H 472.852 1.17319 3.47321 0
M  V30 4882 H 472.5 -0.802619 4.96555 0
M  V30 4883 H 472.2 0.725293 5.83107 0
M  V30 4884 H 473.724 -0.166376 6.10373 0
M  V30 4885 H 475.138 1.98601 5.37802 0
M  V30 4886 H 473.535 2.77512 5.32078 0
M  V30 4887 H 474.605 2.86752 3.91026 0
M  V30 4888 N 475.948 -1.35272 0.808662 0
M  V30 4889 C 476.895 -2.29764 0.218482 0
M  V30 4890 C 477.865 -1.52911 -0.648652 0
M  V30 4891 O 479.05 -1.81341 -0.593297 0
M  V30 4892 C 476.19 -3.39388 -0.625282 0
M  V30 4893 C 475.303 -4.31202 0.262516 0
M  V30 4894 C 474.438 -5.27919 -0.589451 0
M  V30 4895 C 473.477 -6.11371 0.298617 0
M  V30 4896 N 472.614 -7.0022 -0.513443 0
M  V30 4897 H 477.454 -2.79645 1.02968 0
M  V30 4898 H 474.991 -1.37629 0.519303 0
M  V30 4899 H 476.949 -4.01615 -1.12966 0
M  V30 4900 H 475.579 -2.90777 -1.40173 0
M  V30 4901 H 474.631 -3.69962 0.885013 0
M  V30 4902 H 475.943 -4.89748 0.945971 0
M  V30 4903 H 475.097 -5.95529 -1.15888 0
M  V30 4904 H 473.836 -4.69875 -1.30647 0
M  V30 4905 H 472.841 -5.42707 0.880301 0
M  V30 4906 H 474.066 -6.71494 1.01352 0
M  V30 4907 H 472.012 -6.44662 -1.21439 0
M  V30 4908 H 471.929 -7.55917 0.111922 0
M  V30 4909 H 473.197 -7.72175 -1.06608 0
M  V30 4910 N 477.426 -0.562348 -1.47226 0
M  V30 4911 C 478.672 -0.0402761 -2.0276 0
M  V30 4912 C 479.005 1.30823 -1.43523 0
M  V30 4913 O 478.28 1.85249 -0.592705 0
M  V30 4914 C 478.563 0.047311 -3.60069 0
M  V30 4915 C 478.416 -1.32865 -4.29729 0
M  V30 4916 C 479.735 0.758182 -4.3352 0
M  V30 4917 H 476.854 -0.0161105 -0.736824 0
M  V30 4918 H 479.496 -0.725628 -1.75598 0
M  V30 4919 H 477.646 0.630986 -3.83342 0
M  V30 4920 H 479.318 -1.95593 -4.17781 0
M  V30 4921 H 477.561 -1.90195 -3.89882 0
M  V30 4922 H 478.232 -1.22004 -5.38349 0
M  V30 4923 H 480.708 0.262546 -4.15271 0
M  V30 4924 H 479.584 0.78844 -5.43208 0
M  V30 4925 H 479.845 1.81537 -4.03109 0
M  V30 4926 N 478.904 1.54736 -0.299062 0
M  V30 4927 C 480.315 1.8569 0.193971 0
M  V30 4928 C 480.666 1.22101 1.53577 0
M  V30 4929 O 479.791 0.51799 2.10109 0
M  V30 4930 C 480.386 3.36895 0.358733 0
M  V30 4931 C 478.945 3.67887 0.795986 0
M  V30 4932 C 478.092 2.77131 -0.096807 0
M  V30 4933 H 481.043 1.49934 -0.520134 0
M  V30 4934 H 481.064 3.61294 1.19361 0
M  V30 4935 H 480.576 3.83148 -0.617998 0
M  V30 4936 H 478.677 3.27151 1.78334 0
M  V30 4937 H 478.79 4.75114 0.616718 0
M  V30 4938 H 477.154 2.51153 0.423581 0
M  V30 4939 H 477.937 3.26204 -1.06986 0
M  V30 4940 N 480.382 0.0267497 1.57577 0
M  V30 4941 C 481.793 -0.512413 1.79531 0
M  V30 4942 C 482.144 -1.72391 0.936791 0
M  V30 4943 O 481.269 -2.15903 0.146543 0
M  V30 4944 C 481.864 -0.936378 3.25603 0
M  V30 4945 C 480.423 -1.42067 3.4856 0
M  V30 4946 C 479.57 -0.384278 2.74624 0
M  V30 4947 H 482.521 0.252797 1.56674 0
M  V30 4948 H 482.542 -1.80088 3.35184 0
M  V30 4949 H 482.054 -0.0544332 3.88062 0
M  V30 4950 H 480.155 -2.32262 2.9135 0
M  V30 4951 H 480.268 -1.42968 4.57271 0
M  V30 4952 H 478.632 -0.851855 2.40032 0
M  V30 4953 H 479.415 0.489159 3.39797 0
M  V30 4954 N 481.861 -1.55662 -0.24637 0
M  V30 4955 C 483.277 -1.48098 -0.594907 0
M  V30 4956 C 483.477 -0.717044 -1.8831 0
M  V30 4957 O 482.533 -0.246618 -2.51293 0
M  V30 4958 C 483.846 -2.92507 -0.697146 0
M  V30 4959 C 485.394 -3.02881 -0.789436 0
M  V30 4960 C 485.869 -4.48598 -0.923232 0
M  V30 4961 N 487.36 -4.52538 -0.988088 0
M  V30 4962 C 488.095 -5.62536 -1.11089 0
M  V30 4963 N 487.591 -6.82342 -1.19919 0
M  V30 4964 N 489.384 -5.50334 -1.14408 0
M  V30 4965 H 481.535 -2.0377 0.599278 0
M  V30 4966 H 483.798 -0.925145 0.20691 0
M  V30 4967 H 483.504 -3.51242 0.179396 0
M  V30 4968 H 483.378 -3.43024 -1.5689 0
M  V30 4969 H 485.765 -2.44226 -1.65643 0
M  V30 4970 H 485.846 -2.55574 0.107482 0
M  V30 4971 H 485.49 -5.07864 -0.0607927 0
M  V30 4972 H 485.42 -4.93587 -1.8352 0
M  V30 4973 H 487.911 -3.66248 -0.931167 0
M  V30 4974 H 488.224 -7.61924 -1.29197 0
M  V30 4975 H 486.569 -6.85102 -1.16876 0
M  V30 4976 H 489.76 -4.5567 -1.07158 0
M  V30 4977 H 489.933 -6.36096 -1.23634 0
M  V30 4978 N 483.339 0.512053 -1.4905 0
M  V30 4979 C 484.272 1.63209 -1.59493 0
M  V30 4980 C 485.25 1.56407 -0.444481 0
M  V30 4981 O 486.434 1.76623 -0.658535 0
M  V30 4982 C 483.561 3.01685 -1.53961 0
M  V30 4983 C 482.607 3.26786 -2.74068 0
M  V30 4984 S 483.44 3.11107 -4.35859 0
M  V30 4985 C 484.596 4.51997 -4.32954 0
M  V30 4986 H 484.829 1.54104 -2.54243 0
M  V30 4987 H 482.362 0.696382 -1.37804 0
M  V30 4988 H 484.32 3.81538 -1.51455 0
M  V30 4989 H 482.981 3.08215 -0.605178 0
M  V30 4990 H 482.174 4.27849 -2.66386 0
M  V30 4991 H 481.776 2.54635 -2.73928 0
M  V30 4992 H 484.068 5.43871 -4.03993 0
M  V30 4993 H 485.011 4.64731 -5.34257 0
M  V30 4994 H 485.419 4.32159 -3.63178 0
M  V30 4995 N 484.817 1.37938 0.762283 0
M  V30 4996 C 486.094 1.24196 1.51112 0
M  V30 4997 C 486.474 -0.160409 2.1049 0
M  V30 4998 O 485.822 -1.16904 1.96331 0
M  V30 4999 C 486.032 2.34537 2.58445 0
M  V30 5000 C 487.38 2.7254 3.25588 0
M  V30 5001 O 488.404 2.33783 2.68745 0
M  V30 5002 O 487.263 3.39343 4.28379 0
M  V30 5003 H 484.357 0.485175 0.669727 0
M  V30 5004 H 486.903 1.49743 0.798438 0
M  V30 5005 H 485.675 3.28406 2.12756 0
M  V30 5006 H 485.298 2.10505 3.37303 0
M  V30 5007 N 486.295 -0.989507 1.22664 0
M  V30 5008 C 487.258 -2.06183 1.00106 0
M  V30 5009 C 488.258 -1.60765 -0.0337726 0
M  V30 5010 O 489.448 -1.72989 0.205072 0
M  V30 5011 C 486.58 -3.37021 0.51279 0
M  V30 5012 H 487.773 -2.27629 1.95256 0
M  V30 5013 H 485.326 -1.16158 1.0458 0
M  V30 5014 H 486.061 -3.21261 -0.442917 0
M  V30 5015 H 485.846 -3.71323 1.25942 0
M  V30 5016 H 487.336 -4.1591 0.375315 0
M  V30 5017 N 487.773 -1.03688 -1.18687 0
M  V30 5018 C 488.72 -0.624624 -2.22187 0
M  V30 5019 C 489.69 0.365636 -1.62026 0
M  V30 5020 O 490.875 0.260481 -1.89014 0
M  V30 5021 C 488.015 0.0101738 -3.45099 0
M  V30 5022 C 487.128 -1.02709 -4.19613 0
M  V30 5023 C 486.263 -0.361213 -5.2997 0
M  V30 5024 C 485.302 -1.38384 -5.96252 0
M  V30 5025 N 484.439 -0.743196 -6.98155 0
M  V30 5026 H 489.279 -1.51176 -2.56807 0
M  V30 5027 H 486.816 -0.75636 -1.26165 0
M  V30 5028 H 488.774 0.395528 -4.15321 0
M  V30 5029 H 487.404 0.860848 -3.1111 0
M  V30 5030 H 486.456 -1.53043 -3.48256 0
M  V30 5031 H 487.768 -1.80398 -4.65036 0
M  V30 5032 H 486.922 0.0785537 -6.06649 0
M  V30 5033 H 485.661 0.447799 -4.8564 0
M  V30 5034 H 484.666 -1.83378 -5.18317 0
M  V30 5035 H 485.891 -2.19448 -6.42666 0
M  V30 5036 H 483.837 0.0455789 -6.55984 0
M  V30 5037 H 483.754 -1.45784 -7.41811 0
M  V30 5038 H 485.022 -0.327698 -7.78811 0
M  V30 5039 N 489.251 1.34841 -0.815825 0
M  V30 5040 C 490.184 2.27504 -0.178062 0
M  V30 5041 C 491.162 1.48542 0.661373 0
M  V30 5042 O 492.346 1.77779 0.626653 0
M  V30 5043 C 489.473 3.30246 0.752002 0
M  V30 5044 C 488.519 4.26499 -0.00899172 0
M  V30 5045 S 489.352 5.18169 -1.35134 0
M  V30 5046 C 490.508 6.24449 -0.42596 0
M  V30 5047 H 490.741 2.81248 -0.963684 0
M  V30 5048 H 488.274 1.41781 -0.611355 0
M  V30 5049 H 490.232 3.89933 1.28308 0
M  V30 5050 H 488.893 2.75363 1.51109 0
M  V30 5051 H 488.086 4.99146 0.697766 0
M  V30 5052 H 487.688 3.7103 -0.470396 0
M  V30 5053 H 489.98 6.76404 0.385234 0
M  V30 5054 H 490.923 6.99156 -1.1219 0
M  V30 5055 H 491.331 5.64497 -0.0175461 0
M  V30 5056 N 490.729 0.570148 1.46925 0
M  V30 5057 C 491.959 0.0561151 2.06524 0
M  V30 5058 C 492.367 -1.24874 1.42137 0
M  V30 5059 O 491.71 -1.76292 0.516417 0
M  V30 5060 C 491.772 -0.197035 3.5896 0
M  V30 5061 C 491.436 1.02033 4.45464 0
M  V30 5062 C 492.433 1.92921 4.82781 0
M  V30 5063 C 490.118 1.23864 4.86788 0
M  V30 5064 C 492.112 3.03999 5.60235 0
M  V30 5065 C 489.799 2.35249 5.64004 0
M  V30 5066 C 490.797 3.25146 6.0064 0
M  V30 5067 O 490.485 4.34598 6.76299 0
M  V30 5068 H 490.217 0.0487409 0.674241 0
M  V30 5069 H 492.771 0.786915 1.89728 0
M  V30 5070 H 491.001 -0.982299 3.74016 0
M  V30 5071 H 492.69 -0.658032 4.00531 0
M  V30 5072 H 493.456 1.77265 4.51444 0
M  V30 5073 H 489.335 0.54805 4.57731 0
M  V30 5074 H 492.879 3.74192 5.8875 0
M  V30 5075 H 488.776 2.50873 5.94755 0
M  V30 5076 H 489.544 4.32808 6.94708 0
M  V30 5077 N 492.207 -1.54576 0.307264 0
M  V30 5078 C 493.137 -2.26708 -0.55907 0
M  V30 5079 C 494.118 -1.26893 -1.1328 0
M  V30 5080 O 495.303 -1.55677 -1.16097 0
M  V30 5081 C 492.433 -3.01259 -1.72801 0
M  V30 5082 C 491.387 -4.08275 -1.28435 0
M  V30 5083 C 490.713 -4.70575 -2.53895 0
M  V30 5084 C 492.013 -5.2068 -0.411038 0
M  V30 5085 H 493.707 -2.9937 0.042576 0
M  V30 5086 H 491.253 -1.43983 0.0219173 0
M  V30 5087 H 493.206 -3.50444 -2.34023 0
M  V30 5088 H 491.93 -2.26187 -2.356 0
M  V30 5089 H 490.589 -3.59949 -0.695161 0
M  V30 5090 H 490.237 -3.92136 -3.15021 0
M  V30 5091 H 489.937 -5.42854 -2.24908 0
M  V30 5092 H 491.461 -5.22527 -3.15908 0
M  V30 5093 H 492.875 -5.65721 -0.929097 0
M  V30 5094 H 491.272 -5.99716 -0.214664 0
M  V30 5095 H 492.342 -4.81629 0.562287 0
M  V30 5096 N 493.685 -0.035106 -1.57561 0
M  V30 5097 C 494.933 0.64096 -1.91667 0
M  V30 5098 C 495.254 1.72323 -0.912681 0
M  V30 5099 O 494.524 1.95849 0.0449089 0
M  V30 5100 H 493.104 0.239743 -0.707483 0
M  V30 5101 H 495.766 -0.084321 -1.94718 0
M  V30 5102 H 494.862 1.08987 -2.92452 0
M  V30 5103 N 495.163 1.55791 0.238111 0
M  V30 5104 C 496.393 1.81834 0.980809 0
M  V30 5105 C 496.801 0.609741 1.79106 0
M  V30 5106 O 496.144 -0.431073 1.78571 0
M  V30 5107 C 496.206 3.01363 1.96011 0
M  V30 5108 C 495.87 4.37037 1.33597 0
M  V30 5109 C 496.867 5.14692 0.734063 0
M  V30 5110 C 494.552 4.83743 1.3527 0
M  V30 5111 C 496.546 6.37206 0.157208 0
M  V30 5112 C 494.233 6.06204 0.77199 0
M  V30 5113 C 495.231 6.82775 0.175282 0
M  V30 5114 O 494.919 8.02922 -0.396432 0
M  V30 5115 H 494.651 0.6088 0.293834 0
M  V30 5116 H 497.205 2.03702 0.263552 0
M  V30 5117 H 495.435 2.75273 2.71591 0
M  V30 5118 H 497.124 3.14422 2.56697 0
M  V30 5119 H 497.89 4.79722 0.713582 0
M  V30 5120 H 493.769 4.24129 1.80653 0
M  V30 5121 H 497.313 6.96915 -0.30917 0
M  V30 5122 H 493.21 6.4065 0.789828 0
M  V30 5123 H 493.978 8.17989 -0.289145 0
M  V30 5124 N 496.642 -0.504142 1.49319 0
M  V30 5125 C 497.552 -1.63248 1.68486 0
M  V30 5126 C 498.568 -1.64488 0.567432 0
M  V30 5127 O 499.744 -1.82966 0.841749 0
M  V30 5128 C 496.809 -2.99627 1.74426 0
M  V30 5129 C 495.87 -3.09039 2.97982 0
M  V30 5130 C 495.103 -4.38913 3.0363 0
M  V30 5131 O 495.326 -5.27528 2.16958 0
M  V30 5132 O 494.26 -4.53231 3.96062 0
M  V30 5133 H 498.086 -1.50008 2.64067 0
M  V30 5134 H 495.671 -0.680086 1.33023 0
M  V30 5135 H 497.553 -3.80689 1.80705 0
M  V30 5136 H 496.228 -3.13136 0.820233 0
M  V30 5137 H 495.135 -2.27177 2.97223 0
M  V30 5138 H 496.468 -3.00456 3.89855 0
M  V30 5139 N 498.12 -1.38341 -0.754957 0
M  V30 5140 C 499.35 -1.37504 -1.54195 0
M  V30 5141 C 499.758 0.0373787 -1.89163 0
M  V30 5142 O 499.101 1.01402 -1.53178 0
M  V30 5143 C 499.163 -2.16488 -2.87008 0
M  V30 5144 C 498.827 -3.65311 -2.74585 0
M  V30 5145 C 499.824 -4.58834 -2.44474 0
M  V30 5146 C 497.509 -4.08649 -2.9208 0
M  V30 5147 C 499.503 -5.93675 -2.32011 0
M  V30 5148 C 497.19 -5.43571 -2.79237 0
M  V30 5149 C 498.188 -6.35898 -2.49245 0
M  V30 5150 O 497.876 -7.68338 -2.36458 0
M  V30 5151 H 497.608 -0.472159 -0.483779 0
M  V30 5152 H 500.162 -1.82515 -0.94221 0
M  V30 5153 H 498.392 -1.66194 -3.49166 0
M  V30 5154 H 500.081 -2.08076 -3.4851 0
M  V30 5155 H 500.847 -4.26657 -2.30627 0
M  V30 5156 H 496.726 -3.37134 -3.14422 0
M  V30 5157 H 500.27 -6.65706 -2.08522 0
M  V30 5158 H 496.167 -5.75345 -2.92657 0
M  V30 5159 H 496.935 -7.78845 -2.5168 0
M  V30 5160 N 499.598 0.982988 -1.23187 0
M  V30 5161 C 500.844 1.72648 -1.06398 0
M  V30 5162 C 501.177 1.90066 0.398561 0
M  V30 5163 O 500.452 1.45105 1.29518 0
M  V30 5164 C 500.735 3.12627 -1.78707 0
M  V30 5165 C 500.588 3.02795 -3.32618 0
M  V30 5166 C 501.907 4.11997 -1.54747 0
M  V30 5167 H 499.026 0.626649 -0.387918 0
M  V30 5168 H 501.668 1.14455 -1.51658 0
M  V30 5169 H 499.818 3.62308 -1.40234 0
M  V30 5170 H 501.49 2.60659 -3.80598 0
M  V30 5171 H 499.733 2.39362 -3.61785 0
M  V30 5172 H 500.404 4.01893 -3.78399 0
M  V30 5173 H 502.88 3.71114 -1.88186 0
M  V30 5174 H 501.756 5.08037 -2.07821 0
M  V30 5175 H 502.017 4.39462 -0.482249 0
M  V30 5176 N 501.076 1.04316 1.18135 0
M  V30 5177 C 502.304 0.768117 1.92113 0
M  V30 5178 C 502.719 -0.675057 1.76319 0
M  V30 5179 O 502.076 -1.46038 1.09449 0
M  V30 5180 C 502.127 1.12808 3.43448 0
M  V30 5181 O 501.848 2.5146 3.58747 0
M  V30 5182 C 503.349 0.8779 4.3452 0
M  V30 5183 H 500.569 0.279937 0.609817 0
M  V30 5184 H 503.113 1.39149 1.49859 0
M  V30 5185 H 501.268 0.549623 3.83481 0
M  V30 5186 H 501.682 2.65313 4.52448 0
M  V30 5187 H 503.156 1.17959 5.39249 0
M  V30 5188 H 503.633 -0.187239 4.38801 0
M  V30 5189 H 504.239 1.43977 4.00188 0
M  V30 5190 N 502.554 -1.34406 0.822964 0
M  V30 5191 C 503.517 -2.2783 0.250271 0
M  V30 5192 C 504.517 -1.50288 -0.571854 0
M  V30 5193 O 505.707 -1.69825 -0.387952 0
M  V30 5194 C 502.839 -3.34663 -0.649137 0
M  V30 5195 H 504.032 -2.79992 1.07444 0
M  V30 5196 H 501.585 -1.44539 0.594829 0
M  V30 5197 H 502.32 -2.87714 -1.49637 0
M  V30 5198 H 502.105 -3.92052 -0.0611199 0
M  V30 5199 H 503.595 -4.04349 -1.04363 0
M  V30 5200 N 504.032 -0.577932 -1.46621 0
M  V30 5201 C 505.281 -0.0594281 -2.01612 0
M  V30 5202 C 505.594 1.30663 -1.45556 0
M  V30 5203 O 506.8 1.91621 -1.92337 0
M  V30 5204 C 505.256 -0.0556666 -3.59857 0
M  V30 5205 C 504.864 -1.41975 -4.24908 0
M  V30 5206 C 506.608 0.409143 -4.22524 0
M  V30 5207 C 504.515 -1.37397 -5.75218 0
M  V30 5208 H 503.445 -0.0184469 -0.753774 0
M  V30 5209 H 506.096 -0.728869 -1.68404 0
M  V30 5210 H 504.478 0.679843 -3.90121 0
M  V30 5211 H 505.652 -2.17461 -4.0626 0
M  V30 5212 H 503.967 -1.82419 -3.74316 0
M  V30 5213 H 506.564 0.46211 -5.32699 0
M  V30 5214 H 506.907 1.42565 -3.91128 0
M  V30 5215 H 507.44 -0.272152 -3.96868 0
M  V30 5216 H 504.179 -2.36714 -6.11267 0
M  V30 5217 H 503.699 -0.661239 -5.96144 0
M  V30 5218 H 505.378 -1.08484 -6.3784 0
M  V30 5219 N 505.51 1.54411 -0.315457 0
M  V30 5220 C 506.926 1.59556 0.037464 0
M  V30 5221 C 507.126 1.33217 1.5118 0
M  V30 5222 O 506.182 1.11264 2.26664 0
M  V30 5223 C 507.495 2.98372 -0.373477 0
M  V30 5224 C 509.043 3.11324 -0.323452 0
M  V30 5225 C 509.518 4.52472 -0.709433 0
M  V30 5226 N 511.009 4.58437 -0.662524 0
M  V30 5227 C 511.744 5.65751 -0.933474 0
M  V30 5228 N 511.24 6.81039 -1.27114 0
M  V30 5229 N 513.033 5.55489 -0.859573 0
M  V30 5230 H 505.184 1.6979 -1.27614 0
M  V30 5231 H 507.447 0.793732 -0.518356 0
M  V30 5232 H 507.153 3.22618 -1.40037 0
M  V30 5233 H 507.027 3.76264 0.265615 0
M  V30 5234 H 509.414 2.86818 0.694223 0
M  V30 5235 H 509.495 2.35555 -0.997367 0
M  V30 5236 H 509.139 4.7771 -1.72498 0
M  V30 5237 H 509.069 5.26598 -0.0132923 0
M  V30 5238 H 511.56 3.75636 -0.413065 0
M  V30 5239 H 511.873 7.58816 -1.46348 0
M  V30 5240 H 510.218 6.82555 -1.30932 0
M  V30 5241 H 513.409 4.64299 -0.595324 0
M  V30 5242 H 513.582 6.39036 -1.0741 0
M  V30 5243 N 506.988 0.0434614 1.5754 0
M  V30 5244 C 507.936 -0.951465 2.1225 0
M  V30 5245 C 508.93 -1.3274 1.05245 0
M  V30 5246 O 510.136 -1.30795 1.23663 0
M  V30 5247 H 506.511 -0.324667 0.678303 0
M  V30 5248 H 508.482 -0.464855 2.94757 0
M  V30 5249 C 507.231 -2.21972 2.67626 0
M  V30 5250 H 506.554 -1.93923 3.4962 0
M  V30 5251 H 507.994 -2.89765 3.09536 0
M  V30 5252 C 506.453 -2.95919 1.61038 0
M  V30 5253 O 506.983 -3.8857 1.01862 0
M  V30 5254 N 505.189 -2.58511 1.32741 0
M  V30 5255 H 504.736 -1.83244 1.81051 0
M  V30 5256 H 504.694 -3.08296 0.616531 0
M  V30 5257 N 508.466 -1.55915 -0.229846 0
M  V30 5258 C 509.396 -1.94754 -1.28815 0
M  V30 5259 C 510.377 -0.814657 -1.49323 0
M  V30 5260 O 511.562 -1.07631 -1.61645 0
M  V30 5261 C 508.692 -2.25705 -2.63959 0
M  V30 5262 C 507.646 -3.41406 -2.5812 0
M  V30 5263 C 506.972 -3.57941 -3.97218 0
M  V30 5264 C 508.272 -4.76616 -2.13623 0
M  V30 5265 H 509.966 -2.83404 -0.965547 0
M  V30 5266 H 507.512 -1.36353 -0.463028 0
M  V30 5267 H 509.465 -2.51467 -3.38146 0
M  V30 5268 H 508.189 -1.339 -2.9789 0
M  V30 5269 H 506.848 -3.1568 -1.86391 0
M  V30 5270 H 506.496 -2.63526 -4.28443 0
M  V30 5271 H 506.196 -4.35757 -3.94195 0
M  V30 5272 H 507.72 -3.86042 -4.73079 0
M  V30 5273 H 509.134 -5.01637 -2.77549 0
M  V30 5274 H 507.531 -5.57655 -2.21677 0
M  V30 5275 H 508.601 -4.7253 -1.08829 0
M  V30 5276 N 509.944 0.496216 -1.49584 0
M  V30 5277 C 511.36 0.827814 -1.36453 0
M  V30 5278 C 511.56 1.97464 -0.401285 0
M  V30 5279 O 510.616 2.51958 0.165296 0
M  V30 5280 C 511.929 1.16352 -2.77277 0
M  V30 5281 C 513.477 1.27145 -2.86013 0
M  V30 5282 C 513.952 1.64042 -4.27615 0
M  V30 5283 N 515.443 1.71082 -4.30448 0
M  V30 5284 C 516.178 2.01085 -5.36984 0
M  V30 5285 N 515.674 2.2928 -6.5376 0
M  V30 5286 N 517.467 2.02376 -5.24405 0
M  V30 5287 H 509.618 -0.259947 -2.10803 0
M  V30 5288 H 511.881 -0.0537163 -0.946477 0
M  V30 5289 H 511.587 0.394153 -3.49484 0
M  V30 5290 H 511.461 2.10582 -3.12946 0
M  V30 5291 H 513.848 2.03152 -2.1404 0
M  V30 5292 H 513.929 0.309542 -2.5392 0
M  V30 5293 H 513.573 0.88583 -5.00115 0
M  V30 5294 H 513.503 2.6134 -4.57175 0
M  V30 5295 H 515.994 1.51434 -3.46232 0
M  V30 5296 H 516.307 2.51376 -7.30774 0
M  V30 5297 H 514.652 2.26726 -6.56978 0
M  V30 5298 H 517.843 1.79829 -4.32179 0
M  V30 5299 H 518.016 2.25425 -6.07526 0
M  V30 5300 N 511.423 1.38739 0.74761 0
M  V30 5301 C 512.333 1.38696 1.89211 0
M  V30 5302 C 513.349 0.283303 1.71678 0
M  V30 5303 O 514.525 0.522713 1.94498 0
M  V30 5304 C 511.59 1.21662 3.24653 0
M  V30 5305 C 510.651 2.41886 3.54669 0
M  V30 5306 C 509.884 2.25655 4.83648 0
M  V30 5307 O 510.107 1.25339 5.56459 0
M  V30 5308 O 509.041 3.14372 5.13277 0
M  V30 5309 H 512.867 2.35143 1.92202 0
M  V30 5310 H 510.452 1.19721 0.893708 0
M  V30 5311 H 512.334 1.14246 4.05618 0
M  V30 5312 H 511.009 0.283024 3.2246 0
M  V30 5313 H 509.916 2.54877 2.73841 0
M  V30 5314 H 511.249 3.33895 3.61628 0
M  V30 5315 N 512.901 -0.976442 1.23707 0
M  V30 5316 C 514.149 -1.71487 1.06942 0
M  V30 5317 C 514.47 -1.9098 -0.393897 0
M  V30 5318 O 513.74 -1.48128 -1.28198 0
M  V30 5319 H 512.32 -0.635425 0.392739 0
M  V30 5320 H 514.982 -1.17515 1.55487 0
M  V30 5321 H 514.078 -2.70286 1.56051 0
M  V30 5322 N 514.379 -1.04941 -1.1758 0
M  V30 5323 C 515.607 -0.778294 -1.91703 0
M  V30 5324 C 516.022 0.665697 -1.76675 0
M  V30 5325 O 515.379 1.45456 -1.10222 0
M  V30 5326 C 515.43 -1.14628 -3.42845 0
M  V30 5327 O 515.151 -2.53359 -3.57409 0
M  V30 5328 C 516.652 -0.900931 -4.34049 0
M  V30 5329 H 513.872 -0.283167 -0.608323 0
M  V30 5330 H 516.416 -1.39942 -1.49119 0
M  V30 5331 H 514.571 -0.569953 -3.83184 0
M  V30 5332 H 514.985 -2.67709 -4.51035 0
M  V30 5333 H 516.459 -1.20817 -5.38616 0
M  V30 5334 H 516.936 0.163966 -4.38894 0
M  V30 5335 H 517.542 -1.46097 -3.99419 0
M  V30 5336 N 515.857 1.33968 -0.830081 0
M  V30 5337 C 517.097 1.99879 -0.427521 0
M  V30 5338 C 517.461 1.64355 0.992546 0
M  V30 5339 O 518.662 2.23164 1.49837 0
M  V30 5340 C 516.933 3.51771 -0.631815 0
M  V30 5341 S 518.492 4.37608 -0.323168 0
M  V30 5342 H 515.31 0.692485 -0.161202 0
M  V30 5343 H 517.912 1.63129 -1.07745 0
M  V30 5344 H 516.616 3.75113 -1.66488 0
M  V30 5345 H 516.147 3.93386 0.0325936 0
M  V30 5346 H 518.162 4.88683 0.860432 0
M  V30 5347 N 517.335 0.585699 1.46312 0
M  V30 5348 C 518.746 0.159938 1.86014 0
M  V30 5349 C 519.097 -1.27775 1.48889 0
M  V30 5350 O 518.222 -1.96559 0.90519 0
M  V30 5351 C 518.817 0.283485 3.37612 0
M  V30 5352 C 517.376 -0.0874256 3.76298 0
M  V30 5353 C 516.523 0.618055 2.70325 0
M  V30 5354 H 519.474 0.793737 1.37425 0
M  V30 5355 H 519.495 -0.490348 3.77327 0
M  V30 5356 H 519.007 1.32995 3.64601 0
M  V30 5357 H 517.108 -1.13391 3.54927 0
M  V30 5358 H 517.221 0.290975 4.78216 0
M  V30 5359 H 515.585 0.057993 2.54634 0
M  V30 5360 H 516.368 1.66623 3.00153 0
M  V30 5361 N 518.813 -1.54241 0.323641 0
M  V30 5362 C 519.723 -2.28033 -0.551205 0
M  V30 5363 C 520.739 -1.32388 -1.12913 0
M  V30 5364 O 521.915 -1.65403 -1.14908 0
M  V30 5365 C 518.98 -3.02382 -1.69606 0
M  V30 5366 C 518.041 -4.13612 -1.14993 0
M  V30 5367 C 517.274 -4.84407 -2.24022 0
M  V30 5368 O 517.497 -4.54716 -3.44368 0
M  V30 5369 O 516.431 -5.71312 -1.89436 0
M  V30 5370 H 520.257 -3.03662 0.048066 0
M  V30 5371 H 517.842 -1.49133 0.0893289 0
M  V30 5372 H 519.724 -3.48941 -2.36259 0
M  V30 5373 H 518.399 -2.29628 -2.28151 0
M  V30 5374 H 517.306 -3.71402 -0.448484 0
M  V30 5375 H 518.639 -4.8841 -0.609608 0
M  V30 5376 N 520.291 -0.0518155 -1.57515 0
M  V30 5377 C 521.254 0.907547 -2.10467 0
M  V30 5378 C 522.254 1.23947 -1.02439 0
M  V30 5379 O 523.444 1.17604 -1.2851 0
M  V30 5380 C 520.576 2.21723 -2.58944 0
M  V30 5381 H 521.769 0.44851 -2.96527 0
M  V30 5382 H 519.322 0.196598 -1.55059 0
M  V30 5383 H 520.057 2.72206 -1.76279 0
M  V30 5384 H 519.842 1.98935 -3.37886 0
M  V30 5385 H 521.332 2.90441 -3.00056 0
M  V30 5386 N 521.769 1.56035 0.221574 0
M  V30 5387 C 523.18 1.69229 0.788567 0
M  V30 5388 C 523.531 0.653814 1.84986 0
M  V30 5389 O 522.656 -0.195065 2.15519 0
M  V30 5390 C 523.251 3.06809 1.43713 0
M  V30 5391 C 521.81 3.21858 1.95152 0
M  V30 5392 C 520.957 2.65155 0.811685 0
M  V30 5393 H 523.908 1.587 -0.00307894 0
M  V30 5394 H 523.929 3.02666 2.30594 0
M  V30 5395 H 523.441 3.82369 0.664475 0
M  V30 5396 H 521.542 2.51167 2.7522 0
M  V30 5397 H 521.655 4.29073 2.1315 0
M  V30 5398 H 520.019 2.23635 1.21899 0
M  V30 5399 H 520.802 3.43261 0.0516987 0
M  V30 5400 N 523.247 -0.488276 1.49845 0
M  V30 5401 C 524.475 -1.26527 1.63702 0
M  V30 5402 C 524.89 -1.8618 0.313447 0
M  V30 5403 O 524.247 -1.68432 -0.702624 0
M  V30 5404 C 524.298 -2.3864 2.71538 0
M  V30 5405 O 524.019 -1.81437 3.98763 0
M  V30 5406 C 525.52 -3.29805 2.96215 0
M  V30 5407 H 522.74 -0.383295 0.55075 0
M  V30 5408 H 525.284 -0.584779 1.95961 0
M  V30 5409 H 523.439 -3.02496 2.42023 0
M  V30 5410 H 523.853 -2.55135 4.58265 0
M  V30 5411 H 525.327 -4.04722 3.75372 0
M  V30 5412 H 525.804 -3.87563 2.06619 0
M  V30 5413 H 526.41 -2.71703 3.27196 0
M  V30 5414 N 524.725 -1.39134 -0.740242 0
M  V30 5415 C 526.002 -1.26584 -1.49117 0
M  V30 5416 C 526.382 0.126902 -2.10718 0
M  V30 5417 O 525.73 1.13765 -1.98166 0
M  V30 5418 C 525.94 -2.38619 -2.54681 0
M  V30 5419 C 527.288 -2.77685 -3.21211 0
M  V30 5420 O 528.312 -2.38029 -2.64991 0
M  V30 5421 O 527.171 -3.46115 -4.22926 0
M  V30 5422 H 524.265 -0.495769 -0.661923 0
M  V30 5423 H 526.811 -1.50995 -0.774514 0
M  V30 5424 H 525.583 -3.3175 -2.07504 0
M  V30 5425 H 525.206 -2.15845 -3.33911 0
M  V30 5426 N 526.204 0.969867 -1.24223 0
M  V30 5427 C 527.114 2.09806 -1.0497 0
M  V30 5428 C 528.13 1.73998 0.00886455 0
M  V30 5429 O 529.306 2.00513 -0.188848 0
M  V30 5430 C 526.371 3.40467 -0.654452 0
M  V30 5431 C 525.432 3.90236 -1.78926 0
M  V30 5432 C 524.665 5.14662 -1.41277 0
M  V30 5433 O 524.888 5.69602 -0.301632 0
M  V30 5434 O 523.822 5.58761 -2.23763 0
M  V30 5435 H 527.648 2.28942 -1.99548 0
M  V30 5436 H 525.233 1.08197 -1.03023 0
M  V30 5437 H 527.115 4.19039 -0.445452 0
M  V30 5438 H 525.79 3.22636 0.262216 0
M  V30 5439 H 524.697 3.12735 -2.05299 0
M  V30 5440 H 526.03 4.1254 -2.68462 0
M  V30 5441 N 527.682 1.05563 1.17022 0
M  V30 5442 C 528.922 0.777033 1.89054 0
M  V30 5443 C 529.286 -0.683617 1.79418 0
M  V30 5444 O 530.487 -1.07648 2.46303 0
M  V30 5445 C 528.758 1.24886 3.34871 0
M  V30 5446 S 530.317 1.0982 4.24835 0
M  V30 5447 H 527.135 0.282082 0.652649 0
M  V30 5448 H 529.737 1.35103 1.41306 0
M  V30 5449 H 528.441 2.30699 3.3942 0
M  V30 5450 H 527.972 0.669292 3.87665 0
M  V30 5451 H 529.987 0.02462 4.96194 0
M  V30 5452 N 529.16 -1.33526 0.837174 0
M  V30 5453 C 530.107 -2.29248 0.267169 0
M  V30 5454 C 531.077 -1.54252 -0.616071 0
M  V30 5455 O 532.262 -1.82559 -0.554699 0
M  V30 5456 C 529.402 -3.40638 -0.553152 0
M  V30 5457 C 528.515 -4.30548 0.353921 0
M  V30 5458 C 527.65 -5.29051 -0.477339 0
M  V30 5459 C 526.689 -6.106 0.42823 0
M  V30 5460 N 525.826 -7.01152 -0.364801 0
M  V30 5461 H 530.666 -2.77398 1.08877 0
M  V30 5462 H 528.203 -1.36496 0.54838 0
M  V30 5463 H 530.161 -4.03921 -1.04422 0
M  V30 5464 H 528.791 -2.93685 -1.33973 0
M  V30 5465 H 527.843 -3.68001 0.963289 0
M  V30 5466 H 529.155 -4.87631 1.04964 0
M  V30 5467 H 528.309 -5.97853 -1.0323 0
M  V30 5468 H 527.048 -4.72541 -1.2065 0
M  V30 5469 H 526.053 -5.40718 0.995219 0
M  V30 5470 H 527.278 -6.69193 1.15573 0
M  V30 5471 H 525.224 -6.47092 -1.07738 0
M  V30 5472 H 525.141 -7.5551 0.272238 0
M  V30 5473 H 526.409 -7.74263 -0.902054 0
M  V30 5474 N 530.638 -0.59345 -1.46 0
M  V30 5475 C 532.049 -0.169801 -1.85926 0
M  V30 5476 C 532.4 1.26984 -1.49565 0
M  V30 5477 O 531.525 1.96076 -0.915602 0
M  V30 5478 C 532.12 -0.301385 -3.37457 0
M  V30 5479 C 530.679 0.0674684 -3.7634 0
M  V30 5480 C 529.826 -0.632383 -2.69993 0
M  V30 5481 H 532.777 -0.801014 -1.37002 0
M  V30 5482 H 532.798 0.470331 -3.77582 0
M  V30 5483 H 532.31 -1.34927 -3.63891 0
M  V30 5484 H 530.411 1.11507 -3.55523 0
M  V30 5485 H 530.524 -0.316332 -4.78055 0
M  V30 5486 H 528.888 -0.0714961 -2.546 0
M  V30 5487 H 529.671 -1.68212 -2.99265 0
M  V30 5488 N 532.116 1.54067 -0.331816 0
M  V30 5489 C 533.362 2.01012 0.268667 0
M  V30 5490 C 533.695 1.2195 1.51136 0
M  V30 5491 O 532.97 0.303972 1.9211 0
M  V30 5492 C 533.253 3.55158 0.59456 0
M  V30 5493 C 533.106 4.4494 -0.659409 0
M  V30 5494 C 534.425 4.16939 1.4089 0
M  V30 5495 H 531.544 0.730698 0.0961756 0
M  V30 5496 H 534.186 1.84593 -0.450031 0
M  V30 5497 H 532.336 3.6928 1.20685 0
M  V30 5498 H 534.008 4.42675 -1.29756 0
M  V30 5499 H 532.251 4.1428 -1.28665 0
M  V30 5500 H 532.922 5.50643 -0.386804 0
M  V30 5501 H 535.398 4.06443 0.891272 0
M  V30 5502 H 534.274 5.24889 1.60569 0
M  V30 5503 H 534.535 3.70798 2.40752 0
M  V30 5504 N 533.594 0.0601682 1.57485 0
M  V30 5505 C 534.541 -0.91112 2.12055 0
M  V30 5506 C 535.511 -1.30298 1.03013 0
M  V30 5507 O 536.696 -1.39087 1.30612 0
M  V30 5508 C 533.836 -2.1775 2.67729 0
M  V30 5509 C 532.949 -1.83933 3.90887 0
M  V30 5510 C 532.084 -3.05096 4.34845 0
M  V30 5511 C 531.123 -2.67241 5.5068 0
M  V30 5512 N 530.26 -3.81127 5.8965 0
M  V30 5513 H 535.1 -0.43888 2.9475 0
M  V30 5514 H 532.637 -0.204995 1.45665 0
M  V30 5515 H 534.595 -2.91866 2.98111 0
M  V30 5516 H 533.225 -2.62535 1.87816 0
M  V30 5517 H 532.277 -0.999287 3.6704 0
M  V30 5518 H 533.589 -1.52074 4.75052 0
M  V30 5519 H 532.743 -3.87502 4.66827 0
M  V30 5520 H 531.482 -3.40139 3.49509 0
M  V30 5521 H 530.487 -1.83254 5.18361 0
M  V30 5522 H 531.712 -2.3338 6.37738 0
M  V30 5523 H 529.658 -4.15954 5.07266 0
M  V30 5524 H 529.575 -3.52997 6.68528 0
M  V30 5525 H 530.843 -4.64145 6.2625 0
M  V30 5526 N 535.072 -1.5615 -0.213296 0
M  V30 5527 C 536.318 -1.80718 -0.933402 0
M  V30 5528 C 536.673 -0.634441 -1.81639 0
M  V30 5529 O 535.966 0.371182 -1.8797 0
M  V30 5530 C 536.16 -3.08772 -1.79985 0
M  V30 5531 C 535.989 -4.38389 -1.00224 0
M  V30 5532 C 534.759 -5.00513 -0.693885 0
M  V30 5533 C 536.957 -5.13013 -0.363598 0
M  V30 5534 N 534.939 -6.13774 0.124266 0
M  V30 5535 C 536.31 -6.19186 0.31757 0
M  V30 5536 C 538.365 -4.97126 -0.277468 0
M  V30 5537 C 537.068 -7.11197 1.07664 0
M  V30 5538 C 539.094 -5.89544 0.468155 0
M  V30 5539 C 538.456 -6.95149 1.13784 0
M  V30 5540 H 534.555 -0.712833 -0.321549 0
M  V30 5541 H 537.139 -1.93633 -0.203588 0
M  V30 5542 H 535.31 -2.97126 -2.50142 0
M  V30 5543 H 537.042 -3.21499 -2.45806 0
M  V30 5544 H 533.797 -4.62619 -1.01391 0
M  V30 5545 H 534.221 -6.74981 0.522418 0
M  V30 5546 H 538.863 -4.15526 -0.78087 0
M  V30 5547 H 536.581 -7.92273 1.59153 0
M  V30 5548 H 540.167 -5.79327 0.535911 0
M  V30 5549 H 539.047 -7.65428 1.70557 0
M  V30 5550 N 536.55 0.480323 -1.50102 0
M  V30 5551 C 537.79 1.24301 -1.62261 0
M  V30 5552 C 538.154 1.89452 -0.311758 0
M  V30 5553 O 539.355 2.67022 -0.308696 0
M  V30 5554 C 537.626 2.26588 -2.76392 0
M  V30 5555 S 539.185 3.11919 -3.08629 0
M  V30 5556 H 536.003 0.42215 -0.57211 0
M  V30 5557 H 538.605 0.541591 -1.87848 0
M  V30 5558 H 537.309 1.7729 -3.70131 0
M  V30 5559 H 536.84 3.01371 -2.52862 0
M  V30 5560 H 538.855 4.27598 -2.51742 0
M  V30 5561 N 538.028 1.39524 0.732853 0
M  V30 5562 C 538.991 1.38189 1.82857 0
M  V30 5563 C 539.991 0.278624 1.58368 0
M  V30 5564 O 541.181 0.536639 1.65728 0
M  V30 5565 C 538.313 1.15661 3.2068 0
M  V30 5566 H 539.506 2.35692 1.85444 0
M  V30 5567 H 537.059 1.2512 0.936728 0
M  V30 5568 H 537.794 0.188482 3.23752 0
M  V30 5569 H 537.579 1.95559 3.39852 0
M  V30 5570 H 539.069 1.17472 4.00737 0
M  V30 5571 N 539.506 -0.963266 1.24736 0
M  V30 5572 C 540.436 -2.07628 1.06832 0
M  V30 5573 C 541.417 -1.70088 -0.0200566 0
M  V30 5574 O 542.602 -1.93636 0.147854 0
M  V30 5575 C 539.732 -3.40636 0.677069 0
M  V30 5576 C 538.686 -3.9215 1.71471 0
M  V30 5577 C 538.012 -5.21553 1.1784 0
M  V30 5578 C 539.312 -4.19493 3.11164 0
M  V30 5579 H 541.006 -2.22864 1.9993 0
M  V30 5580 H 538.552 -1.07093 0.96266 0
M  V30 5581 H 540.505 -4.17941 0.538792 0
M  V30 5582 H 539.229 -3.25313 -0.289612 0
M  V30 5583 H 537.888 -3.17005 1.84128 0
M  V30 5584 H 537.536 -5.02593 0.202195 0
M  V30 5585 H 537.236 -5.56988 1.87185 0
M  V30 5586 H 538.76 -6.01463 1.05233 0
M  V30 5587 H 540.174 -4.87487 3.01711 0
M  V30 5588 H 538.571 -4.66165 3.77902 0
M  V30 5589 H 539.641 -3.26097 3.58871 0
M  V30 5590 N 540.985 -1.06182 -1.16461 0
M  V30 5591 C 542.21 -0.798599 -1.91408 0
M  V30 5592 C 542.635 0.640987 -1.76842 0
M  V30 5593 O 541.993 1.44652 -1.09296 0
M  V30 5594 C 542.041 -1.19665 -3.40165 0
M  V30 5595 O 541.145 -0.334768 -4.11039 0
M  V30 5596 H 540.486 -0.291961 -0.596368 0
M  V30 5597 H 543.016 -1.41732 -1.47557 0
M  V30 5598 H 543.026 -1.16772 -3.90933 0
M  V30 5599 H 541.701 -2.24526 -3.50087 0
M  V30 5600 H 540.278 -0.425168 -3.70468 0
M  V30 5601 N 542.463 1.3308 -0.844243 0
M  V30 5602 C 543.413 2.26589 -0.253289 0
M  V30 5603 C 544.397 1.49501 0.594836 0
M  V30 5604 O 545.589 1.71291 0.445924 0
M  V30 5605 C 542.718 3.38599 0.566176 0
M  V30 5606 C 541.804 4.23081 -0.293756 0
M  V30 5607 N 542.195 4.86751 -1.37505 0
M  V30 5608 C 540.493 4.45925 -0.0817086 0
M  V30 5609 C 541.194 5.49684 -1.90323 0
M  V30 5610 N 540.17 5.30101 -1.20391 0
M  V30 5611 H 543.972 2.73334 -1.08009 0
M  V30 5612 H 541.486 1.47048 -0.689258 0
M  V30 5613 H 543.483 4.04584 1.00587 0
M  V30 5614 H 542.143 2.93401 1.39089 0
M  V30 5615 H 543.154 4.87151 -1.75796 0
M  V30 5616 H 539.831 4.11434 0.709129 0
M  V30 5617 H 541.221 6.10363 -2.80902 0
M  V30 5618 N 543.941 0.601185 1.45683 0
M  V30 5619 C 544.891 -0.142686 2.27553 0
M  V30 5620 C 545.875 -0.844598 1.3695 0
M  V30 5621 O 547.067 -0.735644 1.60988 0
M  V30 5622 C 544.196 -1.14364 3.23691 0
M  V30 5623 C 543.282 -0.442894 4.21781 0
M  V30 5624 N 543.673 0.51189 5.03203 0
M  V30 5625 C 541.971 -0.691277 4.4061 0
M  V30 5626 C 542.672 0.92318 5.74328 0
M  V30 5627 N 541.648 0.268308 5.42937 0
M  V30 5628 H 545.45 0.590736 2.87902 0
M  V30 5629 H 542.964 0.424365 1.56757 0
M  V30 5630 H 544.961 -1.6909 3.8107 0
M  V30 5631 H 543.621 -1.87768 2.64902 0
M  V30 5632 H 544.632 0.888329 5.10225 0
M  V30 5633 H 541.309 -1.41049 3.92952 0
M  V30 5634 H 542.699 1.71029 6.49768 0
M  V30 5635 N 545.419 -1.53889 0.339982 0
M  V30 5636 C 546.329 -2.28604 -0.526988 0
M  V30 5637 C 547.345 -1.33578 -1.11503 0
M  V30 5638 O 548.521 -1.66612 -1.13148 0
M  V30 5639 C 545.586 -3.04164 -1.66389 0
M  V30 5640 C 544.647 -4.14809 -1.10599 0
M  V30 5641 C 543.88 -4.86756 -2.18871 0
M  V30 5642 O 544.103 -4.58343 -3.39526 0
M  V30 5643 O 543.037 -5.73289 -1.83366 0
M  V30 5644 H 546.863 -3.03594 0.0802707 0
M  V30 5645 H 544.448 -1.4903 0.105141 0
M  V30 5646 H 546.33 -3.51427 -2.32544 0
M  V30 5647 H 545.005 -2.32035 -2.25703 0
M  V30 5648 H 543.912 -3.71857 -0.409067 0
M  V30 5649 H 545.245 -4.89029 -0.557771 0
M  V30 5650 N 546.897 -0.0685191 -1.57451 0
M  V30 5651 C 548.313 0.288101 -1.56978 0
M  V30 5652 C 548.513 1.70262 -1.07765 0
M  V30 5653 O 547.569 2.4135 -0.742054 0
M  V30 5654 C 548.882 0.100745 -3.00531 0
M  V30 5655 C 550.43 0.170531 -3.12535 0
M  V30 5656 C 550.905 0.0114944 -4.57999 0
M  V30 5657 N 552.396 0.0672065 -4.63151 0
M  V30 5658 C 553.131 -0.0314813 -5.73391 0
M  V30 5659 N 552.627 -0.183503 -6.92557 0
M  V30 5660 N 554.42 0.0253489 -5.62094 0
M  V30 5661 H 546.571 -0.993026 -1.87757 0
M  V30 5662 H 548.834 -0.386981 -0.865419 0
M  V30 5663 H 548.54 -0.875197 -3.40636 0
M  V30 5664 H 548.414 0.854457 -3.67395 0
M  V30 5665 H 550.801 1.13696 -2.72318 0
M  V30 5666 H 550.882 -0.614229 -2.48316 0
M  V30 5667 H 550.526 -0.951684 -4.98904 0
M  V30 5668 H 550.456 0.815617 -5.20245 0
M  V30 5669 H 552.947 0.183246 -3.77455 0
M  V30 5670 H 553.26 -0.251041 -7.72392 0
M  V30 5671 H 551.605 -0.218822 -6.94655 0
M  V30 5672 H 554.796 0.142794 -4.67882 0
M  V30 5673 H 554.969 -0.0550166 -6.47977 0
M  V30 5674 N 548.375 1.56261 0.205012 0
M  V30 5675 C 549.305 1.96779 1.257 0
M  V30 5676 C 550.286 0.838309 1.48008 0
M  V30 5677 O 551.471 1.10189 1.59913 0
M  V30 5678 C 548.601 2.29876 2.60335 0
M  V30 5679 C 547.555 3.45469 2.52656 0
M  V30 5680 C 546.881 3.64215 3.91473 0
M  V30 5681 C 548.181 4.79954 2.06014 0
M  V30 5682 H 549.875 2.84904 0.920338 0
M  V30 5683 H 547.421 1.37072 0.441277 0
M  V30 5684 H 549.374 2.56814 3.34102 0
M  V30 5685 H 548.098 1.38622 2.95722 0
M  V30 5686 H 546.757 3.18605 1.81345 0
M  V30 5687 H 546.405 2.70309 4.24196 0
M  V30 5688 H 546.105 4.41973 3.87213 0
M  V30 5689 H 547.629 3.93519 4.66878 0
M  V30 5690 H 549.043 5.05989 2.69533 0
M  V30 5691 H 547.44 5.61111 2.12777 0
M  V30 5692 H 548.51 4.74201 1.01297 0
M  V30 5693 N 549.853 -0.472356 1.50355 0
M  V30 5694 C 550.8 -1.57051 1.69126 0
M  V30 5695 C 551.77 -1.5733 0.532574 0
M  V30 5696 O 552.955 -1.7488 0.762994 0
M  V30 5697 C 550.095 -2.95033 1.79024 0
M  V30 5698 C 549.208 -3.04552 3.06386 0
M  V30 5699 C 548.343 -4.33441 3.07087 0
M  V30 5700 C 547.382 -4.36697 4.28908 0
M  V30 5701 N 546.519 -5.57056 4.27356 0
M  V30 5702 H 551.359 -1.40351 2.62879 0
M  V30 5703 H 548.896 -0.682403 1.30314 0
M  V30 5704 H 550.854 -3.75048 1.82744 0
M  V30 5705 H 549.484 -3.10371 0.887109 0
M  V30 5706 H 548.536 -2.17419 3.12143 0
M  V30 5707 H 549.848 -3.02818 3.96362 0
M  V30 5708 H 549.002 -5.21801 3.09529 0
M  V30 5709 H 547.741 -4.37782 2.14939 0
M  V30 5710 H 546.746 -3.46734 4.2668 0
M  V30 5711 H 547.971 -4.34049 5.22282 0
M  V30 5712 H 545.917 -5.62184 3.3806 0
M  V30 5713 H 545.834 -5.57058 5.111 0
M  V30 5714 H 547.102 -6.47545 4.33942 0
M  V30 5715 N 551.331 -1.39911 -0.725443 0
M  V30 5716 C 552.571 -1.39096 -1.49772 0
M  V30 5717 C 552.935 0.0106452 -1.91997 0
M  V30 5718 O 554.136 0.143859 -2.68415 0
M  V30 5719 C 552.407 -2.34441 -2.69764 0
M  V30 5720 S 553.966 -2.51898 -3.59295 0
M  V30 5721 H 550.784 -0.49314 -0.512186 0
M  V30 5722 H 553.386 -1.76093 -0.849197 0
M  V30 5723 H 552.09 -3.35123 -2.36898 0
M  V30 5724 H 551.621 -1.98692 -3.39537 0
M  V30 5725 H 553.636 -1.76402 -4.63785 0
M  V30 5726 N 552.809 0.956637 -1.25245 0
M  V30 5727 C 554.086 1.67716 -1.00651 0
M  V30 5728 C 554.466 2.0585 0.467866 0
M  V30 5729 O 553.814 1.77029 1.44475 0
M  V30 5730 C 554.024 2.90093 -1.94028 0
M  V30 5731 C 555.372 3.6209 -2.21756 0
M  V30 5732 O 556.396 3.00171 -1.9177 0
M  V30 5733 O 555.255 4.7358 -2.72735 0
M  V30 5734 H 552.349 0.733731 -0.381533 0
M  V30 5735 H 554.895 1.00974 -1.3639 0
M  V30 5736 H 553.667 2.58689 -2.93591 0
M  V30 5737 H 553.29 3.64566 -1.58674 0
M  V30 5738 N 554.287 1.06798 1.15896 0
M  V30 5739 C 555.197 0.694564 2.24083 0
M  V30 5740 C 556.213 -0.291687 1.71538 0
M  V30 5741 O 557.389 -0.139723 2.00915 0
M  V30 5742 C 554.454 0.0921014 3.46578 0
M  V30 5743 C 553.515 1.13087 4.14137 0
M  V30 5744 C 552.748 0.557064 5.30785 0
M  V30 5745 O 552.971 -0.628623 5.66925 0
M  V30 5746 O 551.905 1.29924 5.8771 0
M  V30 5747 H 555.731 1.59663 2.58344 0
M  V30 5748 H 553.316 0.840575 1.2351 0
M  V30 5749 H 555.198 -0.241884 4.20705 0
M  V30 5750 H 553.873 -0.78337 3.14078 0
M  V30 5751 H 552.78 1.51712 3.41957 0
M  V30 5752 H 554.113 1.97805 4.50704 0
M  V30 5753 N 555.766 -1.3263 0.851289 0
M  V30 5754 C 557.012 -1.98061 0.462963 0
M  V30 5755 C 557.367 -1.66162 -0.969948 0
M  V30 5756 O 556.66 -0.937723 -1.67085 0
M  V30 5757 C 556.854 -3.51713 0.635015 0
M  V30 5758 C 556.683 -3.98544 2.0831 0
M  V30 5759 C 555.453 -4.25787 2.72091 0
M  V30 5760 C 557.651 -4.13858 3.0533 0
M  V30 5761 N 555.633 -4.58842 4.07845 0
M  V30 5762 C 557.004 -4.50412 4.26063 0
M  V30 5763 C 559.059 -3.96182 3.0157 0
M  V30 5764 C 557.762 -4.71136 5.43529 0
M  V30 5765 C 559.788 -4.18088 4.18278 0
M  V30 5766 C 559.15 -4.54956 5.37768 0
M  V30 5767 H 555.249 -0.750976 0.218082 0
M  V30 5768 H 557.833 -1.60514 1.10197 0
M  V30 5769 H 556.004 -3.88391 0.0257298 0
M  V30 5770 H 557.736 -4.04118 0.216915 0
M  V30 5771 H 554.491 -4.17734 2.23149 0
M  V30 5772 H 554.915 -4.7956 4.77862 0
M  V30 5773 H 559.557 -3.66783 2.1031 0
M  V30 5774 H 557.275 -4.9939 6.35323 0
M  V30 5775 H 560.861 -4.05918 4.168 0
M  V30 5776 H 559.741 -4.71567 6.26573 0
M  V30 5777 N 557.244 -0.608902 -1.45362 0
M  V30 5778 C 558.469 -0.10921 -2.07112 0
M  V30 5779 C 558.894 1.19779 -1.45033 0
M  V30 5780 O 558.252 1.72961 -0.543527 0
M  V30 5781 C 558.3 0.0155745 -3.60597 0
M  V30 5782 O 557.404 1.06546 -3.98399 0
M  V30 5783 H 556.745 -0.0746619 -0.659789 0
M  V30 5784 H 559.275 -0.839283 -1.86594 0
M  V30 5785 H 559.285 0.213364 -4.07442 0
M  V30 5786 H 557.96 -0.938765 -4.05167 0
M  V30 5787 H 556.537 0.844024 -3.63223 0
M  V30 5788 N 558.722 1.53707 -0.348139 0
M  V30 5789 C 559.968 2.01286 0.247332 0
M  V30 5790 C 560.301 1.23546 1.49834 0
M  V30 5791 O 559.576 0.324331 1.91777 0
M  V30 5792 C 559.859 3.55768 0.556858 0
M  V30 5793 C 559.712 4.44216 -0.706564 0
M  V30 5794 C 561.031 4.1841 1.3646 0
M  V30 5795 H 558.15 0.731677 0.0884201 0
M  V30 5796 H 560.792 1.84106 -0.469584 0
M  V30 5797 H 558.942 3.70539 1.16761 0
M  V30 5798 H 560.614 4.41274 -1.34444 0
M  V30 5799 H 558.857 4.12892 -1.33052 0
M  V30 5800 H 559.528 5.50202 -0.445186 0
M  V30 5801 H 562.004 4.07365 0.848113 0
M  V30 5802 H 560.88 5.26563 1.54992 0
M  V30 5803 H 561.141 3.7333 2.36805 0
M  V30 5804 N 560.2 0.0768682 1.57412 0
M  V30 5805 C 561.148 -0.906229 2.1422 0
M  V30 5806 C 562.142 -1.30477 1.08037 0
M  V30 5807 O 563.348 -1.28143 1.2641 0
M  V30 5808 H 559.723 -0.310207 0.685037 0
M  V30 5809 H 561.694 -0.402228 2.95677 0
M  V30 5810 C 560.443 -2.16245 2.72274 0
M  V30 5811 H 559.766 -1.86463 3.53655 0
M  V30 5812 H 561.206 -2.83134 3.15613 0
M  V30 5813 C 559.665 -2.92437 1.67279 0
M  V30 5814 O 560.195 -3.86322 1.10081 0
M  V30 5815 N 558.401 -2.55637 1.38195 0
M  V30 5816 H 557.948 -1.79363 1.84897 0
M  V30 5817 H 557.906 -3.06919 0.681787 0
M  V30 5818 N 561.678 -1.56367 -0.196722 0
M  V30 5819 C 562.903 -1.84991 -0.937714 0
M  V30 5820 C 563.328 -0.660244 -1.76132 0
M  V30 5821 O 562.686 0.390967 -1.77034 0
M  V30 5822 C 562.734 -3.11828 -1.81096 0
M  V30 5823 O 561.838 -2.92266 -2.90955 0
M  V30 5824 H 561.179 -0.609193 -0.264159 0
M  V30 5825 H 563.709 -2.03595 -0.202529 0
M  V30 5826 H 563.719 -3.42579 -2.21594 0
M  V30 5827 H 562.394 -3.98037 -1.2058 0
M  V30 5828 H 560.971 -2.72809 -2.54224 0
M  V30 5829 N 563.156 0.464375 -1.50603 0
M  V30 5830 C 564.402 1.21776 -1.62168 0
M  V30 5831 C 564.735 1.91476 -0.324154 0
M  V30 5832 O 564.01 1.8242 0.674782 0
M  V30 5833 C 564.293 2.25614 -2.80661 0
M  V30 5834 C 564.146 1.60175 -4.20314 0
M  V30 5835 C 565.465 3.26862 -2.94702 0
M  V30 5836 H 562.584 0.44137 -0.590222 0
M  V30 5837 H 565.226 0.510623 -1.8301 0
M  V30 5838 H 563.376 2.85923 -2.63021 0
M  V30 5839 H 565.048 1.03411 -4.4956 0
M  V30 5840 H 563.291 0.904697 -4.24261 0
M  V30 5841 H 563.962 2.35665 -4.99165 0
M  V30 5842 H 566.438 2.76582 -3.10872 0
M  V30 5843 H 565.314 3.96839 -3.79223 0
M  V30 5844 H 565.575 3.91382 -2.05603 0
M  V30 5845 N 564.634 1.40294 0.718013 0
M  V30 5846 C 565.882 1.38167 1.47494 0
M  V30 5847 C 566.203 -0.01607 1.94993 0
M  V30 5848 O 565.473 -0.970396 1.70177 0
M  V30 5849 H 564.053 0.508505 0.547203 0
M  V30 5850 H 566.715 1.75324 0.851322 0
M  V30 5851 H 565.811 2.05503 2.34894 0
M  V30 5852 N 566.112 -0.949982 1.2575 0
M  V30 5853 C 567.059 -2.04738 1.06541 0
M  V30 5854 C 568.029 -1.66078 -0.0268818 0
M  V30 5855 O 569.214 -1.90348 0.131196 0
M  V30 5856 C 566.354 -3.38027 0.695127 0
M  V30 5857 C 565.467 -3.89776 1.86276 0
M  V30 5858 C 564.602 -5.11411 1.4364 0
M  V30 5859 C 563.641 -5.554 2.57287 0
M  V30 5860 N 562.778 -6.68244 2.15395 0
M  V30 5861 H 567.618 -2.20502 2.00457 0
M  V30 5862 H 565.155 -1.0805 0.998178 0
M  V30 5863 H 567.113 -4.14641 0.461375 0
M  V30 5864 H 565.743 -3.22135 -0.207046 0
M  V30 5865 H 564.795 -3.0964 2.20969 0
M  V30 5866 H 566.107 -4.18368 2.71606 0
M  V30 5867 H 565.261 -5.95457 1.16257 0
M  V30 5868 H 564 -4.84545 0.553879 0
M  V30 5869 H 563.005 -4.69916 2.85409 0
M  V30 5870 H 564.23 -5.84272 3.46125 0
M  V30 5871 H 562.176 -6.43078 1.29565 0
M  V30 5872 H 562.093 -6.96377 2.94272 0
M  V30 5873 H 563.361 -7.55687 1.91201 0
M  V30 5874 N 567.59 -1.07411 -1.15328 0
M  V30 5875 C 568.839 -0.792643 -1.85473 0
M  V30 5876 C 569.152 0.683789 -1.83259 0
M  V30 5877 O 570.358 1.08005 -2.49093 0
M  V30 5878 C 568.814 -1.36787 -3.32892 0
M  V30 5879 C 568.422 -2.87536 -3.43551 0
M  V30 5880 C 570.166 -1.16444 -4.08217 0
M  V30 5881 C 568.073 -3.38247 -4.85122 0
M  V30 5882 H 567.003 -0.292838 -0.694811 0
M  V30 5883 H 569.654 -1.29426 -1.30082 0
M  V30 5884 H 568.036 -0.793993 -3.87958 0
M  V30 5885 H 569.21 -3.50973 -2.98588 0
M  V30 5886 H 567.525 -3.06676 -2.81672 0
M  V30 5887 H 570.122 -1.51808 -5.12697 0
M  V30 5888 H 570.465 -0.10353 -4.16171 0
M  V30 5889 H 570.998 -1.70472 -3.59422 0
M  V30 5890 H 567.737 -4.43866 -4.82351 0
M  V30 5891 H 567.257 -2.79564 -5.30664 0
M  V30 5892 H 568.936 -3.34238 -5.5398 0
M  V30 5893 N 569.068 1.32177 -0.85831 0
M  V30 5894 C 569.978 2.32561 -0.308606 0
M  V30 5895 C 570.994 1.64209 0.575462 0
M  V30 5896 O 572.17 1.95719 0.474961 0
M  V30 5897 C 569.235 3.43207 0.490909 0
M  V30 5898 C 568.296 4.27243 -0.419733 0
M  V30 5899 C 567.529 5.32605 0.341719 0
M  V30 5900 O 567.752 5.48332 1.57125 0
M  V30 5901 O 566.686 6.0118 -0.294379 0
M  V30 5902 H 570.512 2.81477 -1.14037 0
M  V30 5903 H 568.097 1.35866 -0.621349 0
M  V30 5904 H 569.979 4.10677 0.944574 0
M  V30 5905 H 568.654 2.96474 1.29941 0
M  V30 5906 H 567.561 3.62569 -0.921652 0
M  V30 5907 H 568.894 4.7751 -1.19352 0
M  V30 5908 N 570.547 0.616602 1.45037 0
M  V30 5909 C 571.787 0.118453 2.04056 0
M  V30 5910 C 572.151 -1.23104 1.47341 0
M  V30 5911 O 573.352 -1.82044 1.97771 0
M  V30 5912 C 571.623 0.0892842 3.57288 0
M  V30 5913 S 573.182 -0.346361 4.37431 0
M  V30 5914 H 570 0.0539728 0.708948 0
M  V30 5915 H 572.602 0.816731 1.77623 0
M  V30 5916 H 571.306 1.07481 3.96076 0
M  V30 5917 H 570.837 -0.630703 3.88311 0
M  V30 5918 H 572.852 -1.59389 4.69904 0
M  V30 5919 N 572.025 -1.5352 0.356285 0
M  V30 5920 C 573.271 -2.01414 -0.236653 0
M  V30 5921 C 573.604 -1.24339 -1.49176 0
M  V30 5922 O 572.879 -0.334496 -1.91602 0
M  V30 5923 C 573.162 -3.56059 -0.537982 0
M  V30 5924 C 573.015 -4.43835 0.730112 0
M  V30 5925 C 574.334 -4.19127 -1.34239 0
M  V30 5926 H 571.453 -0.732135 -0.0845386 0
M  V30 5927 H 574.095 -1.83854 0.479341 0
M  V30 5928 H 572.245 -3.71153 -1.14795 0
M  V30 5929 H 573.917 -4.40555 1.36782 0
M  V30 5930 H 572.16 -4.1218 1.3524 0
M  V30 5931 H 572.831 -5.49958 0.474358 0
M  V30 5932 H 575.307 -4.07809 -0.826498 0
M  V30 5933 H 574.183 -5.27378 -1.52198 0
M  V30 5934 H 574.444 -3.74581 -2.34822 0
M  V30 5935 N 573.503 -0.0852151 -1.57369 0
M  V30 5936 C 574.728 0.592872 -1.98746 0
M  V30 5937 C 575.153 1.61538 -0.963689 0
M  V30 5938 O 574.511 1.81168 0.069071 0
M  V30 5939 C 574.559 1.22599 -3.39119 0
M  V30 5940 O 573.663 2.34185 -3.39457 0
M  V30 5941 H 573.004 0.151314 -0.646529 0
M  V30 5942 H 575.534 -0.163703 -2.03944 0
M  V30 5943 H 575.544 1.56965 -3.76598 0
M  V30 5944 H 574.219 0.476831 -4.13158 0
M  V30 5945 H 572.796 2.01512 -3.13763 0
M  V30 5946 N 574.981 1.5647 0.188427 0
M  V30 5947 C 575.944 1.9421 1.21718 0
M  V30 5948 C 576.944 0.823901 1.38089 0
M  V30 5949 O 578.134 1.09122 1.35787 0
M  V30 5950 C 575.266 2.22197 2.58537 0
M  V30 5951 H 576.459 2.86252 0.894418 0
M  V30 5952 H 574.012 1.50263 0.430211 0
M  V30 5953 H 574.747 1.32814 2.95856 0
M  V30 5954 H 574.532 3.03688 2.48025 0
M  V30 5955 H 576.022 2.52376 3.3271 0
M  V30 5956 N 576.459 -0.456382 1.50847 0
M  V30 5957 C 577.369 -1.57805 1.73594 0
M  V30 5958 C 578.385 -1.62599 0.619476 0
M  V30 5959 O 579.561 -1.80195 0.899532 0
M  V30 5960 C 576.626 -2.93926 1.8387 0
M  V30 5961 C 575.687 -2.99402 3.07663 0
M  V30 5962 C 574.92 -4.29031 3.1744 0
M  V30 5963 O 575.143 -5.20358 2.33631 0
M  V30 5964 O 574.077 -4.40401 4.10281 0
M  V30 5965 H 577.903 -1.41531 2.68705 0
M  V30 5966 H 575.488 -0.637422 1.3512 0
M  V30 5967 H 577.37 -3.74747 1.92725 0
M  V30 5968 H 576.045 -3.10368 0.91944 0
M  V30 5969 H 574.952 -2.17606 3.043 0
M  V30 5970 H 576.285 -2.87901 3.99216 0
M  V30 5971 N 577.937 -1.40673 -0.710563 0
M  V30 5972 C 579.165 -1.42547 -1.4996 0
M  V30 5973 C 579.58 -0.0265485 -1.88781 0
M  V30 5974 O 578.937 0.950694 -1.55782 0
M  V30 5975 C 578.988 -2.32071 -2.77173 0
M  V30 5976 O 578.709 -3.66518 -2.39992 0
M  V30 5977 C 580.21 -2.42591 -3.71032 0
M  V30 5978 H 577.43 -0.486025 -0.462623 0
M  V30 5979 H 579.974 -1.84783 -0.876102 0
M  V30 5980 H 578.129 -1.93184 -3.35795 0
M  V30 5981 H 578.543 -4.14115 -3.21884 0
M  V30 5982 H 580.017 -3.09429 -4.57119 0
M  V30 5983 H 580.494 -1.4525 -4.14486 0
M  V30 5984 H 581.1 -2.82051 -3.18319 0
M  V30 5985 N 579.415 0.9433 -1.26252 0
M  V30 5986 C 580.643 1.72367 -1.14443 0
M  V30 5987 C 581.058 1.86392 0.300572 0
M  V30 5988 O 580.415 1.36978 1.20596 0
M  V30 5989 C 580.466 3.13155 -1.806 0
M  V30 5990 O 580.187 2.99803 -3.19452 0
M  V30 5991 C 581.688 4.07417 -1.74717 0
M  V30 5992 H 578.908 0.539758 -0.398626 0
M  V30 5993 H 581.452 1.18268 -1.66832 0
M  V30 5994 H 579.607 3.64162 -1.32154 0
M  V30 5995 H 580.021 3.88697 -3.52158 0
M  V30 5996 H 581.495 5.03773 -2.25647 0
M  V30 5997 H 581.972 4.3337 -0.713244 0
M  V30 5998 H 582.578 3.6233 -2.22704 0
M  V30 5999 N 580.893 1.08022 1.14757 0
M  V30 6000 C 581.803 0.718292 2.23333 0
M  V30 6001 C 582.819 -0.273477 1.71837 0
M  V30 6002 O 583.995 -0.118406 2.01052 0
M  V30 6003 C 581.06 0.128855 3.4646 0
M  V30 6004 C 580.121 1.17473 4.12915 0
M  V30 6005 C 579.354 0.61333 5.30164 0
M  V30 6006 O 579.577 -0.568458 5.6756 0
M  V30 6007 O 578.511 1.3615 5.86299 0
M  V30 6008 H 582.337 1.62394 2.56636 0
M  V30 6009 H 579.922 0.853628 1.22611 0
M  V30 6010 H 581.804 -0.197249 4.20938 0
M  V30 6011 H 580.479 -0.750014 3.14891 0
M  V30 6012 H 579.386 1.5533 3.40328 0
M  V30 6013 H 580.719 2.02574 4.48581 0
M  V30 6014 N 582.371 -1.3172 0.865308 0
M  V30 6015 C 583.648 -1.91574 0.394789 0
M  V30 6016 C 584.028 -1.78769 -1.12271 0
M  V30 6017 O 583.376 -1.19245 -1.94918 0
M  V30 6018 C 583.586 -3.37957 0.870982 0
M  V30 6019 C 584.934 -4.15073 0.894384 0
M  V30 6020 O 585.958 -3.4672 0.816325 0
M  V30 6021 O 584.817 -5.37151 1.00651 0
M  V30 6022 H 581.911 -0.818649 0.117229 0
M  V30 6023 H 584.457 -1.4042 0.952913 0
M  V30 6024 H 583.229 -3.41269 1.91444 0
M  V30 6025 H 582.852 -3.96534 0.290907 0
M  V30 6026 N 583.85 -0.624285 -1.44708 0
M  V30 6027 C 585.09 -0.129273 -2.03991 0
M  V30 6028 C 585.454 1.22321 -1.47992 0
M  V30 6029 O 586.654 1.80993 -1.98734 0
M  V30 6030 C 584.926 -0.108231 -3.57236 0
M  V30 6031 S 586.485 0.323158 -4.37608 0
M  V30 6032 H 583.303 -0.0577318 -0.708652 0
M  V30 6033 H 585.904 -0.826139 -1.77187 0
M  V30 6034 H 584.609 -1.0958 -3.955 0
M  V30 6035 H 584.139 0.610101 -3.8864 0
M  V30 6036 H 586.154 1.56894 -4.70743 0
M  V30 6037 N 585.328 1.53329 -0.364422 0
M  V30 6038 C 586.577 2.00421 0.226747 0
M  V30 6039 C 586.89 1.25581 1.49963 0
M  V30 6040 O 588.096 1.63256 2.16933 0
M  V30 6041 C 586.552 3.57017 0.454618 0
M  V30 6042 C 586.16 4.40734 -0.803568 0
M  V30 6043 C 587.904 4.12468 1.00351 0
M  V30 6044 C 585.811 5.8888 -0.545345 0
M  V30 6045 H 584.741 0.748787 0.0885082 0
M  V30 6046 H 587.392 1.7703 -0.482983 0
M  V30 6047 H 585.774 3.76558 1.22558 0
M  V30 6048 H 586.948 4.32967 -1.57723 0
M  V30 6049 H 585.263 3.96381 -1.27559 0
M  V30 6050 H 587.86 5.20783 1.212 0
M  V30 6051 H 588.203 3.6699 1.9653 0
M  V30 6052 H 588.736 3.96721 0.29274 0
M  V30 6053 H 585.475 6.38633 -1.47743 0
M  V30 6054 H 584.995 5.99499 0.189842 0
M  V30 6055 H 586.674 6.46776 -0.170425 0
M  V30 6056 N 586.806 0.0935595 1.57322 0
M  V30 6057 C 587.769 -0.851426 2.12799 0
M  V30 6058 C 588.769 -1.21187 1.0569 0
M  V30 6059 O 589.959 -1.14156 1.31583 0
M  V30 6060 C 587.091 -2.14779 2.64731 0
M  V30 6061 H 588.284 -0.369733 2.97612 0
M  V30 6062 H 585.837 -0.155417 1.55525 0
M  V30 6063 H 586.572 -2.67437 1.83434 0
M  V30 6064 H 586.357 -1.89907 3.43042 0
M  V30 6065 H 587.847 -2.82383 3.07651 0
M  V30 6066 N 588.284 -1.56567 -0.180126 0
M  V30 6067 C 589.231 -1.95725 -1.22313 0
M  V30 6068 C 590.201 -0.819911 -1.44453 0
M  V30 6069 O 591.386 -1.07931 -1.57339 0
M  V30 6070 C 588.526 -2.31484 -2.55947 0
M  V30 6071 C 587.639 -3.58354 -2.4126 0
M  V30 6072 C 586.774 -3.83366 -3.67701 0
M  V30 6073 C 585.813 -5.03612 -3.47909 0
M  V30 6074 N 584.95 -5.24802 -4.66398 0
M  V30 6075 H 589.79 -2.84642 -0.882198 0
M  V30 6076 H 587.327 -1.4085 -0.42422 0
M  V30 6077 H 589.285 -2.50237 -3.33822 0
M  V30 6078 H 587.915 -1.45689 -2.88053 0
M  V30 6079 H 586.967 -3.47565 -1.54606 0
M  V30 6080 H 588.279 -4.46386 -2.22577 0
M  V30 6081 H 587.433 -4.02439 -4.54013 0
M  V30 6082 H 586.172 -2.93692 -3.89353 0
M  V30 6083 H 585.177 -4.84447 -2.59983 0
M  V30 6084 H 586.402 -5.94809 -3.27688 0
M  V30 6085 H 584.348 -4.38079 -4.88286 0
M  V30 6086 H 584.265 -6.07041 -4.50596 0
M  V30 6087 H 585.533 -5.48346 -5.54019 0
M  V30 6088 N 589.762 0.448376 -1.51087 0
M  V30 6089 C 591.011 1.19561 -1.62444 0
M  V30 6090 C 591.324 1.92602 -0.341151 0
M  V30 6091 O 592.53 2.69439 -0.333936 0
M  V30 6092 C 590.986 2.17373 -2.8684 0
M  V30 6093 C 590.594 1.5003 -4.22131 0
M  V30 6094 C 592.338 2.92597 -3.0755 0
M  V30 6095 C 590.245 2.46262 -5.37689 0
M  V30 6096 H 589.175 0.449975 -0.605011 0
M  V30 6097 H 591.826 0.463735 -1.77544 0
M  V30 6098 H 590.208 2.93948 -2.65349 0
M  V30 6099 H 591.382 0.790886 -4.53962 0
M  V30 6100 H 589.697 0.870011 -4.0721 0
M  V30 6101 H 592.294 3.64663 -3.91056 0
M  V30 6102 H 592.637 3.53306 -2.20183 0
M  V30 6103 H 593.17 2.23131 -3.29329 0
M  V30 6104 H 589.909 1.90258 -6.27281 0
M  V30 6105 H 589.429 3.15289 -5.10248 0
M  V30 6106 H 591.108 3.07623 -5.6919 0
M  V30 6107 N 591.24 1.41047 0.703093 0
M  V30 6108 C 592.173 1.36713 1.82715 0
M  V30 6109 C 593.151 0.235533 1.60885 0
M  V30 6110 O 594.335 0.421227 1.83733 0
M  V30 6111 C 591.462 1.13069 3.1927 0
M  V30 6112 C 590.508 2.28846 3.59905 0
M  V30 6113 S 591.341 3.91297 3.65578 0
M  V30 6114 C 592.497 3.69941 5.04871 0
M  V30 6115 H 592.73 2.31838 1.86114 0
M  V30 6116 H 590.263 1.27481 0.871083 0
M  V30 6117 H 592.221 1.00113 3.98105 0
M  V30 6118 H 590.882 0.195763 3.13489 0
M  V30 6119 H 590.075 2.07977 4.59088 0
M  V30 6120 H 589.677 2.3817 2.88359 0
M  V30 6121 H 591.969 3.29181 5.92154 0
M  V30 6122 H 592.912 4.68699 5.30779 0
M  V30 6123 H 593.32 3.03369 4.76054 0
M  V30 6124 N 592.718 -0.936591 1.26751 0
M  V30 6125 C 593.666 -2.0573 1.08527 0
M  V30 6126 C 594.66 -1.69397 0.0108784 0
M  V30 6127 O 595.866 -1.79215 0.167915 0
M  V30 6128 H 592.241 -0.673691 0.334133 0
M  V30 6129 H 594.212 -2.1825 2.03493 0
M  V30 6130 C 592.961 -3.39738 0.739845 0
M  V30 6131 H 592.284 -3.68174 1.55845 0
M  V30 6132 H 593.724 -4.18955 0.652149 0
M  V30 6133 C 592.183 -3.32292 -0.555288 0
M  V30 6134 O 592.713 -3.68794 -1.59229 0
M  V30 6135 N 590.919 -2.85394 -0.54762 0
M  V30 6136 H 590.466 -2.55886 0.296667 0
M  V30 6137 H 590.424 -2.80795 -1.41427 0
M  V30 6138 N 594.196 -1.08629 -1.14182 0
M  V30 6139 C 595.444 -0.815731 -1.84906 0
M  V30 6140 C 595.765 0.660441 -1.83475 0
M  V30 6141 O 595.035 1.47888 -1.28476 0
M  V30 6142 H 593.615 -0.298773 -0.684648 0
M  V30 6143 H 596.277 -1.37274 -1.38354 0
M  V30 6144 H 595.373 -1.16193 -2.89665 0
M  V30 6145 N 595.674 1.31259 -0.872281 0
M  V30 6146 C 596.584 2.32221 -0.333255 0
M  V30 6147 C 597.6 1.6481 0.558013 0
M  V30 6148 O 598.776 1.96212 0.454175 0
M  V30 6149 C 595.841 3.43708 0.454479 0
M  V30 6150 C 594.902 4.26774 -0.465024 0
M  V30 6151 C 594.135 5.32937 0.28521 0
M  V30 6152 O 594.358 5.49968 1.513 0
M  V30 6153 O 593.292 6.00834 -0.358126 0
M  V30 6154 H 597.118 2.80252 -1.17016 0
M  V30 6155 H 594.703 1.352 -0.635724 0
M  V30 6156 H 596.585 4.11656 0.900963 0
M  V30 6157 H 595.26 2.97836 1.26789 0
M  V30 6158 H 594.167 3.61571 -0.960055 0
M  V30 6159 H 595.5 4.76217 -1.2441 0
M  V30 6160 N 597.152 0.631951 1.44375 0
M  V30 6161 C 598.115 -0.0628142 2.29114 0
M  V30 6162 C 599.115 -0.771494 1.41084 0
M  V30 6163 O 600.305 -0.615959 1.62947 0
M  V30 6164 C 597.437 -1.09953 3.22681 0
M  V30 6165 H 598.63 0.682509 2.92031 0
M  V30 6166 H 596.183 0.392128 1.51301 0
M  V30 6167 H 596.918 -1.87481 2.64616 0
M  V30 6168 H 596.703 -0.595286 3.87555 0
M  V30 6169 H 598.193 -1.58538 3.86336 0
M  V30 6170 N 598.631 -1.53133 0.372548 0
M  V30 6171 C 599.908 -1.93704 -0.271693 0
M  V30 6172 C 600.288 -1.30667 -1.65799 0
M  V30 6173 O 599.636 -0.46838 -2.23648 0
M  V30 6174 C 599.846 -3.47576 -0.314903 0
M  V30 6175 C 601.194 -4.20998 -0.551912 0
M  V30 6176 O 602.218 -3.53994 -0.39582 0
M  V30 6177 O 601.077 -5.39748 -0.85639 0
M  V30 6178 H 598.171 -0.810457 -0.164586 0
M  V30 6179 H 600.717 -1.6427 0.425838 0
M  V30 6180 H 599.489 -3.85749 0.656792 0
M  V30 6181 H 599.112 -3.83264 -1.05804 0
M  V30 6182 N 600.109 -0.101901 -1.5727 0
M  V30 6183 C 601.072 0.840129 -2.13247 0
M  V30 6184 C 602.072 1.20625 -1.06331 0
M  V30 6185 O 603.262 1.13456 -1.32186 0
M  V30 6186 C 600.394 2.13372 -2.65867 0
M  V30 6187 H 601.587 0.353945 -2.97804 0
M  V30 6188 H 599.14 0.147167 -1.55606 0
M  V30 6189 H 599.875 2.66461 -1.84849 0
M  V30 6190 H 599.66 1.88085 -3.44044 0
M  V30 6191 H 601.15 2.80748 -3.09145 0
M  V30 6192 N 601.587 1.56661 0.17182 0
M  V30 6193 C 602.52 1.91474 1.24149 0
M  V30 6194 C 603.498 0.777485 1.42807 0
M  V30 6195 O 604.682 1.03075 1.57822 0
M  V30 6196 C 601.809 2.16523 2.60453 0
M  V30 6197 C 600.855 3.39209 2.58533 0
M  V30 6198 S 601.688 4.93594 2.07665 0
M  V30 6199 C 602.844 5.21737 3.45747 0
M  V30 6200 H 603.077 2.81903 0.944346 0
M  V30 6201 H 600.61 1.49743 0.376364 0
M  V30 6202 H 602.568 2.31635 3.38903 0
M  V30 6203 H 601.229 1.26802 2.87368 0
M  V30 6204 H 600.422 3.53935 3.58812 0
M  V30 6205 H 600.024 3.2321 1.88178 0
M  V30 6206 H 602.316 5.13684 4.41741 0
M  V30 6207 H 603.259 6.23361 3.35896 0
M  V30 6208 H 603.667 4.49307 3.41736 0
M  V30 6209 N 603.065 -0.440357 1.51323 0
M  V30 6210 C 604.29 -1.21716 1.67928 0
M  V30 6211 C 604.715 -1.84328 0.374826 0
M  V30 6212 O 604.073 -1.68675 -0.664706 0
M  V30 6213 C 604.121 -2.27914 2.79442 0
M  V30 6214 O 603.225 -3.33325 2.42834 0
M  V30 6215 H 602.566 -0.35674 0.560029 0
M  V30 6216 H 605.096 -0.520417 1.97871 0
M  V30 6217 H 605.106 -2.72746 3.03436 0
M  V30 6218 H 603.781 -1.8172 3.741 0
M  V30 6219 H 602.358 -2.9399 2.294 0
M  V30 6220 N 604.543 -1.41418 -0.695603 0
M  V30 6221 C 605.473 -1.46035 -1.82197 0
M  V30 6222 C 606.454 -0.319025 -1.67082 0
M  V30 6223 O 607.639 -0.530462 -1.86815 0
M  V30 6224 C 604.769 -1.34179 -3.20333 0
M  V30 6225 C 603.723 -2.46123 -3.50154 0
M  V30 6226 C 603.049 -2.19332 -4.87645 0
M  V30 6227 C 604.349 -3.88463 -3.49133 0
M  V30 6228 H 606.043 -2.40303 -1.78591 0
M  V30 6229 H 603.589 -1.15663 -0.857797 0
M  V30 6230 H 605.542 -1.36021 -3.98844 0
M  V30 6231 H 604.266 -0.363952 -3.24566 0
M  V30 6232 H 602.925 -2.43563 -2.73994 0
M  V30 6233 H 602.573 -1.19891 -4.88503 0
M  V30 6234 H 602.273 -2.94344 -5.08562 0
M  V30 6235 H 603.797 -2.22889 -5.68465 0
M  V30 6236 H 605.211 -3.92738 -4.17648 0
M  V30 6237 H 603.608 -4.63158 -3.81582 0
M  V30 6238 H 604.678 -4.16617 -2.48109 0
M  V30 6239 N 606.021 0.929856 -1.27246 0
M  V30 6240 C 607.298 1.65544 -1.04186 0
M  V30 6241 C 607.678 2.06796 0.424097 0
M  V30 6242 O 607.026 1.80053 1.40688 0
M  V30 6243 C 607.236 2.85912 -2.00138 0
M  V30 6244 C 608.584 3.57305 -2.29387 0
M  V30 6245 O 609.608 2.96036 -1.98094 0
M  V30 6246 O 608.467 4.67688 -2.82719 0
M  V30 6247 H 605.561 0.725473 -0.397011 0
M  V30 6248 H 608.107 0.980583 -1.38501 0
M  V30 6249 H 606.879 2.52403 -2.99013 0
M  V30 6250 H 606.502 3.61118 -1.66371 0
M  V30 6251 N 607.499 1.09233 1.13605 0
M  V30 6252 C 608.747 0.825525 1.84471 0
M  V30 6253 C 609.068 -0.650702 1.83823 0
M  V30 6254 O 608.338 -1.47204 1.29259 0
M  V30 6255 H 606.918 0.3024 0.683054 0
M  V30 6256 H 609.58 1.38006 1.37624 0
M  V30 6257 H 608.676 1.17727 2.89045 0
M  V30 6258 N 608.977 -1.30795 0.87923 0
M  V30 6259 C 610.225 -1.95974 0.493809 0
M  V30 6260 C 610.546 -1.69787 -0.959021 0
M  V30 6261 O 609.816 -1.01832 -1.67353 0
M  V30 6262 H 608.396 -0.725083 0.179622 0
M  V30 6263 H 611.058 -1.59432 1.12105 0
M  V30 6264 H 610.154 -3.05058 0.659263 0
M  V30 6265 N 610.455 -0.639598 -1.44038 0
M  V30 6266 C 611.702 -0.14748 -2.01962 0
M  V30 6267 C 612.03 1.23372 -1.50365 0
M  V30 6268 O 611.285 1.8345 -0.681501 0
M  V30 6269 C 611.584 -0.0925348 -3.5728 0
M  V30 6270 C 611.25 -1.41365 -4.28167 0
M  V30 6271 C 609.912 -1.77545 -4.47248 0
M  V30 6272 C 612.264 -2.2853 -4.68427 0
M  V30 6273 C 609.592 -3.00583 -5.03852 0
M  V30 6274 C 611.944 -3.50846 -5.26393 0
M  V30 6275 C 610.608 -3.8724 -5.43692 0
M  V30 6276 H 609.878 -0.0539666 -0.739032 0
M  V30 6277 H 612.525 -0.827599 -1.72694 0
M  V30 6278 H 610.83 0.670987 -3.86012 0
M  V30 6279 H 612.527 0.304891 -3.99839 0
M  V30 6280 H 609.117 -1.1221 -4.13651 0
M  V30 6281 H 613.301 -2.0187 -4.5339 0
M  V30 6282 H 608.557 -3.28846 -5.15432 0
M  V30 6283 H 612.731 -4.18616 -5.56537 0
M  V30 6284 H 610.358 -4.8266 -5.87319 0
M  V30 6285 N 611.933 1.52934 -0.380664 0
M  V30 6286 C 613.179 2.01765 0.20458 0
M  V30 6287 C 613.512 1.26696 1.47179 0
M  V30 6288 O 612.787 0.364936 1.91046 0
M  V30 6289 C 613.07 3.56869 0.481269 0
M  V30 6290 C 612.923 4.42617 -0.800629 0
M  V30 6291 C 614.242 4.2121 1.27554 0
M  V30 6292 H 611.361 0.733388 0.0728803 0
M  V30 6293 H 614.003 1.83068 -0.50853 0
M  V30 6294 H 612.153 3.72932 1.08875 0
M  V30 6295 H 613.825 4.38323 -1.43773 0
M  V30 6296 H 612.068 4.09977 -1.4178 0
M  V30 6297 H 612.739 5.49134 -0.561791 0
M  V30 6298 H 615.215 4.09072 0.761514 0
M  V30 6299 H 614.091 5.29732 1.43788 0
M  V30 6300 H 614.352 3.78269 2.28833 0
M  V30 6301 N 613.412 0.11024 1.57214 0
M  V30 6302 C 614.642 -0.557025 1.98949 0
M  V30 6303 C 615.05 -1.61317 0.988606 0
M  V30 6304 O 614.393 -1.83679 -0.0279159 0
M  V30 6305 C 614.455 -1.24956 3.37085 0
M  V30 6306 C 614.119 -0.342398 4.55716 0
M  V30 6307 C 615.116 0.415511 5.18237 0
M  V30 6308 C 612.801 -0.256029 5.01647 0
M  V30 6309 C 614.795 1.24761 6.25071 0
M  V30 6310 C 612.482 0.579713 6.08344 0
M  V30 6311 C 613.48 1.33017 6.69922 0
M  V30 6312 O 613.168 2.15205 7.74559 0
M  V30 6313 H 612.9 -0.152792 0.658506 0
M  V30 6314 H 615.454 0.19076 2.04512 0
M  V30 6315 H 613.684 -2.04424 3.2825 0
M  V30 6316 H 615.373 -1.81286 3.63167 0
M  V30 6317 H 616.139 0.358605 4.83672 0
M  V30 6318 H 612.018 -0.829831 4.5347 0
M  V30 6319 H 615.562 1.83386 6.73064 0
M  V30 6320 H 611.459 0.638044 6.42339 0
M  V30 6321 H 612.227 2.08052 7.91617 0
M  V30 6322 N 614.89 -1.56749 -0.16351 0
M  V30 6323 C 616.139 -1.81626 -0.877211 0
M  V30 6324 C 616.452 -0.688791 -1.83071 0
M  V30 6325 O 617.658 -0.822697 -2.58735 0
M  V30 6326 C 616.114 -3.21858 -1.61045 0
M  V30 6327 C 615.722 -4.42494 -0.700195 0
M  V30 6328 C 617.466 -3.56021 -2.31192 0
M  V30 6329 C 615.373 -5.73748 -1.43412 0
M  V30 6330 H 614.303 -0.67731 -0.331312 0
M  V30 6331 H 616.954 -1.83039 -0.13006 0
M  V30 6332 H 615.336 -3.14784 -2.40264 0
M  V30 6333 H 616.51 -4.60766 0.0555849 0
M  V30 6334 H 614.825 -4.1626 -0.10799 0
M  V30 6335 H 617.422 -4.51333 -2.8671 0
M  V30 6336 H 617.765 -2.81277 -3.06902 0
M  V30 6337 H 618.298 -3.64682 -1.58909 0
M  V30 6338 H 615.037 -6.51543 -0.719186 0
M  V30 6339 H 614.557 -5.5944 -2.16302 0
M  V30 6340 H 616.236 -6.15975 -1.9795 0
M  V30 6341 N 616.368 0.432326 -1.51554 0
M  V30 6342 C 617.331 1.50765 -1.72634 0
M  V30 6343 C 618.331 1.49334 -0.596314 0
M  V30 6344 O 619.521 1.51268 -0.863925 0
M  V30 6345 C 616.653 2.90284 -1.7874 0
M  V30 6346 H 617.846 1.33377 -2.68609 0
M  V30 6347 H 615.399 0.661329 -1.4162 0
M  V30 6348 H 616.134 3.13071 -0.845977 0
M  V30 6349 H 615.919 2.92727 -2.6087 0
M  V30 6350 H 617.409 3.68282 -1.96871 0
M  V30 6351 N 617.846 1.41785 0.688094 0
M  V30 6352 C 619.094 1.41264 1.4453 0
M  V30 6353 C 619.415 0.0252946 1.94984 0
M  V30 6354 O 618.685 -0.934081 1.72197 0
M  V30 6355 H 617.265 0.519998 0.536294 0
M  V30 6356 H 619.927 1.7709 0.813941 0
M  V30 6357 H 619.023 2.10439 2.30482 0
M  V30 6358 N 619.324 -0.923095 1.27737 0
M  V30 6359 C 620.271 -2.02432 1.1086 0
M  V30 6360 C 621.241 -1.66098 0.00835195 0
M  V30 6361 O 622.426 -1.90027 0.171542 0
M  V30 6362 C 619.566 -3.36476 0.766671 0
M  V30 6363 C 618.679 -3.85737 1.94501 0
M  V30 6364 C 617.814 -5.08249 1.54455 0
M  V30 6365 C 616.853 -5.49818 2.6901 0
M  V30 6366 N 615.99 -6.63524 2.29521 0
M  V30 6367 H 620.83 -2.16201 2.05089 0
M  V30 6368 H 618.367 -1.05909 1.02087 0
M  V30 6369 H 620.325 -4.13569 0.549223 0
M  V30 6370 H 618.955 -3.22502 -0.13867 0
M  V30 6371 H 618.007 -3.04883 2.27487 0
M  V30 6372 H 619.319 -4.12513 2.80419 0
M  V30 6373 H 618.473 -5.92857 1.28862 0
M  V30 6374 H 617.212 -4.83261 0.656534 0
M  V30 6375 H 616.217 -4.63757 2.95313 0
M  V30 6376 H 617.442 -5.76799 3.5844 0
M  V30 6377 H 615.388 -6.40185 1.43177 0
M  V30 6378 H 615.305 -6.89978 3.08977 0
M  V30 6379 H 616.573 -7.51461 2.07187 0
M  V30 6380 N 620.802 -1.09834 -1.13024 0
M  V30 6381 C 622.042 -0.846664 -1.8604 0
M  V30 6382 C 622.406 0.616557 -1.81831 0
M  V30 6383 O 623.607 0.984329 -2.50129 0
M  V30 6384 C 621.878 -1.37228 -3.30005 0
M  V30 6385 S 623.437 -1.25511 -4.20467 0
M  V30 6386 H 620.255 -0.30611 -0.64173 0
M  V30 6387 H 622.857 -1.40255 -1.36194 0
M  V30 6388 H 621.561 -2.43138 -3.30624 0
M  V30 6389 H 621.092 -0.81271 -3.84914 0
M  V30 6390 H 623.107 -0.208762 -4.95761 0
M  V30 6391 N 622.28 1.30327 -0.886154 0
M  V30 6392 C 623.528 1.9571 -0.504195 0
M  V30 6393 C 623.849 1.70294 0.950003 0
M  V30 6394 O 623.119 1.02718 1.66811 0
M  V30 6395 H 621.699 0.72412 -0.183465 0
M  V30 6396 H 624.361 1.58835 -1.12949 0
M  V30 6397 H 623.457 3.04704 -0.675431 0
M  V30 6398 N 623.758 0.647228 1.43697 0
M  V30 6399 C 624.688 -0.0345631 2.33474 0
M  V30 6400 C 625.669 -0.818193 1.4913 0
M  V30 6401 O 626.854 -0.780867 1.77809 0
M  V30 6402 C 623.984 -1.00576 3.32418 0
M  V30 6403 C 622.938 -0.33266 4.26705 0
M  V30 6404 C 622.264 -1.41489 5.1564 0
M  V30 6405 C 623.564 0.771204 5.16575 0
M  V30 6406 H 625.258 0.715163 2.90733 0
M  V30 6407 H 622.804 0.345364 1.39797 0
M  V30 6408 H 624.757 -1.49159 3.94119 0
M  V30 6409 H 623.481 -1.78657 2.73403 0
M  V30 6410 H 622.14 0.13267 3.6636 0
M  V30 6411 H 621.788 -2.18698 4.52968 0
M  V30 6412 H 621.488 -0.969799 5.79542 0
M  V30 6413 H 623.012 -1.9022 5.80214 0
M  V30 6414 H 624.426 0.36779 5.72119 0
M  V30 6415 H 622.823 1.1404 5.89165 0
M  V30 6416 H 623.893 1.63169 4.56622 0
M  V30 6417 N 625.236 -1.5273 0.388769 0
M  V30 6418 C 626.482 -2.01871 -0.193877 0
M  V30 6419 C 626.815 -1.27475 -1.46505 0
M  V30 6420 O 626.09 -0.375063 -1.90849 0
M  V30 6421 C 626.373 -3.5712 -0.462336 0
M  V30 6422 C 626.226 -4.42186 0.824091 0
M  V30 6423 C 627.545 -4.21881 -1.25319 0
M  V30 6424 H 624.664 -0.733764 -0.0689899 0
M  V30 6425 H 627.306 -1.82796 0.518231 0
M  V30 6426 H 625.456 -3.73504 -1.06896 0
M  V30 6427 H 627.128 -4.37554 1.46096 0
M  V30 6428 H 625.371 -4.09219 1.43952 0
M  V30 6429 H 626.042 -5.48828 0.590905 0
M  V30 6430 H 628.518 -4.0947 -0.73981 0
M  V30 6431 H 627.394 -5.30487 -1.40977 0
M  V30 6432 H 627.655 -3.79478 -2.26824 0
M  V30 6433 N 626.714 -0.118576 -1.57153 0
M  V30 6434 C 628.125 0.40687 -1.82213 0
M  V30 6435 C 628.476 1.66636 -1.03571 0
M  V30 6436 O 627.601 2.14682 -0.272171 0
M  V30 6437 C 628.196 0.744949 -3.30509 0
M  V30 6438 C 626.755 1.21503 -3.5625 0
M  V30 6439 C 625.902 0.223511 -2.76398 0
M  V30 6440 H 628.853 -0.343712 -1.54933 0
M  V30 6441 H 628.874 1.6024 -3.45114 0
M  V30 6442 H 628.386 -0.171911 -3.87719 0
M  V30 6443 H 626.487 2.1488 -3.04396 0
M  V30 6444 H 626.6 1.16065 -4.64829 0
M  V30 6445 H 624.964 0.71046 -2.44591 0
M  V30 6446 H 625.747 -0.686439 -3.36367 0
M  V30 6447 N 628.193 1.56834 0.155195 0
M  V30 6448 C 629.439 1.83169 0.870467 0
M  V30 6449 C 629.772 0.698929 1.81187 0
M  V30 6450 O 629.047 -0.298035 1.92203 0
M  V30 6451 C 629.33 3.19965 1.65211 0
M  V30 6452 C 629.183 4.43792 0.732744 0
M  V30 6453 C 630.502 3.53885 2.61636 0
M  V30 6454 H 627.621 0.666288 0.315006 0
M  V30 6455 H 630.263 1.89513 0.135988 0
M  V30 6456 H 628.413 3.14687 2.27825 0
M  V30 6457 H 630.085 4.61148 0.118236 0
M  V30 6458 H 628.328 4.3378 0.0417906 0
M  V30 6459 H 628.999 5.36095 1.31552 0
M  V30 6460 H 631.475 3.5972 2.09143 0
M  V30 6461 H 630.351 4.50648 3.13381 0
M  V30 6462 H 630.612 2.79418 3.42605 0
M  V30 6463 N 629.671 -0.424282 1.51781 0
M  V30 6464 C 630.601 -1.52305 1.7699 0
M  V30 6465 C 631.582 -1.5839 0.620209 0
M  V30 6466 O 632.767 -1.73908 0.864268 0
M  V30 6467 C 629.897 -2.90271 1.90683 0
M  V30 6468 C 628.851 -2.99043 3.06198 0
M  V30 6469 C 628.177 -4.39116 3.05092 0
M  V30 6470 C 629.477 -2.7192 4.45934 0
M  V30 6471 H 631.171 -1.31461 2.68995 0
M  V30 6472 H 628.717 -0.630985 1.29439 0
M  V30 6473 H 630.67 -3.6711 2.06901 0
M  V30 6474 H 629.394 -3.12376 0.953365 0
M  V30 6475 H 628.053 -2.24646 2.89706 0
M  V30 6476 H 627.701 -4.58207 2.07498 0
M  V30 6477 H 627.401 -4.45912 3.82669 0
M  V30 6478 H 628.925 -5.17911 3.2342 0
M  V30 6479 H 630.339 -3.38487 4.62709 0
M  V30 6480 H 628.736 -2.90111 5.25315 0
M  V30 6481 H 629.806 -1.67445 4.55072 0
M  V30 6482 N 631.149 -1.42148 -0.680565 0
M  V30 6483 C 632.112 -1.4488 -1.77602 0
M  V30 6484 C 633.112 -0.337209 -1.57224 0
M  V30 6485 O 634.302 -0.597778 -1.63622 0
M  V30 6486 C 631.434 -1.27483 -3.16166 0
M  V30 6487 H 632.627 -2.42412 -1.76568 0
M  V30 6488 H 630.18 -1.28511 -0.889645 0
M  V30 6489 H 630.915 -0.30851 -3.22829 0
M  V30 6490 H 630.7 -2.08037 -3.3236 0
M  V30 6491 H 632.19 -1.32265 -3.96101 0
M  V30 6492 N 632.627 0.916307 -1.28225 0
M  V30 6493 C 633.537 2.05165 -1.13775 0
M  V30 6494 C 634.553 1.73879 -0.0649418 0
M  V30 6495 O 635.729 1.99531 -0.273722 0
M  V30 6496 C 632.794 3.37385 -0.798267 0
M  V30 6497 C 631.855 3.82296 -1.95316 0
M  V30 6498 C 631.088 5.08206 -1.62978 0
M  V30 6499 O 631.311 5.6781 -0.542948 0
M  V30 6500 O 630.245 5.48768 -2.47261 0
M  V30 6501 H 634.071 2.20273 -2.09078 0
M  V30 6502 H 631.656 1.0373 -1.07519 0
M  V30 6503 H 633.538 4.16773 -0.62278 0
M  V30 6504 H 632.213 3.23458 0.125139 0
M  V30 6505 H 631.12 3.03746 -2.18378 0
M  V30 6506 H 632.453 4.00782 -2.85718 0
M  V30 6507 N 634.105 1.10431 1.1244 0
M  V30 6508 C 635.053 0.747974 2.20246 0
M  V30 6509 C 636.047 -0.255848 1.67457 0
M  V30 6510 O 637.253 -0.116221 1.79624 0
M  V30 6511 H 633.628 0.223946 0.71788 0
M  V30 6512 H 635.599 1.6661 2.47556 0
M  V30 6513 C 634.348 0.195957 3.47147 0
M  V30 6514 H 633.671 0.959606 3.88113 0
M  V30 6515 H 635.111 -0.0153154 4.23997 0
M  V30 6516 C 633.57 -1.07132 3.19413 0
M  V30 6517 O 634.1 -2.15284 3.3914 0
M  V30 6518 N 632.306 -0.98994 2.73219 0
M  V30 6519 H 631.853 -0.109736 2.57366 0
M  V30 6520 H 631.811 -1.83856 2.55038 0
M  V30 6521 N 635.583 -1.29855 0.893053 0
M  V30 6522 C 636.813 -1.99686 0.530019 0
M  V30 6523 C 637.221 -1.67066 -0.888012 0
M  V30 6524 O 636.564 -0.908366 -1.5967 0
M  V30 6525 C 636.626 -3.53855 0.63457 0
M  V30 6526 C 636.29 -4.10013 2.01837 0
M  V30 6527 C 637.287 -4.25406 2.98874 0
M  V30 6528 C 634.972 -4.45202 2.32595 0
M  V30 6529 C 636.966 -4.7521 4.24799 0
M  V30 6530 C 634.653 -4.94704 3.58763 0
M  V30 6531 C 635.651 -5.09662 4.5468 0
M  V30 6532 O 635.339 -5.58093 5.78608 0
M  V30 6533 H 635.071 -0.644913 0.20264 0
M  V30 6534 H 637.625 -1.66518 1.20253 0
M  V30 6535 H 635.855 -3.86583 -0.0949477 0
M  V30 6536 H 637.544 -4.04922 0.281648 0
M  V30 6537 H 638.31 -3.98515 2.76425 0
M  V30 6538 H 634.189 -4.32822 1.58701 0
M  V30 6539 H 637.733 -4.86801 4.99671 0
M  V30 6540 H 633.63 -5.21032 3.81046 0
M  V30 6541 H 634.398 -5.7642 5.81104 0
M  V30 6542 N 637.061 -0.65484 -1.43351 0
M  V30 6543 C 638.009 0.0476784 -2.32551 0
M  V30 6544 C 639.003 0.811403 -1.48703 0
M  V30 6545 O 640.209 0.721621 -1.64902 0
M  V30 6546 H 636.584 0.0342038 -0.751222 0
M  V30 6547 H 638.555 -0.722342 -2.89525 0
M  V30 6548 C 637.304 0.999251 -3.33032 0
M  V30 6549 H 636.627 0.421005 -3.97577 0
M  V30 6550 H 638.067 1.45986 -3.98076 0
M  V30 6551 C 636.526 2.09606 -2.63756 0
M  V30 6552 O 637.056 3.18004 -2.4543 0
M  V30 6553 N 635.262 1.86207 -2.23103 0
M  V30 6554 H 634.809 0.980555 -2.38208 0
M  V30 6555 H 634.767 2.59787 -1.77081 0
M  V30 6556 N 638.539 1.52521 -0.396863 0
M  V30 6557 C 639.486 2.26671 0.434624 0
M  V30 6558 C 640.456 1.28584 1.05144 0
M  V30 6559 O 641.641 1.57426 1.07804 0
M  V30 6560 C 638.781 3.08234 1.55196 0
M  V30 6561 C 637.894 4.21261 0.957262 0
M  V30 6562 C 637.029 4.90205 2.04627 0
M  V30 6563 C 636.068 5.95213 1.42787 0
M  V30 6564 N 635.205 6.57723 2.45651 0
M  V30 6565 H 640.045 2.973 -0.204139 0
M  V30 6566 H 637.582 1.46669 -0.112505 0
M  V30 6567 H 639.54 3.53819 2.2106 0
M  V30 6568 H 638.17 2.398 2.16092 0
M  V30 6569 H 637.222 3.79935 0.188005 0
M  V30 6570 H 638.534 4.96624 0.465416 0
M  V30 6571 H 637.688 5.39133 2.78246 0
M  V30 6572 H 636.427 4.14383 2.57174 0
M  V30 6573 H 635.432 5.45616 0.676968 0
M  V30 6574 H 636.657 6.72972 0.910255 0
M  V30 6575 H 634.603 5.84737 2.97353 0
M  V30 6576 H 634.52 7.28723 2.01243 0
M  V30 6577 H 635.788 7.11293 3.18876 0
M  V30 6578 N 640.017 0.126909 1.57088 0
M  V30 6579 C 641.242 -0.53997 2.00248 0
M  V30 6580 C 641.667 -1.58927 1.00618 0
M  V30 6581 O 641.025 -1.81288 -0.0210131 0
M  V30 6582 C 641.073 -1.13565 3.4225 0
M  V30 6583 O 640.177 -2.25103 3.45547 0
M  V30 6584 H 639.518 -0.13412 0.650314 0
M  V30 6585 H 642.048 0.217718 2.03438 0
M  V30 6586 H 642.058 -1.46925 3.80627 0
M  V30 6587 H 640.733 -0.367122 4.14277 0
M  V30 6588 H 639.31 -1.93123 3.18995 0
M  V30 6589 N 641.495 -1.56914 -0.146875 0
M  V30 6590 C 642.772 -1.74273 -0.888165 0
M  V30 6591 C 643.152 -0.69496 -1.99333 0
M  V30 6592 O 642.5 0.286093 -2.26702 0
M  V30 6593 C 642.71 -3.18336 -1.43051 0
M  V30 6594 C 644.058 -3.80024 -1.89387 0
M  V30 6595 O 645.082 -3.21765 -1.52792 0
M  V30 6596 O 643.941 -4.82367 -2.56874 0
M  V30 6597 H 641.035 -0.712565 -0.419738 0
M  V30 6598 H 643.581 -1.6918 -0.132791 0
M  V30 6599 H 642.353 -3.86092 -0.636274 0
M  V30 6600 H 641.976 -3.27854 -2.24938 0
M  V30 6601 N 642.974 0.416227 -1.52004 0
M  V30 6602 C 643.922 1.5272 -1.7544 0
M  V30 6603 C 644.916 1.57596 -0.621289 0
M  V30 6604 O 646.122 1.61087 -0.803172 0
M  V30 6605 H 642.497 0.507772 -0.554682 0
M  V30 6606 H 644.468 1.30136 -2.68528 0
M  V30 6607 C 643.217 2.90165 -1.91571 0
M  V30 6608 H 642.54 2.87154 -2.78178 0
M  V30 6609 H 643.98 3.67211 -2.11972 0
M  V30 6610 C 642.439 3.29947 -0.680942 0
M  V30 6611 O 642.969 4.01403 0.154527 0
M  V30 6612 N 641.175 2.8593 -0.518894 0
M  V30 6613 H 640.722 2.2795 -1.19986 0
M  V30 6614 H 640.68 3.12907 0.305985 0
M  V30 6615 N 644.452 1.42507 0.673017 0
M  V30 6616 C 645.692 1.44559 1.44507 0
M  V30 6617 C 646.056 0.0606206 1.91904 0
M  V30 6618 O 647.257 -0.044139 2.68764 0
M  V30 6619 C 645.528 2.44291 2.60877 0
M  V30 6620 S 647.087 2.65059 3.49699 0
M  V30 6621 H 643.905 0.51181 0.49353 0
M  V30 6622 H 646.507 1.79124 0.783256 0
M  V30 6623 H 645.211 3.43685 2.24297 0
M  V30 6624 H 644.742 2.11157 3.31928 0
M  V30 6625 H 646.757 1.93494 4.56919 0
M  V30 6626 N 645.93 -0.909495 1.28709 0
M  V30 6627 C 646.84 -2.04558 1.14861 0
M  V30 6628 C 647.856 -1.73842 0.0741621 0
M  V30 6629 O 649.032 -1.99383 0.2843 0
M  V30 6630 C 646.097 -3.36957 0.816148 0
M  V30 6631 C 645.158 -3.81255 1.97341 0
M  V30 6632 C 644.391 -5.07335 1.65671 0
M  V30 6633 O 644.614 -5.67514 0.573053 0
M  V30 6634 O 643.548 -5.47449 2.50167 0
M  V30 6635 H 647.374 -2.19161 2.10243 0
M  V30 6636 H 644.959 -1.03159 1.08068 0
M  V30 6637 H 646.841 -4.16436 0.644873 0
M  V30 6638 H 645.516 -3.2352 -0.107983 0
M  V30 6639 H 644.423 -3.02584 2.19986 0
M  V30 6640 H 645.756 -3.99261 2.87839 0
M  V30 6641 N 647.408 -1.11026 -1.11852 0
M  V30 6642 C 648.685 -0.768347 -1.79877 0
M  V30 6643 C 649.065 0.744261 -1.97545 0
M  V30 6644 O 648.413 1.67271 -1.55669 0
M  V30 6645 C 648.623 -1.52648 -3.13846 0
M  V30 6646 C 649.971 -1.70297 -3.88953 0
M  V30 6647 O 650.995 -1.49037 -3.23522 0
M  V30 6648 O 649.854 -2.05593 -5.06353 0
M  V30 6649 H 646.948 -0.277891 -0.778913 0
M  V30 6650 H 649.494 -1.21343 -1.18633 0
M  V30 6651 H 648.266 -2.55564 -2.96315 0
M  V30 6652 H 647.889 -1.07466 -3.82801 0
M  V30 6653 N 648.886 1.2938 -0.899927 0
M  V30 6654 C 650.114 1.99691 -0.541386 0
M  V30 6655 C 650.529 1.67355 0.873936 0
M  V30 6656 O 649.886 0.918728 1.57688 0
M  V30 6657 C 649.937 3.54168 -0.72438 0
M  V30 6658 O 649.658 3.85359 -2.08399 0
M  V30 6659 C 651.159 4.41746 -0.370819 0
M  V30 6660 H 648.379 0.638037 -0.207726 0
M  V30 6661 H 650.923 1.6491 -1.20934 0
M  V30 6662 H 649.078 3.87261 -0.103607 0
M  V30 6663 H 649.492 4.80032 -2.11352 0
M  V30 6664 H 650.966 5.49256 -0.549693 0
M  V30 6665 H 651.443 4.33712 0.692148 0
M  V30 6666 H 652.049 4.14125 -0.968543 0
M  V30 6667 N 650.364 0.662433 1.43002 0
M  V30 6668 C 651.775 0.258315 1.84904 0
M  V30 6669 C 652.126 -1.19703 1.55453 0
M  V30 6670 O 651.251 -1.91484 1.00811 0
M  V30 6671 C 651.846 0.462047 3.35635 0
M  V30 6672 C 650.405 0.112165 3.76233 0
M  V30 6673 C 649.552 0.760479 2.66668 0
M  V30 6674 H 652.503 0.865467 1.33024 0
M  V30 6675 H 652.524 -0.289646 3.79396 0
M  V30 6676 H 652.036 1.52135 3.57039 0
M  V30 6677 H 650.137 -0.944179 3.60439 0
M  V30 6678 H 650.25 0.544058 4.76001 0
M  V30 6679 H 648.614 0.192887 2.53969 0
M  V30 6680 H 649.397 1.82299 2.90898 0
M  V30 6681 N 651.842 -1.52309 0.404946 0
M  V30 6682 C 652.752 -2.30634 -0.429555 0
M  V30 6683 C 653.768 -1.38187 -1.05737 0
M  V30 6684 O 654.944 -1.71261 -1.05979 0
M  V30 6685 C 652.009 -3.10947 -1.53339 0
M  V30 6686 C 651.07 -4.19126 -0.929065 0
M  V30 6687 C 650.303 -4.95601 -1.9803 0
M  V30 6688 O 650.526 -4.72331 -3.1978 0
M  V30 6689 O 649.46 -5.80551 -1.58886 0
M  V30 6690 H 653.286 -3.0298 0.208963 0
M  V30 6691 H 650.871 -1.4845 0.168255 0
M  V30 6692 H 652.753 -3.60974 -2.1743 0
M  V30 6693 H 651.428 -2.41399 -2.15658 0
M  V30 6694 H 650.335 -3.73257 -0.250982 0
M  V30 6695 H 651.668 -4.90955 -0.349855 0
M  V30 6696 N 653.32 -0.135238 -1.57019 0
M  V30 6697 C 654.283 0.794707 -2.14981 0
M  V30 6698 C 655.283 1.18342 -1.08866 0
M  V30 6699 O 656.473 1.10627 -1.34563 0
M  V30 6700 C 653.605 2.07685 -2.70333 0
M  V30 6701 H 654.798 0.290696 -2.98488 0
M  V30 6702 H 652.351 0.114128 -1.55883 0
M  V30 6703 H 653.086 2.6248 -1.9046 0
M  V30 6704 H 652.871 1.80745 -3.47957 0
M  V30 6705 H 654.361 2.74127 -3.1503 0
M  V30 6706 N 654.798 1.5699 0.138552 0
M  V30 6707 C 656.046 1.83446 0.848053 0
M  V30 6708 C 656.367 0.71744 1.81322 0
M  V30 6709 O 655.637 -0.260228 1.94164 0
M  V30 6710 H 654.217 0.676792 0.316166 0
M  V30 6711 H 656.879 1.94462 0.130538 0
M  V30 6712 H 655.975 2.78677 1.40518 0
M  V30 6713 N 656.276 -0.40816 1.52223 0
M  V30 6714 C 657.506 -1.17501 1.69932 0
M  V30 6715 C 657.914 -1.84729 0.408874 0
M  V30 6716 O 657.257 -1.7274 -0.625025 0
M  V30 6717 C 657.319 -2.27994 2.77955 0
M  V30 6718 C 656.983 -1.80894 4.19674 0
M  V30 6719 C 657.98 -1.29618 5.03483 0
M  V30 6720 C 655.665 -1.87698 4.65913 0
M  V30 6721 C 657.659 -0.857695 6.31603 0
M  V30 6722 C 655.346 -1.43461 5.94022 0
M  V30 6723 C 656.344 -0.925822 6.76696 0
M  V30 6724 O 656.032 -0.489841 8.02406 0
M  V30 6725 H 655.764 -0.359065 0.572755 0
M  V30 6726 H 658.318 -0.486188 1.99563 0
M  V30 6727 H 656.548 -3.00243 2.43703 0
M  V30 6728 H 658.237 -2.89749 2.84254 0
M  V30 6729 H 659.003 -1.23733 4.68951 0
M  V30 6730 H 654.882 -2.26244 4.01665 0
M  V30 6731 H 658.426 -0.459879 6.96083 0
M  V30 6732 H 654.323 -1.49026 6.28062 0
M  V30 6733 H 655.091 -0.613062 8.16201 0
M  V30 6734 N 657.755 -1.42862 -0.66545 0
M  V30 6735 C 659.002 -1.4383 -1.42546 0
M  V30 6736 C 659.33 -0.0581114 -1.94413 0
M  V30 6737 O 658.585 0.935002 -1.71919 0
M  V30 6738 C 658.884 -2.4175 -2.63233 0
M  V30 6739 C 658.55 -3.87915 -2.29854 0
M  V30 6740 C 657.212 -4.27726 -2.20463 0
M  V30 6741 C 659.564 -4.80074 -2.02924 0
M  V30 6742 C 656.892 -5.57666 -1.82279 0
M  V30 6743 C 659.244 -6.10366 -1.66242 0
M  V30 6744 C 657.908 -6.49167 -1.55367 0
M  V30 6745 H 657.178 -0.52631 -0.521612 0
M  V30 6746 H 659.825 -1.75863 -0.757914 0
M  V30 6747 H 658.13 -2.03077 -3.35063 0
M  V30 6748 H 659.827 -2.39759 -3.21429 0
M  V30 6749 H 656.417 -3.564 -2.3807 0
M  V30 6750 H 660.601 -4.50097 -2.09108 0
M  V30 6751 H 655.857 -5.8658 -1.72436 0
M  V30 6752 H 660.031 -6.81258 -1.44432 0
M  V30 6753 H 657.658 -7.49761 -1.2555 0
M  V30 6754 N 659.233 0.902656 -1.29189 0
M  V30 6755 C 660.196 1.98797 -1.14071 0
M  V30 6756 C 661.196 1.60615 -0.0770549 0
M  V30 6757 O 662.386 1.71165 -0.323753 0
M  V30 6758 C 659.518 3.32688 -0.743739 0
M  V30 6759 H 660.711 2.13637 -2.10473 0
M  V30 6760 H 658.264 1.08678 -1.12334 0
M  V30 6761 H 658.999 3.23549 0.220554 0
M  V30 6762 H 658.784 3.61765 -1.51223 0
M  V30 6763 H 660.274 4.12337 -0.660935 0
M  V30 6764 N 660.711 1.11618 1.11262 0
M  V30 6765 C 661.96 0.860934 1.82403 0
M  V30 6766 C 662.273 -0.615303 1.8567 0
M  V30 6767 O 663.479 -0.986861 2.52929 0
M  V30 6768 C 661.935 1.49048 3.27586 0
M  V30 6769 C 661.543 3.00089 3.32642 0
M  V30 6770 C 663.287 1.31515 4.03614 0
M  V30 6771 C 661.194 3.56019 4.72234 0
M  V30 6772 H 660.124 0.318423 0.683464 0
M  V30 6773 H 662.775 1.34165 1.25188 0
M  V30 6774 H 661.157 0.937434 3.84744 0
M  V30 6775 H 662.331 3.61813 2.85356 0
M  V30 6776 H 660.646 3.16919 2.70096 0
M  V30 6777 H 663.243 1.70732 5.0671 0
M  V30 6778 H 663.586 0.257917 4.155 0
M  V30 6779 H 664.119 1.83694 3.52848 0
M  V30 6780 H 660.858 4.61463 4.65545 0
M  V30 6781 H 660.378 2.99066 5.19923 0
M  V30 6782 H 662.057 3.54568 5.41193 0
M  V30 6783 N 662.189 -1.289 0.906776 0
M  V30 6784 C 663.152 -2.25777 0.394656 0
M  V30 6785 C 664.152 -1.53621 -0.475119 0
M  V30 6786 O 665.342 -1.71949 -0.279165 0
M  V30 6787 C 662.474 -3.38113 -0.43499 0
M  V30 6788 H 663.667 -2.72592 1.25033 0
M  V30 6789 H 661.22 -1.40463 0.685547 0
M  V30 6790 H 661.955 -2.96648 -1.31036 0
M  V30 6791 H 661.74 -3.91647 0.188334 0
M  V30 6792 H 663.23 -4.10168 -0.784365 0
M  V30 6793 N 663.667 -0.670007 -1.42649 0
M  V30 6794 C 664.913 -0.190568 -2.01903 0
M  V30 6795 C 665.246 1.19817 -1.52832 0
M  V30 6796 O 664.521 1.80342 -0.728485 0
M  V30 6797 C 664.804 -0.21991 -3.59428 0
M  V30 6798 C 664.657 -1.64376 -4.18689 0
M  V30 6799 C 665.976 0.434519 -4.3795 0
M  V30 6800 H 663.095 -0.0707219 -0.733599 0
M  V30 6801 H 665.737 -0.853883 -1.69732 0
M  V30 6802 H 663.887 0.344894 -3.86966 0
M  V30 6803 H 665.559 -2.26044 -4.02122 0
M  V30 6804 H 663.802 -2.18591 -3.747 0
M  V30 6805 H 664.473 -1.61601 -5.27815 0
M  V30 6806 H 666.949 -0.0462156 -4.16074 0
M  V30 6807 H 665.825 0.38333 -5.4756 0
M  V30 6808 H 666.086 1.51135 -4.15464 0
M  V30 6809 N 665.145 1.52092 -0.413018 0
M  V30 6810 C 666.391 2.02154 0.161737 0
M  V30 6811 C 666.724 1.29789 1.44459 0
M  V30 6812 O 665.999 0.405378 1.90229 0
M  V30 6813 C 666.282 3.5781 0.405463 0
M  V30 6814 C 666.135 4.40819 -0.894335 0
M  V30 6815 C 667.454 4.23821 1.18591 0
M  V30 6816 H 664.573 0.734769 0.0573077 0
M  V30 6817 H 667.215 1.81948 -0.547247 0
M  V30 6818 H 665.365 3.75158 1.0094 0
M  V30 6819 H 667.037 4.35175 -1.53039 0
M  V30 6820 H 665.28 4.06877 -1.50444 0
M  V30 6821 H 665.951 5.47819 -0.678144 0
M  V30 6822 H 668.427 4.10596 0.674573 0
M  V30 6823 H 667.303 5.32663 1.3252 0
M  V30 6824 H 667.564 3.83038 2.20758 0
M  V30 6825 N 666.623 0.143563 1.56945 0
M  V30 6826 C 667.57 -0.797433 2.16586 0
M  V30 6827 C 668.54 -1.24654 1.09775 0
M  V30 6828 O 669.725 -1.31968 1.37801 0
M  V30 6829 C 666.865 -2.03253 2.78895 0
M  V30 6830 C 665.978 -1.62954 4.00087 0
M  V30 6831 C 665.113 -2.81617 4.50406 0
M  V30 6832 C 664.152 -2.37675 5.64072 0
M  V30 6833 N 663.289 -3.49335 6.09023 0
M  V30 6834 H 668.129 -0.282023 2.96662 0
M  V30 6835 H 665.666 -0.127494 1.46546 0
M  V30 6836 H 667.624 -2.75653 3.13163 0
M  V30 6837 H 666.254 -2.52211 2.01469 0
M  V30 6838 H 665.306 -0.803322 3.71821 0
M  V30 6839 H 666.618 -1.26679 4.82446 0
M  V30 6840 H 665.772 -3.62212 4.86711 0
M  V30 6841 H 664.511 -3.21134 3.67048 0
M  V30 6842 H 663.516 -1.55519 5.27346 0
M  V30 6843 H 664.741 -1.99247 6.49213 0
M  V30 6844 H 662.687 -3.8848 5.28601 0
M  V30 6845 H 662.604 -3.17064 6.86299 0
M  V30 6846 H 663.872 -4.30297 6.49973 0
M  V30 6847 N 668.101 -1.57061 -0.130224 0
M  V30 6848 C 669.048 -1.99517 -1.16024 0
M  V30 6849 C 670.018 -0.865452 -1.41771 0
M  V30 6850 O 671.203 -1.12882 -1.53826 0
M  V30 6851 C 668.343 -2.3951 -2.48453 0
M  V30 6852 C 667.456 -3.65848 -2.29737 0
M  V30 6853 C 666.591 -3.9487 -3.55318 0
M  V30 6854 C 665.63 -5.14426 -3.31711 0
M  V30 6855 N 664.767 -5.39375 -4.49466 0
M  V30 6856 H 669.607 -2.87305 -0.791194 0
M  V30 6857 H 667.144 -1.42129 -0.379195 0
M  V30 6858 H 669.102 -2.60731 -3.25692 0
M  V30 6859 H 667.732 -1.54779 -2.83272 0
M  V30 6860 H 666.784 -3.52307 -1.4347 0
M  V30 6861 H 668.096 -4.53241 -2.08263 0
M  V30 6862 H 667.25 -4.16679 -4.4098 0
M  V30 6863 H 665.989 -3.05931 -3.79813 0
M  V30 6864 H 664.994 -4.92473 -2.44439 0
M  V30 6865 H 666.219 -6.04933 -3.08598 0
M  V30 6866 H 664.165 -4.53391 -4.74102 0
M  V30 6867 H 664.082 -6.21069 -4.31055 0
M  V30 6868 H 665.35 -5.65694 -5.36293 0
M  V30 6869 N 669.579 0.400081 -1.52437 0
M  V30 6870 C 670.804 1.17221 -1.71096 0
M  V30 6871 C 671.229 1.83269 -0.423565 0
M  V30 6872 O 670.587 1.70378 0.619751 0
M  V30 6873 C 670.635 2.20425 -2.85386 0
M  V30 6874 O 669.739 3.26769 -2.51586 0
M  V30 6875 H 669.08 0.341766 -0.569291 0
M  V30 6876 H 671.61 0.467772 -1.99181 0
M  V30 6877 H 671.62 2.64605 -3.10561 0
M  V30 6878 H 670.295 1.71737 -3.78786 0
M  V30 6879 H 668.872 2.87804 -2.37114 0
M  V30 6880 N 671.057 1.43213 0.657864 0
M  V30 6881 C 672.02 1.47687 1.75275 0
M  V30 6882 C 673.02 0.362179 1.56668 0
M  V30 6883 O 674.21 0.623734 1.62651 0
M  V30 6884 C 671.342 1.32497 3.14098 0
M  V30 6885 H 672.535 2.4519 1.7269 0
M  V30 6886 H 670.088 1.2991 0.869087 0
M  V30 6887 H 670.823 0.359831 3.22298 0
M  V30 6888 H 670.608 2.13299 3.29008 0
M  V30 6889 H 672.098 1.38549 3.93946 0
M  V30 6890 N 672.536 -0.895792 1.29666 0
M  V30 6891 C 673.761 -1.68528 1.20885 0
M  V30 6892 C 674.186 -1.8673 -0.226595 0
M  V30 6893 O 673.544 -1.39044 -1.16347 0
M  V30 6894 C 673.592 -3.04512 1.93144 0
M  V30 6895 O 672.696 -3.92963 1.25115 0
M  V30 6896 H 672.037 -0.515371 0.418675 0
M  V30 6897 H 674.567 -1.11878 1.71302 0
M  V30 6898 H 674.577 -3.54628 2.0175 0
M  V30 6899 H 673.252 -2.90582 2.97548 0
M  V30 6900 H 671.829 -3.51399 1.24794 0
M  V30 6901 N 674.014 -1.12206 -1.10668 0
M  V30 6902 C 675.291 -0.787382 -1.79052 0
M  V30 6903 C 675.671 0.723267 -1.98323 0
M  V30 6904 O 675.019 1.6561 -1.57434 0
M  V30 6905 C 675.229 -1.55968 -3.1221 0
M  V30 6906 C 676.577 -1.74413 -3.87125 0
M  V30 6907 O 677.601 -1.5246 -3.21923 0
M  V30 6908 O 676.46 -2.10952 -5.04144 0
M  V30 6909 H 673.554 -0.286137 -0.775922 0
M  V30 6910 H 676.1 -1.22595 -1.1734 0
M  V30 6911 H 674.872 -2.58692 -2.93588 0
M  V30 6912 H 674.495 -1.1152 -3.8164 0
M  V30 6913 N 675.492 1.28418 -0.913599 0
M  V30 6914 C 676.422 2.29713 -0.418847 0
M  V30 6915 C 677.403 1.62165 0.513469 0
M  V30 6916 O 678.588 1.89576 0.421235 0
M  V30 6917 C 675.718 3.45612 0.342042 0
M  V30 6918 C 674.672 4.25056 -0.501123 0
M  V30 6919 C 673.998 5.3329 0.388097 0
M  V30 6920 C 675.298 4.91814 -1.75831 0
M  V30 6921 H 676.992 2.71346 -1.26538 0
M  V30 6922 H 674.538 1.30446 -0.609903 0
M  V30 6923 H 676.491 4.15562 0.699 0
M  V30 6924 H 675.215 3.02858 1.22248 0
M  V30 6925 H 673.874 3.56833 -0.840598 0
M  V30 6926 H 673.522 4.8678 1.26707 0
M  V30 6927 H 673.222 5.87347 -0.172459 0
M  V30 6928 H 674.746 6.06088 0.74094 0
M  V30 6929 H 676.16 5.54126 -1.47026 0
M  V30 6930 H 674.557 5.55866 -2.26126 0
M  V30 6931 H 675.627 4.16313 -2.4862 0
M  V30 6932 N 676.97 0.677563 1.42291 0
M  V30 6933 C 678.198 0.209459 2.05837 0
M  V30 6934 C 678.613 -1.13444 1.50917 0
M  V30 6935 O 677.97 -1.70529 0.65008 0
M  V30 6936 C 678.021 0.138819 3.61233 0
M  V30 6937 O 677.742 1.42962 4.14118 0
M  V30 6938 C 679.243 -0.352449 4.41897 0
M  V30 6939 H 676.463 0.101209 0.663323 0
M  V30 6940 H 679.007 0.925077 1.8238 0
M  V30 6941 H 677.162 -0.527505 3.83792 0
M  V30 6942 H 677.576 1.3048 5.08011 0
M  V30 6943 H 679.05 -0.350778 5.50884 0
M  V30 6944 H 679.527 -1.3882 4.16684 0
M  V30 6945 H 680.133 0.282236 4.24362 0
M  V30 6946 N 678.448 -1.51871 0.421078 0
M  V30 6947 C 679.694 -2.02894 -0.143346 0
M  V30 6948 C 680.049 -1.30054 -1.41787 0
M  V30 6949 O 679.342 -0.401776 -1.8734 0
M  V30 6950 C 679.536 -3.54764 -0.433292 0
M  V30 6951 C 679.365 -4.42316 0.811584 0
M  V30 6952 C 678.135 -4.872 1.34033 0
M  V30 6953 C 680.333 -4.85631 1.69313 0
M  V30 6954 N 678.315 -5.58915 2.53944 0
M  V30 6955 C 679.686 -5.56248 2.7384 0
M  V30 6956 C 681.741 -4.67634 1.70947 0
M  V30 6957 C 680.444 -6.10777 3.79927 0
M  V30 6958 C 682.47 -5.23068 2.7596 0
M  V30 6959 C 681.832 -5.93617 3.79207 0
M  V30 6960 H 677.931 -0.78188 -0.0137104 0
M  V30 6961 H 680.515 -1.85919 0.578105 0
M  V30 6962 H 678.686 -3.71787 -1.12378 0
M  V30 6963 H 680.418 -3.92464 -0.987644 0
M  V30 6964 H 677.173 -4.65035 0.896606 0
M  V30 6965 H 677.597 -5.99408 3.14704 0
M  V30 6966 H 682.239 -4.12566 0.9246 0
M  V30 6967 H 679.957 -6.64909 4.59262 0
M  V30 6968 H 683.543 -5.11005 2.78147 0
M  V30 6969 H 682.423 -6.35743 4.5913 0
M  V30 6970 N 679.926 -0.151884 -1.56866 0
M  V30 6971 C 681.203 0.543328 -1.87902 0
M  V30 6972 C 681.583 1.82636 -1.05864 0
M  V30 6973 O 680.931 2.28028 -0.146868 0
M  V30 6974 C 681.141 0.804056 -3.39611 0
M  V30 6975 C 682.489 1.14267 -4.08935 0
M  V30 6976 O 683.513 0.893248 -3.44818 0
M  V30 6977 O 682.372 1.61229 -5.22176 0
M  V30 6978 H 679.466 0.277724 -0.778973 0
M  V30 6979 H 682.012 -0.188862 -1.68646 0
M  V30 6980 H 680.784 -0.103772 -3.91162 0
M  V30 6981 H 680.407 1.59025 -3.64413 0
M  V30 6982 N 681.404 1.57128 0.121893 0
M  V30 6983 C 682.352 2.01109 1.16868 0
M  V30 6984 C 683.346 0.907532 1.43039 0
M  V30 6985 O 684.552 1.09274 1.43036 0
M  V30 6986 H 680.927 0.640539 0.393971 0
M  V30 6987 H 682.898 2.88261 0.771224 0
M  V30 6988 C 681.647 2.42887 2.48799 0
M  V30 6989 H 680.97 3.2737 2.29498 0
M  V30 6990 H 682.41 2.77461 3.20611 0
M  V30 6991 C 680.869 1.29137 3.11168 0
M  V30 6992 O 681.399 0.605756 3.97106 0
M  V30 6993 N 679.605 1.04916 2.71 0
M  V30 6994 H 679.152 1.60848 2.01211 0
M  V30 6995 H 679.11 0.290016 3.1306 0
M  V30 6996 N 682.882 -0.391992 1.52647 0
M  V30 6997 C 683.812 -1.48517 1.8018 0
M  V30 6998 C 684.793 -1.57039 0.653667 0
M  V30 6999 O 685.978 -1.72036 0.900962 0
M  V30 7000 C 683.108 -2.86161 1.96797 0
M  V30 7001 C 682.062 -2.92481 3.12472 0
M  V30 7002 C 681.388 -4.32546 3.14338 0
M  V30 7003 C 682.688 -2.624 4.51601 0
M  V30 7004 H 684.382 -1.25726 2.71723 0
M  V30 7005 H 681.928 -0.603387 1.30749 0
M  V30 7006 H 683.881 -3.62639 2.14641 0
M  V30 7007 H 682.605 -3.10283 1.01941 0
M  V30 7008 H 681.264 -2.18451 2.94406 0
M  V30 7009 H 680.912 -4.53703 2.1717 0
M  V30 7010 H 680.612 -4.37695 3.92042 0
M  V30 7011 H 682.136 -5.10934 3.34333 0
M  V30 7012 H 683.55 -3.28596 4.69785 0
M  V30 7013 H 681.947 -2.78903 5.3135 0
M  V30 7014 H 683.017 -1.57754 4.58521 0
M  V30 7015 N 684.36 -1.4356 -0.65026 0
M  V30 7016 C 685.307 -1.48948 -1.76304 0
M  V30 7017 C 686.277 -0.338919 -1.62605 0
M  V30 7018 O 687.462 -0.54649 -1.82806 0
M  V30 7019 C 684.602 -1.42131 -3.14472 0
M  V30 7020 C 683.715 -2.67415 -3.39284 0
M  V30 7021 C 682.85 -2.52565 -4.67316 0
M  V30 7022 C 681.889 -3.73103 -4.85243 0
M  V30 7023 N 681.026 -3.57046 -6.04535 0
M  V30 7024 H 685.866 -2.44032 -1.71034 0
M  V30 7025 H 683.403 -1.21131 -0.834601 0
M  V30 7026 H 685.361 -1.36172 -3.94351 0
M  V30 7027 H 683.991 -0.506273 -3.18805 0
M  V30 7028 H 683.043 -2.8364 -2.53481 0
M  V30 7029 H 684.355 -3.56943 -3.48415 0
M  V30 7030 H 683.509 -2.44331 -5.55326 0
M  V30 7031 H 682.248 -1.60566 -4.60511 0
M  V30 7032 H 681.253 -3.81743 -3.95667 0
M  V30 7033 H 682.478 -4.66115 -4.93876 0
M  V30 7034 H 680.424 -2.67783 -5.98856 0
M  V30 7035 H 680.341 -4.40178 -6.14638 0
M  V30 7036 H 681.609 -3.52669 -6.95158 0
M  V30 7037 N 685.838 0.888903 -1.30139 0
M  V30 7038 C 687.086 1.63713 -1.18501 0
M  V30 7039 C 687.407 1.9324 0.261399 0
M  V30 7040 O 686.677 1.56608 1.17689 0
M  V30 7041 H 685.257 0.606861 -0.435579 0
M  V30 7042 H 687.919 1.06525 -1.63213 0
M  V30 7043 H 687.015 2.58894 -1.743 0
M  V30 7044 N 687.317 1.12792 1.10072 0
M  V30 7045 C 688.264 0.79921 2.16521 0
M  V30 7046 C 689.234 -0.235726 1.64419 0
M  V30 7047 O 690.419 -0.109457 1.90486 0
M  V30 7048 C 687.559 0.264091 3.44088 0
M  V30 7049 C 686.672 1.35729 4.10124 0
M  V30 7050 C 685.807 0.781212 5.25424 0
M  V30 7051 C 684.846 1.85327 5.8337 0
M  V30 7052 N 683.983 1.29564 6.90042 0
M  V30 7053 H 688.823 1.71105 2.43981 0
M  V30 7054 H 686.36 0.854225 1.19756 0
M  V30 7055 H 688.318 -0.0642423 4.17151 0
M  V30 7056 H 686.948 -0.610901 3.16967 0
M  V30 7057 H 686 1.80234 3.34993 0
M  V30 7058 H 687.312 2.16782 4.4923 0
M  V30 7059 H 686.466 0.403769 6.05355 0
M  V30 7060 H 685.205 -0.0604686 4.87663 0
M  V30 7061 H 684.21 2.23986 5.02106 0
M  V30 7062 H 685.435 2.69824 6.23195 0
M  V30 7063 H 683.381 0.475844 6.54272 0
M  V30 7064 H 683.298 2.04271 7.2788 0
M  V30 7065 H 684.566 0.945545 7.73744 0
M  V30 7066 N 688.795 -1.27931 0.920396 0
M  V30 7067 C 689.742 -2.27085 0.412422 0
M  V30 7068 C 690.712 -1.57858 -0.516725 0
M  V30 7069 O 691.897 -1.85717 -0.437475 0
M  V30 7070 C 689.037 -3.43466 -0.335399 0
M  V30 7071 C 688.15 -4.27425 0.627017 0
M  V30 7072 C 687.285 -5.31016 -0.139916 0
M  V30 7073 C 686.324 -6.06641 0.815683 0
M  V30 7074 N 685.461 -7.02052 0.0818439 0
M  V30 7075 H 690.301 -2.69913 1.26298 0
M  V30 7076 H 687.838 -1.32732 0.634076 0
M  V30 7077 H 689.796 -4.09744 -0.785226 0
M  V30 7078 H 688.426 -3.01611 -1.15025 0
M  V30 7079 H 687.478 -3.6113 1.19537 0
M  V30 7080 H 688.79 -4.79969 1.35763 0
M  V30 7081 H 687.944 -6.03208 -0.649998 0
M  V30 7082 H 686.683 -4.79257 -0.903543 0
M  V30 7083 H 685.688 -5.33294 1.33708 0
M  V30 7084 H 686.913 -6.60489 1.57897 0
M  V30 7085 H 684.859 -6.52634 -0.663671 0
M  V30 7086 H 684.776 -7.52249 0.752163 0
M  V30 7087 H 686.044 -7.78432 -0.407825 0
M  V30 7088 N 690.273 -0.685099 -1.4193 0
M  V30 7089 C 691.498 -0.218842 -2.06242 0
M  V30 7090 C 691.923 1.11923 -1.51178 0
M  V30 7091 O 691.281 1.69837 -0.634446 0
M  V30 7092 C 691.329 -0.175592 -3.60172 0
M  V30 7093 O 690.433 0.852776 -4.03487 0
M  V30 7094 H 689.774 -0.109531 -0.654904 0
M  V30 7095 H 692.304 -0.937013 -1.81882 0
M  V30 7096 H 692.314 -0.00291151 -4.08 0
M  V30 7097 H 690.989 -1.15222 -3.99621 0
M  V30 7098 H 689.566 0.650301 -3.67186 0
M  V30 7099 N 691.751 1.51645 -0.429126 0
M  V30 7100 C 692.991 2.03924 0.139354 0
M  V30 7101 C 693.355 1.30673 1.40672 0
M  V30 7102 O 694.556 1.73282 2.05491 0
M  V30 7103 C 692.827 3.5557 0.361179 0
M  V30 7104 S 694.386 4.29591 0.894241 0
M  V30 7105 H 691.204 0.710103 0.0356986 0
M  V30 7106 H 693.806 1.86491 -0.586644 0
M  V30 7107 H 692.51 4.06455 -0.567686 0
M  V30 7108 H 692.041 3.77283 1.11449 0
M  V30 7109 H 694.056 4.46102 2.17272 0
M  V30 7110 N 693.229 0.160201 1.56784 0
M  V30 7111 C 694.179 -0.786461 2.14007 0
M  V30 7112 C 695.163 -1.20046 1.07134 0
M  V30 7113 O 696.355 -1.16468 1.33283 0
M  V30 7114 C 693.484 -2.02024 2.77563 0
M  V30 7115 C 692.57 -1.62874 3.91578 0
M  V30 7116 N 692.961 -0.946176 4.96871 0
M  V30 7117 C 691.259 -1.92054 4.02531 0
M  V30 7118 C 691.96 -0.755084 5.76778 0
M  V30 7119 N 690.936 -1.29307 5.27997 0
M  V30 7120 H 694.738 -0.255879 2.92784 0
M  V30 7121 H 692.252 -0.0408778 1.62349 0
M  V30 7122 H 694.249 -2.70855 3.16928 0
M  V30 7123 H 692.909 -2.55587 2.00263 0
M  V30 7124 H 693.92 -0.605455 5.14349 0
M  V30 7125 H 690.597 -2.47374 3.36322 0
M  V30 7126 H 691.987 -0.216138 6.71552 0
M  V30 7127 N 694.707 -1.5719 -0.113559 0
M  V30 7128 C 695.935 -1.89328 -0.834422 0
M  V30 7129 C 696.35 -0.752018 -1.73177 0
M  V30 7130 O 695.707 0.276912 -1.80387 0
M  V30 7131 C 695.758 -3.20962 -1.66329 0
M  V30 7132 O 695.479 -4.30695 -0.802069 0
M  V30 7133 C 696.98 -3.6684 -2.48884 0
M  V30 7134 H 694.2 -0.626769 -0.239587 0
M  V30 7135 H 696.744 -2.04273 -0.0963195 0
M  V30 7136 H 694.899 -3.0767 -2.35409 0
M  V30 7137 H 695.313 -5.06175 -1.37431 0
M  V30 7138 H 696.787 -4.61692 -3.02563 0
M  V30 7139 H 697.264 -2.93765 -3.26495 0
M  V30 7140 H 697.87 -3.82938 -1.85036 0
M  V30 7141 N 696.185 0.383891 -1.52853 0
M  V30 7142 C 697.148 1.45197 -1.77343 0
M  V30 7143 C 698.148 1.47362 -0.643522 0
M  V30 7144 O 699.338 1.48443 -0.911613 0
M  V30 7145 C 696.47 2.8445 -1.87885 0
M  V30 7146 H 697.663 1.24764 -2.72716 0
M  V30 7147 H 695.216 0.615939 -1.43652 0
M  V30 7148 H 695.951 3.10222 -0.94515 0
M  V30 7149 H 695.736 2.8428 -2.70051 0
M  V30 7150 H 697.226 3.61832 -2.08488 0
M  V30 7151 N 697.663 1.43903 0.642637 0
M  V30 7152 C 698.909 1.46296 1.40447 0
M  V30 7153 C 699.242 0.0908361 1.93987 0
M  V30 7154 O 698.517 -0.889884 1.72949 0
M  V30 7155 C 698.8 2.51399 2.57819 0
M  V30 7156 C 698.653 3.97926 2.09702 0
M  V30 7157 C 699.972 2.53125 3.60022 0
M  V30 7158 H 697.091 0.532676 0.509338 0
M  V30 7159 H 699.733 1.75515 0.727635 0
M  V30 7160 H 697.883 2.26614 3.1556 0
M  V30 7161 H 699.555 4.33804 1.5688 0
M  V30 7162 H 697.798 4.10252 1.40982 0
M  V30 7163 H 698.469 4.67096 2.94152 0
M  V30 7164 H 700.945 2.75242 3.12059 0
M  V30 7165 H 699.821 3.28589 4.39682 0
M  V30 7166 H 700.082 1.56895 4.13324 0
M  V30 7167 N 699.141 -0.881989 1.30609 0
M  V30 7168 C 700.389 -1.63082 1.19368 0
M  V30 7169 C 700.71 -1.93376 -0.251147 0
M  V30 7170 O 699.98 -1.5723 -1.16857 0
M  V30 7171 H 698.56 -0.604542 0.438791 0
M  V30 7172 H 701.222 -1.05658 1.63776 0
M  V30 7173 H 700.318 -2.57966 1.7567 0
M  V30 7174 N 700.619 -1.13374 -1.09472 0
M  V30 7175 C 702.035 -0.871846 -1.33682 0
M  V30 7176 C 702.235 0.492847 -1.9538 0
M  V30 7177 O 701.291 1.23946 -2.19985 0
M  V30 7178 C 702.604 -1.99608 -2.24893 0
M  V30 7179 C 704.152 -2.02812 -2.38404 0
M  V30 7180 C 704.627 -3.14497 -3.3295 0
M  V30 7181 N 706.118 -3.14004 -3.40523 0
M  V30 7182 C 706.853 -3.97061 -4.13679 0
M  V30 7183 N 706.349 -4.90131 -4.89636 0
M  V30 7184 N 708.142 -3.85162 -4.09398 0
M  V30 7185 H 700.293 -2.01288 -0.677995 0
M  V30 7186 H 702.556 -0.876492 -0.361201 0
M  V30 7187 H 702.262 -2.98 -1.86786 0
M  V30 7188 H 702.136 -1.90981 -3.25278 0
M  V30 7189 H 704.523 -1.05034 -2.75775 0
M  V30 7190 H 704.604 -2.15511 -1.37799 0
M  V30 7191 H 704.248 -4.12514 -2.96302 0
M  V30 7192 H 704.178 -2.99035 -4.33458 0
M  V30 7193 H 706.669 -2.46587 -2.86362 0
M  V30 7194 H 706.982 -5.49996 -5.42885 0
M  V30 7195 H 705.327 -4.94138 -4.88726 0
M  V30 7196 H 708.518 -3.11779 -3.49158 0
M  V30 7197 H 708.691 -4.5012 -4.6615 0
M  V30 7198 N 702.098 1.27442 -0.927168 0
M  V30 7199 C 703.326 1.98498 -0.583622 0
M  V30 7200 C 703.741 1.69171 0.838241 0
M  V30 7201 O 703.098 0.951969 1.55704 0
M  V30 7202 C 703.149 3.52552 -0.799341 0
M  V30 7203 O 702.87 3.80851 -2.16527 0
M  V30 7204 C 704.371 4.4086 -0.464436 0
M  V30 7205 H 701.591 0.633487 -0.221213 0
M  V30 7206 H 704.135 1.62308 -1.24404 0
M  V30 7207 H 702.29 3.86955 -0.185728 0
M  V30 7208 H 702.704 4.75441 -2.21487 0
M  V30 7209 H 704.178 5.47967 -0.666075 0
M  V30 7210 H 704.655 4.35082 0.599995 0
M  V30 7211 H 705.261 4.11977 -1.05617 0
M  V30 7212 N 703.576 0.692616 1.41565 0
M  V30 7213 C 704.539 0.0344174 2.29174 0
M  V30 7214 C 705.539 -0.710961 1.44229 0
M  V30 7215 O 706.729 -0.546293 1.65412 0
M  V30 7216 C 703.861 -0.961682 3.27054 0
M  V30 7217 H 705.054 0.805755 2.88873 0
M  V30 7218 H 702.607 0.455947 1.49502 0
M  V30 7219 H 703.342 -1.76089 2.72329 0
M  V30 7220 H 703.127 -0.430375 3.89731 0
M  V30 7221 H 704.617 -1.4201 3.92712 0
M  V30 7222 N 705.054 -1.51416 0.437162 0
M  V30 7223 C 706.302 -2.01687 -0.129108 0
M  V30 7224 C 706.623 -1.32329 -1.43227 0
M  V30 7225 O 705.893 -0.457796 -1.90476 0
M  V30 7226 H 704.473 -0.745277 -0.0507023 0
M  V30 7227 H 707.135 -1.86075 0.579828 0
M  V30 7228 H 706.231 -3.10605 -0.305141 0
M  V30 7229 N 706.532 -0.168513 -1.56696 0
M  V30 7230 C 707.778 0.471368 -1.97863 0
M  V30 7231 C 708.133 1.61049 -1.05267 0
M  V30 7232 O 707.426 1.9138 -0.0917908 0
M  V30 7233 C 707.62 1.00441 -3.42996 0
M  V30 7234 C 707.449 -0.081524 -4.49626 0
M  V30 7235 C 706.219 -0.530242 -5.0251 0
M  V30 7236 C 708.417 -0.880897 -5.067 0
M  V30 7237 N 706.399 -1.59678 -5.9277 0
M  V30 7238 C 707.77 -1.79742 -5.93374 0
M  V30 7239 C 709.825 -0.92629 -4.89208 0
M  V30 7240 C 708.528 -2.7555 -6.64428 0
M  V30 7241 C 710.554 -1.8723 -5.6098 0
M  V30 7242 C 709.916 -2.77631 -6.4738 0
M  V30 7243 H 706.015 0.140671 -0.769244 0
M  V30 7244 H 708.599 -0.268084 -1.92846 0
M  V30 7245 H 706.77 1.71339 -3.48565 0
M  V30 7246 H 708.502 1.61269 -3.7118 0
M  V30 7247 H 705.257 -0.12847 -4.73426 0
M  V30 7248 H 705.681 -2.13045 -6.42605 0
M  V30 7249 H 710.323 -0.241412 -4.2211 0
M  V30 7250 H 708.041 -3.45027 -7.30741 0
M  V30 7251 H 711.627 -1.91349 -5.49433 0
M  V30 7252 H 710.507 -3.4964 -7.01941 0
M  V30 7253 N 708.01 1.57248 0.105221 0
M  V30 7254 C 708.958 2.02337 1.14728 0
M  V30 7255 C 709.952 0.922652 1.42069 0
M  V30 7256 O 711.158 1.10785 1.41869 0
M  V30 7257 H 707.533 0.644682 0.387155 0
M  V30 7258 H 709.504 2.89063 0.740607 0
M  V30 7259 C 708.253 2.45513 2.46209 0
M  V30 7260 H 707.576 3.29785 2.26013 0
M  V30 7261 H 709.016 2.80846 3.1765 0
M  V30 7262 C 707.475 1.3243 3.09781 0
M  V30 7263 O 708.005 0.647841 3.96442 0
M  V30 7264 N 706.211 1.07785 2.69872 0
M  V30 7265 H 705.758 1.62973 1.99493 0
M  V30 7266 H 705.716 0.323204 3.12734 0
M  V30 7267 N 709.488 -0.375779 1.53054 0
M  V30 7268 C 710.737 -1.11674 1.67964 0
M  V30 7269 C 711.05 -1.90755 0.432655 0
M  V30 7270 O 712.256 -2.67538 0.462109 0
M  V30 7271 C 710.712 -2.0344 2.96884 0
M  V30 7272 C 710.32 -1.29719 4.28809 0
M  V30 7273 C 712.064 -2.7759 3.2116 0
M  V30 7274 C 709.971 -2.20327 5.48826 0
M  V30 7275 H 708.901 -0.420597 0.625791 0
M  V30 7276 H 711.552 -0.378499 1.79554 0
M  V30 7277 H 709.934 -2.80953 2.79072 0
M  V30 7278 H 711.108 -0.573394 4.57219 0
M  V30 7279 H 709.423 -0.674735 4.10897 0
M  V30 7280 H 712.02 -3.4559 4.0801 0
M  V30 7281 H 712.363 -3.42399 2.36789 0
M  V30 7282 H 712.896 -2.07164 3.396 0
M  V30 7283 H 709.635 -1.60113 6.35645 0
M  V30 7284 H 709.155 -2.90585 5.2471 0
M  V30 7285 H 710.834 -2.80116 5.83219 0
M  V30 7286 N 710.966 -1.44241 -0.634997 0
M  V30 7287 C 712.377 -1.41622 -1.21655 0
M  V30 7288 C 712.728 -0.129584 -1.95772 0
M  V30 7289 O 711.853 0.770225 -2.02229 0
M  V30 7290 C 712.448 -2.56557 -2.21278 0
M  V30 7291 C 711.007 -2.57145 -2.7487 0
M  V30 7292 C 710.154 -2.33354 -1.49804 0
M  V30 7293 H 713.105 -1.52878 -0.425905 0
M  V30 7294 H 713.126 -2.29089 -3.03807 0
M  V30 7295 H 712.638 -3.50186 -1.67306 0
M  V30 7296 H 710.739 -1.67447 -3.32855 0
M  V30 7297 H 710.852 -3.55507 -3.21172 0
M  V30 7298 H 709.216 -1.82372 -1.77799 0
M  V30 7299 H 709.999 -3.29092 -0.977402 0
M  V30 7300 N 712.444 0.87505 -1.31075 0
M  V30 7301 C 713.377 1.98471 -1.12625 0
M  V30 7302 C 714.355 1.6257 -0.0311379 0
M  V30 7303 O 715.539 1.87574 -0.186594 0
M  V30 7304 C 712.666 3.30963 -0.719799 0
M  V30 7305 C 711.712 3.85849 -1.81722 0
M  V30 7306 S 712.545 4.11926 -3.42165 0
M  V30 7307 C 713.701 5.47423 -3.03445 0
M  V30 7308 H 713.934 2.13817 -2.06566 0
M  V30 7309 H 711.467 1.02463 -1.15502 0
M  V30 7310 H 713.425 4.07541 -0.492035 0
M  V30 7311 H 712.086 3.1346 0.200413 0
M  V30 7312 H 711.279 4.81616 -1.48533 0
M  V30 7313 H 710.881 3.16046 -1.99977 0
M  V30 7314 H 713.173 6.28881 -2.52023 0
M  V30 7315 H 714.116 5.85557 -3.98157 0
M  V30 7316 H 714.524 5.10455 -2.41031 0
M  V30 7317 N 713.922 1.13953 1.08869 0
M  V30 7318 C 715.17 0.903023 1.80803 0
M  V30 7319 C 715.491 -0.572151 1.86417 0
M  V30 7320 O 714.761 -1.41589 1.35386 0
M  V30 7321 H 713.341 0.331099 0.669614 0
M  V30 7322 H 716.003 1.43719 1.31647 0
M  V30 7323 H 715.099 1.29881 2.83791 0
M  V30 7324 N 715.4 -1.26948 0.933913 0
M  V30 7325 C 716.33 -2.29017 0.45534 0
M  V30 7326 C 717.311 -1.62961 -0.487605 0
M  V30 7327 O 718.496 -1.90223 -0.391022 0
M  V30 7328 C 715.626 -3.46112 -0.287015 0
M  V30 7329 C 714.58 -4.24205 0.568682 0
M  V30 7330 C 713.906 -5.3384 -0.303206 0
M  V30 7331 C 715.206 -4.88954 1.83633 0
M  V30 7332 H 716.9 -2.69298 1.30839 0
M  V30 7333 H 714.446 -1.29459 0.630579 0
M  V30 7334 H 716.399 -4.16622 -0.6328 0
M  V30 7335 H 715.123 -3.04765 -1.17414 0
M  V30 7336 H 713.782 -3.5545 0.897261 0
M  V30 7337 H 713.43 -4.88734 -1.18947 0
M  V30 7338 H 713.13 -5.86998 0.265879 0
M  V30 7339 H 714.654 -6.0719 -0.644423 0
M  V30 7340 H 716.068 -5.51717 1.55823 0
M  V30 7341 H 714.465 -5.52198 2.34941 0
M  V30 7342 H 715.535 -4.12305 2.55211 0
M  V30 7343 N 716.879 -0.700114 -1.41195 0
M  V30 7344 C 717.809 -0.0521132 -2.33442 0
M  V30 7345 C 718.79 0.76228 -1.52063 0
M  V30 7346 O 719.975 0.714336 -1.80585 0
M  V30 7347 C 717.105 0.881693 -3.35922 0
M  V30 7348 C 716.059 0.174062 -4.27646 0
M  V30 7349 C 715.385 1.22254 -5.20536 0
M  V30 7350 C 716.685 -0.962396 -5.13357 0
M  V30 7351 H 718.379 -0.822574 -2.87879 0
M  V30 7352 H 715.925 -0.397011 -1.38419 0
M  V30 7353 H 717.878 1.34429 -3.99383 0
M  V30 7354 H 716.602 1.68387 -2.79845 0
M  V30 7355 H 715.261 -0.268551 -3.65615 0
M  V30 7356 H 714.909 2.01736 -4.60773 0
M  V30 7357 H 714.609 0.754038 -5.82742 0
M  V30 7358 H 716.133 1.68555 -5.86874 0
M  V30 7359 H 717.547 -0.579875 -5.7036 0
M  V30 7360 H 715.944 -1.35828 -5.84526 0
M  V30 7361 H 717.014 -1.80003 -4.50252 0
M  V30 7362 N 718.357 1.51182 -0.445186 0
M  V30 7363 C 719.587 2.06269 0.116922 0
M  V30 7364 C 719.995 1.31188 1.36332 0
M  V30 7365 O 719.338 0.367067 1.79995 0
M  V30 7366 C 719.4 3.56051 0.496757 0
M  V30 7367 C 719.064 4.52441 -0.64394 0
M  V30 7368 C 720.061 4.97233 -1.5184 0
M  V30 7369 C 717.746 4.95447 -0.826905 0
M  V30 7370 C 719.74 5.83712 -2.56046 0
M  V30 7371 C 717.427 5.81714 -1.87222 0
M  V30 7372 C 718.425 6.25745 -2.73738 0
M  V30 7373 O 718.113 7.10298 -3.76474 0
M  V30 7374 H 717.845 0.675954 0.00785733 0
M  V30 7375 H 720.399 1.95648 -0.625371 0
M  V30 7376 H 718.629 3.64483 1.29187 0
M  V30 7377 H 720.318 3.93618 0.990928 0
M  V30 7378 H 721.084 4.64696 -1.38862 0
M  V30 7379 H 716.963 4.60712 -0.163052 0
M  V30 7380 H 720.507 6.18 -3.23607 0
M  V30 7381 H 716.404 6.13664 -2.00218 0
M  V30 7382 H 717.172 7.28493 -3.73149 0
M  V30 7383 N 719.835 0.176821 1.56605 0
M  V30 7384 C 720.783 -0.768159 2.1955 0
M  V30 7385 C 721.777 -1.23343 1.16116 0
M  V30 7386 O 722.983 -1.19844 1.34303 0
M  V30 7387 H 719.358 -0.266013 0.703378 0
M  V30 7388 H 721.329 -0.213374 2.97636 0
M  V30 7389 C 720.078 -1.98492 2.85475 0
M  V30 7390 H 719.401 -1.63595 3.64797 0
M  V30 7391 H 720.841 -2.62489 3.3298 0
M  V30 7392 C 719.3 -2.81207 1.85538 0
M  V30 7393 O 719.83 -3.7854 1.34427 0
M  V30 7394 N 718.036 -2.46331 1.54173 0
M  V30 7395 H 717.583 -1.67241 1.95929 0
M  V30 7396 H 717.541 -3.01961 0.875595 0
M  V30 7397 N 721.313 -1.57302 -0.09688 0
M  V30 7398 C 722.26 -2.01933 -1.11766 0
M  V30 7399 C 723.23 -0.895329 -1.39904 0
M  V30 7400 O 724.415 -1.16119 -1.51397 0
M  V30 7401 C 721.555 -2.44726 -2.43317 0
M  V30 7402 C 720.668 -3.70639 -2.21925 0
M  V30 7403 C 719.803 -4.02318 -3.46862 0
M  V30 7404 C 718.842 -5.21346 -3.20725 0
M  V30 7405 N 717.979 -5.48787 -4.37924 0
M  V30 7406 H 722.819 -2.88919 -0.730075 0
M  V30 7407 H 720.356 -1.42901 -0.348962 0
M  V30 7408 H 722.314 -2.6758 -3.20088 0
M  V30 7409 H 720.944 -1.60753 -2.79926 0
M  V30 7410 H 719.996 -3.55271 -1.35965 0
M  V30 7411 H 721.308 -4.57557 -1.98603 0
M  V30 7412 H 720.462 -4.25939 -4.32042 0
M  V30 7413 H 719.201 -3.13918 -3.73238 0
M  V30 7414 H 718.206 -4.97547 -2.33938 0
M  V30 7415 H 719.431 -6.11343 -2.95697 0
M  V30 7416 H 717.377 -4.63346 -4.64378 0
M  V30 7417 H 717.294 -6.30073 -4.17785 0
M  V30 7418 H 718.562 -5.76943 -5.24173 0
M  V30 7419 N 722.791 0.367657 -1.53252 0
M  V30 7420 C 724.04 1.10782 -1.68554 0
M  V30 7421 C 724.353 1.90523 -0.442765 0
M  V30 7422 O 725.559 2.6729 -0.47629 0
M  V30 7423 C 724.015 2.01863 -2.97959 0
M  V30 7424 C 723.623 1.27443 -4.29491 0
M  V30 7425 C 725.367 2.75883 -3.22628 0
M  V30 7426 C 723.274 2.17414 -5.49987 0
M  V30 7427 H 722.204 0.417272 -0.628013 0
M  V30 7428 H 724.855 0.368971 -1.79752 0
M  V30 7429 H 723.237 2.7947 -2.80558 0
M  V30 7430 H 724.411 0.549138 -4.57516 0
M  V30 7431 H 722.726 0.652935 -4.11249 0
M  V30 7432 H 725.323 3.43421 -4.09837 0
M  V30 7433 H 725.666 3.41138 -2.38601 0
M  V30 7434 H 726.199 2.0536 -3.40693 0
M  V30 7435 H 722.938 1.5674 -6.36485 0
M  V30 7436 H 722.458 2.87799 -5.26243 0
M  V30 7437 H 724.137 2.77019 -5.84696 0
M  V30 7438 N 724.269 1.44576 0.627338 0
M  V30 7439 C 725.217 1.52039 1.76031 0
M  V30 7440 C 726.211 0.391796 1.64807 0
M  V30 7441 O 727.417 0.5669 1.7084 0
M  V30 7442 H 723.792 0.477165 0.581221 0
M  V30 7443 H 725.763 2.47387 1.6686 0
M  V30 7444 C 724.512 1.48539 3.14375 0
M  V30 7445 H 723.835 2.34699 3.23661 0
M  V30 7446 H 725.275 1.57821 3.93534 0
M  V30 7447 C 723.734 0.20672 3.36265 0
M  V30 7448 O 724.264 -0.72154 3.95167 0
M  V30 7449 N 722.47 0.108654 2.90397 0
M  V30 7450 H 722.017 0.864884 2.42647 0
M  V30 7451 H 721.975 -0.746121 3.05418 0
M  V30 7452 N 725.747 -0.868086 1.31537 0
M  V30 7453 C 726.697 -1.96321 1.1594 0
M  V30 7454 C 727.681 -1.60748 0.0698962 0
M  V30 7455 O 728.873 -1.74524 0.295011 0
M  V30 7456 C 726.002 -3.32073 0.870789 0
M  V30 7457 C 725.088 -3.73907 2.00136 0
M  V30 7458 N 725.479 -3.87685 3.24859 0
M  V30 7459 C 723.777 -4.03433 1.90152 0
M  V30 7460 C 724.478 -4.23454 3.98825 0
M  V30 7461 N 723.454 -4.34242 3.27009 0
M  V30 7462 H 727.256 -2.05088 2.10514 0
M  V30 7463 H 724.77 -1.059 1.23122 0
M  V30 7464 H 726.767 -4.10279 0.740034 0
M  V30 7465 H 725.427 -3.24631 -0.0667068 0
M  V30 7466 H 726.438 -3.72363 3.59953 0
M  V30 7467 H 723.115 -4.0437 1.03879 0
M  V30 7468 H 724.505 -4.41696 5.06314 0
M  V30 7469 N 727.225 -1.14528 -1.08264 0
M  V30 7470 C 728.465 -0.924808 -1.82282 0
M  V30 7471 C 728.829 0.538881 -1.84283 0
M  V30 7472 O 730.03 0.877355 -2.54079 0
M  V30 7473 C 728.301 -1.51102 -3.23887 0
M  V30 7474 S 729.86 -1.43232 -4.14765 0
M  V30 7475 H 726.678 -0.333052 -0.62817 0
M  V30 7476 H 729.28 -1.45905 -1.30123 0
M  V30 7477 H 727.984 -2.56942 -3.20014 0
M  V30 7478 H 727.515 -0.975234 -3.8112 0
M  V30 7479 H 729.53 -0.418843 -4.94429 0
M  V30 7480 N 728.703 1.26451 -0.940633 0
M  V30 7481 C 730.119 1.4608 -0.642859 0
M  V30 7482 C 730.319 1.84765 0.803998 0
M  V30 7483 O 729.375 1.96902 1.58069 0
M  V30 7484 C 730.688 2.54359 -1.60381 0
M  V30 7485 C 732.236 2.6821 -1.61345 0
M  V30 7486 C 732.711 3.79659 -2.56169 0
M  V30 7487 N 734.202 3.87051 -2.54452 0
M  V30 7488 C 734.937 4.72739 -3.24507 0
M  V30 7489 N 734.433 5.6282 -4.03987 0
M  V30 7490 N 736.226 4.66581 -3.13462 0
M  V30 7491 H 728.377 0.996289 -1.87584 0
M  V30 7492 H 730.64 0.498921 -0.80609 0
M  V30 7493 H 730.346 2.32758 -2.6366 0
M  V30 7494 H 730.22 3.52005 -1.35545 0
M  V30 7495 H 732.607 2.89184 -0.587913 0
M  V30 7496 H 732.688 1.7101 -1.90235 0
M  V30 7497 H 732.332 3.59438 -3.58841 0
M  V30 7498 H 732.262 4.76315 -2.2457 0
M  V30 7499 H 734.753 3.22649 -1.96739 0
M  V30 7500 H 735.066 6.25095 -4.54396 0
M  V30 7501 H 733.411 5.62574 -4.08088 0
M  V30 7502 H 736.602 3.9521 -2.50852 0
M  V30 7503 H 736.775 5.33141 -3.68327 0
M  V30 7504 N 730.181 0.707592 1.40822 0
M  V30 7505 C 731.428 0.243671 2.01029 0
M  V30 7506 C 731.756 -1.16057 1.5608 0
M  V30 7507 O 731.011 -1.7999 0.768251 0
M  V30 7508 C 731.31 0.262892 3.56432 0
M  V30 7509 C 730.976 1.61632 4.20935 0
M  V30 7510 C 729.638 1.98682 4.38268 0
M  V30 7511 C 731.99 2.50619 4.5699 0
M  V30 7512 C 729.318 3.2428 4.88937 0
M  V30 7513 C 731.67 3.75562 5.09054 0
M  V30 7514 C 730.334 4.12739 5.24598 0
M  V30 7515 H 729.604 0.0891654 0.735616 0
M  V30 7516 H 732.251 0.909051 1.68548 0
M  V30 7517 H 730.556 -0.486052 3.88773 0
M  V30 7518 H 732.253 -0.113775 4.00839 0
M  V30 7519 H 728.843 1.31818 4.07826 0
M  V30 7520 H 733.027 2.23272 4.43242 0
M  V30 7521 H 728.283 3.53064 4.99155 0
M  V30 7522 H 732.457 4.44692 5.35931 0
M  V30 7523 H 730.084 5.10132 5.63622 0
M  V30 7524 N 731.66 -1.50943 0.453197 0
M  V30 7525 C 732.937 -1.94872 -0.168633 0
M  V30 7526 C 733.317 -1.39272 -1.5864 0
M  V30 7527 O 732.665 -0.586272 -2.20851 0
M  V30 7528 C 732.875 -3.48757 -0.130217 0
M  V30 7529 C 734.223 -4.23331 -0.327975 0
M  V30 7530 O 735.247 -3.55594 -0.207619 0
M  V30 7531 O 734.106 -5.43529 -0.569077 0
M  V30 7532 H 731.2 -0.818042 -0.121394 0
M  V30 7533 H 733.746 -1.61782 0.512316 0
M  V30 7534 H 732.518 -3.81725 0.860346 0
M  V30 7535 H 732.141 -3.88333 -0.853397 0
M  V30 7536 N 733.138 -0.185124 -1.56509 0
M  V30 7537 C 734.048 0.751908 -2.22224 0
M  V30 7538 C 735.064 1.24244 -1.21817 0
M  V30 7539 O 736.24 1.29169 -1.54523 0
M  V30 7540 C 733.305 1.95837 -2.86092 0
M  V30 7541 C 732.366 1.51337 -4.01741 0
M  V30 7542 C 731.599 2.66233 -4.62554 0
M  V30 7543 O 731.822 3.8346 -4.22273 0
M  V30 7544 O 730.756 2.39517 -5.52191 0
M  V30 7545 H 734.582 0.222304 -3.02885 0
M  V30 7546 H 732.167 0.0437141 -1.49336 0
M  V30 7547 H 734.049 2.66368 -3.26536 0
M  V30 7548 H 732.724 2.47677 -2.08417 0
M  V30 7549 H 731.631 0.777155 -3.65939 0
M  V30 7550 H 732.964 1.04175 -4.81049 0
M  V30 7551 N 734.616 1.57351 0.0885366 0
M  V30 7552 C 735.863 1.86419 0.790824 0
M  V30 7553 C 736.191 0.774561 1.78412 0
M  V30 7554 O 735.446 -0.23119 1.9433 0
M  V30 7555 C 735.745 3.22098 1.5488 0
M  V30 7556 C 735.411 4.4548 0.697025 0
M  V30 7557 C 734.073 4.78975 0.462237 0
M  V30 7558 C 736.425 5.21094 0.105315 0
M  V30 7559 C 733.753 5.85507 -0.374016 0
M  V30 7560 C 736.105 6.28509 -0.718298 0
M  V30 7561 C 734.769 6.60515 -0.963116 0
M  V30 7562 H 734.039 0.682157 0.289383 0
M  V30 7563 H 736.686 1.91429 0.0520961 0
M  V30 7564 H 734.991 3.12803 2.35927 0
M  V30 7565 H 736.688 3.41819 2.09669 0
M  V30 7566 H 733.278 4.19255 0.890137 0
M  V30 7567 H 737.462 4.95544 0.273856 0
M  V30 7568 H 732.718 6.08713 -0.572606 0
M  V30 7569 H 736.892 6.86268 -1.18362 0
M  V30 7570 H 734.519 7.42893 -1.6129 0
M  V30 7571 N 736.094 -0.359525 1.53444 0
M  V30 7572 C 737.341 -1.10152 1.6992 0
M  V30 7573 C 737.669 -1.89125 0.4541 0
M  V30 7574 O 736.924 -1.87396 -0.564023 0
M  V30 7575 C 737.223 -2.08287 2.90433 0
M  V30 7576 C 736.889 -1.45749 4.26694 0
M  V30 7577 C 735.551 -1.28421 4.63747 0
M  V30 7578 C 737.903 -1.00557 5.11408 0
M  V30 7579 C 735.231 -0.644951 5.83144 0
M  V30 7580 C 737.583 -0.380288 6.31456 0
M  V30 7581 C 736.247 -0.194557 6.67216 0
M  V30 7582 H 735.517 -0.403076 0.621781 0
M  V30 7583 H 738.164 -0.382612 1.87639 0
M  V30 7584 H 736.469 -2.86503 2.67251 0
M  V30 7585 H 738.166 -2.65662 3.00374 0
M  V30 7586 H 734.756 -1.6023 3.97523 0
M  V30 7587 H 738.94 -1.12735 4.83326 0
M  V30 7588 H 734.196 -0.48952 6.09437 0
M  V30 7589 H 738.37 -0.0219455 6.96397 0
M  V30 7590 H 735.997 0.30285 7.59597 0
M  V30 7591 N 737.572 -1.44907 -0.619662 0
M  V30 7592 C 738.797 -1.52021 -1.41083 0
M  V30 7593 C 739.222 -0.14976 -1.87503 0
M  V30 7594 O 738.58 0.863303 -1.59426 0
M  V30 7595 C 738.628 -2.49911 -2.59955 0
M  V30 7596 O 737.732 -2.00857 -3.60181 0
M  V30 7597 H 737.073 -0.512912 -0.421684 0
M  V30 7598 H 739.603 -1.90149 -0.755282 0
M  V30 7599 H 739.613 -2.68323 -3.07354 0
M  V30 7600 H 738.288 -3.4945 -2.25516 0
M  V30 7601 H 736.865 -1.92265 -3.19513 0
M  V30 7602 N 739.05 0.861098 -1.31996 0
M  V30 7603 C 739.96 2.00154 -1.22374 0
M  V30 7604 C 740.976 1.73447 -0.138631 0
M  V30 7605 O 742.152 1.98191 -0.358104 0
M  V30 7606 C 739.217 3.33696 -0.940645 0
M  V30 7607 C 738.278 3.73668 -2.11355 0
M  V30 7608 C 737.511 5.00837 -1.84386 0
M  V30 7609 O 737.734 5.64996 -0.783287 0
M  V30 7610 O 736.668 5.37787 -2.70313 0
M  V30 7611 H 740.494 2.11207 -2.18233 0
M  V30 7612 H 738.079 0.990768 -1.11822 0
M  V30 7613 H 739.961 4.13756 -0.798987 0
M  V30 7614 H 738.636 3.23698 -0.0121636 0
M  V30 7615 H 737.543 2.94211 -2.31065 0
M  V30 7616 H 738.876 3.88303 -3.02459 0
M  V30 7617 N 740.528 1.15101 1.07655 0
M  V30 7618 C 741.776 0.922149 1.79836 0
M  V30 7619 C 742.097 -0.552346 1.87014 0
M  V30 7620 O 741.367 -1.40145 1.3688 0
M  V30 7621 H 739.947 0.338182 0.666064 0
M  V30 7622 H 742.609 1.45107 1.30115 0
M  V30 7623 H 741.705 1.32883 2.82398 0
M  V30 7624 N 742.006 -1.2595 0.947325 0
M  V30 7625 C 743.246 -1.95218 0.605743 0
M  V30 7626 C 743.61 -1.72624 -0.84054 0
M  V30 7627 O 744.811 -2.35748 -1.29136 0
M  V30 7628 C 743.082 -3.44654 0.94596 0
M  V30 7629 S 744.641 -4.32922 0.715849 0
M  V30 7630 H 741.459 -0.675159 0.222894 0
M  V30 7631 H 744.061 -1.52766 1.21995 0
M  V30 7632 H 742.765 -3.586 1.99585 0
M  V30 7633 H 742.296 -3.92082 0.321718 0
M  V30 7634 H 744.311 -4.94445 -0.416959 0
M  V30 7635 N 743.484 -0.715051 -1.40445 0
M  V30 7636 C 744.447 -0.0708726 -2.2909 0
M  V30 7637 C 745.447 0.687926 -1.45342 0
M  V30 7638 O 746.637 0.519908 -1.66261 0
M  V30 7639 C 743.769 0.909528 -3.28543 0
M  V30 7640 H 744.962 -0.851611 -2.87555 0
M  V30 7641 H 742.515 -0.479674 -1.48758 0
M  V30 7642 H 743.25 1.71734 -2.75096 0
M  V30 7643 H 743.035 0.368318 -3.90366 0
M  V30 7644 H 744.525 1.35744 -3.94922 0
M  V30 7645 N 744.962 1.50701 -0.461195 0
M  V30 7646 C 746.373 1.867 -0.00370227 0
M  V30 7647 C 746.724 1.37673 1.39787 0
M  V30 7648 O 745.849 0.737515 2.03445 0
M  V30 7649 C 746.444 3.388 5.75786e-05 0
M  V30 7650 C 745.003 3.74247 0.402044 0
M  V30 7651 C 744.15 2.74549 -0.389652 0
M  V30 7652 H 747.101 1.43585 -0.675942 0
M  V30 7653 H 747.122 3.719 0.804414 0
M  V30 7654 H 746.634 3.74452 -1.02015 0
M  V30 7655 H 744.735 3.44192 1.42697 0
M  V30 7656 H 744.848 4.78973 0.110265 0
M  V30 7657 H 743.212 2.54226 0.155314 0
M  V30 7658 H 743.995 3.13044 -1.40919 0
M  V30 7659 N 746.441 0.193421 1.56409 0
M  V30 7660 C 747.689 -0.444908 1.97142 0
M  V30 7661 C 748.01 -1.62268 1.08139 0
M  V30 7662 O 747.28 -1.95307 0.152326 0
M  V30 7663 H 745.86 -0.16736 0.728011 0
M  V30 7664 H 748.522 0.279763 1.92882 0
M  V30 7665 H 747.618 -0.790159 3.01932 0
M  V30 7666 N 747.919 -1.57396 -0.0801906 0
M  V30 7667 C 749.144 -1.91437 -0.797909 0
M  V30 7668 C 749.569 -0.789075 -1.70749 0
M  V30 7669 O 748.927 0.25857 -1.79447 0
M  V30 7670 C 748.975 -3.24402 -1.57467 0
M  V30 7671 O 748.079 -3.13043 -2.68473 0
M  V30 7672 H 747.42 -0.627109 -0.218243 0
M  V30 7673 H 749.95 -2.04537 -0.050949 0
M  V30 7674 H 749.96 -3.58072 -1.95571 0
M  V30 7675 H 748.635 -4.05884 -0.907229 0
M  V30 7676 H 747.212 -2.90915 -2.33287 0
M  V30 7677 N 749.397 0.351382 -1.53633 0
M  V30 7678 C 750.344 1.43115 -1.81071 0
M  V30 7679 C 751.314 1.52601 -0.655913 0
M  V30 7680 O 752.499 1.68264 -0.89955 0
M  V30 7681 C 749.639 2.79874 -2.01903 0
M  V30 7682 C 748.752 2.79242 -3.29618 0
M  V30 7683 C 747.887 4.07667 -3.40559 0
M  V30 7684 C 746.926 4.01233 -4.62254 0
M  V30 7685 N 746.063 5.21334 -4.70271 0
M  V30 7686 H 750.903 1.19017 -2.73201 0
M  V30 7687 H 748.44 0.576691 -1.35324 0
M  V30 7688 H 750.398 3.5934 -2.11969 0
M  V30 7689 H 749.028 3.0234 -1.13094 0
M  V30 7690 H 748.08 1.91927 -3.28433 0
M  V30 7691 H 749.392 2.70363 -4.19172 0
M  V30 7692 H 748.546 4.95555 -3.50015 0
M  V30 7693 H 747.285 4.19317 -2.49047 0
M  V30 7694 H 746.29 3.11732 -4.52884 0
M  V30 7695 H 747.515 3.91173 -5.55122 0
M  V30 7696 H 745.461 5.33543 -3.81665 0
M  V30 7697 H 745.378 5.14681 -5.5375 0
M  V30 7698 H 746.646 6.11014 -4.84027 0
M  V30 7699 N 750.875 1.45233 0.611969 0
M  V30 7700 C 751.822 1.5357 1.72293 0
M  V30 7701 C 752.792 0.381912 1.6165 0
M  V30 7702 O 753.977 0.594765 1.81293 0
M  V30 7703 C 751.117 1.50419 3.10593 0
M  V30 7704 C 750.23 2.76316 3.32074 0
M  V30 7705 C 749.365 2.64866 4.60456 0
M  V30 7706 C 748.404 3.85838 4.7518 0
M  V30 7707 N 747.541 3.72949 5.94856 0
M  V30 7708 H 752.381 2.4848 1.64504 0
M  V30 7709 H 749.918 1.23302 0.802191 0
M  V30 7710 H 751.876 1.4658 3.90602 0
M  V30 7711 H 750.506 0.590621 3.17351 0
M  V30 7712 H 749.558 2.90261 2.45872 0
M  V30 7713 H 750.87 3.66055 3.38829 0
M  V30 7714 H 750.024 2.58969 5.48653 0
M  V30 7715 H 748.763 1.72719 4.56092 0
M  V30 7716 H 747.768 3.92099 3.85407 0
M  V30 7717 H 748.993 4.79045 4.81344 0
M  V30 7718 H 746.939 2.83567 5.91545 0
M  V30 7719 H 746.856 4.56319 6.02751 0
M  V30 7720 H 748.124 3.70976 6.85563 0
M  V30 7721 N 752.353 -0.854086 1.3245 0
M  V30 7722 C 753.63 -1.59188 1.1366 0
M  V30 7723 C 754.01 -2.08917 -0.302807 0
M  V30 7724 O 753.358 -1.8795 -1.29951 0
M  V30 7725 C 753.568 -2.73757 2.16467 0
M  V30 7726 C 754.916 -3.43323 2.49829 0
M  V30 7727 O 755.94 -2.83983 2.15017 0
M  V30 7728 O 754.799 -4.50409 3.09506 0
M  V30 7729 H 751.893 -0.701092 0.438633 0
M  V30 7730 H 754.439 -0.898165 1.43983 0
M  V30 7731 H 753.211 -2.3454 3.1322 0
M  V30 7732 H 752.834 -3.50804 1.87142 0
M  V30 7733 N 753.831 -1.1567 -1.07043 0
M  V30 7734 C 755.056 -0.957946 -1.83952 0
M  V30 7735 C 755.481 0.488807 -1.81638 0
M  V30 7736 O 754.839 1.34869 -1.21162 0
M  V30 7737 C 754.887 -1.48064 -3.288 0
M  V30 7738 O 753.991 -0.681921 -4.06723 0
M  V30 7739 H 753.332 -0.341453 -0.569479 0
M  V30 7740 H 755.862 -1.53728 -1.35015 0
M  V30 7741 H 755.872 -1.49484 -3.7963 0
M  V30 7742 H 754.547 -2.53388 -3.29799 0
M  V30 7743 H 753.124 -0.737612 -3.65532 0
M  V30 7744 N 755.309 1.25446 -0.953992 0
M  V30 7745 C 756.534 1.97755 -0.625129 0
M  V30 7746 C 756.959 1.70437 0.795787 0
M  V30 7747 O 756.317 0.95992 1.53803 0
M  V30 7748 C 756.365 3.49463 -0.889251 0
M  V30 7749 O 755.469 4.12387 0.0322757 0
M  V30 7750 H 754.81 0.61998 -0.237742 0
M  V30 7751 H 757.34 1.59582 -1.28041 0
M  V30 7752 H 757.35 3.99772 -0.815263 0
M  V30 7753 H 756.025 3.68676 -1.92487 0
M  V30 7754 H 754.602 3.72782 -0.0938625 0
M  V30 7755 N 756.787 0.722489 1.40064 0
M  V30 7756 C 757.717 0.0892452 2.33329 0
M  V30 7757 C 758.698 -0.737992 1.53257 0
M  V30 7758 O 759.883 -0.685516 1.81698 0
M  V30 7759 C 757.013 -0.828139 3.37282 0
M  V30 7760 C 755.967 -0.106005 4.27869 0
M  V30 7761 C 755.293 -1.13957 5.22415 0
M  V30 7762 C 756.593 1.04395 5.11761 0
M  V30 7763 H 758.287 0.868269 2.86534 0
M  V30 7764 H 755.833 0.418982 1.3777 0
M  V30 7765 H 757.786 -1.28058 4.01471 0
M  V30 7766 H 756.51 -1.63914 2.82489 0
M  V30 7767 H 755.169 0.326683 3.65142 0
M  V30 7768 H 754.817 -1.9438 4.63924 0
M  V30 7769 H 754.517 -0.661233 5.83868 0
M  V30 7770 H 756.041 -1.59197 5.89482 0
M  V30 7771 H 757.455 0.670541 5.69365 0
M  V30 7772 H 755.852 1.4511 5.82291 0
M  V30 7773 H 756.922 1.87144 4.47331 0
M  V30 7774 N 758.265 -1.50454 0.469181 0
M  V30 7775 C 759.505 -2.04222 -0.0852381 0
M  V30 7776 C 759.869 -1.34357 -1.37158 0
M  V30 7777 O 761.07 -1.78669 -2.00825 0
M  V30 7778 C 759.341 -3.56403 -0.266778 0
M  V30 7779 S 760.9 -4.31811 -0.780028 0
M  V30 7780 H 757.718 -0.7108 -0.0168589 0
M  V30 7781 H 760.32 -1.8487 0.635883 0
M  V30 7782 H 759.024 -4.04807 0.67525 0
M  V30 7783 H 758.555 -3.80106 -1.01407 0
M  V30 7784 H 760.57 -4.51706 -2.05368 0
M  V30 7785 N 759.743 -0.201713 -1.56304 0
M  V30 7786 C 760.69 0.716499 -2.19397 0
M  V30 7787 C 761.66 1.20494 -1.14326 0
M  V30 7788 O 762.845 1.26763 -1.42604 0
M  V30 7789 C 759.985 1.92762 -2.86246 0
M  V30 7790 C 759.098 1.47993 -4.0586 0
M  V30 7791 C 758.233 2.64706 -4.60547 0
M  V30 7792 C 757.272 2.16576 -5.72504 0
M  V30 7793 N 756.409 3.26491 -6.21569 0
M  V30 7794 H 761.249 0.171724 -2.97505 0
M  V30 7795 H 758.786 0.073016 -1.46919 0
M  V30 7796 H 760.744 2.6384 -3.23178 0
M  V30 7797 H 759.374 2.44559 -2.10691 0
M  V30 7798 H 758.426 0.66477 -3.74546 0
M  V30 7799 H 759.738 1.08686 -4.86815 0
M  V30 7800 H 758.892 3.43898 -4.99819 0
M  V30 7801 H 757.631 3.0729 -3.78713 0
M  V30 7802 H 756.636 1.3584 -5.32755 0
M  V30 7803 H 757.861 1.75015 -6.56161 0
M  V30 7804 H 755.807 3.68594 -5.42655 0
M  V30 7805 H 755.724 2.91374 -6.97594 0
M  V30 7806 H 756.992 4.05877 -6.65495 0
M  V30 7807 N 761.222 1.57436 0.0718424 0
M  V30 7808 C 762.152 2.06724 1.08571 0
M  V30 7809 C 763.133 0.960731 1.40371 0
M  V30 7810 O 764.318 1.23345 1.49999 0
M  V30 7811 C 761.448 2.51112 2.39916 0
M  V30 7812 C 760.402 3.65639 2.22469 0
M  V30 7813 C 759.728 3.96082 3.59198 0
M  V30 7814 C 761.028 4.95687 1.64596 0
M  V30 7815 H 762.722 2.91679 0.675569 0
M  V30 7816 H 760.268 1.40319 0.32352 0
M  V30 7817 H 762.221 2.84206 3.11135 0
M  V30 7818 H 760.945 1.63186 2.8291 0
M  V30 7819 H 759.604 3.32828 1.53691 0
M  V30 7820 H 759.252 3.05287 3.99761 0
M  V30 7821 H 758.952 4.73199 3.48362 0
M  V30 7822 H 760.476 4.31672 4.31847 0
M  V30 7823 H 761.89 5.27011 2.25681 0
M  V30 7824 H 760.287 5.77126 1.64457 0
M  V30 7825 H 761.357 4.8108 0.60744 0
M  V30 7826 N 762.7 -0.34323 1.53817 0
M  V30 7827 C 763.94 -1.09188 1.72793 0
M  V30 7828 C 764.304 -1.85876 0.481062 0
M  V30 7829 O 765.505 -2.63158 0.547851 0
M  V30 7830 C 763.776 -2.00783 2.9567 0
M  V30 7831 S 765.335 -2.82866 3.35459 0
M  V30 7832 H 762.153 -0.368926 0.607795 0
M  V30 7833 H 764.755 -0.370265 1.91962 0
M  V30 7834 H 763.459 -1.43245 3.84589 0
M  V30 7835 H 762.99 -2.77381 2.78968 0
M  V30 7836 H 765.005 -4.03196 2.89218 0
M  V30 7837 N 764.178 -1.45556 -0.604258 0
M  V30 7838 C 765.111 -1.48975 -1.72863 0
M  V30 7839 C 766.089 -0.345803 -1.5888 0
M  V30 7840 O 767.273 -0.546796 -1.80395 0
M  V30 7841 C 764.4 -1.34794 -3.10722 0
M  V30 7842 C 763.446 -2.53096 -3.43285 0
M  V30 7843 S 764.279 -4.15551 -3.37754 0
M  V30 7844 C 765.435 -4.03842 -4.78187 0
M  V30 7845 H 765.668 -2.44108 -1.69701 0
M  V30 7846 H 763.201 -1.33179 -0.781194 0
M  V30 7847 H 765.159 -1.273 -3.90263 0
M  V30 7848 H 763.82 -0.411254 -3.11396 0
M  V30 7849 H 763.013 -2.39109 -4.4367 0
M  V30 7850 H 762.615 -2.57469 -2.71267 0
M  V30 7851 H 764.907 -3.69191 -5.6807 0
M  V30 7852 H 765.85 -5.0415 -4.97231 0
M  V30 7853 H 766.258 -3.35443 -4.54025 0
M  V30 7854 N 765.656 0.84705 -1.32902 0
M  V30 7855 C 766.904 1.5986 -1.2365 0
M  V30 7856 C 767.225 1.93974 0.199789 0
M  V30 7857 O 766.495 1.60273 1.12648 0
M  V30 7858 H 765.075 0.592696 -0.454665 0
M  V30 7859 H 767.737 1.01278 -1.66519 0
M  V30 7860 H 766.833 2.53218 -1.82448 0
M  V30 7861 N 767.134 1.16236 1.06428 0
M  V30 7862 C 768.359 0.967688 1.83441 0
M  V30 7863 C 768.784 -0.479167 1.81894 0
M  V30 7864 O 768.142 -1.34224 1.21875 0
M  V30 7865 C 768.19 1.49806 3.2801 0
M  V30 7866 O 767.294 0.703481 4.06356 0
M  V30 7867 H 766.635 0.344468 0.56766 0
M  V30 7868 H 769.165 1.54442 1.34197 0
M  V30 7869 H 769.175 1.51495 3.78831 0
M  V30 7870 H 767.85 2.55133 3.2845 0
M  V30 7871 H 766.427 0.756986 3.65136 0
M  V30 7872 N 768.612 -1.24939 0.960631 0
M  V30 7873 C 769.86 -1.92437 0.617441 0
M  V30 7874 C 770.181 -1.75543 -0.849101 0
M  V30 7875 O 769.451 -1.12269 -1.60538 0
M  V30 7876 H 768.031 -0.712192 0.225371 0
M  V30 7877 H 770.693 -1.5198 1.22017 0
M  V30 7878 H 769.789 -3.00247 0.851933 0
M  V30 7879 N 770.09 -0.729906 -1.39679 0
M  V30 7880 C 771.02 -0.101618 -2.33279 0
M  V30 7881 C 772.001 0.729854 -1.53646 0
M  V30 7882 O 773.186 0.67587 -1.82059 0
M  V30 7883 C 770.316 0.81024 -3.37716 0
M  V30 7884 C 769.27 0.0833126 -4.27919 0
M  V30 7885 C 768.596 1.11185 -5.23012 0
M  V30 7886 C 769.896 -1.07107 -5.112 0
M  V30 7887 H 771.59 -0.883452 -2.86069 0
M  V30 7888 H 769.136 -0.426283 -1.37546 0
M  V30 7889 H 771.089 1.25927 -4.02145 0
M  V30 7890 H 769.813 1.62413 -2.83354 0
M  V30 7891 H 768.472 -0.346043 -3.64963 0
M  V30 7892 H 768.12 1.91917 -4.64948 0
M  V30 7893 H 767.82 0.63026 -5.8421 0
M  V30 7894 H 769.344 1.56068 -5.90318 0
M  V30 7895 H 770.758 -0.700726 -5.69002 0
M  V30 7896 H 769.155 -1.48196 -5.81514 0
M  V30 7897 H 770.225 -1.89513 -4.46332 0
M  V30 7898 N 771.568 1.50203 -0.477153 0
M  V30 7899 C 772.516 2.30278 0.327826 0
M  V30 7900 C 773.51 1.37831 0.984839 0
M  V30 7901 O 774.716 1.54994 0.915251 0
M  V30 7902 H 771.091 0.741612 0.124564 0
M  V30 7903 H 773.062 2.96124 -0.367853 0
M  V30 7904 C 771.811 3.18548 1.39365 0
M  V30 7905 H 771.134 3.89596 0.897475 0
M  V30 7906 H 772.574 3.77561 1.92934 0
M  V30 7907 C 771.033 2.36548 2.39889 0
M  V30 7908 O 771.563 2.05282 3.45286 0
M  V30 7909 N 769.769 1.99015 2.11758 0
M  V30 7910 H 769.316 2.24641 1.26071 0
M  V30 7911 H 769.274 1.44454 2.7925 0
M  V30 7912 N 773.046 0.209999 1.56195 0
M  V30 7913 C 773.976 -0.699746 2.22769 0
M  V30 7914 C 774.957 -1.20993 1.1956 0
M  V30 7915 O 776.142 -1.25605 1.48112 0
M  V30 7916 C 773.272 -1.91302 2.89863 0
M  V30 7917 C 772.226 -1.53715 3.99444 0
M  V30 7918 C 771.552 -2.82826 4.53777 0
M  V30 7919 C 772.852 -0.735836 5.17091 0
M  V30 7920 H 774.546 -0.144716 2.9905 0
M  V30 7921 H 772.092 -0.0681645 1.43839 0
M  V30 7922 H 774.045 -2.5548 3.35124 0
M  V30 7923 H 772.769 -2.49283 2.11011 0
M  V30 7924 H 771.428 -0.918892 3.54897 0
M  V30 7925 H 771.076 -3.38927 3.71669 0
M  V30 7926 H 770.776 -2.58415 5.27727 0
M  V30 7927 H 772.3 -3.47966 5.01749 0
M  V30 7928 H 773.714 -1.28105 5.58804 0
M  V30 7929 H 772.111 -0.589272 5.972 0
M  V30 7930 H 773.181 0.260004 4.84202 0
M  V30 7931 N 774.524 -1.57472 -0.0634922 0
M  V30 7932 C 775.764 -1.89491 -0.766312 0
M  V30 7933 C 776.128 -0.80475 -1.74321 0
M  V30 7934 O 777.329 -1.00825 -2.49174 0
M  V30 7935 C 775.6 -3.26731 -1.44851 0
M  V30 7936 S 777.159 -3.80516 -2.18525 0
M  V30 7937 H 773.977 -0.663832 -0.254653 0
M  V30 7938 H 776.579 -1.95488 -0.0220867 0
M  V30 7939 H 775.283 -4.03967 -0.723824 0
M  V30 7940 H 774.814 -3.23953 -2.232 0
M  V30 7941 H 776.829 -3.5647 -3.45172 0
M  V30 7942 N 776.003 0.335068 -1.53997 0
M  V30 7943 C 776.913 1.43511 -1.85585 0
M  V30 7944 C 777.929 1.57162 -0.746726 0
M  V30 7945 O 779.105 1.72477 -1.03988 0
M  V30 7946 C 776.17 2.78386 -2.06646 0
M  V30 7947 C 775.231 2.74007 -3.30483 0
M  V30 7948 C 774.464 4.02449 -3.50529 0
M  V30 7949 O 774.687 5.00147 -2.74242 0
M  V30 7950 O 773.621 4.06405 -4.4398 0
M  V30 7951 H 777.447 1.19731 -2.79102 0
M  V30 7952 H 775.032 0.528033 -1.39758 0
M  V30 7953 H 776.914 3.58247 -2.21894 0
M  V30 7954 H 775.589 3.0208 -1.16317 0
M  V30 7955 H 774.496 1.92736 -3.2063 0
M  V30 7956 H 775.829 2.55267 -4.20832 0
M  V30 7957 N 777.481 1.45874 0.596531 0
M  V30 7958 C 778.892 1.44798 1.17857 0
M  V30 7959 C 779.243 0.181443 1.95359 0
M  V30 7960 O 778.368 -0.716336 2.042 0
M  V30 7961 C 778.963 2.62333 2.14398 0
M  V30 7962 C 777.522 2.64342 2.67955 0
M  V30 7963 C 776.669 2.37244 1.43564 0
M  V30 7964 H 779.62 1.53954 0.385222 0
M  V30 7965 H 779.641 2.37063 2.97626 0
M  V30 7966 H 779.153 3.54499 1.57963 0
M  V30 7967 H 777.254 1.76213 3.28298 0
M  V30 7968 H 777.367 3.63897 3.11634 0
M  V30 7969 H 775.731 1.87022 1.72901 0
M  V30 7970 H 776.514 3.31568 0.889805 0
M  V30 7971 N 778.959 -0.83999 1.33349 0
M  V30 7972 C 779.907 -1.97113 1.23488 0
M  V30 7973 C 780.901 -1.68849 0.136503 0
M  V30 7974 O 782.107 -1.77476 0.300389 0
M  V30 7975 H 778.482 -0.647049 0.383185 0
M  V30 7976 H 780.453 -2.02554 2.19122 0
M  V30 7977 C 779.202 -3.33314 0.989815 0
M  V30 7978 H 778.525 -3.556 1.82726 0
M  V30 7979 H 779.965 -4.12963 0.961123 0
M  V30 7980 C 778.424 -3.35496 -0.307272 0
M  V30 7981 O 778.954 -3.79589 -1.31434 0
M  V30 7982 N 777.16 -2.88669 -0.334414 0
M  V30 7983 H 776.707 -2.5298 0.485659 0
M  V30 7984 H 776.665 -2.90512 -1.20209 0
M  V30 7985 N 780.437 -1.16799 -1.0581 0
M  V30 7986 C 781.385 -0.875111 -2.1551 0
M  V30 7987 C 782.379 0.157781 -1.68664 0
M  V30 7988 O 783.585 0.011297 -1.79996 0
M  V30 7989 H 779.96 -0.26542 -0.703602 0
M  V30 7990 H 781.931 -1.8076 -2.37421 0
M  V30 7991 C 780.68 -0.39802 -3.45414 0
M  V30 7992 H 780.003 -1.18425 -3.81858 0
M  V30 7993 H 781.443 -0.231913 -4.23365 0
M  V30 7994 C 779.902 0.88327 -3.25115 0
M  V30 7995 O 780.432 1.95145 -3.51114 0
M  V30 7996 N 778.638 0.828961 -2.78526 0
M  V30 7997 H 778.185 -0.0405029 -2.57568 0
M  V30 7998 H 778.143 1.68673 -2.65324 0
M  V30 7999 N 781.915 1.24427 -0.967243 0
M  V30 8000 C 782.862 2.25398 -0.496419 0
M  V30 8001 C 783.832 1.59667 0.457781 0
M  V30 8002 O 785.017 1.87213 0.368246 0
M  V30 8003 C 782.157 3.44474 0.207693 0
M  V30 8004 C 781.27 4.24804 -0.785221 0
M  V30 8005 C 780.405 5.31169 -0.0572631 0
M  V30 8006 C 779.444 6.03195 -1.04027 0
M  V30 8007 N 778.581 7.01265 -0.34235 0
M  V30 8008 H 783.421 2.65039 -1.36229 0
M  V30 8009 H 780.958 1.30288 -0.682902 0
M  V30 8010 H 782.916 4.12376 0.632612 0
M  V30 8011 H 781.546 3.05672 1.03752 0
M  V30 8012 H 780.598 3.56445 -1.32858 0
M  V30 8013 H 781.91 4.74599 -1.53483 0
M  V30 8014 H 781.064 6.05205 0.425674 0
M  V30 8015 H 779.803 4.8228 0.725047 0
M  V30 8016 H 778.808 5.27964 -1.53409 0
M  V30 8017 H 780.033 6.54173 -1.82302 0
M  V30 8018 H 777.979 6.54648 0.420993 0
M  V30 8019 H 777.896 7.48939 -1.03084 0
M  V30 8020 H 779.164 7.7941 0.118634 0
M  V30 8021 N 783.393 0.737304 1.3929 0
M  V30 8022 C 784.303 0.100464 2.34385 0
M  V30 8023 C 785.319 -0.719282 1.58437 0
M  V30 8024 O 786.495 -0.647216 1.90717 0
M  V30 8025 C 783.56 -0.794325 3.37478 0
M  V30 8026 C 782.621 0.0379345 4.29283 0
M  V30 8027 C 781.854 -0.814241 5.27452 0
M  V30 8028 O 782.077 -2.05288 5.32177 0
M  V30 8029 O 781.011 -0.241679 6.01415 0
M  V30 8030 H 784.837 0.885407 2.90507 0
M  V30 8031 H 782.422 0.497999 1.40856 0
M  V30 8032 H 784.304 -1.30622 4.00644 0
M  V30 8033 H 782.979 -1.55804 2.83737 0
M  V30 8034 H 781.886 0.595405 3.69331 0
M  V30 8035 H 783.219 0.763926 4.86236 0
M  V30 8036 N 784.871 -1.49948 0.485112 0
M  V30 8037 C 786.119 -2.01996 -0.0648775 0
M  V30 8038 C 786.44 -1.36819 -1.38945 0
M  V30 8039 O 785.71 -0.518163 -1.88923 0
M  V30 8040 H 784.29 -0.746513 -0.0269662 0
M  V30 8041 H 786.952 -1.84136 0.638733 0
M  V30 8042 H 786.048 -3.11418 -0.20617 0
M  V30 8043 N 786.349 -0.21828 -1.56081 0
M  V30 8044 C 787.579 0.41865 -2.02314 0
M  V30 8045 C 787.987 1.54124 -1.09739 0
M  V30 8046 O 787.33 1.83435 -0.0986829 0
M  V30 8047 C 787.392 1.01439 -3.44892 0
M  V30 8048 C 787.056 0.0276523 -4.56992 0
M  V30 8049 C 788.053 -0.771526 -5.14143 0
M  V30 8050 C 785.738 -0.0901537 -5.02219 0
M  V30 8051 C 787.732 -1.67525 -6.14991 0
M  V30 8052 C 785.419 -0.997411 -6.02905 0
M  V30 8053 C 786.417 -1.78851 -6.59167 0
M  V30 8054 O 786.105 -2.68052 -7.57894 0
M  V30 8055 H 785.837 0.107066 -0.667468 0
M  V30 8056 H 788.391 -0.331191 -2.02712 0
M  V30 8057 H 786.621 1.81326 -3.41552 0
M  V30 8058 H 788.31 1.55838 -3.74792 0
M  V30 8059 H 789.076 -0.690945 -4.80053 0
M  V30 8060 H 784.955 0.515474 -4.58109 0
M  V30 8061 H 788.499 -2.29316 -6.58832 0
M  V30 8062 H 784.396 -1.07902 -6.36418 0
M  V30 8063 H 785.164 -2.6209 -7.75404 0
M  V30 8064 N 787.827 1.57504 0.0551401 0
M  V30 8065 C 789.057 1.92015 0.762472 0
M  V30 8066 C 789.465 0.814088 1.7079 0
M  V30 8067 O 788.808 -0.220273 1.82375 0
M  V30 8068 C 788.87 3.22132 1.59598 0
M  V30 8069 C 788.534 4.49617 0.818141 0
M  V30 8070 C 789.531 5.19738 0.129933 0
M  V30 8071 C 787.216 4.96201 0.780387 0
M  V30 8072 C 789.21 6.34704 -0.585616 0
M  V30 8073 C 786.897 6.11069 0.0610756 0
M  V30 8074 C 787.895 6.80174 -0.62071 0
M  V30 8075 O 787.583 7.92849 -1.3284 0
M  V30 8076 H 787.315 0.638866 0.220967 0
M  V30 8077 H 789.869 2.05385 0.0246362 0
M  V30 8078 H 788.099 3.05016 2.37701 0
M  V30 8079 H 789.788 3.42166 2.18351 0
M  V30 8080 H 790.554 4.84767 0.150299 0
M  V30 8081 H 786.433 4.42275 1.30054 0
M  V30 8082 H 789.977 6.88578 -1.11833 0
M  V30 8083 H 785.874 6.45488 0.0386945 0
M  V30 8084 H 786.642 8.09062 -1.23938 0
M  V30 8085 N 789.305 -0.326896 1.54172 0
M  V30 8086 C 790.553 -1.06313 1.71878 0
M  V30 8087 C 790.874 -1.88652 0.493498 0
M  V30 8088 O 790.144 -1.89608 -0.492522 0
M  V30 8089 H 788.724 -0.39549 0.633716 0
M  V30 8090 H 791.386 -0.364139 1.91468 0
M  V30 8091 H 790.482 -1.73105 2.59694 0
M  V30 8092 N 790.784 -1.46188 -0.588786 0
M  V30 8093 C 792.014 -1.54519 -1.3714 0
M  V30 8094 C 792.422 -0.183075 -1.88312 0
M  V30 8095 O 791.765 0.828815 -1.6394 0
M  V30 8096 C 791.827 -2.48426 -2.59856 0
M  V30 8097 C 791.491 -3.94791 -2.30193 0
M  V30 8098 C 792.488 -4.84173 -1.894 0
M  V30 8099 C 790.173 -4.39872 -2.42525 0
M  V30 8100 C 792.167 -6.16647 -1.61325 0
M  V30 8101 C 789.854 -5.72381 -2.14063 0
M  V30 8102 C 790.852 -6.60589 -1.73527 0
M  V30 8103 O 790.54 -7.9064 -1.4541 0
M  V30 8104 H 790.272 -0.525264 -0.425527 0
M  V30 8105 H 792.826 -1.92242 -0.723344 0
M  V30 8106 H 791.056 -2.05709 -3.27446 0
M  V30 8107 H 792.745 -2.4723 -3.21919 0
M  V30 8108 H 793.511 -4.50603 -1.79393 0
M  V30 8109 H 789.39 -3.71444 -2.7304 0
M  V30 8110 H 792.934 -6.85454 -1.29611 0
M  V30 8111 H 788.831 -6.05501 -2.23693 0
M  V30 8112 H 789.599 -8.02847 -1.59306 0
M  V30 8113 N 792.262 0.832906 -1.33792 0
M  V30 8114 C 793.49 1.62048 -1.28639 0
M  V30 8115 C 793.905 1.88269 0.141522 0
M  V30 8116 O 793.262 1.46706 1.08553 0
M  V30 8117 C 793.313 2.96722 -2.0649 0
M  V30 8118 O 793.034 2.7165 -3.43712 0
M  V30 8119 C 794.535 3.91144 -2.08617 0
M  V30 8120 H 791.755 0.504032 -0.442937 0
M  V30 8121 H 794.299 1.03704 -1.76255 0
M  V30 8122 H 792.454 3.51652 -1.62541 0
M  V30 8123 H 792.868 3.57453 -3.83833 0
M  V30 8124 H 794.342 4.82837 -2.67531 0
M  V30 8125 H 794.819 4.25766 -1.07796 0
M  V30 8126 H 795.425 3.42152 -2.52611 0
M  V30 8127 N 793.74 1.17359 1.05189 0
M  V30 8128 C 794.988 0.960087 1.77839 0
M  V30 8129 C 795.309 -0.512554 1.88143 0
M  V30 8130 O 794.579 -1.3721 1.39822 0
M  V30 8131 H 793.159 0.352234 0.658741 0
M  V30 8132 H 795.821 1.47834 1.27008 0
M  V30 8133 H 794.917 1.38843 2.79516 0
M  V30 8134 N 795.218 -1.23913 0.973828 0
M  V30 8135 C 796.181 -2.23367 0.51378 0
M  V30 8136 C 797.181 -1.55923 -0.39302 0
M  V30 8137 O 798.371 -1.73187 -0.187626 0
M  V30 8138 C 795.503 -3.39944 -0.255152 0
M  V30 8139 H 796.696 -2.65581 1.39307 0
M  V30 8140 H 794.249 -1.36632 0.759039 0
M  V30 8141 H 794.984 -3.03177 -1.15127 0
M  V30 8142 H 794.769 -3.90098 0.395673 0
M  V30 8143 H 796.259 -4.13749 -0.565842 0
M  V30 8144 N 796.696 -0.74468 -1.38897 0
M  V30 8145 C 797.943 -0.296884 -2.00312 0
M  V30 8146 C 798.271 1.11878 -1.59102 0
M  V30 8147 O 797.526 1.7789 -0.815702 0
M  V30 8148 C 797.825 -0.357302 -3.55609 0
M  V30 8149 C 797.491 -1.72736 -4.16501 0
M  V30 8150 C 796.153 -2.10232 -4.32846 0
M  V30 8151 C 798.505 -2.62647 -4.50184 0
M  V30 8152 C 795.833 -3.3713 -4.80167 0
M  V30 8153 C 798.185 -3.88926 -4.98918 0
M  V30 8154 C 796.849 -4.26503 -5.1347 0
M  V30 8155 H 796.119 -0.108638 -0.732993 0
M  V30 8156 H 798.766 -0.953419 -1.66079 0
M  V30 8157 H 797.071 0.382805 -3.89925 0
M  V30 8158 H 798.768 0.0074596 -4.00999 0
M  V30 8159 H 795.358 -1.42585 -4.04187 0
M  V30 8160 H 799.542 -2.34945 -4.37166 0
M  V30 8161 H 794.798 -3.66174 -4.89619 0
M  V30 8162 H 798.972 -4.58745 -5.23952 0
M  V30 8163 H 796.599 -5.24896 -5.49898 0
M  V30 8164 N 798.174 1.49689 -0.493057 0
M  V30 8165 C 799.59 1.58907 -0.148526 0
M  V30 8166 C 799.79 1.4991 1.34645 0
M  V30 8167 O 798.846 1.36893 2.12171 0
M  V30 8168 C 800.159 2.91996 -0.718265 0
M  V30 8169 C 801.707 3.05443 -0.683658 0
M  V30 8170 C 802.182 4.41138 -1.23132 0
M  V30 8171 N 803.673 4.47608 -1.19167 0
M  V30 8172 C 804.408 5.51038 -1.5857 0
M  V30 8173 N 803.904 6.61612 -2.05528 0
M  V30 8174 N 805.697 5.41706 -1.50036 0
M  V30 8175 H 797.848 1.5378 -1.46511 0
M  V30 8176 H 800.111 0.727996 -0.607228 0
M  V30 8177 H 799.817 3.04123 -1.7664 0
M  V30 8178 H 799.691 3.76798 -0.17419 0
M  V30 8179 H 802.078 2.92949 0.355626 0
M  V30 8180 H 802.159 2.22344 -1.26479 0
M  V30 8181 H 801.803 4.54382 -2.26935 0
M  V30 8182 H 801.733 5.22864 -0.626201 0
M  V30 8183 H 804.224 3.68274 -0.847524 0
M  V30 8184 H 804.537 7.36622 -2.33685 0
M  V30 8185 H 802.882 6.62674 -2.09497 0
M  V30 8186 H 806.073 4.54212 -1.13176 0
M  V30 8187 H 806.246 6.22188 -1.81068 0
M  V30 8188 N 799.652 0.226554 1.55963 0
M  V30 8189 C 800.892 -0.405574 2.00336 0
M  V30 8190 C 801.256 -1.56593 1.11097 0
M  V30 8191 O 802.457 -2.26441 1.44838 0
M  V30 8192 C 800.728 -0.82435 3.47763 0
M  V30 8193 S 802.287 -1.44988 4.14154 0
M  V30 8194 H 799.105 -0.128512 0.699289 0
M  V30 8195 H 801.707 0.337017 1.92573 0
M  V30 8196 H 800.411 0.0297636 4.10389 0
M  V30 8197 H 799.942 -1.59963 3.5941 0
M  V30 8198 H 801.957 -2.73897 4.13757 0
M  V30 8199 N 801.13 -1.57531 -0.0467866 0
M  V30 8200 C 802.06 -2.08425 -1.05268 0
M  V30 8201 C 803.041 -0.982941 -1.38825 0
M  V30 8202 O 804.226 -1.25716 -1.48018 0
M  V30 8203 C 801.356 -2.54897 -2.35891 0
M  V30 8204 C 800.31 -3.69132 -2.16623 0
M  V30 8205 C 799.636 -4.01747 -3.52851 0
M  V30 8206 C 800.936 -4.98243 -1.56689 0
M  V30 8207 H 802.63 -2.92716 -0.62908 0
M  V30 8208 H 800.176 -1.40816 -0.301156 0
M  V30 8209 H 802.129 -2.8912 -3.06574 0
M  V30 8210 H 800.853 -1.67666 -2.80278 0
M  V30 8211 H 799.512 -3.35231 -1.48377 0
M  V30 8212 H 799.16 -3.11608 -3.94853 0
M  V30 8213 H 798.86 -4.78681 -3.4079 0
M  V30 8214 H 800.384 -4.38487 -4.24925 0
M  V30 8215 H 801.798 -5.30535 -2.17268 0
M  V30 8216 H 800.195 -5.79669 -1.55255 0
M  V30 8217 H 801.265 -4.81986 -0.530827 0
M  V30 8218 N 802.608 0.318715 -1.54344 0
M  V30 8219 C 803.854 1.05765 -1.73037 0
M  V30 8220 C 804.187 1.87514 -0.505181 0
M  V30 8221 O 803.462 1.88021 0.497838 0
M  V30 8222 C 803.745 1.97836 -3.00887 0
M  V30 8223 C 803.598 1.19384 -4.33668 0
M  V30 8224 C 804.917 2.97285 -3.24514 0
M  V30 8225 H 802.036 0.383104 -0.629603 0
M  V30 8226 H 804.678 0.333864 -1.87044 0
M  V30 8227 H 802.828 2.59552 -2.89076 0
M  V30 8228 H 804.5 0.600906 -4.57369 0
M  V30 8229 H 802.743 0.496198 -4.30953 0
M  V30 8230 H 803.414 1.87014 -5.19355 0
M  V30 8231 H 805.89 2.45693 -3.35819 0
M  V30 8232 H 804.766 3.58887 -4.15321 0
M  V30 8233 H 805.027 3.70003 -2.41971 0
M  V30 8234 N 804.086 1.46499 0.581025 0
M  V30 8235 C 804.996 1.59778 1.71779 0
M  V30 8236 C 806.012 0.481223 1.67213 0
M  V30 8237 O 807.188 0.74557 1.87091 0
M  V30 8238 C 804.253 1.58626 3.08283 0
M  V30 8239 C 803.314 2.81527 3.241 0
M  V30 8240 C 802.547 2.80421 4.54092 0
M  V30 8241 O 802.77 1.89262 5.38085 0
M  V30 8242 O 801.704 3.71984 4.73193 0
M  V30 8243 H 805.53 2.55918 1.63523 0
M  V30 8244 H 803.115 1.29311 0.748267 0
M  V30 8245 H 804.997 1.60686 3.89561 0
M  V30 8246 H 803.672 0.656467 3.16973 0
M  V30 8247 H 802.579 2.85021 2.42309 0
M  V30 8248 H 803.912 3.73721 3.20302 0
M  V30 8249 N 805.565 -0.825799 1.34232 0
M  V30 8250 C 806.512 -1.93651 1.2557 0
M  V30 8251 C 807.482 -1.65578 0.131536 0
M  V30 8252 O 808.667 -1.88231 0.312027 0
M  V30 8253 C 805.807 -3.29862 1.01415 0
M  V30 8254 C 804.92 -3.70247 2.22579 0
M  V30 8255 C 804.055 -4.95392 1.91731 0
M  V30 8256 C 803.094 -5.28349 3.09053 0
M  V30 8257 N 802.231 -6.44671 2.78107 0
M  V30 8258 H 807.071 -2.00392 2.20561 0
M  V30 8259 H 804.608 -0.980441 1.09662 0
M  V30 8260 H 806.566 -4.08356 0.854485 0
M  V30 8261 H 805.196 -3.22642 0.100936 0
M  V30 8262 H 804.248 -2.87169 2.49476 0
M  V30 8263 H 805.56 -3.90575 3.10246 0
M  V30 8264 H 804.714 -5.81665 1.72484 0
M  V30 8265 H 803.453 -4.77059 1.0132 0
M  V30 8266 H 802.458 -4.40574 3.289 0
M  V30 8267 H 803.683 -5.48622 4.00239 0
M  V30 8268 H 801.629 -6.278 1.9027 0
M  V30 8269 H 801.546 -6.65158 3.59306 0
M  V30 8270 H 802.814 -7.34022 2.62358 0
M  V30 8271 N 807.043 -1.17915 -1.04565 0
M  V30 8272 C 808.291 -0.969505 -1.77327 0
M  V30 8273 C 808.612 0.502569 -1.88412 0
M  V30 8274 O 807.882 1.36467 -1.40547 0
M  V30 8275 H 806.462 -0.355723 -0.656864 0
M  V30 8276 H 809.124 -1.48506 -1.26223 0
M  V30 8277 H 808.22 -1.40324 -2.78775 0
M  V30 8278 N 808.521 1.23394 -0.980386 0
M  V30 8279 C 809.798 1.87242 -0.565667 0
M  V30 8280 C 810.178 1.88151 0.957197 0
M  V30 8281 O 809.526 1.36309 1.8339 0
M  V30 8282 C 809.736 3.28743 -1.17172 0
M  V30 8283 C 811.084 4.05335 -1.26446 0
M  V30 8284 O 812.108 3.37962 -1.12517 0
M  V30 8285 O 810.967 5.25908 -1.48604 0
M  V30 8286 H 808.061 0.80477 -0.190459 0
M  V30 8287 H 810.607 1.3127 -1.07547 0
M  V30 8288 H 809.379 3.22647 -2.21392 0
M  V30 8289 H 809.002 3.92305 -0.646739 0
M  V30 8290 N 809.999 0.752036 1.385 0
M  V30 8291 C 811.245 0.307958 2.00448 0
M  V30 8292 C 811.578 -1.10702 1.59558 0
M  V30 8293 O 810.853 -1.75788 0.832391 0
M  V30 8294 C 811.136 0.429092 3.57534 0
M  V30 8295 C 810.989 1.88507 4.08393 0
M  V30 8296 C 812.308 -0.178442 4.39738 0
M  V30 8297 H 809.427 0.113373 0.728228 0
M  V30 8298 H 812.069 0.951389 1.64465 0
M  V30 8299 H 810.219 -0.118695 3.88319 0
M  V30 8300 H 811.891 2.49104 3.88259 0
M  V30 8301 H 810.134 2.40066 3.61318 0
M  V30 8302 H 810.805 1.92099 5.17496 0
M  V30 8303 H 813.281 0.28872 4.15097 0
M  V30 8304 H 812.157 -0.0634349 5.48863 0
M  V30 8305 H 812.418 -1.26655 4.23569 0
M  V30 8306 N 811.477 -1.49425 0.500989 0
M  V30 8307 C 812.44 -2.27646 -0.266416 0
M  V30 8308 C 813.44 -1.3366 -0.893961 0
M  V30 8309 O 814.63 -1.5682 -0.758495 0
M  V30 8310 C 811.762 -3.11618 -1.38227 0
M  V30 8311 H 812.955 -2.96945 0.419973 0
M  V30 8312 H 810.508 -1.5419 0.255954 0
M  V30 8313 H 811.243 -2.46885 -2.10281 0
M  V30 8314 H 811.028 -3.80721 -0.937746 0
M  V30 8315 H 812.518 -3.70698 -1.92283 0
M  V30 8316 N 812.955 -0.234822 -1.55841 0
M  V30 8317 C 814.202 0.39326 -1.98645 0
M  V30 8318 C 814.53 1.58823 -1.12274 0
M  V30 8319 O 813.785 1.94954 -0.170731 0
M  V30 8320 C 814.084 0.858032 -3.46947 0
M  V30 8321 C 813.75 -0.227858 -4.50324 0
M  V30 8322 C 812.412 -0.526128 -4.78315 0
M  V30 8323 C 814.764 -0.961576 -5.12253 0
M  V30 8324 C 812.092 -1.5624 -5.65514 0
M  V30 8325 C 814.444 -1.98728 -6.00575 0
M  V30 8326 C 813.108 -2.29233 -6.26904 0
M  V30 8327 H 812.378 0.143904 -0.726892 0
M  V30 8328 H 815.025 -0.34012 -1.88455 0
M  V30 8329 H 813.33 1.67041 -3.54408 0
M  V30 8330 H 815.027 1.35407 -3.77447 0
M  V30 8331 H 811.617 0.0147624 -4.28597 0
M  V30 8332 H 815.801 -0.744388 -4.90686 0
M  V30 8333 H 811.057 -1.80422 -5.84173 0
M  V30 8334 H 815.231 -2.5608 -6.47608 0
M  V30 8335 H 812.858 -3.09671 -6.94268 0
M  V30 8336 N 814.433 1.57553 0.0384317 0
M  V30 8337 C 815.679 1.89121 0.732199 0
M  V30 8338 C 816.012 0.831404 1.75503 0
M  V30 8339 O 815.287 -0.154642 1.93884 0
M  V30 8340 C 815.57 3.31338 1.41021 0
M  V30 8341 C 815.423 4.48004 0.401532 0
M  V30 8342 C 816.742 3.72318 2.34665 0
M  V30 8343 H 813.861 0.687819 0.264715 0
M  V30 8344 H 816.503 1.89999 -0.00496279 0
M  V30 8345 H 814.653 3.3072 2.03854 0
M  V30 8346 H 816.325 4.60755 -0.224159 0
M  V30 8347 H 814.568 4.32895 -0.280092 0
M  V30 8348 H 815.239 5.44377 0.91423 0
M  V30 8349 H 817.715 3.74243 1.81883 0
M  V30 8350 H 816.591 4.72652 2.7909 0
M  V30 8351 H 816.852 3.04062 3.20934 0
M  V30 8352 N 815.911 -0.310526 1.54511 0
M  V30 8353 C 816.858 -1.38264 1.84802 0
M  V30 8354 C 817.828 -1.50808 0.696141 0
M  V30 8355 O 819.013 -1.6582 0.943846 0
M  V30 8356 C 816.153 -2.74422 2.09252 0
M  V30 8357 C 815.266 -2.70405 3.36906 0
M  V30 8358 C 814.401 -3.98495 3.51248 0
M  V30 8359 C 813.44 -3.88836 4.72729 0
M  V30 8360 N 812.577 -5.08683 4.83928 0
M  V30 8361 H 817.417 -1.11732 2.76261 0
M  V30 8362 H 814.954 -0.540609 1.36806 0
M  V30 8363 H 816.912 -3.53593 2.21422 0
M  V30 8364 H 815.542 -2.99235 1.2107 0
M  V30 8365 H 814.594 -1.83151 3.33406 0
M  V30 8366 H 815.906 -2.59155 4.26193 0
M  V30 8367 H 815.06 -4.861 3.63031 0
M  V30 8368 H 813.799 -4.12567 2.60077 0
M  V30 8369 H 812.804 -2.99615 4.60989 0
M  V30 8370 H 814.029 -3.76318 5.65298 0
M  V30 8371 H 811.975 -5.23236 3.95677 0
M  V30 8372 H 811.892 -4.99819 5.67201 0
M  V30 8373 H 813.16 -5.97966 5.00057 0
M  V30 8374 N 817.389 -1.46805 -0.573248 0
M  V30 8375 C 818.339 -1.54497 -1.67674 0
M  V30 8376 C 819.323 -0.405117 -1.55716 0
M  V30 8377 O 820.515 -0.654097 -1.64471 0
M  V30 8378 C 817.644 -1.54717 -3.0646 0
M  V30 8379 C 816.73 -2.7403 -3.2368 0
M  V30 8380 N 817.121 -3.98871 -3.11023 0
M  V30 8381 C 815.419 -2.70453 -3.54642 0
M  V30 8382 C 816.12 -4.78689 -3.30502 0
M  V30 8383 N 815.096 -4.10727 -3.56096 0
M  V30 8384 H 818.898 -2.48809 -1.56433 0
M  V30 8385 H 816.412 -1.42576 -0.777554 0
M  V30 8386 H 818.409 -1.58316 -3.8567 0
M  V30 8387 H 817.069 -0.614886 -3.18825 0
M  V30 8388 H 818.08 -4.29976 -2.88688 0
M  V30 8389 H 814.757 -1.86291 -3.73633 0
M  V30 8390 H 816.147 -5.87615 -3.2582 0
M  V30 8391 N 818.867 0.818669 -1.34668 0
M  V30 8392 C 819.799 1.93754 -1.22442 0
M  V30 8393 C 820.812 1.62103 -0.150501 0
M  V30 8394 O 822.001 1.73898 -0.402728 0
M  V30 8395 C 819.101 3.27806 -0.860031 0
M  V30 8396 C 818.274 3.8745 -2.02981 0
M  V30 8397 C 817.333 4.99887 -1.64314 0
M  V30 8398 O 816.359 5.17957 -2.36029 0
M  V30 8399 N 817.561 5.77795 -0.55976 0
M  V30 8400 H 820.326 2.04773 -2.18833 0
M  V30 8401 H 817.887 0.995472 -1.27679 0
M  V30 8402 H 819.879 4.00478 -0.583068 0
M  V30 8403 H 818.449 3.12597 0.0138253 0
M  V30 8404 H 817.669 3.07119 -2.47127 0
M  V30 8405 H 818.957 4.2403 -2.81204 0
M  V30 8406 H 818.355 5.65688 0.0363329 0
M  V30 8407 H 816.912 6.50899 -0.342541 0
M  V30 8408 N 820.346 1.18468 1.03938 0
M  V30 8409 C 821.574 1.00576 1.80809 0
M  V30 8410 C 821.989 -0.445786 1.83462 0
M  V30 8411 O 821.346 -1.30964 1.27101 0
M  V30 8412 C 821.397 1.55491 3.26351 0
M  V30 8413 O 821.118 2.94963 3.23926 0
M  V30 8414 C 822.619 1.42236 4.19862 0
M  V30 8415 H 819.839 0.35508 0.56935 0
M  V30 8416 H 822.383 1.57046 1.30984 0
M  V30 8417 H 820.538 1.03195 3.73403 0
M  V30 8418 H 820.952 3.20598 4.15111 0
M  V30 8419 H 822.426 1.85455 5.19914 0
M  V30 8420 H 822.903 0.371267 4.37628 0
M  V30 8421 H 823.509 1.9361 3.78675 0
M  V30 8422 N 821.824 -1.22873 0.986916 0
M  V30 8423 C 823.07 -1.91746 0.660401 0
M  V30 8424 C 823.403 -1.76738 -0.804812 0
M  V30 8425 O 822.678 -1.13246 -1.58131 0
M  V30 8426 C 822.961 -3.44156 1.05966 0
M  V30 8427 C 822.814 -3.68242 2.58298 0
M  V30 8428 C 824.133 -4.35874 0.60842 0
M  V30 8429 H 821.252 -0.696347 0.241391 0
M  V30 8430 H 823.894 -1.44867 1.22937 0
M  V30 8431 H 822.044 -3.84213 0.575534 0
M  V30 8432 H 823.716 -3.37626 3.14335 0
M  V30 8433 H 821.959 -3.12728 3.00638 0
M  V30 8434 H 822.63 -4.74956 2.81285 0
M  V30 8435 H 825.106 -4.03299 1.02417 0
M  V30 8436 H 823.982 -5.41201 0.916142 0
M  V30 8437 H 824.243 -4.39364 -0.491086 0
M  V30 8438 N 823.302 -0.75937 -1.38099 0
M  V30 8439 C 824.713 -0.385078 -1.82686 0
M  V30 8440 C 825.064 1.0871 -1.6333 0
M  V30 8441 O 824.189 1.84084 -1.13762 0
M  V30 8442 C 824.784 -0.692161 -3.31654 0
M  V30 8443 C 823.343 -0.371077 -3.74566 0
M  V30 8444 C 822.49 -0.942375 -2.60796 0
M  V30 8445 H 825.441 -0.955048 -1.26746 0
M  V30 8446 H 825.462 0.0276001 -3.8049 0
M  V30 8447 H 824.974 -1.76369 -3.4571 0
M  V30 8448 H 823.075 0.693637 -3.66087 0
M  V30 8449 H 823.188 -0.870672 -4.71122 0
M  V30 8450 H 821.552 -0.367383 -2.52036 0
M  V30 8451 H 822.335 -2.01905 -2.77649 0
M  V30 8452 N 824.78 1.49157 -0.508906 0
M  V30 8453 C 825.712 2.272 0.302115 0
M  V30 8454 C 826.725 1.3407 0.923529 0
M  V30 8455 O 827.914 1.5929 0.805532 0
M  V30 8456 C 825.014 3.06736 1.44105 0
M  V30 8457 C 824.187 4.27497 0.925477 0
M  V30 8458 C 823.246 4.89014 1.94297 0
M  V30 8459 O 822.272 5.48851 1.50834 0
M  V30 8460 N 823.474 4.7937 3.2739 0
M  V30 8461 H 826.239 2.97443 -0.367115 0
M  V30 8462 H 823.8 1.58248 -0.341933 0
M  V30 8463 H 825.792 3.44763 2.11944 0
M  V30 8464 H 824.362 2.3905 2.0143 0
M  V30 8465 H 823.582 3.94135 0.0717301 0
M  V30 8466 H 824.87 5.05714 0.55955 0
M  V30 8467 H 824.268 4.31869 3.65384 0
M  V30 8468 H 822.825 5.21559 3.90922 0
M  V30 8469 N 826.258 0.243083 1.55714 0
M  V30 8470 C 827.206 -0.674349 2.2261 0
M  V30 8471 C 828.2 -1.18307 1.21243 0
M  V30 8472 O 829.406 -1.1404 1.39265 0
M  V30 8473 H 825.781 -0.235941 0.714028 0
M  V30 8474 H 827.752 -0.0869446 2.98273 0
M  V30 8475 C 826.501 -1.86206 2.93637 0
M  V30 8476 H 825.824 -1.47975 3.71407 0
M  V30 8477 H 827.264 -2.4813 3.43813 0
M  V30 8478 C 825.723 -2.73084 1.97298 0
M  V30 8479 O 826.253 -3.72497 1.50361 0
M  V30 8480 N 824.459 -2.39571 1.64482 0
M  V30 8481 H 824.006 -1.5878 2.02846 0
M  V30 8482 H 823.964 -2.97976 1.00288 0
M  V30 8483 N 827.736 -1.57571 -0.0300757 0
M  V30 8484 C 828.964 -1.93485 -0.732891 0
M  V30 8485 C 829.379 -0.842758 -1.68947 0
M  V30 8486 O 828.736 0.180904 -1.81601 0
M  V30 8487 C 828.787 -3.29328 -1.49082 0
M  V30 8488 O 828.508 -4.34341 -0.572639 0
M  V30 8489 C 830.009 -3.79517 -2.29088 0
M  V30 8490 H 827.229 -0.638588 -0.206026 0
M  V30 8491 H 829.773 -2.04496 0.0120966 0
M  V30 8492 H 827.928 -3.19716 -2.1877 0
M  V30 8493 H 828.342 -5.12748 -1.10406 0
M  V30 8494 H 829.816 -4.77081 -2.77665 0
M  V30 8495 H 830.293 -3.10659 -3.10464 0
M  V30 8496 H 830.899 -3.92208 -1.64477 0
M  V30 8497 N 829.214 0.302327 -1.54673 0
M  V30 8498 C 830.462 1.03565 -1.73547 0
M  V30 8499 C 830.783 1.87843 -0.523448 0
M  V30 8500 O 830.053 1.90367 0.462295 0
M  V30 8501 H 828.633 0.385358 -0.639928 0
M  V30 8502 H 831.295 0.333632 -1.92023 0
M  V30 8503 H 830.391 1.68952 -2.62415 0
M  V30 8504 N 830.692 1.47107 0.565454 0
M  V30 8505 C 831.94 1.53005 1.32038 0
M  V30 8506 C 832.261 0.190453 1.94068 0
M  V30 8507 O 831.531 -0.784783 1.79494 0
M  V30 8508 H 830.111 0.563578 0.490294 0
M  V30 8509 H 832.773 1.83351 0.660928 0
M  V30 8510 H 831.869 2.29215 2.11818 0
M  V30 8511 N 832.17 -0.811516 1.35101 0
M  V30 8512 C 833.117 -1.92308 1.27617 0
M  V30 8513 C 834.087 -1.6543 0.149091 0
M  V30 8514 O 835.272 -1.8789 0.331974 0
M  V30 8515 C 832.412 -3.28768 1.04908 0
M  V30 8516 C 831.525 -3.67865 2.26493 0
M  V30 8517 C 830.66 -4.9333 1.96974 0
M  V30 8518 C 829.699 -5.25041 3.1464 0
M  V30 8519 N 828.836 -6.41685 2.84929 0
M  V30 8520 H 833.676 -1.98041 2.22674 0
M  V30 8521 H 831.213 -0.968755 1.10696 0
M  V30 8522 H 833.171 -4.07426 0.897749 0
M  V30 8523 H 831.801 -3.22517 0.135151 0
M  V30 8524 H 830.853 -2.84507 2.52507 0
M  V30 8525 H 832.165 -3.87263 3.14371 0
M  V30 8526 H 831.319 -5.79803 1.78643 0
M  V30 8527 H 830.058 -4.75958 1.06374 0
M  V30 8528 H 829.063 -4.3706 3.33554 0
M  V30 8529 H 830.288 -5.44346 4.06035 0
M  V30 8530 H 828.234 -6.25747 1.96918 0
M  V30 8531 H 828.151 -6.6131 3.66341 0
M  V30 8532 H 829.419 -7.31198 2.70128 0
M  V30 8533 N 833.648 -1.19017 -1.03309 0
M  V30 8534 C 834.596 -0.920627 -2.13605 0
M  V30 8535 C 835.59 0.121969 -1.6896 0
M  V30 8536 O 836.796 -0.0268854 -1.7998 0
M  V30 8537 H 833.171 -0.280284 -0.697814 0
M  V30 8538 H 835.142 -1.85755 -2.33533 0
M  V30 8539 C 833.891 -0.471198 -3.44492 0
M  V30 8540 H 833.214 -1.26499 -3.7926 0
M  V30 8541 H 834.654 -0.321663 -4.22778 0
M  V30 8542 C 833.113 0.81411 -3.26916 0
M  V30 8543 O 833.643 1.87654 -3.55175 0
M  V30 8544 N 831.849 0.769695 -2.80221 0
M  V30 8545 H 831.396 -0.0951278 -2.57424 0
M  V30 8546 H 831.354 1.63008 -2.68842 0
M  V30 8547 N 835.127 1.22348 -0.993418 0
M  V30 8548 C 836.538 1.72893 -0.704616 0
M  V30 8549 C 836.889 1.80095 0.778483 0
M  V30 8550 O 836.014 1.4476 1.60853 0
M  V30 8551 C 836.609 3.14 -1.27237 0
M  V30 8552 C 835.168 3.61949 -1.03294 0
M  V30 8553 C 834.315 2.39816 -1.39225 0
M  V30 8554 H 837.266 1.07688 -1.16572 0
M  V30 8555 H 837.287 3.74886 -0.651212 0
M  V30 8556 H 836.799 3.08727 -2.3518 0
M  V30 8557 H 834.9 3.72588 0.0298329 0
M  V30 8558 H 835.013 4.48051 -1.69668 0
M  V30 8559 H 833.377 2.41448 -0.810849 0
M  V30 8560 H 834.16 2.37203 -2.48172 0
M  V30 8561 N 836.605 0.766683 1.37694 0
M  V30 8562 C 837.882 0.25366 1.93948 0
M  V30 8563 C 838.262 -1.25041 1.70082 0
M  V30 8564 O 837.61 -2.03115 1.04674 0
M  V30 8565 C 837.82 0.621549 3.43421 0
M  V30 8566 C 839.168 0.588504 4.20502 0
M  V30 8567 O 840.192 0.560632 3.5176 0
M  V30 8568 O 839.051 0.61107 5.43073 0
M  V30 8569 H 836.145 0.0570586 0.825029 0
M  V30 8570 H 838.691 0.847693 1.47011 0
M  V30 8571 H 837.463 1.65979 3.54354 0
M  V30 8572 H 837.086 0.000197027 3.976 0
M  V30 8573 N 838.083 -1.48885 0.516809 0
M  V30 8574 C 839.494 -1.86557 0.0729921 0
M  V30 8575 C 839.845 -1.42767 -1.34581 0
M  V30 8576 O 838.97 -0.812514 -2.00567 0
M  V30 8577 C 839.565 -3.38567 0.125686 0
M  V30 8578 C 838.124 -3.75481 -0.262867 0
M  V30 8579 C 837.271 -2.72913 0.491281 0
M  V30 8580 H 840.222 -1.40978 0.728767 0
M  V30 8581 H 840.243 -3.74629 -0.665831 0
M  V30 8582 H 839.755 -3.70408 1.15842 0
M  V30 8583 H 837.856 -3.49251 -1.29824 0
M  V30 8584 H 837.969 -4.79052 0.067579 0
M  V30 8585 H 836.333 -2.54627 -0.0608525 0
M  V30 8586 H 837.116 -3.07599 1.5244 0
M  V30 8587 N 839.561 -0.251338 -1.55583 0
M  V30 8588 C 840.807 0.365823 -2.00083 0
M  V30 8589 C 841.162 1.55242 -1.13656 0
M  V30 8590 O 840.455 1.90624 -0.193108 0
M  V30 8591 C 840.649 0.821186 -3.47838 0
M  V30 8592 C 840.478 -0.319746 -4.48562 0
M  V30 8593 C 839.248 -0.795866 -4.98993 0
M  V30 8594 C 841.446 -1.14825 -5.01318 0
M  V30 8595 N 839.428 -1.90875 -5.83472 0
M  V30 8596 C 840.799 -2.10943 -5.83012 0
M  V30 8597 C 842.854 -1.18431 -4.8361 0
M  V30 8598 C 841.557 -3.10383 -6.48888 0
M  V30 8599 C 843.583 -2.16703 -5.50267 0
M  V30 8600 C 842.945 -3.11557 -6.31753 0
M  V30 8601 H 839.044 0.0996971 -0.775619 0
M  V30 8602 H 841.628 -0.36993 -1.91153 0
M  V30 8603 H 839.799 1.52622 -3.57157 0
M  V30 8604 H 841.531 1.41367 -3.79206 0
M  V30 8605 H 838.286 -0.379242 -4.72079 0
M  V30 8606 H 838.71 -2.46808 -6.30408 0
M  V30 8607 H 843.352 -0.464824 -4.20237 0
M  V30 8608 H 841.07 -3.83277 -7.11424 0
M  V30 8609 H 844.656 -2.20204 -5.38518 0
M  V30 8610 H 843.536 -3.86357 -6.82421 0
M  V30 8611 N 841.039 1.57585 0.0217189 0
M  V30 8612 C 842.002 2.06004 1.00474 0
M  V30 8613 C 843.002 0.965461 1.2859 0
M  V30 8614 O 844.192 1.22884 1.23471 0
M  V30 8615 C 841.324 2.48319 2.33561 0
M  V30 8616 H 842.517 2.94112 0.586346 0
M  V30 8617 H 840.07 1.53973 0.268716 0
M  V30 8618 H 840.805 1.63389 2.80133 0
M  V30 8619 H 840.59 3.28239 2.1448 0
M  V30 8620 H 842.08 2.86181 3.04122 0
M  V30 8621 N 842.517 -0.29412 1.54831 0
M  V30 8622 C 843.464 -1.36296 1.86258 0
M  V30 8623 C 844.434 -1.50061 0.712097 0
M  V30 8624 O 845.619 -1.64809 0.961381 0
M  V30 8625 C 842.759 -2.72187 2.12151 0
M  V30 8626 C 841.872 -2.66816 3.39755 0
M  V30 8627 C 841.007 -3.94747 3.55455 0
M  V30 8628 C 840.046 -3.838 4.76827 0
M  V30 8629 N 839.183 -5.03521 4.89296 0
M  V30 8630 H 844.023 -1.08796 2.7743 0
M  V30 8631 H 841.56 -0.526069 1.37371 0
M  V30 8632 H 843.518 -3.51225 2.25159 0
M  V30 8633 H 842.148 -2.97934 1.24237 0
M  V30 8634 H 841.2 -1.79605 3.3533 0
M  V30 8635 H 842.512 -2.5462 4.28917 0
M  V30 8636 H 841.666 -4.82223 3.68166 0
M  V30 8637 H 840.405 -4.09785 2.64438 0
M  V30 8638 H 839.41 -2.94708 4.64141 0
M  V30 8639 H 840.635 -3.70301 5.69258 0
M  V30 8640 H 838.581 -5.1901 4.01204 0
M  V30 8641 H 838.498 -4.93775 5.72471 0
M  V30 8642 H 839.766 -5.92629 5.06371 0
M  V30 8643 N 843.995 -1.47404 -0.557645 0
M  V30 8644 C 844.943 -1.60265 -1.68576 0
M  V30 8645 C 845.937 -0.469982 -1.6275 0
M  V30 8646 O 847.143 -0.647764 -1.67941 0
M  V30 8647 H 843.518 -0.504353 -0.557792 0
M  V30 8648 H 845.489 -2.55066 -1.54867 0
M  V30 8649 C 844.238 -1.63369 -3.0693 0
M  V30 8650 H 843.561 -2.49874 -3.12095 0
M  V30 8651 H 845.001 -1.76417 -3.85556 0
M  V30 8652 C 843.46 -0.366921 -3.34896 0
M  V30 8653 O 843.99 0.53218 -3.98159 0
M  V30 8654 N 842.196 -0.247082 -2.89548 0
M  V30 8655 H 841.743 -0.979669 -2.38244 0
M  V30 8656 H 841.701 0.599552 -3.0863 0
M  V30 8657 N 845.473 0.80434 -1.35529 0
M  V30 8658 C 846.403 1.93086 -1.31301 0
M  V30 8659 C 847.384 1.69068 -0.187044 0
M  V30 8660 O 848.569 1.90399 -0.382359 0
M  V30 8661 C 845.699 3.29867 -1.0865 0
M  V30 8662 C 844.653 3.68373 -2.17911 0
M  V30 8663 C 843.979 5.0334 -1.80423 0
M  V30 8664 C 845.279 3.78516 -3.59893 0
M  V30 8665 H 846.973 1.96882 -2.25561 0
M  V30 8666 H 844.519 0.945841 -1.08581 0
M  V30 8667 H 846.472 4.08281 -1.04331 0
M  V30 8668 H 845.196 3.2642 -0.108359 0
M  V30 8669 H 843.855 2.92247 -2.21331 0
M  V30 8670 H 843.503 4.96399 -0.812213 0
M  V30 8671 H 843.203 5.30074 -2.53565 0
M  V30 8672 H 844.727 5.84191 -1.77633 0
M  V30 8673 H 846.141 4.47155 -3.58783 0
M  V30 8674 H 844.538 4.16721 -4.31814 0
M  V30 8675 H 845.608 2.8001 -3.95882 0
M  V30 8676 N 846.951 1.19563 1.02676 0
M  V30 8677 C 847.899 0.931942 2.13114 0
M  V30 8678 C 848.893 -0.113007 1.69023 0
M  V30 8679 O 850.099 0.0364298 1.79963 0
M  V30 8680 H 846.474 0.283981 0.696318 0
M  V30 8681 H 848.445 1.86991 2.32545 0
M  V30 8682 C 847.194 0.489461 3.44238 0
M  V30 8683 H 846.517 1.28508 3.78584 0
M  V30 8684 H 847.957 0.34408 4.22602 0
M  V30 8685 C 846.416 -0.796761 3.27343 0
M  V30 8686 O 846.946 -1.85767 3.56165 0
M  V30 8687 N 845.152 -0.754824 2.80626 0
M  V30 8688 H 844.699 0.108778 2.5737 0
M  V30 8689 H 844.657 -1.6158 2.69702 0
M  V30 8690 N 848.429 -1.21819 0.999893 0
M  V30 8691 C 849.339 -2.27691 0.565159 0
M  V30 8692 C 850.355 -1.69587 -0.389398 0
M  V30 8693 O 851.531 -1.99786 -0.254499 0
M  V30 8694 C 848.596 -3.46537 -0.106432 0
M  V30 8695 C 847.657 -4.19932 0.891964 0
M  V30 8696 C 846.89 -5.33103 0.252327 0
M  V30 8697 O 847.113 -5.62398 -0.952103 0
M  V30 8698 O 846.047 -5.94184 0.960698 0
M  V30 8699 H 849.873 -2.67059 1.44613 0
M  V30 8700 H 847.458 -1.28119 0.768499 0
M  V30 8701 H 849.34 -4.18631 -0.482301 0
M  V30 8702 H 848.015 -3.09079 -0.961865 0
M  V30 8703 H 846.922 -3.5008 1.3189 0
M  V30 8704 H 848.255 -4.61287 1.71682 0
M  V30 8705 N 849.908 -0.773975 -1.37286 0
M  V30 8706 C 850.855 -0.159938 -2.30245 0
M  V30 8707 C 851.825 0.687356 -1.51211 0
M  V30 8708 O 853.01 0.639255 -1.79773 0
M  V30 8709 C 850.15 0.711452 -3.37687 0
M  V30 8710 C 849.263 -0.152692 -4.3173 0
M  V30 8711 C 848.398 0.723613 -5.26248 0
M  V30 8712 C 847.437 -0.14293 -6.11933 0
M  V30 8713 N 846.574 0.691479 -6.98687 0
M  V30 8714 H 851.414 -0.958182 -2.82175 0
M  V30 8715 H 848.951 -0.48411 -1.38906 0
M  V30 8716 H 850.909 1.2315 -3.9861 0
M  V30 8717 H 849.539 1.47528 -2.87116 0
M  V30 8718 H 848.591 -0.790574 -3.72094 0
M  V30 8719 H 849.903 -0.821027 -4.91997 0
M  V30 8720 H 849.057 1.31006 -5.92387 0
M  V30 8721 H 847.796 1.42562 -4.66398 0
M  V30 8722 H 846.801 -0.7419 -5.44771 0
M  V30 8723 H 848.026 -0.842305 -6.73856 0
M  V30 8724 H 845.972 1.37806 -6.41362 0
M  V30 8725 H 845.889 0.0804911 -7.55957 0
M  V30 8726 H 847.157 1.26225 -7.69212 0
M  V30 8727 N 851.386 1.48609 -0.524698 0
M  V30 8728 C 852.663 1.95454 0.075465 0
M  V30 8729 C 853.043 1.46682 1.51814 0
M  V30 8730 O 852.391 0.690975 2.17802 0
M  V30 8731 C 852.601 3.48981 -0.0363273 0
M  V30 8732 C 853.949 4.24414 0.125624 0
M  V30 8733 O 854.973 3.5618 0.0377239 0
M  V30 8734 O 853.832 5.45625 0.309104 0
M  V30 8735 H 850.926 0.822902 0.0822256 0
M  V30 8736 H 853.472 1.59153 -0.588921 0
M  V30 8737 H 852.244 3.77185 -1.04149 0
M  V30 8738 H 851.867 3.91963 0.667146 0
M  V30 8739 N 852.864 0.259585 1.55447 0
M  V30 8740 C 854.094 -0.364863 2.03353 0
M  V30 8741 C 854.502 -1.5116 1.13786 0
M  V30 8742 O 853.845 -1.83109 0.147283 0
M  V30 8743 C 853.907 -0.922587 3.4746 0
M  V30 8744 C 853.571 0.0935207 4.56904 0
M  V30 8745 C 854.568 0.907571 5.11917 0
M  V30 8746 C 852.253 0.223276 5.01804 0
M  V30 8747 C 854.247 1.83771 6.10333 0
M  V30 8748 C 851.934 1.15691 6.00049 0
M  V30 8749 C 852.932 1.96264 6.54194 0
M  V30 8750 O 852.62 2.88052 7.50521 0
M  V30 8751 H 852.352 -0.0893313 0.670072 0
M  V30 8752 H 854.906 0.384821 2.01763 0
M  V30 8753 H 853.136 -1.72206 3.4624 0
M  V30 8754 H 854.825 -1.45846 3.78792 0
M  V30 8755 H 855.591 0.817979 4.78052 0
M  V30 8756 H 851.47 -0.393834 4.59315 0
M  V30 8757 H 855.014 2.46703 6.52521 0
M  V30 8758 H 850.911 1.24738 6.33333 0
M  V30 8759 H 851.679 2.82557 7.68182 0
M  V30 8760 N 854.342 -1.57594 -0.0133615 0
M  V30 8761 C 855.252 -2.10991 -1.02566 0
M  V30 8762 C 856.268 -1.05208 -1.3859 0
M  V30 8763 O 857.444 -1.37034 -1.47593 0
M  V30 8764 C 854.509 -2.59165 -2.30292 0
M  V30 8765 C 853.57 -3.79495 -2.00704 0
M  V30 8766 C 852.803 -4.25361 -3.22341 0
M  V30 8767 O 853.026 -3.70645 -4.33565 0
M  V30 8768 O 851.96 -5.17649 -3.07121 0
M  V30 8769 H 855.786 -2.97678 -0.601806 0
M  V30 8770 H 853.371 -1.47598 -0.23135 0
M  V30 8771 H 855.253 -2.90409 -3.05354 0
M  V30 8772 H 853.928 -1.75582 -2.71942 0
M  V30 8773 H 852.835 -3.53245 -1.23161 0
M  V30 8774 H 854.168 -4.64109 -1.639 0
M  V30 8775 N 855.82 0.285905 -1.54985 0
M  V30 8776 C 856.75 1.35752 -1.89983 0
M  V30 8777 C 857.731 1.52163 -0.760295 0
M  V30 8778 O 858.916 1.65421 -1.01733 0
M  V30 8779 C 856.046 2.71925 -2.16042 0
M  V30 8780 C 855 2.70261 -3.31878 0
M  V30 8781 C 854.326 4.09864 -3.43388 0
M  V30 8782 C 855.626 2.30667 -4.68604 0
M  V30 8783 H 857.32 1.06709 -2.79738 0
M  V30 8784 H 854.866 0.511884 -1.34595 0
M  V30 8785 H 856.819 3.46992 -2.39113 0
M  V30 8786 H 855.543 3.02523 -1.23074 0
M  V30 8787 H 854.202 1.97651 -3.08755 0
M  V30 8788 H 853.85 4.37664 -2.47909 0
M  V30 8789 H 853.55 4.09648 -4.21262 0
M  V30 8790 H 855.074 4.86689 -3.68736 0
M  V30 8791 H 856.488 2.95453 -4.91305 0
M  V30 8792 H 854.885 2.41637 -5.49301 0
M  V30 8793 H 855.955 1.25793 -4.68299 0
M  V30 8794 N 857.298 1.47698 0.54982 0
M  V30 8795 C 858.228 1.63622 1.66583 0
M  V30 8796 C 859.209 0.485477 1.63025 0
M  V30 8797 O 860.394 0.715692 1.80531 0
M  V30 8798 C 857.524 1.65721 3.05211 0
M  V30 8799 C 856.478 2.80097 3.2362 0
M  V30 8800 C 855.804 2.67272 4.63109 0
M  V30 8801 C 857.104 4.21612 3.08286 0
M  V30 8802 H 858.798 2.57049 1.53512 0
M  V30 8803 H 856.344 1.23705 0.737099 0
M  V30 8804 H 858.297 1.75451 3.83138 0
M  V30 8805 H 857.021 0.688593 3.19258 0
M  V30 8806 H 855.68 2.69889 2.48104 0
M  V30 8807 H 855.328 1.68422 4.73965 0
M  V30 8808 H 855.028 3.44008 4.76374 0
M  V30 8809 H 856.552 2.78942 5.43161 0
M  V30 8810 H 857.966 4.32758 3.76024 0
M  V30 8811 H 856.363 4.99193 3.33057 0
M  V30 8812 H 857.433 4.39462 2.04942 0
M  V30 8813 N 858.776 -0.797141 1.35954 0
M  V30 8814 C 860.016 -1.56795 1.31128 0
M  V30 8815 C 860.38 -1.91683 -0.110364 0
M  V30 8816 O 861.581 -2.67305 -0.283093 0
M  V30 8817 C 859.852 -2.81577 2.20111 0
M  V30 8818 S 861.411 -3.71895 2.32894 0
M  V30 8819 H 858.229 -0.53711 0.465869 0
M  V30 8820 H 860.831 -0.939522 1.71445 0
M  V30 8821 H 859.535 -2.53986 3.22365 0
M  V30 8822 H 859.066 -3.49399 1.80786 0
M  V30 8823 H 861.081 -4.72322 1.52073 0
M  V30 8824 N 860.254 -1.20106 -1.0204 0
M  V30 8825 C 861.184 -0.970301 -2.12385 0
M  V30 8826 C 862.165 0.099378 -1.69809 0
M  V30 8827 O 863.35 -0.057365 -1.94115 0
M  V30 8828 C 860.48 -0.517431 -3.43424 0
M  V30 8829 C 859.434 -1.52992 -3.99722 0
M  V30 8830 C 858.76 -0.933817 -5.26483 0
M  V30 8831 C 860.06 -2.91257 -4.33551 0
M  V30 8832 H 861.754 -1.89316 -2.31948 0
M  V30 8833 H 859.3 -0.911655 -1.11467 0
M  V30 8834 H 861.253 -0.343243 -4.2 0
M  V30 8835 H 859.977 0.441049 -3.23608 0
M  V30 8836 H 858.636 -1.6914 -3.2525 0
M  V30 8837 H 858.284 0.0324763 -5.0299 0
M  V30 8838 H 857.984 -1.60999 -5.65113 0
M  V30 8839 H 859.508 -0.770614 -6.05718 0
M  V30 8840 H 860.922 -2.78642 -5.0103 0
M  V30 8841 H 859.319 -3.55745 -4.83286 0
M  V30 8842 H 860.389 -3.43269 -3.42483 0
M  V30 8843 N 861.732 1.21287 -1.00634 0
M  V30 8844 C 863.009 1.86 -0.605257 0
M  V30 8845 C 863.389 1.90139 0.917072 0
M  V30 8846 O 862.737 1.40169 1.80458 0
M  V30 8847 C 862.947 3.26183 -1.24119 0
M  V30 8848 C 864.295 4.02562 -1.35015 0
M  V30 8849 O 865.319 3.35499 -1.19661 0
M  V30 8850 O 864.178 5.22638 -1.59726 0
M  V30 8851 H 861.272 0.800549 -0.207486 0
M  V30 8852 H 863.818 1.28959 -1.10307 0
M  V30 8853 H 862.59 3.17878 -2.28186 0
M  V30 8854 H 862.213 3.90845 -0.729807 0
M  V30 8855 N 863.21 0.781244 1.36873 0
M  V30 8856 C 864.458 0.349198 1.9906 0
M  V30 8857 C 864.779 -1.0806 1.62321 0
M  V30 8858 O 864.049 -1.74351 0.893229 0
M  V30 8859 H 862.629 0.126126 0.736275 0
M  V30 8860 H 865.291 1.00148 1.67202 0
M  V30 8861 H 864.387 0.434451 3.09061 0
M  V30 8862 N 864.689 -1.48329 0.532571 0
M  V30 8863 C 865.917 -2.069 0.00354299 0
M  V30 8864 C 866.332 -1.38876 -1.27902 0
M  V30 8865 O 865.689 -0.477119 -1.76153 0
M  V30 8866 C 865.74 -3.60821 -0.221416 0
M  V30 8867 O 865.461 -4.26291 1.01034 0
M  V30 8868 C 866.962 -4.36194 -0.790531 0
M  V30 8869 H 864.182 -0.670103 0.0346836 0
M  V30 8870 H 866.726 -1.90682 0.738955 0
M  V30 8871 H 864.881 -3.76636 -0.906884 0
M  V30 8872 H 865.295 -5.18475 0.792683 0
M  V30 8873 H 866.769 -5.44657 -0.897347 0
M  V30 8874 H 867.246 -4.00798 -1.79605 0
M  V30 8875 H 867.852 -4.25064 -0.141546 0
M  V30 8876 N 866.167 -0.267825 -1.55308 0
M  V30 8877 C 867.583 0.0865107 -1.59365 0
M  V30 8878 C 867.783 1.55205 -1.28505 0
M  V30 8879 O 866.839 2.29978 -1.04241 0
M  V30 8880 C 868.152 -0.28155 -2.99379 0
M  V30 8881 C 869.7 -0.227565 -3.12172 0
M  V30 8882 C 870.175 -0.569959 -4.5444 0
M  V30 8883 N 871.666 -0.521238 -4.60258 0
M  V30 8884 C 872.401 -0.759061 -5.68354 0
M  V30 8885 N 871.897 -1.06112 -6.84626 0
M  V30 8886 N 873.69 -0.688351 -5.57869 0
M  V30 8887 H 865.841 -1.22332 -1.73633 0
M  V30 8888 H 868.104 -0.493703 -0.809297 0
M  V30 8889 H 867.81 -1.3005 -3.26772 0
M  V30 8890 H 867.684 0.381192 -3.75269 0
M  V30 8891 H 870.071 0.782093 -2.84548 0
M  V30 8892 H 870.152 -0.924461 -2.38511 0
M  V30 8893 H 869.796 -1.57727 -4.82788 0
M  V30 8894 H 869.726 0.148646 -5.2639 0
M  V30 8895 H 872.217 -0.297359 -3.76728 0
M  V30 8896 H 872.53 -1.22945 -7.62958 0
M  V30 8897 H 870.875 -1.09881 -6.86259 0
M  V30 8898 H 874.066 -0.452268 -4.6591 0
M  V30 8899 H 874.239 -0.877081 -6.42037 0
M  V30 8900 N 867.645 1.57599 0.00500368 0
M  V30 8901 C 868.592 2.08106 0.998025 0
M  V30 8902 C 869.562 0.975374 1.34446 0
M  V30 8903 O 870.747 1.24749 1.44369 0
M  V30 8904 C 867.887 2.58496 2.28635 0
M  V30 8905 C 867 3.82947 1.99939 0
M  V30 8906 C 866.135 4.21857 3.22816 0
M  V30 8907 C 865.174 5.39159 2.89783 0
M  V30 8908 N 864.311 5.73386 4.05183 0
M  V30 8909 H 869.151 2.92684 0.560385 0
M  V30 8910 H 866.688 1.44692 0.265053 0
M  V30 8911 H 868.646 2.85787 3.03943 0
M  V30 8912 H 867.276 1.768 2.70077 0
M  V30 8913 H 866.328 3.62594 1.1502 0
M  V30 8914 H 867.64 4.68358 1.71588 0
M  V30 8915 H 866.794 4.50404 4.06474 0
M  V30 8916 H 865.533 3.35145 3.54301 0
M  V30 8917 H 864.538 5.1034 2.04532 0
M  V30 8918 H 865.763 6.27543 2.59551 0
M  V30 8919 H 863.709 4.89632 4.36574 0
M  V30 8920 H 863.626 6.53359 3.80339 0
M  V30 8921 H 864.894 6.06522 4.89644 0
M  V30 8922 N 869.123 -0.277682 1.55134 0
M  V30 8923 C 870.534 -0.849063 1.66276 0
M  V30 8924 C 870.885 -1.87223 0.5867 0
M  V30 8925 O 870.01 -2.14676 -0.272635 0
M  V30 8926 C 870.605 -1.54681 3.01429 0
M  V30 8927 C 869.164 -2.06628 3.14614 0
M  V30 8928 C 868.311 -0.906748 2.62056 0
M  V30 8929 H 871.262 -0.0541357 1.58608 0
M  V30 8930 H 871.283 -2.41356 2.94156 0
M  V30 8931 H 870.795 -0.80189 3.79725 0
M  V30 8932 H 868.896 -2.84095 2.41082 0
M  V30 8933 H 869.009 -2.2848 4.2111 0
M  V30 8934 H 867.373 -1.29882 2.19095 0
M  V30 8935 H 868.156 -0.175414 3.42852 0
M  V30 8936 N 870.601 -1.47988 -0.541979 0
M  V30 8937 C 871.847 -1.55623 -1.30036 0
M  V30 8938 C 872.18 -0.224254 -1.92901 0
M  V30 8939 O 871.455 0.768629 -1.78668 0
M  V30 8940 C 871.738 -2.68562 -2.39888 0
M  V30 8941 C 871.591 -4.11426 -1.81792 0
M  V30 8942 C 872.91 -2.77325 -3.41729 0
M  V30 8943 H 870.029 -0.566498 -0.471433 0
M  V30 8944 H 872.671 -1.8011 -0.604998 0
M  V30 8945 H 870.821 -2.47814 -2.992 0
M  V30 8946 H 872.493 -4.43581 -1.26624 0
M  V30 8947 H 870.736 -4.18989 -1.12386 0
M  V30 8948 H 871.407 -4.8625 -2.61276 0
M  V30 8949 H 873.883 -2.96085 -2.92357 0
M  V30 8950 H 872.759 -3.58097 -4.16002 0
M  V30 8951 H 873.02 -1.84995 -4.01534 0
M  V30 8952 N 872.079 0.78992 -1.36375 0
M  V30 8953 C 872.989 1.93386 -1.32812 0
M  V30 8954 C 874.005 1.72468 -0.230377 0
M  V30 8955 O 875.181 1.96014 -0.462657 0
M  V30 8956 C 872.246 3.2824 -1.11621 0
M  V30 8957 C 871.307 3.61939 -2.30865 0
M  V30 8958 C 870.54 4.90359 -2.10675 0
M  V30 8959 O 870.763 5.6005 -1.08168 0
M  V30 8960 O 869.697 5.22702 -2.9844 0
M  V30 8961 H 873.523 1.99342 -2.29121 0
M  V30 8962 H 871.108 0.9301 -1.16917 0
M  V30 8963 H 872.99 4.08939 -1.01719 0
M  V30 8964 H 871.665 3.23178 -0.183732 0
M  V30 8965 H 870.572 2.81549 -2.46335 0
M  V30 8966 H 871.905 3.71725 -3.22617 0
M  V30 8967 N 873.557 1.20646 1.01402 0
M  V30 8968 C 874.467 0.973385 2.13453 0
M  V30 8969 C 875.483 -0.0715865 1.73853 0
M  V30 8970 O 876.659 0.116438 2.01063 0
M  V30 8971 C 873.724 0.531285 3.42605 0
M  V30 8972 C 872.785 1.64741 3.96433 0
M  V30 8973 C 872.018 1.22631 5.1942 0
M  V30 8974 O 872.241 0.0960891 5.70319 0
M  V30 8975 O 871.175 2.03474 5.66465 0
M  V30 8976 H 875.001 1.91164 2.35987 0
M  V30 8977 H 872.586 0.990553 1.11841 0
M  V30 8978 H 874.468 0.294095 4.20373 0
M  V30 8979 H 873.143 -0.378358 3.21481 0
M  V30 8980 H 872.05 1.93891 3.19933 0
M  V30 8981 H 873.383 2.53415 4.2195 0
M  V30 8982 N 875.035 -1.20752 1.01276 0
M  V30 8983 C 876.265 -1.93725 0.717934 0
M  V30 8984 C 876.673 -1.74769 -0.724732 0
M  V30 8985 O 876.016 -1.05642 -1.50285 0
M  V30 8986 C 876.078 -3.46196 0.968954 0
M  V30 8987 C 875.742 -3.88909 2.39998 0
M  V30 8988 C 876.739 -3.94982 3.38061 0
M  V30 8989 C 874.424 -4.21006 2.7397 0
M  V30 8990 C 876.418 -4.32558 4.68159 0
M  V30 8991 C 874.105 -4.58257 4.04282 0
M  V30 8992 C 875.103 -4.64004 5.01187 0
M  V30 8993 O 874.791 -5.00403 6.29168 0
M  V30 8994 H 874.523 -0.622663 0.263186 0
M  V30 8995 H 877.077 -1.54299 1.35577 0
M  V30 8996 H 875.307 -3.85728 0.273952 0
M  V30 8997 H 876.996 -4.00394 0.666312 0
M  V30 8998 H 877.762 -3.70353 3.13151 0
M  V30 8999 H 873.641 -4.15725 1.99233 0
M  V30 9000 H 877.185 -4.36959 5.43795 0
M  V30 9001 H 873.082 -4.82341 4.28973 0
M  V30 9002 H 873.85 -5.18409 6.33399 0
M  V30 9003 N 876.513 -0.788492 -1.36457 0
M  V30 9004 C 877.476 -0.192209 -2.28393 0
M  V30 9005 C 878.476 0.609916 -1.48784 0
M  V30 9006 O 879.666 0.431046 -1.68783 0
M  V30 9007 C 876.798 0.734096 -3.32902 0
M  V30 9008 H 877.991 -1.00284 -2.82636 0
M  V30 9009 H 875.544 -0.557852 -1.46006 0
M  V30 9010 H 876.279 1.5691 -2.83813 0
M  V30 9011 H 876.064 0.160875 -3.9177 0
M  V30 9012 H 877.554 1.1462 -4.01562 0
M  V30 9013 N 877.991 1.48044 -0.54043 0
M  V30 9014 C 878.939 2.31461 0.229862 0
M  V30 9015 C 879.933 1.41884 0.925495 0
M  V30 9016 O 881.139 1.58736 0.848689 0
M  V30 9017 H 877.514 0.746227 0.0929975 0
M  V30 9018 H 879.485 2.94297 -0.493118 0
M  V30 9019 C 878.234 3.24172 1.25729 0
M  V30 9020 H 877.557 3.93052 0.731426 0
M  V30 9021 H 878.997 3.85404 1.76747 0
M  V30 9022 C 877.456 2.4651 2.2964 0
M  V30 9023 O 877.986 2.19742 3.36268 0
M  V30 9024 N 876.192 2.07817 2.03127 0
M  V30 9025 H 875.739 2.29786 1.1643 0
M  V30 9026 H 875.697 1.56168 2.72872 0
M  V30 9027 N 879.47 0.276058 1.55163 0
M  V30 9028 C 880.71 -0.341634 2.01525 0
M  V30 9029 C 881.074 -1.52979 1.16023 0
M  V30 9030 O 882.275 -2.21718 1.51968 0
M  V30 9031 C 880.546 -0.713294 3.5021 0
M  V30 9032 S 882.105 -1.31739 4.18558 0
M  V30 9033 H 878.923 -0.1062 0.703024 0
M  V30 9034 H 881.525 0.398112 1.91404 0
M  V30 9035 H 880.229 0.160311 4.10087 0
M  V30 9036 H 879.76 -1.48448 3.64317 0
M  V30 9037 H 881.775 -2.60595 4.22261 0
M  V30 9038 N 880.948 -1.576 0.00335426 0
M  V30 9039 C 881.898 -2.05116 -0.995562 0
M  V30 9040 C 882.882 -0.946535 -1.30113 0
M  V30 9041 O 884.074 -1.21028 -1.29156 0
M  V30 9042 C 881.203 -2.56077 -2.28648 0
M  V30 9043 C 880.289 -3.73422 -2.0104 0
M  V30 9044 N 880.68 -4.84986 -1.43603 0
M  V30 9045 C 878.978 -3.81416 -2.31166 0
M  V30 9046 C 879.679 -5.66399 -1.32542 0
M  V30 9047 N 878.655 -5.12505 -1.81218 0
M  V30 9048 H 882.457 -2.88783 -0.546025 0
M  V30 9049 H 879.971 -1.61135 -0.202265 0
M  V30 9050 H 881.968 -2.88395 -3.01055 0
M  V30 9051 H 880.628 -1.73829 -2.74251 0
M  V30 9052 H 881.639 -5.05768 -1.11439 0
M  V30 9053 H 878.316 -3.1003 -2.7962 0
M  V30 9054 H 879.706 -6.66066 -0.88348 0
M  V30 9055 N 882.426 0.269451 -1.5528 0
M  V30 9056 C 883.356 1.33729 -1.91413 0
M  V30 9057 C 884.337 1.51348 -0.776391 0
M  V30 9058 O 885.522 1.64332 -1.03482 0
M  V30 9059 C 882.652 2.69618 -2.18914 0
M  V30 9060 C 881.606 2.66725 -3.34726 0
M  V30 9061 C 880.932 4.06199 -3.47716 0
M  V30 9062 C 882.232 2.25684 -4.71025 0
M  V30 9063 H 883.926 1.03736 -2.80854 0
M  V30 9064 H 881.472 0.497579 -1.3513 0
M  V30 9065 H 883.425 3.44436 -2.42779 0
M  V30 9066 H 882.149 3.01201 -1.26275 0
M  V30 9067 H 880.808 1.94365 -3.10834 0
M  V30 9068 H 880.456 4.3501 -2.52537 0
M  V30 9069 H 880.156 4.05157 -4.25583 0
M  V30 9070 H 881.68 4.8275 -3.73877 0
M  V30 9071 H 883.094 2.90225 -4.94411 0
M  V30 9072 H 881.491 2.35797 -5.51833 0
M  V30 9073 H 882.561 1.20819 -4.69607 0
M  V30 9074 N 883.904 1.48273 0.534124 0
M  V30 9075 C 884.867 1.6201 1.62127 0
M  V30 9076 C 885.867 0.493653 1.53035 0
M  V30 9077 O 887.057 0.759337 1.56779 0
M  V30 9078 C 884.189 1.5864 3.01739 0
M  V30 9079 H 885.382 2.58944 1.51288 0
M  V30 9080 H 882.935 1.36808 0.755861 0
M  V30 9081 H 883.67 0.631685 3.18088 0
M  V30 9082 H 883.455 2.40415 3.09747 0
M  V30 9083 H 884.945 1.71438 3.80787 0
M  V30 9084 N 885.382 -0.782676 1.36792 0
M  V30 9085 C 886.798 -1.08169 1.17352 0
M  V30 9086 C 886.998 -2.015 0.0022037 0
M  V30 9087 O 886.054 -2.43692 -0.661093 0
M  V30 9088 C 887.367 -1.68969 2.48737 0
M  V30 9089 C 888.915 -1.81278 2.55161 0
M  V30 9090 C 889.39 -2.45492 3.86649 0
M  V30 9091 N 890.881 -2.52954 3.88032 0
M  V30 9092 C 891.616 -3.03465 4.86515 0
M  V30 9093 N 891.112 -3.54232 5.95392 0
M  V30 9094 N 892.905 -3.02239 4.73928 0
M  V30 9095 H 885.056 -0.162757 2.11775 0
M  V30 9096 H 887.319 -0.134823 0.938364 0
M  V30 9097 H 887.025 -1.07859 3.34753 0
M  V30 9098 H 886.899 -2.68397 2.65034 0
M  V30 9099 H 889.286 -2.41524 1.69559 0
M  V30 9100 H 889.367 -0.806367 2.42758 0
M  V30 9101 H 889.011 -1.85889 4.7266 0
M  V30 9102 H 888.941 -3.46718 3.96351 0
M  V30 9103 H 891.432 -2.17014 3.09376 0
M  V30 9104 H 891.745 -3.91145 6.66503 0
M  V30 9105 H 890.09 -3.52366 5.99052 0
M  V30 9106 H 893.281 -2.61871 3.87996 0
M  V30 9107 H 893.454 -3.41295 5.50837 0
M  V30 9108 N 886.86 -1.21182 -1.00761 0
M  V30 9109 C 887.823 -0.970339 -2.07646 0
M  V30 9110 C 888.823 0.0576345 -1.60697 0
M  V30 9111 O 890.013 -0.179369 -1.73274 0
M  V30 9112 C 887.145 -0.462703 -3.37745 0
M  V30 9113 H 888.338 -1.91856 -2.30502 0
M  V30 9114 H 885.891 -1.02844 -1.17698 0
M  V30 9115 H 886.626 0.490559 -3.20568 0
M  V30 9116 H 886.411 -1.20416 -3.73152 0
M  V30 9117 H 887.901 -0.313531 -4.16421 0
M  V30 9118 N 888.338 1.20213 -1.01915 0
M  V30 9119 C 889.749 1.7136 -0.741131 0
M  V30 9120 C 890.1 1.81705 0.740107 0
M  V30 9121 O 889.225 1.48139 1.57746 0
M  V30 9122 C 889.82 3.11231 -1.33869 0
M  V30 9123 C 888.379 3.59677 -1.10948 0
M  V30 9124 C 887.526 2.36809 -1.4428 0
M  V30 9125 H 890.477 1.05191 -1.1883 0
M  V30 9126 H 890.498 3.7342 -0.730585 0
M  V30 9127 H 890.01 3.03669 -2.41675 0
M  V30 9128 H 888.111 3.72568 -0.0492052 0
M  V30 9129 H 888.224 4.44351 -1.79134 0
M  V30 9130 H 886.588 2.39674 -0.861881 0
M  V30 9131 H 887.371 2.31886 -2.53148 0
M  V30 9132 N 889.816 0.795718 1.36037 0
M  V30 9133 C 890.764 0.18649 2.31851 0
M  V30 9134 C 891.758 -0.657704 1.56111 0
M  V30 9135 O 892.964 -0.552083 1.71324 0
M  V30 9136 H 889.339 0.0415363 0.750852 0
M  V30 9137 H 891.31 1.00992 2.8079 0
M  V30 9138 C 890.059 -0.65918 3.41394 0
M  V30 9139 H 889.382 -0.01894 3.99796 0
M  V30 9140 H 890.822 -1.05202 4.10741 0
M  V30 9141 C 889.281 -1.82011 2.83502 0
M  V30 9142 O 889.811 -2.91703 2.76174 0
M  V30 9143 N 888.017 -1.62821 2.40703 0
M  V30 9144 H 887.564 -0.735965 2.46863 0
M  V30 9145 H 887.522 -2.40657 2.02316 0
M  V30 9146 N 891.294 -1.47756 0.548274 0
M  V30 9147 C 892.244 -2.26891 -0.224628 0
M  V30 9148 C 893.228 -1.33816 -0.893421 0
M  V30 9149 O 894.42 -1.58232 -0.793204 0
M  V30 9150 C 891.549 -3.19358 -1.25959 0
M  V30 9151 C 890.635 -4.1991 -0.594662 0
M  V30 9152 N 891.026 -5.04721 0.330148 0
M  V30 9153 C 889.324 -4.37832 -0.849672 0
M  V30 9154 C 890.025 -5.77282 0.71553 0
M  V30 9155 N 889.001 -5.43552 0.0723997 0
M  V30 9156 H 892.803 -2.89844 0.486561 0
M  V30 9157 H 890.317 -1.58185 0.367577 0
M  V30 9158 H 892.314 -3.74726 -1.82718 0
M  V30 9159 H 890.974 -2.57961 -1.97196 0
M  V30 9160 H 891.985 -5.13095 0.703811 0
M  V30 9161 H 888.662 -3.87612 -1.55123 0
M  V30 9162 H 890.052 -6.55512 1.47493 0
M  V30 9163 N 892.772 -0.284283 -1.55015 0
M  V30 9164 C 893.735 0.586182 -2.21577 0
M  V30 9165 C 894.735 1.07427 -1.1965 0
M  V30 9166 O 895.925 0.972977 -1.44495 0
M  V30 9167 C 893.057 1.80973 -2.88897 0
M  V30 9168 H 894.25 0.00487253 -2.999 0
M  V30 9169 H 891.803 -0.0349696 -1.56261 0
M  V30 9170 H 892.538 2.43131 -2.14611 0
M  V30 9171 H 892.323 1.46757 -3.636 0
M  V30 9172 H 893.813 2.42853 -3.39724 0
M  V30 9173 N 894.251 1.57596 -0.0117121 0
M  V30 9174 C 895.497 1.91355 0.671661 0
M  V30 9175 C 895.83 0.886818 1.72769 0
M  V30 9176 O 895.105 -0.0928813 1.94278 0
M  V30 9177 C 895.388 3.35657 1.30409 0
M  V30 9178 C 895.241 4.49055 0.2588 0
M  V30 9179 C 896.56 3.79595 2.22701 0
M  V30 9180 H 893.679 0.695893 0.242698 0
M  V30 9181 H 896.321 1.89887 -0.0654071 0
M  V30 9182 H 894.471 3.37038 1.9323 0
M  V30 9183 H 896.143 4.59809 -0.370631 0
M  V30 9184 H 894.386 4.31785 -0.417672 0
M  V30 9185 H 895.057 5.4701 0.740578 0
M  V30 9186 H 897.533 3.7984 1.69885 0
M  V30 9187 H 896.409 4.81292 2.63912 0
M  V30 9188 H 896.67 3.14118 3.11098 0
M  V30 9189 N 895.729 -0.261212 1.5542 0
M  V30 9190 C 896.975 -0.992699 1.76843 0
M  V30 9191 C 897.308 -1.8551 0.574428 0
M  V30 9192 O 896.583 -1.89739 -0.427713 0
M  V30 9193 C 896.866 -1.86532 3.08022 0
M  V30 9194 C 896.719 -1.03206 4.378 0
M  V30 9195 C 898.038 -2.85036 3.35324 0
M  V30 9196 H 895.157 -0.359473 0.643388 0
M  V30 9197 H 897.799 -0.264214 1.88154 0
M  V30 9198 H 895.949 -2.48644 2.9851 0
M  V30 9199 H 897.621 -0.430743 4.59285 0
M  V30 9200 H 895.864 -0.335911 4.32497 0
M  V30 9201 H 896.535 -1.6761 5.25938 0
M  V30 9202 H 899.011 -2.3306 3.44706 0
M  V30 9203 H 897.887 -3.43226 4.28354 0
M  V30 9204 H 898.148 -3.60768 2.55537 0
M  V30 9205 N 897.207 -1.48554 -0.526253 0
M  V30 9206 C 898.435 -1.60429 -1.30652 0
M  V30 9207 C 898.85 -0.265963 -1.86917 0
M  V30 9208 O 898.207 0.745262 -1.6659 0
M  V30 9209 C 898.258 -2.65377 -2.45473 0
M  V30 9210 O 897.979 -3.94017 -1.91527 0
M  V30 9211 C 899.48 -2.87726 -3.37237 0
M  V30 9212 H 896.7 -0.540817 -0.397187 0
M  V30 9213 H 899.244 -1.94409 -0.634461 0
M  V30 9214 H 897.399 -2.34246 -3.08557 0
M  V30 9215 H 897.813 -4.51623 -2.66715 0
M  V30 9216 H 899.287 -3.64951 -4.14144 0
M  V30 9217 H 899.764 -1.96688 -3.92696 0
M  V30 9218 H 900.37 -3.20176 -2.79942 0
M  V30 9219 N 898.685 0.775411 -1.37205 0
M  V30 9220 C 900.101 1.07546 -1.17924 0
M  V30 9221 C 900.301 2.01496 -0.0128897 0
M  V30 9222 O 899.357 2.44039 0.64816 0
M  V30 9223 C 900.67 1.67647 -2.49629 0
M  V30 9224 C 902.218 1.79923 -2.56119 0
M  V30 9225 C 902.693 2.43438 -3.87946 0
M  V30 9226 N 904.184 2.50893 -3.89368 0
M  V30 9227 C 904.919 3.00881 -4.88117 0
M  V30 9228 N 904.415 3.5107 -5.97262 0
M  V30 9229 N 906.208 2.99722 -4.75524 0
M  V30 9230 H 898.359 0.151524 -2.11859 0
M  V30 9231 H 900.622 0.129845 -0.939066 0
M  V30 9232 H 900.328 1.06082 -3.3532 0
M  V30 9233 H 900.202 2.66988 -2.66453 0
M  V30 9234 H 902.589 2.40621 -1.70838 0
M  V30 9235 H 902.67 0.793482 -2.43182 0
M  V30 9236 H 902.314 1.8338 -4.73639 0
M  V30 9237 H 902.244 3.44611 -3.98184 0
M  V30 9238 H 904.735 2.1537 -3.10522 0
M  V30 9239 H 905.048 3.87604 -6.68568 0
M  V30 9240 H 903.393 3.49184 -6.00912 0
M  V30 9241 H 906.584 2.5981 -3.8938 0
M  V30 9242 H 906.757 3.38369 -5.52639 0
M  V30 9243 N 900.163 1.21714 1.00117 0
M  V30 9244 C 901.11 0.979837 2.08968 0
M  V30 9245 C 902.08 -0.0955324 1.65825 0
M  V30 9246 O 903.265 0.0523742 1.90728 0
M  V30 9247 C 900.405 0.554758 3.40612 0
M  V30 9248 C 899.518 1.69999 3.97145 0
M  V30 9249 C 898.653 1.2237 5.16913 0
M  V30 9250 C 897.692 2.34101 5.65564 0
M  V30 9251 N 896.829 1.87579 6.76579 0
M  V30 9252 H 901.669 1.91167 2.28602 0
M  V30 9253 H 899.206 0.952645 1.12085 0
M  V30 9254 H 901.164 0.289526 4.16194 0
M  V30 9255 H 899.794 -0.340073 3.21004 0
M  V30 9256 H 898.846 2.07976 3.18512 0
M  V30 9257 H 900.158 2.54074 4.29241 0
M  V30 9258 H 899.312 0.915358 5.99755 0
M  V30 9259 H 898.051 0.353045 4.8642 0
M  V30 9260 H 897.056 2.65734 4.81316 0
M  V30 9261 H 898.281 3.21669 5.98085 0
M  V30 9262 H 896.227 1.02863 6.47885 0
M  V30 9263 H 896.144 2.65225 7.07949 0
M  V30 9264 H 897.412 1.5979 7.62947 0
M  V30 9265 N 901.641 -1.19671 1.02551 0
M  V30 9266 C 902.918 -1.85014 0.634771 0
M  V30 9267 C 903.298 -1.91574 -0.886706 0
M  V30 9268 O 902.646 -1.43022 -1.78205 0
M  V30 9269 C 902.856 -3.24167 1.29292 0
M  V30 9270 C 904.204 -4.00363 1.41402 0
M  V30 9271 O 905.228 -3.33553 1.24983 0
M  V30 9272 O 904.087 -5.2003 1.6802 0
M  V30 9273 H 901.181 -0.797147 0.220196 0
M  V30 9274 H 903.727 -1.27188 1.12345 0
M  V30 9275 H 902.499 -3.14208 2.33215 0
M  V30 9276 H 902.122 -3.89634 0.791895 0
M  V30 9277 N 903.119 -0.802921 -1.35613 0
M  V30 9278 C 904.066 -0.20874 -2.29854 0
M  V30 9279 C 905.036 0.655128 -1.52634 0
M  V30 9280 O 906.221 0.600979 -1.81088 0
M  V30 9281 C 903.361 0.639663 -3.3912 0
M  V30 9282 C 902.474 -0.244234 -4.31309 0
M  V30 9283 C 901.609 0.611825 -5.27665 0
M  V30 9284 C 900.648 -0.272698 -6.11492 0
M  V30 9285 N 899.785 0.543122 -6.99996 0
M  V30 9286 H 904.625 -1.01782 -2.80079 0
M  V30 9287 H 902.162 -0.513465 -1.37848 0
M  V30 9288 H 904.12 1.14668 -4.01132 0
M  V30 9289 H 902.75 1.41404 -2.9018 0
M  V30 9290 H 901.802 -0.869322 -3.70334 0
M  V30 9291 H 903.114 -0.925202 -4.90144 0
M  V30 9292 H 902.268 1.18412 -5.95032 0
M  V30 9293 H 901.007 1.32637 -4.69317 0
M  V30 9294 H 900.012 -0.857287 -5.43075 0
M  V30 9295 H 901.237 -0.985051 -6.71918 0
M  V30 9296 H 899.183 1.24171 -6.44141 0
M  V30 9297 H 899.1 -0.0798767 -7.55958 0
M  V30 9298 H 900.368 1.09881 -7.71717 0
M  V30 9299 N 904.597 1.47463 -0.556102 0
M  V30 9300 C 905.507 2.33785 0.195378 0
M  V30 9301 C 906.523 1.48123 0.913 0
M  V30 9302 O 907.699 1.81053 0.882141 0
M  V30 9303 C 904.764 3.24795 1.21282 0
M  V30 9304 C 903.825 4.26346 0.502747 0
M  V30 9305 C 903.058 5.13007 1.47172 0
M  V30 9306 O 903.281 5.02103 2.70646 0
M  V30 9307 O 902.215 5.93588 0.996814 0
M  V30 9308 H 906.041 2.99341 -0.512676 0
M  V30 9309 H 903.626 1.46004 -0.31673 0
M  V30 9310 H 905.508 3.81015 1.80016 0
M  V30 9311 H 904.183 2.61868 1.90282 0
M  V30 9312 H 903.09 3.73889 -0.125757 0
M  V30 9313 H 904.423 4.91984 -0.145779 0
M  V30 9314 N 906.075 0.2925 1.54862 0
M  V30 9315 C 907.038 -0.574423 2.21885 0
M  V30 9316 C 908.038 -1.06791 1.20218 0
M  V30 9317 O 909.228 -0.9653 1.45009 0
M  V30 9318 C 906.36 -1.79438 2.89853 0
M  V30 9319 H 907.553 0.0110319 2.99898 0
M  V30 9320 H 905.106 0.043256 1.5624 0
M  V30 9321 H 905.841 -2.4199 2.15897 0
M  V30 9322 H 905.626 -1.44827 3.64373 0
M  V30 9323 H 907.116 -2.41048 3.41007 0
M  V30 9324 N 907.553 -1.57587 0.0200696 0
M  V30 9325 C 908.793 -1.93287 -0.66479 0
M  V30 9326 C 909.157 -0.896022 -1.6981 0
M  V30 9327 O 910.358 -1.13892 -2.43479 0
M  V30 9328 C 908.629 -3.33949 -1.27328 0
M  V30 9329 S 910.188 -3.91564 -1.98047 0
M  V30 9330 H 907.006 -0.676397 -0.219106 0
M  V30 9331 H 909.608 -1.9533 0.081568 0
M  V30 9332 H 908.312 -4.07235 -0.508673 0
M  V30 9333 H 907.843 -3.35329 -2.05714 0
M  V30 9334 H 909.858 -3.74265 -3.25791 0
M  V30 9335 N 909.032 0.252966 -1.55557 0
M  V30 9336 C 910.278 0.983306 -1.77367 0
M  V30 9337 C 910.611 1.85203 -0.584258 0
M  V30 9338 O 909.886 1.89963 0.417644 0
M  V30 9339 C 910.169 1.84896 -3.09007 0
M  V30 9340 C 910.022 1.00883 -4.38341 0
M  V30 9341 C 911.341 2.83254 -3.36831 0
M  V30 9342 H 908.46 0.356056 -0.645286 0
M  V30 9343 H 911.102 0.254232 -1.88291 0
M  V30 9344 H 909.252 2.47058 -2.99825 0
M  V30 9345 H 910.924 0.40638 -4.59507 0
M  V30 9346 H 909.167 0.31297 -4.3267 0
M  V30 9347 H 909.838 1.64818 -5.2682 0
M  V30 9348 H 912.314 2.31228 -3.45937 0
M  V30 9349 H 911.19 3.40949 -4.30169 0
M  V30 9350 H 911.451 3.59407 -2.57447 0
M  V30 9351 N 910.51 1.48831 0.518367 0
M  V30 9352 C 911.46 1.60614 1.61824 0
M  V30 9353 C 912.444 0.462631 1.54106 0
M  V30 9354 O 913.636 0.714689 1.6193 0
M  V30 9355 C 910.765 1.65984 3.00507 0
M  V30 9356 C 909.851 2.85854 3.13286 0
M  V30 9357 N 910.242 4.1014 2.96005 0
M  V30 9358 C 908.54 2.83429 3.4436 0
M  V30 9359 C 909.241 4.90626 3.12508 0
M  V30 9360 N 908.217 4.2366 3.40607 0
M  V30 9361 H 912.019 2.54443 1.47091 0
M  V30 9362 H 909.533 1.45363 0.724102 0
M  V30 9363 H 911.53 1.72521 3.79529 0
M  V30 9364 H 910.19 0.732792 3.16323 0
M  V30 9365 H 911.201 4.40395 2.72531 0
M  V30 9366 H 907.878 2.0003 3.66462 0
M  V30 9367 H 909.268 5.99302 3.03786 0
M  V30 9368 N 911.988 -0.768124 1.37614 0
M  V30 9369 C 912.935 -1.88151 1.33671 0
M  V30 9370 C 913.905 -1.64871 0.201645 0
M  V30 9371 O 915.09 -1.86739 0.391582 0
M  V30 9372 C 912.23 -3.25264 1.15314 0
M  V30 9373 C 911.343 -3.60473 2.38082 0
M  V30 9374 C 910.478 -4.86814 2.12569 0
M  V30 9375 C 909.517 -5.14765 3.31184 0
M  V30 9376 N 908.654 -6.32295 3.052 0
M  V30 9377 H 913.494 -1.90857 2.28862 0
M  V30 9378 H 911.031 -0.933048 1.13722 0
M  V30 9379 H 912.989 -4.04364 1.02691 0
M  V30 9380 H 911.619 -3.21924 0.237689 0
M  V30 9381 H 910.671 -2.7633 2.61431 0
M  V30 9382 H 911.983 -3.77065 3.26532 0
M  V30 9383 H 911.137 -5.73826 1.96999 0
M  V30 9384 H 909.876 -4.72333 1.21462 0
M  V30 9385 H 908.881 -4.26227 3.4729 0
M  V30 9386 H 910.106 -5.31153 4.23147 0
M  V30 9387 H 908.052 -6.19166 2.16726 0
M  V30 9388 H 907.969 -6.4932 3.87195 0
M  V30 9389 H 909.237 -7.22234 2.93254 0
M  V30 9390 N 913.466 -1.22244 -0.994698 0
M  V30 9391 C 914.715 -1.04005 -1.72817 0
M  V30 9392 C 915.028 0.425413 -1.90918 0
M  V30 9393 O 916.234 0.727429 -2.61574 0
M  V30 9394 C 914.69 -1.81244 -3.10932 0
M  V30 9395 C 914.298 -3.32028 -3.00768 0
M  V30 9396 C 916.042 -1.71448 -3.88337 0
M  V30 9397 C 913.949 -4.01716 -4.34026 0
M  V30 9398 H 912.879 -0.385559 -0.647966 0
M  V30 9399 H 915.53 -1.46077 -1.11058 0
M  V30 9400 H 913.912 -1.3197 -3.73363 0
M  V30 9401 H 915.086 -3.88682 -2.47513 0
M  V30 9402 H 913.401 -3.4248 -2.36846 0
M  V30 9403 H 915.998 -2.20836 -4.86965 0
M  V30 9404 H 916.341 -0.674568 -4.10798 0
M  V30 9405 H 916.874 -2.18256 -3.3258 0
M  V30 9406 H 913.613 -5.05952 -4.16765 0
M  V30 9407 H 913.133 -3.49849 -4.87202 0
M  V30 9408 H 914.812 -4.0721 -5.02782 0
M  V30 9409 N 914.944 1.19125 -1.03184 0
M  V30 9410 C 915.874 2.24675 -0.635889 0
M  V30 9411 C 916.855 1.66321 0.356565 0
M  V30 9412 O 918.04 1.92728 0.238625 0
M  V30 9413 C 915.17 3.47298 0.011069 0
M  V30 9414 C 914.124 4.18345 -0.903979 0
M  V30 9415 C 913.45 5.34561 -0.12197 0
M  V30 9416 C 914.75 4.72816 -2.21907 0
M  V30 9417 H 916.444 2.5805 -1.51825 0
M  V30 9418 H 913.99 1.24039 -0.73146 0
M  V30 9419 H 915.943 4.20333 0.299729 0
M  V30 9420 H 914.667 3.13131 0.928245 0
M  V30 9421 H 913.326 3.47196 -1.17688 0
M  V30 9422 H 912.974 4.9664 0.797334 0
M  V30 9423 H 912.674 5.83029 -0.731498 0
M  V30 9424 H 914.198 6.10391 0.159881 0
M  V30 9425 H 915.612 5.3759 -1.99173 0
M  V30 9426 H 914.009 5.31782 -2.78078 0
M  V30 9427 H 915.079 3.9072 -2.87168 0
M  V30 9428 N 916.422 0.810101 1.35185 0
M  V30 9429 C 917.838 0.494269 1.51754 0
M  V30 9430 C 918.038 -0.983907 1.75845 0
M  V30 9431 O 917.094 -1.76882 1.80191 0
M  V30 9432 C 918.407 1.34268 2.69059 0
M  V30 9433 C 919.955 1.33848 2.82938 0
M  V30 9434 C 920.43 2.17109 4.03271 0
M  V30 9435 N 921.921 2.14664 4.10456 0
M  V30 9436 C 922.656 2.75843 5.02691 0
M  V30 9437 N 922.152 3.45962 6.00235 0
M  V30 9438 N 923.945 2.65465 4.95464 0
M  V30 9439 H 916.096 1.76736 1.17805 0
M  V30 9440 H 918.359 0.752429 0.576676 0
M  V30 9441 H 918.065 2.39183 2.57845 0
M  V30 9442 H 917.939 0.998362 3.63748 0
M  V30 9443 H 920.326 0.29716 2.936 0
M  V30 9444 H 920.407 1.72269 1.89095 0
M  V30 9445 H 920.051 3.21283 3.93369 0
M  V30 9446 H 919.981 1.76046 4.96302 0
M  V30 9447 H 922.472 1.63648 3.40628 0
M  V30 9448 H 922.785 3.89922 6.67219 0
M  V30 9449 H 921.13 3.50067 6.00398 0
M  V30 9450 H 924.321 2.1027 4.18215 0
M  V30 9451 H 924.494 3.13433 5.67154 0
M  V30 9452 N 917.9 -1.47166 0.563914 0
M  V30 9453 C 918.832 -2.28165 -0.217583 0
M  V30 9454 C 919.845 -1.37405 -0.873134 0
M  V30 9455 O 921.034 -1.6217 -0.745857 0
M  V30 9456 C 918.134 -3.11873 -1.32621 0
M  V30 9457 C 917.307 -4.30637 -0.766177 0
M  V30 9458 C 916.366 -4.95889 -1.76014 0
M  V30 9459 O 915.392 -5.54071 -1.3036 0
M  V30 9460 N 916.594 -4.91191 -3.09373 0
M  V30 9461 H 919.359 -2.95876 0.477256 0
M  V30 9462 H 916.92 -1.5687 0.40043 0
M  V30 9463 H 918.912 -3.52392 -1.99003 0
M  V30 9464 H 917.482 -2.46361 -1.92419 0
M  V30 9465 H 916.702 -3.94129 0.0745998 0
M  V30 9466 H 917.99 -5.07442 -0.371472 0
M  V30 9467 H 917.388 -4.45133 -3.49104 0
M  V30 9468 H 915.945 -5.35708 -3.71295 0
M  V30 9469 N 919.378 -0.300708 -1.54705 0
M  V30 9470 C 920.31 0.609179 -2.20956 0
M  V30 9471 C 921.323 1.09776 -1.20221 0
M  V30 9472 O 922.512 1.01527 -1.46815 0
M  V30 9473 C 919.612 1.84595 -2.84214 0
M  V30 9474 C 918.785 1.49991 -4.10879 0
M  V30 9475 C 917.844 2.5918 -4.57943 0
M  V30 9476 O 916.87 2.24285 -5.23149 0
M  V30 9477 N 918.072 3.89714 -4.30236 0
M  V30 9478 H 920.837 0.0420111 -2.99671 0
M  V30 9479 H 918.398 -0.122896 -1.61433 0
M  V30 9480 H 920.39 2.56988 -3.12633 0
M  V30 9481 H 918.96 2.32152 -2.09342 0
M  V30 9482 H 918.18 0.608637 -3.89473 0
M  V30 9483 H 919.468 1.24409 -4.93356 0
M  V30 9484 H 918.866 4.20874 -3.77997 0
M  V30 9485 H 917.423 4.58406 -4.63365 0
M  V30 9486 N 920.856 1.57574 -0.0284266 0
M  V30 9487 C 921.788 2.07079 0.982391 0
M  V30 9488 C 922.801 0.994078 1.28926 0
M  V30 9489 O 923.99 1.27028 1.25404 0
M  V30 9490 C 921.09 2.47978 2.30998 0
M  V30 9491 C 920.263 3.7872 2.18838 0
M  V30 9492 C 919.322 4.06177 3.34524 0
M  V30 9493 O 918.348 4.76438 3.11441 0
M  V30 9494 N 919.55 3.56297 4.58293 0
M  V30 9495 H 922.315 2.94421 0.560011 0
M  V30 9496 H 919.876 1.61124 0.158347 0
M  V30 9497 H 921.868 2.63439 3.07216 0
M  V30 9498 H 920.438 1.66005 2.64879 0
M  V30 9499 H 919.658 3.73062 1.27351 0
M  V30 9500 H 920.946 4.6438 2.07915 0
M  V30 9501 H 920.344 2.99453 4.79942 0
M  V30 9502 H 918.901 3.77038 5.31682 0
M  V30 9503 N 922.334 -0.244713 1.55689 0
M  V30 9504 C 923.284 -1.30596 1.86892 0
M  V30 9505 C 924.268 -1.43388 0.729972 0
M  V30 9506 O 925.46 -1.46593 0.99194 0
M  V30 9507 C 922.589 -2.66099 2.16902 0
M  V30 9508 C 921.675 -2.57302 3.37129 0
M  V30 9509 N 922.066 -2.18139 4.56343 0
M  V30 9510 C 920.364 -2.88311 3.40283 0
M  V30 9511 C 921.065 -2.20028 5.38482 0
M  V30 9512 N 920.041 -2.59616 4.77599 0
M  V30 9513 H 923.843 -0.993699 2.76591 0
M  V30 9514 H 921.357 -0.453334 1.55944 0
M  V30 9515 H 923.354 -3.4269 2.37422 0
M  V30 9516 H 922.014 -2.9819 1.28502 0
M  V30 9517 H 923.025 -1.89647 4.81928 0
M  V30 9518 H 919.702 -3.24928 2.62161 0
M  V30 9519 H 921.092 -1.9207 6.43862 0
M  V30 9520 N 923.813 -1.49104 -0.510467 0
M  V30 9521 C 924.743 -1.67981 -1.62187 0
M  V30 9522 C 925.724 -0.528529 -1.6168 0
M  V30 9523 O 926.909 -0.763305 -1.7857 0
M  V30 9524 C 924.039 -1.73755 -3.0071 0
M  V30 9525 C 922.993 -2.88579 -3.1608 0
M  V30 9526 C 922.319 -2.79457 -4.5586 0
M  V30 9527 C 923.619 -4.29638 -2.97 0
M  V30 9528 H 925.313 -2.61029 -1.46643 0
M  V30 9529 H 922.859 -1.25615 -0.704042 0
M  V30 9530 H 924.812 -1.85548 -3.78352 0
M  V30 9531 H 923.536 -0.772996 -3.17321 0
M  V30 9532 H 922.195 -2.76372 -2.40861 0
M  V30 9533 H 921.843 -1.80929 -4.69333 0
M  V30 9534 H 921.543 -3.56518 -4.67086 0
M  V30 9535 H 923.067 -2.93245 -5.35574 0
M  V30 9536 H 924.481 -4.42575 -3.64418 0
M  V30 9537 H 922.878 -5.07847 -3.19704 0
M  V30 9538 H 923.948 -4.44741 -1.93219 0
M  V30 9539 N 925.291 0.760815 -1.38019 0
M  V30 9540 C 926.538 1.51973 -1.3383 0
M  V30 9541 C 926.866 1.9436 0.0738855 0
M  V30 9542 O 926.121 1.65181 1.04946 0
M  V30 9543 C 926.42 2.79024 -2.23339 0
M  V30 9544 C 926.086 2.55636 -3.71431 0
M  V30 9545 C 924.748 2.48966 -4.11788 0
M  V30 9546 C 927.1 2.35018 -4.65205 0
M  V30 9547 C 924.428 2.19684 -5.44018 0
M  V30 9548 C 926.78 2.07258 -5.97685 0
M  V30 9549 C 925.444 1.9904 -6.37134 0
M  V30 9550 H 924.714 0.556108 -0.489719 0
M  V30 9551 H 927.361 0.87545 -1.70318 0
M  V30 9552 H 925.666 3.48065 -1.79883 0
M  V30 9553 H 927.363 3.36951 -2.17405 0
M  V30 9554 H 923.953 2.61695 -3.39432 0
M  V30 9555 H 928.137 2.39154 -4.34878 0
M  V30 9556 H 923.393 2.11825 -5.73533 0
M  V30 9557 H 927.567 1.90307 -6.69893 0
M  V30 9558 H 925.194 1.76115 -7.39519 0
M  V30 9559 N 926.769 1.22769 0.988202 0
M  V30 9560 C 928.017 1.05301 1.725 0
M  V30 9561 C 928.338 -0.412103 1.90596 0
M  V30 9562 O 927.608 -1.29606 1.46898 0
M  V30 9563 H 926.188 0.386658 0.639144 0
M  V30 9564 H 928.85 1.54359 1.18993 0
M  V30 9565 H 927.946 1.53465 2.71763 0
M  V30 9566 N 928.247 -1.18576 1.03814 0
M  V30 9567 C 929.472 -1.92978 0.759873 0
M  V30 9568 C 929.897 -1.75514 -0.676486 0
M  V30 9569 O 929.255 -1.06359 -1.46824 0
M  V30 9570 C 929.303 -3.42507 1.12788 0
M  V30 9571 O 928.407 -4.1163 0.251886 0
M  V30 9572 H 927.748 -0.602129 0.279886 0
M  V30 9573 H 930.278 -1.50383 1.3873 0
M  V30 9574 H 930.288 -3.93206 1.08872 0
M  V30 9575 H 928.963 -3.5454 2.17427 0
M  V30 9576 H 927.54 -3.7125 0.350441 0
M  V30 9577 N 929.725 -0.817259 -1.34754 0
M  V30 9578 C 930.673 -0.223352 -2.31525 0
M  V30 9579 C 931.667 0.632785 -1.57137 0
M  V30 9580 O 932.873 0.524757 -1.72181 0
M  V30 9581 H 929.248 -0.0534765 -0.750096 0
M  V30 9582 H 931.219 -1.05446 -2.79148 0
M  V30 9583 C 929.968 0.604784 -3.424 0
M  V30 9584 H 929.291 -0.0446664 -3.99775 0
M  V30 9585 H 930.731 0.986543 -4.12363 0
M  V30 9586 C 929.19 1.77478 -2.86362 0
M  V30 9587 O 929.72 2.87273 -2.8078 0
M  V30 9588 N 927.926 1.58971 -2.43263 0
M  V30 9589 H 927.473 0.696598 -2.48003 0
M  V30 9590 H 927.431 2.37408 -2.06119 0
M  V30 9591 N 931.203 1.46865 -0.571711 0
M  V30 9592 C 932.449 2.0273 -0.0531858 0
M  V30 9593 C 932.782 1.44353 1.29907 0
M  V30 9594 O 932.057 0.604488 1.84868 0
M  V30 9595 C 932.34 3.60092 0.0243831 0
M  V30 9596 C 932.193 4.28874 -1.35599 0
M  V30 9597 C 933.512 4.33994 0.730563 0
M  V30 9598 H 930.631 0.736706 -0.0208018 0
M  V30 9599 H 933.273 1.75132 -0.736794 0
M  V30 9600 H 931.423 3.83736 0.606565 0
M  V30 9601 H 933.095 4.16527 -1.98249 0
M  V30 9602 H 931.338 3.88664 -1.92674 0
M  V30 9603 H 932.009 5.37561 -1.25429 0
M  V30 9604 H 934.485 4.1543 0.236098 0
M  V30 9605 H 933.361 5.43699 0.753836 0
M  V30 9606 H 933.622 4.04257 1.78967 0
M  V30 9607 N 932.681 0.308908 1.54543 0
M  V30 9608 C 933.909 -0.300418 2.04707 0
M  V30 9609 C 934.324 -1.46915 1.18581 0
M  V30 9610 O 933.681 -1.81251 0.213186 0
M  V30 9611 C 933.732 -0.749038 3.53655 0
M  V30 9612 O 933.453 0.373181 4.36508 0
M  V30 9613 C 934.954 -1.4227 4.1985 0
M  V30 9614 H 932.174 -0.0641267 0.667929 0
M  V30 9615 H 934.718 0.450839 1.99469 0
M  V30 9616 H 932.873 -1.4503 3.59228 0
M  V30 9617 H 933.287 0.0224752 5.24495 0
M  V30 9618 H 934.761 -1.68768 5.25568 0
M  V30 9619 H 935.238 -2.36531 3.70067 0
M  V30 9620 H 935.844 -0.764404 4.18374 0
M  V30 9621 N 934.159 -1.57557 0.0367827 0
M  V30 9622 C 935.436 -1.83427 -0.679261 0
M  V30 9623 C 935.816 -0.922274 -1.89888 0
M  V30 9624 O 935.164 0.02025 -2.28491 0
M  V30 9625 C 935.374 -3.32823 -1.05022 0
M  V30 9626 C 936.722 -3.99486 -1.43861 0
M  V30 9627 O 937.746 -3.37364 -1.14297 0
M  V30 9628 O 936.605 -5.0899 -1.98977 0
M  V30 9629 H 933.699 -0.756581 -0.333936 0
M  V30 9630 H 936.245 -1.69575 0.0650494 0
M  V30 9631 H 935.017 -3.90874 -0.182509 0
M  V30 9632 H 934.64 -3.5181 -1.85244 0
M  V30 9633 N 935.637 0.236453 -1.55816 0
M  V30 9634 C 936.877 0.970249 -1.79904 0
M  V30 9635 C 937.241 1.8212 -0.607965 0
M  V30 9636 O 938.442 2.58759 -0.727833 0
M  V30 9637 C 936.713 1.79938 -3.088 0
M  V30 9638 S 938.272 2.59084 -3.54148 0
M  V30 9639 H 935.09 0.32618 -0.631765 0
M  V30 9640 H 937.692 0.237147 -1.94056 0
M  V30 9641 H 936.396 1.16412 -3.93544 0
M  V30 9642 H 935.927 2.57504 -2.97414 0
M  V30 9643 H 937.942 3.82315 -3.16306 0
M  V30 9644 N 937.115 1.49373 0.502552 0
M  V30 9645 C 938.34 1.62752 1.28556 0
M  V30 9646 C 938.765 0.298285 1.8572 0
M  V30 9647 O 938.123 -0.733885 1.65782 0
M  V30 9648 C 938.171 2.69778 2.39274 0
M  V30 9649 O 937.275 2.28843 3.43081 0
M  V30 9650 H 936.616 0.544799 0.379592 0
M  V30 9651 H 939.146 1.9555 0.601792 0
M  V30 9652 H 939.156 2.91899 2.8506 0
M  V30 9653 H 937.831 3.66266 1.97033 0
M  V30 9654 H 936.408 2.17047 3.03224 0
M  V30 9655 N 938.594 -0.753485 1.38421 0
M  V30 9656 C 939.842 -1.50962 1.34368 0
M  V30 9657 C 940.163 -1.94889 -0.0656895 0
M  V30 9658 O 939.433 -1.67652 -1.01339 0
M  V30 9659 H 938.013 -0.559967 0.494415 0
M  V30 9660 H 940.675 -0.895665 1.73101 0
M  V30 9661 H 939.771 -2.40048 1.99458 0
M  V30 9662 N 940.072 -1.23292 -0.981677 0
M  V30 9663 C 941.02 -1.0104 -2.09508 0
M  V30 9664 C 942.014 0.0501977 -1.69326 0
M  V30 9665 O 943.22 -0.103197 -1.79704 0
M  V30 9666 H 939.595 -0.309629 -0.685298 0
M  V30 9667 H 941.566 -1.95493 -2.25444 0
M  V30 9668 C 940.315 -0.616885 -3.42184 0
M  V30 9669 H 939.638 -1.4247 -3.73554 0
M  V30 9670 H 941.078 -0.500688 -4.21033 0
M  V30 9671 C 939.537 0.674721 -3.30074 0
M  V30 9672 O 940.067 1.72421 -3.62814 0
M  V30 9673 N 938.273 0.650151 -2.83234 0
M  V30 9674 H 937.82 -0.204225 -2.56789 0
M  V30 9675 H 937.778 1.51458 -2.75514 0
M  V30 9676 N 941.55 1.18024 -1.04442 0
M  V30 9677 C 942.797 1.88098 -0.750022 0
M  V30 9678 C 943.125 1.80583 0.722489 0
M  V30 9679 O 942.38 1.20329 1.54335 0
M  V30 9680 C 942.679 3.37834 -1.16631 0
M  V30 9681 C 942.345 3.65553 -2.63974 0
M  V30 9682 C 941.007 3.72827 -3.04226 0
M  V30 9683 C 943.359 3.77634 -3.59224 0
M  V30 9684 C 940.687 3.89666 -4.38608 0
M  V30 9685 C 943.039 3.9599 -4.9333 0
M  V30 9686 C 941.703 4.01501 -5.33248 0
M  V30 9687 H 940.973 0.6883 -0.274452 0
M  V30 9688 H 943.62 1.39671 -1.31012 0
M  V30 9689 H 941.925 3.88266 -0.525071 0
M  V30 9690 H 943.622 3.90402 -0.915827 0
M  V30 9691 H 940.212 3.6051 -2.31798 0
M  V30 9692 H 944.396 3.71342 -3.2927 0
M  V30 9693 H 939.652 3.92178 -4.69048 0
M  V30 9694 H 943.826 4.0428 -5.67037 0
M  V30 9695 H 941.453 4.14301 -6.37384 0
M  V30 9696 N 943.028 0.824394 1.34319 0
M  V30 9697 C 944.268 0.419044 2.00058 0
M  V30 9698 C 944.632 -0.999504 1.63933 0
M  V30 9699 O 945.833 -1.50781 2.22527 0
M  V30 9700 C 944.104 0.616897 3.52036 0
M  V30 9701 S 945.663 0.304614 4.37741 0
M  V30 9702 H 942.481 0.158265 0.693162 0
M  V30 9703 H 945.083 1.07053 1.63585 0
M  V30 9704 H 943.787 1.64896 3.75816 0
M  V30 9705 H 943.318 -0.0492693 3.93369 0
M  V30 9706 H 945.333 -0.88114 4.88314 0
M  V30 9707 N 944.506 -1.46559 0.579492 0
M  V30 9708 C 945.436 -2.33059 -0.143437 0
M  V30 9709 C 946.417 -1.4515 -0.886868 0
M  V30 9710 O 947.602 -1.73973 -0.862961 0
M  V30 9711 C 944.732 -3.27364 -1.15973 0
M  V30 9712 C 943.686 -4.24689 -0.531348 0
M  V30 9713 C 943.012 -5.08479 -1.65388 0
M  V30 9714 C 944.312 -5.1961 0.529391 0
M  V30 9715 H 946.006 -2.93753 0.578762 0
M  V30 9716 H 943.552 -1.41256 0.279775 0
M  V30 9717 H 945.505 -3.86732 -1.67382 0
M  V30 9718 H 944.229 -2.64771 -1.91217 0
M  V30 9719 H 942.888 -3.6658 -0.0383749 0
M  V30 9720 H 942.536 -4.42273 -2.3959 0
M  V30 9721 H 942.236 -5.74387 -1.23909 0
M  V30 9722 H 943.76 -5.70709 -2.17079 0
M  V30 9723 H 945.174 -5.73212 0.100506 0
M  V30 9724 H 943.571 -5.93843 0.86432 0
M  V30 9725 H 944.641 -4.63737 1.4169 0
M  V30 9726 N 945.984 -0.3171 -1.54377 0
M  V30 9727 C 947.231 0.28741 -2.0045 0
M  V30 9728 C 947.559 1.52648 -1.20535 0
M  V30 9729 O 946.814 1.93775 -0.273831 0
M  V30 9730 C 947.113 0.672917 -3.51008 0
M  V30 9731 C 946.779 -0.466245 -4.48483 0
M  V30 9732 C 945.441 -0.778933 -4.74854 0
M  V30 9733 C 947.793 -1.23176 -5.06436 0
M  V30 9734 C 945.121 -1.85997 -5.56437 0
M  V30 9735 C 947.473 -2.30284 -5.89196 0
M  V30 9736 C 946.137 -2.62141 -6.13872 0
M  V30 9737 H 945.407 0.105171 -0.733499 0
M  V30 9738 H 948.054 -0.439538 -1.86388 0
M  V30 9739 H 946.359 1.48019 -3.62764 0
M  V30 9740 H 948.056 1.15209 -3.84094 0
M  V30 9741 H 944.646 -0.212449 -4.28073 0
M  V30 9742 H 948.83 -1.00344 -4.8605 0
M  V30 9743 H 944.086 -2.11134 -5.73788 0
M  V30 9744 H 948.26 -2.90048 -6.33123 0
M  V30 9745 H 945.887 -3.46037 -6.76877 0
M  V30 9746 N 947.462 1.57535 -0.0451378 0
M  V30 9747 C 948.878 1.56533 0.311373 0
M  V30 9748 C 949.078 1.05225 1.71843 0
M  V30 9749 O 948.134 0.706144 2.42425 0
M  V30 9750 C 949.447 3.00349 0.145348 0
M  V30 9751 C 950.995 3.12248 0.216908 0
M  V30 9752 C 951.47 4.57931 0.0794834 0
M  V30 9753 N 952.961 4.63 0.135954 0
M  V30 9754 C 953.696 5.73375 0.0536426 0
M  V30 9755 N 953.192 6.92753 -0.0806725 0
M  V30 9756 N 954.985 5.61995 0.108789 0
M  V30 9757 H 947.136 1.89211 -0.965044 0
M  V30 9758 H 949.399 0.871068 -0.374091 0
M  V30 9759 H 949.105 3.41898 -0.824533 0
M  V30 9760 H 948.979 3.66086 0.908903 0
M  V30 9761 H 951.366 2.70601 1.17726 0
M  V30 9762 H 951.447 2.49201 -0.577299 0
M  V30 9763 H 951.091 5.00262 -0.877516 0
M  V30 9764 H 951.021 5.18977 0.892758 0
M  V30 9765 H 953.512 3.77142 0.23926 0
M  V30 9766 H 953.825 7.7268 -0.136351 0
M  V30 9767 H 952.17 6.94904 -0.115675 0
M  V30 9768 H 955.361 4.67619 0.212235 0
M  V30 9769 H 955.534 6.47987 0.0411822 0
M  V30 9770 N 948.94 -0.228186 1.55939 0
M  V30 9771 C 950.165 -0.974795 1.83064 0
M  V30 9772 C 950.59 -1.77426 0.624624 0
M  V30 9773 O 949.948 -1.76211 -0.426556 0
M  V30 9774 C 949.996 -1.87342 3.08116 0
M  V30 9775 O 949.1 -2.96784 2.86344 0
M  V30 9776 H 948.441 -0.276379 0.603747 0
M  V30 9777 H 950.971 -0.243507 2.03146 0
M  V30 9778 H 950.981 -2.28451 3.38045 0
M  V30 9779 H 949.656 -1.28575 3.95526 0
M  V30 9780 H 948.233 -2.59669 2.67631 0
M  V30 9781 N 950.418 -1.49637 -0.494624 0
M  V30 9782 C 951.328 -1.69522 -1.62172 0
M  V30 9783 C 952.344 -0.577894 -1.64123 0
M  V30 9784 O 953.52 -0.853382 -1.82426 0
M  V30 9785 C 950.585 -1.7633 -2.9851 0
M  V30 9786 C 949.646 -2.99944 -3.07135 0
M  V30 9787 C 948.879 -3.06419 -4.36971 0
M  V30 9788 O 949.102 -2.20312 -5.26136 0
M  V30 9789 O 948.036 -3.9894 -4.507 0
M  V30 9790 H 951.862 -2.65017 -1.48324 0
M  V30 9791 H 949.447 -1.33454 -0.671603 0
M  V30 9792 H 951.329 -1.83125 -3.7953 0
M  V30 9793 H 950.004 -0.840155 -3.12607 0
M  V30 9794 H 948.911 -2.98664 -2.2528 0
M  V30 9795 H 950.244 -3.9176 -2.97968 0
M  V30 9796 N 951.896 0.746133 -1.38819 0
M  V30 9797 C 953.124 1.53539 -1.38685 0
M  V30 9798 C 953.539 1.88788 0.0215039 0
M  V30 9799 O 952.896 1.53312 0.990031 0
M  V30 9800 C 952.947 2.8299 -2.24942 0
M  V30 9801 O 952.668 2.49242 -3.60292 0
M  V30 9802 C 954.169 3.77085 -2.3307 0
M  V30 9803 H 951.389 0.474842 -0.474095 0
M  V30 9804 H 953.933 0.922844 -1.82493 0
M  V30 9805 H 952.088 3.40603 -1.84576 0
M  V30 9806 H 952.502 3.32319 -4.05789 0
M  V30 9807 H 953.976 4.64845 -2.97696 0
M  V30 9808 H 954.453 4.18049 -1.34655 0
M  V30 9809 H 955.059 3.25394 -2.73859 0
M  V30 9810 N 953.375 1.23811 0.975125 0
M  V30 9811 C 954.322 1.02394 2.06843 0
M  V30 9812 C 955.292 -0.060337 1.6599 0
M  V30 9813 O 956.477 0.0928187 1.90574 0
M  V30 9814 C 953.617 0.626882 3.39359 0
M  V30 9815 C 952.73 1.78385 3.9345 0
M  V30 9816 C 951.865 1.33307 5.14201 0
M  V30 9817 C 950.904 2.46045 5.60471 0
M  V30 9818 N 950.041 2.01888 6.72448 0
M  V30 9819 H 954.881 1.95973 2.24496 0
M  V30 9820 H 952.418 0.976206 1.10039 0
M  V30 9821 H 954.376 0.377742 4.15486 0
M  V30 9822 H 953.006 -0.271907 3.21653 0
M  V30 9823 H 952.058 2.14685 3.14029 0
M  V30 9824 H 953.37 2.63122 4.23755 0
M  V30 9825 H 952.524 1.04237 5.97678 0
M  V30 9826 H 951.263 0.456143 4.85562 0
M  V30 9827 H 950.268 2.75884 4.75571 0
M  V30 9828 H 951.493 3.34283 5.91127 0
M  V30 9829 H 949.439 1.16583 6.45558 0
M  V30 9830 H 949.356 2.80182 7.02164 0
M  V30 9831 H 950.624 1.75937 7.59386 0
M  V30 9832 N 954.853 -1.17469 1.05066 0
M  V30 9833 C 956.13 -1.83625 0.673872 0
M  V30 9834 C 956.51 -1.93412 -0.845871 0
M  V30 9835 O 955.858 -1.4677 -1.75131 0
M  V30 9836 C 956.068 -3.21352 1.36139 0
M  V30 9837 C 957.416 -3.97274 1.49863 0
M  V30 9838 O 958.44 -3.30827 1.3203 0
M  V30 9839 O 957.299 -5.16349 1.79013 0
M  V30 9840 H 954.393 -0.792297 0.237055 0
M  V30 9841 H 956.939 -1.24776 1.15017 0
M  V30 9842 H 955.711 -3.0919 2.39827 0
M  V30 9843 H 955.334 -3.87867 0.874364 0
M  V30 9844 N 956.331 -0.831506 -1.3388 0
M  V30 9845 C 957.261 -0.274378 -2.31882 0
M  V30 9846 C 958.242 0.613872 -1.58637 0
M  V30 9847 O 959.427 0.538961 -1.86571 0
M  V30 9848 C 956.557 0.557498 -3.42796 0
M  V30 9849 C 955.511 -0.234337 -4.27358 0
M  V30 9850 C 954.837 0.720825 -5.29819 0
M  V30 9851 C 956.137 -1.44732 -5.01847 0
M  V30 9852 H 957.831 -1.09322 -2.78728 0
M  V30 9853 H 955.377 -0.527136 -1.34005 0
M  V30 9854 H 957.33 0.957501 -4.10378 0
M  V30 9855 H 956.054 1.40947 -2.94621 0
M  V30 9856 H 954.713 -0.61581 -3.61391 0
M  V30 9857 H 954.361 1.569 -4.77903 0
M  V30 9858 H 954.061 0.195171 -5.87276 0
M  V30 9859 H 955.585 1.1185 -6.00268 0
M  V30 9860 H 956.999 -1.12087 -5.62236 0
M  V30 9861 H 955.396 -1.90923 -5.68919 0
M  V30 9862 H 956.466 -2.22099 -4.31045 0
M  V30 9863 N 957.809 1.4625 -0.587256 0
M  V30 9864 C 958.739 2.33132 0.131076 0
M  V30 9865 C 959.72 1.45619 0.879158 0
M  V30 9866 O 960.905 1.74428 0.853723 0
M  V30 9867 C 958.035 3.27975 1.14236 0
M  V30 9868 C 956.989 4.24965 0.508819 0
M  V30 9869 C 956.315 5.09349 1.62689 0
M  V30 9870 C 957.615 5.19322 -0.55694 0
M  V30 9871 H 959.309 2.93442 -0.594333 0
M  V30 9872 H 956.855 1.41106 -0.287263 0
M  V30 9873 H 958.808 3.87614 1.65328 0
M  V30 9874 H 957.532 2.65781 1.8981 0
M  V30 9875 H 956.191 3.66595 0.0189337 0
M  V30 9876 H 955.839 4.43537 2.37242 0
M  V30 9877 H 955.539 5.75036 1.20861 0
M  V30 9878 H 957.063 5.71852 2.14049 0
M  V30 9879 H 958.477 5.73151 -0.130903 0
M  V30 9880 H 956.874 5.93376 -0.895801 0
M  V30 9881 H 957.944 4.62979 -1.44148 0
M  V30 9882 N 959.287 0.325282 1.54207 0
M  V30 9883 C 960.534 -0.276775 2.006 0
M  V30 9884 C 960.862 -1.52007 1.21343 0
M  V30 9885 O 960.117 -1.93627 0.284104 0
M  V30 9886 C 960.416 -0.654292 3.5136 0
M  V30 9887 C 960.082 0.490023 4.48229 0
M  V30 9888 C 958.744 0.804104 4.74434 0
M  V30 9889 C 961.096 1.2586 5.05775 0
M  V30 9890 C 958.424 1.88945 5.55443 0
M  V30 9891 C 960.776 2.33405 5.87967 0
M  V30 9892 C 959.44 2.65393 6.12473 0
M  V30 9893 H 958.71 -0.101279 0.734046 0
M  V30 9894 H 961.357 0.449416 1.86152 0
M  V30 9895 H 959.662 -1.46093 3.63544 0
M  V30 9896 H 961.359 -1.13171 3.84699 0
M  V30 9897 H 957.949 0.235147 4.27954 0
M  V30 9898 H 962.133 1.02921 4.85511 0
M  V30 9899 H 957.389 2.14174 5.7266 0
M  V30 9900 H 961.563 2.93402 6.31576 0
M  V30 9901 H 959.19 3.49622 6.75032 0
M  V30 9902 N 960.765 -1.57509 0.0534917 0
M  V30 9903 C 962.181 -1.56696 -0.303067 0
M  V30 9904 C 962.381 -1.06135 -1.71282 0
M  V30 9905 O 961.437 -0.71899 -2.42047 0
M  V30 9906 C 962.75 -3.00421 -0.129418 0
M  V30 9907 C 964.298 -3.12358 -0.200346 0
M  V30 9908 C 964.773 -4.57967 -0.0551971 0
M  V30 9909 N 966.264 -4.63066 -0.111398 0
M  V30 9910 C 966.999 -5.73395 -0.0232344 0
M  V30 9911 N 966.495 -6.92701 0.11741 0
M  V30 9912 N 968.288 -5.62045 -0.078984 0
M  V30 9913 H 960.439 -1.88696 0.975064 0
M  V30 9914 H 962.702 -0.869072 0.378706 0
M  V30 9915 H 962.408 -3.41456 0.842653 0
M  V30 9916 H 962.282 -3.66563 -0.889476 0
M  V30 9917 H 964.669 -2.71221 -1.16289 0
M  V30 9918 H 964.75 -2.48891 0.590506 0
M  V30 9919 H 964.394 -4.9979 0.904034 0
M  V30 9920 H 964.324 -5.19443 -0.865223 0
M  V30 9921 H 966.815 -3.77263 -0.219256 0
M  V30 9922 H 967.128 -7.72597 0.177326 0
M  V30 9923 H 965.473 -6.94833 0.152526 0
M  V30 9924 H 968.664 -4.67725 -0.187434 0
M  V30 9925 H 968.837 -6.48 -0.00681731 0
M  V30 9926 N 962.243 0.219913 -1.56058 0
M  V30 9927 C 963.52 0.968493 -1.6994 0
M  V30 9928 C 963.9 2.02358 -0.601219 0
M  V30 9929 O 963.248 2.25121 0.391534 0
M  V30 9930 C 963.458 1.57745 -3.11316 0
M  V30 9931 C 964.806 2.06908 -3.70775 0
M  V30 9932 O 965.83 1.67636 -3.14288 0
M  V30 9933 O 964.689 2.79096 -4.69859 0
M  V30 9934 H 961.783 0.452521 -0.692209 0
M  V30 9935 H 964.329 0.211566 -1.68376 0
M  V30 9936 H 963.101 0.815687 -3.82704 0
M  V30 9937 H 962.724 2.39987 -3.17005 0
M  V30 9938 N 963.721 1.49897 0.486681 0
M  V30 9939 C 964.998 1.50614 1.24799 0
M  V30 9940 C 965.378 0.24193 2.09709 0
M  V30 9941 O 964.726 -0.775237 2.14947 0
M  V30 9942 C 964.936 2.79318 2.09243 0
M  V30 9943 C 966.284 3.29371 2.67955 0
M  V30 9944 O 967.308 2.80533 2.19499 0
M  V30 9945 O 966.167 4.14466 3.56202 0
M  V30 9946 H 963.261 0.603447 0.565491 0
M  V30 9947 H 965.807 1.62174 0.499778 0
M  V30 9948 H 964.579 3.62812 1.46572 0
M  V30 9949 H 964.202 2.70687 2.91229 0
M  V30 9950 N 965.199 -0.738761 1.39212 0
M  V30 9951 C 966.427 -1.52801 1.39497 0
M  V30 9952 C 966.842 -1.88797 -0.0114917 0
M  V30 9953 O 966.199 -1.53835 -0.981887 0
M  V30 9954 C 966.25 -2.81793 2.2644 0
M  V30 9955 O 965.971 -2.47328 3.61608 0
M  V30 9956 C 967.472 -3.75844 2.35067 0
M  V30 9957 H 964.692 -0.472322 0.476606 0
M  V30 9958 H 967.236 -0.913153 1.8298 0
M  V30 9959 H 965.391 -3.3962 1.8638 0
M  V30 9960 H 965.805 -3.30162 4.07545 0
M  V30 9961 H 967.279 -4.6326 3.00157 0
M  V30 9962 H 967.756 -4.17329 1.3687 0
M  V30 9963 H 968.362 -3.23937 2.75581 0
M  V30 9964 N 966.677 -1.24326 -0.968545 0
M  V30 9965 C 967.923 -1.08406 -1.71394 0
M  V30 9966 C 968.256 0.376353 -1.90518 0
M  V30 9967 O 967.531 1.27816 -1.46606 0
M  V30 9968 C 967.814 -1.82344 -3.1052 0
M  V30 9969 C 967.667 -3.3613 -2.98893 0
M  V30 9970 C 968.986 -1.59545 -4.10163 0
M  V30 9971 H 966.105 -0.395205 -0.622079 0
M  V30 9972 H 968.747 -1.52983 -1.12677 0
M  V30 9973 H 966.897 -1.44452 -3.60646 0
M  V30 9974 H 968.569 -3.83614 -2.56199 0
M  V30 9975 H 966.812 -3.64553 -2.35124 0
M  V30 9976 H 967.483 -3.83064 -3.97449 0
M  V30 9977 H 969.959 -1.92504 -3.68892 0
M  V30 9978 H 968.835 -2.13736 -5.05577 0
M  V30 9979 H 969.096 -0.533503 -4.38869 0
M  V30 9980 N 968.156 1.1691 -1.05688 0
M  V30 9981 C 969.396 1.88972 -0.779044 0
M  V30 9982 C 969.76 1.7949 0.681708 0
M  V30 9983 O 970.961 2.46418 1.07386 0
M  V30 9984 C 969.232 3.34737 -1.25242 0
M  V30 9985 S 970.791 4.24718 -1.10272 0
M  V30 9986 H 967.609 0.652349 -0.282776 0
M  V30 9987 H 970.211 1.41162 -1.35254 0
M  V30 9988 H 968.915 3.39175 -2.3106 0
M  V30 9989 H 968.446 3.87593 -0.673417 0
M  V30 9990 H 970.461 4.96191 -0.0299004 0
M  V30 9991 N 969.634 0.838594 1.33437 0
M  V30 9992 C 970.564 0.286672 2.31734 0
M  V30 9993 C 971.545 -0.605451 1.5896 0
M  V30 9994 O 972.73 -0.529059 1.86854 0
M  V30 9995 C 969.86 -0.539311 3.43087 0
M  V30 9996 C 968.814 0.256997 4.27228 0
M  V30 9997 C 968.14 -0.692718 5.30194 0
M  V30 9998 C 969.44 1.47391 5.01072 0
M  V30 9999 H 971.134 1.10798 2.78144 0
M  V30 10000 H 968.68 0.534235 1.33723 0
M  V30 10001 H 970.633 -0.935724 4.1088 0
M  V30 10002 H 969.357 -1.39383 2.95364 0
M  V30 10003 H 968.016 0.634967 3.61059 0
M  V30 10004 H 967.664 -1.54363 4.78729 0
M  V30 10005 H 967.364 -0.164023 5.87371 0
M  V30 10006 H 968.888 -1.08665 6.00853 0
M  V30 10007 H 970.302 1.15067 5.61634 0
M  V30 10008 H 968.699 1.93937 5.67898 0
M  V30 10009 H 969.769 2.24382 4.29861 0
M  V30 10010 N 971.112 -1.45937 0.595003 0
M  V30 10011 C 972.075 -2.2888 -0.121102 0
M  V30 10012 C 973.075 -1.39075 -0.807149 0
M  V30 10013 O 974.265 -1.61326 -0.657228 0
M  V30 10014 C 971.397 -3.19778 -1.1813 0
M  V30 10015 H 972.59 -2.93673 0.607968 0
M  V30 10016 H 970.143 -1.5225 0.353495 0
M  V30 10017 H 970.878 -2.59759 -1.94154 0
M  V30 10018 H 970.663 -3.85914 -0.693724 0
M  V30 10019 H 972.153 -3.82176 -1.68319 0
M  V30 10020 N 972.59 -0.333456 -1.54032 0
M  V30 10021 C 973.537 0.527981 -2.2468 0
M  V30 10022 C 974.507 1.10371 -1.24127 0
M  V30 10023 O 975.692 1.14221 -1.52834 0
M  V30 10024 C 972.832 1.67808 -3.01553 0
M  V30 10025 C 971.945 1.13064 -4.16942 0
M  V30 10026 C 971.08 2.24722 -4.81325 0
M  V30 10027 C 970.119 1.67277 -5.88799 0
M  V30 10028 N 969.256 2.72638 -6.47003 0
M  V30 10029 H 974.096 -0.0810308 -2.9789 0
M  V30 10030 H 971.633 -0.051761 -1.47009 0
M  V30 10031 H 973.591 2.35502 -3.44376 0
M  V30 10032 H 972.221 2.25823 -2.30659 0
M  V30 10033 H 971.273 0.344948 -3.78833 0
M  V30 10034 H 972.585 0.670373 -4.94275 0
M  V30 10035 H 971.739 3.00301 -5.27166 0
M  V30 10036 H 970.478 2.74089 -4.03394 0
M  V30 10037 H 969.483 0.902002 -5.4235 0
M  V30 10038 H 970.708 1.18775 -6.68632 0
M  V30 10039 H 968.654 3.21277 -5.71941 0
M  V30 10040 H 968.571 2.31204 -7.19778 0
M  V30 10041 H 969.839 3.48015 -6.97499 0
M  V30 10042 N 974.068 1.57479 -0.061844 0
M  V30 10043 C 974.998 2.15181 0.9066 0
M  V30 10044 C 975.979 1.07624 1.31724 0
M  V30 10045 O 977.164 1.35614 1.39006 0
M  V30 10046 C 974.294 2.70542 2.17771 0
M  V30 10047 C 973.248 3.83178 1.9068 0
M  V30 10048 C 972.574 4.25099 3.24337 0
M  V30 10049 C 973.874 5.07853 1.21994 0
M  V30 10050 H 975.568 2.96355 0.42594 0
M  V30 10051 H 973.114 1.42556 0.203435 0
M  V30 10052 H 975.067 3.09552 2.85929 0
M  V30 10053 H 973.791 1.86575 2.68062 0
M  V30 10054 H 972.45 3.44656 1.24931 0
M  V30 10055 H 972.098 3.38069 3.72449 0
M  V30 10056 H 971.798 5.01021 3.07005 0
M  V30 10057 H 973.322 4.66718 3.93709 0
M  V30 10058 H 974.736 5.44242 1.80204 0
M  V30 10059 H 973.133 5.88987 1.14954 0
M  V30 10060 H 974.203 4.84497 0.197536 0
M  V30 10061 N 975.546 -0.211634 1.56173 0
M  V30 10062 C 976.496 -1.26602 1.8962 0
M  V30 10063 C 977.48 -1.41808 0.760222 0
M  V30 10064 O 978.672 -1.44456 1.02281 0
M  V30 10065 C 975.801 -2.61438 2.22497 0
M  V30 10066 C 974.887 -2.50094 3.42511 0
M  V30 10067 N 975.278 -2.0841 4.60868 0
M  V30 10068 C 973.576 -2.81028 3.46322 0
M  V30 10069 C 974.277 -2.08557 5.43028 0
M  V30 10070 N 973.253 -2.49427 4.82998 0
M  V30 10071 H 977.055 -0.934806 2.78637 0
M  V30 10072 H 974.569 -0.420154 1.56871 0
M  V30 10073 H 976.566 -3.37577 2.44638 0
M  V30 10074 H 975.226 -2.95397 1.34798 0
M  V30 10075 H 976.237 -1.79382 4.85842 0
M  V30 10076 H 972.914 -3.19294 2.68994 0
M  V30 10077 H 974.304 -1.7837 6.47791 0
M  V30 10078 N 977.024 -1.50153 -0.478725 0
M  V30 10079 C 978.301 -1.51274 -1.23999 0
M  V30 10080 C 978.681 -0.253048 -2.09578 0
M  V30 10081 O 978.029 0.763827 -2.15355 0
M  V30 10082 C 978.239 -2.80423 -2.07759 0
M  V30 10083 C 979.587 -3.30788 -2.66204 0
M  V30 10084 O 980.611 -2.81693 -2.18008 0
M  V30 10085 O 979.47 -4.1635 -3.53999 0
M  V30 10086 H 976.564 -0.606438 -0.562283 0
M  V30 10087 H 979.11 -1.62436 -0.491171 0
M  V30 10088 H 977.882 -3.63584 -1.44645 0
M  V30 10089 H 977.505 -2.72228 -2.89789 0
M  V30 10090 N 978.502 0.731368 -1.39602 0
M  V30 10091 C 979.918 1.03739 -1.21286 0
M  V30 10092 C 980.118 2.01353 -0.0769875 0
M  V30 10093 O 979.174 2.45978 0.570193 0
M  V30 10094 C 980.487 1.59621 -2.54837 0
M  V30 10095 C 982.035 1.71683 -2.61713 0
M  V30 10096 C 982.51 2.30973 -3.95494 0
M  V30 10097 N 984.001 2.38378 -3.97153 0
M  V30 10098 C 984.736 2.852 -4.97442 0
M  V30 10099 N 984.232 3.31891 -6.08129 0
M  V30 10100 N 986.025 2.84441 -4.84819 0
M  V30 10101 H 978.176 0.0840456 -2.12234 0
M  V30 10102 H 980.439 0.0999038 -0.942721 0
M  V30 10103 H 980.145 0.953608 -3.38525 0
M  V30 10104 H 980.019 2.58375 -2.74813 0
M  V30 10105 H 982.406 2.35064 -1.78406 0
M  V30 10106 H 982.487 0.715714 -2.45583 0
M  V30 10107 H 982.131 1.68219 -4.79234 0
M  V30 10108 H 982.061 3.31769 -4.08946 0
M  V30 10109 H 984.552 2.05382 -3.17217 0
M  V30 10110 H 984.865 3.66138 -6.8056 0
M  V30 10111 H 983.21 3.2989 -6.11717 0
M  V30 10112 H 986.401 2.4729 -3.97448 0
M  V30 10113 H 986.574 3.20616 -5.63124 0
M  V30 10114 N 979.98 1.24838 0.961938 0
M  V30 10115 C 980.928 1.0436 2.07874 0
M  V30 10116 C 981.922 -0.0232531 1.69384 0
M  V30 10117 O 983.128 0.131773 1.79517 0
M  V30 10118 H 979.503 0.320492 0.680286 0
M  V30 10119 H 981.474 1.99055 2.22306 0
M  V30 10120 C 980.223 0.671246 3.41159 0
M  V30 10121 H 979.546 1.48395 3.7124 0
M  V30 10122 H 980.986 0.567608 4.20184 0
M  V30 10123 C 979.445 -0.622124 3.31106 0
M  V30 10124 O 979.975 -1.66627 3.65511 0
M  V30 10125 N 978.181 -0.605009 2.84232 0
M  V30 10126 H 977.728 0.245052 2.56432 0
M  V30 10127 H 977.686 -1.47056 2.77888 0
M  V30 10128 N 981.458 -1.16348 1.06306 0
M  V30 10129 C 982.686 -1.90782 0.800614 0
M  V30 10130 C 983.101 -1.77439 -0.645033 0
M  V30 10131 O 982.458 -1.11912 -1.4416 0
M  V30 10132 C 982.509 -3.41484 1.18621 0
M  V30 10133 O 982.23 -3.54428 2.57512 0
M  V30 10134 C 983.731 -4.32968 0.951525 0
M  V30 10135 H 980.951 -0.604977 0.290247 0
M  V30 10136 H 983.495 -1.47476 1.41672 0
M  V30 10137 H 981.65 -3.82493 0.614633 0
M  V30 10138 H 982.064 -4.4788 2.72954 0
M  V30 10139 H 983.538 -5.37169 1.27095 0
M  V30 10140 H 984.015 -4.39055 -0.112734 0
M  V30 10141 H 984.621 -3.97687 1.50749 0
M  V30 10142 N 982.937 -0.845659 -1.3299 0
M  V30 10143 C 984.167 -0.457686 -2.01467 0
M  V30 10144 C 984.575 0.947664 -1.63756 0
M  V30 10145 O 983.918 1.62841 -0.850213 0
M  V30 10146 C 983.98 -0.506589 -3.55913 0
M  V30 10147 C 983.644 -1.86924 -4.17023 0
M  V30 10148 C 984.641 -2.83344 -4.35904 0
M  V30 10149 C 982.326 -2.16394 -4.53298 0
M  V30 10150 C 984.32 -4.07391 -4.90216 0
M  V30 10151 C 982.007 -3.40695 -5.07316 0
M  V30 10152 C 983.005 -4.3601 -5.25722 0
M  V30 10153 O 982.693 -5.58112 -5.7859 0
M  V30 10154 H 982.425 -0.179258 -0.651799 0
M  V30 10155 H 984.979 -1.14172 -1.70745 0
M  V30 10156 H 983.209 0.234253 -3.8599 0
M  V30 10157 H 984.898 -0.135487 -4.05674 0
M  V30 10158 H 985.664 -2.61879 -4.08221 0
M  V30 10159 H 981.543 -1.42994 -4.38262 0
M  V30 10160 H 985.087 -4.81796 -5.04498 0
M  V30 10161 H 980.984 -3.62014 -5.3443 0
M  V30 10162 H 981.752 -5.59946 -5.96995 0
M  V30 10163 N 984.415 1.45619 -0.602734 0
M  V30 10164 C 985.325 2.34288 0.120902 0
M  V30 10165 C 986.341 1.50952 0.865414 0
M  V30 10166 O 987.517 1.83768 0.824094 0
M  V30 10167 C 984.582 3.28489 1.10888 0
M  V30 10168 C 983.643 4.2773 0.366853 0
M  V30 10169 C 982.876 5.17429 1.30776 0
M  V30 10170 O 983.099 5.10459 2.54535 0
M  V30 10171 O 982.033 5.96459 0.807464 0
M  V30 10172 H 985.859 2.97559 -0.60765 0
M  V30 10173 H 983.444 1.44922 -0.363019 0
M  V30 10174 H 985.326 3.86549 1.67803 0
M  V30 10175 H 984.001 2.67789 1.81854 0
M  V30 10176 H 982.908 3.73299 -0.244643 0
M  V30 10177 H 984.241 4.91271 -0.302226 0
M  V30 10178 N 985.893 0.34162 1.53853 0
M  V30 10179 C 986.84 -0.516058 2.24957 0
M  V30 10180 C 987.81 -1.09711 1.2471 0
M  V30 10181 O 988.995 -1.13409 1.53438 0
M  V30 10182 C 986.135 -1.66207 3.02439 0
M  V30 10183 C 985.248 -1.10851 4.17536 0
M  V30 10184 C 984.383 -2.22167 4.82509 0
M  V30 10185 C 983.422 -1.64152 5.89678 0
M  V30 10186 N 982.559 -2.69203 6.4844 0
M  V30 10187 H 987.399 0.0968275 2.97843 0
M  V30 10188 H 984.936 0.0595565 1.46979 0
M  V30 10189 H 986.894 -2.33672 3.4562 0
M  V30 10190 H 985.524 -2.24597 2.31853 0
M  V30 10191 H 984.576 -0.324853 3.7901 0
M  V30 10192 H 985.888 -0.644151 4.94623 0
M  V30 10193 H 985.042 -2.97501 5.28751 0
M  V30 10194 H 983.781 -2.71946 4.04842 0
M  V30 10195 H 982.786 -0.873228 5.42821 0
M  V30 10196 H 984.011 -1.15228 6.69253 0
M  V30 10197 H 981.957 -3.1824 5.73637 0
M  V30 10198 H 981.874 -2.27383 7.20994 0
M  V30 10199 H 983.142 -3.44312 6.99335 0
M  V30 10200 N 987.371 -1.57444 0.0701946 0
M  V30 10201 C 988.601 -1.97467 -0.607476 0
M  V30 10202 C 989.009 -0.947232 -1.63781 0
M  V30 10203 O 988.352 0.074652 -1.83548 0
M  V30 10204 C 988.414 -3.33795 -1.33495 0
M  V30 10205 C 988.078 -4.54697 -0.458265 0
M  V30 10206 C 989.075 -5.19127 0.283488 0
M  V30 10207 C 986.76 -5.00833 -0.383612 0
M  V30 10208 C 988.754 -6.28043 1.08813 0
M  V30 10209 C 986.441 -6.09622 0.424705 0
M  V30 10210 C 987.439 -6.7309 1.15925 0
M  V30 10211 O 987.127 -7.79785 1.95423 0
M  V30 10212 H 986.859 -0.654405 -0.169501 0
M  V30 10213 H 989.413 -2.04931 0.138651 0
M  V30 10214 H 987.643 -3.22941 -2.12711 0
M  V30 10215 H 989.332 -3.58435 -1.9047 0
M  V30 10216 H 990.098 -4.84428 0.235397 0
M  V30 10217 H 985.977 -4.51211 -0.944968 0
M  V30 10218 H 989.521 -6.77513 1.66197 0
M  V30 10219 H 985.418 -6.43755 0.474366 0
M  V30 10220 H 986.186 -7.96655 1.87838 0
M  V30 10221 N 988.849 0.203349 -1.56283 0
M  V30 10222 C 989.779 1.2549 -1.96912 0
M  V30 10223 C 990.76 1.47919 -0.839884 0
M  V30 10224 O 991.945 1.59795 -1.10359 0
M  V30 10225 C 989.075 2.6009 -2.30153 0
M  V30 10226 C 988.029 2.52289 -3.45738 0
M  V30 10227 C 987.355 3.91086 -3.64632 0
M  V30 10228 C 988.655 2.05503 -4.80173 0
M  V30 10229 H 990.349 0.917306 -2.85002 0
M  V30 10230 H 987.895 0.439818 -1.37119 0
M  V30 10231 H 989.848 3.33829 -2.5717 0
M  V30 10232 H 988.572 2.95574 -1.38937 0
M  V30 10233 H 987.231 1.81006 -3.18798 0
M  V30 10234 H 986.879 4.23908 -2.7076 0
M  V30 10235 H 986.579 3.86742 -4.42385 0
M  V30 10236 H 988.103 4.66459 -3.94016 0
M  V30 10237 H 989.517 2.68995 -5.06275 0
M  V30 10238 H 987.914 2.1218 -5.61337 0
M  V30 10239 H 988.984 1.00793 -4.74309 0
M  V30 10240 N 990.327 1.50405 0.470755 0
M  V30 10241 C 991.575 1.61092 1.2204 0
M  V30 10242 C 991.896 0.313487 1.92464 0
M  V30 10243 O 991.166 -0.669043 1.84121 0
M  V30 10244 H 989.746 0.593618 0.45346 0
M  V30 10245 H 992.408 1.87184 0.542985 0
M  V30 10246 H 991.504 2.42222 1.96812 0
M  V30 10247 N 991.805 -0.723954 1.39988 0
M  V30 10248 C 992.715 -1.86829 1.41887 0
M  V30 10249 C 993.731 -1.71173 0.312401 0
M  V30 10250 O 994.907 -1.93583 0.555651 0
M  V30 10251 C 991.972 -3.22541 1.27154 0
M  V30 10252 C 991.033 -3.50512 2.47871 0
M  V30 10253 C 990.266 -4.79749 2.33831 0
M  V30 10254 O 990.489 -5.54251 1.34765 0
M  V30 10255 O 989.423 -5.07868 3.23039 0
M  V30 10256 H 993.249 -1.88183 2.38371 0
M  V30 10257 H 990.834 -0.873259 1.21221 0
M  V30 10258 H 992.716 -4.0362 1.21114 0
M  V30 10259 H 991.391 -3.21933 0.337715 0
M  V30 10260 H 990.298 -2.69475 2.59488 0
M  V30 10261 H 991.631 -3.55909 3.39985 0
M  V30 10262 N 993.283 -1.25346 -0.955304 0
M  V30 10263 C 994.193 -1.07412 -2.08566 0
M  V30 10264 C 995.209 -0.0114424 -1.73996 0
M  V30 10265 O 996.385 -0.212236 -2.00279 0
M  V30 10266 C 993.45 -0.694141 -3.3968 0
M  V30 10267 C 992.511 -1.83468 -3.88121 0
M  V30 10268 C 991.744 -1.47274 -5.12978 0
M  V30 10269 O 991.967 -0.368086 -5.69211 0
M  V30 10270 O 990.901 -2.30269 -5.56111 0
M  V30 10271 H 994.727 -2.02206 -2.26598 0
M  V30 10272 H 992.312 -1.04279 -1.06988 0
M  V30 10273 H 994.194 -0.494325 -4.18491 0
M  V30 10274 H 992.869 0.224545 -3.2292 0
M  V30 10275 H 991.776 -2.08935 -3.10318 0
M  V30 10276 H 993.109 -2.73258 -4.09379 0
M  V30 10277 N 994.761 1.15782 -1.06922 0
M  V30 10278 C 995.991 1.90079 -0.809545 0
M  V30 10279 C 996.399 1.78028 0.640523 0
M  V30 10280 O 995.742 1.12692 1.45073 0
M  V30 10281 C 995.804 3.41179 -1.13302 0
M  V30 10282 C 995.468 3.77015 -2.5828 0
M  V30 10283 C 996.465 3.78403 -3.56521 0
M  V30 10284 C 994.15 4.07455 -2.93745 0
M  V30 10285 C 996.144 4.09729 -4.88264 0
M  V30 10286 C 993.831 4.38446 -4.25686 0
M  V30 10287 C 994.829 4.39564 -5.22755 0
M  V30 10288 O 994.517 4.69814 -6.52326 0
M  V30 10289 H 994.249 0.609397 -0.292595 0
M  V30 10290 H 996.803 1.47654 -1.42784 0
M  V30 10291 H 995.033 3.83982 -0.457676 0
M  V30 10292 H 996.722 3.96759 -0.856586 0
M  V30 10293 H 997.488 3.54991 -3.30464 0
M  V30 10294 H 993.367 4.05746 -2.1884 0
M  V30 10295 H 996.911 4.10516 -5.64023 0
M  V30 10296 H 992.808 4.61325 -4.51497 0
M  V30 10297 H 993.576 4.87598 -6.57412 0
M  V30 10298 N 996.239 0.8527 1.3254 0
M  V30 10299 C 997.485 0.455798 1.97612 0
M  V30 10300 C 997.818 -0.985616 1.6733 0
M  V30 10301 O 997.093 -1.69129 0.960493 0
M  V30 10302 C 997.376 0.69312 3.53366 0
M  V30 10303 C 997.229 2.18281 3.93285 0
M  V30 10304 C 998.548 0.148236 4.3985 0
M  V30 10305 H 995.667 0.167078 0.717812 0
M  V30 10306 H 998.309 1.07076 1.56954 0
M  V30 10307 H 996.459 0.169677 3.88129 0
M  V30 10308 H 998.131 2.77218 3.68711 0
M  V30 10309 H 996.374 2.66206 3.42515 0
M  V30 10310 H 997.045 2.29957 5.01821 0
M  V30 10311 H 999.521 0.595834 4.11812 0
M  V30 10312 H 998.397 0.343873 5.47822 0
M  V30 10313 H 998.658 -0.948872 4.31797 0
M  V30 10314 N 997.718 -1.45297 0.610449 0
M  V30 10315 C 998.665 -2.30553 -0.106718 0
M  V30 10316 C 999.635 -1.42272 -0.85719 0
M  V30 10317 O 1000.82 -1.71199 -0.842357 0
M  V30 10318 C 997.96 -3.27226 -1.09623 0
M  V30 10319 C 997.073 -4.3061 -0.346329 0
M  V30 10320 C 996.208 -5.14389 -1.32581 0
M  V30 10321 C 995.247 -6.09497 -0.563892 0
M  V30 10322 N 994.384 -6.86047 -1.4928 0
M  V30 10323 H 999.224 -2.91344 0.626296 0
M  V30 10324 H 996.761 -1.43563 0.32065 0
M  V30 10325 H 998.719 -3.81744 -1.68308 0
M  V30 10326 H 997.349 -2.68182 -1.79662 0
M  V30 10327 H 996.401 -3.7873 0.356084 0
M  V30 10328 H 997.713 -4.98183 0.248026 0
M  V30 10329 H 996.867 -5.73321 -1.98464 0
M  V30 10330 H 995.606 -4.4684 -1.9541 0
M  V30 10331 H 994.611 -5.49693 0.108551 0
M  V30 10332 H 995.836 -6.79074 0.0593872 0
M  V30 10333 H 993.782 -6.21185 -2.10868 0
M  V30 10334 H 993.699 -7.49983 -0.951953 0
M  V30 10335 H 994.967 -7.49518 -2.14112 0
M  V30 10336 N 999.196 -0.349774 -1.5367 0
M  V30 10337 C 1000.16 0.491676 -2.23864 0
M  V30 10338 C 1001.16 1.02256 -1.24098 0
M  V30 10339 O 1002.35 0.910816 -1.48492 0
M  V30 10340 C 999.481 1.68557 -2.96313 0
M  V30 10341 H 1000.67 -0.12233 -2.9965 0
M  V30 10342 H 998.227 -0.101214 -1.55972 0
M  V30 10343 H 998.962 2.3381 -2.2473 0
M  V30 10344 H 998.747 1.31203 -3.69497 0
M  V30 10345 H 1000.24 2.28225 -3.49718 0
M  V30 10346 N 1000.67 1.57404 -0.0785433 0
M  V30 10347 C 1001.92 1.94031 0.589896 0
M  V30 10348 C 1002.25 0.959297 1.68852 0
M  V30 10349 O 1001.53 -0.0103978 1.94497 0
M  V30 10350 C 1001.81 3.40886 1.16055 0
M  V30 10351 C 1001.66 4.49748 0.0681072 0
M  V30 10352 C 1002.98 3.88699 2.06401 0
M  V30 10353 H 1000.1 0.70556 0.212965 0
M  V30 10354 H 1002.74 1.89439 -0.145886 0
M  V30 10355 H 1000.89 3.4493 1.78761 0
M  V30 10356 H 1002.57 4.57823 -0.565318 0
M  V30 10357 H 1000.81 4.29625 -0.600431 0
M  V30 10358 H 1001.48 5.49658 0.507906 0
M  V30 10359 H 1003.96 3.86703 1.53622 0
M  V30 10360 H 1002.83 4.92052 2.43261 0
M  V30 10361 H 1003.09 3.2703 2.97496 0
M  V30 10362 N 1002.15 -0.195058 1.56388 0
M  V30 10363 C 1003.4 -0.913636 1.8027 0
M  V30 10364 C 1003.72 -1.83791 0.651606 0
M  V30 10365 O 1002.99 -1.931 -0.330057 0
M  V30 10366 H 1001.57 -0.34036 0.664954 0
M  V30 10367 H 1004.23 -0.200559 1.93865 0
M  V30 10368 H 1003.33 -1.50473 2.7343 0
M  V30 10369 N 1003.63 -1.50653 -0.462772 0
M  V30 10370 C 1004.58 -1.70661 -1.58043 0
M  V30 10371 C 1005.57 -0.572533 -1.59432 0
M  V30 10372 O 1006.78 -0.753257 -1.63481 0
M  V30 10373 H 1003.15 -0.538805 -0.524588 0
M  V30 10374 H 1005.12 -2.64399 -1.38332 0
M  V30 10375 C 1003.87 -1.82558 -2.95919 0
M  V30 10376 H 1003.2 -2.69216 -2.95572 0
M  V30 10377 H 1004.64 -2.0058 -3.73556 0
M  V30 10378 C 1003.09 -0.57916 -3.31885 0
M  V30 10379 O 1003.62 0.277888 -4.00738 0
M  V30 10380 N 1001.83 -0.430723 -2.8739 0
M  V30 10381 H 1001.38 -1.1292 -2.31531 0
M  V30 10382 H 1001.34 0.402061 -3.11819 0
M  V30 10383 N 1005.11 0.71652 -1.4037 0
M  V30 10384 C 1006.04 1.84345 -1.43315 0
M  V30 10385 C 1007.02 1.67537 -0.294186 0
M  V30 10386 O 1008.2 1.87582 -0.502671 0
M  V30 10387 C 1005.33 3.2229 -1.29408 0
M  V30 10388 C 1004.29 3.53769 -2.40897 0
M  V30 10389 C 1003.61 4.90847 -2.12068 0
M  V30 10390 C 1004.91 3.54862 -3.83237 0
M  V30 10391 H 1006.61 1.82138 -2.37626 0
M  V30 10392 H 1004.15 0.874873 -1.14376 0
M  V30 10393 H 1006.11 4.00819 -1.30085 0
M  V30 10394 H 1004.83 3.2507 -0.31573 0
M  V30 10395 H 1003.49 2.77579 -2.39469 0
M  V30 10396 H 1003.14 4.90229 -1.12626 0
M  V30 10397 H 1002.84 5.12875 -2.86762 0
M  V30 10398 H 1004.36 5.71711 -2.14426 0
M  V30 10399 H 1005.78 4.23432 -3.86494 0
M  V30 10400 H 1004.17 3.88416 -4.57442 0
M  V30 10401 H 1005.24 2.54266 -4.12888 0
M  V30 10402 N 1006.59 1.25851 0.948643 0
M  V30 10403 C 1008 1.02802 1.22081 0
M  V30 10404 C 1008.2 -0.251461 1.99925 0
M  V30 10405 O 1007.26 -0.962592 2.33432 0
M  V30 10406 C 1008.57 2.25489 1.98936 0
M  V30 10407 C 1010.12 2.30312 2.11956 0
M  V30 10408 C 1010.59 3.52671 2.92211 0
M  V30 10409 N 1012.09 3.53103 2.99787 0
M  V30 10410 C 1012.82 4.44445 3.62294 0
M  V30 10411 N 1012.32 5.46065 4.26362 0
M  V30 10412 N 1014.11 4.32113 3.59493 0
M  V30 10413 H 1006.26 2.08042 0.428044 0
M  V30 10414 H 1008.52 0.913928 0.251872 0
M  V30 10415 H 1008.23 3.18513 1.4914 0
M  V30 10416 H 1008.1 2.2914 2.99624 0
M  V30 10417 H 1010.49 1.37808 2.60946 0
M  V30 10418 H 1010.57 2.30676 1.10554 0
M  V30 10419 H 1010.22 4.45501 2.43909 0
M  V30 10420 H 1010.15 3.49554 3.93853 0
M  V30 10421 H 1012.64 2.79597 2.54232 0
M  V30 10422 H 1012.95 6.11964 4.71932 0
M  V30 10423 H 1011.29 5.49931 4.24972 0
M  V30 10424 H 1014.49 3.51946 3.08629 0
M  V30 10425 H 1014.66 5.03493 4.0792 0
M  V30 10426 N 1008.06 -1.15214 1.07534 0
M  V30 10427 C 1009.01 -2.20013 0.697337 0
M  V30 10428 C 1009.98 -1.6314 -0.312168 0
M  V30 10429 O 1011.17 -1.89768 -0.198196 0
M  V30 10430 C 1008.31 -3.44945 0.103293 0
M  V30 10431 C 1007.42 -4.16009 1.1645 0
M  V30 10432 C 1006.55 -5.28496 0.535261 0
M  V30 10433 C 1005.59 -5.9138 1.57912 0
M  V30 10434 N 1004.73 -6.95335 0.972332 0
M  V30 10435 H 1009.57 -2.51698 1.59538 0
M  V30 10436 H 1007.11 -1.2361 0.797431 0
M  V30 10437 H 1009.07 -4.16397 -0.258766 0
M  V30 10438 H 1007.7 -3.13772 -0.758096 0
M  V30 10439 H 1006.75 -3.43035 1.64411 0
M  V30 10440 H 1008.06 -4.58853 1.9559 0
M  V30 10441 H 1007.21 -6.06579 0.120942 0
M  V30 10442 H 1005.95 -4.8685 -0.287889 0
M  V30 10443 H 1004.96 -5.12008 2.0032 0
M  V30 10444 H 1006.18 -6.35103 2.40459 0
M  V30 10445 H 1004.13 -6.55779 0.170119 0
M  V30 10446 H 1004.05 -7.36616 1.70095 0
M  V30 10447 H 1005.31 -7.77312 0.583577 0
M  V30 10448 N 1009.54 -0.859717 -1.32086 0
M  V30 10449 C 1010.78 -0.471939 -1.98877 0
M  V30 10450 C 1011.15 0.955689 -1.66525 0
M  V30 10451 O 1012.35 1.44829 -2.26447 0
M  V30 10452 C 1010.62 -0.710016 -3.50276 0
M  V30 10453 S 1012.18 -0.420566 -4.3678 0
M  V30 10454 H 1009 -0.176588 -0.688722 0
M  V30 10455 H 1011.6 -1.11352 -1.60689 0
M  V30 10456 H 1010.3 -1.74803 -3.71311 0
M  V30 10457 H 1009.83 -0.0550429 -3.93361 0
M  V30 10458 H 1011.85 0.751362 -4.90478 0
M  V30 10459 N 1011.02 1.44971 -0.618145 0
M  V30 10460 C 1012.25 2.07039 -0.122395 0
M  V30 10461 C 1012.67 1.45793 1.18853 0
M  V30 10462 O 1012.03 0.55453 1.72611 0
M  V30 10463 C 1012.08 3.60599 -0.0073864 0
M  V30 10464 O 1011.18 3.99069 1.04007 0
M  V30 10465 H 1010.52 0.6593 -0.0788615 0
M  V30 10466 H 1013.05 1.86055 -0.851147 0
M  V30 10467 H 1013.06 4.07569 0.187417 0
M  V30 10468 H 1011.74 4.04561 -0.964544 0
M  V30 10469 H 1010.31 3.63753 0.820879 0
M  V30 10470 N 1012.5 0.357919 1.53482 0
M  V30 10471 C 1013.73 -0.23514 2.05559 0
M  V30 10472 C 1014.14 -1.43068 1.23195 0
M  V30 10473 O 1013.5 -1.80481 0.270741 0
M  V30 10474 C 1013.55 -0.636147 3.55859 0
M  V30 10475 O 1013.27 0.511864 4.35099 0
M  V30 10476 C 1014.77 -1.28841 4.24164 0
M  V30 10477 H 1011.99 -0.0428446 0.669631 0
M  V30 10478 H 1014.54 0.51407 1.97933 0
M  V30 10479 H 1012.69 -1.33528 3.63661 0
M  V30 10480 H 1013.1 0.189328 5.24158 0
M  V30 10481 H 1014.58 -1.51962 5.30671 0
M  V30 10482 H 1015.06 -2.24638 3.77405 0
M  V30 10483 H 1015.66 -0.630914 4.20594 0
M  V30 10484 N 1013.98 -1.5736 0.0868897 0
M  V30 10485 C 1015.2 -1.98809 -0.590757 0
M  V30 10486 C 1015.63 -0.965407 -1.61436 0
M  V30 10487 O 1014.98 0.067143 -1.81176 0
M  V30 10488 C 1015.03 -3.39249 -1.22238 0
M  V30 10489 O 1014.14 -3.39706 -2.33824 0
M  V30 10490 H 1013.48 -0.64669 -0.150626 0
M  V30 10491 H 1016.01 -2.03927 0.165873 0
M  V30 10492 H 1016.02 -3.76765 -1.56564 0
M  V30 10493 H 1014.69 -4.13208 -0.472434 0
M  V30 10494 H 1013.27 -3.13977 -2.01178 0
M  V30 10495 N 1015.45 0.186762 -1.56489 0
M  V30 10496 C 1016.68 0.925916 -1.85584 0
M  V30 10497 C 1017.1 1.75708 -0.671446 0
M  V30 10498 O 1016.46 1.7728 0.379687 0
M  V30 10499 C 1016.51 1.79107 -3.12975 0
M  V30 10500 O 1015.61 2.89088 -2.94112 0
M  V30 10501 H 1014.96 0.260275 -0.610863 0
M  V30 10502 H 1017.49 0.189561 -2.0372 0
M  V30 10503 H 1017.5 2.19408 -3.43983 0
M  V30 10504 H 1016.17 1.18044 -3.98796 0
M  V30 10505 H 1014.75 2.52482 -2.74422 0
M  V30 10506 N 1016.93 1.50896 0.454776 0
M  V30 10507 C 1017.86 1.73885 1.5584 0
M  V30 10508 C 1018.84 0.588172 1.59607 0
M  V30 10509 O 1020.03 0.829054 1.75614 0
M  V30 10510 C 1017.16 1.84796 2.94054 0
M  V30 10511 C 1016.11 3.00111 3.05152 0
M  V30 10512 C 1015.44 2.96183 4.45174 0
M  V30 10513 C 1016.74 4.40365 2.80849 0
M  V30 10514 H 1018.43 2.66292 1.36854 0
M  V30 10515 H 1015.98 1.28142 0.656936 0
M  V30 10516 H 1017.93 1.99462 3.71204 0
M  V30 10517 H 1016.66 0.890235 3.14233 0
M  V30 10518 H 1015.31 2.85121 2.30438 0
M  V30 10519 H 1014.96 1.98224 4.62295 0
M  V30 10520 H 1014.66 3.73608 4.53532 0
M  V30 10521 H 1016.19 3.1292 5.24322 0
M  V30 10522 H 1017.6 4.55795 3.47741 0
M  V30 10523 H 1016 5.19363 3.00636 0
M  V30 10524 H 1017.07 4.51606 1.76579 0
M  V30 10525 N 1018.41 -0.709066 1.40748 0
M  V30 10526 C 1019.34 -1.83583 1.4429 0
M  V30 10527 C 1020.32 -1.67378 0.303067 0
M  V30 10528 O 1021.51 -1.87312 0.512612 0
M  V30 10529 C 1018.64 -3.21599 1.31116 0
M  V30 10530 C 1017.59 -3.52486 2.4277 0
M  V30 10531 C 1016.92 -4.89716 2.14668 0
M  V30 10532 C 1018.22 -3.52824 3.85113 0
M  V30 10533 H 1019.91 -1.80876 2.38588 0
M  V30 10534 H 1017.46 -0.868795 1.14839 0
M  V30 10535 H 1019.41 -4.00123 1.32209 0
M  V30 10536 H 1018.13 -3.24898 0.332965 0
M  V30 10537 H 1016.79 -2.76305 2.40937 0
M  V30 10538 H 1016.44 -4.89625 1.15224 0
M  V30 10539 H 1016.14 -5.11347 2.89478 0
M  V30 10540 H 1017.66 -5.70566 2.17455 0
M  V30 10541 H 1019.08 -4.21377 3.88734 0
M  V30 10542 H 1017.48 -3.85984 4.59496 0
M  V30 10543 H 1018.55 -2.52073 4.14231 0
M  V30 10544 N 1019.89 -1.26353 -0.941956 0
M  V30 10545 C 1020.8 -1.09618 -2.07415 0
M  V30 10546 C 1021.82 -0.0298963 -1.73974 0
M  V30 10547 O 1022.99 -0.233466 -2.00042 0
M  V30 10548 C 1020.06 -0.73013 -3.38925 0
M  V30 10549 C 1019.12 -1.87574 -3.86153 0
M  V30 10550 C 1018.35 -1.52706 -5.11387 0
M  V30 10551 O 1018.57 -0.428438 -5.68789 0
M  V30 10552 O 1017.51 -2.36154 -5.53638 0
M  V30 10553 H 1021.33 -2.04598 -2.2444 0
M  V30 10554 H 1018.92 -1.05407 -1.05876 0
M  V30 10555 H 1020.8 -0.538684 -4.17943 0
M  V30 10556 H 1019.48 0.190282 -3.2314 0
M  V30 10557 H 1018.38 -2.12214 -3.08084 0
M  V30 10558 H 1019.72 -2.77585 -4.06457 0
M  V30 10559 N 1021.37 1.14642 -1.08144 0
M  V30 10560 C 1022.33 2.17834 -0.712799 0
M  V30 10561 C 1023.33 1.58828 0.251041 0
M  V30 10562 O 1024.52 1.74173 0.0309381 0
M  V30 10563 C 1021.65 3.4086 -0.0519477 0
M  V30 10564 H 1022.85 2.51961 -1.62653 0
M  V30 10565 H 1020.4 1.29243 -0.878971 0
M  V30 10566 H 1021.13 3.12311 0.873636 0
M  V30 10567 H 1020.92 3.84952 -0.745286 0
M  V30 10568 H 1022.41 4.17163 0.191031 0
M  V30 10569 N 1022.85 0.866709 1.31628 0
M  V30 10570 C 1024.09 0.482479 1.98624 0
M  V30 10571 C 1024.45 -0.946844 1.6703 0
M  V30 10572 O 1025.65 -1.43626 2.27212 0
M  V30 10573 C 1023.92 0.728582 3.49895 0
M  V30 10574 S 1025.48 0.443724 4.36551 0
M  V30 10575 H 1022.3 0.180238 0.687776 0
M  V30 10576 H 1024.9 1.12203 1.60096 0
M  V30 10577 H 1023.6 1.76769 3.70379 0
M  V30 10578 H 1023.14 0.075903 3.93327 0
M  V30 10579 H 1025.15 -0.72534 4.9087 0
M  V30 10580 N 1024.32 -1.44642 0.625825 0
M  V30 10581 C 1025.55 -2.06458 0.135116 0
M  V30 10582 C 1025.97 -1.46729 -1.18811 0
M  V30 10583 O 1025.32 -0.58818 -1.72762 0
M  V30 10584 C 1025.37 -3.61499 0.00850114 0
M  V30 10585 O 1025.1 -4.19002 1.2794 0
M  V30 10586 C 1026.6 -4.40339 -0.511527 0
M  V30 10587 H 1023.82 -0.666541 0.0772294 0
M  V30 10588 H 1026.36 -1.85597 0.858726 0
M  V30 10589 H 1024.52 -3.81641 -0.665522 0
M  V30 10590 H 1024.93 -5.12385 1.12081 0
M  V30 10591 H 1026.4 -5.49262 -0.549149 0
M  V30 10592 H 1026.88 -4.11409 -1.53752 0
M  V30 10593 H 1027.49 -4.25104 0.129066 0
M  V30 10594 N 1025.8 -0.366053 -1.5329 0
M  V30 10595 C 1027.05 0.223493 -2.01263 0
M  V30 10596 C 1027.38 1.48736 -1.25331 0
M  V30 10597 O 1026.63 1.92805 -0.335341 0
M  V30 10598 C 1026.93 0.560906 -3.52971 0
M  V30 10599 C 1026.6 -0.60869 -4.46773 0
M  V30 10600 C 1025.26 -0.929609 -4.72135 0
M  V30 10601 C 1027.61 -1.39225 -5.02261 0
M  V30 10602 C 1024.94 -2.03606 -5.50238 0
M  V30 10603 C 1027.29 -2.48912 -5.81572 0
M  V30 10604 C 1025.95 -2.81538 -6.05221 0
M  V30 10605 H 1025.22 0.0817818 -0.736473 0
M  V30 10606 H 1027.87 -0.498613 -1.84895 0
M  V30 10607 H 1026.18 1.36403 -3.67289 0
M  V30 10608 H 1027.87 1.02931 -3.87564 0
M  V30 10609 H 1024.46 -0.348529 -4.27181 0
M  V30 10610 H 1028.65 -1.15757 -4.82612 0
M  V30 10611 H 1023.9 -2.29281 -5.6678 0
M  V30 10612 H 1028.08 -3.10044 -6.23575 0
M  V30 10613 H 1025.7 -3.67396 -6.65525 0
M  V30 10614 N 1027.28 1.57312 -0.0952337 0
M  V30 10615 C 1028.7 1.57445 0.261416 0
M  V30 10616 C 1028.9 1.10639 1.68408 0
M  V30 10617 O 1027.95 0.782912 2.40056 0
M  V30 10618 C 1029.26 3.00659 0.0497206 0
M  V30 10619 C 1030.81 3.1278 0.117459 0
M  V30 10620 C 1031.29 4.57952 -0.0662441 0
M  V30 10621 N 1032.78 4.63199 -0.0114146 0
M  V30 10622 C 1033.51 5.73255 -0.128799 0
M  V30 10623 N 1033.01 6.92146 -0.301026 0
M  V30 10624 N 1034.8 5.62056 -0.0700599 0
M  V30 10625 H 1026.95 1.86045 -1.02475 0
M  V30 10626 H 1029.22 0.858726 -0.401614 0
M  V30 10627 H 1028.92 3.39102 -0.932888 0
M  V30 10628 H 1028.8 3.68792 0.791975 0
M  V30 10629 H 1031.18 2.74209 1.09057 0
M  V30 10630 H 1031.26 2.47238 -0.656288 0
M  V30 10631 H 1030.91 4.97217 -1.03623 0
M  V30 10632 H 1030.84 5.21555 0.727198 0
M  V30 10633 H 1033.33 3.77712 0.119154 0
M  V30 10634 H 1033.64 7.71855 -0.382104 0
M  V30 10635 H 1031.99 6.94184 -0.336695 0
M  V30 10636 H 1035.18 4.68057 0.0633587 0
M  V30 10637 H 1035.35 6.4779 -0.164991 0
M  V30 10638 N 1028.76 -0.17846 1.56586 0
M  V30 10639 C 1030.17 -0.529957 1.50544 0
M  V30 10640 C 1030.37 -1.85015 0.798237 0
M  V30 10641 O 1029.43 -2.49983 0.355639 0
M  V30 10642 C 1030.74 -0.569314 2.95261 0
M  V30 10643 C 1032.29 -0.657008 3.06027 0
M  V30 10644 C 1032.77 -0.727323 4.52188 0
M  V30 10645 N 1034.26 -0.790406 4.56406 0
M  V30 10646 C 1034.99 -0.865265 5.66834 0
M  V30 10647 N 1034.49 -0.901398 6.86911 0
M  V30 10648 N 1036.28 -0.903736 5.54787 0
M  V30 10649 H 1028.43 0.687304 2.00972 0
M  V30 10650 H 1030.69 0.246936 0.915274 0
M  V30 10651 H 1030.4 0.331934 3.5013 0
M  V30 10652 H 1030.27 -1.41828 3.4952 0
M  V30 10653 H 1032.66 -1.54868 2.51197 0
M  V30 10654 H 1032.74 0.218495 2.54865 0
M  V30 10655 H 1032.39 0.160067 5.07648 0
M  V30 10656 H 1032.32 -1.61887 5.01099 0
M  V30 10657 H 1034.81 -0.771054 3.6995 0
M  V30 10658 H 1035.12 -0.959494 7.6682 0
M  V30 10659 H 1033.47 -0.869795 6.89536 0
M  V30 10660 H 1036.66 -0.872459 4.59898 0
M  V30 10661 H 1036.83 -0.958615 6.4087 0
M  V30 10662 N 1030.24 -1.51135 -0.446768 0
M  V30 10663 C 1031.65 -1.55919 -1.02694 0
M  V30 10664 C 1032 -0.377038 -1.92543 0
M  V30 10665 O 1031.12 0.507295 -2.1037 0
M  V30 10666 C 1031.72 -2.8257 -1.86922 0
M  V30 10667 C 1030.28 -2.89956 -2.40005 0
M  V30 10668 C 1029.42 -2.50482 -1.18971 0
M  V30 10669 H 1032.37 -1.57048 -0.228403 0
M  V30 10670 H 1032.4 -2.65799 -2.7227 0
M  V30 10671 H 1031.91 -3.6859 -1.21502 0
M  V30 10672 H 1030.01 -2.08343 -3.08907 0
M  V30 10673 H 1030.12 -3.93399 -2.73448 0
M  V30 10674 H 1028.49 -2.03466 -1.53211 0
M  V30 10675 H 1029.27 -3.38837 -0.551762 0
M  V30 10676 O 1031.75 0.592472 -1.5024 0
M  V30 10677 H 1032.44 1.2473 -1.48196 0
M  V30 END ATOM
M  V30 BEGIN BOND
M  V30 END BOND
M  V30 END CTAB
M  END
$$$$
