drugbank_target|Q8I814 Putative pteridine reductase 2 (DB02015; DB03461)
 OpenBabel12092120243D

  0  0  0     0  0            999 V3000
M  V30 BEGIN CTAB
M  V30 COUNTS 4105 4141 0 0 0
M  V30 BEGIN ATOM
M  V30 1 H -0.908 1.98254 -0.117106 0
M  V30 2 N 0 1.576 0 0
M  V30 3 C 0.933 2.03868 1.02534 0
M  V30 4 C 1.911 0.928543 1.3348 0
M  V30 5 O 3.095 1.19667 1.45644 0
M  V30 6 C 0.222 2.43627 2.35294 0
M  V30 7 C -0.732 3.65373 2.2001 0
M  V30 8 S 0.101 5.13292 1.52614 0
M  V30 9 C 1.257 5.56322 2.86805 0
M  V30 10 H 1.49 2.90518 0.631377 0
M  V30 11 H -0.977 1.52953 0.210867 0
M  V30 12 H 0.981 2.67203 3.11629 0
M  V30 13 H -0.358 1.57376 2.7183 0
M  V30 14 H -1.165 3.90944 3.18086 0
M  V30 15 H -1.563 3.418 1.51819 0
M  V30 16 H 0.729 5.58782 3.83104 0
M  V30 17 H 1.672 6.56266 2.65933 0
M  V30 18 H 2.08 4.83886 2.90714 0
M  V30 19 N 1.4781 -0.272755 1.55222 0
M  V30 20 C 2.4261 -1.35705 1.88909 0
M  V30 21 C 3.4201 -1.5112 0.765456 0
M  V30 22 O 4.6261 -1.52901 0.949802 0
M  V30 23 H 1.0011 -0.453868 0.59959 0
M  V30 24 H 2.9721 -1.04544 2.79487 0
M  V30 25 C 1.7211 -2.71049 2.17779 0
M  V30 26 H 1.0441 -2.59979 3.03728 0
M  V30 27 H 2.4841 -3.45858 2.45272 0
M  V30 28 C 0.9431 -3.22165 0.985473 0
M  V30 29 O 1.4731 -4.01096 0.220233 0
M  V30 30 N -0.3209 -2.7985 0.783108 0
M  V30 31 H -0.7739 -2.15775 1.40708 0
M  V30 32 H -0.8159 -3.14397 -0.0130392 0
M  V30 33 N 2.9562 -1.48159 -0.537278 0
M  V30 34 C 3.8662 -1.64807 -1.6696 0
M  V30 35 C 4.8822 -0.530651 -1.65711 0
M  V30 36 O 6.0582 -0.800784 -1.84796 0
M  V30 37 C 3.1232 -1.67708 -3.03438 0
M  V30 38 C 2.1842 -2.91025 -3.156 0
M  V30 39 C 1.4172 -2.93778 -4.45567 0
M  V30 40 O 1.6402 -2.05153 -5.3223 0
M  V30 41 O 0.5742 -3.85868 -4.61941 0
M  V30 42 H 4.4002 -2.6066 -1.55853 0
M  V30 43 H 1.9852 -1.31475 -0.709549 0
M  V30 44 H 3.8672 -1.7218 -3.84619 0
M  V30 45 H 2.5422 -0.750278 -3.14885 0
M  V30 46 H 1.4492 -2.92089 -2.33741 0
M  V30 47 H 2.7822 -3.83065 -3.09066 0
M  V30 48 N 4.4343 0.785586 -1.36625 0
M  V30 49 C 5.6623 1.57448 -1.3423 0
M  V30 50 C 6.0773 1.88649 0.0755653 0
M  V30 51 O 5.4343 1.50414 1.03354 0
M  V30 52 C 5.4853 2.89316 -2.16745 0
M  V30 53 O 5.2063 2.59459 -3.53005 0
M  V30 54 C 6.7073 3.83606 -2.22174 0
M  V30 55 H 3.9273 0.488226 -0.4603 0
M  V30 56 H 6.4713 0.974733 -1.79775 0
M  V30 57 H 4.6263 3.4575 -1.74745 0
M  V30 58 H 5.0403 3.43804 -3.96105 0
M  V30 59 H 6.5143 4.73181 -2.8426 0
M  V30 60 H 6.9913 4.21734 -1.22627 0
M  V30 61 H 7.5973 3.33104 -2.64427 0
M  V30 62 N 5.9124 1.20967 1.01018 0
M  V30 63 C 7.1374 1.0503 1.78839 0
M  V30 64 C 7.5624 -0.395752 1.8389 0
M  V30 65 O 6.9204 -1.28529 1.27867 0
M  V30 66 C 6.9684 1.64602 3.2084 0
M  V30 67 O 6.0724 0.887988 4.02726 0
M  V30 68 H 5.4134 0.369987 0.551367 0
M  V30 69 H 7.9434 1.60399 1.27018 0
M  V30 70 H 7.9534 1.68607 3.71532 0
M  V30 71 H 6.6284 2.69841 3.16479 0
M  V30 72 H 5.2054 0.922648 3.61305 0
M  V30 73 N 7.3905 -1.2043 1.01659 0
M  V30 74 C 8.3405 -2.21076 0.557623 0
M  V30 75 C 9.3245 -1.56176 -0.387029 0
M  V30 76 O 10.5165 -1.7575 -0.209996 0
M  V30 77 C 7.6455 -3.43146 -0.102707 0
M  V30 78 C 6.7315 -4.15213 0.863652 0
M  V30 79 N 7.1225 -4.63662 2.02117 0
M  V30 80 C 5.4205 -4.40716 0.684472 0
M  V30 81 C 6.1215 -5.18868 2.62966 0
M  V30 82 N 5.0975 -5.0893 1.91027 0
M  V30 83 H 8.8995 -2.56201 1.44008 0
M  V30 84 H 6.4135 -1.36366 0.881931 0
M  V30 85 H 8.4105 -4.14475 -0.449054 0
M  V30 86 H 7.0705 -3.09526 -0.981003 0
M  V30 87 H 8.0815 -4.58877 2.40109 0
M  V30 88 H 4.7585 -4.17245 -0.14577 0
M  V30 89 H 6.1485 -5.6673 3.60924 0
M  V30 90 N 8.8686 -0.792821 -1.36206 0
M  V30 91 C 9.7786 -0.194808 -2.3379 0
M  V30 92 C 10.7946 0.654869 -1.61206 0
M  V30 93 O 11.9706 0.569856 -1.9317 0
M  V30 94 C 9.0356 0.657721 -3.40404 0
M  V30 95 C 8.0966 -0.210849 -4.28782 0
M  V30 96 C 7.3296 0.601086 -5.30304 0
M  V30 97 O 7.5526 1.83682 -5.40016 0
M  V30 98 O 6.4866 -0.000808277 -6.019 0
M  V30 99 H 10.3126 -1.00172 -2.86704 0
M  V30 100 H 7.8976 -0.554341 -1.38735 0
M  V30 101 H 9.7796 1.14375 -4.05581 0
M  V30 102 H 8.4546 1.44247 -2.89784 0
M  V30 103 H 7.3616 -0.743714 -3.66633 0
M  V30 104 H 8.6946 -0.959195 -4.82763 0
M  V30 105 N 10.3467 1.47872 -0.545128 0
M  V30 106 C 11.3097 2.28337 0.198717 0
M  V30 107 C 12.3097 1.36255 0.853888 0
M  V30 108 O 13.4997 1.59003 0.711606 0
M  V30 109 C 10.6317 3.15585 1.28915 0
M  V30 110 H 11.8247 2.95567 -0.507941 0
M  V30 111 H 9.3777 1.53362 -0.301616 0
M  V30 112 H 10.1127 2.53019 2.02859 0
M  V30 113 H 9.8977 3.83337 0.824309 0
M  V30 114 H 11.3877 3.76243 1.81194 0
M  V30 115 N 11.8248 0.280983 1.55075 0
M  V30 116 C 13.0498 -0.340154 2.04592 0
M  V30 117 C 13.4748 -1.48246 1.15779 0
M  V30 118 O 12.8328 -1.80614 0.15761 0
M  V30 119 C 12.8808 -0.793104 3.5177 0
M  V30 120 O 11.9848 -1.89981 3.66034 0
M  V30 121 H 11.3258 -0.0694289 0.66036 0
M  V30 122 H 13.8558 0.416993 2.00306 0
M  V30 123 H 13.8658 -1.08729 3.93245 0
M  V30 124 H 12.5408 0.0426163 4.15878 0
M  V30 125 H 11.1178 -1.60771 3.36463 0
M  V30 126 N 13.3029 -1.57598 0.00835791 0
M  V30 127 C 14.2129 -2.12385 -0.996487 0
M  V30 128 C 15.2289 -1.07108 -1.37127 0
M  V30 129 O 16.4049 -1.39055 -1.4569 0
M  V30 130 C 13.4699 -2.62314 -2.26699 0
M  V30 131 C 12.5309 -3.82225 -1.95456 0
M  V30 132 C 11.7639 -4.29763 -3.16449 0
M  V30 133 O 11.9869 -3.76584 -4.28416 0
M  V30 134 O 10.9209 -5.21832 -2.99958 0
M  V30 135 H 14.7469 -2.98479 -0.560725 0
M  V30 136 H 12.3319 -1.47903 -0.210987 0
M  V30 137 H 14.2139 -2.94589 -3.01322 0
M  V30 138 H 12.8889 -1.79313 -2.69497 0
M  V30 139 H 11.7959 -3.54909 -1.18282 0
M  V30 140 H 13.1289 -4.66324 -1.57489 0
M  V30 141 N 14.781 0.264519 -1.55364 0
M  V30 142 C 16.021 1.00254 -1.78125 0
M  V30 143 C 16.385 1.83187 -0.575017 0
M  V30 144 O 17.586 2.60029 -0.681042 0
M  V30 145 C 15.857 1.85478 -3.05504 0
M  V30 146 S 17.416 2.6543 -3.49417 0
M  V30 147 H 14.234 0.337522 -0.625779 0
M  V30 148 H 16.836 0.272111 -1.93597 0
M  V30 149 H 15.54 1.23491 -3.9138 0
M  V30 150 H 15.071 2.62827 -2.92721 0
M  V30 151 H 17.086 3.87958 -3.09359 0
M  V30 152 N 16.2591 1.48442 0.529413 0
M  V30 153 C 17.6701 1.5002 1.11134 0
M  V30 154 C 18.0211 0.27031 1.94329 0
M  V30 155 O 17.1461 -0.622507 2.07253 0
M  V30 156 C 17.7411 2.71834 2.02217 0
M  V30 157 C 16.3001 2.76283 2.55627 0
M  V30 158 C 15.4471 2.43542 1.326 0
M  V30 159 H 18.3981 1.5555 0.314641 0
M  V30 160 H 18.4191 2.50384 2.8651 0
M  V30 161 H 17.9311 3.61331 1.41639 0
M  V30 162 H 16.0321 1.90995 3.19924 0
M  V30 163 H 16.1451 3.77725 2.94721 0
M  V30 164 H 14.5091 1.94709 1.64196 0
M  V30 165 H 15.2921 3.3528 0.737734 0
M  V30 166 N 17.7372 -0.778329 1.37039 0
M  V30 167 C 18.7002 -1.87301 1.32102 0
M  V30 168 C 19.7002 -1.59198 0.226405 0
M  V30 169 O 20.8902 -1.67403 0.481861 0
M  V30 170 C 18.0222 -3.24309 1.05055 0
M  V30 171 H 19.2152 -1.93093 2.29467 0
M  V30 172 H 16.7682 -0.977358 1.21973 0
M  V30 173 H 17.5032 -3.24196 0.0819373 0
M  V30 174 H 17.2882 -3.46098 1.84279 0
M  V30 175 H 18.7782 -4.04382 1.04234 0
M  V30 176 N 19.2153 -1.21501 -1.00376 0
M  V30 177 C 20.1783 -0.976927 -2.07337 0
M  V30 178 C 21.1783 0.0525322 -1.60714 0
M  V30 179 O 22.3683 -0.184869 -1.73216 0
M  V30 180 C 19.5003 -0.473423 -3.37597 0
M  V30 181 H 20.6933 -1.92587 -2.29892 0
M  V30 182 H 18.2463 -1.03217 -1.17371 0
M  V30 183 H 18.9813 0.480379 -3.20722 0
M  V30 184 H 18.7663 -1.216 -3.72768 0
M  V30 185 H 20.2563 -0.32675 -4.1632 0
M  V30 186 N 20.6934 1.19889 -1.02296 0
M  V30 187 C 21.9424 1.88743 -0.711257 0
M  V30 188 C 22.2554 1.80112 0.762817 0
M  V30 189 O 23.4614 2.44161 1.18733 0
M  V30 190 C 21.9174 3.38525 -1.22185 0
M  V30 191 C 21.5254 3.55727 -2.72328 0
M  V30 192 C 23.2694 4.12893 -0.985864 0
M  V30 193 C 21.1764 4.99369 -3.16835 0
M  V30 194 H 20.1064 0.706885 -0.262353 0
M  V30 195 H 22.7574 1.35586 -1.23648 0
M  V30 196 H 21.1394 3.91044 -0.624571 0
M  V30 197 H 22.3134 3.13564 -3.3766 0
M  V30 198 H 20.6284 2.94739 -2.9414 0
M  V30 199 H 23.2254 5.18813 -1.29374 0
M  V30 200 H 23.5684 4.16228 0.0775055 0
M  V30 201 H 24.1014 3.66494 -1.54684 0
M  V30 202 H 20.8404 5.01193 -4.22476 0
M  V30 203 H 20.3604 5.42317 -2.56228 0
M  V30 204 H 22.0394 5.67988 -3.09837 0
M  V30 205 N 22.1715 0.800033 1.35784 0
M  V30 206 C 23.4205 0.37387 1.98205 0
M  V30 207 C 23.7335 -1.06302 1.64193 0
M  V30 208 O 24.9395 -1.59198 2.19928 0
M  V30 209 C 23.3955 0.617532 3.54562 0
M  V30 210 C 23.0035 2.06654 3.9749 0
M  V30 211 C 24.7475 0.256401 4.23725 0
M  V30 212 C 22.6545 2.2563 5.46667 0
M  V30 213 H 21.5845 0.136055 0.741623 0
M  V30 214 H 24.2355 0.983166 1.54939 0
M  V30 215 H 22.6175 -0.0616248 3.95952 0
M  V30 216 H 23.7915 2.78296 3.67271 0
M  V30 217 H 22.1065 2.38691 3.41197 0
M  V30 218 H 24.7035 0.376318 5.33374 0
M  V30 219 H 25.0465 -0.796692 4.08606 0
M  V30 220 H 25.5795 0.889214 3.87734 0
M  V30 221 H 22.3185 3.2936 5.66747 0
M  V30 222 H 21.8385 1.58504 5.78478 0
M  V30 223 H 23.5175 2.06861 6.1304 0
M  V30 224 N 23.6496 -1.47581 0.552962 0
M  V30 225 C 24.8776 -2.06875 0.0320556 0
M  V30 226 C 25.2926 -1.40625 -1.25976 0
M  V30 227 O 24.6496 -0.501349 -1.75479 0
M  V30 228 C 24.7006 -3.61092 -0.17167 0
M  V30 229 O 24.4216 -4.24858 1.06899 0
M  V30 230 C 25.9226 -4.37242 -0.730344 0
M  V30 231 H 23.1426 -0.669561 0.043915 0
M  V30 232 H 25.6866 -1.89646 0.765163 0
M  V30 233 H 23.8416 -3.7785 -0.854894 0
M  V30 234 H 24.2556 -5.17334 0.864059 0
M  V30 235 H 25.7296 -5.45842 -0.822203 0
M  V30 236 H 26.2066 -4.03235 -1.74064 0
M  V30 237 H 26.8126 -4.25219 -0.0829543 0
M  V30 238 N 25.1277 -0.289203 -1.54924 0
M  V30 239 C 26.3757 0.322879 -1.99504 0
M  V30 240 C 26.6967 1.55313 -1.1791 0
M  V30 241 O 25.9667 1.94001 -0.272097 0
M  V30 242 H 24.5467 0.122291 -0.736922 0
M  V30 243 H 27.2087 -0.397802 -1.90797 0
M  V30 244 H 26.3047 0.603061 -3.06218 0
M  V30 245 N 26.6058 1.57591 -0.0167156 0
M  V30 246 C 27.8538 1.90906 0.663285 0
M  V30 247 C 28.1748 0.892509 1.73376 0
M  V30 248 O 27.4448 -0.0677623 1.95783 0
M  V30 249 H 26.0248 0.704637 0.247983 0
M  V30 250 H 28.6868 1.94803 -0.0615909 0
M  V30 251 H 27.7828 2.9116 1.12393 0
M  V30 252 N 28.0839 -0.256276 1.55502 0
M  V30 253 C 29.0469 -1.30047 1.88734 0
M  V30 254 C 30.0469 -1.4154 0.763086 0
M  V30 255 O 31.2369 -1.40403 1.03115 0
M  V30 256 C 28.3689 -2.67953 2.10747 0
M  V30 257 H 29.5619 -1.01802 2.82093 0
M  V30 258 H 27.1149 -0.495134 1.4825 0
M  V30 259 H 27.8499 -3.01351 1.19825 0
M  V30 260 H 27.6349 -2.60993 2.92617 0
M  V30 261 H 29.1249 -3.43368 2.37673 0
M  V30 262 N 29.562 -1.4872 -0.521534 0
M  V30 263 C 30.978 -1.35028 -0.850855 0
M  V30 264 C 31.178 -0.367712 -1.98116 0
M  V30 265 O 30.234 0.208037 -2.51642 0
M  V30 266 C 31.547 -2.75263 -1.21041 0
M  V30 267 C 33.095 -2.83813 -1.31981 0
M  V30 268 C 33.57 -4.24769 -1.71276 0
M  V30 269 N 35.061 -4.27482 -1.78363 0
M  V30 270 C 35.796 -5.33494 -2.1017 0
M  V30 271 N 35.292 -6.49775 -2.40343 0
M  V30 272 N 37.085 -5.20894 -2.11248 0
M  V30 273 H 29.236 -2.11214 0.22413 0
M  V30 274 H 31.499 -0.947252 0.0376439 0
M  V30 275 H 31.205 -3.48765 -0.453415 0
M  V30 276 H 31.079 -3.09327 -2.15863 0
M  V30 277 H 33.466 -2.10561 -2.06756 0
M  V30 278 H 33.547 -2.53358 -0.352596 0
M  V30 279 H 33.191 -4.9854 -0.970588 0
M  V30 280 H 33.121 -4.52673 -2.69062 0
M  V30 281 H 35.612 -3.43611 -1.57288 0
M  V30 282 H 35.925 -7.26402 -2.63743 0
M  V30 283 H 34.27 -6.53035 -2.37844 0
M  V30 284 H 37.461 -4.29065 -1.87139 0
M  V30 285 H 37.634 -6.03612 -2.35704 0
M  V30 286 N 31.0401 0.771051 -1.3745 0
M  V30 287 C 32.4561 1.07171 -1.18265 0
M  V30 288 C 32.6561 2.01491 -0.019287 0
M  V30 289 O 31.7121 2.44244 0.640408 0
M  V30 290 C 33.0251 1.66854 -2.50161 0
M  V30 291 C 34.5731 1.79109 -2.56689 0
M  V30 292 C 35.0481 2.42205 -3.88717 0
M  V30 293 N 36.5391 2.49655 -3.90162 0
M  V30 294 C 37.2741 2.9933 -4.8907 0
M  V30 295 N 36.7701 3.49172 -5.98374 0
M  V30 296 N 38.5631 2.9821 -4.76474 0
M  V30 297 H 30.7141 0.144796 -2.11906 0
M  V30 298 H 32.9771 0.126863 -0.939473 0
M  V30 299 H 32.6831 1.05017 -3.35655 0
M  V30 300 H 32.5571 2.6614 -2.673 0
M  V30 301 H 34.9441 2.40077 -1.71601 0
M  V30 302 H 35.0251 0.785757 -2.43433 0
M  V30 303 H 34.6691 1.81875 -4.74219 0
M  V30 304 H 34.5991 3.43345 -3.99276 0
M  V30 305 H 37.0901 2.14383 -3.11205 0
M  V30 306 H 37.4031 3.8548 -6.69795 0
M  V30 307 H 35.7481 3.47275 -6.02018 0
M  V30 308 H 38.9391 2.58572 -3.90203 0
M  V30 309 H 39.1121 3.36613 -5.53711 0
M  V30 310 N 32.5182 1.22032 0.997298 0
M  V30 311 C 33.7672 1.03637 1.73038 0
M  V30 312 C 34.0802 -0.429475 1.90827 0
M  V30 313 O 35.2862 -0.732995 2.61418 0
M  V30 314 C 33.7422 1.80582 3.11317 0
M  V30 315 C 33.3502 3.31387 3.01474 0
M  V30 316 C 35.0942 1.70621 3.88701 0
M  V30 317 C 33.0012 4.00791 4.3488 0
M  V30 318 H 31.9312 0.384179 0.648785 0
M  V30 319 H 34.5822 1.4584 1.11368 0
M  V30 320 H 32.9642 1.31175 3.73643 0
M  V30 321 H 34.1382 3.88155 2.4834 0
M  V30 322 H 32.4532 3.41976 2.37575 0
M  V30 323 H 35.0502 2.19799 4.87434 0
M  V30 324 H 35.3932 0.665823 4.10941 0
M  V30 325 H 35.9262 2.17547 3.33044 0
M  V30 326 H 32.6652 5.05064 4.1784 0
M  V30 327 H 32.1852 3.48811 4.87945 0
M  V30 328 H 33.8642 4.06139 5.03647 0
M  V30 329 N 33.9963 -1.19345 1.0293 0
M  V30 330 C 35.2443 -1.88665 0.724574 0
M  V30 331 C 35.5653 -1.80036 -0.749144 0
M  V30 332 O 34.8353 -1.2111 -1.53978 0
M  V30 333 H 33.4153 -0.698406 0.265025 0
M  V30 334 H 36.0773 -1.44885 1.30362 0
M  V30 335 H 35.1733 -2.94987 1.01926 0
M  V30 336 N 35.4744 -0.807222 -1.35358 0
M  V30 337 C 36.4244 -0.190706 -2.27201 0
M  V30 338 C 37.4084 0.635838 -1.47804 0
M  V30 339 O 38.6004 0.492991 -1.69996 0
M  V30 340 C 35.7294 0.659337 -3.36909 0
M  V30 341 C 34.8154 -0.176971 -4.23731 0
M  V30 342 N 35.2064 -1.24029 -4.90357 0
M  V30 343 C 33.5044 0.0412953 -4.45981 0
M  V30 344 C 34.2054 -1.75092 -5.54723 0
M  V30 345 N 33.1814 -1.05727 -5.33219 0
M  V30 346 H 36.9834 -1.0043 -2.76208 0
M  V30 347 H 34.4974 -0.648445 -1.48892 0
M  V30 348 H 36.4944 1.11706 -4.01656 0
M  V30 349 H 35.1544 1.47127 -2.89454 0
M  V30 350 H 36.1654 -1.62295 -4.91814 0
M  V30 351 H 32.8424 0.82232 -4.09322 0
M  V30 352 H 34.2324 -2.63963 -6.17878 0
M  V30 353 N 36.9525 1.47285 -0.560781 0
M  V30 354 C 38.1775 2.07359 -0.0410566 0
M  V30 355 C 38.6025 1.41017 1.24483 0
M  V30 356 O 37.9605 0.486368 1.74654 0
M  V30 357 C 38.0085 3.6035 0.134123 0
M  V30 358 O 37.1125 3.94681 1.19587 0
M  V30 359 H 36.4535 0.661887 -0.0529291 0
M  V30 360 H 38.9835 1.89252 -0.777482 0
M  V30 361 H 38.9935 4.0652 0.347207 0
M  V30 362 H 37.6685 4.08034 -0.805047 0
M  V30 363 H 36.2455 3.60251 0.962987 0
M  V30 364 N 38.4306 0.297415 1.54768 0
M  V30 365 C 39.6796 -0.313669 1.99246 0
M  V30 366 C 39.9926 -1.55281 1.18942 0
M  V30 367 O 41.1986 -2.23825 1.5367 0
M  V30 368 C 39.6546 -0.609407 3.54703 0
M  V30 369 C 39.2626 0.611192 4.43811 0
M  V30 370 C 41.0066 -1.18188 4.07715 0
M  V30 371 C 38.9136 0.288805 5.90694 0
M  V30 372 H 37.8436 -0.120979 0.744231 0
M  V30 373 H 40.4946 0.40556 1.78962 0
M  V30 374 H 38.8766 -1.38813 3.70873 0
M  V30 375 H 40.0506 1.3875 4.39414 0
M  V30 376 H 38.3656 1.10205 4.01552 0
M  V30 377 H 40.9626 -1.43727 5.15021 0
M  V30 378 H 41.3056 -2.12299 3.58099 0
M  V30 379 H 41.8386 -0.464944 3.95074 0
M  V30 380 H 38.5776 1.19838 6.44453 0
M  V30 381 H 38.0976 -0.450305 5.98107 0
M  V30 382 H 39.7766 -0.110933 6.46905 0
M  V30 383 N 39.9087 -1.5758 0.0250728 0
M  V30 384 C 40.8717 -2.08896 -0.943139 0
M  V30 385 C 41.8717 -1.00321 -1.25668 0
M  V30 386 O 43.0617 -1.26495 -1.19769 0
M  V30 387 C 40.1937 -2.55143 -2.26086 0
M  V30 388 H 41.3867 -2.95723 -0.498775 0
M  V30 389 H 38.9397 -1.54703 -0.222888 0
M  V30 390 H 39.6747 -1.71633 -2.75159 0
M  V30 391 H 39.4597 -3.34461 -2.04641 0
M  V30 392 H 40.9497 -2.95083 -2.95492 0
M  V30 393 N 41.3868 0.248026 -1.55636 0
M  V30 394 C 42.6328 0.97767 -1.77678 0
M  V30 395 C 42.9658 1.85016 -0.590135 0
M  V30 396 O 42.2408 1.90095 0.411611 0
M  V30 397 C 42.5238 1.83914 -3.09593 0
M  V30 398 C 42.3768 0.99491 -4.38659 0
M  V30 399 C 43.6958 2.82183 -3.37729 0
M  V30 400 H 40.8148 0.354005 -0.646413 0
M  V30 401 H 43.4568 0.248253 -1.88371 0
M  V30 402 H 41.6068 2.46104 -3.00608 0
M  V30 403 H 43.2788 0.391789 -4.59633 0
M  V30 404 H 41.5218 0.299231 -4.32767 0
M  V30 405 H 42.1928 1.63145 -5.2734 0
M  V30 406 H 44.6688 2.30129 -3.4667 0
M  V30 407 H 43.5448 3.39582 -4.31249 0
M  V30 408 H 43.8058 3.58588 -2.58586 0
M  V30 409 N 42.8649 1.48995 0.513639 0
M  V30 410 C 44.2809 1.35478 0.843682 0
M  V30 411 C 44.4809 0.378213 1.97919 0
M  V30 412 O 43.5369 -0.194689 2.51748 0
M  V30 413 C 44.8499 2.75901 1.1958 0
M  V30 414 C 46.3979 2.84509 1.30474 0
M  V30 415 C 46.8729 4.25671 1.69021 0
M  V30 416 N 48.3639 4.28422 1.76094 0
M  V30 417 C 49.0989 5.34601 2.07338 0
M  V30 418 N 48.5949 6.5104 2.36894 0
M  V30 419 N 50.3879 5.22007 2.08483 0
M  V30 420 H 42.5389 2.11092 -0.235328 0
M  V30 421 H 44.8019 0.947039 -0.0426669 0
M  V30 422 H 44.5079 3.49001 0.434913 0
M  V30 423 H 44.3819 3.10467 2.1422 0
M  V30 424 H 46.7689 2.11655 2.05637 0
M  V30 425 H 46.8499 2.53542 0.339155 0
M  V30 426 H 46.4939 4.99048 0.944135 0
M  V30 427 H 46.4239 4.54094 2.66658 0
M  V30 428 H 48.9149 3.44441 1.55464 0
M  V30 429 H 49.2279 7.2779 2.59887 0
M  V30 430 H 47.5729 6.54287 2.34378 0
M  V30 431 H 50.7639 4.30051 1.84861 0
M  V30 432 H 50.9369 6.04854 2.325 0
M  V30 433 N 44.343 -0.763751 1.37857 0
M  V30 434 C 45.273 -1.89103 1.36975 0
M  V30 435 C 46.254 -1.68439 0.237152 0
M  V30 436 O 47.439 -1.8918 0.438713 0
M  V30 437 C 44.569 -3.26496 1.18395 0
M  V30 438 C 43.523 -3.61741 2.28751 0
M  V30 439 C 42.849 -4.97762 1.95286 0
M  V30 440 C 44.149 -3.67665 3.70972 0
M  V30 441 H 45.843 -1.90099 2.31307 0
M  V30 442 H 43.389 -0.91319 1.11341 0
M  V30 443 H 45.342 -4.05003 1.16406 0
M  V30 444 H 44.066 -3.25955 0.205215 0
M  V30 445 H 42.725 -2.85547 2.29909 0
M  V30 446 H 42.373 -4.93769 0.959221 0
M  V30 447 H 42.073 -5.22313 2.69189 0
M  V30 448 H 43.597 -5.7866 1.94898 0
M  V30 449 H 45.011 -4.36307 3.719 0
M  V30 450 H 43.408 -4.03718 4.43995 0
M  V30 451 H 44.478 -2.68134 4.0402 0
M  V30 452 N 45.8211 -1.22559 -0.990812 0
M  V30 453 C 46.7711 -0.964807 -2.0658 0
M  V30 454 C 47.7551 0.0853472 -1.60673 0
M  V30 455 O 48.9471 -0.125443 -1.76555 0
M  V30 456 C 46.0761 -0.546707 -3.38919 0
M  V30 457 C 45.1621 -1.6317 -3.91454 0
M  V30 458 N 45.5531 -2.85985 -4.17189 0
M  V30 459 C 43.8511 -1.50387 -4.19881 0
M  V30 460 C 44.5521 -3.56159 -4.59919 0
M  V30 461 N 43.5281 -2.83637 -4.63736 0
M  V30 462 H 47.3301 -1.89769 -2.24421 0
M  V30 463 H 44.8441 -1.12343 -1.17273 0
M  V30 464 H 46.8411 -0.34119 -4.15502 0
M  V30 465 H 45.5011 0.379254 -3.22478 0
M  V30 466 H 46.5121 -3.22392 -4.05319 0
M  V30 467 H 43.1891 -0.644254 -4.12499 0
M  V30 468 H 44.5791 -4.6139 -4.88435 0
M  V30 469 N 47.2992 1.18797 -1.03562 0
M  V30 470 C 48.2312 2.21731 -0.580337 0
M  V30 471 C 49.2442 1.59051 0.347349 0
M  V30 472 O 50.4332 1.77929 0.142669 0
M  V30 473 C 47.5332 3.38459 0.172805 0
M  V30 474 C 46.7062 4.3072 -0.761496 0
M  V30 475 C 45.7652 5.26174 -0.0525547 0
M  V30 476 O 44.7912 5.65108 -0.681333 0
M  V30 477 N 45.9932 5.67624 1.21586 0
M  V30 478 H 48.7582 2.61417 -1.46565 0
M  V30 479 H 46.3192 1.33531 -0.915476 0
M  V30 480 H 48.3112 3.99335 0.656793 0
M  V30 481 H 46.8812 2.97507 0.959602 0
M  V30 482 H 46.1012 3.67525 -1.42544 0
M  V30 483 H 47.3892 4.89267 -1.39626 0
M  V30 484 H 46.7872 5.38038 1.74732 0
M  V30 485 H 45.3442 6.30721 1.64421 0
M  V30 486 N 48.7773 0.814389 1.34928 0
M  V30 487 C 49.7093 0.187834 2.28429 0
M  V30 488 C 50.7223 -0.617374 1.5064 0
M  V30 489 O 51.9113 -0.448454 1.72775 0
M  V30 490 C 49.0113 -0.755962 3.30361 0
M  V30 491 C 48.1843 0.00456686 4.374 0
M  V30 492 C 47.2433 -0.858876 5.19143 0
M  V30 493 O 46.2693 -0.306968 5.68372 0
M  V30 494 N 47.4713 -2.17988 5.38016 0
M  V30 495 H 50.2363 0.991105 2.82838 0
M  V30 496 H 47.7973 0.670561 1.4736 0
M  V30 497 H 49.7893 -1.338 3.81942 0
M  V30 498 H 48.3593 -1.46001 2.7641 0
M  V30 499 H 47.5793 0.767865 3.86649 0
M  V30 500 H 48.8673 0.528422 5.06049 0
M  V30 501 H 48.2653 -2.65212 4.99679 0
M  V30 502 H 46.8223 -2.71098 5.92747 0
M  V30 503 N 50.2554 -1.46986 0.568584 0
M  V30 504 C 51.5034 -2.02041 0.0487022 0
M  V30 505 C 51.8244 -1.44408 -1.31039 0
M  V30 506 O 51.0944 -0.623477 -1.85714 0
M  V30 507 H 49.6744 -0.746849 0.015014 0
M  V30 508 H 52.3364 -1.80257 0.741168 0
M  V30 509 H 51.4324 -3.12085 -0.0308961 0
M  V30 510 N 51.7335 -0.305618 -1.54608 0
M  V30 511 C 52.9805 0.302298 -2.00231 0
M  V30 512 C 53.3085 1.5354 -1.19398 0
M  V30 513 O 52.5635 1.93973 -0.259423 0
M  V30 514 C 52.8625 0.698983 -3.50498 0
M  V30 515 C 52.5285 -0.432903 -4.48817 0
M  V30 516 C 51.1905 -0.743622 -4.75419 0
M  V30 517 C 53.5425 -1.19409 -5.07337 0
M  V30 518 C 50.8705 -1.81857 -5.57804 0
M  V30 519 C 53.2225 -2.25899 -5.90891 0
M  V30 520 C 51.8865 -2.57572 -6.15803 0
M  V30 521 H 51.1565 0.110619 -0.732697 0
M  V30 522 H 53.8035 -0.425674 -1.86709 0
M  V30 523 H 52.1085 1.50711 -3.61654 0
M  V30 524 H 53.8055 1.1806 -3.83227 0
M  V30 525 H 50.3955 -0.18063 -4.28219 0
M  V30 526 H 54.5795 -0.967295 -4.86782 0
M  V30 527 H 49.8355 -2.06864 -5.75341 0
M  V30 528 H 54.0095 -2.85335 -6.35261 0
M  V30 529 H 51.6365 -3.40998 -6.7943 0
M  V30 530 N 53.2116 1.57565 -0.0334293 0
M  V30 531 C 54.6276 1.56297 0.322997 0
M  V30 532 C 54.8276 1.03945 1.7262 0
M  V30 533 O 53.8836 0.688109 2.42943 0
M  V30 534 C 55.1966 3.00232 0.167664 0
M  V30 535 C 56.7446 3.12078 0.240107 0
M  V30 536 C 57.2196 4.57859 0.113513 0
M  V30 537 N 58.7106 4.62887 0.170359 0
M  V30 538 C 59.4456 5.73319 0.0962517 0
M  V30 539 N 58.9416 6.92794 -0.0291881 0
M  V30 540 N 60.7346 5.61898 0.150551 0
M  V30 541 H 52.8856 1.89923 -0.950956 0
M  V30 542 H 55.1486 0.873824 -0.367608 0
M  V30 543 H 54.8546 3.42501 -0.799102 0
M  V30 544 H 54.7286 3.654 0.936083 0
M  V30 545 H 57.1156 2.69718 1.19733 0
M  V30 546 H 57.1966 2.49623 -0.558763 0
M  V30 547 H 56.8406 5.009 -0.840314 0
M  V30 548 H 56.7706 5.18299 0.931302 0
M  V30 549 H 59.2616 3.76954 0.26728 0
M  V30 550 H 59.5746 7.7276 -0.0789252 0
M  V30 551 H 57.9196 6.94971 -0.0640299 0
M  V30 552 H 61.1106 4.67448 0.246981 0
M  V30 553 H 61.2836 6.47938 0.0893365 0
M  V30 554 N 54.6897 -0.239769 1.55765 0
M  V30 555 C 55.9357 -0.968234 1.78194 0
M  V30 556 C 56.2687 -1.84701 0.599938 0
M  V30 557 O 55.5437 -1.9031 -0.401524 0
M  V30 558 C 55.8267 -1.8227 3.10564 0
M  V30 559 C 55.6797 -0.971633 4.3918 0
M  V30 560 C 56.9987 -2.80388 3.39221 0
M  V30 561 H 54.1177 -0.350572 0.648281 0
M  V30 562 H 56.7597 -0.238259 1.885 0
M  V30 563 H 54.9097 -2.44507 3.01908 0
M  V30 564 H 56.5817 -0.367408 4.59835 0
M  V30 565 H 54.8247 -0.276276 4.32919 0
M  V30 566 H 55.4957 -1.60346 5.28198 0
M  V30 567 H 57.9717 -2.28287 3.47885 0
M  V30 568 H 56.8477 -3.3729 4.33044 0
M  V30 569 H 57.1087 -3.57212 2.60484 0
M  V30 570 N 56.1678 -1.49265 -0.50573 0
M  V30 571 C 57.4138 -1.58748 -1.26202 0
M  V30 572 C 57.7468 -0.271227 -1.92297 0
M  V30 573 O 57.0218 0.724831 -1.80489 0
M  V30 574 C 57.3048 -2.74332 -2.33268 0
M  V30 575 C 57.1578 -4.15737 -1.71705 0
M  V30 576 C 58.4768 -2.85576 -3.34865 0
M  V30 577 H 55.5958 -0.577826 -0.457478 0
M  V30 578 H 58.2378 -1.81532 -0.560897 0
M  V30 579 H 56.3878 -2.55036 -2.93068 0
M  V30 580 H 58.0598 -4.46537 -1.15769 0
M  V30 581 H 56.3028 -4.21605 -1.02135 0
M  V30 582 H 56.9738 -4.92477 -2.49341 0
M  V30 583 H 59.4498 -3.03127 -2.8505 0
M  V30 584 H 58.3258 -3.68135 -4.07146 0
M  V30 585 H 58.5868 -1.94732 -3.96903 0
M  V30 586 N 57.6459 0.756429 -1.3826 0
M  V30 587 C 58.8919 1.51772 -1.34511 0
M  V30 588 C 59.2249 1.94089 0.0656691 0
M  V30 589 O 58.4999 1.65221 1.02626 0
M  V30 590 C 58.7829 2.77226 -2.29821 0
M  V30 591 C 58.6359 2.41065 -3.79747 0
M  V30 592 C 59.9549 3.79236 -2.23312 0
M  V30 593 H 57.0739 0.550578 -0.489931 0
M  V30 594 H 59.7159 0.866607 -1.69086 0
M  V30 595 H 57.8659 3.32784 -2.00467 0
M  V30 596 H 59.5379 1.91303 -4.19763 0
M  V30 597 H 57.7809 1.7356 -3.97567 0
M  V30 598 H 58.4519 3.3081 -4.41892 0
M  V30 599 H 60.9279 3.3321 -2.49219 0
M  V30 600 H 59.8039 4.64714 -2.92116 0
M  V30 601 H 60.0649 4.24615 -1.23102 0
M  V30 602 N 59.124 1.23083 0.984299 0
M  V30 603 C 60.074 0.975749 2.06066 0
M  V30 604 C 61.058 -0.0768251 1.60716 0
M  V30 605 O 62.25 0.134805 1.76486 0
M  V30 606 C 59.379 0.564673 3.38624 0
M  V30 607 C 58.465 1.65244 3.90583 0
M  V30 608 N 58.856 2.88193 4.15666 0
M  V30 609 C 57.154 1.52612 4.19077 0
M  V30 610 C 57.855 3.58593 4.58024 0
M  V30 611 N 56.831 2.86093 4.62225 0
M  V30 612 H 60.633 1.90957 2.23411 0
M  V30 613 H 58.147 1.12963 1.16675 0
M  V30 614 H 60.144 0.36322 4.15315 0
M  V30 615 H 58.804 -0.362147 3.22674 0
M  V30 616 H 59.815 3.24537 4.03604 0
M  V30 617 H 56.492 0.666121 4.12152 0
M  V30 618 H 57.882 4.63974 4.85982 0
M  V30 619 N 60.6021 -1.18246 1.0419 0
M  V30 620 C 61.8321 -1.91916 0.764961 0
M  V30 621 C 62.2401 -1.76485 -0.681898 0
M  V30 622 O 61.5831 -1.09275 -1.47664 0
M  V30 623 C 61.6451 -3.4373 1.05309 0
M  V30 624 C 61.3091 -3.8294 2.4941 0
M  V30 625 C 62.3061 -3.86621 3.47592 0
M  V30 626 C 59.9911 -4.142 2.84155 0
M  V30 627 C 61.9851 -4.21013 4.78568 0
M  V30 628 C 59.6721 -4.48262 4.15337 0
M  V30 629 C 60.6701 -4.51645 5.12353 0
M  V30 630 O 60.3581 -4.84911 6.41183 0
M  V30 631 H 60.0901 -0.61606 0.278292 0
M  V30 632 H 62.6441 -1.50947 1.39299 0
M  V30 633 H 60.8741 -3.84946 0.367933 0
M  V30 634 H 62.5631 -3.9865 0.763752 0
M  V30 635 H 63.3291 -3.62607 3.22089 0
M  V30 636 H 59.2081 -4.10743 2.09311 0
M  V30 637 H 62.7521 -4.23568 5.54289 0
M  V30 638 H 58.6491 -4.71737 4.40607 0
M  V30 639 H 59.4171 -5.02809 6.45852 0
M  V30 640 N 62.0802 -0.821533 -1.34494 0
M  V30 641 C 63.4962 -0.507117 -1.51329 0
M  V30 642 C 63.6962 0.968964 -1.76673 0
M  V30 643 O 62.7522 1.75348 -1.81685 0
M  V30 644 C 64.0652 -1.36544 -2.67911 0
M  V30 645 C 65.6132 -1.36242 -2.81793 0
M  V30 646 C 66.0882 -2.2052 -4.01416 0
M  V30 647 N 67.5792 -2.18136 -4.08621 0
M  V30 648 C 68.3142 -2.80095 -5.00334 0
M  V30 649 N 67.8102 -3.51039 -5.9728 0
M  V30 650 N 69.6032 -2.69656 -4.93196 0
M  V30 651 H 61.7542 -1.77729 -1.16302 0
M  V30 652 H 64.0172 -0.757291 -0.570276 0
M  V30 653 H 63.7232 -2.41361 -2.55808 0
M  V30 654 H 63.5972 -1.02917 -3.62888 0
M  V30 655 H 65.9842 -0.322041 -2.93338 0
M  V30 656 H 66.0652 -1.73866 -1.87628 0
M  V30 657 H 65.7092 -3.24607 -3.90631 0
M  V30 658 H 65.6392 -1.80247 -4.94791 0
M  V30 659 H 68.1302 -1.6653 -3.39229 0
M  V30 660 H 68.4432 -3.95565 -6.63889 0
M  V30 661 H 66.7882 -3.55145 -5.97409 0
M  V30 662 H 69.9792 -2.13808 -4.16418 0
M  V30 663 H 70.1522 -3.1823 -5.64476 0
M  V30 664 N 63.5583 1.46682 -0.576371 0
M  V30 665 C 64.5083 2.27278 0.181288 0
M  V30 666 C 65.4923 1.35497 0.867721 0
M  V30 667 O 66.6843 1.59717 0.762863 0
M  V30 668 C 63.8133 3.21703 1.19841 0
M  V30 669 C 62.8993 4.20969 0.51442 0
M  V30 670 N 63.2903 5.03999 -0.426407 0
M  V30 671 C 61.5883 4.39373 0.765963 0
M  V30 672 C 62.2893 5.75812 -0.825565 0
M  V30 673 N 61.2653 5.43315 -0.176116 0
M  V30 674 H 65.0673 2.88863 -0.541785 0
M  V30 675 H 62.5813 1.57455 -0.397697 0
M  V30 676 H 64.5783 3.78145 1.75533 0
M  V30 677 H 63.2383 2.61677 1.92238 0
M  V30 678 H 64.2493 5.11659 -0.8016 0
M  V30 679 H 60.9263 3.90502 1.47698 0
M  V30 680 H 62.3163 6.52577 -1.59976 0
M  V30 681 N 65.0364 0.313813 1.54444 0
M  V30 682 C 66.2614 -0.296681 2.05267 0
M  V30 683 C 66.6864 -1.45757 1.18897 0
M  V30 684 O 66.0444 -1.80239 0.195886 0
M  V30 685 C 66.0924 -0.71831 3.53373 0
M  V30 686 O 65.1964 -1.82175 3.69981 0
M  V30 687 H 64.5374 -0.0554061 0.661684 0
M  V30 688 H 67.0674 0.459387 1.99376 0
M  V30 689 H 67.0774 -1.00364 3.95463 0
M  V30 690 H 65.7524 0.130821 4.15694 0
M  V30 691 H 64.3294 -1.53598 3.39797 0
M  V30 692 N 66.5145 -1.57545 0.0417849 0
M  V30 693 C 67.4245 -2.14451 -0.951213 0
M  V30 694 C 68.4405 -1.09992 -1.34825 0
M  V30 695 O 69.6165 -1.42114 -1.42708 0
M  V30 696 C 66.6815 -2.67063 -2.21084 0
M  V30 697 C 65.7425 -3.86284 -1.87304 0
M  V30 698 C 64.9755 -4.36378 -3.07261 0
M  V30 699 O 65.1985 -3.85587 -4.20332 0
M  V30 700 O 64.1325 -5.28077 -2.88822 0
M  V30 701 H 67.9585 -2.99601 -0.497287 0
M  V30 702 H 65.5435 -1.48317 -0.179567 0
M  V30 703 H 67.4255 -3.00914 -2.95006 0
M  V30 704 H 66.1005 -1.84989 -2.65633 0
M  V30 705 H 65.0075 -3.57338 -1.10727 0
M  V30 706 H 66.3405 -4.6956 -1.47562 0
M  V30 707 N 67.9926 0.231505 -1.5589 0
M  V30 708 C 69.2406 0.955461 -1.78088 0
M  V30 709 C 69.5616 1.85262 -0.608533 0
M  V30 710 O 68.8316 1.92277 0.375035 0
M  V30 711 H 67.4116 0.355787 -0.656829 0
M  V30 712 H 70.0736 0.245751 -1.93344 0
M  V30 713 H 69.1696 1.56814 -2.69844 0
M  V30 714 N 69.4707 1.49531 0.497807 0
M  V30 715 C 70.4337 1.65916 1.58128 0
M  V30 716 C 71.4337 0.530825 1.51786 0
M  V30 717 O 72.6237 0.797342 1.54881 0
M  V30 718 C 69.7557 1.65951 2.9778 0
M  V30 719 H 70.9487 2.62556 1.44929 0
M  V30 720 H 68.5017 1.38611 0.722275 0
M  V30 721 H 69.2367 0.709065 3.16453 0
M  V30 722 H 69.0217 2.47897 3.03792 0
M  V30 723 H 70.5117 1.80673 3.76493 0
M  V30 724 N 70.9488 -0.749086 1.3866 0
M  V30 725 C 71.9118 -1.84457 1.36045 0
M  V30 726 C 72.9118 -1.58682 0.260122 0
M  V30 727 O 74.1018 -1.66343 0.517261 0
M  V30 728 C 71.2338 -3.22008 1.11911 0
M  V30 729 H 72.4268 -1.88182 2.33512 0
M  V30 730 H 69.9798 -0.951266 1.24019 0
M  V30 731 H 70.7148 -3.2395 0.150686 0
M  V30 732 H 70.4998 -3.42111 1.91579 0
M  V30 733 H 71.9898 -4.0208 1.12788 0
M  V30 734 N 72.4269 -1.23603 -0.977757 0
M  V30 735 C 73.3589 -0.977369 -2.07317 0
M  V30 736 C 74.3719 0.0495845 -1.62724 0
M  V30 737 O 75.5609 -0.186261 -1.77526 0
M  V30 738 C 72.6609 -0.451216 -3.35883 0
M  V30 739 C 71.8339 -1.53896 -4.09432 0
M  V30 740 C 70.8929 -1.01721 -5.16274 0
M  V30 741 O 69.9189 -1.70676 -5.43009 0
M  V30 742 N 71.1209 0.153594 -5.80297 0
M  V30 743 H 73.8859 -1.92047 -2.30082 0
M  V30 744 H 71.4469 -1.14497 -1.14465 0
M  V30 745 H 73.4389 -0.0871574 -4.04606 0
M  V30 746 H 72.0089 0.397368 -3.10064 0
M  V30 747 H 71.2289 -2.07566 -3.35127 0
M  V30 748 H 72.5169 -2.27037 -4.55337 0
M  V30 749 H 71.9149 0.730323 -5.60966 0
M  V30 750 H 70.4719 0.458892 -6.50183 0
M  V30 751 N 73.905 1.17692 -1.04816 0
M  V30 752 C 75.321 1.39863 -0.768794 0
M  V30 753 C 75.521 1.91118 0.638451 0
M  V30 754 O 74.577 2.10036 1.40146 0
M  V30 755 C 75.89 2.39274 -1.82122 0
M  V30 756 C 77.438 2.52987 -1.843 0
M  V30 757 C 77.913 3.55669 -2.88555 0
M  V30 758 N 79.404 3.63183 -2.87493 0
M  V30 759 C 80.139 4.42381 -3.64811 0
M  V30 760 N 79.635 5.25125 -4.51903 0
M  V30 761 N 81.428 4.37217 -3.53267 0
M  V30 762 H 73.579 0.82752 -1.95617 0
M  V30 763 H 75.842 0.426123 -0.846831 0
M  V30 764 H 75.548 2.08678 -2.83102 0
M  V30 765 H 75.422 3.38725 -1.65967 0
M  V30 766 H 77.809 2.82896 -0.839869 0
M  V30 767 H 77.89 1.53623 -2.04532 0
M  V30 768 H 77.534 3.26499 -3.89051 0
M  V30 769 H 77.464 4.54728 -2.65575 0
M  V30 770 H 79.955 3.04103 -2.24343 0
M  V30 771 H 80.268 5.82728 -5.07591 0
M  V30 772 H 78.613 5.24519 -4.55966 0
M  V30 773 H 81.804 3.71626 -2.84625 0
M  V30 774 H 81.977 4.98696 -4.13771 0
M  V30 775 N 75.3831 0.828654 1.34056 0
M  V30 776 C 76.3131 0.269443 2.3194 0
M  V30 777 C 77.2941 -0.617247 1.58506 0
M  V30 778 O 78.4791 -0.542931 1.86456 0
M  V30 779 C 75.6091 -0.564793 3.42677 0
M  V30 780 C 74.5631 0.225241 4.27407 0
M  V30 781 C 73.8891 -0.7321 5.29664 0
M  V30 782 C 75.1891 1.43663 5.02154 0
M  V30 783 H 76.8831 1.08728 2.7896 0
M  V30 784 H 74.4291 0.524283 1.34117 0
M  V30 785 H 76.3821 -0.966233 4.10173 0
M  V30 786 H 75.1061 -1.41574 2.9432 0
M  V30 787 H 73.7651 0.608117 3.61521 0
M  V30 788 H 73.4131 -1.57916 4.77568 0
M  V30 789 H 73.1131 -0.20767 5.87233 0
M  V30 790 H 74.6371 -1.13128 6.00029 0
M  V30 791 H 76.0511 1.1089 5.62473 0
M  V30 792 H 74.4481 1.89711 5.69324 0
M  V30 793 H 75.5181 2.21181 4.31517 0
M  V30 794 N 76.8612 -1.46375 0.584142 0
M  V30 795 C 78.1072 -2.02678 0.0703716 0
M  V30 796 C 78.4402 -1.4545 -1.28678 0
M  V30 797 O 77.7152 -0.62014 -1.84349 0
M  V30 798 C 77.9982 -3.60099 0.00614674 0
M  V30 799 C 77.8512 -4.27709 1.3923 0
M  V30 800 C 79.1702 -4.34598 -0.693742 0
M  V30 801 H 76.2892 -0.736504 0.027047 0
M  V30 802 H 78.9312 -1.74501 0.751615 0
M  V30 803 H 77.0812 -3.84236 -0.574009 0
M  V30 804 H 78.7532 -4.14832 2.01773 0
M  V30 805 H 76.9962 -3.87016 1.95962 0
M  V30 806 H 77.6672 -5.36478 1.29982 0
M  V30 807 H 80.1432 -4.15615 -0.200869 0
M  V30 808 H 79.0192 -5.44318 -0.707714 0
M  V30 809 H 79.2802 -4.05759 -1.75533 0
M  V30 810 N 78.3393 -0.321999 -1.54275 0
M  V30 811 C 79.3023 0.531975 -2.22941 0
M  V30 812 C 80.3023 1.04478 -1.22234 0
M  V30 813 O 81.4923 0.937452 -1.46825 0
M  V30 814 C 78.6243 1.73874 -2.93224 0
M  V30 815 H 79.8173 -0.0682612 -2.99822 0
M  V30 816 H 77.3703 -0.0730644 -1.56129 0
M  V30 817 H 78.1053 2.37825 -2.20476 0
M  V30 818 H 77.8903 1.37847 -3.6707 0
M  V30 819 H 79.3803 2.34496 -3.45545 0
M  V30 820 N 79.8174 1.5752 -0.0501392 0
M  V30 821 C 80.7274 2.14952 0.939827 0
M  V30 822 C 81.7434 1.10706 1.34239 0
M  V30 823 O 82.9194 1.42869 1.41952 0
M  V30 824 C 79.9844 2.68232 2.19665 0
M  V30 825 C 79.0454 3.87272 1.85253 0
M  V30 826 C 78.2784 4.38002 3.04943 0
M  V30 827 O 78.5014 3.87811 4.18281 0
M  V30 828 O 77.4354 5.29602 2.86017 0
M  V30 829 H 81.2614 2.9986 0.481392 0
M  V30 830 H 78.8464 1.4841 0.171699 0
M  V30 831 H 80.7284 3.02475 2.93406 0
M  V30 832 H 79.4034 1.86395 2.64648 0
M  V30 833 H 78.3104 3.5792 1.0883 0
M  V30 834 H 79.6434 4.70336 1.4507 0
M  V30 835 N 81.2955 -0.223234 1.56011 0
M  V30 836 C 82.2255 -1.27988 1.95298 0
M  V30 837 C 83.2065 -1.48976 0.820979 0
M  V30 838 O 84.3915 -1.61188 1.08315 0
M  V30 839 C 81.5215 -2.63 2.26822 0
M  V30 840 C 80.4755 -2.56671 3.42497 0
M  V30 841 C 79.8015 -3.95697 3.59622 0
M  V30 842 C 81.1015 -2.11601 4.77517 0
M  V30 843 H 82.7955 -0.953525 2.8381 0
M  V30 844 H 80.3415 -0.457244 1.36548 0
M  V30 845 H 82.2945 -3.37077 2.52898 0
M  V30 846 H 81.0185 -2.9732 1.35161 0
M  V30 847 H 79.6775 -1.85051 3.16467 0
M  V30 848 H 79.3255 -4.27322 2.6534 0
M  V30 849 H 79.0255 -3.92345 4.37424 0
M  V30 850 H 80.5495 -4.71438 3.88044 0
M  V30 851 H 81.9635 -2.7542 5.02809 0
M  V30 852 H 80.3605 -2.19311 5.5859 0
M  V30 853 H 81.4305 -1.06824 4.72987 0
M  V30 854 N 82.7736 -1.49793 -0.48987 0
M  V30 855 C 83.7216 -1.67783 -1.61095 0
M  V30 856 C 84.7156 -0.543683 -1.60438 0
M  V30 857 O 85.9216 -0.723647 -1.64813 0
M  V30 858 H 82.2966 -0.529255 -0.534222 0
M  V30 859 H 84.2676 -2.61861 -1.43078 0
M  V30 860 C 83.0166 -1.77191 -2.99164 0
M  V30 861 H 82.3396 -2.63841 -3.0038 0
M  V30 862 H 83.7796 -1.93809 -3.77113 0
M  V30 863 C 82.2386 -0.519203 -3.32875 0
M  V30 864 O 82.7686 0.350124 -4.00171 0
M  V30 865 N 80.9746 -0.378816 -2.8812 0
M  V30 866 H 80.5216 -1.08725 -2.33531 0
M  V30 867 H 80.4796 0.458239 -3.11043 0
M  V30 868 N 84.2517 0.741722 -1.39055 0
M  V30 869 C 85.2147 1.83733 -1.37021 0
M  V30 870 C 86.2147 1.58542 -0.268534 0
M  V30 871 O 87.4047 1.66067 -0.526076 0
M  V30 872 C 84.5367 3.2141 -1.13617 0
M  V30 873 H 85.7297 1.86941 -2.34506 0
M  V30 874 H 83.2827 0.944676 -1.24521 0
M  V30 875 H 84.0177 3.23865 -0.167863 0
M  V30 876 H 83.8027 3.4109 -1.93391 0
M  V30 877 H 85.2927 4.01477 -1.14918 0
M  V30 878 N 85.7298 1.2412 0.971189 0
M  V30 879 C 86.6928 1.03156 2.04674 0
M  V30 880 C 87.6928 -0.00990322 1.60797 0
M  V30 881 O 88.8828 0.230729 1.72665 0
M  V30 882 C 86.0148 0.562765 3.36223 0
M  V30 883 H 87.2078 1.98614 2.24705 0
M  V30 884 H 84.7608 1.06293 1.14593 0
M  V30 885 H 85.4958 -0.395176 3.21883 0
M  V30 886 H 85.2808 1.31441 3.69413 0
M  V30 887 H 86.7708 0.437015 4.15307 0
M  V30 888 N 87.2079 -1.17134 1.05439 0
M  V30 889 C 88.6239 -1.39454 0.776201 0
M  V30 890 C 88.8239 -1.91454 -0.628307 0
M  V30 891 O 87.8799 -2.10777 -1.39031 0
M  V30 892 C 89.1929 -2.38305 1.83388 0
M  V30 893 C 90.7409 -2.52006 1.85639 0
M  V30 894 C 91.2159 -3.54133 2.90437 0
M  V30 895 N 92.7069 -3.61653 2.89415 0
M  V30 896 C 93.4419 -4.4044 3.67152 0
M  V30 897 N 92.9379 -5.22721 4.54681 0
M  V30 898 N 94.7309 -4.35337 3.55581 0
M  V30 899 H 86.8819 -0.817134 1.96053 0
M  V30 900 H 89.1449 -0.421626 0.849079 0
M  V30 901 H 88.8509 -2.07173 2.84204 0
M  V30 902 H 88.7249 -3.37841 1.67761 0
M  V30 903 H 91.1119 -2.82447 0.85486 0
M  V30 904 H 91.1929 -1.52537 2.05344 0
M  V30 905 H 90.8369 -3.24431 3.90777 0
M  V30 906 H 90.7669 -4.53313 2.67983 0
M  V30 907 H 93.2579 -3.02909 2.25952 0
M  V30 908 H 93.5709 -5.80027 5.10674 0
M  V30 909 H 91.9159 -5.22093 4.58741 0
M  V30 910 H 95.1069 -3.70112 2.86592 0
M  V30 911 H 95.2799 -4.96494 4.1641 0
M  V30 912 N 88.686 -0.835752 -1.33615 0
M  V30 913 C 89.649 -0.272 -2.2758 0
M  V30 914 C 90.649 0.557487 -1.50827 0
M  V30 915 O 91.839 0.37173 -1.70188 0
M  V30 916 C 88.971 0.617173 -3.35267 0
M  V30 917 H 90.164 -1.10111 -2.78954 0
M  V30 918 H 87.717 -0.608594 -1.43965 0
M  V30 919 H 88.452 1.46884 -2.89129 0
M  V30 920 H 88.237 0.0237066 -3.92093 0
M  V30 921 H 89.727 1.005 -4.05326 0
M  V30 922 N 90.1641 1.46063 -0.591896 0
M  V30 923 C 91.4121 2.01938 -0.0808391 0
M  V30 924 C 91.7331 1.46475 1.28725 0
M  V30 925 O 91.0031 0.652944 1.84698 0
M  V30 926 H 89.5831 0.746516 -0.0268938 0
M  V30 927 H 92.2451 1.79055 -0.769752 0
M  V30 928 H 91.3411 3.12094 -0.0187578 0
M  V30 929 N 91.6422 0.330177 1.54103 0
M  V30 930 C 92.8672 -0.274893 2.0557 0
M  V30 931 C 93.2922 -1.44487 1.20437 0
M  V30 932 O 92.6502 -1.80021 0.214991 0
M  V30 933 C 92.6982 -0.68079 3.54115 0
M  V30 934 O 91.8022 -1.7824 3.71893 0
M  V30 935 H 91.1432 -0.0483849 0.662235 0
M  V30 936 H 93.6732 0.480508 1.98878 0
M  V30 937 H 93.6832 -0.961635 3.96505 0
M  V30 938 H 92.3582 0.174903 4.15532 0
M  V30 939 H 90.9352 -1.49985 3.41407 0
M  V30 940 N 93.1203 -1.57491 0.0584922 0
M  V30 941 C 94.0833 -2.1085 -0.898617 0
M  V30 942 C 95.0833 -1.02964 -1.23511 0
M  V30 943 O 96.2733 -1.29007 -1.17059 0
M  V30 944 C 93.4053 -2.59881 -2.20623 0
M  V30 945 H 94.5983 -2.96715 -0.435936 0
M  V30 946 H 92.1513 -1.55141 -0.190023 0
M  V30 947 H 92.8863 -1.77431 -2.71457 0
M  V30 948 H 92.6713 -3.38727 -1.97501 0
M  V30 949 H 94.1613 -3.01285 -2.89166 0
M  V30 950 N 94.5984 0.214957 -1.56127 0
M  V30 951 C 95.8444 0.939762 -1.79712 0
M  V30 952 C 96.1774 1.83723 -0.629247 0
M  V30 953 O 95.4524 1.90925 0.371197 0
M  V30 954 C 95.7354 1.77306 -3.13424 0
M  V30 955 C 95.5884 0.90164 -4.40671 0
M  V30 956 C 96.9074 2.74956 -3.43638 0
M  V30 957 H 94.0264 0.340214 -0.653776 0
M  V30 958 H 96.6684 0.20824 -1.88855 0
M  V30 959 H 94.8184 2.39673 -3.0576 0
M  V30 960 H 96.4904 0.294206 -4.60361 0
M  V30 961 H 94.7334 0.207368 -4.33304 0
M  V30 962 H 95.4044 1.51923 -5.30682 0
M  V30 963 H 97.8804 2.22724 -3.51473 0
M  V30 964 H 96.7564 3.30358 -4.38355 0
M  V30 965 H 97.0174 3.53023 -2.66134 0
M  V30 966 N 96.0765 1.50051 0.48192 0
M  V30 967 C 97.0065 1.71046 1.58951 0
M  V30 968 C 97.9875 0.559288 1.60642 0
M  V30 969 O 99.1725 0.797243 1.77081 0
M  V30 970 C 96.3025 1.79462 2.97339 0
M  V30 971 C 95.2565 2.94558 3.10515 0
M  V30 972 C 94.5825 2.88105 4.50444 0
M  V30 973 C 95.8825 4.35227 2.88747 0
M  V30 974 H 97.5765 2.6378 1.41635 0
M  V30 975 H 95.1225 1.26936 0.679942 0
M  V30 976 H 97.0755 1.92734 3.74742 0
M  V30 977 H 95.7995 0.833412 3.15788 0
M  V30 978 H 94.4585 2.80918 2.35543 0
M  V30 979 H 94.1065 1.89853 4.65795 0
M  V30 980 H 93.8065 3.65366 4.60197 0
M  V30 981 H 95.3305 3.03412 5.29881 0
M  V30 982 H 96.7445 4.49449 3.55905 0
M  V30 983 H 95.1415 5.13856 3.09955 0
M  V30 984 H 96.2115 4.48347 1.84696 0
M  V30 985 N 97.5546 -0.734337 1.39446 0
M  V30 986 C 98.7946 -1.50655 1.38139 0
M  V30 987 C 99.1586 -1.91986 -0.0228701 0
M  V30 988 O 100.36 -2.68318 -0.160947 0
M  V30 989 C 98.6306 -2.71251 2.32718 0
M  V30 990 S 100.19 -3.60892 2.49605 0
M  V30 991 H 97.0076 -0.515315 0.489869 0
M  V30 992 H 99.6096 -0.860392 1.75549 0
M  V30 993 H 98.3136 -2.39027 3.33608 0
M  V30 994 H 97.8446 -3.40795 1.96526 0
M  V30 995 H 99.8596 -4.64899 1.73446 0
M  V30 996 N 99.0327 -1.24633 -0.964593 0
M  V30 997 C 99.9797 -1.04144 -2.05968 0
M  V30 998 C 100.95 0.046262 -1.66036 0
M  V30 999 O 102.135 -0.108972 -1.90489 0
M  V30 1000 C 99.2747 -0.65563 -3.38815 0
M  V30 1001 C 98.3877 -1.81714 -3.91923 0
M  V30 1002 C 97.5227 -1.37662 -5.13052 0
M  V30 1003 C 96.5617 -2.50788 -5.58365 0
M  V30 1004 N 95.6987 -2.07582 -6.70712 0
M  V30 1005 H 100.539 -1.9787 -2.22827 0
M  V30 1006 H 98.0757 -0.9855 -1.09208 0
M  V30 1007 H 100.034 -0.412954 -4.15151 0
M  V30 1008 H 98.6637 0.244627 -3.21872 0
M  V30 1009 H 97.7157 -2.1734 -3.12198 0
M  V30 1010 H 99.0277 -2.66705 -4.21509 0
M  V30 1011 H 98.1817 -1.093 -5.96773 0
M  V30 1012 H 96.9207 -0.497293 -4.85158 0
M  V30 1013 H 95.9257 -2.79906 -4.73215 0
M  V30 1014 H 97.1507 -3.39283 -5.88272 0
M  V30 1015 H 95.0967 -1.22051 -6.44546 0
M  V30 1016 H 95.0137 -2.86125 -6.99763 0
M  V30 1017 H 96.2817 -1.82369 -7.57867 0
M  V30 1018 N 100.511 1.16574 -1.06058 0
M  V30 1019 C 101.759 1.86677 -0.77434 0
M  V30 1020 C 102.08 1.81959 0.701147 0
M  V30 1021 O 101.35 1.2515 1.50713 0
M  V30 1022 H 99.9298 0.691134 -0.283449 0
M  V30 1023 H 102.592 1.41378 -1.34158 0
M  V30 1024 H 101.688 2.92181 -1.09711 0
M  V30 1025 N 101.989 0.842826 1.3317 0
M  V30 1026 C 103.266 0.362216 1.92217 0
M  V30 1027 C 103.646 -1.15289 1.76838 0
M  V30 1028 O 102.994 -1.96914 1.15919 0
M  V30 1029 C 103.204 0.813495 3.39387 0
M  V30 1030 C 104.552 0.823804 4.16532 0
M  V30 1031 O 105.576 0.757358 3.48055 0
M  V30 1032 O 104.435 0.915193 5.38782 0
M  V30 1033 H 101.529 0.103317 0.820521 0
M  V30 1034 H 104.075 0.928942 1.42017 0
M  V30 1035 H 102.847 1.85624 3.4447 0
M  V30 1036 H 102.47 0.223561 3.96971 0
M  V30 1037 N 103.467 -1.45747 0.599634 0
M  V30 1038 C 104.397 -2.33235 -0.111306 0
M  V30 1039 C 105.378 -1.46359 -0.866781 0
M  V30 1040 O 106.563 -1.75146 -0.838904 0
M  V30 1041 C 103.693 -3.28932 -1.11451 0
M  V30 1042 C 102.647 -4.25381 -0.472772 0
M  V30 1043 C 101.973 -5.1071 -1.58365 0
M  V30 1044 C 103.273 -5.18831 0.600948 0
M  V30 1045 H 104.967 -2.92927 0.61919 0
M  V30 1046 H 102.513 -1.40857 0.299215 0
M  V30 1047 H 104.466 -3.89002 -1.62036 0
M  V30 1048 H 103.19 -2.67381 -1.8755 0
M  V30 1049 H 101.849 -3.66598 0.0121472 0
M  V30 1050 H 101.497 -4.45533 -2.33473 0
M  V30 1051 H 101.197 -5.7604 -1.15982 0
M  V30 1052 H 102.721 -5.73647 -2.09194 0
M  V30 1053 H 104.135 -5.73019 0.179491 0
M  V30 1054 H 102.532 -5.92595 0.946076 0
M  V30 1055 H 103.602 -4.6174 1.48068 0
M  V30 1056 N 104.945 -0.338344 -1.53925 0
M  V30 1057 C 106.17 0.263987 -2.05713 0
M  V30 1058 C 106.595 1.43847 -1.21201 0
M  V30 1059 O 105.953 1.79904 -0.224535 0
M  V30 1060 C 106.001 0.662 -3.54471 0
M  V30 1061 O 105.105 1.76265 -3.72833 0
M  V30 1062 H 104.446 0.0448722 -0.662482 0
M  V30 1063 H 106.976 -0.491048 -1.9862 0
M  V30 1064 H 106.986 0.940594 -3.9701 0
M  V30 1065 H 105.661 -0.196937 -4.15433 0
M  V30 1066 H 104.238 1.48173 -3.42198 0
M  V30 1067 N 106.423 1.57458 -0.0668435 0
M  V30 1068 C 107.353 2.15468 0.899764 0
M  V30 1069 C 108.334 1.08042 1.31381 0
M  V30 1070 O 109.519 1.36054 1.38574 0
M  V30 1071 C 106.649 2.71232 2.16911 0
M  V30 1072 C 105.603 3.83781 1.89463 0
M  V30 1073 C 104.929 4.26127 3.22986 0
M  V30 1074 C 106.229 5.08238 1.20381 0
M  V30 1075 H 107.923 2.96488 0.416529 0
M  V30 1076 H 105.469 1.4262 0.198908 0
M  V30 1077 H 107.422 3.10458 2.84945 0
M  V30 1078 H 106.146 1.87426 2.67468 0
M  V30 1079 H 104.805 3.45051 1.23836 0
M  V30 1080 H 104.453 3.39249 3.71374 0
M  V30 1081 H 104.153 5.01993 3.05413 0
M  V30 1082 H 105.677 4.67966 3.92225 0
M  V30 1083 H 107.091 5.44811 1.78475 0
M  V30 1084 H 105.488 5.89349 1.13083 0
M  V30 1085 H 106.558 4.84558 0.182153 0
M  V30 1086 N 107.901 -0.206675 1.56239 0
M  V30 1087 C 109.126 -0.949474 1.8439 0
M  V30 1088 C 109.551 -1.76549 0.649016 0
M  V30 1089 O 108.909 -1.76782 -0.402231 0
M  V30 1090 C 108.957 -1.83078 3.10668 0
M  V30 1091 O 108.061 -2.9281 2.90407 0
M  V30 1092 H 107.402 -0.268033 0.607499 0
M  V30 1093 H 109.932 -0.215488 2.03462 0
M  V30 1094 H 109.942 -2.2377 3.41161 0
M  V30 1095 H 108.617 -1.23112 3.97261 0
M  V30 1096 H 107.194 -2.55956 2.71184 0
M  V30 1097 N 109.379 -1.50304 -0.473955 0
M  V30 1098 C 110.604 -1.65175 -1.25427 0
M  V30 1099 C 111.029 -0.333673 -1.85117 0
M  V30 1100 O 110.387 0.702114 -1.67153 0
M  V30 1101 C 110.435 -2.74295 -2.34082 0
M  V30 1102 O 109.539 -2.35349 -3.38651 0
M  V30 1103 H 108.88 -0.551944 -0.369126 0
M  V30 1104 H 111.41 -1.96662 -0.564364 0
M  V30 1105 H 111.42 -2.97285 -2.79438 0
M  V30 1106 H 110.095 -3.69959 -1.90008 0
M  V30 1107 H 108.672 -2.22794 -2.99027 0
M  V30 1108 N 110.857 0.726932 -1.39834 0
M  V30 1109 C 112.082 1.52121 -1.40976 0
M  V30 1110 C 112.507 1.88098 -0.00826029 0
M  V30 1111 O 111.865 1.52479 0.980807 0
M  V30 1112 C 111.913 2.78021 -2.29644 0
M  V30 1113 O 111.017 3.74272 -1.73188 0
M  V30 1114 H 110.358 0.45908 -0.479731 0
M  V30 1115 H 112.888 0.896207 -1.83927 0
M  V30 1116 H 112.898 3.26671 -2.44438 0
M  V30 1117 H 111.573 2.51169 -3.31492 0
M  V30 1118 H 110.15 3.33073 -1.6768 0
M  V30 1119 N 112.336 1.25143 0.95797 0
M  V30 1120 C 113.266 1.07711 2.07173 0
M  V30 1121 C 114.247 -0.0128462 1.70095 0
M  V30 1122 O 115.432 0.156061 1.93572 0
M  V30 1123 C 112.562 0.691503 3.40346 0
M  V30 1124 C 111.516 1.73132 3.9142 0
M  V30 1125 C 110.842 1.20049 5.21049 0
M  V30 1126 C 112.142 3.1294 4.1817 0
M  V30 1127 H 113.836 2.00873 2.22014 0
M  V30 1128 H 111.382 0.967191 1.06684 0
M  V30 1129 H 113.335 0.556505 4.17709 0
M  V30 1130 H 112.059 -0.275819 3.25433 0
M  V30 1131 H 110.718 1.8547 3.16222 0
M  V30 1132 H 110.366 0.223499 5.02503 0
M  V30 1133 H 110.066 1.89545 5.56189 0
M  V30 1134 H 111.59 1.07782 6.01012 0
M  V30 1135 H 113.004 3.03775 4.86203 0
M  V30 1136 H 111.401 3.79875 4.64559 0
M  V30 1137 H 112.471 3.6025 3.24573 0
M  V30 1138 N 113.814 -1.1601 1.06675 0
M  V30 1139 C 114.744 -2.22688 0.702307 0
M  V30 1140 C 115.725 -1.67306 -0.307032 0
M  V30 1141 O 116.91 -1.93352 -0.181305 0
M  V30 1142 C 114.04 -3.47178 0.092038 0
M  V30 1143 C 112.994 -4.15477 1.02777 0
M  V30 1144 C 112.32 -5.33963 0.28061 0
M  V30 1145 C 113.62 -4.66019 2.35846 0
M  V30 1146 H 115.314 -2.53429 1.59419 0
M  V30 1147 H 112.86 -1.21813 0.767961 0
M  V30 1148 H 114.813 -4.21037 -0.174814 0
M  V30 1149 H 113.537 -3.15749 -0.834877 0
M  V30 1150 H 112.196 -3.43549 1.27944 0
M  V30 1151 H 111.844 -4.98788 -0.649545 0
M  V30 1152 H 111.544 -5.806 0.904258 0
M  V30 1153 H 113.068 -6.10596 0.021396 0
M  V30 1154 H 114.482 -5.3144 2.15045 0
M  V30 1155 H 112.879 -5.23293 2.93743 0
M  V30 1156 H 113.949 -3.82023 2.98641 0
M  V30 1157 N 115.292 -0.849877 -1.32721 0
M  V30 1158 C 116.569 -0.372405 -1.92022 0
M  V30 1159 C 116.949 1.1435 -1.77447 0
M  V30 1160 O 116.297 1.96296 -1.16962 0
M  V30 1161 C 116.507 -0.831482 -3.3895 0
M  V30 1162 C 117.855 -0.845882 -4.16089 0
M  V30 1163 O 118.879 -0.775806 -3.47649 0
M  V30 1164 O 117.738 -0.943753 -5.38289 0
M  V30 1165 H 114.832 -0.107667 -0.819961 0
M  V30 1166 H 117.378 -0.93646 -1.41522 0
M  V30 1167 H 116.15 -1.87448 -3.4348 0
M  V30 1168 H 115.773 -0.24461 -3.96847 0
M  V30 1169 N 116.77 1.45427 -0.607355 0
M  V30 1170 C 118.01 2.04128 -0.105458 0
M  V30 1171 C 118.374 1.46555 1.24039 0
M  V30 1172 O 119.575 1.96608 1.833 0
M  V30 1173 C 117.846 3.57338 -0.0665324 0
M  V30 1174 S 119.405 4.37201 0.374207 0
M  V30 1175 H 116.223 0.709278 -0.0494575 0
M  V30 1176 H 118.825 1.78139 -0.805404 0
M  V30 1177 H 117.529 3.96752 -1.04957 0
M  V30 1178 H 117.06 3.87902 0.655415 0
M  V30 1179 H 119.075 4.6888 1.62377 0
M  V30 1180 N 118.248 0.346503 1.53744 0
M  V30 1181 C 119.488 -0.249413 2.02873 0
M  V30 1182 C 119.852 -1.47532 1.22876 0
M  V30 1183 O 121.053 -2.1456 1.61918 0
M  V30 1184 C 119.324 -0.552909 3.53097 0
M  V30 1185 S 120.883 -1.12521 4.24128 0
M  V30 1186 H 117.701 -0.074042 0.707134 0
M  V30 1187 H 120.303 0.48495 1.8939 0
M  V30 1188 H 119.007 0.347083 4.0893 0
M  V30 1189 H 118.538 -1.31686 3.70705 0
M  V30 1190 H 120.553 -2.41075 4.33702 0
M  V30 1191 N 119.726 -1.57421 0.075193 0
M  V30 1192 C 120.636 -2.1642 -0.905511 0
M  V30 1193 C 121.652 -1.12828 -1.32461 0
M  V30 1194 O 122.828 -1.45109 -1.39661 0
M  V30 1195 C 119.893 -2.71693 -2.15369 0
M  V30 1196 C 118.954 -3.90171 -1.79068 0
M  V30 1197 C 118.187 -4.42798 -2.97936 0
M  V30 1198 O 118.41 -3.94416 -4.12058 0
M  V30 1199 O 117.344 -5.34085 -2.77555 0
M  V30 1200 H 121.17 -3.00588 -0.433626 0
M  V30 1201 H 118.755 -1.48664 -0.148067 0
M  V30 1202 H 120.637 -3.07104 -2.88557 0
M  V30 1203 H 119.312 -1.90582 -2.61649 0
M  V30 1204 H 118.219 -3.59606 -1.03122 0
M  V30 1205 H 119.552 -4.72584 -1.37569 0
M  V30 1206 N 121.204 0.198386 -1.56346 0
M  V30 1207 C 122.481 0.944982 -1.71258 0
M  V30 1208 C 122.861 2.0151 -0.629048 0
M  V30 1209 O 122.209 2.25639 0.360473 0
M  V30 1210 C 122.419 1.5344 -3.1346 0
M  V30 1211 C 123.767 2.01778 -3.73591 0
M  V30 1212 O 124.791 1.63288 -3.16568 0
M  V30 1213 O 123.65 2.72594 -4.73661 0
M  V30 1214 H 120.744 0.442939 -0.69838 0
M  V30 1215 H 123.29 0.188342 -1.68652 0
M  V30 1216 H 122.062 0.762869 -3.83792 0
M  V30 1217 H 121.685 2.35596 -3.20282 0
M  V30 1218 N 122.682 1.50554 0.465978 0
M  V30 1219 C 123.931 1.61038 1.21448 0
M  V30 1220 C 124.244 0.31865 1.92987 0
M  V30 1221 O 125.45 0.302469 2.6981 0
M  V30 1222 C 123.906 2.84283 2.20706 0
M  V30 1223 C 123.514 4.20352 1.54946 0
M  V30 1224 C 125.258 3.04115 2.96166 0
M  V30 1225 C 123.165 5.34778 2.5252 0
M  V30 1226 H 122.095 0.599718 0.457005 0
M  V30 1227 H 124.746 1.7699 0.484424 0
M  V30 1228 H 123.128 2.61901 2.97025 0
M  V30 1229 H 124.302 4.53008 0.843811 0
M  V30 1230 H 122.617 4.06167 0.917475 0
M  V30 1231 H 125.214 3.86774 3.69202 0
M  V30 1232 H 125.557 2.16045 3.55852 0
M  V30 1233 H 126.09 3.26702 2.26959 0
M  V30 1234 H 122.829 6.25018 1.97566 0
M  V30 1235 H 122.349 5.06534 3.21222 0
M  V30 1236 H 124.028 5.65561 3.14245 0
M  V30 1237 N 124.16 -0.719506 1.40217 0
M  V30 1238 C 125.409 -1.47486 1.37589 0
M  V30 1239 C 125.722 -1.9559 -0.0201568 0
M  V30 1240 O 126.928 -2.70973 -0.169049 0
M  V30 1241 C 125.384 -2.66575 2.41796 0
M  V30 1242 C 124.992 -2.25358 3.87192 0
M  V30 1243 C 126.736 -3.4433 2.48269 0
M  V30 1244 C 124.643 -3.41262 4.83005 0
M  V30 1245 H 123.573 -0.553901 0.511576 0
M  V30 1246 H 126.224 -0.783427 1.65936 0
M  V30 1247 H 124.606 -3.3787 2.06543 0
M  V30 1248 H 125.78 -1.61509 4.31569 0
M  V30 1249 H 124.095 -1.60657 3.84159 0
M  V30 1250 H 126.692 -4.30569 3.17041 0
M  V30 1251 H 127.035 -3.87872 1.51198 0
M  V30 1252 H 127.568 -2.80076 2.82493 0
M  V30 1253 H 124.307 -3.02755 5.81394 0
M  V30 1254 H 123.827 -4.0404 4.43297 0
M  V30 1255 H 125.506 -4.07383 5.02641 0
M  V30 1256 N 125.638 -1.25649 -0.95132 0
M  V30 1257 C 126.915 -1.01361 -1.67288 0
M  V30 1258 C 127.295 0.459135 -2.06046 0
M  V30 1259 O 126.643 1.43723 -1.7764 0
M  V30 1260 C 126.853 -1.95256 -2.89268 0
M  V30 1261 C 128.201 -2.23289 -3.61147 0
M  V30 1262 O 129.225 -1.93041 -2.99355 0
M  V30 1263 O 128.084 -2.74741 -4.72419 0
M  V30 1264 H 125.178 -0.38464 -0.732107 0
M  V30 1265 H 127.724 -1.36817 -1.00395 0
M  V30 1266 H 126.496 -2.94685 -2.57442 0
M  V30 1267 H 126.119 -1.60218 -3.6389 0
M  V30 1268 N 127.117 1.15442 -1.07289 0
M  V30 1269 C 128.357 1.8788 -0.805012 0
M  V30 1270 C 128.721 1.80413 0.656907 0
M  V30 1271 O 129.922 2.47874 1.0398 0
M  V30 1272 C 128.193 3.3298 -1.29843 0
M  V30 1273 S 129.752 4.23158 -1.16114 0
M  V30 1274 H 126.57 0.64839 -0.291739 0
M  V30 1275 H 129.172 1.39285 -1.37186 0
M  V30 1276 H 127.876 3.35958 -2.35712 0
M  V30 1277 H 127.407 3.86629 -0.726767 0
M  V30 1278 H 129.422 4.96103 -0.0982778 0
M  V30 1279 N 128.595 0.856903 1.32268 0
M  V30 1280 C 129.82 0.474569 2.01897 0
M  V30 1281 C 130.245 -0.921766 1.63967 0
M  V30 1282 O 129.603 -1.60589 0.84148 0
M  V30 1283 C 129.651 0.623799 3.55164 0
M  V30 1284 O 128.755 -0.342459 4.10976 0
M  V30 1285 H 128.096 0.190422 0.63611 0
M  V30 1286 H 130.626 1.15672 1.68764 0
M  V30 1287 H 130.636 0.512169 4.04773 0
M  V30 1288 H 129.311 1.64202 3.82113 0
M  V30 1289 H 127.888 -0.18688 3.72431 0
M  V30 1290 N 130.073 -1.45103 0.615059 0
M  V30 1291 C 131.32 -2.02183 0.113179 0
M  V30 1292 C 131.648 -1.48249 -1.25906 0
M  V30 1293 O 130.903 -0.650265 -1.84581 0
M  V30 1294 C 131.202 -3.57386 0.0318797 0
M  V30 1295 C 130.868 -4.30505 1.34077 0
M  V30 1296 C 129.53 -4.50197 1.69929 0
M  V30 1297 C 131.882 -4.72238 2.20546 0
M  V30 1298 C 129.21 -5.08881 2.91988 0
M  V30 1299 C 131.562 -5.32272 3.41861 0
M  V30 1300 C 130.226 -5.50187 3.77956 0
M  V30 1301 H 129.496 -0.739842 0.0414151 0
M  V30 1302 H 132.143 -1.74073 0.798168 0
M  V30 1303 H 130.448 -3.84817 -0.736409 0
M  V30 1304 H 132.145 -3.99264 -0.372712 0
M  V30 1305 H 128.735 -4.15496 1.05173 0
M  V30 1306 H 132.919 -4.56751 1.94146 0
M  V30 1307 H 128.175 -5.20939 3.2005 0
M  V30 1308 H 132.349 -5.63563 4.09109 0
M  V30 1309 H 129.976 -5.95427 4.72622 0
M  V30 1310 N 131.551 -0.354651 -1.53558 0
M  V30 1311 C 132.967 -0.00315426 -1.596 0
M  V30 1312 C 133.167 1.47741 -1.37021 0
M  V30 1313 O 132.223 2.23759 -1.16996 0
M  V30 1314 C 133.536 -0.44929 -2.97325 0
M  V30 1315 C 135.084 -0.402578 -3.104 0
M  V30 1316 C 135.559 -0.824355 -4.5052 0
M  V30 1317 N 137.05 -0.778979 -4.56603 0
M  V30 1318 C 137.785 -1.07715 -5.63192 0
M  V30 1319 N 137.281 -1.44405 -6.77583 0
M  V30 1320 N 139.074 -1.00066 -5.53121 0
M  V30 1321 H 131.225 -1.31893 -1.66487 0
M  V30 1322 H 133.488 -0.538388 -0.780284 0
M  V30 1323 H 133.194 -1.48202 -3.1895 0
M  V30 1324 H 133.068 0.169772 -3.76818 0
M  V30 1325 H 135.455 0.621004 -2.88492 0
M  V30 1326 H 135.536 -1.05699 -2.32941 0
M  V30 1327 H 135.18 -1.846 -4.73165 0
M  V30 1328 H 135.11 -0.147304 -5.26394 0
M  V30 1329 H 137.601 -0.508528 -3.74463 0
M  V30 1330 H 137.914 -1.65612 -7.54846 0
M  V30 1331 H 136.259 -1.4826 -6.79002 0
M  V30 1332 H 139.45 -0.713293 -4.62633 0
M  V30 1333 H 139.623 -1.23638 -6.36096 0
M  V30 1334 N 133.029 1.57378 -0.0835403 0
M  V30 1335 C 133.992 2.12252 0.864959 0
M  V30 1336 C 134.992 1.04916 1.21858 0
M  V30 1337 O 136.182 1.30853 1.14991 0
M  V30 1338 C 133.314 2.63358 2.16461 0
M  V30 1339 H 134.507 2.97371 0.388676 0
M  V30 1340 H 132.06 1.55423 0.165317 0
M  V30 1341 H 132.795 1.81727 2.686 0
M  V30 1342 H 132.58 3.41826 1.92087 0
M  V30 1343 H 134.07 3.05847 2.84337 0
M  V30 1344 N 134.507 -0.190092 1.56449 0
M  V30 1345 C 135.754 -0.909705 1.80916 0
M  V30 1346 C 136.082 -1.83047 0.657583 0
M  V30 1347 O 135.337 -1.92428 -0.356356 0
M  V30 1348 C 135.636 -1.75382 3.1141 0
M  V30 1349 C 135.302 -0.983606 4.40041 0
M  V30 1350 C 133.964 -0.770967 4.74984 0
M  V30 1351 C 136.316 -0.442024 5.19322 0
M  V30 1352 C 133.644 -0.0053448 5.867 0
M  V30 1353 C 135.996 0.310412 6.31838 0
M  V30 1354 C 134.66 0.534023 6.6536 0
M  V30 1355 H 133.93 -0.332885 0.662019 0
M  V30 1356 H 136.577 -0.175762 1.90692 0
M  V30 1357 H 134.882 -2.55659 2.96893 0
M  V30 1358 H 136.579 -2.31331 3.27547 0
M  V30 1359 H 133.169 -1.15936 4.12622 0
M  V30 1360 H 137.353 -0.593693 4.92736 0
M  V30 1361 H 132.609 0.177825 6.11141 0
M  V30 1362 H 136.783 0.737419 6.92485 0
M  V30 1363 H 134.41 1.12918 7.51767 0
M  V30 1364 N 135.985 -1.50799 -0.457987 0
M  V30 1365 C 137.233 -1.62121 -1.2067 0
M  V30 1366 C 137.554 -0.329793 -1.92191 0
M  V30 1367 O 136.824 0.653409 -1.84682 0
M  V30 1368 H 135.404 -0.597441 -0.448411 0
M  V30 1369 H 138.066 -1.87637 -0.527096 0
M  V30 1370 H 137.162 -2.43882 -1.94751 0
M  V30 1371 N 137.463 0.71206 -1.40597 0
M  V30 1372 C 138.879 1.02058 -1.22704 0
M  V30 1373 C 139.079 2.01228 -0.104729 0
M  V30 1374 O 138.135 2.4674 0.53624 0
M  V30 1375 C 139.448 1.56094 -2.57012 0
M  V30 1376 C 140.996 1.6806 -2.64054 0
M  V30 1377 C 141.471 2.25501 -3.9864 0
M  V30 1378 N 142.962 2.32882 -4.004 0
M  V30 1379 C 143.697 2.78317 -5.01325 0
M  V30 1380 N 143.193 3.23478 -6.12645 0
M  V30 1381 N 144.986 2.77733 -4.88693 0
M  V30 1382 H 137.137 0.0547896 -2.12329 0
M  V30 1383 H 139.4 0.0869027 -0.944008 0
M  V30 1384 H 139.106 0.906865 -3.39807 0
M  V30 1385 H 138.98 2.54564 -2.78347 0
M  V30 1386 H 141.367 2.32583 -1.81629 0
M  V30 1387 H 141.448 0.681802 -2.46546 0
M  V30 1388 H 141.092 1.61598 -4.81506 0
M  V30 1389 H 141.022 3.26102 -4.13479 0
M  V30 1390 H 143.513 2.00991 -3.20017 0
M  V30 1391 H 143.826 3.56725 -6.85542 0
M  V30 1392 H 142.171 3.21429 -6.16205 0
M  V30 1393 H 145.362 2.4179 -4.00818 0
M  V30 1394 H 145.535 3.12826 -5.67489 0
M  V30 1395 N 138.941 1.26152 0.944643 0
M  V30 1396 C 140.181 1.12708 1.70517 0
M  V30 1397 C 140.545 -0.324727 1.89234 0
M  V30 1398 O 141.746 -0.581211 2.62441 0
M  V30 1399 C 140.017 1.8713 3.04495 0
M  V30 1400 S 141.576 1.89698 3.95677 0
M  V30 1401 H 138.394 0.402665 0.585988 0
M  V30 1402 H 140.996 1.59821 1.12594 0
M  V30 1403 H 139.7 2.91833 2.88551 0
M  V30 1404 H 139.231 1.40444 3.67477 0
M  V30 1405 H 141.246 0.981198 4.86402 0
M  V30 1406 N 140.419 -1.14872 1.07899 0
M  V30 1407 C 141.696 -1.81928 0.71845 0
M  V30 1408 C 142.076 -1.95417 -0.798455 0
M  V30 1409 O 141.424 -1.50997 -1.715 0
M  V30 1410 C 141.634 -3.17937 1.43935 0
M  V30 1411 C 142.982 -3.93501 1.59506 0
M  V30 1412 O 144.006 -3.27509 1.40058 0
M  V30 1413 O 142.865 -5.1183 1.91551 0
M  V30 1414 H 139.959 -0.78628 0.256305 0
M  V30 1415 H 142.505 -1.21934 1.18026 0
M  V30 1416 H 141.277 -3.0325 2.47295 0
M  V30 1417 H 140.9 -3.85619 0.968687 0
M  V30 1418 N 141.898 -0.863906 -1.31812 0
M  V30 1419 C 143.144 -0.472535 -1.97218 0
M  V30 1420 C 143.477 0.971394 -1.68159 0
M  V30 1421 O 142.752 1.68309 -0.974798 0
M  V30 1422 C 143.035 -0.723054 -3.52766 0
M  V30 1423 C 142.888 -2.21608 -3.91421 0
M  V30 1424 C 144.207 -0.185522 -4.39709 0
M  V30 1425 H 141.326 -0.173158 -0.71637 0
M  V30 1426 H 143.968 -1.08403 -1.56041 0
M  V30 1427 H 142.118 -0.202577 -3.87971 0
M  V30 1428 H 143.79 -2.80334 -3.66347 0
M  V30 1429 H 142.033 -2.691 -3.40246 0
M  V30 1430 H 142.704 -2.34203 -4.99853 0
M  V30 1431 H 145.18 -0.630726 -4.11292 0
M  V30 1432 H 144.056 -0.390306 -5.47511 0
M  V30 1433 H 144.317 0.912229 -4.32586 0
M  V30 1434 N 143.376 1.44774 -0.622745 0
M  V30 1435 C 144.306 2.33382 0.0741861 0
M  V30 1436 C 145.287 1.47719 0.843387 0
M  V30 1437 O 146.472 1.76458 0.810934 0
M  V30 1438 C 143.602 3.30663 1.06204 0
M  V30 1439 C 142.556 4.26079 0.405037 0
M  V30 1440 C 141.882 5.13165 1.5022 0
M  V30 1441 C 143.182 5.1781 -0.683414 0
M  V30 1442 H 144.876 2.91905 -0.665713 0
M  V30 1443 H 142.422 1.40363 -0.321587 0
M  V30 1444 H 144.375 3.9153 1.55827 0
M  V30 1445 H 143.099 2.70331 1.83272 0
M  V30 1446 H 141.758 3.66532 -0.0704683 0
M  V30 1447 H 141.406 4.49191 2.26355 0
M  V30 1448 H 141.106 5.77812 1.06803 0
M  V30 1449 H 142.63 5.76902 2.00041 0
M  V30 1450 H 144.044 5.72661 -0.270631 0
M  V30 1451 H 142.441 5.91015 -1.04023 0
M  V30 1452 H 143.511 4.59326 -1.55395 0
M  V30 1453 N 144.854 0.36279 1.53368 0
M  V30 1454 C 146.1 -0.228113 2.01513 0
M  V30 1455 C 146.433 -1.48648 1.2497 0
M  V30 1456 O 145.708 -1.91459 0.342616 0
M  V30 1457 C 145.991 -0.522884 3.56284 0
M  V30 1458 C 145.844 0.74892 4.43521 0
M  V30 1459 C 147.163 -1.32461 4.19693 0
M  V30 1460 H 144.282 -0.0814343 0.732487 0
M  V30 1461 H 146.924 0.48713 1.83649 0
M  V30 1462 H 145.074 -1.1322 3.71636 0
M  V30 1463 H 146.746 1.38648 4.39971 0
M  V30 1464 H 144.989 1.36986 4.11603 0
M  V30 1465 H 145.66 0.497667 5.49752 0
M  V30 1466 H 148.136 -0.809203 4.08156 0
M  V30 1467 H 147.012 -1.49961 5.28018 0
M  V30 1468 H 147.273 -2.33232 3.75573 0
M  V30 1469 N 146.332 -1.57332 0.0918853 0
M  V30 1470 C 147.28 -2.15075 -0.885747 0
M  V30 1471 C 148.274 -1.09277 -1.29441 0
M  V30 1472 O 149.48 -1.27627 -1.26931 0
M  V30 1473 H 145.855 -0.687966 -0.303656 0
M  V30 1474 H 147.826 -2.96047 -0.373995 0
M  V30 1475 C 146.575 -2.74325 -2.13638 0
M  V30 1476 H 145.898 -3.55418 -1.8308 0
M  V30 1477 H 147.338 -3.183 -2.80109 0
M  V30 1478 C 145.797 -1.70062 -2.90827 0
M  V30 1479 O 146.327 -1.13763 -3.85254 0
M  V30 1480 N 144.533 -1.40628 -2.54307 0
M  V30 1481 H 144.08 -1.866 -1.7759 0
M  V30 1482 H 144.038 -0.711043 -3.06254 0
M  V30 1483 N 147.81 0.181792 -1.56548 0
M  V30 1484 C 148.758 1.24461 -1.965 0
M  V30 1485 C 149.752 1.464 -0.852261 0
M  V30 1486 O 150.958 1.47103 -1.03733 0
M  V30 1487 H 147.333 0.418138 -0.625031 0
M  V30 1488 H 149.304 0.880714 -2.85107 0
M  V30 1489 C 148.053 2.57891 -2.33212 0
M  V30 1490 H 147.376 2.41829 -3.18369 0
M  V30 1491 H 148.816 3.3097 -2.65019 0
M  V30 1492 C 147.275 3.15871 -1.17163 0
M  V30 1493 O 147.805 3.9913 -0.453708 0
M  V30 1494 N 146.011 2.74808 -0.944936 0
M  V30 1495 H 145.558 2.07205 -1.53049 0
M  V30 1496 H 145.516 3.13939 -0.170286 0
M  V30 1497 N 149.288 1.51039 0.449983 0
M  V30 1498 C 150.251 1.70863 1.5277 0
M  V30 1499 C 151.251 0.578846 1.5002 0
M  V30 1500 O 152.441 0.846213 1.52266 0
M  V30 1501 C 149.573 1.75341 2.9235 0
M  V30 1502 H 150.766 2.67034 1.36502 0
M  V30 1503 H 148.319 1.40838 0.677812 0
M  V30 1504 H 149.054 0.809383 3.14037 0
M  V30 1505 H 148.839 2.57436 2.95752 0
M  V30 1506 H 150.329 1.92559 3.70555 0
M  V30 1507 N 150.766 -0.704594 1.40972 0
M  V30 1508 C 151.991 -1.49858 1.43378 0
M  V30 1509 C 152.416 -1.88061 0.038184 0
M  V30 1510 O 151.774 -1.5402 -0.956425 0
M  V30 1511 C 151.822 -2.74333 2.34038 0
M  V30 1512 O 150.926 -3.7147 1.7912 0
M  V30 1513 H 150.267 -0.45139 0.486974 0
M  V30 1514 H 152.797 -0.866832 1.8533 0
M  V30 1515 H 152.807 -3.22741 2.49604 0
M  V30 1516 H 151.482 -2.45863 3.35446 0
M  V30 1517 H 150.059 -3.30363 1.72958 0
M  V30 1518 N 152.244 -1.26651 -0.937939 0
M  V30 1519 C 153.207 -1.08546 -2.01867 0
M  V30 1520 C 154.207 -0.0327327 -1.60767 0
M  V30 1521 O 155.397 -0.276427 -1.71993 0
M  V30 1522 C 152.529 -0.651711 -3.34613 0
M  V30 1523 H 153.722 -2.04502 -2.1936 0
M  V30 1524 H 151.275 -1.09294 -1.11734 0
M  V30 1525 H 152.01 0.309696 -3.22818 0
M  V30 1526 H 151.795 -1.41189 -3.65798 0
M  V30 1527 H 153.285 -0.546973 -4.14002 0
M  V30 1528 N 153.722 1.14298 -1.08507 0
M  V30 1529 C 154.952 1.88945 -0.835663 0
M  V30 1530 C 155.36 1.78894 0.615928 0
M  V30 1531 O 154.703 1.1468 1.43506 0
M  V30 1532 C 154.765 3.39585 -1.17994 0
M  V30 1533 C 154.429 3.7342 -2.63451 0
M  V30 1534 C 155.426 3.73454 -3.61702 0
M  V30 1535 C 153.111 4.03368 -2.99332 0
M  V30 1536 C 155.105 4.02961 -4.93864 0
M  V30 1537 C 152.792 4.32538 -4.31687 0
M  V30 1538 C 153.79 4.32318 -5.28763 0
M  V30 1539 O 153.478 4.6078 -6.58739 0
M  V30 1540 H 153.21 0.605307 -0.300965 0
M  V30 1541 H 155.764 1.45673 -1.44806 0
M  V30 1542 H 153.994 3.83315 -0.51055 0
M  V30 1543 H 155.683 3.9554 -0.911182 0
M  V30 1544 H 156.449 3.50403 -3.35325 0
M  V30 1545 H 152.328 4.02692 -2.24411 0
M  V30 1546 H 155.872 4.02704 -5.69627 0
M  V30 1547 H 151.769 4.55059 -4.57812 0
M  V30 1548 H 152.537 4.78492 -6.64069 0
M  V30 1549 N 155.201 0.870884 1.31352 0
M  V30 1550 C 156.431 0.496049 2.00557 0
M  V30 1551 C 156.839 -0.916241 1.65534 0
M  V30 1552 O 156.182 -1.61188 0.881134 0
M  V30 1553 C 156.244 0.574418 3.54881 0
M  V30 1554 C 155.908 1.94849 4.1338 0
M  V30 1555 C 156.905 2.91611 4.30417 0
M  V30 1556 C 154.59 2.25005 4.49086 0
M  V30 1557 C 156.584 4.16672 4.82352 0
M  V30 1558 C 154.271 3.50315 5.00722 0
M  V30 1559 C 155.269 4.45964 5.17306 0
M  V30 1560 O 154.957 5.69052 5.67833 0
M  V30 1561 H 154.689 0.191664 0.64826 0
M  V30 1562 H 157.243 1.17409 1.68536 0
M  V30 1563 H 155.473 -0.160549 3.86367 0
M  V30 1564 H 157.162 0.212879 4.05341 0
M  V30 1565 H 157.928 2.69622 4.03149 0
M  V30 1566 H 153.807 1.51332 4.35453 0
M  V30 1567 H 157.351 4.91336 4.95211 0
M  V30 1568 H 153.248 3.72147 5.27424 0
M  V30 1569 H 154.016 5.71236 5.86201 0
M  V30 1570 N 156.679 -1.44442 0.630414 0
M  V30 1571 C 158.09 -1.85434 0.217063 0
M  V30 1572 C 158.441 -1.52748 -1.23136 0
M  V30 1573 O 157.566 -0.965205 -1.93682 0
M  V30 1574 C 158.161 -3.36581 0.387168 0
M  V30 1575 C 156.72 -3.76389 0.0283297 0
M  V30 1576 C 155.867 -2.68296 0.700889 0
M  V30 1577 H 158.818 -1.34919 0.83562 0
M  V30 1578 H 158.839 -3.78657 -0.374086 0
M  V30 1579 H 158.351 -3.60339 1.44144 0
M  V30 1580 H 156.452 -3.58246 -1.02423 0
M  V30 1581 H 156.565 -4.77095 0.437892 0
M  V30 1582 H 154.929 -2.54335 0.136267 0
M  V30 1583 H 155.712 -2.94887 1.75774 0
M  V30 1584 N 158.157 -0.370918 -1.53173 0
M  V30 1585 C 159.385 0.217704 -2.05751 0
M  V30 1586 C 159.8 1.42018 -1.24404 0
M  V30 1587 O 159.157 1.80245 -0.286033 0
M  V30 1588 C 159.208 0.605954 -3.56385 0
M  V30 1589 O 158.929 -0.548734 -4.3465 0
M  V30 1590 C 160.43 1.2524 -4.25241 0
M  V30 1591 H 157.65 0.0371659 -0.66997 0
M  V30 1592 H 160.194 -0.530832 -1.9749 0
M  V30 1593 H 158.349 1.3044 -3.6478 0
M  V30 1594 H 158.763 -0.23376 -5.23979 0
M  V30 1595 H 160.237 1.47458 -5.3194 0
M  V30 1596 H 160.714 2.2143 -3.79296 0
M  V30 1597 H 161.32 0.595233 -4.21114 0
M  V30 1598 N 159.635 1.57281 -0.100228 0
M  V30 1599 C 161.046 1.81725 0.428107 0
M  V30 1600 C 161.397 1.01619 1.67833 0
M  V30 1601 O 160.522 0.247098 2.14985 0
M  V30 1602 C 161.117 3.29617 0.78347 0
M  V30 1603 C 159.676 3.54808 1.25653 0
M  V30 1604 C 158.823 2.76118 0.255752 0
M  V30 1605 H 161.774 1.55324 -0.325608 0
M  V30 1606 H 161.795 3.4322 1.64256 0
M  V30 1607 H 161.307 3.87893 -0.12665 0
M  V30 1608 H 159.408 3.01868 2.18418 0
M  V30 1609 H 159.521 4.63443 1.21482 0
M  V30 1610 H 157.885 2.43745 0.738956 0
M  V30 1611 H 158.668 3.37145 -0.647136 0
M  V30 1612 N 161.113 -0.173488 1.56642 0
M  V30 1613 C 162.043 -1.2171 1.99271 0
M  V30 1614 C 163.024 -1.46289 0.867959 0
M  V30 1615 O 164.209 -1.5766 1.13388 0
M  V30 1616 C 161.339 -2.55651 2.35074 0
M  V30 1617 C 160.293 -2.45645 3.50489 0
M  V30 1618 C 159.619 -3.84056 3.72028 0
M  V30 1619 C 160.919 -1.96302 4.84007 0
M  V30 1620 H 162.613 -0.86275 2.867 0
M  V30 1621 H 160.159 -0.413571 1.37933 0
M  V30 1622 H 162.112 -3.2886 2.63494 0
M  V30 1623 H 160.836 -2.92869 1.44552 0
M  V30 1624 H 159.495 -1.7489 3.22194 0
M  V30 1625 H 159.143 -4.18664 2.788 0
M  V30 1626 H 158.843 -3.7823 4.49684 0
M  V30 1627 H 160.367 -4.58854 4.02846 0
M  V30 1628 H 161.781 -2.59284 5.11317 0
M  V30 1629 H 160.178 -2.01429 5.65284 0
M  V30 1630 H 161.248 -0.917226 4.76146 0
M  V30 1631 N 162.591 -1.51276 -0.441967 0
M  V30 1632 C 163.521 -1.752 -1.54361 0
M  V30 1633 C 164.502 -0.601682 -1.59103 0
M  V30 1634 O 165.687 -0.843913 -1.74905 0
M  V30 1635 C 162.817 -1.87282 -2.92477 0
M  V30 1636 C 161.771 -3.02687 -3.02596 0
M  V30 1637 C 161.097 -2.99947 -4.42647 0
M  V30 1638 C 162.397 -4.4273 -2.77106 0
M  V30 1639 H 164.091 -2.67442 -1.34592 0
M  V30 1640 H 161.637 -1.28694 -0.646048 0
M  V30 1641 H 163.59 -2.02602 -3.695 0
M  V30 1642 H 162.314 -0.916844 -3.13467 0
M  V30 1643 H 160.973 -2.87065 -2.28012 0
M  V30 1644 H 160.621 -2.02136 -4.60597 0
M  V30 1645 H 160.321 -3.77439 -4.50348 0
M  V30 1646 H 161.845 -3.17354 -5.2165 0
M  V30 1647 H 163.259 -4.58727 -3.43864 0
M  V30 1648 H 161.656 -5.21893 -2.96222 0
M  V30 1649 H 162.726 -4.53087 -1.72744 0
M  V30 1650 N 164.069 0.697108 -1.41344 0
M  V30 1651 C 165.48 1.27697 -1.36199 0
M  V30 1652 C 165.831 1.9615 -0.0443463 0
M  V30 1653 O 164.956 1.98689 0.857419 0
M  V30 1654 C 165.551 2.32223 -2.46694 0
M  V30 1655 C 164.11 2.8579 -2.44952 0
M  V30 1656 C 163.257 1.59807 -2.26621 0
M  V30 1657 H 166.208 0.491968 -1.50882 0
M  V30 1658 H 166.229 3.1348 -2.15664 0
M  V30 1659 H 165.741 1.82373 -3.42581 0
M  V30 1660 H 163.842 3.3982 -1.52817 0
M  V30 1661 H 163.955 3.36325 -3.41207 0
M  V30 1662 H 162.319 1.8556 -1.7447 0
M  V30 1663 H 163.102 1.11956 -3.24532 0
M  V30 1664 N 165.547 1.27147 0.931209 0
M  V30 1665 C 166.795 1.13055 1.6752 0
M  V30 1666 C 167.116 -0.324791 1.92276 0
M  V30 1667 O 166.386 -1.22775 1.52654 0
M  V30 1668 H 164.966 0.415391 0.620854 0
M  V30 1669 H 167.628 1.59623 1.11833 0
M  V30 1670 H 166.724 1.65694 2.64485 0
M  V30 1671 N 167.025 -1.13721 1.09112 0
M  V30 1672 C 168.302 -1.81155 0.737706 0
M  V30 1673 C 168.682 -1.96253 -0.777683 0
M  V30 1674 O 168.03 -1.52807 -1.69889 0
M  V30 1675 C 168.24 -3.16392 1.47299 0
M  V30 1676 C 169.588 -3.91787 1.63671 0
M  V30 1677 O 170.612 -3.26005 1.43524 0
M  V30 1678 O 169.471 -5.0977 1.96969 0
M  V30 1679 H 166.565 -0.783518 0.26463 0
M  V30 1680 H 169.111 -1.20676 1.19312 0
M  V30 1681 H 167.883 -3.0061 2.50498 0
M  V30 1682 H 167.506 -3.8457 1.00953 0
M  V30 1683 N 168.503 -0.877838 -1.30888 0
M  V30 1684 C 169.78 -0.413052 -1.91189 0
M  V30 1685 C 170.16 1.1056 -1.79832 0
M  V30 1686 O 169.508 1.93771 -1.21099 0
M  V30 1687 C 169.718 -0.903191 -3.3711 0
M  V30 1688 C 171.066 -0.93395 -4.14201 0
M  V30 1689 O 172.09 -0.849373 -3.45925 0
M  V30 1690 O 170.949 -1.05772 -5.36167 0
M  V30 1691 H 168.043 -0.125035 -0.817493 0
M  V30 1692 H 170.589 -0.966269 -1.39504 0
M  V30 1693 H 169.361 -1.94692 -3.39427 0
M  V30 1694 H 168.984 -0.328732 -3.96239 0
M  V30 1695 N 169.982 1.44106 -0.638065 0
M  V30 1696 C 171.21 2.06336 -0.152615 0
M  V30 1697 C 171.625 1.47731 1.17563 0
M  V30 1698 O 170.982 0.602806 1.72257 0
M  V30 1699 C 171.033 3.61479 -0.0391491 0
M  V30 1700 O 170.754 4.17903 -1.31487 0
M  V30 1701 C 172.255 4.40757 0.474176 0
M  V30 1702 H 169.475 0.665862 -0.0828776 0
M  V30 1703 H 172.019 1.84862 -0.87443 0
M  V30 1704 H 170.174 3.82191 0.633142 0
M  V30 1705 H 170.588 5.11416 -1.16421 0
M  V30 1706 H 172.062 5.49707 0.502562 0
M  V30 1707 H 172.539 4.12697 1.50258 0
M  V30 1708 H 173.145 4.24979 -0.165102 0
M  V30 1709 N 171.46 0.379036 1.52974 0
M  V30 1710 C 172.408 -0.476033 2.27677 0
M  V30 1711 C 173.402 -1.0719 1.31174 0
M  V30 1712 O 174.608 -1.01355 1.48752 0
M  V30 1713 H 170.983 -0.172255 0.732006 0
M  V30 1714 H 172.954 0.175615 2.97883 0
M  V30 1715 C 171.703 -1.5967 3.0887 0
M  V30 1716 H 171.026 -1.1475 3.82978 0
M  V30 1717 H 172.466 -2.16943 3.64296 0
M  V30 1718 C 170.925 -2.54682 2.20542 0
M  V30 1719 O 171.455 -3.57836 1.82527 0
M  V30 1720 N 169.661 -2.24183 1.84907 0
M  V30 1721 H 169.208 -1.40333 2.1602 0
M  V30 1722 H 169.166 -2.88006 1.26096 0
M  V30 1723 N 172.938 -1.57226 0.108567 0
M  V30 1724 C 174.186 -1.94448 -0.550853 0
M  V30 1725 C 174.507 -0.992074 -1.67878 0
M  V30 1726 O 173.777 -0.0465 -1.95845 0
M  V30 1727 H 172.357 -0.717897 -0.206479 0
M  V30 1728 H 175.019 -1.94112 0.175062 0
M  V30 1729 H 174.115 -2.97218 -0.952259 0
M  V30 1730 N 174.416 0.165178 -1.56732 0
M  V30 1731 C 175.379 1.18822 -1.95995 0
M  V30 1732 C 176.379 1.3685 -0.84431 0
M  V30 1733 O 177.569 1.34152 -1.11126 0
M  V30 1734 C 174.701 2.5521 -2.26011 0
M  V30 1735 H 175.894 0.851825 -2.87548 0
M  V30 1736 H 173.447 0.407857 -1.50885 0
M  V30 1737 H 174.182 2.93852 -1.37191 0
M  V30 1738 H 173.967 2.43489 -3.07336 0
M  V30 1739 H 175.457 3.28927 -2.57288 0
M  V30 1740 N 175.894 1.51508 0.433938 0
M  V30 1741 C 176.857 1.72473 1.50949 0
M  V30 1742 C 177.857 0.594725 1.49398 0
M  V30 1743 O 179.047 0.862315 1.5136 0
M  V30 1744 C 176.179 1.78431 2.90474 0
M  V30 1745 H 177.372 2.68467 1.33662 0
M  V30 1746 H 174.925 1.41549 0.662836 0
M  V30 1747 H 175.66 0.842645 3.13161 0
M  V30 1748 H 175.445 2.60558 2.93005 0
M  V30 1749 H 176.935 1.96479 3.68491 0
M  V30 1750 N 177.372 -0.689602 1.41712 0
M  V30 1751 C 178.282 -1.83314 1.46401 0
M  V30 1752 C 179.298 -1.7036 0.35405 0
M  V30 1753 O 180.474 -1.92171 0.602692 0
M  V30 1754 C 177.539 -3.19344 1.34982 0
M  V30 1755 C 176.6 -3.44363 2.56344 0
M  V30 1756 C 175.833 -4.73904 2.45461 0
M  V30 1757 O 176.056 -5.508 1.48241 0
M  V30 1758 O 174.99 -4.99839 3.35328 0
M  V30 1759 H 178.816 -1.82314 2.42889 0
M  V30 1760 H 176.401 -0.843438 1.23315 0
M  V30 1761 H 178.283 -4.00547 1.3092 0
M  V30 1762 H 176.958 -3.21014 0.41612 0
M  V30 1763 H 175.865 -2.63067 2.65982 0
M  V30 1764 H 177.198 -3.47512 3.48563 0
M  V30 1765 N 178.85 -1.27639 -0.924453 0
M  V30 1766 C 179.813 -1.10681 -2.00705 0
M  V30 1767 C 180.813 -0.0497823 -1.60723 0
M  V30 1768 O 182.003 -0.294654 -1.7169 0
M  V30 1769 C 179.135 -0.687164 -3.33902 0
M  V30 1770 H 180.328 -2.06817 -2.17179 0
M  V30 1771 H 177.881 -1.10473 -1.10569 0
M  V30 1772 H 178.616 0.275439 -3.23128 0
M  V30 1773 H 178.401 -1.45061 -3.6428 0
M  V30 1774 H 179.891 -0.590853 -4.13399 0
M  V30 1775 N 180.328 1.1314 -1.09713 0
M  V30 1776 C 181.275 2.18642 -0.739196 0
M  V30 1777 C 182.245 1.63706 0.280978 0
M  V30 1778 O 183.43 1.90111 0.161946 0
M  V30 1779 C 180.57 3.44685 -0.169102 0
M  V30 1780 C 179.683 4.13711 -1.24367 0
M  V30 1781 C 178.818 5.27379 -0.636019 0
M  V30 1782 C 177.857 5.88259 -1.69169 0
M  V30 1783 N 176.994 6.93352 -1.10485 0
M  V30 1784 H 181.834 2.48607 -1.64312 0
M  V30 1785 H 179.371 1.22066 -0.820875 0
M  V30 1786 H 181.329 4.16815 0.179256 0
M  V30 1787 H 179.959 3.15161 0.698079 0
M  V30 1788 H 179.011 3.39835 -1.70927 0
M  V30 1789 H 180.323 4.55037 -2.04311 0
M  V30 1790 H 179.477 6.06238 -0.236677 0
M  V30 1791 H 178.216 4.8731 0.194928 0
M  V30 1792 H 177.221 5.08092 -2.10055 0
M  V30 1793 H 178.446 6.30399 -2.52536 0
M  V30 1794 H 176.392 6.55335 -0.295234 0
M  V30 1795 H 176.309 7.33236 -1.84121 0
M  V30 1796 H 177.577 7.76057 -0.73181 0
M  V30 1797 N 181.806 0.884767 1.30421 0
M  V30 1798 C 183.217 0.553656 1.78302 0
M  V30 1799 C 183.568 -0.930153 1.7275 0
M  V30 1800 O 182.693 -1.72681 1.30423 0
M  V30 1801 C 183.288 0.998234 3.2376 0
M  V30 1802 C 181.847 0.71854 3.69478 0
M  V30 1803 C 180.994 1.18132 2.50879 0
M  V30 1804 H 183.945 1.06901 1.17294 0
M  V30 1805 H 183.966 0.327118 3.79091 0
M  V30 1806 H 183.478 2.0782 3.27769 0
M  V30 1807 H 181.579 -0.349444 3.70958 0
M  V30 1808 H 181.692 1.30595 4.60958 0
M  V30 1809 H 180.056 0.600669 2.47516 0
M  V30 1810 H 180.839 2.26902 2.57624 0
M  V30 1811 N 183.284 -1.43765 0.645699 0
M  V30 1812 C 184.533 -2.01116 0.153412 0
M  V30 1813 C 184.846 -1.51493 -1.23731 0
M  V30 1814 O 186.052 -2.01067 -1.8244 0
M  V30 1815 C 184.508 -3.59206 0.223473 0
M  V30 1816 C 184.116 -4.17823 1.61642 0
M  V30 1817 C 185.86 -4.23972 -0.211597 0
M  V30 1818 C 183.767 -5.68183 1.64081 0
M  V30 1819 H 182.697 -0.752093 0.0535891 0
M  V30 1820 H 185.348 -1.6482 0.806633 0
M  V30 1821 H 183.73 -3.92867 -0.497118 0
M  V30 1822 H 184.904 -3.95674 2.36176 0
M  V30 1823 H 183.219 -3.65399 1.99681 0
M  V30 1824 H 185.816 -5.34275 -0.213112 0
M  V30 1825 H 186.159 -3.97352 -1.24165 0
M  V30 1826 H 186.692 -3.95166 0.456988 0
M  V30 1827 H 183.431 -5.99559 2.64971 0
M  V30 1828 H 182.951 -5.9241 0.938611 0
M  V30 1829 H 184.63 -6.32085 1.3812 0
M  V30 1830 N 184.763 -0.387143 -1.52771 0
M  V30 1831 C 186.04 0.253197 -1.93954 0
M  V30 1832 C 186.42 1.64545 -1.32243 0
M  V30 1833 O 185.768 2.23191 -0.489699 0
M  V30 1834 C 185.978 0.281722 -3.47861 0
M  V30 1835 C 187.326 0.511715 -4.21505 0
M  V30 1836 O 188.35 0.362023 -3.54356 0
M  V30 1837 O 187.209 0.804847 -5.40541 0
M  V30 1838 H 184.303 0.156845 -0.811991 0
M  V30 1839 H 186.849 -0.441494 -1.63856 0
M  V30 1840 H 185.621 -0.693571 -3.85104 0
M  V30 1841 H 185.244 1.02142 -3.84256 0
M  V30 1842 N 186.241 1.57166 -0.116904 0
M  V30 1843 C 187.204 2.14039 0.819742 0
M  V30 1844 C 188.204 1.07477 1.19605 0
M  V30 1845 O 189.394 1.33263 1.1219 0
M  V30 1846 C 186.526 2.67891 2.10826 0
M  V30 1847 H 187.719 2.98128 0.325511 0
M  V30 1848 H 185.272 1.55739 0.132312 0
M  V30 1849 H 186.007 1.87384 2.64685 0
M  V30 1850 H 185.792 3.45823 1.84793 0
M  V30 1851 H 187.282 3.11809 2.77785 0
M  V30 1852 N 187.719 -0.156864 1.56817 0
M  V30 1853 C 188.651 -1.21883 1.94106 0
M  V30 1854 C 189.664 -1.3971 0.835754 0
M  V30 1855 O 190.853 -1.39457 1.11418 0
M  V30 1856 C 187.953 -2.58527 2.19127 0
M  V30 1857 C 187.126 -2.61809 3.50393 0
M  V30 1858 C 186.185 -3.7992 3.64071 0
M  V30 1859 O 185.211 -3.65249 4.36557 0
M  V30 1860 N 186.413 -4.96973 2.99997 0
M  V30 1861 H 189.178 -0.901974 2.85805 0
M  V30 1862 H 186.739 -0.346513 1.58148 0
M  V30 1863 H 188.731 -3.36034 2.25529 0
M  V30 1864 H 187.301 -2.82545 1.33742 0
M  V30 1865 H 186.521 -1.7029 3.5552 0
M  V30 1866 H 187.809 -2.61024 4.36742 0
M  V30 1867 H 187.207 -5.11794 2.41004 0
M  V30 1868 H 185.764 -5.7229 3.11974 0
M  V30 1869 N 189.197 -1.51736 -0.425897 0
M  V30 1870 C 190.443 -1.65214 -1.1761 0
M  V30 1871 C 190.776 -0.372778 -1.90589 0
M  V30 1872 O 190.051 0.628139 -1.84078 0
M  V30 1873 C 190.334 -2.86312 -2.18398 0
M  V30 1874 C 190.187 -4.24254 -1.49426 0
M  V30 1875 C 191.506 -3.02925 -3.19256 0
M  V30 1876 H 188.625 -0.601263 -0.426206 0
M  V30 1877 H 191.267 -1.8425 -0.463882 0
M  V30 1878 H 189.417 -2.70213 -2.79137 0
M  V30 1879 H 191.089 -4.52046 -0.919362 0
M  V30 1880 H 189.332 -4.26426 -0.796432 0
M  V30 1881 H 190.003 -5.05001 -2.22885 0
M  V30 1882 H 192.479 -3.1781 -2.68581 0
M  V30 1883 H 191.355 -3.89199 -3.8706 0
M  V30 1884 H 191.616 -2.15497 -3.86023 0
M  V30 1885 N 190.675 0.682077 -1.42076 0
M  V30 1886 C 191.638 1.77756 -1.44691 0
M  V30 1887 C 192.638 1.5726 -0.335535 0
M  V30 1888 O 193.828 1.63686 -0.596037 0
M  V30 1889 C 190.96 3.16301 -1.27146 0
M  V30 1890 H 192.153 1.76826 -2.42224 0
M  V30 1891 H 189.706 0.891012 -1.28416 0
M  V30 1892 H 190.441 3.22862 -0.305075 0
M  V30 1893 H 190.226 3.32581 -2.07683 0
M  V30 1894 H 191.716 3.96241 -1.31843 0
M  V30 1895 N 192.153 1.28127 0.917671 0
M  V30 1896 C 193.063 1.13556 2.05286 0
M  V30 1897 C 194.079 0.0630914 1.73886 0
M  V30 1898 O 195.255 0.271598 1.9956 0
M  V30 1899 C 192.32 0.794676 3.3747 0
M  V30 1900 C 191.381 1.94909 3.82504 0
M  V30 1901 C 190.614 1.62437 5.0838 0
M  V30 1902 O 190.837 0.536905 5.67867 0
M  V30 1903 O 189.771 2.46677 5.4903 0
M  V30 1904 H 193.597 2.08844 2.20495 0
M  V30 1905 H 191.182 1.07409 1.03845 0
M  V30 1906 H 193.064 0.618344 4.16839 0
M  V30 1907 H 191.739 -0.128581 3.23445 0
M  V30 1908 H 190.646 2.18055 3.03978 0
M  V30 1909 H 191.979 2.85291 4.01086 0
M  V30 1910 N 193.631 -1.12557 1.10312 0
M  V30 1911 C 194.561 -2.20341 0.772798 0
M  V30 1912 C 195.542 -1.68198 -0.25365 0
M  V30 1913 O 196.727 -1.93831 -0.119699 0
M  V30 1914 C 193.857 -3.46709 0.202443 0
M  V30 1915 C 192.811 -4.11996 1.15943 0
M  V30 1916 C 192.137 -5.328 0.450345 0
M  V30 1917 C 193.437 -4.5828 2.50552 0
M  V30 1918 H 195.131 -2.48229 1.674 0
M  V30 1919 H 192.677 -1.19308 0.806326 0
M  V30 1920 H 194.63 -4.2138 -0.0407752 0
M  V30 1921 H 193.354 -3.18245 -0.734001 0
M  V30 1922 H 192.013 -3.39305 1.38808 0
M  V30 1923 H 191.661 -5.00602 -0.490531 0
M  V30 1924 H 191.361 -5.7743 1.08851 0
M  V30 1925 H 192.885 -6.10219 0.215642 0
M  V30 1926 H 194.299 -5.2433 2.31843 0
M  V30 1927 H 192.696 -5.13683 3.10242 0
M  V30 1928 H 193.766 -3.72329 3.10643 0
M  V30 1929 N 195.109 -0.891671 -1.2995 0
M  V30 1930 C 196.356 -0.513501 -1.95881 0
M  V30 1931 C 196.684 0.938655 -1.70351 0
M  V30 1932 O 195.939 1.67936 -1.00478 0
M  V30 1933 C 196.238 -0.742868 -3.49594 0
M  V30 1934 C 195.904 -2.17114 -3.95186 0
M  V30 1935 C 194.566 -2.56169 -4.07346 0
M  V30 1936 C 196.918 -3.10162 -4.18866 0
M  V30 1937 C 194.246 -3.87469 -4.4055 0
M  V30 1938 C 196.598 -4.41001 -4.53542 0
M  V30 1939 C 195.262 -4.79941 -4.63911 0
M  V30 1940 H 194.532 -0.187903 -0.71678 0
M  V30 1941 H 197.179 -1.1288 -1.54694 0
M  V30 1942 H 195.484 -0.044586 -3.91775 0
M  V30 1943 H 197.181 -0.429767 -3.9869 0
M  V30 1944 H 193.771 -1.85801 -3.86233 0
M  V30 1945 H 197.955 -2.81206 -4.08946 0
M  V30 1946 H 193.211 -4.17371 -4.46779 0
M  V30 1947 H 197.385 -5.13133 -4.70815 0
M  V30 1948 H 195.012 -5.81719 -4.89395 0
M  V30 1949 N 196.587 1.43421 -0.653314 0
M  V30 1950 C 197.835 2.01414 -0.166415 0
M  V30 1951 C 198.156 1.51803 1.22397 0
M  V30 1952 O 197.426 0.730693 1.81763 0
M  V30 1953 H 196.006 0.744703 -0.0585319 0
M  V30 1954 H 198.668 1.75629 -0.845003 0
M  V30 1955 H 197.764 3.11734 -0.151111 0
M  V30 1956 N 198.065 0.39524 1.52563 0
M  V30 1957 C 199.29 -0.187456 2.06551 0
M  V30 1958 C 199.715 -1.39249 1.26457 0
M  V30 1959 O 199.073 -1.78947 0.291151 0
M  V30 1960 C 199.121 -0.529985 3.56684 0
M  V30 1961 O 198.225 -1.62307 3.79118 0
M  V30 1962 H 197.566 -0.0202537 0.663691 0
M  V30 1963 H 200.096 0.564426 1.96661 0
M  V30 1964 H 200.106 -0.792598 4.00227 0
M  V30 1965 H 198.781 0.350987 4.14416 0
M  V30 1966 H 197.358 -1.3537 3.47461 0
M  V30 1967 N 199.544 -1.57102 0.125237 0
M  V30 1968 C 200.492 -2.16905 -0.839927 0
M  V30 1969 C 201.486 -1.11998 -1.27094 0
M  V30 1970 O 202.692 -1.3029 -1.24195 0
M  V30 1971 H 199.067 -0.694252 -0.288995 0
M  V30 1972 H 201.038 -2.96774 -0.311115 0
M  V30 1973 C 199.787 -2.78795 -2.07771 0
M  V30 1974 H 199.11 -3.59221 -1.755 0
M  V30 1975 H 200.55 -3.2417 -2.73295 0
M  V30 1976 C 199.009 -1.76193 -2.87155 0
M  V30 1977 O 199.539 -1.21909 -3.82755 0
M  V30 1978 N 197.745 -1.45991 -2.51267 0
M  V30 1979 H 197.292 -1.90325 -1.73592 0
M  V30 1980 H 197.25 -0.775844 -3.04677 0
M  V30 1981 N 201.022 0.148545 -1.56898 0
M  V30 1982 C 201.985 1.16736 -1.97244 0
M  V30 1983 C 202.985 1.35947 -0.858777 0
M  V30 1984 O 204.175 1.32966 -1.12542 0
M  V30 1985 C 201.307 2.52798 -2.28705 0
M  V30 1986 H 202.5 0.821279 -2.88435 0
M  V30 1987 H 200.053 0.391831 -1.51309 0
M  V30 1988 H 200.788 2.92381 -1.403 0
M  V30 1989 H 200.573 2.40216 -3.09901 0
M  V30 1990 H 202.063 3.26179 -2.60762 0
M  V30 1991 N 202.5 1.5196 0.417844 0
M  V30 1992 C 203.746 1.65836 1.16732 0
M  V30 1993 C 204.079 0.382881 1.90388 0
M  V30 1994 O 203.354 -0.618368 1.84408 0
M  V30 1995 C 203.637 2.87466 2.16876 0
M  V30 1996 C 203.49 4.25041 1.47174 0
M  V30 1997 C 204.809 3.04613 3.17646 0
M  V30 1998 H 201.928 0.603515 0.423011 0
M  V30 1999 H 204.57 1.84494 0.454105 0
M  V30 2000 H 202.72 2.71689 2.777 0
M  V30 2001 H 204.392 4.52527 0.895376 0
M  V30 2002 H 202.635 4.26843 0.773806 0
M  V30 2003 H 203.306 5.06176 2.20204 0
M  V30 2004 H 205.782 3.1923 2.66892 0
M  V30 2005 H 204.658 3.91247 3.8499 0
M  V30 2006 H 204.919 2.17541 3.84874 0
M  V30 2007 N 203.978 -0.674533 1.42435 0
M  V30 2008 C 204.941 -1.76986 1.45632 0
M  V30 2009 C 205.941 -1.5708 0.343871 0
M  V30 2010 O 207.131 -1.63367 0.604709 0
M  V30 2011 C 204.263 -3.15623 1.28822 0
M  V30 2012 H 205.456 -1.75539 2.43158 0
M  V30 2013 H 203.009 -0.884189 1.28887 0
M  V30 2014 H 203.744 -3.22696 0.322193 0
M  V30 2015 H 203.529 -3.31475 2.09444 0
M  V30 2016 H 205.019 -3.95537 1.33942 0
M  V30 2017 N 205.456 -1.28612 -0.910864 0
M  V30 2018 C 206.867 -1.14406 -1.47541 0
M  V30 2019 C 207.218 0.264901 -1.94403 0
M  V30 2020 O 206.343 1.15942 -1.82719 0
M  V30 2021 C 206.938 -2.07073 -2.68153 0
M  V30 2022 C 205.497 -1.96923 -3.20778 0
M  V30 2023 C 204.644 -1.98646 -1.93481 0
M  V30 2024 H 207.595 -1.41259 -0.723291 0
M  V30 2025 H 207.616 -1.63642 -3.43514 0
M  V30 2026 H 207.128 -3.09611 -2.34015 0
M  V30 2027 H 205.229 -0.97433 -3.59635 0
M  V30 2028 H 205.342 -2.84026 -3.85832 0
M  V30 2029 H 203.706 -1.43093 -2.10705 0
M  V30 2030 H 204.489 -3.02868 -1.61634 0
M  V30 2031 N 206.934 1.1197 -1.10907 0
M  V30 2032 C 207.864 2.19928 -0.784473 0
M  V30 2033 C 208.845 1.6833 0.244726 0
M  V30 2034 O 210.03 1.93892 0.109418 0
M  V30 2035 C 207.16 3.46597 -0.220827 0
M  V30 2036 C 206.114 4.11376 -1.18127 0
M  V30 2037 C 205.44 5.32554 -0.478594 0
M  V30 2038 C 206.74 4.56945 -2.52979 0
M  V30 2039 H 208.434 2.47337 -1.68715 0
M  V30 2040 H 205.98 1.18879 -0.812642 0
M  V30 2041 H 207.933 4.21396 0.0184278 0
M  V30 2042 H 206.657 3.1863 0.717113 0
M  V30 2043 H 205.316 3.38564 -1.40606 0
M  V30 2044 H 204.964 5.00856 0.463976 0
M  V30 2045 H 204.664 5.76844 -1.11912 0
M  V30 2046 H 206.188 6.10096 -0.248 0
M  V30 2047 H 207.602 5.23093 -2.3462 0
M  V30 2048 H 205.999 5.1203 -3.12962 0
M  V30 2049 H 207.069 3.70676 -3.12614 0
M  V30 2050 N 208.412 0.89855 1.29475 0
M  V30 2051 C 209.659 0.523882 1.95606 0
M  V30 2052 C 209.987 -0.929608 1.70847 0
M  V30 2053 O 209.242 -1.67401 1.01367 0
M  V30 2054 C 209.541 0.761398 3.49195 0
M  V30 2055 C 209.207 2.19207 3.94029 0
M  V30 2056 C 207.869 2.58326 4.05982 0
M  V30 2057 C 210.221 3.12379 4.17216 0
M  V30 2058 C 207.549 3.898 4.38489 0
M  V30 2059 C 209.901 4.43401 4.51197 0
M  V30 2060 C 208.565 4.82394 4.61359 0
M  V30 2061 H 207.835 0.191702 0.715773 0
M  V30 2062 H 210.482 1.13699 1.54094 0
M  V30 2063 H 208.787 0.0653622 3.91745 0
M  V30 2064 H 210.484 0.450904 3.98457 0
M  V30 2065 H 207.074 1.87846 3.85242 0
M  V30 2066 H 211.258 2.83371 4.07449 0
M  V30 2067 H 206.514 4.19734 4.44559 0
M  V30 2068 H 210.688 5.15623 4.68087 0
M  V30 2069 H 208.315 5.84306 4.86303 0
M  V30 2070 N 209.89 -1.43072 0.660911 0
M  V30 2071 C 210.82 -2.33497 -0.0122829 0
M  V30 2072 C 211.801 -1.49903 -0.803925 0
M  V30 2073 O 212.986 -1.78546 -0.763864 0
M  V30 2074 C 210.116 -3.33363 -0.973994 0
M  V30 2075 C 209.07 -4.27003 -0.291928 0
M  V30 2076 C 208.396 -5.16967 -1.36562 0
M  V30 2077 C 209.696 -5.15816 0.820462 0
M  V30 2078 H 211.39 -2.90038 0.742873 0
M  V30 2079 H 208.936 -1.39461 0.358688 0
M  V30 2080 H 210.889 -3.95524 -1.45392 0
M  V30 2081 H 209.613 -2.75095 -1.7604 0
M  V30 2082 H 208.272 -3.66217 0.167623 0
M  V30 2083 H 207.92 -4.55034 -2.14366 0
M  V30 2084 H 207.62 -5.80441 -0.914454 0
M  V30 2085 H 209.144 -5.82003 -1.84675 0
M  V30 2086 H 210.558 -5.71742 0.422366 0
M  V30 2087 H 208.955 -5.8805 1.19656 0
M  V30 2088 H 210.025 -4.55045 1.67518 0
M  V30 2089 N 211.368 -0.403325 -1.52352 0
M  V30 2090 C 212.617 0.175668 -2.00934 0
M  V30 2091 C 212.93 1.46718 -1.29356 0
M  V30 2092 O 214.136 2.12708 -1.68724 0
M  V30 2093 C 212.592 0.363612 -3.58058 0
M  V30 2094 C 212.2 -0.915472 -4.38547 0
M  V30 2095 C 213.944 0.89821 -4.14888 0
M  V30 2096 C 211.851 -0.695035 -5.87302 0
M  V30 2097 H 210.781 0.0694234 -0.750797 0
M  V30 2098 H 213.432 -0.527879 -1.75743 0
M  V30 2099 H 211.814 1.12935 -3.79555 0
M  V30 2100 H 212.988 -1.68691 -4.28812 0
M  V30 2101 H 211.303 -1.37606 -3.93006 0
M  V30 2102 H 213.9 1.07907 -5.23699 0
M  V30 2103 H 214.243 1.87126 -3.71873 0
M  V30 2104 H 214.776 0.191681 -3.97338 0
M  V30 2105 H 211.515 -1.63948 -6.34666 0
M  V30 2106 H 211.035 0.0372116 -5.99788 0
M  V30 2107 H 212.714 -0.33497 -6.46132 0
M  V30 2108 N 212.846 1.57033 -0.133567 0
M  V30 2109 C 214.262 1.58035 0.222944 0
M  V30 2110 C 214.462 1.14713 1.6566 0
M  V30 2111 O 213.518 0.841218 2.38075 0
M  V30 2112 C 214.831 3.00691 -0.0236116 0
M  V30 2113 C 216.379 3.12973 0.0411512 0
M  V30 2114 C 216.854 4.57654 -0.177899 0
M  V30 2115 N 218.345 4.63033 -0.124365 0
M  V30 2116 C 219.08 5.72771 -0.268553 0
M  V30 2117 N 218.576 6.91206 -0.46972 0
M  V30 2118 N 220.369 5.61718 -0.2071 0
M  V30 2119 H 212.52 1.8349 -1.06981 0
M  V30 2120 H 214.783 0.848677 -0.422436 0
M  V30 2121 H 214.489 3.36726 -1.0153 0
M  V30 2122 H 214.363 3.70614 0.701808 0
M  V30 2123 H 216.75 2.76787 1.02338 0
M  V30 2124 H 216.831 2.45564 -0.716383 0
M  V30 2125 H 216.475 4.94542 -1.15717 0
M  V30 2126 H 216.405 5.23173 0.599797 0
M  V30 2127 H 218.896 3.7789 0.027011 0
M  V30 2128 H 219.209 7.70693 -0.570212 0
M  V30 2129 H 217.554 6.93156 -0.505876 0
M  V30 2130 H 220.745 4.68072 -0.0507986 0
M  V30 2131 H 220.918 6.47195 -0.322909 0
M  V30 2132 N 214.325 -0.140222 1.56975 0
M  V30 2133 C 215.288 -1.15689 1.97861 0
M  V30 2134 C 216.288 -1.3549 0.865974 0
M  V30 2135 O 217.478 -1.32367 1.13246 0
M  V30 2136 C 214.61 -2.51582 2.30042 0
M  V30 2137 H 215.803 -0.805971 2.88867 0
M  V30 2138 H 213.356 -0.383801 1.51515 0
M  V30 2139 H 214.091 -2.91632 1.41849 0
M  V30 2140 H 213.876 -2.38569 3.11171 0
M  V30 2141 H 215.366 -3.24792 2.62488 0
M  V30 2142 N 215.803 -1.52179 -0.40978 0
M  V30 2143 C 217.05 -1.66206 -1.15679 0
M  V30 2144 C 217.378 -0.391674 -1.90516 0
M  V30 2145 O 216.633 0.62533 -1.8544 0
M  V30 2146 C 216.932 -2.83428 -2.17723 0
M  V30 2147 C 216.598 -4.21672 -1.59699 0
M  V30 2148 C 215.26 -4.59274 -1.43599 0
M  V30 2149 C 217.612 -5.07825 -1.17317 0
M  V30 2150 C 214.94 -5.80709 -0.836328 0
M  V30 2151 C 217.292 -6.29864 -0.587691 0
M  V30 2152 C 215.956 -6.66216 -0.413818 0
M  V30 2153 H 215.226 -0.608192 -0.423301 0
M  V30 2154 H 217.873 -1.86279 -0.444097 0
M  V30 2155 H 216.178 -2.57687 -2.95135 0
M  V30 2156 H 217.875 -2.91477 -2.75394 0
M  V30 2157 H 214.465 -3.9204 -1.73213 0
M  V30 2158 H 218.649 -4.79359 -1.28565 0
M  V30 2159 H 213.905 -6.07498 -0.689626 0
M  V30 2160 H 218.079 -6.95948 -0.250894 0
M  V30 2161 H 215.706 -7.60182 0.0529471 0
M  V30 2162 N 217.281 0.66697 -1.42791 0
M  V30 2163 C 218.244 1.76211 -1.46568 0
M  V30 2164 C 219.244 1.56896 -0.352196 0
M  V30 2165 O 220.434 1.63044 -0.613364 0
M  V30 2166 C 217.566 3.14935 -1.30494 0
M  V30 2167 H 218.759 1.74247 -2.44086 0
M  V30 2168 H 216.312 0.877342 -1.29354 0
M  V30 2169 H 217.047 3.2252 -0.339301 0
M  V30 2170 H 216.832 3.30359 -2.11199 0
M  V30 2171 H 218.322 3.94821 -1.36038 0
M  V30 2172 N 218.759 1.29093 0.90403 0
M  V30 2173 C 220.175 1.07011 1.1841 0
M  V30 2174 C 220.375 -0.181358 2.00682 0
M  V30 2175 O 219.431 -0.880331 2.36657 0
M  V30 2176 C 220.744 2.32311 1.90924 0
M  V30 2177 C 222.292 2.37587 2.03768 0
M  V30 2178 C 222.767 3.62679 2.79693 0
M  V30 2179 N 224.258 3.63376 2.87249 0
M  V30 2180 C 224.993 4.56848 3.46522 0
M  V30 2181 N 224.489 5.60648 4.06996 0
M  V30 2182 N 226.282 4.44426 3.44154 0
M  V30 2183 H 218.433 2.09412 0.354993 0
M  V30 2184 H 220.696 0.922181 0.219742 0
M  V30 2185 H 220.402 3.23536 1.37905 0
M  V30 2186 H 220.276 2.39483 2.91424 0
M  V30 2187 H 222.663 1.46853 2.55965 0
M  V30 2188 H 222.744 2.34403 1.02415 0
M  V30 2189 H 222.388 4.53762 2.28173 0
M  V30 2190 H 222.318 3.63119 3.81381 0
M  V30 2191 H 224.809 2.88321 2.44293 0
M  V30 2192 H 225.122 6.28101 4.50232 0
M  V30 2193 H 223.467 5.64463 4.05471 0
M  V30 2194 H 226.658 3.62529 2.96126 0
M  V30 2195 H 226.831 5.17457 3.90054 0
M  V30 2196 N 220.237 -1.11381 1.11499 0
M  V30 2197 C 221.653 -1.35143 0.849031 0
M  V30 2198 C 221.853 -1.94515 -0.525938 0
M  V30 2199 O 220.909 -2.1785 -1.27662 0
M  V30 2200 C 222.222 -2.28249 1.95762 0
M  V30 2201 C 223.77 -2.41812 1.98736 0
M  V30 2202 C 224.245 -3.3824 3.088 0
M  V30 2203 N 225.736 -3.45803 3.08179 0
M  V30 2204 C 226.471 -4.20358 3.89982 0
M  V30 2205 N 225.967 -4.97884 4.8175 0
M  V30 2206 N 227.76 -4.15877 3.78157 0
M  V30 2207 H 219.911 -0.712062 2.00109 0
M  V30 2208 H 222.174 -0.376025 0.870235 0
M  V30 2209 H 221.88 -1.91817 2.94787 0
M  V30 2210 H 221.754 -3.28473 1.85433 0
M  V30 2211 H 224.141 -2.77518 1.00338 0
M  V30 2212 H 224.222 -1.41437 2.13141 0
M  V30 2213 H 223.866 -3.03261 4.07425 0
M  V30 2214 H 223.796 -4.38471 2.91635 0
M  V30 2215 H 226.287 -2.90506 2.41691 0
M  V30 2216 H 226.6 -5.52142 5.40702 0
M  V30 2217 H 224.945 -4.97043 4.85771 0
M  V30 2218 H 228.136 -3.544 3.05808 0
M  V30 2219 H 228.309 -4.73723 4.42143 0
M  V30 2220 N 221.715 -0.905404 -1.28997 0
M  V30 2221 C 222.647 -0.344748 -2.26592 0
M  V30 2222 C 223.66 0.512135 -1.54535 0
M  V30 2223 O 224.849 0.328368 -1.75454 0
M  V30 2224 C 221.949 0.526587 -3.34784 0
M  V30 2225 C 221.122 -0.305871 -4.36329 0
M  V30 2226 C 220.181 0.499209 -5.23827 0
M  V30 2227 O 219.207 -0.0853004 -5.69136 0
M  V30 2228 N 220.409 1.80408 -5.51755 0
M  V30 2229 H 223.174 -1.18359 -2.75338 0
M  V30 2230 H 220.735 -0.770481 -1.42391 0
M  V30 2231 H 222.727 1.07171 -3.90252 0
M  V30 2232 H 221.297 1.26613 -2.85811 0
M  V30 2233 H 220.517 -1.0324 -3.80441 0
M  V30 2234 H 221.805 -0.875773 -5.01206 0
M  V30 2235 H 221.203 2.3016 -5.16762 0
M  V30 2236 H 219.76 2.29621 -6.10014 0
M  V30 2237 N 223.193 1.4272 -0.668489 0
M  V30 2238 C 224.441 2.01226 -0.187769 0
M  V30 2239 C 224.762 1.53092 1.2078 0
M  V30 2240 O 224.032 0.74993 1.80977 0
M  V30 2241 H 222.612 0.744041 -0.0664272 0
M  V30 2242 H 225.274 1.74723 -0.863583 0
M  V30 2243 H 224.37 3.11556 -0.184166 0
M  V30 2244 N 224.671 0.411399 1.52136 0
M  V30 2245 C 225.581 -0.419774 2.30814 0
M  V30 2246 C 226.597 -1.0515 1.38634 0
M  V30 2247 O 227.773 -1.05252 1.71709 0
M  V30 2248 C 224.838 -1.52019 3.11594 0
M  V30 2249 C 223.899 -0.91129 4.19516 0
M  V30 2250 C 223.132 -1.95927 4.96436 0
M  V30 2251 O 223.355 -3.17775 4.73683 0
M  V30 2252 O 222.289 -1.56423 5.81219 0
M  V30 2253 H 226.115 0.221805 3.02889 0
M  V30 2254 H 223.7 0.174547 1.48377 0
M  V30 2255 H 225.582 -2.15898 3.61892 0
M  V30 2256 H 224.257 -2.14633 2.42311 0
M  V30 2257 H 223.164 -0.235157 3.7336 0
M  V30 2258 H 224.497 -0.32904 4.91099 0
M  V30 2259 N 226.149 -1.5696 0.141893 0
M  V30 2260 C 227.397 -1.95573 -0.509484 0
M  V30 2261 C 227.718 -1.02746 -1.65736 0
M  V30 2262 O 226.988 -0.0880311 -1.95702 0
M  V30 2263 H 225.568 -0.722115 -0.191205 0
M  V30 2264 H 228.23 -1.93697 0.216196 0
M  V30 2265 H 227.326 -2.99171 -0.889 0
M  V30 2266 N 227.627 0.131896 -1.57047 0
M  V30 2267 C 228.875 0.840269 -1.83804 0
M  V30 2268 C 229.196 1.81017 -0.72512 0
M  V30 2269 O 228.466 1.94272 0.251995 0
M  V30 2270 H 227.046 0.313294 -0.678127 0
M  V30 2271 H 229.708 0.122294 -1.94516 0
M  V30 2272 H 228.804 1.39335 -2.79271 0
M  V30 2273 N 229.106 1.52395 0.401703 0
M  V30 2274 C 230.069 1.75636 1.47257 0
M  V30 2275 C 231.069 0.62628 1.48103 0
M  V30 2276 O 232.259 0.894227 1.49497 0
M  V30 2277 C 229.391 1.84553 2.86624 0
M  V30 2278 H 230.584 2.71241 1.27938 0
M  V30 2279 H 228.137 1.42923 0.632662 0
M  V30 2280 H 228.872 0.908882 3.11303 0
M  V30 2281 H 228.657 2.66715 2.87412 0
M  V30 2282 H 230.147 2.04251 3.64241 0
M  V30 2283 N 230.584 -0.659388 1.43143 0
M  V30 2284 C 231.83 -1.41984 1.45644 0
M  V30 2285 C 232.185 -1.92245 0.0771718 0
M  V30 2286 O 231.478 -1.68976 -0.903205 0
M  V30 2287 C 231.672 -2.62206 2.42864 0
M  V30 2288 C 231.501 -2.23711 3.90107 0
M  V30 2289 C 230.271 -2.12332 4.58523 0
M  V30 2290 C 232.469 -1.84384 4.80112 0
M  V30 2291 N 230.451 -1.67102 5.9072 0
M  V30 2292 C 231.822 -1.5019 6.01534 0
M  V30 2293 C 233.877 -1.71512 4.67427 0
M  V30 2294 C 232.58 -1.04414 7.11681 0
M  V30 2295 C 234.606 -1.27142 5.77572 0
M  V30 2296 C 233.968 -0.938808 6.98116 0
M  V30 2297 H 230.067 -0.515448 0.588079 0
M  V30 2298 H 232.651 -0.759409 1.79279 0
M  V30 2299 H 230.822 -3.25917 2.11265 0
M  V30 2300 H 232.554 -3.28877 2.35843 0
M  V30 2301 H 229.309 -2.31893 4.12944 0
M  V30 2302 H 229.733 -1.46866 6.60878 0
M  V30 2303 H 234.375 -1.95868 3.74694 0
M  V30 2304 H 232.093 -0.788061 8.04248 0
M  V30 2305 H 235.679 -1.17681 5.69774 0
M  V30 2306 H 234.559 -0.6007 7.81896 0
M  V30 2307 N 232.062 -1.29571 -0.897171 0
M  V30 2308 C 233.478 -1.07637 -1.17841 0
M  V30 2309 C 233.678 0.170713 -2.00776 0
M  V30 2310 O 232.734 0.867768 -2.3712 0
M  V30 2311 C 234.047 -2.3332 -1.8969 0
M  V30 2312 C 235.595 -2.38664 -2.02505 0
M  V30 2313 C 236.07 -3.64157 -2.77765 0
M  V30 2314 N 237.561 -3.64894 -2.85318 0
M  V30 2315 C 238.296 -4.58679 -3.44094 0
M  V30 2316 N 237.792 -5.62799 -4.04017 0
M  V30 2317 N 239.585 -4.46245 -3.41793 0
M  V30 2318 H 231.736 -2.09598 -0.343883 0
M  V30 2319 H 233.999 -0.923333 -0.214848 0
M  V30 2320 H 233.705 -3.24262 -1.36187 0
M  V30 2321 H 233.579 -2.41025 -2.9015 0
M  V30 2322 H 235.966 -1.48208 -2.55183 0
M  V30 2323 H 236.047 -2.34943 -1.01171 0
M  V30 2324 H 235.691 -4.54965 -2.25763 0
M  V30 2325 H 235.621 -3.65137 -3.7945 0
M  V30 2326 H 238.112 -2.89613 -2.42761 0
M  V30 2327 H 238.425 -6.3048 -4.46895 0
M  V30 2328 H 236.77 -5.66605 -4.02472 0
M  V30 2329 H 239.961 -3.64094 -2.94199 0
M  V30 2330 H 240.134 -5.19518 -3.87304 0
M  V30 2331 N 233.54 1.10788 -1.12088 0
M  V30 2332 C 234.765 1.87002 -0.896949 0
M  V30 2333 C 235.19 1.79933 0.548261 0
M  V30 2334 O 234.548 1.16662 1.38779 0
M  V30 2335 C 234.596 3.3349 -1.37174 0
M  V30 2336 O 233.7 4.08745 -0.547831 0
M  V30 2337 H 233.041 0.580397 -0.322545 0
M  V30 2338 H 235.571 1.39996 -1.49206 0
M  V30 2339 H 235.581 3.84339 -1.36922 0
M  V30 2340 H 234.256 3.37951 -2.42408 0
M  V30 2341 H 232.833 3.6776 -0.617034 0
M  V30 2342 N 235.018 0.912232 1.28515 0
M  V30 2343 C 236.434 0.610159 1.47476 0
M  V30 2344 C 236.634 -0.844955 1.82928 0
M  V30 2345 O 235.69 -1.62416 1.93332 0
M  V30 2346 C 237.003 1.54675 2.57868 0
M  V30 2347 C 238.551 1.55331 2.71738 0
M  V30 2348 C 239.026 2.47649 3.85272 0
M  V30 2349 N 240.517 2.45767 3.92623 0
M  V30 2350 C 241.252 3.13896 4.79851 0
M  V30 2351 N 240.748 3.9135 5.71679 0
M  V30 2352 N 242.541 3.02991 4.73448 0
M  V30 2353 H 234.692 1.85318 1.03783 0
M  V30 2354 H 236.955 0.794777 0.516753 0
M  V30 2355 H 236.661 2.5841 2.38574 0
M  V30 2356 H 236.535 1.27671 3.54937 0
M  V30 2357 H 238.922 0.52335 2.90422 0
M  V30 2358 H 239.003 1.86378 1.75205 0
M  V30 2359 H 238.647 3.50745 3.67342 0
M  V30 2360 H 238.577 2.13904 4.81199 0
M  V30 2361 H 241.068 1.89503 3.26951 0
M  V30 2362 H 241.381 4.40359 6.35062 0
M  V30 2363 H 239.726 3.95455 5.71524 0
M  V30 2364 H 242.917 2.41987 4.007 0
M  V30 2365 H 243.09 3.5636 5.41213 0
M  V30 2366 N 236.496 -1.42363 0.676048 0
M  V30 2367 C 237.444 -2.32596 -0.0131507 0
M  V30 2368 C 238.438 -1.49891 -0.789238 0
M  V30 2369 O 239.644 -1.65955 -0.697061 0
M  V30 2370 H 236.019 -0.751647 -0.0230481 0
M  V30 2371 H 237.99 -2.88421 0.765243 0
M  V30 2372 C 236.739 -3.34479 -0.949702 0
M  V30 2373 H 236.062 -3.98158 -0.361938 0
M  V30 2374 H 237.502 -4.00199 -1.4006 0
M  V30 2375 C 235.961 -2.66838 -2.05667 0
M  V30 2376 O 236.491 -2.50124 -3.14326 0
M  V30 2377 N 234.697 -2.25843 -1.82875 0
M  V30 2378 H 234.244 -2.39637 -0.945085 0
M  V30 2379 H 234.202 -1.80918 -2.5713 0
M  V30 2380 N 237.974 -0.419461 -1.51915 0
M  V30 2381 C 238.904 0.391813 -2.30189 0
M  V30 2382 C 239.885 1.03699 -1.34836 0
M  V30 2383 O 241.07 1.04403 -1.63748 0
M  V30 2384 C 238.2 1.50312 -3.13087 0
M  V30 2385 C 237.154 0.9824 -4.16573 0
M  V30 2386 C 236.48 2.18809 -4.8788 0
M  V30 2387 C 237.78 0.0292356 -5.22292 0
M  V30 2388 H 239.474 -0.26135 -2.98257 0
M  V30 2389 H 237.02 -0.127134 -1.43438 0
M  V30 2390 H 238.973 2.07773 -3.66617 0
M  V30 2391 H 237.697 2.18431 -2.42807 0
M  V30 2392 H 236.356 0.430119 -3.64068 0
M  V30 2393 H 236.004 2.85507 -4.14119 0
M  V30 2394 H 235.704 1.84615 -5.57845 0
M  V30 2395 H 237.228 2.76858 -5.44226 0
M  V30 2396 H 238.642 0.512976 -5.71 0
M  V30 2397 H 237.039 -0.2244 -5.9968 0
M  V30 2398 H 238.109 -0.912931 -4.76228 0
M  V30 2399 N 239.452 1.56882 -0.150215 0
M  V30 2400 C 240.677 2.01027 0.510184 0
M  V30 2401 C 241.102 1.02966 1.57415 0
M  V30 2402 O 240.46 0.00590158 1.81299 0
M  V30 2403 C 240.508 3.43899 1.08472 0
M  V30 2404 O 239.612 3.4885 2.19948 0
M  V30 2405 H 238.953 0.652233 0.124451 0
M  V30 2406 H 241.483 2.03093 -0.247894 0
M  V30 2407 H 241.493 3.82766 1.41259 0
M  V30 2408 H 240.168 4.14776 0.305582 0
M  V30 2409 H 238.745 3.21827 1.88366 0
M  V30 2410 N 240.93 -0.123565 1.57115 0
M  V30 2411 C 242.176 -0.833386 1.84885 0
M  V30 2412 C 242.509 -1.79742 0.735292 0
M  V30 2413 O 241.784 -1.92764 -0.25925 0
M  V30 2414 C 242.067 -1.5873 3.23228 0
M  V30 2415 C 241.92 -0.643183 4.45178 0
M  V30 2416 C 243.239 -2.54453 3.59085 0
M  V30 2417 H 240.358 -0.301518 0.6725 0
M  V30 2418 H 243 -0.097778 1.89748 0
M  V30 2419 H 241.15 -2.21438 3.19214 0
M  V30 2420 H 242.822 -0.0253015 4.61293 0
M  V30 2421 H 241.065 0.0456139 4.33776 0
M  V30 2422 H 241.736 -1.20724 5.38637 0
M  V30 2423 H 244.212 -2.01853 3.63861 0
M  V30 2424 H 243.088 -3.04238 4.5687 0
M  V30 2425 H 243.349 -3.36906 2.86264 0
M  V30 2426 N 242.408 -1.52605 -0.393616 0
M  V30 2427 C 243.654 -1.67672 -1.14079 0
M  V30 2428 C 243.987 -0.413121 -1.89755 0
M  V30 2429 O 243.262 0.588952 -1.85369 0
M  V30 2430 C 243.545 -2.9088 -2.12276 0
M  V30 2431 C 243.398 -4.27329 -1.40394 0
M  V30 2432 C 244.717 -3.09628 -3.12759 0
M  V30 2433 H 241.836 -0.610168 -0.413356 0
M  V30 2434 H 244.478 -1.85193 -0.424696 0
M  V30 2435 H 242.628 -2.76073 -2.73342 0
M  V30 2436 H 244.3 -4.53894 -0.82327 0
M  V30 2437 H 242.543 -4.2802 -0.705801 0
M  V30 2438 H 243.214 -5.09615 -2.12123 0
M  V30 2439 H 245.69 -3.23436 -2.61779 0
M  V30 2440 H 244.566 -3.97322 -3.78717 0
M  V30 2441 H 244.827 -2.23637 -3.81365 0
M  V30 2442 N 243.887 0.651787 -1.4349 0
M  V30 2443 C 244.835 1.78586 -1.49029 0
M  V30 2444 C 245.829 1.65448 -0.363767 0
M  V30 2445 O 247.035 1.71777 -0.537821 0
M  V30 2446 H 243.41 0.589236 -0.467231 0
M  V30 2447 H 245.381 1.71035 -2.44519 0
M  V30 2448 C 244.13 3.16851 -1.43181 0
M  V30 2449 H 243.453 3.27598 -2.29171 0
M  V30 2450 H 244.893 3.96156 -1.51118 0
M  V30 2451 C 243.352 3.36568 -0.149616 0
M  V30 2452 O 243.882 3.93885 0.788509 0
M  V30 2453 N 242.088 2.90539 -0.0593484 0
M  V30 2454 H 241.635 2.4408 -0.823575 0
M  V30 2455 H 241.593 3.04108 0.797853 0
M  V30 2456 N 245.365 1.30045 0.890287 0
M  V30 2457 C 246.295 1.18541 2.01172 0
M  V30 2458 C 247.276 0.0773356 1.69924 0
M  V30 2459 O 248.461 0.25845 1.92473 0
M  V30 2460 C 245.591 0.870941 3.36202 0
M  V30 2461 C 244.545 1.93637 3.81692 0
M  V30 2462 C 243.871 1.475 5.13953 0
M  V30 2463 C 245.171 3.34666 4.00994 0
M  V30 2464 H 246.865 2.12359 2.11054 0
M  V30 2465 H 244.411 1.02238 1.01407 0
M  V30 2466 H 246.364 0.777141 4.14172 0
M  V30 2467 H 245.088 -0.102926 3.26438 0
M  V30 2468 H 243.747 2.01972 3.05946 0
M  V30 2469 H 243.395 0.489551 5.00612 0
M  V30 2470 H 243.095 2.1876 5.4536 0
M  V30 2471 H 244.619 1.39489 5.94454 0
M  V30 2472 H 246.033 3.2912 4.69417 0
M  V30 2473 H 244.43 4.03966 4.43769 0
M  V30 2474 H 245.5 3.76949 3.05021 0
M  V30 2475 N 246.843 -1.10192 1.12674 0
M  V30 2476 C 248.083 -1.83825 0.893736 0
M  V30 2477 C 248.447 -1.83341 -0.570082 0
M  V30 2478 O 249.648 -2.52553 -0.920354 0
M  V30 2479 C 247.919 -3.26405 1.45582 0
M  V30 2480 S 249.478 -4.17136 1.36171 0
M  V30 2481 H 246.296 -0.633732 0.322342 0
M  V30 2482 H 248.898 -1.32581 1.43675 0
M  V30 2483 H 247.602 -3.24329 2.51473 0
M  V30 2484 H 247.133 -3.82721 0.910405 0
M  V30 2485 H 249.148 -4.95069 0.334863 0
M  V30 2486 N 248.321 -0.919034 -1.28029 0
M  V30 2487 C 249.598 -0.473668 -1.89778 0
M  V30 2488 C 249.978 1.04783 -1.83259 0
M  V30 2489 O 249.326 1.8982 -1.27202 0
M  V30 2490 C 249.536 -1.00998 -3.34066 0
M  V30 2491 C 250.884 -1.06525 -4.1102 0
M  V30 2492 O 251.908 -0.958996 -3.43048 0
M  V30 2493 O 250.767 -1.22776 -5.3253 0
M  V30 2494 H 247.861 -0.15098 -0.813101 0
M  V30 2495 H 250.407 -1.01016 -1.36359 0
M  V30 2496 H 249.179 -2.05392 -3.33061 0
M  V30 2497 H 248.802 -0.454626 -3.94992 0
M  V30 2498 N 249.799 1.42003 -0.683588 0
M  V30 2499 C 250.762 2.29191 -0.0198243 0
M  V30 2500 C 251.762 1.43773 0.72013 0
M  V30 2501 O 252.952 1.65061 0.556815 0
M  V30 2502 C 250.084 3.26435 0.982487 0
M  V30 2503 H 251.277 2.8938 -0.787345 0
M  V30 2504 H 248.83 1.49789 -0.446418 0
M  V30 2505 H 249.565 2.71203 1.77819 0
M  V30 2506 H 249.35 3.89449 0.455182 0
M  V30 2507 H 250.84 3.918 1.44508 0
M  V30 2508 N 251.277 0.427512 1.51691 0
M  V30 2509 C 252.21 -0.433876 2.24037 0
M  V30 2510 C 253.188 -1.03287 1.25581 0
M  V30 2511 O 254.372 -1.07722 1.54688 0
M  V30 2512 C 251.499 -1.60385 2.98319 0
M  V30 2513 C 250.545 -1.12648 4.11355 0
M  V30 2514 S 251.378 -0.076543 5.35445 0
M  V30 2515 C 252.534 -1.25141 6.13262 0
M  V30 2516 H 252.767 0.180367 2.96752 0
M  V30 2517 H 250.3 0.211946 1.52938 0
M  V30 2518 H 252.258 -2.27462 3.41718 0
M  V30 2519 H 250.919 -2.18948 2.25213 0
M  V30 2520 H 250.112 -2.0011 4.62571 0
M  V30 2521 H 249.714 -0.534088 3.70167 0
M  V30 2522 H 252.006 -2.17162 6.41753 0
M  V30 2523 H 252.949 -0.779411 7.03797 0
M  V30 2524 H 253.357 -1.48553 5.44603 0
M  V30 2525 N 252.755 -1.56801 0.158532 0
M  V30 2526 C 253.983 -2.00859 -0.496303 0
M  V30 2527 C 254.398 -1.03871 -1.57659 0
M  V30 2528 O 253.755 -0.0375165 -1.82461 0
M  V30 2529 C 253.806 -3.4479 -1.08638 0
M  V30 2530 O 253.527 -4.38072 -0.0492322 0
M  V30 2531 C 255.028 -4.04185 -1.8207 0
M  V30 2532 H 252.248 -0.65864 -0.128199 0
M  V30 2533 H 254.792 -2.02885 0.256506 0
M  V30 2534 H 252.947 -3.43579 -1.78975 0
M  V30 2535 H 253.361 -5.2227 -0.483102 0
M  V30 2536 H 254.835 -5.06857 -2.18633 0
M  V30 2537 H 255.312 -3.45549 -2.71095 0
M  V30 2538 H 255.918 -4.0906 -1.16405 0
M  V30 2539 N 254.233 0.115231 -1.57178 0
M  V30 2540 C 255.51 0.852873 -1.76027 0
M  V30 2541 C 255.89 1.97892 -0.73498 0
M  V30 2542 O 255.238 2.27232 0.24036 0
M  V30 2543 C 255.448 1.36608 -3.21153 0
M  V30 2544 C 256.796 1.81692 -3.83762 0
M  V30 2545 O 257.82 1.46278 -3.24779 0
M  V30 2546 O 256.679 2.47104 -4.87444 0
M  V30 2547 H 253.773 0.405296 -0.720877 0
M  V30 2548 H 256.319 0.0986785 -1.69413 0
M  V30 2549 H 255.091 0.558357 -3.87296 0
M  V30 2550 H 254.714 2.18287 -3.3232 0
M  V30 2551 N 255.711 1.52812 0.385517 0
M  V30 2552 C 256.641 1.80808 1.47752 0
M  V30 2553 C 257.622 0.660318 1.5676 0
M  V30 2554 O 258.807 0.908246 1.71652 0
M  V30 2555 C 255.937 1.98008 2.85324 0
M  V30 2556 C 254.891 3.13709 2.91154 0
M  V30 2557 C 254.217 3.16169 4.31209 0
M  V30 2558 C 255.517 4.52709 2.60483 0
M  V30 2559 H 257.211 2.72253 1.24573 0
M  V30 2560 H 254.757 1.31003 0.597839 0
M  V30 2561 H 256.71 2.16176 3.61726 0
M  V30 2562 H 255.434 1.03255 3.09848 0
M  V30 2563 H 254.093 2.95329 2.17201 0
M  V30 2564 H 253.741 2.19092 4.52778 0
M  V30 2565 H 253.441 3.93894 4.36029 0
M  V30 2566 H 254.965 3.36496 5.09512 0
M  V30 2567 H 256.379 4.71173 3.26602 0
M  V30 2568 H 254.776 5.32528 2.76648 0
M  V30 2569 H 255.846 4.59186 1.55809 0
M  V30 2570 N 257.189 -0.644168 1.43834 0
M  V30 2571 C 258.6 -1.22554 1.40845 0
M  V30 2572 C 258.951 -1.9585 0.117115 0
M  V30 2573 O 258.076 -2.01734 -0.783086 0
M  V30 2574 C 258.671 -2.22907 2.55143 0
M  V30 2575 C 257.23 -2.76501 2.5539 0
M  V30 2576 C 256.377 -1.51287 2.32396 0
M  V30 2577 H 259.328 -0.43563 1.52604 0
M  V30 2578 H 259.349 -3.05259 2.2715 0
M  V30 2579 H 258.861 -1.69533 3.49114 0
M  V30 2580 H 256.962 -3.33914 1.65324 0
M  V30 2581 H 257.075 -3.23429 3.53455 0
M  V30 2582 H 255.439 -1.78957 1.81236 0
M  V30 2583 H 256.222 -0.998336 3.28463 0
M  V30 2584 N 258.668 -1.30515 -0.883378 0
M  V30 2585 C 259.598 -1.19607 -2.00541 0
M  V30 2586 C 260.579 -0.086346 -1.69881 0
M  V30 2587 O 261.764 -0.268654 -1.92333 0
M  V30 2588 C 258.894 -0.888758 -3.35736 0
M  V30 2589 C 257.848 -1.95659 -3.8066 0
M  V30 2590 C 257.174 -1.50224 -5.13164 0
M  V30 2591 C 258.474 -3.36788 -3.99213 0
M  V30 2592 H 260.168 -2.13476 -2.09925 0
M  V30 2593 H 257.714 -1.02775 -1.00863 0
M  V30 2594 H 259.667 -0.799094 -4.13754 0
M  V30 2595 H 258.391 0.0856125 -3.26488 0
M  V30 2596 H 257.05 -2.03591 -3.04871 0
M  V30 2597 H 256.698 -0.516092 -5.00345 0
M  V30 2598 H 256.398 -2.2165 -5.44192 0
M  V30 2599 H 257.922 -1.42639 -5.93706 0
M  V30 2600 H 259.336 -3.31605 -4.67665 0
M  V30 2601 H 257.733 -4.06314 -4.41621 0
M  V30 2602 H 258.803 -3.78561 -3.03017 0
M  V30 2603 N 260.146 1.09593 -1.13257 0
M  V30 2604 C 261.557 1.63229 -0.906274 0
M  V30 2605 C 261.908 1.8811 0.557578 0
M  V30 2606 O 261.033 1.62953 1.42391 0
M  V30 2607 C 261.628 2.96535 -1.63867 0
M  V30 2608 C 260.187 3.47003 -1.45828 0
M  V30 2609 C 259.334 2.2145 -1.66898 0
M  V30 2610 H 262.285 0.92978 -1.28611 0
M  V30 2611 H 262.306 3.64411 -1.09476 0
M  V30 2612 H 261.818 2.78394 -2.70404 0
M  V30 2613 H 259.919 3.70272 -0.415848 0
M  V30 2614 H 260.032 4.24551 -2.2202 0
M  V30 2615 H 258.396 2.30022 -1.09371 0
M  V30 2616 H 259.179 2.0583 -2.74752 0
M  V30 2617 N 261.624 0.925811 1.2754 0
M  V30 2618 C 262.872 0.564138 1.94067 0
M  V30 2619 C 263.193 -0.897188 1.73134 0
M  V30 2620 O 262.463 -1.63573 1.07799 0
M  V30 2621 H 261.043 0.205645 0.718136 0
M  V30 2622 H 263.705 1.1778 1.55287 0
M  V30 2623 H 262.801 0.76881 3.02483 0
M  V30 2624 N 263.102 -1.41638 0.69111 0
M  V30 2625 C 264.349 -2.01299 0.220193 0
M  V30 2626 C 264.677 -1.54715 -1.17871 0
M  V30 2627 O 263.932 -0.747193 -1.80874 0
M  V30 2628 C 264.231 -3.56714 0.221277 0
M  V30 2629 C 263.897 -4.22792 1.56709 0
M  V30 2630 C 262.559 -4.40557 1.93554 0
M  V30 2631 C 264.911 -4.59883 2.45268 0
M  V30 2632 C 262.239 -4.92688 3.18552 0
M  V30 2633 C 264.591 -5.13403 3.69595 0
M  V30 2634 C 263.255 -5.29379 4.06589 0
M  V30 2635 H 262.525 -0.736606 0.0805743 0
M  V30 2636 H 265.172 -1.69598 0.889319 0
M  V30 2637 H 263.477 -3.8818 -0.531391 0
M  V30 2638 H 265.174 -4.00678 -0.160547 0
M  V30 2639 H 261.764 -4.09336 1.2705 0
M  V30 2640 H 265.948 -4.45817 2.18084 0
M  V30 2641 H 261.204 -5.03242 3.47214 0
M  V30 2642 H 265.378 -5.41084 4.38407 0
M  V30 2643 H 263.005 -5.69537 5.03519 0
M  V30 2644 N 264.58 -0.43555 -1.51462 0
M  V30 2645 C 265.82 0.130708 -2.03982 0
M  V30 2646 C 266.184 1.40117 -1.31268 0
M  V30 2647 O 267.385 2.04755 -1.74152 0
M  V30 2648 C 265.656 0.346102 -3.5572 0
M  V30 2649 S 267.215 0.876022 -4.29967 0
M  V30 2650 H 264.033 0.0326881 -0.710248 0
M  V30 2651 H 266.635 -0.594544 -1.8624 0
M  V30 2652 H 265.339 -0.584911 -4.0621 0
M  V30 2653 H 264.87 1.09849 -3.77752 0
M  V30 2654 H 266.885 2.15379 -4.47019 0
M  V30 2655 N 266.058 1.56714 -0.166846 0
M  V30 2656 C 267.304 1.97039 0.479962 0
M  V30 2657 C 267.637 1.05264 1.63197 0
M  V30 2658 O 266.912 0.0988833 1.94248 0
M  V30 2659 C 267.195 3.46867 0.967212 0
M  V30 2660 C 267.048 4.49421 -0.18466 0
M  V30 2661 C 268.367 3.9968 1.84238 0
M  V30 2662 H 265.486 0.71641 0.172992 0
M  V30 2663 H 268.128 1.8832 -0.252079 0
M  V30 2664 H 266.278 3.54428 1.59101 0
M  V30 2665 H 267.95 4.53924 -0.821621 0
M  V30 2666 H 266.193 4.25573 -0.840837 0
M  V30 2667 H 266.864 5.51644 0.198317 0
M  V30 2668 H 269.34 3.94723 1.31655 0
M  V30 2669 H 268.216 5.04941 2.15234 0
M  V30 2670 H 268.477 3.43226 2.78654 0
M  V30 2671 N 267.536 -0.106894 1.57237 0
M  V30 2672 C 268.766 -0.825191 1.89405 0
M  V30 2673 C 269.174 -1.73374 0.757496 0
M  V30 2674 O 268.517 -1.81552 -0.280115 0
M  V30 2675 C 268.579 -1.70102 3.1671 0
M  V30 2676 C 268.243 -0.965523 4.46684 0
M  V30 2677 C 269.24 -0.300741 5.19029 0
M  V30 2678 C 266.925 -0.943105 4.93367 0
M  V30 2679 C 268.919 0.376622 6.36286 0
M  V30 2680 C 266.606 -0.261949 6.10538 0
M  V30 2681 C 267.604 0.396748 6.81847 0
M  V30 2682 O 267.292 1.06701 7.96787 0
M  V30 2683 H 267.024 -0.241852 0.631255 0
M  V30 2684 H 269.578 -0.0921491 2.05193 0
M  V30 2685 H 267.808 -2.47601 2.97036 0
M  V30 2686 H 269.497 -2.29483 3.34802 0
M  V30 2687 H 270.263 -0.309599 4.84011 0
M  V30 2688 H 266.142 -1.44524 4.3776 0
M  V30 2689 H 269.686 0.891334 6.91882 0
M  V30 2690 H 265.583 -0.250896 6.45012 0
M  V30 2691 H 266.351 0.972707 8.127 0
M  V30 2692 N 269.014 -1.53014 -0.377408 0
M  V30 2693 C 270.242 -1.72515 -1.14219 0
M  V30 2694 C 270.657 -0.448735 -1.8339 0
M  V30 2695 O 270.014 0.577592 -1.73119 0
M  V30 2696 C 270.065 -2.8826 -2.18148 0
M  V30 2697 O 269.786 -4.10962 -1.51795 0
M  V30 2698 C 271.287 -3.19536 -3.07264 0
M  V30 2699 H 268.507 -0.577301 -0.342001 0
M  V30 2700 H 271.051 -1.99712 -0.439935 0
M  V30 2701 H 269.206 -2.63492 -2.83991 0
M  V30 2702 H 269.62 -4.75693 -2.20945 0
M  V30 2703 H 271.094 -4.03959 -3.76193 0
M  V30 2704 H 271.571 -2.34403 -3.71419 0
M  V30 2705 H 272.177 -3.46186 -2.47053 0
M  V30 2706 N 270.492 0.636531 -1.44174 0
M  V30 2707 C 271.425 1.76139 -1.45087 0
M  V30 2708 C 272.403 1.59611 -0.310326 0
M  V30 2709 O 273.587 1.81568 -0.506477 0
M  V30 2710 C 270.714 3.13648 -1.27839 0
M  V30 2711 C 269.76 3.48838 -2.45386 0
M  V30 2712 S 270.593 3.46927 -4.07924 0
M  V30 2713 C 271.749 4.87064 -3.9309 0
M  V30 2714 H 271.982 1.75096 -2.40268 0
M  V30 2715 H 269.515 0.810666 -1.31406 0
M  V30 2716 H 271.473 3.93002 -1.18575 0
M  V30 2717 H 270.134 3.12235 -0.341787 0
M  V30 2718 H 269.327 4.48886 -2.29167 0
M  V30 2719 H 268.929 2.76935 -2.51362 0
M  V30 2720 H 271.221 5.76153 -3.56446 0
M  V30 2721 H 272.164 5.08337 -4.92949 0
M  V30 2722 H 272.572 4.61384 -3.25246 0
M  V30 2723 N 271.97 1.30982 0.876444 0
M  V30 2724 C 272.933 1.18054 1.96459 0
M  V30 2725 C 273.933 0.109399 1.60427 0
M  V30 2726 O 275.123 0.358173 1.70478 0
M  V30 2727 C 272.255 0.810616 3.31122 0
M  V30 2728 H 273.448 2.14735 2.09354 0
M  V30 2729 H 271.001 1.145 1.06392 0
M  V30 2730 H 271.736 -0.155322 3.23928 0
M  V30 2731 H 271.521 1.58481 3.58645 0
M  V30 2732 H 273.011 0.743876 4.10921 0
M  V30 2733 N 273.449 -1.08991 1.13837 0
M  V30 2734 C 274.396 -2.15748 0.819835 0
M  V30 2735 C 275.366 -1.64636 -0.220026 0
M  V30 2736 O 276.551 -1.90582 -0.0912757 0
M  V30 2737 C 273.691 -3.4382 0.296913 0
M  V30 2738 C 272.804 -4.0881 1.39636 0
M  V30 2739 C 271.939 -5.24655 0.831314 0
M  V30 2740 C 270.978 -5.81575 1.90886 0
M  V30 2741 N 270.115 -6.88774 1.36142 0
M  V30 2742 H 274.955 -2.42338 1.73426 0
M  V30 2743 H 272.492 -1.18935 0.865613 0
M  V30 2744 H 274.45 -4.17193 -0.0244339 0
M  V30 2745 H 273.08 -3.17535 -0.580628 0
M  V30 2746 H 272.132 -3.33258 1.83422 0
M  V30 2747 H 273.444 -4.47141 2.21058 0
M  V30 2748 H 272.598 -6.04942 0.461515 0
M  V30 2749 H 271.337 -4.87698 -0.013932 0
M  V30 2750 H 270.342 -4.99946 2.28767 0
M  V30 2751 H 271.567 -6.20592 2.75758 0
M  V30 2752 H 269.513 -6.53788 0.538254 0
M  V30 2753 H 269.43 -7.25898 2.11208 0
M  V30 2754 H 270.698 -7.72806 1.01933 0
M  V30 2755 N 274.927 -0.932562 -1.27047 0
M  V30 2756 C 275.877 -0.406392 -2.24349 0
M  V30 2757 C 276.861 0.492066 -1.53191 0
M  V30 2758 O 278.053 0.328717 -1.73921 0
M  V30 2759 C 275.182 0.335214 -3.41659 0
M  V30 2760 C 274.268 -0.58004 -4.20115 0
M  V30 2761 N 274.659 -1.70203 -4.76303 0
M  V30 2762 C 272.957 -0.383974 -4.44344 0
M  V30 2763 C 273.658 -2.27167 -5.35509 0
M  V30 2764 N 272.634 -1.56068 -5.20715 0
M  V30 2765 H 276.436 -1.26299 -2.65378 0
M  V30 2766 H 273.95 -0.787408 -1.42034 0
M  V30 2767 H 275.947 0.729142 -4.10474 0
M  V30 2768 H 274.607 1.18868 -3.0216 0
M  V30 2769 H 275.618 -2.08433 -4.74106 0
M  V30 2770 H 272.295 0.428436 -4.15296 0
M  V30 2771 H 273.685 -3.21654 -5.89905 0
M  V30 2772 N 276.405 1.4127 -0.698611 0
M  V30 2773 C 277.368 2.29158 -0.044132 0
M  V30 2774 C 278.368 1.44529 0.704841 0
M  V30 2775 O 279.558 1.65643 0.539276 0
M  V30 2776 C 276.69 3.27459 0.947809 0
M  V30 2777 H 277.883 2.88529 -0.817994 0
M  V30 2778 H 275.436 1.49307 -0.46228 0
M  V30 2779 H 276.171 2.73073 1.74933 0
M  V30 2780 H 275.956 3.8991 0.41385 0
M  V30 2781 H 277.446 3.93311 1.40344 0
M  V30 2782 N 277.883 0.443576 1.51229 0
M  V30 2783 C 278.813 -0.355142 2.30783 0
M  V30 2784 C 279.794 -1.0154 1.36468 0
M  V30 2785 O 280.979 -1.01785 1.65389 0
M  V30 2786 C 278.109 -1.45312 3.15439 0
M  V30 2787 C 277.063 -0.916002 4.18083 0
M  V30 2788 C 276.389 -2.1102 4.91299 0
M  V30 2789 C 277.689 0.0538602 5.22272 0
M  V30 2790 H 279.383 0.308767 2.97804 0
M  V30 2791 H 276.929 0.149937 1.43217 0
M  V30 2792 H 278.882 -2.01914 3.69876 0
M  V30 2793 H 277.606 -2.14541 2.46252 0
M  V30 2794 H 276.265 -0.372145 3.64706 0
M  V30 2795 H 275.913 -2.78882 4.18609 0
M  V30 2796 H 275.613 -1.75717 5.60712 0
M  V30 2797 H 277.137 -2.68164 5.48562 0
M  V30 2798 H 278.551 -0.422069 5.71744 0
M  V30 2799 H 276.948 0.319776 5.99247 0
M  V30 2800 H 278.018 0.98858 4.74716 0
M  V30 2801 N 279.361 -1.56624 0.175154 0
M  V30 2802 C 280.609 -1.96609 -0.467885 0
M  V30 2803 C 280.93 -1.06238 -1.63519 0
M  V30 2804 O 280.2 -0.129523 -1.95471 0
M  V30 2805 H 278.78 -0.726008 -0.175845 0
M  V30 2806 H 281.442 -1.93195 0.257234 0
M  V30 2807 H 280.538 -3.00989 -0.825342 0
M  V30 2808 N 280.839 0.0985539 -1.57292 0
M  V30 2809 C 282.087 0.801092 -1.85545 0
M  V30 2810 C 282.408 1.79438 -0.763353 0
M  V30 2811 O 281.678 1.94763 0.21073 0
M  V30 2812 H 280.258 0.29884 -0.684619 0
M  V30 2813 H 282.92 0.0810064 -1.94732 0
M  V30 2814 H 282.016 1.3338 -2.82163 0
M  V30 2815 N 282.317 1.53212 0.369288 0
M  V30 2816 C 283.247 1.82365 1.45826 0
M  V30 2817 C 284.228 0.676907 1.56051 0
M  V30 2818 O 285.413 0.926401 1.70679 0
M  V30 2819 C 282.543 2.01023 2.83208 0
M  V30 2820 C 281.497 3.1678 2.8781 0
M  V30 2821 C 280.823 3.20724 4.27832 0
M  V30 2822 C 282.123 4.55447 2.55667 0
M  V30 2823 H 283.817 2.73559 1.21678 0
M  V30 2824 H 281.363 1.3163 0.583911 0
M  V30 2825 H 283.316 2.20001 3.59413 0
M  V30 2826 H 282.04 1.06536 3.08736 0
M  V30 2827 H 280.699 2.97616 2.14056 0
M  V30 2828 H 280.347 2.23882 4.50429 0
M  V30 2829 H 280.047 3.98496 4.31827 0
M  V30 2830 H 281.571 3.41881 5.05915 0
M  V30 2831 H 282.985 4.74611 3.21586 0
M  V30 2832 H 281.382 5.35432 2.70984 0
M  V30 2833 H 282.452 4.60812 1.5093 0
M  V30 2834 N 283.795 -0.628877 1.44509 0
M  V30 2835 C 285.023 -1.41554 1.50897 0
M  V30 2836 C 285.438 -1.8832 0.134564 0
M  V30 2837 O 284.795 -1.60969 -0.859965 0
M  V30 2838 C 284.846 -2.63435 2.47556 0
M  V30 2839 O 284.567 -2.18619 3.79654 0
M  V30 2840 C 286.068 -3.56537 2.63431 0
M  V30 2841 H 283.288 -0.434044 0.511709 0
M  V30 2842 H 285.832 -0.768895 1.89495 0
M  V30 2843 H 283.987 -3.24187 2.12089 0
M  V30 2844 H 284.401 -2.97652 4.31861 0
M  V30 2845 H 285.875 -4.38657 3.35088 0
M  V30 2846 H 286.352 -4.05493 1.68738 0
M  V30 2847 H 286.958 -3.01653 2.9981 0
M  V30 2848 N 285.273 -1.31445 -0.869486 0
M  V30 2849 C 286.689 -1.10113 -1.15531 0
M  V30 2850 C 286.889 0.128087 -2.01092 0
M  V30 2851 O 285.945 0.817276 -2.38908 0
M  V30 2852 C 287.258 -2.37291 -1.84698 0
M  V30 2853 C 288.806 -2.42906 -1.97397 0
M  V30 2854 C 289.281 -3.69967 -2.69979 0
M  V30 2855 N 290.772 -3.70864 -2.77514 0
M  V30 2856 C 291.507 -4.65875 -3.34287 0
M  V30 2857 N 291.003 -5.71242 -3.91988 0
M  V30 2858 N 292.796 -4.53394 -3.3225 0
M  V30 2859 H 284.947 -2.1028 -0.299347 0
M  V30 2860 H 287.21 -0.927683 -0.195214 0
M  V30 2861 H 286.916 -3.27078 -1.29278 0
M  V30 2862 H 286.79 -2.47125 -2.84972 0
M  V30 2863 H 289.177 -1.53588 -2.51982 0
M  V30 2864 H 289.258 -2.37036 -0.961643 0
M  V30 2865 H 288.902 -4.59652 -2.16062 0
M  V30 2866 H 288.832 -3.73103 -3.7162 0
M  V30 2867 H 291.323 -2.94697 -2.36563 0
M  V30 2868 H 291.636 -6.39817 -4.33421 0
M  V30 2869 H 289.981 -5.75015 -3.90362 0
M  V30 2870 H 293.172 -3.70252 -2.8641 0
M  V30 2871 H 293.345 -5.27617 -3.76197 0
M  V30 2872 N 286.751 1.08385 -1.14413 0
M  V30 2873 C 287.714 2.13486 -0.834048 0
M  V30 2874 C 288.714 1.59988 0.161418 0
M  V30 2875 O 289.904 1.74071 -0.0669575 0
M  V30 2876 C 287.036 3.4003 -0.243354 0
M  V30 2877 H 288.229 2.42425 -1.7655 0
M  V30 2878 H 285.782 1.24101 -0.950189 0
M  V30 2879 H 286.517 3.16726 0.696807 0
M  V30 2880 H 286.302 3.80157 -0.960367 0
M  V30 2881 H 287.792 4.17577 -0.0436242 0
M  V30 2882 N 288.23 0.939286 1.26551 0
M  V30 2883 C 289.193 0.451987 2.24699 0
M  V30 2884 C 290.193 -0.435869 1.5478 0
M  V30 2885 O 291.383 -0.235314 1.72603 0
M  V30 2886 C 288.515 -0.348801 3.39111 0
M  V30 2887 H 289.708 1.3193 2.69322 0
M  V30 2888 H 287.261 0.721072 1.38673 0
M  V30 2889 H 287.996 -1.23444 2.99887 0
M  V30 2890 H 287.781 0.287945 3.91041 0
M  V30 2891 H 289.271 -0.679726 4.12031 0
M  V30 2892 N 289.708 -1.40897 0.706093 0
M  V30 2893 C 290.671 -2.29131 0.0562841 0
M  V30 2894 C 291.671 -1.44901 -0.697166 0
M  V30 2895 O 292.861 -1.65926 -0.530484 0
M  V30 2896 C 289.993 -3.27957 -0.93043 0
M  V30 2897 H 291.186 -2.88091 0.833284 0
M  V30 2898 H 288.739 -1.4906 0.470192 0
M  V30 2899 H 289.474 -2.73997 -1.73482 0
M  V30 2900 H 289.259 -3.90124 -0.393166 0
M  V30 2901 H 290.749 -3.94049 -1.38256 0
M  V30 2902 N 291.186 -0.45159 -1.50991 0
M  V30 2903 C 292.116 0.342898 -2.30969 0
M  V30 2904 C 293.097 1.00815 -1.37005 0
M  V30 2905 O 294.282 1.00907 -1.65926 0
M  V30 2906 C 291.412 1.43637 -3.16205 0
M  V30 2907 C 290.366 0.893818 -4.18563 0
M  V30 2908 C 289.692 2.08411 -4.92411 0
M  V30 2909 C 290.992 -0.0815568 -5.22236 0
M  V30 2910 H 292.686 -0.324556 -2.97636 0
M  V30 2911 H 290.232 -0.157531 -1.43136 0
M  V30 2912 H 292.185 1.9995 -3.70942 0
M  V30 2913 H 290.909 2.13232 -2.47386 0
M  V30 2914 H 289.568 0.352798 -3.64898 0
M  V30 2915 H 289.216 2.76658 -4.20082 0
M  V30 2916 H 288.916 1.72741 -5.61636 0
M  V30 2917 H 290.44 2.65251 -5.49976 0
M  V30 2918 H 291.854 0.391742 -5.7196 0
M  V30 2919 H 290.251 -0.351551 -5.99069 0
M  V30 2920 H 291.321 -1.01374 -4.74185 0
M  V30 2921 N 292.664 1.56529 -0.183458 0
M  V30 2922 C 293.574 2.22144 0.754272 0
M  V30 2923 C 294.59 1.21684 1.24374 0
M  V30 2924 O 295.766 1.54385 1.29333 0
M  V30 2925 C 292.831 2.85884 1.96141 0
M  V30 2926 C 291.892 4.01579 1.51765 0
M  V30 2927 C 291.125 4.6227 2.66725 0
M  V30 2928 O 291.348 4.21865 3.83909 0
M  V30 2929 O 290.282 5.51936 2.40104 0
M  V30 2930 H 294.108 3.02861 0.225527 0
M  V30 2931 H 291.693 1.49331 0.0453032 0
M  V30 2932 H 293.575 3.26253 2.66715 0
M  V30 2933 H 292.25 2.08154 2.47899 0
M  V30 2934 H 291.157 3.65856 0.781049 0
M  V30 2935 H 292.49 4.80938 1.04686 0
M  V30 2936 N 294.142 -0.090211 1.57342 0
M  V30 2937 C 295.072 -1.10976 2.05443 0
M  V30 2938 C 296.053 -1.41482 0.944284 0
M  V30 2939 O 297.238 -1.51428 1.21586 0
M  V30 2940 C 294.368 -2.42831 2.48295 0
M  V30 2941 C 293.322 -2.26721 3.63018 0
M  V30 2942 C 292.648 -3.63796 3.91863 0
M  V30 2943 C 293.948 -1.7037 4.93732 0
M  V30 2944 H 295.642 -0.709564 2.9087 0
M  V30 2945 H 293.188 -0.339874 1.39932 0
M  V30 2946 H 295.141 -3.14431 2.80555 0
M  V30 2947 H 293.865 -2.84795 1.59873 0
M  V30 2948 H 292.524 -1.57565 3.31012 0
M  V30 2949 H 292.172 -4.03297 3.00601 0
M  V30 2950 H 291.872 -3.53861 4.69101 0
M  V30 2951 H 293.396 -4.36855 4.26603 0
M  V30 2952 H 294.81 -2.31816 5.24342 0
M  V30 2953 H 293.207 -1.71181 5.75167 0
M  V30 2954 H 294.277 -0.663542 4.80339 0
M  V30 2955 N 295.62 -1.53406 -0.361157 0
M  V30 2956 C 296.583 -1.79479 -1.42548 0
M  V30 2957 C 297.583 -0.665327 -1.4639 0
M  V30 2958 O 298.773 -0.933549 -1.47073 0
M  V30 2959 C 295.905 -1.92087 -2.8163 0
M  V30 2960 H 297.098 -2.74538 -1.20701 0
M  V30 2961 H 294.651 -1.4455 -0.594546 0
M  V30 2962 H 295.386 -0.991099 -3.08784 0
M  V30 2963 H 295.171 -2.74241 -2.80239 0
M  V30 2964 H 296.661 -2.13836 -3.58697 0
M  V30 2965 N 297.098 0.621204 -1.44841 0
M  V30 2966 C 298.509 1.20298 -1.42777 0
M  V30 2967 C 298.86 1.95639 -0.148259 0
M  V30 2968 O 297.985 2.02955 0.750892 0
M  V30 2969 C 298.58 2.1882 -2.58657 0
M  V30 2970 C 297.139 2.72403 -2.59756 0
M  V30 2971 C 296.286 1.4757 -2.34773 0
M  V30 2972 H 299.237 0.411297 -1.53278 0
M  V30 2973 H 299.258 3.01607 -2.31977 0
M  V30 2974 H 298.77 1.63957 -3.51766 0
M  V30 2975 H 296.871 3.31242 -1.70615 0
M  V30 2976 H 296.984 3.17765 -3.58556 0
M  V30 2977 H 295.348 1.76051 -1.8406 0
M  V30 2978 H 296.131 0.945954 -3.3001 0
M  V30 2979 N 298.576 1.31904 0.862503 0
M  V30 2980 C 299.992 1.10724 1.14945 0
M  V30 2981 C 300.192 -0.117421 2.01158 0
M  V30 2982 O 299.248 -0.804595 2.39338 0
M  V30 2983 C 300.561 2.38267 1.83437 0
M  V30 2984 C 302.109 2.43949 1.96106 0
M  V30 2985 C 302.584 3.71394 2.68013 0
M  V30 2986 N 304.075 3.72331 2.75543 0
M  V30 2987 C 304.81 4.67641 3.31812 0
M  V30 2988 N 304.306 5.73313 3.88953 0
M  V30 2989 N 306.099 4.5515 3.29841 0
M  V30 2990 H 298.25 2.10436 0.288191 0
M  V30 2991 H 300.513 0.928705 0.190292 0
M  V30 2992 H 300.219 3.27759 1.27542 0
M  V30 2993 H 300.093 2.48633 2.83657 0
M  V30 2994 H 302.48 1.54922 2.51164 0
M  V30 2995 H 302.561 2.37543 0.949059 0
M  V30 2996 H 302.205 4.60791 2.13621 0
M  V30 2997 H 302.135 3.75069 3.69636 0
M  V30 2998 H 304.626 2.95947 2.34997 0
M  V30 2999 H 304.939 6.42107 4.30022 0
M  V30 3000 H 303.284 5.77077 3.87308 0
M  V30 3001 H 306.475 3.71766 2.84443 0
M  V30 3002 H 306.648 5.29604 3.73394 0
M  V30 3003 N 300.054 -1.07777 1.14986 0
M  V30 3004 C 301.004 -2.13082 0.811181 0
M  V30 3005 C 301.988 -1.59619 -0.202597 0
M  V30 3006 O 303.18 -1.77 -0.00398275 0
M  V30 3007 C 300.309 -3.42009 0.297439 0
M  V30 3008 C 299.395 -4.02337 1.34112 0
M  V30 3009 N 299.786 -4.36982 2.54716 0
M  V30 3010 C 298.084 -4.29752 1.19285 0
M  V30 3011 C 298.785 -4.84729 3.21578 0
M  V30 3012 N 297.761 -4.83233 2.48972 0
M  V30 3013 H 301.563 -2.37696 1.72853 0
M  V30 3014 H 299.077 -1.25173 1.03468 0
M  V30 3015 H 301.074 -4.16884 0.0364777 0
M  V30 3016 H 299.734 -3.18841 -0.614022 0
M  V30 3017 H 300.745 -4.27807 2.91894 0
M  V30 3018 H 297.422 -4.16106 0.340926 0
M  V30 3019 H 298.812 -5.20863 4.24442 0
M  V30 3020 N 301.532 -0.945985 -1.26051 0
M  V30 3021 C 302.781 -0.591836 -1.92822 0
M  V30 3022 C 303.094 0.873956 -1.7499 0
M  V30 3023 O 304.3 1.33769 -2.36259 0
M  V30 3024 C 302.756 -1.00776 -3.45503 0
M  V30 3025 C 302.364 -2.4955 -3.7206 0
M  V30 3026 C 304.108 -0.725735 -4.1825 0
M  V30 3027 C 302.015 -2.84988 -5.18205 0
M  V30 3028 H 300.945 -0.217635 -0.721908 0
M  V30 3029 H 303.596 -1.14927 -1.43052 0
M  V30 3030 H 301.978 -0.378812 -3.94184 0
M  V30 3031 H 303.152 -3.1739 -3.34066 0
M  V30 3032 H 301.467 -2.75133 -3.12555 0
M  V30 3033 H 304.064 -0.966771 -5.25887 0
M  V30 3034 H 304.407 0.337639 -4.14929 0
M  V30 3035 H 304.94 -1.31463 -3.7545 0
M  V30 3036 H 301.679 -3.90307 -5.26631 0
M  V30 3037 H 301.199 -2.21813 -5.57278 0
M  V30 3038 H 302.878 -2.73712 -5.86252 0
M  V30 3039 N 303.011 1.40521 -0.713556 0
M  V30 3040 C 304.427 1.54839 -0.386907 0
M  V30 3041 C 304.627 1.68532 1.1045 0
M  V30 3042 O 303.683 1.67377 1.89053 0
M  V30 3043 C 304.996 2.77792 -1.15118 0
M  V30 3044 C 306.544 2.91607 -1.13729 0
M  V30 3045 C 307.019 4.1747 -1.88368 0
M  V30 3046 N 308.51 4.24466 -1.85427 0
M  V30 3047 C 309.245 5.20755 -2.40004 0
M  V30 3048 N 308.741 6.22965 -3.03129 0
M  V30 3049 N 310.534 5.1282 -2.30158 0
M  V30 3050 H 302.685 1.29879 -1.68063 0
M  V30 3051 H 304.948 0.627896 -0.710247 0
M  V30 3052 H 304.654 2.73944 -2.20561 0
M  V30 3053 H 304.528 3.6984 -0.741477 0
M  V30 3054 H 306.915 2.94959 -0.0910608 0
M  V30 3055 H 306.996 2.00682 -1.5862 0
M  V30 3056 H 306.64 4.1488 -2.9298 0
M  V30 3057 H 306.57 5.074 -1.40898 0
M  V30 3058 H 309.061 3.51241 -1.3942 0
M  V30 3059 H 309.374 6.92859 -3.42295 0
M  V30 3060 H 307.719 6.23415 -3.07212 0
M  V30 3061 H 310.91 4.31899 -1.80501 0
M  V30 3062 H 311.083 5.87689 -2.72993 0
M  V30 3063 N 304.489 0.459591 1.5075 0
M  V30 3064 C 305.735 -0.0994966 2.02556 0
M  V30 3065 C 306.068 -1.40399 1.3417 0
M  V30 3066 O 305.343 -1.88892 0.463683 0
M  V30 3067 C 305.626 -0.295242 3.58888 0
M  V30 3068 C 305.479 1.02947 4.37861 0
M  V30 3069 C 306.798 -1.05502 4.27267 0
M  V30 3070 H 303.917 -0.034686 0.736183 0
M  V30 3071 H 306.559 0.602938 1.8018 0
M  V30 3072 H 304.709 -0.893563 3.78084 0
M  V30 3073 H 306.381 1.66348 4.30263 0
M  V30 3074 H 304.624 1.62885 4.02058 0
M  V30 3075 H 305.295 0.846281 5.45474 0
M  V30 3076 H 307.771 -0.547993 4.12476 0
M  V30 3077 H 306.647 -1.16077 5.36486 0
M  V30 3078 H 306.908 -2.08875 3.89645 0
M  V30 3079 N 305.967 -1.56429 0.191757 0
M  V30 3080 C 306.915 -2.20273 -0.747174 0
M  V30 3081 C 307.909 -1.17288 -1.22229 0
M  V30 3082 O 309.115 -1.35441 -1.18557 0
M  V30 3083 H 305.49 -0.705885 -0.259289 0
M  V30 3084 H 307.461 -2.97826 -0.184963 0
M  V30 3085 C 306.21 -2.87356 -1.95759 0
M  V30 3086 H 305.533 -3.66341 -1.60106 0
M  V30 3087 H 306.973 -3.3547 -2.59299 0
M  V30 3088 C 305.432 -1.88213 -2.79423 0
M  V30 3089 O 305.962 -1.38033 -3.7724 0
M  V30 3090 N 304.168 -1.56516 -2.44849 0
M  V30 3091 H 303.715 -1.97516 -1.65364 0
M  V30 3092 H 303.673 -0.904369 -3.01112 0
M  V30 3093 N 307.445 0.0818655 -1.57387 0
M  V30 3094 C 308.408 1.08265 -2.02018 0
M  V30 3095 C 309.408 1.32183 -0.915664 0
M  V30 3096 O 310.598 1.28073 -1.18081 0
M  V30 3097 C 307.73 2.42871 -2.39221 0
M  V30 3098 H 308.923 0.698204 -2.91659 0
M  V30 3099 H 306.476 0.327303 -1.52835 0
M  V30 3100 H 307.211 2.86167 -1.52575 0
M  V30 3101 H 306.996 2.26855 -3.19811 0
M  V30 3102 H 308.486 3.14826 -2.74362 0
M  V30 3103 N 308.923 1.53595 0.353017 0
M  V30 3104 C 310.169 1.70638 1.09593 0
M  V30 3105 C 310.502 0.463286 1.88593 0
M  V30 3106 O 309.777 -0.539597 1.86865 0
M  V30 3107 C 310.06 2.96406 2.04489 0
M  V30 3108 C 309.913 4.30901 1.29014 0
M  V30 3109 C 311.232 3.17812 3.0444 0
M  V30 3110 H 308.351 0.620913 0.397034 0
M  V30 3111 H 310.993 1.86254 0.375446 0
M  V30 3112 H 309.143 2.83223 2.65927 0
M  V30 3113 H 310.815 4.55917 0.702638 0
M  V30 3114 H 309.058 4.29741 0.592071 0
M  V30 3115 H 309.729 5.1506 1.98537 0
M  V30 3116 H 312.205 3.30263 2.53112 0
M  V30 3117 H 311.081 4.07223 3.6805 0
M  V30 3118 H 311.342 2.33669 3.75301 0
M  V30 3119 N 310.401 -0.613514 1.45168 0
M  V30 3120 C 311.364 -1.7065 1.53007 0
M  V30 3121 C 312.364 -1.5548 0.410184 0
M  V30 3122 O 313.554 -1.60656 0.673455 0
M  V30 3123 C 310.686 -3.09875 1.42093 0
M  V30 3124 H 311.879 -1.65068 2.50385 0
M  V30 3125 H 309.432 -0.828728 1.32521 0
M  V30 3126 H 310.167 -3.21039 0.458769 0
M  V30 3127 H 309.952 -3.22293 2.23315 0
M  V30 3128 H 311.442 -3.895 1.50598 0
M  V30 3129 N 311.879 -1.3236 -0.855495 0
M  V30 3130 C 313.29 -1.2056 -1.42556 0
M  V30 3131 C 313.641 0.182209 -1.95352 0
M  V30 3132 O 312.766 1.08088 -1.87472 0
M  V30 3133 C 313.361 -2.1826 -2.59129 0
M  V30 3134 C 311.92 -2.10351 -3.12137 0
M  V30 3135 C 311.067 -2.06674 -1.84882 0
M  V30 3136 H 314.018 -1.442 -0.662727 0
M  V30 3137 H 314.039 -1.78064 -3.36264 0
M  V30 3138 H 313.551 -3.19257 -2.20673 0
M  V30 3139 H 311.652 -1.12599 -3.55179 0
M  V30 3140 H 311.765 -3.00135 -3.73438 0
M  V30 3141 H 310.129 -1.51901 -2.04446 0
M  V30 3142 H 310.912 -3.09451 -1.48643 0
M  V30 3143 N 313.357 1.07166 -1.15556 0
M  V30 3144 C 314.605 1.79443 -0.929764 0
M  V30 3145 C 314.926 1.87246 0.544414 0
M  V30 3146 O 314.196 1.37473 1.39564 0
M  V30 3147 H 312.776 0.664625 -0.341003 0
M  V30 3148 H 315.438 1.29499 -1.45657 0
M  V30 3149 H 314.534 2.81832 -1.34079 0
M  V30 3150 N 314.835 0.952656 1.25548 0
M  V30 3151 C 315.765 0.489287 2.28316 0
M  V30 3152 C 316.746 -0.463359 1.63667 0
M  V30 3153 O 317.931 -0.36274 1.90782 0
M  V30 3154 C 315.061 -0.235603 3.465 0
M  V30 3155 C 314.015 0.631593 4.23314 0
M  V30 3156 C 313.341 -0.223923 5.34231 0
M  V30 3157 C 314.641 1.90871 4.86174 0
M  V30 3158 H 316.335 1.34822 2.67326 0
M  V30 3159 H 313.881 0.649728 1.28509 0
M  V30 3160 H 315.834 -0.570882 4.17515 0
M  V30 3161 H 314.558 -1.12877 3.06474 0
M  V30 3162 H 313.217 0.949929 3.54079 0
M  V30 3163 H 312.865 -1.11678 4.90446 0
M  V30 3164 H 312.565 0.35299 5.86539 0
M  V30 3165 H 314.089 -0.554214 6.0808 0
M  V30 3166 H 315.503 1.63997 5.49343 0
M  V30 3167 H 313.9 2.43112 5.4865 0
M  V30 3168 H 314.97 2.61304 4.08471 0
M  V30 3169 N 316.313 -1.40141 0.720998 0
M  V30 3170 C 317.538 -2.05618 0.271258 0
M  V30 3171 C 317.963 -1.53978 -1.08039 0
M  V30 3172 O 317.321 -0.677463 -1.68167 0
M  V30 3173 C 317.369 -3.59609 0.267197 0
M  V30 3174 O 316.473 -4.05526 -0.749814 0
M  V30 3175 H 315.814 -0.651904 0.126162 0
M  V30 3176 H 318.344 -1.79439 0.982997 0
M  V30 3177 H 318.354 -4.0786 0.106744 0
M  V30 3178 H 317.029 -3.96559 1.25354 0
M  V30 3179 H 315.606 -3.68722 -0.556644 0
M  V30 3180 N 317.792 -0.46758 -1.50504 0
M  V30 3181 C 318.722 0.318381 -2.31319 0
M  V30 3182 C 319.703 0.993564 -1.38066 0
M  V30 3183 O 320.888 0.991411 -1.66987 0
M  V30 3184 C 318.018 1.40275 -3.17711 0
M  V30 3185 C 316.972 0.849373 -4.19487 0
M  V30 3186 C 316.298 2.03177 -4.94594 0
M  V30 3187 C 317.598 -0.136942 -5.2212 0
M  V30 3188 H 319.292 -0.356106 -2.97275 0
M  V30 3189 H 316.838 -0.172703 -1.42961 0
M  V30 3190 H 318.791 1.96004 -3.73042 0
M  V30 3191 H 317.515 2.10596 -2.49634 0
M  V30 3192 H 316.174 0.314076 -3.65252 0
M  V30 3193 H 315.822 2.72187 -4.22993 0
M  V30 3194 H 315.522 1.66774 -5.63436 0
M  V30 3195 H 317.046 2.59403 -5.52759 0
M  V30 3196 H 318.46 0.331056 -5.72343 0
M  V30 3197 H 316.857 -0.41507 -5.98663 0
M  V30 3198 H 317.927 -1.06398 -4.73083 0
M  V30 3199 N 319.27 1.56325 -0.20005 0
M  V30 3200 C 320.2 2.22318 0.713916 0
M  V30 3201 C 321.181 1.18788 1.21752 0
M  V30 3202 O 322.366 1.47309 1.26545 0
M  V30 3203 C 319.496 2.88639 1.93144 0
M  V30 3204 C 318.45 3.98457 1.56255 0
M  V30 3205 C 317.776 4.51967 2.85709 0
M  V30 3206 C 319.076 5.16612 0.768747 0
M  V30 3207 H 320.77 2.98952 0.163755 0
M  V30 3208 H 318.316 1.43792 0.0773219 0
M  V30 3209 H 320.269 3.33491 2.57608 0
M  V30 3210 H 318.993 2.09419 2.50621 0
M  V30 3211 H 317.652 3.54305 0.941471 0
M  V30 3212 H 317.3 3.69503 3.41287 0
M  V30 3213 H 317 5.26071 2.6177 0
M  V30 3214 H 318.524 4.99523 3.51154 0
M  V30 3215 H 319.938 5.57977 1.3166 0
M  V30 3216 H 318.335 5.96812 0.627286 0
M  V30 3217 H 319.405 4.84358 -0.229168 0
M  V30 3218 N 320.748 -0.0735177 1.57428 0
M  V30 3219 C 322.159 -0.625551 1.75908 0
M  V30 3220 C 322.51 -1.78 0.825261 0
M  V30 3221 O 321.635 -2.16398 0.00893964 0
M  V30 3222 C 322.23 -1.14155 3.18989 0
M  V30 3223 C 320.789 -1.63946 3.38819 0
M  V30 3224 C 319.936 -0.558151 2.71625 0
M  V30 3225 H 322.887 0.152647 1.57964 0
M  V30 3226 H 322.908 -2.0104 3.23053 0
M  V30 3227 H 322.42 -0.301116 3.8693 0
M  V30 3228 H 320.521 -2.50321 2.7599 0
M  V30 3229 H 320.634 -1.71759 4.47253 0
M  V30 3230 H 318.998 -1.00278 2.34129 0
M  V30 3231 H 319.781 0.272071 3.4222 0
M  V30 3232 N 322.226 -1.5378 -0.344866 0
M  V30 3233 C 323.637 -1.62428 -0.920552 0
M  V30 3234 C 323.988 -0.504747 -1.89596 0
M  V30 3235 O 323.113 0.365711 -2.13287 0
M  V30 3236 C 323.708 -2.94419 -1.67639 0
M  V30 3237 C 322.267 -3.05333 -2.20111 0
M  V30 3238 C 321.414 -2.57866 -1.01982 0
M  V30 3239 H 324.365 -1.58222 -0.123042 0
M  V30 3240 H 324.386 -2.83384 -2.53917 0
M  V30 3241 H 323.898 -3.7588 -0.966224 0
M  V30 3242 H 321.999 -2.28502 -2.94308 0
M  V30 3243 H 322.112 -4.10778 -2.46573 0
M  V30 3244 H 320.476 -2.13241 -1.39285 0
M  V30 3245 H 321.259 -3.41765 -0.324308 0
M  V30 3246 N 323.704 0.605807 -1.45491 0
M  V30 3247 C 324.667 1.69836 -1.5391 0
M  V30 3248 C 325.667 1.55261 -0.418424 0
M  V30 3249 O 326.857 1.60296 -0.681965 0
M  V30 3250 C 323.989 3.09117 -1.43734 0
M  V30 3251 H 325.182 1.63738 -2.51257 0
M  V30 3252 H 322.735 0.821689 -1.32959 0
M  V30 3253 H 323.47 3.20791 -0.475788 0
M  V30 3254 H 323.255 3.21104 -2.25021 0
M  V30 3255 H 324.745 3.88696 -1.52661 0
M  V30 3256 N 325.182 1.32811 0.848464 0
M  V30 3257 C 326.115 1.16601 1.96162 0
M  V30 3258 C 327.093 0.0638855 1.62474 0
M  V30 3259 O 328.277 0.224348 1.8716 0
M  V30 3260 C 325.404 0.786333 3.29446 0
M  V30 3261 C 324.45 1.89459 3.8211 0
M  V30 3262 S 325.283 3.50395 4.04949 0
M  V30 3263 C 326.439 3.14413 5.41198 0
M  V30 3264 H 326.672 2.10832 2.09612 0
M  V30 3265 H 324.205 1.17543 1.00115 0
M  V30 3266 H 326.163 0.574044 4.06466 0
M  V30 3267 H 324.824 -0.137218 3.138 0
M  V30 3268 H 324.017 1.58207 4.78526 0
M  V30 3269 H 323.619 2.06304 3.11953 0
M  V30 3270 H 325.911 2.64642 6.23675 0
M  V30 3271 H 326.854 4.09874 5.77416 0
M  V30 3272 H 327.262 2.51266 5.05495 0
M  V30 3273 N 326.66 -1.06551 1.16123 0
M  V30 3274 C 328.071 -1.60768 0.949232 0
M  V30 3275 C 328.422 -1.89523 -0.507508 0
M  V30 3276 O 327.547 -1.66671 -1.38021 0
M  V30 3277 C 328.142 -2.92086 1.71671 0
M  V30 3278 C 326.701 -3.43015 1.54977 0
M  V30 3279 C 325.848 -2.16947 1.72711 0
M  V30 3280 H 328.799 -0.895354 1.31031 0
M  V30 3281 H 328.82 -3.6138 1.19099 0
M  V30 3282 H 328.332 -2.71127 2.7769 0
M  V30 3283 H 326.433 -3.69039 0.513873 0
M  V30 3284 H 326.546 -4.18516 2.33198 0
M  V30 3285 H 324.91 -2.27041 1.15431 0
M  V30 3286 H 325.693 -1.98473 2.80113 0
M  V30 3287 N 328.138 -0.959301 -1.25041 0
M  V30 3288 C 329.07 -0.440543 -2.24926 0
M  V30 3289 C 330.083 0.446131 -1.56568 0
M  V30 3290 O 331.272 0.253657 -1.76689 0
M  V30 3291 C 328.372 0.38412 -3.36716 0
M  V30 3292 C 327.545 -0.490658 -4.34639 0
M  V30 3293 C 326.604 0.276587 -5.25473 0
M  V30 3294 O 325.63 -0.326614 -5.68262 0
M  V30 3295 N 326.832 1.56844 -5.5891 0
M  V30 3296 H 329.597 -1.29931 -2.70071 0
M  V30 3297 H 327.158 -0.830181 -1.38995 0
M  V30 3298 H 329.15 0.905228 -3.94446 0
M  V30 3299 H 327.72 1.14377 -2.90924 0
M  V30 3300 H 326.94 -1.19282 -3.7572 0
M  V30 3301 H 328.228 -1.08756 -4.97041 0
M  V30 3302 H 327.626 2.08036 -5.26059 0
M  V30 3303 H 326.183 2.03541 -6.19205 0
M  V30 3304 N 329.616 1.39756 -0.72842 0
M  V30 3305 C 330.526 2.34444 -0.0855374 0
M  V30 3306 C 331.542 1.57976 0.729356 0
M  V30 3307 O 332.718 1.90301 0.659346 0
M  V30 3308 C 329.783 3.36965 0.815798 0
M  V30 3309 C 328.844 4.29299 -0.0105996 0
M  V30 3310 C 328.077 5.26923 0.84781 0
M  V30 3311 O 328.3 5.30859 2.08673 0
M  V30 3312 O 327.234 6.01249 0.279969 0
M  V30 3313 H 331.06 2.91065 -0.866892 0
M  V30 3314 H 328.645 1.4117 -0.48902 0
M  V30 3315 H 330.527 3.99804 1.33171 0
M  V30 3316 H 329.202 2.82739 1.57608 0
M  V30 3317 H 328.109 3.69703 -0.571877 0
M  V30 3318 H 329.442 4.86712 -0.73295 0
M  V30 3319 N 331.094 0.475555 1.50254 0
M  V30 3320 C 332.322 -0.0754493 2.06762 0
M  V30 3321 C 332.737 -1.33111 1.33891 0
M  V30 3322 O 332.094 -1.77846 0.40952 0
M  V30 3323 C 332.145 -0.359008 3.59713 0
M  V30 3324 O 331.866 0.846851 4.29837 0
M  V30 3325 C 333.367 -0.956484 4.32858 0
M  V30 3326 H 330.587 0.00907525 0.670939 0
M  V30 3327 H 333.131 0.665618 1.93364 0
M  V30 3328 H 331.286 -1.05001 3.72899 0
M  V30 3329 H 331.7 0.594162 5.21124 0
M  V30 3330 H 333.174 -1.10463 5.40834 0
M  V30 3331 H 333.651 -1.94775 3.93649 0
M  V30 3332 H 334.257 -0.303723 4.24214 0
M  V30 3333 N 332.573 -1.56217 0.208337 0
M  V30 3334 C 333.505 -2.1695 -0.739276 0
M  V30 3335 C 334.518 -1.13492 -1.1672 0
M  V30 3336 O 335.707 -1.40529 -1.10063 0
M  V30 3337 C 332.807 -2.72755 -2.01142 0
M  V30 3338 C 331.98 -4.0125 -1.74118 0
M  V30 3339 C 331.039 -4.41749 -2.85909 0
M  V30 3340 O 330.065 -5.08912 -2.54946 0
M  V30 3341 N 331.267 -4.06342 -4.14568 0
M  V30 3342 H 334.032 -2.98893 -0.219837 0
M  V30 3343 H 331.593 -1.61878 0.0268445 0
M  V30 3344 H 333.585 -2.96826 -2.75094 0
M  V30 3345 H 332.155 -1.95191 -2.4417 0
M  V30 3346 H 331.375 -3.85173 -0.838775 0
M  V30 3347 H 332.663 -4.851 -1.53477 0
M  V30 3348 H 332.061 -3.52345 -4.42571 0
M  V30 3349 H 330.618 -4.35335 -4.85105 0
M  V30 3350 N 334.051 0.0651679 -1.57465 0
M  V30 3351 C 334.961 1.09448 -2.07505 0
M  V30 3352 C 335.977 1.41974 -1.00595 0
M  V30 3353 O 337.153 1.52018 -1.32107 0
M  V30 3354 C 334.218 2.38689 -2.51453 0
M  V30 3355 C 333.279 2.13073 -3.72691 0
M  V30 3356 C 332.512 3.36152 -4.14533 0
M  V30 3357 O 332.735 4.45517 -3.56189 0
M  V30 3358 O 331.669 3.23974 -5.07272 0
M  V30 3359 H 335.495 0.69935 -2.95538 0
M  V30 3360 H 333.08 0.279752 -1.46757 0
M  V30 3361 H 334.962 3.14736 -2.80212 0
M  V30 3362 H 333.637 2.77568 -1.66546 0
M  V30 3363 H 332.544 1.34709 -3.49005 0
M  V30 3364 H 333.877 1.79071 -4.5847 0
M  V30 3365 N 335.529 1.53961 0.336706 0
M  V30 3366 C 336.439 1.85432 1.43708 0
M  V30 3367 C 337.455 0.745053 1.57242 0
M  V30 3368 O 338.631 1.03804 1.72588 0
M  V30 3369 C 335.696 2.06349 2.78605 0
M  V30 3370 C 334.757 3.30191 2.74358 0
M  V30 3371 C 333.99 3.50101 4.02822 0
M  V30 3372 O 334.213 2.7371 5.00439 0
M  V30 3373 O 333.147 4.43547 4.06878 0
M  V30 3374 H 336.973 2.78975 1.20028 0
M  V30 3375 H 334.558 1.39701 0.52952 0
M  V30 3376 H 336.44 2.21513 3.58483 0
M  V30 3377 H 335.115 1.15995 3.02203 0
M  V30 3378 H 334.022 3.20425 1.93078 0
M  V30 3379 H 335.355 4.2056 2.55715 0
M  V30 3380 N 337.007 -0.598083 1.45811 0
M  V30 3381 C 338.237 -1.38121 1.53643 0
M  V30 3382 C 338.645 -1.88425 0.171081 0
M  V30 3383 O 337.988 -1.63409 -0.839237 0
M  V30 3384 C 338.05 -2.61432 2.46766 0
M  V30 3385 C 337.714 -2.32702 3.93318 0
M  V30 3386 C 338.711 -1.92479 4.82957 0
M  V30 3387 C 336.396 -2.45321 4.38318 0
M  V30 3388 C 338.39 -1.65248 6.15607 0
M  V30 3389 C 336.077 -2.17703 5.71007 0
M  V30 3390 C 337.075 -1.7773 6.5947 0
M  V30 3391 O 336.763 -1.50441 7.89698 0
M  V30 3392 H 336.495 -0.428863 0.522544 0
M  V30 3393 H 339.049 -0.73557 1.91777 0
M  V30 3394 H 337.279 -3.28749 2.0362 0
M  V30 3395 H 338.968 -3.23487 2.45175 0
M  V30 3396 H 339.734 -1.82258 4.49452 0
M  V30 3397 H 335.613 -2.75399 3.69697 0
M  V30 3398 H 339.157 -1.33973 6.84614 0
M  V30 3399 H 335.054 -2.27544 6.04065 0
M  V30 3400 H 335.822 -1.64415 8.01817 0
M  V30 3401 N 338.485 -1.33259 -0.841409 0
M  V30 3402 C 339.901 -1.12538 -1.13169 0
M  V30 3403 C 340.101 0.0854037 -2.01319 0
M  V30 3404 O 339.157 0.766417 -2.40587 0
M  V30 3405 C 340.47 -2.41156 -1.79623 0
M  V30 3406 C 342.018 -2.47038 -1.922 0
M  V30 3407 C 342.493 -3.7561 -2.6207 0
M  V30 3408 N 343.984 -3.76667 -2.69585 0
M  V30 3409 C 344.719 -4.72861 -3.2433 0
M  V30 3410 N 344.215 -5.79428 -3.79783 0
M  V30 3411 N 346.008 -4.6034 -3.22558 0
M  V30 3412 H 338.159 -2.10868 -0.254676 0
M  V30 3413 H 340.422 -0.931615 -0.175493 0
M  V30 3414 H 340.128 -3.29747 -1.22311 0
M  V30 3415 H 340.002 -2.53114 -2.79666 0
M  V30 3416 H 342.389 -1.58898 -2.48667 0
M  V30 3417 H 342.47 -2.39022 -0.911148 0
M  V30 3418 H 342.114 -4.64131 -2.06263 0
M  V30 3419 H 342.044 -3.80902 -3.63622 0
M  V30 3420 H 344.535 -2.99648 -2.30259 0
M  V30 3421 H 344.848 -6.48867 -4.19752 0
M  V30 3422 H 343.193 -5.83166 -3.78078 0
M  V30 3423 H 346.384 -3.76244 -2.78492 0
M  V30 3424 H 346.557 -5.35478 -3.64921 0
M  V30 3425 N 339.963 1.05934 -1.16686 0
M  V30 3426 C 341.379 1.30938 -0.912542 0
M  V30 3427 C 341.579 1.96803 0.432533 0
M  V30 3428 O 340.635 2.23693 1.17123 0
M  V30 3429 C 341.948 2.18649 -2.06429 0
M  V30 3430 C 343.496 2.32055 -2.10047 0
M  V30 3431 C 343.971 3.23122 -3.24586 0
M  V30 3432 N 345.462 3.30706 -3.24327 0
M  V30 3433 C 346.197 4.01273 -4.09594 0
M  V30 3434 N 345.693 4.74332 -5.04956 0
M  V30 3435 N 347.486 3.97361 -3.97569 0
M  V30 3436 H 339.637 0.615777 -2.03278 0
M  V30 3437 H 341.9 0.334077 -0.887185 0
M  V30 3438 H 341.606 1.77534 -3.03603 0
M  V30 3439 H 341.48 3.19252 -2.00894 0
M  V30 3440 H 343.867 2.72415 -1.13464 0
M  V30 3441 H 343.948 1.31107 -2.19647 0
M  V30 3442 H 343.592 2.83477 -4.2143 0
M  V30 3443 H 343.522 4.24057 -3.12223 0
M  V30 3444 H 346.013 2.78644 -2.55276 0
M  V30 3445 H 346.326 5.25716 -5.6643 0
M  V30 3446 H 344.671 4.733 -5.08933 0
M  V30 3447 H 347.862 3.39405 -3.22369 0
M  V30 3448 H 348.035 4.52089 -4.64241 0
M  V30 3449 N 341.441 0.965919 1.2453 0
M  V30 3450 C 342.388 0.49402 2.25451 0
M  V30 3451 C 343.358 -0.45948 1.59618 0
M  V30 3452 O 344.543 -0.370238 1.87173 0
M  V30 3453 C 341.683 -0.211359 3.44452 0
M  V30 3454 C 340.796 0.7807 4.24887 0
M  V30 3455 C 339.931 0.0516105 5.31175 0
M  V30 3456 C 338.97 1.03385 6.03306 0
M  V30 3457 N 338.107 0.334887 7.01301 0
M  V30 3458 H 342.947 1.35946 2.65184 0
M  V30 3459 H 340.484 0.681515 1.3036 0
M  V30 3460 H 342.442 -0.637 4.12308 0
M  V30 3461 H 341.072 -1.04077 3.05562 0
M  V30 3462 H 340.124 1.32479 3.56586 0
M  V30 3463 H 341.436 1.52978 4.74762 0
M  V30 3464 H 340.59 -0.432114 6.05159 0
M  V30 3465 H 339.329 -0.730179 4.82203 0
M  V30 3466 H 338.334 1.52847 5.28127 0
M  V30 3467 H 339.559 1.81606 6.54367 0
M  V30 3468 H 337.505 -0.427959 6.54603 0
M  V30 3469 H 337.422 1.02287 7.49048 0
M  V30 3470 H 338.69 -0.126928 7.79397 0
M  V30 3471 N 342.919 -1.39368 0.735821 0
M  V30 3472 C 344.165 -2.00794 0.284544 0
M  V30 3473 C 344.498 -1.58255 -1.12557 0
M  V30 3474 O 343.773 -0.811819 -1.76748 0
M  V30 3475 C 344.056 -3.58011 0.387337 0
M  V30 3476 C 343.909 -4.10566 1.83728 0
M  V30 3477 C 345.228 -4.395 -0.22975 0
M  V30 3478 H 342.347 -0.729501 0.104866 0
M  V30 3479 H 344.989 -1.65564 0.93213 0
M  V30 3480 H 343.139 -3.88154 -0.164006 0
M  V30 3481 H 344.811 -3.91139 2.44556 0
M  V30 3482 H 343.054 -3.64095 2.35833 0
M  V30 3483 H 343.725 -5.19702 1.86047 0
M  V30 3484 H 346.201 -4.15406 0.240257 0
M  V30 3485 H 345.077 -5.48752 -0.127485 0
M  V30 3486 H 345.338 -4.22062 -1.3159 0
M  V30 3487 N 344.397 -0.483516 -1.5 0
M  V30 3488 C 345.808 -0.0314176 -1.86674 0
M  V30 3489 C 346.159 1.37728 -1.39733 0
M  V30 3490 O 345.284 2.02327 -0.767635 0
M  V30 3491 C 345.879 -0.0502376 -3.38763 0
M  V30 3492 C 344.438 0.346442 -3.74802 0
M  V30 3493 C 343.585 -0.430366 -2.7394 0
M  V30 3494 H 346.536 -0.697182 -1.42566 0
M  V30 3495 H 346.557 0.749116 -3.73053 0
M  V30 3496 H 346.069 -1.07563 -3.72897 0
M  V30 3497 H 344.17 1.37572 -3.46273 0
M  V30 3498 H 344.283 0.0391486 -4.79084 0
M  V30 3499 H 342.647 0.117557 -2.54429 0
M  V30 3500 H 343.43 -1.4555 -3.10918 0
M  V30 3501 N 345.875 1.56104 -0.216619 0
M  V30 3502 C 346.805 2.23063 0.690296 0
M  V30 3503 C 347.786 1.20072 1.20485 0
M  V30 3504 O 348.971 1.48643 1.24976 0
M  V30 3505 C 346.101 2.90672 1.90072 0
M  V30 3506 C 345.055 4.00092 1.5202 0
M  V30 3507 C 344.381 4.54972 2.80899 0
M  V30 3508 C 345.681 5.17398 0.71391 0
M  V30 3509 H 347.375 2.99109 0.132038 0
M  V30 3510 H 344.921 1.43866 0.0620664 0
M  V30 3511 H 346.874 3.36204 2.54057 0
M  V30 3512 H 345.598 2.12066 2.48386 0
M  V30 3513 H 344.257 3.55283 0.903839 0
M  V30 3514 H 343.905 3.73102 3.37348 0
M  V30 3515 H 343.605 5.28817 2.56176 0
M  V30 3516 H 345.129 5.0322 3.45836 0
M  V30 3517 H 346.543 5.59342 1.25735 0
M  V30 3518 H 344.94 5.97444 0.563951 0
M  V30 3519 H 346.01 4.84088 -0.280527 0
M  V30 3520 N 347.353 -0.0568162 1.57498 0
M  V30 3521 C 348.601 -0.751617 1.87604 0
M  V30 3522 C 348.922 -1.77351 0.81066 0
M  V30 3523 O 348.192 -1.95254 -0.159018 0
M  V30 3524 H 346.772 -0.280583 0.692302 0
M  V30 3525 H 349.434 -0.0293483 1.94878 0
M  V30 3526 H 348.53 -1.25852 2.856 0
M  V30 3527 N 348.832 -1.54138 -0.328536 0
M  V30 3528 C 349.764 -1.79509 -1.4251 0
M  V30 3529 C 350.777 -0.67688 -1.48061 0
M  V30 3530 O 351.966 -0.953898 -1.50874 0
M  V30 3531 C 349.066 -1.89337 -2.81078 0
M  V30 3532 C 348.239 -3.19443 -2.98789 0
M  V30 3533 C 347.298 -3.20036 -4.17688 0
M  V30 3534 O 346.324 -3.93697 -4.11086 0
M  V30 3535 N 347.526 -2.43467 -5.26976 0
M  V30 3536 H 350.291 -2.74139 -1.21111 0
M  V30 3537 H 347.852 -1.53373 -0.518499 0
M  V30 3538 H 349.844 -1.87167 -3.58818 0
M  V30 3539 H 348.414 -1.01826 -2.95551 0
M  V30 3540 H 347.634 -3.34614 -2.08391 0
M  V30 3541 H 348.922 -4.05354 -3.07515 0
M  V30 3542 H 348.32 -1.83201 -5.35214 0
M  V30 3543 H 346.877 -2.4708 -6.03154 0
M  V30 3544 N 350.31 0.590341 -1.46126 0
M  V30 3545 C 351.535 1.37991 -1.54833 0
M  V30 3546 C 351.96 1.87163 -0.187506 0
M  V30 3547 O 351.318 1.61133 0.831008 0
M  V30 3548 C 351.366 2.54867 -2.55098 0
M  V30 3549 O 350.47 3.56061 -2.08073 0
M  V30 3550 H 349.811 0.411265 -0.521303 0
M  V30 3551 H 352.341 0.716819 -1.91632 0
M  V30 3552 H 352.351 3.01886 -2.74461 0
M  V30 3553 H 351.026 2.18429 -3.53923 0
M  V30 3554 H 349.603 3.15574 -1.98664 0
M  V30 3555 N 351.788 1.33704 0.83433 0
M  V30 3556 C 352.698 1.26382 1.97648 0
M  V30 3557 C 353.714 0.173548 1.73132 0
M  V30 3558 O 354.89 0.397962 1.97429 0
M  V30 3559 C 351.955 1.00769 3.31733 0
M  V30 3560 C 351.016 2.1884 3.69334 0
M  V30 3561 C 350.249 1.9444 4.9702 0
M  V30 3562 O 350.472 0.896961 5.63303 0
M  V30 3563 O 349.406 2.81093 5.32231 0
M  V30 3564 H 353.232 2.22444 2.06767 0
M  V30 3565 H 350.817 1.13795 0.968037 0
M  V30 3566 H 352.699 0.882186 4.12062 0
M  V30 3567 H 351.374 0.0773783 3.23608 0
M  V30 3568 H 350.281 2.36946 2.89495 0
M  V30 3569 H 351.614 3.10221 3.82131 0
M  V30 3570 N 353.266 -1.05314 1.17247 0
M  V30 3571 C 354.229 -2.112 0.890357 0
M  V30 3572 C 355.229 -1.60359 -0.118943 0
M  V30 3573 O 356.419 -1.73833 0.113086 0
M  V30 3574 C 353.551 -3.39266 0.333422 0
M  V30 3575 H 354.744 -2.37659 1.82916 0
M  V30 3576 H 352.297 -1.21538 0.982758 0
M  V30 3577 H 353.032 -3.18462 -0.612587 0
M  V30 3578 H 352.817 -3.77477 1.06082 0
M  V30 3579 H 354.307 -4.17315 0.154322 0
M  V30 3580 N 354.744 -0.972509 -1.24016 0
M  V30 3581 C 355.969 -0.654417 -1.96805 0
M  V30 3582 C 356.394 0.770398 -1.716 0
M  V30 3583 O 355.752 1.52361 -0.982647 0
M  V30 3584 C 355.8 -0.941031 -3.48105 0
M  V30 3585 O 354.904 -0.0289472 -4.1239 0
M  V30 3586 H 354.245 -0.24692 -0.616382 0
M  V30 3587 H 356.775 -1.30396 -1.57664 0
M  V30 3588 H 356.785 -0.87452 -3.98517 0
M  V30 3589 H 355.46 -1.97939 -3.65777 0
M  V30 3590 H 354.037 -0.149192 -3.72601 0
M  V30 3591 N 356.222 1.38976 -0.743202 0
M  V30 3592 C 357.185 2.28901 -0.117014 0
M  V30 3593 C 358.185 1.46698 0.658503 0
M  V30 3594 O 359.375 1.67274 0.486305 0
M  V30 3595 C 356.507 3.30309 0.84315 0
M  V30 3596 H 357.7 2.8578 -0.909373 0
M  V30 3597 H 355.253 1.47761 -0.509547 0
M  V30 3598 H 355.988 2.785 1.66157 0
M  V30 3599 H 355.773 3.91029 0.289594 0
M  V30 3600 H 357.263 3.97577 1.2776 0
M  V30 3601 N 357.7 0.491464 1.49741 0
M  V30 3602 C 358.663 -0.280906 2.27472 0
M  V30 3603 C 359.663 -0.902454 1.33088 0
M  V30 3604 O 360.853 -0.768465 1.56334 0
M  V30 3605 C 357.985 -1.40209 3.10732 0
M  V30 3606 H 359.178 0.401056 2.97206 0
M  V30 3607 H 356.731 0.246131 1.5435 0
M  V30 3608 H 357.466 -2.11849 2.45541 0
M  V30 3609 H 357.251 -0.961969 3.80117 0
M  V30 3610 H 358.741 -1.9464 3.69466 0
M  V30 3611 N 359.178 -1.55987 0.224894 0
M  V30 3612 C 360.11 -2.17722 -0.716224 0
M  V30 3613 C 361.123 -1.14723 -1.15509 0
M  V30 3614 O 362.312 -1.41688 -1.08567 0
M  V30 3615 C 359.412 -2.74873 -1.98238 0
M  V30 3616 C 358.585 -4.03074 -1.69853 0
M  V30 3617 C 357.644 -4.44757 -2.81208 0
M  V30 3618 O 356.67 -5.11587 -2.49534 0
M  V30 3619 N 357.872 -4.10716 -4.10235 0
M  V30 3620 H 360.637 -2.99109 -0.188123 0
M  V30 3621 H 358.198 -1.6184 0.0440123 0
M  V30 3622 H 360.19 -2.99727 -2.7193 0
M  V30 3623 H 358.76 -1.9777 -2.42086 0
M  V30 3624 H 357.98 -3.86041 -0.797875 0
M  V30 3625 H 359.268 -4.86701 -1.48324 0
M  V30 3626 H 358.666 -3.57019 -4.38809 0
M  V30 3627 H 357.223 -4.40455 -4.80461 0
M  V30 3628 N 360.656 0.0484629 -1.57525 0
M  V30 3629 C 361.905 0.742065 -1.87553 0
M  V30 3630 C 362.218 1.77545 -0.820802 0
M  V30 3631 O 363.424 2.52027 -1.00967 0
M  V30 3632 C 361.88 1.37081 -3.32771 0
M  V30 3633 C 361.488 0.374786 -4.4643 0
M  V30 3634 C 363.232 2.04542 -3.71972 0
M  V30 3635 C 361.139 1.01077 -5.82698 0
M  V30 3636 H 360.069 0.280903 -0.699721 0
M  V30 3637 H 362.72 -0.00411877 -1.835 0
M  V30 3638 H 361.102 2.16605 -3.31509 0
M  V30 3639 H 362.276 -0.392331 -4.59127 0
M  V30 3640 H 360.591 -0.196653 -4.15935 0
M  V30 3641 H 363.188 2.52943 -4.71088 0
M  V30 3642 H 363.531 2.85515 -3.02964 0
M  V30 3643 H 364.064 1.31819 -3.75325 0
M  V30 3644 H 360.803 0.240878 -6.55057 0
M  V30 3645 H 360.323 1.74819 -5.73758 0
M  V30 3646 H 362.002 1.52383 -6.28799 0
M  V30 3647 N 362.134 1.5431 0.320358 0
M  V30 3648 C 363.097 1.83195 1.3774 0
M  V30 3649 C 364.097 0.703906 1.44575 0
M  V30 3650 O 365.287 0.972214 1.44546 0
M  V30 3651 C 362.419 1.99487 2.76438 0
M  V30 3652 H 363.612 2.77642 1.1338 0
M  V30 3653 H 361.165 1.46076 0.556012 0
M  V30 3654 H 361.9 1.07262 3.06048 0
M  V30 3655 H 361.685 2.81575 2.7287 0
M  V30 3656 H 363.175 2.23271 3.52902 0
M  V30 3657 N 363.613 -0.582584 1.46437 0
M  V30 3658 C 364.89 -1.34276 1.4223 0
M  V30 3659 C 365.27 -2.10835 0.10583 0
M  V30 3660 O 364.618 -2.09485 -0.912596 0
M  V30 3661 C 364.828 -2.26865 2.65204 0
M  V30 3662 C 366.176 -2.88691 3.11356 0
M  V30 3663 O 367.2 -2.37178 2.65753 0
M  V30 3664 O 366.059 -3.82255 3.90568 0
M  V30 3665 H 363.153 -0.603326 0.565621 0
M  V30 3666 H 365.699 -0.603591 1.58603 0
M  V30 3667 H 364.471 -1.69724 3.52576 0
M  V30 3668 H 364.094 -3.08122 2.5129 0
M  V30 3669 N 365.091 -1.34144 -0.827227 0
M  V30 3670 C 366.337 -1.26446 -1.58554 0
M  V30 3671 C 366.67 0.1664 -1.93486 0
M  V30 3672 O 365.945 1.1107 -1.59667 0
M  V30 3673 C 366.228 -2.15111 -2.8879 0
M  V30 3674 C 366.081 -3.66712 -2.60465 0
M  V30 3675 C 367.4 -2.03311 -3.90324 0
M  V30 3676 H 364.519 -0.46067 -0.575284 0
M  V30 3677 H 367.161 -1.64356 -0.953269 0
M  V30 3678 H 365.311 -1.8291 -3.42748 0
M  V30 3679 H 366.983 -4.09259 -2.1285 0
M  V30 3680 H 365.226 -3.88014 -1.93978 0
M  V30 3681 H 365.897 -4.24112 -3.53317 0
M  V30 3682 H 368.373 -2.31574 -3.45706 0
M  V30 3683 H 367.249 -2.67582 -4.79261 0
M  V30 3684 H 367.51 -1.00879 -4.30437 0
M  V30 3685 N 366.569 1.04691 -1.17803 0
M  V30 3686 C 367.818 1.77176 -0.963931 0
M  V30 3687 C 368.131 1.88888 0.508015 0
M  V30 3688 O 369.337 2.58164 0.840465 0
M  V30 3689 C 367.793 3.18518 -1.67555 0
M  V30 3690 C 367.401 3.14919 -3.18637 0
M  V30 3691 C 369.145 3.95424 -1.54402 0
M  V30 3692 C 367.052 4.51081 -3.82466 0
M  V30 3693 H 365.982 0.664116 -0.357023 0
M  V30 3694 H 368.633 1.17303 -1.4111 0
M  V30 3695 H 367.015 3.78748 -1.15613 0
M  V30 3696 H 368.189 2.64178 -3.77554 0
M  V30 3697 H 366.504 2.51512 -3.31859 0
M  V30 3698 H 369.101 4.96106 -1.99456 0
M  V30 3699 H 369.444 4.13343 -0.495329 0
M  V30 3700 H 369.977 3.41754 -2.0359 0
M  V30 3701 H 366.716 4.38368 -4.87354 0
M  V30 3702 H 366.236 5.01951 -3.28337 0
M  V30 3703 H 367.915 5.2001 -3.84965 0
M  V30 3704 N 368.047 0.979072 1.23499 0
M  V30 3705 C 369.01 0.523244 2.23147 0
M  V30 3706 C 370.01 -0.386406 1.56088 0
M  V30 3707 O 371.2 -0.180283 1.73265 0
M  V30 3708 C 368.332 -0.240739 3.40049 0
M  V30 3709 H 369.525 1.40432 2.64989 0
M  V30 3710 H 367.078 0.764824 1.36309 0
M  V30 3711 H 367.813 -1.13841 3.03662 0
M  V30 3712 H 367.598 0.412207 3.89927 0
M  V30 3713 H 369.088 -0.548297 4.13985 0
M  V30 3714 N 369.525 -1.3858 0.750561 0
M  V30 3715 C 370.772 -2.00184 0.305373 0
M  V30 3716 C 371.1 -1.59575 -1.11203 0
M  V30 3717 O 370.355 -0.823236 -1.77542 0
M  V30 3718 C 370.654 -3.55455 0.372373 0
M  V30 3719 C 370.32 -4.15765 1.745 0
M  V30 3720 C 368.982 -4.31951 2.12065 0
M  V30 3721 C 371.334 -4.49067 2.64553 0
M  V30 3722 C 368.662 -4.78734 3.39162 0
M  V30 3723 C 371.014 -4.97265 3.91038 0
M  V30 3724 C 369.678 -5.11658 4.28676 0
M  V30 3725 H 368.948 -0.732526 0.111744 0
M  V30 3726 H 371.595 -1.65673 0.960451 0
M  V30 3727 H 369.9 -3.90084 -0.366272 0
M  V30 3728 H 371.597 -4.00999 0.00953918 0
M  V30 3729 H 368.187 -4.03579 1.44297 0
M  V30 3730 H 372.371 -4.36166 2.36796 0
M  V30 3731 H 367.627 -4.88062 3.68246 0
M  V30 3732 H 371.801 -5.22003 4.60962 0
M  V30 3733 H 369.428 -5.47668 5.27222 0
M  V30 3734 N 371.003 -0.499398 -1.49478 0
M  V30 3735 C 371.933 0.269244 -2.31943 0
M  V30 3736 C 372.914 0.964054 -1.40143 0
M  V30 3737 O 374.099 0.955767 -1.69052 0
M  V30 3738 C 371.229 1.33504 -3.20615 0
M  V30 3739 C 370.183 0.760202 -4.21195 0
M  V30 3740 C 369.509 1.9264 -4.98792 0
M  V30 3741 C 370.809 -0.247661 -5.21712 0
M  V30 3742 H 372.503 -0.419082 -2.96452 0
M  V30 3743 H 370.049 -0.202988 -1.42562 0
M  V30 3744 H 372.002 1.88048 -3.77115 0
M  V30 3745 H 370.726 2.05253 -2.54045 0
M  V30 3746 H 369.385 0.23653 -3.65836 0
M  V30 3747 H 369.033 2.63154 -4.28671 0
M  V30 3748 H 368.733 1.54785 -5.66847 0
M  V30 3749 H 370.257 2.4762 -5.58137 0
M  V30 3750 H 371.671 0.209579 -5.72917 0
M  V30 3751 H 370.068 -0.541962 -5.97648 0
M  V30 3752 H 371.138 -1.16409 -4.7072 0
M  V30 3753 N 372.481 1.55866 -0.233164 0
M  V30 3754 C 373.727 1.98897 0.395959 0
M  V30 3755 C 374.06 1.12091 1.58585 0
M  V30 3756 O 373.335 0.181182 1.93654 0
M  V30 3757 C 373.618 3.50658 0.819224 0
M  V30 3758 C 373.471 4.48233 -0.375109 0
M  V30 3759 C 374.79 4.07135 1.67121 0
M  V30 3760 H 371.909 0.723102 0.142451 0
M  V30 3761 H 374.551 1.87082 -0.331725 0
M  V30 3762 H 372.701 3.60857 1.43925 0
M  V30 3763 H 374.373 4.50031 -1.01341 0
M  V30 3764 H 372.616 4.21624 -1.02058 0
M  V30 3765 H 373.287 5.51988 -0.0358328 0
M  V30 3766 H 375.763 3.99952 1.14795 0
M  V30 3767 H 374.639 5.13615 1.93625 0
M  V30 3768 H 374.9 3.54736 2.63846 0
M  V30 3769 N 373.959 -0.0401083 1.57549 0
M  V30 3770 C 375.184 -0.748931 1.93406 0
M  V30 3771 C 375.609 -1.68686 0.832274 0
M  V30 3772 O 374.967 -1.80047 -0.212818 0
M  V30 3773 C 375.015 -1.4916 3.28304 0
M  V30 3774 O 374.119 -2.6042 3.19774 0
M  V30 3775 H 373.46 -0.202212 0.63246 0
M  V30 3776 H 375.99 0.00112086 2.046 0
M  V30 3777 H 376 -1.86395 3.62934 0
M  V30 3778 H 374.675 -0.80364 4.08062 0
M  V30 3779 H 373.252 -2.25808 2.96758 0
M  V30 3780 N 375.437 -1.54477 -0.31217 0
M  V30 3781 C 376.384 -1.84655 -1.38461 0
M  V30 3782 C 377.354 -0.694536 -1.50882 0
M  V30 3783 O 378.539 -0.942081 -1.6592 0
M  V30 3784 C 375.679 -2.0896 -2.74645 0
M  V30 3785 C 374.792 -3.36618 -2.70763 0
M  V30 3786 C 373.927 -3.50824 -3.98868 0
M  V30 3787 C 372.966 -4.72315 -3.89339 0
M  V30 3788 N 372.103 -4.83387 -5.09197 0
M  V30 3789 H 376.943 -2.76142 -1.12026 0
M  V30 3790 H 374.48 -1.36748 -0.542065 0
M  V30 3791 H 376.438 -2.21045 -3.53829 0
M  V30 3792 H 375.068 -1.20752 -2.99364 0
M  V30 3793 H 374.12 -3.33211 -1.83506 0
M  V30 3794 H 375.432 -4.25917 -2.59608 0
M  V30 3795 H 374.586 -3.62513 -4.86486 0
M  V30 3796 H 373.325 -2.59638 -4.12843 0
M  V30 3797 H 372.33 -4.6067 -3.00105 0
M  V30 3798 H 373.555 -5.64897 -3.76919 0
M  V30 3799 H 371.501 -3.9512 -5.23657 0
M  V30 3800 H 371.418 -5.66669 -5.00422 0
M  V30 3801 H 372.686 -4.9942 -5.98498 0
M  V30 3802 N 376.915 0.57481 -1.46744 0
M  V30 3803 C 378.192 1.3352 -1.4294 0
M  V30 3804 C 378.572 2.10775 -0.117009 0
M  V30 3805 O 377.92 2.09966 0.901474 0
M  V30 3806 C 378.13 2.25456 -2.66403 0
M  V30 3807 C 379.478 2.87035 -3.12883 0
M  V30 3808 O 380.502 2.35766 -2.67007 0
M  V30 3809 O 379.361 3.80179 -3.92589 0
M  V30 3810 H 376.455 0.600318 -0.568812 0
M  V30 3811 H 379.001 0.595171 -1.58921 0
M  V30 3812 H 377.773 1.67851 -3.53471 0
M  V30 3813 H 377.396 3.06785 -2.52921 0
M  V30 3814 N 378.394 1.34581 0.820102 0
M  V30 3815 C 379.357 1.2628 1.91275 0
M  V30 3816 C 380.357 0.177344 1.59819 0
M  V30 3817 O 381.547 0.430156 1.68806 0
M  V30 3818 C 378.679 0.950327 3.27386 0
M  V30 3819 H 379.872 2.23421 2.00057 0
M  V30 3820 H 377.425 1.1891 1.0144 0
M  V30 3821 H 378.16 -0.0177938 3.24295 0
M  V30 3822 H 377.945 1.73549 3.51601 0
M  V30 3823 H 379.435 0.917492 4.07396 0
M  V30 3824 N 379.872 -1.04064 1.18357 0
M  V30 3825 C 381.12 -1.76915 0.977013 0
M  V30 3826 C 381.441 -1.88624 -0.494577 0
M  V30 3827 O 380.711 -1.41125 -1.3587 0
M  V30 3828 H 379.291 -0.65535 0.358504 0
M  V30 3829 H 381.953 -1.25592 1.49039 0
M  V30 3830 H 381.049 -2.78178 1.41504 0
M  V30 3831 N 381.35 -0.985608 -1.22978 0
M  V30 3832 C 382.58 -0.674603 -1.95276 0
M  V30 3833 C 382.988 0.763483 -1.73111 0
M  V30 3834 O 382.331 1.52601 -1.02268 0
M  V30 3835 C 382.393 -0.891597 -3.48268 0
M  V30 3836 C 382.057 -2.31275 -3.94158 0
M  V30 3837 C 383.054 -3.29179 -4.02415 0
M  V30 3838 C 380.739 -2.64524 -4.27004 0
M  V30 3839 C 382.733 -4.58407 -4.42879 0
M  V30 3840 C 380.42 -3.93974 -4.67149 0
M  V30 3841 C 381.418 -4.90727 -4.75053 0
M  V30 3842 O 381.106 -6.17865 -5.14294 0
M  V30 3843 H 380.838 -0.249251 -0.628371 0
M  V30 3844 H 383.392 -1.32106 -1.5728 0
M  V30 3845 H 381.622 -0.187962 -3.86243 0
M  V30 3846 H 383.311 -0.576957 -4.01779 0
M  V30 3847 H 384.077 -3.04823 -3.77237 0
M  V30 3848 H 379.956 -1.89923 -4.2006 0
M  V30 3849 H 383.5 -5.33926 -4.48964 0
M  V30 3850 H 379.397 -4.18122 -4.91777 0
M  V30 3851 H 380.165 -6.21694 -5.32389 0
M  V30 3852 N 382.828 1.3818 -0.7579 0
M  V30 3853 C 384.077 1.99261 -0.312744 0
M  V30 3854 C 384.39 1.60846 1.11301 0
M  V30 3855 O 385.596 2.14929 1.65885 0
M  V30 3856 C 384.052 3.56294 -0.50821 0
M  V30 3857 C 383.66 4.03657 -1.94333 0
M  V30 3858 C 385.404 4.24313 -0.125982 0
M  V30 3859 C 383.311 5.53347 -2.08712 0
M  V30 3860 H 382.241 0.745456 -0.113185 0
M  V30 3861 H 384.892 1.57889 -0.935056 0
M  V30 3862 H 383.274 3.95575 0.183353 0
M  V30 3863 H 384.448 3.75655 -2.66871 0
M  V30 3864 H 382.763 3.48376 -2.28086 0
M  V30 3865 H 385.36 5.34279 -0.212125 0
M  V30 3866 H 385.703 4.05962 0.921964 0
M  V30 3867 H 386.236 3.90285 -0.769563 0
M  V30 3868 H 382.975 5.76607 -3.11777 0
M  V30 3869 H 382.495 5.83078 -1.4064 0
M  V30 3870 H 384.174 6.19111 -1.87912 0
M  V30 3871 N 384.306 0.507319 1.49211 0
M  V30 3872 C 385.534 -0.0315749 2.06876 0
M  V30 3873 C 385.949 -1.30241 1.36685 0
M  V30 3874 O 385.306 -1.76937 0.447152 0
M  V30 3875 C 385.357 -0.282627 3.60393 0
M  V30 3876 O 385.078 0.937835 4.27944 0
M  V30 3877 C 386.579 -0.864453 4.3479 0
M  V30 3878 H 383.799 0.0233048 0.670595 0
M  V30 3879 H 386.343 0.706484 1.91909 0
M  V30 3880 H 384.498 -0.97068 3.75042 0
M  V30 3881 H 384.912 0.704567 5.19746 0
M  V30 3882 H 386.386 -0.989664 5.43056 0
M  V30 3883 H 386.863 -1.86382 3.97692 0
M  V30 3884 H 387.469 -0.213672 4.24763 0
M  V30 3885 N 385.784 -1.5574 0.241426 0
M  V30 3886 C 387.032 -1.98417 -0.384075 0
M  V30 3887 C 387.353 -1.13078 -1.58866 0
M  V30 3888 O 386.623 -0.212312 -1.94746 0
M  V30 3889 H 385.203 -0.732813 -0.144894 0
M  V30 3890 H 387.865 -1.9193 0.338943 0
M  V30 3891 H 386.961 -3.04219 -0.696939 0
M  V30 3892 N 387.262 0.0317525 -1.57568 0
M  V30 3893 C 388.49 0.734949 -1.93407 0
M  V30 3894 C 388.905 1.69036 -0.84096 0
M  V30 3895 O 388.262 1.81582 0.182836 0
M  V30 3896 C 388.313 1.49432 -3.29169 0
M  V30 3897 O 388.034 0.577261 -4.3428 0
M  V30 3898 C 389.535 2.29492 -3.79273 0
M  V30 3899 H 386.755 0.206706 -0.638368 0
M  V30 3900 H 389.299 -0.00992046 -2.04498 0
M  V30 3901 H 387.454 2.1911 -3.19483 0
M  V30 3902 H 387.868 1.10952 -5.1263 0
M  V30 3903 H 389.342 2.78172 -4.76785 0
M  V30 3904 H 389.819 3.10794 -3.10328 0
M  V30 3905 H 390.425 1.64894 -3.92033 0
M  V30 3906 N 388.74 1.54641 0.303973 0
M  V30 3907 C 389.968 1.77768 1.05858 0
M  V30 3908 C 390.383 0.535722 1.8104 0
M  V30 3909 O 389.74 -0.494337 1.75677 0
M  V30 3910 C 389.791 2.9834 2.04146 0
M  V30 3911 O 389.512 4.17736 1.32015 0
M  V30 3912 C 391.013 3.33832 2.91669 0
M  V30 3913 H 388.233 0.592961 0.314067 0
M  V30 3914 H 390.777 2.01583 0.344149 0
M  V30 3915 H 388.932 2.76742 2.71096 0
M  V30 3916 H 389.346 4.85693 1.97998 0
M  V30 3917 H 390.82 4.21448 3.56491 0
M  V30 3918 H 391.297 2.51857 3.59812 0
M  V30 3919 H 391.903 3.57579 2.30254 0
M  V30 3920 N 390.218 -0.567019 1.47046 0
M  V30 3921 C 391.148 -1.68482 1.61667 0
M  V30 3922 C 392.129 -1.6358 0.466418 0
M  V30 3923 O 393.314 -1.81354 0.694574 0
M  V30 3924 C 390.444 -3.07124 1.62148 0
M  V30 3925 C 389.398 -3.26867 2.76301 0
M  V30 3926 C 388.724 -4.66196 2.61849 0
M  V30 3927 C 390.024 -3.13186 4.17986 0
M  V30 3928 H 391.718 -1.56502 2.5524 0
M  V30 3929 H 389.264 -0.751486 1.22836 0
M  V30 3930 H 391.217 -3.8516 1.70968 0
M  V30 3931 H 389.941 -3.2004 0.651287 0
M  V30 3932 H 388.6 -2.51237 2.66975 0
M  V30 3933 H 388.248 -4.75898 1.62879 0
M  V30 3934 H 387.948 -4.80356 3.38425 0
M  V30 3935 H 389.472 -5.46379 2.72584 0
M  V30 3936 H 390.886 -3.81049 4.2834 0
M  V30 3937 H 389.283 -3.3886 4.95272 0
M  V30 3938 H 390.353 -2.10057 4.3704 0
M  V30 3939 N 391.696 -1.35014 -0.812953 0
M  V30 3940 C 392.643 -1.27412 -1.92444 0
M  V30 3941 C 393.613 -0.14733 -1.65445 0
M  V30 3942 O 394.798 -0.329974 -1.87925 0
M  V30 3943 C 391.938 -1.04558 -3.28879 0
M  V30 3944 C 391.051 -2.26101 -3.68106 0
M  V30 3945 C 390.186 -1.96449 -4.9354 0
M  V30 3946 C 389.225 -3.14081 -5.25376 0
M  V30 3947 N 388.362 -2.84246 -6.41988 0
M  V30 3948 H 393.202 -2.22463 -1.98278 0
M  V30 3949 H 390.739 -1.10593 -0.969933 0
M  V30 3950 H 392.697 -0.893413 -4.07522 0
M  V30 3951 H 391.327 -0.131719 -3.22531 0
M  V30 3952 H 390.379 -2.52204 -2.84775 0
M  V30 3953 H 391.691 -3.13959 -3.87597 0
M  V30 3954 H 390.845 -1.78026 -5.79993 0
M  V30 3955 H 389.584 -1.05867 -4.76071 0
M  V30 3956 H 388.589 -3.33089 -4.37415 0
M  V30 3957 H 389.814 -4.05455 -5.44778 0
M  V30 3958 H 387.76 -1.96252 -6.25956 0
M  V30 3959 H 387.677 -3.65637 -6.61699 0
M  V30 3960 H 388.945 -2.6935 -7.31485 0
M  V30 3961 N 393.175 1.03435 -1.18907 0
M  V30 3962 C 394.421 1.77005 -0.989798 0
M  V30 3963 C 394.754 1.88205 0.478816 0
M  V30 3964 O 394.029 1.39481 1.35556 0
M  V30 3965 C 394.312 3.19925 -1.65287 0
M  V30 3966 C 394.165 3.1663 -3.19477 0
M  V30 3967 C 395.484 4.18189 -1.37134 0
M  V30 3968 H 392.603 0.642538 -0.360991 0
M  V30 3969 H 395.245 1.20784 -1.46667 0
M  V30 3970 H 393.395 3.67929 -1.24741 0
M  V30 3971 H 395.067 2.76567 -3.692 0
M  V30 3972 H 393.31 2.54491 -3.51307 0
M  V30 3973 H 393.981 4.1758 -3.61013 0
M  V30 3974 H 396.457 3.78761 -1.72276 0
M  V30 3975 H 395.333 5.16394 -1.86087 0
M  V30 3976 H 395.594 4.41112 -0.295424 0
M  V30 3977 N 394.653 0.992116 1.22453 0
M  V30 3978 C 395.93 0.583508 1.86694 0
M  V30 3979 C 396.31 -0.9392 1.89056 0
M  V30 3980 O 395.658 -1.82081 1.38053 0
M  V30 3981 C 395.868 1.20304 3.2761 0
M  V30 3982 C 397.216 1.30308 4.0411 0
M  V30 3983 O 398.24 1.15737 3.36873 0
M  V30 3984 O 397.099 1.53615 5.24466 0
M  V30 3985 H 394.193 0.198129 0.802916 0
M  V30 3986 H 396.739 1.08794 1.30238 0
M  V30 3987 H 395.511 2.24461 3.2052 0
M  V30 3988 H 395.134 0.684144 3.9167 0
M  V30 3989 N 396.131 -1.37776 0.765217 0
M  V30 3990 C 397.379 -1.99454 0.325943 0
M  V30 3991 C 397.7 -1.61049 -1.09947 0
M  V30 3992 O 396.97 -0.872821 -1.75381 0
M  V30 3993 H 395.55 -0.737697 0.117525 0
M  V30 3994 H 398.212 -1.68359 0.981895 0
M  V30 3995 H 397.308 -3.09547 0.398353 0
M  V30 3996 N 397.609 -0.515225 -1.4894 0
M  V30 3997 C 398.857 0.0241671 -2.02086 0
M  V30 3998 C 399.178 1.3616 -1.3959 0
M  V30 3999 O 398.448 1.87841 -0.556121 0
M  V30 4000 H 397.028 0.0119203 -0.746905 0
M  V30 4001 H 399.69 -0.675702 -1.82812 0
M  V30 4002 H 398.786 0.143385 -3.1177 0
M  V30 4003 N 399.087 1.5561 -0.249682 0
M  V30 4004 C 400.017 2.24477 0.642826 0
M  V30 4005 C 400.998 1.22601 1.17911 0
M  V30 4006 O 402.183 1.5126 1.21795 0
M  V30 4007 C 399.313 2.94638 1.83863 0
M  V30 4008 C 398.267 4.03227 1.435 0
M  V30 4009 C 397.593 4.60828 2.71186 0
M  V30 4010 C 398.893 5.18796 0.604002 0
M  V30 4011 H 400.587 2.99321 0.0685625 0
M  V30 4012 H 398.133 1.43965 0.0315363 0
M  V30 4013 H 400.086 3.41517 2.46868 0
M  V30 4014 H 398.81 2.17287 2.43832 0
M  V30 4015 H 397.469 3.57121 0.828275 0
M  V30 4016 H 397.117 3.80174 3.29358 0
M  V30 4017 H 396.817 5.34132 2.44901 0
M  V30 4018 H 398.341 5.10442 3.35084 0
M  V30 4019 H 399.755 5.61883 1.13842 0
M  V30 4020 H 398.152 5.98506 0.437097 0
M  V30 4021 H 399.222 4.83384 -0.383147 0
M  V30 4022 N 400.565 -0.0233959 1.57583 0
M  V30 4023 C 401.814 -0.712133 1.8871 0
M  V30 4024 C 402.127 -1.76217 0.848944 0
M  V30 4025 O 403.333 -2.50389 1.04964 0
M  V30 4026 C 401.789 -1.3177 3.3491 0
M  V30 4027 C 401.397 -0.303715 4.46969 0
M  V30 4028 C 403.141 -1.98598 3.75179 0
M  V30 4029 C 401.048 -0.917945 5.84233 0
M  V30 4030 H 399.978 -0.269735 0.704101 0
M  V30 4031 H 402.629 0.0333114 1.8347 0
M  V30 4032 H 401.011 -2.11304 3.34913 0
M  V30 4033 H 402.185 0.465325 4.58445 0
M  V30 4034 H 400.5 0.2628 4.1557 0
M  V30 4035 H 403.097 -2.45416 4.75053 0
M  V30 4036 H 403.44 -2.80659 3.07468 0
M  V30 4037 H 403.973 -1.25831 3.77374 0
M  V30 4038 H 400.712 -0.136633 6.55358 0
M  V30 4039 H 400.232 -1.65669 5.76467 0
M  V30 4040 H 401.911 -1.4236 6.31144 0
M  V30 4041 N 402.043 -1.548 -0.295768 0
M  V30 4042 C 402.973 -1.89115 -1.36959 0
M  V30 4043 C 403.954 -0.75059 -1.52644 0
M  V30 4044 O 405.139 -1.00678 -1.66065 0
M  V30 4045 C 402.269 -2.14307 -2.73295 0
M  V30 4046 C 401.223 -3.30151 -2.72368 0
M  V30 4047 C 400.549 -3.40772 -4.12042 0
M  V30 4048 C 401.849 -4.67126 -2.33646 0
M  V30 4049 H 403.543 -2.79053 -1.08488 0
M  V30 4050 H 401.089 -1.34266 -0.520443 0
M  V30 4051 H 403.042 -2.36898 -3.48507 0
M  V30 4052 H 401.766 -1.21145 -3.03301 0
M  V30 4053 H 400.425 -3.0749 -1.99613 0
M  V30 4054 H 400.073 -2.45117 -4.39234 0
M  V30 4055 H 399.773 -4.18645 -4.12322 0
M  V30 4056 H 401.297 -3.6563 -4.89027 0
M  V30 4057 H 402.711 -4.89414 -2.98575 0
M  V30 4058 H 401.108 -5.47751 -2.45129 0
M  V30 4059 H 402.178 -4.67489 -1.28772 0
M  V30 4060 N 403.521 0.559213 -1.47345 0
M  V30 4061 C 404.484 1.64854 -1.59235 0
M  V30 4062 C 405.484 1.53851 -0.467607 0
M  V30 4063 O 406.674 1.58045 -0.732617 0
M  V30 4064 C 403.806 3.04388 -1.53496 0
M  V30 4065 H 404.999 1.55662 -2.56339 0
M  V30 4066 H 402.552 0.778973 -1.35505 0
M  V30 4067 H 403.287 3.19115 -0.577604 0
M  V30 4068 H 403.072 3.13783 -2.35123 0
M  V30 4069 H 404.562 3.83642 -1.6495 0
M  V30 4070 N 404.999 1.35443 0.805782 0
M  V30 4071 C 406.415 1.15499 1.10146 0
M  V30 4072 C 406.615 -0.0319975 2.01475 0
M  V30 4073 O 405.671 -0.70236 2.42535 0
M  V30 4074 C 406.984 2.45833 1.73166 0
M  V30 4075 C 408.532 2.52047 1.85583 0
M  V30 4076 C 409.007 3.82427 2.52019 0
M  V30 4077 N 410.498 3.83682 2.59504 0
M  V30 4078 C 411.233 4.81294 3.11679 0
M  V30 4079 N 410.729 5.89294 3.64287 0
M  V30 4080 N 412.522 4.6873 3.1024 0
M  V30 4081 H 404.673 2.11469 0.198678 0
M  V30 4082 H 406.936 0.93594 0.150731 0
M  V30 4083 H 406.642 3.32874 1.13526 0
M  V30 4084 H 406.516 2.6044 2.72857 0
M  V30 4085 H 408.903 1.65435 2.44367 0
M  V30 4086 H 408.984 2.41354 0.847455 0
M  V30 4087 H 408.628 4.69437 1.93885 0
M  V30 4088 H 408.558 3.90409 3.53395 0
M  V30 4089 H 411.049 3.05648 2.22234 0
M  V30 4090 H 411.362 6.59768 4.02401 0
M  V30 4091 H 409.707 5.92985 3.62483 0
M  V30 4092 H 412.898 3.83496 2.68419 0
M  V30 4093 H 413.071 5.44965 3.50596 0
M  V30 4094 N 406.477 -1.02803 1.19454 0
M  V30 4095 C 407.44 -2.09264 0.934955 0
M  V30 4096 C 408.44 -1.60576 -0.0849015 0
M  V30 4097 O 409.63 -1.73554 0.149933 0
M  V30 4098 C 406.762 -3.38482 0.40531 0
M  V30 4099 H 407.955 -2.33726 1.87916 0
M  V30 4100 H 405.508 -1.19426 1.00832 0
M  V30 4101 H 406.243 -3.19689 -0.544899 0
M  V30 4102 H 406.028 -3.75142 1.14065 0
M  V30 4103 H 407.518 -4.16894 0.242806 0
M  V30 4104 O 407.994 -1.12654 -1.15721 0
M  V30 4105 H 408.685 -0.83899 -1.74587 0
M  V30 END ATOM
M  V30 BEGIN BOND
M  V30 END BOND
M  V30 END CTAB
M  END
$$$$
