drugbank_target|P11229 Muscarinic acetylcholine receptor M1 (DB00185; DB00193; DB00202; DB00209; DB00219; DB00245; DB00246; DB00280; DB00332; DB00334; DB00342; DB00354; DB00363; DB00376; DB00383; DB00387; DB00392; DB00408; DB00411; DB00420; DB00424; DB00434; DB00458; DB00462; DB00477; DB00483; DB00496; DB00505; DB00508; DB00517; DB00543; DB00572; DB00622; DB00670; DB00725; DB00747; DB00767; DB00771; DB00782; DB00804; DB00805; DB00809; DB00810; DB00835; DB00875; DB00907; DB00934; DB00940; DB00942; DB00979; DB00986; DB01019; DB01036; DB01062; DB01069; DB01085; DB01142; DB01148; DB01151; DB01175; DB01224; DB01231; DB01233; DB01238; DB01239; DB01403; DB01409; DB01591; DB01618; DB02010; DB03128; DB04365; DB04843; DB05152; DB05752; DB05766; DB06153; DB06702; DB06787; DB08897; DB09076; DB09089; DB09167; DB09262; DB11156; DB11181; DB11235; DB12278; DB13581; DB14185)
 OpenBabel12092119243D

  0  0  0     0  0            999 V3000
M  V30 BEGIN CTAB
M  V30 COUNTS 7291 7381 0 0 0
M  V30 BEGIN ATOM
M  V30 1 H -0.908 1.98254 -0.117106 0
M  V30 2 N 0 1.576 0 0
M  V30 3 C 0.933 2.03868 1.02534 0
M  V30 4 C 1.911 0.928543 1.3348 0
M  V30 5 O 3.095 1.19667 1.45644 0
M  V30 6 C 0.222 2.43627 2.35294 0
M  V30 7 C -0.732 3.65373 2.2001 0
M  V30 8 S 0.101 5.13292 1.52614 0
M  V30 9 C 1.257 5.56322 2.86805 0
M  V30 10 H 1.49 2.90518 0.631377 0
M  V30 11 H -0.977 1.52953 0.210867 0
M  V30 12 H 0.981 2.67203 3.11629 0
M  V30 13 H -0.358 1.57376 2.7183 0
M  V30 14 H -1.165 3.90944 3.18086 0
M  V30 15 H -1.563 3.418 1.51819 0
M  V30 16 H 0.729 5.58782 3.83104 0
M  V30 17 H 1.672 6.56266 2.65933 0
M  V30 18 H 2.08 4.83886 2.90714 0
M  V30 19 N 1.4781 -0.272755 1.55222 0
M  V30 20 C 2.4261 -1.35705 1.88909 0
M  V30 21 C 3.4201 -1.5112 0.765456 0
M  V30 22 O 4.6261 -1.52901 0.949802 0
M  V30 23 H 1.0011 -0.453868 0.59959 0
M  V30 24 H 2.9721 -1.04544 2.79487 0
M  V30 25 C 1.7211 -2.71049 2.17779 0
M  V30 26 H 1.0441 -2.59979 3.03728 0
M  V30 27 H 2.4841 -3.45858 2.45272 0
M  V30 28 C 0.9431 -3.22165 0.985473 0
M  V30 29 O 1.4731 -4.01096 0.220233 0
M  V30 30 N -0.3209 -2.7985 0.783108 0
M  V30 31 H -0.7739 -2.15775 1.40708 0
M  V30 32 H -0.8159 -3.14397 -0.0130392 0
M  V30 33 N 2.9562 -1.48159 -0.537278 0
M  V30 34 C 4.1842 -1.59454 -1.31841 0
M  V30 35 C 4.5992 -0.252065 -1.8711 0
M  V30 36 O 3.9562 0.757621 -1.66031 0
M  V30 37 C 4.0072 -2.63546 -2.47439 0
M  V30 38 O 3.7282 -3.92583 -1.94449 0
M  V30 39 C 5.2292 -2.85212 -3.39366 0
M  V30 40 H 2.4492 -0.53785 -0.401196 0
M  V30 41 H 4.9932 -1.93932 -0.648891 0
M  V30 42 H 3.1482 -2.31946 -3.1029 0
M  V30 43 H 3.5622 -4.49629 -2.70063 0
M  V30 44 H 5.0362 -3.61863 -4.16844 0
M  V30 45 H 5.5132 -1.93765 -3.94147 0
M  V30 46 H 6.1192 -3.18086 -2.82314 0
M  V30 47 N 4.4343 0.785586 -1.36625 0
M  V30 48 C 5.6593 1.57963 -1.34397 0
M  V30 49 C 6.0843 1.87964 0.071526 0
M  V30 50 O 5.4423 1.48182 1.0446 0
M  V30 51 C 5.4903 2.87511 -2.17646 0
M  V30 52 O 4.5943 3.81281 -1.57158 0
M  V30 53 H 3.9353 0.479014 -0.459828 0
M  V30 54 H 6.4653 0.973411 -1.79961 0
M  V30 55 H 6.4753 3.36745 -2.30362 0
M  V30 56 H 5.1503 2.65002 -3.20541 0
M  V30 57 H 3.7273 3.39885 -1.53403 0
M  V30 58 N 5.9124 1.20967 1.01018 0
M  V30 59 C 6.8754 0.965918 2.07853 0
M  V30 60 C 7.8754 -0.0610545 1.60684 0
M  V30 61 O 9.0654 0.175681 1.73312 0
M  V30 62 C 6.1974 0.455513 3.37843 0
M  V30 63 H 7.3904 1.91365 2.3091 0
M  V30 64 H 4.9434 1.02594 1.17916 0
M  V30 65 H 5.6784 -0.497381 3.20463 0
M  V30 66 H 5.4634 1.19622 3.73407 0
M  V30 67 H 6.9534 0.304667 4.16487 0
M  V30 68 N 7.3905 -1.2043 1.01659 0
M  V30 69 C 8.8015 -1.71517 0.737482 0
M  V30 70 C 9.1525 -1.81547 -0.743973 0
M  V30 71 O 8.2775 -1.47803 -1.58061 0
M  V30 72 C 8.8725 -3.11515 1.33206 0
M  V30 73 C 7.4315 -3.59912 1.10183 0
M  V30 74 C 6.5785 -2.37116 1.43776 0
M  V30 75 H 9.5295 -1.05444 1.18606 0
M  V30 76 H 9.5505 -3.73575 0.722636 0
M  V30 77 H 9.0625 -3.04182 2.41028 0
M  V30 78 H 7.1635 -3.72577 0.0412756 0
M  V30 79 H 7.2765 -4.44731 1.78188 0
M  V30 80 H 5.6405 -2.39857 0.856778 0
M  V30 81 H 6.4235 -2.32424 2.52654 0
M  V30 82 N 8.8686 -0.792821 -1.36206 0
M  V30 83 C 10.2796 -0.429513 -1.81692 0
M  V30 84 C 10.6306 1.04695 -1.65932 0
M  V30 85 O 9.7556 1.81256 -1.18218 0
M  V30 86 C 10.3506 -0.772831 -3.29868 0
M  V30 87 C 8.9096 -0.462307 -3.7355 0
M  V30 88 C 8.0566 -1.00569 -2.5842 0
M  V30 89 H 11.0076 -0.985672 -1.24379 0
M  V30 90 H 11.0286 -0.0651928 -3.80444 0
M  V30 91 H 10.5406 -1.84747 -3.41307 0
M  V30 92 H 8.6416 0.604158 -3.67669 0
M  V30 93 H 8.7546 -0.985299 -4.68859 0
M  V30 94 H 7.1186 -0.428734 -2.51066 0
M  V30 95 H 7.9016 -2.08616 -2.72643 0
M  V30 96 N 10.3467 1.47872 -0.545128 0
M  V30 97 C 11.3097 2.28337 0.198717 0
M  V30 98 C 12.3097 1.36255 0.853888 0
M  V30 99 O 13.4997 1.59003 0.711606 0
M  V30 100 C 10.6317 3.15585 1.28915 0
M  V30 101 H 11.8247 2.95567 -0.507941 0
M  V30 102 H 9.3777 1.53362 -0.301616 0
M  V30 103 H 10.1127 2.53019 2.02859 0
M  V30 104 H 9.8977 3.83337 0.824309 0
M  V30 105 H 11.3877 3.76243 1.81194 0
M  V30 106 N 11.8248 0.280983 1.55075 0
M  V30 107 C 13.0708 -0.33461 2.00021 0
M  V30 108 C 13.4038 -1.55063 1.16915 0
M  V30 109 O 12.6788 -1.93006 0.240646 0
M  V30 110 C 12.9618 -0.711007 3.53011 0
M  V30 111 C 12.8148 0.512766 4.46868 0
M  V30 112 C 14.1338 -1.54522 4.12081 0
M  V30 113 H 11.2528 -0.120147 0.727141 0
M  V30 114 H 13.8948 0.389097 1.85973 0
M  V30 115 H 12.0448 -1.32761 3.65112 0
M  V30 116 H 13.7168 1.15131 4.46702 0
M  V30 117 H 11.9598 1.14975 4.18286 0
M  V30 118 H 12.6308 0.205556 5.51617 0
M  V30 119 H 15.1068 -1.02442 4.03293 0
M  V30 120 H 13.9828 -1.77739 5.19327 0
M  V30 121 H 14.2438 -2.52813 3.62682 0
M  V30 122 N 13.3029 -1.57598 0.00835791 0
M  V30 123 C 14.5279 -1.95617 -0.689103 0
M  V30 124 C 14.9529 -0.883753 -1.66046 0
M  V30 125 O 14.3109 0.157352 -1.80616 0
M  V30 126 C 14.3589 -3.32736 -1.38994 0
M  V30 127 O 13.4629 -3.27631 -2.50463 0
M  V30 128 H 12.8039 -0.638379 -0.182668 0
M  V30 129 H 15.3339 -2.045 0.064036 0
M  V30 130 H 15.3439 -3.68494 -1.75147 0
M  V30 131 H 14.0189 -4.1034 -0.677778 0
M  V30 132 H 12.5959 -3.03561 -2.16576 0
M  V30 133 N 14.781 0.264519 -1.55364 0
M  V30 134 C 16.192 0.834936 -1.6699 0
M  V30 135 C 16.543 1.86718 -0.602552 0
M  V30 136 O 15.668 2.14899 0.254425 0
M  V30 137 C 16.263 1.5212 -3.02729 0
M  V30 138 C 14.822 2.03954 -3.16354 0
M  V30 139 C 13.969 0.884498 -2.62815 0
M  V30 140 H 16.92 0.0406869 -1.58648 0
M  V30 141 H 16.941 2.38853 -2.96191 0
M  V30 142 H 16.453 0.769668 -3.80392 0
M  V30 143 H 14.554 2.82041 -2.43482 0
M  V30 144 H 14.667 2.24902 -4.23032 0
M  V30 145 H 13.031 1.2802 -2.20188 0
M  V30 146 H 13.814 0.14634 -3.42988 0
M  V30 147 N 16.2591 1.48442 0.529413 0
M  V30 148 C 17.2071 1.63452 1.65487 0
M  V30 149 C 18.2011 0.500955 1.61823 0
M  V30 150 O 19.4071 0.679695 1.66674 0
M  V30 151 H 15.7821 0.514905 0.548066 0
M  V30 152 H 17.7531 2.57975 1.49971 0
M  V30 153 C 16.5021 1.69196 3.03756 0
M  V30 154 H 15.8251 2.55784 3.07269 0
M  V30 155 H 17.2651 1.83743 3.82119 0
M  V30 156 C 15.7241 0.430765 3.34135 0
M  V30 157 O 16.2541 -0.4561 3.99102 0
M  V30 158 N 14.4601 0.302293 2.89023 0
M  V30 159 H 14.0071 1.02496 2.36331 0
M  V30 160 H 13.9651 -0.540546 3.09718 0
M  V30 161 N 17.7372 -0.778329 1.37039 0
M  V30 162 C 18.9862 -1.53189 1.3121 0
M  V30 163 C 19.2992 -1.95328 -0.103095 0
M  V30 164 O 20.5052 -2.70012 -0.283826 0
M  V30 165 C 18.9612 -2.76591 2.30272 0
M  V30 166 C 18.5692 -2.41577 3.77286 0
M  V30 167 C 20.3132 -3.5455 2.33441 0
M  V30 168 C 18.2202 -3.61441 4.68096 0
M  V30 169 H 17.1502 -0.5751 0.487622 0
M  V30 170 H 19.8012 -0.853101 1.62464 0
M  V30 171 H 18.1832 -3.46326 1.92027 0
M  V30 172 H 19.3572 -1.79668 4.2433 0
M  V30 173 H 17.6722 -1.76806 3.76999 0
M  V30 174 H 20.2692 -4.43628 2.98493 0
M  V30 175 H 20.6122 -3.93936 1.34611 0
M  V30 176 H 21.1452 -2.91805 2.7036 0
M  V30 177 H 17.8842 -3.27142 5.6803 0
M  V30 178 H 17.4042 -4.22478 4.25761 0
M  V30 179 H 19.0832 -4.28335 4.8491 0
M  V30 180 N 19.2153 -1.21501 -1.00376 0
M  V30 181 C 20.4433 -1.059 -1.77744 0
M  V30 182 C 20.8583 0.391125 -1.84704 0
M  V30 183 O 20.2153 1.27133 -1.30933 0
M  V30 184 C 20.2663 -1.65111 -3.21591 0
M  V30 185 O 19.9873 -3.0445 -3.15027 0
M  V30 186 C 21.4883 -1.54637 -4.15454 0
M  V30 187 H 18.7083 -0.371825 -0.558558 0
M  V30 188 H 21.2523 -1.60865 -1.26264 0
M  V30 189 H 19.4073 -1.14235 -3.70175 0
M  V30 190 H 19.8213 -3.3278 -4.0541 0
M  V30 191 H 21.2953 -2.00808 -5.14179 0
M  V30 192 H 21.7723 -0.501022 -4.36333 0
M  V30 193 H 22.3783 -2.04767 -3.72761 0
M  V30 194 N 20.6934 1.19889 -1.02296 0
M  V30 195 C 21.9394 1.89701 -0.717033 0
M  V30 196 C 22.2724 1.7905 0.751989 0
M  V30 197 O 21.5474 1.17891 1.547 0
M  V30 198 C 21.8304 3.40858 -1.16136 0
M  V30 199 C 21.6834 3.60411 -2.69117 0
M  V30 200 C 23.0024 4.33876 -0.737549 0
M  V30 201 H 20.1214 0.688874 -0.261957 0
M  V30 202 H 22.7634 1.41154 -1.27183 0
M  V30 203 H 20.9134 3.82335 -0.689342 0
M  V30 204 H 22.5854 3.28145 -3.2422 0
M  V30 205 H 20.8284 3.03665 -3.0979 0
M  V30 206 H 21.4994 4.66396 -2.95261 0
M  V30 207 H 23.9754 4.00081 -1.14344 0
M  V30 208 H 22.8514 5.38242 -1.0764 0
M  V30 209 H 23.1124 4.40628 0.360436 0
M  V30 210 N 22.1715 0.800033 1.35784 0
M  V30 211 C 23.1015 0.220184 2.3246 0
M  V30 212 C 24.0825 -0.65073 1.57161 0
M  V30 213 O 25.2675 -0.582359 1.85263 0
M  V30 214 C 22.3975 -0.637353 3.41402 0
M  V30 215 C 21.3515 0.134531 4.27789 0
M  V30 216 C 20.6775 -0.844285 5.27992 0
M  V30 217 C 21.9775 1.32979 5.05088 0
M  V30 218 H 23.6715 1.02787 2.81203 0
M  V30 219 H 21.2175 0.495717 1.35199 0
M  V30 220 H 23.1705 -1.05302 4.08031 0
M  V30 221 H 21.8945 -1.47785 2.91251 0
M  V30 222 H 20.5535 0.531296 3.6273 0
M  V30 223 H 20.2015 -1.68011 4.74111 0
M  V30 224 H 19.9015 -0.332184 5.8666 0
M  V30 225 H 21.4255 -1.2583 5.97494 0
M  V30 226 H 22.8395 0.98934 5.64699 0
M  V30 227 H 21.2365 1.77593 5.7322 0
M  V30 228 H 22.3065 2.11978 4.36111 0
M  V30 229 N 23.6496 -1.47581 0.552962 0
M  V30 230 C 24.6126 -2.28439 -0.186605 0
M  V30 231 C 25.6126 -1.36706 -0.84665 0
M  V30 232 O 26.8026 -1.59378 -0.703164 0
M  V30 233 C 23.9346 -3.16264 -1.2724 0
M  V30 234 H 25.1276 -2.95294 0.523609 0
M  V30 235 H 22.6806 -1.532 0.309745 0
M  V30 236 H 23.4156 -2.54091 -2.01514 0
M  V30 237 H 23.2006 -3.83769 -0.803968 0
M  V30 238 H 24.6906 -3.77198 -1.79196 0
M  V30 239 N 25.1277 -0.289203 -1.54924 0
M  V30 240 C 26.5387 0.205791 -1.85562 0
M  V30 241 C 26.8897 1.54351 -1.2112 0
M  V30 242 O 26.0147 2.10435 -0.504601 0
M  V30 243 C 26.6097 0.380177 -3.3666 0
M  V30 244 C 25.1687 0.819395 -3.67373 0
M  V30 245 C 24.3157 -0.079159 -2.77187 0
M  V30 246 H 27.2667 -0.510577 -1.50262 0
M  V30 247 H 27.2877 1.21659 -3.60526 0
M  V30 248 H 26.7997 -0.593589 -3.83534 0
M  V30 249 H 24.9007 1.80413 -3.26009 0
M  V30 250 H 25.0137 0.646957 -4.74712 0
M  V30 251 H 23.3777 0.439565 -2.50878 0
M  V30 252 H 24.1607 -1.04906 -3.26878 0
M  V30 253 N 26.6058 1.57591 -0.0167156 0
M  V30 254 C 27.8538 1.90906 0.663285 0
M  V30 255 C 28.1748 0.892509 1.73376 0
M  V30 256 O 27.4448 -0.0677623 1.95783 0
M  V30 257 H 26.0248 0.704637 0.247983 0
M  V30 258 H 28.6868 1.94803 -0.0615909 0
M  V30 259 H 27.7828 2.9116 1.12393 0
M  V30 260 N 28.0839 -0.256276 1.55502 0
M  V30 261 C 29.0309 -1.31714 1.89526 0
M  V30 262 C 30.0009 -1.4828 0.748479 0
M  V30 263 O 31.1859 -1.62416 1.00128 0
M  V30 264 C 28.3259 -2.66933 2.18725 0
M  V30 265 C 27.4389 -2.58452 3.4616 0
M  V30 266 C 26.5739 -3.85961 3.64976 0
M  V30 267 C 25.6129 -3.72059 4.86044 0
M  V30 268 N 24.7499 -4.9144 5.01429 0
M  V30 269 H 29.5899 -1.01998 2.80001 0
M  V30 270 H 27.1269 -0.492413 1.38613 0
M  V30 271 H 29.0849 -3.4563 2.33657 0
M  V30 272 H 27.7149 -2.94816 1.31466 0
M  V30 273 H 26.7669 -1.71374 3.3961 0
M  V30 274 H 28.0789 -2.44085 4.34999 0
M  V30 275 H 27.2329 -4.73101 3.79816 0
M  V30 276 H 25.9719 -4.03215 2.74353 0
M  V30 277 H 24.9769 -2.83302 4.7119 0
M  V30 278 H 26.2019 -3.56309 5.78118 0
M  V30 279 H 24.1479 -5.09072 4.13741 0
M  V30 280 H 24.0649 -4.79668 5.84341 0
M  V30 281 H 25.3329 -5.80104 5.20672 0
M  V30 282 N 29.562 -1.4872 -0.521534 0
M  V30 283 C 30.81 -1.56857 -1.27437 0
M  V30 284 C 31.131 -0.247982 -1.93417 0
M  V30 285 O 30.401 0.731151 -1.81744 0
M  V30 286 H 28.981 -0.577885 -0.473347 0
M  V30 287 H 31.643 -1.85233 -0.606205 0
M  V30 288 H 30.739 -2.35402 -2.0492 0
M  V30 289 N 31.0401 0.771051 -1.3745 0
M  V30 290 C 32.4511 1.34737 -1.29239 0
M  V30 291 C 32.8021 1.96109 0.0596908 0
M  V30 292 O 31.9271 1.93865 0.961534 0
M  V30 293 C 32.5221 2.44973 -2.34037 0
M  V30 294 C 31.0811 2.98372 -2.29458 0
M  V30 295 C 30.2281 1.71595 -2.17831 0
M  V30 296 H 33.1791 0.571256 -1.48062 0
M  V30 297 H 33.2001 3.24471 -1.98744 0
M  V30 298 H 32.7121 2.00276 -3.32432 0
M  V30 299 H 30.8131 3.47443 -1.34589 0
M  V30 300 H 30.9261 3.53939 -3.229 0
M  V30 301 H 29.2901 1.94547 -1.64388 0
M  V30 302 H 30.0731 1.29001 -3.18141 0
M  V30 303 N 32.5182 1.22032 0.997298 0
M  V30 304 C 33.7642 1.05382 1.73972 0
M  V30 305 C 34.1192 -0.407419 1.88037 0
M  V30 306 O 33.4122 -1.29811 1.40924 0
M  V30 307 C 33.6062 1.69345 3.14733 0
M  V30 308 C 33.4352 3.21537 3.14395 0
M  V30 309 C 32.2052 3.9062 3.20537 0
M  V30 310 C 34.4032 4.18527 2.98897 0
M  V30 311 N 32.3852 5.29935 3.09906 0
M  V30 312 C 33.7562 5.44645 2.96247 0
M  V30 313 C 35.8112 4.09476 2.83255 0
M  V30 314 C 34.5142 6.62752 2.79557 0
M  V30 315 C 36.5402 5.27228 2.67926 0
M  V30 316 C 35.9022 6.52262 2.65959 0
M  V30 317 H 32.0012 0.440018 0.646458 0
M  V30 318 H 34.5852 1.54505 1.18475 0
M  V30 319 H 32.7562 1.22778 3.68484 0
M  V30 320 H 34.4882 1.45828 3.77513 0
M  V30 321 H 31.2432 3.41592 3.28043 0
M  V30 322 H 31.6672 6.02926 3.07912 0
M  V30 323 H 36.3092 3.13598 2.83577 0
M  V30 324 H 34.0272 7.58783 2.77982 0
M  V30 325 H 37.6132 5.22053 2.56812 0
M  V30 326 H 36.4932 7.41844 2.54239 0
M  V30 327 N 33.9963 -1.19345 1.0293 0
M  V30 328 C 34.9283 -2.22036 0.56857 0
M  V30 329 C 35.9413 -1.58865 -0.355779 0
M  V30 330 O 37.1303 -1.77851 -0.152103 0
M  V30 331 C 34.2303 -3.38363 -0.190752 0
M  V30 332 C 33.4033 -4.31118 0.738643 0
M  V30 333 C 32.4623 -5.26194 0.0246497 0
M  V30 334 O 31.4883 -5.65461 0.651354 0
M  V30 335 N 32.6903 -5.66971 -1.24594 0
M  V30 336 H 35.4553 -2.6219 1.45177 0
M  V30 337 H 33.0163 -1.34015 0.908381 0
M  V30 338 H 35.0083 -3.98981 -0.677961 0
M  V30 339 H 33.5783 -2.96994 -0.975366 0
M  V30 340 H 32.7983 -3.68276 1.40593 0
M  V30 341 H 34.0863 -4.90001 1.37029 0
M  V30 342 H 33.4843 -5.37104 -1.77583 0
M  V30 343 H 32.0413 -6.2984 -1.67764 0
M  V30 344 N 35.4744 -0.807222 -1.35358 0
M  V30 345 C 36.7204 -0.388463 -1.99045 0
M  V30 346 C 37.0534 1.04184 -1.63888 0
M  V30 347 O 36.3284 1.72292 -0.902535 0
M  V30 348 C 36.6114 -0.572783 -3.55515 0
M  V30 349 C 36.4644 -2.04807 -4.00468 0
M  V30 350 C 37.7834 0.00114064 -4.401 0
M  V30 351 H 34.9024 -0.142619 -0.723069 0
M  V30 352 H 37.5444 -1.01687 -1.60498 0
M  V30 353 H 35.6944 -0.0378425 -3.88482 0
M  V30 354 H 37.3664 -2.64544 -3.77908 0
M  V30 355 H 35.6094 -2.54427 -3.51353 0
M  V30 356 H 36.2804 -2.12792 -5.09337 0
M  V30 357 H 38.7564 -0.455716 -4.13597 0
M  V30 358 H 37.6324 -0.157737 -5.48673 0
M  V30 359 H 37.8934 1.09488 -4.28328 0
M  V30 360 N 36.9525 1.47285 -0.560781 0
M  V30 361 C 37.9155 2.28535 0.174488 0
M  V30 362 C 38.9155 1.37153 0.839388 0
M  V30 363 O 40.1055 1.59748 0.694702 0
M  V30 364 C 37.2375 3.16934 1.25561 0
M  V30 365 H 38.4305 2.95012 -0.539262 0
M  V30 366 H 35.9835 1.53034 -0.317865 0
M  V30 367 H 36.7185 2.55157 2.00164 0
M  V30 368 H 36.5035 3.8419 0.783604 0
M  V30 369 H 37.9935 3.78143 1.77193 0
M  V30 370 N 38.4306 0.297415 1.54768 0
M  V30 371 C 39.6776 -0.312913 2.00068 0
M  V30 372 C 40.0056 -1.54171 1.18582 0
M  V30 373 O 39.2606 -1.94108 0.249133 0
M  V30 374 C 39.5596 -0.717561 3.50123 0
M  V30 375 C 39.2256 0.409095 4.4904 0
M  V30 376 C 37.8876 0.718399 4.75807 0
M  V30 377 C 40.2396 1.16717 5.07963 0
M  V30 378 C 37.5676 1.78896 5.5876 0
M  V30 379 C 39.9196 2.22762 5.92081 0
M  V30 380 C 38.5836 2.54303 6.1716 0
M  V30 381 H 37.8536 -0.114503 0.7321 0
M  V30 382 H 40.5006 0.415767 1.86932 0
M  V30 383 H 38.8056 -1.52627 3.60849 0
M  V30 384 H 40.5026 -1.20091 3.82595 0
M  V30 385 H 37.0926 0.157918 4.28309 0
M  V30 386 H 41.2766 0.941466 4.87289 0
M  V30 387 H 36.5326 2.0381 5.7643 0
M  V30 388 H 40.7066 2.81962 6.36765 0
M  V30 389 H 38.3336 3.3739 6.81229 0
M  V30 390 N 39.9087 -1.5758 0.0250728 0
M  V30 391 C 41.1577 -1.90811 -0.653767 0
M  V30 392 C 41.4707 -0.90273 -1.73523 0
M  V30 393 O 42.6767 -1.12614 -2.47043 0
M  V30 394 C 41.1327 -3.38804 -1.21409 0
M  V30 395 C 40.7407 -4.47692 -0.166126 0
M  V30 396 C 42.4847 -3.81108 -1.86967 0
M  V30 397 C 40.3917 -5.86779 -0.737856 0
M  V30 398 H 39.3217 -0.712063 -0.247956 0
M  V30 399 H 41.9727 -1.83281 0.0897137 0
M  V30 400 H 40.3547 -3.41252 -2.00905 0
M  V30 401 H 41.5287 -4.56797 0.606079 0
M  V30 402 H 39.8437 -4.14565 0.390466 0
M  V30 403 H 42.4407 -4.82375 -2.30692 0
M  V30 404 H 42.7837 -3.15953 -2.71071 0
M  V30 405 H 43.3167 -3.81065 -1.14167 0
M  V30 406 H 40.0557 -6.55468 0.0649577 0
M  V30 407 H 39.5757 -5.81288 -1.47864 0
M  V30 408 H 41.2547 -6.35223 -1.22884 0
M  V30 409 N 41.3868 0.248026 -1.55636 0
M  V30 410 C 42.6348 0.974295 -1.77065 0
M  V30 411 C 42.9558 1.85897 -0.588849 0
M  V30 412 O 42.2258 1.91868 0.395407 0
M  V30 413 H 40.8058 0.362733 -0.653019 0
M  V30 414 H 43.4678 0.266244 -1.93073 0
M  V30 415 H 42.5638 1.59667 -2.68166 0
M  V30 416 N 42.8649 1.48995 0.513639 0
M  V30 417 C 44.1139 1.57093 1.2651 0
M  V30 418 C 44.4269 0.257091 1.93903 0
M  V30 419 O 45.6329 0.216478 2.70636 0
M  V30 420 C 44.0889 2.77118 2.29638 0
M  V30 421 C 43.6969 4.15209 1.68241 0
M  V30 422 C 45.4409 2.94538 3.05692 0
M  V30 423 C 43.3479 5.26474 2.69406 0
M  V30 424 H 42.2779 0.584876 0.475854 0
M  V30 425 H 44.9289 1.7536 0.540487 0
M  V30 426 H 43.3109 2.52319 3.05207 0
M  V30 427 H 44.4849 4.50094 0.987505 0
M  V30 428 H 42.7999 4.03042 1.04623 0
M  V30 429 H 45.3969 3.74832 3.8132 0
M  V30 430 H 45.7399 2.04614 3.62545 0
M  V30 431 H 46.2729 3.19316 2.37238 0
M  V30 432 H 43.0119 6.18417 2.17351 0
M  V30 433 H 42.5319 4.96058 3.37175 0
M  V30 434 H 44.2109 5.55277 3.32078 0
M  V30 435 N 44.343 -0.763751 1.37857 0
M  V30 436 C 45.571 -1.55293 1.36718 0
M  V30 437 C 45.986 -1.88745 -0.0455434 0
M  V30 438 O 45.343 -1.52039 -1.00947 0
M  V30 439 C 45.394 -2.85831 2.2132 0
M  V30 440 O 45.115 -2.5381 3.57089 0
M  V30 441 C 46.616 -3.80023 2.28249 0
M  V30 442 H 43.836 -0.480841 0.468009 0
M  V30 443 H 46.38 -0.946009 1.81303 0
M  V30 444 H 44.535 -3.42926 1.80223 0
M  V30 445 H 44.949 -3.37459 4.01524 0
M  V30 446 H 46.423 -4.68599 2.91752 0
M  V30 447 H 46.9 -4.1973 1.2932 0
M  V30 448 H 47.506 -3.28855 2.69693 0
M  V30 449 N 45.8211 -1.22559 -0.990812 0
M  V30 450 C 47.0491 -1.07779 -1.76611 0
M  V30 451 C 47.4641 0.371513 -1.85109 0
M  V30 452 O 46.8211 1.25737 -1.32274 0
M  V30 453 C 46.8721 -1.68512 -3.19822 0
M  V30 454 O 46.5931 -3.07774 -3.1178 0
M  V30 455 C 48.0941 -1.59035 -4.13791 0
M  V30 456 H 45.3141 -0.377729 -0.554583 0
M  V30 457 H 47.8581 -1.62195 -1.24551 0
M  V30 458 H 46.0131 -1.18154 -3.68942 0
M  V30 459 H 46.4271 -3.37062 -4.01858 0
M  V30 460 H 47.9011 -2.0625 -5.1202 0
M  V30 461 H 48.3781 -0.547273 -4.35777 0
M  V30 462 H 48.9841 -2.08709 -3.70568 0
M  V30 463 N 47.2992 1.18797 -1.03562 0
M  V30 464 C 48.5472 1.88278 -0.734569 0
M  V30 465 C 48.8682 1.8043 0.739586 0
M  V30 466 O 48.1382 1.21925 1.53333 0
M  V30 467 H 46.7182 0.696991 -0.268725 0
M  V30 468 H 49.3802 1.44192 -1.31129 0
M  V30 469 H 48.4762 2.94443 -1.03489 0
M  V30 470 N 48.7773 0.814389 1.34928 0
M  V30 471 C 49.7073 0.244827 2.32213 0
M  V30 472 C 50.6883 -0.634024 1.57842 0
M  V30 473 O 51.8733 -0.562676 1.8587 0
M  V30 474 C 49.0033 -0.601106 3.42058 0
M  V30 475 C 47.9573 0.179896 4.27622 0
M  V30 476 C 47.2833 -0.788237 5.28858 0
M  V30 477 C 48.5833 1.38329 5.03649 0
M  V30 478 H 50.2773 1.05763 2.80097 0
M  V30 479 H 47.8233 0.510029 1.34665 0
M  V30 480 H 49.7763 -1.00968 4.09125 0
M  V30 481 H 48.5003 -1.44688 2.92802 0
M  V30 482 H 47.1593 0.569739 3.62146 0
M  V30 483 H 46.8073 -1.62973 4.75866 0
M  V30 484 H 46.5073 -0.269942 5.8698 0
M  V30 485 H 48.0313 -1.19485 5.98795 0
M  V30 486 H 49.4453 1.04918 5.63618 0
M  V30 487 H 47.8423 1.83662 5.71304 0
M  V30 488 H 48.9123 2.16592 4.33839 0
M  V30 489 N 50.2554 -1.46986 0.568584 0
M  V30 490 C 51.1854 -2.32946 -0.160753 0
M  V30 491 C 52.1664 -1.44487 -0.897631 0
M  V30 492 O 53.3514 -1.73327 -0.875867 0
M  V30 493 C 50.4814 -3.26494 -1.18403 0
M  V30 494 C 49.4354 -4.24282 -0.562895 0
M  V30 495 C 48.7614 -5.07236 -1.69163 0
M  V30 496 C 50.0614 -5.19989 0.490761 0
M  V30 497 H 51.7554 -2.94175 0.556916 0
M  V30 498 H 49.3014 -1.4146 0.26927 0
M  V30 499 H 51.2544 -3.85477 -1.70251 0
M  V30 500 H 49.9784 -2.63343 -1.93179 0
M  V30 501 H 48.6374 -3.66541 -0.0656164 0
M  V30 502 H 48.2854 -4.4048 -2.42871 0
M  V30 503 H 47.9854 -5.7345 -1.28174 0
M  V30 504 H 49.5094 -5.6908 -2.21314 0
M  V30 505 H 50.9234 -5.73271 0.0579047 0
M  V30 506 H 49.3204 -5.94469 0.820165 0
M  V30 507 H 50.3904 -4.64777 1.3824 0
M  V30 508 N 51.7335 -0.305618 -1.54608 0
M  V30 509 C 52.9585 0.307562 -2.05107 0
M  V30 510 C 53.3835 1.46385 -1.18123 0
M  V30 511 O 52.7415 1.8034 -0.186324 0
M  V30 512 C 52.7895 0.73704 -3.52987 0
M  V30 513 O 51.8935 1.84134 -3.6901 0
M  V30 514 H 51.2345 0.0589143 -0.661381 0
M  V30 515 H 53.7645 -0.448807 -1.99617 0
M  V30 516 H 53.7745 1.02459 -3.94925 0
M  V30 517 H 52.4495 -0.108773 -4.15758 0
M  V30 518 H 51.0265 1.55398 -3.38978 0
M  V30 519 N 53.2116 1.57565 -0.0334293 0
M  V30 520 C 54.1416 2.13511 0.945265 0
M  V30 521 C 55.1226 1.05231 1.33643 0
M  V30 522 O 56.3076 1.33084 1.41429 0
M  V30 523 C 53.4376 2.6657 2.22616 0
M  V30 524 C 52.3916 3.79676 1.97561 0
M  V30 525 C 51.7176 4.1918 3.31952 0
M  V30 526 C 53.0176 5.0557 1.31135 0
M  V30 527 H 54.7116 2.95538 0.479325 0
M  V30 528 H 52.2576 1.42166 0.229115 0
M  V30 529 H 54.2106 3.04344 2.91466 0
M  V30 530 H 52.9346 1.8171 2.71384 0
M  V30 531 H 51.5936 3.42347 1.31127 0
M  V30 532 H 51.2416 3.31296 3.78487 0
M  V30 533 H 50.9416 4.95402 3.15992 0
M  V30 534 H 52.4656 4.59541 4.02063 0
M  V30 535 H 53.8796 5.40903 1.89992 0
M  V30 536 H 52.2766 5.86818 1.25559 0
M  V30 537 H 53.3466 4.84062 0.284894 0
M  V30 538 N 54.6897 -0.239769 1.55765 0
M  V30 539 C 55.6527 -1.28038 1.90103 0
M  V30 540 C 56.6527 -1.40723 0.778055 0
M  V30 541 O 57.8427 -1.39301 1.04599 0
M  V30 542 C 54.9747 -2.65702 2.13577 0
M  V30 543 H 56.1677 -0.988048 2.83157 0
M  V30 544 H 53.7207 -0.479382 1.48767 0
M  V30 545 H 54.4557 -3.00063 1.23015 0
M  V30 546 H 54.2407 -2.57875 2.95369 0
M  V30 547 H 55.7307 -3.40828 2.41301 0
M  V30 548 N 56.1678 -1.49265 -0.50573 0
M  V30 549 C 57.3958 -1.62215 -1.28429 0
M  V30 550 C 57.8108 -0.291697 -1.86533 0
M  V30 551 O 57.1678 0.722233 -1.67601 0
M  V30 552 C 57.2188 -2.68735 -2.41793 0
M  V30 553 O 56.9398 -3.96619 -1.86078 0
M  V30 554 C 58.4408 -2.92346 -3.3324 0
M  V30 555 H 55.6608 -0.546239 -0.389697 0
M  V30 556 H 58.2048 -1.95265 -0.607609 0
M  V30 557 H 56.3598 -2.38476 -3.053 0
M  V30 558 H 56.7738 -4.55256 -2.60465 0
M  V30 559 H 58.2478 -3.70623 -4.09075 0
M  V30 560 H 58.7248 -2.02081 -3.89948 0
M  V30 561 H 59.3308 -3.24003 -2.75503 0
M  V30 562 N 57.6459 0.756429 -1.3826 0
M  V30 563 C 58.8919 1.51772 -1.34511 0
M  V30 564 C 59.2249 1.94089 0.0656691 0
M  V30 565 O 58.4999 1.65221 1.02626 0
M  V30 566 C 58.7829 2.77226 -2.29821 0
M  V30 567 C 58.6359 2.41065 -3.79747 0
M  V30 568 C 59.9549 3.79236 -2.23312 0
M  V30 569 H 57.0739 0.550578 -0.489931 0
M  V30 570 H 59.7159 0.866607 -1.69086 0
M  V30 571 H 57.8659 3.32784 -2.00467 0
M  V30 572 H 59.5379 1.91303 -4.19763 0
M  V30 573 H 57.7809 1.7356 -3.97567 0
M  V30 574 H 58.4519 3.3081 -4.41892 0
M  V30 575 H 60.9279 3.3321 -2.49219 0
M  V30 576 H 59.8039 4.64714 -2.92116 0
M  V30 577 H 60.0649 4.24615 -1.23102 0
M  V30 578 N 59.124 1.23083 0.984299 0
M  V30 579 C 60.352 1.08714 1.76037 0
M  V30 580 C 60.767 -0.361691 1.85303 0
M  V30 581 O 60.124 -1.25034 1.32939 0
M  V30 582 C 60.175 1.70206 3.18923 0
M  V30 583 O 59.896 3.09423 3.10144 0
M  V30 584 C 61.397 1.61227 4.12941 0
M  V30 585 H 58.617 0.380664 0.552572 0
M  V30 586 H 61.161 1.62853 1.23689 0
M  V30 587 H 59.316 1.20109 3.6831 0
M  V30 588 H 59.73 3.39188 4.00065 0
M  V30 589 H 61.204 2.08962 5.10919 0
M  V30 590 H 61.681 0.570375 4.35481 0
M  V30 591 H 62.287 2.10671 3.69456 0
M  V30 592 N 60.6021 -1.18246 1.0419 0
M  V30 593 C 61.8501 -1.87886 0.744543 0
M  V30 594 C 62.1711 -1.8082 -0.730006 0
M  V30 595 O 61.4411 -1.22736 -1.52685 0
M  V30 596 H 60.0211 -0.695556 0.272417 0
M  V30 597 H 62.6831 -1.43494 1.31892 0
M  V30 598 H 61.7791 -2.9389 1.05049 0
M  V30 599 N 62.0802 -0.821533 -1.34494 0
M  V30 600 C 63.0282 -0.230702 -2.31453 0
M  V30 601 C 64.0222 0.627793 -1.57338 0
M  V30 602 O 65.2282 0.519288 -1.72347 0
M  V30 603 H 61.6032 -0.0558577 -0.749923 0
M  V30 604 H 63.5742 -1.06332 -2.78812 0
M  V30 605 C 62.3232 0.59391 -3.4259 0
M  V30 606 H 61.6462 -0.0573588 -3.99759 0
M  V30 607 H 63.0862 0.973446 -4.12674 0
M  V30 608 C 61.5452 1.76568 -2.86924 0
M  V30 609 O 62.0752 2.8638 -2.81691 0
M  V30 610 N 60.2812 1.58198 -2.43766 0
M  V30 611 H 59.8282 0.68872 -2.48222 0
M  V30 612 H 59.7862 2.36752 -2.06871 0
M  V30 613 N 63.5583 1.46682 -0.576371 0
M  V30 614 C 64.4883 2.33028 0.148397 0
M  V30 615 C 65.4693 1.44961 0.889956 0
M  V30 616 O 66.6543 1.73789 0.866662 0
M  V30 617 C 63.7843 3.27117 1.1667 0
M  V30 618 C 62.7383 4.24575 0.540386 0
M  V30 619 C 62.0643 5.08126 1.6647 0
M  V30 620 C 63.3643 5.19722 -0.518331 0
M  V30 621 H 65.0583 2.93875 -0.572509 0
M  V30 622 H 62.6043 1.41315 -0.276768 0
M  V30 623 H 64.5573 3.86374 1.68204 0
M  V30 624 H 63.2813 2.64364 1.9178 0
M  V30 625 H 61.9403 3.66571 0.0461769 0
M  V30 626 H 61.5883 4.41762 2.40531 0
M  V30 627 H 61.2883 5.74122 1.25131 0
M  V30 628 H 62.8123 5.70246 2.18293 0
M  V30 629 H 64.2263 5.73232 -0.0883058 0
M  V30 630 H 62.6233 5.94026 -0.851679 0
M  V30 631 H 63.6933 4.64037 -1.40703 0
M  V30 632 N 65.0364 0.313813 1.54444 0
M  V30 633 C 65.9664 -0.549454 2.26943 0
M  V30 634 C 66.9474 -1.12741 1.27372 0
M  V30 635 O 68.1324 -1.15436 1.56167 0
M  V30 636 C 65.2624 -1.71523 3.01989 0
M  V30 637 C 64.2164 -1.26703 4.08816 0
M  V30 638 C 63.5424 -2.51898 4.71647 0
M  V30 639 C 64.8424 -0.388962 5.2085 0
M  V30 640 H 66.5364 0.0552661 2.99349 0
M  V30 641 H 64.0824 0.0280207 1.43973 0
M  V30 642 H 66.0354 -2.32535 3.51433 0
M  V30 643 H 64.7594 -2.34639 2.27183 0
M  V30 644 H 63.4184 -0.679896 3.6024 0
M  V30 645 H 63.0664 -3.13356 3.93468 0
M  V30 646 H 62.7664 -2.22605 5.43802 0
M  V30 647 H 64.2904 -3.1369 5.23861 0
M  V30 648 H 65.7044 -0.905107 5.6611 0
M  V30 649 H 64.1014 -0.18924 5.99802 0
M  V30 650 H 65.1714 0.582699 4.81386 0
M  V30 651 N 66.5145 -1.57545 0.0417849 0
M  V30 652 C 67.7605 -1.92601 -0.635021 0
M  V30 653 C 68.0935 -0.919627 -1.71045 0
M  V30 654 O 67.3685 0.0557892 -1.9442 0
M  V30 655 C 67.6515 -3.38085 -1.23979 0
M  V30 656 C 67.5045 -4.49467 -0.173057 0
M  V30 657 C 68.8235 -3.83776 -2.15416 0
M  V30 658 H 65.9425 -0.700397 -0.229374 0
M  V30 659 H 68.5845 -1.89728 0.101633 0
M  V30 660 H 66.7345 -3.40664 -1.86762 0
M  V30 661 H 68.4065 -4.59018 0.458312 0
M  V30 662 H 66.6495 -4.30909 0.499996 0
M  V30 663 H 67.3205 -5.48323 -0.636054 0
M  V30 664 H 69.7965 -3.83013 -1.62605 0
M  V30 665 H 68.6725 -4.8624 -2.54679 0
M  V30 666 H 68.9335 -3.19998 -3.05047 0
M  V30 667 N 67.9926 0.231505 -1.5589 0
M  V30 668 C 68.9226 1.29022 -1.94617 0
M  V30 669 C 69.9036 1.4941 -0.813067 0
M  V30 670 O 71.0886 1.6176 -1.07459 0
M  V30 671 C 68.2186 2.64199 -2.25424 0
M  V30 672 C 67.1726 2.58484 -3.41131 0
M  V30 673 C 66.4986 3.97599 -3.57518 0
M  V30 674 C 67.7986 2.1413 -4.76388 0
M  V30 675 H 69.4926 0.968563 -2.83301 0
M  V30 676 H 67.0386 0.464479 -1.36303 0
M  V30 677 H 68.9916 3.38413 -2.51107 0
M  V30 678 H 67.7156 2.98032 -1.33583 0
M  V30 679 H 66.3746 1.86727 -3.15481 0
M  V30 680 H 66.0226 4.28723 -2.6307 0
M  V30 681 H 65.7226 3.94659 -4.35337 0
M  V30 682 H 67.2466 4.7349 -3.85538 0
M  V30 683 H 68.6606 2.78083 -5.01341 0
M  V30 684 H 67.0576 2.2227 -5.57419 0
M  V30 685 H 68.1276 1.09331 -4.72414 0
M  V30 686 N 69.4707 1.49531 0.497807 0
M  V30 687 C 70.7197 1.58426 1.24837 0
M  V30 688 C 71.0327 0.277643 1.93619 0
M  V30 689 O 72.2387 0.24517 2.70391 0
M  V30 690 C 70.6947 2.79538 2.26686 0
M  V30 691 C 70.3027 4.16971 1.63828 0
M  V30 692 C 72.0467 2.97764 3.0255 0
M  V30 693 C 69.9537 5.29301 2.63807 0
M  V30 694 H 68.8837 0.58989 0.469623 0
M  V30 695 H 71.5347 1.75923 0.521857 0
M  V30 696 H 69.9167 2.55542 3.02514 0
M  V30 697 H 71.0907 4.51116 0.939711 0
M  V30 698 H 69.4057 4.04129 1.00342 0
M  V30 699 H 72.0027 3.78856 3.77323 0
M  V30 700 H 72.3457 2.08448 3.60354 0
M  V30 701 H 72.8787 3.21815 2.33838 0
M  V30 702 H 69.6177 6.20687 2.10779 0
M  V30 703 H 69.1377 4.99606 3.31894 0
M  V30 704 H 70.8167 5.58768 3.2617 0
M  V30 705 N 70.9488 -0.749086 1.3866 0
M  V30 706 C 72.1738 -1.54344 1.38538 0
M  V30 707 C 72.5988 -1.88088 -0.0216655 0
M  V30 708 O 71.9568 -1.50899 -1.00494 0
M  V30 709 C 72.0048 -2.8164 2.25192 0
M  V30 710 O 71.1088 -3.7698 1.67212 0
M  V30 711 H 70.4498 -0.466654 0.472367 0
M  V30 712 H 72.9798 -0.925355 1.82478 0
M  V30 713 H 72.9898 -3.30519 2.3921 0
M  V30 714 H 71.6648 -2.56411 3.27454 0
M  V30 715 H 70.2418 -3.35699 1.6236 0
M  V30 716 N 72.4269 -1.23603 -0.977757 0
M  V30 717 C 73.6739 -1.06971 -1.71941 0
M  V30 718 C 74.0019 0.393009 -1.90488 0
M  V30 719 O 73.2569 1.30719 -1.4564 0
M  V30 720 C 73.5559 -1.7433 -3.11999 0
M  V30 721 C 73.2219 -3.24252 -3.13323 0
M  V30 722 C 71.8839 -3.65156 -3.13392 0
M  V30 723 C 74.2359 -4.20141 -3.08433 0
M  V30 724 C 71.5639 -5.00403 -3.0629 0
M  V30 725 C 73.9159 -5.55384 -3.02873 0
M  V30 726 C 72.5799 -5.95647 -3.01265 0
M  V30 727 H 71.8499 -0.391433 -0.629175 0
M  V30 728 H 74.4969 -1.53572 -1.14403 0
M  V30 729 H 72.8019 -1.20096 -3.7294 0
M  V30 730 H 74.4989 -1.58936 -3.68158 0
M  V30 731 H 71.0889 -2.91692 -3.14029 0
M  V30 732 H 75.2729 -3.89547 -3.07517 0
M  V30 733 H 70.5289 -5.3081 -3.03399 0
M  V30 734 H 74.7029 -6.29398 -2.98046 0
M  V30 735 H 72.3299 -7.0041 -2.95516 0
M  V30 736 N 73.905 1.17692 -1.04816 0
M  V30 737 C 74.852 2.21581 -0.645797 0
M  V30 738 C 75.822 1.62367 0.350159 0
M  V30 739 O 77.007 1.89254 0.242433 0
M  V30 740 C 74.147 3.45092 -0.0227568 0
M  V30 741 C 73.26 4.18613 -1.06709 0
M  V30 742 C 72.395 5.29602 -0.411767 0
M  V30 743 C 71.434 5.94904 -1.44067 0
M  V30 744 N 70.571 6.97414 -0.809781 0
M  V30 745 H 75.411 2.55353 -1.5362 0
M  V30 746 H 72.948 1.25438 -0.768364 0
M  V30 747 H 74.906 4.15679 0.35588 0
M  V30 748 H 73.536 3.11917 0.831122 0
M  V30 749 H 72.588 3.46779 -1.5636 0
M  V30 750 H 73.9 4.63293 -1.84827 0
M  V30 751 H 73.054 6.06696 0.0206623 0
M  V30 752 H 71.793 4.86045 0.401438 0
M  V30 753 H 70.798 5.16544 -1.88316 0
M  V30 754 H 72.023 6.40542 -2.25571 0
M  V30 755 H 69.969 6.55998 -0.0170186 0
M  V30 756 H 69.886 7.40386 -1.52856 0
M  V30 757 H 71.154 7.78463 -0.401999 0
M  V30 758 N 75.3831 0.828654 1.34056 0
M  V30 759 C 76.6291 0.42008 1.98402 0
M  V30 760 C 76.9621 -1.01564 1.65525 0
M  V30 761 O 76.2371 -1.70834 0.929831 0
M  V30 762 C 76.5201 0.62927 3.54559 0
M  V30 763 C 76.3731 2.11152 3.97159 0
M  V30 764 C 77.6921 0.0688756 4.40046 0
M  V30 765 H 74.8111 0.154104 0.720709 0
M  V30 766 H 77.4531 1.04228 1.5886 0
M  V30 767 H 75.6031 0.0996418 3.88372 0
M  V30 768 H 77.2751 2.70522 3.73651 0
M  V30 769 H 75.5181 2.59985 3.47261 0
M  V30 770 H 76.1891 2.20868 5.05887 0
M  V30 771 H 78.6651 0.521458 4.1282 0
M  V30 772 H 77.5411 0.245006 5.48353 0
M  V30 773 H 77.8021 -1.0266 4.30015 0
M  V30 774 N 76.8612 -1.46375 0.584142 0
M  V30 775 C 77.8092 -2.32042 -0.161047 0
M  V30 776 C 78.8032 -1.44569 -0.882966 0
M  V30 777 O 80.0092 -1.61186 -0.801191 0
M  V30 778 H 76.3842 -0.748659 -0.0708033 0
M  V30 779 H 78.3552 -2.92704 0.580269 0
M  V30 780 C 77.1042 -3.27762 -1.1605 0
M  V30 781 H 76.4272 -3.95051 -0.614419 0
M  V30 782 H 77.8672 -3.90481 -1.65228 0
M  V30 783 C 76.3262 -2.53218 -2.22221 0
M  V30 784 O 76.8562 -2.29628 -3.29597 0
M  V30 785 N 75.0622 -2.13756 -1.96868 0
M  V30 786 H 74.6092 -2.33142 -1.09557 0
M  V30 787 H 74.5672 -1.642 -2.68115 0
M  V30 788 N 78.3393 -0.321999 -1.54275 0
M  V30 789 C 79.5673 0.283052 -2.04955 0
M  V30 790 C 79.9823 1.45904 -1.19823 0
M  V30 791 O 79.3393 1.81063 -0.228545 0
M  V30 792 C 79.3903 0.719028 -3.54277 0
M  V30 793 O 79.1113 -0.410175 -4.36176 0
M  V30 794 C 80.6123 1.38705 -4.21041 0
M  V30 795 H 77.8323 0.0584616 -0.668448 0
M  V30 796 H 80.3763 -0.467734 -1.99079 0
M  V30 797 H 78.5313 1.41979 -3.60445 0
M  V30 798 H 78.9453 -0.0669416 -5.24457 0
M  V30 799 H 80.4193 1.64306 -5.2698 0
M  V30 800 H 80.8963 2.33385 -3.72059 0
M  V30 801 H 81.5023 0.728906 -4.19007 0
M  V30 802 N 79.8174 1.5752 -0.0501392 0
M  V30 803 C 80.7274 2.14952 0.939827 0
M  V30 804 C 81.7434 1.10706 1.34239 0
M  V30 805 O 82.9194 1.42869 1.41952 0
M  V30 806 C 79.9844 2.68232 2.19665 0
M  V30 807 C 79.0454 3.87272 1.85253 0
M  V30 808 C 78.2784 4.38002 3.04943 0
M  V30 809 O 78.5014 3.87811 4.18281 0
M  V30 810 O 77.4354 5.29602 2.86017 0
M  V30 811 H 81.2614 2.9986 0.481392 0
M  V30 812 H 78.8464 1.4841 0.171699 0
M  V30 813 H 80.7284 3.02475 2.93406 0
M  V30 814 H 79.4034 1.86395 2.64648 0
M  V30 815 H 78.3104 3.5792 1.0883 0
M  V30 816 H 79.6434 4.70336 1.4507 0
M  V30 817 N 81.2955 -0.223234 1.56011 0
M  V30 818 C 82.2255 -1.27988 1.95298 0
M  V30 819 C 83.2065 -1.48976 0.820979 0
M  V30 820 O 84.3915 -1.61188 1.08315 0
M  V30 821 C 81.5215 -2.63 2.26822 0
M  V30 822 C 80.4755 -2.56671 3.42497 0
M  V30 823 C 79.8015 -3.95697 3.59622 0
M  V30 824 C 81.1015 -2.11601 4.77517 0
M  V30 825 H 82.7955 -0.953525 2.8381 0
M  V30 826 H 80.3415 -0.457244 1.36548 0
M  V30 827 H 82.2945 -3.37077 2.52898 0
M  V30 828 H 81.0185 -2.9732 1.35161 0
M  V30 829 H 79.6775 -1.85051 3.16467 0
M  V30 830 H 79.3255 -4.27322 2.6534 0
M  V30 831 H 79.0255 -3.92345 4.37424 0
M  V30 832 H 80.5495 -4.71438 3.88044 0
M  V30 833 H 81.9635 -2.7542 5.02809 0
M  V30 834 H 80.3605 -2.19311 5.5859 0
M  V30 835 H 81.4305 -1.06824 4.72987 0
M  V30 836 N 82.7736 -1.49793 -0.48987 0
M  V30 837 C 83.7206 -1.67281 -1.59014 0
M  V30 838 C 84.6906 -0.514177 -1.57941 0
M  V30 839 O 85.8756 -0.742533 -1.75759 0
M  V30 840 C 83.0156 -1.75569 -2.97102 0
M  V30 841 C 82.1286 -3.0281 -3.08107 0
M  V30 842 C 81.2636 -3.02008 -4.36995 0
M  V30 843 C 80.3026 -4.23782 -4.41673 0
M  V30 844 N 79.4396 -4.20826 -5.62005 0
M  V30 845 H 84.2796 -2.61224 -1.43409 0
M  V30 846 H 81.8166 -1.29508 -0.697565 0
M  V30 847 H 83.7746 -1.78354 -3.77155 0
M  V30 848 H 82.4046 -0.850827 -3.11385 0
M  V30 849 H 81.4566 -3.09584 -2.21047 0
M  V30 850 H 82.7686 -3.92801 -3.07423 0
M  V30 851 H 81.9226 -3.03418 -5.25378 0
M  V30 852 H 80.6616 -2.09815 -4.4026 0
M  V30 853 H 79.6666 -4.22604 -3.5169 0
M  V30 854 H 80.8916 -5.17181 -4.40115 0
M  V30 855 H 78.8376 -3.31476 -5.66091 0
M  V30 856 H 78.7546 -5.04564 -5.62984 0
M  V30 857 H 80.0226 -4.26355 -6.52565 0
M  V30 858 N 84.2517 0.741722 -1.39055 0
M  V30 859 C 85.4797 1.53098 -1.39171 0
M  V30 860 C 85.8947 1.88794 0.0155099 0
M  V30 861 O 85.2517 1.53626 0.985159 0
M  V30 862 C 85.3027 2.82274 -2.2584 0
M  V30 863 O 85.0237 2.48097 -3.61081 0
M  V30 864 C 86.5247 3.76343 -2.34266 0
M  V30 865 H 83.7447 0.473335 -0.4756 0
M  V30 866 H 86.2887 0.917045 -1.82785 0
M  V30 867 H 84.4437 3.40015 -1.85656 0
M  V30 868 H 84.8577 3.31029 -4.06842 0
M  V30 869 H 86.3317 4.63898 -2.9917 0
M  V30 870 H 86.8087 4.17619 -1.35982 0
M  V30 871 H 87.4147 3.24523 -2.74891 0
M  V30 872 N 85.7298 1.2412 0.971189 0
M  V30 873 C 86.9758 1.08041 1.71625 0
M  V30 874 C 87.3088 -0.380407 1.90438 0
M  V30 875 O 86.5838 -1.28127 1.46334 0
M  V30 876 C 86.8668 1.81682 3.10908 0
M  V30 877 C 86.7198 3.35493 2.99608 0
M  V30 878 C 88.0388 1.58671 4.10501 0
M  V30 879 H 85.1578 0.39388 0.622919 0
M  V30 880 H 87.7998 1.52743 1.13003 0
M  V30 881 H 85.9498 1.43684 3.60953 0
M  V30 882 H 87.6218 3.83068 2.57015 0
M  V30 883 H 85.8648 3.64052 2.35899 0
M  V30 884 H 86.5358 3.82217 3.98264 0
M  V30 885 H 89.0118 1.91719 3.69301 0
M  V30 886 H 87.8878 2.1266 5.06031 0
M  V30 887 H 88.1488 0.524161 4.38982 0
M  V30 888 N 87.2079 -1.17134 1.05439 0
M  V30 889 C 88.1559 -2.23289 0.651511 0
M  V30 890 C 89.1499 -1.66186 -0.328411 0
M  V30 891 O 90.3559 -1.78949 -0.194206 0
M  V30 892 H 86.7309 -0.726938 0.192523 0
M  V30 893 H 88.7019 -2.54565 1.55689 0
M  V30 894 C 87.4509 -3.47671 0.0448436 0
M  V30 895 H 86.7739 -3.91918 0.78996 0
M  V30 896 H 88.2139 -4.2353 -0.19964 0
M  V30 897 C 86.6729 -3.14453 -1.20918 0
M  V30 898 O 87.2029 -3.29459 -2.29825 0
M  V30 899 N 85.4089 -2.68657 -1.10779 0
M  V30 900 H 84.9559 -2.56646 -0.221526 0
M  V30 901 H 84.9139 -2.46804 -1.9477 0
M  V30 902 N 88.686 -0.835752 -1.33615 0
M  V30 903 C 89.634 -0.255238 -2.31195 0
M  V30 904 C 90.628 0.61107 -1.57995 0
M  V30 905 O 91.834 0.500979 -1.72888 0
M  V30 906 H 88.209 -0.0638085 -0.749288 0
M  V30 907 H 90.18 -1.09283 -2.77669 0
M  V30 908 C 88.929 0.55754 -3.43201 0
M  V30 909 H 88.252 -0.0997553 -3.99676 0
M  V30 910 H 89.692 0.929622 -4.13683 0
M  V30 911 C 88.151 1.73515 -2.88781 0
M  V30 912 O 88.681 2.83376 -2.84712 0
M  V30 913 N 86.887 1.55603 -2.4543 0
M  V30 914 H 86.434 0.662354 -2.48939 0
M  V30 915 H 86.392 2.34545 -2.09371 0
M  V30 916 N 90.1641 1.46063 -0.591896 0
M  V30 917 C 91.3941 2.06418 -0.0867676 0
M  V30 918 C 91.8021 1.43975 1.22751 0
M  V30 919 O 91.1451 0.542531 1.75506 0
M  V30 920 C 91.2071 3.59213 0.143725 0
M  V30 921 C 90.8711 4.439 -1.08635 0
M  V30 922 C 91.8681 4.79864 -2.00067 0
M  V30 923 C 89.5531 4.84896 -1.31077 0
M  V30 924 C 91.5471 5.55661 -3.12282 0
M  V30 925 C 89.2341 5.6045 -2.43596 0
M  V30 926 C 90.2321 5.95747 -3.34027 0
M  V30 927 O 89.9201 6.69772 -4.4459 0
M  V30 928 H 89.6521 0.673443 -0.0587447 0
M  V30 929 H 92.2061 1.88539 -0.814994 0
M  V30 930 H 90.4361 3.75433 0.926668 0
M  V30 931 H 92.1251 4.01463 0.5985 0
M  V30 932 H 92.8911 4.48763 -1.83947 0
M  V30 933 H 88.7701 4.56867 -0.61594 0
M  V30 934 H 92.3141 5.8313 -3.82891 0
M  V30 935 H 88.2111 5.90965 -2.59674 0
M  V30 936 H 88.9791 6.88207 -4.43073 0
M  V30 937 N 91.6422 0.330177 1.54103 0
M  V30 938 C 92.8892 -0.270405 2.00686 0
M  V30 939 C 93.2172 -1.51621 1.21825 0
M  V30 940 O 92.4722 -1.93536 0.29025 0
M  V30 941 C 92.7712 -0.643134 3.51566 0
M  V30 942 C 92.4372 0.504251 4.48072 0
M  V30 943 C 91.0992 0.819163 4.74176 0
M  V30 944 C 93.4512 1.27465 5.05373 0
M  V30 945 C 90.7792 1.90708 5.5484 0
M  V30 946 C 93.1312 2.35271 5.87223 0
M  V30 947 C 91.7952 2.67336 6.11627 0
M  V30 948 H 91.0652 -0.0989482 0.734364 0
M  V30 949 H 93.7122 0.455324 1.86008 0
M  V30 950 H 92.0172 -1.44938 3.64006 0
M  V30 951 H 93.7142 -1.11949 3.85056 0
M  V30 952 H 90.3042 0.248733 4.27878 0
M  V30 953 H 94.4882 1.04462 4.85182 0
M  V30 954 H 89.7442 2.15991 5.71977 0
M  V30 955 H 93.9182 2.95405 6.30641 0
M  V30 956 H 91.5452 3.51763 6.73919 0
M  V30 957 N 93.1203 -1.57491 0.0584922 0
M  V30 958 C 94.0503 -2.14988 -0.911178 0
M  V30 959 C 95.0313 -1.07343 -1.31952 0
M  V30 960 O 96.2163 -1.35318 -1.39294 0
M  V30 961 C 93.3463 -2.70078 -2.18347 0
M  V30 962 C 92.3003 -3.82771 -1.91495 0
M  V30 963 C 91.6263 -4.24408 -3.25241 0
M  V30 964 C 92.9263 -5.07592 -1.23075 0
M  V30 965 H 94.6203 -2.96263 -0.432246 0
M  V30 966 H 92.1663 -1.42512 -0.206469 0
M  V30 967 H 94.1193 -3.08943 -2.86587 0
M  V30 968 H 92.8433 -1.86005 -2.68458 0
M  V30 969 H 91.5023 -3.44389 -1.25664 0
M  V30 970 H 91.1503 -3.37275 -3.73168 0
M  V30 971 H 90.8503 -5.00366 -3.08071 0
M  V30 972 H 92.3743 -4.65879 -3.94701 0
M  V30 973 H 93.7883 -5.43857 -1.81362 0
M  V30 974 H 92.1853 -5.88741 -1.16207 0
M  V30 975 H 93.2553 -4.84454 -0.207847 0
M  V30 976 N 94.5984 0.214957 -1.56127 0
M  V30 977 C 95.5284 1.2695 -1.95974 0
M  V30 978 C 96.5094 1.48539 -0.828868 0
M  V30 979 O 97.6944 1.60611 -1.09168 0
M  V30 980 C 94.8244 2.61794 -2.28214 0
M  V30 981 C 93.7784 2.54851 -3.43853 0
M  V30 982 C 93.1044 3.93785 -3.61715 0
M  V30 983 C 94.4044 2.09065 -4.78632 0
M  V30 984 H 96.0984 0.93846 -2.84312 0
M  V30 985 H 93.6444 0.449996 -1.36788 0
M  V30 986 H 95.5974 3.35731 -2.54682 0
M  V30 987 H 94.3214 2.96599 -1.36736 0
M  V30 988 H 92.9804 1.8337 -3.17444 0
M  V30 989 H 92.6284 4.25908 -2.67602 0
M  V30 990 H 92.3284 3.90019 -4.39498 0
M  V30 991 H 93.8524 4.69374 -3.90539 0
M  V30 992 H 95.2664 2.7275 -5.04262 0
M  V30 993 H 93.6634 2.16346 -5.59745 0
M  V30 994 H 94.7334 1.04315 -4.73547 0
M  V30 995 N 96.0765 1.50051 0.48192 0
M  V30 996 C 97.3015 1.64508 1.26301 0
M  V30 997 C 97.7265 0.323851 1.85291 0
M  V30 998 O 97.0845 -0.710969 1.66778 0
M  V30 999 C 97.1325 2.7305 2.35533 0
M  V30 1000 O 96.2365 2.3355 3.39895 0
M  V30 1001 H 95.5775 0.549978 0.372048 0
M  V30 1002 H 98.1075 1.9636 0.574786 0
M  V30 1003 H 98.1175 2.95799 2.8101 0
M  V30 1004 H 96.7925 3.68946 1.91967 0
M  V30 1005 H 95.3695 2.21205 3.00204 0
M  V30 1006 N 97.5546 -0.734337 1.39446 0
M  V30 1007 C 98.4846 -1.86155 1.40955 0
M  V30 1008 C 99.4656 -1.67898 0.272827 0
M  V30 1009 O 100.651 -1.88207 0.478743 0
M  V30 1010 C 97.7806 -3.23912 1.25294 0
M  V30 1011 C 96.7346 -3.56808 2.36373 0
M  V30 1012 C 96.0606 -4.93508 2.058 0
M  V30 1013 C 97.3606 -3.59713 3.78687 0
M  V30 1014 H 99.0546 -1.8515 2.35287 0
M  V30 1015 H 96.6006 -0.889367 1.13253 0
M  V30 1016 H 98.5536 -4.02443 1.2497 0
M  V30 1017 H 97.2776 -3.25446 0.274308 0
M  V30 1018 H 95.9366 -2.80606 2.35914 0
M  V30 1019 H 95.5846 -4.91623 1.06374 0
M  V30 1020 H 95.2846 -5.16486 2.80208 0
M  V30 1021 H 96.8086 -5.74396 2.07128 0
M  V30 1022 H 98.2226 -4.2832 3.81071 0
M  V30 1023 H 96.6196 -3.94209 4.52459 0
M  V30 1024 H 97.6896 -2.59504 4.09617 0
M  V30 1025 N 99.0327 -1.24633 -0.964593 0
M  V30 1026 C 99.9957 -1.0424 -2.04124 0
M  V30 1027 C 100.996 0.00137563 -1.608 0
M  V30 1028 O 102.186 -0.239883 -1.7254 0
M  V30 1029 C 99.3177 -0.580588 -3.3592 0
M  V30 1030 H 100.511 -1.99803 -2.23649 0
M  V30 1031 H 98.0637 -1.06899 -1.14027 0
M  V30 1032 H 98.7987 0.3781 -3.22088 0
M  V30 1033 H 98.5837 -1.33398 -3.6871 0
M  V30 1034 H 100.074 -0.459034 -4.15069 0
M  V30 1035 N 100.511 1.16574 -1.06058 0
M  V30 1036 C 101.751 1.88723 -0.78504 0
M  V30 1037 C 102.115 1.79706 0.676006 0
M  V30 1038 O 103.316 2.46757 1.06603 0
M  V30 1039 C 101.587 3.34338 -1.26304 0
M  V30 1040 S 103.146 4.24366 -1.1162 0
M  V30 1041 H 99.9638 0.651448 -0.284846 0
M  V30 1042 H 102.566 1.40732 -1.35701 0
M  V30 1043 H 101.27 3.38439 -2.32136 0
M  V30 1044 H 100.801 3.87378 -0.685719 0
M  V30 1045 H 102.816 4.96179 -0.0456539 0
M  V30 1046 N 101.989 0.842826 1.3317 0
M  V30 1047 C 102.952 0.284065 2.27433 0
M  V30 1048 C 103.952 -0.54948 1.5112 0
M  V30 1049 O 105.142 -0.362699 1.70382 0
M  V30 1050 C 102.274 -0.599384 3.35589 0
M  V30 1051 H 103.467 1.11589 2.78366 0
M  V30 1052 H 101.02 0.616221 1.4364 0
M  V30 1053 H 101.755 -1.45349 2.89904 0
M  V30 1054 H 101.54 -0.00291266 3.921 0
M  V30 1055 H 103.03 -0.983488 4.05854 0
M  V30 1056 N 103.467 -1.45747 0.599634 0
M  V30 1057 C 104.744 -1.95585 0.0240846 0
M  V30 1058 C 105.124 -1.54217 -1.44154 0
M  V30 1059 O 104.472 -0.800903 -2.14004 0
M  V30 1060 C 104.682 -3.48344 0.21385 0
M  V30 1061 C 106.03 -4.24504 0.0904902 0
M  V30 1062 O 107.054 -3.55911 0.143558 0
M  V30 1063 O 105.913 -5.46491 -0.0310766 0
M  V30 1064 H 103.007 -0.82602 -0.0402478 0
M  V30 1065 H 105.553 -1.55951 0.669139 0
M  V30 1066 H 104.325 -3.71397 1.23206 0
M  V30 1067 H 103.948 -3.9485 -0.466842 0
M  V30 1068 N 104.945 -0.338344 -1.53925 0
M  V30 1069 C 105.875 0.51328 -2.27789 0
M  V30 1070 C 106.856 1.107 -1.29149 0
M  V30 1071 O 108.041 1.12937 -1.57984 0
M  V30 1072 C 105.171 1.66697 -3.04679 0
M  V30 1073 C 104.125 1.20183 -4.1078 0
M  V30 1074 C 103.451 2.44363 -4.75595 0
M  V30 1075 C 104.751 0.30605 -5.21403 0
M  V30 1076 H 106.445 -0.102883 -2.99223 0
M  V30 1077 H 103.991 -0.0509219 -1.4391 0
M  V30 1078 H 105.944 2.26915 -3.55088 0
M  V30 1079 H 104.668 2.30995 -2.30887 0
M  V30 1080 H 103.327 0.622499 -3.61276 0
M  V30 1081 H 102.975 3.07057 -3.98403 0
M  V30 1082 H 102.675 2.13925 -5.47275 0
M  V30 1083 H 104.199 3.05317 -5.28786 0
M  V30 1084 H 105.613 0.814929 -5.67478 0
M  V30 1085 H 104.01 0.0937929 -6.00027 0
M  V30 1086 H 105.08 -0.65921 -4.80398 0
M  V30 1087 N 106.423 1.57458 -0.0668435 0
M  V30 1088 C 107.672 1.92477 0.602947 0
M  V30 1089 C 107.985 0.948419 1.71068 0
M  V30 1090 O 109.191 1.19124 2.43971 0
M  V30 1091 C 107.647 3.41903 1.12383 0
M  V30 1092 C 107.255 4.47975 0.04737 0
M  V30 1093 C 108.999 3.85931 1.76797 0
M  V30 1094 C 106.906 5.88529 0.582022 0
M  V30 1095 H 105.836 0.718387 0.22899 0
M  V30 1096 H 108.487 1.82978 -0.138276 0
M  V30 1097 H 106.869 3.46459 1.91787 0
M  V30 1098 H 108.043 4.55029 -0.726978 0
M  V30 1099 H 106.358 4.13384 -0.500243 0
M  V30 1100 H 108.955 4.88322 2.17821 0
M  V30 1101 H 109.298 3.23029 2.62599 0
M  V30 1102 H 109.831 3.83958 1.04024 0
M  V30 1103 H 106.57 6.55065 -0.238721 0
M  V30 1104 H 106.09 5.85004 1.324 0
M  V30 1105 H 107.769 6.38258 1.05999 0
M  V30 1106 N 107.901 -0.206675 1.56239 0
M  V30 1107 C 109.15 -0.926964 1.79138 0
M  V30 1108 C 109.463 -1.84901 0.638043 0
M  V30 1109 O 110.669 -2.60906 0.751033 0
M  V30 1110 C 109.125 -1.6986 3.17294 0
M  V30 1111 C 108.733 -0.821956 4.40395 0
M  V30 1112 C 110.477 -2.40922 3.4951 0
M  V30 1113 C 108.384 -1.59179 5.69575 0
M  V30 1114 H 107.314 -0.349864 0.667915 0
M  V30 1115 H 109.965 -0.180487 1.8261 0
M  V30 1116 H 108.347 -2.48853 3.08039 0
M  V30 1117 H 109.521 -0.0715019 4.60745 0
M  V30 1118 H 107.836 -0.222741 4.15804 0
M  V30 1119 H 110.433 -2.99047 4.43255 0
M  V30 1120 H 110.776 -3.14542 2.72707 0
M  V30 1121 H 111.309 -1.68905 3.60161 0
M  V30 1122 H 108.048 -0.898589 6.49312 0
M  V30 1123 H 107.568 -2.31648 5.53262 0
M  V30 1124 H 109.247 -2.14862 6.10281 0
M  V30 1125 N 109.379 -1.50304 -0.473955 0
M  V30 1126 C 110.627 -1.60832 -1.22382 0
M  V30 1127 C 110.948 -0.30939 -1.9253 0
M  V30 1128 O 110.218 0.67296 -1.83978 0
M  V30 1129 H 108.798 -0.592652 -0.454723 0
M  V30 1130 H 111.46 -1.87068 -0.546968 0
M  V30 1131 H 110.556 -2.41803 -1.97327 0
M  V30 1132 N 110.857 0.726932 -1.39834 0
M  V30 1133 C 112.085 1.51613 -1.40787 0
M  V30 1134 C 112.5 1.88799 -0.00451505 0
M  V30 1135 O 111.857 1.54662 0.968809 0
M  V30 1136 C 111.908 2.79863 -2.28821 0
M  V30 1137 O 111.629 2.44253 -3.63692 0
M  V30 1138 C 113.13 3.73837 -2.38245 0
M  V30 1139 H 110.35 0.468264 -0.480593 0
M  V30 1140 H 112.894 0.897607 -1.83748 0
M  V30 1141 H 111.049 3.38027 -1.89252 0
M  V30 1142 H 111.463 3.26695 -4.1033 0
M  V30 1143 H 112.937 4.60699 -3.04073 0
M  V30 1144 H 113.414 4.16153 -1.40403 0
M  V30 1145 H 114.02 3.21589 -2.78317 0
M  V30 1146 N 112.336 1.25143 0.95797 0
M  V30 1147 C 113.583 1.09692 1.70217 0
M  V30 1148 C 113.911 -0.362654 1.91089 0
M  V30 1149 O 113.166 -1.28386 1.47701 0
M  V30 1150 C 113.465 1.79272 3.09187 0
M  V30 1151 C 113.131 3.29196 3.08125 0
M  V30 1152 C 111.793 3.70096 3.07543 0
M  V30 1153 C 114.145 4.24995 3.0171 0
M  V30 1154 C 111.473 5.05213 2.9829 0
M  V30 1155 C 113.825 5.60132 2.93999 0
M  V30 1156 C 112.489 6.00365 2.9175 0
M  V30 1157 H 111.759 0.401393 0.622868 0
M  V30 1158 H 114.406 1.55372 1.11945 0
M  V30 1159 H 112.711 1.26014 3.70982 0
M  V30 1160 H 114.408 1.64773 3.65583 0
M  V30 1161 H 110.998 2.96651 3.09348 0
M  V30 1162 H 115.182 3.9439 3.01281 0
M  V30 1163 H 110.438 5.35569 2.94916 0
M  V30 1164 H 114.612 6.3406 2.87996 0
M  V30 1165 H 112.239 7.05023 2.84336 0
M  V30 1166 N 113.814 -1.1601 1.06675 0
M  V30 1167 C 115.039 -1.91068 0.806706 0
M  V30 1168 C 115.464 -1.77112 -0.633485 0
M  V30 1169 O 114.822 -1.09908 -1.44187 0
M  V30 1170 C 114.87 -3.39655 1.21106 0
M  V30 1171 O 113.974 -4.10893 0.352189 0
M  V30 1172 H 113.315 -0.595125 0.294486 0
M  V30 1173 H 115.845 -1.46955 1.42356 0
M  V30 1174 H 115.855 -3.90434 1.18428 0
M  V30 1175 H 114.53 -3.49132 2.26008 0
M  V30 1176 H 113.107 -3.70285 0.440868 0
M  V30 1177 N 115.292 -0.849877 -1.32721 0
M  V30 1178 C 116.225 -0.235903 -2.26977 0
M  V30 1179 C 117.203 0.623355 -1.50177 0
M  V30 1180 O 118.387 0.581207 -1.79316 0
M  V30 1181 C 115.514 0.667712 -3.32053 0
M  V30 1182 C 114.56 -0.11753 -4.26338 0
M  V30 1183 S 115.393 -1.48277 -5.14562 0
M  V30 1184 C 116.549 -0.584741 -6.23163 0
M  V30 1185 H 116.782 -1.03495 -2.78704 0
M  V30 1186 H 114.315 -0.64724 -1.40179 0
M  V30 1187 H 116.273 1.18343 -3.93072 0
M  V30 1188 H 114.934 1.44052 -2.7912 0
M  V30 1189 H 114.127 0.57051 -5.00761 0
M  V30 1190 H 113.729 -0.564668 -3.69713 0
M  V30 1191 H 116.021 0.212968 -6.77165 0
M  V30 1192 H 116.964 -1.29947 -6.96074 0
M  V30 1193 H 117.372 -0.161202 -5.6427 0
M  V30 1194 N 116.77 1.45427 -0.607355 0
M  V30 1195 C 117.718 2.32269 0.12411 0
M  V30 1196 C 118.712 1.45955 0.859854 0
M  V30 1197 O 119.918 1.6244 0.775447 0
M  V30 1198 H 116.293 0.749691 0.0588839 0
M  V30 1199 H 118.264 2.91743 -0.626762 0
M  V30 1200 C 117.013 3.29567 1.1082 0
M  V30 1201 H 116.336 3.95978 0.551492 0
M  V30 1202 H 117.776 3.93061 1.58995 0
M  V30 1203 C 116.235 2.56722 2.18164 0
M  V30 1204 O 116.765 2.34842 3.25902 0
M  V30 1205 N 114.971 2.16861 1.93442 0
M  V30 1206 H 114.518 2.34855 1.05834 0
M  V30 1207 H 114.476 1.68444 2.65469 0
M  V30 1208 N 118.248 0.346503 1.53744 0
M  V30 1209 C 119.178 -0.501193 2.28058 0
M  V30 1210 C 120.159 -1.10014 1.29734 0
M  V30 1211 O 121.344 -1.12097 1.58581 0
M  V30 1212 C 118.474 -1.65078 3.05559 0
M  V30 1213 C 117.428 -1.18003 4.11411 0
M  V30 1214 C 116.754 -2.41837 4.76884 0
M  V30 1215 C 118.054 -0.278394 5.21558 0
M  V30 1216 H 119.748 0.11875 2.99164 0
M  V30 1217 H 117.294 0.0585531 1.43881 0
M  V30 1218 H 119.247 -2.25028 3.56287 0
M  V30 1219 H 117.971 -2.29767 2.32109 0
M  V30 1220 H 116.63 -0.603331 3.61601 0
M  V30 1221 H 116.278 -3.0494 4.00026 0
M  V30 1222 H 115.978 -2.1102 5.48402 0
M  V30 1223 H 117.502 -3.02508 5.30397 0
M  V30 1224 H 118.916 -0.784823 5.67903 0
M  V30 1225 H 117.313 -0.0619707 6.00068 0
M  V30 1226 H 118.383 0.684677 4.80042 0
M  V30 1227 N 119.726 -1.57421 0.075193 0
M  V30 1228 C 120.956 -1.97659 -0.601203 0
M  V30 1229 C 121.364 -0.952427 -1.63479 0
M  V30 1230 O 120.707 0.0688241 -1.83571 0
M  V30 1231 C 120.769 -3.34218 -1.32434 0
M  V30 1232 C 120.433 -4.5484 -0.443826 0
M  V30 1233 C 121.43 -5.19034 0.299969 0
M  V30 1234 C 119.115 -5.00952 -0.367709 0
M  V30 1235 C 121.109 -6.27695 1.10807 0
M  V30 1236 C 118.796 -6.09484 0.444058 0
M  V30 1237 C 119.794 -6.72719 1.18061 0
M  V30 1238 O 119.482 -7.79161 1.97898 0
M  V30 1239 H 119.214 -0.65494 -0.167422 0
M  V30 1240 H 121.768 -2.04886 0.145157 0
M  V30 1241 H 119.998 -3.23615 -2.11685 0
M  V30 1242 H 121.687 -3.59038 -1.89331 0
M  V30 1243 H 122.453 -4.84351 0.250776 0
M  V30 1244 H 118.332 -4.51509 -0.930638 0
M  V30 1245 H 121.876 -6.76982 1.68347 0
M  V30 1246 H 117.773 -6.43601 0.494803 0
M  V30 1247 H 118.541 -7.96055 1.90367 0
M  V30 1248 N 121.204 0.198386 -1.56346 0
M  V30 1249 C 122.432 0.935572 -1.84539 0
M  V30 1250 C 122.847 1.76989 -0.657281 0
M  V30 1251 O 122.204 1.78626 0.374043 0
M  V30 1252 C 122.255 1.8344 -3.11499 0
M  V30 1253 O 121.976 1.03377 -4.25728 0
M  V30 1254 C 123.477 2.68355 -3.52846 0
M  V30 1255 H 120.697 0.273126 -0.612897 0
M  V30 1256 H 123.241 0.20663 -2.03453 0
M  V30 1257 H 121.396 2.51701 -2.94492 0
M  V30 1258 H 121.81 1.64599 -4.98003 0
M  V30 1259 H 123.284 3.27085 -4.44657 0
M  V30 1260 H 123.761 3.41901 -2.75681 0
M  V30 1261 H 124.367 2.05471 -3.72373 0
M  V30 1262 N 122.682 1.50554 0.465978 0
M  V30 1263 C 123.91 1.65563 1.24083 0
M  V30 1264 C 124.325 0.341051 1.85694 0
M  V30 1265 O 123.682 -0.677543 1.69457 0
M  V30 1266 C 123.733 2.75051 2.34583 0
M  V30 1267 O 123.454 4.01413 1.75497 0
M  V30 1268 C 124.955 3.01078 3.25372 0
M  V30 1269 H 122.175 0.55638 0.375077 0
M  V30 1270 H 124.719 1.96807 0.555624 0
M  V30 1271 H 122.874 2.46486 2.9887 0
M  V30 1272 H 123.288 4.62002 2.48303 0
M  V30 1273 H 124.762 3.81339 3.99105 0
M  V30 1274 H 125.239 2.12349 3.84453 0
M  V30 1275 H 125.845 3.31194 2.66816 0
M  V30 1276 N 124.16 -0.719506 1.40217 0
M  V30 1277 C 125.39 -1.50646 1.41384 0
M  V30 1278 C 125.798 -1.89197 0.0107743 0
M  V30 1279 O 125.141 -1.55709 -0.974708 0
M  V30 1280 C 125.203 -2.81405 2.23722 0
M  V30 1281 C 124.867 -2.65199 3.72181 0
M  V30 1282 C 125.864 -2.32717 4.64907 0
M  V30 1283 C 123.549 -2.81586 4.1595 0
M  V30 1284 C 125.543 -2.16827 5.99387 0
M  V30 1285 C 123.23 -2.65313 5.50502 0
M  V30 1286 C 124.228 -2.32981 6.42035 0
M  V30 1287 O 123.916 -2.16827 7.74107 0
M  V30 1288 H 123.648 -0.471606 0.484318 0
M  V30 1289 H 126.202 -0.895456 1.84853 0
M  V30 1290 H 124.432 -3.44823 1.75026 0
M  V30 1291 H 126.121 -3.43102 2.16878 0
M  V30 1292 H 126.887 -2.19694 4.32388 0
M  V30 1293 H 122.766 -3.0574 3.45027 0
M  V30 1294 H 126.31 -1.91513 6.70797 0
M  V30 1295 H 122.207 -2.7792 5.82607 0
M  V30 1296 H 122.975 -2.31778 7.84998 0
M  V30 1297 N 125.638 -1.25649 -0.95132 0
M  V30 1298 C 126.568 -1.08808 -2.06599 0
M  V30 1299 C 127.549 0.00382547 -1.701 0
M  V30 1300 O 128.734 -0.166325 -1.93486 0
M  V30 1301 C 125.864 -0.709542 -3.39975 0
M  V30 1302 C 124.818 -1.75206 -3.90496 0
M  V30 1303 C 124.144 -1.22811 -5.20405 0
M  V30 1304 C 125.444 -3.15153 -4.16504 0
M  V30 1305 H 127.138 -2.02048 -2.20946 0
M  V30 1306 H 124.684 -0.972835 -1.06169 0
M  V30 1307 H 126.637 -0.578649 -4.17408 0
M  V30 1308 H 125.361 0.258556 -3.25575 0
M  V30 1309 H 124.02 -1.87145 -3.15234 0
M  V30 1310 H 123.668 -0.250145 -5.02378 0
M  V30 1311 H 123.368 -1.92492 -5.55176 0
M  V30 1312 H 124.892 -1.10968 -6.00432 0
M  V30 1313 H 126.306 -3.06349 -4.84586 0
M  V30 1314 H 124.703 -3.82333 -4.62538 0
M  V30 1315 H 125.773 -3.61966 -3.22658 0
M  V30 1316 N 127.117 1.15442 -1.07289 0
M  V30 1317 C 128.047 2.22312 -0.714107 0
M  V30 1318 C 129.028 1.67467 0.298155 0
M  V30 1319 O 130.213 1.93445 0.171048 0
M  V30 1320 C 127.343 3.47124 -0.110448 0
M  V30 1321 C 126.297 4.14926 -1.04979 0
M  V30 1322 C 125.623 5.33807 -0.308924 0
M  V30 1323 C 126.923 4.64762 -2.38314 0
M  V30 1324 H 128.617 2.5258 -1.6076 0
M  V30 1325 H 126.163 1.21404 -0.77441 0
M  V30 1326 H 128.116 4.21124 0.152482 0
M  V30 1327 H 126.84 3.16187 0.81812 0
M  V30 1328 H 125.499 3.42866 -1.29764 0
M  V30 1329 H 125.147 4.99126 0.623084 0
M  V30 1330 H 124.847 5.80113 -0.935036 0
M  V30 1331 H 126.371 6.10576 -0.0537771 0
M  V30 1332 H 127.785 5.30292 -2.1786 0
M  V30 1333 H 126.182 5.21728 -2.96514 0
M  V30 1334 H 127.252 3.80434 -3.00663 0
M  V30 1335 N 128.595 0.856903 1.32268 0
M  V30 1336 C 129.528 0.247937 2.26849 0
M  V30 1337 C 130.506 -0.615382 1.50505 0
M  V30 1338 O 131.69 -0.571689 1.79622 0
M  V30 1339 C 128.817 -0.650093 3.32403 0
M  V30 1340 C 127.863 0.140138 4.2627 0
M  V30 1341 S 128.696 1.51004 5.13769 0
M  V30 1342 C 129.852 0.61778 6.22844 0
M  V30 1343 H 130.085 1.04971 2.78152 0
M  V30 1344 H 127.618 0.654665 1.39834 0
M  V30 1345 H 129.576 -1.16256 3.93694 0
M  V30 1346 H 128.237 -1.4257 2.7988 0
M  V30 1347 H 127.43 -0.543945 5.01056 0
M  V30 1348 H 127.032 0.584267 3.69408 0
M  V30 1349 H 129.324 -0.177053 6.77269 0
M  V30 1350 H 130.267 1.33636 6.95375 0
M  V30 1351 H 130.675 0.191124 5.64176 0
M  V30 1352 N 130.073 -1.45103 0.615059 0
M  V30 1353 C 131.321 -2.01784 0.112955 0
M  V30 1354 C 131.642 -1.48504 -1.26378 0
M  V30 1355 O 130.912 -0.682245 -1.83636 0
M  V30 1356 H 129.492 -0.745993 0.0387668 0
M  V30 1357 H 132.154 -1.77808 0.798141 0
M  V30 1358 H 131.25 -3.12025 0.0684069 0
M  V30 1359 N 131.551 -0.354651 -1.53558 0
M  V30 1360 C 132.501 0.513179 -2.2215 0
M  V30 1361 C 133.485 1.05734 -1.21281 0
M  V30 1362 O 134.677 0.989202 -1.46778 0
M  V30 1363 C 131.806 1.65798 -3.00609 0
M  V30 1364 C 130.892 1.12722 -4.08845 0
M  V30 1365 N 131.283 0.318563 -5.04796 0
M  V30 1366 C 129.581 1.40307 -4.23356 0
M  V30 1367 C 130.282 0.0292224 -5.81693 0
M  V30 1368 N 129.258 0.623891 -5.40008 0
M  V30 1369 H 133.06 -0.111586 -2.93688 0
M  V30 1370 H 130.574 -0.162091 -1.61589 0
M  V30 1371 H 132.571 2.29176 -3.48258 0
M  V30 1372 H 131.231 2.28591 -2.306 0
M  V30 1373 H 132.242 -0.0413091 -5.17884 0
M  V30 1374 H 128.919 2.03458 -3.6457 0
M  V30 1375 H 130.309 -0.623808 -6.68998 0
M  V30 1376 N 133.029 1.57378 -0.0835403 0
M  V30 1377 C 134.275 1.95025 0.577664 0
M  V30 1378 C 134.63 0.964049 1.66505 0
M  V30 1379 O 133.923 -0.0118235 1.91596 0
M  V30 1380 C 134.117 3.37063 1.1884 0
M  V30 1381 C 133.946 4.49409 0.16171 0
M  V30 1382 C 132.716 5.04642 -0.257756 0
M  V30 1383 C 134.914 5.10722 -0.605634 0
M  V30 1384 N 132.896 6.00537 -1.27393 0
M  V30 1385 C 134.267 6.02225 -1.47395 0
M  V30 1386 C 136.322 4.93501 -0.660418 0
M  V30 1387 C 135.025 6.78355 -2.39221 0
M  V30 1388 C 137.051 5.70283 -1.56623 0
M  V30 1389 C 136.413 6.61444 -2.4222 0
M  V30 1390 H 132.512 0.760512 0.182058 0
M  V30 1391 H 135.096 1.94013 -0.163419 0
M  V30 1392 H 133.267 3.3879 1.89936 0
M  V30 1393 H 134.999 3.61917 1.81103 0
M  V30 1394 H 131.754 4.73428 0.127702 0
M  V30 1395 H 132.178 6.53184 -1.77987 0
M  V30 1396 H 136.82 4.22798 -0.0128221 0
M  V30 1397 H 134.538 7.48327 -3.05011 0
M  V30 1398 H 138.124 5.58976 -1.61361 0
M  V30 1399 H 137.004 7.1982 -3.11174 0
M  V30 1400 N 134.507 -0.190092 1.56449 0
M  V30 1401 C 135.47 -1.21925 1.9408 0
M  V30 1402 C 136.47 -1.38176 0.822431 0
M  V30 1403 O 137.66 -1.35903 1.08977 0
M  V30 1404 C 134.792 -2.58773 2.21922 0
M  V30 1405 H 135.985 -0.897464 2.86157 0
M  V30 1406 H 133.538 -0.43181 1.50217 0
M  V30 1407 H 134.273 -2.95998 1.32499 0
M  V30 1408 H 134.058 -2.48348 3.03424 0
M  V30 1409 H 135.548 -3.32978 2.52022 0
M  V30 1410 N 135.985 -1.50799 -0.457987 0
M  V30 1411 C 136.915 -1.73553 -1.5621 0
M  V30 1412 C 137.896 -0.584774 -1.59732 0
M  V30 1413 O 139.081 -0.825314 -1.7579 0
M  V30 1414 C 136.211 -1.84169 -2.94447 0
M  V30 1415 C 135.165 -2.99461 -3.0579 0
M  V30 1416 C 134.491 -2.95235 -4.45803 0
M  V30 1417 C 135.791 -4.39766 -2.81786 0
M  V30 1418 H 137.485 -2.66 -1.37421 0
M  V30 1419 H 135.031 -1.28002 -0.659662 0
M  V30 1420 H 136.984 -1.98672 -3.71628 0
M  V30 1421 H 135.708 -0.883545 -3.14422 0
M  V30 1422 H 134.367 -2.8463 -2.31044 0
M  V30 1423 H 134.015 -1.97239 -4.62715 0
M  V30 1424 H 133.715 -3.72642 -4.54326 0
M  V30 1425 H 135.239 -3.11803 -5.24987 0
M  V30 1426 H 136.653 -4.55054 -3.4871 0
M  V30 1427 H 135.05 -5.18722 -3.0174 0
M  V30 1428 H 136.12 -4.51229 -1.7754 0
M  V30 1429 N 137.463 0.71206 -1.40597 0
M  V30 1430 C 138.711 1.46907 -1.38791 0
M  V30 1431 C 139.032 1.94998 0.00780391 0
M  V30 1432 O 138.302 1.70587 0.963174 0
M  V30 1433 H 136.882 0.545043 -0.51082 0
M  V30 1434 H 139.544 0.843882 -1.75683 0
M  V30 1435 H 138.64 2.34021 -2.06496 0
M  V30 1436 N 138.941 1.26152 0.944643 0
M  V30 1437 C 140.169 1.14259 1.72489 0
M  V30 1438 C 140.584 -0.302555 1.8636 0
M  V30 1439 O 139.941 -1.20741 1.36849 0
M  V30 1440 C 139.992 1.80266 3.13347 0
M  V30 1441 O 139.713 3.19133 3.00143 0
M  V30 1442 C 141.214 1.74283 4.07603 0
M  V30 1443 H 138.434 0.398051 0.540181 0
M  V30 1444 H 140.978 1.66706 1.18446 0
M  V30 1445 H 139.133 1.31766 3.64303 0
M  V30 1446 H 139.547 3.51744 3.89071 0
M  V30 1447 H 141.021 2.25111 5.04013 0
M  V30 1448 H 141.498 0.708631 4.33446 0
M  V30 1449 H 142.104 2.22319 3.62567 0
M  V30 1450 N 140.419 -1.14872 1.07899 0
M  V30 1451 C 141.349 -2.2193 0.725887 0
M  V30 1452 C 142.33 -1.67622 -0.28927 0
M  V30 1453 O 143.515 -1.93533 -0.160787 0
M  V30 1454 C 140.645 -3.47061 0.128856 0
M  V30 1455 C 139.599 -4.14363 1.07178 0
M  V30 1456 C 138.925 -5.33636 0.337229 0
M  V30 1457 C 140.225 -4.63492 2.40775 0
M  V30 1458 H 141.919 -2.51724 1.62097 0
M  V30 1459 H 139.465 -1.20991 0.780838 0
M  V30 1460 H 141.418 -4.21199 -0.130147 0
M  V30 1461 H 140.142 -3.16617 -0.80134 0
M  V30 1462 H 138.801 -3.42173 1.3158 0
M  V30 1463 H 138.449 -4.99449 -0.596606 0
M  V30 1464 H 138.149 -5.79609 0.965788 0
M  V30 1465 H 139.673 -6.10539 0.0861567 0
M  V30 1466 H 141.087 -5.2913 2.20669 0
M  V30 1467 H 139.484 -5.20148 2.99276 0
M  V30 1468 H 140.554 -3.78834 3.02676 0
M  V30 1469 N 141.898 -0.863906 -1.31812 0
M  V30 1470 C 142.861 -0.320212 -2.26952 0
M  V30 1471 C 143.861 0.525369 -1.51975 0
M  V30 1472 O 145.051 0.335547 -1.70938 0
M  V30 1473 C 142.183 0.545919 -3.365 0
M  V30 1474 H 143.376 -1.16004 -2.76556 0
M  V30 1475 H 140.929 -0.638995 -1.42641 0
M  V30 1476 H 141.664 1.40718 -2.92179 0
M  V30 1477 H 141.449 -0.0594674 -3.92055 0
M  V30 1478 H 142.939 0.918796 -4.07367 0
M  V30 1479 N 143.376 1.44774 -0.622745 0
M  V30 1480 C 144.616 2.04004 -0.127102 0
M  V30 1481 C 144.98 1.47862 1.22478 0
M  V30 1482 O 146.181 1.98541 1.81204 0
M  V30 1483 C 144.452 3.57247 -0.104429 0
M  V30 1484 S 146.011 4.37574 0.327814 0
M  V30 1485 H 142.829 0.708713 -0.0569776 0
M  V30 1486 H 145.431 1.77275 -0.824253 0
M  V30 1487 H 144.135 3.95616 -1.09159 0
M  V30 1488 H 143.666 3.88575 0.614236 0
M  V30 1489 H 145.681 4.70575 1.57395 0
M  V30 1490 N 144.854 0.36279 1.53368 0
M  V30 1491 C 146.131 -0.284021 1.93527 0
M  V30 1492 C 146.511 -1.66628 1.29608 0
M  V30 1493 O 145.859 -2.23942 0.45413 0
M  V30 1494 C 146.069 -0.337028 3.47369 0
M  V30 1495 C 147.417 -0.578708 4.20638 0
M  V30 1496 O 148.441 -0.418352 3.53735 0
M  V30 1497 O 147.3 -0.89074 5.39192 0
M  V30 1498 H 144.394 -0.169743 0.809393 0
M  V30 1499 H 146.94 0.41537 1.64538 0
M  V30 1500 H 145.712 0.632217 3.86159 0
M  V30 1501 H 145.335 -1.08243 3.82582 0
M  V30 1502 N 146.332 -1.57332 0.0918853 0
M  V30 1503 C 147.262 -2.16872 -0.865371 0
M  V30 1504 C 148.243 -1.10118 -1.29646 0
M  V30 1505 O 149.428 -1.38242 -1.36392 0
M  V30 1506 C 146.558 -2.74649 -2.12569 0
M  V30 1507 C 145.512 -3.86747 -1.83333 0
M  V30 1508 C 144.838 -4.31212 -3.16166 0
M  V30 1509 C 146.138 -5.10089 -1.1228 0
M  V30 1510 H 147.832 -2.97114 -0.369307 0
M  V30 1511 H 145.378 -1.42918 -0.176194 0
M  V30 1512 H 147.331 -3.14952 -2.7997 0
M  V30 1513 H 146.055 -1.91657 -2.64452 0
M  V30 1514 H 144.714 -3.46978 -1.18331 0
M  V30 1515 H 144.362 -3.45115 -3.6593 0
M  V30 1516 H 144.062 -5.06788 -2.97388 0
M  V30 1517 H 145.586 -4.74146 -3.84731 0
M  V30 1518 H 147 -5.47582 -1.69785 0
M  V30 1519 H 145.397 -5.91073 -1.03693 0
M  V30 1520 H 146.467 -4.84786 -0.105041 0
M  V30 1521 N 147.81 0.181792 -1.56548 0
M  V30 1522 C 149.056 0.896803 -1.82562 0
M  V30 1523 C 149.411 1.80324 -0.670908 0
M  V30 1524 O 148.704 1.8868 0.333235 0
M  V30 1525 C 148.898 1.73728 -3.12335 0
M  V30 1526 C 148.727 0.913714 -4.4032 0
M  V30 1527 C 147.497 0.592903 -5.01809 0
M  V30 1528 C 149.695 0.260164 -5.13642 0
M  V30 1529 N 147.677 -0.247901 -6.13399 0
M  V30 1530 C 149.048 -0.442256 -6.18421 0
M  V30 1531 C 151.103 0.177253 -4.97584 0
M  V30 1532 C 149.806 -1.21971 -7.08883 0
M  V30 1533 C 151.832 -0.586839 -5.88481 0
M  V30 1534 C 151.194 -1.27766 -6.92716 0
M  V30 1535 H 147.293 0.307122 -0.719166 0
M  V30 1536 H 149.877 0.164535 -1.94004 0
M  V30 1537 H 148.048 2.44105 -3.02105 0
M  V30 1538 H 149.78 2.39279 -3.26386 0
M  V30 1539 H 146.535 0.920502 -4.64568 0
M  V30 1540 H 146.959 -0.658304 -6.73792 0
M  V30 1541 H 151.601 0.696993 -4.17015 0
M  V30 1542 H 149.319 -1.75083 -7.88905 0
M  V30 1543 H 152.905 -0.652522 -5.78129 0
M  V30 1544 H 151.785 -1.85943 -7.61836 0
M  V30 1545 N 149.288 1.51039 0.449983 0
M  V30 1546 C 150.218 1.74379 1.55288 0
M  V30 1547 C 151.199 0.593236 1.5942 0
M  V30 1548 O 152.384 0.834625 1.7535 0
M  V30 1549 C 149.514 1.85728 2.93466 0
M  V30 1550 C 148.468 3.01078 3.04197 0
M  V30 1551 C 147.794 2.97595 4.44231 0
M  V30 1552 C 149.094 4.41254 2.7945 0
M  V30 1553 H 150.788 2.66725 1.36008 0
M  V30 1554 H 148.334 1.2835 0.652864 0
M  V30 1555 H 150.287 2.0064 3.70569 0
M  V30 1556 H 149.011 0.900207 3.13949 0
M  V30 1557 H 147.67 2.85851 2.29531 0
M  V30 1558 H 147.318 1.99691 4.61663 0
M  V30 1559 H 147.018 3.75046 4.52343 0
M  V30 1560 H 148.542 3.14583 5.23326 0
M  V30 1561 H 149.956 4.56897 3.46292 0
M  V30 1562 H 148.353 5.20315 2.98985 0
M  V30 1563 H 149.423 4.52164 1.75144 0
M  V30 1564 N 150.766 -0.704594 1.40972 0
M  V30 1565 C 151.729 -1.80035 1.41845 0
M  V30 1566 C 152.729 -1.57774 0.310474 0
M  V30 1567 O 153.919 -1.64613 0.56992 0
M  V30 1568 C 151.051 -3.18284 1.22098 0
M  V30 1569 H 152.244 -1.80658 2.3938 0
M  V30 1570 H 149.797 -0.911329 1.26982 0
M  V30 1571 H 150.532 -3.23306 0.253672 0
M  V30 1572 H 150.317 -3.35843 2.02366 0
M  V30 1573 H 151.807 -3.98289 1.25522 0
M  V30 1574 N 152.244 -1.26651 -0.937939 0
M  V30 1575 C 153.174 -1.10993 -2.05433 0
M  V30 1576 C 154.155 -0.0142161 -1.70094 0
M  V30 1577 O 155.34 -0.186837 -1.93299 0
M  V30 1578 C 152.47 -0.745561 -3.39203 0
M  V30 1579 C 151.424 -1.79337 -3.88616 0
M  V30 1580 C 150.75 -1.28324 -5.19073 0
M  V30 1581 C 152.05 -3.19553 -4.13138 0
M  V30 1582 H 153.744 -2.0438 -2.1879 0
M  V30 1583 H 151.29 -0.984041 -1.05131 0
M  V30 1584 H 153.243 -0.622888 -4.16771 0
M  V30 1585 H 151.967 0.22401 -3.25831 0
M  V30 1586 H 150.626 -1.90477 -3.13231 0
M  V30 1587 H 150.274 -0.303414 -5.02084 0
M  V30 1588 H 149.974 -1.98369 -5.53103 0
M  V30 1589 H 151.498 -1.1733 -5.99221 0
M  V30 1590 H 152.912 -3.11471 -4.81309 0
M  V30 1591 H 151.309 -3.87218 -4.58457 0
M  V30 1592 H 152.379 -3.65368 -3.18801 0
M  V30 1593 N 153.722 1.14298 -1.08507 0
M  V30 1594 C 154.999 1.81544 -0.728088 0
M  V30 1595 C 155.379 1.95838 0.78808 0
M  V30 1596 O 154.727 1.51904 1.70697 0
M  V30 1597 C 154.937 3.17169 -1.45619 0
M  V30 1598 C 156.285 3.9265 -1.61591 0
M  V30 1599 O 157.309 3.26762 -1.41793 0
M  V30 1600 O 156.168 5.10807 -1.94263 0
M  V30 1601 H 153.262 0.78491 -0.260471 0
M  V30 1602 H 155.808 1.21307 -1.18671 0
M  V30 1603 H 154.58 3.01934 -2.489 0
M  V30 1604 H 154.203 3.851 -0.989124 0
M  V30 1605 N 155.201 0.870884 1.31352 0
M  V30 1606 C 156.431 0.496049 2.00557 0
M  V30 1607 C 156.839 -0.916241 1.65534 0
M  V30 1608 O 156.182 -1.61188 0.881134 0
M  V30 1609 C 156.244 0.574418 3.54881 0
M  V30 1610 C 155.908 1.94849 4.1338 0
M  V30 1611 C 156.905 2.91611 4.30417 0
M  V30 1612 C 154.59 2.25005 4.49086 0
M  V30 1613 C 156.584 4.16672 4.82352 0
M  V30 1614 C 154.271 3.50315 5.00722 0
M  V30 1615 C 155.269 4.45964 5.17306 0
M  V30 1616 O 154.957 5.69052 5.67833 0
M  V30 1617 H 154.689 0.191664 0.64826 0
M  V30 1618 H 157.243 1.17409 1.68536 0
M  V30 1619 H 155.473 -0.160549 3.86367 0
M  V30 1620 H 157.162 0.212879 4.05341 0
M  V30 1621 H 157.928 2.69622 4.03149 0
M  V30 1622 H 153.807 1.51332 4.35453 0
M  V30 1623 H 157.351 4.91336 4.95211 0
M  V30 1624 H 153.248 3.72147 5.27424 0
M  V30 1625 H 154.016 5.71236 5.86201 0
M  V30 1626 N 156.679 -1.44442 0.630414 0
M  V30 1627 C 157.925 -2.02351 0.134816 0
M  V30 1628 C 158.258 -1.4947 -1.23986 0
M  V30 1629 O 157.533 -0.678475 -1.82283 0
M  V30 1630 C 157.816 -3.59898 0.120707 0
M  V30 1631 C 157.669 -4.23063 1.52767 0
M  V30 1632 C 158.988 -4.36585 -0.555127 0
M  V30 1633 H 156.107 -0.73527 0.0504646 0
M  V30 1634 H 158.749 -1.72022 0.806751 0
M  V30 1635 H 156.899 -3.85868 -0.451477 0
M  V30 1636 H 158.571 -4.08202 2.14869 0
M  V30 1637 H 156.814 -3.80586 2.08175 0
M  V30 1638 H 157.485 -5.32071 1.46984 0
M  V30 1639 H 159.961 -4.16044 -0.0685429 0
M  V30 1640 H 158.837 -5.46294 -0.534185 0
M  V30 1641 H 159.098 -4.11138 -1.62535 0
M  V30 1642 N 158.157 -0.370918 -1.53173 0
M  V30 1643 C 159.12 0.460778 -2.24521 0
M  V30 1644 C 160.12 1.00536 -1.25496 0
M  V30 1645 O 161.31 0.890266 -1.49733 0
M  V30 1646 C 158.442 1.64457 -2.98608 0
M  V30 1647 H 159.635 -0.163613 -2.99453 0
M  V30 1648 H 157.188 -0.122699 -1.55818 0
M  V30 1649 H 157.923 2.30691 -2.2793 0
M  V30 1650 H 157.708 1.26099 -3.7127 0
M  V30 1651 H 159.198 2.23384 -3.5283 0
M  V30 1652 N 159.635 1.57281 -0.100228 0
M  V30 1653 C 160.86 1.99302 0.573881 0
M  V30 1654 C 161.285 0.979059 1.60611 0
M  V30 1655 O 160.643 -0.0517803 1.81226 0
M  V30 1656 C 160.691 3.40274 1.19358 0
M  V30 1657 O 159.795 3.41676 2.30935 0
M  V30 1658 H 159.136 0.647944 0.145138 0
M  V30 1659 H 161.666 2.03779 -0.183156 0
M  V30 1660 H 161.676 3.78078 1.53365 0
M  V30 1661 H 160.351 4.13594 0.437385 0
M  V30 1662 H 158.928 3.15672 1.98509 0
M  V30 1663 N 161.113 -0.173488 1.56642 0
M  V30 1664 C 162.061 -1.23417 1.97157 0
M  V30 1665 C 163.055 -1.45946 0.860013 0
M  V30 1666 O 164.261 -1.46551 1.04512 0
M  V30 1667 H 160.636 -0.414818 0.62724 0
M  V30 1668 H 162.607 -0.865582 2.8557 0
M  V30 1669 C 161.356 -2.5665 2.34576 0
M  V30 1670 H 160.679 -2.40137 3.19647 0
M  V30 1671 H 162.119 -3.2956 2.6677 0
M  V30 1672 C 160.578 -3.15245 1.18836 0
M  V30 1673 O 161.108 -3.98883 0.474869 0
M  V30 1674 N 159.314 -2.74303 0.959497 0
M  V30 1675 H 158.861 -2.0639 1.54146 0
M  V30 1676 H 158.819 -3.13844 0.186932 0
M  V30 1677 N 162.591 -1.51276 -0.441967 0
M  V30 1678 C 163.554 -1.7167 -1.51862 0
M  V30 1679 C 164.554 -0.586793 -1.49711 0
M  V30 1680 O 165.744 -0.854276 -1.51815 0
M  V30 1681 C 162.876 -1.76889 -2.91416 0
M  V30 1682 H 164.069 -2.67754 -1.35084 0
M  V30 1683 H 161.622 -1.41196 -0.670333 0
M  V30 1684 H 162.357 -0.826026 -3.13604 0
M  V30 1685 H 162.142 -2.59001 -2.94382 0
M  V30 1686 H 163.632 -1.94522 -3.69528 0
M  V30 1687 N 164.069 0.697108 -1.41344 0
M  V30 1688 C 165.294 1.49096 -1.44171 0
M  V30 1689 C 165.719 1.88038 -0.0481568 0
M  V30 1690 O 165.077 1.54525 0.948243 0
M  V30 1691 C 165.125 2.73088 -2.3549 0
M  V30 1692 O 164.229 3.70514 -1.81088 0
M  V30 1693 H 163.57 0.448801 -0.489361 0
M  V30 1694 H 166.1 0.856992 -1.85787 0
M  V30 1695 H 166.11 3.21413 -2.51312 0
M  V30 1696 H 164.785 2.44081 -3.36745 0
M  V30 1697 H 163.362 3.29441 -1.74708 0
M  V30 1698 N 165.547 1.27147 0.931209 0
M  V30 1699 C 166.793 1.13446 1.68101 0
M  V30 1700 C 167.126 -0.319628 1.91552 0
M  V30 1701 O 166.401 -1.23407 1.50336 0
M  V30 1702 C 166.684 1.91482 3.0497 0
M  V30 1703 C 166.537 3.44855 2.88782 0
M  V30 1704 C 167.856 1.71651 4.05246 0
M  V30 1705 H 164.975 0.413498 0.610072 0
M  V30 1706 H 167.617 1.56261 1.08086 0
M  V30 1707 H 165.767 1.55095 3.56199 0
M  V30 1708 H 167.439 3.9105 2.44698 0
M  V30 1709 H 165.682 3.71373 2.24198 0
M  V30 1710 H 166.353 3.94694 3.85902 0
M  V30 1711 H 168.829 2.0337 3.63015 0
M  V30 1712 H 167.705 2.28651 4.99009 0
M  V30 1713 H 167.966 0.663555 4.37092 0
M  V30 1714 N 167.025 -1.13721 1.09112 0
M  V30 1715 C 167.958 -2.18094 0.67158 0
M  V30 1716 C 168.936 -1.59414 -0.320299 0
M  V30 1717 O 170.12 -1.87183 -0.222444 0
M  V30 1718 C 167.247 -3.38698 -0.0111189 0
M  V30 1719 C 166.293 -4.15966 0.942055 0
M  V30 1720 S 167.126 -4.7604 2.45246 0
M  V30 1721 C 168.282 -5.99994 1.78208 0
M  V30 1722 H 168.515 -2.53344 1.55577 0
M  V30 1723 H 166.048 -1.24967 0.906789 0
M  V30 1724 H 168.006 -4.08559 -0.398716 0
M  V30 1725 H 166.667 -3.01756 -0.871905 0
M  V30 1726 H 165.86 -5.02318 0.411396 0
M  V30 1727 H 165.462 -3.51745 1.2709 0
M  V30 1728 H 167.754 -6.68441 1.10424 0
M  V30 1729 H 168.697 -6.57662 2.62463 0
M  V30 1730 H 169.105 -5.50432 1.25238 0
M  V30 1731 N 168.503 -0.877838 -1.30888 0
M  V30 1732 C 169.451 -0.328662 -2.30266 0
M  V30 1733 C 170.445 0.560496 -1.59859 0
M  V30 1734 O 171.651 0.445722 -1.74394 0
M  V30 1735 H 168.026 -0.0876142 -0.746879 0
M  V30 1736 H 169.997 -1.18061 -2.74051 0
M  V30 1737 C 168.746 0.448071 -3.44801 0
M  V30 1738 H 168.069 -0.226859 -3.99156 0
M  V30 1739 H 169.509 0.797541 -4.16432 0
M  V30 1740 C 167.968 1.64239 -2.94155 0
M  V30 1741 O 168.498 2.74175 -2.93583 0
M  V30 1742 N 166.704 1.47716 -2.50256 0
M  V30 1743 H 166.251 0.582821 -2.5092 0
M  V30 1744 H 166.209 2.27765 -2.16727 0
M  V30 1745 N 169.982 1.44106 -0.638065 0
M  V30 1746 C 170.912 2.33448 0.0494287 0
M  V30 1747 C 171.893 1.48606 0.827672 0
M  V30 1748 O 173.078 1.77308 0.792173 0
M  V30 1749 C 170.208 3.31771 1.02691 0
M  V30 1750 C 169.162 4.26485 0.359823 0
M  V30 1751 C 168.488 5.14729 1.44769 0
M  V30 1752 C 169.788 5.17056 -0.738296 0
M  V30 1753 H 171.482 2.91183 -0.696636 0
M  V30 1754 H 169.028 1.40014 -0.336456 0
M  V30 1755 H 170.981 3.93161 1.51666 0
M  V30 1756 H 169.705 2.7226 1.80395 0
M  V30 1757 H 168.364 3.66437 -0.10934 0
M  V30 1758 H 168.012 4.51566 2.21578 0
M  V30 1759 H 167.712 5.78913 1.00668 0
M  V30 1760 H 169.236 5.78991 1.93911 0
M  V30 1761 H 170.65 5.72342 -0.331354 0
M  V30 1762 H 169.047 5.89879 -1.10286 0
M  V30 1763 H 170.117 4.57652 -1.60258 0
M  V30 1764 N 171.46 0.379036 1.52974 0
M  V30 1765 C 172.39 -0.452706 2.29069 0
M  V30 1766 C 173.371 -1.07237 1.32039 0
M  V30 1767 O 174.556 -1.08708 1.60923 0
M  V30 1768 C 171.686 -1.5856 3.08992 0
M  V30 1769 C 170.64 -1.0925 4.13822 0
M  V30 1770 C 169.966 -2.31668 4.81907 0
M  V30 1771 C 171.266 -0.167702 5.22031 0
M  V30 1772 H 172.96 0.182181 2.98845 0
M  V30 1773 H 170.506 0.0890592 1.43724 0
M  V30 1774 H 172.459 -2.1742 3.6098 0
M  V30 1775 H 171.183 -2.24792 2.36931 0
M  V30 1776 H 169.842 -0.526494 3.628 0
M  V30 1777 H 169.49 -2.96386 4.06404 0
M  V30 1778 H 169.19 -1.9934 5.52754 0
M  V30 1779 H 170.714 -2.91189 5.36695 0
M  V30 1780 H 172.128 -0.664186 5.6944 0
M  V30 1781 H 170.525 0.0653265 6.00064 0
M  V30 1782 H 171.595 0.786347 4.78482 0
M  V30 1783 N 172.938 -1.57226 0.108567 0
M  V30 1784 C 173.868 -2.17778 -0.84232 0
M  V30 1785 C 174.849 -1.11487 -1.2847 0
M  V30 1786 O 176.034 -1.39681 -1.34918 0
M  V30 1787 C 173.164 -2.76888 -2.09644 0
M  V30 1788 C 172.118 -3.88669 -1.79221 0
M  V30 1789 C 171.444 -4.34541 -3.11574 0
M  V30 1790 C 172.744 -5.11251 -1.06864 0
M  V30 1791 H 174.438 -2.97489 -0.337774 0
M  V30 1792 H 171.984 -1.43097 -0.161025 0
M  V30 1793 H 173.937 -3.17904 -2.76614 0
M  V30 1794 H 172.661 -1.94451 -2.62405 0
M  V30 1795 H 171.32 -3.48213 -1.14644 0
M  V30 1796 H 170.968 -3.48977 -3.62249 0
M  V30 1797 H 170.668 -5.09914 -2.91996 0
M  V30 1798 H 172.192 -4.782 -3.7968 0
M  V30 1799 H 173.606 -5.49352 -1.63968 0
M  V30 1800 H 172.003 -5.9214 -0.974178 0
M  V30 1801 H 173.073 -4.8487 -0.0536168 0
M  V30 1802 N 174.416 0.165178 -1.56732 0
M  V30 1803 C 175.665 0.879143 -1.81532 0
M  V30 1804 C 175.978 1.83144 -0.686842 0
M  V30 1805 O 177.184 2.58823 -0.819944 0
M  V30 1806 C 175.64 1.61388 -3.21686 0
M  V30 1807 C 175.248 0.704904 -4.4242 0
M  V30 1808 C 176.992 2.3157 -3.55774 0
M  V30 1809 C 174.899 1.44022 -5.73595 0
M  V30 1810 H 173.829 0.332033 -0.676957 0
M  V30 1811 H 176.48 0.132008 -1.83025 0
M  V30 1812 H 174.862 2.40599 -3.14529 0
M  V30 1813 H 176.036 -0.0506815 -4.60772 0
M  V30 1814 H 174.351 0.112419 -4.16248 0
M  V30 1815 H 176.948 2.8719 -4.51028 0
M  V30 1816 H 177.291 3.07201 -2.8095 0
M  V30 1817 H 177.824 1.59297 -3.64513 0
M  V30 1818 H 174.563 0.72612 -6.51466 0
M  V30 1819 H 174.083 2.16898 -5.5921 0
M  V30 1820 H 175.762 1.98606 -6.15764 0
M  V30 1821 N 175.894 1.51508 0.433938 0
M  V30 1822 C 177.119 1.68443 1.21003 0
M  V30 1823 C 177.544 0.382636 1.84167 0
M  V30 1824 O 176.902 -0.65755 1.68956 0
M  V30 1825 C 176.95 2.80405 2.26727 0
M  V30 1826 O 176.054 2.44245 3.32292 0
M  V30 1827 H 175.395 0.561536 0.354363 0
M  V30 1828 H 177.925 1.9809 0.512024 0
M  V30 1829 H 177.935 3.0459 2.71457 0
M  V30 1830 H 176.61 3.74867 1.80132 0
M  V30 1831 H 175.187 2.30644 2.93015 0
M  V30 1832 N 177.372 -0.689602 1.41712 0
M  V30 1833 C 178.619 -1.44966 1.4139 0
M  V30 1834 C 178.947 -1.94484 0.025105 0
M  V30 1835 O 178.202 -1.70307 -0.964048 0
M  V30 1836 C 178.501 -2.67298 2.37247 0
M  V30 1837 C 178.167 -2.36405 3.83958 0
M  V30 1838 C 176.829 -2.27691 4.23923 0
M  V30 1839 C 179.181 -2.11043 4.76561 0
M  V30 1840 C 176.509 -1.91719 5.54492 0
M  V30 1841 C 178.861 -1.76578 6.07456 0
M  V30 1842 C 177.525 -1.66363 6.46436 0
M  V30 1843 H 176.795 -0.53047 0.517381 0
M  V30 1844 H 179.442 -0.787655 1.74552 0
M  V30 1845 H 177.747 -3.38461 1.9736 0
M  V30 1846 H 179.444 -3.25452 2.34269 0
M  V30 1847 H 176.034 -2.44085 3.52308 0
M  V30 1848 H 180.218 -2.16717 4.46483 0
M  V30 1849 H 175.474 -1.82367 5.83568 0
M  V30 1850 H 179.648 -1.55974 6.78708 0
M  V30 1851 H 177.275 -1.38258 7.47522 0
M  V30 1852 N 178.85 -1.27639 -0.924453 0
M  V30 1853 C 180.127 -1.04887 -1.651 0
M  V30 1854 C 180.507 0.415327 -2.06974 0
M  V30 1855 O 179.855 1.39923 -1.80648 0
M  V30 1856 C 180.065 -2.01348 -2.85061 0
M  V30 1857 C 181.413 -2.30899 -3.56329 0
M  V30 1858 O 182.437 -1.99348 -2.95193 0
M  V30 1859 O 181.296 -2.84699 -4.66485 0
M  V30 1860 H 178.39 -0.400083 -0.723784 0
M  V30 1861 H 180.936 -1.38916 -0.974703 0
M  V30 1862 H 179.708 -3.0008 -2.51133 0
M  V30 1863 H 179.331 -1.679 -3.6041 0
M  V30 1864 N 180.328 1.1314 -1.09713 0
M  V30 1865 C 181.744 1.36477 -0.827423 0
M  V30 1866 C 181.944 1.93654 0.556817 0
M  V30 1867 O 181 2.15791 1.31112 0
M  V30 1868 C 182.313 2.31334 -1.92106 0
M  V30 1869 C 183.861 2.44943 -1.94864 0
M  V30 1870 C 184.336 3.4311 -3.0338 0
M  V30 1871 N 185.827 3.50662 -3.02639 0
M  V30 1872 C 186.562 4.2651 -3.83246 0
M  V30 1873 N 186.058 5.05485 -4.73768 0
M  V30 1874 N 187.851 4.2184 -3.71493 0
M  V30 1875 H 180.002 0.743807 -1.9895 0
M  V30 1876 H 182.265 0.389823 -0.864143 0
M  V30 1877 H 181.971 1.96483 -2.91698 0
M  V30 1878 H 181.845 3.31381 -1.80184 0
M  V30 1879 H 184.232 2.79079 -0.959099 0
M  V30 1880 H 184.313 1.4481 -2.10864 0
M  V30 1881 H 183.957 3.09704 -4.02549 0
M  V30 1882 H 183.887 4.43055 -2.84622 0
M  V30 1883 H 186.378 2.94315 -2.37039 0
M  V30 1884 H 186.691 5.60675 -5.3185 0
M  V30 1885 H 185.036 5.04708 -4.77802 0
M  V30 1886 H 188.227 3.5922 -3.00131 0
M  V30 1887 H 188.4 4.80697 -4.3455 0
M  V30 1888 N 181.806 0.884767 1.30421 0
M  V30 1889 C 183.036 0.517293 2.00019 0
M  V30 1890 C 183.444 -0.898632 1.66497 0
M  V30 1891 O 182.787 -1.60245 0.898181 0
M  V30 1892 C 182.849 0.612025 3.54252 0
M  V30 1893 C 182.513 1.99222 4.1129 0
M  V30 1894 C 183.51 2.9616 4.273 0
M  V30 1895 C 181.195 2.29755 4.46674 0
M  V30 1896 C 183.189 4.21764 4.77906 0
M  V30 1897 C 180.876 3.55606 4.96979 0
M  V30 1898 C 181.874 4.51425 5.12547 0
M  V30 1899 O 181.562 5.75043 5.61766 0
M  V30 1900 H 181.294 0.198529 0.64619 0
M  V30 1901 H 183.848 1.1919 1.67281 0
M  V30 1902 H 182.078 -0.119561 3.86515 0
M  V30 1903 H 183.767 0.255859 4.05093 0
M  V30 1904 H 184.533 2.73882 4.00267 0
M  V30 1905 H 180.412 1.55942 4.33824 0
M  V30 1906 H 183.956 4.96561 4.89972 0
M  V30 1907 H 179.853 3.7772 5.23448 0
M  V30 1908 H 180.621 5.77422 5.80109 0
M  V30 1909 N 183.284 -1.43765 0.645699 0
M  V30 1910 C 184.531 -2.01898 0.15604 0
M  V30 1911 C 184.859 -1.50887 -1.22733 0
M  V30 1912 O 184.114 -0.689271 -1.8316 0
M  V30 1913 C 184.413 -3.57238 0.107679 0
M  V30 1914 C 184.079 -4.27564 1.43178 0
M  V30 1915 C 182.741 -4.46492 1.7944 0
M  V30 1916 C 185.093 -4.67454 2.30513 0
M  V30 1917 C 182.421 -5.02573 3.02716 0
M  V30 1918 C 184.773 -5.24901 3.53074 0
M  V30 1919 C 183.437 -5.42046 3.89541 0
M  V30 1920 H 182.707 -0.738797 0.057099 0
M  V30 1921 H 185.354 -1.72341 0.834912 0
M  V30 1922 H 183.659 -3.86293 -0.654618 0
M  V30 1923 H 185.356 -3.99965 -0.287938 0
M  V30 1924 H 181.946 -4.13171 1.13963 0
M  V30 1925 H 186.13 -4.5253 2.0379 0
M  V30 1926 H 181.386 -5.14033 3.31028 0
M  V30 1927 H 185.56 -5.54758 4.20971 0
M  V30 1928 H 183.187 -5.85268 4.85145 0
M  V30 1929 N 184.763 -0.387143 -1.52771 0
M  V30 1930 C 185.988 0.198407 -2.06449 0
M  V30 1931 C 186.413 1.39918 -1.25716 0
M  V30 1932 O 185.771 1.79099 -0.281657 0
M  V30 1933 C 185.819 0.548893 -3.56398 0
M  V30 1934 O 184.923 1.64315 -3.78252 0
M  V30 1935 H 184.264 0.0237731 -0.663574 0
M  V30 1936 H 186.794 -0.553989 -1.96957 0
M  V30 1937 H 186.804 0.813812 -3.99801 0
M  V30 1938 H 185.479 -0.329005 -4.14597 0
M  V30 1939 H 184.056 1.37211 -3.46738 0
M  V30 1940 N 186.241 1.57166 -0.116904 0
M  V30 1941 C 187.487 1.95412 0.542405 0
M  V30 1942 C 187.82 1.00019 1.66463 0
M  V30 1943 O 187.095 0.0370346 1.94465 0
M  V30 1944 C 187.378 3.43615 1.07708 0
M  V30 1945 C 187.231 4.49781 -0.0415868 0
M  V30 1946 C 188.55 3.93616 1.96861 0
M  V30 1947 H 185.669 0.710543 0.195696 0
M  V30 1948 H 188.311 1.89027 -0.192038 0
M  V30 1949 H 186.461 3.49187 1.70296 0
M  V30 1950 H 188.133 4.56308 -0.676793 0
M  V30 1951 H 186.376 4.28033 -0.705019 0
M  V30 1952 H 187.047 5.50733 0.373717 0
M  V30 1953 H 189.523 3.90335 1.44146 0
M  V30 1954 H 188.399 4.97838 2.3119 0
M  V30 1955 H 188.66 3.34188 2.89432 0
M  V30 1956 N 187.719 -0.156864 1.56817 0
M  V30 1957 C 188.947 -0.886316 1.86955 0
M  V30 1958 C 189.362 -1.75185 0.703975 0
M  V30 1959 O 188.719 -1.79555 -0.326552 0
M  V30 1960 C 188.77 -1.75117 3.16253 0
M  V30 1961 O 188.491 -0.920537 4.2832 0
M  V30 1962 C 189.992 -2.58905 3.59837 0
M  V30 1963 H 187.212 -0.25678 0.619923 0
M  V30 1964 H 189.756 -0.152615 2.0393 0
M  V30 1965 H 187.911 -2.43805 3.01062 0
M  V30 1966 H 188.325 -1.51337 5.02192 0
M  V30 1967 H 189.799 -3.1518 4.53172 0
M  V30 1968 H 190.276 -3.34472 2.84649 0
M  V30 1969 H 190.882 -1.95526 3.7769 0
M  V30 1970 N 189.197 -1.51736 -0.425897 0
M  V30 1971 C 190.613 -1.40166 -0.76326 0
M  V30 1972 C 190.813 -0.492962 -1.95377 0
M  V30 1973 O 189.869 0.0475815 -2.52455 0
M  V30 1974 C 191.182 -2.82403 -1.03291 0
M  V30 1975 C 192.73 -2.91632 -1.13665 0
M  V30 1976 C 193.205 -4.34801 -1.43916 0
M  V30 1977 N 194.696 -4.3796 -1.50816 0
M  V30 1978 C 195.431 -5.4578 -1.75817 0
M  V30 1979 N 194.927 -6.63744 -1.98534 0
M  V30 1980 N 196.72 -5.33274 -1.77694 0
M  V30 1981 H 188.871 -2.09361 0.358 0
M  V30 1982 H 191.134 -0.942941 0.0978094 0
M  V30 1983 H 190.84 -3.50943 -0.230696 0
M  V30 1984 H 190.714 -3.22428 -1.95754 0
M  V30 1985 H 193.101 -2.23284 -1.92947 0
M  V30 1986 H 193.182 -2.55088 -0.190756 0
M  V30 1987 H 192.826 -5.03703 -0.65157 0
M  V30 1988 H 192.756 -4.68868 -2.39729 0
M  V30 1989 H 195.247 -3.52919 -1.35118 0
M  V30 1990 H 195.56 -7.41704 -2.17013 0
M  V30 1991 H 193.905 -6.66839 -1.95832 0
M  V30 1992 H 197.096 -4.40098 -1.59473 0
M  V30 1993 H 197.269 -6.1738 -1.9684 0
M  V30 1994 N 190.675 0.682077 -1.42076 0
M  V30 1995 C 192.086 1.26246 -1.37546 0
M  V30 1996 C 192.437 1.96092 -0.0651481 0
M  V30 1997 O 191.562 1.99587 0.836297 0
M  V30 1998 C 192.157 2.29594 -2.49143 0
M  V30 1999 C 190.716 2.83175 -2.47969 0
M  V30 2000 C 189.863 1.57395 -2.28303 0
M  V30 2001 H 192.814 0.475937 -1.51395 0
M  V30 2002 H 192.835 3.11175 -2.18976 0
M  V30 2003 H 192.347 1.78729 -3.44496 0
M  V30 2004 H 190.448 3.3818 -1.56413 0
M  V30 2005 H 190.561 3.32687 -3.44755 0
M  V30 2006 H 188.925 1.83699 -1.76428 0
M  V30 2007 H 189.708 1.08507 -3.25701 0
M  V30 2008 N 192.153 1.28127 0.917671 0
M  V30 2009 C 193.083 1.14248 2.03641 0
M  V30 2010 C 194.064 0.0412748 1.7005 0
M  V30 2011 O 195.249 0.217566 1.92977 0
M  V30 2012 C 192.379 0.799431 3.37974 0
M  V30 2013 C 191.333 1.85497 3.85713 0
M  V30 2014 C 190.659 1.36565 5.16966 0
M  V30 2015 C 191.959 3.26085 4.08002 0
M  V30 2016 H 193.653 2.07835 2.15511 0
M  V30 2017 H 191.199 1.00064 1.03553 0
M  V30 2018 H 193.152 0.689114 4.15727 0
M  V30 2019 H 191.876 -0.172145 3.26146 0
M  V30 2020 H 190.535 1.95437 3.10161 0
M  V30 2021 H 190.183 0.383253 5.01538 0
M  V30 2022 H 189.883 2.07143 5.49878 0
M  V30 2023 H 191.407 1.26848 5.97279 0
M  V30 2024 H 192.821 3.19089 4.76293 0
M  V30 2025 H 191.218 3.94462 4.52238 0
M  V30 2026 H 192.288 3.70394 3.12948 0
M  V30 2027 N 193.631 -1.12557 1.10312 0
M  V30 2028 C 194.856 -1.88405 0.867085 0
M  V30 2029 C 195.281 -1.79038 -0.576817 0
M  V30 2030 O 194.639 -1.14439 -1.40618 0
M  V30 2031 C 194.687 -3.3563 1.31851 0
M  V30 2032 O 193.791 -4.09565 0.482734 0
M  V30 2033 H 193.132 -0.585455 0.313271 0
M  V30 2034 H 195.662 -1.42352 1.4696 0
M  V30 2035 H 195.672 -3.86469 1.3079 0
M  V30 2036 H 194.347 -3.41765 2.37001 0
M  V30 2037 H 192.924 -3.68695 0.558448 0
M  V30 2038 N 195.109 -0.891671 -1.2995 0
M  V30 2039 C 196.339 -0.527893 -1.99742 0
M  V30 2040 C 196.747 0.88979 -1.66971 0
M  V30 2041 O 196.09 1.59766 -0.906667 0
M  V30 2042 C 196.152 -0.630804 -3.53922 0
M  V30 2043 C 195.816 -2.01401 -4.10228 0
M  V30 2044 C 196.813 -2.98422 -4.25724 0
M  V30 2045 C 194.498 -2.32121 -4.45449 0
M  V30 2046 C 196.492 -4.24293 -4.75662 0
M  V30 2047 C 194.179 -3.58237 -4.95086 0
M  V30 2048 C 195.177 -4.54137 -5.10146 0
M  V30 2049 O 194.865 -5.78014 -5.58708 0
M  V30 2050 H 194.597 -0.201953 -0.645129 0
M  V30 2051 H 197.151 -1.20076 -1.66646 0
M  V30 2052 H 195.381 0.0990616 -3.86573 0
M  V30 2053 H 197.07 -0.277338 -4.04951 0
M  V30 2054 H 197.836 -2.76001 -3.98809 0
M  V30 2055 H 193.715 -1.5824 -4.32991 0
M  V30 2056 H 197.259 -4.99153 -4.87332 0
M  V30 2057 H 193.156 -3.80491 -5.21437 0
M  V30 2058 H 193.924 -5.8049 -5.77039 0
M  V30 2059 N 196.587 1.43421 -0.653314 0
M  V30 2060 C 198.003 1.56341 -0.320886 0
M  V30 2061 C 198.203 1.63696 1.17499 0
M  V30 2062 O 197.259 1.59208 1.95982 0
M  V30 2063 C 198.572 2.82424 -1.03233 0
M  V30 2064 C 200.12 2.96168 -1.01259 0
M  V30 2065 C 200.595 4.25084 -1.70492 0
M  V30 2066 N 202.086 4.31948 -1.67257 0
M  V30 2067 C 202.821 5.30466 -2.17701 0
M  V30 2068 N 202.317 6.35261 -2.76434 0
M  V30 2069 N 204.11 5.2212 -2.082 0
M  V30 2070 H 196.261 1.3689 -1.62403 0
M  V30 2071 H 198.524 0.657455 -0.682977 0
M  V30 2072 H 198.23 2.83053 -2.08744 0
M  V30 2073 H 198.104 3.72653 -0.583948 0
M  V30 2074 H 200.491 2.9508 0.0341235 0
M  V30 2075 H 200.572 2.07229 -1.49966 0
M  V30 2076 H 200.216 4.26932 -2.7512 0
M  V30 2077 H 200.146 5.1292 -1.19251 0
M  V30 2078 H 202.637 3.56838 -1.24398 0
M  V30 2079 H 202.95 7.06754 -3.12601 0
M  V30 2080 H 201.295 6.35884 -2.80495 0
M  V30 2081 H 204.486 4.39166 -1.62021 0
M  V30 2082 H 204.659 5.98739 -2.47822 0
M  V30 2083 N 198.065 0.39524 1.52563 0
M  V30 2084 C 199.028 -0.425001 2.25225 0
M  V30 2085 C 200.028 -0.985266 1.27079 0
M  V30 2086 O 201.218 -0.866332 1.5113 0
M  V30 2087 C 198.35 -1.59686 3.01186 0
M  V30 2088 H 199.543 0.211233 2.99155 0
M  V30 2089 H 197.096 0.147472 1.55603 0
M  V30 2090 H 197.831 -2.27035 2.31572 0
M  V30 2091 H 197.616 -1.20176 3.73229 0
M  V30 2092 H 199.106 -2.17743 3.5634 0
M  V30 2093 N 199.544 -1.57102 0.125237 0
M  V30 2094 C 200.491 -2.15641 -0.822655 0
M  V30 2095 C 201.461 -1.08313 -1.25927 0
M  V30 2096 O 202.646 -1.36251 -1.33567 0
M  V30 2097 C 199.786 -2.76504 -2.06494 0
M  V30 2098 C 198.899 -3.98158 -1.67612 0
M  V30 2099 C 198.034 -4.47088 -2.86854 0
M  V30 2100 C 197.073 -5.6126 -2.44242 0
M  V30 2101 N 196.21 -6.04905 -3.56419 0
M  V30 2102 H 201.05 -2.96313 -0.316625 0
M  V30 2103 H 198.587 -1.46388 -0.144588 0
M  V30 2104 H 200.545 -3.09925 -2.79289 0
M  V30 2105 H 199.175 -1.98512 -2.54545 0
M  V30 2106 H 198.227 -3.70858 -0.846661 0
M  V30 2107 H 199.539 -4.80934 -1.32301 0
M  V30 2108 H 198.693 -4.82451 -3.67867 0
M  V30 2109 H 197.432 -3.63275 -3.25396 0
M  V30 2110 H 196.437 -5.25495 -1.61663 0
M  V30 2111 H 197.662 -6.46843 -2.0681 0
M  V30 2112 H 195.608 -5.24032 -3.94623 0
M  V30 2113 H 195.525 -6.82552 -3.25051 0
M  V30 2114 H 196.793 -6.44907 -4.37853 0
M  V30 2115 N 201.022 0.148545 -1.56898 0
M  V30 2116 C 202.438 0.501131 -1.51528 0
M  V30 2117 C 202.638 1.83458 -0.833399 0
M  V30 2118 O 201.694 2.49259 -0.40328 0
M  V30 2119 C 203.007 0.512864 -2.96294 0
M  V30 2120 C 204.555 0.598487 -3.07225 0
M  V30 2121 C 205.03 0.640897 -4.53494 0
M  V30 2122 N 206.521 0.703163 -4.57832 0
M  V30 2123 C 207.256 0.756935 -5.68382 0
M  V30 2124 N 206.752 0.770147 -6.88506 0
M  V30 2125 N 208.545 0.797698 -5.56411 0
M  V30 2126 H 200.696 -0.725532 -1.99624 0
M  V30 2127 H 202.959 -0.264358 -0.910395 0
M  V30 2128 H 202.665 -0.398691 -3.49433 0
M  V30 2129 H 202.539 1.35133 -3.52163 0
M  V30 2130 H 204.926 1.50046 -2.54106 0
M  V30 2131 H 205.007 -0.267093 -2.54402 0
M  V30 2132 H 204.651 -0.256915 -5.0725 0
M  V30 2133 H 204.581 1.52295 -5.04097 0
M  V30 2134 H 207.072 0.700314 -3.71354 0
M  V30 2135 H 207.385 0.812983 -7.68512 0
M  V30 2136 H 205.73 0.738049 -6.9107 0
M  V30 2137 H 208.921 0.784535 -4.61479 0
M  V30 2138 H 209.094 0.83614 -6.42583 0
M  V30 2139 N 202.5 1.5196 0.417844 0
M  V30 2140 C 203.728 1.69426 1.18753 0
M  V30 2141 C 204.143 0.399955 1.84515 0
M  V30 2142 O 203.5 -0.623288 1.71527 0
M  V30 2143 C 203.551 2.82375 2.25714 0
M  V30 2144 O 203.272 4.06793 1.62638 0
M  V30 2145 C 204.773 3.11277 3.15628 0
M  V30 2146 H 201.993 0.568031 0.357186 0
M  V30 2147 H 204.537 1.98475 0.49273 0
M  V30 2148 H 202.692 2.5587 2.90877 0
M  V30 2149 H 203.106 4.69667 2.3348 0
M  V30 2150 H 204.58 3.93843 3.86771 0
M  V30 2151 H 205.057 2.24473 3.77503 0
M  V30 2152 H 205.663 3.39515 2.56144 0
M  V30 2153 N 203.978 -0.674533 1.42435 0
M  V30 2154 C 205.389 -1.25514 1.38214 0
M  V30 2155 C 205.74 -1.96055 0.0755464 0
M  V30 2156 O 204.865 -2.00028 -0.8257 0
M  V30 2157 C 205.46 -2.28269 2.50357 0
M  V30 2158 C 204.019 -2.81856 2.49467 0
M  V30 2159 C 203.166 -1.56182 2.29134 0
M  V30 2160 H 206.117 -0.467902 1.51646 0
M  V30 2161 H 206.138 -3.10009 2.20624 0
M  V30 2162 H 205.65 -1.769 3.45439 0
M  V30 2163 H 203.751 -3.37346 1.58204 0
M  V30 2164 H 203.864 -3.30854 3.46515 0
M  V30 2165 H 202.228 -1.82761 1.774 0
M  V30 2166 H 203.011 -1.06778 3.26272 0
M  V30 2167 N 205.456 -1.28612 -0.910864 0
M  V30 2168 C 206.872 -1.06381 -1.18976 0
M  V30 2169 C 207.072 0.191998 -2.00583 0
M  V30 2170 O 206.128 0.892869 -2.36187 0
M  V30 2171 C 207.441 -2.31295 -1.92154 0
M  V30 2172 C 208.989 -2.36503 -2.05025 0
M  V30 2173 C 209.464 -3.61191 -2.81612 0
M  V30 2174 N 210.955 -3.61847 -2.89172 0
M  V30 2175 C 211.69 -4.55004 -3.4894 0
M  V30 2176 N 211.186 -5.58482 -4.09963 0
M  V30 2177 N 212.979 -4.42594 -3.46506 0
M  V30 2178 H 205.13 -2.09221 -0.366094 0
M  V30 2179 H 207.393 -0.921003 -0.224629 0
M  V30 2180 H 207.099 -3.228 -1.39618 0
M  V30 2181 H 206.973 -2.37934 -2.9269 0
M  V30 2182 H 209.36 -1.45494 -2.5674 0
M  V30 2183 H 209.441 -2.33857 -1.03657 0
M  V30 2184 H 209.085 -4.52545 -2.30576 0
M  V30 2185 H 209.015 -3.61092 -3.83302 0
M  V30 2186 H 211.506 -2.87022 -2.45819 0
M  V30 2187 H 211.819 -6.25704 -4.53557 0
M  V30 2188 H 210.164 -5.62305 -4.08459 0
M  V30 2189 H 213.355 -3.60953 -2.98045 0
M  V30 2190 H 213.528 -5.15381 -3.92793 0
M  V30 2191 N 206.934 1.1197 -1.10907 0
M  V30 2192 C 208.35 1.35591 -0.841852 0
M  V30 2193 C 208.55 1.94233 0.536246 0
M  V30 2194 O 207.606 2.1717 1.28816 0
M  V30 2195 C 208.919 2.29284 -1.94549 0
M  V30 2196 C 210.467 2.42862 -1.97451 0
M  V30 2197 C 210.942 3.39873 -3.07002 0
M  V30 2198 N 212.433 3.47433 -3.06341 0
M  V30 2199 C 213.168 4.22421 -3.87748 0
M  V30 2200 N 212.664 5.00432 -4.79103 0
M  V30 2201 N 214.457 4.17876 -3.75946 0
M  V30 2202 H 206.608 0.722664 -1.99728 0
M  V30 2203 H 208.871 0.380635 -0.868229 0
M  V30 2204 H 208.577 1.93378 -2.93765 0
M  V30 2205 H 208.451 3.29452 -1.83688 0
M  V30 2206 H 210.838 2.78046 -0.988645 0
M  V30 2207 H 210.919 1.42566 -2.12388 0
M  V30 2208 H 210.563 3.05417 -4.05811 0
M  V30 2209 H 210.493 4.40011 -2.89306 0
M  V30 2210 H 212.984 2.91784 -2.40147 0
M  V30 2211 H 213.297 5.55002 -5.37766 0
M  V30 2212 H 211.642 4.99612 -4.83128 0
M  V30 2213 H 214.833 3.56016 -3.03924 0
M  V30 2214 H 215.006 4.76061 -4.39624 0
M  V30 2215 N 208.412 0.89855 1.29475 0
M  V30 2216 C 209.375 0.380272 2.26023 0
M  V30 2217 C 210.375 -0.484891 1.53315 0
M  V30 2218 O 211.565 -0.290108 1.71767 0
M  V30 2219 C 208.697 -0.45651 3.3783 0
M  V30 2220 H 209.89 1.23295 2.73383 0
M  V30 2221 H 207.443 0.676589 1.40897 0
M  V30 2222 H 208.178 -1.32922 2.95808 0
M  V30 2223 H 207.963 0.163393 3.91759 0
M  V30 2224 H 209.453 -0.810466 4.0966 0
M  V30 2225 N 209.89 -1.43072 0.660911 0
M  V30 2226 C 210.853 -2.29194 -0.0166406 0
M  V30 2227 C 211.853 -1.42609 -0.742912 0
M  V30 2228 O 213.043 -1.64155 -0.583004 0
M  V30 2229 C 210.175 -3.24831 -1.0343 0
M  V30 2230 H 211.368 -2.90596 0.741208 0
M  V30 2231 H 208.921 -1.5048 0.422532 0
M  V30 2232 H 209.656 -2.68339 -1.82111 0
M  V30 2233 H 209.441 -3.88676 -0.517082 0
M  V30 2234 H 210.931 -3.89451 -1.50723 0
M  V30 2235 N 211.368 -0.403325 -1.52352 0
M  V30 2236 C 212.298 0.416205 -2.29761 0
M  V30 2237 C 213.279 1.05123 -1.33728 0
M  V30 2238 O 214.464 1.06134 -1.62632 0
M  V30 2239 C 211.594 1.53624 -3.11475 0
M  V30 2240 C 210.548 1.02653 -4.15507 0
M  V30 2241 C 209.874 2.23971 -4.85532 0
M  V30 2242 C 211.174 0.08463 -5.22231 0
M  V30 2243 H 212.868 -0.229701 -2.98518 0
M  V30 2244 H 210.414 -0.111913 -1.43564 0
M  V30 2245 H 212.367 2.1165 -3.64393 0
M  V30 2246 H 211.091 2.20994 -2.40477 0
M  V30 2247 H 209.75 0.46871 -3.63591 0
M  V30 2248 H 209.398 2.89883 -4.11068 0
M  V30 2249 H 209.098 1.90521 -5.55856 0
M  V30 2250 H 210.622 2.82614 -5.41259 0
M  V30 2251 H 212.036 0.573509 -5.70424 0
M  V30 2252 H 210.433 -0.160783 -5.99885 0
M  V30 2253 H 211.503 -0.86237 -4.7717 0
M  V30 2254 N 212.846 1.57033 -0.133567 0
M  V30 2255 C 213.779 2.11824 0.848872 0
M  V30 2256 C 214.757 1.03833 1.2513 0
M  V30 2257 O 215.941 1.31579 1.34978 0
M  V30 2258 C 213.068 2.62692 2.138 0
M  V30 2259 C 212.114 3.82705 1.88253 0
M  V30 2260 S 212.947 5.2438 1.08563 0
M  V30 2261 C 214.103 5.78627 2.38624 0
M  V30 2262 H 214.336 2.94824 0.38289 0
M  V30 2263 H 211.869 1.5419 0.0804796 0
M  V30 2264 H 213.827 2.92652 2.87863 0
M  V30 2265 H 212.488 1.79847 2.57515 0
M  V30 2266 H 211.681 4.16496 2.83809 0
M  V30 2267 H 211.283 3.53437 1.22305 0
M  V30 2268 H 213.575 5.8924 3.34369 0
M  V30 2269 H 214.518 6.76443 2.09358 0
M  V30 2270 H 214.926 5.06783 2.48658 0
M  V30 2271 N 214.325 -0.140222 1.56975 0
M  V30 2272 C 215.574 -0.850152 1.82908 0
M  V30 2273 C 215.887 -1.82028 0.715892 0
M  V30 2274 O 217.093 -2.57485 0.861016 0
M  V30 2275 C 215.549 -1.5625 3.24213 0
M  V30 2276 C 215.157 -0.63443 4.43485 0
M  V30 2277 C 216.901 -2.25881 3.59413 0
M  V30 2278 C 214.808 -1.34879 5.75814 0
M  V30 2279 H 213.738 -0.321221 0.682153 0
M  V30 2280 H 216.389 -0.102874 1.83211 0
M  V30 2281 H 214.771 -2.35565 3.18316 0
M  V30 2282 H 215.945 0.12398 4.60633 0
M  V30 2283 H 214.26 -0.0461836 4.16374 0
M  V30 2284 H 216.857 -2.79978 4.5554 0
M  V30 2285 H 217.2 -3.02693 2.85802 0
M  V30 2286 H 217.733 -1.53477 3.67001 0
M  V30 2287 H 214.472 -0.622385 6.52539 0
M  V30 2288 H 213.992 -2.07974 5.6259 0
M  V30 2289 H 215.671 -1.88784 6.18845 0
M  V30 2290 N 215.803 -1.52179 -0.40978 0
M  V30 2291 C 217.051 -1.65878 -1.15451 0
M  V30 2292 C 217.372 -0.390771 -1.91044 0
M  V30 2293 O 216.642 0.594323 -1.86667 0
M  V30 2294 H 215.222 -0.611405 -0.429177 0
M  V30 2295 H 217.884 -1.89219 -0.467134 0
M  V30 2296 H 216.98 -2.49954 -1.86894 0
M  V30 2297 N 217.281 0.66697 -1.42791 0
M  V30 2298 C 218.211 1.79218 -1.49677 0
M  V30 2299 C 219.192 1.66405 -0.352623 0
M  V30 2300 O 220.377 1.85708 -0.567993 0
M  V30 2301 C 217.507 3.17565 -1.40605 0
M  V30 2302 C 216.461 3.45124 -2.53127 0
M  V30 2303 C 215.787 4.83127 -2.29112 0
M  V30 2304 C 217.087 3.41236 -3.95418 0
M  V30 2305 H 218.781 1.73713 -2.43853 0
M  V30 2306 H 216.327 0.83432 -1.17367 0
M  V30 2307 H 218.28 3.96022 -1.44029 0
M  V30 2308 H 217.004 3.23767 -0.429271 0
M  V30 2309 H 215.663 2.69031 -2.49034 0
M  V30 2310 H 215.311 4.85988 -1.29709 0
M  V30 2311 H 215.011 5.02528 -3.04531 0
M  V30 2312 H 216.535 5.63859 -2.34297 0
M  V30 2313 H 217.949 4.09651 -4.01073 0
M  V30 2314 H 216.346 3.72173 -4.70752 0
M  V30 2315 H 217.416 2.39665 -4.21532 0
M  V30 2316 N 218.759 1.29093 0.90403 0
M  V30 2317 C 219.722 1.1386 1.98919 0
M  V30 2318 C 220.722 0.0753457 1.60623 0
M  V30 2319 O 221.912 0.321931 1.71199 0
M  V30 2320 C 219.044 0.740198 3.32767 0
M  V30 2321 H 220.237 2.10246 2.13861 0
M  V30 2322 H 217.79 1.12218 1.08797 0
M  V30 2323 H 218.525 -0.223997 3.23525 0
M  V30 2324 H 218.31 1.50838 3.61926 0
M  V30 2325 H 219.8 0.656546 4.12407 0
M  V30 2326 N 220.237 -1.11381 1.11499 0
M  V30 2327 C 221.483 -1.83597 0.875423 0
M  V30 2328 C 221.838 -1.83048 -0.592555 0
M  V30 2329 O 221.131 -1.27304 -1.43193 0
M  V30 2330 C 221.325 -3.30026 1.37177 0
M  V30 2331 C 221.154 -3.44837 2.88647 0
M  V30 2332 C 219.924 -3.57825 3.56776 0
M  V30 2333 C 222.122 -3.3907 3.86699 0
M  V30 2334 N 220.104 -3.61113 4.96458 0
M  V30 2335 C 221.475 -3.48986 5.12454 0
M  V30 2336 C 223.53 -3.22605 3.7925 0
M  V30 2337 C 222.233 -3.44135 6.31636 0
M  V30 2338 C 224.259 -3.19072 4.97943 0
M  V30 2339 C 223.621 -3.29559 6.22551 0
M  V30 2340 H 219.72 -0.687044 0.37349 0
M  V30 2341 H 222.304 -1.33265 1.41946 0
M  V30 2342 H 220.475 -3.78874 0.854919 0
M  V30 2343 H 222.207 -3.90153 1.07529 0
M  V30 2344 H 218.962 -3.60414 3.07244 0
M  V30 2345 H 219.386 -3.66394 5.69284 0
M  V30 2346 H 224.028 -3.13382 2.83816 0
M  V30 2347 H 221.746 -3.52126 7.27347 0
M  V30 2348 H 225.332 -3.07498 4.93899 0
M  V30 2349 H 224.212 -3.26815 7.12855 0
M  V30 2350 N 221.715 -0.905404 -1.28997 0
M  V30 2351 C 222.645 -0.404212 -2.29975 0
M  V30 2352 C 223.626 0.523784 -1.61835 0
M  V30 2353 O 224.811 0.433298 -1.89304 0
M  V30 2354 C 221.941 0.364042 -3.45387 0
M  V30 2355 C 220.895 -0.474048 -4.25367 0
M  V30 2356 C 220.221 0.422045 -5.33032 0
M  V30 2357 C 221.521 -1.72696 -4.92923 0
M  V30 2358 H 223.215 -1.24807 -2.72146 0
M  V30 2359 H 220.761 -0.601585 -1.30832 0
M  V30 2360 H 222.714 0.725447 -4.15109 0
M  V30 2361 H 221.438 1.24174 -3.02074 0
M  V30 2362 H 220.097 -0.81786 -3.57361 0
M  V30 2363 H 219.745 1.29804 -4.85963 0
M  V30 2364 H 219.445 -0.135057 -5.87445 0
M  V30 2365 H 220.969 0.779517 -6.05604 0
M  V30 2366 H 222.383 -1.43495 -5.55051 0
M  V30 2367 H 220.78 -2.22582 -5.57295 0
M  V30 2368 H 221.85 -2.45964 -4.17887 0
M  V30 2369 N 223.193 1.4272 -0.668489 0
M  V30 2370 C 224.439 2.01923 -0.188419 0
M  V30 2371 C 224.772 1.52704 1.19979 0
M  V30 2372 O 224.047 0.726566 1.8042 0
M  V30 2373 C 224.33 3.59451 -0.216085 0
M  V30 2374 C 224.183 4.18864 -1.6393 0
M  V30 2375 C 225.502 4.37903 0.439179 0
M  V30 2376 H 222.621 0.733674 -0.0699412 0
M  V30 2377 H 225.263 1.69822 -0.852076 0
M  V30 2378 H 223.413 3.86929 0.349012 0
M  V30 2379 H 225.085 4.02362 -2.25616 0
M  V30 2380 H 223.328 3.74933 -2.18193 0
M  V30 2381 H 223.999 5.27987 -1.61039 0
M  V30 2382 H 226.475 4.16079 -0.0417878 0
M  V30 2383 H 225.351 5.47519 0.389157 0
M  V30 2384 H 225.612 4.15303 1.51577 0
M  V30 2385 N 224.671 0.411399 1.52136 0
M  V30 2386 C 225.896 -0.165538 2.06738 0
M  V30 2387 C 226.321 -1.379 1.27926 0
M  V30 2388 O 225.679 -1.78628 0.310114 0
M  V30 2389 C 225.727 -0.492124 3.57226 0
M  V30 2390 O 224.831 -1.58276 3.80818 0
M  V30 2391 H 224.172 -0.0132132 0.663869 0
M  V30 2392 H 226.702 0.585253 1.96051 0
M  V30 2393 H 226.712 -0.750104 4.01045 0
M  V30 2394 H 225.387 0.394922 4.14021 0
M  V30 2395 H 223.964 -1.31677 3.48877 0
M  V30 2396 N 226.149 -1.5696 0.141893 0
M  V30 2397 C 227.396 -1.9596 -0.510492 0
M  V30 2398 C 227.724 -1.02648 -1.65208 0
M  V30 2399 O 226.979 -0.0546947 -1.95624 0
M  V30 2400 C 227.278 -3.41242 -1.06249 0
M  V30 2401 C 226.944 -4.50882 -0.0398791 0
M  V30 2402 C 225.606 -4.80595 0.241247 0
M  V30 2403 C 227.958 -5.17058 0.65578 0
M  V30 2404 C 225.286 -5.73792 1.22393 0
M  V30 2405 C 227.638 -6.11313 1.62724 0
M  V30 2406 C 226.302 -6.39407 1.91612 0
M  V30 2407 H 225.572 -0.717068 -0.186802 0
M  V30 2408 H 228.219 -1.90142 0.227643 0
M  V30 2409 H 226.524 -3.43866 -1.87785 0
M  V30 2410 H 228.221 -3.68742 -1.57576 0
M  V30 2411 H 224.811 -4.27754 -0.269174 0
M  V30 2412 H 228.995 -4.94239 0.451779 0
M  V30 2413 H 224.251 -5.93853 1.45424 0
M  V30 2414 H 228.425 -6.61668 2.17183 0
M  V30 2415 H 226.052 -7.11427 2.6791 0
M  V30 2416 N 227.627 0.131896 -1.57047 0
M  V30 2417 C 228.873 0.843179 -1.84441 0
M  V30 2418 C 229.206 1.80129 -0.725749 0
M  V30 2419 O 228.481 1.92624 0.269469 0
M  V30 2420 C 228.764 1.60442 -3.22382 0
M  V30 2421 C 228.617 0.666782 -4.4483 0
M  V30 2422 C 229.936 2.56354 -3.5773 0
M  V30 2423 H 227.055 0.305081 -0.670891 0
M  V30 2424 H 229.697 0.107839 -1.89694 0
M  V30 2425 H 227.847 2.23128 -3.18035 0
M  V30 2426 H 229.519 0.0497646 -4.61273 0
M  V30 2427 H 227.762 -0.022609 -4.33794 0
M  V30 2428 H 228.433 1.23579 -5.37989 0
M  V30 2429 H 230.909 2.0378 -3.62785 0
M  V30 2430 H 229.785 3.06657 -4.5525 0
M  V30 2431 H 230.046 3.38419 -2.84473 0
M  V30 2432 N 229.106 1.52395 0.401703 0
M  V30 2433 C 230.036 1.79231 1.49661 0
M  V30 2434 C 231.017 0.643654 1.57452 0
M  V30 2435 O 232.202 0.889989 1.72606 0
M  V30 2436 C 229.332 1.94971 2.87409 0
M  V30 2437 C 228.286 3.10604 2.94465 0
M  V30 2438 C 227.612 3.11577 4.34538 0
M  V30 2439 C 228.912 4.49921 2.6527 0
M  V30 2440 H 230.606 2.70917 1.27454 0
M  V30 2441 H 228.152 1.30362 0.6117 0
M  V30 2442 H 230.105 2.12328 3.63999 0
M  V30 2443 H 228.829 0.999632 3.10926 0
M  V30 2444 H 227.488 2.93009 2.20321 0
M  V30 2445 H 227.136 2.14277 4.55076 0
M  V30 2446 H 226.836 3.89247 4.40183 0
M  V30 2447 H 228.36 3.31073 5.13053 0
M  V30 2448 H 229.774 4.67683 3.31581 0
M  V30 2449 H 228.171 5.29564 2.82281 0
M  V30 2450 H 229.241 4.57507 1.60671 0
M  V30 2451 N 230.584 -0.659388 1.43143 0
M  V30 2452 C 231.83 -1.41984 1.45644 0
M  V30 2453 C 232.185 -1.92245 0.0771718 0
M  V30 2454 O 231.478 -1.68976 -0.903205 0
M  V30 2455 C 231.672 -2.62206 2.42864 0
M  V30 2456 C 231.501 -2.23711 3.90107 0
M  V30 2457 C 230.271 -2.12332 4.58523 0
M  V30 2458 C 232.469 -1.84384 4.80112 0
M  V30 2459 N 230.451 -1.67102 5.9072 0
M  V30 2460 C 231.822 -1.5019 6.01534 0
M  V30 2461 C 233.877 -1.71512 4.67427 0
M  V30 2462 C 232.58 -1.04414 7.11681 0
M  V30 2463 C 234.606 -1.27142 5.77572 0
M  V30 2464 C 233.968 -0.938808 6.98116 0
M  V30 2465 H 230.067 -0.515448 0.588079 0
M  V30 2466 H 232.651 -0.759409 1.79279 0
M  V30 2467 H 230.822 -3.25917 2.11265 0
M  V30 2468 H 232.554 -3.28877 2.35843 0
M  V30 2469 H 229.309 -2.31893 4.12944 0
M  V30 2470 H 229.733 -1.46866 6.60878 0
M  V30 2471 H 234.375 -1.95868 3.74694 0
M  V30 2472 H 232.093 -0.788061 8.04248 0
M  V30 2473 H 235.679 -1.17681 5.69774 0
M  V30 2474 H 234.559 -0.6007 7.81896 0
M  V30 2475 N 232.062 -1.29571 -0.897171 0
M  V30 2476 C 233.025 -1.14913 -1.98312 0
M  V30 2477 C 234.025 -0.0838629 -1.60581 0
M  V30 2478 O 235.215 -0.331006 -1.71026 0
M  V30 2479 C 232.347 -0.757835 -3.3237 0
M  V30 2480 H 233.54 -2.11377 -2.12743 0
M  V30 2481 H 231.093 -1.12793 -1.08201 0
M  V30 2482 H 231.828 0.206837 -3.2364 0
M  V30 2483 H 231.613 -1.52755 -3.61121 0
M  V30 2484 H 233.103 -0.678408 -4.12053 0
M  V30 2485 N 233.54 1.10788 -1.12088 0
M  V30 2486 C 234.951 1.64181 -0.88891 0
M  V30 2487 C 235.302 1.87508 0.577498 0
M  V30 2488 O 234.427 1.61434 1.44112 0
M  V30 2489 C 235.022 2.98257 -1.60712 0
M  V30 2490 C 233.581 3.4853 -1.42139 0
M  V30 2491 C 232.728 2.23208 -1.6454 0
M  V30 2492 H 235.679 0.943368 -1.27618 0
M  V30 2493 H 235.7 3.65552 -1.05604 0
M  V30 2494 H 235.212 2.81246 -2.67436 0
M  V30 2495 H 233.313 3.70692 -0.376552 0
M  V30 2496 H 233.426 4.26882 -2.17505 0
M  V30 2497 H 231.79 2.31169 -1.06925 0
M  V30 2498 H 232.573 2.08733 -2.72554 0
M  V30 2499 N 235.018 0.912232 1.28515 0
M  V30 2500 C 235.981 0.404223 2.25607 0
M  V30 2501 C 236.981 -0.468602 1.53821 0
M  V30 2502 O 238.171 -0.271873 1.72065 0
M  V30 2503 C 235.303 -0.420653 3.38295 0
M  V30 2504 H 236.496 1.26188 2.7206 0
M  V30 2505 H 234.049 0.691495 1.40171 0
M  V30 2506 H 234.784 -1.29777 2.97201 0
M  V30 2507 H 234.569 0.204935 3.91564 0
M  V30 2508 H 236.059 -0.766971 4.10496 0
M  V30 2509 N 236.496 -1.42363 0.676048 0
M  V30 2510 C 237.745 -2.00745 0.196037 0
M  V30 2511 C 238.058 -1.54083 -1.20489 0
M  V30 2512 O 239.264 -2.04891 -1.78134 0
M  V30 2513 C 237.72 -3.58651 0.299616 0
M  V30 2514 C 237.328 -4.143 1.70468 0
M  V30 2515 C 239.072 -4.24326 -0.121619 0
M  V30 2516 C 236.979 -5.64574 1.76096 0
M  V30 2517 H 235.909 -0.750787 0.0695301 0
M  V30 2518 H 238.56 -1.63072 0.841412 0
M  V30 2519 H 236.942 -3.93833 -0.413673 0
M  V30 2520 H 238.116 -3.90575 2.44515 0
M  V30 2521 H 236.431 -3.61081 2.07387 0
M  V30 2522 H 239.028 -5.34607 -0.0997362 0
M  V30 2523 H 239.371 -3.99897 -1.15708 0
M  V30 2524 H 239.904 -3.94108 0.540706 0
M  V30 2525 H 236.643 -5.93804 2.77628 0
M  V30 2526 H 236.163 -5.90286 1.06406 0
M  V30 2527 H 237.842 -6.29013 1.51496 0
M  V30 2528 N 237.974 -0.419461 -1.51915 0
M  V30 2529 C 238.904 0.391813 -2.30189 0
M  V30 2530 C 239.885 1.03699 -1.34836 0
M  V30 2531 O 241.07 1.04403 -1.63748 0
M  V30 2532 C 238.2 1.50312 -3.13087 0
M  V30 2533 C 237.154 0.9824 -4.16573 0
M  V30 2534 C 236.48 2.18809 -4.8788 0
M  V30 2535 C 237.78 0.0292356 -5.22292 0
M  V30 2536 H 239.474 -0.26135 -2.98257 0
M  V30 2537 H 237.02 -0.127134 -1.43438 0
M  V30 2538 H 238.973 2.07773 -3.66617 0
M  V30 2539 H 237.697 2.18431 -2.42807 0
M  V30 2540 H 236.356 0.430119 -3.64068 0
M  V30 2541 H 236.004 2.85507 -4.14119 0
M  V30 2542 H 235.704 1.84615 -5.57845 0
M  V30 2543 H 237.228 2.76858 -5.44226 0
M  V30 2544 H 238.642 0.512976 -5.71 0
M  V30 2545 H 237.039 -0.2244 -5.9968 0
M  V30 2546 H 238.109 -0.912931 -4.76228 0
M  V30 2547 N 239.452 1.56882 -0.150215 0
M  V30 2548 C 240.699 1.96228 0.500093 0
M  V30 2549 C 241.027 1.03522 1.64661 0
M  V30 2550 O 240.282 0.0650683 1.95592 0
M  V30 2551 C 240.581 3.41801 1.04437 0
M  V30 2552 C 240.247 4.50897 0.0159671 0
M  V30 2553 C 238.909 4.8046 -0.266731 0
M  V30 2554 C 241.261 5.16703 -0.683192 0
M  V30 2555 C 238.589 5.73135 -1.25434 0
M  V30 2556 C 240.941 6.10441 -1.65964 0
M  V30 2557 C 239.605 6.38382 -1.95 0
M  V30 2558 H 238.875 0.718048 0.182997 0
M  V30 2559 H 241.522 1.90019 -0.237724 0
M  V30 2560 H 239.827 3.44857 1.85959 0
M  V30 2561 H 241.524 3.69573 1.55618 0
M  V30 2562 H 238.114 4.27891 0.246485 0
M  V30 2563 H 242.298 4.93993 -0.477983 0
M  V30 2564 H 237.554 5.93074 -1.48571 0
M  V30 2565 H 241.728 6.60507 -2.20689 0
M  V30 2566 H 239.355 7.09996 -2.71679 0
M  V30 2567 N 240.93 -0.123565 1.57115 0
M  V30 2568 C 242.176 -0.828428 1.85765 0
M  V30 2569 C 242.531 -1.77709 0.737371 0
M  V30 2570 O 241.824 -1.89787 -0.262978 0
M  V30 2571 C 242.018 -1.62016 3.18568 0
M  V30 2572 C 241.847 -0.749663 4.43407 0
M  V30 2573 C 240.617 -0.406251 5.03664 0
M  V30 2574 C 242.815 -0.0693505 5.14253 0
M  V30 2575 N 240.797 0.475389 6.12057 0
M  V30 2576 C 242.168 0.671474 6.16353 0
M  V30 2577 C 244.223 0.00754393 4.97899 0
M  V30 2578 C 242.926 1.48197 7.03868 0
M  V30 2579 C 244.952 0.804845 5.85898 0
M  V30 2580 C 244.314 1.53388 6.87497 0
M  V30 2581 H 240.413 -0.280219 0.73007 0
M  V30 2582 H 242.997 -0.0924183 1.94481 0
M  V30 2583 H 241.168 -2.32724 3.10957 0
M  V30 2584 H 242.9 -2.27 3.35042 0
M  V30 2585 H 239.655 -0.747446 4.67665 0
M  V30 2586 H 240.079 0.907924 6.70884 0
M  V30 2587 H 244.721 -0.541741 4.19315 0
M  V30 2588 H 242.439 2.04242 7.81864 0
M  V30 2589 H 246.025 0.866642 5.75309 0
M  V30 2590 H 244.905 2.1409 7.5441 0
M  V30 2591 N 242.408 -1.52605 -0.393616 0
M  V30 2592 C 243.34 -1.73303 -1.49995 0
M  V30 2593 C 244.353 -0.613473 -1.50799 0
M  V30 2594 O 245.542 -0.889049 -1.54784 0
M  V30 2595 C 242.642 -1.77245 -2.88855 0
M  V30 2596 C 241.815 -3.06483 -3.12069 0
M  V30 2597 C 240.874 -3.02033 -4.30886 0
M  V30 2598 O 239.9 -3.75907 -4.27414 0
M  V30 2599 N 241.102 -2.20897 -5.36828 0
M  V30 2600 H 243.867 -2.68756 -1.32629 0
M  V30 2601 H 241.428 -1.51036 -0.583083 0
M  V30 2602 H 243.42 -1.7178 -3.66434 0
M  V30 2603 H 241.99 -0.891993 -2.99603 0
M  V30 2604 H 241.21 -3.25474 -2.22396 0
M  V30 2605 H 242.498 -3.91947 -3.2443 0
M  V30 2606 H 241.896 -1.60336 -5.42502 0
M  V30 2607 H 240.453 -2.21275 -6.13091 0
M  V30 2608 N 243.887 0.651787 -1.4349 0
M  V30 2609 C 245.117 1.43728 -1.48411 0
M  V30 2610 C 245.525 1.8893 -0.10103 0
M  V30 2611 O 244.868 1.60182 0.899307 0
M  V30 2612 C 244.93 2.70411 -2.36893 0
M  V30 2613 C 244.594 2.4714 -3.8441 0
M  V30 2614 C 245.591 2.10271 -4.75481 0
M  V30 2615 C 243.276 2.6142 -4.28912 0
M  V30 2616 C 245.27 1.87982 -6.0905 0
M  V30 2617 C 242.957 2.38746 -5.62533 0
M  V30 2618 C 243.955 2.02083 -6.5242 0
M  V30 2619 O 243.643 1.79647 -7.8357 0
M  V30 2620 H 243.375 0.447962 -0.506267 0
M  V30 2621 H 245.929 0.80624 -1.88915 0
M  V30 2622 H 244.159 3.36079 -1.91278 0
M  V30 2623 H 245.848 3.32364 -2.33 0
M  V30 2624 H 246.614 1.98814 -4.42378 0
M  V30 2625 H 242.493 2.88931 -3.59222 0
M  V30 2626 H 246.037 1.5929 -6.7917 0
M  V30 2627 H 241.934 2.49806 -5.95203 0
M  V30 2628 H 242.702 1.9406 -7.95162 0
M  V30 2629 N 245.365 1.30045 0.890287 0
M  V30 2630 C 246.295 1.18541 2.01172 0
M  V30 2631 C 247.276 0.0773356 1.69924 0
M  V30 2632 O 248.461 0.25845 1.92473 0
M  V30 2633 C 245.591 0.870941 3.36202 0
M  V30 2634 C 244.545 1.93637 3.81692 0
M  V30 2635 C 243.871 1.475 5.13953 0
M  V30 2636 C 245.171 3.34666 4.00994 0
M  V30 2637 H 246.865 2.12359 2.11054 0
M  V30 2638 H 244.411 1.02238 1.01407 0
M  V30 2639 H 246.364 0.777141 4.14172 0
M  V30 2640 H 245.088 -0.102926 3.26438 0
M  V30 2641 H 243.747 2.01972 3.05946 0
M  V30 2642 H 243.395 0.489551 5.00612 0
M  V30 2643 H 243.095 2.1876 5.4536 0
M  V30 2644 H 244.619 1.39489 5.94454 0
M  V30 2645 H 246.033 3.2912 4.69417 0
M  V30 2646 H 244.43 4.03966 4.43769 0
M  V30 2647 H 245.5 3.76949 3.05021 0
M  V30 2648 N 246.843 -1.10192 1.12674 0
M  V30 2649 C 248.089 -1.82475 0.884915 0
M  V30 2650 C 248.422 -1.85093 -0.58773 0
M  V30 2651 O 247.697 -1.3134 -1.43457 0
M  V30 2652 C 247.98 -3.29018 1.46353 0
M  V30 2653 C 247.833 -3.34718 3.00473 0
M  V30 2654 C 249.152 -4.25473 1.12519 0
M  V30 2655 H 246.271 -0.662492 0.322915 0
M  V30 2656 H 248.913 -1.2913 1.39375 0
M  V30 2657 H 247.063 -3.74576 1.03077 0
M  V30 2658 H 248.735 -2.97622 3.52447 0
M  V30 2659 H 246.978 -2.74541 3.35872 0
M  V30 2660 H 247.649 -4.37918 3.36053 0
M  V30 2661 H 250.125 -3.88161 1.499 0
M  V30 2662 H 249.001 -5.26365 1.55663 0
M  V30 2663 H 249.262 -4.42084 0.0377407 0
M  V30 2664 N 248.321 -0.919034 -1.28029 0
M  V30 2665 C 249.569 -0.553838 -1.94363 0
M  V30 2666 C 249.89 0.906357 -1.72656 0
M  V30 2667 O 249.16 1.64143 -1.0693 0
M  V30 2668 H 247.74 -0.201834 -0.719216 0
M  V30 2669 H 250.402 -1.16954 -1.55909 0
M  V30 2670 H 249.498 -0.752758 -3.02886 0
M  V30 2671 N 249.799 1.42003 -0.683588 0
M  V30 2672 C 250.709 2.34597 -0.0109075 0
M  V30 2673 C 251.725 1.55576 0.779245 0
M  V30 2674 O 252.901 1.88107 0.719555 0
M  V30 2675 C 249.966 3.34199 0.922588 0
M  V30 2676 C 249.027 4.29115 0.125984 0
M  V30 2677 C 248.26 5.23959 1.01502 0
M  V30 2678 O 248.483 5.23952 2.25456 0
M  V30 2679 O 247.417 6.00053 0.47111 0
M  V30 2680 H 251.243 2.93675 -0.773853 0
M  V30 2681 H 248.828 1.42654 -0.443861 0
M  V30 2682 H 250.71 3.95365 1.45823 0
M  V30 2683 H 249.385 2.77582 1.66523 0
M  V30 2684 H 248.292 3.71335 -0.453969 0
M  V30 2685 H 249.625 4.88798 -0.577736 0
M  V30 2686 N 251.277 0.427512 1.51691 0
M  V30 2687 C 252.693 0.0792977 1.59403 0
M  V30 2688 C 252.893 -1.41035 1.43914 0
M  V30 2689 O 251.949 -2.17922 1.27539 0
M  V30 2690 C 253.262 0.590636 2.94842 0
M  V30 2691 C 254.81 0.550215 3.08126 0
M  V30 2692 C 255.285 1.03836 4.46074 0
M  V30 2693 N 256.776 0.995943 4.52366 0
M  V30 2694 C 257.511 1.34463 5.57411 0
M  V30 2695 N 257.007 1.76569 6.69922 0
M  V30 2696 N 258.8 1.26343 5.47717 0
M  V30 2697 H 250.951 1.39687 1.60004 0
M  V30 2698 H 253.214 0.575003 0.753708 0
M  V30 2699 H 252.92 1.63251 3.11516 0
M  V30 2700 H 252.794 0.0102061 3.77199 0
M  V30 2701 H 255.181 -0.482654 2.91126 0
M  V30 2702 H 255.262 1.16693 2.27632 0
M  V30 2703 H 254.906 2.06965 4.63819 0
M  V30 2704 H 254.836 0.398286 5.25092 0
M  V30 2705 H 257.327 0.68661 3.7161 0
M  V30 2706 H 257.64 2.01438 7.46085 0
M  V30 2707 H 255.985 1.80488 6.71155 0
M  V30 2708 H 259.176 0.933209 4.58703 0
M  V30 2709 H 259.349 1.53846 6.29472 0
M  V30 2710 N 252.755 -1.56801 0.158532 0
M  V30 2711 C 253.983 -2.00859 -0.496303 0
M  V30 2712 C 254.398 -1.03871 -1.57659 0
M  V30 2713 O 253.755 -0.0375165 -1.82461 0
M  V30 2714 C 253.806 -3.4479 -1.08638 0
M  V30 2715 O 253.527 -4.38072 -0.0492322 0
M  V30 2716 C 255.028 -4.04185 -1.8207 0
M  V30 2717 H 252.248 -0.65864 -0.128199 0
M  V30 2718 H 254.792 -2.02885 0.256506 0
M  V30 2719 H 252.947 -3.43579 -1.78975 0
M  V30 2720 H 253.361 -5.2227 -0.483102 0
M  V30 2721 H 254.835 -5.06857 -2.18633 0
M  V30 2722 H 255.312 -3.45549 -2.71095 0
M  V30 2723 H 255.918 -4.0906 -1.16405 0
M  V30 2724 N 254.233 0.115231 -1.57178 0
M  V30 2725 C 255.479 0.82357 -1.85325 0
M  V30 2726 C 255.812 1.79349 -0.744814 0
M  V30 2727 O 255.087 1.92899 0.249024 0
M  V30 2728 C 255.37 1.57014 -3.24066 0
M  V30 2729 C 255.223 0.619565 -4.45513 0
M  V30 2730 C 256.542 2.52545 -3.60429 0
M  V30 2731 H 253.661 0.297948 -0.674089 0
M  V30 2732 H 256.303 0.0877138 -1.89797 0
M  V30 2733 H 254.453 2.19742 -3.20383 0
M  V30 2734 H 256.125 0.000837639 -4.613 0
M  V30 2735 H 254.368 -0.0686174 -4.33746 0
M  V30 2736 H 255.039 1.17866 -5.3927 0
M  V30 2737 H 257.515 1.9992 -3.64926 0
M  V30 2738 H 256.391 3.01811 -4.58477 0
M  V30 2739 H 256.652 3.35383 -2.88047 0
M  V30 2740 N 255.711 1.52812 0.385517 0
M  V30 2741 C 256.641 1.80808 1.47752 0
M  V30 2742 C 257.622 0.660318 1.5676 0
M  V30 2743 O 258.807 0.908246 1.71652 0
M  V30 2744 C 255.937 1.98008 2.85324 0
M  V30 2745 C 254.891 3.13709 2.91154 0
M  V30 2746 C 254.217 3.16169 4.31209 0
M  V30 2747 C 255.517 4.52709 2.60483 0
M  V30 2748 H 257.211 2.72253 1.24573 0
M  V30 2749 H 254.757 1.31003 0.597839 0
M  V30 2750 H 256.71 2.16176 3.61726 0
M  V30 2751 H 255.434 1.03255 3.09848 0
M  V30 2752 H 254.093 2.95329 2.17201 0
M  V30 2753 H 253.741 2.19092 4.52778 0
M  V30 2754 H 253.441 3.93894 4.36029 0
M  V30 2755 H 254.965 3.36496 5.09512 0
M  V30 2756 H 256.379 4.71173 3.26602 0
M  V30 2757 H 254.776 5.32528 2.76648 0
M  V30 2758 H 255.846 4.59186 1.55809 0
M  V30 2759 N 257.189 -0.644168 1.43834 0
M  V30 2760 C 258.152 -1.73857 1.49353 0
M  V30 2761 C 259.152 -1.56315 0.377112 0
M  V30 2762 O 260.342 -1.62048 0.639226 0
M  V30 2763 C 257.474 -3.12819 1.35488 0
M  V30 2764 H 258.667 -1.70342 2.46827 0
M  V30 2765 H 256.22 -0.856652 1.30733 0
M  V30 2766 H 256.955 -3.2194 0.390569 0
M  V30 2767 H 256.74 -3.26958 2.16428 0
M  V30 2768 H 258.23 -3.92606 1.42302 0
M  V30 2769 N 258.668 -1.30515 -0.883378 0
M  V30 2770 C 259.916 -1.19194 -1.63209 0
M  V30 2771 C 260.237 0.253205 -1.93349 0
M  V30 2772 O 259.507 1.17025 -1.57105 0
M  V30 2773 H 258.087 -0.438148 -0.605009 0
M  V30 2774 H 260.749 -1.63663 -1.05832 0
M  V30 2775 H 259.845 -1.75396 -2.58153 0
M  V30 2776 N 260.146 1.09593 -1.13257 0
M  V30 2777 C 261.078 2.16015 -0.766167 0
M  V30 2778 C 262.091 1.61423 0.211303 0
M  V30 2779 O 263.28 1.78498 -0.00863946 0
M  V30 2780 C 260.38 3.38706 -0.114662 0
M  V30 2781 C 259.553 4.22717 -1.12379 0
M  V30 2782 C 258.612 5.23835 -0.498301 0
M  V30 2783 O 257.638 5.573 -1.15781 0
M  V30 2784 N 258.84 5.75886 0.730417 0
M  V30 2785 H 261.605 2.48055 -1.68193 0
M  V30 2786 H 259.166 1.25292 -1.02535 0
M  V30 2787 H 261.158 4.03464 0.315991 0
M  V30 2788 H 259.728 3.04569 0.704011 0
M  V30 2789 H 258.948 3.54122 -1.73179 0
M  V30 2790 H 260.236 4.75673 -1.80589 0
M  V30 2791 H 259.634 5.50911 1.28504 0
M  V30 2792 H 258.191 6.42387 1.10376 0
M  V30 2793 N 261.624 0.925811 1.2754 0
M  V30 2794 C 262.864 0.572521 1.96218 0
M  V30 2795 C 263.228 -0.869719 1.71172 0
M  V30 2796 O 264.429 -1.33119 2.33523 0
M  V30 2797 C 262.7 0.887325 3.4621 0
M  V30 2798 S 264.259 0.642266 4.34074 0
M  V30 2799 H 261.077 0.211403 0.678845 0
M  V30 2800 H 263.679 1.19384 1.54815 0
M  V30 2801 H 262.383 1.93469 3.61936 0
M  V30 2802 H 261.914 0.255123 3.92572 0
M  V30 2803 H 263.929 -0.500822 4.93666 0
M  V30 2804 N 263.102 -1.41638 0.69111 0
M  V30 2805 C 264.332 -2.0533 0.228758 0
M  V30 2806 C 264.74 -1.52089 -1.12541 0
M  V30 2807 O 264.083 -0.662145 -1.71351 0
M  V30 2808 C 264.145 -3.59349 0.10407 0
M  V30 2809 C 263.809 -4.35362 1.38956 0
M  V30 2810 C 264.806 -4.64942 2.32648 0
M  V30 2811 C 262.491 -4.74714 1.64169 0
M  V30 2812 C 264.485 -5.32828 3.49818 0
M  V30 2813 C 262.172 -5.42338 2.81625 0
M  V30 2814 C 263.17 -5.71322 3.74273 0
M  V30 2815 O 262.858 -6.37554 4.89673 0
M  V30 2816 H 262.59 -0.667796 0.104997 0
M  V30 2817 H 265.144 -1.82477 0.942938 0
M  V30 2818 H 263.374 -3.80924 -0.665839 0
M  V30 2819 H 265.063 -4.04633 -0.320519 0
M  V30 2820 H 265.829 -4.35025 2.14425 0
M  V30 2821 H 261.708 -4.51538 0.929202 0
M  V30 2822 H 265.252 -5.55368 4.22152 0
M  V30 2823 H 261.149 -5.71673 2.99768 0
M  V30 2824 H 261.917 -6.56049 4.8943 0
M  V30 2825 N 264.58 -0.43555 -1.51462 0
M  V30 2826 C 265.829 0.133007 -2.01261 0
M  V30 2827 C 266.142 1.43942 -1.32439 0
M  V30 2828 O 267.348 2.09081 -1.73198 0
M  V30 2829 C 265.804 0.287581 -3.58749 0
M  V30 2830 C 265.412 -1.00829 -4.36506 0
M  V30 2831 C 267.156 0.810004 -4.167 0
M  V30 2832 C 265.063 -0.819454 -5.85695 0
M  V30 2833 H 263.993 0.0534822 -0.752101 0
M  V30 2834 H 266.644 -0.565038 -1.74584 0
M  V30 2835 H 265.026 1.04859 -3.81865 0
M  V30 2836 H 266.2 -1.77749 -4.25138 0
M  V30 2837 H 264.515 -1.45911 -3.89999 0
M  V30 2838 H 267.112 0.967743 -5.2587 0
M  V30 2839 H 267.455 1.79196 -3.75758 0
M  V30 2840 H 267.988 0.107357 -3.97655 0
M  V30 2841 H 264.727 -1.77374 -6.31046 0
M  V30 2842 H 264.247 -0.0900208 -5.99732 0
M  V30 2843 H 265.926 -0.471949 -6.45276 0
M  V30 2844 N 266.058 1.56714 -0.166846 0
M  V30 2845 C 266.99 2.14914 0.796537 0
M  V30 2846 C 268.003 1.10357 1.19688 0
M  V30 2847 O 269.192 1.37561 1.13751 0
M  V30 2848 C 266.292 2.67326 2.08303 0
M  V30 2849 C 265.465 3.96493 1.84696 0
M  V30 2850 C 264.524 4.34014 2.97521 0
M  V30 2851 O 263.55 5.01973 2.6835 0
M  V30 2852 N 264.752 3.95208 4.25196 0
M  V30 2853 H 267.517 2.98205 0.299006 0
M  V30 2854 H 265.078 1.61892 0.0160839 0
M  V30 2855 H 267.07 2.89428 2.82867 0
M  V30 2856 H 265.64 1.88649 2.4926 0
M  V30 2857 H 264.86 3.82814 0.940602 0
M  V30 2858 H 266.148 4.8086 1.66285 0
M  V30 2859 H 265.546 3.40487 4.51758 0
M  V30 2860 H 264.103 4.2232 4.96477 0
M  V30 2861 N 267.536 -0.106894 1.57237 0
M  V30 2862 C 268.783 -0.812526 1.85484 0
M  V30 2863 C 269.111 -1.79304 0.753687 0
M  V30 2864 O 268.366 -1.94047 -0.253853 0
M  V30 2865 C 268.665 -1.58628 3.20268 0
M  V30 2866 C 268.331 -0.748967 4.44636 0
M  V30 2867 C 266.993 -0.518104 4.78403 0
M  V30 2868 C 269.345 -0.166122 5.20935 0
M  V30 2869 C 266.673 0.305659 5.85903 0
M  V30 2870 C 269.025 0.644899 6.29304 0
M  V30 2871 C 267.689 0.885965 6.61594 0
M  V30 2872 H 266.959 -0.297324 0.678734 0
M  V30 2873 H 269.606 -0.0744332 1.91355 0
M  V30 2874 H 267.911 -2.39562 3.10028 0
M  V30 2875 H 269.608 -2.13643 3.39349 0
M  V30 2876 H 266.198 -0.939006 4.18187 0
M  V30 2877 H 270.382 -0.33167 4.95191 0
M  V30 2878 H 265.638 0.501528 6.0934 0
M  V30 2879 H 269.812 1.10345 6.87602 0
M  V30 2880 H 267.439 1.52609 7.44725 0
M  V30 2881 N 269.014 -1.53014 -0.377408 0
M  V30 2882 C 269.944 -1.81589 -1.46791 0
M  V30 2883 C 270.925 -0.668622 -1.56408 0
M  V30 2884 O 272.11 -0.917337 -1.71168 0
M  V30 2885 C 269.24 -1.99519 -2.8427 0
M  V30 2886 C 268.194 -3.15249 -2.89486 0
M  V30 2887 C 267.52 -3.18451 -4.29527 0
M  V30 2888 C 268.82 -4.54084 -2.58079 0
M  V30 2889 H 270.514 -2.7291 -1.23127 0
M  V30 2890 H 268.06 -1.31319 -0.590883 0
M  V30 2891 H 270.013 -2.18092 -3.60575 0
M  V30 2892 H 268.737 -1.04897 -3.09296 0
M  V30 2893 H 267.396 -2.96477 -2.15631 0
M  V30 2894 H 267.044 -2.2149 -4.5161 0
M  V30 2895 H 266.744 -3.962 -4.33934 0
M  V30 2896 H 268.268 -3.39193 -5.07721 0
M  V30 2897 H 269.682 -4.72899 -3.24098 0
M  V30 2898 H 268.079 -5.33987 -2.7382 0
M  V30 2899 H 269.149 -4.60006 -1.53372 0
M  V30 2900 N 270.492 0.636531 -1.44174 0
M  V30 2901 C 271.717 1.42847 -1.50364 0
M  V30 2902 C 272.142 1.87665 -0.127867 0
M  V30 2903 O 271.5 1.58408 0.88185 0
M  V30 2904 C 271.548 2.62854 -2.4686 0
M  V30 2905 O 270.652 3.62501 -1.9664 0
M  V30 2906 H 269.993 0.427642 -0.507955 0
M  V30 2907 H 272.523 0.777422 -1.89255 0
M  V30 2908 H 272.533 3.10465 -2.64718 0
M  V30 2909 H 271.208 2.29578 -3.46795 0
M  V30 2910 H 269.785 3.21735 -1.88523 0
M  V30 2911 N 271.97 1.30982 0.876444 0
M  V30 2912 C 272.902 1.13902 1.98894 0
M  V30 2913 C 273.915 0.0798815 1.62604 0
M  V30 2914 O 275.104 0.326743 1.75484 0
M  V30 2915 C 272.204 0.716699 3.31235 0
M  V30 2916 C 271.377 1.85945 3.95908 0
M  V30 2917 C 270.436 1.42426 5.06558 0
M  V30 2918 O 269.462 2.13287 5.27729 0
M  V30 2919 N 270.664 0.308025 5.79682 0
M  V30 2920 H 273.429 2.09724 2.14094 0
M  V30 2921 H 270.99 1.2323 1.05004 0
M  V30 2922 H 272.982 0.408403 4.02634 0
M  V30 2923 H 271.552 -0.149719 3.12241 0
M  V30 2924 H 270.772 2.33541 3.17573 0
M  V30 2925 H 272.06 2.62503 4.35855 0
M  V30 2926 H 271.458 -0.282241 5.64995 0
M  V30 2927 H 270.015 0.0592282 6.51773 0
M  V30 2928 N 273.449 -1.08991 1.13837 0
M  V30 2929 C 274.86 -1.62746 0.914917 0
M  V30 2930 C 275.211 -1.88403 -0.547594 0
M  V30 2931 O 274.336 -1.63706 -1.41525 0
M  V30 2932 C 274.931 -2.95662 1.65437 0
M  V30 2933 C 273.49 -3.46225 1.47666 0
M  V30 2934 C 272.637 -2.20562 1.6807 0
M  V30 2935 H 275.588 -0.922946 1.29102 0
M  V30 2936 H 275.609 -3.63825 1.11407 0
M  V30 2937 H 275.121 -2.76956 2.71877 0
M  V30 2938 H 273.222 -3.70046 0.435478 0
M  V30 2939 H 273.335 -4.23368 2.24268 0
M  V30 2940 H 271.699 -2.29439 1.10589 0
M  V30 2941 H 272.482 -2.0437 2.7584 0
M  V30 2942 N 274.927 -0.932562 -1.27047 0
M  V30 2943 C 276.176 -0.571351 -1.93439 0
M  V30 2944 C 276.489 0.892467 -1.74053 0
M  V30 2945 O 277.695 1.36267 -2.34826 0
M  V30 2946 C 276.151 -0.97106 -3.46552 0
M  V30 2947 C 275.759 -2.4559 -3.74686 0
M  V30 2948 C 277.503 -0.681333 -4.18997 0
M  V30 2949 C 275.41 -2.79475 -5.21198 0
M  V30 2950 H 274.34 -0.209966 -0.724176 0
M  V30 2951 H 276.991 -1.13403 -1.44263 0
M  V30 2952 H 275.373 -0.336983 -3.94564 0
M  V30 2953 H 276.547 -3.13829 -3.37414 0
M  V30 2954 H 274.862 -2.71802 -3.15456 0
M  V30 2955 H 277.459 -0.910939 -5.26883 0
M  V30 2956 H 277.802 0.381628 -4.14547 0
M  V30 2957 H 278.335 -1.27473 -3.76823 0
M  V30 2958 H 275.074 -3.847 -5.30741 0
M  V30 2959 H 274.594 -2.1589 -5.596 0
M  V30 2960 H 276.273 -2.67478 -5.89122 0
M  V30 2961 N 276.405 1.4127 -0.698611 0
M  V30 2962 C 277.654 2.00408 -0.227949 0
M  V30 2963 C 277.967 1.55981 1.18023 0
M  V30 2964 O 279.173 2.07699 1.74852 0
M  V30 2965 C 277.629 3.58129 -0.356636 0
M  V30 2966 C 277.237 4.11536 -1.77037 0
M  V30 2967 C 278.981 4.24466 0.0540969 0
M  V30 2968 C 276.888 5.61701 -1.85055 0
M  V30 2969 H 275.818 0.749586 -0.0814657 0
M  V30 2970 H 278.469 1.61713 -0.867249 0
M  V30 2971 H 276.851 3.94442 0.350965 0
M  V30 2972 H 278.025 3.86636 -2.50698 0
M  V30 2973 H 276.34 3.57736 -2.13105 0
M  V30 2974 H 278.937 5.34698 0.0146723 0
M  V30 2975 H 279.28 4.01687 1.09332 0
M  V30 2976 H 279.813 3.93198 -0.603337 0
M  V30 2977 H 276.552 5.89312 -2.8704 0
M  V30 2978 H 276.072 5.88519 -1.15783 0
M  V30 2979 H 277.751 6.26524 -1.61484 0
M  V30 2980 N 277.883 0.443576 1.51229 0
M  V30 2981 C 279.111 -0.11929 2.06556 0
M  V30 2982 C 279.526 -1.35921 1.31038 0
M  V30 2983 O 278.883 -1.78675 0.371704 0
M  V30 2984 C 278.934 -0.435228 3.5887 0
M  V30 2985 O 278.655 0.755486 4.31537 0
M  V30 2986 C 280.156 -1.04808 4.30732 0
M  V30 2987 H 277.376 -0.0051584 0.67098 0
M  V30 2988 H 279.92 0.624453 1.94733 0
M  V30 2989 H 278.075 -1.12887 3.70588 0
M  V30 2990 H 278.489 0.483491 5.22267 0
M  V30 2991 H 279.963 -1.2191 5.3837 0
M  V30 2992 H 280.44 -2.03081 3.89429 0
M  V30 2993 H 281.046 -0.393637 4.23474 0
M  V30 2994 N 279.361 -1.56624 0.175154 0
M  V30 2995 C 280.608 -1.96999 -0.468811 0
M  V30 2996 C 280.936 -1.06129 -1.62994 0
M  V30 2997 O 280.191 -0.0961771 -1.95464 0
M  V30 2998 C 280.49 -3.43419 -0.989864 0
M  V30 2999 C 280.156 -4.50866 0.0557687 0
M  V30 3000 C 278.818 -4.79975 0.343134 0
M  V30 3001 C 281.17 -5.15551 0.765308 0
M  V30 3002 C 278.498 -5.71066 1.34536 0
M  V30 3003 C 280.85 -6.07724 1.75654 0
M  V30 3004 C 279.514 -6.35199 2.05132 0
M  V30 3005 H 278.784 -0.720869 -0.17155 0
M  V30 3006 H 281.431 -1.89616 0.267924 0
M  V30 3007 H 279.736 -3.47772 -1.80449 0
M  V30 3008 H 281.433 -3.72002 -1.49719 0
M  V30 3009 H 278.023 -4.28229 -0.178381 0
M  V30 3010 H 282.207 -4.9317 0.556513 0
M  V30 3011 H 277.463 -5.90635 1.57988 0
M  V30 3012 H 281.637 -6.56912 2.31169 0
M  V30 3013 H 279.264 -7.05584 2.8294 0
M  V30 3014 N 280.839 0.0985539 -1.57292 0
M  V30 3015 C 282.087 0.801092 -1.85545 0
M  V30 3016 C 282.408 1.79438 -0.763353 0
M  V30 3017 O 281.678 1.94763 0.21073 0
M  V30 3018 H 280.258 0.29884 -0.684619 0
M  V30 3019 H 282.92 0.0810064 -1.94732 0
M  V30 3020 H 282.016 1.3338 -2.82163 0
M  V30 3021 N 282.317 1.53212 0.369288 0
M  V30 3022 C 283.545 1.73119 1.13303 0
M  V30 3023 C 283.96 0.458455 1.83149 0
M  V30 3024 O 283.317 -0.568403 1.73423 0
M  V30 3025 C 283.368 2.89413 2.16616 0
M  V30 3026 O 283.089 4.11761 1.49614 0
M  V30 3027 C 284.59 3.21161 3.05566 0
M  V30 3028 H 281.81 0.579107 0.338934 0
M  V30 3029 H 284.354 1.99942 0.429338 0
M  V30 3030 H 282.509 2.64994 2.82589 0
M  V30 3031 H 282.923 4.76858 2.18419 0
M  V30 3032 H 284.397 4.05949 3.74045 0
M  V30 3033 H 284.874 2.36369 3.70171 0
M  V30 3034 H 285.48 3.47492 2.45213 0
M  V30 3035 N 283.795 -0.628877 1.44509 0
M  V30 3036 C 284.758 -1.72263 1.51188 0
M  V30 3037 C 285.758 -1.55907 0.39367 0
M  V30 3038 O 286.948 -1.61361 0.656377 0
M  V30 3039 C 284.08 -3.11365 1.38798 0
M  V30 3040 H 285.273 -1.67714 2.4862 0
M  V30 3041 H 282.826 -0.842737 1.31634 0
M  V30 3042 H 283.561 -3.21507 0.424693 0
M  V30 3043 H 283.346 -3.24644 2.19884 0
M  V30 3044 H 284.836 -3.91075 1.46458 0
M  V30 3045 N 285.273 -1.31445 -0.869486 0
M  V30 3046 C 286.206 -1.13465 -1.97992 0
M  V30 3047 C 287.184 -0.0380291 -1.62556 0
M  V30 3048 O 288.368 -0.194544 -1.87493 0
M  V30 3049 C 285.495 -0.733822 -3.30655 0
M  V30 3050 C 284.541 -1.83356 -3.85075 0
M  V30 3051 S 285.374 -3.43909 -4.10472 0
M  V30 3052 C 286.53 -3.05763 -5.46132 0
M  V30 3053 H 286.763 -2.07471 -2.1294 0
M  V30 3054 H 284.296 -1.15936 -1.01972 0
M  V30 3055 H 286.254 -0.509306 -4.07328 0
M  V30 3056 H 284.915 0.187123 -3.13542 0
M  V30 3057 H 284.108 -1.50574 -4.80982 0
M  V30 3058 H 283.71 -2.01315 -3.15195 0
M  V30 3059 H 286.002 -2.54686 -6.27807 0
M  V30 3060 H 286.945 -4.00635 -5.83864 0
M  V30 3061 H 287.353 -2.43192 -5.09429 0
M  V30 3062 N 286.751 1.08385 -1.14413 0
M  V30 3063 C 287.714 2.13486 -0.834048 0
M  V30 3064 C 288.714 1.59988 0.161418 0
M  V30 3065 O 289.904 1.74071 -0.0669575 0
M  V30 3066 C 287.036 3.4003 -0.243354 0
M  V30 3067 H 288.229 2.42425 -1.7655 0
M  V30 3068 H 285.782 1.24101 -0.950189 0
M  V30 3069 H 286.517 3.16726 0.696807 0
M  V30 3070 H 286.302 3.80157 -0.960367 0
M  V30 3071 H 287.792 4.17577 -0.0436242 0
M  V30 3072 N 288.23 0.939286 1.26551 0
M  V30 3073 C 289.193 0.451987 2.24699 0
M  V30 3074 C 290.193 -0.435869 1.5478 0
M  V30 3075 O 291.383 -0.235314 1.72603 0
M  V30 3076 C 288.515 -0.348801 3.39111 0
M  V30 3077 H 289.708 1.3193 2.69322 0
M  V30 3078 H 287.261 0.721072 1.38673 0
M  V30 3079 H 287.996 -1.23444 2.99887 0
M  V30 3080 H 287.781 0.287945 3.91041 0
M  V30 3081 H 289.271 -0.679726 4.12031 0
M  V30 3082 N 289.708 -1.40897 0.706093 0
M  V30 3083 C 290.955 -2.01054 0.241531 0
M  V30 3084 C 291.283 -1.55956 -1.16223 0
M  V30 3085 O 290.538 -0.766336 -1.80072 0
M  V30 3086 C 290.837 -3.5646 0.259099 0
M  V30 3087 C 290.503 -4.21106 1.61184 0
M  V30 3088 C 289.165 -4.38479 1.98216 0
M  V30 3089 C 291.517 -4.57256 2.50132 0
M  V30 3090 C 288.845 -4.89282 3.2376 0
M  V30 3091 C 291.197 -5.09454 3.7502 0
M  V30 3092 C 289.861 -5.25037 4.12181 0
M  V30 3093 H 289.131 -0.73571 0.0883825 0
M  V30 3094 H 291.778 -1.68645 0.907257 0
M  V30 3095 H 290.083 -3.88721 -0.490189 0
M  V30 3096 H 291.78 -4.00826 -0.11804 0
M  V30 3097 H 288.37 -4.07966 1.31384 0
M  V30 3098 H 292.554 -4.43479 2.228 0
M  V30 3099 H 287.81 -4.99531 3.52532 0
M  V30 3100 H 291.984 -5.36404 4.44121 0
M  V30 3101 H 289.611 -5.64164 5.09532 0
M  V30 3102 N 291.186 -0.45159 -1.50991 0
M  V30 3103 C 292.416 0.108177 -2.06317 0
M  V30 3104 C 292.824 1.35774 -1.31765 0
M  V30 3105 O 292.167 1.79838 -0.374694 0
M  V30 3106 C 292.229 0.481659 -3.56259 0
M  V30 3107 C 291.893 -0.663114 -4.52163 0
M  V30 3108 C 292.89 -1.53947 -4.96585 0
M  V30 3109 C 290.575 -0.8479 -4.95092 0
M  V30 3110 C 292.569 -2.58518 -5.82621 0
M  V30 3111 C 290.256 -1.89686 -5.80915 0
M  V30 3112 C 291.254 -2.76388 -6.24579 0
M  V30 3113 O 290.942 -3.79482 -7.08695 0
M  V30 3114 H 290.674 0.00499183 -0.675982 0
M  V30 3115 H 293.228 -0.633659 -1.95381 0
M  V30 3116 H 291.458 1.27641 -3.65027 0
M  V30 3117 H 293.147 0.974233 -3.94035 0
M  V30 3118 H 293.913 -1.4083 -4.64103 0
M  V30 3119 H 289.792 -0.18258 -4.60638 0
M  V30 3120 H 293.336 -3.26224 -6.16623 0
M  V30 3121 H 289.233 -2.02817 -6.12809 0
M  V30 3122 H 290.001 -3.76234 -7.26905 0
M  V30 3123 N 292.664 1.56529 -0.183458 0
M  V30 3124 C 293.594 2.21549 0.737456 0
M  V30 3125 C 294.575 1.17489 1.23005 0
M  V30 3126 O 295.76 1.45959 1.281 0
M  V30 3127 C 292.89 2.86575 1.96194 0
M  V30 3128 C 291.844 3.96778 1.60473 0
M  V30 3129 C 291.17 4.48911 2.90487 0
M  V30 3130 C 292.47 5.15767 0.823497 0
M  V30 3131 H 294.164 2.98761 0.195453 0
M  V30 3132 H 291.71 1.43702 0.0925686 0
M  V30 3133 H 293.663 3.30739 2.61131 0
M  V30 3134 H 292.387 2.06749 2.52828 0
M  V30 3135 H 291.046 3.53286 0.978997 0
M  V30 3136 H 290.694 3.65862 3.45186 0
M  V30 3137 H 290.394 5.23265 2.67335 0
M  V30 3138 H 291.918 4.95771 3.56432 0
M  V30 3139 H 293.332 5.56549 1.37571 0
M  V30 3140 H 291.729 5.96114 0.690551 0
M  V30 3141 H 292.799 4.84574 -0.177782 0
M  V30 3142 N 294.142 -0.090211 1.57342 0
M  V30 3143 C 295.553 -0.644173 1.75235 0
M  V30 3144 C 295.904 -1.78865 0.806335 0
M  V30 3145 O 295.029 -2.16395 -0.0140128 0
M  V30 3146 C 295.624 -1.17532 3.1776 0
M  V30 3147 C 294.183 -1.67531 3.37061 0
M  V30 3148 C 293.33 -0.58693 2.71017 0
M  V30 3149 H 296.281 0.135884 1.58117 0
M  V30 3150 H 296.302 -2.04455 3.20902 0
M  V30 3151 H 295.814 -0.342138 3.86589 0
M  V30 3152 H 293.915 -2.53234 2.73319 0
M  V30 3153 H 294.028 -1.76493 4.45406 0
M  V30 3154 H 292.392 -1.02756 2.33052 0
M  V30 3155 H 293.175 0.235758 3.4249 0
M  V30 3156 N 295.62 -1.53406 -0.361157 0
M  V30 3157 C 296.866 -1.70054 -1.10496 0
M  V30 3158 C 297.199 -0.453278 -1.88836 0
M  V30 3159 O 296.474 0.5495 -1.86576 0
M  V30 3160 C 296.757 -2.95317 -2.06058 0
M  V30 3161 C 296.61 -4.3021 -1.31298 0
M  V30 3162 C 297.929 -3.16193 -3.06121 0
M  V30 3163 H 295.048 -0.618799 -0.400321 0
M  V30 3164 H 297.69 -1.86052 -0.385318 0
M  V30 3165 H 295.84 -2.81809 -2.67425 0
M  V30 3166 H 297.512 -4.55538 -0.726807 0
M  V30 3167 H 295.755 -4.29421 -0.614853 0
M  V30 3168 H 296.426 -5.14 -2.01265 0
M  V30 3169 H 298.902 -3.28916 -2.5486 0
M  V30 3170 H 297.778 -4.05266 -3.70204 0
M  V30 3171 H 298.039 -2.31676 -3.76535 0
M  V30 3172 N 297.098 0.621204 -1.44841 0
M  V30 3173 C 298.326 1.40752 -1.51646 0
M  V30 3174 C 298.741 1.88246 -0.144549 0
M  V30 3175 O 298.098 1.61422 0.851416 0
M  V30 3176 C 298.149 2.62119 -2.4895 0
M  V30 3177 O 297.87 2.16602 -3.80808 0
M  V30 3178 C 299.371 3.55135 -2.65319 0
M  V30 3179 H 296.591 0.431325 -0.514004 0
M  V30 3180 H 299.135 0.758835 -1.899 0
M  V30 3181 H 297.29 3.23058 -2.13805 0
M  V30 3182 H 297.704 2.95358 -4.33433 0
M  V30 3183 H 299.178 4.36874 -3.37409 0
M  V30 3184 H 299.655 4.04592 -1.70886 0
M  V30 3185 H 300.261 3.00058 -3.01405 0
M  V30 3186 N 298.576 1.31904 0.862503 0
M  V30 3187 C 299.822 1.22197 1.61851 0
M  V30 3188 C 300.155 -0.217641 1.92977 0
M  V30 3189 O 299.43 -1.15264 1.56666 0
M  V30 3190 C 299.713 2.07378 2.94391 0
M  V30 3191 C 299.566 3.59678 2.70096 0
M  V30 3192 C 300.885 1.92891 3.95577 0
M  V30 3193 H 298.004 0.445255 0.587296 0
M  V30 3194 H 300.646 1.6177 0.99651 0
M  V30 3195 H 298.796 1.73758 3.47477 0
M  V30 3196 H 300.468 4.03472 2.23625 0
M  V30 3197 H 298.711 3.82735 2.04197 0
M  V30 3198 H 299.382 4.14595 3.64438 0
M  V30 3199 H 301.858 2.22327 3.51724 0
M  V30 3200 H 300.734 2.54781 4.86187 0
M  V30 3201 H 300.995 0.894315 4.3296 0
M  V30 3202 N 300.054 -1.07777 1.14986 0
M  V30 3203 C 300.987 -2.14228 0.786243 0
M  V30 3204 C 301.965 -1.60888 -0.235347 0
M  V30 3205 O 303.149 -1.88099 -0.122909 0
M  V30 3206 C 300.276 -3.38281 0.168433 0
M  V30 3207 C 299.322 -4.10387 1.16123 0
M  V30 3208 S 300.155 -4.62371 2.70135 0
M  V30 3209 C 301.311 -5.89704 2.09762 0
M  V30 3210 H 301.544 -2.44741 1.68787 0
M  V30 3211 H 299.077 -1.19984 0.971756 0
M  V30 3212 H 301.035 -4.10098 -0.181588 0
M  V30 3213 H 299.696 -3.05953 -0.710725 0
M  V30 3214 H 298.889 -4.99431 0.677086 0
M  V30 3215 H 298.491 -3.44513 1.45556 0
M  V30 3216 H 300.783 -6.61648 1.45701 0
M  V30 3217 H 301.726 -6.42824 2.96955 0
M  V30 3218 H 302.134 -5.4302 1.54239 0
M  V30 3219 N 301.532 -0.945985 -1.26051 0
M  V30 3220 C 302.772 -0.603665 -1.95282 0
M  V30 3221 C 303.136 0.842377 -1.72534 0
M  V30 3222 O 304.337 1.29387 -2.35611 0
M  V30 3223 C 302.608 -0.942292 -3.44754 0
M  V30 3224 S 304.167 -0.711242 -4.32997 0
M  V30 3225 H 300.985 -0.222176 -0.675395 0
M  V30 3226 H 303.587 -1.21832 -1.52896 0
M  V30 3227 H 302.291 -1.99203 -3.58812 0
M  V30 3228 H 301.822 -0.317546 -3.92116 0
M  V30 3229 H 303.837 0.422221 -4.944 0
M  V30 3230 N 303.011 1.40521 -0.713556 0
M  V30 3231 C 304.239 2.05237 -0.261775 0
M  V30 3232 C 304.654 1.53755 1.09567 0
M  V30 3233 O 304.011 0.693268 1.6882 0
M  V30 3234 C 304.062 3.60763 -0.230706 0
M  V30 3235 O 303.783 4.10345 -1.53455 0
M  V30 3236 C 305.284 4.42651 0.239874 0
M  V30 3237 H 302.504 0.660533 -0.118057 0
M  V30 3238 H 305.048 1.79967 -0.971192 0
M  V30 3239 H 303.203 3.8501 0.429661 0
M  V30 3240 H 303.617 5.04526 -1.43366 0
M  V30 3241 H 305.091 5.51599 0.210468 0
M  V30 3242 H 305.568 4.20082 1.28171 0
M  V30 3243 H 306.174 4.23507 -0.390142 0
M  V30 3244 N 304.489 0.459591 1.5075 0
M  V30 3245 C 305.419 -0.330644 2.31147 0
M  V30 3246 C 306.4 -1.00087 1.37538 0
M  V30 3247 O 307.585 -1.00025 1.66459 0
M  V30 3248 C 304.715 -1.41958 3.16962 0
M  V30 3249 C 303.669 -0.871608 4.19031 0
M  V30 3250 C 302.995 -2.05797 4.9351 0
M  V30 3251 C 304.295 0.109251 5.22186 0
M  V30 3252 H 305.989 0.340336 2.97459 0
M  V30 3253 H 303.535 0.165119 1.4305 0
M  V30 3254 H 305.488 -1.9798 3.71997 0
M  V30 3255 H 304.212 -2.11917 2.48513 0
M  V30 3256 H 302.871 -0.333442 3.6508 0
M  V30 3257 H 302.519 -2.74427 4.21544 0
M  V30 3258 H 302.219 -1.6976 5.62544 0
M  V30 3259 H 303.743 -2.62331 5.51375 0
M  V30 3260 H 305.157 -0.361405 5.7216 0
M  V30 3261 H 303.554 0.383316 5.98875 0
M  V30 3262 H 304.624 1.03887 4.73641 0
M  V30 3263 N 305.967 -1.56429 0.191757 0
M  V30 3264 C 307.197 -2.01574 -0.452928 0
M  V30 3265 C 307.605 -1.07107 -1.55964 0
M  V30 3266 O 306.948 -0.067534 -1.83576 0
M  V30 3267 C 307.01 -3.43121 -1.07278 0
M  V30 3268 C 306.674 -4.56879 -0.105214 0
M  V30 3269 C 307.671 -5.15379 0.684149 0
M  V30 3270 C 305.356 -5.023 0.00489824 0
M  V30 3271 C 307.35 -6.17746 1.57062 0
M  V30 3272 C 305.037 -6.04511 0.894935 0
M  V30 3273 C 306.035 -6.62108 1.67637 0
M  V30 3274 O 305.723 -7.62335 2.55149 0
M  V30 3275 H 305.455 -0.665554 -0.118379 0
M  V30 3276 H 308.009 -2.03245 0.296737 0
M  V30 3277 H 306.239 -3.38425 -1.87097 0
M  V30 3278 H 307.928 -3.72093 -1.62177 0
M  V30 3279 H 308.694 -4.81157 0.609365 0
M  V30 3280 H 304.573 -4.57168 -0.593156 0
M  V30 3281 H 308.117 -6.6263 2.181 0
M  V30 3282 H 304.014 -6.38157 0.970847 0
M  V30 3283 H 304.782 -7.79741 2.48892 0
M  V30 3284 N 307.445 0.0818655 -1.57387 0
M  V30 3285 C 308.691 0.778884 -1.87896 0
M  V30 3286 C 309.046 1.75692 -0.784229 0
M  V30 3287 O 308.339 1.90417 0.212567 0
M  V30 3288 C 308.533 1.53513 -3.22752 0
M  V30 3289 C 308.362 0.631838 -4.45239 0
M  V30 3290 C 307.132 0.272571 -5.04564 0
M  V30 3291 C 309.33 -0.0670191 -5.14256 0
M  V30 3292 N 307.312 -0.637498 -6.10581 0
M  V30 3293 C 308.683 -0.834653 -6.14356 0
M  V30 3294 C 310.738 -0.139551 -4.97704 0
M  V30 3295 C 309.441 -1.66806 -6.99691 0
M  V30 3296 C 311.467 -0.959903 -5.83558 0
M  V30 3297 C 310.829 -1.71561 -6.83188 0
M  V30 3298 H 306.928 0.260764 -0.737242 0
M  V30 3299 H 309.512 0.0408227 -1.94657 0
M  V30 3300 H 307.683 2.24398 -3.17018 0
M  V30 3301 H 309.415 2.18038 -3.40942 0
M  V30 3302 H 306.17 0.62319 -4.69482 0
M  V30 3303 H 306.594 -1.08548 -6.68241 0
M  V30 3304 H 311.236 0.430376 -4.20604 0
M  V30 3305 H 308.954 -2.249 -7.76174 0
M  V30 3306 H 312.54 -1.01887 -5.72809 0
M  V30 3307 H 311.42 -2.34017 -7.48469 0
M  V30 3308 N 308.923 1.53595 0.353017 0
M  V30 3309 C 310.339 1.43648 0.695516 0
M  V30 3310 C 310.539 0.585617 1.92802 0
M  V30 3311 O 309.595 0.0729223 2.52395 0
M  V30 3312 C 310.908 2.8701 0.896991 0
M  V30 3313 C 312.456 2.96723 0.996209 0
M  V30 3314 C 312.931 4.41173 1.23007 0
M  V30 3315 N 314.422 4.44657 1.29749 0
M  V30 3316 C 315.157 5.53547 1.49577 0
M  V30 3317 N 314.653 6.72461 1.66639 0
M  V30 3318 N 316.446 5.41145 1.52048 0
M  V30 3319 H 308.597 2.07415 -0.457481 0
M  V30 3320 H 310.86 0.9372 -0.142687 0
M  V30 3321 H 310.566 3.51644 0.0629938 0
M  V30 3322 H 310.44 3.31401 1.80148 0
M  V30 3323 H 312.827 2.32235 1.82074 0
M  V30 3324 H 312.908 2.55707 0.0688331 0
M  V30 3325 H 312.552 5.06238 0.410505 0
M  V30 3326 H 312.482 4.79772 2.17086 0
M  V30 3327 H 314.973 3.58963 1.18126 0
M  V30 3328 H 315.286 7.51214 1.81378 0
M  V30 3329 H 313.631 6.75423 1.63794 0
M  V30 3330 H 316.822 4.47205 1.38294 0
M  V30 3331 H 316.995 6.26068 1.67159 0
M  V30 3332 N 310.401 -0.613514 1.45168 0
M  V30 3333 C 311.65 -1.36874 1.4815 0
M  V30 3334 C 311.963 -1.952 0.124982 0
M  V30 3335 O 313.169 -2.71481 0.0324176 0
M  V30 3336 C 311.625 -2.47905 2.60904 0
M  V30 3337 C 311.233 -1.96016 4.02842 0
M  V30 3338 C 312.977 -3.24965 2.73126 0
M  V30 3339 C 310.884 -3.04494 5.06988 0
M  V30 3340 H 309.814 -0.514428 0.551253 0
M  V30 3341 H 312.465 -0.658182 1.7129 0
M  V30 3342 H 310.847 -3.21618 2.31037 0
M  V30 3343 H 312.021 -1.29051 4.4236 0
M  V30 3344 H 310.336 -1.31719 3.95018 0
M  V30 3345 H 312.933 -4.05865 3.48106 0
M  V30 3346 H 313.276 -3.75588 1.79553 0
M  V30 3347 H 313.809 -2.5835 3.0249 0
M  V30 3348 H 310.548 -2.58795 6.0225 0
M  V30 3349 H 310.068 -3.70044 4.72046 0
M  V30 3350 H 311.747 -3.68976 5.31475 0
M  V30 3351 N 311.879 -1.3236 -0.855495 0
M  V30 3352 C 313.109 -1.25688 -1.6397 0
M  V30 3353 C 313.517 0.177592 -1.88365 0
M  V30 3354 O 312.86 1.12485 -1.45234 0
M  V30 3355 C 312.922 -1.94602 -3.02275 0
M  V30 3356 C 312.586 -3.43937 -3.00926 0
M  V30 3357 C 313.583 -4.39435 -2.77835 0
M  V30 3358 C 311.268 -3.85858 -3.21588 0
M  V30 3359 C 313.262 -5.74829 -2.75409 0
M  V30 3360 C 310.949 -5.21361 -3.18789 0
M  V30 3361 C 311.947 -6.15658 -2.95727 0
M  V30 3362 O 311.635 -7.48681 -2.928 0
M  V30 3363 H 311.367 -0.434972 -0.51747 0
M  V30 3364 H 313.921 -1.75023 -1.075 0
M  V30 3365 H 312.151 -1.39836 -3.60531 0
M  V30 3366 H 313.84 -1.81651 -3.62985 0
M  V30 3367 H 314.606 -4.08374 -2.6164 0
M  V30 3368 H 310.485 -3.12883 -3.38564 0
M  V30 3369 H 314.029 -6.48404 -2.57328 0
M  V30 3370 H 309.926 -5.52052 -3.34528 0
M  V30 3371 H 310.694 -7.5803 -3.0876 0
M  V30 3372 N 313.357 1.07166 -1.15556 0
M  V30 3373 C 314.773 1.31899 -0.898603 0
M  V30 3374 C 314.973 1.96333 0.453383 0
M  V30 3375 O 314.029 2.22438 1.19489 0
M  V30 3376 C 315.342 2.20826 -2.04099 0
M  V30 3377 C 316.89 2.34269 -2.07574 0
M  V30 3378 C 317.365 3.26546 -3.21141 0
M  V30 3379 N 318.856 3.34127 -3.20801 0
M  V30 3380 C 319.591 4.05595 -4.05315 0
M  V30 3381 N 319.087 4.79661 -4.99897 0
M  V30 3382 N 320.88 4.01555 -3.93332 0
M  V30 3383 H 313.031 0.637302 -2.02613 0
M  V30 3384 H 315.294 0.343468 -0.883591 0
M  V30 3385 H 315 1.80744 -3.01703 0
M  V30 3386 H 314.874 3.21364 -1.97496 0
M  V30 3387 H 317.261 2.73603 -1.10568 0
M  V30 3388 H 317.342 1.33429 -2.18244 0
M  V30 3389 H 316.986 2.87931 -4.184 0
M  V30 3390 H 316.916 4.27345 -3.07708 0
M  V30 3391 H 319.407 2.81336 -2.52306 0
M  V30 3392 H 319.72 5.31694 -5.60822 0
M  V30 3393 H 318.065 4.78671 -5.03884 0
M  V30 3394 H 321.256 3.42806 -3.18751 0
M  V30 3395 H 321.429 4.56987 -4.5942 0
M  V30 3396 N 314.835 0.952656 1.25548 0
M  V30 3397 C 315.745 0.47782 2.29682 0
M  V30 3398 C 316.761 -0.453859 1.67977 0
M  V30 3399 O 317.937 -0.330587 1.98668 0
M  V30 3400 C 315.002 -0.238655 3.45878 0
M  V30 3401 C 314.063 0.730994 4.23031 0
M  V30 3402 C 313.296 0.0486165 5.33678 0
M  V30 3403 O 313.519 -1.16612 5.58353 0
M  V30 3404 O 312.453 0.733152 5.97418 0
M  V30 3405 H 316.279 1.34312 2.72386 0
M  V30 3406 H 313.864 0.719026 1.30959 0
M  V30 3407 H 315.746 -0.641774 4.16484 0
M  V30 3408 H 314.421 -1.07916 3.05181 0
M  V30 3409 H 313.328 1.18428 3.5486 0
M  V30 3410 H 314.661 1.53946 4.67506 0
M  V30 3411 N 316.313 -1.40141 0.720998 0
M  V30 3412 C 317.541 -2.05096 0.272656 0
M  V30 3413 C 317.956 -1.54334 -1.0875 0
M  V30 3414 O 317.313 -0.702211 -1.6845 0
M  V30 3415 C 317.364 -3.60636 0.249835 0
M  V30 3416 O 317.085 -4.09526 1.55629 0
M  V30 3417 C 318.586 -4.42772 -0.216396 0
M  V30 3418 H 315.806 -0.659897 0.121558 0
M  V30 3419 H 318.35 -1.79449 0.980723 0
M  V30 3420 H 316.505 -3.85232 -0.409237 0
M  V30 3421 H 316.919 -5.03758 1.4604 0
M  V30 3422 H 318.393 -5.51702 -0.181212 0
M  V30 3423 H 318.87 -4.20756 -1.25941 0
M  V30 3424 H 319.476 -4.23294 0.412596 0
M  V30 3425 N 317.792 -0.46758 -1.50504 0
M  V30 3426 C 318.702 0.33382 -2.32213 0
M  V30 3427 C 319.718 0.999323 -1.42441 0
M  V30 3428 O 320.894 0.988068 -1.75497 0
M  V30 3429 C 317.959 1.4035 -3.17022 0
M  V30 3430 C 317.02 0.754961 -4.2261 0
M  V30 3431 C 316.253 1.77367 -5.03365 0
M  V30 3432 O 316.476 2.99976 -4.8515 0
M  V30 3433 O 315.41 1.34744 -5.86624 0
M  V30 3434 H 319.236 -0.334067 -3.01857 0
M  V30 3435 H 316.821 -0.229496 -1.47627 0
M  V30 3436 H 318.703 2.02318 -3.69656 0
M  V30 3437 H 317.378 2.05492 -2.5011 0
M  V30 3438 H 316.285 0.0964244 -3.73976 0
M  V30 3439 H 317.618 0.146545 -4.91982 0
M  V30 3440 N 319.27 1.56325 -0.20005 0
M  V30 3441 C 320.218 2.20666 0.735482 0
M  V30 3442 C 321.212 1.17934 1.21605 0
M  V30 3443 O 322.418 1.36068 1.17837 0
M  V30 3444 H 318.793 0.70725 0.255542 0
M  V30 3445 H 320.764 2.9792 0.169166 0
M  V30 3446 C 319.513 2.88391 1.94232 0
M  V30 3447 H 318.836 3.67185 1.58161 0
M  V30 3448 H 320.276 3.3684 2.57517 0
M  V30 3449 C 318.735 1.89692 2.78421 0
M  V30 3450 O 319.265 1.40032 3.76502 0
M  V30 3451 N 317.471 1.57813 2.44015 0
M  V30 3452 H 317.018 1.9839 1.64314 0
M  V30 3453 H 316.976 0.920325 3.00628 0
M  V30 3454 N 320.748 -0.0735177 1.57428 0
M  V30 3455 C 322.164 -0.428264 1.53747 0
M  V30 3456 C 322.364 -1.79272 0.91998 0
M  V30 3457 O 321.42 -2.47051 0.521745 0
M  V30 3458 C 322.733 -0.370914 2.98404 0
M  V30 3459 C 324.281 -0.451224 3.0973 0
M  V30 3460 C 324.756 -0.4238 4.56035 0
M  V30 3461 N 326.247 -0.483925 4.60665 0
M  V30 3462 C 326.982 -0.484891 5.71346 0
M  V30 3463 N 326.478 -0.440775 6.91396 0
M  V30 3464 N 328.271 -0.531319 5.59583 0
M  V30 3465 H 320.422 0.819949 1.95935 0
M  V30 3466 H 322.685 0.307493 0.896745 0
M  V30 3467 H 322.391 0.564956 3.47133 0
M  V30 3468 H 322.265 -1.18176 3.5821 0
M  V30 3469 H 324.652 -1.37752 2.60976 0
M  V30 3470 H 324.733 0.388167 2.52838 0
M  V30 3471 H 324.377 0.498638 5.05446 0
M  V30 3472 H 324.307 -1.2807 5.10789 0
M  V30 3473 H 326.798 -0.522338 3.74273 0
M  V30 3474 H 327.111 -0.44539 7.71515 0
M  V30 3475 H 325.456 -0.40749 6.93804 0
M  V30 3476 H 328.647 -0.563464 4.64696 0
M  V30 3477 H 328.82 -0.528603 6.4584 0
M  V30 3478 N 322.226 -1.5378 -0.344866 0
M  V30 3479 C 323.189 -1.80981 -1.40637 0
M  V30 3480 C 324.189 -0.680816 -1.45676 0
M  V30 3481 O 325.379 -0.949095 -1.46075 0
M  V30 3482 C 322.511 -1.95063 -2.79577 0
M  V30 3483 H 323.704 -2.75803 -1.17783 0
M  V30 3484 H 321.257 -1.45173 -0.579181 0
M  V30 3485 H 321.992 -1.02379 -3.07716 0
M  V30 3486 H 321.777 -2.77198 -2.77315 0
M  V30 3487 H 323.267 -2.17629 -3.56409 0
M  V30 3488 N 323.704 0.605807 -1.45491 0
M  V30 3489 C 325.12 0.926751 -1.29936 0
M  V30 3490 C 325.32 1.99896 -0.253706 0
M  V30 3491 O 324.376 2.50038 0.351737 0
M  V30 3492 C 325.689 1.36599 -2.67883 0
M  V30 3493 C 327.237 1.4801 -2.75793 0
M  V30 3494 C 327.712 1.95309 -4.14268 0
M  V30 3495 N 329.203 2.0254 -4.16571 0
M  V30 3496 C 329.938 2.40363 -5.20589 0
M  V30 3497 N 329.434 2.77143 -6.34952 0
M  V30 3498 N 331.227 2.40718 -5.07948 0
M  V30 3499 H 323.378 -0.102862 -2.12151 0
M  V30 3500 H 325.641 0.016639 -0.947854 0
M  V30 3501 H 325.347 0.652306 -3.45598 0
M  V30 3502 H 325.221 2.33215 -2.96463 0
M  V30 3503 H 327.608 2.1847 -1.98381 0
M  V30 3504 H 327.689 0.497041 -2.50925 0
M  V30 3505 H 327.333 1.25436 -4.92167 0
M  V30 3506 H 327.263 2.94532 -4.3653 0
M  V30 3507 H 329.754 1.76699 -3.34045 0
M  V30 3508 H 330.067 3.0489 -7.10114 0
M  V30 3509 H 328.412 2.74834 -6.3835 0
M  V30 3510 H 331.603 2.11392 -4.1765 0
M  V30 3511 H 331.776 2.69869 -5.89131 0
M  V30 3512 N 325.182 1.32811 0.848464 0
M  V30 3513 C 326.092 1.24278 1.98978 0
M  V30 3514 C 327.108 0.155176 1.73307 0
M  V30 3515 O 328.284 0.376999 1.9784 0
M  V30 3516 C 325.349 0.972444 3.32783 0
M  V30 3517 C 324.41 2.14911 3.71634 0
M  V30 3518 C 323.643 1.89157 4.99054 0
M  V30 3519 O 323.866 0.837165 5.64223 0
M  V30 3520 O 322.8 2.75433 5.35183 0
M  V30 3521 H 326.626 2.20238 2.09115 0
M  V30 3522 H 324.211 1.12762 0.980052 0
M  V30 3523 H 326.093 0.838432 4.12975 0
M  V30 3524 H 324.768 0.043051 3.23671 0
M  V30 3525 H 323.675 2.33862 2.91992 0
M  V30 3526 H 325.008 3.06151 3.85399 0
M  V30 3527 N 326.66 -1.06551 1.16123 0
M  V30 3528 C 327.59 -2.15935 0.88851 0
M  V30 3529 C 328.571 -1.69306 -0.164135 0
M  V30 3530 O 329.756 -1.94193 -0.0167857 0
M  V30 3531 C 326.886 -3.45149 0.385942 0
M  V30 3532 C 325.84 -4.05271 1.3762 0
M  V30 3533 C 325.166 -5.29664 0.732137 0
M  V30 3534 C 326.466 -4.44355 2.74493 0
M  V30 3535 H 328.16 -2.39006 1.80323 0
M  V30 3536 H 325.706 -1.14866 0.868435 0
M  V30 3537 H 327.659 -4.21004 0.182647 0
M  V30 3538 H 326.383 -3.21689 -0.564274 0
M  V30 3539 H 325.042 -3.3147 1.56599 0
M  V30 3540 H 324.69 -5.02499 -0.224483 0
M  V30 3541 H 324.39 -5.70848 1.39307 0
M  V30 3542 H 325.914 -6.08218 0.538802 0
M  V30 3543 H 327.328 -5.11303 2.59311 0
M  V30 3544 H 325.725 -4.96515 3.37035 0
M  V30 3545 H 326.795 -3.55339 3.29943 0
M  V30 3546 N 328.138 -0.959301 -1.25041 0
M  V30 3547 C 329.101 -0.487677 -2.23952 0
M  V30 3548 C 330.101 0.41119 -1.55454 0
M  V30 3549 O 331.291 0.207825 -1.72956 0
M  V30 3550 C 328.423 0.294807 -3.39623 0
M  V30 3551 H 329.616 -1.36198 -2.67189 0
M  V30 3552 H 327.169 -0.743042 -1.37508 0
M  V30 3553 H 327.904 1.18658 -3.01813 0
M  V30 3554 H 327.689 -0.35012 -3.90534 0
M  V30 3555 H 329.179 0.614089 -4.1306 0
M  V30 3556 N 329.616 1.39756 -0.72842 0
M  V30 3557 C 330.579 2.29012 -0.0927297 0
M  V30 3558 C 331.579 1.45992 0.674025 0
M  V30 3559 O 332.769 1.66749 0.50402 0
M  V30 3560 C 329.901 3.29396 0.878137 0
M  V30 3561 H 331.094 2.86729 -0.879011 0
M  V30 3562 H 328.647 1.48293 -0.493847 0
M  V30 3563 H 329.382 2.76722 1.69101 0
M  V30 3564 H 329.167 3.907 0.331051 0
M  V30 3565 H 330.657 3.96199 1.3197 0
M  V30 3566 N 331.094 0.475555 1.50254 0
M  V30 3567 C 332.024 -0.30611 2.31485 0
M  V30 3568 C 333.005 -0.986228 1.38591 0
M  V30 3569 O 334.19 -0.982541 1.67511 0
M  V30 3570 C 331.32 -1.38588 3.1845 0
M  V30 3571 C 330.274 -0.827115 4.19932 0
M  V30 3572 C 329.6 -2.00551 4.95665 0
M  V30 3573 C 330.9 0.16463 5.2204 0
M  V30 3574 H 332.594 0.371866 2.97082 0
M  V30 3575 H 330.14 0.180282 1.42867 0
M  V30 3576 H 332.093 -1.94023 3.74076 0
M  V30 3577 H 330.817 -2.09269 2.50747 0
M  V30 3578 H 329.476 -0.294702 3.65414 0
M  V30 3579 H 329.124 -2.6994 4.2443 0
M  V30 3580 H 328.824 -1.63784 5.64313 0
M  V30 3581 H 330.348 -2.56468 5.54127 0
M  V30 3582 H 331.762 -0.300699 5.72511 0
M  V30 3583 H 330.159 0.446813 5.98434 0
M  V30 3584 H 331.229 1.08905 4.72512 0
M  V30 3585 N 332.573 -1.56217 0.208337 0
M  V30 3586 C 333.505 -2.1695 -0.739276 0
M  V30 3587 C 334.518 -1.13492 -1.1672 0
M  V30 3588 O 335.707 -1.40529 -1.10063 0
M  V30 3589 C 332.807 -2.72755 -2.01142 0
M  V30 3590 C 331.98 -4.0125 -1.74118 0
M  V30 3591 C 331.039 -4.41749 -2.85909 0
M  V30 3592 O 330.065 -5.08912 -2.54946 0
M  V30 3593 N 331.267 -4.06342 -4.14568 0
M  V30 3594 H 334.032 -2.98893 -0.219837 0
M  V30 3595 H 331.593 -1.61878 0.0268445 0
M  V30 3596 H 333.585 -2.96826 -2.75094 0
M  V30 3597 H 332.155 -1.95191 -2.4417 0
M  V30 3598 H 331.375 -3.85173 -0.838775 0
M  V30 3599 H 332.663 -4.851 -1.53477 0
M  V30 3600 H 332.061 -3.52345 -4.42571 0
M  V30 3601 H 330.618 -4.35335 -4.85105 0
M  V30 3602 N 334.051 0.0651679 -1.57465 0
M  V30 3603 C 335.299 0.761555 -1.87202 0
M  V30 3604 C 335.62 1.77778 -0.801243 0
M  V30 3605 O 334.89 1.95166 0.16937 0
M  V30 3606 H 333.47 0.284251 -0.690804 0
M  V30 3607 H 336.132 0.0396827 -1.9486 0
M  V30 3608 H 335.228 1.27365 -2.84929 0
M  V30 3609 N 335.529 1.53961 0.336706 0
M  V30 3610 C 336.754 1.75797 1.10046 0
M  V30 3611 C 337.179 0.498985 1.81361 0
M  V30 3612 O 336.537 -0.548769 1.72795 0
M  V30 3613 C 336.585 2.94257 2.08436 0
M  V30 3614 O 335.689 2.64883 3.16087 0
M  V30 3615 H 335.03 0.582936 0.317934 0
M  V30 3616 H 337.56 2.00945 0.38501 0
M  V30 3617 H 337.57 3.21237 2.51537 0
M  V30 3618 H 336.245 3.85564 1.55927 0
M  V30 3619 H 334.822 2.48812 2.77753 0
M  V30 3620 N 337.007 -0.598083 1.45811 0
M  V30 3621 C 337.917 -1.73632 1.57763 0
M  V30 3622 C 338.933 -1.67763 0.461676 0
M  V30 3623 O 340.109 -1.87949 0.723685 0
M  V30 3624 C 337.174 -3.10114 1.55018 0
M  V30 3625 C 336.235 -3.27364 2.77726 0
M  V30 3626 C 335.468 -4.57334 2.75102 0
M  V30 3627 O 335.691 -5.40258 1.8297 0
M  V30 3628 O 334.625 -4.77502 3.66437 0
M  V30 3629 H 338.451 -1.66498 2.53992 0
M  V30 3630 H 336.036 -0.763308 1.28429 0
M  V30 3631 H 337.918 -3.9141 1.56129 0
M  V30 3632 H 336.593 -3.17718 0.619431 0
M  V30 3633 H 335.5 -2.45619 2.82174 0
M  V30 3634 H 336.833 -3.24641 3.69958 0
M  V30 3635 N 338.485 -1.33259 -0.841409 0
M  V30 3636 C 339.713 -1.27605 -1.62864 0
M  V30 3637 C 340.128 0.153507 -1.88175 0
M  V30 3638 O 339.485 1.09485 -1.46011 0
M  V30 3639 C 339.536 -2.04596 -2.98031 0
M  V30 3640 O 339.257 -3.41975 -2.73834 0
M  V30 3641 C 340.758 -2.06122 -3.92465 0
M  V30 3642 H 337.978 -0.439718 -0.506842 0
M  V30 3643 H 340.522 -1.75591 -1.04824 0
M  V30 3644 H 338.677 -1.60299 -3.5268 0
M  V30 3645 H 339.091 -3.81549 -3.59889 0
M  V30 3646 H 340.565 -2.64451 -4.84531 0
M  V30 3647 H 341.042 -1.05083 -4.26444 0
M  V30 3648 H 341.648 -2.50427 -3.43753 0
M  V30 3649 N 339.963 1.05934 -1.16686 0
M  V30 3650 C 341.374 1.60263 -0.957745 0
M  V30 3651 C 341.725 1.89789 0.49745 0
M  V30 3652 O 340.85 1.67401 1.37135 0
M  V30 3653 C 341.445 2.91172 -1.73218 0
M  V30 3654 C 340.004 3.42188 -1.56794 0
M  V30 3655 C 339.151 2.16028 -1.73859 0
M  V30 3656 H 342.102 0.888392 -1.31504 0
M  V30 3657 H 342.123 3.60744 -1.21014 0
M  V30 3658 H 341.635 2.6965 -2.79124 0
M  V30 3659 H 339.736 3.68762 -0.533437 0
M  V30 3660 H 339.849 4.17273 -2.35414 0
M  V30 3661 H 338.213 2.26426 -1.16633 0
M  V30 3662 H 338.996 1.96985 -2.81161 0
M  V30 3663 N 341.441 0.965919 1.2453 0
M  V30 3664 C 342.689 0.625593 1.92174 0
M  V30 3665 C 343.01 -0.841652 1.75901 0
M  V30 3666 O 342.28 -1.60061 1.12948 0
M  V30 3667 H 340.86 0.228388 0.71123 0
M  V30 3668 H 343.522 1.2266 1.51461 0
M  V30 3669 H 342.618 0.864653 2.99884 0
M  V30 3670 N 342.919 -1.39368 0.735821 0
M  V30 3671 C 343.866 -2.30599 0.0963825 0
M  V30 3672 C 344.836 -1.49257 -0.728794 0
M  V30 3673 O 346.021 -1.77941 -0.688588 0
M  V30 3674 C 343.161 -3.35596 -0.804305 0
M  V30 3675 C 342.274 -4.31987 0.0335761 0
M  V30 3676 C 341.409 -5.24053 -0.868461 0
M  V30 3677 C 340.448 -6.12095 -0.0258776 0
M  V30 3678 N 339.585 -6.96514 -0.883893 0
M  V30 3679 H 344.425 -2.8471 0.880002 0
M  V30 3680 H 341.962 -1.40188 0.445619 0
M  V30 3681 H 343.92 -3.95062 -1.34096 0
M  V30 3682 H 342.55 -2.82938 -1.55389 0
M  V30 3683 H 341.602 -3.74133 0.68766 0
M  V30 3684 H 342.914 -4.94074 0.685036 0
M  V30 3685 H 342.068 -5.88549 -1.47293 0
M  V30 3686 H 340.807 -4.62289 -1.5537 0
M  V30 3687 H 339.812 -5.4661 0.591386 0
M  V30 3688 H 341.037 -6.75923 0.656156 0
M  V30 3689 H 338.983 -6.37318 -1.55441 0
M  V30 3690 H 338.9 -7.55448 -0.288931 0
M  V30 3691 H 340.168 -7.65439 -1.4739 0
M  V30 3692 N 344.397 -0.483516 -1.5 0
M  V30 3693 C 345.645 0.067027 -2.01989 0
M  V30 3694 C 345.966 1.3909 -1.36671 0
M  V30 3695 O 345.236 1.88978 -0.516152 0
M  V30 3696 H 343.816 0.0277606 -0.746484 0
M  V30 3697 H 346.478 -0.636773 -1.84204 0
M  V30 3698 H 345.574 0.209484 -3.11396 0
M  V30 3699 N 345.875 1.56104 -0.216619 0
M  V30 3700 C 347.123 1.97781 0.415593 0
M  V30 3701 C 347.444 1.10536 1.60645 0
M  V30 3702 O 346.714 0.181303 1.95059 0
M  V30 3703 H 345.294 0.730415 0.156534 0
M  V30 3704 H 347.956 1.92445 -0.308366 0
M  V30 3705 H 347.052 3.03072 0.74525 0
M  V30 3706 N 347.353 -0.0568162 1.57498 0
M  V30 3707 C 348.601 -0.751617 1.87604 0
M  V30 3708 C 348.922 -1.77351 0.81066 0
M  V30 3709 O 348.192 -1.95254 -0.159018 0
M  V30 3710 H 346.772 -0.280583 0.692302 0
M  V30 3711 H 349.434 -0.0293483 1.94878 0
M  V30 3712 H 348.53 -1.25852 2.856 0
M  V30 3713 N 348.832 -1.54138 -0.328536 0
M  V30 3714 C 350.057 -1.76378 -1.09112 0
M  V30 3715 C 350.482 -0.508596 -1.81094 0
M  V30 3716 O 349.84 0.539598 -1.73084 0
M  V30 3717 C 349.888 -2.95358 -2.06872 0
M  V30 3718 O 348.992 -2.66556 -3.14677 0
M  V30 3719 H 348.333 -0.584614 -0.314838 0
M  V30 3720 H 350.863 -2.01146 -0.374348 0
M  V30 3721 H 350.873 -3.22566 -2.4983 0
M  V30 3722 H 349.548 -3.86385 -1.5388 0
M  V30 3723 H 348.125 -2.50282 -2.7643 0
M  V30 3724 N 350.31 0.590341 -1.46126 0
M  V30 3725 C 351.535 1.37991 -1.54833 0
M  V30 3726 C 351.96 1.87163 -0.187506 0
M  V30 3727 O 351.318 1.61133 0.831008 0
M  V30 3728 C 351.366 2.54867 -2.55098 0
M  V30 3729 O 350.47 3.56061 -2.08073 0
M  V30 3730 H 349.811 0.411265 -0.521303 0
M  V30 3731 H 352.341 0.716819 -1.91632 0
M  V30 3732 H 352.351 3.01886 -2.74461 0
M  V30 3733 H 351.026 2.18429 -3.53923 0
M  V30 3734 H 349.603 3.15574 -1.98664 0
M  V30 3735 N 351.788 1.33704 0.83433 0
M  V30 3736 C 353.013 1.28615 1.62705 0
M  V30 3737 C 353.438 -0.139242 1.87584 0
M  V30 3738 O 352.796 -1.09734 1.4432 0
M  V30 3739 C 352.844 2.07139 2.95171 0
M  V30 3740 O 351.948 1.4331 3.86699 0
M  V30 3741 H 351.289 0.44226 0.49528 0
M  V30 3742 H 353.819 1.76335 1.03766 0
M  V30 3743 H 353.829 2.18073 3.44831 0
M  V30 3744 H 352.504 3.10779 2.76386 0
M  V30 3745 H 351.081 1.4105 3.45195 0
M  V30 3746 N 353.266 -1.05314 1.17247 0
M  V30 3747 C 354.491 -1.82509 0.985148 0
M  V30 3748 C 354.916 -1.82343 -0.461788 0
M  V30 3749 O 354.274 -1.23151 -1.33055 0
M  V30 3750 C 354.322 -3.26566 1.52929 0
M  V30 3751 O 353.426 -4.05666 0.742225 0
M  V30 3752 H 352.767 -0.564347 0.349869 0
M  V30 3753 H 355.297 -1.32718 1.55715 0
M  V30 3754 H 355.307 -3.77369 1.55103 0
M  V30 3755 H 353.982 -3.26001 2.58256 0
M  V30 3756 H 352.559 -3.64397 0.791794 0
M  V30 3757 N 354.744 -0.972509 -1.24016 0
M  V30 3758 C 355.969 -0.654417 -1.96805 0
M  V30 3759 C 356.394 0.770398 -1.716 0
M  V30 3760 O 355.752 1.52361 -0.982647 0
M  V30 3761 C 355.8 -0.941031 -3.48105 0
M  V30 3762 O 354.904 -0.0289472 -4.1239 0
M  V30 3763 H 354.245 -0.24692 -0.616382 0
M  V30 3764 H 356.775 -1.30396 -1.57664 0
M  V30 3765 H 356.785 -0.87452 -3.98517 0
M  V30 3766 H 355.46 -1.97939 -3.65777 0
M  V30 3767 H 354.037 -0.149192 -3.72601 0
M  V30 3768 N 356.222 1.38976 -0.743202 0
M  V30 3769 C 357.132 2.3434 -0.110399 0
M  V30 3770 C 358.148 1.58741 0.712559 0
M  V30 3771 O 359.324 1.9099 0.639125 0
M  V30 3772 C 356.389 3.37812 0.780012 0
M  V30 3773 C 355.45 4.29263 -0.0561319 0
M  V30 3774 C 354.683 5.27793 0.791875 0
M  V30 3775 O 354.906 5.33043 2.03031 0
M  V30 3776 O 353.84 6.01512 0.216183 0
M  V30 3777 H 357.666 2.90129 -0.897714 0
M  V30 3778 H 355.251 1.40643 -0.503966 0
M  V30 3779 H 357.133 4.01194 1.28923 0
M  V30 3780 H 355.808 2.84395 1.546 0
M  V30 3781 H 354.715 3.69076 -0.611056 0
M  V30 3782 H 356.048 4.85907 -0.784531 0
M  V30 3783 N 357.7 0.491464 1.49741 0
M  V30 3784 C 359.116 0.146835 1.58923 0
M  V30 3785 C 359.316 -1.34804 1.49767 0
M  V30 3786 O 358.372 -2.12317 1.36667 0
M  V30 3787 C 359.685 0.715157 2.92072 0
M  V30 3788 C 361.233 0.680407 3.05515 0
M  V30 3789 C 361.708 1.22663 4.41269 0
M  V30 3790 N 363.199 1.18691 4.47735 0
M  V30 3791 C 363.934 1.57984 5.51207 0
M  V30 3792 N 363.43 2.04824 6.6183 0
M  V30 3793 N 365.223 1.49459 5.41866 0
M  V30 3794 H 357.374 1.46347 1.53936 0
M  V30 3795 H 359.637 0.606453 0.728642 0
M  V30 3796 H 359.343 1.76317 3.04311 0
M  V30 3797 H 359.217 0.17018 3.76816 0
M  V30 3798 H 361.604 -0.358743 2.92911 0
M  V30 3799 H 361.685 1.26242 2.22478 0
M  V30 3800 H 361.329 2.26451 4.54623 0
M  V30 3801 H 361.259 0.620637 5.2293 0
M  V30 3802 H 363.75 0.843605 3.68364 0
M  V30 3803 H 364.063 2.32901 7.3687 0
M  V30 3804 H 362.408 2.08791 6.62896 0
M  V30 3805 H 365.599 1.12692 4.54333 0
M  V30 3806 H 365.772 1.80406 6.22381 0
M  V30 3807 N 359.178 -1.55987 0.224894 0
M  V30 3808 C 360.403 -2.03232 -0.41369 0
M  V30 3809 C 360.828 -1.10359 -1.52323 0
M  V30 3810 O 360.186 -0.092395 -1.81064 0
M  V30 3811 C 360.234 -3.48682 -0.919405 0
M  V30 3812 O 359.338 -3.58947 -2.03054 0
M  V30 3813 H 358.679 -0.657428 -0.0931903 0
M  V30 3814 H 361.209 -2.01679 0.34451 0
M  V30 3815 H 361.219 -3.8907 -1.22835 0
M  V30 3816 H 359.894 -4.15761 -0.107339 0
M  V30 3817 H 358.471 -3.30448 -1.72796 0
M  V30 3818 N 360.656 0.0484629 -1.57525 0
M  V30 3819 C 361.588 1.08222 -2.02041 0
M  V30 3820 C 362.601 1.33621 -0.930012 0
M  V30 3821 O 363.79 1.3145 -1.20761 0
M  V30 3822 C 360.89 2.42818 -2.36416 0
M  V30 3823 C 360.063 2.37049 -3.67596 0
M  V30 3824 C 359.122 3.53937 -3.89378 0
M  V30 3825 O 358.148 3.34308 -4.60681 0
M  V30 3826 N 359.35 4.75126 -3.3352 0
M  V30 3827 H 362.115 0.702946 -2.9134 0
M  V30 3828 H 359.676 0.236745 -1.6016 0
M  V30 3829 H 361.668 3.197 -2.48141 0
M  V30 3830 H 360.238 2.72661 -1.52888 0
M  V30 3831 H 359.458 1.45395 -3.66407 0
M  V30 3832 H 360.746 2.30318 -4.53686 0
M  V30 3833 H 360.144 4.93976 -2.75688 0
M  V30 3834 H 358.701 5.49439 -3.50656 0
M  V30 3835 N 362.134 1.5431 0.320358 0
M  V30 3836 C 363.545 1.63872 0.894594 0
M  V30 3837 C 363.896 0.534847 1.88769 0
M  V30 3838 O 363.021 -0.331732 2.13842 0
M  V30 3839 C 363.616 2.97049 1.62934 0
M  V30 3840 C 362.175 3.08796 2.15226 0
M  V30 3841 C 361.322 2.59456 0.978671 0
M  V30 3842 H 364.273 1.58398 0.0978544 0
M  V30 3843 H 364.294 2.87388 2.49376 0
M  V30 3844 H 363.806 3.7737 0.906302 0
M  V30 3845 H 361.907 2.33156 2.90636 0
M  V30 3846 H 362.02 4.14649 2.40006 0
M  V30 3847 H 360.384 2.1543 1.35875 0
M  V30 3848 H 361.167 3.42237 0.269895 0
M  V30 3849 N 363.613 -0.582584 1.46437 0
M  V30 3850 C 364.861 -1.33814 1.51453 0
M  V30 3851 C 365.182 -1.94277 0.167792 0
M  V30 3852 O 364.452 -1.78566 -0.805677 0
M  V30 3853 H 363.032 -0.496838 0.557818 0
M  V30 3854 H 365.694 -0.682281 1.82568 0
M  V30 3855 H 364.79 -2.14479 2.26728 0
M  V30 3856 N 365.091 -1.34144 -0.827227 0
M  V30 3857 C 366.054 -1.25264 -1.91942 0
M  V30 3858 C 367.054 -0.168866 -1.59911 0
M  V30 3859 O 368.244 -0.421198 -1.69031 0
M  V30 3860 C 365.376 -0.932952 -3.27885 0
M  V30 3861 H 366.569 -2.22357 -2.0124 0
M  V30 3862 H 364.122 -1.1837 -1.0207 0
M  V30 3863 H 364.857 0.0349917 -3.24281 0
M  V30 3864 H 364.642 -1.71682 -3.52516 0
M  V30 3865 H 366.132 -0.895874 -4.07877 0
M  V30 3866 N 366.569 1.04691 -1.17803 0
M  V30 3867 C 367.479 2.16057 -0.914151 0
M  V30 3868 C 368.495 1.73589 0.119503 0
M  V30 3869 O 369.671 2.01308 -0.0609468 0
M  V30 3870 C 366.736 3.4394 -0.436603 0
M  V30 3871 C 365.797 4.00825 -1.53746 0
M  V30 3872 C 365.03 5.22604 -1.0826 0
M  V30 3873 O 365.253 5.70367 0.0612244 0
M  V30 3874 O 364.187 5.7186 -1.87775 0
M  V30 3875 H 368.013 2.41169 -1.84584 0
M  V30 3876 H 365.598 1.1453 -0.959334 0
M  V30 3877 H 367.48 4.21024 -0.178057 0
M  V30 3878 H 366.155 3.20316 0.466869 0
M  V30 3879 H 365.062 3.25158 -1.84995 0
M  V30 3880 H 366.395 4.28778 -2.41683 0
M  V30 3881 N 368.047 0.979072 1.23499 0
M  V30 3882 C 369.295 0.645941 1.91499 0
M  V30 3883 C 369.616 -0.822948 1.76784 0
M  V30 3884 O 368.886 -1.58854 1.14639 0
M  V30 3885 H 367.466 0.235919 0.708767 0
M  V30 3886 H 370.128 1.2426 1.50152 0
M  V30 3887 H 369.224 0.896411 2.9895 0
M  V30 3888 N 369.525 -1.3858 0.750561 0
M  V30 3889 C 370.75 -2.04997 0.314812 0
M  V30 3890 C 371.175 -1.56235 -1.04749 0
M  V30 3891 O 370.533 -0.712981 -1.66692 0
M  V30 3892 C 370.581 -3.58961 0.343415 0
M  V30 3893 O 369.685 -4.07025 -0.663628 0
M  V30 3894 H 369.026 -0.649081 0.139962 0
M  V30 3895 H 371.556 -1.77313 1.02084 0
M  V30 3896 H 371.566 -4.07542 0.193233 0
M  V30 3897 H 370.241 -3.93811 1.33738 0
M  V30 3898 H 368.818 -3.6982 -0.478307 0
M  V30 3899 N 371.003 -0.499398 -1.49478 0
M  V30 3900 C 372.414 -0.051215 -1.8663 0
M  V30 3901 C 372.765 1.36238 -1.41186 0
M  V30 3902 O 371.89 2.01502 -0.789051 0
M  V30 3903 C 372.485 -0.0861651 -3.3869 0
M  V30 3904 C 371.044 0.30667 -3.75149 0
M  V30 3905 C 370.191 -0.459397 -2.73468 0
M  V30 3906 H 373.142 -0.712264 -1.41818 0
M  V30 3907 H 373.163 0.709507 -3.73826 0
M  V30 3908 H 372.675 -1.11512 -3.71735 0
M  V30 3909 H 370.776 1.33892 -3.47712 0
M  V30 3910 H 370.889 -0.0116669 -4.79099 0
M  V30 3911 H 369.253 0.0905645 -2.54539 0
M  V30 3912 H 370.036 -1.4884 -3.09357 0
M  V30 3913 N 372.481 1.55866 -0.233164 0
M  V30 3914 C 373.391 2.24431 0.683217 0
M  V30 3915 C 374.407 1.2558 1.2044 0
M  V30 3916 O 375.583 1.58422 1.24356 0
M  V30 3917 C 372.648 2.91979 1.86947 0
M  V30 3918 C 371.709 4.06204 1.38912 0
M  V30 3919 C 370.942 4.70522 2.51883 0
M  V30 3920 O 371.165 4.33865 3.70293 0
M  V30 3921 O 370.099 5.59296 2.22423 0
M  V30 3922 H 373.925 3.03426 0.129059 0
M  V30 3923 H 371.51 1.494 -0.0022283 0
M  V30 3924 H 373.392 3.34573 2.56201 0
M  V30 3925 H 372.067 2.15935 2.41151 0
M  V30 3926 H 370.974 3.68155 0.664259 0
M  V30 3927 H 372.307 4.84025 0.893328 0
M  V30 3928 N 373.959 -0.0401083 1.57549 0
M  V30 3929 C 375.187 -0.745196 1.93014 0
M  V30 3930 C 375.602 -1.6948 0.831984 0
M  V30 3931 O 374.959 -1.81482 -0.192463 0
M  V30 3932 C 375.01 -1.51176 3.28372 0
M  V30 3933 O 374.731 -0.600284 4.33968 0
M  V30 3934 C 376.232 -2.315 3.78051 0
M  V30 3935 H 373.452 -0.210088 0.637263 0
M  V30 3936 H 375.996 -0.000924689 2.045 0
M  V30 3937 H 374.151 -2.20801 3.18317 0
M  V30 3938 H 374.565 -1.13669 5.12035 0
M  V30 3939 H 376.039 -2.80697 4.75303 0
M  V30 3940 H 376.516 -3.12436 3.08675 0
M  V30 3941 H 377.122 -1.66971 3.91153 0
M  V30 3942 N 375.437 -1.54477 -0.31217 0
M  V30 3943 C 376.848 -1.64344 -0.885891 0
M  V30 3944 C 377.199 -0.54485 -1.88483 0
M  V30 3945 O 376.324 0.320387 -2.14015 0
M  V30 3946 C 376.919 -2.97908 -1.61357 0
M  V30 3947 C 375.478 -3.09933 -2.13585 0
M  V30 3948 C 374.625 -2.59971 -0.964897 0
M  V30 3949 H 377.576 -1.58448 -0.0894528 0
M  V30 3950 H 377.597 -2.88706 -2.47848 0
M  V30 3951 H 377.109 -3.77845 -0.886277 0
M  V30 3952 H 375.21 -2.34694 -2.89395 0
M  V30 3953 H 375.323 -4.15916 -2.37804 0
M  V30 3954 H 373.687 -2.16147 -1.34731 0
M  V30 3955 H 374.47 -3.42376 -0.251742 0
M  V30 3956 N 376.915 0.57481 -1.46744 0
M  V30 3957 C 378.326 1.15695 -1.46532 0
M  V30 3958 C 378.677 1.95068 -0.210425 0
M  V30 3959 O 377.802 2.05241 0.685944 0
M  V30 3960 C 378.397 2.1048 -2.65487 0
M  V30 3961 C 376.956 2.64002 -2.68291 0
M  V30 3962 C 376.103 1.40026 -2.39349 0
M  V30 3963 H 379.054 0.362325 -1.54509 0
M  V30 3964 H 379.075 2.94074 -2.41455 0
M  V30 3965 H 378.587 1.52683 -3.56805 0
M  V30 3966 H 376.688 3.25646 -1.81067 0
M  V30 3967 H 376.801 3.06197 -3.68483 0
M  V30 3968 H 375.165 1.70106 -1.89568 0
M  V30 3969 H 375.948 0.840485 -3.32852 0
M  V30 3970 N 378.394 1.34581 0.820102 0
M  V30 3971 C 379.642 1.26845 1.57336 0
M  V30 3972 C 379.963 -0.160667 1.94337 0
M  V30 3973 O 379.233 -1.09396 1.6251 0
M  V30 3974 H 377.813 0.466514 0.583415 0
M  V30 3975 H 380.475 1.68526 0.979027 0
M  V30 3976 H 379.571 1.87513 2.4949 0
M  V30 3977 N 379.872 -1.04064 1.18357 0
M  V30 3978 C 381.288 -1.2947 0.933258 0
M  V30 3979 C 381.488 -1.97466 -0.401169 0
M  V30 3980 O 380.544 -2.25528 -1.13549 0
M  V30 3981 C 381.857 -2.15337 2.09882 0
M  V30 3982 C 383.405 -2.28683 2.13712 0
M  V30 3983 C 383.88 -3.17917 3.29686 0
M  V30 3984 N 385.371 -3.25504 3.29547 0
M  V30 3985 C 386.106 -3.94706 4.15926 0
M  V30 3986 N 385.602 -4.66239 5.12439 0
M  V30 3987 N 387.395 -3.90986 4.0384 0
M  V30 3988 H 379.546 -0.583359 2.04232 0
M  V30 3989 H 381.809 -0.319921 0.892387 0
M  V30 3990 H 381.515 -1.72682 3.06389 0
M  V30 3991 H 381.389 -3.16015 2.05947 0
M  V30 3992 H 383.776 -2.70575 1.17784 0
M  V30 3993 H 383.857 -1.27596 2.21705 0
M  V30 3994 H 383.501 -2.76736 4.25887 0
M  V30 3995 H 383.431 -4.19036 3.1893 0
M  V30 3996 H 385.922 -2.74547 2.59677 0
M  V30 3997 H 386.235 -5.16638 5.74722 0
M  V30 3998 H 384.58 -4.65143 5.16398 0
M  V30 3999 H 387.771 -3.34234 3.27727 0
M  V30 4000 H 387.944 -4.44646 4.71375 0
M  V30 4001 N 381.35 -0.985608 -1.22978 0
M  V30 4002 C 382.59 -0.665487 -1.93263 0
M  V30 4003 C 382.954 0.78706 -1.75127 0
M  V30 4004 O 384.155 1.21826 -2.39608 0
M  V30 4005 C 382.426 -1.0515 -3.41582 0
M  V30 4006 S 383.985 -0.848637 -4.30516 0
M  V30 4007 H 380.803 -0.24355 -0.667985 0
M  V30 4008 H 383.405 -1.26635 -1.48942 0
M  V30 4009 H 382.109 -2.10517 -3.52293 0
M  V30 4010 H 381.64 -0.442134 -3.90908 0
M  V30 4011 H 383.655 0.264717 -4.95493 0
M  V30 4012 N 382.828 1.3818 -0.7579 0
M  V30 4013 C 384.068 2.01864 -0.320968 0
M  V30 4014 C 384.432 1.58863 1.07827 0
M  V30 4015 O 385.633 2.14908 1.61456 0
M  V30 4016 C 383.904 3.54626 -0.44446 0
M  V30 4017 S 385.463 4.38706 -0.0907467 0
M  V30 4018 H 382.281 0.700056 -0.124268 0
M  V30 4019 H 384.883 1.68611 -0.989468 0
M  V30 4020 H 383.587 3.83411 -1.4637 0
M  V30 4021 H 383.118 3.92661 0.241073 0
M  V30 4022 H 385.133 4.83435 1.11826 0
M  V30 4023 N 384.306 0.507319 1.49211 0
M  V30 4024 C 385.722 0.163682 1.58758 0
M  V30 4025 C 385.922 -1.33208 1.51188 0
M  V30 4026 O 384.978 -2.10855 1.38911 0
M  V30 4027 C 386.291 0.746095 2.91297 0
M  V30 4028 C 387.839 0.712773 3.04776 0
M  V30 4029 C 388.314 1.27336 4.39943 0
M  V30 4030 N 389.805 1.23433 4.46451 0
M  V30 4031 C 390.54 1.63821 5.495 0
M  V30 4032 N 390.036 2.11832 6.5962 0
M  V30 4033 N 391.829 1.55198 5.4025 0
M  V30 4034 H 383.98 1.47972 1.52375 0
M  V30 4035 H 386.243 0.614147 0.722168 0
M  V30 4036 H 385.949 1.79534 3.02424 0
M  V30 4037 H 385.823 0.210137 3.76614 0
M  V30 4038 H 388.21 -0.327656 2.93275 0
M  V30 4039 H 388.291 1.28595 2.21127 0
M  V30 4040 H 387.935 2.3126 4.52196 0
M  V30 4041 H 387.865 0.676066 5.22242 0
M  V30 4042 H 390.356 0.882627 3.67448 0
M  V30 4043 H 390.669 2.40703 7.34358 0
M  V30 4044 H 389.014 2.1581 6.60644 0
M  V30 4045 H 392.205 1.17505 4.53112 0
M  V30 4046 H 392.378 1.86997 6.20432 0
M  V30 4047 N 385.784 -1.5574 0.241426 0
M  V30 4048 C 387.024 -2.00714 -0.38644 0
M  V30 4049 C 387.388 -1.12586 -1.55526 0
M  V30 4050 O 388.589 -1.46992 -2.25048 0
M  V30 4051 C 386.86 -3.48534 -0.791128 0
M  V30 4052 S 388.419 -4.15519 -1.41029 0
M  V30 4053 H 385.237 -0.700484 -0.121834 0
M  V30 4054 H 387.839 -1.92243 0.355377 0
M  V30 4055 H 386.543 -4.10342 0.0689225 0
M  V30 4056 H 386.074 -3.6092 -1.56526 0
M  V30 4057 H 388.089 -4.16352 -2.69936 0
M  V30 4058 N 387.262 0.0317525 -1.57568 0
M  V30 4059 C 388.502 0.727979 -1.90997 0
M  V30 4060 C 388.866 1.72664 -0.839708 0
M  V30 4061 O 390.067 2.47092 -1.05825 0
M  V30 4062 C 388.338 1.38239 -3.29583 0
M  V30 4063 S 389.897 2.10814 -3.84841 0
M  V30 4064 H 386.715 0.241226 -0.668828 0
M  V30 4065 H 389.317 -0.0173037 -1.95492 0
M  V30 4066 H 388.021 0.642288 -4.05343 0
M  V30 4067 H 387.552 2.16628 -3.28384 0
M  V30 4068 H 389.567 3.3792 -3.63352 0
M  V30 4069 N 388.74 1.54641 0.303973 0
M  V30 4070 C 390.156 1.45788 0.649463 0
M  V30 4071 C 390.356 0.64666 1.90842 0
M  V30 4072 O 389.412 0.153183 2.52035 0
M  V30 4073 C 390.725 2.89718 0.805227 0
M  V30 4074 C 392.273 2.99742 0.901305 0
M  V30 4075 C 392.748 4.44863 1.08909 0
M  V30 4076 N 394.239 4.48559 1.15536 0
M  V30 4077 C 394.974 5.58026 1.3189 0
M  V30 4078 N 394.47 6.77422 1.45161 0
M  V30 4079 N 396.263 5.45708 1.34755 0
M  V30 4080 H 388.414 2.05854 -0.523237 0
M  V30 4081 H 390.677 0.932186 -0.172431 0
M  V30 4082 H 390.383 3.51666 -0.0489108 0
M  V30 4083 H 390.257 3.36964 1.69513 0
M  V30 4084 H 392.644 2.3791 1.74593 0
M  V30 4085 H 392.725 2.55797 -0.0125531 0
M  V30 4086 H 392.369 5.07288 0.249241 0
M  V30 4087 H 392.299 4.86436 2.01713 0
M  V30 4088 H 394.79 3.6254 1.06646 0
M  V30 4089 H 395.103 7.56604 1.57387 0
M  V30 4090 H 393.448 6.80292 1.42223 0
M  V30 4091 H 396.639 4.51378 1.23996 0
M  V30 4092 H 396.812 6.3107 1.47157 0
M  V30 4093 N 390.218 -0.567019 1.47046 0
M  V30 4094 C 391.181 -1.65696 1.58359 0
M  V30 4095 C 392.181 -1.54097 0.459441 0
M  V30 4096 O 393.371 -1.58432 0.724225 0
M  V30 4097 C 390.503 -3.05197 1.51879 0
M  V30 4098 H 391.696 -1.57019 2.5551 0
M  V30 4099 H 389.249 -0.786148 1.3509 0
M  V30 4100 H 389.984 -3.19417 0.560673 0
M  V30 4101 H 389.769 -3.15025 2.33455 0
M  V30 4102 H 391.259 -3.84511 1.62913 0
M  V30 4103 N 391.696 -1.35014 -0.812953 0
M  V30 4104 C 393.107 -1.25035 -1.38648 0
M  V30 4105 C 393.458 0.119967 -1.95833 0
M  V30 4106 O 392.583 1.02069 -1.90816 0
M  V30 4107 C 393.178 -2.26394 -2.52054 0
M  V30 4108 C 391.737 -2.20175 -3.05287 0
M  V30 4109 C 390.884 -2.12451 -1.78213 0
M  V30 4110 H 393.835 -1.46235 -0.616516 0
M  V30 4111 H 393.856 -1.88672 -3.30429 0
M  V30 4112 H 393.368 -3.26116 -2.10404 0
M  V30 4113 H 391.469 -1.23841 -3.51417 0
M  V30 4114 H 391.582 -3.11863 -3.63701 0
M  V30 4115 H 389.946 -1.58328 -1.9951 0
M  V30 4116 H 390.729 -3.14024 -1.38723 0
M  V30 4117 N 393.175 1.03435 -1.18907 0
M  V30 4118 C 394.591 1.28973 -0.940111 0
M  V30 4119 C 394.791 1.97676 0.390691 0
M  V30 4120 O 393.847 2.26127 1.12352 0
M  V30 4121 C 395.16 2.14221 -2.11021 0
M  V30 4122 C 396.708 2.27547 -2.14922 0
M  V30 4123 C 397.183 3.16164 -3.31367 0
M  V30 4124 N 398.674 3.23752 -3.31269 0
M  V30 4125 C 399.409 3.92495 -4.18014 0
M  V30 4126 N 398.905 4.63515 -5.14904 0
M  V30 4127 N 400.698 3.88838 -4.05908 0
M  V30 4128 H 392.849 0.57252 -2.04538 0
M  V30 4129 H 395.112 0.315184 -0.894071 0
M  V30 4130 H 394.818 1.71054 -3.073 0
M  V30 4131 H 394.692 3.14919 -2.0762 0
M  V30 4132 H 397.079 2.69947 -1.19217 0
M  V30 4133 H 397.16 1.26418 -2.22378 0
M  V30 4134 H 396.804 2.74474 -4.27348 0
M  V30 4135 H 396.734 4.17339 -3.21148 0
M  V30 4136 H 399.225 2.73167 -2.61129 0
M  V30 4137 H 399.538 5.13583 -5.77453 0
M  V30 4138 H 397.883 4.62398 -5.18857 0
M  V30 4139 H 401.074 3.32491 -3.29495 0
M  V30 4140 H 401.247 4.4214 -4.73726 0
M  V30 4141 N 394.653 0.992116 1.22453 0
M  V30 4142 C 395.583 0.561677 2.26644 0
M  V30 4143 C 396.564 -0.411055 1.65059 0
M  V30 4144 O 397.749 -0.301861 1.9184 0
M  V30 4145 C 394.879 -0.125247 3.47074 0
M  V30 4146 C 393.833 0.765948 4.21091 0
M  V30 4147 C 393.159 -0.0538484 5.34673 0
M  V30 4148 C 394.459 2.06242 4.79856 0
M  V30 4149 H 396.153 1.43259 2.62902 0
M  V30 4150 H 393.699 0.690283 1.26377 0
M  V30 4151 H 395.652 -0.437764 4.1912 0
M  V30 4152 H 394.376 -1.03069 3.0991 0
M  V30 4153 H 393.035 1.0621 3.50878 0
M  V30 4154 H 392.683 -0.960188 4.9375 0
M  V30 4155 H 392.383 0.539415 5.85119 0
M  V30 4156 H 393.907 -0.360477 6.09535 0
M  V30 4157 H 395.321 1.8139 5.43848 0
M  V30 4158 H 393.718 2.60444 5.40638 0
M  V30 4159 H 394.788 2.74167 3.99951 0
M  V30 4160 N 396.131 -1.37776 0.765217 0
M  V30 4161 C 397.061 -2.32945 0.160953 0
M  V30 4162 C 398.042 -1.55454 -0.690516 0
M  V30 4163 O 399.227 -1.83721 -0.629318 0
M  V30 4164 C 396.357 -3.39669 -0.724031 0
M  V30 4165 C 395.311 -4.27992 0.0256173 0
M  V30 4166 C 394.637 -5.25673 -0.978383 0
M  V30 4167 C 395.937 -5.08309 1.20082 0
M  V30 4168 H 397.631 -2.83728 0.955969 0
M  V30 4169 H 395.177 -1.36416 0.461149 0
M  V30 4170 H 397.13 -4.05219 -1.15652 0
M  V30 4171 H 395.854 -2.87396 -1.5515 0
M  V30 4172 H 394.513 -3.63964 0.438812 0
M  V30 4173 H 394.161 -4.69682 -1.80022 0
M  V30 4174 H 393.861 -5.85625 -0.481378 0
M  V30 4175 H 395.385 -5.94098 -1.40995 0
M  V30 4176 H 396.799 -5.67034 0.845307 0
M  V30 4177 H 395.196 -5.77554 1.62947 0
M  V30 4178 H 396.266 -4.41365 2.00811 0
M  V30 4179 N 397.609 -0.515225 -1.4894 0
M  V30 4180 C 398.541 0.292481 -2.27326 0
M  V30 4181 C 399.554 0.917838 -1.3446 0
M  V30 4182 O 400.743 0.798772 -1.5963 0
M  V30 4183 C 397.843 1.42803 -3.07344 0
M  V30 4184 C 397.016 0.907347 -4.27885 0
M  V30 4185 C 396.075 1.92222 -4.89834 0
M  V30 4186 O 395.101 1.48506 -5.49486 0
M  V30 4187 N 396.303 3.25355 -4.80754 0
M  V30 4188 H 399.068 -0.379721 -2.97285 0
M  V30 4189 H 396.629 -0.348638 -1.58102 0
M  V30 4190 H 398.621 2.10481 -3.45658 0
M  V30 4191 H 397.191 2.00414 -2.39902 0
M  V30 4192 H 396.411 0.0550218 -3.94162 0
M  V30 4193 H 397.699 0.538108 -5.05946 0
M  V30 4194 H 397.097 3.6355 -4.33414 0
M  V30 4195 H 395.654 3.88707 -5.23211 0
M  V30 4196 N 399.087 1.5561 -0.249682 0
M  V30 4197 C 400.05 2.20217 0.635394 0
M  V30 4198 C 401.05 1.17227 1.10066 0
M  V30 4199 O 402.24 1.42292 1.00492 0
M  V30 4200 C 399.372 2.84794 1.87363 0
M  V30 4201 H 400.565 2.99814 0.0716752 0
M  V30 4202 H 398.118 1.563 -0.000153234 0
M  V30 4203 H 398.853 2.09142 2.47851 0
M  V30 4204 H 398.638 3.60241 1.5482 0
M  V30 4205 H 400.128 3.3423 2.5036 0
M  V30 4206 N 400.565 -0.0233959 1.57583 0
M  V30 4207 C 401.795 -0.723631 1.93513 0
M  V30 4208 C 402.203 -1.69115 0.848333 0
M  V30 4209 O 401.546 -1.82781 -0.183484 0
M  V30 4210 C 401.608 -1.53075 3.25282 0
M  V30 4211 C 401.272 -0.727388 4.51174 0
M  V30 4212 C 402.269 -0.0251924 5.19894 0
M  V30 4213 C 399.954 -0.680256 4.97672 0
M  V30 4214 C 401.948 0.713374 6.33395 0
M  V30 4215 C 399.635 0.0620523 6.11068 0
M  V30 4216 C 400.633 0.757622 6.78785 0
M  V30 4217 O 400.321 1.48787 7.90011 0
M  V30 4218 H 400.053 -0.208051 0.643188 0
M  V30 4219 H 402.607 0.0167489 2.05393 0
M  V30 4220 H 400.837 -2.31508 3.09744 0
M  V30 4221 H 402.526 -2.11413 3.46496 0
M  V30 4222 H 403.292 -0.0526003 4.84971 0
M  V30 4223 H 399.171 -1.21116 4.44805 0
M  V30 4224 H 402.715 1.25683 6.86185 0
M  V30 4225 H 398.612 0.0913634 6.45435 0
M  V30 4226 H 399.38 1.40213 8.06401 0
M  V30 4227 N 402.043 -1.548 -0.295768 0
M  V30 4228 C 403.268 -1.78653 -1.05346 0
M  V30 4229 C 403.693 -0.546894 -1.79974 0
M  V30 4230 O 403.051 0.502763 -1.7419 0
M  V30 4231 C 403.099 -2.99679 -2.00561 0
M  V30 4232 O 402.203 -2.7317 -3.08953 0
M  V30 4233 H 401.544 -0.59116 -0.302367 0
M  V30 4234 H 404.074 -2.01895 -0.331598 0
M  V30 4235 H 404.084 -3.27793 -2.42932 0
M  V30 4236 H 402.759 -3.89562 -1.4565 0
M  V30 4237 H 401.336 -2.56089 -2.71059 0
M  V30 4238 N 403.521 0.559213 -1.47345 0
M  V30 4239 C 404.767 1.31614 -1.55079 0
M  V30 4240 C 405.122 1.91257 -0.209422 0
M  V30 4241 O 404.415 1.74796 0.784656 0
M  V30 4242 C 404.609 2.44853 -2.6035 0
M  V30 4243 C 404.438 1.96305 -4.04591 0
M  V30 4244 C 403.208 1.8024 -4.72061 0
M  V30 4245 C 405.406 1.50872 -4.91673 0
M  V30 4246 N 403.388 1.26011 -6.00828 0
M  V30 4247 C 404.759 1.08395 -6.10451 0
M  V30 4248 C 406.814 1.38905 -4.78132 0
M  V30 4249 C 405.517 0.551399 -7.17183 0
M  V30 4250 C 407.543 0.870518 -5.84958 0
M  V30 4251 C 406.905 0.455661 -7.02925 0
M  V30 4252 H 403.004 0.473712 -0.62219 0
M  V30 4253 H 405.588 0.634103 -1.84085 0
M  V30 4254 H 403.759 3.10589 -2.33215 0
M  V30 4255 H 405.491 3.11849 -2.57938 0
M  V30 4256 H 402.246 2.02895 -4.27937 0
M  V30 4257 H 402.67 1.00991 -6.69425 0
M  V30 4258 H 407.312 1.69591 -3.87297 0
M  V30 4259 H 405.03 0.232159 -8.07766 0
M  V30 4260 H 408.616 0.781507 -5.76527 0
M  V30 4261 H 407.496 0.0606414 -7.84177 0
M  V30 4262 N 404.999 1.35443 0.805782 0
M  V30 4263 C 405.946 1.28431 1.91766 0
M  V30 4264 C 406.916 0.156102 1.65365 0
M  V30 4265 O 408.101 0.339936 1.87747 0
M  V30 4266 C 405.241 1.06301 3.2832 0
M  V30 4267 C 404.354 2.2805 3.66902 0
M  V30 4268 C 403.489 1.99064 4.92491 0
M  V30 4269 C 402.528 3.16863 5.23703 0
M  V30 4270 N 401.665 2.87647 6.40471 0
M  V30 4271 H 406.505 2.23511 1.97096 0
M  V30 4272 H 404.042 1.11105 0.964054 0
M  V30 4273 H 406 0.915012 4.07042 0
M  V30 4274 H 404.63 0.148822 3.22457 0
M  V30 4275 H 403.682 2.53711 2.83434 0
M  V30 4276 H 404.994 3.1601 3.85927 0
M  V30 4277 H 404.148 1.81099 5.7904 0
M  V30 4278 H 402.887 1.0839 4.75503 0
M  V30 4279 H 401.892 3.35404 4.35642 0
M  V30 4280 H 403.117 4.08339 5.4262 0
M  V30 4281 H 401.063 1.99568 6.24907 0
M  V30 4282 H 400.98 3.69141 6.59751 0
M  V30 4283 H 402.248 2.73226 7.30047 0
M  V30 4284 N 406.477 -1.02803 1.19454 0
M  V30 4285 C 407.387 -2.14575 0.948408 0
M  V30 4286 C 408.403 -1.73757 -0.091871 0
M  V30 4287 O 409.579 -2.01185 0.0929654 0
M  V30 4288 C 406.644 -3.43202 0.491265 0
M  V30 4289 C 405.705 -3.98328 1.60103 0
M  V30 4290 C 404.938 -5.20816 1.16561 0
M  V30 4291 O 405.161 -5.70392 0.0295238 0
M  V30 4292 O 404.095 -5.68801 1.96849 0
M  V30 4293 H 407.921 -2.38202 1.88397 0
M  V30 4294 H 405.506 -1.12989 0.977433 0
M  V30 4295 H 407.388 -4.20687 0.245015 0
M  V30 4296 H 406.063 -3.21018 -0.415851 0
M  V30 4297 H 404.97 -3.22174 1.90144 0
M  V30 4298 H 406.303 -4.24879 2.48473 0
M  V30 4299 N 407.956 -0.998596 -1.21925 0
M  V30 4300 C 408.866 -0.562736 -2.27751 0
M  V30 4301 C 409.882 0.391203 -1.69545 0
M  V30 4302 O 411.058 0.256625 -1.99758 0
M  V30 4303 C 408.123 0.11012 -3.46525 0
M  V30 4304 C 407.184 -0.887495 -4.20026 0
M  V30 4305 C 406.417 -0.246654 -5.3313 0
M  V30 4306 O 406.64 0.958088 -5.62296 0
M  V30 4307 O 405.574 -0.954374 -5.94286 0
M  V30 4308 H 409.4 -1.44329 -2.67213 0
M  V30 4309 H 406.985 -0.767135 -1.28201 0
M  V30 4310 H 408.867 0.486756 -4.18579 0
M  V30 4311 H 407.542 0.965154 -3.08976 0
M  V30 4312 H 406.449 -1.31517 -3.5022 0
M  V30 4313 H 407.782 -1.71191 -4.6147 0
M  V30 4314 N 409.434 1.37368 -0.772513 0
M  V30 4315 C 410.344 2.34053 -0.160081 0
M  V30 4316 C 411.36 1.60216 0.678728 0
M  V30 4317 O 412.536 1.92303 0.59847 0
M  V30 4318 C 409.601 3.3939 0.708182 0
M  V30 4319 C 408.662 4.29048 -0.147172 0
M  V30 4320 C 407.895 5.29354 0.679744 0
M  V30 4321 O 408.118 5.3723 1.91678 0
M  V30 4322 O 407.052 6.01835 0.0885444 0
M  V30 4323 H 410.878 2.88159 -0.959053 0
M  V30 4324 H 408.463 1.39543 -0.533685 0
M  V30 4325 H 410.345 4.03839 1.20384 0
M  V30 4326 H 409.02 2.8761 1.48533 0
M  V30 4327 H 407.927 3.67697 -0.689205 0
M  V30 4328 H 409.26 4.84134 -0.887423 0
M  V30 4329 N 410.912 0.523116 1.48665 0
M  V30 4330 C 411.822 -0.247406 2.33292 0
M  V30 4331 C 412.838 -0.945769 1.46052 0
M  V30 4332 O 414.014 -0.922253 1.79043 0
M  V30 4333 C 411.079 -1.28487 3.22012 0
M  V30 4334 C 410.14 -0.597592 4.2512 0
M  V30 4335 C 409.373 -1.58563 5.09601 0
M  V30 4336 O 409.596 -2.81763 4.95949 0
M  V30 4337 O 408.53 -1.12879 5.91221 0
M  V30 4338 H 412.356 0.445869 3.00409 0
M  V30 4339 H 409.941 0.284128 1.46673 0
M  V30 4340 H 411.823 -1.88459 3.7691 0
M  V30 4341 H 410.498 -1.96068 2.57564 0
M  V30 4342 H 409.405 0.0424407 3.74076 0
M  V30 4343 H 410.738 0.0361517 4.92187 0
M  V30 4344 N 412.39 -1.55475 0.257931 0
M  V30 4345 C 413.3 -2.2549 -0.647425 0
M  V30 4346 C 414.316 -1.2748 -1.18427 0
M  V30 4347 O 415.492 -1.6038 -1.2182 0
M  V30 4348 C 412.557 -2.94916 -1.82278 0
M  V30 4349 C 411.618 -4.08363 -1.32432 0
M  V30 4350 C 410.851 -4.74469 -2.44366 0
M  V30 4351 O 411.074 -4.39701 -3.63344 0
M  V30 4352 O 410.008 -5.62763 -2.13497 0
M  V30 4353 H 413.834 -3.03593 -0.0807707 0
M  V30 4354 H 411.419 -1.49377 0.0259962 0
M  V30 4355 H 413.301 -3.38606 -2.50846 0
M  V30 4356 H 411.976 -2.19744 -2.37685 0
M  V30 4357 H 410.883 -3.69166 -0.605605 0
M  V30 4358 H 412.216 -4.85385 -0.816211 0
M  V30 4359 N 413.868 0.0150385 -1.57593 0
M  V30 4360 C 415.145 0.7392 -1.81094 0
M  V30 4361 C 415.525 1.92817 -0.859344 0
M  V30 4362 O 414.873 2.28301 0.095362 0
M  V30 4363 C 415.083 1.15907 -3.29191 0
M  V30 4364 C 416.431 1.56918 -3.9454 0
M  V30 4365 O 417.455 1.25328 -3.33424 0
M  V30 4366 O 416.314 2.15604 -5.02173 0
M  V30 4367 H 413.408 0.358631 -0.745193 0
M  V30 4368 H 415.954 -0.00926156 -1.69697 0
M  V30 4369 H 414.726 0.310921 -3.90063 0
M  V30 4370 H 414.349 1.96711 -3.45529 0
M  V30 4371 N 415.346 1.54954 0.287554 0
M  V30 4372 C 416.256 1.8991 1.37736 0
M  V30 4373 C 417.272 0.794701 1.54792 0
M  V30 4374 O 418.448 1.09243 1.69198 0
M  V30 4375 C 415.513 2.15108 2.71899 0
M  V30 4376 C 414.574 3.38752 2.63715 0
M  V30 4377 C 413.807 3.62739 3.91479 0
M  V30 4378 O 414.03 2.89492 4.91478 0
M  V30 4379 O 412.964 4.56267 3.92561 0
M  V30 4380 H 416.79 2.82652 1.11092 0
M  V30 4381 H 414.375 1.41315 0.484807 0
M  V30 4382 H 416.257 2.32806 3.51254 0
M  V30 4383 H 414.932 1.25551 2.9836 0
M  V30 4384 H 413.839 3.26405 1.82786 0
M  V30 4385 H 415.172 4.28483 2.42205 0
M  V30 4386 N 416.824 -0.551391 1.4764 0
M  V30 4387 C 418.072 -1.30572 1.54258 0
M  V30 4388 C 418.393 -1.93877 0.208963 0
M  V30 4389 O 417.663 -1.80234 -0.767619 0
M  V30 4390 H 416.243 -0.484894 0.568231 0
M  V30 4391 H 418.905 -0.643402 1.83974 0
M  V30 4392 H 418.001 -2.09621 2.31226 0
M  V30 4393 N 418.302 -1.35869 -0.798587 0
M  V30 4394 C 419.527 -1.32883 -1.59238 0
M  V30 4395 C 419.952 0.0894587 -1.87887 0
M  V30 4396 O 419.31 1.05869 -1.47178 0
M  V30 4397 C 419.358 -2.14892 -2.89575 0
M  V30 4398 O 418.462 -1.53512 -3.82763 0
M  V30 4399 H 417.803 -0.455236 -0.48338 0
M  V30 4400 H 420.333 -1.79024 -0.990539 0
M  V30 4401 H 420.343 -2.27139 -3.38928 0
M  V30 4402 H 419.018 -3.17998 -2.68049 0
M  V30 4403 H 417.595 -1.50153 -3.41334 0
M  V30 4404 N 419.78 1.02168 -1.19998 0
M  V30 4405 C 420.713 2.10232 -0.887558 0
M  V30 4406 C 421.691 1.61827 0.158317 0
M  V30 4407 O 422.875 1.88471 0.0330249 0
M  V30 4408 C 420.002 3.37092 -0.32964 0
M  V30 4409 C 419.048 4.0438 -1.3557 0
M  V30 4410 S 419.881 4.48956 -2.91888 0
M  V30 4411 C 421.037 5.79024 -2.37658 0
M  V30 4412 H 421.27 2.36409 -1.80272 0
M  V30 4413 H 418.803 1.15211 -1.0279 0
M  V30 4414 H 420.761 4.10498 -0.0142824 0
M  V30 4415 H 419.422 3.08996 0.563941 0
M  V30 4416 H 418.615 4.95632 -0.9146 0
M  V30 4417 H 418.217 3.37176 -1.61828 0
M  V30 4418 H 420.509 6.53942 -1.77103 0
M  V30 4419 H 421.452 6.27924 -3.27287 0
M  V30 4420 H 421.86 5.35043 -1.79971 0
M  V30 4421 N 421.258 1.00505 1.21394 0
M  V30 4422 C 422.168 0.574806 2.27449 0
M  V30 4423 C 423.184 -0.382206 1.6975 0
M  V30 4424 O 424.36 -0.246027 1.99892 0
M  V30 4425 C 421.425 -0.0917414 3.46579 0
M  V30 4426 C 420.486 0.909758 4.1955 0
M  V30 4427 C 419.719 0.274924 5.32991 0
M  V30 4428 O 419.942 -0.928254 5.62796 0
M  V30 4429 O 418.876 0.985877 5.93771 0
M  V30 4430 H 422.702 1.45744 2.66444 0
M  V30 4431 H 420.287 0.773923 1.27792 0
M  V30 4432 H 422.169 -0.464551 4.18832 0
M  V30 4433 H 420.844 -0.948755 3.09484 0
M  V30 4434 H 419.751 1.33372 3.49518 0
M  V30 4435 H 421.084 1.73636 4.60555 0
M  V30 4436 N 422.737 -1.36956 0.779787 0
M  V30 4437 C 423.962 -2.04283 0.358224 0
M  V30 4438 C 424.387 -1.58422 -1.01411 0
M  V30 4439 O 423.745 -0.748179 -1.65142 0
M  V30 4440 C 423.793 -3.58152 0.419479 0
M  V30 4441 O 422.897 -4.08342 -0.577142 0
M  V30 4442 H 422.238 -0.645967 0.153698 0
M  V30 4443 H 424.768 -1.75108 1.05822 0
M  V30 4444 H 424.778 -4.07041 0.279636 0
M  V30 4445 H 423.453 -3.90886 1.42061 0
M  V30 4446 H 422.03 -3.70751 -0.399755 0
M  V30 4447 N 424.215 -0.530993 -1.48385 0
M  V30 4448 C 425.145 0.219985 -2.32461 0
M  V30 4449 C 426.126 0.934111 -1.42156 0
M  V30 4450 O 427.311 0.919694 -1.71042 0
M  V30 4451 C 424.441 1.26674 -3.23375 0
M  V30 4452 C 423.395 0.67069 -4.22712 0
M  V30 4453 C 422.721 1.82017 -5.02766 0
M  V30 4454 C 424.021 -0.358268 -5.2107 0
M  V30 4455 H 425.715 -0.48187 -2.95497 0
M  V30 4456 H 423.261 -0.233182 -1.42099 0
M  V30 4457 H 425.214 1.80006 -3.81019 0
M  V30 4458 H 423.938 1.99818 -2.58341 0
M  V30 4459 H 422.597 0.158878 -3.66256 0
M  V30 4460 H 422.245 2.54002 -4.34157 0
M  V30 4461 H 421.945 1.42727 -5.70003 0
M  V30 4462 H 423.469 2.35725 -5.63264 0
M  V30 4463 H 424.883 0.0880081 -5.73232 0
M  V30 4464 H 423.28 -0.66861 -5.96364 0
M  V30 4465 H 424.35 -1.26367 -4.68145 0
M  V30 4466 N 425.693 1.55336 -0.266172 0
M  V30 4467 C 426.921 2.03801 0.356756 0
M  V30 4468 C 427.336 1.14485 1.50129 0
M  V30 4469 O 426.693 0.163121 1.8177 0
M  V30 4470 C 426.744 3.51455 0.846281 0
M  V30 4471 O 426.465 4.37371 -0.252663 0
M  V30 4472 C 427.966 4.15767 1.53794 0
M  V30 4473 H 425.186 0.665906 0.0825218 0
M  V30 4474 H 427.73 2.00636 -0.39566 0
M  V30 4475 H 425.885 3.55092 1.54881 0
M  V30 4476 H 426.299 5.24358 0.122173 0
M  V30 4477 H 427.773 5.20714 1.83198 0
M  V30 4478 H 428.25 3.63404 2.46646 0
M  V30 4479 H 428.856 4.16107 0.879488 0
M  V30 4480 N 427.171 -0.0066808 1.57599 0
M  V30 4481 C 428.396 -0.707738 1.94951 0
M  V30 4482 C 428.821 -1.66882 0.867868 0
M  V30 4483 O 428.179 -1.80457 -0.17458 0
M  V30 4484 C 428.227 -1.42162 3.31394 0
M  V30 4485 O 427.331 -2.53578 3.25226 0
M  V30 4486 H 426.672 -0.188752 0.636607 0
M  V30 4487 H 429.202 0.0445193 2.04552 0
M  V30 4488 H 429.212 -1.78655 3.66806 0
M  V30 4489 H 427.887 -0.716903 4.09675 0
M  V30 4490 H 426.464 -2.19463 3.01481 0
M  V30 4491 N 428.649 -1.55105 -0.279332 0
M  V30 4492 C 429.874 -1.7976 -1.03446 0
M  V30 4493 C 430.299 -0.565952 -1.79384 0
M  V30 4494 O 429.657 0.484259 -1.74713 0
M  V30 4495 C 429.705 -3.0179 -1.97371 0
M  V30 4496 O 428.809 -2.76432 -3.06038 0
M  V30 4497 H 428.15 -0.594334 -0.29608 0
M  V30 4498 H 430.68 -2.02235 -0.310165 0
M  V30 4499 H 430.69 -3.30351 -2.39441 0
M  V30 4500 H 429.365 -3.91085 -1.4151 0
M  V30 4501 H 427.942 -2.58949 -2.68328 0
M  V30 4502 N 430.127 0.543554 -1.4793 0
M  V30 4503 C 431.037 1.67657 -1.64098 0
M  V30 4504 C 432.053 1.65934 -0.523622 0
M  V30 4505 O 433.229 1.85133 -0.792943 0
M  V30 4506 C 430.294 3.04146 -1.66421 0
M  V30 4507 C 429.355 3.16831 -2.89684 0
M  V30 4508 C 428.588 4.46809 -2.91886 0
M  V30 4509 O 428.811 5.33095 -2.02895 0
M  V30 4510 O 427.745 4.63573 -3.83906 0
M  V30 4511 H 431.571 1.56957 -2.59997 0
M  V30 4512 H 429.156 0.715116 -1.31173 0
M  V30 4513 H 431.038 3.85346 -1.70548 0
M  V30 4514 H 429.713 3.152 -0.736923 0
M  V30 4515 H 428.62 2.34977 -2.91095 0
M  V30 4516 H 429.953 3.10687 -3.81752 0
M  V30 4517 N 431.605 1.3629 0.791371 0
M  V30 4518 C 432.853 1.30154 1.5461 0
M  V30 4519 C 433.174 -0.119409 1.94634 0
M  V30 4520 O 432.444 -1.05924 1.64794 0
M  V30 4521 H 431.024 0.478784 0.573389 0
M  V30 4522 H 433.686 1.70565 0.94306 0
M  V30 4523 H 432.782 1.92762 2.45457 0
M  V30 4524 N 433.083 -1.0153 1.20538 0
M  V30 4525 C 433.993 -2.13557 0.971113 0
M  V30 4526 C 435.009 -1.73845 -0.0734366 0
M  V30 4527 O 436.185 -2.01075 0.114299 0
M  V30 4528 C 433.25 -3.42661 0.527639 0
M  V30 4529 C 432.311 -3.96608 1.64319 0
M  V30 4530 C 431.544 -5.1955 1.22078 0
M  V30 4531 O 431.767 -5.70329 0.0900198 0
M  V30 4532 O 430.701 -5.66681 2.02871 0
M  V30 4533 H 434.527 -2.3619 1.90913 0
M  V30 4534 H 432.112 -1.11946 0.989362 0
M  V30 4535 H 433.994 -4.20404 0.289621 0
M  V30 4536 H 432.669 -3.21441 -0.381779 0
M  V30 4537 H 431.576 -3.20139 1.93551 0
M  V30 4538 H 432.909 -4.22219 2.52966 0
M  V30 4539 N 434.561 -1.01147 -1.20859 0
M  V30 4540 C 435.471 -0.58686 -2.27141 0
M  V30 4541 C 436.487 0.373198 -1.69951 0
M  V30 4542 O 437.663 0.235423 -2.00019 0
M  V30 4543 C 434.728 0.0733602 -3.46622 0
M  V30 4544 C 433.789 -0.931995 -4.19061 0
M  V30 4545 C 433.022 -0.303186 -5.32838 0
M  V30 4546 O 433.245 0.898395 -5.63281 0
M  V30 4547 O 432.179 -1.01735 -5.9324 0
M  V30 4548 H 436.005 -1.47155 -2.65667 0
M  V30 4549 H 433.59 -0.780689 -1.2738 0
M  V30 4550 H 435.472 0.442333 -4.19072 0
M  V30 4551 H 434.147 0.932329 -3.09983 0
M  V30 4552 H 433.054 -1.35224 -3.48805 0
M  V30 4553 H 434.387 -1.76076 -4.59628 0
M  V30 4554 N 436.039 1.36541 -0.78704 0
M  V30 4555 C 437.45 1.81873 -0.421807 0
M  V30 4556 C 437.801 1.65487 1.05397 0
M  V30 4557 O 436.926 1.17448 1.81755 0
M  V30 4558 C 437.521 3.30192 -0.758841 0
M  V30 4559 C 436.08 3.73743 -0.446468 0
M  V30 4560 C 435.227 2.58844 -0.994728 0
M  V30 4561 H 438.178 1.24796 -0.98039 0
M  V30 4562 H 438.199 3.80468 -0.0490648 0
M  V30 4563 H 437.711 3.42087 -1.83299 0
M  V30 4564 H 435.812 3.6741 0.619739 0
M  V30 4565 H 435.925 4.69272 -0.965415 0
M  V30 4566 H 434.289 2.51245 -0.418087 0
M  V30 4567 H 435.072 2.73525 -2.07458 0
M  V30 4568 N 437.518 0.538854 1.48102 0
M  V30 4569 C 438.766 0.00798599 2.02098 0
M  V30 4570 C 439.087 -1.33922 1.41739 0
M  V30 4571 O 438.357 -1.86932 0.585934 0
M  V30 4572 H 436.937 -3.62179e-05 0.747 0
M  V30 4573 H 439.599 0.7047 1.81714 0
M  V30 4574 H 438.695 -0.0937672 3.11959 0
M  V30 4575 N 438.996 -1.55193 0.274407 0
M  V30 4576 C 440.221 -2.04446 -0.348824 0
M  V30 4577 C 440.646 -1.15149 -1.48735 0
M  V30 4578 O 440.004 -0.149952 -1.80679 0
M  V30 4579 C 440.052 -3.51431 -0.808009 0
M  V30 4580 O 439.156 -3.65225 -1.91531 0
M  V30 4581 H 438.497 -0.66006 -0.0722276 0
M  V30 4582 H 441.027 -2.00481 0.408498 0
M  V30 4583 H 441.037 -3.92781 -1.10395 0
M  V30 4584 H 439.712 -4.15892 0.0249865 0
M  V30 4585 H 438.289 -3.35778 -1.62196 0
M  V30 4586 N 440.474 -0.00167713 -1.576 0
M  V30 4587 C 441.384 1.00548 -2.1196 0
M  V30 4588 C 442.4 1.3758 -1.06526 0
M  V30 4589 O 443.576 1.46278 -1.38436 0
M  V30 4590 C 440.641 2.27809 -2.6135 0
M  V30 4591 C 439.702 1.97074 -3.81393 0
M  V30 4592 C 438.935 3.18267 -4.28417 0
M  V30 4593 O 439.158 4.30009 -3.74765 0
M  V30 4594 O 438.092 3.02167 -5.20556 0
M  V30 4595 H 441.918 0.573373 -2.98238 0
M  V30 4596 H 439.503 0.217255 -1.47812 0
M  V30 4597 H 441.385 3.02568 -2.93309 0
M  V30 4598 H 440.06 2.70254 -1.78169 0
M  V30 4599 H 438.967 1.19785 -3.54404 0
M  V30 4600 H 440.3 1.59464 -4.65652 0
M  V30 4601 N 441.952 1.55251 0.271103 0
M  V30 4602 C 443.198 1.76207 1.00394 0
M  V30 4603 C 443.531 0.562604 1.85872 0
M  V30 4604 O 442.806 -0.439785 1.89463 0
M  V30 4605 C 443.089 3.06828 1.8849 0
M  V30 4606 C 442.942 4.37134 1.05992 0
M  V30 4607 C 444.261 3.33503 2.87165 0
M  V30 4608 H 441.38 0.641086 0.363562 0
M  V30 4609 H 444.022 1.87982 0.276189 0
M  V30 4610 H 442.172 2.96921 2.5054 0
M  V30 4611 H 443.844 4.59001 0.459978 0
M  V30 4612 H 442.087 4.32275 0.363443 0
M  V30 4613 H 442.758 5.2486 1.70955 0
M  V30 4614 H 445.234 3.43215 2.3525 0
M  V30 4615 H 444.11 4.2616 3.45946 0
M  V30 4616 H 444.371 2.53235 3.62387 0
M  V30 4617 N 443.43 -0.535701 1.48216 0
M  V30 4618 C 444.676 -1.29375 1.56173 0
M  V30 4619 C 445.009 -1.92804 0.232429 0
M  V30 4620 O 444.284 -1.78992 -0.761048 0
M  V30 4621 C 444.567 -2.38747 2.69577 0
M  V30 4622 C 444.42 -1.80046 4.12193 0
M  V30 4623 C 445.739 -3.40551 2.78771 0
M  V30 4624 H 442.858 -0.469027 0.568491 0
M  V30 4625 H 445.5 -0.597358 1.80365 0
M  V30 4626 H 443.65 -2.98147 2.4908 0
M  V30 4627 H 445.322 -1.24742 4.44114 0
M  V30 4628 H 443.565 -1.10609 4.19462 0
M  V30 4629 H 444.236 -2.59212 4.87353 0
M  V30 4630 H 446.712 -2.91099 2.97322 0
M  V30 4631 H 445.588 -4.1448 3.59857 0
M  V30 4632 H 445.849 -4.00746 1.86696 0
M  V30 4633 N 444.908 -1.36708 -0.784132 0
M  V30 4634 C 446.157 -1.30559 -1.53744 0
M  V30 4635 C 446.47 0.111374 -1.95283 0
M  V30 4636 O 447.676 0.29527 -2.6989 0
M  V30 4637 C 446.132 -2.29098 -2.77565 0
M  V30 4638 C 445.74 -3.76258 -2.43174 0
M  V30 4639 C 447.484 -2.31936 -3.55536 0
M  V30 4640 C 445.391 -4.6656 -3.63422 0
M  V30 4641 H 444.321 -0.48518 -0.577162 0
M  V30 4642 H 446.972 -1.62101 -0.859981 0
M  V30 4643 H 445.354 -1.90557 -3.47137 0
M  V30 4644 H 446.528 -4.23565 -1.81465 0
M  V30 4645 H 444.843 -3.76246 -1.78403 0
M  V30 4646 H 447.44 -2.9661 -4.44889 0
M  V30 4647 H 447.783 -1.3294 -3.94503 0
M  V30 4648 H 448.316 -2.6912 -2.92949 0
M  V30 4649 H 445.055 -5.66638 -3.29547 0
M  V30 4650 H 444.575 -4.23966 -4.24279 0
M  V30 4651 H 446.254 -4.8309 -4.30387 0
M  V30 4652 N 446.386 1.0089 -1.21074 0
M  V30 4653 C 447.333 2.09588 -0.966512 0
M  V30 4654 C 448.303 1.65761 0.106089 0
M  V30 4655 O 449.488 1.90758 -0.0402287 0
M  V30 4656 C 446.628 3.40958 -0.533058 0
M  V30 4657 C 445.741 3.9822 -1.67467 0
M  V30 4658 C 444.876 5.17682 -1.19076 0
M  V30 4659 C 443.915 5.67043 -2.30496 0
M  V30 4660 N 443.052 6.77759 -1.83267 0
M  V30 4661 H 447.892 2.29815 -1.89708 0
M  V30 4662 H 445.429 1.12689 -0.945489 0
M  V30 4663 H 447.387 4.1637 -0.263019 0
M  V30 4664 H 446.017 3.20781 0.360505 0
M  V30 4665 H 445.069 3.1983 -2.05944 0
M  V30 4666 H 446.381 4.3085 -2.51336 0
M  V30 4667 H 445.535 6.00326 -0.877151 0
M  V30 4668 H 444.274 4.86635 -0.322066 0
M  V30 4669 H 443.279 4.82999 -2.62664 0
M  V30 4670 H 444.504 6.00121 -3.17855 0
M  V30 4671 H 442.45 6.48527 -0.987356 0
M  V30 4672 H 442.367 7.09624 -2.60711 0
M  V30 4673 H 443.635 7.63949 -1.54928 0
M  V30 4674 N 447.864 1.01787 1.20321 0
M  V30 4675 C 448.797 0.533882 2.21867 0
M  V30 4676 C 449.775 -0.419361 1.57099 0
M  V30 4677 O 450.959 -0.339062 1.85426 0
M  V30 4678 C 448.086 -0.222899 3.37966 0
M  V30 4679 C 447.132 0.680091 4.21043 0
M  V30 4680 S 447.965 2.14997 4.90445 0
M  V30 4681 C 449.121 1.40339 6.09964 0
M  V30 4682 H 449.354 1.39429 2.62577 0
M  V30 4683 H 446.887 0.826867 1.30393 0
M  V30 4684 H 448.845 -0.653425 4.05266 0
M  V30 4685 H 447.506 -1.0589 2.95713 0
M  V30 4686 H 446.699 0.0964704 5.03908 0
M  V30 4687 H 446.301 1.04845 3.59004 0
M  V30 4688 H 448.593 0.68407 6.74038 0
M  V30 4689 H 449.536 2.20823 6.72787 0
M  V30 4690 H 449.944 0.905716 5.57187 0
M  V30 4691 N 449.342 -1.36122 0.79427 0
M  V30 4692 C 450.753 -1.81646 0.431446 0
M  V30 4693 C 451.104 -1.66043 -1.04518 0
M  V30 4694 O 450.229 -1.1841 -1.8113 0
M  V30 4695 C 450.824 -3.29785 0.776341 0
M  V30 4696 C 449.383 -3.73501 0.466282 0
M  V30 4697 C 448.53 -2.58313 1.00844 0
M  V30 4698 H 451.481 -1.24274 0.986995 0
M  V30 4699 H 451.502 -3.80437 0.0692413 0
M  V30 4700 H 451.014 -3.4111 1.8511 0
M  V30 4701 H 449.115 -3.67733 -0.600245 0
M  V30 4702 H 449.228 -4.68754 0.990288 0
M  V30 4703 H 447.592 -2.5102 0.431406 0
M  V30 4704 H 448.375 -2.72421 2.08906 0
M  V30 4705 N 450.82 -0.546701 -1.47814 0
M  V30 4706 C 451.753 0.254472 -2.26777 0
M  V30 4707 C 452.731 0.929809 -1.33392 0
M  V30 4708 O 453.915 0.950889 -1.62759 0
M  V30 4709 C 451.042 1.36171 -3.10121 0
M  V30 4710 C 450.088 0.796038 -4.19005 0
M  V30 4711 S 450.921 -0.349191 -5.3436 0
M  V30 4712 C 452.077 0.760122 -6.21267 0
M  V30 4713 H 452.31 -0.415612 -2.94381 0
M  V30 4714 H 449.843 -0.332809 -1.5077 0
M  V30 4715 H 451.801 1.99588 -3.58713 0
M  V30 4716 H 450.462 2.00359 -2.41899 0
M  V30 4717 H 449.655 1.62719 -4.7701 0
M  V30 4718 H 449.257 0.238246 -3.7324 0
M  V30 4719 H 451.549 1.65479 -6.5698 0
M  V30 4720 H 452.492 0.217673 -7.07765 0
M  V30 4721 H 452.9 1.04806 -5.54685 0
M  V30 4722 N 452.299 1.55045 -0.282633 0
M  V30 4723 C 453.545 2.00056 0.332481 0
M  V30 4724 C 453.878 1.1708 1.54939 0
M  V30 4725 O 453.153 0.2427 1.9298 0
M  V30 4726 C 453.436 3.53086 0.70725 0
M  V30 4727 C 453.289 4.46813 -0.517521 0
M  V30 4728 C 454.608 4.12245 1.54084 0
M  V30 4729 H 451.727 0.727268 0.119373 0
M  V30 4730 H 454.369 1.85932 -0.391076 0
M  V30 4731 H 452.519 3.65253 1.32372 0
M  V30 4732 H 454.191 4.46579 -1.15607 0
M  V30 4733 H 452.434 4.18163 -1.1542 0
M  V30 4734 H 453.105 5.51595 -0.211426 0
M  V30 4735 H 455.581 4.03401 1.02013 0
M  V30 4736 H 454.457 5.19515 1.77186 0
M  V30 4737 H 454.718 3.62951 2.52427 0
M  V30 4738 N 453.777 0.010035 1.57597 0
M  V30 4739 C 455.054 -0.710296 1.82248 0
M  V30 4740 C 455.434 -1.91426 0.889911 0
M  V30 4741 O 454.782 -2.28424 -0.0590292 0
M  V30 4742 C 454.992 -1.10655 3.30993 0
M  V30 4743 C 456.34 -1.50621 3.96987 0
M  V30 4744 O 457.364 -1.20007 3.35375 0
M  V30 4745 O 456.223 -2.07587 5.05539 0
M  V30 4746 H 453.317 -0.34673 0.750804 0
M  V30 4747 H 455.863 0.0362578 1.69661 0
M  V30 4748 H 454.635 -0.248826 3.90508 0
M  V30 4749 H 454.258 -1.91189 3.48615 0
M  V30 4750 N 455.255 -1.55392 -0.262866 0
M  V30 4751 C 456.666 -1.67079 -0.833158 0
M  V30 4752 C 457.017 -0.604539 -1.86654 0
M  V30 4753 O 456.142 0.252138 -2.14926 0
M  V30 4754 C 456.737 -3.02891 -1.51797 0
M  V30 4755 C 455.296 -3.16571 -2.03617 0
M  V30 4756 C 454.443 -2.62909 -0.881701 0
M  V30 4757 H 457.394 -1.58652 -0.0389986 0
M  V30 4758 H 457.415 -2.96445 -2.38538 0
M  V30 4759 H 456.927 -3.80473 -0.765619 0
M  V30 4760 H 455.028 -2.43782 -2.81782 0
M  V30 4761 H 455.141 -4.23271 -2.24452 0
M  V30 4762 H 453.505 -2.20324 -1.27786 0
M  V30 4763 H 454.288 -3.43003 -0.14269 0
M  V30 4764 N 456.733 0.527833 -1.48498 0
M  V30 4765 C 457.643 1.65907 -1.65867 0
M  V30 4766 C 458.659 1.6537 -0.541192 0
M  V30 4767 O 459.835 1.84282 -0.812534 0
M  V30 4768 C 456.9 3.02364 -1.69637 0
M  V30 4769 C 455.961 3.1374 -2.93028 0
M  V30 4770 C 455.194 4.43688 -2.96609 0
M  V30 4771 O 455.417 5.30913 -2.08538 0
M  V30 4772 O 454.351 4.59475 -3.88802 0
M  V30 4773 H 458.177 1.5419 -2.61647 0
M  V30 4774 H 455.762 0.701163 -1.31924 0
M  V30 4775 H 457.644 3.83515 -1.74625 0
M  V30 4776 H 456.319 3.14401 -0.770312 0
M  V30 4777 H 455.226 2.31877 -2.93571 0
M  V30 4778 H 456.559 3.06621 -3.85026 0
M  V30 4779 N 458.211 1.37122 0.776871 0
M  V30 4780 C 459.174 1.32301 1.8716 0
M  V30 4781 C 460.174 0.228099 1.59174 0
M  V30 4782 O 461.364 0.483642 1.67352 0
M  V30 4783 C 458.496 1.054 3.24197 0
M  V30 4784 H 459.689 2.29673 1.92848 0
M  V30 4785 H 457.242 1.22077 0.97606 0
M  V30 4786 H 457.977 0.0853872 3.24188 0
M  V30 4787 H 457.762 1.84648 3.45901 0
M  V30 4788 H 459.252 1.04664 4.04271 0
M  V30 4789 N 459.689 -1.00246 1.21608 0
M  V30 4790 C 460.621 -2.09244 0.935401 0
M  V30 4791 C 461.634 -1.62592 -0.0823594 0
M  V30 4792 O 462.823 -1.77865 0.150456 0
M  V30 4793 C 459.923 -3.36724 0.383453 0
M  V30 4794 C 459.096 -4.1245 1.45615 0
M  V30 4795 C 458.155 -5.18219 0.912991 0
M  V30 4796 O 457.181 -5.46337 1.59701 0
M  V30 4797 N 458.383 -5.7987 -0.270478 0
M  V30 4798 H 461.148 -2.33905 1.87373 0
M  V30 4799 H 458.709 -1.16748 1.12167 0
M  V30 4800 H 460.701 -4.047 0.00562157 0
M  V30 4801 H 459.271 -3.09201 -0.459758 0
M  V30 4802 H 458.491 -3.39241 2.00772 0
M  V30 4803 H 459.779 -4.59819 2.17817 0
M  V30 4804 H 459.177 -5.59381 -0.843195 0
M  V30 4805 H 457.734 -6.49126 -0.589794 0
M  V30 4806 N 461.167 -1.02423 -1.1978 0
M  V30 4807 C 462.13 -0.605703 -2.21052 0
M  V30 4808 C 463.13 0.328209 -1.57415 0
M  V30 4809 O 464.32 0.115853 -1.73814 0
M  V30 4810 C 461.452 0.114366 -3.40708 0
M  V30 4811 H 462.645 -1.5017 -2.59594 0
M  V30 4812 H 460.198 -0.814888 -1.33376 0
M  V30 4813 H 460.933 1.02492 -3.07678 0
M  V30 4814 H 460.718 -0.556641 -3.88129 0
M  V30 4815 H 462.208 0.394272 -4.15735 0
M  V30 4816 N 462.645 1.35699 -0.801477 0
M  V30 4817 C 464.056 1.81415 -0.441073 0
M  V30 4818 C 464.407 1.66595 1.03636 0
M  V30 4819 O 463.532 1.19369 1.80499 0
M  V30 4820 C 464.127 3.29369 -0.793819 0
M  V30 4821 C 462.686 3.73248 -0.486083 0
M  V30 4822 C 461.833 2.57775 -1.02213 0
M  V30 4823 H 464.784 1.23749 -0.993572 0
M  V30 4824 H 464.805 3.80395 -0.0894158 0
M  V30 4825 H 464.317 3.40123 -1.86917 0
M  V30 4826 H 462.418 3.68046 0.580735 0
M  V30 4827 H 462.531 4.68222 -1.01513 0
M  V30 4828 H 460.895 2.50788 -0.444712 0
M  V30 4829 H 461.678 2.71309 -2.10348 0
M  V30 4830 N 464.123 0.554532 1.47522 0
M  V30 4831 C 465.351 0.034257 2.06872 0
M  V30 4832 C 465.766 -1.25826 1.40759 0
M  V30 4833 O 465.123 -1.75425 0.503217 0
M  V30 4834 C 465.174 -0.167827 3.6111 0
M  V30 4835 O 464.895 1.07351 4.24744 0
M  V30 4836 C 466.396 -0.72569 4.3732 0
M  V30 4837 H 463.616 0.0446275 0.669514 0
M  V30 4838 H 466.16 0.767181 1.89564 0
M  V30 4839 H 464.315 -0.850872 3.7794 0
M  V30 4840 H 464.729 0.869563 5.17242 0
M  V30 4841 H 466.203 -0.816394 5.45929 0
M  V30 4842 H 466.68 -1.73635 4.0342 0
M  V30 4843 H 467.286 -0.0784292 4.25228 0
M  V30 4844 N 465.601 -1.54893 0.290851 0
M  V30 4845 C 466.548 -2.23138 -0.58974 0
M  V30 4846 C 467.518 -1.21036 -1.13752 0
M  V30 4847 O 468.703 -1.49626 -1.18392 0
M  V30 4848 C 465.843 -2.96811 -1.76061 0
M  V30 4849 C 464.956 -4.13665 -1.24519 0
M  V30 4850 C 464.091 -4.74944 -2.3791 0
M  V30 4851 C 463.13 -5.83963 -1.83451 0
M  V30 4852 N 462.267 -6.39239 -2.90376 0
M  V30 4853 H 467.107 -2.98 -0.00114915 0
M  V30 4854 H 464.644 -1.47096 0.0112006 0
M  V30 4855 H 466.602 -3.37751 -2.44909 0
M  V30 4856 H 465.232 -2.24344 -2.32098 0
M  V30 4857 H 464.284 -3.77737 -0.449288 0
M  V30 4858 H 465.596 -4.92238 -0.806424 0
M  V30 4859 H 464.75 -5.18684 -3.14724 0
M  V30 4860 H 463.489 -3.95682 -2.85109 0
M  V30 4861 H 462.494 -5.39657 -1.05122 0
M  V30 4862 H 463.719 -6.65103 -1.37169 0
M  V30 4863 H 461.665 -5.62864 -3.36927 0
M  V30 4864 H 461.582 -7.13129 -2.50965 0
M  V30 4865 H 462.85 -6.87637 -3.67118 0
M  V30 4866 N 467.08 -0.0183926 -1.57589 0
M  V30 4867 C 468.012 0.995557 -2.06449 0
M  V30 4868 C 469.025 1.29556 -0.985849 0
M  V30 4869 O 470.214 1.2621 -1.26227 0
M  V30 4870 C 467.314 2.32572 -2.46502 0
M  V30 4871 C 466.487 2.21245 -3.77319 0
M  V30 4872 C 465.546 3.37104 -4.04039 0
M  V30 4873 O 464.572 3.14468 -4.74445 0
M  V30 4874 N 465.774 4.60553 -3.53372 0
M  V30 4875 H 468.539 0.578746 -2.94059 0
M  V30 4876 H 466.1 0.168603 -1.6102 0
M  V30 4877 H 468.092 3.08887 -2.61478 0
M  V30 4878 H 466.662 2.65931 -1.64315 0
M  V30 4879 H 465.882 1.29723 -3.72244 0
M  V30 4880 H 467.17 2.10868 -4.63047 0
M  V30 4881 H 466.568 4.81839 -2.96391 0
M  V30 4882 H 465.125 5.34072 -3.73644 0
M  V30 4883 N 468.558 1.5553 0.254621 0
M  V30 4884 C 469.969 1.67518 0.824286 0
M  V30 4885 C 470.32 0.614429 1.86331 0
M  V30 4886 O 469.445 -0.240736 2.15057 0
M  V30 4887 C 470.04 3.03692 1.50189 0
M  V30 4888 C 468.599 3.17646 2.01935 0
M  V30 4889 C 467.746 2.63373 0.867746 0
M  V30 4890 H 470.697 1.58671 0.0305843 0
M  V30 4891 H 470.718 2.97706 2.36962 0
M  V30 4892 H 470.23 3.80874 0.745431 0
M  V30 4893 H 468.331 2.45273 2.80485 0
M  V30 4894 H 468.444 4.24455 2.22204 0
M  V30 4895 H 466.808 2.20999 1.26616 0
M  V30 4896 H 467.591 3.43074 0.124498 0
M  V30 4897 N 470.036 -0.519951 1.48776 0
M  V30 4898 C 471.447 -1.10177 1.50725 0
M  V30 4899 C 471.798 -1.94153 0.282678 0
M  V30 4900 O 470.923 -2.07645 -0.609298 0
M  V30 4901 C 471.518 -2.00482 2.73116 0
M  V30 4902 C 470.077 -2.53862 2.77905 0
M  V30 4903 C 469.224 -1.31047 2.44381 0
M  V30 4904 H 472.175 -0.30473 1.55747 0
M  V30 4905 H 472.196 -2.8491 2.52203 0
M  V30 4906 H 471.708 -1.39335 3.62225 0
M  V30 4907 H 469.809 -3.18702 1.93029 0
M  V30 4908 H 469.922 -2.9231 3.79594 0
M  V30 4909 H 468.286 -1.62953 1.95751 0
M  V30 4910 H 469.069 -0.71637 3.35743 0
M  V30 4911 N 471.514 -1.37532 -0.769588 0
M  V30 4912 C 472.93 -1.18379 -1.07045 0
M  V30 4913 C 473.13 -0.0214312 -2.01489 0
M  V30 4914 O 472.186 0.637809 -2.44312 0
M  V30 4915 C 473.499 -2.50338 -1.66588 0
M  V30 4916 C 475.047 -2.56879 -1.78835 0
M  V30 4917 C 475.522 -3.88974 -2.41792 0
M  V30 4918 N 477.013 -3.90428 -2.4924 0
M  V30 4919 C 477.748 -4.89388 -2.98809 0
M  V30 4920 N 477.244 -5.98745 -3.48535 0
M  V30 4921 N 479.037 -4.76791 -2.97703 0
M  V30 4922 H 471.188 -2.11921 -0.142541 0
M  V30 4923 H 473.451 -0.939608 -0.125863 0
M  V30 4924 H 473.157 -3.35767 -1.0466 0
M  V30 4925 H 473.031 -2.67583 -2.65856 0
M  V30 4926 H 475.418 -1.71856 -2.39895 0
M  V30 4927 H 475.499 -2.43516 -0.783166 0
M  V30 4928 H 475.143 -4.74412 -1.81371 0
M  V30 4929 H 475.073 -3.99641 -3.4292 0
M  V30 4930 H 477.564 -3.11433 -2.14052 0
M  V30 4931 H 477.877 -6.70205 -3.84767 0
M  V30 4932 H 476.222 -6.02387 -3.46634 0
M  V30 4933 H 479.413 -3.90478 -2.58157 0
M  V30 4934 H 479.586 -5.54069 -3.36024 0
M  V30 4935 N 472.992 0.995999 -1.22138 0
M  V30 4936 C 474.217 1.77601 -1.0711 0
M  V30 4937 C 474.642 1.84339 0.374264 0
M  V30 4938 O 474 1.29359 1.27028 0
M  V30 4939 C 474.048 3.18897 -1.68336 0
M  V30 4940 O 473.152 4.01663 -0.934928 0
M  V30 4941 H 472.493 0.547011 -0.376397 0
M  V30 4942 H 475.023 1.25137 -1.6187 0
M  V30 4943 H 475.033 3.69539 -1.72931 0
M  V30 4944 H 473.708 3.13308 -2.73516 0
M  V30 4945 H 472.285 3.60204 -0.964751 0
M  V30 4946 N 474.47 1.03057 1.19235 0
M  V30 4947 C 475.695 0.74757 1.93458 0
M  V30 4948 C 476.12 -0.687648 1.7508 0
M  V30 4949 O 475.478 -1.47499 1.05422 0
M  V30 4950 C 475.526 1.10604 3.43219 0
M  V30 4951 O 474.63 0.225671 4.11782 0
M  V30 4952 H 473.971 0.276047 0.603899 0
M  V30 4953 H 476.501 1.3777 1.51263 0
M  V30 4954 H 476.511 1.06366 3.93891 0
M  V30 4955 H 475.186 2.15165 3.55917 0
M  V30 4956 H 473.763 0.326795 3.71465 0
M  V30 4957 N 475.948 -1.35272 0.808662 0
M  V30 4958 C 477.359 -1.81179 0.450688 0
M  V30 4959 C 477.71 -1.67143 -1.02751 0
M  V30 4960 O 476.835 -1.20325 -1.79864 0
M  V30 4961 C 477.43 -3.28943 0.811275 0
M  V30 4962 C 475.989 -3.72985 0.505871 0
M  V30 4963 C 475.136 -2.57229 1.03578 0
M  V30 4964 H 478.087 -1.2322 1.00012 0
M  V30 4965 H 478.108 -3.80342 0.109588 0
M  V30 4966 H 477.62 -3.39127 1.88718 0
M  V30 4967 H 475.721 -3.68349 -0.561209 0
M  V30 4968 H 475.834 -4.67677 1.03995 0
M  V30 4969 H 474.198 -2.50548 0.458005 0
M  V30 4970 H 474.981 -2.7019 2.11784 0
M  V30 4971 N 477.426 -0.562348 -1.47226 0
M  V30 4972 C 478.374 0.195476 -2.31777 0
M  V30 4973 C 479.368 0.90433 -1.43242 0
M  V30 4974 O 480.574 0.825031 -1.59979 0
M  V30 4975 H 476.949 0.0819095 -0.747526 0
M  V30 4976 H 478.92 -0.536753 -2.93533 0
M  V30 4977 C 477.669 1.20902 -3.26003 0
M  V30 4978 H 476.992 0.672997 -3.94095 0
M  V30 4979 H 478.432 1.71006 -3.87986 0
M  V30 4980 C 476.891 2.25955 -2.49891 0
M  V30 4981 O 477.421 3.32969 -2.2471 0
M  V30 4982 N 475.627 2.00019 -2.1081 0
M  V30 4983 H 475.174 1.13006 -2.31489 0
M  V30 4984 H 475.132 2.70523 -1.60201 0
M  V30 4985 N 478.904 1.54736 -0.299062 0
M  V30 4986 C 480.132 2.04512 0.313447 0
M  V30 4987 C 480.547 1.17643 1.47667 0
M  V30 4988 O 479.904 0.20164 1.81383 0
M  V30 4989 C 479.955 3.53171 0.771542 0
M  V30 4990 O 479.676 4.36736 -0.345379 0
M  V30 4991 C 481.177 4.18936 1.4494 0
M  V30 4992 H 478.397 0.667507 0.0683784 0
M  V30 4993 H 480.941 1.99752 -0.438129 0
M  V30 4994 H 479.096 3.58298 1.47314 0
M  V30 4995 H 479.51 5.24499 0.0109219 0
M  V30 4996 H 480.984 5.24482 1.72111 0
M  V30 4997 H 481.461 3.68554 2.38883 0
M  V30 4998 H 482.067 4.17879 0.791028 0
M  V30 4999 N 480.382 0.0267497 1.57577 0
M  V30 5000 C 481.628 -0.653371 1.91987 0
M  V30 5001 C 481.961 -1.71915 0.903263 0
M  V30 5002 O 481.236 -1.94358 -0.0743387 0
M  V30 5003 C 481.519 -1.272 3.36886 0
M  V30 5004 C 481.372 -0.215938 4.49281 0
M  V30 5005 C 482.691 -2.19069 3.81703 0
M  V30 5006 H 479.81 -0.236047 0.698177 0
M  V30 5007 H 482.452 0.0835236 1.89816 0
M  V30 5008 H 480.602 -1.90005 3.38866 0
M  V30 5009 H 482.274 0.41449 4.59434 0
M  V30 5010 H 480.517 0.458855 4.31366 0
M  V30 5011 H 481.188 -0.688347 5.47691 0
M  V30 5012 H 483.664 -1.66253 3.81444 0
M  V30 5013 H 482.54 -2.59307 4.83788 0
M  V30 5014 H 482.801 -3.08087 3.17072 0
M  V30 5015 N 481.861 -1.55662 -0.24637 0
M  V30 5016 C 482.808 -1.90361 -1.30504 0
M  V30 5017 C 483.778 -0.757905 -1.47801 0
M  V30 5018 O 484.963 -1.01161 -1.61775 0
M  V30 5019 C 482.103 -2.2042 -2.65535 0
M  V30 5020 C 481.216 -3.47799 -2.56242 0
M  V30 5021 C 480.351 -3.67426 -3.8363 0
M  V30 5022 C 479.39 -4.88403 -3.68956 0
M  V30 5023 N 478.527 -5.04548 -4.88237 0
M  V30 5024 H 483.367 -2.80645 -1.00213 0
M  V30 5025 H 480.904 -1.38924 -0.483577 0
M  V30 5026 H 482.862 -2.35853 -3.44135 0
M  V30 5027 H 481.492 -1.3334 -2.93973 0
M  V30 5028 H 480.544 -3.40694 -1.69208 0
M  V30 5029 H 481.856 -4.36544 -2.4131 0
M  V30 5030 H 481.01 -3.82821 -4.70673 0
M  V30 5031 H 479.749 -2.76914 -4.01459 0
M  V30 5032 H 478.754 -4.72984 -2.80296 0
M  V30 5033 H 479.979 -5.80375 -3.52621 0
M  V30 5034 H 477.925 -4.16974 -5.06427 0
M  V30 5035 H 477.842 -5.87384 -4.75937 0
M  V30 5036 H 479.11 -5.24355 -5.76777 0
M  V30 5037 N 483.339 0.512053 -1.4905 0
M  V30 5038 C 484.755 0.84224 -1.35567 0
M  V30 5039 C 484.955 1.97878 -0.380319 0
M  V30 5040 O 484.011 2.51769 0.19201 0
M  V30 5041 C 485.324 1.19286 -2.76028 0
M  V30 5042 C 486.872 1.30171 -2.84648 0
M  V30 5043 C 487.347 1.68568 -4.25851 0
M  V30 5044 N 488.838 1.75638 -4.28609 0
M  V30 5045 C 489.573 2.06769 -5.34821 0
M  V30 5046 N 489.069 2.36201 -6.51292 0
M  V30 5047 N 490.862 2.07927 -5.22229 0
M  V30 5048 H 483.013 -0.237574 -2.11067 0
M  V30 5049 H 485.276 -0.0436747 -0.946993 0
M  V30 5050 H 484.982 0.431199 -3.49047 0
M  V30 5051 H 484.856 2.13889 -3.10695 0
M  V30 5052 H 487.243 2.05411 -2.11873 0
M  V30 5053 H 487.324 0.336457 -2.53578 0
M  V30 5054 H 486.968 0.938824 -4.99148 0
M  V30 5055 H 486.898 2.66174 -4.54377 0
M  V30 5056 H 489.389 1.55097 -3.44606 0
M  V30 5057 H 489.702 2.59112 -7.28066 0
M  V30 5058 H 488.047 2.33681 -6.54536 0
M  V30 5059 H 491.238 1.84403 -4.30248 0
M  V30 5060 H 491.411 2.31856 -6.05101 0
M  V30 5061 N 484.817 1.37938 0.762283 0
M  V30 5062 C 486.228 1.30094 1.33912 0
M  V30 5063 C 486.579 -0.0472026 1.96143 0
M  V30 5064 O 485.704 -0.94917 1.94473 0
M  V30 5065 C 486.299 2.35592 2.43478 0
M  V30 5066 C 484.858 2.31353 2.96905 0
M  V30 5067 C 484.005 2.18919 1.70205 0
M  V30 5068 H 486.956 1.48423 0.561816 0
M  V30 5069 H 486.977 2.00806 3.23199 0
M  V30 5070 H 486.489 3.33701 1.98155 0
M  V30 5071 H 484.59 1.36799 3.46579 0
M  V30 5072 H 484.703 3.25147 3.51875 0
M  V30 5073 H 483.067 1.65624 1.93496 0
M  V30 5074 H 483.85 3.18956 1.26973 0
M  V30 5075 N 486.295 -0.989507 1.22664 0
M  V30 5076 C 487.523 -1.76496 1.07967 0
M  V30 5077 C 487.938 -1.85148 -0.369543 0
M  V30 5078 O 487.295 -1.32408 -1.25596 0
M  V30 5079 C 487.346 -3.19642 1.68853 0
M  V30 5080 O 487.067 -3.11453 3.08105 0
M  V30 5081 C 488.568 -4.13621 1.59475 0
M  V30 5082 H 485.788 -0.55418 0.378319 0
M  V30 5083 H 488.332 -1.24378 1.62328 0
M  V30 5084 H 486.487 -3.68816 1.18547 0
M  V30 5085 H 486.901 -4.01499 3.37489 0
M  V30 5086 H 488.375 -5.11801 2.06795 0
M  V30 5087 H 488.852 -4.35718 0.55191 0
M  V30 5088 H 489.458 -3.70346 2.09103 0
M  V30 5089 N 487.773 -1.03688 -1.18687 0
M  V30 5090 C 488.72 -0.624624 -2.22187 0
M  V30 5091 C 489.69 0.365636 -1.62026 0
M  V30 5092 O 490.875 0.260481 -1.89014 0
M  V30 5093 C 488.015 0.0101738 -3.45099 0
M  V30 5094 C 487.128 -1.02709 -4.19613 0
M  V30 5095 C 486.263 -0.361213 -5.2997 0
M  V30 5096 C 485.302 -1.38384 -5.96252 0
M  V30 5097 N 484.439 -0.743196 -6.98155 0
M  V30 5098 H 489.279 -1.51176 -2.56807 0
M  V30 5099 H 486.816 -0.75636 -1.26165 0
M  V30 5100 H 488.774 0.395528 -4.15321 0
M  V30 5101 H 487.404 0.860848 -3.1111 0
M  V30 5102 H 486.456 -1.53043 -3.48256 0
M  V30 5103 H 487.768 -1.80398 -4.65036 0
M  V30 5104 H 486.922 0.0785537 -6.06649 0
M  V30 5105 H 485.661 0.447799 -4.8564 0
M  V30 5106 H 484.666 -1.83378 -5.18317 0
M  V30 5107 H 485.891 -2.19448 -6.42666 0
M  V30 5108 H 483.837 0.0455789 -6.55984 0
M  V30 5109 H 483.754 -1.45784 -7.41811 0
M  V30 5110 H 485.022 -0.327698 -7.78811 0
M  V30 5111 N 489.251 1.34841 -0.815825 0
M  V30 5112 C 490.198 2.29644 -0.230664 0
M  V30 5113 C 491.168 1.53253 0.640533 0
M  V30 5114 O 492.353 1.81653 0.583672 0
M  V30 5115 C 489.493 3.39715 0.607275 0
M  V30 5116 C 488.606 4.31056 -0.28538 0
M  V30 5117 C 487.741 5.28225 0.561446 0
M  V30 5118 C 486.78 6.11204 -0.331035 0
M  V30 5119 N 485.917 7.00483 0.476302 0
M  V30 5120 H 490.757 2.79095 -1.0445 0
M  V30 5121 H 488.294 1.37351 -0.526595 0
M  V30 5122 H 490.252 4.02208 1.10835 0
M  V30 5123 H 488.882 2.91517 1.38629 0
M  V30 5124 H 487.934 3.69487 -0.904621 0
M  V30 5125 H 489.246 4.89239 -0.97193 0
M  V30 5126 H 488.4 5.96135 1.12728 0
M  V30 5127 H 487.139 4.70562 1.28153 0
M  V30 5128 H 486.144 5.42232 -0.909069 0
M  V30 5129 H 487.369 6.70947 -1.04912 0
M  V30 5130 H 485.315 6.45296 1.18019 0
M  V30 5131 H 485.232 7.55847 -0.152008 0
M  V30 5132 H 486.5 7.7273 1.02512 0
M  V30 5133 N 490.729 0.570148 1.46925 0
M  V30 5134 C 491.977 0.0508523 2.02036 0
M  V30 5135 C 492.298 -1.30885 1.44548 0
M  V30 5136 O 491.568 -1.85647 0.625453 0
M  V30 5137 H 490.148 0.0158088 0.746833 0
M  V30 5138 H 492.81 0.743086 1.80178 0
M  V30 5139 H 491.906 -0.027575 3.12088 0
M  V30 5140 N 492.207 -1.54576 0.307264 0
M  V30 5141 C 493.623 -1.59534 -0.0459251 0
M  V30 5142 C 493.823 -1.32414 -1.51884 0
M  V30 5143 O 492.879 -1.1006 -2.27251 0
M  V30 5144 C 494.192 -2.98566 0.357649 0
M  V30 5145 C 495.74 -3.11491 0.306937 0
M  V30 5146 C 496.215 -4.52842 0.685427 0
M  V30 5147 N 497.706 -4.58782 0.638203 0
M  V30 5148 C 498.441 -5.66238 0.903458 0
M  V30 5149 N 497.937 -6.81703 1.23501 0
M  V30 5150 N 499.73 -5.55937 0.830102 0
M  V30 5151 H 491.881 -1.70464 1.26712 0
M  V30 5152 H 494.144 -0.79647 0.514139 0
M  V30 5153 H 493.85 -3.23356 1.38325 0
M  V30 5154 H 493.724 -3.76117 -0.285565 0
M  V30 5155 H 496.111 -2.86446 -0.709424 0
M  V30 5156 H 496.192 -2.36081 0.984861 0
M  V30 5157 H 495.836 -4.78618 1.69963 0
M  V30 5158 H 495.766 -5.26598 -0.0146346 0
M  V30 5159 H 498.257 -3.75849 0.393138 0
M  V30 5160 H 498.57 -7.59582 1.42322 0
M  V30 5161 H 496.915 -6.8324 1.27311 0
M  V30 5162 H 500.106 -4.64608 0.570693 0
M  V30 5163 H 500.279 -6.39597 1.04019 0
M  V30 5164 N 493.685 -0.035106 -1.57561 0
M  V30 5165 C 494.962 0.681212 -1.83354 0
M  V30 5166 C 495.342 1.89986 -0.920252 0
M  V30 5167 O 494.69 2.28489 0.0226815 0
M  V30 5168 C 494.9 1.05376 -3.32712 0
M  V30 5169 C 496.248 1.44286 -3.99333 0
M  V30 5170 O 497.272 1.14656 -3.37242 0
M  V30 5171 O 496.131 1.99518 -5.08778 0
M  V30 5172 H 493.225 0.334741 -0.756226 0
M  V30 5173 H 495.771 -0.0632448 -1.69582 0
M  V30 5174 H 494.543 0.186668 -3.90854 0
M  V30 5175 H 494.166 1.85619 -3.51613 0
M  V30 5176 N 495.163 1.55791 0.238111 0
M  V30 5177 C 496.579 1.48411 0.587045 0
M  V30 5178 C 496.779 0.72702 1.87927 0
M  V30 5179 O 495.835 0.259942 2.51158 0
M  V30 5180 C 497.148 2.92873 0.681623 0
M  V30 5181 C 498.696 3.03295 0.773363 0
M  V30 5182 C 499.171 4.49082 0.899428 0
M  V30 5183 N 500.662 4.53056 0.964075 0
M  V30 5184 C 501.397 5.63117 1.08104 0
M  V30 5185 N 500.893 6.82969 1.16299 0
M  V30 5186 N 502.686 5.50933 1.11488 0
M  V30 5187 H 494.837 2.0345 -0.610076 0
M  V30 5188 H 497.1 0.924034 -0.211813 0
M  V30 5189 H 496.806 3.51142 -0.19802 0
M  V30 5190 H 496.68 3.43851 1.55069 0
M  V30 5191 H 499.067 2.45101 1.64346 0
M  V30 5192 H 499.148 2.55513 -0.121034 0
M  V30 5193 H 498.792 5.07889 0.0338586 0
M  V30 5194 H 498.722 4.94553 1.809 0
M  V30 5195 H 501.213 3.66737 0.91173 0
M  V30 5196 H 501.526 7.62598 1.25155 0
M  V30 5197 H 499.871 6.85712 1.13241 0
M  V30 5198 H 503.062 4.56231 1.0474 0
M  V30 5199 H 503.235 6.36743 1.20259 0
M  V30 5200 N 496.642 -0.504142 1.49319 0
M  V30 5201 C 497.605 -1.5883 1.65244 0
M  V30 5202 C 498.605 -1.52009 0.524386 0
M  V30 5203 O 499.795 -1.55218 0.79077 0
M  V30 5204 C 496.927 -2.98481 1.64687 0
M  V30 5205 H 498.12 -1.4604 2.61939 0
M  V30 5206 H 495.673 -0.728144 1.38303 0
M  V30 5207 H 496.408 -3.16751 0.695644 0
M  V30 5208 H 496.193 -3.0484 2.46607 0
M  V30 5209 H 497.683 -3.77256 1.79075 0
M  V30 5210 N 498.12 -1.38341 -0.754957 0
M  V30 5211 C 499.368 -1.34208 -1.51105 0
M  V30 5212 C 499.689 0.0677634 -1.94882 0
M  V30 5213 O 498.959 1.01517 -1.67544 0
M  V30 5214 H 497.539 -0.493819 -0.560493 0
M  V30 5215 H 500.201 -1.73005 -0.897507 0
M  V30 5216 H 499.297 -1.99203 -2.4026 0
M  V30 5217 N 499.598 0.982988 -1.23187 0
M  V30 5218 C 500.545 2.07491 -1.01075 0
M  V30 5219 C 501.515 1.65949 0.070905 0
M  V30 5220 O 502.7 1.90629 -0.0806822 0
M  V30 5221 C 499.84 3.39751 -0.605261 0
M  V30 5222 C 498.953 3.94578 -1.75876 0
M  V30 5223 C 498.088 5.15039 -1.3003 0
M  V30 5224 C 497.127 5.62027 -2.42472 0
M  V30 5225 N 496.264 6.73719 -1.97602 0
M  V30 5226 H 501.104 2.25739 -1.9454 0
M  V30 5227 H 498.641 1.10659 -0.969179 0
M  V30 5228 H 500.599 4.15719 -0.351279 0
M  V30 5229 H 499.229 3.21473 0.292382 0
M  V30 5230 H 498.281 3.1539 -2.12681 0
M  V30 5231 H 499.593 4.25422 -2.60418 0
M  V30 5232 H 498.747 5.9833 -1.00429 0
M  V30 5233 H 497.486 4.85843 -0.425216 0
M  V30 5234 H 496.491 4.77318 -2.7285 0
M  V30 5235 H 497.716 5.93244 -3.30512 0
M  V30 5236 H 495.662 6.46287 -1.1247 0
M  V30 5237 H 495.579 7.03934 -2.75705 0
M  V30 5238 H 496.847 7.6049 -1.71098 0
M  V30 5239 N 501.076 1.04316 1.18135 0
M  V30 5240 C 502.324 0.746542 1.87806 0
M  V30 5241 C 502.645 -0.728082 1.80898 0
M  V30 5242 O 501.915 -1.52554 1.22899 0
M  V30 5243 H 500.495 0.273157 0.695265 0
M  V30 5244 H 503.157 1.32044 1.43354 0
M  V30 5245 H 502.253 1.05362 2.93778 0
M  V30 5246 N 502.554 -1.34406 0.822964 0
M  V30 5247 C 503.486 -2.28305 0.202375 0
M  V30 5248 C 504.499 -1.5103 -0.60777 0
M  V30 5249 O 505.688 -1.73057 -0.437444 0
M  V30 5250 C 502.788 -3.30836 -0.734911 0
M  V30 5251 C 501.961 -4.37388 0.0324177 0
M  V30 5252 C 501.02 -5.1968 -0.825803 0
M  V30 5253 O 500.046 -5.68556 -0.270771 0
M  V30 5254 N 501.248 -5.39393 -2.14558 0
M  V30 5255 H 504.013 -2.82201 1.00909 0
M  V30 5256 H 501.574 -1.4693 0.67993 0
M  V30 5257 H 503.566 -3.82786 -1.31365 0
M  V30 5258 H 502.136 -2.77334 -1.44238 0
M  V30 5259 H 501.356 -3.86152 0.792469 0
M  V30 5260 H 502.644 -5.05702 0.560633 0
M  V30 5261 H 502.042 -5.01357 -2.62025 0
M  V30 5262 H 500.599 -5.94461 -2.67318 0
M  V30 5263 N 504.032 -0.577932 -1.46621 0
M  V30 5264 C 504.979 0.158048 -2.30258 0
M  V30 5265 C 505.949 0.888669 -1.40328 0
M  V30 5266 O 507.134 0.880283 -1.6928 0
M  V30 5267 C 504.274 1.16884 -3.24703 0
M  V30 5268 C 503.387 0.442163 -4.29731 0
M  V30 5269 C 502.522 1.44007 -5.11308 0
M  V30 5270 C 501.561 0.69952 -6.0809 0
M  V30 5271 N 500.698 1.64525 -6.82551 0
M  V30 5272 H 505.538 -0.561242 -2.92667 0
M  V30 5273 H 503.075 -0.288591 -1.44241 0
M  V30 5274 H 505.033 1.7677 -3.779 0
M  V30 5275 H 503.663 1.85591 -2.64113 0
M  V30 5276 H 502.715 -0.271632 -3.79429 0
M  V30 5277 H 504.027 -0.136992 -4.98612 0
M  V30 5278 H 503.181 2.11186 -5.68758 0
M  V30 5279 H 501.92 2.05315 -4.42377 0
M  V30 5280 H 500.925 0.0139217 -5.49798 0
M  V30 5281 H 502.15 0.091894 -6.79038 0
M  V30 5282 H 500.096 2.24653 -6.16334 0
M  V30 5283 H 500.013 1.11878 -7.47676 0
M  V30 5284 H 501.281 2.30754 -7.44562 0
M  V30 5285 N 505.51 1.54411 -0.315457 0
M  V30 5286 C 506.921 1.85885 0.174265 0
M  V30 5287 C 507.272 1.23723 1.52273 0
M  V30 5288 O 506.397 0.540246 2.09548 0
M  V30 5289 C 506.992 3.37257 0.322981 0
M  V30 5290 C 505.551 3.68711 0.756922 0
M  V30 5291 C 504.698 2.77013 -0.126195 0
M  V30 5292 H 507.649 1.49374 -0.536007 0
M  V30 5293 H 507.67 3.62539 1.15522 0
M  V30 5294 H 507.182 3.82471 -0.658602 0
M  V30 5295 H 505.283 3.29024 1.74854 0
M  V30 5296 H 505.396 4.75741 0.566291 0
M  V30 5297 H 503.76 2.51588 0.39692 0
M  V30 5298 H 504.543 3.25051 -1.1044 0
M  V30 5299 N 506.988 0.0434614 1.5754 0
M  V30 5300 C 508.404 -0.313039 1.565 0
M  V30 5301 C 508.604 -1.71954 1.05043 0
M  V30 5302 O 507.66 -2.425 0.703564 0
M  V30 5303 C 508.973 -0.148544 3.00333 0
M  V30 5304 C 510.521 -0.220231 3.12224 0
M  V30 5305 C 510.996 -0.0843565 4.57922 0
M  V30 5306 N 512.487 -0.140881 4.62986 0
M  V30 5307 C 513.222 -0.0597443 5.73369 0
M  V30 5308 N 512.718 0.0733004 6.92761 0
M  V30 5309 N 514.511 -0.11477 5.61983 0
M  V30 5310 H 506.662 0.96303 1.89313 0
M  V30 5311 H 508.925 0.373164 0.871466 0
M  V30 5312 H 508.631 0.820894 3.41986 0
M  V30 5313 H 508.505 -0.912798 3.65989 0
M  V30 5314 H 510.892 -1.18014 2.70475 0
M  V30 5315 H 510.973 0.574646 2.49262 0
M  V30 5316 H 510.617 0.872192 5.00355 0
M  V30 5317 H 510.547 -0.898281 5.18882 0
M  V30 5318 H 513.038 -0.243273 3.77116 0
M  V30 5319 H 513.351 0.128128 7.72694 0
M  V30 5320 H 511.696 0.10828 6.94916 0
M  V30 5321 H 514.887 -0.217212 4.67596 0
M  V30 5322 H 515.06 -0.0480779 6.47982 0
M  V30 5323 N 508.466 -1.55915 -0.229846 0
M  V30 5324 C 509.714 -1.7819 -0.953565 0
M  V30 5325 C 510.035 -0.610504 -1.85197 0
M  V30 5326 O 509.305 0.372988 -1.92316 0
M  V30 5327 H 507.885 -0.657208 -0.355087 0
M  V30 5328 H 510.547 -1.9337 -0.243693 0
M  V30 5329 H 509.643 -2.70011 -1.56527 0
M  V30 5330 N 509.944 0.496216 -1.49584 0
M  V30 5331 C 510.891 1.59722 -1.66606 0
M  V30 5332 C 511.861 1.58158 -0.507477 0
M  V30 5333 O 513.046 1.76072 -0.735076 0
M  V30 5334 C 510.186 2.97844 -1.74308 0
M  V30 5335 C 509.299 3.09388 -3.01502 0
M  V30 5336 C 508.434 4.38271 -3.00153 0
M  V30 5337 C 507.473 4.43466 -4.21906 0
M  V30 5338 N 506.61 5.63784 -4.1844 0
M  V30 5339 H 511.45 1.44515 -2.60613 0
M  V30 5340 H 508.987 0.703048 -1.29212 0
M  V30 5341 H 510.945 3.77907 -1.76754 0
M  V30 5342 H 509.575 3.11743 -0.837619 0
M  V30 5343 H 508.627 2.22357 -3.08645 0
M  V30 5344 H 509.939 3.09085 -3.91494 0
M  V30 5345 H 509.093 5.2666 -3.01188 0
M  V30 5346 H 507.832 4.41146 -2.07947 0
M  V30 5347 H 506.837 3.53478 -4.21109 0
M  V30 5348 H 508.062 4.42303 -5.1531 0
M  V30 5349 H 506.008 5.67491 -3.29074 0
M  V30 5350 H 505.925 5.65118 -5.02173 0
M  V30 5351 H 507.193 6.54367 -4.23585 0
M  V30 5352 N 511.423 1.38739 0.74761 0
M  V30 5353 C 512.333 1.38696 1.89211 0
M  V30 5354 C 513.349 0.283303 1.71678 0
M  V30 5355 O 514.525 0.522713 1.94498 0
M  V30 5356 C 511.59 1.21662 3.24653 0
M  V30 5357 C 510.651 2.41886 3.54669 0
M  V30 5358 C 509.884 2.25655 4.83648 0
M  V30 5359 O 510.107 1.25339 5.56459 0
M  V30 5360 O 509.041 3.14372 5.13277 0
M  V30 5361 H 512.867 2.35143 1.92202 0
M  V30 5362 H 510.452 1.19721 0.893708 0
M  V30 5363 H 512.334 1.14246 4.05618 0
M  V30 5364 H 511.009 0.283024 3.2246 0
M  V30 5365 H 509.916 2.54877 2.73841 0
M  V30 5366 H 511.249 3.33895 3.61628 0
M  V30 5367 N 512.901 -0.976442 1.23707 0
M  V30 5368 C 513.833 -2.07212 0.979574 0
M  V30 5369 C 514.846 -1.6273 -0.0478528 0
M  V30 5370 O 516.035 -1.77506 0.18815 0
M  V30 5371 C 513.135 -3.35835 0.45479 0
M  V30 5372 C 512.308 -4.09268 1.54331 0
M  V30 5373 C 511.367 -5.16166 1.02271 0
M  V30 5374 O 510.393 -5.42827 1.71254 0
M  V30 5375 N 511.595 -5.80313 -0.147419 0
M  V30 5376 H 514.36 -2.29878 1.92292 0
M  V30 5377 H 511.921 -1.14343 1.14618 0
M  V30 5378 H 513.913 -4.04597 0.0914631 0
M  V30 5379 H 512.483 -3.10106 -0.394068 0
M  V30 5380 H 511.703 -3.34906 2.07923 0
M  V30 5381 H 512.991 -4.55095 2.27522 0
M  V30 5382 H 512.389 -5.61043 -0.724353 0
M  V30 5383 H 510.946 -6.50231 -0.451972 0
M  V30 5384 N 514.379 -1.04941 -1.1758 0
M  V30 5385 C 515.309 -0.669172 -2.23706 0
M  V30 5386 C 516.29 0.331835 -1.66832 0
M  V30 5387 O 517.475 0.209988 -1.93061 0
M  V30 5388 C 514.605 -0.0404889 -3.47276 0
M  V30 5389 C 513.559 -0.965983 -4.16957 0
M  V30 5390 C 512.885 -0.201312 -5.34321 0
M  V30 5391 C 514.185 -2.28902 -4.69469 0
M  V30 5392 H 515.879 -1.55639 -2.55767 0
M  V30 5393 H 513.425 -0.749793 -1.22939 0
M  V30 5394 H 515.378 0.237298 -4.20731 0
M  V30 5395 H 514.102 0.881658 -3.14475 0
M  V30 5396 H 512.761 -1.22829 -3.45411 0
M  V30 5397 H 512.409 0.723519 -4.97769 0
M  V30 5398 H 512.109 -0.817968 -5.81879 0
M  V30 5399 H 513.633 0.0692499 -6.10561 0
M  V30 5400 H 515.047 -2.07132 -5.34574 0
M  V30 5401 H 513.444 -2.85942 -5.27596 0
M  V30 5402 H 514.514 -2.92937 -3.86414 0
M  V30 5403 N 515.857 1.33968 -0.830081 0
M  V30 5404 C 516.82 2.27694 -0.26235 0
M  V30 5405 C 517.82 1.50589 0.563876 0
M  V30 5406 O 519.01 1.70028 0.378941 0
M  V30 5407 C 516.142 3.35002 0.63138 0
M  V30 5408 H 517.335 2.79419 -1.08928 0
M  V30 5409 H 514.888 1.44221 -0.602486 0
M  V30 5410 H 515.623 2.88504 1.48109 0
M  V30 5411 H 515.408 3.92079 0.0403276 0
M  V30 5412 H 516.898 4.04897 1.02217 0
M  V30 5413 N 517.335 0.585699 1.46312 0
M  V30 5414 C 518.282 -0.145835 2.30339 0
M  V30 5415 C 519.252 -0.881215 1.40797 0
M  V30 5416 O 520.437 -0.871293 1.69744 0
M  V30 5417 C 517.577 -1.15161 3.25318 0
M  V30 5418 C 516.69 -0.419367 4.2996 0
M  V30 5419 C 515.825 -1.41293 5.12064 0
M  V30 5420 C 514.864 -0.667261 6.08452 0
M  V30 5421 N 514.001 -1.60903 6.83414 0
M  V30 5422 H 518.841 0.576755 2.92365 0
M  V30 5423 H 516.378 0.296237 1.44086 0
M  V30 5424 H 518.336 -1.74763 3.78832 0
M  V30 5425 H 516.966 -1.84188 2.65094 0
M  V30 5426 H 516.018 0.291751 3.7928 0
M  V30 5427 H 517.33 0.163433 4.98532 0
M  V30 5428 H 516.484 -2.08167 5.6987 0
M  V30 5429 H 515.223 -2.02966 4.43459 0
M  V30 5430 H 514.228 0.0152356 5.49798 0
M  V30 5431 H 515.453 -0.0558817 6.79077 0
M  V30 5432 H 513.399 -2.21381 6.17516 0
M  V30 5433 H 513.316 -1.07911 7.48259 0
M  V30 5434 H 514.584 -2.26802 7.45775 0
M  V30 5435 N 518.813 -1.54241 0.323641 0
M  V30 5436 C 520.229 -1.59574 -0.0290018 0
M  V30 5437 C 520.429 -1.34017 -1.50472 0
M  V30 5438 O 519.485 -1.12464 -2.26071 0
M  V30 5439 C 520.798 -2.98169 0.389295 0
M  V30 5440 C 522.346 -3.11148 0.339958 0
M  V30 5441 C 522.821 -4.5209 0.733418 0
M  V30 5442 N 524.312 -4.5808 0.686827 0
M  V30 5443 C 525.047 -5.65248 0.963464 0
M  V30 5444 N 524.543 -6.80355 1.30724 0
M  V30 5445 N 526.336 -5.55025 0.88902 0
M  V30 5446 H 518.487 -1.6911 1.28512 0
M  V30 5447 H 520.75 -0.790972 0.522558 0
M  V30 5448 H 520.456 -3.21871 1.41746 0
M  V30 5449 H 520.33 -3.76399 -0.245657 0
M  V30 5450 H 522.717 -2.87182 -0.679002 0
M  V30 5451 H 522.798 -2.35023 1.00985 0
M  V30 5452 H 522.442 -4.76788 1.75029 0
M  V30 5453 H 522.372 -5.26584 0.0412189 0
M  V30 5454 H 524.863 -3.75411 0.43298 0
M  V30 5455 H 525.176 -7.58029 1.5037 0
M  V30 5456 H 523.521 -6.81851 1.3455 0
M  V30 5457 H 526.712 -4.63977 0.619939 0
M  V30 5458 H 526.885 -6.38458 1.10797 0
M  V30 5459 N 520.291 -0.0518155 -1.57515 0
M  V30 5460 C 521.238 0.922352 -2.11569 0
M  V30 5461 C 522.208 1.30842 -1.02321 0
M  V30 5462 O 523.393 1.39778 -1.29872 0
M  V30 5463 C 520.533 2.19167 -2.6657 0
M  V30 5464 C 519.646 1.86003 -3.89906 0
M  V30 5465 C 518.781 3.07398 -4.33221 0
M  V30 5466 C 517.82 2.70158 -5.49255 0
M  V30 5467 N 516.957 3.84248 -5.8762 0
M  V30 5468 H 521.797 0.454506 -2.94514 0
M  V30 5469 H 519.334 0.212718 -1.45554 0
M  V30 5470 H 521.292 2.93443 -2.96559 0
M  V30 5471 H 519.922 2.63528 -1.86421 0
M  V30 5472 H 518.974 1.01874 -3.66505 0
M  V30 5473 H 520.286 1.54592 -4.74239 0
M  V30 5474 H 519.44 3.89972 -4.64765 0
M  V30 5475 H 518.179 3.41988 -3.477 0
M  V30 5476 H 517.184 1.86001 -5.17382 0
M  V30 5477 H 518.409 2.36759 -6.36492 0
M  V30 5478 H 516.355 4.18638 -5.05053 0
M  V30 5479 H 516.272 3.56538 -6.66646 0
M  V30 5480 H 517.54 4.6746 -6.2378 0
M  V30 5481 N 521.769 1.56035 0.221574 0
M  V30 5482 C 522.997 1.8313 0.962864 0
M  V30 5483 C 523.412 0.630934 1.77946 0
M  V30 5484 O 522.769 -0.400519 1.78051 0
M  V30 5485 C 522.82 3.08742 1.88045 0
M  V30 5486 O 522.541 4.24147 1.09686 0
M  V30 5487 C 524.042 3.48824 2.73563 0
M  V30 5488 H 521.262 0.608775 0.282194 0
M  V30 5489 H 523.806 2.03124 0.23681 0
M  V30 5490 H 521.961 2.90723 2.56045 0
M  V30 5491 H 522.375 4.95505 1.71974 0
M  V30 5492 H 523.849 4.39752 3.3365 0
M  V30 5493 H 524.326 2.70575 3.45956 0
M  V30 5494 H 524.932 3.69282 2.10976 0
M  V30 5495 N 523.247 -0.488276 1.49845 0
M  V30 5496 C 524.494 -1.24157 1.59973 0
M  V30 5497 C 524.822 -1.92293 0.292182 0
M  V30 5498 O 524.077 -1.81942 -0.720813 0
M  V30 5499 C 524.376 -2.32152 2.71735 0
M  V30 5500 C 524.042 -1.81387 4.12807 0
M  V30 5501 C 522.704 -1.67262 4.51195 0
M  V30 5502 C 525.056 -1.43537 5.01045 0
M  V30 5503 C 522.384 -1.13685 5.7558 0
M  V30 5504 C 524.736 -0.914081 6.25961 0
M  V30 5505 C 523.4 -0.759327 6.63167 0
M  V30 5506 H 522.67 -0.454322 0.585383 0
M  V30 5507 H 525.317 -0.540261 1.83721 0
M  V30 5508 H 523.622 -3.08122 2.42008 0
M  V30 5509 H 525.319 -2.90164 2.76778 0
M  V30 5510 H 521.909 -1.93344 3.82513 0
M  V30 5511 H 526.093 -1.53292 4.72033 0
M  V30 5512 H 521.349 -1.00426 6.03096 0
M  V30 5513 H 525.523 -0.612066 6.93705 0
M  V30 5514 H 523.15 -0.342002 7.5943 0
M  V30 5515 N 524.725 -1.39134 -0.740242 0
M  V30 5516 C 525.95 -1.39518 -1.53459 0
M  V30 5517 C 526.375 0.00968883 -1.88098 0
M  V30 5518 O 525.733 0.995312 -1.51536 0
M  V30 5519 C 525.781 -2.26981 -2.802 0
M  V30 5520 O 524.885 -1.69609 -3.75908 0
M  V30 5521 H 524.226 -0.475328 -0.463637 0
M  V30 5522 H 526.756 -1.83064 -0.913717 0
M  V30 5523 H 526.766 -2.41309 -3.28989 0
M  V30 5524 H 525.441 -3.29081 -2.5432 0
M  V30 5525 H 524.018 -1.64495 -3.34658 0
M  V30 5526 N 526.204 0.969867 -1.24223 0
M  V30 5527 C 527.134 2.08191 -1.05729 0
M  V30 5528 C 528.115 1.70075 0.0290765 0
M  V30 5529 O 529.3 1.93712 -0.137583 0
M  V30 5530 C 526.43 3.40991 -0.658995 0
M  V30 5531 C 525.384 3.93054 -1.69389 0
M  V30 5532 C 524.71 5.22171 -1.15072 0
M  V30 5533 C 526.01 4.21137 -3.08935 0
M  V30 5534 H 527.704 2.23921 -1.98746 0
M  V30 5535 H 525.25 1.07602 -0.956967 0
M  V30 5536 H 527.203 4.18221 -0.51662 0
M  V30 5537 H 525.927 3.25155 0.30686 0
M  V30 5538 H 524.586 3.17977 -1.82444 0
M  V30 5539 H 524.234 5.02694 -0.175539 0
M  V30 5540 H 523.934 5.57973 -1.84229 0
M  V30 5541 H 525.458 6.02013 -1.02042 0
M  V30 5542 H 526.872 4.8908 -2.99121 0
M  V30 5543 H 525.269 4.68163 -3.75425 0
M  V30 5544 H 526.339 3.27996 -3.57137 0
M  V30 5545 N 527.682 1.05563 1.17022 0
M  V30 5546 C 528.928 0.769074 1.87652 0
M  V30 5547 C 529.261 -0.702326 1.81055 0
M  V30 5548 O 528.536 -1.5139 1.22112 0
M  V30 5549 C 528.819 1.25492 3.37526 0
M  V30 5550 C 528.672 2.78953 3.52853 0
M  V30 5551 C 529.991 0.856919 4.31677 0
M  V30 5552 H 527.11 0.280854 0.681388 0
M  V30 5553 H 529.752 1.31027 1.37593 0
M  V30 5554 H 527.902 0.794516 3.80289 0
M  V30 5555 H 529.574 3.33146 3.19079 0
M  V30 5556 H 527.817 3.18046 2.95007 0
M  V30 5557 H 528.488 3.08011 4.58076 0
M  V30 5558 H 530.964 1.25334 3.96775 0
M  V30 5559 H 529.84 1.22443 5.35069 0
M  V30 5560 H 530.101 -0.238787 4.41455 0
M  V30 5561 N 529.16 -1.33526 0.837174 0
M  V30 5562 C 530.107 -2.29248 0.267169 0
M  V30 5563 C 531.077 -1.54252 -0.616071 0
M  V30 5564 O 532.262 -1.82559 -0.554699 0
M  V30 5565 C 529.402 -3.40638 -0.553152 0
M  V30 5566 C 528.515 -4.30548 0.353921 0
M  V30 5567 C 527.65 -5.29051 -0.477339 0
M  V30 5568 C 526.689 -6.106 0.42823 0
M  V30 5569 N 525.826 -7.01152 -0.364801 0
M  V30 5570 H 530.666 -2.77398 1.08877 0
M  V30 5571 H 528.203 -1.36496 0.54838 0
M  V30 5572 H 530.161 -4.03921 -1.04422 0
M  V30 5573 H 528.791 -2.93685 -1.33973 0
M  V30 5574 H 527.843 -3.68001 0.963289 0
M  V30 5575 H 529.155 -4.87631 1.04964 0
M  V30 5576 H 528.309 -5.97853 -1.0323 0
M  V30 5577 H 527.048 -4.72541 -1.2065 0
M  V30 5578 H 526.053 -5.40718 0.995219 0
M  V30 5579 H 527.278 -6.69193 1.15573 0
M  V30 5580 H 525.224 -6.47092 -1.07738 0
M  V30 5581 H 525.141 -7.5551 0.272238 0
M  V30 5582 H 526.409 -7.74263 -0.902054 0
M  V30 5583 N 530.638 -0.59345 -1.46 0
M  V30 5584 C 531.548 0.135817 -2.34207 0
M  V30 5585 C 532.564 0.875008 -1.50398 0
M  V30 5586 O 533.74 0.835778 -1.83239 0
M  V30 5587 C 530.805 1.12977 -3.27776 0
M  V30 5588 C 529.866 0.394081 -4.27487 0
M  V30 5589 C 529.099 1.34068 -5.16586 0
M  V30 5590 O 529.322 2.5778 -5.08828 0
M  V30 5591 O 528.256 0.845426 -5.95933 0
M  V30 5592 H 532.082 -0.588691 -2.9794 0
M  V30 5593 H 529.667 -0.353784 -1.45151 0
M  V30 5594 H 531.549 1.70261 -3.85473 0
M  V30 5595 H 530.224 1.83556 -2.66625 0
M  V30 5596 H 529.131 -0.220869 -3.73447 0
M  V30 5597 H 530.464 -0.270939 -4.91454 0
M  V30 5598 N 532.116 1.54067 -0.331816 0
M  V30 5599 C 533.063 2.24623 0.530372 0
M  V30 5600 C 534.033 1.24009 1.10503 0
M  V30 5601 O 535.218 1.52712 1.14384 0
M  V30 5602 C 532.358 3.01374 1.68129 0
M  V30 5603 C 531.471 4.16821 1.13507 0
M  V30 5604 C 530.606 4.81085 2.25234 0
M  V30 5605 C 529.645 5.88621 1.67903 0
M  V30 5606 N 528.782 6.46713 2.73326 0
M  V30 5607 H 533.622 2.97898 -0.0778607 0
M  V30 5608 H 531.159 1.47014 -0.0501965 0
M  V30 5609 H 533.117 3.44125 2.35868 0
M  V30 5610 H 531.747 2.30419 2.26069 0
M  V30 5611 H 530.799 3.78796 0.348979 0
M  V30 5612 H 532.111 4.94203 0.675633 0
M  V30 5613 H 531.265 5.26846 3.00862 0
M  V30 5614 H 530.004 4.03102 2.74518 0
M  V30 5615 H 529.009 5.42254 0.907773 0
M  V30 5616 H 530.234 6.68506 1.19487 0
M  V30 5617 H 528.18 5.71599 3.21886 0
M  V30 5618 H 528.097 7.19532 2.3197 0
M  V30 5619 H 529.365 6.97129 3.48758 0
M  V30 5620 N 533.594 0.0601682 1.57485 0
M  V30 5621 C 534.541 -0.91112 2.12055 0
M  V30 5622 C 535.511 -1.30298 1.03013 0
M  V30 5623 O 536.696 -1.39087 1.30612 0
M  V30 5624 C 533.836 -2.1775 2.67729 0
M  V30 5625 C 532.949 -1.83933 3.90887 0
M  V30 5626 C 532.084 -3.05096 4.34845 0
M  V30 5627 C 531.123 -2.67241 5.5068 0
M  V30 5628 N 530.26 -3.81127 5.8965 0
M  V30 5629 H 535.1 -0.43888 2.9475 0
M  V30 5630 H 532.637 -0.204995 1.45665 0
M  V30 5631 H 534.595 -2.91866 2.98111 0
M  V30 5632 H 533.225 -2.62535 1.87816 0
M  V30 5633 H 532.277 -0.999287 3.6704 0
M  V30 5634 H 533.589 -1.52074 4.75052 0
M  V30 5635 H 532.743 -3.87502 4.66827 0
M  V30 5636 H 531.482 -3.40139 3.49509 0
M  V30 5637 H 530.487 -1.83254 5.18361 0
M  V30 5638 H 531.712 -2.3338 6.37738 0
M  V30 5639 H 529.658 -4.15954 5.07266 0
M  V30 5640 H 529.575 -3.52997 6.68528 0
M  V30 5641 H 530.843 -4.64145 6.2625 0
M  V30 5642 N 535.072 -1.5615 -0.213296 0
M  V30 5643 C 536.035 -1.92249 -1.24792 0
M  V30 5644 C 537.035 -0.801828 -1.39382 0
M  V30 5645 O 538.225 -1.06948 -1.37506 0
M  V30 5646 C 535.357 -2.18056 -2.62039 0
M  V30 5647 H 536.55 -2.84793 -0.939845 0
M  V30 5648 H 534.103 -1.49559 -0.454062 0
M  V30 5649 H 534.838 -1.2809 -2.97932 0
M  V30 5650 H 534.623 -2.99703 -2.52825 0
M  V30 5651 H 536.113 -2.47051 -3.36683 0
M  V30 5652 N 536.55 0.480323 -1.50102 0
M  V30 5653 C 537.513 1.56181 -1.6775 0
M  V30 5654 C 538.513 1.51156 -0.548503 0
M  V30 5655 O 539.703 1.5394 -0.815363 0
M  V30 5656 C 536.835 2.95823 -1.69415 0
M  V30 5657 H 538.028 1.41855 -2.6423 0
M  V30 5658 H 535.581 0.70605 -1.39444 0
M  V30 5659 H 536.316 3.15604 -0.745948 0
M  V30 5660 H 536.101 3.00878 -2.51425 0
M  V30 5661 H 537.591 3.74359 -1.85054 0
M  V30 5662 N 538.028 1.39524 0.732853 0
M  V30 5663 C 539.444 1.21176 1.03868 0
M  V30 5664 C 539.644 0.0748448 2.01361 0
M  V30 5665 O 538.7 -0.57281 2.45917 0
M  V30 5666 C 540.013 2.54667 1.59892 0
M  V30 5667 C 541.561 2.6153 1.71962 0
M  V30 5668 C 542.036 3.95248 2.31394 0
M  V30 5669 N 543.527 3.96899 2.38801 0
M  V30 5670 C 544.262 4.97138 2.85729 0
M  V30 5671 N 543.758 6.07775 3.32537 0
M  V30 5672 N 545.551 4.84516 2.84957 0
M  V30 5673 H 537.702 2.12225 0.086304 0
M  V30 5674 H 539.965 0.942614 0.100907 0
M  V30 5675 H 539.671 3.38423 0.95721 0
M  V30 5676 H 539.545 2.74538 2.58668 0
M  V30 5677 H 541.932 1.78156 2.35254 0
M  V30 5678 H 542.013 2.45507 0.718327 0
M  V30 5679 H 541.657 4.79054 1.68729 0
M  V30 5680 H 541.587 4.08593 3.32204 0
M  V30 5681 H 544.078 3.16998 2.05719 0
M  V30 5682 H 544.391 6.8017 3.66862 0
M  V30 5683 H 542.736 6.11366 3.30541 0
M  V30 5684 H 545.927 3.97185 2.47713 0
M  V30 5685 H 546.1 5.62783 3.21215 0
M  V30 5686 N 539.506 -0.963266 1.24736 0
M  V30 5687 C 540.734 -1.74166 1.11686 0
M  V30 5688 C 541.149 -1.8589 -0.330187 0
M  V30 5689 O 540.506 -1.35042 -1.2276 0
M  V30 5690 C 540.557 -3.15989 1.75595 0
M  V30 5691 O 540.278 -3.04847 3.14642 0
M  V30 5692 C 541.779 -4.10145 1.68213 0
M  V30 5693 H 538.999 -0.546031 0.389989 0
M  V30 5694 H 541.543 -1.20907 1.64929 0
M  V30 5695 H 539.698 -3.66219 1.26343 0
M  V30 5696 H 540.112 -3.9425 3.4593 0
M  V30 5697 H 541.586 -5.07299 2.17604 0
M  V30 5698 H 542.063 -4.3445 0.644208 0
M  V30 5699 H 542.669 -3.65827 2.16912 0
M  V30 5700 N 540.985 -1.06182 -1.16461 0
M  V30 5701 C 541.915 -0.692861 -2.22984 0
M  V30 5702 C 542.896 0.314122 -1.67174 0
M  V30 5703 O 544.081 0.189499 -1.93273 0
M  V30 5704 C 541.211 -0.07732 -3.47214 0
M  V30 5705 C 540.165 -1.01015 -4.15909 0
M  V30 5706 C 539.491 -0.257973 -5.34077 0
M  V30 5707 C 540.791 -2.33868 -4.67015 0
M  V30 5708 H 542.485 -1.58343 -2.54102 0
M  V30 5709 H 540.031 -0.76279 -1.22137 0
M  V30 5710 H 541.984 0.19266 -4.20959 0
M  V30 5711 H 540.708 0.848254 -3.15392 0
M  V30 5712 H 539.367 -1.26486 -3.44088 0
M  V30 5713 H 539.015 0.670684 -4.98509 0
M  V30 5714 H 538.715 -0.879638 -5.80979 0
M  V30 5715 H 540.239 0.00448788 -6.106 0
M  V30 5716 H 541.653 -2.1279 -5.32347 0
M  V30 5717 H 540.05 -2.91522 -5.24533 0
M  V30 5718 H 541.12 -2.97019 -3.83286 0
M  V30 5719 N 542.463 1.3308 -0.844243 0
M  V30 5720 C 543.688 2.02341 -0.455282 0
M  V30 5721 C 544.113 1.6308 0.93737 0
M  V30 5722 O 543.471 0.826118 1.61385 0
M  V30 5723 C 543.519 3.55743 -0.58988 0
M  V30 5724 O 542.623 4.1063 0.38166 0
M  V30 5725 H 541.964 0.637898 -0.184343 0
M  V30 5726 H 544.494 1.6986 -1.14056 0
M  V30 5727 H 544.504 4.05243 -0.473522 0
M  V30 5728 H 543.179 3.83662 -1.60549 0
M  V30 5729 H 541.756 3.72236 0.22241 0
M  V30 5730 N 543.941 0.601185 1.45683 0
M  V30 5731 C 544.904 -0.111398 2.28929 0
M  V30 5732 C 545.904 -0.801246 1.39416 0
M  V30 5733 O 547.094 -0.650383 1.61603 0
M  V30 5734 C 544.226 -1.16773 3.20276 0
M  V30 5735 H 545.419 0.620412 2.93413 0
M  V30 5736 H 542.972 0.359946 1.52099 0
M  V30 5737 H 543.707 -1.93051 2.60579 0
M  V30 5738 H 543.492 -0.677358 3.86205 0
M  V30 5739 H 544.982 -1.66698 3.82886 0
M  V30 5740 N 545.419 -1.53889 0.339982 0
M  V30 5741 C 546.668 -2.00035 -0.258604 0
M  V30 5742 C 546.981 -1.23179 -1.51942 0
M  V30 5743 O 548.187 -1.59784 -2.19503 0
M  V30 5744 C 546.643 -3.56249 -0.511359 0
M  V30 5745 C 546.251 -4.41957 0.733349 0
M  V30 5746 C 547.995 -4.1082 -1.069 0
M  V30 5747 C 545.902 -5.89673 0.451591 0
M  V30 5748 H 544.832 -0.747284 -0.10041 0
M  V30 5749 H 547.483 -1.77776 0.454758 0
M  V30 5750 H 545.865 -3.7456 -1.28533 0
M  V30 5751 H 547.039 -4.35421 1.50815 0
M  V30 5752 H 545.354 -3.9836 1.21237 0
M  V30 5753 H 547.951 -5.18789 -1.2947 0
M  V30 5754 H 548.294 -3.63817 -2.02343 0
M  V30 5755 H 548.827 -3.96205 -0.355817 0
M  V30 5756 H 545.566 -6.40903 1.37565 0
M  V30 5757 H 545.086 -5.99122 -0.285193 0
M  V30 5758 H 546.765 -6.46965 0.0675067 0
M  V30 5759 N 546.897 -0.0685191 -1.57451 0
M  V30 5760 C 547.827 0.89747 -2.15564 0
M  V30 5761 C 548.808 1.31266 -1.08181 0
M  V30 5762 O 549.993 1.38429 -1.36202 0
M  V30 5763 C 547.123 2.16623 -2.71463 0
M  V30 5764 C 546.077 1.89054 -3.83982 0
M  V30 5765 C 545.403 3.22532 -4.26471 0
M  V30 5766 C 546.703 1.1984 -5.08366 0
M  V30 5767 H 548.397 0.413373 -2.96533 0
M  V30 5768 H 545.943 0.197391 -1.42641 0
M  V30 5769 H 547.896 2.84614 -3.10761 0
M  V30 5770 H 546.62 2.67269 -1.8771 0
M  V30 5771 H 545.279 1.23469 -3.45183 0
M  V30 5772 H 544.927 3.71013 -3.39644 0
M  V30 5773 H 544.627 3.04879 -5.02317 0
M  V30 5774 H 546.151 3.91727 -4.68383 0
M  V30 5775 H 547.565 1.77896 -5.45001 0
M  V30 5776 H 545.962 1.12456 -5.89469 0
M  V30 5777 H 547.032 0.176996 -4.84577 0
M  V30 5778 N 548.375 1.56261 0.205012 0
M  V30 5779 C 549.305 1.96779 1.257 0
M  V30 5780 C 550.286 0.838309 1.48008 0
M  V30 5781 O 551.471 1.10189 1.59913 0
M  V30 5782 C 548.601 2.29876 2.60335 0
M  V30 5783 C 547.555 3.45469 2.52656 0
M  V30 5784 C 546.881 3.64215 3.91473 0
M  V30 5785 C 548.181 4.79954 2.06014 0
M  V30 5786 H 549.875 2.84904 0.920338 0
M  V30 5787 H 547.421 1.37072 0.441277 0
M  V30 5788 H 549.374 2.56814 3.34102 0
M  V30 5789 H 548.098 1.38622 2.95722 0
M  V30 5790 H 546.757 3.18605 1.81345 0
M  V30 5791 H 546.405 2.70309 4.24196 0
M  V30 5792 H 546.105 4.41973 3.87213 0
M  V30 5793 H 547.629 3.93519 4.66878 0
M  V30 5794 H 549.043 5.05989 2.69533 0
M  V30 5795 H 547.44 5.61111 2.12777 0
M  V30 5796 H 548.51 4.74201 1.01297 0
M  V30 5797 N 549.853 -0.472356 1.50355 0
M  V30 5798 C 550.816 -1.5529 1.68576 0
M  V30 5799 C 551.816 -1.50863 0.556511 0
M  V30 5800 O 553.006 -1.53505 0.823516 0
M  V30 5801 C 550.138 -2.94921 1.70981 0
M  V30 5802 H 551.331 -1.40451 2.64978 0
M  V30 5803 H 548.884 -0.698645 1.39816 0
M  V30 5804 H 549.619 -3.15204 0.762675 0
M  V30 5805 H 549.404 -2.99541 2.53017 0
M  V30 5806 H 550.894 -3.73372 1.87037 0
M  V30 5807 N 551.331 -1.39911 -0.725443 0
M  V30 5808 C 552.578 -1.37654 -1.48518 0
M  V30 5809 C 552.906 0.0243982 -1.94485 0
M  V30 5810 O 552.161 1.00708 -1.67799 0
M  V30 5811 C 552.46 -2.30368 -2.7325 0
M  V30 5812 C 552.126 -3.77817 -2.461 0
M  V30 5813 C 550.788 -4.17991 -2.38405 0
M  V30 5814 C 553.14 -4.71036 -2.23103 0
M  V30 5815 C 550.468 -5.49433 -2.05768 0
M  V30 5816 C 552.82 -6.02766 -1.9198 0
M  V30 5817 C 551.484 -6.41993 -1.82761 0
M  V30 5818 H 550.754 -0.503713 -0.543465 0
M  V30 5819 H 553.401 -1.7249 -0.831822 0
M  V30 5820 H 551.706 -1.88683 -3.43375 0
M  V30 5821 H 553.403 -2.2591 -3.31309 0
M  V30 5822 H 549.993 -3.45982 -2.52972 0
M  V30 5823 H 554.177 -4.40823 -2.2801 0
M  V30 5824 H 549.433 -5.78738 -1.9716 0
M  V30 5825 H 553.607 -6.74519 -1.73197 0
M  V30 5826 H 551.234 -7.43761 -1.57237 0
M  V30 5827 N 552.809 0.956637 -1.25245 0
M  V30 5828 C 554.058 1.69537 -1.0927 0
M  V30 5829 C 554.371 1.92136 0.366503 0
M  V30 5830 O 555.577 2.63687 0.64665 0
M  V30 5831 C 554.033 3.05211 -1.9072 0
M  V30 5832 C 553.641 2.90416 -3.41119 0
M  V30 5833 C 555.385 3.82882 -1.83308 0
M  V30 5834 C 553.292 4.21468 -4.14872 0
M  V30 5835 H 552.222 0.635804 -0.405302 0
M  V30 5836 H 554.873 1.06513 -1.49423 0
M  V30 5837 H 553.255 3.69128 -1.43389 0
M  V30 5838 H 554.429 2.35444 -3.9611 0
M  V30 5839 H 552.744 2.26203 -3.49602 0
M  V30 5840 H 555.341 4.79944 -2.35706 0
M  V30 5841 H 555.684 4.0853 -0.800572 0
M  V30 5842 H 556.217 3.25711 -2.28379 0
M  V30 5843 H 552.956 4.01009 -5.18529 0
M  V30 5844 H 552.476 4.76213 -3.64665 0
M  V30 5845 H 554.155 4.90022 -4.22478 0
M  V30 5846 N 554.287 1.06798 1.15896 0
M  V30 5847 C 555.217 0.704677 2.22613 0
M  V30 5848 C 556.198 -0.305252 1.67339 0
M  V30 5849 O 557.383 -0.179247 1.93371 0
M  V30 5850 C 554.513 0.0957325 3.47168 0
M  V30 5851 C 553.467 1.0322 4.15367 0
M  V30 5852 C 552.793 0.286293 5.33933 0
M  V30 5853 C 554.093 2.36341 4.65768 0
M  V30 5854 H 555.787 1.59688 2.53259 0
M  V30 5855 H 553.333 0.769257 1.21731 0
M  V30 5856 H 555.286 -0.170333 4.21056 0
M  V30 5857 H 554.01 -0.831516 3.15838 0
M  V30 5858 H 552.669 1.28309 3.43413 0
M  V30 5859 H 552.317 -0.644237 4.98857 0
M  V30 5860 H 552.017 0.910436 5.80504 0
M  V30 5861 H 553.541 0.0278938 6.10594 0
M  V30 5862 H 554.955 2.1561 5.31211 0
M  V30 5863 H 553.352 2.94299 5.2298 0
M  V30 5864 H 554.422 2.99047 3.81705 0
M  V30 5865 N 555.766 -1.3263 0.851289 0
M  V30 5866 C 556.994 -2.01563 0.466899 0
M  V30 5867 C 557.409 -1.63996 -0.935447 0
M  V30 5868 O 556.766 -0.85957 -1.6099 0
M  V30 5869 C 556.817 -3.56613 0.592433 0
M  V30 5870 O 556.538 -3.92828 1.93954 0
M  V30 5871 C 558.039 -4.42818 0.206612 0
M  V30 5872 H 555.259 -0.645307 0.183902 0
M  V30 5873 H 557.803 -1.69285 1.1473 0
M  V30 5874 H 555.958 -3.87379 -0.0401936 0
M  V30 5875 H 556.372 -4.87545 1.9339 0
M  V30 5876 H 557.846 -5.50918 0.345462 0
M  V30 5877 H 558.323 -4.30844 -0.85264 0
M  V30 5878 H 558.929 -4.17434 0.814176 0
M  V30 5879 N 557.244 -0.608902 -1.45362 0
M  V30 5880 C 558.49 -0.113196 -2.03085 0
M  V30 5881 C 558.845 1.24288 -1.46868 0
M  V30 5882 O 558.138 1.80792 -0.634402 0
M  V30 5883 C 558.332 -0.0167296 -3.57396 0
M  V30 5884 C 558.161 -1.36191 -4.28581 0
M  V30 5885 C 556.931 -1.94295 -4.66452 0
M  V30 5886 C 559.129 -2.29097 -4.60455 0
M  V30 5887 N 557.111 -3.2228 -5.22503 0
M  V30 5888 C 558.482 -3.41681 -5.17353 0
M  V30 5889 C 560.537 -2.28453 -4.42395 0
M  V30 5890 C 559.24 -4.53789 -5.58093 0
M  V30 5891 C 561.266 -3.39608 -4.8417 0
M  V30 5892 C 560.628 -4.50915 -5.41161 0
M  V30 5893 H 556.727 -0.0848213 -0.777386 0
M  V30 5894 H 559.311 -0.807541 -1.77163 0
M  V30 5895 H 557.482 0.646839 -3.82976 0
M  V30 5896 H 559.214 0.485757 -4.01774 0
M  V30 5897 H 555.969 -1.47486 -4.5005 0
M  V30 5898 H 556.393 -3.87654 -5.55025 0
M  V30 5899 H 561.035 -1.43658 -3.97646 0
M  V30 5900 H 558.753 -5.39307 -6.01808 0
M  V30 5901 H 562.339 -3.40259 -4.71927 0
M  V30 5902 H 561.219 -5.35505 -5.72891 0
M  V30 5903 N 558.722 1.53707 -0.348139 0
M  V30 5904 C 559.95 2.05406 0.248224 0
M  V30 5905 C 560.365 1.22282 1.43849 0
M  V30 5906 O 559.722 0.259244 1.80649 0
M  V30 5907 C 559.773 3.55446 0.658793 0
M  V30 5908 O 559.494 4.35417 -0.484149 0
M  V30 5909 C 560.995 4.23335 1.31539 0
M  V30 5910 H 558.215 0.669344 0.0471075 0
M  V30 5911 H 560.759 1.98257 -0.501456 0
M  V30 5912 H 558.914 3.62803 1.35841 0
M  V30 5913 H 559.328 5.24268 -0.155949 0
M  V30 5914 H 560.802 5.29692 1.55338 0
M  V30 5915 H 561.279 3.75967 2.27036 0
M  V30 5916 H 561.885 4.20184 0.657683 0
M  V30 5917 N 560.2 0.0768682 1.57412 0
M  V30 5918 C 561.611 -0.455037 1.8107 0
M  V30 5919 C 561.962 -1.69323 0.991162 0
M  V30 5920 O 561.087 -2.15328 0.215156 0
M  V30 5921 C 561.682 -0.832316 3.28417 0
M  V30 5922 C 560.241 -1.30906 3.52903 0
M  V30 5923 C 559.388 -0.296714 2.75708 0
M  V30 5924 H 562.339 0.302514 1.5579 0
M  V30 5925 H 562.36 -1.69333 3.40744 0
M  V30 5926 H 561.872 0.0690532 3.88039 0
M  V30 5927 H 559.973 -2.22875 2.98592 0
M  V30 5928 H 560.086 -1.28348 4.61588 0
M  V30 5929 H 558.45 -0.775059 2.42621 0
M  V30 5930 H 559.233 0.597015 3.38069 0
M  V30 5931 N 561.678 -1.56367 -0.196722 0
M  V30 5932 C 562.908 -1.84371 -0.932254 0
M  V30 5933 C 563.316 -0.657013 -1.77426 0
M  V30 5934 O 562.659 0.383576 -1.79651 0
M  V30 5935 C 562.721 -3.06454 -1.87952 0
M  V30 5936 C 562.385 -4.40425 -1.21962 0
M  V30 5937 C 563.382 -5.16457 -0.597343 0
M  V30 5938 C 561.067 -4.8716 -1.22396 0
M  V30 5939 C 563.061 -6.37399 0.0117913 0
M  V30 5940 C 560.748 -6.08038 -0.610995 0
M  V30 5941 C 561.746 -6.83 0.00580487 0
M  V30 5942 O 561.434 -8.01589 0.609173 0
M  V30 5943 H 561.166 -0.616377 -0.277589 0
M  V30 5944 H 563.72 -2.04329 -0.209452 0
M  V30 5945 H 561.95 -2.82377 -2.64197 0
M  V30 5946 H 563.639 -3.21118 -2.48271 0
M  V30 5947 H 564.405 -4.81445 -0.586142 0
M  V30 5948 H 560.284 -4.2877 -1.69345 0
M  V30 5949 H 563.828 -6.9585 0.493836 0
M  V30 5950 H 559.725 -6.42519 -0.619693 0
M  V30 5951 H 560.493 -8.16935 0.505919 0
M  V30 5952 N 563.156 0.464375 -1.50603 0
M  V30 5953 C 564.104 1.58224 -1.70493 0
M  V30 5954 C 565.098 1.59492 -0.570836 0
M  V30 5955 O 566.304 1.63561 -0.751517 0
M  V30 5956 H 562.679 0.525161 -0.538247 0
M  V30 5957 H 564.65 1.38613 -2.64252 0
M  V30 5958 C 563.399 2.96113 -1.82243 0
M  V30 5959 H 562.722 2.95858 -2.68901 0
M  V30 5960 H 564.162 3.73769 -2.00182 0
M  V30 5961 C 562.621 3.31946 -0.575628 0
M  V30 5962 O 563.151 4.00708 0.282152 0
M  V30 5963 N 561.357 2.87436 -0.427665 0
M  V30 5964 H 560.904 2.31652 -1.12674 0
M  V30 5965 H 560.862 3.11776 0.405379 0
M  V30 5966 N 564.634 1.40294 0.718013 0
M  V30 5967 C 565.883 1.37746 1.4734 0
M  V30 5968 C 566.196 -0.0180754 1.95592 0
M  V30 5969 O 567.402 -0.166166 2.70991 0
M  V30 5970 C 565.858 2.4208 2.66318 0
M  V30 5971 C 565.466 3.87432 2.24945 0
M  V30 5972 C 567.21 2.48635 3.44065 0
M  V30 5973 C 565.117 4.83368 3.40748 0
M  V30 5974 H 564.047 0.512165 0.553356 0
M  V30 5975 H 566.698 1.66019 0.781661 0
M  V30 5976 H 565.08 2.06903 3.3765 0
M  V30 5977 H 566.254 4.3174 1.6105 0
M  V30 5978 H 564.569 3.8433 1.60249 0
M  V30 5979 H 567.166 3.17499 4.30231 0
M  V30 5980 H 567.509 1.51611 3.87711 0
M  V30 5981 H 568.042 2.82791 2.79775 0
M  V30 5982 H 564.781 5.81716 3.02136 0
M  V30 5983 H 564.301 4.43726 4.03568 0
M  V30 5984 H 565.98 5.03074 4.06848 0
M  V30 5985 N 566.112 -0.949982 1.2575 0
M  V30 5986 C 567.045 -2.047 1.00862 0
M  V30 5987 C 568.023 -1.62475 -0.0636982 0
M  V30 5988 O 569.207 -1.88343 0.0769153 0
M  V30 5989 C 566.334 -3.34597 0.525613 0
M  V30 5990 C 565.38 -3.95788 1.58916 0
M  V30 5991 S 566.213 -4.31175 3.17567 0
M  V30 5992 C 567.369 -5.64183 2.71013 0
M  V30 5993 H 567.602 -2.25497 1.93749 0
M  V30 5994 H 565.135 -1.09022 1.09332 0
M  V30 5995 H 567.093 -4.09716 0.25359 0
M  V30 5996 H 565.754 -3.11758 -0.382828 0
M  V30 5997 H 564.947 -4.89457 1.20201 0
M  V30 5998 H 564.549 -3.27168 1.81211 0
M  V30 5999 H 566.841 -6.42504 2.14928 0
M  V30 6000 H 567.784 -6.07774 3.6334 0
M  V30 6001 H 568.192 -5.2364 2.1086 0
M  V30 6002 N 567.59 -1.07411 -1.15328 0
M  V30 6003 C 568.836 -0.798831 -1.86404 0
M  V30 6004 C 569.169 0.673433 -1.8215 0
M  V30 6005 O 568.444 1.49428 -1.24505 0
M  V30 6006 C 568.727 -1.30846 -3.35487 0
M  V30 6007 C 568.58 -2.84532 -3.4837 0
M  V30 6008 C 569.899 -0.925486 -4.30259 0
M  V30 6009 H 567.018 -0.291659 -0.676834 0
M  V30 6010 H 569.66 -1.332 -1.35491 0
M  V30 6011 H 567.81 -0.854916 -3.78977 0
M  V30 6012 H 569.482 -3.3818 -3.13739 0
M  V30 6013 H 567.725 -3.22699 -2.8991 0
M  V30 6014 H 568.396 -3.15259 -4.53118 0
M  V30 6015 H 570.872 -1.3163 -3.94731 0
M  V30 6016 H 569.748 -1.3094 -5.33053 0
M  V30 6017 H 570.009 0.168525 -4.41779 0
M  V30 6018 N 569.068 1.32177 -0.85831 0
M  V30 6019 C 569.998 2.31282 -0.321041 0
M  V30 6020 C 570.979 1.59841 0.581786 0
M  V30 6021 O 572.164 1.87619 0.501262 0
M  V30 6022 C 569.294 3.4385 0.48832 0
M  V30 6023 C 568.248 4.26799 -0.320391 0
M  V30 6024 C 567.574 5.31164 0.613934 0
M  V30 6025 C 568.874 4.98829 -1.54813 0
M  V30 6026 H 570.568 2.76469 -1.14915 0
M  V30 6027 H 568.114 1.32916 -0.554028 0
M  V30 6028 H 570.067 4.12224 0.874626 0
M  V30 6029 H 568.791 2.97401 1.34983 0
M  V30 6030 H 567.45 3.60077 -0.688497 0
M  V30 6031 H 567.098 4.80967 1.47239 0
M  V30 6032 H 566.798 5.8755 0.0768097 0
M  V30 6033 H 568.322 6.024 0.997336 0
M  V30 6034 H 569.736 5.59864 -1.23392 0
M  V30 6035 H 568.133 5.64957 -2.02346 0
M  V30 6036 H 569.203 4.26483 -2.30739 0
M  V30 6037 N 570.547 0.616602 1.45037 0
M  V30 6038 C 571.793 0.115501 2.02471 0
M  V30 6039 C 572.126 -1.25406 1.4828 0
M  V30 6040 O 571.401 -1.82922 0.661051 0
M  V30 6041 C 571.684 0.0863588 3.59996 0
M  V30 6042 C 571.537 1.48723 4.24501 0
M  V30 6043 C 572.856 -0.596762 4.36035 0
M  V30 6044 H 569.975 0.0434461 0.735718 0
M  V30 6045 H 572.617 0.7903 1.72784 0
M  V30 6046 H 570.767 -0.488277 3.85419 0
M  V30 6047 H 572.439 2.10964 4.10234 0
M  V30 6048 H 570.682 2.04534 3.82555 0
M  V30 6049 H 571.353 1.419 5.3345 0
M  V30 6050 H 573.829 -0.10824 4.15959 0
M  V30 6051 H 572.705 -0.586289 5.4576 0
M  V30 6052 H 572.966 -1.66451 4.09569 0
M  V30 6053 N 572.025 -1.5352 0.356285 0
M  V30 6054 C 573.25 -2.06007 -0.239961 0
M  V30 6055 C 573.675 -1.22872 -1.42422 0
M  V30 6056 O 573.033 -0.245516 -1.7963 0
M  V30 6057 C 573.081 -3.5522 -0.620587 0
M  V30 6058 O 572.185 -3.74864 -1.71902 0
M  V30 6059 H 571.526 -0.662961 -0.0371377 0
M  V30 6060 H 574.056 -1.98033 0.514194 0
M  V30 6061 H 574.066 -3.98081 -0.894197 0
M  V30 6062 H 572.741 -4.15175 0.245407 0
M  V30 6063 H 571.318 -3.43904 -1.44169 0
M  V30 6064 N 573.503 -0.0852151 -1.57369 0
M  V30 6065 C 574.731 0.58946 -1.98325 0
M  V30 6066 C 575.146 1.62333 -0.96403 0
M  V30 6067 O 574.503 1.82438 0.0476395 0
M  V30 6068 C 574.554 1.24604 -3.39347 0
M  V30 6069 O 574.275 0.253532 -4.37366 0
M  V30 6070 C 575.776 2.00726 -3.95252 0
M  V30 6071 H 572.996 0.158783 -0.651942 0
M  V30 6072 H 575.54 -0.161584 -2.03861 0
M  V30 6073 H 573.695 1.94808 -3.34856 0
M  V30 6074 H 574.109 0.726207 -5.19448 0
M  V30 6075 H 575.583 2.42039 -4.96106 0
M  V30 6076 H 576.06 2.86919 -3.32527 0
M  V30 6077 H 576.666 1.3536 -4.03185 0
M  V30 6078 N 574.981 1.5647 0.188427 0
M  V30 6079 C 576.228 1.81013 0.907779 0
M  V30 6080 C 576.556 0.65953 1.82977 0
M  V30 6081 O 575.811 -0.354308 1.92466 0
M  V30 6082 C 576.11 3.11596 1.7505 0
M  V30 6083 C 575.776 4.40145 0.978922 0
M  V30 6084 C 574.438 4.75066 0.765912 0
M  V30 6085 C 576.79 5.19369 0.436498 0
M  V30 6086 C 574.118 5.867 -0.00089868 0
M  V30 6087 C 576.47 6.31805 -0.317136 0
M  V30 6088 C 575.134 6.65303 -0.541103 0
M  V30 6089 H 574.404 0.662373 0.33218 0
M  V30 6090 H 577.051 1.9071 0.173732 0
M  V30 6091 H 575.356 2.97165 2.55343 0
M  V30 6092 H 577.053 3.27793 2.30983 0
M  V30 6093 H 573.643 4.12745 1.15497 0
M  V30 6094 H 577.827 4.92799 0.588449 0
M  V30 6095 H 573.083 6.11122 -0.184329 0
M  V30 6096 H 577.257 6.92406 -0.744788 0
M  V30 6097 H 574.884 7.51646 -1.13718 0
M  V30 6098 N 576.459 -0.456382 1.50847 0
M  V30 6099 C 577.699 -1.21704 1.64218 0
M  V30 6100 C 578.063 -1.88932 0.341859 0
M  V30 6101 O 579.264 -2.66497 0.351137 0
M  V30 6102 C 577.535 -2.22162 2.79962 0
M  V30 6103 S 579.094 -3.0697 3.13552 0
M  V30 6104 H 575.912 -0.412995 0.578754 0
M  V30 6105 H 578.514 -0.511637 1.88686 0
M  V30 6106 H 577.218 -1.71379 3.72904 0
M  V30 6107 H 576.749 -2.9731 2.57624 0
M  V30 6108 H 578.764 -4.23539 2.58513 0
M  V30 6109 N 577.937 -1.40673 -0.710563 0
M  V30 6110 C 578.884 -1.41336 -1.82463 0
M  V30 6111 C 579.854 -0.269648 -1.63897 0
M  V30 6112 O 581.039 -0.468463 -1.8496 0
M  V30 6113 C 578.179 -1.28665 -3.20218 0
M  V30 6114 C 577.292 -2.52784 -3.5032 0
M  V30 6115 C 576.427 -2.32517 -4.77608 0
M  V30 6116 C 575.466 -3.52187 -5.0063 0
M  V30 6117 N 574.603 -3.31084 -6.19135 0
M  V30 6118 H 579.443 -2.36558 -1.8123 0
M  V30 6119 H 576.98 -1.17483 -0.885226 0
M  V30 6120 H 578.938 -1.19324 -3.99772 0
M  V30 6121 H 577.568 -0.370602 -3.20666 0
M  V30 6122 H 576.62 -2.72634 -2.65283 0
M  V30 6123 H 577.932 -3.41845 -3.63241 0
M  V30 6124 H 577.086 -2.20558 -5.65189 0
M  V30 6125 H 575.825 -1.40889 -4.66906 0
M  V30 6126 H 574.83 -3.64617 -4.11502 0
M  V30 6127 H 576.055 -4.44749 -5.13201 0
M  V30 6128 H 574.001 -2.42143 -6.09674 0
M  V30 6129 H 573.918 -4.13713 -6.32754 0
M  V30 6130 H 575.186 -3.22868 -7.0949 0
M  V30 6131 N 579.415 0.9433 -1.26252 0
M  V30 6132 C 580.692 1.66639 -1.02424 0
M  V30 6133 C 581.072 2.06335 0.446006 0
M  V30 6134 O 580.42 1.78551 1.42589 0
M  V30 6135 C 580.63 2.88019 -1.97094 0
M  V30 6136 C 581.978 3.59718 -2.25584 0
M  V30 6137 O 583.002 2.9812 -1.94943 0
M  V30 6138 O 581.861 4.7066 -2.77743 0
M  V30 6139 H 578.955 0.729643 -0.389294 0
M  V30 6140 H 581.501 0.995218 -1.37454 0
M  V30 6141 H 580.273 2.5556 -2.96319 0
M  V30 6142 H 579.896 3.62863 -1.62532 0
M  V30 6143 N 580.893 1.08022 1.14757 0
M  V30 6144 C 582.133 0.816959 1.87364 0
M  V30 6145 C 582.497 -0.645407 1.80827 0
M  V30 6146 O 583.698 -1.024 2.48531 0
M  V30 6147 C 581.969 1.31961 3.32146 0
M  V30 6148 S 583.528 1.18806 4.2241 0
M  V30 6149 H 580.346 0.295862 0.646519 0
M  V30 6150 H 582.948 1.3807 1.38408 0
M  V30 6151 H 581.652 2.37847 3.3445 0
M  V30 6152 H 581.183 0.751371 3.86158 0
M  V30 6153 H 583.198 0.129865 4.9603 0
M  V30 6154 N 582.371 -1.3172 0.865308 0
M  V30 6155 C 583.617 -1.97168 0.474633 0
M  V30 6156 C 583.95 -1.68263 -0.969604 0
M  V30 6157 O 583.225 -0.976588 -1.68205 0
M  V30 6158 C 583.508 -3.52689 0.726808 0
M  V30 6159 C 583.361 -3.91185 2.22024 0
M  V30 6160 C 584.68 -4.39689 0.190201 0
M  V30 6161 H 581.799 -0.716185 0.17392 0
M  V30 6162 H 584.441 -1.55925 1.08569 0
M  V30 6163 H 582.591 -3.8795 0.206705 0
M  V30 6164 H 584.263 -3.66049 2.80724 0
M  V30 6165 H 582.506 -3.3996 2.69462 0
M  V30 6166 H 583.177 -4.99604 2.34735 0
M  V30 6167 H 585.653 -4.11225 0.635103 0
M  V30 6168 H 584.529 -5.47469 0.396132 0
M  V30 6169 H 584.79 -4.32683 -0.907625 0
M  V30 6170 N 583.85 -0.624285 -1.44708 0
M  V30 6171 C 585.26 -0.2092 -1.85524 0
M  V30 6172 C 585.611 1.23783 -1.52225 0
M  V30 6173 O 584.736 1.94089 -0.956986 0
M  V30 6174 C 585.332 -0.372897 -3.36742 0
M  V30 6175 C 583.891 -0.012374 -3.76398 0
M  V30 6176 C 583.038 -0.68951 -2.68591 0
M  V30 6177 H 585.989 -0.829894 -1.35272 0
M  V30 6178 H 586.01 0.390134 -3.78495 0
M  V30 6179 H 585.522 -1.42615 -3.60947 0
M  V30 6180 H 583.623 1.03941 -3.57809 0
M  V30 6181 H 583.736 -0.417663 -4.77276 0
M  V30 6182 H 582.1 -0.125484 -2.54391 0
M  V30 6183 H 582.883 -1.74522 -2.9563 0
M  V30 6184 N 585.328 1.53329 -0.364422 0
M  V30 6185 C 586.238 2.29414 0.490552 0
M  V30 6186 C 587.254 1.35335 1.09363 0
M  V30 6187 O 588.43 1.68391 1.10483 0
M  V30 6188 C 585.495 3.06772 1.61529 0
M  V30 6189 C 584.556 4.16516 1.03986 0
M  V30 6190 C 583.789 4.90176 2.111 0
M  V30 6191 O 584.012 4.63687 3.32191 0
M  V30 6192 O 582.946 5.76134 1.74222 0
M  V30 6193 H 586.772 3.03428 -0.12856 0
M  V30 6194 H 584.357 1.48843 -0.128837 0
M  V30 6195 H 586.239 3.55082 2.26924 0
M  V30 6196 H 584.914 2.35596 2.21983 0
M  V30 6197 H 583.821 3.7246 0.349856 0
M  V30 6198 H 585.154 4.89855 0.4799 0
M  V30 6199 N 586.806 0.0935595 1.57322 0
M  V30 6200 C 588.034 -0.578934 1.98635 0
M  V30 6201 C 588.449 -1.61819 0.972626 0
M  V30 6202 O 587.806 -1.82461 -0.0379638 0
M  V30 6203 C 587.857 -1.22802 3.40003 0
M  V30 6204 O 587.578 -0.230334 4.37494 0
M  V30 6205 C 589.079 -1.98627 3.96311 0
M  V30 6206 H 586.299 -0.155324 0.652775 0
M  V30 6207 H 588.843 0.172393 2.03772 0
M  V30 6208 H 586.998 -1.93029 3.35885 0
M  V30 6209 H 587.412 -0.698649 5.19826 0
M  V30 6210 H 588.886 -2.39405 4.97382 0
M  V30 6211 H 589.363 -2.85151 3.34044 0
M  V30 6212 H 589.969 -1.3322 4.03897 0
M  V30 6213 N 588.284 -1.56567 -0.180126 0
M  V30 6214 C 589.214 -1.98753 -1.22553 0
M  V30 6215 C 590.195 -0.86175 -1.46656 0
M  V30 6216 O 591.38 -1.12719 -1.58139 0
M  V30 6217 C 588.51 -2.33988 -2.56645 0
M  V30 6218 C 587.464 -3.49445 -2.47128 0
M  V30 6219 C 586.79 -3.70397 -3.8563 0
M  V30 6220 C 588.09 -4.83171 -1.98352 0
M  V30 6221 H 589.784 -2.86332 -0.874896 0
M  V30 6222 H 587.33 -1.37757 -0.419414 0
M  V30 6223 H 589.283 -2.62097 -3.29974 0
M  V30 6224 H 588.007 -1.43309 -2.93479 0
M  V30 6225 H 586.666 -3.2145 -1.76254 0
M  V30 6226 H 586.314 -2.77023 -4.19842 0
M  V30 6227 H 586.014 -4.48077 -3.80132 0
M  V30 6228 H 587.538 -4.00897 -4.60558 0
M  V30 6229 H 588.952 -5.10213 -2.61449 0
M  V30 6230 H 587.349 -5.64425 -2.03823 0
M  V30 6231 H 588.419 -4.75753 -0.937402 0
M  V30 6232 N 589.762 0.448376 -1.51087 0
M  V30 6233 C 591.008 1.19748 -1.64414 0
M  V30 6234 C 591.363 1.89177 -0.350715 0
M  V30 6235 O 590.656 1.80135 0.652834 0
M  V30 6236 C 590.85 2.24866 -2.77795 0
M  V30 6237 C 590.679 1.65753 -4.18038 0
M  V30 6238 C 589.449 1.44728 -4.8413 0
M  V30 6239 C 591.647 1.13985 -5.0151 0
M  V30 6240 N 589.629 0.810962 -6.0852 0
M  V30 6241 C 591 0.628141 -6.1681 0
M  V30 6242 C 593.055 1.03055 -4.87118 0
M  V30 6243 C 591.758 0.0178906 -7.19298 0
M  V30 6244 C 593.784 0.434212 -5.89804 0
M  V30 6245 C 593.146 -0.0670069 -7.04368 0
M  V30 6246 H 589.245 0.426254 -0.655615 0
M  V30 6247 H 591.829 0.495806 -1.88281 0
M  V30 6248 H 590 2.92434 -2.55611 0
M  V30 6249 H 591.732 2.91857 -2.8036 0
M  V30 6250 H 588.487 1.70593 -4.41809 0
M  V30 6251 H 588.911 0.510563 -6.75072 0
M  V30 6252 H 593.553 1.40395 -3.9881 0
M  V30 6253 H 591.271 -0.367662 -8.07263 0
M  V30 6254 H 594.857 0.3517 -5.80736 0
M  V30 6255 H 593.737 -0.521209 -7.82466 0
M  V30 6256 N 591.24 1.41047 0.703093 0
M  V30 6257 C 592.15 1.44645 1.84703 0
M  V30 6258 C 593.166 0.337778 1.7069 0
M  V30 6259 O 594.342 0.584327 1.92737 0
M  V30 6260 C 591.407 1.31928 3.20618 0
M  V30 6261 C 590.468 2.53047 3.46794 0
M  V30 6262 C 589.701 2.40927 4.76224 0
M  V30 6263 O 589.924 1.42978 5.5219 0
M  V30 6264 O 588.858 3.30543 5.03016 0
M  V30 6265 H 592.684 2.41139 1.84624 0
M  V30 6266 H 590.269 1.22504 0.855167 0
M  V30 6267 H 592.151 1.27092 4.01778 0
M  V30 6268 H 590.826 0.385469 3.21397 0
M  V30 6269 H 589.733 2.6346 2.65593 0
M  V30 6270 H 591.066 3.45231 3.50822 0
M  V30 6271 N 592.718 -0.936591 1.26751 0
M  V30 6272 C 593.648 -2.05315 1.11212 0
M  V30 6273 C 594.629 -1.70092 0.0160262 0
M  V30 6274 O 595.814 -1.93279 0.188894 0
M  V30 6275 C 592.944 -3.39123 0.749171 0
M  V30 6276 C 591.898 -3.88425 1.79751 0
M  V30 6277 C 591.224 -5.18936 1.28876 0
M  V30 6278 C 592.524 -4.12798 3.19992 0
M  V30 6279 H 594.218 -2.18573 2.04613 0
M  V30 6280 H 591.764 -1.05027 0.985159 0
M  V30 6281 H 593.717 -4.16704 0.627323 0
M  V30 6282 H 592.441 -3.25855 -0.220543 0
M  V30 6283 H 591.1 -3.13028 1.90811 0
M  V30 6284 H 590.748 -5.02051 0.308757 0
M  V30 6285 H 590.448 -5.52892 1.98958 0
M  V30 6286 H 591.972 -5.99096 1.17967 0
M  V30 6287 H 593.386 -4.80977 3.11983 0
M  V30 6288 H 591.783 -4.58044 3.87705 0
M  V30 6289 H 592.853 -3.18412 3.65707 0
M  V30 6290 N 594.196 -1.08629 -1.14182 0
M  V30 6291 C 595.444 -0.815731 -1.84906 0
M  V30 6292 C 595.765 0.660441 -1.83475 0
M  V30 6293 O 595.035 1.47888 -1.28476 0
M  V30 6294 H 593.615 -0.298773 -0.684648 0
M  V30 6295 H 596.277 -1.37274 -1.38354 0
M  V30 6296 H 595.373 -1.16193 -2.89665 0
M  V30 6297 N 595.674 1.31259 -0.872281 0
M  V30 6298 C 596.904 2.00504 -0.498183 0
M  V30 6299 C 597.312 1.65632 0.914479 0
M  V30 6300 O 596.655 0.882849 1.61095 0
M  V30 6301 C 596.717 3.5482 -0.578194 0
M  V30 6302 C 596.381 4.13172 -1.95289 0
M  V30 6303 C 597.378 4.30107 -2.92069 0
M  V30 6304 C 595.063 4.48846 -2.25483 0
M  V30 6305 C 597.057 4.81908 -4.17185 0
M  V30 6306 C 594.744 5.00349 -3.50847 0
M  V30 6307 C 595.742 5.16831 -4.46514 0
M  V30 6308 O 595.43 5.67228 -5.69656 0
M  V30 6309 H 595.162 0.648055 -0.192354 0
M  V30 6310 H 597.716 1.6841 -1.17589 0
M  V30 6311 H 595.946 3.86383 0.156438 0
M  V30 6312 H 597.635 4.05318 -0.217192 0
M  V30 6313 H 598.401 4.02862 -2.7005 0
M  V30 6314 H 594.28 4.35292 -1.51795 0
M  V30 6315 H 597.824 4.94688 -4.91863 0
M  V30 6316 H 593.721 5.27028 -3.72708 0
M  V30 6317 H 594.489 5.85592 -5.7186 0
M  V30 6318 N 597.152 0.631951 1.44375 0
M  V30 6319 C 598.398 0.145491 2.02879 0
M  V30 6320 C 598.753 -1.21936 1.48827 0
M  V30 6321 O 598.046 -1.7976 0.663085 0
M  V30 6322 C 598.24 0.0735861 3.57324 0
M  V30 6323 C 598.069 1.42992 4.2636 0
M  V30 6324 C 596.839 2.01691 4.63302 0
M  V30 6325 C 599.037 2.36393 4.56752 0
M  V30 6326 N 597.019 3.30551 5.17309 0
M  V30 6327 C 598.39 3.49869 5.11851 0
M  V30 6328 C 600.445 2.35462 4.38705 0
M  V30 6329 C 599.148 4.6261 5.50803 0
M  V30 6330 C 601.174 3.47268 4.78706 0
M  V30 6331 C 600.536 4.59467 5.33919 0
M  V30 6332 H 596.635 0.0971781 0.775938 0
M  V30 6333 H 599.219 0.835624 1.75856 0
M  V30 6334 H 597.39 -0.585829 3.83957 0
M  V30 6335 H 599.122 -0.421777 4.02496 0
M  V30 6336 H 595.877 1.54627 4.47647 0
M  V30 6337 H 596.301 3.96435 5.48788 0
M  V30 6338 H 600.943 1.49966 3.9531 0
M  V30 6339 H 598.661 5.48813 5.93152 0
M  V30 6340 H 602.247 3.47724 4.66454 0
M  V30 6341 H 601.127 5.44551 5.64299 0
M  V30 6342 N 598.631 -1.53133 0.372548 0
M  V30 6343 C 599.561 -2.28876 -0.462412 0
M  V30 6344 C 600.542 -1.31583 -1.07796 0
M  V30 6345 O 601.727 -1.60461 -1.09389 0
M  V30 6346 C 598.857 -3.08317 -1.59868 0
M  V30 6347 C 597.811 -4.13355 -1.11003 0
M  V30 6348 C 597.137 -4.8092 -2.33708 0
M  V30 6349 C 598.437 -5.21955 -0.18983 0
M  V30 6350 H 600.131 -2.9892 0.169511 0
M  V30 6351 H 597.677 -1.43761 0.0829658 0
M  V30 6352 H 599.63 -3.60055 -2.18949 0
M  V30 6353 H 598.354 -2.35976 -2.25794 0
M  V30 6354 H 597.013 -3.62573 -0.541869 0
M  V30 6355 H 596.661 -4.05144 -2.98106 0
M  V30 6356 H 596.361 -5.51904 -2.01682 0
M  V30 6357 H 597.885 -5.35455 -2.93462 0
M  V30 6358 H 599.299 -5.69153 -0.688319 0
M  V30 6359 H 597.696 -6.00087 0.0398887 0
M  V30 6360 H 598.766 -4.78811 0.766057 0
M  V30 6361 N 600.109 -0.101901 -1.5727 0
M  V30 6362 C 601.349 0.563489 -1.96479 0
M  V30 6363 C 601.713 1.64926 -0.983021 0
M  V30 6364 O 602.914 2.37234 -1.26386 0
M  V30 6365 C 601.185 1.09809 -3.40113 0
M  V30 6366 S 602.744 1.7744 -4.01323 0
M  V30 6367 H 599.562 0.183675 -0.686866 0
M  V30 6368 H 602.164 -0.182922 -1.94642 0
M  V30 6369 H 600.868 0.296447 -4.09328 0
M  V30 6370 H 600.399 1.88018 -3.45562 0
M  V30 6371 H 602.414 3.0591 -3.90683 0
M  V30 6372 N 601.587 1.56661 0.17182 0
M  V30 6373 C 602.817 1.85831 0.902804 0
M  V30 6374 C 603.225 0.685157 1.76358 0
M  V30 6375 O 602.568 -0.354947 1.80238 0
M  V30 6376 C 602.63 3.09406 1.83053 0
M  V30 6377 C 602.294 4.4231 1.1494 0
M  V30 6378 C 603.291 5.17342 0.515104 0
M  V30 6379 C 600.976 4.89045 1.14631 0
M  V30 6380 C 602.97 6.37299 -0.113194 0
M  V30 6381 C 600.657 6.08933 0.514184 0
M  V30 6382 C 601.655 6.82904 -0.114463 0
M  V30 6383 O 601.343 8.00518 -0.736622 0
M  V30 6384 H 601.075 0.620715 0.267748 0
M  V30 6385 H 603.629 2.04637 0.176918 0
M  V30 6386 H 601.859 2.86544 2.59672 0
M  V30 6387 H 603.548 3.25027 2.4313 0
M  V30 6388 H 604.314 4.82317 0.509474 0
M  V30 6389 H 600.193 4.31409 1.62502 0
M  V30 6390 H 603.737 6.94976 -0.604477 0
M  V30 6391 H 599.634 6.43423 0.517395 0
M  V30 6392 H 600.402 8.16027 -0.635822 0
M  V30 6393 N 603.065 -0.440357 1.51323 0
M  V30 6394 C 604.311 -1.19181 1.64085 0
M  V30 6395 C 604.644 -1.90936 0.354575 0
M  V30 6396 O 603.919 -1.8347 -0.645675 0
M  V30 6397 C 604.202 -2.2112 2.84215 0
M  V30 6398 C 604.055 -1.53468 4.22809 0
M  V30 6399 C 605.374 -3.22133 2.99864 0
M  V30 6400 H 602.493 -0.431924 0.597169 0
M  V30 6401 H 605.135 -0.481443 1.83799 0
M  V30 6402 H 603.285 -2.81703 2.67537 0
M  V30 6403 H 604.957 -0.962455 4.51148 0
M  V30 6404 H 603.2 -0.837086 4.25647 0
M  V30 6405 H 603.871 -2.27694 5.02852 0
M  V30 6406 H 606.347 -2.71601 3.15233 0
M  V30 6407 H 605.223 -3.90756 3.85488 0
M  V30 6408 H 605.484 -3.88061 2.11804 0
M  V30 6409 N 604.543 -1.41418 -0.695603 0
M  V30 6410 C 605.491 -1.43467 -1.83084 0
M  V30 6411 C 606.485 -0.312719 -1.66489 0
M  V30 6412 O 607.691 -0.484744 -1.7335 0
M  V30 6413 H 604.066 -0.448891 -0.603325 0
M  V30 6414 H 606.037 -2.39144 -1.78473 0
M  V30 6415 C 604.786 -1.3337 -3.21104 0
M  V30 6416 H 604.109 -2.18989 -3.3449 0
M  V30 6417 H 605.549 -1.38865 -4.00615 0
M  V30 6418 C 604.008 -0.0460484 -3.36869 0
M  V30 6419 O 604.538 0.909258 -3.91274 0
M  V30 6420 N 602.744 0.0300222 -2.90584 0
M  V30 6421 H 602.291 -0.748129 -2.46497 0
M  V30 6422 H 602.249 0.890991 -3.01511 0
M  V30 6423 N 606.021 0.929856 -1.27246 0
M  V30 6424 C 607.246 1.71674 -1.16374 0
M  V30 6425 C 607.671 1.86064 0.276024 0
M  V30 6426 O 607.029 1.3591 1.19992 0
M  V30 6427 C 607.077 3.09526 -1.85003 0
M  V30 6428 O 606.181 3.96142 -1.14653 0
M  V30 6429 H 605.522 0.52629 -0.404863 0
M  V30 6430 H 608.052 1.16381 -1.68276 0
M  V30 6431 H 608.062 3.59852 -1.92276 0
M  V30 6432 H 606.737 2.98369 -2.89739 0
M  V30 6433 H 605.314 3.54584 -1.15433 0
M  V30 6434 N 607.499 1.09233 1.13605 0
M  V30 6435 C 608.727 0.848908 1.88683 0
M  V30 6436 C 609.142 -0.599667 1.79024 0
M  V30 6437 O 608.499 -1.41265 1.15544 0
M  V30 6438 C 608.55 1.27273 3.38355 0
M  V30 6439 O 608.271 2.66449 3.47759 0
M  V30 6440 C 609.772 1.0614 4.30406 0
M  V30 6441 H 606.992 0.305549 0.597395 0
M  V30 6442 H 609.536 1.4538 1.43823 0
M  V30 6443 H 607.691 0.711776 3.80805 0
M  V30 6444 H 608.105 2.84264 4.40788 0
M  V30 6445 H 609.579 1.40725 5.33761 0
M  V30 6446 H 610.056 -0.000960332 4.392 0
M  V30 6447 H 610.662 1.60821 3.93722 0
M  V30 6448 N 608.977 -1.30795 0.87923 0
M  V30 6449 C 610.226 -1.95636 0.490875 0
M  V30 6450 C 610.539 -1.70214 -0.963674 0
M  V30 6451 O 611.745 -2.28991 -1.45861 0
M  V30 6452 C 610.201 -3.50271 0.826929 0
M  V30 6453 C 609.809 -3.84521 2.29886 0
M  V30 6454 C 611.553 -4.21456 0.507494 0
M  V30 6455 C 609.46 -5.32309 2.57685 0
M  V30 6456 H 608.39 -0.732238 0.179841 0
M  V30 6457 H 611.041 -1.48829 1.07341 0
M  V30 6458 H 609.423 -3.9562 0.173542 0
M  V30 6459 H 610.597 -3.50102 2.99609 0
M  V30 6460 H 608.912 -3.26425 2.58526 0
M  V30 6461 H 611.509 -5.30199 0.692293 0
M  V30 6462 H 611.852 -4.12614 -0.552718 0
M  V30 6463 H 612.385 -3.81772 1.11782 0
M  V30 6464 H 609.124 -5.46195 3.62424 0
M  V30 6465 H 608.644 -5.68048 1.92566 0
M  V30 6466 H 610.323 -5.99678 2.42889 0
M  V30 6467 N 610.455 -0.639598 -1.44038 0
M  V30 6468 C 611.403 0.0723409 -2.32487 0
M  V30 6469 C 612.397 0.827129 -1.47834 0
M  V30 6470 O 613.603 0.73907 -1.64127 0
M  V30 6471 H 609.978 0.0421696 -0.750817 0
M  V30 6472 H 611.949 -0.691593 -2.90275 0
M  V30 6473 C 610.698 1.03452 -3.31953 0
M  V30 6474 H 610.021 0.46315 -3.97108 0
M  V30 6475 H 611.461 1.502 -3.96505 0
M  V30 6476 C 609.92 2.12392 -2.61518 0
M  V30 6477 O 610.45 3.2059 -2.42044 0
M  V30 6478 N 608.656 1.88563 -2.21116 0
M  V30 6479 H 608.203 1.00577 -2.37154 0
M  V30 6480 H 608.161 2.61651 -1.74316 0
M  V30 6481 N 611.933 1.52934 -0.380664 0
M  V30 6482 C 613.344 1.86457 0.0952684 0
M  V30 6483 C 613.695 1.3007 1.46889 0
M  V30 6484 O 612.82 0.628636 2.07068 0
M  V30 6485 C 613.415 3.38323 0.179648 0
M  V30 6486 C 611.974 3.71589 0.599858 0
M  V30 6487 C 611.121 2.76228 -0.243572 0
M  V30 6488 H 614.072 1.46966 -0.59888 0
M  V30 6489 H 614.093 3.67113 1.00042 0
M  V30 6490 H 613.605 3.79333 -0.820228 0
M  V30 6491 H 611.706 3.36144 1.60742 0
M  V30 6492 H 611.819 4.77715 0.364003 0
M  V30 6493 H 610.183 2.53045 0.289855 0
M  V30 6494 H 610.966 3.20074 -1.24127 0
M  V30 6495 N 613.412 0.11024 1.57214 0
M  V30 6496 C 614.345 -0.880224 2.1054 0
M  V30 6497 C 615.323 -1.26658 1.01964 0
M  V30 6498 O 616.507 -1.36917 1.29561 0
M  V30 6499 C 613.634 -2.17676 2.59489 0
M  V30 6500 C 612.68 -1.93914 3.79868 0
M  V30 6501 S 613.513 -1.16336 5.2271 0
M  V30 6502 C 614.669 -2.47188 5.75021 0
M  V30 6503 H 614.902 -0.426614 2.94223 0
M  V30 6504 H 612.435 -0.10336 1.54054 0
M  V30 6505 H 614.393 -2.92175 2.88347 0
M  V30 6506 H 613.054 -2.60156 1.76005 0
M  V30 6507 H 612.247 -2.8996 4.12236 0
M  V30 6508 H 611.849 -1.27539 3.51582 0
M  V30 6509 H 614.141 -3.43079 5.84211 0
M  V30 6510 H 615.084 -2.19377 6.7326 0
M  V30 6511 H 615.492 -2.56154 5.03036 0
M  V30 6512 N 614.89 -1.56749 -0.16351 0
M  V30 6513 C 616.13 -1.84234 -0.885271 0
M  V30 6514 C 616.494 -0.692259 -1.79086 0
M  V30 6515 O 617.695 -0.847747 -2.55082 0
M  V30 6516 C 615.966 -3.16857 -1.65337 0
M  V30 6517 S 617.525 -3.65848 -2.42282 0
M  V30 6518 H 614.343 -0.646293 -0.296354 0
M  V30 6519 H 616.945 -1.94951 -0.146365 0
M  V30 6520 H 615.649 -3.98546 -0.979266 0
M  V30 6521 H 615.18 -3.09102 -2.4335 0
M  V30 6522 H 617.195 -3.33796 -3.67143 0
M  V30 6523 N 616.368 0.432326 -1.51554 0
M  V30 6524 C 617.598 1.2019 -1.68042 0
M  V30 6525 C 618.006 1.85356 -0.379434 0
M  V30 6526 O 617.349 1.71724 0.652427 0
M  V30 6527 C 617.411 2.32387 -2.74292 0
M  V30 6528 C 617.075 1.87548 -4.16743 0
M  V30 6529 C 618.072 1.37611 -5.01357 0
M  V30 6530 C 615.757 1.95087 -4.62868 0
M  V30 6531 C 617.751 0.958069 -6.30159 0
M  V30 6532 C 615.438 1.52894 -5.91664 0
M  V30 6533 C 616.436 1.03336 -6.75137 0
M  V30 6534 O 616.124 0.617435 -8.01525 0
M  V30 6535 H 615.856 0.368132 -0.56697 0
M  V30 6536 H 618.41 0.517875 -1.98764 0
M  V30 6537 H 616.64 3.04082 -2.38895 0
M  V30 6538 H 618.329 2.94235 -2.79608 0
M  V30 6539 H 619.095 1.31178 -4.66923 0
M  V30 6540 H 614.974 2.32606 -3.98015 0
M  V30 6541 H 618.518 0.570562 -6.95263 0
M  V30 6542 H 614.415 1.58999 -6.25611 0
M  V30 6543 H 615.183 0.742835 -8.15122 0
M  V30 6544 N 617.846 1.41785 0.688094 0
M  V30 6545 C 618.809 1.43936 1.78368 0
M  V30 6546 C 619.809 0.328866 1.57401 0
M  V30 6547 O 620.999 0.589093 1.63937 0
M  V30 6548 C 618.131 1.25804 3.16838 0
M  V30 6549 H 619.324 2.41472 1.77852 0
M  V30 6550 H 616.877 1.28037 0.896448 0
M  V30 6551 H 617.612 0.291386 3.22988 0
M  V30 6552 H 617.397 2.06272 3.33458 0
M  V30 6553 H 618.887 1.30162 3.96797 0
M  V30 6554 N 619.324 -0.923095 1.27737 0
M  V30 6555 C 620.254 -2.04124 1.13383 0
M  V30 6556 C 621.235 -1.70066 0.0340658 0
M  V30 6557 O 622.42 -1.93068 0.209383 0
M  V30 6558 C 619.55 -3.3831 0.785097 0
M  V30 6559 C 618.504 -3.86496 1.8386 0
M  V30 6560 C 617.83 -5.1754 1.34373 0
M  V30 6561 C 619.13 -4.09381 3.24353 0
M  V30 6562 H 620.824 -2.1639 2.06919 0
M  V30 6563 H 618.37 -1.03976 0.996243 0
M  V30 6564 H 620.323 -4.16016 0.671485 0
M  V30 6565 H 619.047 -3.2607 -0.185969 0
M  V30 6566 H 617.706 -3.10987 1.9412 0
M  V30 6567 H 617.354 -5.01696 0.361989 0
M  V30 6568 H 617.054 -5.50751 2.04811 0
M  V30 6569 H 618.578 -5.97811 1.24315 0
M  V30 6570 H 619.992 -4.77641 3.17067 0
M  V30 6571 H 618.389 -4.53906 3.92542 0
M  V30 6572 H 619.459 -3.14515 3.69064 0
M  V30 6573 N 620.802 -1.09834 -1.13024 0
M  V30 6574 C 622.042 -0.846664 -1.8604 0
M  V30 6575 C 622.406 0.616557 -1.81831 0
M  V30 6576 O 623.607 0.984329 -2.50129 0
M  V30 6577 C 621.878 -1.37228 -3.30005 0
M  V30 6578 S 623.437 -1.25511 -4.20467 0
M  V30 6579 H 620.255 -0.30611 -0.64173 0
M  V30 6580 H 622.857 -1.40255 -1.36194 0
M  V30 6581 H 621.561 -2.43138 -3.30624 0
M  V30 6582 H 621.092 -0.81271 -3.84914 0
M  V30 6583 H 623.107 -0.208762 -4.95761 0
M  V30 6584 N 622.28 1.30327 -0.886154 0
M  V30 6585 C 623.228 2.30052 -0.343317 0
M  V30 6586 C 624.222 1.60212 0.550305 0
M  V30 6587 O 625.428 1.74674 0.434609 0
M  V30 6588 H 621.803 0.746306 -0.0923681 0
M  V30 6589 H 623.774 2.73294 -1.19804 0
M  V30 6590 C 622.523 3.45079 0.426107 0
M  V30 6591 H 621.846 3.99003 -0.25227 0
M  V30 6592 H 623.286 4.16931 0.771009 0
M  V30 6593 C 621.745 2.95195 1.62363 0
M  V30 6594 O 622.275 2.95323 2.723 0
M  V30 6595 N 620.481 2.51192 1.4612 0
M  V30 6596 H 620.028 2.51286 0.566832 0
M  V30 6597 H 619.986 2.18173 2.2638 0
M  V30 6598 N 623.758 0.647228 1.43697 0
M  V30 6599 C 624.705 -0.0480092 2.3075 0
M  V30 6600 C 625.675 -0.820705 1.44408 0
M  V30 6601 O 626.86 -0.798515 1.73287 0
M  V30 6602 C 624 -1.01259 3.2991 0
M  V30 6603 C 623.113 -0.236629 4.31351 0
M  V30 6604 C 622.248 -1.19447 5.17596 0
M  V30 6605 C 621.287 -0.408595 6.10735 0
M  V30 6606 N 620.424 -1.31772 6.89623 0
M  V30 6607 H 625.264 0.700238 2.89656 0
M  V30 6608 H 622.801 0.357082 1.427 0
M  V30 6609 H 624.759 -1.58538 3.85903 0
M  V30 6610 H 623.389 -1.72778 2.72667 0
M  V30 6611 H 622.441 0.452353 3.77701 0
M  V30 6612 H 623.753 0.374731 4.9739 0
M  V30 6613 H 622.907 -1.83809 5.78186 0
M  V30 6614 H 621.646 -1.83975 4.51669 0
M  V30 6615 H 620.651 0.24841 5.49239 0
M  V30 6616 H 621.876 0.232188 6.78703 0
M  V30 6617 H 619.822 -1.94991 6.2635 0
M  V30 6618 H 619.739 -0.760779 7.52162 0
M  V30 6619 H 621.007 -1.94967 7.54724 0
M  V30 6620 N 625.236 -1.5273 0.388769 0
M  V30 6621 C 626.199 -2.25043 -0.434544 0
M  V30 6622 C 627.199 -1.26661 -0.990644 0
M  V30 6623 O 628.389 -1.50762 -0.872731 0
M  V30 6624 C 625.521 -3.00507 -1.60961 0
M  V30 6625 H 626.714 -2.99242 0.198549 0
M  V30 6626 H 624.267 -1.55664 0.140875 0
M  V30 6627 H 625.002 -2.30607 -2.28015 0
M  V30 6628 H 624.787 -3.72716 -1.21757 0
M  V30 6629 H 626.277 -3.55413 -2.19251 0
M  V30 6630 N 626.714 -0.118576 -1.57153 0
M  V30 6631 C 627.961 0.539526 -1.9518 0
M  V30 6632 C 628.289 1.66714 -1.00184 0
M  V30 6633 O 627.544 1.95683 -0.0256482 0
M  V30 6634 C 627.843 1.11303 -3.39627 0
M  V30 6635 C 627.509 0.106809 -4.50773 0
M  V30 6636 C 626.171 -0.169876 -4.809 0
M  V30 6637 C 628.523 -0.57895 -5.17975 0
M  V30 6638 C 625.851 -1.13861 -5.75545 0
M  V30 6639 C 628.203 -1.53631 -6.13661 0
M  V30 6640 C 626.867 -1.82099 -6.42181 0
M  V30 6641 H 626.137 0.197427 -0.714215 0
M  V30 6642 H 628.784 -0.199391 -1.90459 0
M  V30 6643 H 627.089 1.92869 -3.4104 0
M  V30 6644 H 628.786 1.63032 -3.66363 0
M  V30 6645 H 625.376 0.332645 -4.27307 0
M  V30 6646 H 629.56 -0.378359 -4.94856 0
M  V30 6647 H 624.816 -1.36592 -5.95947 0
M  V30 6648 H 628.99 -2.07337 -6.64819 0
M  V30 6649 H 626.617 -2.57319 -7.15326 0
M  V30 6650 N 628.193 1.56834 0.155195 0
M  V30 6651 C 629.609 1.51315 0.50755 0
M  V30 6652 C 629.809 0.825614 1.83809 0
M  V30 6653 O 628.865 0.39271 2.49427 0
M  V30 6654 C 630.178 2.96074 0.52542 0
M  V30 6655 C 631.726 3.06968 0.611505 0
M  V30 6656 C 632.201 4.53218 0.660115 0
M  V30 6657 N 633.692 4.5753 0.722564 0
M  V30 6658 C 634.427 5.68056 0.781023 0
M  V30 6659 N 633.923 6.88173 0.799327 0
M  V30 6660 N 635.716 5.56068 0.821278 0
M  V30 6661 H 627.867 1.9993 -0.717063 0
M  V30 6662 H 630.13 0.911507 -0.260496 0
M  V30 6663 H 629.836 3.49599 -0.383875 0
M  V30 6664 H 629.71 3.51587 1.36624 0
M  V30 6665 H 632.097 2.53468 1.51122 0
M  V30 6666 H 632.178 2.54513 -0.256306 0
M  V30 6667 H 631.822 5.07354 -0.23541 0
M  V30 6668 H 631.752 5.03447 1.5443 0
M  V30 6669 H 634.243 3.71054 0.716049 0
M  V30 6670 H 634.556 7.6816 0.845553 0
M  V30 6671 H 632.901 6.90751 0.767337 0
M  V30 6672 H 636.092 4.61142 0.804091 0
M  V30 6673 H 636.265 6.42223 0.863372 0
M  V30 6674 N 629.671 -0.424282 1.51781 0
M  V30 6675 C 630.948 -1.18464 1.55646 0
M  V30 6676 C 631.328 -2.08529 0.328438 0
M  V30 6677 O 630.676 -2.17969 -0.685693 0
M  V30 6678 C 630.886 -1.97514 2.87731 0
M  V30 6679 C 632.234 -2.54106 3.40169 0
M  V30 6680 O 633.258 -2.07711 2.89369 0
M  V30 6681 O 632.117 -3.38759 4.28841 0
M  V30 6682 H 629.211 -0.540055 0.626314 0
M  V30 6683 H 631.757 -0.432291 1.64102 0
M  V30 6684 H 630.529 -1.31444 3.68562 0
M  V30 6685 H 630.152 -2.79787 2.82498 0
M  V30 6686 N 631.149 -1.42148 -0.680565 0
M  V30 6687 C 632.377 -1.45696 -1.46902 0
M  V30 6688 C 632.792 -0.0665858 -1.88683 0
M  V30 6689 O 632.149 0.917436 -1.57764 0
M  V30 6690 C 632.2 -2.37898 -2.72188 0
M  V30 6691 O 631.921 -3.71526 -2.32163 0
M  V30 6692 C 633.422 -2.50407 -3.65802 0
M  V30 6693 H 630.642 -0.495729 -0.45221 0
M  V30 6694 H 633.186 -1.866 -0.836709 0
M  V30 6695 H 631.341 -2.00263 -3.31622 0
M  V30 6696 H 631.755 -4.20849 -3.13027 0
M  V30 6697 H 633.229 -3.19056 -4.50452 0
M  V30 6698 H 633.706 -1.5401 -4.11312 0
M  V30 6699 H 634.312 -2.8874 -3.12265 0
M  V30 6700 N 632.627 0.916307 -1.28225 0
M  V30 6701 C 633.874 1.66518 -1.1523 0
M  V30 6702 C 634.202 1.92178 0.299632 0
M  V30 6703 O 633.457 1.51842 1.2346 0
M  V30 6704 C 633.756 3.03125 -1.8934 0
M  V30 6705 C 633.422 2.97135 -3.39148 0
M  V30 6706 C 632.084 2.95208 -3.80007 0
M  V30 6707 C 634.436 2.87574 -4.34685 0
M  V30 6708 C 631.764 2.81518 -5.14747 0
M  V30 6709 C 634.116 2.75424 -5.69495 0
M  V30 6710 C 632.78 2.71854 -6.09632 0
M  V30 6711 H 632.05 0.609334 -0.421655 0
M  V30 6712 H 634.697 1.06776 -1.58969 0
M  V30 6713 H 633.002 3.66639 -1.38143 0
M  V30 6714 H 634.699 3.59968 -1.76704 0
M  V30 6715 H 631.289 2.99428 -3.06661 0
M  V30 6716 H 635.473 2.88152 -4.04082 0
M  V30 6717 H 630.729 2.77148 -5.44976 0
M  V30 6718 H 634.903 2.66993 -6.43185 0
M  V30 6719 H 632.53 2.61003 -7.1399 0
M  V30 6720 N 634.105 1.10431 1.1244 0
M  V30 6721 C 635.521 0.836096 1.35947 0
M  V30 6722 C 635.721 -0.544475 1.94004 0
M  V30 6723 O 634.777 -1.29735 2.16622 0
M  V30 6724 C 636.09 1.93575 2.30107 0
M  V30 6725 C 637.638 1.9642 2.43697 0
M  V30 6726 C 638.113 3.05559 3.41171 0
M  V30 6727 N 639.604 3.04865 3.48728 0
M  V30 6728 C 640.339 3.85954 4.24061 0
M  V30 6729 N 639.835 4.76977 5.02458 0
M  V30 6730 N 641.628 3.74172 4.19466 0
M  V30 6731 H 633.779 1.9942 0.731124 0
M  V30 6732 H 636.042 0.866607 0.384312 0
M  V30 6733 H 635.748 2.92943 1.94621 0
M  V30 6734 H 635.622 1.8229 3.30227 0
M  V30 6735 H 638.009 0.97685 2.78463 0
M  V30 6736 H 638.09 2.11782 1.43465 0
M  V30 6737 H 637.734 4.04513 3.07135 0
M  V30 6738 H 637.664 2.87438 4.41234 0
M  V30 6739 H 640.155 2.38908 2.92799 0
M  V30 6740 H 640.468 5.35409 5.57277 0
M  V30 6741 H 638.813 4.81006 5.01655 0
M  V30 6742 H 642.004 3.02412 3.57302 0
M  V30 6743 H 642.177 4.37602 4.77921 0
M  V30 6744 N 635.583 -1.29855 0.893053 0
M  V30 6745 C 636.513 -2.3035 0.382249 0
M  V30 6746 C 637.494 -1.61328 -0.539203 0
M  V30 6747 O 638.679 -1.88882 -0.451342 0
M  V30 6748 C 635.809 -3.45024 -0.396983 0
M  V30 6749 C 634.763 -4.258 0.433437 0
M  V30 6750 C 634.089 -5.32605 -0.472889 0
M  V30 6751 C 635.389 -4.94549 1.67984 0
M  V30 6752 H 637.083 -2.73325 1.22205 0
M  V30 6753 H 634.629 -1.314 0.589073 0
M  V30 6754 H 636.582 -4.14398 -0.765024 0
M  V30 6755 H 635.306 -3.00875 -1.2705 0
M  V30 6756 H 633.965 -3.58125 0.783723 0
M  V30 6757 H 633.613 -4.84702 -1.34435 0
M  V30 6758 H 633.313 -5.87547 0.0789958 0
M  V30 6759 H 634.837 -6.04832 -0.837269 0
M  V30 6760 H 636.251 -5.56395 1.38192 0
M  V30 6761 H 634.648 -5.59393 2.17254 0
M  V30 6762 H 635.718 -4.20215 2.41965 0
M  V30 6763 N 637.061 -0.65484 -1.43351 0
M  V30 6764 C 637.991 0.0221809 -2.33489 0
M  V30 6765 C 638.972 0.810272 -1.49561 0
M  V30 6766 O 640.157 0.771426 -1.78221 0
M  V30 6767 C 637.287 0.988117 -3.32947 0
M  V30 6768 C 636.241 0.310026 -4.26876 0
M  V30 6769 C 635.567 1.38752 -5.16384 0
M  V30 6770 C 636.867 -0.798589 -5.16159 0
M  V30 6771 H 638.561 -0.730571 -2.9035 0
M  V30 6772 H 636.107 -0.352773 -1.39612 0
M  V30 6773 H 638.06 1.47067 -3.94904 0
M  V30 6774 H 636.784 1.77205 -2.74346 0
M  V30 6775 H 635.443 -0.152097 -3.66284 0
M  V30 6776 H 635.091 2.16293 -4.54121 0
M  V30 6777 H 634.791 0.939051 -5.80048 0
M  V30 6778 H 636.315 1.87141 -5.81215 0
M  V30 6779 H 637.729 -0.398126 -5.71916 0
M  V30 6780 H 636.126 -1.17163 -5.88552 0
M  V30 6781 H 637.196 -1.65588 -4.55751 0
M  V30 6782 N 638.539 1.52521 -0.396863 0
M  V30 6783 C 639.469 2.29582 0.425941 0
M  V30 6784 C 640.45 1.33281 1.05689 0
M  V30 6785 O 641.635 1.62181 1.06823 0
M  V30 6786 C 638.765 3.10821 1.54943 0
M  V30 6787 C 637.719 4.15069 1.04413 0
M  V30 6788 C 637.045 4.84578 2.26028 0
M  V30 6789 C 638.345 5.22191 0.106767 0
M  V30 6790 H 640.039 2.98612 -0.217045 0
M  V30 6791 H 637.585 1.43611 -0.105826 0
M  V30 6792 H 639.538 3.63492 2.13193 0
M  V30 6793 H 638.262 2.39538 2.22011 0
M  V30 6794 H 636.921 3.63389 0.484118 0
M  V30 6795 H 636.569 4.09835 2.91623 0
M  V30 6796 H 636.269 5.55043 1.92876 0
M  V30 6797 H 637.793 5.40056 2.84906 0
M  V30 6798 H 639.207 5.70176 0.597685 0
M  V30 6799 H 637.604 5.99947 -0.135352 0
M  V30 6800 H 638.674 4.77531 -0.842134 0
M  V30 6801 N 640.017 0.126909 1.57088 0
M  V30 6802 C 640.947 -0.816847 2.18746 0
M  V30 6803 C 641.928 -1.27161 1.12979 0
M  V30 6804 O 643.113 -1.33279 1.41246 0
M  V30 6805 C 640.243 -2.06398 2.79315 0
M  V30 6806 C 639.197 -1.74673 3.90735 0
M  V30 6807 C 638.523 -3.06482 4.38147 0
M  V30 6808 C 639.823 -1.0089 5.12463 0
M  V30 6809 H 641.517 -0.303032 2.97863 0
M  V30 6810 H 639.063 -0.144314 1.43275 0
M  V30 6811 H 641.016 -2.72885 3.2111 0
M  V30 6812 H 639.74 -2.60118 1.975 0
M  V30 6813 H 638.399 -1.10572 3.49527 0
M  V30 6814 H 638.047 -3.58152 3.5318 0
M  V30 6815 H 637.747 -2.86025 5.13287 0
M  V30 6816 H 639.271 -3.74073 4.82599 0
M  V30 6817 H 640.685 -1.57546 5.51228 0
M  V30 6818 H 639.082 -0.905006 5.93237 0
M  V30 6819 H 640.152 0.00297335 4.849 0
M  V30 6820 N 641.495 -1.56914 -0.146875 0
M  V30 6821 C 642.735 -1.85163 -0.86568 0
M  V30 6822 C 643.099 -0.711215 -1.78342 0
M  V30 6823 O 644.3 -0.874754 -2.54168 0
M  V30 6824 C 642.571 -3.18593 -1.61967 0
M  V30 6825 S 644.13 -3.68397 -2.38388 0
M  V30 6826 H 640.948 -0.6494 -0.289483 0
M  V30 6827 H 643.55 -1.95096 -0.125679 0
M  V30 6828 H 642.254 -3.99562 -0.93694 0
M  V30 6829 H 641.785 -3.11666 -2.40058 0
M  V30 6830 H 643.8 -3.37672 -3.63582 0
M  V30 6831 N 642.974 0.416227 -1.52004 0
M  V30 6832 C 644.39 0.754319 -1.40649 0
M  V30 6833 C 644.59 1.95059 -0.505392 0
M  V30 6834 O 643.646 2.5248 0.0315057 0
M  V30 6835 C 644.959 1.0149 -2.83055 0
M  V30 6836 C 646.507 1.11805 -2.9235 0
M  V30 6837 C 646.982 1.41144 -4.35709 0
M  V30 6838 N 648.473 1.48024 -4.38911 0
M  V30 6839 C 649.208 1.72338 -5.46889 0
M  V30 6840 N 648.704 1.94303 -6.64995 0
M  V30 6841 N 650.497 1.74294 -5.34395 0
M  V30 6842 H 642.648 -0.371324 -2.09129 0
M  V30 6843 H 644.911 -0.103811 -0.942299 0
M  V30 6844 H 644.617 0.208345 -3.51082 0
M  V30 6845 H 644.491 1.93697 -3.23668 0
M  V30 6846 H 646.878 1.91521 -2.24508 0
M  V30 6847 H 646.959 0.17451 -2.55204 0
M  V30 6848 H 646.603 0.619484 -5.04108 0
M  V30 6849 H 646.533 2.36739 -4.70385 0
M  V30 6850 H 649.024 1.32868 -3.53772 0
M  V30 6851 H 649.337 2.12286 -7.43071 0
M  V30 6852 H 647.682 1.91582 -6.68073 0
M  V30 6853 H 650.873 1.56667 -4.41104 0
M  V30 6854 H 651.046 1.92904 -6.18621 0
M  V30 6855 N 644.452 1.42507 0.673017 0
M  V30 6856 C 645.698 1.44282 1.43367 0
M  V30 6857 C 646.053 0.0588239 1.9231 0
M  V30 6858 O 645.346 -0.919288 1.68106 0
M  V30 6859 C 645.54 2.40351 2.64511 0
M  V30 6860 C 645.369 3.87955 2.27423 0
M  V30 6861 C 644.139 4.56476 2.16697 0
M  V30 6862 C 646.337 4.7833 1.88957 0
M  V30 6863 N 644.319 5.89099 1.72731 0
M  V30 6864 C 645.69 6.00073 1.55923 0
M  V30 6865 C 647.745 4.65769 1.75965 0
M  V30 6866 C 646.448 7.10652 1.112 0
M  V30 6867 C 648.474 5.76332 1.32647 0
M  V30 6868 C 647.836 6.97188 1.00538 0
M  V30 6869 H 643.935 0.583134 0.521036 0
M  V30 6870 H 646.519 1.78547 0.776481 0
M  V30 6871 H 644.69 2.08145 3.27918 0
M  V30 6872 H 646.422 2.32694 3.31113 0
M  V30 6873 H 643.177 4.10712 2.35823 0
M  V30 6874 H 643.601 6.59446 1.53166 0
M  V30 6875 H 648.243 3.72808 1.99435 0
M  V30 6876 H 645.961 8.0346 0.864768 0
M  V30 6877 H 649.547 5.68625 1.23112 0
M  V30 6878 H 648.427 7.81287 0.675283 0
M  V30 6879 N 645.93 -0.909495 1.28709 0
M  V30 6880 C 647.207 -1.63865 1.06806 0
M  V30 6881 C 647.587 -2.07445 -0.391143 0
M  V30 6882 O 646.935 -1.82269 -1.37805 0
M  V30 6883 C 647.145 -2.82692 2.04661 0
M  V30 6884 C 648.493 -3.5361 2.35042 0
M  V30 6885 O 649.517 -2.92847 2.02779 0
M  V30 6886 O 648.376 -4.63131 2.90124 0
M  V30 6887 H 645.47 -0.719065 0.408502 0
M  V30 6888 H 648.016 -0.958424 1.40044 0
M  V30 6889 H 646.788 -2.47614 3.0299 0
M  V30 6890 H 646.411 -3.58426 1.72095 0
M  V30 6891 N 647.408 -1.11026 -1.11852 0
M  V30 6892 C 648.355 -0.764662 -2.17765 0
M  V30 6893 C 649.325 0.261854 -1.64023 0
M  V30 6894 O 650.51 0.139748 -1.90288 0
M  V30 6895 C 647.65 -0.209317 -3.44465 0
M  V30 6896 C 646.763 -1.29187 -4.12231 0
M  V30 6897 C 645.898 -0.697523 -5.266 0
M  V30 6898 C 644.937 -1.76023 -5.86244 0
M  V30 6899 N 644.074 -1.18569 -6.92016 0
M  V30 6900 H 648.914 -1.67202 -2.46673 0
M  V30 6901 H 646.451 -0.835065 -1.21099 0
M  V30 6902 H 648.409 0.130599 -4.16996 0
M  V30 6903 H 647.039 0.661251 -3.15955 0
M  V30 6904 H 646.091 -1.74881 -3.37818 0
M  V30 6905 H 647.403 -2.09607 -4.52622 0
M  V30 6906 H 646.557 -0.307412 -6.05921 0
M  V30 6907 H 645.296 0.138044 -4.87505 0
M  V30 6908 H 644.301 -2.1597 -5.05606 0
M  V30 6909 H 645.526 -2.59875 -6.27409 0
M  V30 6910 H 643.472 -0.371695 -6.54946 0
M  V30 6911 H 643.389 -1.92666 -7.31038 0
M  V30 6912 H 644.657 -0.82233 -7.7515 0
M  V30 6913 N 648.886 1.2938 -0.899927 0
M  V30 6914 C 650.302 1.48052 -0.596059 0
M  V30 6915 C 650.502 1.82114 0.862372 0
M  V30 6916 O 649.558 1.91774 1.64253 0
M  V30 6917 C 650.871 2.59332 -1.52208 0
M  V30 6918 C 652.419 2.73208 -1.5273 0
M  V30 6919 C 652.894 3.87617 -2.43961 0
M  V30 6920 N 654.385 3.9495 -2.42009 0
M  V30 6921 C 655.12 4.82824 -3.09303 0
M  V30 6922 N 654.616 5.75387 -3.85877 0
M  V30 6923 N 656.409 4.76317 -2.98459 0
M  V30 6924 H 648.56 1.05546 -1.8432 0
M  V30 6925 H 650.823 0.524314 -0.78981 0
M  V30 6926 H 650.529 2.41029 -2.56121 0
M  V30 6927 H 650.403 3.56139 -1.24278 0
M  V30 6928 H 652.79 2.90908 -0.495614 0
M  V30 6929 H 652.871 1.76975 -1.84698 0
M  V30 6930 H 652.515 3.70672 -3.47224 0
M  V30 6931 H 652.445 4.83218 -2.09303 0
M  V30 6932 H 654.936 3.28744 -1.86375 0
M  V30 6933 H 655.249 6.39235 -4.34279 0
M  V30 6934 H 653.594 5.75272 -3.89984 0
M  V30 6935 H 656.785 4.0299 -2.38152 0
M  V30 6936 H 656.958 5.44589 -3.51179 0
M  V30 6937 N 650.364 0.662433 1.43002 0
M  V30 6938 C 651.78 0.330835 1.56133 0
M  V30 6939 C 651.98 -1.16454 1.64441 0
M  V30 6940 O 651.036 -1.94964 1.60453 0
M  V30 6941 C 652.349 1.05029 2.81761 0
M  V30 6942 C 653.897 1.03142 2.95518 0
M  V30 6943 C 654.372 1.73196 4.2399 0
M  V30 6944 N 655.863 1.70004 4.30875 0
M  V30 6945 C 656.598 2.21074 5.29069 0
M  V30 6946 N 656.094 2.80473 6.33488 0
M  V30 6947 N 657.887 2.1152 5.20784 0
M  V30 6948 H 650.038 1.63272 1.35853 0
M  V30 6949 H 652.301 0.687149 0.653092 0
M  V30 6950 H 652.007 2.10542 2.81718 0
M  V30 6951 H 651.881 0.607664 3.72273 0
M  V30 6952 H 654.268 -0.0153339 2.95096 0
M  V30 6953 H 654.349 1.51282 2.0627 0
M  V30 6954 H 653.993 2.77833 4.25172 0
M  V30 6955 H 653.923 1.22515 5.1215 0
M  V30 6956 H 656.414 1.26667 3.56039 0
M  V30 6957 H 656.727 3.17094 7.04749 0
M  V30 6958 H 655.072 2.84538 6.34085 0
M  V30 6959 H 658.263 1.64814 4.38126 0
M  V30 6960 H 658.436 2.51629 5.97149 0
M  V30 6961 N 651.842 -1.52309 0.404946 0
M  V30 6962 C 653.088 -2.02731 -0.164857 0
M  V30 6963 C 653.443 -1.28543 -1.43159 0
M  V30 6964 O 652.736 -0.381883 -1.87756 0
M  V30 6965 C 652.93 -3.54284 -0.470895 0
M  V30 6966 C 652.759 -4.43152 0.764625 0
M  V30 6967 C 651.529 -4.88594 1.28858 0
M  V30 6968 C 653.727 -4.874 1.64152 0
M  V30 6969 N 651.709 -5.61577 2.48001 0
M  V30 6970 C 653.08 -5.59121 2.67924 0
M  V30 6971 C 655.135 -4.69421 1.65978 0
M  V30 6972 C 653.838 -6.14772 3.73427 0
M  V30 6973 C 655.864 -5.25966 2.70396 0
M  V30 6974 C 655.226 -5.97606 3.7289 0
M  V30 6975 H 651.325 -0.78169 -0.0220025 0
M  V30 6976 H 653.909 -1.86522 0.558354 0
M  V30 6977 H 652.08 -3.70574 -1.16315 0
M  V30 6978 H 653.812 -3.91394 -1.02921 0
M  V30 6979 H 650.567 -4.6596 0.847232 0
M  V30 6980 H 650.991 -6.02712 3.08329 0
M  V30 6981 H 655.633 -4.13524 0.88079 0
M  V30 6982 H 653.351 -6.69743 4.52184 0
M  V30 6983 H 656.937 -5.13926 2.72711 0
M  V30 6984 H 655.817 -6.40577 4.52361 0
M  V30 6985 N 653.32 -0.135238 -1.57019 0
M  V30 6986 C 654.736 0.221262 -1.58059 0
M  V30 6987 C 654.936 1.65538 -1.14889 0
M  V30 6988 O 653.992 2.37985 -0.843751 0
M  V30 6989 C 655.305 -0.0268114 -3.00688 0
M  V30 6990 C 656.853 0.0378206 -3.12977 0
M  V30 6991 C 657.328 -0.182769 -4.57635 0
M  V30 6992 N 658.819 -0.129292 -4.6302 0
M  V30 6993 C 659.554 -0.274648 -5.72742 0
M  V30 6994 N 659.05 -0.477075 -6.91155 0
M  V30 6995 N 660.843 -0.213077 -5.61696 0
M  V30 6996 H 652.994 -1.07177 -1.83376 0
M  V30 6997 H 655.257 -0.423338 -0.848227 0
M  V30 6998 H 654.963 -1.01889 -3.36618 0
M  V30 6999 H 654.837 0.697863 -3.70688 0
M  V30 7000 H 657.224 1.02043 -2.76896 0
M  V30 7001 H 657.305 -0.718996 -2.45487 0
M  V30 7002 H 656.949 -1.16243 -4.94419 0
M  V30 7003 H 656.879 0.59423 -5.23237 0
M  V30 7004 H 659.37 0.0229896 -3.77893 0
M  V30 7005 H 659.683 -0.578413 -7.70632 0
M  V30 7006 H 658.028 -0.513252 -6.93102 0
M  V30 7007 H 661.219 -0.0557796 -4.68067 0
M  V30 7008 H 661.392 -0.329796 -6.4716 0
M  V30 7009 N 654.798 1.5699 0.138552 0
M  V30 7010 C 655.745 1.98899 1.17081 0
M  V30 7011 C 656.715 0.857922 1.42228 0
M  V30 7012 O 657.9 1.12065 1.54422 0
M  V30 7013 C 655.04 2.38189 2.4972 0
M  V30 7014 C 654.153 3.64624 2.31674 0
M  V30 7015 C 653.288 3.9298 3.57407 0
M  V30 7016 C 652.327 5.1266 3.34435 0
M  V30 7017 N 651.464 5.36983 4.5232 0
M  V30 7018 H 656.304 2.86881 0.80642 0
M  V30 7019 H 653.841 1.41925 0.386727 0
M  V30 7020 H 655.799 2.59 3.2707 0
M  V30 7021 H 654.429 1.53275 2.84089 0
M  V30 7022 H 653.481 3.51542 1.45337 0
M  V30 7023 H 654.793 4.52131 2.10664 0
M  V30 7024 H 653.947 4.14335 4.43183 0
M  V30 7025 H 652.686 3.03912 3.8143 0
M  V30 7026 H 651.691 4.9117 2.47048 0
M  V30 7027 H 652.916 6.03288 3.11802 0
M  V30 7028 H 650.862 4.50871 4.76499 0
M  V30 7029 H 650.779 6.18775 4.34343 0
M  V30 7030 H 652.047 5.62842 5.39285 0
M  V30 7031 N 656.276 -0.40816 1.52223 0
M  V30 7032 C 657.525 -1.15212 1.65557 0
M  V30 7033 C 657.838 -1.9163 0.392096 0
M  V30 7034 O 659.044 -2.68458 0.405256 0
M  V30 7035 C 657.5 -2.09691 2.92502 0
M  V30 7036 C 657.108 -1.38785 4.25961 0
M  V30 7037 C 658.852 -2.8434 3.152 0
M  V30 7038 C 656.759 -2.31919 5.44029 0
M  V30 7039 H 655.689 -0.433776 0.616729 0
M  V30 7040 H 658.34 -0.4165 1.78711 0
M  V30 7041 H 656.722 -2.8681 2.7305 0
M  V30 7042 H 657.896 -0.670248 4.55899 0
M  V30 7043 H 656.211 -0.761741 4.09373 0
M  V30 7044 H 658.808 -3.54166 4.00587 0
M  V30 7045 H 659.151 -3.47344 2.29473 0
M  V30 7046 H 659.684 -2.14321 3.35129 0
M  V30 7047 H 656.423 -1.7356 6.32105 0
M  V30 7048 H 655.943 -3.0165 5.18428 0
M  V30 7049 H 657.622 -2.92424 5.77146 0
M  V30 7050 N 657.755 -1.42862 -0.66545 0
M  V30 7051 C 659.166 -1.3901 -1.24632 0
M  V30 7052 C 659.517 -0.0880285 -1.96002 0
M  V30 7053 O 658.642 0.812947 -2.0055 0
M  V30 7054 C 659.237 -2.51806 -2.2667 0
M  V30 7055 C 657.796 -2.51257 -2.80262 0
M  V30 7056 C 656.943 -2.30124 -1.5472 0
M  V30 7057 H 659.894 -1.5194 -0.458237 0
M  V30 7058 H 659.915 -2.22593 -3.08598 0
M  V30 7059 H 659.427 -3.46558 -1.74697 0
M  V30 7060 H 657.528 -1.60349 -3.36332 0
M  V30 7061 H 657.641 -3.48614 -3.28641 0
M  V30 7062 H 656.005 -1.7856 -1.81627 0
M  V30 7063 H 656.788 -3.26945 -1.04699 0
M  V30 7064 N 659.233 0.902656 -1.29189 0
M  V30 7065 C 660.18 2.00643 -1.14066 0
M  V30 7066 C 661.15 1.66064 -0.0347756 0
M  V30 7067 O 662.335 1.8973 -0.201752 0
M  V30 7068 C 659.475 3.35214 -0.820104 0
M  V30 7069 C 658.588 3.82594 -2.00614 0
M  V30 7070 C 657.723 5.05727 -1.62522 0
M  V30 7071 C 656.762 5.45469 -2.77724 0
M  V30 7072 N 655.899 6.59789 -2.40048 0
M  V30 7073 H 660.739 2.1291 -2.08502 0
M  V30 7074 H 658.276 1.04271 -1.03759 0
M  V30 7075 H 660.234 4.12643 -0.614949 0
M  V30 7076 H 658.864 3.22682 0.0873452 0
M  V30 7077 H 657.916 3.01226 -2.32308 0
M  V30 7078 H 659.228 4.07999 -2.86946 0
M  V30 7079 H 658.382 5.90732 -1.38277 0
M  V30 7080 H 657.121 4.82155 -0.733333 0
M  V30 7081 H 656.126 4.59 -3.02653 0
M  V30 7082 H 657.351 5.71024 -3.67572 0
M  V30 7083 H 655.297 6.37826 -1.53343 0
M  V30 7084 H 655.214 6.84975 -3.19914 0
M  V30 7085 H 656.482 7.4807 -2.19116 0
M  V30 7086 N 660.711 1.11618 1.11262 0
M  V30 7087 C 662.127 0.850468 1.35053 0
M  V30 7088 C 662.327 -0.523868 1.94571 0
M  V30 7089 O 661.383 -1.2743 2.17986 0
M  V30 7090 C 662.696 1.96005 2.28041 0
M  V30 7091 C 664.244 1.98993 2.416 0
M  V30 7092 C 664.719 3.0916 3.37911 0
M  V30 7093 N 666.21 3.08547 3.45475 0
M  V30 7094 C 666.945 3.9043 4.19943 0
M  V30 7095 N 666.441 4.8228 4.97371 0
M  V30 7096 N 668.234 3.786 4.15474 0
M  V30 7097 H 660.385 2.00184 0.709932 0
M  V30 7098 H 662.648 0.870635 0.375099 0
M  V30 7099 H 662.354 2.9499 1.91503 0
M  V30 7100 H 662.228 1.85782 3.28275 0
M  V30 7101 H 664.615 1.00633 2.77411 0
M  V30 7102 H 664.696 2.13292 1.4121 0
M  V30 7103 H 664.34 4.07748 3.02827 0
M  V30 7104 H 664.27 2.92102 4.3816 0
M  V30 7105 H 666.761 2.42 2.90249 0
M  V30 7106 H 667.074 5.41289 5.51567 0
M  V30 7107 H 665.419 4.863 4.96525 0
M  V30 7108 H 668.61 3.06185 3.54074 0
M  V30 7109 H 668.783 4.42647 4.73253 0
M  V30 7110 N 662.189 -1.289 0.906776 0
M  V30 7111 C 663.6 -1.77336 0.58384 0
M  V30 7112 C 663.951 -1.74304 -0.900697 0
M  V30 7113 O 663.076 -1.33335 -1.70443 0
M  V30 7114 C 663.671 -3.22019 1.05304 0
M  V30 7115 C 662.23 -3.68205 0.781148 0
M  V30 7116 C 661.377 -2.48837 1.22373 0
M  V30 7117 H 664.328 -1.15462 1.08877 0
M  V30 7118 H 664.349 -3.78481 0.391414 0
M  V30 7119 H 663.861 -3.24194 2.13353 0
M  V30 7120 H 661.962 -3.71497 -0.28643 0
M  V30 7121 H 662.075 -4.58675 1.384 0
M  V30 7122 H 660.439 -2.46461 0.642594 0
M  V30 7123 H 661.222 -2.53736 2.31242 0
M  V30 7124 N 663.667 -0.670007 -1.42649 0
M  V30 7125 C 664.915 -0.18991 -2.01206 0
M  V30 7126 C 665.236 1.20617 -1.53221 0
M  V30 7127 O 664.506 1.80898 -0.751856 0
M  V30 7128 H 663.086 -0.0672189 -0.743969 0
M  V30 7129 H 665.748 -0.865442 -1.74631 0
M  V30 7130 H 664.844 -0.187481 -3.11536 0
M  V30 7131 N 665.145 1.52092 -0.413018 0
M  V30 7132 C 666.37 2.06756 0.163338 0
M  V30 7133 C 666.795 1.28073 1.37764 0
M  V30 7134 O 666.153 0.312015 1.78595 0
M  V30 7135 C 666.201 3.57278 0.488322 0
M  V30 7136 O 665.305 3.80986 1.57871 0
M  V30 7137 H 664.646 0.663882 0.0125068 0
M  V30 7138 H 667.176 1.95988 -0.587339 0
M  V30 7139 H 667.186 4.01125 0.745836 0
M  V30 7140 H 665.861 4.13978 -0.399327 0
M  V30 7141 H 664.438 3.49017 1.31306 0
M  V30 7142 N 666.623 0.143563 1.56945 0
M  V30 7143 C 667.869 -0.50916 1.96304 0
M  V30 7144 C 668.202 -1.64741 1.0283 0
M  V30 7145 O 667.477 -1.94374 0.0700361 0
M  V30 7146 C 667.76 -1.0186 3.45393 0
M  V30 7147 C 667.613 0.117923 4.49645 0
M  V30 7148 C 668.932 -1.90151 3.96901 0
M  V30 7149 H 666.051 -0.183608 0.713763 0
M  V30 7150 H 668.693 0.224095 1.88674 0
M  V30 7151 H 666.843 -1.64345 3.52027 0
M  V30 7152 H 668.515 0.754145 4.55094 0
M  V30 7153 H 666.758 0.777568 4.26774 0
M  V30 7154 H 667.429 -0.280187 5.51288 0
M  V30 7155 H 669.905 -1.375 3.92725 0
M  V30 7156 H 668.781 -2.22707 5.0169 0
M  V30 7157 H 669.042 -2.83718 3.39052 0
M  V30 7158 N 668.101 -1.57061 -0.130224 0
M  V30 7159 C 669.051 -1.95941 -1.16582 0
M  V30 7160 C 670.035 -0.832858 -1.37667 0
M  V30 7161 O 671.227 -1.09647 -1.38948 0
M  V30 7162 C 668.356 -2.35777 -2.49528 0
M  V30 7163 C 667.442 -3.5504 -2.31964 0
M  V30 7164 N 667.833 -4.71071 -1.84189 0
M  V30 7165 C 666.131 -3.60453 -2.62659 0
M  V30 7166 C 666.832 -5.53128 -1.80068 0
M  V30 7167 N 665.808 -4.95303 -2.24001 0
M  V30 7168 H 669.61 -2.83117 -0.788806 0
M  V30 7169 H 667.124 -1.58842 -0.3381 0
M  V30 7170 H 669.121 -2.61843 -3.24413 0
M  V30 7171 H 667.781 -1.49961 -2.87996 0
M  V30 7172 H 668.792 -4.94504 -1.53903 0
M  V30 7173 H 665.469 -2.85217 -3.0489 0
M  V30 7174 H 666.859 -6.56182 -1.4448 0
M  V30 7175 N 669.579 0.400081 -1.52437 0
M  V30 7176 C 670.995 0.739359 -1.41441 0
M  V30 7177 C 671.195 1.94512 -0.526053 0
M  V30 7178 O 670.251 2.525 0.00472502 0
M  V30 7179 C 671.564 0.984824 -2.84116 0
M  V30 7180 C 673.112 1.08698 -2.93519 0
M  V30 7181 C 673.587 1.36515 -4.37181 0
M  V30 7182 N 675.078 1.43361 -4.40457 0
M  V30 7183 C 675.813 1.66528 -5.48686 0
M  V30 7184 N 675.309 1.87239 -6.67018 0
M  V30 7185 N 677.102 1.68617 -5.36213 0
M  V30 7186 H 669.253 -0.393484 -2.08723 0
M  V30 7187 H 671.516 -0.1138 -0.941145 0
M  V30 7188 H 671.222 0.171096 -3.51284 0
M  V30 7189 H 671.096 1.90253 -3.25705 0
M  V30 7190 H 673.483 1.89129 -2.26526 0
M  V30 7191 H 673.564 0.147432 -2.55375 0
M  V30 7192 H 673.208 0.565982 -5.04737 0
M  V30 7193 H 673.138 2.31737 -4.7287 0
M  V30 7194 H 675.629 1.29108 -3.55161 0
M  V30 7195 H 675.942 2.04392 -7.45281 0
M  V30 7196 H 674.287 1.84486 -6.70067 0
M  V30 7197 H 677.478 1.5198 -4.42741 0
M  V30 7198 H 677.651 1.86332 -6.20632 0
M  V30 7199 N 671.057 1.43213 0.657864 0
M  V30 7200 C 672.285 1.48015 1.44566 0
M  V30 7201 C 672.7 0.0965951 1.88553 0
M  V30 7202 O 672.057 -0.892221 1.59203 0
M  V30 7203 C 672.108 2.42199 2.68369 0
M  V30 7204 O 671.829 3.75173 2.26223 0
M  V30 7205 C 673.33 2.56195 3.61772 0
M  V30 7206 H 670.55 0.502861 0.444266 0
M  V30 7207 H 673.094 1.87907 0.806917 0
M  V30 7208 H 671.249 2.05514 3.28394 0
M  V30 7209 H 671.663 4.25776 3.06293 0
M  V30 7210 H 673.137 3.26182 4.4532 0
M  V30 7211 H 673.614 1.60534 4.0881 0
M  V30 7212 H 674.22 2.93671 3.07632 0
M  V30 7213 N 672.536 -0.895792 1.29666 0
M  V30 7214 C 673.947 -1.46195 1.1612 0
M  V30 7215 C 674.298 -1.94699 -0.242195 0
M  V30 7216 O 673.423 -1.8406 -1.13802 0
M  V30 7217 C 674.018 -2.65718 2.10189 0
M  V30 7218 C 672.577 -3.18458 2.00653 0
M  V30 7219 C 671.724 -1.91149 2.00891 0
M  V30 7220 H 674.675 -0.706756 1.42094 0
M  V30 7221 H 674.696 -3.4158 1.6764 0
M  V30 7222 H 674.208 -2.30386 3.12321 0
M  V30 7223 H 672.309 -3.58474 1.01623 0
M  V30 7224 H 672.422 -3.82491 2.88509 0
M  V30 7225 H 670.786 -2.09021 1.45542 0
M  V30 7226 H 671.569 -1.58089 3.04734 0
M  V30 7227 N 674.014 -1.12206 -1.10668 0
M  V30 7228 C 675.239 -0.898938 -1.86906 0
M  V30 7229 C 675.664 0.546346 -1.79991 0
M  V30 7230 O 675.022 1.38655 -1.1681 0
M  V30 7231 C 675.07 -1.37529 -3.33344 0
M  V30 7232 O 674.174 -0.55218 -4.08687 0
M  V30 7233 H 673.515 -0.323163 -0.580053 0
M  V30 7234 H 676.045 -1.49355 -1.39837 0
M  V30 7235 H 676.055 -1.3733 -3.84193 0
M  V30 7236 H 674.73 -2.42767 -3.37693 0
M  V30 7237 H 673.307 -0.620947 -3.67694 0
M  V30 7238 N 675.492 1.28418 -0.913599 0
M  V30 7239 C 676.908 1.47411 -0.611728 0
M  V30 7240 C 677.108 1.83018 0.843008 0
M  V30 7241 O 676.164 1.93505 1.6221 0
M  V30 7242 C 677.477 2.57703 -1.5495 0
M  V30 7243 C 679.025 2.71572 -1.5562 0
M  V30 7244 C 679.5 3.85008 -2.48058 0
M  V30 7245 N 680.991 3.92361 -2.46184 0
M  V30 7246 C 681.726 4.79516 -3.14407 0
M  V30 7247 N 681.222 5.71262 -3.91958 0
M  V30 7248 N 683.015 4.73125 -3.03495 0
M  V30 7249 H 675.166 1.03585 -1.85429 0
M  V30 7250 H 677.429 0.515907 -0.795326 0
M  V30 7251 H 677.135 2.38298 -2.58663 0
M  V30 7252 H 677.009 3.54801 -1.28048 0
M  V30 7253 H 679.396 2.90366 -0.526441 0
M  V30 7254 H 679.477 1.75006 -1.86565 0
M  V30 7255 H 679.121 3.66969 -3.51136 0
M  V30 7256 H 679.051 4.80971 -2.14416 0
M  V30 7257 H 681.542 3.26749 -1.89851 0
M  V30 7258 H 681.855 6.34593 -4.41034 0
M  V30 7259 H 680.2 5.71103 -3.96063 0
M  V30 7260 H 683.391 4.00442 -2.42413 0
M  V30 7261 H 683.564 5.40834 -3.56935 0
M  V30 7262 N 676.97 0.677563 1.42291 0
M  V30 7263 C 677.902 -0.0380218 2.29168 0
M  V30 7264 C 678.915 -0.762714 1.43828 0
M  V30 7265 O 680.104 -0.616413 1.67519 0
M  V30 7266 C 677.204 -1.07761 3.21311 0
M  V30 7267 C 676.377 -0.42618 4.35319 0
M  V30 7268 C 675.436 -1.36592 5.08162 0
M  V30 7269 O 674.462 -0.865174 5.62586 0
M  V30 7270 N 675.664 -2.69909 5.13935 0
M  V30 7271 H 678.429 0.707766 2.91223 0
M  V30 7272 H 675.99 0.52219 1.53247 0
M  V30 7273 H 677.982 -1.70761 3.6691 0
M  V30 7274 H 676.552 -1.72511 2.60689 0
M  V30 7275 H 675.772 0.383385 3.92331 0
M  V30 7276 H 677.06 0.0275277 5.08793 0
M  V30 7277 H 676.458 -3.13129 4.71134 0
M  V30 7278 H 675.015 -3.2815 5.6317 0
M  V30 7279 N 678.448 -1.51871 0.421078 0
M  V30 7280 C 679.688 -2.03848 -0.150167 0
M  V30 7281 C 680.052 -1.29925 -1.41363 0
M  V30 7282 O 681.253 -1.7219 -2.06408 0
M  V30 7283 C 679.524 -3.55374 -0.38003 0
M  V30 7284 S 681.083 -4.29111 -0.917011 0
M  V30 7285 H 677.901 -0.709904 -0.0394639 0
M  V30 7286 H 680.503 -1.86799 0.576746 0
M  V30 7287 H 679.207 -4.0675 0.546122 0
M  V30 7288 H 678.738 -3.76687 -1.13448 0
M  V30 7289 H 680.753 -4.44944 -2.19635 0
M  V30 7290 O 679.965 -0.292728 -1.58825 0
M  V30 7291 H 680.656 0.273626 -1.91758 0
M  V30 END ATOM
M  V30 BEGIN BOND
M  V30 END BOND
M  V30 END CTAB
M  END
$$$$
