drugbank_target|O67987 Chlorocatechol 1,2-dioxygenase (DB03793; DB04237)
 OpenBabel12092120023D

  0  0  0     0  0            999 V3000
M  V30 BEGIN CTAB
M  V30 COUNTS 4008 4069 0 0 0
M  V30 BEGIN ATOM
M  V30 1 H -0.908 1.98254 -0.117106 0
M  V30 2 N 0 1.576 0 0
M  V30 3 C 0.933 2.03868 1.02534 0
M  V30 4 C 1.911 0.928543 1.3348 0
M  V30 5 O 3.095 1.19667 1.45644 0
M  V30 6 C 0.222 2.43627 2.35294 0
M  V30 7 C -0.732 3.65373 2.2001 0
M  V30 8 S 0.101 5.13292 1.52614 0
M  V30 9 C 1.257 5.56322 2.86805 0
M  V30 10 H 1.49 2.90518 0.631377 0
M  V30 11 H -0.977 1.52953 0.210867 0
M  V30 12 H 0.981 2.67203 3.11629 0
M  V30 13 H -0.358 1.57376 2.7183 0
M  V30 14 H -1.165 3.90944 3.18086 0
M  V30 15 H -1.563 3.418 1.51819 0
M  V30 16 H 0.729 5.58782 3.83104 0
M  V30 17 H 1.672 6.56266 2.65933 0
M  V30 18 H 2.08 4.83886 2.90714 0
M  V30 19 N 1.4781 -0.272755 1.55222 0
M  V30 20 C 2.4411 -1.32041 1.87344 0
M  V30 21 C 3.4411 -1.42342 0.74803 0
M  V30 22 O 4.6311 -1.41488 1.0162 0
M  V30 23 C 1.7631 -2.70173 2.07893 0
M  V30 24 H 2.9561 -1.04789 2.80997 0
M  V30 25 H 0.5091 -0.51083 1.47717 0
M  V30 26 H 1.2441 -3.02605 1.16622 0
M  V30 27 H 1.0291 -2.64082 2.89833 0
M  V30 28 H 2.5191 -3.45869 2.34017 0
M  V30 29 N 2.9562 -1.48159 -0.537278 0
M  V30 30 C 3.9042 -1.62573 -1.66352 0
M  V30 31 C 4.8982 -0.492366 -1.62087 0
M  V30 32 O 6.1042 -0.670847 -1.67032 0
M  V30 33 H 2.4792 -0.511992 -0.550789 0
M  V30 34 H 4.4502 -2.57176 -1.51337 0
M  V30 35 C 3.1992 -1.67583 -3.04649 0
M  V30 36 H 2.5222 -2.54151 -3.08622 0
M  V30 37 H 3.9622 -1.81713 -3.83088 0
M  V30 38 C 2.4212 -0.413039 -3.34358 0
M  V30 39 O 2.9512 0.477259 -3.98855 0
M  V30 40 N 1.1572 -0.286961 -2.8918 0
M  V30 41 H 0.7042 -1.01241 -2.36871 0
M  V30 42 H 0.6622 0.556963 -3.09427 0
M  V30 43 N 4.4343 0.785586 -1.36625 0
M  V30 44 C 5.6623 1.57448 -1.3423 0
M  V30 45 C 6.0773 1.88649 0.0755653 0
M  V30 46 O 5.4343 1.50414 1.03354 0
M  V30 47 C 5.4853 2.89316 -2.16745 0
M  V30 48 O 5.2063 2.59459 -3.53005 0
M  V30 49 C 6.7073 3.83606 -2.22174 0
M  V30 50 H 3.9273 0.488226 -0.4603 0
M  V30 51 H 6.4713 0.974733 -1.79775 0
M  V30 52 H 4.6263 3.4575 -1.74745 0
M  V30 53 H 5.0403 3.43804 -3.96105 0
M  V30 54 H 6.5143 4.73181 -2.8426 0
M  V30 55 H 6.9913 4.21734 -1.22627 0
M  V30 56 H 7.5973 3.33104 -2.64427 0
M  V30 57 N 5.9124 1.20967 1.01018 0
M  V30 58 C 7.3284 0.965905 1.27053 0
M  V30 59 C 7.5284 -0.350785 1.98423 0
M  V30 60 O 6.5844 -1.07773 2.28344 0
M  V30 61 C 7.8974 2.15294 2.09926 0
M  V30 62 C 9.4454 2.19463 2.23171 0
M  V30 63 C 9.9204 3.3767 3.09424 0
M  V30 64 N 11.4114 3.37724 3.17012 0
M  V30 65 C 12.1464 4.25837 3.83993 0
M  V30 66 N 11.6424 5.24138 4.53047 0
M  V30 67 N 13.4354 4.1366 3.80581 0
M  V30 68 H 5.5864 2.0565 0.531194 0
M  V30 69 H 7.8494 0.90024 0.297106 0
M  V30 70 H 7.5554 3.10684 1.64828 0
M  V30 71 H 7.4294 2.13923 3.10672 0
M  V30 72 H 9.8164 1.24632 2.6749 0
M  V30 73 H 9.8974 2.2488 1.21912 0
M  V30 74 H 9.5414 4.32791 2.65808 0
M  V30 75 H 9.4714 3.29491 4.10784 0
M  V30 76 H 11.9624 2.6658 2.6785 0
M  V30 77 H 12.2754 5.87684 5.01844 0
M  V30 78 H 10.6204 5.28068 4.5185 0
M  V30 79 H 13.8114 3.36127 3.25785 0
M  V30 80 H 13.9844 4.82538 4.32505 0
M  V30 81 N 7.3905 -1.2043 1.01659 0
M  V30 82 C 8.6365 -1.90079 0.706963 0
M  V30 83 C 8.9695 -1.78648 -0.761474 0
M  V30 84 O 8.2445 -1.17069 -1.55323 0
M  V30 85 C 8.5275 -3.41469 1.14327 0
M  V30 86 C 8.3805 -3.61833 2.67201 0
M  V30 87 C 9.6995 -4.34261 0.714529 0
M  V30 88 H 6.8185 -0.690254 0.2583 0
M  V30 89 H 9.4605 -1.41826 1.26433 0
M  V30 90 H 7.6105 -3.82696 0.669056 0
M  V30 91 H 9.2825 -3.2986 3.22475 0
M  V30 92 H 7.5255 -3.05304 3.08175 0
M  V30 93 H 8.1965 -4.67955 2.92783 0
M  V30 94 H 10.6725 -4.00682 1.12221 0
M  V30 95 H 9.5485 -5.38806 1.04784 0
M  V30 96 H 9.8095 -4.40431 -0.383799 0
M  V30 97 N 8.8686 -0.792821 -1.36206 0
M  V30 98 C 10.1176 -0.363353 -1.984 0
M  V30 99 C 10.4306 1.07172 -1.63626 0
M  V30 100 O 11.6366 1.60362 -2.19081 0
M  V30 101 C 10.0926 -0.59872 -3.54885 0
M  V30 102 C 9.7006 -2.04543 -3.9858 0
M  V30 103 C 11.4446 -0.233926 -4.23855 0
M  V30 104 C 9.3516 -2.22727 -5.47856 0
M  V30 105 H 8.2816 -0.13212 -0.742334 0
M  V30 106 H 10.9326 -0.974935 -1.55458 0
M  V30 107 H 9.3146 0.0826222 -3.95914 0
M  V30 108 H 10.4886 -2.76345 -3.68741 0
M  V30 109 H 8.8036 -2.36879 -3.42458 0
M  V30 110 H 11.4006 -0.348027 -5.33566 0
M  V30 111 H 11.7436 0.818351 -4.08177 0
M  V30 112 H 12.2766 -0.868639 -3.882 0
M  V30 113 H 9.0156 -3.2635 -5.68486 0
M  V30 114 H 8.5356 -1.55434 -5.7931 0
M  V30 115 H 10.2146 -2.03607 -6.14128 0
M  V30 116 N 10.3467 1.47872 -0.545128 0
M  V30 117 C 11.2567 2.33633 0.212746 0
M  V30 118 C 12.2727 1.4744 0.923983 0
M  V30 119 O 13.4487 1.80393 0.895572 0
M  V30 120 C 10.5137 3.23884 1.23693 0
M  V30 121 C 9.5747 4.25961 0.534417 0
M  V30 122 C 8.8077 5.11899 1.5098 0
M  V30 123 O 9.0307 5.00077 2.7437 0
M  V30 124 O 7.9647 5.92831 1.0409 0
M  V30 125 H 11.7907 2.99714 -0.490416 0
M  V30 126 H 9.3757 1.46235 -0.305871 0
M  V30 127 H 11.2577 3.79666 1.82843 0
M  V30 128 H 9.9327 2.60446 1.92222 0
M  V30 129 H 8.8397 3.73972 -0.0979679 0
M  V30 130 H 10.1727 4.92079 -0.109213 0
M  V30 131 N 11.8248 0.280983 1.55075 0
M  V30 132 C 12.7548 -0.597469 2.25727 0
M  V30 133 C 13.7358 -1.15417 1.24952 0
M  V30 134 O 14.9208 -1.18722 1.53684 0
M  V30 135 C 12.0508 -1.7789 2.98283 0
M  V30 136 C 11.0048 -1.35347 4.06036 0
M  V30 137 C 10.3308 -2.61846 4.66198 0
M  V30 138 C 11.6308 -0.499354 5.19907 0
M  V30 139 H 13.3248 -0.00824265 2.99399 0
M  V30 140 H 10.8708 -0.0025244 1.44 0
M  V30 141 H 12.8238 -2.39937 3.46422 0
M  V30 142 H 11.5478 -2.39405 2.22155 0
M  V30 143 H 10.2068 -0.756156 3.58717 0
M  V30 144 H 9.8548 -3.21632 3.86732 0
M  V30 145 H 9.5548 -2.3409 5.38958 0
M  V30 146 H 11.0788 -3.24732 5.1709 0
M  V30 147 H 12.4928 -1.02498 5.64063 0
M  V30 148 H 10.8898 -0.316424 5.99265 0
M  V30 149 H 11.9598 0.480459 4.82514 0
M  V30 150 N 13.3029 -1.57598 0.00835791 0
M  V30 151 C 14.5499 -1.90928 -0.674732 0
M  V30 152 C 14.8779 -0.88277 -1.73313 0
M  V30 153 O 14.1329 0.111294 -1.95383 0
M  V30 154 C 14.4319 -3.3101 -1.34787 0
M  V30 155 C 14.0979 -4.48922 -0.421861 0
M  V30 156 C 12.7599 -4.8091 -0.166927 0
M  V30 157 C 15.1119 -5.20755 0.215211 0
M  V30 158 C 12.4399 -5.821 0.733232 0
M  V30 159 C 14.7919 -6.22905 1.1033 0
M  V30 160 C 13.4559 -6.53346 1.36733 0
M  V30 161 H 12.7259 -0.698656 -0.246902 0
M  V30 162 H 15.3729 -1.91387 0.0656779 0
M  V30 163 H 13.6779 -3.26714 -2.16253 0
M  V30 164 H 15.3749 -3.54061 -1.8826 0
M  V30 165 H 11.9649 -4.23934 -0.630729 0
M  V30 166 H 16.1489 -4.9629 0.0312829 0
M  V30 167 H 11.4049 -6.04042 0.945712 0
M  V30 168 H 15.5789 -6.77694 1.60325 0
M  V30 169 H 13.2059 -7.31573 2.06652 0
M  V30 170 N 14.781 0.264519 -1.55364 0
M  V30 171 C 16.058 1.01677 -1.67096 0
M  V30 172 C 16.438 2.03996 -0.543015 0
M  V30 173 O 15.786 2.23907 0.45585 0
M  V30 174 C 15.996 1.66596 -3.0667 0
M  V30 175 C 17.344 2.17442 -3.64697 0
M  V30 176 O 18.368 1.76568 -3.09358 0
M  V30 177 O 17.227 2.92439 -4.61673 0
M  V30 178 H 14.321 0.472161 -0.678965 0
M  V30 179 H 16.867 0.259703 -1.67701 0
M  V30 180 H 15.639 0.924962 -3.80211 0
M  V30 181 H 15.262 2.48968 -3.10001 0
M  V30 182 N 16.2591 1.48442 0.529413 0
M  V30 183 C 17.1691 1.6569 1.66084 0
M  V30 184 C 18.1851 0.539432 1.65427 0
M  V30 185 O 19.3611 0.810572 1.84368 0
M  V30 186 C 16.4261 1.69315 3.02545 0
M  V30 187 C 15.4871 2.92694 3.14052 0
M  V30 188 C 14.7201 2.96137 4.44003 0
M  V30 189 O 14.9431 2.07973 5.31134 0
M  V30 190 O 13.8771 3.88312 4.59888 0
M  V30 191 H 17.7031 2.61483 1.54469 0
M  V30 192 H 15.2881 1.3185 0.702567 0
M  V30 193 H 17.1701 1.74217 3.83701 0
M  V30 194 H 15.8451 0.766966 3.14483 0
M  V30 195 H 14.7521 2.93324 2.32189 0
M  V30 196 H 16.0851 3.84699 3.0703 0
M  V30 197 N 17.7372 -0.778329 1.37039 0
M  V30 198 C 18.9842 -1.53665 1.31884 0
M  V30 199 C 19.3122 -1.9425 -0.0986303 0
M  V30 200 O 18.5672 -1.63832 -1.07041 0
M  V30 201 C 18.8662 -2.81845 2.19768 0
M  V30 202 C 18.5322 -2.60345 3.68146 0
M  V30 203 C 17.1942 -2.5419 4.08584 0
M  V30 204 C 19.5462 -2.40923 4.62175 0
M  V30 205 C 16.8742 -2.26594 5.41177 0
M  V30 206 C 19.2262 -2.14852 5.94997 0
M  V30 207 C 17.8902 -2.07137 6.34547 0
M  V30 208 H 17.1602 -0.562299 0.482598 0
M  V30 209 H 19.8072 -0.897069 1.69189 0
M  V30 210 H 18.1122 -3.50328 1.75436 0
M  V30 211 H 19.8092 -3.39692 2.13097 0
M  V30 212 H 16.3992 -2.65996 3.36072 0
M  V30 213 H 20.5832 -2.44673 4.31797 0
M  V30 214 H 15.8392 -2.19111 5.70789 0
M  V30 215 H 20.0132 -1.98822 6.67415 0
M  V30 216 H 17.6402 -1.85518 7.37216 0
M  V30 217 N 19.2153 -1.21501 -1.00376 0
M  V30 218 C 20.4433 -1.059 -1.77744 0
M  V30 219 C 20.8583 0.391125 -1.84704 0
M  V30 220 O 20.2153 1.27133 -1.30933 0
M  V30 221 C 20.2663 -1.65111 -3.21591 0
M  V30 222 O 19.9873 -3.0445 -3.15027 0
M  V30 223 C 21.4883 -1.54637 -4.15454 0
M  V30 224 H 18.7083 -0.371825 -0.558558 0
M  V30 225 H 21.2523 -1.60865 -1.26264 0
M  V30 226 H 19.4073 -1.14235 -3.70175 0
M  V30 227 H 19.8213 -3.3278 -4.0541 0
M  V30 228 H 21.2953 -2.00808 -5.14179 0
M  V30 229 H 21.7723 -0.501022 -4.36333 0
M  V30 230 H 22.3783 -2.04767 -3.72761 0
M  V30 231 N 20.6934 1.19889 -1.02296 0
M  V30 232 C 21.9704 1.85148 -0.630832 0
M  V30 233 C 22.3504 1.91385 0.890782 0
M  V30 234 O 21.6984 1.42642 1.78509 0
M  V30 235 C 21.9084 3.24442 -1.28602 0
M  V30 236 C 23.2564 4.00663 -1.4055 0
M  V30 237 O 24.2804 3.33818 -1.24273 0
M  V30 238 O 23.1394 5.20387 -1.66913 0
M  V30 239 H 20.2334 0.797613 -0.218499 0
M  V30 240 H 22.7794 1.27427 -1.12074 0
M  V30 241 H 21.5514 3.14704 -2.32545 0
M  V30 242 H 21.1744 3.89802 -0.7836 0
M  V30 243 N 22.1715 0.800033 1.35784 0
M  V30 244 C 23.1015 0.220184 2.3246 0
M  V30 245 C 24.0825 -0.65073 1.57161 0
M  V30 246 O 25.2675 -0.582359 1.85263 0
M  V30 247 C 22.3975 -0.637353 3.41402 0
M  V30 248 C 21.3515 0.134531 4.27789 0
M  V30 249 C 20.6775 -0.844285 5.27992 0
M  V30 250 C 21.9775 1.32979 5.05088 0
M  V30 251 H 23.6715 1.02787 2.81203 0
M  V30 252 H 21.2175 0.495717 1.35199 0
M  V30 253 H 23.1705 -1.05302 4.08031 0
M  V30 254 H 21.8945 -1.47785 2.91251 0
M  V30 255 H 20.5535 0.531296 3.6273 0
M  V30 256 H 20.2015 -1.68011 4.74111 0
M  V30 257 H 19.9015 -0.332184 5.8666 0
M  V30 258 H 21.4255 -1.2583 5.97494 0
M  V30 259 H 22.8395 0.98934 5.64699 0
M  V30 260 H 21.2365 1.77593 5.7322 0
M  V30 261 H 22.3065 2.11978 4.36111 0
M  V30 262 N 23.6496 -1.47581 0.552962 0
M  V30 263 C 24.8986 -2.01684 0.0251995 0
M  V30 264 C 25.2116 -1.43317 -1.33115 0
M  V30 265 O 26.4176 -1.89057 -1.94858 0
M  V30 266 C 24.8736 -3.599 -0.00542052 0
M  V30 267 C 24.4816 -4.27257 1.34742 0
M  V30 268 C 26.2256 -4.21768 -0.4808 0
M  V30 269 C 24.1326 -5.77467 1.27614 0
M  V30 270 H 23.0626 -0.753979 0.00565033 0
M  V30 271 H 25.7136 -1.69616 0.70018 0
M  V30 272 H 24.0956 -3.88911 -0.745961 0
M  V30 273 H 25.2696 -4.09893 2.10534 0
M  V30 274 H 23.5846 -3.77358 1.76039 0
M  V30 275 H 26.1816 -5.31838 -0.55246 0
M  V30 276 H 26.5246 -3.88651 -1.49184 0
M  V30 277 H 27.0576 -3.97273 0.204752 0
M  V30 278 H 23.7966 -6.15196 2.26304 0
M  V30 279 H 23.3166 -5.9718 0.55996 0
M  V30 280 H 24.9956 -6.3959 0.976421 0
M  V30 281 N 25.1277 -0.289203 -1.54924 0
M  V30 282 C 26.5437 0.0645403 -1.59469 0
M  V30 283 C 26.7437 1.53419 -1.30632 0
M  V30 284 O 25.7997 2.2852 -1.074 0
M  V30 285 C 27.1127 -0.32278 -2.98963 0
M  V30 286 C 28.6607 -0.270564 -3.11828 0
M  V30 287 C 29.1357 -0.632532 -4.53611 0
M  V30 288 N 30.6267 -0.584617 -4.59496 0
M  V30 289 C 31.3617 -0.837314 -5.67254 0
M  V30 290 N 30.8577 -1.15536 -6.83098 0
M  V30 291 N 32.6507 -0.765166 -5.56868 0
M  V30 292 H 24.8017 -1.24714 -1.71931 0
M  V30 293 H 27.0647 -0.504809 -0.802416 0
M  V30 294 H 26.7707 -1.34541 -3.24948 0
M  V30 295 H 26.6447 0.32944 -3.75759 0
M  V30 296 H 29.0317 0.742805 -2.85598 0
M  V30 297 H 29.1127 -0.957242 -2.37214 0
M  V30 298 H 28.7567 -1.64365 -4.80569 0
M  V30 299 H 28.6867 0.07609 -5.26545 0
M  V30 300 H 31.1777 -0.349248 -3.76283 0
M  V30 301 H 31.4907 -1.33447 -7.61191 0
M  V30 302 H 29.8357 -1.19328 -6.84679 0
M  V30 303 H 33.0267 -0.516432 -4.65243 0
M  V30 304 H 33.1997 -0.965477 -6.40767 0
M  V30 305 N 26.6058 1.57591 -0.0167156 0
M  V30 306 C 27.8828 1.82547 0.702564 0
M  V30 307 C 28.2628 0.898018 1.91047 0
M  V30 308 O 27.6108 -0.0493456 2.28447 0
M  V30 309 C 27.8208 3.31459 1.09251 0
M  V30 310 C 29.1688 3.97622 1.48937 0
M  V30 311 O 30.1928 3.35881 1.18584 0
M  V30 312 O 29.0518 5.06415 2.05442 0
M  V30 313 H 26.1458 0.752268 0.343544 0
M  V30 314 H 28.6918 1.69644 -0.0434495 0
M  V30 315 H 27.4638 3.9061 0.23227 0
M  V30 316 H 27.0868 3.49422 1.89709 0
M  V30 317 N 28.0839 -0.256276 1.55502 0
M  V30 318 C 29.3309 -0.985619 1.76895 0
M  V30 319 C 29.6589 -1.85671 0.579355 0
M  V30 320 O 28.9139 -1.90744 -0.437651 0
M  V30 321 C 29.2129 -1.88432 3.03691 0
M  V30 322 C 28.8789 -1.16936 4.35473 0
M  V30 323 C 27.5409 -0.97173 4.71286 0
M  V30 324 C 29.8929 -0.661889 5.1698 0
M  V30 325 C 27.2209 -0.254179 5.86149 0
M  V30 326 C 29.5729 0.042149 6.32586 0
M  V30 327 C 28.2369 0.25134 6.67027 0
M  V30 328 H 27.5069 -0.360663 0.647304 0
M  V30 329 H 30.1539 -0.256483 1.89775 0
M  V30 330 H 28.4589 -2.68021 2.85783 0
M  V30 331 H 30.1559 -2.45015 3.1744 0
M  V30 332 H 26.7459 -1.33332 4.07333 0
M  V30 333 H 30.9299 -0.802145 4.89775 0
M  V30 334 H 26.1859 -0.0815408 6.11346 0
M  V30 335 H 30.3599 0.443049 6.94989 0
M  V30 336 H 27.9869 0.809314 7.5588 0
M  V30 337 N 29.562 -1.4872 -0.521534 0
M  V30 338 C 30.811 -1.56419 -1.27341 0
M  V30 339 C 31.124 -0.246805 -1.94037 0
M  V30 340 O 32.33 -0.202122 -2.70747 0
M  V30 341 C 30.786 -2.75896 -2.31105 0
M  V30 342 C 30.394 -4.14311 -1.70441 0
M  V30 343 C 32.138 -2.92913 -3.07249 0
M  V30 344 C 30.045 -5.25038 -2.72194 0
M  V30 345 H 28.975 -0.582344 -0.478949 0
M  V30 346 H 31.626 -1.75071 -0.549779 0
M  V30 347 H 30.008 -2.50697 -3.06541 0
M  V30 348 H 31.182 -4.49564 -1.01136 0
M  V30 349 H 29.497 -4.02482 -1.06759 0
M  V30 350 H 32.094 -3.72805 -3.83302 0
M  V30 351 H 32.437 -2.02689 -3.63625 0
M  V30 352 H 32.97 -3.18054 -2.38928 0
M  V30 353 H 29.709 -6.17255 -2.20627 0
M  V30 354 H 29.229 -4.94263 -3.39801 0
M  V30 355 H 30.908 -5.53508 -3.35019 0
M  V30 356 N 31.0401 0.771051 -1.3745 0
M  V30 357 C 32.2861 1.5319 -1.32894 0
M  V30 358 C 32.6191 1.94008 0.0862511 0
M  V30 359 O 31.8941 1.64124 1.04373 0
M  V30 360 C 32.1771 2.79648 -2.26868 0
M  V30 361 C 32.0301 2.45079 -3.77169 0
M  V30 362 C 33.3491 3.81583 -2.19277 0
M  V30 363 H 30.4681 0.555744 -0.484064 0
M  V30 364 H 33.1101 0.884492 -1.68157 0
M  V30 365 H 31.2601 3.34891 -1.96926 0
M  V30 366 H 32.9321 1.95745 -4.1771 0
M  V30 367 H 31.1751 1.77767 -3.95704 0
M  V30 368 H 31.8461 3.35478 -4.38359 0
M  V30 369 H 34.3221 3.35835 -2.45671 0
M  V30 370 H 33.1981 4.67787 -2.87171 0
M  V30 371 H 33.4591 4.25897 -1.18592 0
M  V30 372 N 32.5182 1.22032 0.997298 0
M  V30 373 C 33.9342 0.979326 1.26021 0
M  V30 374 C 34.1342 -0.32972 1.98784 0
M  V30 375 O 33.1902 -1.05345 2.29475 0
M  V30 376 C 34.5032 2.17509 2.07631 0
M  V30 377 C 36.0512 2.21817 2.2083 0
M  V30 378 C 36.5262 3.40933 3.05825 0
M  V30 379 N 38.0172 3.41067 3.13412 0
M  V30 380 C 38.7522 4.29885 3.79455 0
M  V30 381 N 38.2482 5.28914 4.47462 0
M  V30 382 N 40.0412 4.17673 3.76173 0
M  V30 383 H 32.1922 2.06202 0.509352 0
M  V30 384 H 34.4552 0.90334 0.287541 0
M  V30 385 H 34.1612 3.12415 1.61524 0
M  V30 386 H 34.0352 2.17206 3.08385 0
M  V30 387 H 36.4222 1.27462 2.66153 0
M  V30 388 H 36.5032 2.2616 1.1952 0
M  V30 389 H 36.1472 4.35586 2.61203 0
M  V30 390 H 36.0772 3.33829 4.07266 0
M  V30 391 H 38.5682 2.69406 2.65007 0
M  V30 392 H 38.8812 5.92973 4.95583 0
M  V30 393 H 37.2262 5.32831 4.46224 0
M  V30 394 H 40.4172 3.39564 3.22202 0
M  V30 395 H 40.5902 4.87098 4.27363 0
M  V30 396 N 33.9963 -1.19345 1.0293 0
M  V30 397 C 34.9463 -2.20472 0.58104 0
M  V30 398 C 35.9303 -1.56578 -0.370442 0
M  V30 399 O 37.1223 -1.75963 -0.191344 0
M  V30 400 C 34.2513 -3.43236 -0.066306 0
M  V30 401 C 33.3373 -4.14274 0.907642 0
M  V30 402 N 33.7283 -4.61492 2.07023 0
M  V30 403 C 32.0263 -4.39966 0.731177 0
M  V30 404 C 32.7273 -5.1605 2.68454 0
M  V30 405 N 31.7033 -5.06875 1.96414 0
M  V30 406 H 35.5053 -2.54659 1.46717 0
M  V30 407 H 33.0193 -1.35423 0.896345 0
M  V30 408 H 35.0163 -4.14927 -0.405068 0
M  V30 409 H 33.6763 -3.10549 -0.948118 0
M  V30 410 H 34.6873 -4.56304 2.44963 0
M  V30 411 H 31.3643 -4.17377 -0.101507 0
M  V30 412 H 32.7543 -5.6287 3.66915 0
M  V30 413 N 35.4744 -0.807222 -1.35358 0
M  V30 414 C 36.3844 -0.219594 -2.3357 0
M  V30 415 C 37.4004 0.637734 -1.61892 0
M  V30 416 O 38.5764 0.549336 -1.93763 0
M  V30 417 C 35.6414 0.62158 -3.41083 0
M  V30 418 C 34.7024 -0.256315 -4.28534 0
M  V30 419 C 33.9354 0.544807 -5.30912 0
M  V30 420 O 34.1584 1.77944 -5.41934 0
M  V30 421 O 33.0924 -0.0646478 -6.01865 0
M  V30 422 H 36.9184 -1.03208 -2.85625 0
M  V30 423 H 34.5034 -0.569025 -1.38139 0
M  V30 424 H 36.3854 1.10067 -4.06772 0
M  V30 425 H 35.0604 1.41165 -2.91297 0
M  V30 426 H 33.9674 -0.782559 -3.65823 0
M  V30 427 H 35.3004 -1.01034 -4.81719 0
M  V30 428 N 36.9525 1.47285 -0.560781 0
M  V30 429 C 38.2015 2.01668 -0.035895 0
M  V30 430 C 38.5145 1.44021 1.32353 0
M  V30 431 O 39.7205 1.90088 1.93853 0
M  V30 432 C 38.1765 3.59897 -0.0136659 0
M  V30 433 C 37.7845 4.26536 -1.37006 0
M  V30 434 C 39.5285 4.22017 0.458425 0
M  V30 435 C 37.4355 5.76782 -1.30675 0
M  V30 436 H 36.3655 0.753938 -0.00964879 0
M  V30 437 H 39.0165 1.69243 -0.709166 0
M  V30 438 H 37.3985 3.89301 0.725325 0
M  V30 439 H 38.5725 4.0877 -2.12705 0
M  V30 440 H 36.8875 3.76419 -1.78038 0
M  V30 441 H 39.4845 5.32124 0.524247 0
M  V30 442 H 39.8275 3.89437 1.4712 0
M  V30 443 H 40.3605 3.97159 -0.225818 0
M  V30 444 H 37.0995 6.13988 -2.29564 0
M  V30 445 H 36.6195 5.96875 -0.591622 0
M  V30 446 H 38.2985 6.39063 -1.01033 0
M  V30 447 N 38.4306 0.297415 1.54768 0
M  V30 448 C 39.6586 -0.315623 2.04478 0
M  V30 449 C 40.0736 -1.47792 1.17486 0
M  V30 450 O 39.4306 -1.81404 0.19971 0
M  V30 451 C 39.4816 -0.7753 3.53088 0
M  V30 452 O 39.2026 0.340732 4.36773 0
M  V30 453 C 40.7036 -1.45386 4.18781 0
M  V30 454 H 37.9236 -0.0690887 0.667434 0
M  V30 455 H 40.4676 0.436003 1.99798 0
M  V30 456 H 38.6226 -1.47696 3.58141 0
M  V30 457 H 39.0366 -0.0165035 5.24497 0
M  V30 458 H 40.5106 -1.72669 5.24299 0
M  V30 459 H 40.9876 -2.39275 3.68299 0
M  V30 460 H 41.5936 -0.795475 4.17795 0
M  V30 461 N 39.9087 -1.5758 0.0250728 0
M  V30 462 C 41.1367 -1.9593 -0.664747 0
M  V30 463 C 41.5517 -0.901352 -1.65895 0
M  V30 464 O 40.9087 0.117255 -1.82123 0
M  V30 465 C 40.9597 -3.34342 -1.37468 0
M  V30 466 O 40.6807 -4.36079 -0.420324 0
M  V30 467 C 42.1817 -3.873 -2.1567 0
M  V30 468 H 39.4017 -0.645405 -0.183557 0
M  V30 469 H 41.9457 -2.04329 0.0836372 0
M  V30 470 H 40.1007 -3.27175 -2.0745 0
M  V30 471 H 40.5147 -5.16297 -0.923991 0
M  V30 472 H 41.9887 -4.86504 -2.60803 0
M  V30 473 H 42.4657 -3.21331 -2.99405 0
M  V30 474 H 43.0717 -3.97723 -1.50654 0
M  V30 475 N 41.3868 0.248026 -1.55636 0
M  V30 476 C 42.7978 0.817177 -1.67866 0
M  V30 477 C 43.1488 1.86069 -0.622322 0
M  V30 478 O 42.2738 2.15157 0.231618 0
M  V30 479 C 42.8688 1.489 -3.04326 0
M  V30 480 C 41.4278 2.00587 -3.185 0
M  V30 481 C 40.5748 0.856573 -2.63739 0
M  V30 482 H 43.5258 0.0238579 -1.58682 0
M  V30 483 H 43.5468 2.35698 -2.98708 0
M  V30 484 H 43.0588 0.729279 -3.81186 0
M  V30 485 H 41.1598 2.79443 -2.4646 0
M  V30 486 H 41.2728 2.20402 -4.25393 0
M  V30 487 H 39.6368 1.25678 -2.21534 0
M  V30 488 H 40.4198 0.109953 -3.43124 0
M  V30 489 N 42.8649 1.48995 0.513639 0
M  V30 490 C 43.7749 1.67443 1.64317 0
M  V30 491 C 44.7909 0.556947 1.64846 0
M  V30 492 O 45.9669 0.830082 1.83498 0
M  V30 493 C 43.0319 1.72515 3.00732 0
M  V30 494 C 42.0929 2.96009 3.1093 0
M  V30 495 C 41.3259 3.00829 4.40837 0
M  V30 496 O 41.5489 2.13594 5.28898 0
M  V30 497 O 40.4829 3.93168 4.55744 0
M  V30 498 H 44.3089 2.63106 1.51687 0
M  V30 499 H 41.8939 1.32588 0.688543 0
M  V30 500 H 43.7759 1.78277 3.81831 0
M  V30 501 H 42.4509 0.800278 3.13651 0
M  V30 502 H 41.3579 2.9577 2.29065 0
M  V30 503 H 42.6909 3.87934 3.02933 0
M  V30 504 N 44.343 -0.763751 1.37857 0
M  V30 505 C 45.573 -1.55067 1.3652 0
M  V30 506 C 45.981 -1.89135 -0.0494227 0
M  V30 507 O 45.324 -1.52529 -1.02375 0
M  V30 508 C 45.386 -2.8838 2.14656 0
M  V30 509 C 45.05 -2.76905 3.63555 0
M  V30 510 C 46.047 -2.4739 4.57268 0
M  V30 511 C 43.732 -2.94676 4.06781 0
M  V30 512 C 45.726 -2.35786 5.92186 0
M  V30 513 C 43.413 -2.82692 5.41782 0
M  V30 514 C 44.411 -2.53289 6.34298 0
M  V30 515 O 44.099 -2.41345 7.66817 0
M  V30 516 H 43.831 -0.486776 0.469069 0
M  V30 517 H 46.385 -0.953812 1.81911 0
M  V30 518 H 44.615 -3.50217 1.63967 0
M  V30 519 H 46.304 -3.49828 2.05852 0
M  V30 520 H 47.07 -2.33339 4.2518 0
M  V30 521 H 42.949 -3.16563 3.35126 0
M  V30 522 H 46.493 -2.12757 6.64365 0
M  V30 523 H 42.39 -2.96314 5.7347 0
M  V30 524 H 43.158 -2.56634 7.77226 0
M  V30 525 N 45.8211 -1.22559 -0.990812 0
M  V30 526 C 46.7311 -1.01394 -2.11557 0
M  V30 527 C 47.7471 0.0383962 -1.73958 0
M  V30 528 O 48.9231 -0.154787 -2.00804 0
M  V30 529 C 45.9881 -0.596569 -3.41529 0
M  V30 530 C 45.0491 -1.72276 -3.93217 0
M  V30 531 C 44.2821 -1.32521 -5.16985 0
M  V30 532 O 44.5051 -0.204909 -5.70032 0
M  V30 533 O 43.4391 -2.14247 -5.62478 0
M  V30 534 H 47.2651 -1.95633 -2.32296 0
M  V30 535 H 44.8501 -1.01172 -1.0993 0
M  V30 536 H 46.7321 -0.374263 -4.19735 0
M  V30 537 H 45.4071 0.316939 -3.22145 0
M  V30 538 H 44.3141 -1.99961 -3.16174 0
M  V30 539 H 45.6471 -2.61421 -4.17037 0
M  V30 540 N 47.2992 1.18797 -1.03562 0
M  V30 541 C 48.5272 1.92599 -0.755869 0
M  V30 542 C 48.9422 1.75886 0.686271 0
M  V30 543 O 48.2992 1.08517 1.46732 0
M  V30 544 C 48.3502 3.44159 -1.10619 0
M  V30 545 O 48.0712 3.60341 -2.4917 0
M  V30 546 C 49.5722 4.3507 -0.850214 0
M  V30 547 H 46.7922 0.611587 -0.276048 0
M  V30 548 H 49.3362 1.50742 -1.38192 0
M  V30 549 H 47.4912 3.83823 -0.525194 0
M  V30 550 H 47.9052 4.54128 -2.62427 0
M  V30 551 H 49.3792 5.39989 -1.14523 0
M  V30 552 H 49.8562 4.38673 0.215176 0
M  V30 553 H 50.4622 4.01097 -1.41426 0
M  V30 554 N 48.7773 0.814389 1.34928 0
M  V30 555 C 50.0263 0.394871 1.97797 0
M  V30 556 C 50.3393 -1.04555 1.65311 0
M  V30 557 O 51.5453 -1.56856 2.21604 0
M  V30 558 C 50.0013 0.655103 3.53888 0
M  V30 559 C 49.6093 2.10858 3.95276 0
M  V30 560 C 51.3533 0.301329 4.23429 0
M  V30 561 C 49.2603 2.31415 5.44244 0
M  V30 562 H 48.1903 0.143913 0.740139 0
M  V30 563 H 50.8413 0.999544 1.53888 0
M  V30 564 H 49.2233 -0.0196253 3.95995 0
M  V30 565 H 50.3973 2.82176 3.64298 0
M  V30 566 H 48.7123 2.42297 3.38646 0
M  V30 567 H 51.3093 0.432869 5.32945 0
M  V30 568 H 51.6523 -0.75331 4.09428 0
M  V30 569 H 52.1853 0.930288 3.86769 0
M  V30 570 H 48.9243 3.35353 5.63222 0
M  V30 571 H 48.4443 1.6463 5.76764 0
M  V30 572 H 50.1233 2.13352 6.10811 0
M  V30 573 N 50.2554 -1.46986 0.568584 0
M  V30 574 C 51.1884 -2.27129 -0.220779 0
M  V30 575 C 52.1664 -1.34757 -0.909905 0
M  V30 576 O 53.3504 -1.64152 -0.926622 0
M  V30 577 C 50.4774 -3.12108 -1.31553 0
M  V30 578 C 49.5234 -4.20141 -0.733748 0
M  V30 579 S 50.3564 -5.33783 0.428479 0
M  V30 580 C 51.5124 -6.22327 -0.667811 0
M  V30 581 H 51.7454 -2.93731 0.459267 0
M  V30 582 H 49.2784 -1.5026 0.355154 0
M  V30 583 H 51.2364 -3.61636 -1.94241 0
M  V30 584 H 49.8974 -2.44847 -1.96746 0
M  V30 585 H 49.0904 -4.79373 -1.5562 0
M  V30 586 H 48.6924 -3.73553 -0.182812 0
M  V30 587 H 50.9844 -6.59364 -1.55708 0
M  V30 588 H 51.9274 -7.0801 -0.11258 0
M  V30 589 H 52.3354 -5.5618 -0.965601 0
M  V30 590 N 51.7335 -0.305618 -1.54608 0
M  V30 591 C 52.6655 0.602161 -2.21149 0
M  V30 592 C 53.6785 1.09394 -1.20569 0
M  V30 593 O 54.8675 1.0106 -1.47136 0
M  V30 594 C 51.9675 1.83692 -2.84799 0
M  V30 595 C 51.1405 1.48686 -4.11353 0
M  V30 596 C 50.1995 2.57725 -4.58764 0
M  V30 597 O 49.2255 2.22623 -5.23858 0
M  V30 598 N 50.4275 3.88346 -4.31471 0
M  V30 599 H 53.1925 0.0324966 -2.99682 0
M  V30 600 H 50.7535 -0.128021 -1.61393 0
M  V30 601 H 52.7455 2.55994 -3.13448 0
M  V30 602 H 51.3155 2.31486 -2.10078 0
M  V30 603 H 50.5355 0.596269 -3.89664 0
M  V30 604 H 51.8235 1.22842 -4.93748 0
M  V30 605 H 51.2215 4.19671 -3.79331 0
M  V30 606 H 49.7785 4.56932 -4.64818 0
M  V30 607 N 53.2116 1.57565 -0.0334293 0
M  V30 608 C 54.4416 1.95996 0.653398 0
M  V30 609 C 54.8496 0.908749 1.65947 0
M  V30 610 O 54.1926 -0.117471 1.83324 0
M  V30 611 C 54.2546 3.30589 1.41249 0
M  V30 612 C 53.9186 4.53503 0.564263 0
M  V30 613 C 54.9156 5.19647 -0.16225 0
M  V30 614 C 52.6006 4.99801 0.500398 0
M  V30 615 C 54.5946 6.30412 -0.941255 0
M  V30 616 C 52.2816 6.10448 -0.282308 0
M  V30 617 C 53.2796 6.75612 -1.00184 0
M  V30 618 O 52.9676 7.84134 -1.77171 0
M  V30 619 H 52.6996 0.65027 0.184728 0
M  V30 620 H 55.2536 2.05199 -0.0907841 0
M  V30 621 H 53.4836 3.17888 2.20191 0
M  V30 622 H 55.1726 3.53892 1.98784 0
M  V30 623 H 55.9386 4.84846 -0.12227 0
M  V30 624 H 51.8176 4.48883 1.05002 0
M  V30 625 H 55.3616 6.81208 -1.50339 0
M  V30 626 H 51.2586 6.44686 -0.323989 0
M  V30 627 H 52.0266 8.00822 -1.69194 0
M  V30 628 N 54.6897 -0.239769 1.55765 0
M  V30 629 C 55.6227 -1.32356 1.85895 0
M  V30 630 C 56.6007 -1.46053 0.714662 0
M  V30 631 O 57.7847 -1.62154 0.961157 0
M  V30 632 C 54.9117 -2.6962 2.04994 0
M  V30 633 C 53.9577 -2.73036 3.27648 0
M  V30 634 S 54.7907 -2.28929 4.84099 0
M  V30 635 C 55.9467 -3.68103 5.06212 0
M  V30 636 H 56.1797 -1.06601 2.77531 0
M  V30 637 H 53.7127 -0.441112 1.47965 0
M  V30 638 H 55.6707 -3.48653 2.16682 0
M  V30 639 H 54.3317 -2.92609 1.14188 0
M  V30 640 H 53.5247 -3.7386 3.38 0
M  V30 641 H 53.1267 -2.02052 3.14723 0
M  V30 642 H 55.4187 -4.63656 4.93993 0
M  V30 643 H 56.3617 -3.6268 6.08168 0
M  V30 644 H 56.7697 -3.60947 4.34025 0
M  V30 645 N 56.1678 -1.49265 -0.50573 0
M  V30 646 C 57.4168 -1.57761 -1.25675 0
M  V30 647 C 57.7298 -0.267371 -1.93764 0
M  V30 648 O 58.9358 -0.230827 -2.70517 0
M  V30 649 C 57.3918 -2.78332 -2.28165 0
M  V30 650 C 56.9998 -4.16096 -1.66037 0
M  V30 651 C 58.7438 -2.96155 -3.04125 0
M  V30 652 C 56.6508 -5.27895 -2.6661 0
M  V30 653 H 55.5808 -0.587391 -0.472745 0
M  V30 654 H 58.2318 -1.75644 -0.53118 0
M  V30 655 H 56.6138 -2.53934 -3.03865 0
M  V30 656 H 57.7878 -4.50612 -0.963622 0
M  V30 657 H 56.1028 -4.03591 -1.02484 0
M  V30 658 H 58.6998 -3.76849 -3.79327 0
M  V30 659 H 59.0428 -2.06534 -3.61455 0
M  V30 660 H 59.5758 -3.2057 -2.35541 0
M  V30 661 H 56.3148 -6.1956 -2.14068 0
M  V30 662 H 55.8348 -4.97839 -3.34539 0
M  V30 663 H 57.5138 -5.57031 -3.29129 0
M  V30 664 N 57.6459 0.756429 -1.3826 0
M  V30 665 C 58.8709 1.55077 -1.37717 0
M  V30 666 C 59.2959 1.88073 0.03164 0
M  V30 667 O 58.6539 1.50364 1.01293 0
M  V30 668 C 58.7019 2.8283 -2.23695 0
M  V30 669 O 57.8059 3.77862 -1.6521 0
M  V30 670 H 57.1469 0.469152 -0.469885 0
M  V30 671 H 59.6769 0.935019 -1.81985 0
M  V30 672 H 59.6869 3.31783 -2.37453 0
M  V30 673 H 58.3619 2.58144 -3.2609 0
M  V30 674 H 56.9389 3.36555 -1.60578 0
M  V30 675 N 59.124 1.23083 0.984299 0
M  V30 676 C 60.37 1.06214 1.72761 0
M  V30 677 C 60.703 -0.400584 1.90024 0
M  V30 678 O 59.978 -1.29672 1.44967 0
M  V30 679 C 60.261 1.78375 3.12817 0
M  V30 680 C 60.114 3.32296 3.03149 0
M  V30 681 C 61.433 1.54309 4.12161 0
M  V30 682 H 58.552 0.387251 0.627061 0
M  V30 683 H 61.194 1.51536 1.14616 0
M  V30 684 H 59.344 1.39848 3.62457 0
M  V30 685 H 61.016 3.8032 2.61064 0
M  V30 686 H 59.259 3.6153 2.39747 0
M  V30 687 H 59.93 3.77972 4.02295 0
M  V30 688 H 62.406 1.87791 3.71314 0
M  V30 689 H 61.282 2.07281 5.08258 0
M  V30 690 H 61.543 0.477572 4.39513 0
M  V30 691 N 60.6021 -1.18246 1.0419 0
M  V30 692 C 61.8501 -1.87886 0.744543 0
M  V30 693 C 62.1711 -1.8082 -0.730006 0
M  V30 694 O 61.4411 -1.22736 -1.52685 0
M  V30 695 H 60.0211 -0.695556 0.272417 0
M  V30 696 H 62.6831 -1.43494 1.31892 0
M  V30 697 H 61.7791 -2.9389 1.05049 0
M  V30 698 N 62.0802 -0.821533 -1.34494 0
M  V30 699 C 62.9902 -0.244355 -2.33324 0
M  V30 700 C 64.0062 0.620527 -1.62559 0
M  V30 701 O 65.1822 0.528754 -1.94335 0
M  V30 702 C 62.2472 0.585368 -3.41723 0
M  V30 703 C 61.3082 -0.301752 -4.28238 0
M  V30 704 C 60.5412 0.488466 -5.3146 0
M  V30 705 O 60.7642 1.72186 -5.4379 0
M  V30 706 O 59.6982 -0.12848 -6.01763 0
M  V30 707 H 63.5242 -1.06231 -2.84515 0
M  V30 708 H 61.1092 -0.583645 -1.37528 0
M  V30 709 H 62.9912 1.05747 -4.07916 0
M  V30 710 H 61.6662 1.38068 -2.92778 0
M  V30 711 H 60.5732 -0.821315 -3.64973 0
M  V30 712 H 61.9062 -1.06138 -4.8062 0
M  V30 713 N 63.5583 1.46682 -0.576371 0
M  V30 714 C 64.5213 2.28707 0.150239 0
M  V30 715 C 65.5213 1.38035 0.824794 0
M  V30 716 O 66.7113 1.60476 0.677719 0
M  V30 717 C 63.8433 3.18248 1.22192 0
M  V30 718 H 65.0363 2.94423 -0.570521 0
M  V30 719 H 62.5893 1.52688 -0.334078 0
M  V30 720 H 63.3243 2.57265 1.97447 0
M  V30 721 H 63.1093 3.85 0.742812 0
M  V30 722 H 64.5993 3.80001 1.73172 0
M  V30 723 N 65.0364 0.313813 1.54444 0
M  V30 724 C 66.2844 -0.291099 1.99993 0
M  V30 725 C 66.6054 -1.53418 1.20366 0
M  V30 726 O 65.8754 -1.93544 0.302927 0
M  V30 727 H 64.4554 -0.110552 0.738774 0
M  V30 728 H 67.1174 0.428106 1.9014 0
M  V30 729 H 66.2134 -0.554268 3.07139 0
M  V30 730 N 66.5145 -1.57545 0.0417849 0
M  V30 731 C 67.4245 -2.14451 -0.951213 0
M  V30 732 C 68.4405 -1.09992 -1.34825 0
M  V30 733 O 69.6165 -1.42114 -1.42708 0
M  V30 734 C 66.6815 -2.67063 -2.21084 0
M  V30 735 C 65.7425 -3.86284 -1.87304 0
M  V30 736 C 64.9755 -4.36378 -3.07261 0
M  V30 737 O 65.1985 -3.85587 -4.20332 0
M  V30 738 O 64.1325 -5.28077 -2.88822 0
M  V30 739 H 67.9585 -2.99601 -0.497287 0
M  V30 740 H 65.5435 -1.48317 -0.179567 0
M  V30 741 H 67.4255 -3.00914 -2.95006 0
M  V30 742 H 66.1005 -1.84989 -2.65633 0
M  V30 743 H 65.0075 -3.57338 -1.10727 0
M  V30 744 H 66.3405 -4.6956 -1.47562 0
M  V30 745 N 67.9926 0.231505 -1.5589 0
M  V30 746 C 69.2386 0.954429 -1.79617 0
M  V30 747 C 69.5936 1.82367 -0.613199 0
M  V30 748 O 68.8866 1.87524 0.393094 0
M  V30 749 C 69.0806 1.83577 -3.0665 0
M  V30 750 C 68.9096 1.05334 -4.3719 0
M  V30 751 C 67.6796 0.75225 -4.99669 0
M  V30 752 C 69.8776 0.423444 -5.12554 0
M  V30 753 N 67.8596 -0.052627 -6.13877 0
M  V30 754 C 69.2306 -0.245287 -6.19515 0
M  V30 755 C 71.2856 0.335466 -4.96769 0
M  V30 756 C 69.9886 -0.993566 -7.12405 0
M  V30 757 C 72.0146 -0.399321 -5.9005 0
M  V30 758 C 71.3766 -1.05663 -6.9643 0
M  V30 759 H 67.4756 0.329846 -0.709031 0
M  V30 760 H 70.0596 0.226172 -1.93382 0
M  V30 761 H 68.2306 2.53592 -2.94186 0
M  V30 762 H 69.9626 2.49541 -3.18608 0
M  V30 763 H 66.7176 1.06783 -4.61405 0
M  V30 764 H 67.1416 -0.443609 -6.75545 0
M  V30 765 H 71.7836 0.829311 -4.14587 0
M  V30 766 H 69.5016 -1.49896 -7.94076 0
M  V30 767 H 73.0876 -0.468265 -5.79913 0
M  V30 768 H 71.9676 -1.61612 -7.67366 0
M  V30 769 N 69.4707 1.49531 0.497807 0
M  V30 770 C 70.8817 1.52344 1.07927 0
M  V30 771 C 71.2327 0.311469 1.93712 0
M  V30 772 O 70.3577 -0.578405 2.08527 0
M  V30 773 C 70.9527 2.76062 1.96405 0
M  V30 774 C 69.5117 2.81643 2.49709 0
M  V30 775 C 68.6587 2.46299 1.27404 0
M  V30 776 H 71.6097 1.56182 0.281576 0
M  V30 777 H 71.6307 2.56405 2.81135 0
M  V30 778 H 71.1427 3.64254 1.33943 0
M  V30 779 H 69.2437 1.97739 3.15801 0
M  V30 780 H 69.3567 3.83891 2.86643 0
M  V30 781 H 67.7207 1.98148 1.60029 0
M  V30 782 H 68.5037 3.36769 0.66645 0
M  V30 783 N 70.9488 -0.749086 1.3866 0
M  V30 784 C 71.8788 -1.8764 1.38973 0
M  V30 785 C 72.8598 -1.68178 0.255004 0
M  V30 786 O 74.0448 -1.88704 0.458754 0
M  V30 787 C 71.1748 -3.25222 1.21851 0
M  V30 788 C 70.1288 -3.59295 2.32575 0
M  V30 789 C 69.4548 -4.95663 2.00555 0
M  V30 790 C 70.7548 -3.63709 3.7485 0
M  V30 791 H 72.4488 -1.87635 2.3331 0
M  V30 792 H 69.9948 -0.901329 1.12303 0
M  V30 793 H 71.9478 -4.03746 1.20695 0
M  V30 794 H 70.6718 -3.25719 0.239775 0
M  V30 795 H 69.3308 -2.83093 2.32925 0
M  V30 796 H 68.9788 -4.92724 1.01154 0
M  V30 797 H 68.6788 -5.19429 2.74714 0
M  V30 798 H 70.2028 -5.7656 2.01024 0
M  V30 799 H 71.6168 -4.32338 3.76506 0
M  V30 800 H 70.0138 -3.98986 4.48252 0
M  V30 801 H 71.0838 -2.63834 4.06841 0
M  V30 802 N 72.4269 -1.23603 -0.977757 0
M  V30 803 C 73.6729 -1.08136 -1.72274 0
M  V30 804 C 74.0279 0.377453 -1.88661 0
M  V30 805 O 73.3209 1.27552 -1.42972 0
M  V30 806 C 73.5149 -1.7433 -3.11999 0
M  V30 807 C 73.3439 -3.26498 -3.0924 0
M  V30 808 C 72.1139 -3.9567 -3.14282 0
M  V30 809 C 74.3119 -4.2323 -2.92201 0
M  V30 810 N 72.2939 -5.34799 -3.01436 0
M  V30 811 C 73.6649 -5.49289 -2.87544 0
M  V30 812 C 75.7199 -4.13931 -2.76705 0
M  V30 813 C 74.4229 -6.67116 -2.68978 0
M  V30 814 C 76.4489 -5.31424 -2.59504 0
M  V30 815 C 75.8109 -6.5641 -2.55548 0
M  V30 816 H 71.9099 -0.450247 -0.639376 0
M  V30 817 H 74.4939 -1.5637 -1.16002 0
M  V30 818 H 72.6649 -1.28624 -3.66484 0
M  V30 819 H 74.3969 -1.51815 -3.75146 0
M  V30 820 H 71.1519 -3.46767 -3.22567 0
M  V30 821 H 71.5759 -6.07748 -2.98281 0
M  V30 822 H 76.2179 -3.1807 -2.78552 0
M  V30 823 H 73.9359 -7.63109 -2.65876 0
M  V30 824 H 77.5219 -5.26072 -2.48474 0
M  V30 825 H 76.4019 -7.45795 -2.42405 0
M  V30 826 N 73.905 1.17692 -1.04816 0
M  V30 827 C 74.835 2.23777 -0.666791 0
M  V30 828 C 75.816 1.66796 0.33361 0
M  V30 829 O 77.001 1.93039 0.212042 0
M  V30 830 C 74.131 3.47281 -0.0367933 0
M  V30 831 C 73.085 4.17059 -0.961546 0
M  V30 832 C 72.411 5.34342 -0.195626 0
M  V30 833 C 73.711 4.69713 -2.28402 0
M  V30 834 H 75.405 2.55933 -1.55367 0
M  V30 835 H 72.951 1.23019 -0.748484 0
M  V30 836 H 74.904 4.20706 0.241775 0
M  V30 837 H 73.628 3.14381 0.885004 0
M  V30 838 H 72.287 3.45541 -1.22462 0
M  V30 839 H 71.935 4.97692 0.728816 0
M  V30 840 H 71.635 5.81966 -0.811775 0
M  V30 841 H 73.159 6.10553 0.0757473 0
M  V30 842 H 74.573 5.34794 -2.06563 0
M  V30 843 H 72.97 5.279 -2.8538 0
M  V30 844 H 74.04 3.86726 -2.92525 0
M  V30 845 N 75.3831 0.828654 1.34056 0
M  V30 846 C 76.6601 0.341809 1.9259 0
M  V30 847 C 77.0401 -1.17158 1.75605 0
M  V30 848 O 76.3881 -1.98132 1.13824 0
M  V30 849 C 76.5981 0.777453 3.4023 0
M  V30 850 C 77.9461 0.779579 4.17382 0
M  V30 851 O 78.9701 0.7204 3.48839 0
M  V30 852 O 77.8291 0.857996 5.39723 0
M  V30 853 H 74.9231 0.0946085 0.821571 0
M  V30 854 H 77.4691 0.913827 1.42994 0
M  V30 855 H 76.2411 1.8196 3.46419 0
M  V30 856 H 75.8641 0.181444 3.97186 0
M  V30 857 N 76.8612 -1.46375 0.584142 0
M  V30 858 C 77.8242 -2.28784 -0.138108 0
M  V30 859 C 78.8242 -1.38471 -0.817462 0
M  V30 860 O 80.0142 -1.60833 -0.669199 0
M  V30 861 C 77.1462 -3.18892 -1.20503 0
M  V30 862 H 78.3392 -2.94117 0.586127 0
M  V30 863 H 75.8922 -1.52509 0.342171 0
M  V30 864 H 76.6272 -2.58309 -1.96079 0
M  V30 865 H 76.4122 -3.85388 -0.722384 0
M  V30 866 H 77.9022 -3.80914 -1.71155 0
M  V30 867 N 78.3393 -0.321999 -1.54275 0
M  V30 868 C 79.5863 0.281044 -2.0054 0
M  V30 869 C 79.9143 1.52265 -1.21019 0
M  V30 870 O 79.1693 1.93687 -0.279982 0
M  V30 871 C 79.4683 0.661769 -3.5122 0
M  V30 872 C 79.1343 -0.480482 -4.48333 0
M  V30 873 C 77.7963 -0.794005 -4.74604 0
M  V30 874 C 80.1483 -1.24783 -5.06042 0
M  V30 875 C 77.4763 -1.87763 -5.55844 0
M  V30 876 C 79.8283 -2.32153 -5.88462 0
M  V30 877 C 78.4923 -2.64089 -6.13036 0
M  V30 878 H 77.7623 0.102841 -0.733829 0
M  V30 879 H 80.4093 -0.445453 -1.86247 0
M  V30 880 H 78.7143 1.46867 -3.63232 0
M  V30 881 H 80.4113 1.13989 -3.84457 0
M  V30 882 H 77.0013 -0.226039 -4.28004 0
M  V30 883 H 81.1853 -1.01887 -4.85729 0
M  V30 884 H 76.4413 -2.12954 -5.73115 0
M  V30 885 H 80.6153 -2.92057 -6.32199 0
M  V30 886 H 78.2423 -3.48185 -6.75775 0
M  V30 887 N 79.8174 1.5752 -0.0501392 0
M  V30 888 C 81.0644 1.9265 0.623874 0
M  V30 889 C 81.3924 0.928411 1.70912 0
M  V30 890 O 80.6474 -0.0594525 1.9561 0
M  V30 891 C 80.9464 3.34467 1.25963 0
M  V30 892 C 80.6124 4.49883 0.302689 0
M  V30 893 C 79.2744 4.81184 0.0393636 0
M  V30 894 C 81.6264 5.20002 -0.353205 0
M  V30 895 C 78.9544 5.79951 -0.887308 0
M  V30 896 C 81.3064 6.1976 -1.26806 0
M  V30 897 C 79.9704 6.49491 -1.54007 0
M  V30 898 H 79.2404 0.704957 0.228292 0
M  V30 899 H 81.8874 1.91146 -0.116398 0
M  V30 900 H 80.1924 3.32333 2.07514 0
M  V30 901 H 81.8894 3.58928 1.78806 0
M  V30 902 H 78.4794 4.25457 0.518109 0
M  V30 903 H 82.6634 4.96033 -0.162854 0
M  V30 904 H 77.9194 6.01322 -1.10553 0
M  V30 905 H 82.0934 6.73205 -1.78236 0
M  V30 906 H 79.7204 7.25837 -2.25976 0
M  V30 907 N 81.2955 -0.223234 1.56011 0
M  V30 908 C 82.2055 -1.29766 1.95443 0
M  V30 909 C 83.2215 -1.51373 0.858028 0
M  V30 910 O 84.3975 -1.64536 1.16146 0
M  V30 911 C 81.4625 -2.62772 2.26167 0
M  V30 912 C 80.5235 -2.49482 3.49367 0
M  V30 913 C 79.7565 -3.76145 3.78616 0
M  V30 914 O 79.9795 -4.79087 3.09568 0
M  V30 915 O 78.9135 -3.73358 4.72109 0
M  V30 916 H 82.7395 -0.99309 2.87004 0
M  V30 917 H 80.3245 -0.425958 1.43199 0
M  V30 918 H 82.2065 -3.41327 2.47131 0
M  V30 919 H 80.8815 -2.92913 1.37781 0
M  V30 920 H 79.7885 -1.69133 3.33684 0
M  V30 921 H 81.1215 -2.2428 4.38131 0
M  V30 922 N 82.7736 -1.49793 -0.48987 0
M  V30 923 C 84.0016 -1.63568 -1.26701 0
M  V30 924 C 84.4166 -0.311465 -1.86213 0
M  V30 925 O 83.7736 0.704416 -1.68357 0
M  V30 926 C 83.8246 -2.71284 -2.38929 0
M  V30 927 O 83.5456 -3.9857 -1.81861 0
M  V30 928 C 85.0466 -2.95864 -3.3012 0
M  V30 929 H 82.2666 -0.550342 -0.383881 0
M  V30 930 H 84.8106 -1.95898 -0.586864 0
M  V30 931 H 82.9656 -2.417 -3.02753 0
M  V30 932 H 83.3796 -4.57993 -2.55622 0
M  V30 933 H 84.8536 -3.74941 -4.05121 0
M  V30 934 H 85.3306 -2.06206 -3.87783 0
M  V30 935 H 85.9366 -3.26907 -2.72051 0
M  V30 936 N 84.2517 0.741722 -1.39055 0
M  V30 937 C 85.4797 1.53098 -1.39171 0
M  V30 938 C 85.8947 1.88794 0.0155099 0
M  V30 939 O 85.2517 1.53626 0.985159 0
M  V30 940 C 85.3027 2.82274 -2.2584 0
M  V30 941 O 85.0237 2.48097 -3.61081 0
M  V30 942 C 86.5247 3.76343 -2.34266 0
M  V30 943 H 83.7447 0.473335 -0.4756 0
M  V30 944 H 86.2887 0.917045 -1.82785 0
M  V30 945 H 84.4437 3.40015 -1.85656 0
M  V30 946 H 84.8577 3.31029 -4.06842 0
M  V30 947 H 86.3317 4.63898 -2.9917 0
M  V30 948 H 86.8087 4.17619 -1.35982 0
M  V30 949 H 87.4147 3.24523 -2.74891 0
M  V30 950 N 85.7298 1.2412 0.971189 0
M  V30 951 C 86.9758 1.08041 1.71625 0
M  V30 952 C 87.3088 -0.380407 1.90438 0
M  V30 953 O 86.5838 -1.28127 1.46334 0
M  V30 954 C 86.8668 1.81682 3.10908 0
M  V30 955 C 86.7198 3.35493 2.99608 0
M  V30 956 C 88.0388 1.58671 4.10501 0
M  V30 957 H 85.1578 0.39388 0.622919 0
M  V30 958 H 87.7998 1.52743 1.13003 0
M  V30 959 H 85.9498 1.43684 3.60953 0
M  V30 960 H 87.6218 3.83068 2.57015 0
M  V30 961 H 85.8648 3.64052 2.35899 0
M  V30 962 H 86.5358 3.82217 3.98264 0
M  V30 963 H 89.0118 1.91719 3.69301 0
M  V30 964 H 87.8878 2.1266 5.06031 0
M  V30 965 H 88.1488 0.524161 4.38982 0
M  V30 966 N 87.2079 -1.17134 1.05439 0
M  V30 967 C 88.4849 -1.83411 0.679699 0
M  V30 968 C 88.8649 -1.9368 -0.839726 0
M  V30 969 O 88.2129 -1.47325 -1.74664 0
M  V30 970 C 88.4229 -3.20918 1.37159 0
M  V30 971 C 89.7709 -3.96796 1.51123 0
M  V30 972 O 90.7949 -3.30406 1.3308 0
M  V30 973 O 89.6539 -5.15778 1.80651 0
M  V30 974 H 86.7479 -0.79154 0.239569 0
M  V30 975 H 89.2939 -1.24411 1.15413 0
M  V30 976 H 88.0659 -3.08428 2.40807 0
M  V30 977 H 87.6889 -3.87587 0.886674 0
M  V30 978 N 88.686 -0.835752 -1.33615 0
M  V30 979 C 89.911 -0.442389 -2.02627 0
M  V30 980 C 90.336 0.947735 -1.62479 0
M  V30 981 O 89.694 1.61907 -0.815826 0
M  V30 982 C 89.742 -0.567216 -3.56111 0
M  V30 983 O 88.846 0.407799 -4.10379 0
M  V30 984 H 88.187 -0.180278 -0.639059 0
M  V30 985 H 90.717 -1.12972 -1.70583 0
M  V30 986 H 90.727 -0.447708 -4.05536 0
M  V30 987 H 89.402 -1.58103 -3.84677 0
M  V30 988 H 87.979 0.246107 -3.72087 0
M  V30 989 N 90.1641 1.46063 -0.591896 0
M  V30 990 C 91.4101 2.02638 -0.0811191 0
M  V30 991 C 91.7431 1.4613 1.27905 0
M  V30 992 O 91.0181 0.629908 1.84017 0
M  V30 993 C 91.3011 3.60091 -0.0252436 0
M  V30 994 C 91.1541 4.26965 -1.41496 0
M  V30 995 C 92.4731 4.3496 0.670685 0
M  V30 996 H 89.5921 0.73635 -0.0309524 0
M  V30 997 H 92.2341 1.741 -0.760859 0
M  V30 998 H 90.3841 3.84535 0.553624 0
M  V30 999 H 92.0561 4.13756 -2.0397 0
M  V30 1000 H 90.2991 3.85971 -1.98011 0
M  V30 1001 H 90.9701 5.35781 -1.32825 0
M  V30 1002 H 93.4461 4.15716 0.178825 0
M  V30 1003 H 92.3221 5.44686 0.678837 0
M  V30 1004 H 92.5831 4.06685 1.73379 0
M  V30 1005 N 91.6422 0.330177 1.54103 0
M  V30 1006 C 92.8672 -0.274893 2.0557 0
M  V30 1007 C 93.2922 -1.44487 1.20437 0
M  V30 1008 O 92.6502 -1.80021 0.214991 0
M  V30 1009 C 92.6982 -0.68079 3.54115 0
M  V30 1010 O 91.8022 -1.7824 3.71893 0
M  V30 1011 H 91.1432 -0.0483849 0.662235 0
M  V30 1012 H 93.6732 0.480508 1.98878 0
M  V30 1013 H 93.6832 -0.961635 3.96505 0
M  V30 1014 H 92.3582 0.174903 4.15532 0
M  V30 1015 H 90.9352 -1.49985 3.41407 0
M  V30 1016 N 93.1203 -1.57491 0.0584922 0
M  V30 1017 C 94.3503 -1.9701 -0.622134 0
M  V30 1018 C 94.7583 -0.935034 -1.6448 0
M  V30 1019 O 94.1013 0.0882904 -1.83488 0
M  V30 1020 C 94.1633 -3.32794 -1.35972 0
M  V30 1021 C 93.8273 -4.54343 -0.492043 0
M  V30 1022 C 94.8243 -5.19323 0.244901 0
M  V30 1023 C 92.5093 -5.00534 -0.420821 0
M  V30 1024 C 94.5033 -6.28835 1.04143 0
M  V30 1025 C 92.1903 -6.09921 0.379389 0
M  V30 1026 C 93.1883 -6.73933 1.10919 0
M  V30 1027 O 92.8763 -7.81216 1.89623 0
M  V30 1028 H 92.6083 -0.653127 -0.174359 0
M  V30 1029 H 95.1623 -2.05029 0.123418 0
M  V30 1030 H 93.3923 -3.21351 -2.15105 0
M  V30 1031 H 95.0813 -3.5701 -1.93129 0
M  V30 1032 H 95.8473 -4.8459 0.19939 0
M  V30 1033 H 91.7263 -4.50496 -0.978474 0
M  V30 1034 H 95.2703 -6.7873 1.61157 0
M  V30 1035 H 91.1673 -6.44089 0.426512 0
M  V30 1036 H 91.9353 -7.98029 1.81913 0
M  V30 1037 N 94.5984 0.214957 -1.56127 0
M  V30 1038 C 95.8464 0.936518 -1.79091 0
M  V30 1039 C 96.1674 1.84606 -0.628148 0
M  V30 1040 O 95.4374 1.92664 0.35462 0
M  V30 1041 H 94.0174 0.3488 -0.660566 0
M  V30 1042 H 96.6794 0.22523 -1.93594 0
M  V30 1043 H 95.7754 1.53943 -2.71492 0
M  V30 1044 N 96.0765 1.50051 0.48192 0
M  V30 1045 C 97.0235 1.68122 1.58125 0
M  V30 1046 C 97.9935 0.522545 1.57666 0
M  V30 1047 O 99.1785 0.751844 1.75362 0
M  V30 1048 C 96.3185 1.77142 2.96167 0
M  V30 1049 C 95.4315 3.0444 3.06497 0
M  V30 1050 C 94.5665 3.04321 4.35387 0
M  V30 1051 C 93.6055 4.26118 4.3942 0
M  V30 1052 N 92.7425 4.238 5.59766 0
M  V30 1053 H 97.5825 2.6198 1.42022 0
M  V30 1054 H 95.1195 1.29877 0.690687 0
M  V30 1055 H 97.0775 1.80352 3.76203 0
M  V30 1056 H 95.7075 0.867329 3.1093 0
M  V30 1057 H 94.7595 3.10752 2.19402 0
M  V30 1058 H 96.0715 3.94426 3.05336 0
M  V30 1059 H 95.2255 3.062 5.23762 0
M  V30 1060 H 93.9645 2.12147 4.39141 0
M  V30 1061 H 92.9695 4.24463 3.49444 0
M  V30 1062 H 94.1945 5.19507 4.37366 0
M  V30 1063 H 92.1405 3.34474 5.64326 0
M  V30 1064 H 92.0575 5.07542 5.60301 0
M  V30 1065 H 93.3255 4.2981 6.50295 0
M  V30 1066 N 97.5546 -0.734337 1.39446 0
M  V30 1067 C 98.8026 -1.49096 1.36436 0
M  V30 1068 C 99.1236 -1.94961 -0.0388255 0
M  V30 1069 O 98.3936 -1.69033 -0.990191 0
M  V30 1070 H 96.9736 -0.5531 0.502085 0
M  V30 1071 H 99.6356 -0.871725 1.74319 0
M  V30 1072 H 98.7316 -2.37276 2.02747 0
M  V30 1073 N 99.0327 -1.24633 -0.964593 0
M  V30 1074 C 99.9807 -1.03917 -2.08096 0
M  V30 1075 C 100.975 0.0268581 -1.69379 0
M  V30 1076 O 102.181 -0.127952 -1.79545 0
M  V30 1077 H 98.5557 -0.319044 -0.680966 0
M  V30 1078 H 100.527 -1.98581 -2.22729 0
M  V30 1079 C 99.2757 -0.663983 -3.41301 0
M  V30 1080 H 98.5987 -1.47605 -3.71555 0
M  V30 1081 H 100.039 -0.558663 -4.20303 0
M  V30 1082 C 98.4977 0.629169 -3.30973 0
M  V30 1083 O 99.0277 1.67404 -3.65156 0
M  V30 1084 N 97.2337 0.611057 -2.84103 0
M  V30 1085 H 96.7807 -0.239593 -2.56483 0
M  V30 1086 H 96.7387 1.47647 -2.77575 0
M  V30 1087 N 100.511 1.16574 -1.06058 0
M  V30 1088 C 101.757 1.87565 -0.78683 0
M  V30 1089 C 102.112 1.80012 0.679214 0
M  V30 1090 O 101.405 1.20327 1.49104 0
M  V30 1091 C 101.599 3.36195 -1.21275 0
M  V30 1092 C 101.428 3.58216 -2.71866 0
M  V30 1093 C 100.198 3.7444 -3.39298 0
M  V30 1094 C 102.396 3.57134 -3.70081 0
M  V30 1095 N 100.378 3.84389 -4.78663 0
M  V30 1096 C 101.749 3.73038 -4.9522 0
M  V30 1097 C 103.804 3.40332 -3.63426 0
M  V30 1098 C 102.507 3.73879 -6.14497 0
M  V30 1099 C 104.533 3.42466 -4.82153 0
M  V30 1100 C 103.895 3.58887 -6.06118 0
M  V30 1101 H 99.9938 0.704081 -0.340284 0
M  V30 1102 H 102.578 1.39885 -1.35426 0
M  V30 1103 H 100.749 3.82522 -0.673179 0
M  V30 1104 H 102.481 3.94839 -0.887917 0
M  V30 1105 H 99.2358 3.74662 -2.89699 0
M  V30 1106 H 99.6598 3.93138 -5.51155 0
M  V30 1107 H 104.302 3.26566 -2.68541 0
M  V30 1108 H 102.02 3.86427 -7.09718 0
M  V30 1109 H 105.606 3.30712 -4.78666 0
M  V30 1110 H 104.486 3.60454 -6.9645 0
M  V30 1111 N 101.989 0.842826 1.3317 0
M  V30 1112 C 103.217 0.454055 2.01856 0
M  V30 1113 C 103.632 -0.94587 1.63397 0
M  V30 1114 O 102.989 -1.61534 0.849302 0
M  V30 1115 C 103.04 0.569715 3.56982 0
M  V30 1116 O 102.761 1.91448 3.94055 0
M  V30 1117 C 104.262 0.178412 4.42941 0
M  V30 1118 H 101.482 0.17979 0.646465 0
M  V30 1119 H 104.026 1.1365 1.70012 0
M  V30 1120 H 102.181 -0.0648587 3.87346 0
M  V30 1121 H 102.595 1.90282 4.88767 0
M  V30 1122 H 104.069 0.310376 5.51127 0
M  V30 1123 H 104.546 -0.880056 4.30293 0
M  V30 1124 H 105.152 0.787579 4.17944 0
M  V30 1125 N 103.467 -1.45747 0.599634 0
M  V30 1126 C 104.692 -2.07178 0.0960198 0
M  V30 1127 C 105.117 -1.44268 -1.207 0
M  V30 1128 O 104.475 -0.532503 -1.73303 0
M  V30 1129 C 104.523 -3.60579 -0.0385348 0
M  V30 1130 O 103.627 -3.97713 -1.0908 0
M  V30 1131 H 102.968 -0.660251 0.0704593 0
M  V30 1132 H 105.498 -1.87124 0.827385 0
M  V30 1133 H 105.508 -4.07298 -0.239304 0
M  V30 1134 H 104.183 -4.05756 0.912947 0
M  V30 1135 H 102.76 -3.62678 -0.867135 0
M  V30 1136 N 104.945 -0.338344 -1.53925 0
M  V30 1137 C 106.17 0.263987 -2.05713 0
M  V30 1138 C 106.595 1.43847 -1.21201 0
M  V30 1139 O 105.953 1.79904 -0.224535 0
M  V30 1140 C 106.001 0.662 -3.54471 0
M  V30 1141 O 105.105 1.76265 -3.72833 0
M  V30 1142 H 104.446 0.0448722 -0.662482 0
M  V30 1143 H 106.976 -0.491048 -1.9862 0
M  V30 1144 H 106.986 0.940594 -3.9701 0
M  V30 1145 H 105.661 -0.196937 -4.15433 0
M  V30 1146 H 104.238 1.48173 -3.42198 0
M  V30 1147 N 106.423 1.57458 -0.0668435 0
M  V30 1148 C 107.386 2.11323 0.887422 0
M  V30 1149 C 108.386 1.03618 1.22964 0
M  V30 1150 O 109.576 1.29626 1.16373 0
M  V30 1151 C 106.708 2.61048 2.19242 0
M  V30 1152 H 107.901 2.96942 0.420194 0
M  V30 1153 H 105.454 1.55239 0.181793 0
M  V30 1154 H 106.189 1.78868 2.70512 0
M  V30 1155 H 105.974 3.39769 1.95702 0
M  V30 1156 H 107.464 3.02814 2.87565 0
M  V30 1157 N 107.901 -0.206675 1.56239 0
M  V30 1158 C 109.15 -0.926964 1.79138 0
M  V30 1159 C 109.463 -1.84901 0.638043 0
M  V30 1160 O 110.669 -2.60906 0.751033 0
M  V30 1161 C 109.125 -1.6986 3.17294 0
M  V30 1162 C 108.733 -0.821956 4.40395 0
M  V30 1163 C 110.477 -2.40922 3.4951 0
M  V30 1164 C 108.384 -1.59179 5.69575 0
M  V30 1165 H 107.314 -0.349864 0.667915 0
M  V30 1166 H 109.965 -0.180487 1.8261 0
M  V30 1167 H 108.347 -2.48853 3.08039 0
M  V30 1168 H 109.521 -0.0715019 4.60745 0
M  V30 1169 H 107.836 -0.222741 4.15804 0
M  V30 1170 H 110.433 -2.99047 4.43255 0
M  V30 1171 H 110.776 -3.14542 2.72707 0
M  V30 1172 H 111.309 -1.68905 3.60161 0
M  V30 1173 H 108.048 -0.898589 6.49312 0
M  V30 1174 H 107.568 -2.31648 5.53262 0
M  V30 1175 H 109.247 -2.14862 6.10281 0
M  V30 1176 N 109.379 -1.50304 -0.473955 0
M  V30 1177 C 110.311 -1.65109 -1.58971 0
M  V30 1178 C 111.324 -0.532676 -1.53839 0
M  V30 1179 O 112.513 -0.805751 -1.59279 0
M  V30 1180 C 109.613 -1.61684 -2.97845 0
M  V30 1181 C 108.786 -2.8951 -3.27876 0
M  V30 1182 C 107.845 -2.78768 -4.4629 0
M  V30 1183 O 106.871 -3.52722 -4.46739 0
M  V30 1184 N 108.073 -1.9213 -5.47783 0
M  V30 1185 H 110.838 -2.61347 -1.46689 0
M  V30 1186 H 108.399 -1.47732 -0.662324 0
M  V30 1187 H 110.391 -1.52114 -3.75024 0
M  V30 1188 H 108.961 -0.731925 -3.03911 0
M  V30 1189 H 108.181 -3.13228 -2.39336 0
M  V30 1190 H 109.469 -3.74199 -3.4475 0
M  V30 1191 H 108.867 -1.31353 -5.50239 0
M  V30 1192 H 107.424 -1.88466 -6.23958 0
M  V30 1193 N 110.857 0.726932 -1.39834 0
M  V30 1194 C 112.105 1.4837 -1.37225 0
M  V30 1195 C 112.426 1.94979 0.0284857 0
M  V30 1196 O 111.696 1.69555 0.981213 0
M  V30 1197 H 110.276 0.55043 -0.505011 0
M  V30 1198 H 112.938 0.862468 -1.74778 0
M  V30 1199 H 112.034 2.36198 -2.04003 0
M  V30 1200 N 112.336 1.25143 0.95797 0
M  V30 1201 C 113.747 1.08851 1.51685 0
M  V30 1202 C 114.098 -0.33687 1.93286 0
M  V30 1203 O 113.223 -1.22644 1.7829 0
M  V30 1204 C 113.818 1.96978 2.75654 0
M  V30 1205 C 112.377 1.84881 3.27866 0
M  V30 1206 C 111.524 1.91329 2.0072 0
M  V30 1207 H 114.475 1.38478 0.77522 0
M  V30 1208 H 114.496 1.5078 3.4935 0
M  V30 1209 H 114.008 3.00712 2.45345 0
M  V30 1210 H 112.109 0.840182 3.63004 0
M  V30 1211 H 112.222 2.6951 3.96107 0
M  V30 1212 H 110.586 1.35174 2.15871 0
M  V30 1213 H 111.369 2.96661 1.72764 0
M  V30 1214 N 113.814 -1.1601 1.06675 0
M  V30 1215 C 115.061 -1.86633 0.785781 0
M  V30 1216 C 115.389 -1.81929 -0.687896 0
M  V30 1217 O 114.644 -1.23253 -1.52011 0
M  V30 1218 C 114.943 -3.35547 1.23057 0
M  V30 1219 C 114.609 -3.60448 2.70902 0
M  V30 1220 C 113.271 -3.66954 3.11285 0
M  V30 1221 C 115.623 -3.7071 3.66365 0
M  V30 1222 C 112.951 -3.81225 4.45965 0
M  V30 1223 C 115.303 -3.86503 5.00797 0
M  V30 1224 C 113.967 -3.91252 5.40813 0
M  V30 1225 H 113.237 -0.682937 0.287538 0
M  V30 1226 H 115.884 -1.37146 1.33654 0
M  V30 1227 H 114.189 -3.87193 0.59907 0
M  V30 1228 H 115.886 -3.88583 0.990163 0
M  V30 1229 H 112.476 -3.56021 2.38636 0
M  V30 1230 H 116.66 -3.64991 3.36296 0
M  V30 1231 H 111.916 -3.83155 4.76447 0
M  V30 1232 H 116.09 -3.93385 5.74649 0
M  V30 1233 H 113.717 -4.02062 6.45174 0
M  V30 1234 N 115.292 -0.849877 -1.32721 0
M  V30 1235 C 116.539 -0.450923 -1.97416 0
M  V30 1236 C 116.867 0.992376 -1.67279 0
M  V30 1237 O 116.122 1.71048 -0.950845 0
M  V30 1238 C 116.421 -0.631272 -3.51781 0
M  V30 1239 C 116.087 -2.04432 -4.01894 0
M  V30 1240 C 114.749 -2.4308 -4.1529 0
M  V30 1241 C 117.101 -2.96679 -4.28522 0
M  V30 1242 C 114.429 -3.73257 -4.52654 0
M  V30 1243 C 116.781 -4.26349 -4.67343 0
M  V30 1244 C 115.445 -4.64939 -4.78945 0
M  V30 1245 H 114.715 -0.165004 -0.722395 0
M  V30 1246 H 117.362 -1.07901 -1.58207 0
M  V30 1247 H 115.667 0.0800767 -3.91718 0
M  V30 1248 H 117.364 -0.302709 -3.99856 0
M  V30 1249 H 113.954 -1.73419 -3.91949 0
M  V30 1250 H 118.138 -2.68054 -4.17685 0
M  V30 1251 H 113.394 -4.02946 -4.59831 0
M  V30 1252 H 117.568 -4.97895 -4.86902 0
M  V30 1253 H 115.195 -5.65855 -5.07654 0
M  V30 1254 N 116.77 1.45427 -0.607355 0
M  V30 1255 C 117.717 2.3053 0.111625 0
M  V30 1256 C 118.687 1.4209 0.860216 0
M  V30 1257 O 119.872 1.71019 0.845998 0
M  V30 1258 C 117.012 3.26992 1.10319 0
M  V30 1259 C 116.125 4.30535 0.355493 0
M  V30 1260 C 115.26 5.14105 1.33676 0
M  V30 1261 C 114.299 6.09376 0.576862 0
M  V30 1262 N 113.436 6.85727 1.5074 0
M  V30 1263 H 118.276 2.91477 -0.620093 0
M  V30 1264 H 115.813 1.43631 -0.317594 0
M  V30 1265 H 117.771 3.81385 1.6912 0
M  V30 1266 H 116.401 2.67799 1.80232 0
M  V30 1267 H 115.453 3.78805 -0.348023 0
M  V30 1268 H 116.765 4.98235 -0.237423 0
M  V30 1269 H 115.919 5.72897 1.99684 0
M  V30 1270 H 114.658 4.46423 1.9636 0
M  V30 1271 H 113.663 5.49715 -0.0968519 0
M  V30 1272 H 114.888 6.79085 -0.0449341 0
M  V30 1273 H 112.834 6.20735 2.12189 0
M  V30 1274 H 112.751 7.49778 0.967913 0
M  V30 1275 H 114.019 7.4906 2.15706 0
M  V30 1276 N 118.248 0.346503 1.53744 0
M  V30 1277 C 119.158 -0.517293 2.28826 0
M  V30 1278 C 120.174 -1.10935 1.3405 0
M  V30 1279 O 121.35 -1.1244 1.6709 0
M  V30 1280 C 118.415 -1.65098 3.04866 0
M  V30 1281 C 117.476 -1.0884 4.15274 0
M  V30 1282 C 116.709 -2.16806 4.87679 0
M  V30 1283 O 116.932 -3.3758 4.59778 0
M  V30 1284 O 115.866 -1.80934 5.74061 0
M  V30 1285 H 119.692 0.0931396 3.03557 0
M  V30 1286 H 117.277 0.111458 1.48984 0
M  V30 1287 H 119.159 -2.31053 3.5241 0
M  V30 1288 H 117.834 -2.24717 2.32989 0
M  V30 1289 H 116.741 -0.3933 3.72027 0
M  V30 1290 H 118.074 -0.537036 4.89261 0
M  V30 1291 N 119.726 -1.57421 0.075193 0
M  V30 1292 C 120.974 -1.93236 -0.591974 0
M  V30 1293 C 121.295 -0.956241 -1.69944 0
M  V30 1294 O 120.565 -0.00494792 -1.95899 0
M  V30 1295 H 119.145 -0.713355 -0.22166 0
M  V30 1296 H 121.807 -1.9444 0.133848 0
M  V30 1297 H 120.903 -2.95131 -1.01509 0
M  V30 1298 N 121.204 0.198386 -1.56346 0
M  V30 1299 C 122.167 1.22952 -1.93431 0
M  V30 1300 C 123.167 1.38611 -0.815092 0
M  V30 1301 O 124.357 1.36479 -1.08255 0
M  V30 1302 C 121.489 2.59946 -2.20546 0
M  V30 1303 H 122.682 0.912626 -2.85677 0
M  V30 1304 H 120.235 0.43977 -1.49986 0
M  V30 1305 H 120.97 2.96696 -1.30927 0
M  V30 1306 H 120.755 2.49953 -3.02102 0
M  V30 1307 H 122.245 3.3431 -2.50253 0
M  V30 1308 N 122.682 1.50554 0.465978 0
M  V30 1309 C 124.093 1.54599 1.04671 0
M  V30 1310 C 124.444 0.352488 1.93008 0
M  V30 1311 O 123.569 -0.534044 2.09707 0
M  V30 1312 C 124.164 2.80166 1.90505 0
M  V30 1313 C 122.723 2.86876 2.43678 0
M  V30 1314 C 121.87 2.48947 1.22151 0
M  V30 1315 H 124.821 1.56744 0.248384 0
M  V30 1316 H 124.842 2.62311 2.75633 0
M  V30 1317 H 124.354 3.67013 1.26186 0
M  V30 1318 H 122.455 2.04393 3.11536 0
M  V30 1319 H 122.568 3.89885 2.78436 0
M  V30 1320 H 120.932 2.01498 1.5579 0
M  V30 1321 H 121.715 3.38107 0.594866 0
M  V30 1322 N 124.16 -0.719506 1.40217 0
M  V30 1323 C 125.09 -1.8465 1.42922 0
M  V30 1324 C 126.071 -1.67599 0.29062 0
M  V30 1325 O 127.256 -1.87688 0.498677 0
M  V30 1326 C 124.386 -3.22565 1.28722 0
M  V30 1327 C 123.34 -3.54281 2.40144 0
M  V30 1328 C 122.666 -4.91298 2.11023 0
M  V30 1329 C 123.966 -3.55676 3.82481 0
M  V30 1330 H 125.66 -1.82644 2.37237 0
M  V30 1331 H 123.206 -0.877305 1.1419 0
M  V30 1332 H 125.159 -4.01095 1.29232 0
M  V30 1333 H 123.883 -3.25137 0.308811 0
M  V30 1334 H 122.542 -2.78088 2.38877 0
M  V30 1335 H 122.19 -4.90468 1.11582 0
M  V30 1336 H 121.89 -5.13485 2.8567 0
M  V30 1337 H 123.414 -5.72166 2.13209 0
M  V30 1338 H 124.828 -4.24254 3.85592 0
M  V30 1339 H 123.225 -3.89388 4.56614 0
M  V30 1340 H 124.295 -2.55144 4.12346 0
M  V30 1341 N 125.638 -1.25649 -0.95132 0
M  V30 1342 C 126.568 -1.08808 -2.06599 0
M  V30 1343 C 127.549 0.00382547 -1.701 0
M  V30 1344 O 128.734 -0.166325 -1.93486 0
M  V30 1345 C 125.864 -0.709542 -3.39975 0
M  V30 1346 C 124.818 -1.75206 -3.90496 0
M  V30 1347 C 124.144 -1.22811 -5.20405 0
M  V30 1348 C 125.444 -3.15153 -4.16504 0
M  V30 1349 H 127.138 -2.02048 -2.20946 0
M  V30 1350 H 124.684 -0.972835 -1.06169 0
M  V30 1351 H 126.637 -0.578649 -4.17408 0
M  V30 1352 H 125.361 0.258556 -3.25575 0
M  V30 1353 H 124.02 -1.87145 -3.15234 0
M  V30 1354 H 123.668 -0.250145 -5.02378 0
M  V30 1355 H 123.368 -1.92492 -5.55176 0
M  V30 1356 H 124.892 -1.10968 -6.00432 0
M  V30 1357 H 126.306 -3.06349 -4.84586 0
M  V30 1358 H 124.703 -3.82333 -4.62538 0
M  V30 1359 H 125.773 -3.61966 -3.22658 0
M  V30 1360 N 127.117 1.15442 -1.07289 0
M  V30 1361 C 128.345 1.90096 -0.81676 0
M  V30 1362 C 128.76 1.7798 0.629966 0
M  V30 1363 O 128.117 1.1313 1.43206 0
M  V30 1364 C 128.168 3.40466 -1.21512 0
M  V30 1365 O 127.889 3.52232 -2.60508 0
M  V30 1366 C 129.39 4.32145 -0.988198 0
M  V30 1367 H 126.61 0.602495 -0.295366 0
M  V30 1368 H 129.154 1.4627 -1.42918 0
M  V30 1369 H 127.309 3.81958 -0.647039 0
M  V30 1370 H 127.723 4.45549 -2.76742 0
M  V30 1371 H 129.197 5.36072 -1.31645 0
M  V30 1372 H 129.674 4.39135 0.0755063 0
M  V30 1373 H 130.28 3.96395 -1.54115 0
M  V30 1374 N 128.595 0.856903 1.32268 0
M  V30 1375 C 129.843 0.460474 1.96784 0
M  V30 1376 C 130.164 -0.987701 1.68135 0
M  V30 1377 O 129.434 -1.69058 0.989765 0
M  V30 1378 H 128.014 0.167289 0.728027 0
M  V30 1379 H 130.676 1.09383 1.61312 0
M  V30 1380 H 129.772 0.60739 3.06133 0
M  V30 1381 N 130.073 -1.45103 0.615059 0
M  V30 1382 C 131.02 -2.30586 -0.0993978 0
M  V30 1383 C 131.99 -1.42544 -0.852669 0
M  V30 1384 O 133.175 -1.71465 -0.836917 0
M  V30 1385 C 130.315 -3.27572 -1.08583 0
M  V30 1386 C 129.428 -4.30717 -0.332656 0
M  V30 1387 C 128.563 -5.14807 -1.30947 0
M  V30 1388 C 127.602 -6.09673 -0.544538 0
M  V30 1389 N 126.739 -6.86517 -1.47101 0
M  V30 1390 H 131.579 -2.91144 0.635542 0
M  V30 1391 H 129.116 -1.4346 0.325206 0
M  V30 1392 H 131.074 -3.82276 -1.67095 0
M  V30 1393 H 129.704 -2.68751 -1.78809 0
M  V30 1394 H 128.756 -3.78615 0.368107 0
M  V30 1395 H 130.068 -4.98102 0.263842 0
M  V30 1396 H 129.222 -5.73948 -1.96643 0
M  V30 1397 H 127.961 -4.47458 -1.9399 0
M  V30 1398 H 126.966 -5.49656 0.126003 0
M  V30 1399 H 128.191 -6.79052 0.080947 0
M  V30 1400 H 126.137 -6.21851 -2.08895 0
M  V30 1401 H 126.054 -7.50281 -0.928137 0
M  V30 1402 H 127.322 -7.50194 -2.11731 0
M  V30 1403 N 131.551 -0.354651 -1.53558 0
M  V30 1404 C 132.962 0.126902 -1.86268 0
M  V30 1405 C 133.313 1.49075 -1.27558 0
M  V30 1406 O 132.438 2.08105 -0.5934 0
M  V30 1407 C 133.033 0.237046 -3.3797 0
M  V30 1408 C 131.592 0.662842 -3.70518 0
M  V30 1409 C 130.739 -0.196652 -2.76602 0
M  V30 1410 H 133.69 -0.573849 -1.47962 0
M  V30 1411 H 133.711 1.06259 -3.65362 0
M  V30 1412 H 133.223 -0.755725 -3.80671 0
M  V30 1413 H 131.324 1.66424 -3.33367 0
M  V30 1414 H 131.437 0.445034 -4.77029 0
M  V30 1415 H 129.801 0.332763 -2.52517 0
M  V30 1416 H 130.584 -1.18676 -3.22135 0
M  V30 1417 N 133.029 1.57378 -0.0835403 0
M  V30 1418 C 133.992 2.12252 0.864959 0
M  V30 1419 C 134.992 1.04916 1.21858 0
M  V30 1420 O 136.182 1.30853 1.14991 0
M  V30 1421 C 133.314 2.63358 2.16461 0
M  V30 1422 H 134.507 2.97371 0.388676 0
M  V30 1423 H 132.06 1.55423 0.165317 0
M  V30 1424 H 132.795 1.81727 2.686 0
M  V30 1425 H 132.58 3.41826 1.92087 0
M  V30 1426 H 134.07 3.05847 2.84337 0
M  V30 1427 N 134.507 -0.190092 1.56449 0
M  V30 1428 C 135.735 -0.925772 1.85033 0
M  V30 1429 C 136.15 -1.76638 0.666658 0
M  V30 1430 O 135.507 -1.78822 -0.364565 0
M  V30 1431 C 135.558 -1.81786 3.12468 0
M  V30 1432 O 135.279 -1.01118 4.26271 0
M  V30 1433 C 136.78 -2.6648 3.54265 0
M  V30 1434 H 134 -0.269872 0.614337 0
M  V30 1435 H 136.544 -0.195837 2.0356 0
M  V30 1436 H 134.699 -2.50136 2.95822 0
M  V30 1437 H 135.113 -1.61956 4.98869 0
M  V30 1438 H 136.587 -3.24722 4.46385 0
M  V30 1439 H 137.064 -3.40434 2.77491 0
M  V30 1440 H 137.67 -2.03493 3.73458 0
M  V30 1441 N 135.985 -1.50799 -0.457987 0
M  V30 1442 C 136.915 -1.73553 -1.5621 0
M  V30 1443 C 137.896 -0.584774 -1.59732 0
M  V30 1444 O 139.081 -0.825314 -1.7579 0
M  V30 1445 C 136.211 -1.84169 -2.94447 0
M  V30 1446 C 135.165 -2.99461 -3.0579 0
M  V30 1447 C 134.491 -2.95235 -4.45803 0
M  V30 1448 C 135.791 -4.39766 -2.81786 0
M  V30 1449 H 137.485 -2.66 -1.37421 0
M  V30 1450 H 135.031 -1.28002 -0.659662 0
M  V30 1451 H 136.984 -1.98672 -3.71628 0
M  V30 1452 H 135.708 -0.883545 -3.14422 0
M  V30 1453 H 134.367 -2.8463 -2.31044 0
M  V30 1454 H 134.015 -1.97239 -4.62715 0
M  V30 1455 H 133.715 -3.72642 -4.54326 0
M  V30 1456 H 135.239 -3.11803 -5.24987 0
M  V30 1457 H 136.653 -4.55054 -3.4871 0
M  V30 1458 H 135.05 -5.18722 -3.0174 0
M  V30 1459 H 136.12 -4.51229 -1.7754 0
M  V30 1460 N 137.463 0.71206 -1.40597 0
M  V30 1461 C 138.874 1.29135 -1.34837 0
M  V30 1462 C 139.225 1.96186 -0.0235395 0
M  V30 1463 O 138.35 1.97768 0.878444 0
M  V30 1464 C 138.945 2.34827 -2.44217 0
M  V30 1465 C 137.504 2.88371 -2.41907 0
M  V30 1466 C 136.651 1.62202 -2.24913 0
M  V30 1467 H 139.602 0.507944 -1.50352 0
M  V30 1468 H 139.623 3.15749 -2.12327 0
M  V30 1469 H 139.135 1.85996 -3.40627 0
M  V30 1470 H 137.236 3.41422 -1.49204 0
M  V30 1471 H 137.349 3.39925 -3.37621 0
M  V30 1472 H 135.713 1.874 -1.72492 0
M  V30 1473 H 136.496 1.15391 -3.23326 0
M  V30 1474 N 138.941 1.26152 0.944643 0
M  V30 1475 C 139.874 1.01729 2.04271 0
M  V30 1476 C 140.852 -0.0568101 1.62501 0
M  V30 1477 O 142.036 0.0848987 1.88309 0
M  V30 1478 C 139.163 0.539792 3.34371 0
M  V30 1479 C 138.209 1.60593 3.9511 0
M  V30 1480 S 139.042 3.19392 4.29825 0
M  V30 1481 C 140.198 2.73402 5.63029 0
M  V30 1482 H 140.431 1.94703 2.24673 0
M  V30 1483 H 137.964 1.09793 1.08558 0
M  V30 1484 H 139.922 0.270956 4.09605 0
M  V30 1485 H 138.583 -0.369609 3.11918 0
M  V30 1486 H 137.776 1.22275 4.88943 0
M  V30 1487 H 137.378 1.82596 3.26397 0
M  V30 1488 H 139.67 2.1765 6.41588 0
M  V30 1489 H 140.613 3.65913 6.06229 0
M  V30 1490 H 141.021 2.13077 5.22741 0
M  V30 1491 N 140.419 -1.14872 1.07899 0
M  V30 1492 C 141.835 -1.37776 0.805606 0
M  V30 1493 C 142.035 -1.92743 -0.587555 0
M  V30 1494 O 141.091 -2.13678 -1.34528 0
M  V30 1495 C 142.404 -2.34361 1.88402 0
M  V30 1496 C 143.952 -2.48012 1.90942 0
M  V30 1497 C 144.427 -3.47893 2.97883 0
M  V30 1498 N 145.918 -3.55433 2.97021 0
M  V30 1499 C 146.653 -4.32553 3.76412 0
M  V30 1500 N 146.149 -5.12959 4.65666 0
M  V30 1501 N 147.942 -4.27697 3.64735 0
M  V30 1502 H 140.093 -0.775365 1.97742 0
M  V30 1503 H 142.356 -0.403521 0.857831 0
M  V30 1504 H 142.062 -2.01098 2.88535 0
M  V30 1505 H 141.936 -3.34206 1.74889 0
M  V30 1506 H 144.323 -2.8057 0.914579 0
M  V30 1507 H 144.404 -1.48147 2.08534 0
M  V30 1508 H 144.048 -3.16069 3.97571 0
M  V30 1509 H 143.978 -4.47527 2.77538 0
M  V30 1510 H 146.469 -2.98048 2.32326 0
M  V30 1511 H 146.782 -5.69065 5.22862 0
M  V30 1512 H 145.127 -5.12245 4.69712 0
M  V30 1513 H 148.318 -3.63949 2.94378 0
M  V30 1514 H 148.491 -4.8755 4.26848 0
M  V30 1515 N 141.898 -0.863906 -1.31812 0
M  V30 1516 C 142.861 -0.320212 -2.26952 0
M  V30 1517 C 143.861 0.525369 -1.51975 0
M  V30 1518 O 145.051 0.335547 -1.70938 0
M  V30 1519 C 142.183 0.545919 -3.365 0
M  V30 1520 H 143.376 -1.16004 -2.76556 0
M  V30 1521 H 140.929 -0.638995 -1.42641 0
M  V30 1522 H 141.664 1.40718 -2.92179 0
M  V30 1523 H 141.449 -0.0594674 -3.92055 0
M  V30 1524 H 142.939 0.918796 -4.07367 0
M  V30 1525 N 143.376 1.44774 -0.622745 0
M  V30 1526 C 144.653 1.95522 -0.0551974 0
M  V30 1527 C 145.033 1.5649 1.41683 0
M  V30 1528 O 144.381 0.834848 2.12703 0
M  V30 1529 C 144.591 3.4796 -0.269242 0
M  V30 1530 C 145.939 4.24306 -0.158014 0
M  V30 1531 O 146.963 3.55637 -0.200162 0
M  V30 1532 O 145.822 5.46471 -0.0558693 0
M  V30 1533 H 142.916 0.826556 0.0271015 0
M  V30 1534 H 145.462 1.54866 -0.693864 0
M  V30 1535 H 144.234 3.6939 -1.29099 0
M  V30 1536 H 143.857 3.95543 0.403966 0
M  V30 1537 N 144.854 0.36279 1.53368 0
M  V30 1538 C 145.764 -0.492994 2.29362 0
M  V30 1539 C 146.78 -1.09507 1.35219 0
M  V30 1540 O 147.956 -1.10662 1.68273 0
M  V30 1541 C 145.021 -1.61855 3.066 0
M  V30 1542 C 144.082 -1.04429 4.16405 0
M  V30 1543 C 143.315 -2.11621 4.89951 0
M  V30 1544 O 143.538 -3.32684 4.63333 0
M  V30 1545 O 142.472 -1.74835 5.75948 0
M  V30 1546 H 146.298 0.125331 3.03441 0
M  V30 1547 H 143.883 0.127253 1.48857 0
M  V30 1548 H 145.765 -2.27302 3.54841 0
M  V30 1549 H 144.44 -2.22233 2.3536 0
M  V30 1550 H 143.347 -0.353819 3.72423 0
M  V30 1551 H 144.68 -0.485113 4.89804 0
M  V30 1552 N 146.332 -1.57332 0.0918853 0
M  V30 1553 C 147.743 -1.81496 -0.437739 0
M  V30 1554 C 148.094 -1.00727 -1.6837 0
M  V30 1555 O 147.219 -0.235694 -2.15113 0
M  V30 1556 C 147.814 -3.29197 -0.800939 0
M  V30 1557 C 146.373 -3.54136 -1.27532 0
M  V30 1558 C 145.52 -2.75979 -0.270392 0
M  V30 1559 H 148.471 -1.55494 0.317366 0
M  V30 1560 H 148.492 -3.42344 -1.66074 0
M  V30 1561 H 148.004 -3.87955 0.106078 0
M  V30 1562 H 146.105 -3.00705 -2.20016 0
M  V30 1563 H 146.218 -4.62792 -1.23938 0
M  V30 1564 H 144.582 -2.43349 -0.751872 0
M  V30 1565 H 145.365 -3.37484 0.629248 0
M  V30 1566 N 147.81 0.181792 -1.56548 0
M  V30 1567 C 149.058 0.89832 -1.81038 0
M  V30 1568 C 149.379 1.83232 -0.667164 0
M  V30 1569 O 148.649 1.93372 0.313673 0
M  V30 1570 H 147.229 0.33471 -0.667816 0
M  V30 1571 H 149.891 0.184116 -1.94028 0
M  V30 1572 H 148.987 1.4815 -2.74696 0
M  V30 1573 N 149.288 1.51039 0.449983 0
M  V30 1574 C 150.565 1.53612 1.21089 0
M  V30 1575 C 150.945 0.292997 2.09057 0
M  V30 1576 O 150.293 -0.72259 2.16774 0
M  V30 1577 C 150.503 2.84337 2.0237 0
M  V30 1578 C 151.851 3.35807 2.59843 0
M  V30 1579 O 152.875 2.85802 2.12593 0
M  V30 1580 O 151.734 4.23029 3.45989 0
M  V30 1581 H 148.828 0.617057 0.550608 0
M  V30 1582 H 151.374 1.63344 0.460082 0
M  V30 1583 H 150.146 3.66278 1.37681 0
M  V30 1584 H 149.769 2.77708 2.84542 0
M  V30 1585 N 150.766 -0.704594 1.40972 0
M  V30 1586 C 152.182 -1.01406 1.23244 0
M  V30 1587 C 152.382 -2.01169 0.115399 0
M  V30 1588 O 151.438 -2.47021 -0.523147 0
M  V30 1589 C 152.751 -1.54728 2.57836 0
M  V30 1590 C 154.299 -1.66658 2.64942 0
M  V30 1591 C 154.774 -2.23383 3.9983 0
M  V30 1592 N 156.265 -2.30756 4.01629 0
M  V30 1593 C 157 -2.75655 5.02794 0
M  V30 1594 N 156.496 -3.20225 6.14352 0
M  V30 1595 N 158.289 -2.75138 4.90159 0
M  V30 1596 H 150.44 -0.0435285 2.12355 0
M  V30 1597 H 152.703 -0.0818951 0.944456 0
M  V30 1598 H 152.409 -0.888832 3.40283 0
M  V30 1599 H 152.283 -2.53084 2.79693 0
M  V30 1600 H 154.67 -2.31617 1.8286 0
M  V30 1601 H 154.751 -0.668717 2.46904 0
M  V30 1602 H 154.395 -1.59043 4.82357 0
M  V30 1603 H 154.325 -3.23904 4.15203 0
M  V30 1604 H 156.816 -1.99291 3.21079 0
M  V30 1605 H 157.129 -3.53084 6.87424 0
M  V30 1606 H 155.474 -3.18156 6.17901 0
M  V30 1607 H 158.665 -2.39661 4.02095 0
M  V30 1608 H 158.838 -3.09812 5.6914 0
M  V30 1609 N 152.244 -1.26651 -0.937939 0
M  V30 1610 C 153.177 -1.02811 -2.03728 0
M  V30 1611 C 154.155 0.0481915 -1.62529 0
M  V30 1612 O 155.339 -0.0948839 -1.88261 0
M  V30 1613 C 152.466 -0.557517 -3.3408 0
M  V30 1614 C 151.512 -1.62686 -3.94253 0
M  V30 1615 S 152.345 -3.21667 -4.28125 0
M  V30 1616 C 153.501 -2.76384 -5.61572 0
M  V30 1617 H 153.734 -1.95891 -2.23638 0
M  V30 1618 H 151.267 -1.10367 -1.07974 0
M  V30 1619 H 153.225 -0.292674 -4.09455 0
M  V30 1620 H 151.886 0.353062 -3.12109 0
M  V30 1621 H 151.079 -1.24866 -4.88287 0
M  V30 1622 H 150.681 -1.84324 -3.25424 0
M  V30 1623 H 152.973 -2.2105 -6.40424 0
M  V30 1624 H 153.916 -3.69123 -6.0428 0
M  V30 1625 H 154.324 -2.15847 -5.21604 0
M  V30 1626 N 153.722 1.14298 -1.08507 0
M  V30 1627 C 155.138 1.37347 -0.812901 0
M  V30 1628 C 155.338 1.93052 0.577325 0
M  V30 1629 O 154.394 2.14389 1.33393 0
M  V30 1630 C 155.707 2.33359 -1.89642 0
M  V30 1631 C 157.255 2.46996 -1.92255 0
M  V30 1632 C 157.73 3.46309 -2.99724 0
M  V30 1633 N 159.221 3.53853 -2.98902 0
M  V30 1634 C 159.956 4.3055 -3.787 0
M  V30 1635 N 159.452 5.10482 -4.6838 0
M  V30 1636 N 161.245 4.25757 -3.66998 0
M  V30 1637 H 153.396 0.764867 -1.9815 0
M  V30 1638 H 155.659 0.398966 -0.859959 0
M  V30 1639 H 155.365 1.99565 -2.89597 0
M  V30 1640 H 155.239 3.33274 -1.76659 0
M  V30 1641 H 157.626 2.80081 -0.929445 0
M  V30 1642 H 157.707 1.47039 -2.09316 0
M  V30 1643 H 157.351 3.13957 -3.99241 0
M  V30 1644 H 157.281 4.46049 -2.79907 0
M  V30 1645 H 159.772 2.96812 -2.33904 0
M  V30 1646 H 160.085 5.66284 -5.25873 0
M  V30 1647 H 158.43 5.09747 -4.72422 0
M  V30 1648 H 161.621 3.62383 -2.96304 0
M  V30 1649 H 161.794 4.85279 -4.29427 0
M  V30 1650 N 155.201 0.870884 1.31352 0
M  V30 1651 C 156.448 0.482273 1.96673 0
M  V30 1652 C 156.776 -0.965638 1.68836 0
M  V30 1653 O 156.031 -1.69514 0.977937 0
M  V30 1654 C 156.33 0.687157 3.50732 0
M  V30 1655 C 155.996 2.108 3.9859 0
M  V30 1656 C 154.658 2.49656 4.1137 0
M  V30 1657 C 157.01 3.03459 4.23748 0
M  V30 1658 C 154.338 3.80412 4.46659 0
M  V30 1659 C 156.69 4.3373 4.60501 0
M  V30 1660 C 155.354 4.725 4.71487 0
M  V30 1661 H 154.624 0.176476 0.719679 0
M  V30 1662 H 157.271 1.10405 1.56471 0
M  V30 1663 H 155.576 -0.0177476 3.91796 0
M  V30 1664 H 157.273 0.366284 3.99324 0
M  V30 1665 H 153.863 1.79633 3.8914 0
M  V30 1666 H 158.047 2.74665 4.13368 0
M  V30 1667 H 153.303 4.1021 4.53362 0
M  V30 1668 H 157.477 5.05578 4.78919 0
M  V30 1669 H 155.104 5.73859 4.98588 0
M  V30 1670 N 156.679 -1.44442 0.630414 0
M  V30 1671 C 157.907 -2.06414 0.141671 0
M  V30 1672 C 158.322 -1.47105 -1.18345 0
M  V30 1673 O 157.679 -0.593662 -1.72574 0
M  V30 1674 C 157.73 -3.61494 0.0199784 0
M  V30 1675 O 157.451 -4.18594 1.29269 0
M  V30 1676 C 158.952 -4.40499 -0.497544 0
M  V30 1677 H 156.172 -0.666292 0.0793452 0
M  V30 1678 H 158.716 -1.85323 0.864614 0
M  V30 1679 H 156.871 -3.8185 -0.653402 0
M  V30 1680 H 157.285 -5.12026 1.13707 0
M  V30 1681 H 158.759 -5.49433 -0.531708 0
M  V30 1682 H 159.236 -4.11895 -1.52445 0
M  V30 1683 H 159.842 -4.25061 0.142562 0
M  V30 1684 N 158.157 -0.370918 -1.53173 0
M  V30 1685 C 159.405 0.216673 -2.00935 0
M  V30 1686 C 159.726 1.48845 -1.25977 0
M  V30 1687 O 158.996 1.92286 -0.374551 0
M  V30 1688 H 157.576 0.0830565 -0.742368 0
M  V30 1689 H 160.238 -0.49838 -1.8842 0
M  V30 1690 H 159.334 0.439893 -3.08984 0
M  V30 1691 N 159.635 1.57281 -0.100228 0
M  V30 1692 C 160.86 1.99302 0.573881 0
M  V30 1693 C 161.285 0.979059 1.60611 0
M  V30 1694 O 160.643 -0.0517803 1.81226 0
M  V30 1695 C 160.691 3.40274 1.19358 0
M  V30 1696 O 159.795 3.41676 2.30935 0
M  V30 1697 H 159.136 0.647944 0.145138 0
M  V30 1698 H 161.666 2.03779 -0.183156 0
M  V30 1699 H 161.676 3.78078 1.53365 0
M  V30 1700 H 160.351 4.13594 0.437385 0
M  V30 1701 H 158.928 3.15672 1.98509 0
M  V30 1702 N 161.113 -0.173488 1.56642 0
M  V30 1703 C 162.359 -0.891784 1.8214 0
M  V30 1704 C 162.692 -1.8199 0.677736 0
M  V30 1705 O 161.967 -1.91842 -0.320446 0
M  V30 1706 C 162.25 -1.68933 3.18015 0
M  V30 1707 C 162.103 -0.784487 4.42906 0
M  V30 1708 C 163.422 -2.65748 3.50808 0
M  V30 1709 H 160.541 -0.322761 0.662567 0
M  V30 1710 H 163.183 -0.158095 1.89341 0
M  V30 1711 H 161.333 -2.31482 3.12007 0
M  V30 1712 H 163.005 -0.172046 4.60979 0
M  V30 1713 H 161.248 -0.0924117 4.33702 0
M  V30 1714 H 161.919 -1.37799 5.34524 0
M  V30 1715 H 164.395 -2.13327 3.57255 0
M  V30 1716 H 163.271 -3.18619 4.4696 0
M  V30 1717 H 163.532 -3.45842 2.75401 0
M  V30 1718 N 162.591 -1.51276 -0.441967 0
M  V30 1719 C 164.007 -1.39349 -0.778083 0
M  V30 1720 C 164.207 -0.472212 -1.95889 0
M  V30 1721 O 163.263 0.0743551 -2.5239 0
M  V30 1722 C 164.576 -2.81292 -1.0628 0
M  V30 1723 C 166.124 -2.9041 -1.16751 0
M  V30 1724 C 166.599 -4.33251 -1.48519 0
M  V30 1725 N 168.09 -4.36336 -1.55453 0
M  V30 1726 C 168.825 -5.43885 -1.81596 0
M  V30 1727 N 168.321 -6.61601 -2.05562 0
M  V30 1728 N 170.114 -5.3136 -1.8334 0
M  V30 1729 H 162.265 -2.09729 0.335774 0
M  V30 1730 H 164.528 -0.943925 0.0878028 0
M  V30 1731 H 164.234 -3.50678 -0.267905 0
M  V30 1732 H 164.108 -3.20334 -1.99163 0
M  V30 1733 H 166.495 -2.21225 -1.95304 0
M  V30 1734 H 166.576 -2.54871 -0.217801 0
M  V30 1735 H 166.22 -5.02984 -0.704958 0
M  V30 1736 H 166.15 -4.66299 -2.44689 0
M  V30 1737 H 168.641 -3.51466 -1.38853 0
M  V30 1738 H 168.954 -7.39361 -2.24867 0
M  V30 1739 H 167.299 -6.64725 -2.02894 0
M  V30 1740 H 170.49 -4.38382 -1.64132 0
M  V30 1741 H 170.663 -6.15258 -2.03377 0
M  V30 1742 N 164.069 0.697108 -1.41344 0
M  V30 1743 C 165.346 1.45154 -1.31109 0
M  V30 1744 C 165.726 2.11009 0.0620449 0
M  V30 1745 O 165.074 2.01571 1.07618 0
M  V30 1746 C 165.284 2.47223 -2.46337 0
M  V30 1747 C 166.632 3.1252 -2.87431 0
M  V30 1748 O 167.656 2.57547 -2.46065 0
M  V30 1749 O 166.515 4.12083 -3.58957 0
M  V30 1750 H 163.609 0.646365 -0.515889 0
M  V30 1751 H 166.155 0.727716 -1.53305 0
M  V30 1752 H 164.927 1.97204 -3.37974 0
M  V30 1753 H 164.55 3.27116 -2.2601 0
M  V30 1754 N 165.547 1.27147 0.931209 0
M  V30 1755 C 166.775 1.16082 1.71267 0
M  V30 1756 C 167.19 -0.282772 1.8667 0
M  V30 1757 O 166.547 -1.19283 1.38122 0
M  V30 1758 C 166.598 1.8358 3.11417 0
M  V30 1759 O 166.319 3.22299 2.96741 0
M  V30 1760 C 167.82 1.78597 4.05732 0
M  V30 1761 H 165.04 0.403758 0.535929 0
M  V30 1762 H 167.584 1.67953 1.16671 0
M  V30 1763 H 165.739 1.35623 3.62885 0
M  V30 1764 H 166.153 3.55851 3.85319 0
M  V30 1765 H 167.627 2.30444 5.01597 0
M  V30 1766 H 168.104 0.754564 4.3267 0
M  V30 1767 H 168.71 2.26152 3.60188 0
M  V30 1768 N 167.025 -1.13721 1.09112 0
M  V30 1769 C 168.25 -1.89314 0.847053 0
M  V30 1770 C 168.675 -1.78416 -0.595774 0
M  V30 1771 O 168.033 -1.12942 -1.41823 0
M  V30 1772 C 168.081 -3.3701 1.28284 0
M  V30 1773 O 167.185 -4.10054 0.439267 0
M  V30 1774 H 166.526 -0.588745 0.307044 0
M  V30 1775 H 169.056 -1.43902 1.45442 0
M  V30 1776 H 169.066 -3.87834 1.26683 0
M  V30 1777 H 167.741 -3.4426 2.33363 0
M  V30 1778 H 166.318 -3.69266 0.519312 0
M  V30 1779 N 168.503 -0.877838 -1.30888 0
M  V30 1780 C 169.751 -0.491723 -1.96027 0
M  V30 1781 C 170.072 0.960827 -1.69685 0
M  V30 1782 O 169.342 1.67462 -1.01654 0
M  V30 1783 H 167.922 -0.17885 -0.725273 0
M  V30 1784 H 170.584 -1.11935 -1.59551 0
M  V30 1785 H 169.68 -0.656016 -3.05128 0
M  V30 1786 N 169.982 1.44106 -0.638065 0
M  V30 1787 C 171.21 2.06336 -0.152615 0
M  V30 1788 C 171.625 1.47731 1.17563 0
M  V30 1789 O 170.982 0.602806 1.72257 0
M  V30 1790 C 171.033 3.61479 -0.0391491 0
M  V30 1791 O 170.754 4.17903 -1.31487 0
M  V30 1792 C 172.255 4.40757 0.474176 0
M  V30 1793 H 169.475 0.665862 -0.0828776 0
M  V30 1794 H 172.019 1.84862 -0.87443 0
M  V30 1795 H 170.174 3.82191 0.633142 0
M  V30 1796 H 170.588 5.11416 -1.16421 0
M  V30 1797 H 172.062 5.49707 0.502562 0
M  V30 1798 H 172.539 4.12697 1.50258 0
M  V30 1799 H 173.145 4.24979 -0.165102 0
M  V30 1800 N 171.46 0.379036 1.52974 0
M  V30 1801 C 172.871 -0.0972525 1.86447 0
M  V30 1802 C 173.222 -1.47027 1.29914 0
M  V30 1803 O 172.347 -2.07135 0.626433 0
M  V30 1804 C 172.942 -0.183248 3.38304 0
M  V30 1805 C 171.501 -0.603812 3.71525 0
M  V30 1806 C 170.648 0.240632 2.76254 0
M  V30 1807 H 173.599 0.597316 1.4703 0
M  V30 1808 H 173.62 -1.00432 3.67006 0
M  V30 1809 H 173.132 0.816191 3.79421 0
M  V30 1810 H 171.233 -1.61099 3.35973 0
M  V30 1811 H 171.346 -0.369086 4.77676 0
M  V30 1812 H 169.71 -0.292548 2.53014 0
M  V30 1813 H 170.493 1.23786 3.20206 0
M  V30 1814 N 172.938 -1.57226 0.108567 0
M  V30 1815 C 174.187 -1.94008 -0.551703 0
M  V30 1816 C 174.5 -0.993442 -1.68494 0
M  V30 1817 O 175.706 -1.25551 -2.40726 0
M  V30 1818 C 174.162 -3.44763 -1.03279 0
M  V30 1819 C 173.77 -4.47943 0.0714193 0
M  V30 1820 C 175.514 -3.90483 -1.66503 0
M  V30 1821 C 173.421 -5.89865 -0.425779 0
M  V30 1822 H 172.351 -0.724206 -0.209863 0
M  V30 1823 H 175.002 -1.82547 0.186741 0
M  V30 1824 H 173.384 -3.51422 -1.82533 0
M  V30 1825 H 174.558 -4.52942 0.847365 0
M  V30 1826 H 172.873 -4.11913 0.609669 0
M  V30 1827 H 175.47 -4.93925 -2.04798 0
M  V30 1828 H 175.813 -3.29877 -2.53942 0
M  V30 1829 H 176.346 -3.86581 -0.938074 0
M  V30 1830 H 173.085 -6.54202 0.412316 0
M  V30 1831 H 172.605 -5.88309 -1.16843 0
M  V30 1832 H 174.284 -6.40844 -0.890397 0
M  V30 1833 N 174.416 0.165178 -1.56732 0
M  V30 1834 C 175.644 0.896218 -1.86482 0
M  V30 1835 C 176.059 1.75555 -0.694675 0
M  V30 1836 O 175.416 1.79379 0.33607 0
M  V30 1837 C 175.467 1.76792 -3.1532 0
M  V30 1838 O 175.188 0.943239 -4.27825 0
M  V30 1839 C 176.689 2.6081 -3.58459 0
M  V30 1840 H 173.909 0.260064 -0.618553 0
M  V30 1841 H 176.453 0.163428 -2.03846 0
M  V30 1842 H 174.608 2.45398 -2.99764 0
M  V30 1843 H 175.022 1.53998 -5.01383 0
M  V30 1844 H 176.496 3.17579 -4.51495 0
M  V30 1845 H 176.973 3.35977 -2.82872 0
M  V30 1846 H 177.579 1.97526 -3.76648 0
M  V30 1847 N 175.894 1.51508 0.433938 0
M  V30 1848 C 177.142 1.6402 1.18075 0
M  V30 1849 C 177.463 0.360328 1.91642 0
M  V30 1850 O 176.733 -0.623945 1.85698 0
M  V30 1851 H 175.313 0.6045 0.43885 0
M  V30 1852 H 177.975 1.88452 0.497178 0
M  V30 1853 H 177.071 2.46949 1.90847 0
M  V30 1854 N 177.372 -0.689602 1.41712 0
M  V30 1855 C 178.335 -1.78521 1.43746 0
M  V30 1856 C 179.335 -1.57436 0.327191 0
M  V30 1857 O 180.525 -1.64 0.587348 0
M  V30 1858 C 177.657 -3.16971 1.25467 0
M  V30 1859 H 178.85 -1.78108 2.41283 0
M  V30 1860 H 176.403 -0.89781 1.27942 0
M  V30 1861 H 177.138 -3.23019 0.287948 0
M  V30 1862 H 176.923 -3.33678 2.05917 0
M  V30 1863 H 178.413 -3.96935 1.2974 0
M  V30 1864 N 178.85 -1.27639 -0.924453 0
M  V30 1865 C 180.096 -1.14336 -1.67497 0
M  V30 1866 C 180.429 0.309465 -1.91718 0
M  V30 1867 O 179.704 1.22608 -1.50989 0
M  V30 1868 C 179.987 -1.93096 -3.0395 0
M  V30 1869 C 179.84 -3.46381 -2.8695 0
M  V30 1870 C 181.159 -1.73798 -4.0433 0
M  V30 1871 H 178.278 -0.416728 -0.607871 0
M  V30 1872 H 180.92 -1.56832 -1.07256 0
M  V30 1873 H 179.07 -1.56982 -3.55372 0
M  V30 1874 H 180.742 -3.92343 -2.42621 0
M  V30 1875 H 178.985 -3.72557 -2.22225 0
M  V30 1876 H 179.656 -3.96735 -3.83804 0
M  V30 1877 H 182.132 -2.05293 -3.61931 0
M  V30 1878 H 181.008 -2.31294 -4.97789 0
M  V30 1879 H 181.269 -0.686725 -4.36734 0
M  V30 1880 N 180.328 1.1314 -1.09713 0
M  V30 1881 C 181.577 1.83838 -0.829851 0
M  V30 1882 C 181.89 1.84599 0.646728 0
M  V30 1883 O 183.096 2.51218 1.02965 0
M  V30 1884 C 181.552 3.30069 -1.43466 0
M  V30 1885 C 181.16 3.37688 -2.94399 0
M  V30 1886 C 182.904 4.05788 -1.24645 0
M  V30 1887 C 180.811 4.78209 -3.47952 0
M  V30 1888 H 179.741 0.68877 -0.306777 0
M  V30 1889 H 182.392 1.27448 -1.3202 0
M  V30 1890 H 180.774 3.8628 -0.871996 0
M  V30 1891 H 181.948 2.91456 -3.56918 0
M  V30 1892 H 180.263 2.75436 -3.12289 0
M  V30 1893 H 182.86 5.09535 -1.62107 0
M  V30 1894 H 183.203 4.15878 -0.187357 0
M  V30 1895 H 183.736 3.55915 -1.77678 0
M  V30 1896 H 180.475 4.73311 -4.53495 0
M  V30 1897 H 179.995 5.24924 -2.90198 0
M  V30 1898 H 181.674 5.47133 -3.45332 0
M  V30 1899 N 181.806 0.884767 1.30421 0
M  V30 1900 C 183.083 0.423185 1.90967 0
M  V30 1901 C 183.463 -1.09605 1.80416 0
M  V30 1902 O 182.811 -1.93126 1.22125 0
M  V30 1903 C 183.021 0.921056 3.36627 0
M  V30 1904 C 184.369 0.955903 4.137 0
M  V30 1905 O 185.393 0.867706 3.4547 0
M  V30 1906 O 184.252 1.08614 5.35598 0
M  V30 1907 H 181.346 0.129369 0.816819 0
M  V30 1908 H 183.892 0.973653 1.3899 0
M  V30 1909 H 182.664 1.96489 3.3839 0
M  V30 1910 H 182.287 0.349741 3.96059 0
M  V30 1911 N 183.284 -1.43765 0.645699 0
M  V30 1912 C 184.53 -2.02197 0.156271 0
M  V30 1913 C 184.863 -1.50776 -1.22393 0
M  V30 1914 O 184.138 -0.697771 -1.81553 0
M  V30 1915 C 184.421 -3.59749 0.158872 0
M  V30 1916 C 184.274 -4.21419 1.57245 0
M  V30 1917 C 185.593 -4.37149 -0.50879 0
M  V30 1918 H 182.712 -0.734694 0.0582602 0
M  V30 1919 H 185.354 -1.71157 0.824951 0
M  V30 1920 H 183.504 -3.86325 -0.410525 0
M  V30 1921 H 185.176 -4.059 2.19186 0
M  V30 1922 H 183.419 -3.78356 2.122 0
M  V30 1923 H 184.09 -5.30482 1.52619 0
M  V30 1924 H 186.566 -4.16093 -0.024412 0
M  V30 1925 H 185.442 -5.4683 -0.476213 0
M  V30 1926 H 185.703 -4.12839 -1.58165 0
M  V30 1927 N 184.763 -0.387143 -1.52771 0
M  V30 1928 C 186.009 0.188506 -2.02525 0
M  V30 1929 C 186.364 1.44649 -1.26864 0
M  V30 1930 O 185.657 1.88189 -0.359945 0
M  V30 1931 C 185.851 0.512209 -3.53711 0
M  V30 1932 C 185.68 -0.712855 -4.44014 0
M  V30 1933 C 184.45 -1.23147 -4.90064 0
M  V30 1934 C 186.648 -1.58453 -4.89282 0
M  V30 1935 N 184.63 -2.41431 -5.64433 0
M  V30 1936 C 186.001 -2.61381 -5.6221 0
M  V30 1937 C 188.056 -1.60488 -4.71326 0
M  V30 1938 C 186.759 -3.66227 -6.19088 0
M  V30 1939 C 188.785 -2.6424 -5.29085 0
M  V30 1940 C 188.147 -3.6589 -6.01917 0
M  V30 1941 H 184.246 0.0311236 -0.78138 0
M  V30 1942 H 186.83 -0.536548 -1.87161 0
M  V30 1943 H 185.001 1.20632 -3.69192 0
M  V30 1944 H 186.733 1.07482 -3.90166 0
M  V30 1945 H 183.488 -0.792795 -4.66917 0
M  V30 1946 H 183.912 -3.01274 -6.0627 0
M  V30 1947 H 188.554 -0.83247 -4.14524 0
M  V30 1948 H 186.272 -4.44337 -6.74974 0
M  V30 1949 H 189.858 -2.66695 -5.17074 0
M  V30 1950 H 188.738 -4.44855 -6.45813 0
M  V30 1951 N 186.241 1.57166 -0.116904 0
M  V30 1952 C 187.191 2.11756 0.845178 0
M  V30 1953 C 188.175 1.03783 1.22955 0
M  V30 1954 O 189.367 1.3002 1.20099 0
M  V30 1955 C 186.496 2.71886 2.09602 0
M  V30 1956 C 185.582 3.86937 1.7361 0
M  V30 1957 N 185.973 4.94073 1.08284 0
M  V30 1958 C 184.271 3.97082 2.03082 0
M  V30 1959 C 184.972 5.74477 0.913855 0
M  V30 1960 N 183.948 5.2423 1.43818 0
M  V30 1961 H 187.75 2.91967 0.336523 0
M  V30 1962 H 185.264 1.62174 0.0856332 0
M  V30 1963 H 187.261 3.09338 2.79492 0
M  V30 1964 H 185.921 1.93138 2.61013 0
M  V30 1965 H 186.932 5.12483 0.747067 0
M  V30 1966 H 183.609 3.29372 2.56554 0
M  V30 1967 H 184.999 6.70701 0.40125 0
M  V30 1968 N 187.719 -0.156864 1.56817 0
M  V30 1969 C 188.944 -0.890331 1.87318 0
M  V30 1970 C 189.369 -1.74394 0.704855 0
M  V30 1971 O 188.727 -1.77972 -0.345786 0
M  V30 1972 C 188.775 -1.73102 3.16336 0
M  V30 1973 O 187.879 -2.83422 2.99576 0
M  V30 1974 H 187.22 -0.24857 0.615718 0
M  V30 1975 H 189.75 -0.150649 2.04045 0
M  V30 1976 H 189.76 -2.12803 3.48107 0
M  V30 1977 H 188.435 -1.10412 4.00976 0
M  V30 1978 H 187.012 -2.47199 2.7919 0
M  V30 1979 N 189.197 -1.51736 -0.425897 0
M  V30 1980 C 190.425 -1.68794 -1.1965 0
M  V30 1981 C 190.84 -0.390164 -1.84725 0
M  V30 1982 O 190.197 0.632376 -1.71194 0
M  V30 1983 C 190.248 -2.81174 -2.27208 0
M  V30 1984 O 189.969 -4.05925 -1.64793 0
M  V30 1985 C 191.47 -3.09599 -3.17275 0
M  V30 1986 H 188.69 -0.566128 -0.360194 0
M  V30 1987 H 191.234 -1.98211 -0.503249 0
M  V30 1988 H 189.389 -2.54324 -2.9223 0
M  V30 1989 H 189.803 -4.68423 -2.35967 0
M  V30 1990 H 191.277 -3.91786 -3.88854 0
M  V30 1991 H 191.754 -2.22468 -3.78688 0
M  V30 1992 H 192.36 -3.38151 -2.57941 0
M  V30 1993 N 190.675 0.682077 -1.42076 0
M  V30 1994 C 191.623 1.81707 -1.45208 0
M  V30 1995 C 192.617 1.66183 -0.328591 0
M  V30 1996 O 193.823 1.7288 -0.501264 0
M  V30 1997 H 190.198 0.599014 -0.454628 0
M  V30 1998 H 192.169 1.76183 -2.40836 0
M  V30 1999 C 190.918 3.19816 -1.36428 0
M  V30 2000 H 190.241 3.32385 -2.22171 0
M  V30 2001 H 191.681 3.99272 -1.42681 0
M  V30 2002 C 190.14 3.36809 -0.078191 0
M  V30 2003 O 190.67 3.92124 0.87188 0
M  V30 2004 N 188.876 2.906 0.00229266 0
M  V30 2005 H 188.423 2.45772 -0.771616 0
M  V30 2006 H 188.381 3.02347 0.862179 0
M  V30 2007 N 192.153 1.28127 0.917671 0
M  V30 2008 C 193.43 1.05761 1.64542 0
M  V30 2009 C 193.81 -0.404344 2.07191 0
M  V30 2010 O 193.158 -1.38963 1.81388 0
M  V30 2011 C 193.368 2.02857 2.83989 0
M  V30 2012 C 194.716 2.32786 3.551 0
M  V30 2013 O 195.74 2.0091 2.94132 0
M  V30 2014 O 194.599 2.87169 4.64969 0
M  V30 2015 H 191.693 0.403916 0.721652 0
M  V30 2016 H 194.239 1.39431 0.967322 0
M  V30 2017 H 193.011 3.01407 2.49538 0
M  V30 2018 H 192.634 1.69809 3.59514 0
M  V30 2019 N 193.631 -1.12557 1.10312 0
M  V30 2020 C 194.879 -1.83675 0.843091 0
M  V30 2021 C 195.2 -1.84435 -0.633131 0
M  V30 2022 O 194.47 -1.30657 -1.45964 0
M  V30 2023 H 193.05 -0.680138 0.308904 0
M  V30 2024 H 195.712 -1.36301 1.39313 0
M  V30 2025 H 194.808 -2.87908 1.2048 0
M  V30 2026 N 195.109 -0.891671 -1.2995 0
M  V30 2027 C 196.057 -0.353066 -2.29905 0
M  V30 2028 C 197.051 0.543509 -1.60444 0
M  V30 2029 O 198.257 0.4272 -1.74857 0
M  V30 2030 H 194.632 -0.095531 -0.745907 0
M  V30 2031 H 196.603 -1.20961 -2.72784 0
M  V30 2032 C 195.352 0.411475 -3.45257 0
M  V30 2033 H 194.675 -0.269182 -3.98893 0
M  V30 2034 H 196.115 0.753328 -4.17254 0
M  V30 2035 C 194.574 1.6111 -2.9588 0
M  V30 2036 O 195.104 2.71045 -2.96475 0
M  V30 2037 N 193.31 1.45054 -2.51809 0
M  V30 2038 H 192.857 0.556175 -2.51524 0
M  V30 2039 H 192.815 2.25453 -2.1913 0
M  V30 2040 N 196.587 1.43421 -0.653314 0
M  V30 2041 C 197.817 2.05864 -0.174238 0
M  V30 2042 C 198.225 1.49052 1.16534 0
M  V30 2043 O 197.568 0.616481 1.73047 0
M  V30 2044 C 197.63 3.59499 -0.00875873 0
M  V30 2045 C 197.294 4.38893 -1.27364 0
M  V30 2046 C 198.291 4.70947 -2.20239 0
M  V30 2047 C 195.976 4.789 -1.51525 0
M  V30 2048 C 197.97 5.41916 -3.35568 0
M  V30 2049 C 195.657 5.49614 -2.67147 0
M  V30 2050 C 196.655 5.81044 -3.58994 0
M  V30 2051 O 196.343 6.50313 -4.72597 0
M  V30 2052 H 196.075 0.670345 -0.0872549 0
M  V30 2053 H 198.629 1.84913 -0.894226 0
M  V30 2054 H 196.859 3.79025 0.7666 0
M  V30 2055 H 198.548 4.0364 0.427687 0
M  V30 2056 H 199.314 4.40558 -2.02815 0
M  V30 2057 H 195.193 4.53843 -0.809158 0
M  V30 2058 H 198.737 5.66365 -4.07279 0
M  V30 2059 H 194.634 5.79419 -2.84505 0
M  V30 2060 H 195.402 6.68795 -4.71864 0
M  V30 2061 N 198.065 0.39524 1.52563 0
M  V30 2062 C 199.29 -0.187456 2.06551 0
M  V30 2063 C 199.715 -1.39249 1.26457 0
M  V30 2064 O 199.073 -1.78947 0.291151 0
M  V30 2065 C 199.121 -0.529985 3.56684 0
M  V30 2066 O 198.225 -1.62307 3.79118 0
M  V30 2067 H 197.566 -0.0202537 0.663691 0
M  V30 2068 H 200.096 0.564426 1.96661 0
M  V30 2069 H 200.106 -0.792598 4.00227 0
M  V30 2070 H 198.781 0.350987 4.14416 0
M  V30 2071 H 197.358 -1.3537 3.47461 0
M  V30 2072 N 199.544 -1.57102 0.125237 0
M  V30 2073 C 200.791 -1.95407 -0.531248 0
M  V30 2074 C 201.119 -1.0089 -1.66287 0
M  V30 2075 O 200.374 -0.0339431 -1.95671 0
M  V30 2076 C 200.673 -3.40096 -1.09862 0
M  V30 2077 C 200.339 -4.50815 -0.0876989 0
M  V30 2078 C 199.001 -4.80824 0.19026 0
M  V30 2079 C 201.353 -5.17724 0.600902 0
M  V30 2080 C 198.681 -5.75058 1.163 0
M  V30 2081 C 201.033 -6.13005 1.56231 0
M  V30 2082 C 199.697 -6.41403 1.8482 0
M  V30 2083 H 198.967 -0.715046 -0.194397 0
M  V30 2084 H 201.614 -1.90373 0.207463 0
M  V30 2085 H 199.919 -3.41855 -1.91422 0
M  V30 2086 H 201.616 -3.6705 -1.61478 0
M  V30 2087 H 198.206 -4.27444 -0.314528 0
M  V30 2088 H 202.39 -4.94691 0.399333 0
M  V30 2089 H 197.646 -5.95362 1.39117 0
M  V30 2090 H 201.82 -6.63934 2.10153 0
M  V30 2091 H 199.447 -7.14229 2.60349 0
M  V30 2092 N 201.022 0.148545 -1.56898 0
M  V30 2093 C 202.269 0.861418 -1.83264 0
M  V30 2094 C 202.597 1.81239 -0.705883 0
M  V30 2095 O 201.852 1.93305 0.305212 0
M  V30 2096 C 202.151 1.67064 -3.1595 0
M  V30 2097 C 201.817 0.866591 -4.42494 0
M  V30 2098 C 200.479 0.644762 -4.76861 0
M  V30 2099 C 202.831 0.30418 -5.20312 0
M  V30 2100 C 200.159 -0.15021 -5.86508 0
M  V30 2101 C 202.511 -0.477824 -6.30793 0
M  V30 2102 C 201.175 -0.710244 -6.63711 0
M  V30 2103 H 200.445 0.315215 -0.670612 0
M  V30 2104 H 203.092 0.125142 -1.91091 0
M  V30 2105 H 201.397 2.47698 -3.03567 0
M  V30 2106 H 203.094 2.22566 -3.33565 0
M  V30 2107 H 199.684 1.04955 -4.15551 0
M  V30 2108 H 203.868 0.462844 -4.94137 0
M  V30 2109 H 199.124 -0.339796 -6.10455 0
M  V30 2110 H 203.298 -0.92076 -6.90286 0
M  V30 2111 H 200.925 -1.3281 -7.48509 0
M  V30 2112 N 202.5 1.5196 0.417844 0
M  V30 2113 C 203.725 1.69717 1.1921 0
M  V30 2114 C 204.15 0.402148 1.83751 0
M  V30 2115 O 203.508 -0.639593 1.69643 0
M  V30 2116 C 203.556 2.82794 2.2374 0
M  V30 2117 O 202.66 2.47756 3.29683 0
M  V30 2118 H 202.001 0.565263 0.348387 0
M  V30 2119 H 204.531 1.98621 0.490985 0
M  V30 2120 H 204.541 3.07452 2.68212 0
M  V30 2121 H 203.216 3.76756 1.76146 0
M  V30 2122 H 201.793 2.33739 2.90552 0
M  V30 2123 N 203.978 -0.674533 1.42435 0
M  V30 2124 C 205.389 -1.25514 1.38214 0
M  V30 2125 C 205.74 -1.96055 0.0755464 0
M  V30 2126 O 204.865 -2.00028 -0.8257 0
M  V30 2127 C 205.46 -2.28269 2.50357 0
M  V30 2128 C 204.019 -2.81856 2.49467 0
M  V30 2129 C 203.166 -1.56182 2.29134 0
M  V30 2130 H 206.117 -0.467902 1.51646 0
M  V30 2131 H 206.138 -3.10009 2.20624 0
M  V30 2132 H 205.65 -1.769 3.45439 0
M  V30 2133 H 203.751 -3.37346 1.58204 0
M  V30 2134 H 203.864 -3.30854 3.46515 0
M  V30 2135 H 202.228 -1.82761 1.774 0
M  V30 2136 H 203.011 -1.06778 3.26272 0
M  V30 2137 N 205.456 -1.28612 -0.910864 0
M  V30 2138 C 206.419 -1.12803 -1.9952 0
M  V30 2139 C 207.419 -0.0668264 -1.60661 0
M  V30 2140 O 208.609 -0.312847 -1.71368 0
M  V30 2141 C 205.741 -0.72254 -3.33155 0
M  V30 2142 H 206.934 -2.09109 -2.14973 0
M  V30 2143 H 204.487 -1.11639 -1.09391 0
M  V30 2144 H 205.222 0.241152 -3.23402 0
M  V30 2145 H 205.007 -1.48916 -3.62721 0
M  V30 2146 H 206.497 -0.634666 -4.12749 0
M  V30 2147 N 206.934 1.1197 -1.10907 0
M  V30 2148 C 207.864 2.19928 -0.784473 0
M  V30 2149 C 208.845 1.6833 0.244726 0
M  V30 2150 O 210.03 1.93892 0.109418 0
M  V30 2151 C 207.16 3.46597 -0.220827 0
M  V30 2152 C 206.114 4.11376 -1.18127 0
M  V30 2153 C 205.44 5.32554 -0.478594 0
M  V30 2154 C 206.74 4.56945 -2.52979 0
M  V30 2155 H 208.434 2.47337 -1.68715 0
M  V30 2156 H 205.98 1.18879 -0.812642 0
M  V30 2157 H 207.933 4.21396 0.0184278 0
M  V30 2158 H 206.657 3.1863 0.717113 0
M  V30 2159 H 205.316 3.38564 -1.40606 0
M  V30 2160 H 204.964 5.00856 0.463976 0
M  V30 2161 H 204.664 5.76844 -1.11912 0
M  V30 2162 H 206.188 6.10096 -0.248 0
M  V30 2163 H 207.602 5.23093 -2.3462 0
M  V30 2164 H 205.999 5.1203 -3.12962 0
M  V30 2165 H 207.069 3.70676 -3.12614 0
M  V30 2166 N 208.412 0.89855 1.29475 0
M  V30 2167 C 209.823 0.572537 1.77705 0
M  V30 2168 C 210.174 -0.911778 1.73727 0
M  V30 2169 O 209.299 -1.71288 1.32247 0
M  V30 2170 C 209.894 1.03252 3.22683 0
M  V30 2171 C 208.453 0.757687 3.68695 0
M  V30 2172 C 207.6 1.20787 2.49612 0
M  V30 2173 H 210.551 1.08139 1.16153 0
M  V30 2174 H 210.572 0.367307 3.78723 0
M  V30 2175 H 210.084 2.11285 3.25546 0
M  V30 2176 H 208.185 -0.310079 3.71308 0
M  V30 2177 H 208.298 1.35476 4.59547 0
M  V30 2178 H 206.662 0.626888 2.46865 0
M  V30 2179 H 207.445 2.29622 2.55203 0
M  V30 2180 N 209.89 -1.43072 0.660911 0
M  V30 2181 C 211.167 -1.95307 0.107017 0
M  V30 2182 C 211.547 -1.60192 -1.37484 0
M  V30 2183 O 210.895 -0.890949 -2.10415 0
M  V30 2184 C 211.105 -3.47124 0.361402 0
M  V30 2185 C 212.453 -4.23738 0.270455 0
M  V30 2186 O 213.477 -3.54981 0.294382 0
M  V30 2187 O 212.336 -5.46131 0.200737 0
M  V30 2188 H 209.43 -0.826984 -0.00517729 0
M  V30 2189 H 211.976 -1.52972 0.734681 0
M  V30 2190 H 210.748 -3.65837 1.38848 0
M  V30 2191 H 210.371 -3.96475 -0.298953 0
M  V30 2192 N 211.368 -0.403325 -1.52352 0
M  V30 2193 C 212.3 0.4603 -2.2453 0
M  V30 2194 C 213.313 1.01505 -1.27282 0
M  V30 2195 O 214.502 0.914982 -1.53266 0
M  V30 2196 C 211.602 1.65208 -2.95905 0
M  V30 2197 C 210.775 1.22224 -4.19976 0
M  V30 2198 C 209.834 2.28028 -4.74226 0
M  V30 2199 O 208.86 1.88857 -5.36956 0
M  V30 2200 N 210.062 3.6012 -4.55295 0
M  V30 2201 H 212.827 -0.158156 -2.99282 0
M  V30 2202 H 210.388 -0.230402 -1.60252 0
M  V30 2203 H 212.38 2.35541 -3.29093 0
M  V30 2204 H 210.95 2.17658 -2.24374 0
M  V30 2205 H 210.17 0.34725 -3.92668 0
M  V30 2206 H 211.458 0.911924 -5.00561 0
M  V30 2207 H 210.856 3.94698 -4.05253 0
M  V30 2208 H 209.413 4.26447 -4.92936 0
M  V30 2209 N 212.846 1.57033 -0.133567 0
M  V30 2210 C 214.076 1.99754 0.527429 0
M  V30 2211 C 214.484 1.01245 1.59832 0
M  V30 2212 O 213.827 -0.000645496 1.837 0
M  V30 2213 C 213.889 3.38903 1.19939 0
M  V30 2214 C 213.553 4.56174 0.274709 0
M  V30 2215 C 214.55 5.17563 -0.492398 0
M  V30 2216 C 212.235 5.01972 0.18153 0
M  V30 2217 C 214.229 6.2315 -1.34027 0
M  V30 2218 C 211.916 6.07416 -0.669958 0
M  V30 2219 C 212.914 6.67874 -1.42947 0
M  V30 2220 O 212.602 7.71279 -2.2668 0
M  V30 2221 H 212.334 0.660702 0.142999 0
M  V30 2222 H 214.888 2.04207 -0.221099 0
M  V30 2223 H 213.118 3.31248 1.99528 0
M  V30 2224 H 214.807 3.65818 1.75875 0
M  V30 2225 H 215.573 4.83087 -0.430367 0
M  V30 2226 H 211.452 4.54652 0.762422 0
M  V30 2227 H 214.996 6.70268 -1.93357 0
M  V30 2228 H 210.893 6.41321 -0.73333 0
M  V30 2229 H 211.661 7.88441 -2.1978 0
M  V30 2230 N 214.325 -0.140222 1.56975 0
M  V30 2231 C 215.255 -1.17456 2.01808 0
M  V30 2232 C 216.236 -1.44415 0.898794 0
M  V30 2233 O 217.421 -1.5522 1.16707 0
M  V30 2234 C 214.551 -2.50607 2.40444 0
M  V30 2235 C 213.505 -2.38155 3.55621 0
M  V30 2236 C 212.831 -3.76078 3.80091 0
M  V30 2237 C 214.131 -1.85991 4.88062 0
M  V30 2238 H 215.825 -0.801743 2.88466 0
M  V30 2239 H 213.371 -0.38422 1.38779 0
M  V30 2240 H 215.324 -3.23197 2.7041 0
M  V30 2241 H 214.048 -2.89737 1.50732 0
M  V30 2242 H 212.707 -1.68016 3.25832 0
M  V30 2243 H 212.355 -4.12656 2.87618 0
M  V30 2244 H 212.055 -3.68606 4.57606 0
M  V30 2245 H 213.579 -4.50206 4.12488 0
M  V30 2246 H 214.993 -2.4838 5.16701 0
M  V30 2247 H 213.39 -1.89393 5.6943 0
M  V30 2248 H 214.46 -0.816023 4.77984 0
M  V30 2249 N 215.803 -1.52179 -0.40978 0
M  V30 2250 C 216.733 -1.78435 -1.5061 0
M  V30 2251 C 217.714 -0.635295 -1.57791 0
M  V30 2252 O 218.899 -0.880823 -1.73076 0
M  V30 2253 C 216.029 -1.93444 -2.88439 0
M  V30 2254 C 214.983 -3.09038 -2.96108 0
M  V30 2255 C 214.309 -3.09268 -4.36185 0
M  V30 2256 C 215.609 -4.48508 -2.67652 0
M  V30 2257 H 217.303 -2.70237 -1.28889 0
M  V30 2258 H 214.849 -1.30036 -0.618605 0
M  V30 2259 H 216.802 -2.10394 -3.65119 0
M  V30 2260 H 215.526 -0.983129 -3.11452 0
M  V30 2261 H 214.185 -2.91837 -2.21872 0
M  V30 2262 H 213.833 -2.11861 -4.56206 0
M  V30 2263 H 213.533 -3.86907 -4.42241 0
M  V30 2264 H 215.057 -3.28348 -5.14801 0
M  V30 2265 H 216.471 -4.65918 -3.34056 0
M  V30 2266 H 214.868 -5.28059 -2.85085 0
M  V30 2267 H 215.938 -4.56649 -1.63095 0
M  V30 2268 N 217.281 0.66697 -1.42791 0
M  V30 2269 C 218.697 0.981027 -1.25889 0
M  V30 2270 C 218.897 2.00793 -0.168695 0
M  V30 2271 O 217.953 2.48321 0.45747 0
M  V30 2272 C 219.266 1.47838 -2.61848 0
M  V30 2273 C 220.814 1.59575 -2.69267 0
M  V30 2274 C 221.289 2.12704 -4.05612 0
M  V30 2275 N 222.78 2.20026 -4.07606 0
M  V30 2276 C 223.515 2.62227 -5.09926 0
M  V30 2277 N 223.011 3.03824 -6.22626 0
M  V30 2278 N 224.804 2.62045 -4.97281 0
M  V30 2279 H 216.955 -0.0127891 -2.12396 0
M  V30 2280 H 219.218 0.0568258 -0.946295 0
M  V30 2281 H 218.924 0.798299 -3.4252 0
M  V30 2282 H 218.798 2.45579 -2.86305 0
M  V30 2283 H 221.185 2.26687 -1.88936 0
M  V30 2284 H 221.266 0.60302 -2.48591 0
M  V30 2285 H 220.91 1.46198 -4.86404 0
M  V30 2286 H 220.84 3.12782 -4.23645 0
M  V30 2287 H 223.331 1.90708 -3.2625 0
M  V30 2288 H 223.644 3.34734 -6.96544 0
M  V30 2289 H 221.989 3.01662 -6.26119 0
M  V30 2290 H 225.18 2.28916 -4.08308 0
M  V30 2291 H 225.353 2.94613 -5.77154 0
M  V30 2292 N 218.759 1.29093 0.90403 0
M  V30 2293 C 220.007 1.16583 1.65085 0
M  V30 2294 C 220.328 -0.283933 1.92922 0
M  V30 2295 O 219.598 -1.19509 1.55224 0
M  V30 2296 H 218.178 0.428467 0.611903 0
M  V30 2297 H 220.84 1.61959 1.08422 0
M  V30 2298 H 219.936 1.71266 2.6091 0
M  V30 2299 N 220.237 -1.11381 1.11499 0
M  V30 2300 C 221.653 -1.35143 0.849031 0
M  V30 2301 C 221.853 -1.94515 -0.525938 0
M  V30 2302 O 220.909 -2.1785 -1.27662 0
M  V30 2303 C 222.222 -2.28249 1.95762 0
M  V30 2304 C 223.77 -2.41812 1.98736 0
M  V30 2305 C 224.245 -3.3824 3.088 0
M  V30 2306 N 225.736 -3.45803 3.08179 0
M  V30 2307 C 226.471 -4.20358 3.89982 0
M  V30 2308 N 225.967 -4.97884 4.8175 0
M  V30 2309 N 227.76 -4.15877 3.78157 0
M  V30 2310 H 219.911 -0.712062 2.00109 0
M  V30 2311 H 222.174 -0.376025 0.870235 0
M  V30 2312 H 221.88 -1.91817 2.94787 0
M  V30 2313 H 221.754 -3.28473 1.85433 0
M  V30 2314 H 224.141 -2.77518 1.00338 0
M  V30 2315 H 224.222 -1.41437 2.13141 0
M  V30 2316 H 223.866 -3.03261 4.07425 0
M  V30 2317 H 223.796 -4.38471 2.91635 0
M  V30 2318 H 226.287 -2.90506 2.41691 0
M  V30 2319 H 226.6 -5.52142 5.40702 0
M  V30 2320 H 224.945 -4.97043 4.85771 0
M  V30 2321 H 228.136 -3.544 3.05808 0
M  V30 2322 H 228.309 -4.73723 4.42143 0
M  V30 2323 N 221.715 -0.905404 -1.28997 0
M  V30 2324 C 222.961 -0.535039 -1.95615 0
M  V30 2325 C 223.294 0.917404 -1.71165 0
M  V30 2326 O 222.569 1.65123 -1.02785 0
M  V30 2327 C 222.852 -0.834918 -3.50287 0
M  V30 2328 C 222.705 -2.33948 -3.84172 0
M  V30 2329 C 224.024 -0.325318 -4.38896 0
M  V30 2330 H 221.143 -0.195861 -0.710498 0
M  V30 2331 H 223.785 -1.13313 -1.52513 0
M  V30 2332 H 221.935 -0.325904 -3.87131 0
M  V30 2333 H 223.607 -2.91847 -3.57243 0
M  V30 2334 H 221.85 -2.79789 -3.31513 0
M  V30 2335 H 222.521 -2.49987 -4.92149 0
M  V30 2336 H 224.997 -0.761256 -4.09077 0
M  V30 2337 H 223.873 -0.564295 -5.45992 0
M  V30 2338 H 224.134 0.774144 -4.35269 0
M  V30 2339 N 223.193 1.4272 -0.668489 0
M  V30 2340 C 224.439 2.01923 -0.188419 0
M  V30 2341 C 224.772 1.52704 1.19979 0
M  V30 2342 O 224.047 0.726566 1.8042 0
M  V30 2343 C 224.33 3.59451 -0.216085 0
M  V30 2344 C 224.183 4.18864 -1.6393 0
M  V30 2345 C 225.502 4.37903 0.439179 0
M  V30 2346 H 222.621 0.733674 -0.0699412 0
M  V30 2347 H 225.263 1.69822 -0.852076 0
M  V30 2348 H 223.413 3.86929 0.349012 0
M  V30 2349 H 225.085 4.02362 -2.25616 0
M  V30 2350 H 223.328 3.74933 -2.18193 0
M  V30 2351 H 223.999 5.27987 -1.61039 0
M  V30 2352 H 226.475 4.16079 -0.0417878 0
M  V30 2353 H 225.351 5.47519 0.389157 0
M  V30 2354 H 225.612 4.15303 1.51577 0
M  V30 2355 N 224.671 0.411399 1.52136 0
M  V30 2356 C 226.082 -0.0576826 1.86611 0
M  V30 2357 C 226.433 -1.44238 1.33003 0
M  V30 2358 O 225.558 -2.05759 0.670228 0
M  V30 2359 C 226.153 -0.111448 3.38617 0
M  V30 2360 C 224.712 -0.52487 3.72723 0
M  V30 2361 C 223.859 0.299176 2.75681 0
M  V30 2362 H 226.81 0.628368 1.4573 0
M  V30 2363 H 226.831 -0.926252 3.69054 0
M  V30 2364 H 226.343 0.896488 3.77604 0
M  V30 2365 H 224.444 -1.53936 3.39315 0
M  V30 2366 H 224.557 -0.267681 4.78352 0
M  V30 2367 H 222.921 -0.238814 2.53578 0
M  V30 2368 H 223.704 1.3055 3.17508 0
M  V30 2369 N 226.149 -1.5696 0.141893 0
M  V30 2370 C 227.112 -2.15316 -0.785587 0
M  V30 2371 C 228.112 -1.09366 -1.1788 0
M  V30 2372 O 229.302 -1.35031 -1.10056 0
M  V30 2373 C 226.434 -2.71211 -2.06537 0
M  V30 2374 H 227.627 -2.98608 -0.278041 0
M  V30 2375 H 225.18 -1.5593 -0.107519 0
M  V30 2376 H 225.915 -1.91571 -2.6167 0
M  V30 2377 H 225.7 -3.4872 -1.79268 0
M  V30 2378 H 227.19 -3.16189 -2.72789 0
M  V30 2379 N 227.627 0.131896 -1.57047 0
M  V30 2380 C 228.537 1.1815 -2.02676 0
M  V30 2381 C 229.553 1.46113 -0.944824 0
M  V30 2382 O 230.729 1.57485 -1.25541 0
M  V30 2383 C 227.794 2.49139 -2.41103 0
M  V30 2384 C 226.855 2.28688 -3.63318 0
M  V30 2385 C 226.088 3.53431 -3.99903 0
M  V30 2386 O 226.311 4.60223 -3.36973 0
M  V30 2387 O 225.245 3.45198 -4.93074 0
M  V30 2388 H 229.071 0.824069 -2.92306 0
M  V30 2389 H 226.656 0.341745 -1.45439 0
M  V30 2390 H 228.538 3.26338 -2.66611 0
M  V30 2391 H 227.213 2.84382 -1.54624 0
M  V30 2392 H 226.12 1.4939 -3.42977 0
M  V30 2393 H 227.453 1.98355 -4.50462 0
M  V30 2394 N 229.106 1.52395 0.401703 0
M  V30 2395 C 230.383 1.57387 1.16141 0
M  V30 2396 C 230.763 0.359359 2.08019 0
M  V30 2397 O 230.111 -0.65326 2.18963 0
M  V30 2398 C 230.321 2.90631 1.93221 0
M  V30 2399 C 231.669 3.43904 2.49028 0
M  V30 2400 O 232.693 2.92421 2.03393 0
M  V30 2401 O 231.552 4.33823 3.32356 0
M  V30 2402 H 228.646 0.634262 0.530698 0
M  V30 2403 H 231.192 1.64725 0.407883 0
M  V30 2404 H 229.964 3.70473 1.25958 0
M  V30 2405 H 229.587 2.8662 2.75563 0
M  V30 2406 N 230.584 -0.659388 1.43143 0
M  V30 2407 C 231.832 -1.41654 1.44147 0
M  V30 2408 C 232.153 -1.94893 0.0645739 0
M  V30 2409 O 231.423 -1.74044 -0.899198 0
M  V30 2410 H 230.003 -0.525708 0.530697 0
M  V30 2411 H 232.665 -0.778097 1.78694 0
M  V30 2412 H 231.761 -2.26195 2.1504 0
M  V30 2413 N 232.062 -1.29571 -0.897171 0
M  V30 2414 C 233.287 -1.20705 -1.68656 0
M  V30 2415 C 233.712 0.228582 -1.86706 0
M  V30 2416 O 233.07 1.16494 -1.3892 0
M  V30 2417 C 233.118 -1.9282 -3.04717 0
M  V30 2418 O 232.222 -1.24697 -3.93096 0
M  V30 2419 H 231.563 -0.418126 -0.515816 0
M  V30 2420 H 234.093 -1.71183 -1.12061 0
M  V30 2421 H 234.103 -2.01372 -3.54843 0
M  V30 2422 H 232.778 -2.97239 -2.90899 0
M  V30 2423 H 231.355 -1.2442 -3.51531 0
M  V30 2424 N 233.54 1.10788 -1.12088 0
M  V30 2425 C 234.789 1.82036 -0.868659 0
M  V30 2426 C 235.102 1.85929 0.607426 0
M  V30 2427 O 236.308 2.53346 0.97613 0
M  V30 2428 C 234.764 3.26951 -1.50435 0
M  V30 2429 C 234.372 3.31367 -3.01496 0
M  V30 2430 C 236.116 4.03053 -1.33225 0
M  V30 2431 C 234.023 4.7072 -3.58017 0
M  V30 2432 H 232.953 0.682108 -0.321318 0
M  V30 2433 H 235.604 1.24618 -1.34694 0
M  V30 2434 H 233.986 3.84343 -0.953735 0
M  V30 2435 H 235.16 2.83819 -3.6302 0
M  V30 2436 H 233.475 2.6875 -3.18061 0
M  V30 2437 H 236.072 5.05981 -1.72878 0
M  V30 2438 H 236.415 4.15387 -0.275529 0
M  V30 2439 H 236.948 3.52066 -1.85188 0
M  V30 2440 H 233.687 4.63585 -4.63432 0
M  V30 2441 H 233.207 5.1865 -3.01268 0
M  V30 2442 H 234.886 5.39685 -3.56859 0
M  V30 2443 N 235.018 0.912232 1.28515 0
M  V30 2444 C 235.928 0.404506 2.31086 0
M  V30 2445 C 236.944 -0.50707 1.66448 0
M  V30 2446 O 238.12 -0.393624 1.97516 0
M  V30 2447 C 235.185 -0.348572 3.44943 0
M  V30 2448 C 234.246 0.59604 4.25142 0
M  V30 2449 C 233.479 -0.121194 5.33562 0
M  V30 2450 O 233.702 -1.34317 5.5436 0
M  V30 2451 O 232.636 0.542716 5.99448 0
M  V30 2452 H 236.462 1.25579 2.76521 0
M  V30 2453 H 234.047 0.676998 1.33181 0
M  V30 2454 H 235.929 -0.77395 4.14232 0
M  V30 2455 H 234.604 -1.17571 3.01594 0
M  V30 2456 H 233.511 1.07079 3.58448 0
M  V30 2457 H 234.844 1.38995 4.72167 0
M  V30 2458 N 236.496 -1.42363 0.676048 0
M  V30 2459 C 237.743 -2.01522 0.19883 0
M  V30 2460 C 238.071 -1.53456 -1.19505 0
M  V30 2461 O 237.326 -0.727967 -1.81657 0
M  V30 2462 C 237.625 -3.56929 0.183431 0
M  V30 2463 C 237.291 -4.24431 1.52215 0
M  V30 2464 C 235.953 -4.42585 1.8887 0
M  V30 2465 C 238.305 -4.62459 2.40377 0
M  V30 2466 C 235.633 -4.96039 3.13309 0
M  V30 2467 C 237.985 -5.17294 3.64129 0
M  V30 2468 C 236.649 -5.33661 4.00951 0
M  V30 2469 H 235.919 -0.737419 0.0727571 0
M  V30 2470 H 238.566 -1.70531 0.871281 0
M  V30 2471 H 236.871 -3.87594 -0.572532 0
M  V30 2472 H 238.568 -4.00486 -0.203035 0
M  V30 2473 H 235.158 -4.10661 1.22701 0
M  V30 2474 H 239.342 -4.48105 2.13343 0
M  V30 2475 H 234.598 -5.06896 3.41857 0
M  V30 2476 H 238.772 -5.45704 4.32644 0
M  V30 2477 H 236.399 -5.74845 4.9745 0
M  V30 2478 N 237.974 -0.419461 -1.51915 0
M  V30 2479 C 238.924 0.418496 -2.24126 0
M  V30 2480 C 239.908 1.00495 -1.25656 0
M  V30 2481 O 241.1 0.926058 -1.50842 0
M  V30 2482 C 238.229 1.52899 -3.07371 0
M  V30 2483 C 237.315 0.952797 -4.13258 0
M  V30 2484 N 237.706 0.104175 -5.05693 0
M  V30 2485 C 236.004 1.22224 -4.28926 0
M  V30 2486 C 236.705 -0.21752 -5.81293 0
M  V30 2487 N 235.681 0.394293 -5.42168 0
M  V30 2488 H 239.483 -0.236048 -2.92951 0
M  V30 2489 H 236.997 -0.230481 -1.60756 0
M  V30 2490 H 238.994 2.14199 -3.57665 0
M  V30 2491 H 237.654 2.18605 -2.40088 0
M  V30 2492 H 238.665 -0.260924 -5.17242 0
M  V30 2493 H 235.342 1.87812 -3.72871 0
M  V30 2494 H 236.732 -0.906992 -6.6575 0
M  V30 2495 N 239.452 1.56882 -0.150215 0
M  V30 2496 C 240.677 2.01027 0.510184 0
M  V30 2497 C 241.102 1.02966 1.57415 0
M  V30 2498 O 240.46 0.00590158 1.81299 0
M  V30 2499 C 240.508 3.43899 1.08472 0
M  V30 2500 O 239.612 3.4885 2.19948 0
M  V30 2501 H 238.953 0.652233 0.124451 0
M  V30 2502 H 241.483 2.03093 -0.247894 0
M  V30 2503 H 241.493 3.82766 1.41259 0
M  V30 2504 H 240.168 4.14776 0.305582 0
M  V30 2505 H 238.745 3.21827 1.88366 0
M  V30 2506 N 240.93 -0.123565 1.57115 0
M  V30 2507 C 242.179 -0.830704 1.83799 0
M  V30 2508 C 242.492 -1.81259 0.735158 0
M  V30 2509 O 243.698 -2.56558 0.888278 0
M  V30 2510 C 242.154 -1.52802 3.25852 0
M  V30 2511 C 241.762 -0.587356 4.44133 0
M  V30 2512 C 243.506 -2.22056 3.61789 0
M  V30 2513 C 241.413 -1.28764 5.77212 0
M  V30 2514 H 240.343 -0.313967 0.685522 0
M  V30 2515 H 242.994 -0.0834359 1.8331 0
M  V30 2516 H 241.376 -2.32175 3.20797 0
M  V30 2517 H 242.55 0.172829 4.60476 0
M  V30 2518 H 240.865 -0.00201892 4.164 0
M  V30 2519 H 243.462 -2.75131 4.58483 0
M  V30 2520 H 243.805 -2.99644 2.88997 0
M  V30 2521 H 244.338 -1.49576 3.68608 0
M  V30 2522 H 241.077 -0.55314 6.53162 0
M  V30 2523 H 240.597 -2.01995 5.64764 0
M  V30 2524 H 242.276 -1.8221 6.20813 0
M  V30 2525 N 242.408 -1.52605 -0.393616 0
M  V30 2526 C 243.824 -1.41753 -0.733357 0
M  V30 2527 C 244.024 -0.534293 -1.94287 0
M  V30 2528 O 243.08 -0.0059787 -2.52499 0
M  V30 2529 C 244.393 -2.84531 -0.972772 0
M  V30 2530 C 245.941 -2.93978 -1.07453 0
M  V30 2531 C 246.416 -4.37756 -1.3466 0
M  V30 2532 N 247.907 -4.4106 -1.41492 0
M  V30 2533 C 248.642 -5.49387 -1.642 0
M  V30 2534 N 248.138 -6.67806 -1.8441 0
M  V30 2535 N 249.931 -5.36923 -1.66342 0
M  V30 2536 H 242.082 -2.08555 0.402328 0
M  V30 2537 H 244.345 -0.940654 0.117789 0
M  V30 2538 H 244.051 -3.51353 -0.156204 0
M  V30 2539 H 243.925 -3.26508 -1.88871 0
M  V30 2540 H 246.312 -2.27326 -1.88167 0
M  V30 2541 H 246.393 -2.55435 -0.136605 0
M  V30 2542 H 246.037 -5.04972 -0.544581 0
M  V30 2543 H 245.967 -4.73848 -2.2973 0
M  V30 2544 H 248.458 -3.55705 -1.27601 0
M  V30 2545 H 248.771 -7.46141 -2.01231 0
M  V30 2546 H 247.116 -6.70843 -1.81644 0
M  V30 2547 H 250.307 -4.43381 -1.50102 0
M  V30 2548 H 250.48 -6.21416 -1.837 0
M  V30 2549 N 243.887 0.651787 -1.4349 0
M  V30 2550 C 245.298 1.233 -1.40193 0
M  V30 2551 C 245.649 1.9591 -0.106727 0
M  V30 2552 O 244.774 2.01316 0.793773 0
M  V30 2553 C 245.369 2.24257 -2.53957 0
M  V30 2554 C 243.928 2.77852 -2.5392 0
M  V30 2555 C 243.075 1.52517 -2.3159 0
M  V30 2556 H 246.026 0.443717 -1.52371 0
M  V30 2557 H 246.047 3.0646 -2.25528 0
M  V30 2558 H 245.559 1.71382 -3.4821 0
M  V30 2559 H 243.66 3.34786 -1.63551 0
M  V30 2560 H 243.773 3.25299 -3.51735 0
M  V30 2561 H 242.137 1.79915 -1.80285 0
M  V30 2562 H 242.92 1.01574 -3.27929 0
M  V30 2563 N 245.365 1.30045 0.890287 0
M  V30 2564 C 246.611 1.18737 1.64406 0
M  V30 2565 C 246.944 -0.258525 1.92472 0
M  V30 2566 O 246.219 -1.18562 1.54186 0
M  V30 2567 C 246.502 2.01087 2.98724 0
M  V30 2568 C 246.355 3.53867 2.77665 0
M  V30 2569 C 247.674 1.84457 3.9958 0
M  V30 2570 H 244.793 0.432698 0.596608 0
M  V30 2571 H 247.435 1.5962 1.0306 0
M  V30 2572 H 245.585 1.66349 3.51084 0
M  V30 2573 H 247.257 3.98637 2.32133 0
M  V30 2574 H 245.5 3.78318 2.12269 0
M  V30 2575 H 246.171 4.06772 3.7315 0
M  V30 2576 H 248.647 2.14817 3.56361 0
M  V30 2577 H 247.523 2.44411 4.91482 0
M  V30 2578 H 247.784 0.802276 4.3476 0
M  V30 2579 N 246.843 -1.10192 1.12674 0
M  V30 2580 C 248.254 -1.63707 0.897604 0
M  V30 2581 C 248.605 -1.87812 -0.567546 0
M  V30 2582 O 247.73 -1.62196 -1.43253 0
M  V30 2583 C 248.325 -2.974 1.62292 0
M  V30 2584 C 246.884 -3.47772 1.43986 0
M  V30 2585 C 246.031 -2.22332 1.65722 0
M  V30 2586 H 248.982 -0.936587 1.28116 0
M  V30 2587 H 249.003 -3.64986 1.07541 0
M  V30 2588 H 248.515 -2.79824 2.68924 0
M  V30 2589 H 246.616 -3.70487 0.396206 0
M  V30 2590 H 246.729 -4.25723 2.19765 0
M  V30 2591 H 245.093 -2.30599 1.08149 0
M  V30 2592 H 245.876 -2.07285 2.73657 0
M  V30 2593 N 248.321 -0.919034 -1.28029 0
M  V30 2594 C 249.551 -0.570143 -1.98577 0
M  V30 2595 C 249.959 0.854172 -1.68821 0
M  V30 2596 O 249.302 1.57807 -0.940351 0
M  V30 2597 C 249.364 -0.705734 -3.52505 0
M  V30 2598 C 249.028 -2.10057 -4.05863 0
M  V30 2599 C 250.025 -3.07385 -4.19298 0
M  V30 2600 C 247.71 -2.41517 -4.40426 0
M  V30 2601 C 249.704 -4.34287 -4.66555 0
M  V30 2602 C 247.391 -3.68657 -4.87376 0
M  V30 2603 C 248.389 -4.64856 -5.00398 0
M  V30 2604 O 248.077 -5.89735 -5.46322 0
M  V30 2605 H 247.809 -0.215592 -0.6407 0
M  V30 2606 H 250.363 -1.23583 -1.64062 0
M  V30 2607 H 248.593 0.0170414 -3.86696 0
M  V30 2608 H 250.282 -0.363172 -4.04272 0
M  V30 2609 H 251.048 -2.84398 -3.92865 0
M  V30 2610 H 246.927 -1.67389 -4.29537 0
M  V30 2611 H 250.471 -5.09377 -4.76635 0
M  V30 2612 H 246.368 -3.91466 -5.13249 0
M  V30 2613 H 247.136 -5.92599 -5.64596 0
M  V30 2614 N 249.799 1.42003 -0.683588 0
M  V30 2615 C 250.709 2.34597 -0.0109075 0
M  V30 2616 C 251.725 1.55576 0.779245 0
M  V30 2617 O 252.901 1.88107 0.719555 0
M  V30 2618 C 249.966 3.34199 0.922588 0
M  V30 2619 C 249.027 4.29115 0.125984 0
M  V30 2620 C 248.26 5.23959 1.01502 0
M  V30 2621 O 248.483 5.23952 2.25456 0
M  V30 2622 O 247.417 6.00053 0.47111 0
M  V30 2623 H 251.243 2.93675 -0.773853 0
M  V30 2624 H 248.828 1.42654 -0.443861 0
M  V30 2625 H 250.71 3.95365 1.45823 0
M  V30 2626 H 249.385 2.77582 1.66523 0
M  V30 2627 H 248.292 3.71335 -0.453969 0
M  V30 2628 H 249.625 4.88798 -0.577736 0
M  V30 2629 N 251.277 0.427512 1.51691 0
M  V30 2630 C 252.526 -0.143679 2.01188 0
M  V30 2631 C 252.839 -1.44642 1.31674 0
M  V30 2632 O 254.045 -2.09997 1.72086 0
M  V30 2633 C 252.501 -0.306602 3.58592 0
M  V30 2634 C 252.109 0.985125 4.37035 0
M  V30 2635 C 253.853 -0.832091 4.16265 0
M  V30 2636 C 251.76 0.788382 5.86122 0
M  V30 2637 H 250.69 -0.0574701 0.751807 0
M  V30 2638 H 253.341 0.555772 1.74881 0
M  V30 2639 H 251.723 -1.06882 3.81303 0
M  V30 2640 H 252.897 1.75492 4.26074 0
M  V30 2641 H 251.212 1.4384 3.90767 0
M  V30 2642 H 253.809 -0.995617 5.25349 0
M  V30 2643 H 254.152 -1.81186 3.74803 0
M  V30 2644 H 254.685 -0.128444 3.97593 0
M  V30 2645 H 251.424 1.74025 6.31978 0
M  V30 2646 H 250.944 0.0582143 5.99772 0
M  V30 2647 H 252.623 0.437722 6.45518 0
M  V30 2648 N 252.755 -1.56801 0.158532 0
M  V30 2649 C 254.166 -1.83189 -0.360366 0
M  V30 2650 C 254.517 -1.07778 -1.63946 0
M  V30 2651 O 253.642 -0.326718 -2.13919 0
M  V30 2652 C 254.237 -3.32297 -0.660595 0
M  V30 2653 C 252.796 -3.59227 -1.12398 0
M  V30 2654 C 251.943 -2.76877 -0.153097 0
M  V30 2655 H 254.894 -1.54008 0.383031 0
M  V30 2656 H 254.915 -3.4908 -1.51405 0
M  V30 2657 H 254.427 -3.87156 0.270527 0
M  V30 2658 H 252.528 -3.09766 -2.07064 0
M  V30 2659 H 252.641 -4.67632 -1.04197 0
M  V30 2660 H 251.005 -2.46319 -0.647983 0
M  V30 2661 H 251.788 -3.34511 0.77182 0
M  V30 2662 N 254.233 0.115231 -1.57178 0
M  V30 2663 C 255.18 1.14115 -2.00615 0
M  V30 2664 C 256.15 1.40939 -0.878941 0
M  V30 2665 O 257.335 1.52741 -1.14345 0
M  V30 2666 C 254.475 2.46156 -2.4187 0
M  V30 2667 C 253.588 2.26236 -3.68024 0
M  V30 2668 C 252.723 3.51534 -3.98243 0
M  V30 2669 C 251.762 3.26787 -5.17568 0
M  V30 2670 N 250.899 4.44298 -5.43639 0
M  V30 2671 H 255.739 0.763743 -2.88047 0
M  V30 2672 H 253.276 0.365615 -1.42484 0
M  V30 2673 H 255.234 3.23189 -2.63827 0
M  V30 2674 H 253.864 2.81783 -1.57475 0
M  V30 2675 H 252.916 1.40102 -3.5366 0
M  V30 2676 H 254.228 2.03929 -4.55208 0
M  V30 2677 H 253.382 4.36984 -4.20868 0
M  V30 2678 H 252.121 3.76876 -3.09541 0
M  V30 2679 H 251.126 2.39729 -4.94783 0
M  V30 2680 H 252.351 3.02812 -6.0785 0
M  V30 2681 H 250.297 4.69754 -4.57895 0
M  V30 2682 H 250.214 4.25109 -6.25154 0
M  V30 2683 H 251.482 5.3087 -5.70786 0
M  V30 2684 N 255.711 1.52812 0.385517 0
M  V30 2685 C 256.674 1.77188 1.45386 0
M  V30 2686 C 257.674 0.641953 1.4743 0
M  V30 2687 O 258.864 0.910033 1.4854 0
M  V30 2688 C 255.996 1.87582 2.8465 0
M  V30 2689 H 257.189 2.72583 1.25054 0
M  V30 2690 H 254.742 1.43586 0.617467 0
M  V30 2691 H 255.477 0.941849 3.10322 0
M  V30 2692 H 255.262 2.69748 2.84567 0
M  V30 2693 H 256.752 2.08102 3.62054 0
M  V30 2694 N 257.189 -0.644168 1.43834 0
M  V30 2695 C 258.437 -1.40117 1.45642 0
M  V30 2696 C 258.758 -1.94814 0.0852413 0
M  V30 2697 O 258.028 -1.74988 -0.880688 0
M  V30 2698 H 256.608 -0.52005 0.536243 0
M  V30 2699 H 259.27 -0.7591 1.7951 0
M  V30 2700 H 258.366 -2.23902 2.17427 0
M  V30 2701 N 258.668 -1.30515 -0.883378 0
M  V30 2702 C 260.079 -1.17509 -1.45081 0
M  V30 2703 C 260.43 0.223605 -1.94922 0
M  V30 2704 O 259.555 1.12041 -1.85137 0
M  V30 2705 C 260.15 -2.12715 -2.63701 0
M  V30 2706 C 258.709 -2.03682 -3.16529 0
M  V30 2707 C 257.856 -2.02706 -1.89224 0
M  V30 2708 H 260.807 -1.42762 -0.693165 0
M  V30 2709 H 260.828 -1.70891 -3.39965 0
M  V30 2710 H 260.34 -3.14505 -2.27395 0
M  V30 2711 H 258.441 -1.05039 -3.57488 0
M  V30 2712 H 258.554 -2.92146 -3.7972 0
M  V30 2713 H 256.918 -1.4753 -2.07622 0
M  V30 2714 H 257.701 -3.06229 -1.55174 0
M  V30 2715 N 260.146 1.09593 -1.13257 0
M  V30 2716 C 261.374 1.855 -0.916378 0
M  V30 2717 C 261.789 1.81069 0.534738 0
M  V30 2718 O 261.146 1.20562 1.37007 0
M  V30 2719 C 261.197 3.33546 -1.39388 0
M  V30 2720 O 260.918 3.37927 -2.78813 0
M  V30 2721 C 262.419 4.26299 -1.21588 0
M  V30 2722 H 259.639 0.585991 -0.326887 0
M  V30 2723 H 262.183 1.38488 -1.5047 0
M  V30 2724 H 260.338 3.77992 -0.848597 0
M  V30 2725 H 260.752 4.30254 -2.9997 0
M  V30 2726 H 262.226 5.28341 -1.59876 0
M  V30 2727 H 262.703 4.38918 -0.157376 0
M  V30 2728 H 263.309 3.87668 -1.7491 0
M  V30 2729 N 261.624 0.925811 1.2754 0
M  V30 2730 C 262.872 0.564138 1.94067 0
M  V30 2731 C 263.193 -0.897188 1.73134 0
M  V30 2732 O 262.463 -1.63573 1.07799 0
M  V30 2733 H 261.043 0.205645 0.718136 0
M  V30 2734 H 263.705 1.1778 1.55287 0
M  V30 2735 H 262.801 0.76881 3.02483 0
M  V30 2736 N 263.102 -1.41638 0.69111 0
M  V30 2737 C 264.034 -2.29194 -0.0161523 0
M  V30 2738 C 265.047 -1.44549 -0.748955 0
M  V30 2739 O 266.236 -1.681 -0.6004 0
M  V30 2740 C 263.336 -3.22325 -1.0469 0
M  V30 2741 C 262.509 -4.35706 -0.384621 0
M  V30 2742 C 261.568 -5.09443 -1.31737 0
M  V30 2743 O 260.594 -5.63386 -0.811451 0
M  V30 2744 N 261.796 -5.16487 -2.64993 0
M  V30 2745 H 264.561 -2.90534 0.735523 0
M  V30 2746 H 262.122 -1.52742 0.53679 0
M  V30 2747 H 264.114 -3.68522 -1.67252 0
M  V30 2748 H 262.684 -2.62323 -1.70015 0
M  V30 2749 H 261.904 -3.91948 0.420804 0
M  V30 2750 H 263.192 -5.08743 0.0760765 0
M  V30 2751 H 262.59 -4.741 -3.08619 0
M  V30 2752 H 261.147 -5.66276 -3.22761 0
M  V30 2753 N 264.58 -0.43555 -1.51462 0
M  V30 2754 C 265.51 0.367376 -2.30592 0
M  V30 2755 C 266.491 1.02263 -1.35928 0
M  V30 2756 O 267.676 1.02661 -1.64847 0
M  V30 2757 C 264.806 1.46983 -3.14664 0
M  V30 2758 C 263.76 0.938161 -4.17591 0
M  V30 2759 C 263.086 2.13622 -4.90173 0
M  V30 2760 C 264.386 -0.0261621 -5.22293 0
M  V30 2761 H 266.08 -0.292969 -2.97963 0
M  V30 2762 H 263.626 -0.14234 -1.43295 0
M  V30 2763 H 265.579 2.03873 -3.688 0
M  V30 2764 H 264.303 2.15843 -2.4511 0
M  V30 2765 H 262.962 0.391481 -3.64504 0
M  V30 2766 H 262.61 2.81098 -4.17124 0
M  V30 2767 H 262.31 1.78688 -5.59772 0
M  V30 2768 H 263.834 2.7107 -5.47132 0
M  V30 2769 H 265.248 0.452384 -5.71512 0
M  V30 2770 H 263.645 -0.287992 -5.99409 0
M  V30 2771 H 264.715 -0.963391 -4.75233 0
M  V30 2772 N 266.058 1.56714 -0.166846 0
M  V30 2773 C 266.991 2.13577 0.80375 0
M  V30 2774 C 267.969 1.06464 1.22899 0
M  V30 2775 O 269.153 1.34413 1.32157 0
M  V30 2776 C 266.28 2.67168 2.0818 0
M  V30 2777 C 265.326 3.86612 1.80093 0
M  V30 2778 S 266.159 5.26565 0.97416 0
M  V30 2779 C 267.315 5.83558 2.26297 0
M  V30 2780 H 267.548 2.9557 0.320267 0
M  V30 2781 H 265.081 1.54326 0.0477555 0
M  V30 2782 H 267.039 2.98692 2.8159 0
M  V30 2783 H 265.7 1.85269 2.53642 0
M  V30 2784 H 264.893 4.22422 2.7491 0
M  V30 2785 H 264.495 3.55951 1.14781 0
M  V30 2786 H 266.787 5.962 3.21795 0
M  V30 2787 H 267.73 6.80731 1.94962 0
M  V30 2788 H 268.138 5.11944 2.37853 0
M  V30 2789 N 267.536 -0.106894 1.57237 0
M  V30 2790 C 268.484 -1.14944 2.02215 0
M  V30 2791 C 269.478 -1.42167 0.92114 0
M  V30 2792 O 270.684 -1.41987 1.10634 0
M  V30 2793 H 267.059 -0.387841 0.64427 0
M  V30 2794 H 269.03 -0.743683 2.88984 0
M  V30 2795 C 267.779 -2.4647 2.4525 0
M  V30 2796 H 267.102 -2.26363 3.29545 0
M  V30 2797 H 268.542 -3.17948 2.80508 0
M  V30 2798 C 267.001 -3.09921 1.321 0
M  V30 2799 O 267.531 -3.9651 0.643622 0
M  V30 2800 N 265.737 -2.69986 1.07497 0
M  V30 2801 H 265.284 -1.99667 1.62761 0
M  V30 2802 H 265.242 -3.12769 0.319876 0
M  V30 2803 N 269.014 -1.53014 -0.377408 0
M  V30 2804 C 270.239 -1.72818 -1.14668 0
M  V30 2805 C 270.664 -0.450725 -1.8262 0
M  V30 2806 O 270.022 0.59439 -1.7128 0
M  V30 2807 C 270.07 -2.88627 -2.16164 0
M  V30 2808 O 269.174 -2.56409 -3.22998 0
M  V30 2809 H 268.515 -0.574301 -0.333278 0
M  V30 2810 H 271.045 -1.99853 -0.438152 0
M  V30 2811 H 271.055 -3.14455 -2.59966 0
M  V30 2812 H 269.73 -3.81294 -1.66095 0
M  V30 2813 H 268.307 -2.4136 -2.84253 0
M  V30 2814 N 270.492 0.636531 -1.44174 0
M  V30 2815 C 271.722 1.42146 -1.49927 0
M  V30 2816 C 272.13 1.88812 -0.121063 0
M  V30 2817 O 271.473 1.61126 0.882267 0
M  V30 2818 C 271.535 2.67883 -2.39748 0
M  V30 2819 C 271.199 2.43048 -3.8701 0
M  V30 2820 C 272.196 2.05216 -4.77684 0
M  V30 2821 C 269.881 2.56856 -4.3166 0
M  V30 2822 C 271.875 1.81512 -6.11009 0
M  V30 2823 C 269.562 2.32766 -5.65034 0
M  V30 2824 C 270.56 1.95152 -6.54526 0
M  V30 2825 O 270.248 1.71326 -7.85431 0
M  V30 2826 H 269.98 0.442567 -0.51099 0
M  V30 2827 H 272.534 0.786158 -1.8976 0
M  V30 2828 H 270.764 3.34032 -1.94832 0
M  V30 2829 H 272.453 3.29874 -2.36513 0
M  V30 2830 H 273.219 1.94111 -4.44462 0
M  V30 2831 H 269.098 2.85104 -3.62266 0
M  V30 2832 H 272.642 1.52077 -6.80822 0
M  V30 2833 H 268.539 2.43479 -5.97819 0
M  V30 2834 H 269.307 1.85616 -7.97176 0
M  V30 2835 N 271.97 1.30982 0.876444 0
M  V30 2836 C 272.9 1.20668 1.99903 0
M  V30 2837 C 273.881 0.095354 1.69833 0
M  V30 2838 O 275.066 0.27885 1.92188 0
M  V30 2839 C 272.196 0.90655 3.3526 0
M  V30 2840 C 271.15 1.97675 3.79617 0
M  V30 2841 C 270.476 1.52943 5.1236 0
M  V30 2842 C 271.776 3.389 3.97422 0
M  V30 2843 H 273.47 2.14586 2.0879 0
M  V30 2844 H 271.016 1.03308 1.00317 0
M  V30 2845 H 272.969 0.821025 4.13324 0
M  V30 2846 H 271.693 -0.0682969 3.26529 0
M  V30 2847 H 270.352 2.05205 3.03787 0
M  V30 2848 H 270 0.54262 5.00065 0
M  V30 2849 H 269.7 2.24532 5.43009 0
M  V30 2850 H 271.224 1.45786 5.92941 0
M  V30 2851 H 272.638 3.34081 4.659 0
M  V30 2852 H 271.035 4.0865 4.3946 0
M  V30 2853 H 272.105 3.80163 3.01006 0
M  V30 2854 N 273.449 -1.08991 1.13837 0
M  V30 2855 C 274.697 -1.80899 0.901098 0
M  V30 2856 C 275.018 -1.86356 -0.574134 0
M  V30 2857 O 274.288 -1.35235 -1.41733 0
M  V30 2858 H 272.868 -0.669966 0.330386 0
M  V30 2859 H 275.53 -1.318 1.43578 0
M  V30 2860 H 274.626 -2.83929 1.29578 0
M  V30 2861 N 274.927 -0.932562 -1.27047 0
M  V30 2862 C 276.343 -0.633544 -1.46487 0
M  V30 2863 C 276.543 0.815746 -1.84249 0
M  V30 2864 O 275.599 1.59319 -1.95892 0
M  V30 2865 C 276.912 -1.58758 -2.55375 0
M  V30 2866 C 278.46 -1.59634 -2.69232 0
M  V30 2867 C 278.935 -2.53747 -3.81283 0
M  V30 2868 N 280.426 -2.51982 -3.88664 0
M  V30 2869 C 281.161 -3.21491 -4.74796 0
M  V30 2870 N 280.657 -4.00395 -5.65381 0
M  V30 2871 N 282.45 -3.10485 -4.68568 0
M  V30 2872 H 274.601 -1.86946 -1.00821 0
M  V30 2873 H 276.864 -0.802897 -0.504044 0
M  V30 2874 H 276.57 -2.62172 -2.34432 0
M  V30 2875 H 276.444 -1.33301 -3.52861 0
M  V30 2876 H 278.831 -0.569488 -2.89553 0
M  V30 2877 H 278.912 -1.89142 -1.72218 0
M  V30 2878 H 278.556 -3.56545 -3.61715 0
M  V30 2879 H 278.486 -2.21532 -4.77735 0
M  V30 2880 H 280.977 -1.94681 -3.23895 0
M  V30 2881 H 281.29 -4.50406 -6.27976 0
M  V30 2882 H 279.635 -4.04498 -5.65161 0
M  V30 2883 H 282.826 -2.48331 -3.96799 0
M  V30 2884 H 282.999 -3.64925 -5.35475 0
M  V30 2885 N 276.405 1.4127 -0.698611 0
M  V30 2886 C 277.355 2.27997 -0.0119836 0
M  V30 2887 C 278.339 1.42363 0.749765 0
M  V30 2888 O 279.531 1.65607 0.624758 0
M  V30 2889 C 276.66 3.30702 0.921458 0
M  V30 2890 C 275.746 4.23814 0.155796 0
M  V30 2891 N 276.137 4.98572 -0.852015 0
M  V30 2892 C 274.435 4.44284 0.390836 0
M  V30 2893 C 275.136 5.66744 -1.3106 0
M  V30 2894 N 274.112 5.39867 -0.635944 0
M  V30 2895 H 277.914 2.83232 -0.784649 0
M  V30 2896 H 275.428 1.53518 -0.529711 0
M  V30 2897 H 277.425 3.91661 1.42854 0
M  V30 2898 H 276.085 2.77028 1.69369 0
M  V30 2899 H 277.096 5.03024 -1.23235 0
M  V30 2900 H 273.773 4.01614 1.14071 0
M  V30 2901 H 275.163 6.36672 -2.14707 0
M  V30 2902 N 277.883 0.443576 1.51229 0
M  V30 2903 C 279.108 -0.121648 2.07043 0
M  V30 2904 C 279.533 -1.35156 1.30823 0
M  V30 2905 O 278.891 -1.7793 0.347934 0
M  V30 2906 C 278.939 -0.41624 3.5819 0
M  V30 2907 O 278.043 -1.50163 3.8409 0
M  V30 2908 H 277.384 0.000871367 0.663999 0
M  V30 2909 H 279.914 0.626706 1.94765 0
M  V30 2910 H 279.924 -0.664867 4.02546 0
M  V30 2911 H 278.599 0.482653 4.1309 0
M  V30 2912 H 277.176 -1.24248 3.51592 0
M  V30 2913 N 279.361 -1.56624 0.175154 0
M  V30 2914 C 280.607 -1.98061 -0.462976 0
M  V30 2915 C 280.962 -1.05949 -1.60601 0
M  V30 2916 O 280.255 -0.0999027 -1.91339 0
M  V30 2917 C 280.449 -3.43419 -0.989864 0
M  V30 2918 C 280.278 -4.49587 0.100583 0
M  V30 2919 C 279.048 -5.02281 0.551539 0
M  V30 2920 C 281.246 -5.06322 0.902369 0
M  V30 2921 N 279.228 -5.92088 1.62189 0
M  V30 2922 C 280.599 -5.92607 1.82256 0
M  V30 2923 C 282.654 -4.88811 0.947019 0
M  V30 2924 C 281.357 -6.63254 2.78364 0
M  V30 2925 C 283.383 -5.60182 1.89606 0
M  V30 2926 C 282.745 -6.46197 2.80372 0
M  V30 2927 H 278.844 -0.769833 -0.137409 0
M  V30 2928 H 281.428 -1.9273 0.276256 0
M  V30 2929 H 279.599 -3.49288 -1.6986 0
M  V30 2930 H 281.331 -3.7186 -1.59694 0
M  V30 2931 H 278.086 -4.73367 0.148537 0
M  V30 2932 H 278.51 -6.41696 2.15767 0
M  V30 2933 H 283.152 -4.22004 0.259304 0
M  V30 2934 H 280.87 -7.29271 3.48122 0
M  V30 2935 H 284.456 -5.48617 1.93676 0
M  V30 2936 H 283.336 -7.00453 3.52612 0
M  V30 2937 N 280.839 0.0985539 -1.57292 0
M  V30 2938 C 282.255 0.45267 -1.53046 0
M  V30 2939 C 282.455 1.80713 -0.891342 0
M  V30 2940 O 281.511 2.4785 -0.482375 0
M  V30 2941 C 282.824 0.418341 -2.97776 0
M  V30 2942 C 284.372 0.500443 -3.08973 0
M  V30 2943 C 284.847 0.496297 -4.55303 0
M  V30 2944 N 286.338 0.557151 -4.59837 0
M  V30 2945 C 287.073 0.575726 -5.70502 0
M  V30 2946 N 286.569 0.550714 -6.90608 0
M  V30 2947 N 288.362 0.620277 -5.58667 0
M  V30 2948 H 280.513 -0.788673 -1.97215 0
M  V30 2949 H 282.776 -0.293188 -0.901524 0
M  V30 2950 H 282.482 -0.509659 -3.47988 0
M  V30 2951 H 282.356 1.2386 -3.56284 0
M  V30 2952 H 284.743 1.41886 -2.58751 0
M  V30 2953 H 284.824 -0.347894 -2.53423 0
M  V30 2954 H 284.468 -0.418162 -5.06176 0
M  V30 2955 H 284.398 1.3618 -5.08687 0
M  V30 2956 H 286.889 0.581816 -3.73394 0
M  V30 2957 H 287.202 0.568075 -7.70709 0
M  V30 2958 H 285.547 0.517816 -6.93068 0
M  V30 2959 H 288.738 0.637322 -4.63741 0
M  V30 2960 H 288.911 0.631283 -6.44918 0
M  V30 2961 N 282.317 1.53212 0.369288 0
M  V30 2962 C 283.728 1.60943 0.946276 0
M  V30 2963 C 284.079 0.47452 1.90375 0
M  V30 2964 O 283.204 -0.399597 2.12679 0
M  V30 2965 C 283.799 2.91715 1.72302 0
M  V30 2966 C 282.358 3.01792 2.24941 0
M  V30 2967 C 281.505 2.56211 1.06072 0
M  V30 2968 H 284.456 1.58007 0.148198 0
M  V30 2969 H 284.477 2.79309 2.58393 0
M  V30 2970 H 283.989 3.74295 1.0259 0
M  V30 2971 H 282.09 2.23791 2.97906 0
M  V30 2972 H 282.203 4.06803 2.53077 0
M  V30 2973 H 280.567 2.10998 1.4266 0
M  V30 2974 H 281.35 3.41206 0.378639 0
M  V30 2975 N 283.795 -0.628877 1.44509 0
M  V30 2976 C 284.758 -1.72263 1.51188 0
M  V30 2977 C 285.758 -1.55907 0.39367 0
M  V30 2978 O 286.948 -1.61361 0.656377 0
M  V30 2979 C 284.08 -3.11365 1.38798 0
M  V30 2980 H 285.273 -1.67714 2.4862 0
M  V30 2981 H 282.826 -0.842737 1.31634 0
M  V30 2982 H 283.561 -3.21507 0.424693 0
M  V30 2983 H 283.346 -3.24644 2.19884 0
M  V30 2984 H 284.836 -3.91075 1.46458 0
M  V30 2985 N 285.273 -1.31445 -0.869486 0
M  V30 2986 C 286.223 -1.15731 -1.96444 0
M  V30 2987 C 287.207 -0.0681855 -1.60755 0
M  V30 2988 O 288.399 -0.293154 -1.74555 0
M  V30 2989 C 285.528 -0.867255 -3.32165 0
M  V30 2990 C 284.614 -1.99738 -3.74119 0
M  V30 2991 N 285.005 -3.24447 -3.88031 0
M  V30 2992 C 283.303 -1.89723 -4.03635 0
M  V30 2993 C 284.004 -3.98374 -4.23879 0
M  V30 2994 N 282.98 -3.26547 -4.3459 0
M  V30 2995 H 286.782 -2.10296 -2.05312 0
M  V30 2996 H 284.296 -1.23009 -1.06031 0
M  V30 2997 H 286.293 -0.735668 -4.10358 0
M  V30 2998 H 284.953 0.0701614 -3.24624 0
M  V30 2999 H 285.964 -3.59557 -3.72746 0
M  V30 3000 H 282.641 -1.03449 -4.04481 0
M  V30 3001 H 284.031 -5.05844 -4.42235 0
M  V30 3002 N 286.751 1.08385 -1.14413 0
M  V30 3003 C 288 1.80153 -0.907076 0
M  V30 3004 C 288.313 1.87176 0.567851 0
M  V30 3005 O 289.519 2.55359 0.922172 0
M  V30 3006 C 287.975 3.23687 -1.57336 0
M  V30 3007 C 287.583 3.24897 -3.08457 0
M  V30 3008 C 289.327 4.00136 -1.41744 0
M  V30 3009 C 287.234 4.6302 -3.67921 0
M  V30 3010 H 286.164 0.675139 -0.335714 0
M  V30 3011 H 288.815 1.21733 -1.37307 0
M  V30 3012 H 287.197 3.82234 -1.03505 0
M  V30 3013 H 288.371 2.76055 -3.68958 0
M  V30 3014 H 286.686 2.61943 -3.2369 0
M  V30 3015 H 289.283 5.02201 -1.83572 0
M  V30 3016 H 289.626 4.14709 -0.363576 0
M  V30 3017 H 290.159 3.48058 -1.92614 0
M  V30 3018 H 286.898 4.5365 -4.73161 0
M  V30 3019 H 286.418 5.12143 -3.12201 0
M  V30 3020 H 288.097 5.31994 -3.68227 0
M  V30 3021 N 288.23 0.939286 1.26551 0
M  V30 3022 C 289.18 0.418284 2.2413 0
M  V30 3023 C 290.164 -0.483935 1.5345 0
M  V30 3024 O 291.356 -0.319489 1.74093 0
M  V30 3025 C 288.485 -0.31709 3.41832 0
M  V30 3026 C 287.571 0.602311 4.19801 0
M  V30 3027 N 287.962 1.72726 4.75394 0
M  V30 3028 C 286.26 0.407534 4.44134 0
M  V30 3029 C 286.961 2.30004 5.34297 0
M  V30 3030 N 285.937 1.58828 5.1988 0
M  V30 3031 H 289.739 1.27705 2.64705 0
M  V30 3032 H 287.253 0.794929 1.41614 0
M  V30 3033 H 289.25 -0.707364 4.10855 0
M  V30 3034 H 287.91 -1.17264 3.02786 0
M  V30 3035 H 288.921 2.10944 4.72994 0
M  V30 3036 H 285.598 -0.406406 4.15517 0
M  V30 3037 H 286.988 3.24778 5.88191 0
M  V30 3038 N 289.708 -1.40897 0.706093 0
M  V30 3039 C 290.957 -2.00284 0.238574 0
M  V30 3040 C 291.27 -1.56604 -1.17194 0
M  V30 3041 O 292.476 -2.08624 -1.73748 0
M  V30 3042 C 290.932 -3.57934 0.375623 0
M  V30 3043 C 290.54 -4.10591 1.79217 0
M  V30 3044 C 292.284 -4.24488 -0.0315857 0
M  V30 3045 C 290.191 -5.60712 1.88032 0
M  V30 3046 H 289.121 -0.749144 0.0854398 0
M  V30 3047 H 291.772 -1.61251 0.875813 0
M  V30 3048 H 290.154 -3.94622 -0.330042 0
M  V30 3049 H 291.328 -3.85301 2.52745 0
M  V30 3050 H 289.643 -3.56601 2.15 0
M  V30 3051 H 292.24 -5.34698 0.0136842 0
M  V30 3052 H 292.583 -4.02261 -1.072 0
M  V30 3053 H 293.116 -3.92873 0.624181 0
M  V30 3054 H 289.855 -5.87781 2.90161 0
M  V30 3055 H 289.375 -5.87896 1.18903 0
M  V30 3056 H 291.054 -6.25658 1.64805 0
M  V30 3057 N 291.186 -0.45159 -1.50991 0
M  V30 3058 C 292.602 -0.104647 -1.59257 0
M  V30 3059 C 292.802 1.38728 -1.4614 0
M  V30 3060 O 291.858 2.15866 -1.30989 0
M  V30 3061 C 293.171 -0.637468 -2.93865 0
M  V30 3062 C 294.719 -0.599166 -3.07212 0
M  V30 3063 C 295.194 -1.1092 -4.44366 0
M  V30 3064 N 296.685 -1.06778 -4.50725 0
M  V30 3065 C 297.42 -1.43314 -5.55201 0
M  V30 3066 N 296.916 -1.87204 -6.67028 0
M  V30 3067 N 298.709 -1.3504 -5.45638 0
M  V30 3068 H 290.86 -1.42214 -1.57762 0
M  V30 3069 H 293.123 -0.586921 -0.744465 0
M  V30 3070 H 292.829 -1.68187 -3.08879 0
M  V30 3071 H 292.703 -0.0702139 -3.77135 0
M  V30 3072 H 295.09 0.436277 -2.91857 0
M  V30 3073 H 295.171 -1.20299 -2.25747 0
M  V30 3074 H 294.815 -2.14318 -4.60467 0
M  V30 3075 H 294.745 -0.481773 -5.24392 0
M  V30 3076 H 297.236 -0.745643 -3.70471 0
M  V30 3077 H 297.549 -2.13282 -7.42786 0
M  V30 3078 H 295.894 -1.91142 -6.68199 0
M  V30 3079 H 299.085 -1.00607 -4.57161 0
M  V30 3080 H 299.258 -1.63841 -6.26945 0
M  V30 3081 N 292.664 1.56529 -0.183458 0
M  V30 3082 C 293.913 1.96419 0.458511 0
M  V30 3083 C 294.226 1.0727 1.63562 0
M  V30 3084 O 295.432 1.36893 2.34462 0
M  V30 3085 C 293.888 3.49298 0.867122 0
M  V30 3086 C 293.496 4.47092 -0.285057 0
M  V30 3087 C 295.24 3.97983 1.47683 0
M  V30 3088 C 293.147 5.91225 0.143862 0
M  V30 3089 H 292.077 0.733394 0.175071 0
M  V30 3090 H 294.728 1.81448 -0.273624 0
M  V30 3091 H 293.11 3.59731 1.65559 0
M  V30 3092 H 294.284 4.48383 -1.0625 0
M  V30 3093 H 292.599 4.08535 -0.805503 0
M  V30 3094 H 295.196 5.03134 1.80999 0
M  V30 3095 H 295.539 3.41618 2.37914 0
M  V30 3096 H 296.072 3.90617 0.752562 0
M  V30 3097 H 292.811 6.5149 -0.723974 0
M  V30 3098 H 292.331 5.93214 0.886413 0
M  V30 3099 H 294.01 6.44362 0.583628 0
M  V30 3100 N 294.142 -0.090211 1.57342 0
M  V30 3101 C 295.37 -0.806224 1.90546 0
M  V30 3102 C 295.785 -1.72041 0.777644 0
M  V30 3103 O 295.142 -1.80778 -0.250103 0
M  V30 3104 C 295.193 -1.61546 3.23396 0
M  V30 3105 O 294.914 -0.738043 4.31839 0
M  V30 3106 C 296.415 -2.4341 3.70495 0
M  V30 3107 H 293.635 -0.230256 0.630257 0
M  V30 3108 H 296.179 -0.0659843 2.04394 0
M  V30 3109 H 294.334 -2.30816 3.11131 0
M  V30 3110 H 294.748 -1.29901 5.08159 0
M  V30 3111 H 296.222 -2.95676 4.66133 0
M  V30 3112 H 296.699 -3.22098 2.98579 0
M  V30 3113 H 297.305 -1.79331 3.85643 0
M  V30 3114 N 295.62 -1.53406 -0.361157 0
M  V30 3115 C 296.583 -1.79479 -1.42548 0
M  V30 3116 C 297.583 -0.665327 -1.4639 0
M  V30 3117 O 298.773 -0.933549 -1.47073 0
M  V30 3118 C 295.905 -1.92087 -2.8163 0
M  V30 3119 H 297.098 -2.74538 -1.20701 0
M  V30 3120 H 294.651 -1.4455 -0.594546 0
M  V30 3121 H 295.386 -0.991099 -3.08784 0
M  V30 3122 H 295.171 -2.74241 -2.80239 0
M  V30 3123 H 296.661 -2.13836 -3.58697 0
M  V30 3124 N 297.098 0.621204 -1.44841 0
M  V30 3125 C 298.375 1.38 -1.38619 0
M  V30 3126 C 298.755 2.11041 -0.0498935 0
M  V30 3127 O 298.103 2.06992 0.967816 0
M  V30 3128 C 298.313 2.33817 -2.59096 0
M  V30 3129 C 299.661 2.96844 -3.03593 0
M  V30 3130 O 300.685 2.44141 -2.59371 0
M  V30 3131 O 299.544 3.92476 -3.80296 0
M  V30 3132 H 296.638 0.61811 -0.549426 0
M  V30 3133 H 299.184 0.645429 -1.56947 0
M  V30 3134 H 297.956 1.79012 -3.47952 0
M  V30 3135 H 297.579 3.14676 -2.43032 0
M  V30 3136 N 298.576 1.31904 0.862503 0
M  V30 3137 C 299.824 1.21776 1.61292 0
M  V30 3138 C 300.145 -0.222413 1.93727 0
M  V30 3139 O 299.415 -1.1451 1.58947 0
M  V30 3140 H 297.995 0.447717 0.597962 0
M  V30 3141 H 300.657 1.65326 1.03215 0
M  V30 3142 H 299.753 1.7948 2.5533 0
M  V30 3143 N 300.054 -1.07777 1.14986 0
M  V30 3144 C 301.284 -1.83752 0.944402 0
M  V30 3145 C 301.692 -1.8218 -0.51058 0
M  V30 3146 O 301.035 -1.22852 -1.36576 0
M  V30 3147 C 301.097 -3.32128 1.37592 0
M  V30 3148 C 300.761 -3.57425 2.84775 0
M  V30 3149 C 301.758 -3.5173 3.8286 0
M  V30 3150 C 299.443 -3.8523 3.2234 0
M  V30 3151 C 301.437 -3.73482 5.16517 0
M  V30 3152 C 299.124 -4.06634 4.56171 0
M  V30 3153 C 300.122 -4.00754 5.53069 0
M  V30 3154 O 299.81 -4.2159 6.84483 0
M  V30 3155 H 299.542 -0.58673 0.335744 0
M  V30 3156 H 302.096 -1.36982 1.53052 0
M  V30 3157 H 300.326 -3.79686 0.733165 0
M  V30 3158 H 302.015 -3.89555 1.14024 0
M  V30 3159 H 302.781 -3.30256 3.55184 0
M  V30 3160 H 298.66 -3.88923 2.47508 0
M  V30 3161 H 302.204 -3.68808 5.92137 0
M  V30 3162 H 298.101 -4.27593 4.83564 0
M  V30 3163 H 298.869 -4.38961 6.90837 0
M  V30 3164 N 301.532 -0.945985 -1.26051 0
M  V30 3165 C 302.948 -0.649045 -1.45807 0
M  V30 3166 C 303.148 0.796158 -1.85104 0
M  V30 3167 O 302.204 1.57233 -1.97571 0
M  V30 3168 C 303.517 -1.61458 -2.53677 0
M  V30 3169 C 305.065 -1.62481 -2.67524 0
M  V30 3170 C 305.54 -2.57776 -3.7857 0
M  V30 3171 N 307.031 -2.5609 -3.85969 0
M  V30 3172 C 307.766 -3.26508 -4.7136 0
M  V30 3173 N 307.262 -4.0637 -5.61102 0
M  V30 3174 N 309.055 -3.15437 -4.65248 0
M  V30 3175 H 301.206 -1.88005 -0.988328 0
M  V30 3176 H 303.469 -0.808198 -0.4955 0
M  V30 3177 H 303.175 -2.64644 -2.31638 0
M  V30 3178 H 303.049 -1.37036 -3.51427 0
M  V30 3179 H 305.436 -0.600167 -2.88933 0
M  V30 3180 H 305.517 -1.90958 -1.70202 0
M  V30 3181 H 305.161 -3.60361 -3.57913 0
M  V30 3182 H 305.091 -2.26587 -4.75359 0
M  V30 3183 H 307.582 -1.98105 -3.21812 0
M  V30 3184 H 307.895 -4.57042 -6.23164 0
M  V30 3185 H 306.24 -4.10469 -5.60839 0
M  V30 3186 H 309.431 -2.52525 -3.94143 0
M  V30 3187 H 309.604 -3.70584 -5.31575 0
M  V30 3188 N 303.011 1.40521 -0.713556 0
M  V30 3189 C 304.422 1.83853 -0.324807 0
M  V30 3190 C 304.773 1.59667 1.14021 0
M  V30 3191 O 303.898 1.07649 1.87725 0
M  V30 3192 C 304.493 3.33751 -0.582746 0
M  V30 3193 C 303.052 3.75584 -0.247727 0
M  V30 3194 C 302.199 2.63753 -0.856121 0
M  V30 3195 H 305.15 1.29817 -0.91286 0
M  V30 3196 H 305.171 3.80194 0.152682 0
M  V30 3197 H 304.683 3.51322 -1.64908 0
M  V30 3198 H 302.784 3.63608 0.813624 0
M  V30 3199 H 302.897 4.7373 -0.715307 0
M  V30 3200 H 301.261 2.53108 -0.28432 0
M  V30 3201 H 302.044 2.84137 -1.92668 0
M  V30 3202 N 304.489 0.459591 1.5075 0
M  V30 3203 C 305.419 -0.330644 2.31147 0
M  V30 3204 C 306.4 -1.00087 1.37538 0
M  V30 3205 O 307.585 -1.00025 1.66459 0
M  V30 3206 C 304.715 -1.41958 3.16962 0
M  V30 3207 C 303.669 -0.871608 4.19031 0
M  V30 3208 C 302.995 -2.05797 4.9351 0
M  V30 3209 C 304.295 0.109251 5.22186 0
M  V30 3210 H 305.989 0.340336 2.97459 0
M  V30 3211 H 303.535 0.165119 1.4305 0
M  V30 3212 H 305.488 -1.9798 3.71997 0
M  V30 3213 H 304.212 -2.11917 2.48513 0
M  V30 3214 H 302.871 -0.333442 3.6508 0
M  V30 3215 H 302.519 -2.74427 4.21544 0
M  V30 3216 H 302.219 -1.6976 5.62544 0
M  V30 3217 H 303.743 -2.62331 5.51375 0
M  V30 3218 H 305.157 -0.361405 5.7216 0
M  V30 3219 H 303.554 0.383316 5.98875 0
M  V30 3220 H 304.624 1.03887 4.73641 0
M  V30 3221 N 305.967 -1.56429 0.191757 0
M  V30 3222 C 307.216 -1.9666 -0.448088 0
M  V30 3223 C 307.529 -1.08136 -1.62991 0
M  V30 3224 O 308.735 -1.38135 -2.33733 0
M  V30 3225 C 307.191 -3.49753 -0.848585 0
M  V30 3226 C 306.799 -4.46935 0.308764 0
M  V30 3227 C 308.543 -3.9876 -1.4557 0
M  V30 3228 C 306.45 -5.91293 -0.112506 0
M  V30 3229 H 305.38 -0.734312 -0.171179 0
M  V30 3230 H 308.031 -1.81301 0.283242 0
M  V30 3231 H 306.413 -3.60604 -1.63649 0
M  V30 3232 H 307.587 -4.47813 1.08627 0
M  V30 3233 H 305.902 -4.08102 0.827158 0
M  V30 3234 H 308.499 -5.04086 -1.78328 0
M  V30 3235 H 308.842 -3.42875 -2.36099 0
M  V30 3236 H 309.375 -3.9101 -0.731836 0
M  V30 3237 H 306.114 -6.51097 0.758514 0
M  V30 3238 H 305.634 -5.93676 -0.854941 0
M  V30 3239 H 307.313 -6.44663 -0.549448 0
M  V30 3240 N 307.445 0.0818655 -1.57387 0
M  V30 3241 C 308.673 0.796108 -1.9097 0
M  V30 3242 C 309.088 1.71626 -0.786757 0
M  V30 3243 O 308.445 1.80908 0.240513 0
M  V30 3244 C 308.496 1.59829 -3.24248 0
M  V30 3245 O 308.217 0.715131 -4.32224 0
M  V30 3246 C 309.718 2.41442 -3.7178 0
M  V30 3247 H 306.938 0.22691 -0.631469 0
M  V30 3248 H 309.482 0.0551439 -2.04426 0
M  V30 3249 H 307.637 2.29163 -3.12351 0
M  V30 3250 H 308.051 1.27205 -5.08841 0
M  V30 3251 H 309.525 2.932 -4.67694 0
M  V30 3252 H 310.002 3.2051 -3.00283 0
M  V30 3253 H 310.608 1.77283 -3.86589 0
M  V30 3254 N 308.923 1.53595 0.353017 0
M  V30 3255 C 309.855 1.77219 1.45348 0
M  V30 3256 C 310.868 0.65324 1.49119 0
M  V30 3257 O 312.057 0.929775 1.52373 0
M  V30 3258 C 309.157 1.84841 2.84055 0
M  V30 3259 C 308.33 3.14649 3.03833 0
M  V30 3260 C 307.389 3.13351 4.22727 0
M  V30 3261 O 306.415 3.87107 4.17297 0
M  V30 3262 N 307.617 2.35052 5.30783 0
M  V30 3263 H 310.382 2.72178 1.25457 0
M  V30 3264 H 307.943 1.52528 0.542833 0
M  V30 3265 H 309.935 1.81435 3.61751 0
M  V30 3266 H 308.505 0.971114 2.97133 0
M  V30 3267 H 307.725 3.31256 2.13689 0
M  V30 3268 H 309.013 4.00411 3.13925 0
M  V30 3269 H 308.411 1.74663 5.38061 0
M  V30 3270 H 306.968 2.37453 6.07009 0
M  V30 3271 N 310.401 -0.613514 1.45168 0
M  V30 3272 C 311.331 -1.7354 1.56225 0
M  V30 3273 C 312.312 -1.64981 0.41414 0
M  V30 3274 O 313.497 -1.83472 0.636526 0
M  V30 3275 C 310.627 -3.12128 1.52295 0
M  V30 3276 C 309.581 -3.35491 2.65762 0
M  V30 3277 C 308.907 -4.74291 2.46885 0
M  V30 3278 C 310.207 -3.26325 4.0781 0
M  V30 3279 H 311.901 -1.64543 2.50132 0
M  V30 3280 H 309.447 -0.790185 1.20383 0
M  V30 3281 H 311.4 -3.90404 1.58628 0
M  V30 3282 H 310.124 -3.2195 0.549139 0
M  V30 3283 H 308.783 -2.59603 2.58847 0
M  V30 3284 H 308.431 -4.80839 1.47657 0
M  V30 3285 H 308.131 -4.9088 3.22972 0
M  V30 3286 H 309.655 -5.54775 2.55063 0
M  V30 3287 H 311.069 -3.94483 4.16 0
M  V30 3288 H 309.466 -3.54445 4.8424 0
M  V30 3289 H 310.536 -2.23855 4.30136 0
M  V30 3290 N 311.879 -1.3236 -0.855495 0
M  V30 3291 C 313.109 -1.25688 -1.6397 0
M  V30 3292 C 313.517 0.177592 -1.88365 0
M  V30 3293 O 312.86 1.12485 -1.45234 0
M  V30 3294 C 312.922 -1.94602 -3.02275 0
M  V30 3295 C 312.586 -3.43937 -3.00926 0
M  V30 3296 C 313.583 -4.39435 -2.77835 0
M  V30 3297 C 311.268 -3.85858 -3.21588 0
M  V30 3298 C 313.262 -5.74829 -2.75409 0
M  V30 3299 C 310.949 -5.21361 -3.18789 0
M  V30 3300 C 311.947 -6.15658 -2.95727 0
M  V30 3301 O 311.635 -7.48681 -2.928 0
M  V30 3302 H 311.367 -0.434972 -0.51747 0
M  V30 3303 H 313.921 -1.75023 -1.075 0
M  V30 3304 H 312.151 -1.39836 -3.60531 0
M  V30 3305 H 313.84 -1.81651 -3.62985 0
M  V30 3306 H 314.606 -4.08374 -2.6164 0
M  V30 3307 H 310.485 -3.12883 -3.38564 0
M  V30 3308 H 314.029 -6.48404 -2.57328 0
M  V30 3309 H 309.926 -5.52052 -3.34528 0
M  V30 3310 H 310.694 -7.5803 -3.0876 0
M  V30 3311 N 313.357 1.07166 -1.15556 0
M  V30 3312 C 314.604 1.79798 -0.931604 0
M  V30 3313 C 314.932 1.8682 0.54115 0
M  V30 3314 O 314.187 1.34942 1.41736 0
M  V30 3315 C 314.486 3.24707 -1.49332 0
M  V30 3316 C 314.152 3.37781 -2.98688 0
M  V30 3317 C 312.814 3.41057 -3.39461 0
M  V30 3318 C 315.166 3.40424 -3.94665 0
M  V30 3319 C 312.494 3.4458 -4.74849 0
M  V30 3320 C 314.846 3.45485 -5.29927 0
M  V30 3321 C 313.51 3.47039 -5.70193 0
M  V30 3322 H 312.78 0.657928 -0.340898 0
M  V30 3323 H 315.427 1.26091 -1.44129 0
M  V30 3324 H 313.732 3.81208 -0.904859 0
M  V30 3325 H 315.429 3.79486 -1.29582 0
M  V30 3326 H 312.019 3.35932 -2.66172 0
M  V30 3327 H 316.203 3.37113 -3.64237 0
M  V30 3328 H 311.459 3.44083 -5.05388 0
M  V30 3329 H 315.633 3.46476 -6.04092 0
M  V30 3330 H 313.26 3.49522 -6.75084 0
M  V30 3331 N 314.835 0.952656 1.25548 0
M  V30 3332 C 315.745 0.47782 2.29682 0
M  V30 3333 C 316.761 -0.453859 1.67977 0
M  V30 3334 O 317.937 -0.330587 1.98668 0
M  V30 3335 C 315.002 -0.238655 3.45878 0
M  V30 3336 C 314.063 0.730994 4.23031 0
M  V30 3337 C 313.296 0.0486165 5.33678 0
M  V30 3338 O 313.519 -1.16612 5.58353 0
M  V30 3339 O 312.453 0.733152 5.97418 0
M  V30 3340 H 316.279 1.34312 2.72386 0
M  V30 3341 H 313.864 0.719026 1.30959 0
M  V30 3342 H 315.746 -0.641774 4.16484 0
M  V30 3343 H 314.421 -1.07916 3.05181 0
M  V30 3344 H 313.328 1.18428 3.5486 0
M  V30 3345 H 314.661 1.53946 4.67506 0
M  V30 3346 N 316.313 -1.40141 0.720998 0
M  V30 3347 C 317.561 -2.0039 0.262323 0
M  V30 3348 C 317.882 -1.57469 -1.15015 0
M  V30 3349 O 317.152 -0.816582 -1.78069 0
M  V30 3350 H 315.732 -0.741063 0.093996 0
M  V30 3351 H 318.394 -1.71398 0.927835 0
M  V30 3352 H 317.49 -3.10658 0.299671 0
M  V30 3353 N 317.792 -0.46758 -1.50504 0
M  V30 3354 C 319.069 0.15003 -1.95024 0
M  V30 3355 C 319.449 1.57304 -1.40779 0
M  V30 3356 O 318.797 2.20281 -0.607319 0
M  V30 3357 C 319.007 0.0969324 -3.48865 0
M  V30 3358 C 320.355 0.287565 -4.23625 0
M  V30 3359 O 321.379 0.173678 -3.55776 0
M  V30 3360 O 320.238 0.517186 -5.44047 0
M  V30 3361 H 317.332 0.113582 -0.819163 0
M  V30 3362 H 319.878 -0.52773 -1.61286 0
M  V30 3363 H 318.65 -0.896732 -3.80886 0
M  V30 3364 H 318.273 0.816303 -3.8913 0
M  V30 3365 N 319.27 1.56325 -0.20005 0
M  V30 3366 C 320.681 1.8408 0.31167 0
M  V30 3367 C 321.032 1.12087 1.61031 0
M  V30 3368 O 320.157 0.38332 2.12978 0
M  V30 3369 C 320.752 3.33932 0.57226 0
M  V30 3370 C 319.311 3.6208 1.02834 0
M  V30 3371 C 318.458 2.77186 0.079634 0
M  V30 3372 H 321.409 1.52939 -0.423729 0
M  V30 3373 H 321.43 3.52971 1.42096 0
M  V30 3374 H 320.942 3.86303 -0.37308 0
M  V30 3375 H 319.043 3.15147 1.98778 0
M  V30 3376 H 319.156 4.7023 0.917624 0
M  V30 3377 H 317.52 2.47951 0.582448 0
M  V30 3378 H 318.303 3.32347 -0.860238 0
M  V30 3379 N 320.748 -0.0735177 1.57428 0
M  V30 3380 C 321.978 -0.78483 1.91112 0
M  V30 3381 C 322.386 -1.71729 0.7941 0
M  V30 3382 O 321.729 -1.82105 -0.241542 0
M  V30 3383 C 321.791 -1.63346 3.20247 0
M  V30 3384 C 321.455 -0.870557 4.48632 0
M  V30 3385 C 322.452 -0.19058 5.19551 0
M  V30 3386 C 320.137 -0.838242 4.95256 0
M  V30 3387 C 322.131 0.511503 6.35344 0
M  V30 3388 C 319.818 -0.132386 6.10957 0
M  V30 3389 C 320.816 0.541288 6.80852 0
M  V30 3390 O 320.504 1.23578 7.94345 0
M  V30 3391 H 320.236 -0.228408 0.636244 0
M  V30 3392 H 322.79 -0.0486039 2.05342 0
M  V30 3393 H 321.02 -2.41245 3.02222 0
M  V30 3394 H 322.709 -2.22329 3.39595 0
M  V30 3395 H 323.475 -0.206864 4.84559 0
M  V30 3396 H 319.354 -1.35206 4.40727 0
M  V30 3397 H 322.898 1.03789 6.89836 0
M  V30 3398 H 318.795 -0.114023 6.45399 0
M  V30 3399 H 319.563 1.14487 8.10454 0
M  V30 3400 N 322.226 -1.5378 -0.344866 0
M  V30 3401 C 323.156 -1.84662 -1.42906 0
M  V30 3402 C 324.137 -0.701648 -1.54955 0
M  V30 3403 O 325.322 -0.953438 -1.69184 0
M  V30 3404 C 322.452 -2.05503 -2.79974 0
M  V30 3405 C 321.406 -3.21318 -2.82734 0
M  V30 3406 C 320.732 -3.2749 -4.22675 0
M  V30 3407 C 322.032 -4.59456 -2.48389 0
M  V30 3408 H 323.726 -2.75461 -1.17311 0
M  V30 3409 H 321.272 -1.32542 -0.562896 0
M  V30 3410 H 323.225 -2.25691 -3.55867 0
M  V30 3411 H 321.949 -1.11434 -3.07002 0
M  V30 3412 H 320.608 -3.00984 -2.09294 0
M  V30 3413 H 320.256 -2.31019 -4.4681 0
M  V30 3414 H 319.956 -4.05316 -4.25433 0
M  V30 3415 H 321.48 -3.49887 -5.00412 0
M  V30 3416 H 322.894 -4.79667 -3.13995 0
M  V30 3417 H 321.291 -5.39675 -2.62432 0
M  V30 3418 H 322.361 -4.63155 -1.4358 0
M  V30 3419 N 323.704 0.605807 -1.45491 0
M  V30 3420 C 324.981 1.36522 -1.40075 0
M  V30 3421 C 325.361 2.10976 -0.0722744 0
M  V30 3422 O 324.709 2.08007 0.945808 0
M  V30 3423 C 324.919 2.31056 -2.61561 0
M  V30 3424 C 326.267 2.93608 -3.06724 0
M  V30 3425 O 327.291 2.41376 -2.61946 0
M  V30 3426 O 326.15 3.88421 -3.84437 0
M  V30 3427 H 323.244 0.612248 -0.555951 0
M  V30 3428 H 325.79 0.628747 -1.57623 0
M  V30 3429 H 324.562 1.75311 -3.49831 0
M  V30 3430 H 324.185 3.12081 -2.46356 0
M  V30 3431 N 325.182 1.32811 0.848464 0
M  V30 3432 C 326.407 1.26882 1.6406 0
M  V30 3433 C 326.832 -0.15913 1.87426 0
M  V30 3434 O 326.19 -1.11258 1.43148 0
M  V30 3435 C 326.238 2.03997 2.97351 0
M  V30 3436 O 325.342 1.39201 3.88197 0
M  V30 3437 H 324.683 0.436982 0.499943 0
M  V30 3438 H 327.213 1.75224 1.0563 0
M  V30 3439 H 327.223 2.14403 3.47124 0
M  V30 3440 H 325.898 3.0783 2.79666 0
M  V30 3441 H 324.475 1.37381 3.46671 0
M  V30 3442 N 326.66 -1.06551 1.16123 0
M  V30 3443 C 327.937 -1.76097 0.85142 0
M  V30 3444 C 328.317 -2.00802 -0.6513 0
M  V30 3445 O 327.665 -1.63302 -1.59827 0
M  V30 3446 C 327.875 -3.06384 1.67122 0
M  V30 3447 C 329.223 -3.80585 1.88255 0
M  V30 3448 O 330.247 -3.16218 1.63966 0
M  V30 3449 O 329.106 -4.96212 2.2899 0
M  V30 3450 H 326.2 -0.765102 0.313923 0
M  V30 3451 H 328.746 -1.12844 1.26745 0
M  V30 3452 H 327.518 -2.84071 2.69108 0
M  V30 3453 H 327.141 -3.77371 1.25206 0
M  V30 3454 N 328.138 -0.959301 -1.25041 0
M  V30 3455 C 329.363 -0.633507 -1.97488 0
M  V30 3456 C 329.788 0.788555 -1.70773 0
M  V30 3457 O 329.146 1.53394 -0.966431 0
M  V30 3458 C 329.194 -0.904057 -3.49083 0
M  V30 3459 O 328.298 0.0147939 -4.12397 0
M  V30 3460 H 327.639 -0.240368 -0.618966 0
M  V30 3461 H 330.169 -1.28717 -1.59038 0
M  V30 3462 H 330.179 -0.832203 -3.99423 0
M  V30 3463 H 328.854 -1.94048 -3.67856 0
M  V30 3464 H 327.431 -0.109664 -3.72739 0
M  V30 3465 N 329.616 1.39756 -0.72842 0
M  V30 3466 C 330.856 2.025 -0.278078 0
M  V30 3467 C 331.22 1.5654 1.11173 0
M  V30 3468 O 332.421 2.11435 1.65978 0
M  V30 3469 C 330.692 3.55489 -0.369139 0
M  V30 3470 S 332.251 4.388 0.00232983 0
M  V30 3471 H 329.069 0.702534 -0.109391 0
M  V30 3472 H 331.671 1.70672 -0.95348 0
M  V30 3473 H 330.375 3.86429 -1.38204 0
M  V30 3474 H 329.906 3.92061 0.324308 0
M  V30 3475 H 331.921 4.80954 1.22055 0
M  V30 3476 N 331.094 0.475555 1.50254 0
M  V30 3477 C 332.319 -0.0777042 2.07254 0
M  V30 3478 C 332.744 -1.3235 1.3366 0
M  V30 3479 O 332.102 -1.77152 0.385597 0
M  V30 3480 C 332.15 -0.340169 3.58992 0
M  V30 3481 O 331.254 -1.41982 3.87188 0
M  V30 3482 H 330.595 0.0149556 0.663832 0
M  V30 3483 H 333.125 0.667878 1.93392 0
M  V30 3484 H 333.135 -0.579332 4.03866 0
M  V30 3485 H 331.81 0.570167 4.11973 0
M  V30 3486 H 330.387 -1.16762 3.54148 0
M  V30 3487 N 332.573 -1.56217 0.208337 0
M  V30 3488 C 333.536 -2.18455 -0.693557 0
M  V30 3489 C 334.536 -1.14268 -1.13135 0
M  V30 3490 O 335.726 -1.39577 -1.0423 0
M  V30 3491 C 332.858 -2.79727 -1.94848 0
M  V30 3492 H 334.051 -2.99519 -0.15114 0
M  V30 3493 H 331.604 -1.56245 -0.041287 0
M  V30 3494 H 332.339 -2.02497 -2.53309 0
M  V30 3495 H 332.124 -3.56009 -1.64316 0
M  V30 3496 H 333.614 -3.27475 -2.59133 0
M  V30 3497 N 334.051 0.0651679 -1.57465 0
M  V30 3498 C 335.297 0.764193 -1.87851 0
M  V30 3499 C 335.63 1.76889 -0.801495 0
M  V30 3500 O 334.905 1.93594 0.187528 0
M  V30 3501 C 335.188 1.46625 -3.28897 0
M  V30 3502 C 335.041 0.477515 -4.47258 0
M  V30 3503 C 336.36 2.4095 -3.68281 0
M  V30 3504 H 333.479 0.276351 -0.683227 0
M  V30 3505 H 336.121 0.0272868 -1.8998 0
M  V30 3506 H 334.271 2.09438 -3.27212 0
M  V30 3507 H 335.943 -0.145922 -4.61069 0
M  V30 3508 H 334.186 -0.206576 -4.33308 0
M  V30 3509 H 334.857 1.0065 -5.42746 0
M  V30 3510 H 337.333 1.88209 -3.71102 0
M  V30 3511 H 336.209 2.87072 -4.67847 0
M  V30 3512 H 336.47 3.26049 -2.98571 0
M  V30 3513 N 335.529 1.53961 0.336706 0
M  V30 3514 C 336.476 1.82428 1.41381 0
M  V30 3515 C 337.446 0.670444 1.51968 0
M  V30 3516 O 338.631 0.915565 1.67398 0
M  V30 3517 C 335.771 2.04564 2.77934 0
M  V30 3518 C 334.884 3.32267 2.76084 0
M  V30 3519 C 334.019 3.44434 4.04399 0
M  V30 3520 C 333.058 4.66061 3.96804 0
M  V30 3521 N 332.195 4.75224 5.16823 0
M  V30 3522 H 337.035 2.74324 1.16405 0
M  V30 3523 H 334.572 1.35869 0.563752 0
M  V30 3524 H 336.53 2.15388 3.57301 0
M  V30 3525 H 335.16 1.15974 3.01247 0
M  V30 3526 H 334.212 3.3025 1.88784 0
M  V30 3527 H 335.524 4.21733 2.66351 0
M  V30 3528 H 334.678 3.54728 4.92192 0
M  V30 3529 H 333.417 2.53037 4.16921 0
M  V30 3530 H 332.422 4.55838 3.07396 0
M  V30 3531 H 333.647 5.58829 3.85858 0
M  V30 3532 H 331.593 3.86739 5.29876 0
M  V30 3533 H 331.51 5.58636 5.09374 0
M  V30 3534 H 332.778 4.89835 6.06367 0
M  V30 3535 N 337.007 -0.598083 1.45811 0
M  V30 3536 C 338.232 -1.3881 1.54099 0
M  V30 3537 C 338.657 -1.8726 0.177578 0
M  V30 3538 O 338.015 -1.6069 -0.839541 0
M  V30 3539 C 338.063 -2.56217 2.53743 0
M  V30 3540 O 337.167 -3.5716 2.06182 0
M  V30 3541 H 336.508 -0.414024 0.519115 0
M  V30 3542 H 339.038 -0.726971 1.91249 0
M  V30 3543 H 339.048 -3.03337 2.72856 0
M  V30 3544 H 337.723 -2.20303 3.5276 0
M  V30 3545 H 336.3 -3.16624 1.96987 0
M  V30 3546 N 338.485 -1.33259 -0.841409 0
M  V30 3547 C 339.395 -1.25332 -1.98316 0
M  V30 3548 C 340.411 -0.164364 -1.73222 0
M  V30 3549 O 341.587 -0.387486 -1.97637 0
M  V30 3550 C 338.652 -0.990078 -3.32262 0
M  V30 3551 C 337.713 -2.16879 -3.70489 0
M  V30 3552 C 336.946 -1.91801 -4.98044 0
M  V30 3553 O 337.169 -0.867075 -5.63771 0
M  V30 3554 O 336.103 -2.78267 -5.33714 0
M  V30 3555 H 339.929 -2.21344 -2.07944 0
M  V30 3556 H 337.514 -1.1328 -0.974058 0
M  V30 3557 H 339.396 -0.860321 -4.12524 0
M  V30 3558 H 338.071 -0.0602155 -3.23644 0
M  V30 3559 H 336.978 -2.35407 -2.90748 0
M  V30 3560 H 338.311 -3.0819 -3.8377 0
M  V30 3561 N 339.963 1.05934 -1.16686 0
M  V30 3562 C 340.893 2.1546 -0.899949 0
M  V30 3563 C 341.874 1.69391 0.155154 0
M  V30 3564 O 343.059 1.94199 0.00648693 0
M  V30 3565 C 340.189 3.44939 -0.404241 0
M  V30 3566 C 339.143 4.04536 -1.39767 0
M  V30 3567 C 338.469 5.29268 -0.760216 0
M  V30 3568 C 339.769 4.42893 -2.76845 0
M  V30 3569 H 341.463 2.38046 -1.81588 0
M  V30 3570 H 339.009 1.14404 -0.874514 0
M  V30 3571 H 340.962 4.20901 -0.204971 0
M  V30 3572 H 339.686 3.21983 0.547206 0
M  V30 3573 H 338.345 3.30635 -1.58355 0
M  V30 3574 H 337.993 5.02611 0.197831 0
M  V30 3575 H 337.693 5.70101 -1.42332 0
M  V30 3576 H 339.217 6.07924 -0.57105 0
M  V30 3577 H 340.631 5.09921 -2.62019 0
M  V30 3578 H 339.028 4.94721 -3.39663 0
M  V30 3579 H 340.098 3.53584 -3.31823 0
M  V30 3580 N 341.441 0.965919 1.2453 0
M  V30 3581 C 342.687 0.62776 1.92839 0
M  V30 3582 C 343.02 -0.834694 1.75347 0
M  V30 3583 O 342.295 -1.60031 1.10546 0
M  V30 3584 C 342.578 1.00109 3.45905 0
M  V30 3585 C 342.431 2.52011 3.72573 0
M  V30 3586 C 343.75 0.53435 4.36844 0
M  V30 3587 H 340.869 0.229537 0.700344 0
M  V30 3588 H 343.511 1.2046 1.46933 0
M  V30 3589 H 341.661 0.510238 3.85135 0
M  V30 3590 H 343.333 3.08559 3.42912 0
M  V30 3591 H 341.576 2.95287 3.17786 0
M  V30 3592 H 342.247 2.73183 4.79661 0
M  V30 3593 H 344.723 0.955565 4.04979 0
M  V30 3594 H 343.599 0.824152 5.42678 0
M  V30 3595 H 343.86 -0.565589 4.38467 0
M  V30 3596 N 342.919 -1.39368 0.735821 0
M  V30 3597 C 343.849 -2.33234 0.111506 0
M  V30 3598 C 344.83 -1.53954 -0.723334 0
M  V30 3599 O 346.015 -1.82344 -0.668147 0
M  V30 3600 C 343.145 -3.38057 -0.795917 0
M  V30 3601 C 342.099 -4.2795 -0.065172 0
M  V30 3602 C 341.425 -5.23479 -1.08967 0
M  V30 3603 C 342.725 -5.10741 1.09273 0
M  V30 3604 H 344.419 -2.85692 0.895571 0
M  V30 3605 H 341.965 -1.37364 0.432109 0
M  V30 3606 H 343.918 -4.02675 -1.24221 0
M  V30 3607 H 342.642 -2.8404 -1.61211 0
M  V30 3608 H 341.301 -3.64813 0.361511 0
M  V30 3609 H 340.949 -4.65758 -1.89944 0
M  V30 3610 H 340.649 -5.84472 -0.605489 0
M  V30 3611 H 342.173 -5.90974 -1.53565 0
M  V30 3612 H 343.587 -5.68699 0.724841 0
M  V30 3613 H 341.984 -5.8088 1.50659 0
M  V30 3614 H 343.054 -4.45525 1.91404 0
M  V30 3615 N 344.397 -0.483516 -1.5 0
M  V30 3616 C 345.808 -0.0314176 -1.86674 0
M  V30 3617 C 346.159 1.37728 -1.39733 0
M  V30 3618 O 345.284 2.02327 -0.767635 0
M  V30 3619 C 345.879 -0.0502376 -3.38763 0
M  V30 3620 C 344.438 0.346442 -3.74802 0
M  V30 3621 C 343.585 -0.430366 -2.7394 0
M  V30 3622 H 346.536 -0.697182 -1.42566 0
M  V30 3623 H 346.557 0.749116 -3.73053 0
M  V30 3624 H 346.069 -1.07563 -3.72897 0
M  V30 3625 H 344.17 1.37572 -3.46273 0
M  V30 3626 H 344.283 0.0391486 -4.79084 0
M  V30 3627 H 342.647 0.117557 -2.54429 0
M  V30 3628 H 343.43 -1.4555 -3.10918 0
M  V30 3629 N 345.875 1.56104 -0.216619 0
M  V30 3630 C 347.121 1.98466 0.417033 0
M  V30 3631 C 347.454 1.10403 1.59765 0
M  V30 3632 O 346.729 0.160632 1.93836 0
M  V30 3633 C 347.012 3.49769 0.85637 0
M  V30 3634 C 346.865 4.48606 -0.327546 0
M  V30 3635 C 348.184 4.05339 1.7143 0
M  V30 3636 H 345.303 0.721551 0.150112 0
M  V30 3637 H 347.945 1.87423 -0.311864 0
M  V30 3638 H 346.095 3.5931 1.47745 0
M  V30 3639 H 347.767 4.5108 -0.965618 0
M  V30 3640 H 346.01 4.22682 -0.975805 0
M  V30 3641 H 346.681 5.51995 0.0227149 0
M  V30 3642 H 349.157 3.98712 1.19031 0
M  V30 3643 H 348.033 5.11533 1.99061 0
M  V30 3644 H 348.294 3.51918 2.67593 0
M  V30 3645 N 347.353 -0.0568162 1.57498 0
M  V30 3646 C 348.301 -1.08452 2.05769 0
M  V30 3647 C 349.295 -1.39164 0.965903 0
M  V30 3648 O 350.501 -1.38395 1.15095 0
M  V30 3649 H 346.876 -0.367148 0.656282 0
M  V30 3650 H 348.847 -0.651368 2.91204 0
M  V30 3651 C 347.596 -2.38543 2.52968 0
M  V30 3652 H 346.919 -2.15765 3.36579 0
M  V30 3653 H 348.359 -3.08863 2.90481 0
M  V30 3654 C 346.818 -3.05562 1.41893 0
M  V30 3655 O 347.348 -3.94262 0.769442 0
M  V30 3656 N 345.554 -2.6643 1.16032 0
M  V30 3657 H 345.101 -1.94387 1.6903 0
M  V30 3658 H 345.059 -3.11593 0.419219 0
M  V30 3659 N 348.832 -1.54138 -0.328536 0
M  V30 3660 C 349.779 -1.83176 -1.40411 0
M  V30 3661 C 350.749 -0.678494 -1.5161 0
M  V30 3662 O 351.934 -0.92443 -1.6691 0
M  V30 3663 C 349.074 -2.06035 -2.76846 0
M  V30 3664 C 348.187 -3.33727 -2.74318 0
M  V30 3665 C 347.322 -3.46574 -4.02567 0
M  V30 3666 C 346.361 -4.68159 -3.94327 0
M  V30 3667 N 345.498 -4.77959 -5.14296 0
M  V30 3668 H 350.338 -2.74938 -1.14948 0
M  V30 3669 H 347.875 -1.36166 -0.556538 0
M  V30 3670 H 349.833 -2.1728 -3.56153 0
M  V30 3671 H 348.463 -1.1757 -3.00628 0
M  V30 3672 H 347.515 -3.31246 -1.8703 0
M  V30 3673 H 348.827 -4.23139 -2.64111 0
M  V30 3674 H 347.981 -3.57333 -4.90304 0
M  V30 3675 H 346.72 -2.55245 -4.15574 0
M  V30 3676 H 345.725 -4.57461 -3.04974 0
M  V30 3677 H 346.95 -5.60868 -3.82889 0
M  V30 3678 H 344.896 -3.89544 -5.27818 0
M  V30 3679 H 344.813 -5.6133 -5.06404 0
M  V30 3680 H 346.081 -4.93044 -6.03761 0
M  V30 3681 N 350.31 0.590341 -1.46126 0
M  V30 3682 C 351.559 1.34499 -1.50309 0
M  V30 3683 C 351.872 1.94977 -0.156021 0
M  V30 3684 O 353.078 2.71395 -0.0756037 0
M  V30 3685 C 351.534 2.43723 -2.64815 0
M  V30 3686 C 351.142 1.89582 -4.0591 0
M  V30 3687 C 352.886 3.20579 -2.78262 0
M  V30 3688 C 350.793 2.9639 -5.11769 0
M  V30 3689 H 349.723 0.505593 -0.559368 0
M  V30 3690 H 352.374 0.630848 -1.72315 0
M  V30 3691 H 350.756 3.17902 -2.36124 0
M  V30 3692 H 351.93 1.21997 -4.44357 0
M  V30 3693 H 350.245 1.25418 -3.97063 0
M  V30 3694 H 352.842 4.00276 -3.54519 0
M  V30 3695 H 353.185 3.72684 -1.85505 0
M  V30 3696 H 353.718 2.53505 -3.06562 0
M  V30 3697 H 350.457 2.49181 -6.06291 0
M  V30 3698 H 349.977 3.62487 -4.77873 0
M  V30 3699 H 351.656 3.60474 -5.37278 0
M  V30 3700 N 351.788 1.33704 0.83433 0
M  V30 3701 C 353.065 1.16011 1.57483 0
M  V30 3702 C 353.445 -0.27176 2.09343 0
M  V30 3703 O 352.793 -1.27146 1.89858 0
M  V30 3704 C 353.003 2.20507 2.70514 0
M  V30 3705 C 354.351 2.54898 3.39577 0
M  V30 3706 O 355.375 2.19209 2.80759 0
M  V30 3707 O 354.234 3.16158 4.45765 0
M  V30 3708 H 351.328 0.448992 0.694503 0
M  V30 3709 H 353.874 1.453 0.876691 0
M  V30 3710 H 352.646 3.16667 2.29865 0
M  V30 3711 H 352.269 1.92329 3.47987 0
M  V30 3712 N 353.266 -1.05314 1.17247 0
M  V30 3713 C 354.515 -1.77685 0.954521 0
M  V30 3714 C 354.828 -1.88616 -0.518025 0
M  V30 3715 O 356.034 -2.57714 -0.854144 0
M  V30 3716 C 354.49 -3.19402 1.65863 0
M  V30 3717 C 354.098 -3.16605 3.16963 0
M  V30 3718 C 355.842 -3.96237 1.52303 0
M  V30 3719 C 353.749 -4.53103 3.80068 0
M  V30 3720 H 352.679 -0.666 0.353496 0
M  V30 3721 H 355.33 -1.1805 1.40486 0
M  V30 3722 H 353.712 -3.79355 1.13602 0
M  V30 3723 H 354.886 -2.66176 3.76148 0
M  V30 3724 H 353.201 -2.53268 3.30521 0
M  V30 3725 H 355.798 -4.97157 1.96822 0
M  V30 3726 H 356.141 -4.136 0.473401 0
M  V30 3727 H 356.674 -3.42829 2.01775 0
M  V30 3728 H 353.413 -4.40946 4.85023 0
M  V30 3729 H 352.933 -5.03686 3.2567 0
M  V30 3730 H 354.612 -5.22045 3.82202 0
M  V30 3731 N 354.744 -0.972509 -1.24016 0
M  V30 3732 C 356.021 -0.553733 -1.87598 0
M  V30 3733 C 356.401 0.969158 -1.87538 0
M  V30 3734 O 355.749 1.84255 -1.35139 0
M  V30 3735 C 355.959 -1.15076 -3.29482 0
M  V30 3736 C 357.307 -1.23862 -4.06132 0
M  V30 3737 O 358.331 -1.10363 -3.38672 0
M  V30 3738 O 357.19 -1.45252 -5.26844 0
M  V30 3739 H 354.284 -0.185331 -0.805966 0
M  V30 3740 H 356.83 -1.06709 -1.31952 0
M  V30 3741 H 355.602 -2.19333 -3.2405 0
M  V30 3742 H 355.225 -0.621746 -3.92709 0
M  V30 3743 N 356.222 1.38976 -0.743202 0
M  V30 3744 C 357.47 1.99948 -0.29417 0
M  V30 3745 C 357.791 1.59279 1.12495 0
M  V30 3746 O 357.061 0.844808 1.76748 0
M  V30 3747 H 355.641 0.739473 -0.105774 0
M  V30 3748 H 358.303 1.699 -0.954986 0
M  V30 3749 H 357.399 3.10142 -0.349056 0
M  V30 3750 N 357.7 0.491464 1.49741 0
M  V30 3751 C 358.61 -0.296835 2.32715 0
M  V30 3752 C 359.626 -0.976536 1.44013 0
M  V30 3753 O 360.802 -0.960023 1.77047 0
M  V30 3754 C 357.867 -1.35288 3.19215 0
M  V30 3755 C 356.928 -0.687632 4.23757 0
M  V30 3756 C 356.161 -1.69336 5.06123 0
M  V30 3757 O 356.384 -2.92219 4.89861 0
M  V30 3758 O 355.318 -1.25394 5.88693 0
M  V30 3759 H 359.144 0.382048 3.01287 0
M  V30 3760 H 356.729 0.252953 1.47243 0
M  V30 3761 H 358.611 -1.96411 3.72828 0
M  V30 3762 H 357.286 -2.01487 2.53347 0
M  V30 3763 H 356.193 -0.0369159 3.74082 0
M  V30 3764 H 357.526 -0.0682566 4.92153 0
M  V30 3765 N 359.178 -1.55987 0.224894 0
M  V30 3766 C 360.406 -2.02784 -0.410665 0
M  V30 3767 C 360.821 -1.10464 -1.53112 0
M  V30 3768 O 360.178 -0.114871 -1.82138 0
M  V30 3769 C 360.229 -3.49087 -0.939165 0
M  V30 3770 O 359.95 -4.37887 0.136614 0
M  V30 3771 C 361.451 -4.11543 -1.64763 0
M  V30 3772 H 358.671 -0.663484 -0.100148 0
M  V30 3773 H 361.215 -2.01614 0.342326 0
M  V30 3774 H 359.37 -3.50861 -1.64242 0
M  V30 3775 H 359.784 -5.23849 -0.261155 0
M  V30 3776 H 361.258 -5.15673 -1.96939 0
M  V30 3777 H 361.735 -3.56736 -2.56195 0
M  V30 3778 H 362.341 -4.13629 -0.989503 0
M  V30 3779 N 360.656 0.0484629 -1.57525 0
M  V30 3780 C 361.902 0.738854 -1.89506 0
M  V30 3781 C 362.257 1.73989 -0.821319 0
M  V30 3782 O 361.55 1.90825 0.172129 0
M  V30 3783 C 361.744 1.46632 -3.25935 0
M  V30 3784 C 361.573 0.537254 -4.46479 0
M  V30 3785 C 360.343 0.165484 -5.05029 0
M  V30 3786 C 362.541 -0.176085 -5.13998 0
M  V30 3787 N 360.523 -0.766868 -6.09091 0
M  V30 3788 C 361.894 -0.96478 -6.12448 0
M  V30 3789 C 363.949 -0.24509 -4.97296 0
M  V30 3790 C 362.652 -1.8161 -6.95996 0
M  V30 3791 C 364.678 -1.08347 -5.81391 0
M  V30 3792 C 364.04 -1.86014 -6.79395 0
M  V30 3793 H 360.139 0.245067 -0.742608 0
M  V30 3794 H 362.723 -0.000476161 -1.947 0
M  V30 3795 H 360.894 2.17623 -3.21706 0
M  V30 3796 H 362.626 2.10757 -3.45491 0
M  V30 3797 H 359.381 0.523466 -4.70698 0
M  V30 3798 H 359.805 -1.22698 -6.65788 0
M  V30 3799 H 364.447 0.341063 -4.21422 0
M  V30 3800 H 362.165 -2.41313 -7.71229 0
M  V30 3801 H 365.751 -1.14014 -5.70519 0
M  V30 3802 H 364.631 -2.4984 -7.43337 0
M  V30 3803 N 362.134 1.5431 0.320358 0
M  V30 3804 C 363.066 1.80262 1.41556 0
M  V30 3805 C 364.079 0.684723 1.477 0
M  V30 3806 O 365.268 0.961886 1.50366 0
M  V30 3807 C 362.368 1.90825 2.8007 0
M  V30 3808 C 361.541 3.21023 2.97091 0
M  V30 3809 C 360.6 3.22247 4.15985 0
M  V30 3810 O 359.626 3.95871 4.08992 0
M  V30 3811 N 360.828 2.46258 5.25678 0
M  V30 3812 H 363.593 2.74778 1.19655 0
M  V30 3813 H 361.154 1.53646 0.510358 0
M  V30 3814 H 363.146 1.89067 3.57821 0
M  V30 3815 H 361.716 1.03392 2.95006 0
M  V30 3816 H 360.936 3.35715 2.06614 0
M  V30 3817 H 362.224 4.0698 3.05361 0
M  V30 3818 H 361.622 1.86037 5.34235 0
M  V30 3819 H 360.179 2.50275 6.01835 0
M  V30 3820 N 363.613 -0.582584 1.46437 0
M  V30 3821 C 364.543 -1.70187 1.59871 0
M  V30 3822 C 365.524 -1.64066 0.449042 0
M  V30 3823 O 366.709 -1.82081 0.6753 0
M  V30 3824 C 363.839 -3.08827 1.58881 0
M  V30 3825 C 362.793 -3.29779 2.72819 0
M  V30 3826 C 362.119 -4.68947 2.5689 0
M  V30 3827 C 363.419 -3.17601 4.1464 0
M  V30 3828 H 365.113 -1.592 2.53566 0
M  V30 3829 H 362.659 -0.764472 1.22032 0
M  V30 3830 H 364.612 -3.86951 1.66873 0
M  V30 3831 H 363.336 -3.20713 0.617306 0
M  V30 3832 H 361.995 -2.54054 2.64296 0
M  V30 3833 H 361.643 -4.77599 1.57823 0
M  V30 3834 H 361.343 -4.83919 3.33312 0
M  V30 3835 H 362.867 -5.4924 2.66773 0
M  V30 3836 H 364.281 -3.8557 4.24274 0
M  V30 3837 H 362.678 -3.44094 4.9165 0
M  V30 3838 H 363.748 -2.14681 4.34788 0
M  V30 3839 N 365.091 -1.34144 -0.827227 0
M  V30 3840 C 366.337 -1.26446 -1.58554 0
M  V30 3841 C 366.67 0.1664 -1.93486 0
M  V30 3842 O 365.945 1.1107 -1.59667 0
M  V30 3843 C 366.228 -2.15111 -2.8879 0
M  V30 3844 C 366.081 -3.66712 -2.60465 0
M  V30 3845 C 367.4 -2.03311 -3.90324 0
M  V30 3846 H 364.519 -0.46067 -0.575284 0
M  V30 3847 H 367.161 -1.64356 -0.953269 0
M  V30 3848 H 365.311 -1.8291 -3.42748 0
M  V30 3849 H 366.983 -4.09259 -2.1285 0
M  V30 3850 H 365.226 -3.88014 -1.93978 0
M  V30 3851 H 365.897 -4.24112 -3.53317 0
M  V30 3852 H 368.373 -2.31574 -3.45706 0
M  V30 3853 H 367.249 -2.67582 -4.79261 0
M  V30 3854 H 367.51 -1.00879 -4.30437 0
M  V30 3855 N 366.569 1.04691 -1.17803 0
M  V30 3856 C 367.846 1.7472 -0.879328 0
M  V30 3857 C 368.226 2.01812 0.619271 0
M  V30 3858 O 367.574 1.65824 1.57209 0
M  V30 3859 C 367.784 3.03686 -1.71976 0
M  V30 3860 C 369.132 3.77542 -1.94286 0
M  V30 3861 O 370.156 3.13569 -1.68976 0
M  V30 3862 O 369.015 4.92506 -2.36855 0
M  V30 3863 H 366.109 0.760011 -0.326056 0
M  V30 3864 H 368.655 1.10813 -1.28525 0
M  V30 3865 H 367.427 2.79754 -2.73594 0
M  V30 3866 H 367.05 3.75332 -1.31194 0
M  V30 3867 N 368.047 0.979072 1.23499 0
M  V30 3868 C 369.294 0.647219 1.91878 0
M  V30 3869 C 369.622 -0.819074 1.76413 0
M  V30 3870 O 368.877 -1.60616 1.11808 0
M  V30 3871 C 369.176 0.981932 3.43646 0
M  V30 3872 C 368.842 2.43822 3.79291 0
M  V30 3873 C 367.504 2.83622 3.88731 0
M  V30 3874 C 369.856 3.3828 3.96505 0
M  V30 3875 C 367.184 4.16897 4.12812 0
M  V30 3876 C 369.536 4.71197 4.22085 0
M  V30 3877 C 368.2 5.10758 4.29747 0
M  V30 3878 H 367.47 0.236834 0.702133 0
M  V30 3879 H 370.117 1.23268 1.46551 0
M  V30 3880 H 368.422 0.314365 3.90537 0
M  V30 3881 H 370.119 0.703395 3.94783 0
M  V30 3882 H 366.709 2.11966 3.72516 0
M  V30 3883 H 370.893 3.0871 3.88603 0
M  V30 3884 H 366.149 4.47157 4.16966 0
M  V30 3885 H 370.323 5.44348 4.34348 0
M  V30 3886 H 367.95 6.1405 4.48159 0
M  V30 3887 N 369.525 -1.3858 0.750561 0
M  V30 3888 C 370.473 -2.32339 0.110162 0
M  V30 3889 C 371.467 -1.53864 -0.708674 0
M  V30 3890 O 372.673 -1.69417 -0.608112 0
M  V30 3891 H 369.048 -0.751812 0.0168275 0
M  V30 3892 H 371.019 -2.83959 0.917053 0
M  V30 3893 C 369.768 -3.39043 -0.771067 0
M  V30 3894 H 369.091 -3.99517 -0.150374 0
M  V30 3895 H 370.531 -4.07061 -1.1865 0
M  V30 3896 C 368.99 -2.77365 -1.91234 0
M  V30 3897 O 369.52 -2.66434 -3.00626 0
M  V30 3898 N 367.726 -2.35219 -1.70646 0
M  V30 3899 H 367.273 -2.4431 -0.81673 0
M  V30 3900 H 367.231 -1.94294 -2.47178 0
M  V30 3901 N 371.003 -0.499398 -1.49478 0
M  V30 3902 C 372.25 0.0456899 -2.02448 0
M  V30 3903 C 372.578 1.37142 -1.37921 0
M  V30 3904 O 371.833 1.89111 -0.503544 0
M  V30 3905 C 372.132 0.248424 -3.56536 0
M  V30 3906 C 371.798 -0.999107 -4.39692 0
M  V30 3907 C 370.46 -1.34108 -4.62135 0
M  V30 3908 C 372.812 -1.82842 -4.88076 0
M  V30 3909 C 370.14 -2.51191 -5.30208 0
M  V30 3910 C 372.492 -2.99076 -5.57437 0
M  V30 3911 C 371.156 -3.33655 -5.78127 0
M  V30 3912 H 370.426 0.0167191 -0.740811 0
M  V30 3913 H 373.073 -0.65923 -1.79795 0
M  V30 3914 H 371.378 1.03586 -3.77859 0
M  V30 3915 H 373.075 0.684605 -3.95113 0
M  V30 3916 H 369.665 -0.722729 -4.22463 0
M  V30 3917 H 373.849 -1.57737 -4.70566 0
M  V30 3918 H 369.105 -2.78221 -5.44429 0
M  V30 3919 H 373.279 -3.63664 -5.93904 0
M  V30 3920 H 370.906 -4.24483 -6.30649 0
M  V30 3921 N 372.481 1.55866 -0.233164 0
M  V30 3922 C 373.73 1.97779 0.39579 0
M  V30 3923 C 374.043 1.12419 1.60066 0
M  V30 3924 O 375.249 1.44283 2.29988 0
M  V30 3925 C 373.705 3.5188 0.755556 0
M  V30 3926 C 373.313 4.45959 -0.427152 0
M  V30 3927 C 375.057 4.02479 1.34946 0
M  V30 3928 C 372.964 5.91383 -0.0443043 0
M  V30 3929 H 371.894 0.738592 0.15165 0
M  V30 3930 H 374.545 1.80486 -0.331212 0
M  V30 3931 H 372.927 3.64816 1.5403 0
M  V30 3932 H 374.101 4.44776 -1.20462 0
M  V30 3933 H 372.416 4.05765 -0.935068 0
M  V30 3934 H 375.013 5.08637 1.649 0
M  V30 3935 H 375.356 3.49014 2.26925 0
M  V30 3936 H 375.889 3.92813 0.62791 0
M  V30 3937 H 372.628 6.48857 -0.930874 0
M  V30 3938 H 372.148 5.95734 0.697238 0
M  V30 3939 H 373.827 6.45893 0.378334 0
M  V30 3940 N 373.959 -0.0401083 1.57549 0
M  V30 3941 C 374.889 -1.04384 2.08869 0
M  V30 3942 C 375.87 -1.38407 0.988817 0
M  V30 3943 O 377.055 -1.47483 1.26342 0
M  V30 3944 C 374.185 -2.34808 2.55895 0
M  V30 3945 C 373.139 -2.15057 3.70047 0
M  V30 3946 C 372.465 -3.51145 4.03239 0
M  V30 3947 C 373.765 -1.54576 4.98902 0
M  V30 3948 H 375.459 -0.616666 2.92981 0
M  V30 3949 H 373.005 -0.295184 1.40942 0
M  V30 3950 H 374.958 -3.05346 2.90417 0
M  V30 3951 H 373.682 -2.79565 1.68853 0
M  V30 3952 H 372.341 -1.46954 3.35857 0
M  V30 3953 H 371.989 -3.93529 3.13279 0
M  V30 3954 H 371.689 -3.38758 4.80122 0
M  V30 3955 H 373.213 -4.23062 4.40285 0
M  V30 3956 H 374.627 -2.15017 5.31451 0
M  V30 3957 H 373.024 -1.52796 5.80322 0
M  V30 3958 H 374.094 -0.51039 4.82206 0
M  V30 3959 N 375.437 -1.54477 -0.31217 0
M  V30 3960 C 376.369 -1.81011 -1.40598 0
M  V30 3961 C 377.382 -0.692546 -1.47335 0
M  V30 3962 O 378.571 -0.969847 -1.49854 0
M  V30 3963 C 375.671 -1.92307 -2.79054 0
M  V30 3964 C 374.844 -3.22594 -2.95384 0
M  V30 3965 C 373.903 -3.24448 -4.1427 0
M  V30 3966 O 372.929 -3.98035 -4.06887 0
M  V30 3967 N 374.131 -2.49042 -5.24365 0
M  V30 3968 H 376.896 -2.75408 -1.18196 0
M  V30 3969 H 374.457 -1.53914 -0.502202 0
M  V30 3970 H 376.449 -1.90962 -3.56813 0
M  V30 3971 H 375.019 -1.04955 -2.94454 0
M  V30 3972 H 374.239 -3.36806 -2.04831 0
M  V30 3973 H 375.527 -4.08593 -3.03198 0
M  V30 3974 H 374.925 -1.88867 -5.33241 0
M  V30 3975 H 373.482 -2.53463 -6.005 0
M  V30 3976 N 376.915 0.57481 -1.46744 0
M  V30 3977 C 377.865 1.67838 -1.54319 0
M  V30 3978 C 378.849 1.55759 -0.40346 0
M  V30 3979 O 380.041 1.6454 -0.652347 0
M  V30 3980 C 377.17 3.06624 -1.5439 0
M  V30 3981 C 376.256 3.23971 -2.73685 0
M  V30 3982 N 376.647 3.11447 -3.9854 0
M  V30 3983 C 374.945 3.5493 -2.70075 0
M  V30 3984 C 375.646 3.31011 -4.78337 0
M  V30 3985 N 374.622 3.56533 -4.10348 0
M  V30 3986 H 378.424 1.56698 -2.48642 0
M  V30 3987 H 375.938 0.779071 -1.42493 0
M  V30 3988 H 377.935 3.85839 -1.57905 0
M  V30 3989 H 376.595 3.1889 -0.611493 0
M  V30 3990 H 377.606 2.89145 -4.29669 0
M  V30 3991 H 374.283 3.73832 -1.85893 0
M  V30 3992 H 375.673 3.26445 -5.87268 0
M  V30 3993 N 378.394 1.34581 0.820102 0
M  V30 3994 C 379.342 1.26401 1.95258 0
M  V30 3995 C 380.336 0.161553 1.68628 0
M  V30 3996 O 381.542 0.326703 1.7701 0
M  V30 3997 H 377.917 0.392749 0.64129 0
M  V30 3998 H 379.888 2.22105 1.99279 0
M  V30 3999 C 378.637 1.03919 3.31807 0
M  V30 4000 H 377.96 1.87984 3.52848 0
M  V30 4001 H 379.4 1.02232 4.11491 0
M  V30 4002 C 377.859 -0.257433 3.35915 0
M  V30 4003 O 378.389 -1.25784 3.81499 0
M  V30 4004 N 376.595 -0.291524 2.89134 0
M  V30 4005 H 376.142 0.523161 2.52232 0
M  V30 4006 H 376.1 -1.15883 2.92264 0
M  V30 4007 O 379.911 -0.958615 1.29972 0
M  V30 4008 H 380.602 -1.5862 1.11172 0
M  V30 END ATOM
M  V30 BEGIN BOND
M  V30 END BOND
M  V30 END CTAB
M  END
$$$$
