drugbank_target|P02745 Complement C1q subcomponent subunit A (DB00002; DB00110; DB00111; DB00112)
 OpenBabel12092120043D

  0  0  0     0  0            999 V3000
M  V30 BEGIN CTAB
M  V30 COUNTS 3647 3692 0 0 0
M  V30 BEGIN ATOM
M  V30 1 H -0.908 1.98254 -0.117106 0
M  V30 2 N 0 1.576 0 0
M  V30 3 C 0.933 2.03868 1.02534 0
M  V30 4 C 1.911 0.928543 1.3348 0
M  V30 5 O 3.095 1.19667 1.45644 0
M  V30 6 C 0.222 2.43627 2.35294 0
M  V30 7 C -0.732 3.65373 2.2001 0
M  V30 8 S 0.101 5.13292 1.52614 0
M  V30 9 C 1.257 5.56322 2.86805 0
M  V30 10 H 1.49 2.90518 0.631377 0
M  V30 11 H -0.977 1.52953 0.210867 0
M  V30 12 H 0.981 2.67203 3.11629 0
M  V30 13 H -0.358 1.57376 2.7183 0
M  V30 14 H -1.165 3.90944 3.18086 0
M  V30 15 H -1.563 3.418 1.51819 0
M  V30 16 H 0.729 5.58782 3.83104 0
M  V30 17 H 1.672 6.56266 2.65933 0
M  V30 18 H 2.08 4.83886 2.90714 0
M  V30 19 N 1.4781 -0.272755 1.55222 0
M  V30 20 C 2.3881 -1.35918 1.91216 0
M  V30 21 C 3.4041 -1.54026 0.809436 0
M  V30 22 O 4.5801 -1.68148 1.10852 0
M  V30 23 C 1.6451 -2.69834 2.17693 0
M  V30 24 C 0.7061 -2.6047 3.41253 0
M  V30 25 C -0.0609 -3.88 3.66458 0
M  V30 26 O 0.1621 -4.88693 2.94169 0
M  V30 27 O -0.9039 -3.88189 4.59992 0
M  V30 28 H 2.9221 -1.0839 2.83699 0
M  V30 29 H 0.5071 -0.471301 1.41771 0
M  V30 30 H 2.3891 -3.49017 2.36147 0
M  V30 31 H 1.0641 -2.97148 1.28392 0
M  V30 32 H -0.0289 -1.79663 3.28134 0
M  V30 33 H 1.3041 -2.38106 4.30774 0
M  V30 34 N 2.9562 -1.48159 -0.537278 0
M  V30 35 C 4.2042 -1.55497 -1.29094 0
M  V30 36 C 4.5252 -0.227454 -1.93669 0
M  V30 37 O 3.7952 0.750386 -1.80959 0
M  V30 38 H 2.3752 -0.572832 -0.47945 0
M  V30 39 H 5.0372 -1.84579 -0.625818 0
M  V30 40 H 4.1332 -2.33216 -2.07405 0
M  V30 41 N 4.4343 0.785586 -1.36625 0
M  V30 42 C 5.8453 1.36101 -1.27803 0
M  V30 43 C 6.1963 1.96035 0.0804875 0
M  V30 44 O 5.3213 1.92834 0.982042 0
M  V30 45 C 5.9163 2.47442 -2.31426 0
M  V30 46 C 4.4753 3.00789 -2.26281 0
M  V30 47 C 3.6223 1.73896 -2.15999 0
M  V30 48 H 6.5733 0.586928 -1.47448 0
M  V30 49 H 6.5943 3.2656 -1.95291 0
M  V30 50 H 6.1063 2.03791 -3.30289 0
M  V30 51 H 4.2073 3.48851 -1.30896 0
M  V30 52 H 4.3203 3.57343 -3.19128 0
M  V30 53 H 2.6843 1.9628 -1.62316 0
M  V30 54 H 3.4673 1.32368 -3.16755 0
M  V30 55 N 5.9124 1.20967 1.01018 0
M  V30 56 C 7.3284 0.965905 1.27053 0
M  V30 57 C 7.5284 -0.350785 1.98423 0
M  V30 58 O 6.5844 -1.07773 2.28344 0
M  V30 59 C 7.8974 2.15294 2.09926 0
M  V30 60 C 9.4454 2.19463 2.23171 0
M  V30 61 C 9.9204 3.3767 3.09424 0
M  V30 62 N 11.4114 3.37724 3.17012 0
M  V30 63 C 12.1464 4.25837 3.83993 0
M  V30 64 N 11.6424 5.24138 4.53047 0
M  V30 65 N 13.4354 4.1366 3.80581 0
M  V30 66 H 5.5864 2.0565 0.531194 0
M  V30 67 H 7.8494 0.90024 0.297106 0
M  V30 68 H 7.5554 3.10684 1.64828 0
M  V30 69 H 7.4294 2.13923 3.10672 0
M  V30 70 H 9.8164 1.24632 2.6749 0
M  V30 71 H 9.8974 2.2488 1.21912 0
M  V30 72 H 9.5414 4.32791 2.65808 0
M  V30 73 H 9.4714 3.29491 4.10784 0
M  V30 74 H 11.9624 2.6658 2.6785 0
M  V30 75 H 12.2754 5.87684 5.01844 0
M  V30 76 H 10.6204 5.28068 4.5185 0
M  V30 77 H 13.8114 3.36127 3.25785 0
M  V30 78 H 13.9844 4.82538 4.32505 0
M  V30 79 N 7.3905 -1.2043 1.01659 0
M  V30 80 C 8.6385 -1.89423 0.704522 0
M  V30 81 C 8.9595 -1.79231 -0.768197 0
M  V30 82 O 8.2295 -1.1947 -1.55254 0
M  V30 83 H 6.8095 -0.701178 0.257602 0
M  V30 84 H 9.4715 -1.4626 1.28818 0
M  V30 85 H 8.5675 -2.96052 0.987916 0
M  V30 86 N 8.8686 -0.792821 -1.36206 0
M  V30 87 C 10.1146 -0.376415 -1.99887 0
M  V30 88 C 10.4696 1.04127 -1.61788 0
M  V30 89 O 9.7626 1.71004 -0.864193 0
M  V30 90 C 9.9566 -0.481501 -3.54142 0
M  V30 91 C 9.7856 -1.90786 -4.07223 0
M  V30 92 C 8.5556 -2.53322 -4.37214 0
M  V30 93 C 10.7536 -2.87048 -4.26741 0
M  V30 94 N 8.7356 -3.8751 -4.7614 0
M  V30 95 C 10.1066 -4.06077 -4.6851 0
M  V30 96 C 12.1616 -2.8406 -4.08918 0
M  V30 97 C 10.8646 -5.22532 -4.94321 0
M  V30 98 C 12.8906 -3.99705 -4.35878 0
M  V30 99 C 12.2526 -5.1748 -4.77906 0
M  V30 100 H 8.3516 -0.185226 -0.759747 0
M  V30 101 H 10.9356 -1.03114 -1.65153 0
M  V30 102 H 9.1066 0.143154 -3.88136 0
M  V30 103 H 10.8386 -0.0410128 -4.04679 0
M  V30 104 H 7.5936 -2.04777 -4.2704 0
M  V30 105 H 8.0176 -4.5656 -4.99882 0
M  V30 106 H 12.6596 -1.94165 -3.75579 0
M  V30 107 H 10.3776 -6.1301 -5.2654 0
M  V30 108 H 13.9636 -3.98758 -4.23655 0
M  V30 109 H 12.8436 -6.05478 -4.98363 0
M  V30 110 N 10.3467 1.47872 -0.545128 0
M  V30 111 C 11.2767 2.32661 0.197793 0
M  V30 112 C 12.2577 1.43041 0.920504 0
M  V30 113 O 13.4427 1.71912 0.90333 0
M  V30 114 C 10.5727 3.24569 1.23582 0
M  V30 115 C 9.5267 4.23333 0.630323 0
M  V30 116 C 8.8527 5.0448 1.77211 0
M  V30 117 C 10.1527 5.20704 -0.407974 0
M  V30 118 H 11.8467 2.95024 -0.510045 0
M  V30 119 H 9.3927 1.4187 -0.246731 0
M  V30 120 H 11.3457 3.8272 1.76362 0
M  V30 121 H 10.0697 2.60236 1.97344 0
M  V30 122 H 8.7287 3.6639 0.123922 0
M  V30 123 H 8.3767 4.36561 2.49847 0
M  V30 124 H 8.0767 5.71339 1.37281 0
M  V30 125 H 9.6007 5.65487 2.3034 0
M  V30 126 H 11.0147 5.7329 0.033305 0
M  V30 127 H 9.4117 5.95699 -0.725486 0
M  V30 128 H 10.4817 4.66917 -1.30828 0
M  V30 129 N 11.8248 0.280983 1.55075 0
M  V30 130 C 13.0708 -0.33461 2.00021 0
M  V30 131 C 13.4038 -1.55063 1.16915 0
M  V30 132 O 12.6788 -1.93006 0.240646 0
M  V30 133 C 12.9618 -0.711007 3.53011 0
M  V30 134 C 12.8148 0.512766 4.46868 0
M  V30 135 C 14.1338 -1.54522 4.12081 0
M  V30 136 H 11.2528 -0.120147 0.727141 0
M  V30 137 H 13.8948 0.389097 1.85973 0
M  V30 138 H 12.0448 -1.32761 3.65112 0
M  V30 139 H 13.7168 1.15131 4.46702 0
M  V30 140 H 11.9598 1.14975 4.18286 0
M  V30 141 H 12.6308 0.205556 5.51617 0
M  V30 142 H 15.1068 -1.02442 4.03293 0
M  V30 143 H 13.9828 -1.77739 5.19327 0
M  V30 144 H 14.2438 -2.52813 3.62682 0
M  V30 145 N 13.3029 -1.57598 0.00835791 0
M  V30 146 C 14.2329 -2.1198 -0.979113 0
M  V30 147 C 15.2139 -1.03091 -1.35301 0
M  V30 148 O 16.3989 -1.30818 -1.43528 0
M  V30 149 C 13.5289 -2.62995 -2.26828 0
M  V30 150 C 12.4829 -3.76485 -2.03576 0
M  V30 151 C 11.8089 -4.13846 -3.38579 0
M  V30 152 C 13.1089 -5.0342 -1.39161 0
M  V30 153 H 14.8029 -2.94738 -0.526281 0
M  V30 154 H 12.3489 -1.41783 -0.251704 0
M  V30 155 H 14.3019 -2.99669 -2.96271 0
M  V30 156 H 13.0259 -1.7737 -2.7424 0
M  V30 157 H 11.6849 -3.40217 -1.36557 0
M  V30 158 H 11.3329 -3.25232 -3.83709 0
M  V30 159 H 11.0329 -4.90312 -3.23834 0
M  V30 160 H 12.5569 -4.53086 -4.09323 0
M  V30 161 H 13.9709 -5.37812 -1.98573 0
M  V30 162 H 12.3679 -5.84746 -1.34878 0
M  V30 163 H 13.4379 -4.83548 -0.361868 0
M  V30 164 N 14.781 0.264519 -1.55364 0
M  V30 165 C 16.021 1.00254 -1.78125 0
M  V30 166 C 16.385 1.83187 -0.575017 0
M  V30 167 O 17.586 2.60029 -0.681042 0
M  V30 168 C 15.857 1.85478 -3.05504 0
M  V30 169 S 17.416 2.6543 -3.49417 0
M  V30 170 H 14.234 0.337522 -0.625779 0
M  V30 171 H 16.836 0.272111 -1.93597 0
M  V30 172 H 15.54 1.23491 -3.9138 0
M  V30 173 H 15.071 2.62827 -2.92721 0
M  V30 174 H 17.086 3.87958 -3.09359 0
M  V30 175 N 16.2591 1.48442 0.529413 0
M  V30 176 C 17.5051 1.5672 1.28711 0
M  V30 177 C 17.8381 0.2406 1.92704 0
M  V30 178 O 17.1131 -0.753454 1.79313 0
M  V30 179 C 17.3961 2.70587 2.37603 0
M  V30 180 C 17.2491 4.12953 1.78297 0
M  V30 181 C 18.5681 2.80212 3.39366 0
M  V30 182 H 15.6871 0.570474 0.466613 0
M  V30 183 H 18.3291 1.80617 0.589706 0
M  V30 184 H 16.4791 2.50342 2.97088 0
M  V30 185 H 18.1511 4.44639 1.22858 0
M  V30 186 H 16.3941 4.19927 1.0883 0
M  V30 187 H 17.0651 4.88448 2.57144 0
M  V30 188 H 19.5411 2.98553 2.89836 0
M  V30 189 H 18.4171 3.61611 4.12951 0
M  V30 190 H 18.6781 1.88393 3.99951 0
M  V30 191 N 17.7372 -0.778329 1.37039 0
M  V30 192 C 18.6672 -1.90546 1.34962 0
M  V30 193 C 19.6482 -1.68681 0.219274 0
M  V30 194 O 20.8332 -1.89634 0.418624 0
M  V30 195 C 17.9632 -3.27734 1.14925 0
M  V30 196 C 16.9172 -3.64147 2.24902 0
M  V30 197 C 16.2432 -4.99806 1.89996 0
M  V30 198 C 17.5432 -3.71579 3.67051 0
M  V30 199 H 19.2372 -1.92541 2.29277 0
M  V30 200 H 16.7832 -0.924948 1.10366 0
M  V30 201 H 18.7362 -4.06215 1.12104 0
M  V30 202 H 17.4602 -3.26154 0.170631 0
M  V30 203 H 16.1192 -2.8797 2.26868 0
M  V30 204 H 15.7672 -4.94759 0.906796 0
M  V30 205 H 15.4672 -5.25139 2.63634 0
M  V30 206 H 16.9912 -5.80694 1.88749 0
M  V30 207 H 18.4052 -4.40227 3.67251 0
M  V30 208 H 16.8022 -4.08405 4.39688 0
M  V30 209 H 17.8722 -2.72404 4.01154 0
M  V30 210 N 19.2153 -1.21501 -1.00376 0
M  V30 211 C 20.1783 -0.976927 -2.07337 0
M  V30 212 C 21.1783 0.0525322 -1.60714 0
M  V30 213 O 22.3683 -0.184869 -1.73216 0
M  V30 214 C 19.5003 -0.473423 -3.37597 0
M  V30 215 H 20.6933 -1.92587 -2.29892 0
M  V30 216 H 18.2463 -1.03217 -1.17371 0
M  V30 217 H 18.9813 0.480379 -3.20722 0
M  V30 218 H 18.7663 -1.216 -3.72768 0
M  V30 219 H 20.2563 -0.32675 -4.1632 0
M  V30 220 N 20.6934 1.19889 -1.02296 0
M  V30 221 C 21.9424 1.88743 -0.711257 0
M  V30 222 C 22.2554 1.80112 0.762817 0
M  V30 223 O 23.4614 2.44161 1.18733 0
M  V30 224 C 21.9174 3.38525 -1.22185 0
M  V30 225 C 21.5254 3.55727 -2.72328 0
M  V30 226 C 23.2694 4.12893 -0.985864 0
M  V30 227 C 21.1764 4.99369 -3.16835 0
M  V30 228 H 20.1064 0.706885 -0.262353 0
M  V30 229 H 22.7574 1.35586 -1.23648 0
M  V30 230 H 21.1394 3.91044 -0.624571 0
M  V30 231 H 22.3134 3.13564 -3.3766 0
M  V30 232 H 20.6284 2.94739 -2.9414 0
M  V30 233 H 23.2254 5.18813 -1.29374 0
M  V30 234 H 23.5684 4.16228 0.0775055 0
M  V30 235 H 24.1014 3.66494 -1.54684 0
M  V30 236 H 20.8404 5.01193 -4.22476 0
M  V30 237 H 20.3604 5.42317 -2.56228 0
M  V30 238 H 22.0394 5.67988 -3.09837 0
M  V30 239 N 22.1715 0.800033 1.35784 0
M  V30 240 C 23.3965 0.388511 2.03729 0
M  V30 241 C 23.8215 -0.990481 1.5991 0
M  V30 242 O 23.1795 -1.64013 0.772612 0
M  V30 243 C 23.2275 0.4726 3.5749 0
M  V30 244 O 22.3315 -0.51646 4.09153 0
M  V30 245 H 21.6725 0.163271 0.643614 0
M  V30 246 H 24.2025 1.0841 1.73518 0
M  V30 247 H 24.2125 0.34003 4.06581 0
M  V30 248 H 22.8875 1.47848 3.88734 0
M  V30 249 H 21.4645 -0.344673 3.71304 0
M  V30 250 N 23.6496 -1.47581 0.552962 0
M  V30 251 C 24.5796 -2.32762 -0.185451 0
M  V30 252 C 25.5606 -1.43527 -0.912905 0
M  V30 253 O 26.7456 -1.72388 -0.894201 0
M  V30 254 C 23.8756 -3.25219 -1.21859 0
M  V30 255 C 22.8296 -4.23661 -0.607864 0
M  V30 256 C 22.1556 -5.05413 -1.74533 0
M  V30 257 C 23.4556 -5.20481 0.435582 0
M  V30 258 H 25.1496 -2.94749 0.525684 0
M  V30 259 H 22.6956 -1.41738 0.254251 0
M  V30 260 H 24.6486 -3.8365 -1.7433 0
M  V30 261 H 23.3726 -2.61279 -1.95961 0
M  V30 262 H 22.0316 -3.66451 -0.104489 0
M  V30 263 H 21.6796 -4.3788 -2.47529 0
M  V30 264 H 21.3796 -5.72059 -1.34249 0
M  V30 265 H 22.9036 -5.66701 -2.27338 0
M  V30 266 H 24.3176 -5.733 -0.00290157 0
M  V30 267 H 22.7146 -5.95305 0.757067 0
M  V30 268 H 23.7846 -4.66217 1.33303 0
M  V30 269 N 25.1277 -0.289203 -1.54924 0
M  V30 270 C 26.0907 0.579144 -2.21762 0
M  V30 271 C 27.0907 1.07047 -1.1999 0
M  V30 272 O 28.2807 0.968384 -1.44803 0
M  V30 273 C 25.4127 1.80055 -2.8947 0
M  V30 274 H 26.6057 -0.00464908 -2.999 0
M  V30 275 H 24.1587 -0.0399306 -1.56249 0
M  V30 276 H 24.8937 2.42449 -2.15381 0
M  V30 277 H 24.6787 1.45602 -3.64064 0
M  V30 278 H 26.1687 2.41773 -3.40493 0
M  V30 279 N 26.6058 1.57591 -0.0167156 0
M  V30 280 C 27.8308 1.9598 0.67872 0
M  V30 281 C 28.2558 0.892546 1.65575 0
M  V30 282 O 27.6138 -0.147772 1.80697 0
M  V30 283 C 27.6618 3.33468 1.37227 0
M  V30 284 O 26.7658 3.28954 2.48722 0
M  V30 285 H 26.1068 0.639339 0.17928 0
M  V30 286 H 28.6368 2.04463 -0.0748802 0
M  V30 287 H 28.6468 3.69417 1.7319 0
M  V30 288 H 27.3218 4.10694 0.656007 0
M  V30 289 H 25.8988 3.04705 2.14963 0
M  V30 290 N 28.0839 -0.256276 1.55502 0
M  V30 291 C 29.0169 -1.34321 1.84481 0
M  V30 292 C 29.9949 -1.46802 0.699131 0
M  V30 293 O 31.1789 -1.63165 0.943904 0
M  V30 294 C 28.3059 -2.71779 2.02123 0
M  V30 295 C 27.3519 -2.76496 3.24734 0
M  V30 296 S 28.1849 -2.3405 4.81644 0
M  V30 297 C 29.3409 -3.73452 5.02279 0
M  V30 298 H 29.5739 -1.09539 2.76385 0
M  V30 299 H 27.1069 -0.45678 1.47489 0
M  V30 300 H 29.0649 -3.50932 2.12972 0
M  V30 301 H 27.7259 -2.93803 1.11078 0
M  V30 302 H 26.9189 -3.77424 3.34016 0
M  V30 303 H 26.5209 -2.05379 3.12563 0
M  V30 304 H 28.8129 -4.6887 4.89047 0
M  V30 305 H 29.7559 -3.6911 6.04287 0
M  V30 306 H 30.1639 -3.6553 4.30172 0
M  V30 307 N 29.562 -1.4872 -0.521534 0
M  V30 308 C 30.808 -1.574 -1.27879 0
M  V30 309 C 31.141 -0.250817 -1.92573 0
M  V30 310 O 30.416 0.743934 -1.79711 0
M  V30 311 C 30.699 -2.71843 -2.36164 0
M  V30 312 C 30.552 -4.13893 -1.76105 0
M  V30 313 C 31.871 -2.82008 -3.37875 0
M  V30 314 H 28.99 -0.572941 -0.463581 0
M  V30 315 H 31.632 -1.80927 -0.580119 0
M  V30 316 H 29.782 -2.51914 -2.95756 0
M  V30 317 H 31.454 -4.45284 -1.20499 0
M  V30 318 H 29.697 -4.20498 -1.06601 0
M  V30 319 H 30.368 -4.89804 -2.5455 0
M  V30 320 H 32.844 -3.00086 -2.88249 0
M  V30 321 H 31.72 -3.63796 -4.11028 0
M  V30 322 H 31.981 -1.90511 -3.98946 0
M  V30 323 N 31.0401 0.771051 -1.3745 0
M  V30 324 C 32.2681 1.56015 -1.35893 0
M  V30 325 C 32.6831 1.88718 0.0555523 0
M  V30 326 O 32.0401 1.51502 1.01752 0
M  V30 327 C 32.0911 2.87001 -2.19801 0
M  V30 328 O 31.8121 2.557 -3.55738 0
M  V30 329 C 33.3131 3.81228 -2.26231 0
M  V30 330 H 30.5331 0.483317 -0.465453 0
M  V30 331 H 33.0771 0.955611 -1.80799 0
M  V30 332 H 31.2321 3.43877 -1.78402 0
M  V30 333 H 31.6461 3.39584 -3.99729 0
M  V30 334 H 33.1201 4.70139 -2.89263 0
M  V30 335 H 33.5971 4.20409 -1.27093 0
M  V30 336 H 34.2031 3.30281 -2.67945 0
M  V30 337 N 32.5182 1.22032 0.997298 0
M  V30 338 C 33.4282 1.00271 2.12092 0
M  V30 339 C 34.4442 -0.047621 1.73935 0
M  V30 340 O 35.6202 0.144136 2.00884 0
M  V30 341 C 32.6852 0.578449 3.4184 0
M  V30 342 C 31.7462 1.70189 3.94125 0
M  V30 343 C 30.9792 1.29778 5.17681 0
M  V30 344 O 31.2022 0.174676 5.70132 0
M  V30 345 O 30.1362 2.11261 5.63607 0
M  V30 346 H 33.9622 1.94398 2.3333 0
M  V30 347 H 31.5472 1.00587 1.10465 0
M  V30 348 H 33.4292 0.351998 4.19927 0
M  V30 349 H 32.1042 -0.334019 3.21972 0
M  V30 350 H 31.0112 1.98282 3.1723 0
M  V30 351 H 32.3442 2.59206 4.18417 0
M  V30 352 N 33.9963 -1.19345 1.0293 0
M  V30 353 C 35.2733 -1.84811 0.640642 0
M  V30 354 C 35.6533 -1.91855 -0.88062 0
M  V30 355 O 35.0013 -1.43587 -1.7775 0
M  V30 356 C 35.2113 -3.23755 1.30321 0
M  V30 357 C 36.5593 -3.99912 1.42673 0
M  V30 358 O 37.5833 -3.33155 1.26041 0
M  V30 359 O 36.4423 -5.19494 1.6967 0
M  V30 360 H 33.5363 -0.796443 0.222726 0
M  V30 361 H 36.0823 -1.26831 1.12748 0
M  V30 362 H 34.8543 -3.13466 2.34211 0
M  V30 363 H 34.4773 -3.89381 0.804261 0
M  V30 364 N 35.4744 -0.807222 -1.35358 0
M  V30 365 C 36.4044 -0.232509 -2.3234 0
M  V30 366 C 37.3854 0.642386 -1.57504 0
M  V30 367 O 38.5704 0.572526 -1.85569 0
M  V30 368 C 35.7004 0.619238 -3.41735 0
M  V30 369 C 34.6544 -0.157215 -4.27711 0
M  V30 370 C 33.9804 0.816273 -5.28433 0
M  V30 371 C 35.2804 -1.35656 -5.04376 0
M  V30 372 H 36.9744 -1.04276 -2.80654 0
M  V30 373 H 34.5204 -0.50288 -1.34934 0
M  V30 374 H 36.4734 1.03137 -4.08584 0
M  V30 375 H 35.1974 1.46239 -2.92031 0
M  V30 376 H 33.8564 -0.550525 -3.62443 0
M  V30 377 H 33.5044 1.65494 -4.74996 0
M  V30 378 H 33.2044 0.301067 -5.86828 0
M  V30 379 H 34.7284 1.22659 -5.98153 0
M  V30 380 H 36.1424 -1.01927 -5.64166 0
M  V30 381 H 34.5394 -1.8063 -5.7227 0
M  V30 382 H 35.6094 -2.14288 -4.34981 0
M  V30 383 N 36.9525 1.47285 -0.560781 0
M  V30 384 C 38.1925 2.0436 -0.0404627 0
M  V30 385 C 38.5565 1.42534 1.28639 0
M  V30 386 O 39.7575 1.90677 1.89462 0
M  V30 387 C 38.0285 3.57369 0.0471856 0
M  V30 388 S 39.5875 4.3579 0.513109 0
M  V30 389 H 36.4055 0.710492 -0.0268674 0
M  V30 390 H 39.0075 1.80611 -0.748323 0
M  V30 391 H 37.7115 3.9989 -0.922817 0
M  V30 392 H 37.2425 3.8562 0.778491 0
M  V30 393 H 39.2575 4.63476 1.77212 0
M  V30 394 N 38.4306 0.297415 1.54768 0
M  V30 395 C 39.8466 -0.0560823 1.59501 0
M  V30 396 C 40.0466 -1.52725 1.31444 0
M  V30 397 O 39.1026 -2.27947 1.08611 0
M  V30 398 C 40.4156 0.338631 2.98787 0
M  V30 399 C 41.9636 0.287097 3.11681 0
M  V30 400 C 42.4386 0.656579 4.53269 0
M  V30 401 N 43.9296 0.608977 4.59179 0
M  V30 402 C 44.6646 0.867385 5.66802 0
M  V30 403 N 44.1606 1.19157 6.82476 0
M  V30 404 N 45.9536 0.794687 5.56454 0
M  V30 405 H 38.1046 1.25624 1.71267 0
M  V30 406 H 40.3676 0.509057 0.799728 0
M  V30 407 H 40.0736 1.36263 3.2423 0
M  V30 408 H 39.9476 -0.309508 3.75928 0
M  V30 409 H 42.3346 -0.727649 2.85988 0
M  V30 410 H 42.4156 0.969809 2.36703 0
M  V30 411 H 42.0596 1.66912 4.7969 0
M  V30 412 H 41.9896 -0.0481649 5.26578 0
M  V30 413 H 44.4806 0.369198 3.76092 0
M  V30 414 H 44.7936 1.37482 7.60473 0
M  V30 415 H 43.1386 1.22958 6.84037 0
M  V30 416 H 46.3296 0.541098 4.64962 0
M  V30 417 H 46.5026 0.999445 6.40246 0
M  V30 418 N 39.9087 -1.5758 0.0250728 0
M  V30 419 C 40.8717 -2.08896 -0.943139 0
M  V30 420 C 41.8717 -1.00321 -1.25668 0
M  V30 421 O 43.0617 -1.26495 -1.19769 0
M  V30 422 C 40.1937 -2.55143 -2.26086 0
M  V30 423 H 41.3867 -2.95723 -0.498775 0
M  V30 424 H 38.9397 -1.54703 -0.222888 0
M  V30 425 H 39.6747 -1.71633 -2.75159 0
M  V30 426 H 39.4597 -3.34461 -2.04641 0
M  V30 427 H 40.9497 -2.95083 -2.95492 0
M  V30 428 N 41.3868 0.248026 -1.55636 0
M  V30 429 C 42.7978 0.817177 -1.67866 0
M  V30 430 C 43.1488 1.86069 -0.622322 0
M  V30 431 O 42.2738 2.15157 0.231618 0
M  V30 432 C 42.8688 1.489 -3.04326 0
M  V30 433 C 41.4278 2.00587 -3.185 0
M  V30 434 C 40.5748 0.856573 -2.63739 0
M  V30 435 H 43.5258 0.0238579 -1.58682 0
M  V30 436 H 43.5468 2.35698 -2.98708 0
M  V30 437 H 43.0588 0.729279 -3.81186 0
M  V30 438 H 41.1598 2.79443 -2.4646 0
M  V30 439 H 41.2728 2.20402 -4.25393 0
M  V30 440 H 39.6368 1.25678 -2.21534 0
M  V30 441 H 40.4198 0.109953 -3.43124 0
M  V30 442 N 42.8649 1.48995 0.513639 0
M  V30 443 C 44.1419 1.48338 1.27495 0
M  V30 444 C 44.5219 0.204065 2.10111 0
M  V30 445 O 43.8699 -0.813881 2.13514 0
M  V30 446 C 44.0799 2.75498 2.14247 0
M  V30 447 C 45.4279 3.24484 2.73852 0
M  V30 448 O 46.4519 2.76528 2.24523 0
M  V30 449 O 45.3109 4.07974 3.6362 0
M  V30 450 H 42.4049 0.593149 0.576284 0
M  V30 451 H 44.9509 1.61246 0.528948 0
M  V30 452 H 43.7229 3.60109 1.53092 0
M  V30 453 H 43.3459 2.6539 2.96064 0
M  V30 454 N 44.343 -0.763751 1.37857 0
M  V30 455 C 45.591 -1.51957 1.33243 0
M  V30 456 C 45.912 -1.94835 -0.0801709 0
M  V30 457 O 45.182 -1.66894 -1.02582 0
M  V30 458 H 43.762 -0.563626 0.49024 0
M  V30 459 H 46.424 -0.908504 1.7243 0
M  V30 460 H 45.52 -2.41523 1.97669 0
M  V30 461 N 45.8211 -1.22559 -0.990812 0
M  V30 462 C 46.7681 -0.997519 -2.0813 0
M  V30 463 C 47.7381 0.0814702 -1.659 0
M  V30 464 O 48.9231 -0.0685424 -1.90677 0
M  V30 465 C 46.0631 -0.583615 -3.40129 0
M  V30 466 C 45.1761 -1.7336 -3.9569 0
M  V30 467 C 44.3111 -1.26748 -5.15857 0
M  V30 468 C 43.3501 -2.38888 -5.63559 0
M  V30 469 N 42.4871 -1.93308 -6.74964 0
M  V30 470 H 47.3271 -1.93099 -2.26973 0
M  V30 471 H 44.8641 -0.962114 -1.11273 0
M  V30 472 H 46.8221 -0.324801 -4.15934 0
M  V30 473 H 45.4521 0.312845 -3.2128 0
M  V30 474 H 44.5041 -2.10669 -3.16738 0
M  V30 475 H 45.8161 -2.57704 -4.27071 0
M  V30 476 H 44.9701 -0.966173 -5.98957 0
M  V30 477 H 43.7091 -0.394272 -4.86104 0
M  V30 478 H 42.7141 -2.69805 -4.79046 0
M  V30 479 H 43.9391 -3.26728 -5.95336 0
M  V30 480 H 41.8851 -1.08352 -6.4699 0
M  V30 481 H 41.8021 -2.71217 -7.05675 0
M  V30 482 H 43.0701 -1.66252 -7.61564 0
M  V30 483 N 47.2992 1.18797 -1.03562 0
M  V30 484 C 48.2462 2.22253 -0.622259 0
M  V30 485 C 49.2162 1.61987 0.36736 0
M  V30 486 O 50.4012 1.88986 0.262492 0
M  V30 487 C 47.5412 3.45097 0.0138462 0
M  V30 488 C 46.6542 4.19722 -1.02263 0
M  V30 489 C 45.7892 5.30009 -0.355573 0
M  V30 490 C 44.8282 5.96399 -1.37749 0
M  V30 491 N 43.9652 6.98234 -0.735766 0
M  V30 492 H 48.8052 2.56968 -1.50903 0
M  V30 493 H 46.3422 1.26245 -0.755017 0
M  V30 494 H 48.3002 4.15279 0.399948 0
M  V30 495 H 46.9302 3.11018 0.864158 0
M  V30 496 H 45.9822 3.48418 -1.52673 0
M  V30 497 H 47.2942 4.65227 -1.79903 0
M  V30 498 H 46.4482 6.0664 0.0850095 0
M  V30 499 H 45.1872 4.85592 0.452967 0
M  V30 500 H 44.1922 5.18512 -1.82826 0
M  V30 501 H 45.4172 6.42899 -2.18764 0
M  V30 502 H 43.3632 6.55979 0.0525597 0
M  V30 503 H 43.2802 7.41965 -1.44995 0
M  V30 504 H 44.5482 7.78845 -0.31941 0
M  V30 505 N 48.7773 0.814389 1.34928 0
M  V30 506 C 50.0253 0.397636 1.9815 0
M  V30 507 C 50.3463 -1.04069 1.64908 0
M  V30 508 O 49.6163 -1.72121 0.93548 0
M  V30 509 H 48.1963 0.144043 0.732981 0
M  V30 510 H 50.8583 1.04195 1.6471 0
M  V30 511 H 49.9543 0.509688 3.0791 0
M  V30 512 N 50.2554 -1.46986 0.568584 0
M  V30 513 C 51.1654 -2.33942 -0.17555 0
M  V30 514 C 52.1814 -1.48891 -0.90041 0
M  V30 515 O 53.3574 -1.81794 -0.86676 0
M  V30 516 C 50.4224 -3.25811 -1.18524 0
M  V30 517 C 49.4834 -4.26757 -0.466582 0
M  V30 518 C 48.7164 -5.14236 -1.42817 0
M  V30 519 O 48.9394 -5.04379 -2.66379 0
M  V30 520 O 47.8734 -5.94412 -0.946453 0
M  V30 521 H 51.6994 -2.98896 0.538036 0
M  V30 522 H 49.2844 -1.4573 0.329097 0
M  V30 523 H 51.1664 -3.82527 -1.76779 0
M  V30 524 H 49.8414 -2.63471 -1.88055 0
M  V30 525 H 48.7484 -3.73769 0.157451 0
M  V30 526 H 50.0814 -4.91843 0.187485 0
M  V30 527 N 51.7335 -0.305618 -1.54608 0
M  V30 528 C 52.6965 0.555591 -2.22364 0
M  V30 529 C 53.6965 1.05768 -1.21119 0
M  V30 530 O 54.8865 0.952972 -1.45822 0
M  V30 531 C 52.0185 1.76974 -2.91364 0
M  V30 532 H 53.2115 -0.0364572 -2.99878 0
M  V30 533 H 50.7645 -0.0565007 -1.56198 0
M  V30 534 H 51.4995 2.40151 -2.17941 0
M  V30 535 H 51.2845 1.41732 -3.65588 0
M  V30 536 H 52.7745 2.38148 -3.43038 0
M  V30 537 N 53.2116 1.57565 -0.0334293 0
M  V30 538 C 54.4596 1.91598 0.642999 0
M  V30 539 C 54.7806 0.910847 1.7242 0
M  V30 540 O 54.0506 -0.0469931 1.95844 0
M  V30 541 H 52.6306 0.707228 0.240496 0
M  V30 542 H 55.2926 1.94726 -0.0822488 0
M  V30 543 H 54.3886 2.92336 1.09298 0
M  V30 544 N 54.6897 -0.239769 1.55765 0
M  V30 545 C 56.1057 -0.588624 1.48349 0
M  V30 546 C 56.3057 -1.88005 0.72502 0
M  V30 547 O 55.3617 -2.51186 0.257269 0
M  V30 548 C 56.6747 -0.68474 2.928 0
M  V30 549 C 58.2227 -0.77659 3.03213 0
M  V30 550 C 58.6977 -0.904207 4.48986 0
M  V30 551 N 60.1887 -0.968896 4.52953 0
M  V30 552 C 60.9237 -1.08703 5.63002 0
M  V30 553 N 60.4197 -1.17026 6.82845 0
M  V30 554 N 62.2127 -1.12074 5.50814 0
M  V30 555 H 54.3637 0.607911 2.03515 0
M  V30 556 H 56.6267 0.21083 0.924259 0
M  V30 557 H 56.3327 0.194284 3.51163 0
M  V30 558 H 56.2067 -1.55435 3.43686 0
M  V30 559 H 58.5937 -1.64606 2.44926 0
M  V30 560 H 58.6747 0.118315 2.55526 0
M  V30 561 H 58.3187 -0.0392633 5.07885 0
M  V30 562 H 58.2487 -1.81426 4.9436 0
M  V30 563 H 60.7397 -0.915633 3.6664 0
M  V30 564 H 61.0527 -1.25966 7.62465 0
M  V30 565 H 59.3977 -1.13971 6.85591 0
M  V30 566 H 62.5887 -1.05226 4.5612 0
M  V30 567 H 62.7617 -1.20936 6.36615 0
M  V30 568 N 56.1678 -1.49265 -0.50573 0
M  V30 569 C 57.5788 -1.51769 -1.08734 0
M  V30 570 C 57.9298 -0.301192 -1.93874 0
M  V30 571 O 57.0548 0.589456 -2.08217 0
M  V30 572 C 57.6498 -2.75017 -1.97867 0
M  V30 573 C 56.2088 -2.80314 -2.51199 0
M  V30 574 C 55.3558 -2.4562 -1.28709 0
M  V30 575 H 58.3068 -1.56031 -0.289855 0
M  V30 576 H 58.3278 -2.5491 -2.82491 0
M  V30 577 H 57.8398 -3.63539 -1.35873 0
M  V30 578 H 55.9408 -1.96061 -3.16845 0
M  V30 579 H 56.0538 -3.82366 -2.88675 0
M  V30 580 H 54.4178 -1.97297 -1.61078 0
M  V30 581 H 55.2008 -3.36411 -0.6843 0
M  V30 582 N 57.6459 0.756429 -1.3826 0
M  V30 583 C 58.8939 1.51248 -1.34047 0
M  V30 584 C 59.2149 1.94875 0.0698372 0
M  V30 585 O 58.4849 1.67436 1.01696 0
M  V30 586 H 57.0649 0.561018 -0.493222 0
M  V30 587 H 59.7269 0.899347 -1.7291 0
M  V30 588 H 58.8229 2.40472 -1.98947 0
M  V30 589 N 59.124 1.23083 0.984299 0
M  V30 590 C 60.54 0.992637 1.24975 0
M  V30 591 C 60.74 -0.308618 1.99123 0
M  V30 592 O 59.796 -1.02905 2.30579 0
M  V30 593 C 61.109 2.19698 2.05312 0
M  V30 594 C 62.657 2.24147 2.18465 0
M  V30 595 C 63.132 3.44157 3.02192 0
M  V30 596 N 64.623 3.44372 3.09777 0
M  V30 597 C 65.358 4.33886 3.74874 0
M  V30 598 N 64.854 5.3363 4.41827 0
M  V30 599 N 66.647 4.21639 3.71721 0
M  V30 600 H 58.798 2.06731 0.487453 0
M  V30 601 H 61.061 0.906339 0.277944 0
M  V30 602 H 60.767 3.1411 1.58201 0
M  V30 603 H 60.641 2.20465 3.06064 0
M  V30 604 H 63.028 1.30277 2.64786 0
M  V30 605 H 63.109 2.27415 1.17115 0
M  V30 606 H 62.753 4.38332 2.56568 0
M  V30 607 H 62.683 3.3813 4.03702 0
M  V30 608 H 65.174 2.72201 2.62135 0
M  V30 609 H 65.487 5.98196 4.89266 0
M  V30 610 H 63.832 5.37534 4.40548 0
M  V30 611 H 67.023 3.42962 3.18582 0
M  V30 612 H 67.196 4.91604 4.22173 0
M  V30 613 N 60.6021 -1.18246 1.0419 0
M  V30 614 C 62.0181 -1.40269 0.761366 0
M  V30 615 C 62.2181 -1.90777 -0.648578 0
M  V30 616 O 61.2741 -2.0929 -1.41258 0
M  V30 617 C 62.5871 -2.40237 1.8085 0
M  V30 618 C 64.1351 -2.53961 1.82955 0
M  V30 619 C 64.6101 -3.57194 2.86664 0
M  V30 620 N 66.1011 -3.64702 2.85563 0
M  V30 621 C 66.8361 -4.44309 3.6246 0
M  V30 622 N 66.3321 -5.27514 4.49111 0
M  V30 623 N 68.1251 -4.39084 3.50944 0
M  V30 624 H 60.2761 -0.837882 1.95175 0
M  V30 625 H 62.5391 -0.430608 0.84456 0
M  V30 626 H 62.2451 -2.10176 2.81991 0
M  V30 627 H 62.1191 -3.39601 1.64168 0
M  V30 628 H 64.5061 -2.83338 0.824855 0
M  V30 629 H 64.5871 -1.54706 2.03715 0
M  V30 630 H 64.2311 -3.28558 3.87314 0
M  V30 631 H 64.1611 -4.5613 2.6316 0
M  V30 632 H 66.6521 -3.05289 2.22727 0
M  V30 633 H 66.9651 -5.85411 5.04493 0
M  V30 634 H 65.3101 -5.2693 4.53178 0
M  V30 635 H 68.5011 -3.7313 2.82651 0
M  V30 636 H 68.6741 -5.00883 4.11121 0
M  V30 637 N 62.0802 -0.821533 -1.34494 0
M  V30 638 C 63.3282 -0.408139 -1.97936 0
M  V30 639 C 63.6492 1.03193 -1.65457 0
M  V30 640 O 62.9192 1.71622 -0.944595 0
M  V30 641 H 61.4992 -0.147928 -0.732206 0
M  V30 642 H 64.1612 -1.05067 -1.64155 0
M  V30 643 H 63.2572 -0.52601 -3.07635 0
M  V30 644 N 63.5583 1.46682 -0.576371 0
M  V30 645 C 64.9743 1.57822 -0.237562 0
M  V30 646 C 65.1743 1.57237 1.26011 0
M  V30 647 O 64.2303 1.48596 2.04146 0
M  V30 648 C 65.5433 2.87499 -0.881168 0
M  V30 649 C 67.0913 3.01119 -0.85417 0
M  V30 650 C 67.5663 4.33524 -1.4772 0
M  V30 651 N 69.0573 4.40207 -1.44125 0
M  V30 652 C 69.7923 5.4126 -1.89276 0
M  V30 653 N 69.2883 6.49021 -2.42371 0
M  V30 654 N 71.0813 5.32422 -1.80231 0
M  V30 655 H 63.2323 1.45306 -1.54919 0
M  V30 656 H 65.4953 0.692733 -0.647167 0
M  V30 657 H 65.2013 2.9372 -1.93447 0
M  V30 658 H 65.0753 3.75224 -0.385592 0
M  V30 659 H 67.4623 2.94485 0.190491 0
M  V30 660 H 67.5433 2.14887 -1.3877 0
M  V30 661 H 67.1873 4.40916 -2.52103 0
M  V30 662 H 67.1173 5.1852 -0.918947 0
M  V30 663 H 69.6083 3.62931 -1.05307 0
M  V30 664 H 69.9213 7.2233 -2.74698 0
M  V30 665 H 68.2663 6.49858 -2.46393 0
M  V30 666 H 71.4573 4.47137 -1.38514 0
M  V30 667 H 71.6303 6.11034 -2.15735 0
M  V30 668 N 65.0364 0.313813 1.54444 0
M  V30 669 C 66.4474 -0.176243 1.85866 0
M  V30 670 C 66.7984 -1.52405 1.23561 0
M  V30 671 O 65.9234 -2.09605 0.538016 0
M  V30 672 C 66.5184 -0.32657 3.37222 0
M  V30 673 C 65.0774 -0.760846 3.6863 0
M  V30 674 C 64.2244 0.123247 2.77026 0
M  V30 675 H 67.1754 0.534418 1.49431 0
M  V30 676 H 67.1964 -1.15908 3.62416 0
M  V30 677 H 66.7084 0.654531 3.82541 0
M  V30 678 H 64.8094 -1.75204 3.28838 0
M  V30 679 H 64.9224 -0.571353 4.75681 0
M  V30 680 H 63.2864 -0.399597 2.51546 0
M  V30 681 H 64.0694 1.10094 3.25168 0
M  V30 682 N 66.5145 -1.57545 0.0417849 0
M  V30 683 C 67.7625 -1.91937 -0.632829 0
M  V30 684 C 68.0835 -0.919978 -1.71934 0
M  V30 685 O 67.3535 0.0366064 -1.95866 0
M  V30 686 H 65.9335 -0.708493 -0.236742 0
M  V30 687 H 68.5955 -1.9468 0.0925745 0
M  V30 688 H 67.6915 -2.92912 -1.07746 0
M  V30 689 N 67.9926 0.231505 -1.5589 0
M  V30 690 C 68.9226 1.29022 -1.94617 0
M  V30 691 C 69.9036 1.4941 -0.813067 0
M  V30 692 O 71.0886 1.6176 -1.07459 0
M  V30 693 C 68.2186 2.64199 -2.25424 0
M  V30 694 C 67.1726 2.58484 -3.41131 0
M  V30 695 C 66.4986 3.97599 -3.57518 0
M  V30 696 C 67.7986 2.1413 -4.76388 0
M  V30 697 H 69.4926 0.968563 -2.83301 0
M  V30 698 H 67.0386 0.464479 -1.36303 0
M  V30 699 H 68.9916 3.38413 -2.51107 0
M  V30 700 H 67.7156 2.98032 -1.33583 0
M  V30 701 H 66.3746 1.86727 -3.15481 0
M  V30 702 H 66.0226 4.28723 -2.6307 0
M  V30 703 H 65.7226 3.94659 -4.35337 0
M  V30 704 H 67.2466 4.7349 -3.85538 0
M  V30 705 H 68.6606 2.78083 -5.01341 0
M  V30 706 H 67.0576 2.2227 -5.57419 0
M  V30 707 H 68.1276 1.09331 -4.72414 0
M  V30 708 N 69.4707 1.49531 0.497807 0
M  V30 709 C 70.4177 1.66436 1.59899 0
M  V30 710 C 71.3877 0.505793 1.58212 0
M  V30 711 O 72.5727 0.733202 1.7615 0
M  V30 712 C 69.7127 1.7399 2.98029 0
M  V30 713 C 68.8257 3.01172 3.09708 0
M  V30 714 C 67.9607 2.99686 4.38591 0
M  V30 715 C 66.9997 4.21434 4.43914 0
M  V30 716 N 66.1367 4.1784 5.64229 0
M  V30 717 H 70.9767 2.60459 1.44793 0
M  V30 718 H 68.5137 1.29137 0.704423 0
M  V30 719 H 70.4717 1.76352 3.78095 0
M  V30 720 H 69.1017 0.834301 3.11832 0
M  V30 721 H 68.1537 3.08408 2.22685 0
M  V30 722 H 69.4657 3.91165 3.09502 0
M  V30 723 H 68.6197 3.00628 5.2698 0
M  V30 724 H 67.3587 2.07477 4.41367 0
M  V30 725 H 66.3637 4.20733 3.53926 0
M  V30 726 H 67.5887 5.14839 4.42851 0
M  V30 727 H 65.5347 3.28469 5.67841 0
M  V30 728 H 65.4517 5.01571 5.65652 0
M  V30 729 H 66.7197 4.22889 6.54817 0
M  V30 730 N 70.9488 -0.749086 1.3866 0
M  V30 731 C 72.1968 -1.50535 1.34847 0
M  V30 732 C 72.5178 -1.94909 -0.0595016 0
M  V30 733 O 71.7878 -1.67973 -1.00806 0
M  V30 734 H 70.3678 -0.558395 0.49619 0
M  V30 735 H 73.0298 -0.890165 1.73384 0
M  V30 736 H 72.1258 -2.39413 2.00219 0
M  V30 737 N 72.4269 -1.23603 -0.977757 0
M  V30 738 C 73.3369 -1.03632 -2.1047 0
M  V30 739 C 74.3529 0.0199435 -1.73989 0
M  V30 740 O 75.5289 -0.176076 -2.00629 0
M  V30 741 C 72.5939 -0.63276 -3.40877 0
M  V30 742 C 71.6549 -1.76437 -3.91367 0
M  V30 743 C 70.8879 -1.37997 -5.15551 0
M  V30 744 O 71.1109 -0.265357 -5.69782 0
M  V30 745 O 70.0449 -2.20201 -5.60174 0
M  V30 746 H 73.8709 -1.98086 -2.30208 0
M  V30 747 H 71.4559 -1.02332 -1.08851 0
M  V30 748 H 73.3379 -0.418761 -4.19314 0
M  V30 749 H 72.0129 0.282754 -3.22463 0
M  V30 750 H 70.9199 -2.03304 -3.14036 0
M  V30 751 H 72.2529 -2.6583 -4.14241 0
M  V30 752 N 73.905 1.17692 -1.04816 0
M  V30 753 C 74.837 2.21103 -0.603822 0
M  V30 754 C 75.85 1.59411 0.33046 0
M  V30 755 O 77.039 1.7807 0.12379 0
M  V30 756 C 74.139 3.38623 0.136898 0
M  V30 757 C 73.312 4.29888 -0.807137 0
M  V30 758 C 72.371 5.26088 -0.10836 0
M  V30 759 O 71.397 5.64353 -0.741232 0
M  V30 760 N 72.599 5.68882 1.15558 0
M  V30 761 H 75.364 2.59848 -1.49329 0
M  V30 762 H 72.925 1.32553 -0.929587 0
M  V30 763 H 74.917 4.00009 0.614401 0
M  V30 764 H 73.487 2.98508 0.927993 0
M  V30 765 H 72.707 3.65993 -1.46434 0
M  V30 766 H 73.995 4.87759 -1.44807 0
M  V30 767 H 73.393 5.39861 1.69015 0
M  V30 768 H 71.95 6.32429 1.57722 0
M  V30 769 N 75.3831 0.828654 1.34056 0
M  V30 770 C 76.6311 0.41863 1.97717 0
M  V30 771 C 76.9521 -1.02314 1.66002 0
M  V30 772 O 76.2221 -1.71119 0.953683 0
M  V30 773 H 74.8021 0.151809 0.731412 0
M  V30 774 H 77.4641 1.05936 1.63596 0
M  V30 775 H 76.5601 0.542318 3.07352 0
M  V30 776 N 76.8612 -1.46375 0.584142 0
M  V30 777 C 77.7712 -2.34115 -0.150728 0
M  V30 778 C 78.7872 -1.49838 -0.884567 0
M  V30 779 O 79.9632 -1.82704 -0.847429 0
M  V30 780 C 77.0282 -3.2705 -1.15062 0
M  V30 781 C 76.0892 -4.27228 -0.421293 0
M  V30 782 C 75.3222 -5.15722 -1.37355 0
M  V30 783 O 75.5452 -5.07176 -2.61014 0
M  V30 784 O 74.4792 -5.95383 -0.883355 0
M  V30 785 H 78.3052 -2.98309 0.569708 0
M  V30 786 H 75.8902 -1.45373 0.344535 0
M  V30 787 H 77.7722 -3.84381 -1.72712 0
M  V30 788 H 76.4472 -2.65451 -1.8525 0
M  V30 789 H 75.3542 -3.7358 0.197085 0
M  V30 790 H 76.6872 -4.91616 0.239641 0
M  V30 791 N 78.3393 -0.321999 -1.54275 0
M  V30 792 C 79.7503 0.166384 -1.85957 0
M  V30 793 C 80.1013 1.51747 -1.24367 0
M  V30 794 O 79.2263 2.09317 -0.549124 0
M  V30 795 C 79.8213 0.308681 -3.37391 0
M  V30 796 C 78.3803 0.741286 -3.69028 0
M  V30 797 C 77.5273 -0.137937 -2.76957 0
M  V30 798 H 80.4783 -0.542335 -1.49146 0
M  V30 799 H 80.4993 1.13984 -3.63026 0
M  V30 800 H 80.0113 -0.674809 -3.82188 0
M  V30 801 H 78.1123 1.73458 -3.29762 0
M  V30 802 H 78.2253 0.546118 -4.75977 0
M  V30 803 H 76.5893 0.386251 -2.51754 0
M  V30 804 H 77.3723 -1.11816 -3.2458 0
M  V30 805 N 79.8174 1.5752 -0.0501392 0
M  V30 806 C 81.0654 1.9227 0.622642 0
M  V30 807 C 81.3864 0.929083 1.71444 0
M  V30 808 O 80.6564 -0.0262186 1.95882 0
M  V30 809 H 79.2364 0.709739 0.232981 0
M  V30 810 H 81.8984 1.94628 -0.102898 0
M  V30 811 H 80.9944 2.93479 1.06191 0
M  V30 812 N 81.2955 -0.223234 1.56011 0
M  V30 813 C 82.2585 -1.26014 1.9145 0
M  V30 814 C 83.2585 -1.3989 0.792937 0
M  V30 815 O 84.4485 -1.38184 1.0607 0
M  V30 816 C 81.5805 -2.63422 2.16383 0
M  V30 817 H 82.7735 -0.95796 2.84189 0
M  V30 818 H 80.3265 -0.463576 1.49267 0
M  V30 819 H 81.0615 -2.98741 1.2619 0
M  V30 820 H 80.8465 -2.54728 2.98088 0
M  V30 821 H 82.3365 -3.38249 2.44903 0
M  V30 822 N 82.7736 -1.49793 -0.48987 0
M  V30 823 C 84.1846 -1.52914 -1.07118 0
M  V30 824 C 84.5356 -0.321738 -1.93544 0
M  V30 825 O 83.6606 0.567338 -2.08831 0
M  V30 826 C 84.2556 -2.771 -1.94938 0
M  V30 827 C 82.8146 -2.82963 -2.48212 0
M  V30 828 C 81.9616 -2.46972 -1.26096 0
M  V30 829 H 84.9126 -1.56329 -0.273289 0
M  V30 830 H 84.9336 -2.57892 -2.79771 0
M  V30 831 H 84.4456 -3.64959 -1.32009 0
M  V30 832 H 82.5466 -1.99411 -3.14748 0
M  V30 833 H 82.6596 -3.85406 -2.84603 0
M  V30 834 H 81.0236 -1.98994 -1.58976 0
M  V30 835 H 81.8066 -3.37118 -0.648581 0
M  V30 836 N 84.2517 0.741722 -1.39055 0
M  V30 837 C 85.4997 1.49818 -1.35643 0
M  V30 838 C 85.8207 1.94938 0.0491642 0
M  V30 839 O 85.0907 1.68505 0.999141 0
M  V30 840 H 83.6707 0.555755 -0.499144 0
M  V30 841 H 86.3327 0.880957 -1.73854 0
M  V30 842 H 85.4287 2.38348 -2.01486 0
M  V30 843 N 85.7298 1.2412 0.971189 0
M  V30 844 C 86.9788 1.07284 1.70801 0
M  V30 845 C 87.2918 -0.388902 1.91695 0
M  V30 846 O 88.4978 -0.677379 2.62914 0
M  V30 847 C 86.9538 1.87145 3.07416 0
M  V30 848 C 86.5618 3.37707 2.94377 0
M  V30 849 C 88.3058 1.78828 3.84995 0
M  V30 850 C 86.2128 4.09925 4.26281 0
M  V30 851 H 85.1428 0.397854 0.64049 0
M  V30 852 H 87.7938 1.4817 1.0825 0
M  V30 853 H 86.1758 1.39071 3.70777 0
M  V30 854 H 87.3498 3.93335 2.4005 0
M  V30 855 H 85.6648 3.46938 2.30267 0
M  V30 856 H 88.2618 2.30089 4.82662 0
M  V30 857 H 88.6048 0.75284 4.09436 0
M  V30 858 H 89.1378 2.24563 3.28354 0
M  V30 859 H 85.8768 5.13813 4.07033 0
M  V30 860 H 85.3968 3.59083 4.80437 0
M  V30 861 H 87.0758 4.1673 4.94919 0
M  V30 862 N 87.2079 -1.17134 1.05439 0
M  V30 863 C 88.6239 -1.39454 0.776201 0
M  V30 864 C 88.8239 -1.91454 -0.628307 0
M  V30 865 O 87.8799 -2.10777 -1.39031 0
M  V30 866 C 89.1929 -2.38305 1.83388 0
M  V30 867 C 90.7409 -2.52006 1.85639 0
M  V30 868 C 91.2159 -3.54133 2.90437 0
M  V30 869 N 92.7069 -3.61653 2.89415 0
M  V30 870 C 93.4419 -4.4044 3.67152 0
M  V30 871 N 92.9379 -5.22721 4.54681 0
M  V30 872 N 94.7309 -4.35337 3.55581 0
M  V30 873 H 86.8819 -0.817134 1.96053 0
M  V30 874 H 89.1449 -0.421626 0.849079 0
M  V30 875 H 88.8509 -2.07173 2.84204 0
M  V30 876 H 88.7249 -3.37841 1.67761 0
M  V30 877 H 91.1119 -2.82447 0.85486 0
M  V30 878 H 91.1929 -1.52537 2.05344 0
M  V30 879 H 90.8369 -3.24431 3.90777 0
M  V30 880 H 90.7669 -4.53313 2.67983 0
M  V30 881 H 93.2579 -3.02909 2.25952 0
M  V30 882 H 93.5709 -5.80027 5.10674 0
M  V30 883 H 91.9159 -5.22093 4.58741 0
M  V30 884 H 95.1069 -3.70112 2.86592 0
M  V30 885 H 95.2799 -4.96494 4.1641 0
M  V30 886 N 88.686 -0.835752 -1.33615 0
M  V30 887 C 89.914 -0.443344 -2.02094 0
M  V30 888 C 90.329 0.954522 -1.62894 0
M  V30 889 O 89.686 1.61982 -0.840723 0
M  V30 890 C 89.737 -0.550775 -3.5728 0
M  V30 891 O 89.458 -1.89356 -3.95065 0
M  V30 892 C 90.959 -0.154919 -4.43029 0
M  V30 893 H 88.179 -0.176359 -0.647409 0
M  V30 894 H 90.723 -1.12746 -1.70612 0
M  V30 895 H 88.878 0.0853997 -3.87306 0
M  V30 896 H 89.292 -1.87687 -4.89769 0
M  V30 897 H 90.766 -0.281144 -5.51284 0
M  V30 898 H 91.243 0.902863 -4.2982 0
M  V30 899 H 91.849 -0.765404 -4.18356 0
M  V30 900 N 90.1641 1.46063 -0.591896 0
M  V30 901 C 91.4121 2.01938 -0.0808391 0
M  V30 902 C 91.7331 1.46475 1.28725 0
M  V30 903 O 91.0031 0.652944 1.84698 0
M  V30 904 H 89.5831 0.746516 -0.0268938 0
M  V30 905 H 92.2451 1.79055 -0.769752 0
M  V30 906 H 91.3411 3.12094 -0.0187578 0
M  V30 907 N 91.6422 0.330177 1.54103 0
M  V30 908 C 92.8912 -0.271336 1.99867 0
M  V30 909 C 93.2042 -1.52723 1.22209 0
M  V30 910 O 94.4102 -2.20515 1.58383 0
M  V30 911 C 92.8662 -0.534032 3.55916 0
M  V30 912 C 92.4742 0.705193 4.42415 0
M  V30 913 C 94.2182 -1.09514 4.1013 0
M  V30 914 C 92.1252 0.414035 5.89949 0
M  V30 915 H 91.0552 -0.105166 0.74663 0
M  V30 916 H 93.7062 0.443429 1.78062 0
M  V30 917 H 92.0882 -1.30915 3.73734 0
M  V30 918 H 93.2622 1.4804 4.36372 0
M  V30 919 H 91.5772 1.18698 3.99124 0
M  V30 920 H 94.1742 -1.3277 5.17954 0
M  V30 921 H 94.5172 -2.04656 3.62521 0
M  V30 922 H 95.0502 -0.381038 3.95971 0
M  V30 923 H 91.7892 1.33481 6.41766 0
M  V30 924 H 91.3092 -0.323336 5.98928 0
M  V30 925 H 92.9882 0.0263105 6.46995 0
M  V30 926 N 93.1203 -1.57491 0.0584922 0
M  V30 927 C 94.0523 -2.08916 -0.942694 0
M  V30 928 C 95.0653 -1.0185 -1.27006 0
M  V30 929 O 96.2543 -1.29398 -1.22957 0
M  V30 930 C 93.3543 -2.52341 -2.26224 0
M  V30 931 C 92.5273 -3.82827 -2.1157 0
M  V30 932 C 91.5863 -4.12487 -3.26712 0
M  V30 933 O 90.6123 -4.82295 -3.02292 0
M  V30 934 N 91.8143 -3.64978 -4.5141 0
M  V30 935 H 94.5793 -2.95437 -0.503722 0
M  V30 936 H 92.1403 -1.61397 -0.12757 0
M  V30 937 H 94.1323 -2.69254 -3.02133 0
M  V30 938 H 92.7023 -1.7103 -2.61663 0
M  V30 939 H 91.9223 -3.75425 -1.20208 0
M  V30 940 H 93.2103 -4.68263 -1.99015 0
M  V30 941 H 92.6083 -3.08558 -4.7414 0
M  V30 942 H 91.1653 -3.87115 -5.2439 0
M  V30 943 N 94.5984 0.214957 -1.56127 0
M  V30 944 C 95.8464 0.936518 -1.79091 0
M  V30 945 C 96.1674 1.84606 -0.628148 0
M  V30 946 O 95.4374 1.92664 0.35462 0
M  V30 947 H 94.0174 0.3488 -0.660566 0
M  V30 948 H 96.6794 0.22523 -1.93594 0
M  V30 949 H 95.7754 1.53943 -2.71492 0
M  V30 950 N 96.0765 1.50051 0.48192 0
M  V30 951 C 97.0065 1.71046 1.58951 0
M  V30 952 C 97.9875 0.559288 1.60642 0
M  V30 953 O 99.1725 0.797243 1.77081 0
M  V30 954 C 96.3025 1.79462 2.97339 0
M  V30 955 C 95.2565 2.94558 3.10515 0
M  V30 956 C 94.5825 2.88105 4.50444 0
M  V30 957 C 95.8825 4.35227 2.88747 0
M  V30 958 H 97.5765 2.6378 1.41635 0
M  V30 959 H 95.1225 1.26936 0.679942 0
M  V30 960 H 97.0755 1.92734 3.74742 0
M  V30 961 H 95.7995 0.833412 3.15788 0
M  V30 962 H 94.4585 2.80918 2.35543 0
M  V30 963 H 94.1065 1.89853 4.65795 0
M  V30 964 H 93.8065 3.65366 4.60197 0
M  V30 965 H 95.3305 3.03412 5.29881 0
M  V30 966 H 96.7445 4.49449 3.55905 0
M  V30 967 H 95.1415 5.13856 3.09955 0
M  V30 968 H 96.2115 4.48347 1.84696 0
M  V30 969 N 97.5546 -0.734337 1.39446 0
M  V30 970 C 98.5016 -1.84835 1.38219 0
M  V30 971 C 99.4716 -1.64331 0.24179 0
M  V30 972 O 100.657 -1.85728 0.437002 0
M  V30 973 C 97.7966 -3.22355 1.23212 0
M  V30 974 C 96.9096 -3.5456 2.46801 0
M  V30 975 C 96.0446 -4.81485 2.24377 0
M  V30 976 C 95.0836 -5.06536 3.43639 0
M  V30 977 N 94.2206 -6.24665 3.20528 0
M  V30 978 H 99.0606 -1.85219 2.33448 0
M  V30 979 H 96.5976 -0.905039 1.15963 0
M  V30 980 H 98.5556 -4.0174 1.12522 0
M  V30 981 H 97.1856 -3.21248 0.316121 0
M  V30 982 H 96.2376 -2.69872 2.68092 0
M  V30 983 H 97.5496 -3.6899 3.3563 0
M  V30 984 H 96.7036 -5.68852 2.10933 0
M  V30 985 H 95.4426 -4.6923 1.32944 0
M  V30 986 H 94.4476 -4.17632 3.5758 0
M  V30 987 H 95.6726 -5.20676 4.35974 0
M  V30 988 H 93.6186 -6.13696 2.3176 0
M  V30 989 H 93.5356 -6.39685 4.02913 0
M  V30 990 H 94.8036 -7.14868 3.10779 0
M  V30 991 N 99.0327 -1.24633 -0.964593 0
M  V30 992 C 100.281 -1.08573 -1.70459 0
M  V30 993 C 100.602 0.375655 -1.91347 0
M  V30 994 O 99.8717 1.26779 -1.49345 0
M  V30 995 H 98.4517 -0.398784 -0.631649 0
M  V30 996 H 101.114 -1.56601 -1.16026 0
M  V30 997 H 100.21 -1.58623 -2.68785 0
M  V30 998 N 100.511 1.16574 -1.06058 0
M  V30 999 C 101.788 1.83048 -0.689416 0
M  V30 1000 C 102.168 1.94122 0.829443 0
M  V30 1001 O 101.516 1.48249 1.7388 0
M  V30 1002 C 101.726 3.20186 -1.38859 0
M  V30 1003 C 103.074 3.95989 -1.53226 0
M  V30 1004 O 104.098 3.29696 -1.3483 0
M  V30 1005 O 102.957 5.14813 -1.83384 0
M  V30 1006 H 100.051 0.790258 -0.243764 0
M  V30 1007 H 102.597 1.23797 -1.16071 0
M  V30 1008 H 101.369 3.07146 -2.4244 0
M  V30 1009 H 100.992 3.87112 -0.907216 0
M  V30 1010 N 101.989 0.842826 1.3317 0
M  V30 1011 C 102.921 0.236245 2.27979 0
M  V30 1012 C 103.934 -0.585282 1.51915 0
M  V30 1013 O 105.123 -0.411705 1.73687 0
M  V30 1014 C 102.223 -0.685717 3.3189 0
M  V30 1015 C 101.396 0.0973448 4.37292 0
M  V30 1016 C 100.455 -0.748565 5.20848 0
M  V30 1017 O 99.4809 -0.186339 5.68895 0
M  V30 1018 N 100.683 -2.06527 5.42519 0
M  V30 1019 H 103.448 1.05088 2.80672 0
M  V30 1020 H 101.009 0.701667 1.45905 0
M  V30 1021 H 103.001 -1.25669 3.84694 0
M  V30 1022 H 101.571 -1.40105 2.79445 0
M  V30 1023 H 100.791 0.849706 3.84933 0
M  V30 1024 H 102.079 0.635643 5.04814 0
M  V30 1025 H 101.477 -2.54554 5.05192 0
M  V30 1026 H 100.034 -2.58464 5.98364 0
M  V30 1027 N 103.467 -1.45747 0.599634 0
M  V30 1028 C 104.715 -2.01893 0.0915472 0
M  V30 1029 C 105.036 -1.47155 -1.27946 0
M  V30 1030 O 104.306 -0.66273 -1.84349 0
M  V30 1031 H 102.886 -0.746363 0.0308524 0
M  V30 1032 H 105.548 -1.78645 0.779237 0
M  V30 1033 H 104.644 -3.1208 0.0353086 0
M  V30 1034 N 104.945 -0.338344 -1.53925 0
M  V30 1035 C 105.855 0.529421 -2.28548 0
M  V30 1036 C 106.871 1.11645 -1.3346 0
M  V30 1037 O 108.047 1.13325 -1.66492 0
M  V30 1038 C 105.112 1.66713 -3.03987 0
M  V30 1039 C 104.173 1.11041 -4.14691 0
M  V30 1040 C 103.406 2.19389 -4.86522 0
M  V30 1041 O 103.629 3.40013 -4.57982 0
M  V30 1042 O 102.563 1.83976 -5.73094 0
M  V30 1043 H 106.389 -0.0770399 -3.03602 0
M  V30 1044 H 103.974 -0.103555 -1.49041 0
M  V30 1045 H 105.856 2.32918 -3.5118 0
M  V30 1046 H 104.531 2.25949 -2.31794 0
M  V30 1047 H 103.438 0.413024 -3.71813 0
M  V30 1048 H 104.771 0.562975 -4.8897 0
M  V30 1049 N 106.423 1.57458 -0.0668435 0
M  V30 1050 C 107.834 1.80776 0.466558 0
M  V30 1051 C 108.185 0.980361 1.69951 0
M  V30 1052 O 107.31 0.201441 2.1546 0
M  V30 1053 C 107.905 3.27881 0.85321 0
M  V30 1054 C 106.464 3.52062 1.3315 0
M  V30 1055 C 105.611 2.75513 0.314264 0
M  V30 1056 H 108.562 1.5598 -0.292588 0
M  V30 1057 H 108.583 3.39659 1.715 0
M  V30 1058 H 108.095 3.88075 -0.0443439 0
M  V30 1059 H 106.196 2.97167 2.24772 0
M  V30 1060 H 106.309 4.60762 1.31285 0
M  V30 1061 H 104.673 2.42123 0.790492 0
M  V30 1062 H 105.456 3.38442 -0.575477 0
M  V30 1063 N 107.901 -0.206675 1.56239 0
M  V30 1064 C 109.149 -0.927007 1.79586 0
M  V30 1065 C 109.47 -1.8427 0.637929 0
M  V30 1066 O 108.74 -1.92849 -0.344398 0
M  V30 1067 H 107.32 -0.345292 0.662407 0
M  V30 1068 H 109.982 -0.21496 1.93711 0
M  V30 1069 H 109.078 -1.52501 2.72305 0
M  V30 1070 N 109.379 -1.50304 -0.473955 0
M  V30 1071 C 110.79 -1.54042 -1.0549 0
M  V30 1072 C 111.141 -0.342248 -1.93192 0
M  V30 1073 O 110.266 0.545157 -2.09421 0
M  V30 1074 C 110.861 -2.79152 -1.91989 0
M  V30 1075 C 109.42 -2.8558 -2.45196 0
M  V30 1076 C 108.567 -2.48295 -1.2347 0
M  V30 1077 H 111.518 -1.5661 -0.256693 0
M  V30 1078 H 111.539 -2.60845 -2.7702 0
M  V30 1079 H 111.051 -3.66339 -1.28131 0
M  V30 1080 H 109.152 -2.02738 -3.12615 0
M  V30 1081 H 109.265 -3.88403 -2.80499 0
M  V30 1082 H 107.629 -2.00669 -1.56856 0
M  V30 1083 H 108.412 -3.37787 -0.612789 0
M  V30 1084 N 110.857 0.726932 -1.39834 0
M  V30 1085 C 112.082 1.52121 -1.40976 0
M  V30 1086 C 112.507 1.88098 -0.00826029 0
M  V30 1087 O 111.865 1.52479 0.980807 0
M  V30 1088 C 111.913 2.78021 -2.29644 0
M  V30 1089 O 111.017 3.74272 -1.73188 0
M  V30 1090 H 110.358 0.45908 -0.479731 0
M  V30 1091 H 112.888 0.896207 -1.83927 0
M  V30 1092 H 112.898 3.26671 -2.44438 0
M  V30 1093 H 111.573 2.51169 -3.31492 0
M  V30 1094 H 110.15 3.33073 -1.6768 0
M  V30 1095 N 112.336 1.25143 0.95797 0
M  V30 1096 C 113.584 1.09476 1.69881 0
M  V30 1097 C 113.905 -0.365502 1.91544 0
M  V30 1098 O 113.175 -1.25985 1.50015 0
M  V30 1099 H 111.755 0.402128 0.629525 0
M  V30 1100 H 114.417 1.57214 1.15194 0
M  V30 1101 H 113.513 1.60046 2.6794 0
M  V30 1102 N 113.814 -1.1601 1.06675 0
M  V30 1103 C 114.762 -2.22586 0.675157 0
M  V30 1104 C 115.756 -1.66525 -0.310766 0
M  V30 1105 O 116.962 -1.79145 -0.175215 0
M  V30 1106 H 113.337 -0.724855 0.200223 0
M  V30 1107 H 115.308 -2.52899 1.58381 0
M  V30 1108 C 114.057 -3.47604 0.0817162 0
M  V30 1109 H 113.38 -3.91058 0.831484 0
M  V30 1110 H 114.82 -4.23718 -0.154708 0
M  V30 1111 C 113.279 -3.15718 -1.17576 0
M  V30 1112 O 113.809 -3.31878 -2.26318 0
M  V30 1113 N 112.015 -2.69816 -1.07923 0
M  V30 1114 H 111.562 -2.56866 -0.194293 0
M  V30 1115 H 111.52 -2.48855 -1.92141 0
M  V30 1116 N 115.292 -0.849877 -1.32721 0
M  V30 1117 C 116.703 -0.506188 -1.79707 0
M  V30 1118 C 117.054 0.975627 -1.70223 0
M  V30 1119 O 116.179 1.76078 -1.25799 0
M  V30 1120 C 116.774 -0.912044 -3.26293 0
M  V30 1121 C 115.333 -0.620326 -3.71253 0
M  V30 1122 C 114.48 -1.11439 -2.53922 0
M  V30 1123 H 117.431 -1.03754 -1.20087 0
M  V30 1124 H 117.452 -0.226493 -3.79825 0
M  V30 1125 H 116.964 -1.99057 -3.33164 0
M  V30 1126 H 115.065 0.447674 -3.69901 0
M  V30 1127 H 115.178 -1.18327 -4.64258 0
M  V30 1128 H 113.542 -0.534834 -2.49021 0
M  V30 1129 H 114.325 -2.19992 -2.6355 0
M  V30 1130 N 116.77 1.45427 -0.607355 0
M  V30 1131 C 118.018 2.01841 -0.102253 0
M  V30 1132 C 118.339 1.47832 1.27164 0
M  V30 1133 O 117.609 0.672497 1.83995 0
M  V30 1134 H 116.189 0.746188 -0.0348101 0
M  V30 1135 H 118.851 1.78229 -0.7887 0
M  V30 1136 H 117.947 3.12057 -0.0518585 0
M  V30 1137 N 118.248 0.346503 1.53744 0
M  V30 1138 C 119.195 -0.508914 2.25119 0
M  V30 1139 C 120.165 -1.09315 1.25058 0
M  V30 1140 O 121.35 -1.12921 1.53797 0
M  V30 1141 C 118.49 -1.65246 3.02965 0
M  V30 1142 C 117.603 -1.09525 4.17886 0
M  V30 1143 C 116.738 -2.20634 4.83212 0
M  V30 1144 C 115.777 -1.62279 5.90196 0
M  V30 1145 N 114.914 -2.67143 6.49291 0
M  V30 1146 H 119.754 0.106283 2.9781 0
M  V30 1147 H 117.291 0.0642227 1.4696 0
M  V30 1148 H 119.249 -2.32574 3.4636 0
M  V30 1149 H 117.879 -2.2386 2.32565 0
M  V30 1150 H 116.931 -0.312818 3.79112 0
M  V30 1151 H 118.243 -0.628444 4.94825 0
M  V30 1152 H 117.397 -2.95821 5.29693 0
M  V30 1153 H 116.136 -2.70659 4.05703 0
M  V30 1154 H 115.141 -0.855989 5.43096 0
M  V30 1155 H 116.366 -1.13102 6.69615 0
M  V30 1156 H 114.312 -3.16417 5.74645 0
M  V30 1157 H 114.229 -2.25093 7.21713 0
M  V30 1158 H 115.497 -3.4209 7.00425 0
M  V30 1159 N 119.726 -1.57421 0.075193 0
M  V30 1160 C 120.972 -1.93905 -0.594025 0
M  V30 1161 C 121.305 -0.955701 -1.69056 0
M  V30 1162 O 120.58 0.0145373 -1.94495 0
M  V30 1163 C 120.863 -3.40638 -1.1678 0
M  V30 1164 C 120.716 -4.49733 -0.0776792 0
M  V30 1165 C 122.035 -3.88259 -2.07228 0
M  V30 1166 H 119.154 -0.705105 -0.214466 0
M  V30 1167 H 121.796 -1.8947 0.141854 0
M  V30 1168 H 119.946 -3.44549 -1.79494 0
M  V30 1169 H 121.618 -4.57942 0.555573 0
M  V30 1170 H 119.861 -4.29751 0.591286 0
M  V30 1171 H 120.532 -5.49549 -0.519603 0
M  V30 1172 H 123.008 -3.86376 -1.54445 0
M  V30 1173 H 121.884 -4.91533 -2.44308 0
M  V30 1174 H 122.145 -3.26396 -2.98191 0
M  V30 1175 N 121.204 0.198386 -1.56346 0
M  V30 1176 C 122.452 0.91747 -1.80075 0
M  V30 1177 C 122.773 1.83929 -0.647692 0
M  V30 1178 O 122.043 1.93029 0.334166 0
M  V30 1179 H 120.623 0.341774 -0.664228 0
M  V30 1180 H 123.285 0.204684 -1.93822 0
M  V30 1181 H 122.381 1.51055 -2.7311 0
M  V30 1182 N 122.682 1.50554 0.465978 0
M  V30 1183 C 123.912 1.65323 1.23903 0
M  V30 1184 C 124.32 0.338051 1.86155 0
M  V30 1185 O 123.663 -0.690518 1.70228 0
M  V30 1186 C 123.725 2.69048 2.3844 0
M  V30 1187 C 123.389 4.12462 1.96784 0
M  V30 1188 C 124.386 4.98168 1.48745 0
M  V30 1189 C 122.071 4.58407 2.05349 0
M  V30 1190 C 124.065 6.27868 1.0982 0
M  V30 1191 C 121.752 5.88112 1.66035 0
M  V30 1192 C 122.75 6.72668 1.18349 0
M  V30 1193 O 122.438 7.99951 0.795825 0
M  V30 1194 H 122.17 0.558629 0.38067 0
M  V30 1195 H 124.724 1.97561 0.562022 0
M  V30 1196 H 122.954 2.32062 3.09328 0
M  V30 1197 H 124.643 2.72985 3.0039 0
M  V30 1198 H 125.409 4.63885 1.41546 0
M  V30 1199 H 121.288 3.92735 2.41414 0
M  V30 1200 H 124.832 6.93819 0.725293 0
M  V30 1201 H 120.729 6.21914 1.72895 0
M  V30 1202 H 121.497 8.13265 0.924222 0
M  V30 1203 N 124.16 -0.719506 1.40217 0
M  V30 1204 C 125.571 -1.29848 1.34151 0
M  V30 1205 C 125.922 -1.96196 0.0131349 0
M  V30 1206 O 125.047 -1.973 -0.88892 0
M  V30 1207 C 125.642 -2.36118 2.42968 0
M  V30 1208 C 124.201 -2.8965 2.40374 0
M  V30 1209 C 123.348 -1.63393 2.24049 0
M  V30 1210 H 126.299 -0.51591 1.5008 0
M  V30 1211 H 126.32 -3.16871 2.10649 0
M  V30 1212 H 125.832 -1.878 3.39636 0
M  V30 1213 H 123.933 -3.42208 1.47392 0
M  V30 1214 H 124.046 -3.4171 3.35814 0
M  V30 1215 H 122.41 -1.88312 1.71495 0
M  V30 1216 H 123.193 -1.17104 3.2271 0
M  V30 1217 N 125.638 -1.25649 -0.95132 0
M  V30 1218 C 126.886 -1.10375 -1.69298 0
M  V30 1219 C 127.207 0.355339 -1.91735 0
M  V30 1220 O 126.477 1.25188 -1.50681 0
M  V30 1221 H 125.057 -0.405461 -0.627384 0
M  V30 1222 H 127.719 -1.57823 -1.14358 0
M  V30 1223 H 126.815 -1.61465 -2.67087 0
M  V30 1224 N 127.117 1.15442 -1.07289 0
M  V30 1225 C 128.528 1.67803 -0.818475 0
M  V30 1226 C 128.879 1.8489 0.656507 0
M  V30 1227 O 128.004 1.55176 1.50829 0
M  V30 1228 C 128.599 3.04805 -1.47917 0
M  V30 1229 C 127.158 3.54245 -1.27229 0
M  V30 1230 C 126.305 2.29986 -1.54925 0
M  V30 1231 H 129.256 0.996646 -1.23502 0
M  V30 1232 H 129.277 3.69702 -0.90005 0
M  V30 1233 H 128.789 2.92336 -2.55267 0
M  V30 1234 H 126.89 3.71956 -0.21899 0
M  V30 1235 H 127.003 4.35723 -1.99203 0
M  V30 1236 H 125.367 2.35496 -0.970242 0
M  V30 1237 H 126.15 2.20105 -2.63455 0
M  V30 1238 N 128.595 0.856903 1.32268 0
M  V30 1239 C 129.82 0.474569 2.01897 0
M  V30 1240 C 130.245 -0.921766 1.63967 0
M  V30 1241 O 129.603 -1.60589 0.84148 0
M  V30 1242 C 129.651 0.623799 3.55164 0
M  V30 1243 O 128.755 -0.342459 4.10976 0
M  V30 1244 H 128.096 0.190422 0.63611 0
M  V30 1245 H 130.626 1.15672 1.68764 0
M  V30 1246 H 130.636 0.512169 4.04773 0
M  V30 1247 H 129.311 1.64202 3.82113 0
M  V30 1248 H 127.888 -0.18688 3.72431 0
M  V30 1249 N 130.073 -1.45103 0.615059 0
M  V30 1250 C 131.321 -2.01784 0.112955 0
M  V30 1251 C 131.642 -1.48504 -1.26378 0
M  V30 1252 O 130.912 -0.682245 -1.83636 0
M  V30 1253 H 129.492 -0.745993 0.0387668 0
M  V30 1254 H 132.154 -1.77808 0.798141 0
M  V30 1255 H 131.25 -3.12025 0.0684069 0
M  V30 1256 N 131.551 -0.354651 -1.53558 0
M  V30 1257 C 132.962 0.126902 -1.86268 0
M  V30 1258 C 133.313 1.49075 -1.27558 0
M  V30 1259 O 132.438 2.08105 -0.5934 0
M  V30 1260 C 133.033 0.237046 -3.3797 0
M  V30 1261 C 131.592 0.662842 -3.70518 0
M  V30 1262 C 130.739 -0.196652 -2.76602 0
M  V30 1263 H 133.69 -0.573849 -1.47962 0
M  V30 1264 H 133.711 1.06259 -3.65362 0
M  V30 1265 H 133.223 -0.755725 -3.80671 0
M  V30 1266 H 131.324 1.66424 -3.33367 0
M  V30 1267 H 131.437 0.445034 -4.77029 0
M  V30 1268 H 129.801 0.332763 -2.52517 0
M  V30 1269 H 130.584 -1.18676 -3.22135 0
M  V30 1270 N 133.029 1.57378 -0.0835403 0
M  V30 1271 C 133.959 2.1641 0.87686 0
M  V30 1272 C 134.94 1.09429 1.30228 0
M  V30 1273 O 136.125 1.37516 1.37124 0
M  V30 1274 C 133.255 2.73517 2.14022 0
M  V30 1275 C 132.209 3.85769 1.85381 0
M  V30 1276 C 131.535 4.29529 3.18448 0
M  V30 1277 C 132.835 5.09486 1.14984 0
M  V30 1278 H 134.529 2.96914 0.385059 0
M  V30 1279 H 132.075 1.42823 0.18377 0
M  V30 1280 H 134.028 3.13463 2.81636 0
M  V30 1281 H 132.752 1.90252 2.65465 0
M  V30 1282 H 131.411 3.46345 1.20169 0
M  V30 1283 H 131.059 3.43169 3.67755 0
M  V30 1284 H 130.759 5.05204 3.00071 0
M  V30 1285 H 132.283 4.72099 3.8724 0
M  V30 1286 H 133.697 5.46674 1.72687 0
M  V30 1287 H 132.094 5.90515 1.06826 0
M  V30 1288 H 133.164 4.84724 0.130749 0
M  V30 1289 N 134.507 -0.190092 1.56449 0
M  V30 1290 C 135.755 -0.907908 1.80559 0
M  V30 1291 C 136.076 -1.83583 0.657438 0
M  V30 1292 O 135.346 -1.93203 -0.323924 0
M  V30 1293 H 133.926 -0.338247 0.666032 0
M  V30 1294 H 136.588 -0.194403 1.93928 0
M  V30 1295 H 135.684 -1.49604 2.73907 0
M  V30 1296 N 135.985 -1.50799 -0.457987 0
M  V30 1297 C 136.948 -1.7005 -1.53674 0
M  V30 1298 C 137.948 -0.570881 -1.50325 0
M  V30 1299 O 139.138 -0.838126 -1.52712 0
M  V30 1300 C 136.27 -1.73788 -2.93276 0
M  V30 1301 H 137.463 -2.66306 -1.37917 0
M  V30 1302 H 135.016 -1.40477 -0.685271 0
M  V30 1303 H 135.751 -0.792717 -3.14462 0
M  V30 1304 H 135.536 -2.55864 -2.97113 0
M  V30 1305 H 137.026 -1.90591 -3.71571 0
M  V30 1306 N 137.463 0.71206 -1.40597 0
M  V30 1307 C 138.879 1.02058 -1.22704 0
M  V30 1308 C 139.079 2.01228 -0.104729 0
M  V30 1309 O 138.135 2.4674 0.53624 0
M  V30 1310 C 139.448 1.56094 -2.57012 0
M  V30 1311 C 140.996 1.6806 -2.64054 0
M  V30 1312 C 141.471 2.25501 -3.9864 0
M  V30 1313 N 142.962 2.32882 -4.004 0
M  V30 1314 C 143.697 2.78317 -5.01325 0
M  V30 1315 N 143.193 3.23478 -6.12645 0
M  V30 1316 N 144.986 2.77733 -4.88693 0
M  V30 1317 H 137.137 0.0547896 -2.12329 0
M  V30 1318 H 139.4 0.0869027 -0.944008 0
M  V30 1319 H 139.106 0.906865 -3.39807 0
M  V30 1320 H 138.98 2.54564 -2.78347 0
M  V30 1321 H 141.367 2.32583 -1.81629 0
M  V30 1322 H 141.448 0.681802 -2.46546 0
M  V30 1323 H 141.092 1.61598 -4.81506 0
M  V30 1324 H 141.022 3.26102 -4.13479 0
M  V30 1325 H 143.513 2.00991 -3.20017 0
M  V30 1326 H 143.826 3.56725 -6.85542 0
M  V30 1327 H 142.171 3.21429 -6.16205 0
M  V30 1328 H 145.362 2.4179 -4.00818 0
M  V30 1329 H 145.535 3.12826 -5.67489 0
M  V30 1330 N 138.941 1.26152 0.944643 0
M  V30 1331 C 140.189 1.11271 1.6871 0
M  V30 1332 C 140.51 -0.345166 1.91921 0
M  V30 1333 O 139.78 -1.24387 1.51343 0
M  V30 1334 H 138.36 0.408783 0.625224 0
M  V30 1335 H 141.022 1.58427 1.1352 0
M  V30 1336 H 140.118 1.62879 2.66227 0
M  V30 1337 N 140.419 -1.14872 1.07899 0
M  V30 1338 C 141.668 -1.85135 0.800499 0
M  V30 1339 C 141.981 -1.83547 -0.676014 0
M  V30 1340 O 143.187 -2.49548 -1.06948 0
M  V30 1341 C 141.643 -3.3231 1.38197 0
M  V30 1342 C 141.251 -3.42329 2.8899 0
M  V30 1343 C 142.995 -4.0772 1.18174 0
M  V30 1344 C 140.902 -4.83684 3.403 0
M  V30 1345 H 139.832 -0.693563 0.29578 0
M  V30 1346 H 142.483 -1.29532 1.29976 0
M  V30 1347 H 140.865 -3.87618 0.810431 0
M  V30 1348 H 142.039 -2.97097 3.52236 0
M  V30 1349 H 140.354 -2.80369 3.07867 0
M  V30 1350 H 142.951 -5.12049 1.5398 0
M  V30 1351 H 143.294 -4.16124 0.12117 0
M  V30 1352 H 143.827 -3.58696 1.71994 0
M  V30 1353 H 140.566 -4.80465 4.45907 0
M  V30 1354 H 140.086 -5.29474 2.81811 0
M  V30 1355 H 141.765 -5.52558 3.36584 0
M  V30 1356 N 141.898 -0.863906 -1.31812 0
M  V30 1357 C 143.309 -0.52522 -1.7916 0
M  V30 1358 C 143.66 0.957518 -1.71248 0
M  V30 1359 O 142.785 1.74734 -1.27659 0
M  V30 1360 C 143.38 -0.9466 -3.25307 0
M  V30 1361 C 141.939 -0.659668 -3.70574 0
M  V30 1362 C 141.086 -1.14126 -2.52726 0
M  V30 1363 H 144.037 -1.05022 -1.1898 0
M  V30 1364 H 144.058 -0.266766 -3.79564 0
M  V30 1365 H 143.57 -2.02579 -3.31034 0
M  V30 1366 H 141.671 0.408416 -3.70355 0
M  V30 1367 H 141.784 -1.23245 -4.62977 0
M  V30 1368 H 140.148 -0.561216 -2.4844 0
M  V30 1369 H 140.931 -2.22775 -2.61201 0
M  V30 1370 N 143.376 1.44774 -0.622745 0
M  V30 1371 C 144.624 2.01721 -0.123655 0
M  V30 1372 C 144.945 1.49172 1.25589 0
M  V30 1373 O 144.215 0.691974 1.83272 0
M  V30 1374 H 142.795 0.745777 -0.0427225 0
M  V30 1375 H 145.457 1.77382 -0.807559 0
M  V30 1376 H 144.553 3.11984 -0.0849534 0
M  V30 1377 N 144.854 0.36279 1.53368 0
M  V30 1378 C 146.103 -0.22888 2.00397 0
M  V30 1379 C 146.416 -1.50096 1.25421 0
M  V30 1380 O 147.622 -2.17106 1.63025 0
M  V30 1381 C 146.078 -0.458417 3.56969 0
M  V30 1382 C 145.686 0.798877 4.4082 0
M  V30 1383 C 147.43 -1.00789 4.12361 0
M  V30 1384 C 145.337 0.539078 5.88938 0
M  V30 1385 H 144.267 -0.089305 0.748693 0
M  V30 1386 H 146.918 0.481099 1.77081 0
M  V30 1387 H 145.3 -1.22959 3.76427 0
M  V30 1388 H 146.474 1.57262 4.33134 0
M  V30 1389 H 144.789 1.27137 3.96516 0
M  V30 1390 H 147.386 -1.21754 5.20653 0
M  V30 1391 H 147.729 -1.9692 3.66781 0
M  V30 1392 H 148.262 -0.296961 3.9669 0
M  V30 1393 H 145.001 1.47064 6.3879 0
M  V30 1394 H 144.521 -0.196222 5.99479 0
M  V30 1395 H 146.2 0.163542 6.46793 0
M  V30 1396 N 146.332 -1.57332 0.0918853 0
M  V30 1397 C 147.279 -2.13847 -0.868211 0
M  V30 1398 C 148.249 -1.05618 -1.28196 0
M  V30 1399 O 149.434 -1.33387 -1.36427 0
M  V30 1400 C 146.574 -2.72062 -2.12312 0
M  V30 1401 C 145.687 -3.94514 -1.7602 0
M  V30 1402 C 144.822 -4.40903 -2.96273 0
M  V30 1403 C 143.861 -5.55953 -2.56092 0
M  V30 1404 N 142.998 -5.97209 -3.69169 0
M  V30 1405 H 147.838 -2.95575 -0.379406 0
M  V30 1406 H 145.375 -1.46048 -0.175606 0
M  V30 1407 H 147.333 -3.03931 -2.858 0
M  V30 1408 H 145.963 -1.93068 -2.58698 0
M  V30 1409 H 145.015 -3.68979 -0.925135 0
M  V30 1410 H 146.327 -4.7802 -1.42472 0
M  V30 1411 H 145.481 -4.74539 -3.78018 0
M  V30 1412 H 144.22 -3.56291 -3.33029 0
M  V30 1413 H 143.225 -5.21948 -1.72773 0
M  V30 1414 H 144.45 -6.42311 -2.20484 0
M  V30 1415 H 142.396 -5.15543 -4.05649 0
M  V30 1416 H 142.313 -6.75504 -3.39456 0
M  V30 1417 H 143.581 -6.35475 -4.51434 0
M  V30 1418 N 147.81 0.181792 -1.56548 0
M  V30 1419 C 149.058 0.89832 -1.81038 0
M  V30 1420 C 149.379 1.83232 -0.667164 0
M  V30 1421 O 148.649 1.93372 0.313673 0
M  V30 1422 H 147.229 0.33471 -0.667816 0
M  V30 1423 H 149.891 0.184116 -1.94028 0
M  V30 1424 H 148.987 1.4815 -2.74696 0
M  V30 1425 N 149.288 1.51039 0.449983 0
M  V30 1426 C 150.516 1.66869 1.2232 0
M  V30 1427 C 150.931 0.360727 1.85322 0
M  V30 1428 O 150.288 -0.659531 1.70166 0
M  V30 1429 C 150.339 2.77524 2.31652 0
M  V30 1430 O 150.06 4.03252 1.7123 0
M  V30 1431 C 151.561 3.04512 3.2216 0
M  V30 1432 H 148.781 0.560326 0.369155 0
M  V30 1433 H 151.325 1.97385 0.534719 0
M  V30 1434 H 149.48 2.49642 2.96239 0
M  V30 1435 H 149.894 4.64609 2.43389 0
M  V30 1436 H 151.368 3.85551 3.95038 0
M  V30 1437 H 151.845 2.16415 3.8218 0
M  V30 1438 H 152.451 3.34005 2.63288 0
M  V30 1439 N 150.766 -0.704594 1.40972 0
M  V30 1440 C 151.713 -1.81862 1.42109 0
M  V30 1441 C 152.683 -1.63781 0.276593 0
M  V30 1442 O 153.868 -1.84759 0.4763 0
M  V30 1443 C 151.008 -3.19669 1.30022 0
M  V30 1444 C 150.121 -3.49246 2.54267 0
M  V30 1445 C 149.256 -4.76618 2.3454 0
M  V30 1446 C 148.295 -4.99133 3.54306 0
M  V30 1447 N 147.432 -6.17726 3.33706 0
M  V30 1448 H 152.272 -1.80226 2.37324 0
M  V30 1449 H 149.809 -0.880238 1.17857 0
M  V30 1450 H 151.767 -3.99263 1.21018 0
M  V30 1451 H 150.397 -3.20506 0.384192 0
M  V30 1452 H 149.449 -2.64125 2.73756 0
M  V30 1453 H 150.761 -3.61788 3.43381 0
M  V30 1454 H 149.915 -5.64249 2.22952 0
M  V30 1455 H 148.654 -4.66305 1.42867 0
M  V30 1456 H 147.659 -4.09953 3.66359 0
M  V30 1457 H 148.884 -5.11311 4.4692 0
M  V30 1458 H 146.83 -6.08642 2.44725 0
M  V30 1459 H 146.747 -6.30995 4.16391 0
M  V30 1460 H 148.015 -7.08115 3.25873 0
M  V30 1461 N 152.244 -1.26651 -0.937939 0
M  V30 1462 C 153.492 -1.12165 -1.68118 0
M  V30 1463 C 153.813 0.334983 -1.92101 0
M  V30 1464 O 153.083 1.23583 -1.52 0
M  V30 1465 H 151.663 -0.412093 -0.623048 0
M  V30 1466 H 154.325 -1.59027 -1.12678 0
M  V30 1467 H 153.421 -1.64289 -2.6536 0
M  V30 1468 N 153.722 1.14298 -1.08507 0
M  V30 1469 C 154.947 1.8976 -0.837001 0
M  V30 1470 C 155.372 1.78097 0.605228 0
M  V30 1471 O 154.73 1.12188 1.4242 0
M  V30 1472 C 154.778 3.37685 -1.26495 0
M  V30 1473 O 153.882 4.10281 -0.417514 0
M  V30 1474 H 153.223 0.590365 -0.303917 0
M  V30 1475 H 155.753 1.44672 -1.44676 0
M  V30 1476 H 155.763 3.88501 -1.24625 0
M  V30 1477 H 154.438 3.45492 -2.31534 0
M  V30 1478 H 153.015 3.69536 -0.499722 0
M  V30 1479 N 155.201 0.870884 1.31352 0
M  V30 1480 C 156.612 0.534714 1.78879 0
M  V30 1481 C 156.963 -0.948423 1.71754 0
M  V30 1482 O 156.088 -1.74055 1.28584 0
M  V30 1483 C 156.683 0.963839 3.24801 0
M  V30 1484 C 155.242 0.679311 3.70219 0
M  V30 1485 C 154.389 1.15465 2.52117 0
M  V30 1486 H 157.34 1.05651 1.18421 0
M  V30 1487 H 157.361 0.286892 3.79417 0
M  V30 1488 H 156.873 2.04332 3.29955 0
M  V30 1489 H 154.974 -0.388769 3.70566 0
M  V30 1490 H 155.087 1.25698 4.62317 0
M  V30 1491 H 153.451 0.574383 2.48139 0
M  V30 1492 H 154.234 2.24157 2.60016 0
M  V30 1493 N 156.679 -1.44442 0.630414 0
M  V30 1494 C 157.927 -2.01653 0.134351 0
M  V30 1495 C 158.248 -1.49836 -1.24796 0
M  V30 1496 O 157.518 -0.701684 -1.82902 0
M  V30 1497 H 156.098 -0.74554 0.0466769 0
M  V30 1498 H 158.76 -1.76952 0.816955 0
M  V30 1499 H 157.856 -3.11935 0.101498 0
M  V30 1500 N 158.157 -0.370918 -1.53173 0
M  V30 1501 C 159.105 0.488101 -2.27421 0
M  V30 1502 C 160.099 1.07884 -1.30604 0
M  V30 1503 O 161.305 1.02143 -1.48212 0
M  V30 1504 H 157.68 0.176134 -0.731082 0
M  V30 1505 H 159.651 -0.159815 -2.97972 0
M  V30 1506 C 158.4 1.61306 -3.08019 0
M  V30 1507 H 157.723 1.1678 -3.82364 0
M  V30 1508 H 159.163 2.18872 -3.63141 0
M  V30 1509 C 157.622 2.55848 -2.19188 0
M  V30 1510 O 158.152 3.58799 -1.80626 0
M  V30 1511 N 156.358 2.2516 -1.83715 0
M  V30 1512 H 155.905 1.41476 -2.15273 0
M  V30 1513 H 155.863 2.8867 -1.24567 0
M  V30 1514 N 159.635 1.57281 -0.100228 0
M  V30 1515 C 160.884 1.93713 0.561984 0
M  V30 1516 C 161.197 0.984492 1.69018 0
M  V30 1517 O 162.403 1.24273 2.41389 0
M  V30 1518 C 160.859 3.4421 1.05106 0
M  V30 1519 C 160.467 4.47975 -0.0476628 0
M  V30 1520 C 162.211 3.89595 1.68571 0
M  V30 1521 C 160.118 5.89631 0.457055 0
M  V30 1522 H 159.048 0.723082 0.2137 0
M  V30 1523 H 161.699 1.82644 -0.177057 0
M  V30 1524 H 160.081 3.50449 1.84395 0
M  V30 1525 H 161.255 4.53385 -0.823333 0
M  V30 1526 H 159.57 4.1223 -0.587816 0
M  V30 1527 H 162.167 4.92832 2.07414 0
M  V30 1528 H 162.51 3.28526 2.55688 0
M  V30 1529 H 163.043 3.86078 0.958562 0
M  V30 1530 H 159.782 6.54411 -0.377616 0
M  V30 1531 H 159.302 5.87681 1.19962 0
M  V30 1532 H 160.981 6.40363 0.92437 0
M  V30 1533 N 161.113 -0.173488 1.56642 0
M  V30 1534 C 162.06 -1.21482 1.96242 0
M  V30 1535 C 163.03 -1.44104 0.826027 0
M  V30 1536 O 164.215 -1.5688 1.08597 0
M  V30 1537 C 161.355 -2.54964 2.32567 0
M  V30 1538 C 160.468 -2.39739 3.59373 0
M  V30 1539 C 159.603 -3.66072 3.84921 0
M  V30 1540 C 158.642 -3.45771 5.05083 0
M  V30 1541 N 157.779 -4.64169 5.26775 0
M  V30 1542 H 162.619 -0.870123 2.85014 0
M  V30 1543 H 160.156 -0.418245 1.41029 0
M  V30 1544 H 162.114 -3.32758 2.5165 0
M  V30 1545 H 160.744 -2.87433 1.46908 0
M  V30 1546 H 159.796 -1.53131 3.48217 0
M  V30 1547 H 161.108 -2.20683 4.47326 0
M  V30 1548 H 160.262 -4.52303 4.0436 0
M  V30 1549 H 159.001 -3.88105 2.9534 0
M  V30 1550 H 158.006 -2.57927 4.85545 0
M  V30 1551 H 159.231 -3.25163 5.96193 0
M  V30 1552 H 157.177 -4.86425 4.40144 0
M  V30 1553 H 157.094 -4.48019 6.08946 0
M  V30 1554 H 158.362 -5.51689 5.5069 0
M  V30 1555 N 162.591 -1.51276 -0.441967 0
M  V30 1556 C 163.868 -1.54252 -1.20273 0
M  V30 1557 C 164.248 -0.30408 -2.08898 0
M  V30 1558 O 163.596 0.711084 -2.17154 0
M  V30 1559 C 163.806 -2.85406 -2.00859 0
M  V30 1560 C 165.154 -3.37181 -2.58059 0
M  V30 1561 O 166.178 -2.86925 -2.11074 0
M  V30 1562 O 165.037 -4.24858 -3.43741 0
M  V30 1563 H 162.131 -0.619969 -0.547328 0
M  V30 1564 H 164.677 -1.63586 -0.451413 0
M  V30 1565 H 163.449 -3.67003 -1.35736 0
M  V30 1566 H 163.072 -2.79213 -2.83065 0
M  V30 1567 N 164.069 0.697108 -1.41344 0
M  V30 1568 C 165.001 1.8224 -1.39001 0
M  V30 1569 C 166.014 1.60152 -0.292428 0
M  V30 1570 O 167.203 1.69684 -0.554048 0
M  V30 1571 C 164.303 3.18976 -1.14489 0
M  V30 1572 C 163.476 3.68105 -2.36258 0
M  V30 1573 C 162.535 4.83506 -2.07625 0
M  V30 1574 O 161.561 4.95201 -2.8065 0
M  V30 1575 N 162.763 5.70637 -1.06555 0
M  V30 1576 H 165.528 1.84742 -2.35988 0
M  V30 1577 H 163.089 0.87937 -1.35936 0
M  V30 1578 H 165.081 3.93801 -0.932885 0
M  V30 1579 H 163.651 3.11508 -0.261043 0
M  V30 1580 H 162.871 2.84204 -2.7317 0
M  V30 1581 H 164.159 3.97667 -3.17393 0
M  V30 1582 H 163.557 5.63817 -0.461125 0
M  V30 1583 H 162.114 6.45368 -0.913444 0
M  V30 1584 N 165.547 1.27147 0.931209 0
M  V30 1585 C 166.958 1.12044 1.49342 0
M  V30 1586 C 167.309 -0.295795 1.93957 0
M  V30 1587 O 166.434 -1.18835 1.80852 0
M  V30 1588 C 167.029 2.02781 2.71414 0
M  V30 1589 C 165.588 1.91794 3.2387 0
M  V30 1590 C 164.735 1.95543 1.96617 0
M  V30 1591 H 167.686 1.40091 0.745672 0
M  V30 1592 H 167.707 1.58156 3.46074 0
M  V30 1593 H 167.219 3.05848 2.38911 0
M  V30 1594 H 165.32 0.916992 3.6114 0
M  V30 1595 H 165.433 2.77852 3.90302 0
M  V30 1596 H 163.797 1.39722 2.12955 0
M  V30 1597 H 164.58 3.00259 1.66432 0
M  V30 1598 N 167.025 -1.13721 1.09112 0
M  V30 1599 C 168.441 -1.36914 0.820174 0
M  V30 1600 C 168.641 -1.93356 -0.567079 0
M  V30 1601 O 167.697 -2.15093 -1.32255 0
M  V30 1602 C 169.01 -2.3235 1.90877 0
M  V30 1603 C 170.558 -2.45973 1.93562 0
M  V30 1604 C 171.033 -3.44714 3.01556 0
M  V30 1605 N 172.524 -3.52263 3.00775 0
M  V30 1606 C 173.259 -4.28536 3.80978 0
M  V30 1607 N 172.755 -5.07991 4.71081 0
M  V30 1608 N 174.548 -4.23804 3.69251 0
M  V30 1609 H 166.699 -0.754348 1.98553 0
M  V30 1610 H 168.962 -0.3944 0.862063 0
M  V30 1611 H 168.668 -1.98027 2.90651 0
M  V30 1612 H 168.542 -3.32332 1.78424 0
M  V30 1613 H 170.929 -2.79584 0.944286 0
M  V30 1614 H 171.01 -1.45926 2.10093 0
M  V30 1615 H 170.654 -3.11835 4.00901 0
M  V30 1616 H 170.584 -4.44558 2.82269 0
M  V30 1617 H 173.075 -2.95567 2.35475 0
M  V30 1618 H 173.388 -5.63487 5.28869 0
M  V30 1619 H 171.733 -5.07235 4.75119 0
M  V30 1620 H 174.924 -3.60806 2.98222 0
M  V30 1621 H 175.097 -4.82995 4.31995 0
M  V30 1622 N 168.503 -0.877838 -1.30888 0
M  V30 1623 C 169.914 -0.544193 -1.78593 0
M  V30 1624 C 170.265 0.939301 -1.72254 0
M  V30 1625 O 169.39 1.7337 -1.29505 0
M  V30 1626 C 169.985 -0.98105 -3.24285 0
M  V30 1627 C 168.544 -0.698935 -3.69854 0
M  V30 1628 C 167.691 -1.168 -2.51502 0
M  V30 1629 H 170.642 -1.06278 -1.17859 0
M  V30 1630 H 170.663 -0.307009 -3.79259 0
M  V30 1631 H 170.175 -2.06079 -3.28866 0
M  V30 1632 H 168.276 0.369112 -3.70767 0
M  V30 1633 H 168.389 -1.28148 -4.61644 0
M  V30 1634 H 166.753 -0.587535 -2.47831 0
M  V30 1635 H 167.536 -2.25533 -2.58824 0
M  V30 1636 N 169.982 1.44106 -0.638065 0
M  V30 1637 C 170.945 2.29138 0.0531013 0
M  V30 1638 C 171.945 1.41409 0.765506 0
M  V30 1639 O 173.135 1.63206 0.609046 0
M  V30 1640 C 170.267 3.23144 1.08584 0
M  V30 1641 H 171.46 2.91739 -0.694883 0
M  V30 1642 H 169.013 1.51134 -0.398538 0
M  V30 1643 H 169.748 2.65408 1.86357 0
M  V30 1644 H 169.533 3.87804 0.578852 0
M  V30 1645 H 171.023 3.87004 1.56899 0
M  V30 1646 N 171.46 0.379036 1.52974 0
M  V30 1647 C 172.707 -0.206421 2.01445 0
M  V30 1648 C 173.035 -1.47668 1.26587 0
M  V30 1649 O 172.29 -1.92514 0.351675 0
M  V30 1650 C 172.589 -0.53096 3.53434 0
M  V30 1651 C 172.255 0.646546 4.46241 0
M  V30 1652 C 170.917 0.969604 4.7133 0
M  V30 1653 C 173.269 1.43479 5.01062 0
M  V30 1654 C 170.597 2.08263 5.48492 0
M  V30 1655 C 172.949 2.53834 5.7944 0
M  V30 1656 C 171.613 2.86659 6.02812 0
M  V30 1657 H 170.883 -0.0755349 0.73714 0
M  V30 1658 H 173.53 0.514271 1.84465 0
M  V30 1659 H 171.835 -1.33285 3.68432 0
M  V30 1660 H 173.532 -0.996417 3.88423 0
M  V30 1661 H 170.122 0.384734 4.2687 0
M  V30 1662 H 174.306 1.19844 4.81613 0
M  V30 1663 H 169.562 2.34078 5.64816 0
M  V30 1664 H 173.736 3.15319 6.20924 0
M  V30 1665 H 171.363 3.73026 6.62387 0
M  V30 1666 N 172.938 -1.57226 0.108567 0
M  V30 1667 C 174.163 -1.99604 -0.563303 0
M  V30 1668 C 174.588 -0.987563 -1.6009 0
M  V30 1669 O 173.946 0.0421687 -1.81251 0
M  V30 1670 C 173.994 -3.40902 -1.17552 0
M  V30 1671 O 173.098 -3.42896 -2.2912 0
M  V30 1672 H 172.439 -0.648704 -0.1417 0
M  V30 1673 H 174.969 -2.03679 0.193961 0
M  V30 1674 H 174.979 -3.78886 -1.51357 0
M  V30 1675 H 173.654 -4.1382 -0.415445 0
M  V30 1676 H 172.231 -3.1672 -1.96832 0
M  V30 1677 N 174.416 0.165178 -1.56732 0
M  V30 1678 C 175.379 1.18822 -1.95995 0
M  V30 1679 C 176.379 1.3685 -0.84431 0
M  V30 1680 O 177.569 1.34152 -1.11126 0
M  V30 1681 C 174.701 2.5521 -2.26011 0
M  V30 1682 H 175.894 0.851825 -2.87548 0
M  V30 1683 H 173.447 0.407857 -1.50885 0
M  V30 1684 H 174.182 2.93852 -1.37191 0
M  V30 1685 H 173.967 2.43489 -3.07336 0
M  V30 1686 H 175.457 3.28927 -2.57288 0
M  V30 1687 N 175.894 1.51508 0.433938 0
M  V30 1688 C 177.143 1.63578 1.18005 0
M  V30 1689 C 177.456 0.359514 1.92268 0
M  V30 1690 O 178.662 0.359632 2.69108 0
M  V30 1691 C 177.118 2.88901 2.14626 0
M  V30 1692 C 176.726 4.23544 1.45995 0
M  V30 1693 C 178.47 3.10328 2.89649 0
M  V30 1694 C 176.377 5.40014 2.4112 0
M  V30 1695 H 175.307 0.609277 0.444182 0
M  V30 1696 H 177.958 1.77978 0.446773 0
M  V30 1697 H 176.34 2.68142 2.91403 0
M  V30 1698 H 177.514 4.54696 0.747532 0
M  V30 1699 H 175.829 4.08021 0.831115 0
M  V30 1700 H 178.426 3.94518 3.60915 0
M  V30 1701 H 178.769 2.23544 3.51189 0
M  V30 1702 H 179.302 3.31443 2.19978 0
M  V30 1703 H 176.041 6.29068 1.84264 0
M  V30 1704 H 175.561 5.13233 3.10406 0
M  V30 1705 H 177.24 5.72099 3.02177 0
M  V30 1706 N 177.372 -0.689602 1.41712 0
M  V30 1707 C 178.788 -1.00093 1.24312 0
M  V30 1708 C 178.988 -2.01036 0.136729 0
M  V30 1709 O 178.044 -2.47562 -0.496918 0
M  V30 1710 C 179.357 -1.51985 2.59463 0
M  V30 1711 C 180.905 -1.63838 2.66695 0
M  V30 1712 C 181.38 -2.1913 4.02177 0
M  V30 1713 N 182.871 -2.26483 4.04054 0
M  V30 1714 C 183.606 -2.70306 5.0569 0
M  V30 1715 N 183.102 -3.13691 6.17713 0
M  V30 1716 N 184.895 -2.69923 4.9305 0
M  V30 1717 H 177.046 -0.0210029 2.1239 0
M  V30 1718 H 179.309 -0.0718733 0.945272 0
M  V30 1719 H 179.015 -0.85269 3.41207 0
M  V30 1720 H 178.889 -2.50103 2.82362 0
M  V30 1721 H 181.276 -2.29664 1.85306 0
M  V30 1722 H 181.357 -0.642492 2.476 0
M  V30 1723 H 181.001 -1.53918 4.84016 0
M  V30 1724 H 180.931 -3.19482 4.18615 0
M  V30 1725 H 183.422 -1.95874 3.23174 0
M  V30 1726 H 183.735 -3.45773 6.9113 0
M  V30 1727 H 182.08 -3.11585 6.21241 0
M  V30 1728 H 185.271 -2.35382 4.04614 0
M  V30 1729 H 185.444 -3.03758 5.72394 0
M  V30 1730 N 178.85 -1.27639 -0.924453 0
M  V30 1731 C 180.266 -1.05113 -1.20097 0
M  V30 1732 C 180.466 0.213262 -2.00368 0
M  V30 1733 O 179.522 0.91787 -2.35226 0
M  V30 1734 C 180.835 -2.29244 -1.94596 0
M  V30 1735 C 182.383 -2.34315 -2.07522 0
M  V30 1736 C 182.858 -3.58183 -2.85427 0
M  V30 1737 N 184.349 -3.5876 -2.92994 0
M  V30 1738 C 185.084 -4.51277 -3.53746 0
M  V30 1739 N 184.58 -5.54102 -4.15863 0
M  V30 1740 N 186.373 -4.38894 -3.51181 0
M  V30 1741 H 178.524 -2.08821 -0.388264 0
M  V30 1742 H 180.787 -0.918568 -0.234385 0
M  V30 1743 H 180.493 -3.21301 -1.43034 0
M  V30 1744 H 180.367 -2.34816 -2.95197 0
M  V30 1745 H 182.754 -1.42762 -2.58269 0
M  V30 1746 H 182.835 -2.32744 -1.06131 0
M  V30 1747 H 182.479 -4.50074 -2.35363 0
M  V30 1748 H 182.409 -3.57006 -3.8711 0
M  V30 1749 H 184.9 -2.84398 -2.4885 0
M  V30 1750 H 185.213 -6.20859 -4.60168 0
M  V30 1751 H 183.558 -5.57941 -4.144 0
M  V30 1752 H 186.749 -3.57772 -3.01856 0
M  V30 1753 H 186.922 -5.11186 -3.98237 0
M  V30 1754 N 180.328 1.1314 -1.09713 0
M  V30 1755 C 181.276 2.20717 -0.733934 0
M  V30 1756 C 182.27 1.6729 0.266506 0
M  V30 1757 O 183.476 1.79547 0.127656 0
M  V30 1758 H 179.851 0.719292 -0.21937 0
M  V30 1759 H 181.822 2.48611 -1.6503 0
M  V30 1760 C 180.571 3.47265 -0.173849 0
M  V30 1761 H 179.894 3.88716 -0.934873 0
M  V30 1762 H 181.334 4.23979 0.0423126 0
M  V30 1763 C 179.793 3.18724 1.09164 0
M  V30 1764 O 180.323 3.37762 2.17439 0
M  V30 1765 N 178.529 2.72583 1.00732 0
M  V30 1766 H 178.076 2.57291 0.126121 0
M  V30 1767 H 178.034 2.53862 1.85476 0
M  V30 1768 N 181.806 0.884767 1.30421 0
M  V30 1769 C 183.217 0.553656 1.78302 0
M  V30 1770 C 183.568 -0.930153 1.7275 0
M  V30 1771 O 182.693 -1.72681 1.30423 0
M  V30 1772 C 183.288 0.998234 3.2376 0
M  V30 1773 C 181.847 0.71854 3.69478 0
M  V30 1774 C 180.994 1.18132 2.50879 0
M  V30 1775 H 183.945 1.06901 1.17294 0
M  V30 1776 H 183.966 0.327118 3.79091 0
M  V30 1777 H 183.478 2.0782 3.27769 0
M  V30 1778 H 181.579 -0.349444 3.70958 0
M  V30 1779 H 181.692 1.30595 4.60958 0
M  V30 1780 H 180.056 0.600669 2.47516 0
M  V30 1781 H 180.839 2.26902 2.57624 0
M  V30 1782 N 183.284 -1.43765 0.645699 0
M  V30 1783 C 184.695 -1.85193 0.236719 0
M  V30 1784 C 185.046 -1.54045 -1.21509 0
M  V30 1785 O 184.171 -0.985694 -1.92647 0
M  V30 1786 C 184.766 -3.36151 0.422845 0
M  V30 1787 C 183.325 -3.76338 0.0682492 0
M  V30 1788 C 182.472 -2.67538 0.729306 0
M  V30 1789 H 185.423 -1.34025 0.849883 0
M  V30 1790 H 185.444 -3.79032 -0.333904 0
M  V30 1791 H 184.956 -3.5879 1.47958 0
M  V30 1792 H 183.057 -3.59312 -0.986179 0
M  V30 1793 H 183.17 -4.76603 0.488469 0
M  V30 1794 H 181.534 -2.54176 0.163235 0
M  V30 1795 H 182.317 -2.93006 1.78892 0
M  V30 1796 N 184.763 -0.387143 -1.52771 0
M  V30 1797 C 185.696 0.493123 -2.22808 0
M  V30 1798 C 186.674 1.0658 -1.22798 0
M  V30 1799 O 187.858 1.11785 -1.51777 0
M  V30 1800 C 184.985 1.68238 -2.93962 0
M  V30 1801 C 184.031 1.23515 -4.08223 0
M  V30 1802 S 184.864 0.21848 -5.35054 0
M  V30 1803 C 186.02 1.41357 -6.09729 0
M  V30 1804 H 186.253 -0.101625 -2.97126 0
M  V30 1805 H 183.786 -0.171323 -1.53447 0
M  V30 1806 H 185.744 2.36443 -3.35567 0
M  V30 1807 H 184.405 2.24842 -2.19328 0
M  V30 1808 H 183.598 2.12304 -4.57103 0
M  V30 1809 H 183.2 0.632044 -3.68621 0
M  V30 1810 H 185.492 2.34101 -6.3577 0
M  V30 1811 H 186.435 0.965736 -7.01484 0
M  V30 1812 H 186.843 1.6294 -5.40473 0
M  V30 1813 N 186.241 1.57166 -0.116904 0
M  V30 1814 C 187.489 1.94737 0.540533 0
M  V30 1815 C 187.81 1.00096 1.67349 0
M  V30 1816 O 187.08 0.0568854 1.95817 0
M  V30 1817 H 185.66 0.718981 0.202669 0
M  V30 1818 H 188.322 1.94017 -0.185353 0
M  V30 1819 H 187.418 2.97719 0.936483 0
M  V30 1820 N 187.719 -0.156864 1.56817 0
M  V30 1821 C 188.967 -0.869404 1.82444 0
M  V30 1822 C 189.288 -1.82147 0.69623 0
M  V30 1823 O 188.558 -1.93847 -0.28287 0
M  V30 1824 H 187.138 -0.324043 0.673056 0
M  V30 1825 H 189.8 -0.153224 1.94297 0
M  V30 1826 H 188.896 -1.43761 2.77019 0
M  V30 1827 N 189.197 -1.51736 -0.425897 0
M  V30 1828 C 190.145 -1.74464 -1.53834 0
M  V30 1829 C 191.139 -0.611241 -1.57988 0
M  V30 1830 O 192.345 -0.792899 -1.61596 0
M  V30 1831 H 188.72 -0.551437 -0.511293 0
M  V30 1832 H 190.691 -2.67694 -1.31843 0
M  V30 1833 C 189.44 -1.8972 -2.91379 0
M  V30 1834 H 188.763 -2.76344 -2.88919 0
M  V30 1835 H 190.203 -2.09629 -3.68553 0
M  V30 1836 C 188.662 -0.65992 -3.30374 0
M  V30 1837 O 189.192 0.180083 -4.01296 0
M  V30 1838 N 187.398 -0.500677 -2.86254 0
M  V30 1839 H 186.945 -1.18532 -2.28709 0
M  V30 1840 H 186.903 0.325903 -3.12706 0
M  V30 1841 N 190.675 0.682077 -1.42076 0
M  V30 1842 C 191.921 1.44428 -1.42367 0
M  V30 1843 C 192.254 1.94164 -0.0373056 0
M  V30 1844 O 191.529 1.70429 0.937239 0
M  V30 1845 C 191.812 2.64654 -2.44194 0
M  V30 1846 C 191.665 2.20596 -3.91991 0
M  V30 1847 C 192.984 3.66865 -2.431 0
M  V30 1848 H 190.103 0.523834 -0.518428 0
M  V30 1849 H 192.745 0.77576 -1.73442 0
M  V30 1850 H 190.895 3.2169 -2.17826 0
M  V30 1851 H 192.567 1.68783 -4.29313 0
M  V30 1852 H 190.81 1.52242 -4.06208 0
M  V30 1853 H 191.481 3.06921 -4.58807 0
M  V30 1854 H 193.957 3.19531 -2.66532 0
M  V30 1855 H 192.833 4.48577 -3.16339 0
M  V30 1856 H 193.094 4.17493 -1.45437 0
M  V30 1857 N 192.153 1.28127 0.917671 0
M  V30 1858 C 193.399 1.15223 1.66888 0
M  V30 1859 C 193.732 -0.299293 1.9188 0
M  V30 1860 O 193.007 -1.21805 1.51637 0
M  V30 1861 C 193.29 1.94706 3.02922 0
M  V30 1862 C 193.143 3.47898 2.85109 0
M  V30 1863 C 194.462 1.75939 4.03402 0
M  V30 1864 H 191.581 0.419946 0.605652 0
M  V30 1865 H 194.223 1.57398 1.06423 0
M  V30 1866 H 192.373 1.58864 3.54534 0
M  V30 1867 H 194.045 3.93624 2.40537 0
M  V30 1868 H 192.288 3.7373 2.20246 0
M  V30 1869 H 192.959 3.98765 3.81694 0
M  V30 1870 H 195.435 2.07209 3.60837 0
M  V30 1871 H 194.311 2.33931 4.96556 0
M  V30 1872 H 194.572 0.709877 4.36364 0
M  V30 1873 N 193.631 -1.12557 1.10312 0
M  V30 1874 C 194.88 -1.83395 0.839588 0
M  V30 1875 C 195.193 -1.84939 -0.636929 0
M  V30 1876 O 196.399 -2.51761 -1.01631 0
M  V30 1877 C 194.855 -3.29303 1.45215 0
M  V30 1878 C 194.463 -3.36122 2.96186 0
M  V30 1879 C 196.207 -4.05121 1.26796 0
M  V30 1880 C 194.114 -4.76357 3.50483 0
M  V30 1881 H 193.044 -0.687133 0.310425 0
M  V30 1882 H 195.695 -1.26746 1.32694 0
M  V30 1883 H 194.077 -3.85812 0.892469 0
M  V30 1884 H 195.251 -2.89559 3.58458 0
M  V30 1885 H 193.566 -2.73776 3.13745 0
M  V30 1886 H 196.163 -5.08668 1.64806 0
M  V30 1887 H 196.506 -4.15773 0.209409 0
M  V30 1888 H 197.039 -3.54967 1.79563 0
M  V30 1889 H 193.778 -4.70899 4.55998 0
M  V30 1890 H 193.298 -5.23377 2.92978 0
M  V30 1891 H 194.977 -5.45294 3.48228 0
M  V30 1892 N 195.109 -0.891671 -1.2995 0
M  V30 1893 C 196.356 -0.513501 -1.95881 0
M  V30 1894 C 196.684 0.938655 -1.70351 0
M  V30 1895 O 195.939 1.67936 -1.00478 0
M  V30 1896 C 196.238 -0.742868 -3.49594 0
M  V30 1897 C 195.904 -2.17114 -3.95186 0
M  V30 1898 C 194.566 -2.56169 -4.07346 0
M  V30 1899 C 196.918 -3.10162 -4.18866 0
M  V30 1900 C 194.246 -3.87469 -4.4055 0
M  V30 1901 C 196.598 -4.41001 -4.53542 0
M  V30 1902 C 195.262 -4.79941 -4.63911 0
M  V30 1903 H 194.532 -0.187903 -0.71678 0
M  V30 1904 H 197.179 -1.1288 -1.54694 0
M  V30 1905 H 195.484 -0.044586 -3.91775 0
M  V30 1906 H 197.181 -0.429767 -3.9869 0
M  V30 1907 H 193.771 -1.85801 -3.86233 0
M  V30 1908 H 197.955 -2.81206 -4.08946 0
M  V30 1909 H 193.211 -4.17371 -4.46779 0
M  V30 1910 H 197.385 -5.13133 -4.70815 0
M  V30 1911 H 195.012 -5.81719 -4.89395 0
M  V30 1912 N 196.587 1.43421 -0.653314 0
M  V30 1913 C 197.864 1.95361 -0.0966581 0
M  V30 1914 C 198.244 1.59461 1.38331 0
M  V30 1915 O 197.592 0.879777 2.10884 0
M  V30 1916 C 197.802 3.47311 -0.342988 0
M  V30 1917 C 199.15 4.23875 -0.24798 0
M  V30 1918 O 200.174 3.55133 -0.275553 0
M  V30 1919 O 199.033 5.4623 -0.171771 0
M  V30 1920 H 196.127 0.826945 0.00956291 0
M  V30 1921 H 198.673 1.5336 -0.726558 0
M  V30 1922 H 197.445 3.66569 -1.36906 0
M  V30 1923 H 197.068 3.9631 0.319975 0
M  V30 1924 N 198.065 0.39524 1.52563 0
M  V30 1925 C 199.293 -0.184943 2.06072 0
M  V30 1926 C 199.708 -1.40021 1.26647 0
M  V30 1927 O 199.065 -1.79767 0.314672 0
M  V30 1928 C 199.116 -0.549179 3.57304 0
M  V30 1929 O 198.837 0.617813 4.33722 0
M  V30 1930 C 200.338 -1.18459 4.2718 0
M  V30 1931 H 197.558 -0.0265025 0.670476 0
M  V30 1932 H 200.102 0.562184 1.96621 0
M  V30 1933 H 198.257 -1.2462 3.66809 0
M  V30 1934 H 198.671 0.317091 5.23541 0
M  V30 1935 H 200.145 -1.38976 5.34219 0
M  V30 1936 H 200.622 -2.15368 3.82771 0
M  V30 1937 H 201.228 -0.528163 4.22008 0
M  V30 1938 N 199.544 -1.57102 0.125237 0
M  V30 1939 C 200.79 -1.95697 -0.532035 0
M  V30 1940 C 201.123 -1.009 -1.6593 0
M  V30 1941 O 200.398 -0.047347 -1.94442 0
M  V30 1942 C 200.681 -3.44181 -1.05884 0
M  V30 1943 C 200.534 -4.49752 0.0654392 0
M  V30 1944 C 201.853 -3.94655 -1.9477 0
M  V30 1945 H 198.972 -0.711571 -0.191925 0
M  V30 1946 H 201.614 -1.88923 0.20206 0
M  V30 1947 H 199.764 -3.50085 -1.68442 0
M  V30 1948 H 201.436 -4.55943 0.700982 0
M  V30 1949 H 199.679 -4.27653 0.727709 0
M  V30 1950 H 200.35 -5.50924 -0.344505 0
M  V30 1951 H 202.826 -3.91094 -1.42074 0
M  V30 1952 H 201.702 -4.99057 -2.28546 0
M  V30 1953 H 201.963 -3.35718 -2.87656 0
M  V30 1954 N 201.022 0.148545 -1.56898 0
M  V30 1955 C 202.271 0.85984 -1.82454 0
M  V30 1956 C 202.584 1.82406 -0.706229 0
M  V30 1957 O 203.79 2.57938 -0.847349 0
M  V30 1958 C 202.246 1.57967 -3.2338 0
M  V30 1959 C 201.854 0.65794 -4.43142 0
M  V30 1960 C 203.598 2.27784 -3.58211 0
M  V30 1961 C 201.505 1.3793 -5.75091 0
M  V30 1962 H 200.435 0.324834 -0.68044 0
M  V30 1963 H 203.086 0.112588 -1.83154 0
M  V30 1964 H 201.468 2.37249 -3.17063 0
M  V30 1965 H 202.642 -0.0995497 -4.60692 0
M  V30 1966 H 200.957 0.0682643 -4.16344 0
M  V30 1967 H 203.554 2.8239 -4.54048 0
M  V30 1968 H 203.897 3.04204 -2.84193 0
M  V30 1969 H 204.43 1.55421 -3.66182 0
M  V30 1970 H 201.169 0.656982 -6.52199 0
M  V30 1971 H 200.689 2.10954 -5.61479 0
M  V30 1972 H 202.368 1.92063 -6.17835 0
M  V30 1973 N 202.5 1.5196 0.417844 0
M  V30 1974 C 203.728 1.69426 1.18753 0
M  V30 1975 C 204.143 0.399955 1.84515 0
M  V30 1976 O 203.5 -0.623288 1.71527 0
M  V30 1977 C 203.551 2.82375 2.25714 0
M  V30 1978 O 203.272 4.06793 1.62638 0
M  V30 1979 C 204.773 3.11277 3.15628 0
M  V30 1980 H 201.993 0.568031 0.357186 0
M  V30 1981 H 204.537 1.98475 0.49273 0
M  V30 1982 H 202.692 2.5587 2.90877 0
M  V30 1983 H 203.106 4.69667 2.3348 0
M  V30 1984 H 204.58 3.93843 3.86771 0
M  V30 1985 H 205.057 2.24473 3.77503 0
M  V30 1986 H 205.663 3.39515 2.56144 0
M  V30 1987 N 203.978 -0.674533 1.42435 0
M  V30 1988 C 204.926 -1.80934 1.46169 0
M  V30 1989 C 205.92 -1.66006 0.3374 0
M  V30 1990 O 207.126 -1.72611 0.510425 0
M  V30 1991 H 203.501 -0.596594 0.457798 0
M  V30 1992 H 205.472 -1.74903 2.41767 0
M  V30 1993 C 204.221 -3.19088 1.38123 0
M  V30 1994 H 203.544 -3.31203 2.23931 0
M  V30 1995 H 204.984 -3.9851 1.44797 0
M  V30 1996 C 203.443 -3.36763 0.0960517 0
M  V30 1997 O 203.973 -3.92581 -0.851073 0
M  V30 1998 N 202.179 -2.90597 0.0131186 0
M  V30 1999 H 201.726 -2.45359 0.784639 0
M  V30 2000 H 201.684 -3.028 -0.846133 0
M  V30 2001 N 205.456 -1.28612 -0.910864 0
M  V30 2002 C 206.388 -1.08589 -2.01844 0
M  V30 2003 C 207.401 -0.0367419 -1.62759 0
M  V30 2004 O 208.59 -0.280101 -1.76289 0
M  V30 2005 C 205.69 -0.628626 -3.33019 0
M  V30 2006 C 204.863 -1.75382 -4.00699 0
M  V30 2007 C 203.922 -1.28945 -5.10156 0
M  V30 2008 O 202.948 -1.9922 -5.33198 0
M  V30 2009 N 204.15 -0.154224 -5.80295 0
M  V30 2010 H 206.915 -2.03973 -2.19579 0
M  V30 2011 H 204.476 -1.20403 -1.08234 0
M  V30 2012 H 206.468 -0.301508 -4.03575 0
M  V30 2013 H 205.038 0.232451 -3.11735 0
M  V30 2014 H 204.258 -2.25039 -3.23653 0
M  V30 2015 H 205.546 -2.50854 -4.42662 0
M  V30 2016 H 204.944 0.43194 -5.64049 0
M  V30 2017 H 203.501 0.113599 -6.51701 0
M  V30 2018 N 206.934 1.1197 -1.10907 0
M  V30 2019 C 207.844 2.21433 -0.774896 0
M  V30 2020 C 208.86 1.72478 0.229657 0
M  V30 2021 O 210.036 2.01288 0.0672008 0
M  V30 2022 C 207.101 3.4602 -0.216986 0
M  V30 2023 C 206.162 4.09791 -1.27944 0
M  V30 2024 C 205.395 5.28431 -0.748055 0
M  V30 2025 O 205.618 5.68823 0.423833 0
M  V30 2026 O 204.552 5.82644 -1.51027 0
M  V30 2027 H 208.378 2.5242 -1.68873 0
M  V30 2028 H 205.963 1.20399 -0.884555 0
M  V30 2029 H 207.845 4.21304 0.090059 0
M  V30 2030 H 206.52 3.16698 0.669633 0
M  V30 2031 H 205.427 3.36265 -1.63941 0
M  V30 2032 H 206.76 4.4328 -2.13925 0
M  V30 2033 N 208.412 0.89855 1.29475 0
M  V30 2034 C 209.322 0.379974 2.31502 0
M  V30 2035 C 210.338 -0.524695 1.659 0
M  V30 2036 O 211.514 -0.414551 1.97087 0
M  V30 2037 C 208.579 -0.385138 3.44554 0
M  V30 2038 C 207.64 0.550914 4.2575 0
M  V30 2039 C 206.873 -0.177778 5.33404 0
M  V30 2040 O 207.096 -1.40189 5.52904 0
M  V30 2041 O 206.03 0.479106 5.9999 0
M  V30 2042 H 209.856 1.22639 2.77837 0
M  V30 2043 H 207.441 0.662834 1.33891 0
M  V30 2044 H 209.323 -0.817841 4.13388 0
M  V30 2045 H 207.998 -1.20763 3.0033 0
M  V30 2046 H 206.905 1.03271 3.59564 0
M  V30 2047 H 208.238 1.33979 4.73614 0
M  V30 2048 N 209.89 -1.43072 0.660911 0
M  V30 2049 C 211.301 -1.84932 0.256348 0
M  V30 2050 C 211.652 -1.55325 -1.19868 0
M  V30 2051 O 210.777 -1.00607 -1.91591 0
M  V30 2052 C 211.372 -3.35684 0.458475 0
M  V30 2053 C 209.931 -3.76245 0.108161 0
M  V30 2054 C 209.078 -2.66749 0.757641 0
M  V30 2055 H 212.029 -1.33116 0.864051 0
M  V30 2056 H 212.05 -3.79365 -0.293683 0
M  V30 2057 H 211.562 -3.572 1.51755 0
M  V30 2058 H 209.663 -3.60338 -0.948014 0
M  V30 2059 H 209.776 -4.76058 0.538992 0
M  V30 2060 H 208.14 -2.53989 0.190185 0
M  V30 2061 H 208.923 -2.91092 1.81989 0
M  V30 2062 N 211.368 -0.403325 -1.52352 0
M  V30 2063 C 212.598 0.17376 -2.05868 0
M  V30 2064 C 213.006 1.39898 -1.27378 0
M  V30 2065 O 212.349 1.80939 -0.31729 0
M  V30 2066 C 212.411 0.594756 -3.54546 0
M  V30 2067 C 212.075 -0.518926 -4.54044 0
M  V30 2068 C 213.072 -1.3807 -5.01231 0
M  V30 2069 C 210.757 -0.689961 -4.97539 0
M  V30 2070 C 212.751 -2.39852 -5.90551 0
M  V30 2071 C 210.438 -1.71109 -5.86656 0
M  V30 2072 C 211.436 -2.56378 -6.33056 0
M  V30 2073 O 211.124 -3.56743 -7.20409 0
M  V30 2074 H 210.856 0.0264951 -0.675481 0
M  V30 2075 H 213.41 -0.571179 -1.97299 0
M  V30 2076 H 211.64 1.39189 -3.60782 0
M  V30 2077 H 213.329 1.0991 -3.90736 0
M  V30 2078 H 214.095 -1.25994 -4.68349 0
M  V30 2079 H 209.974 -0.035939 -4.60986 0
M  V30 2080 H 213.518 -3.06441 -6.26689 0
M  V30 2081 H 209.415 -1.83218 -6.18952 0
M  V30 2082 H 210.183 -3.52918 -7.38506 0
M  V30 2083 N 212.846 1.57033 -0.133567 0
M  V30 2084 C 213.778 2.13176 0.841944 0
M  V30 2085 C 214.791 1.07794 1.22001 0
M  V30 2086 O 215.98 1.35117 1.16643 0
M  V30 2087 C 213.08 2.62847 2.13926 0
M  V30 2088 C 212.253 3.92486 1.93064 0
M  V30 2089 C 211.312 4.27605 3.0666 0
M  V30 2090 O 210.338 4.96168 2.78937 0
M  V30 2091 N 211.54 3.861 4.33483 0
M  V30 2092 H 214.305 2.97503 0.362192 0
M  V30 2093 H 211.866 1.61821 0.05042 0
M  V30 2094 H 213.858 2.83363 2.88942 0
M  V30 2095 H 212.428 1.83319 2.53205 0
M  V30 2096 H 211.648 3.80732 1.02159 0
M  V30 2097 H 212.936 4.77225 1.76447 0
M  V30 2098 H 212.334 3.30828 4.58878 0
M  V30 2099 H 210.891 4.11694 5.05323 0
M  V30 2100 N 214.325 -0.140222 1.56975 0
M  V30 2101 C 215.273 -1.19207 1.99731 0
M  V30 2102 C 216.267 -1.44089 0.890777 0
M  V30 2103 O 217.473 -1.44301 1.07597 0
M  V30 2104 H 213.848 -0.40142 0.635898 0
M  V30 2105 H 215.819 -0.804813 2.87342 0
M  V30 2106 C 214.568 -2.51617 2.39967 0
M  V30 2107 H 213.891 -2.33303 3.24669 0
M  V30 2108 H 215.331 -3.23827 2.73701 0
M  V30 2109 C 213.79 -3.12654 1.25496 0
M  V30 2110 O 214.32 -3.97786 0.559371 0
M  V30 2111 N 212.526 -2.72206 1.01746 0
M  V30 2112 H 212.073 -2.03074 1.58489 0
M  V30 2113 H 212.031 -3.13377 0.253461 0
M  V30 2114 N 215.803 -1.52179 -0.40978 0
M  V30 2115 C 216.753 -1.71857 -1.49831 0
M  V30 2116 C 217.737 -0.572469 -1.50372 0
M  V30 2117 O 218.929 -0.829509 -1.56359 0
M  V30 2118 C 216.058 -1.87206 -2.87765 0
M  V30 2119 C 215.144 -3.07685 -2.91875 0
M  V30 2120 N 215.535 -4.30403 -2.65683 0
M  V30 2121 C 213.833 -3.07505 -3.23043 0
M  V30 2122 C 214.534 -5.11868 -2.76344 0
M  V30 2123 N 213.51 -4.47101 -3.09195 0
M  V30 2124 H 217.312 -2.64381 -1.28375 0
M  V30 2125 H 214.826 -1.50203 -0.617479 0
M  V30 2126 H 216.823 -1.99419 -3.66111 0
M  V30 2127 H 215.483 -0.958814 -3.10221 0
M  V30 2128 H 216.494 -4.58887 -2.4009 0
M  V30 2129 H 213.171 -2.25915 -3.51096 0
M  V30 2130 H 214.561 -6.19634 -2.59814 0
M  V30 2131 N 217.281 0.66697 -1.42791 0
M  V30 2132 C 218.506 1.46004 -1.47301 0
M  V30 2133 C 218.931 1.87894 -0.0880317 0
M  V30 2134 O 218.289 1.56502 0.915253 0
M  V30 2135 C 218.337 2.68031 -2.41229 0
M  V30 2136 O 217.441 3.6659 -1.88906 0
M  V30 2137 H 216.782 0.43832 -0.49877 0
M  V30 2138 H 219.312 0.817391 -1.87563 0
M  V30 2139 H 219.322 3.1601 -2.58073 0
M  V30 2140 H 217.997 2.36883 -3.41847 0
M  V30 2141 H 216.574 3.25661 -1.81656 0
M  V30 2142 N 218.759 1.29093 0.90403 0
M  V30 2143 C 220.007 1.16583 1.65085 0
M  V30 2144 C 220.328 -0.283933 1.92922 0
M  V30 2145 O 219.598 -1.19509 1.55224 0
M  V30 2146 H 218.178 0.428467 0.611903 0
M  V30 2147 H 220.84 1.61959 1.08422 0
M  V30 2148 H 219.936 1.71266 2.6091 0
M  V30 2149 N 220.237 -1.11381 1.11499 0
M  V30 2150 C 221.653 -1.35143 0.849031 0
M  V30 2151 C 221.853 -1.94515 -0.525938 0
M  V30 2152 O 220.909 -2.1785 -1.27662 0
M  V30 2153 C 222.222 -2.28249 1.95762 0
M  V30 2154 C 223.77 -2.41812 1.98736 0
M  V30 2155 C 224.245 -3.3824 3.088 0
M  V30 2156 N 225.736 -3.45803 3.08179 0
M  V30 2157 C 226.471 -4.20358 3.89982 0
M  V30 2158 N 225.967 -4.97884 4.8175 0
M  V30 2159 N 227.76 -4.15877 3.78157 0
M  V30 2160 H 219.911 -0.712062 2.00109 0
M  V30 2161 H 222.174 -0.376025 0.870235 0
M  V30 2162 H 221.88 -1.91817 2.94787 0
M  V30 2163 H 221.754 -3.28473 1.85433 0
M  V30 2164 H 224.141 -2.77518 1.00338 0
M  V30 2165 H 224.222 -1.41437 2.13141 0
M  V30 2166 H 223.866 -3.03261 4.07425 0
M  V30 2167 H 223.796 -4.38471 2.91635 0
M  V30 2168 H 226.287 -2.90506 2.41691 0
M  V30 2169 H 226.6 -5.52142 5.40702 0
M  V30 2170 H 224.945 -4.97043 4.85771 0
M  V30 2171 H 228.136 -3.544 3.05808 0
M  V30 2172 H 228.309 -4.73723 4.42143 0
M  V30 2173 N 221.715 -0.905404 -1.28997 0
M  V30 2174 C 222.962 -0.534248 -1.95325 0
M  V30 2175 C 223.29 0.920535 -1.71337 0
M  V30 2176 O 222.545 1.66861 -1.02254 0
M  V30 2177 C 222.844 -0.779906 -3.48787 0
M  V30 2178 C 222.51 -2.21293 -3.92861 0
M  V30 2179 C 221.172 -2.60475 -4.04606 0
M  V30 2180 C 223.524 -3.14587 -4.15553 0
M  V30 2181 C 220.852 -3.9212 -4.36416 0
M  V30 2182 C 223.204 -4.45787 -4.48839 0
M  V30 2183 C 221.868 -4.84834 -4.58794 0
M  V30 2184 H 221.138 -0.195495 -0.714747 0
M  V30 2185 H 223.785 -1.14514 -1.53488 0
M  V30 2186 H 222.09 -0.0861365 -3.91705 0
M  V30 2187 H 223.787 -0.472029 -3.98212 0
M  V30 2188 H 220.377 -1.89887 -3.84241 0
M  V30 2189 H 224.561 -2.85528 -4.0594 0
M  V30 2190 H 219.817 -4.22086 -4.42327 0
M  V30 2191 H 223.991 -5.18098 -4.65346 0
M  V30 2192 H 221.618 -5.86877 -4.83197 0
M  V30 2193 N 223.193 1.4272 -0.668489 0
M  V30 2194 C 224.439 2.01923 -0.188419 0
M  V30 2195 C 224.772 1.52704 1.19979 0
M  V30 2196 O 224.047 0.726566 1.8042 0
M  V30 2197 C 224.33 3.59451 -0.216085 0
M  V30 2198 C 224.183 4.18864 -1.6393 0
M  V30 2199 C 225.502 4.37903 0.439179 0
M  V30 2200 H 222.621 0.733674 -0.0699412 0
M  V30 2201 H 225.263 1.69822 -0.852076 0
M  V30 2202 H 223.413 3.86929 0.349012 0
M  V30 2203 H 225.085 4.02362 -2.25616 0
M  V30 2204 H 223.328 3.74933 -2.18193 0
M  V30 2205 H 223.999 5.27987 -1.61039 0
M  V30 2206 H 226.475 4.16079 -0.0417878 0
M  V30 2207 H 225.351 5.47519 0.389157 0
M  V30 2208 H 225.612 4.15303 1.51577 0
M  V30 2209 N 224.671 0.411399 1.52136 0
M  V30 2210 C 225.911 -0.163143 2.03748 0
M  V30 2211 C 226.275 -1.42187 1.29022 0
M  V30 2212 O 227.476 -2.075 1.70872 0
M  V30 2213 C 225.747 -0.402651 3.55125 0
M  V30 2214 S 227.306 -0.944315 4.28519 0
M  V30 2215 H 224.124 -0.0439833 0.709638 0
M  V30 2216 H 226.726 0.56484 1.87163 0
M  V30 2217 H 225.43 0.520212 4.0709 0
M  V30 2218 H 224.961 -1.15844 3.75957 0
M  V30 2219 H 226.976 -2.22463 4.43536 0
M  V30 2220 N 226.149 -1.5696 0.141893 0
M  V30 2221 C 227.377 -2.00322 -0.517579 0
M  V30 2222 C 227.792 -1.02193 -1.58752 0
M  V30 2223 O 227.149 -0.0181619 -1.82491 0
M  V30 2224 C 227.2 -3.43618 -1.12289 0
M  V30 2225 O 226.921 -4.37995 -0.0956929 0
M  V30 2226 C 228.422 -4.02231 -1.86347 0
M  V30 2227 H 225.642 -0.657243 -0.135177 0
M  V30 2228 H 228.186 -2.03146 0.234973 0
M  V30 2229 H 226.341 -3.41662 -1.82609 0
M  V30 2230 H 226.755 -5.21729 -0.538469 0
M  V30 2231 H 228.229 -5.04509 -2.23997 0
M  V30 2232 H 228.706 -3.42655 -2.74744 0
M  V30 2233 H 229.312 -4.07802 -1.20737 0
M  V30 2234 N 227.627 0.131896 -1.57047 0
M  V30 2235 C 228.873 0.843179 -1.84441 0
M  V30 2236 C 229.206 1.80129 -0.725749 0
M  V30 2237 O 228.481 1.92624 0.269469 0
M  V30 2238 C 228.764 1.60442 -3.22382 0
M  V30 2239 C 228.617 0.666782 -4.4483 0
M  V30 2240 C 229.936 2.56354 -3.5773 0
M  V30 2241 H 227.055 0.305081 -0.670891 0
M  V30 2242 H 229.697 0.107839 -1.89694 0
M  V30 2243 H 227.847 2.23128 -3.18035 0
M  V30 2244 H 229.519 0.0497646 -4.61273 0
M  V30 2245 H 227.762 -0.022609 -4.33794 0
M  V30 2246 H 228.433 1.23579 -5.37989 0
M  V30 2247 H 230.909 2.0378 -3.62785 0
M  V30 2248 H 229.785 3.06657 -4.5525 0
M  V30 2249 H 230.046 3.38419 -2.84473 0
M  V30 2250 N 229.106 1.52395 0.401703 0
M  V30 2251 C 230.517 1.58899 0.980202 0
M  V30 2252 C 230.868 0.434032 1.91339 0
M  V30 2253 O 229.993 -0.444619 2.11783 0
M  V30 2254 C 230.588 2.87994 1.78451 0
M  V30 2255 C 229.147 2.96953 2.31292 0
M  V30 2256 C 228.294 2.53903 1.11483 0
M  V30 2257 H 231.245 1.57657 0.18168 0
M  V30 2258 H 231.266 2.73765 2.64259 0
M  V30 2259 H 230.778 3.72035 1.10506 0
M  V30 2260 H 228.879 2.17422 3.02586 0
M  V30 2261 H 228.992 4.01344 2.61649 0
M  V30 2262 H 227.356 2.07925 1.47104 0
M  V30 2263 H 228.139 3.40326 0.450928 0
M  V30 2264 N 230.584 -0.659388 1.43143 0
M  V30 2265 C 231.832 -1.41654 1.44147 0
M  V30 2266 C 232.153 -1.94893 0.0645739 0
M  V30 2267 O 231.423 -1.74044 -0.899198 0
M  V30 2268 H 230.003 -0.525708 0.530697 0
M  V30 2269 H 232.665 -0.778097 1.78694 0
M  V30 2270 H 231.761 -2.26195 2.1504 0
M  V30 2271 N 232.062 -1.29571 -0.897171 0
M  V30 2272 C 233.292 -1.20408 -1.67886 0
M  V30 2273 C 233.7 0.237429 -1.87704 0
M  V30 2274 O 233.043 1.17048 -1.41582 0
M  V30 2275 C 233.105 -1.84887 -3.08314 0
M  V30 2276 C 232.769 -3.34189 -3.11716 0
M  V30 2277 C 233.766 -4.30374 -2.91675 0
M  V30 2278 C 231.451 -3.75431 -3.33701 0
M  V30 2279 C 233.445 -5.65776 -2.93557 0
M  V30 2280 C 231.132 -5.10955 -3.35214 0
M  V30 2281 C 232.13 -6.05938 -3.15164 0
M  V30 2282 O 231.818 -7.38987 -3.1647 0
M  V30 2283 H 231.55 -0.418289 -0.531046 0
M  V30 2284 H 234.104 -1.71514 -1.13014 0
M  V30 2285 H 232.334 -1.28295 -3.64798 0
M  V30 2286 H 234.023 -1.70011 -3.6858 0
M  V30 2287 H 234.789 -3.99844 -2.74499 0
M  V30 2288 H 230.668 -3.01953 -3.48347 0
M  V30 2289 H 234.212 -6.39889 -2.77826 0
M  V30 2290 H 230.109 -5.4113 -3.51922 0
M  V30 2291 H 230.877 -7.47823 -3.3272 0
M  V30 2292 N 233.54 1.10788 -1.12088 0
M  V30 2293 C 234.77 1.86191 -0.895351 0
M  V30 2294 C 235.178 1.80763 0.558702 0
M  V30 2295 O 234.521 1.19188 1.39785 0
M  V30 2296 C 234.583 3.35659 -1.28737 0
M  V30 2297 C 234.247 3.64849 -2.75198 0
M  V30 2298 C 235.244 3.61757 -3.734 0
M  V30 2299 C 232.929 3.93641 -3.12013 0
M  V30 2300 C 234.923 3.87045 -5.06434 0
M  V30 2301 C 232.61 4.18585 -4.4523 0
M  V30 2302 C 233.608 4.15277 -5.42249 0
M  V30 2303 O 233.296 4.3959 -6.73065 0
M  V30 2304 H 233.028 0.595425 -0.32007 0
M  V30 2305 H 235.582 1.40992 -1.49367 0
M  V30 2306 H 233.812 3.81497 -0.63224 0
M  V30 2307 H 235.501 3.92441 -1.03656 0
M  V30 2308 H 236.267 3.39557 -3.46303 0
M  V30 2309 H 232.146 3.95348 -2.37109 0
M  V30 2310 H 235.69 3.84378 -5.82151 0
M  V30 2311 H 231.587 4.40264 -4.72057 0
M  V30 2312 H 232.355 4.57123 -6.78956 0
M  V30 2313 N 235.018 0.912232 1.28515 0
M  V30 2314 C 236.248 0.559604 1.98877 0
M  V30 2315 C 236.656 -0.863113 1.68366 0
M  V30 2316 O 235.999 -1.58304 0.931969 0
M  V30 2317 C 236.061 0.68703 3.52874 0
M  V30 2318 C 235.725 2.07901 4.06972 0
M  V30 2319 C 236.722 3.05157 4.20922 0
M  V30 2320 C 234.407 2.39178 4.417 0
M  V30 2321 C 236.401 4.31806 4.68852 0
M  V30 2322 C 234.088 3.66068 4.89324 0
M  V30 2323 C 235.086 4.62195 5.02856 0
M  V30 2324 O 234.774 5.86829 5.49442 0
M  V30 2325 H 234.506 0.212191 0.641834 0
M  V30 2326 H 237.06 1.22712 1.64715 0
M  V30 2327 H 235.29 -0.0375486 3.86682 0
M  V30 2328 H 236.979 0.341727 4.04459 0
M  V30 2329 H 237.745 2.82311 3.94367 0
M  V30 2330 H 233.624 1.65109 4.30418 0
M  V30 2331 H 237.168 5.06842 4.79329 0
M  V30 2332 H 233.065 3.88739 5.15318 0
M  V30 2333 H 233.833 5.89597 5.6773 0
M  V30 2334 N 236.496 -1.42363 0.676048 0
M  V30 2335 C 237.743 -2.01522 0.19883 0
M  V30 2336 C 238.071 -1.53456 -1.19505 0
M  V30 2337 O 237.326 -0.727967 -1.81657 0
M  V30 2338 C 237.625 -3.56929 0.183431 0
M  V30 2339 C 237.291 -4.24431 1.52215 0
M  V30 2340 C 235.953 -4.42585 1.8887 0
M  V30 2341 C 238.305 -4.62459 2.40377 0
M  V30 2342 C 235.633 -4.96039 3.13309 0
M  V30 2343 C 237.985 -5.17294 3.64129 0
M  V30 2344 C 236.649 -5.33661 4.00951 0
M  V30 2345 H 235.919 -0.737419 0.0727571 0
M  V30 2346 H 238.566 -1.70531 0.871281 0
M  V30 2347 H 236.871 -3.87594 -0.572532 0
M  V30 2348 H 238.568 -4.00486 -0.203035 0
M  V30 2349 H 235.158 -4.10661 1.22701 0
M  V30 2350 H 239.342 -4.48105 2.13343 0
M  V30 2351 H 234.598 -5.06896 3.41857 0
M  V30 2352 H 238.772 -5.45704 4.32644 0
M  V30 2353 H 236.399 -5.74845 4.9745 0
M  V30 2354 N 237.974 -0.419461 -1.51915 0
M  V30 2355 C 239.202 0.152136 -2.0634 0
M  V30 2356 C 239.617 1.37988 -1.28859 0
M  V30 2357 O 238.974 1.79243 -0.343232 0
M  V30 2358 C 239.025 0.492266 -3.58133 0
M  V30 2359 O 238.746 -0.686736 -4.32684 0
M  V30 2360 C 240.247 1.11648 -4.2901 0
M  V30 2361 H 237.467 0.0158325 -0.670813 0
M  V30 2362 H 240.011 -0.593394 -1.95702 0
M  V30 2363 H 238.166 1.18769 -3.68745 0
M  V30 2364 H 238.58 -0.400341 -5.2297 0
M  V30 2365 H 240.054 1.3046 -5.36362 0
M  V30 2366 H 240.531 2.09251 -3.86148 0
M  V30 2367 H 241.137 0.460958 -4.22795 0
M  V30 2368 N 239.452 1.56882 -0.150215 0
M  V30 2369 C 240.699 1.96228 0.500093 0
M  V30 2370 C 241.027 1.03522 1.64661 0
M  V30 2371 O 240.282 0.0650683 1.95592 0
M  V30 2372 C 240.581 3.41801 1.04437 0
M  V30 2373 C 240.247 4.50897 0.0159671 0
M  V30 2374 C 238.909 4.8046 -0.266731 0
M  V30 2375 C 241.261 5.16703 -0.683192 0
M  V30 2376 C 238.589 5.73135 -1.25434 0
M  V30 2377 C 240.941 6.10441 -1.65964 0
M  V30 2378 C 239.605 6.38382 -1.95 0
M  V30 2379 H 238.875 0.718048 0.182997 0
M  V30 2380 H 241.522 1.90019 -0.237724 0
M  V30 2381 H 239.827 3.44857 1.85959 0
M  V30 2382 H 241.524 3.69573 1.55618 0
M  V30 2383 H 238.114 4.27891 0.246485 0
M  V30 2384 H 242.298 4.93993 -0.477983 0
M  V30 2385 H 237.554 5.93074 -1.48571 0
M  V30 2386 H 241.728 6.60507 -2.20689 0
M  V30 2387 H 239.355 7.09996 -2.71679 0
M  V30 2388 N 240.93 -0.123565 1.57115 0
M  V30 2389 C 241.862 -1.17739 1.96648 0
M  V30 2390 C 242.875 -1.37906 0.865201 0
M  V30 2391 O 244.064 -1.37062 1.14351 0
M  V30 2392 C 241.164 -2.53821 2.24562 0
M  V30 2393 C 240.337 -2.54317 3.55867 0
M  V30 2394 C 239.396 -3.72112 3.72047 0
M  V30 2395 O 238.422 -3.55907 4.44206 0
M  V30 2396 N 239.624 -4.90498 3.10471 0
M  V30 2397 H 242.389 -0.841147 2.87654 0
M  V30 2398 H 239.95 -0.31289 1.58848 0
M  V30 2399 H 241.942 -3.31175 2.32606 0
M  V30 2400 H 240.512 -2.79645 1.39705 0
M  V30 2401 H 239.732 -1.62711 3.59053 0
M  V30 2402 H 241.02 -2.51701 4.42181 0
M  V30 2403 H 240.418 -5.06567 2.51806 0
M  V30 2404 H 238.975 -5.65544 3.24043 0
M  V30 2405 N 242.408 -1.52605 -0.393616 0
M  V30 2406 C 243.654 -1.67672 -1.14079 0
M  V30 2407 C 243.987 -0.413121 -1.89755 0
M  V30 2408 O 243.262 0.588952 -1.85369 0
M  V30 2409 C 243.545 -2.9088 -2.12276 0
M  V30 2410 C 243.398 -4.27329 -1.40394 0
M  V30 2411 C 244.717 -3.09628 -3.12759 0
M  V30 2412 H 241.836 -0.610168 -0.413356 0
M  V30 2413 H 244.478 -1.85193 -0.424696 0
M  V30 2414 H 242.628 -2.76073 -2.73342 0
M  V30 2415 H 244.3 -4.53894 -0.82327 0
M  V30 2416 H 242.543 -4.2802 -0.705801 0
M  V30 2417 H 243.214 -5.09615 -2.12123 0
M  V30 2418 H 245.69 -3.23436 -2.61779 0
M  V30 2419 H 244.566 -3.97322 -3.78717 0
M  V30 2420 H 244.827 -2.23637 -3.81365 0
M  V30 2421 N 243.887 0.651787 -1.4349 0
M  V30 2422 C 244.817 1.77621 -1.51569 0
M  V30 2423 C 245.798 1.66022 -0.370253 0
M  V30 2424 O 246.983 1.85095 -0.587658 0
M  V30 2425 C 244.113 3.16056 -1.43966 0
M  V30 2426 C 243.067 3.4242 -2.56774 0
M  V30 2427 C 242.393 4.8067 -2.34223 0
M  V30 2428 C 243.693 3.37023 -3.99015 0
M  V30 2429 H 245.387 1.71117 -2.45681 0
M  V30 2430 H 242.933 0.821825 -1.18246 0
M  V30 2431 H 244.886 3.94472 -1.48221 0
M  V30 2432 H 243.61 3.23293 -0.463586 0
M  V30 2433 H 242.269 2.66375 -2.51873 0
M  V30 2434 H 241.917 4.84585 -1.34856 0
M  V30 2435 H 241.617 4.9927 -3.09844 0
M  V30 2436 H 243.141 5.61342 -2.40265 0
M  V30 2437 H 244.555 4.05374 -4.05395 0
M  V30 2438 H 242.952 3.67159 -4.74673 0
M  V30 2439 H 244.022 2.3518 -4.2405 0
M  V30 2440 N 245.365 1.30045 0.890287 0
M  V30 2441 C 246.59 1.21598 1.68014 0
M  V30 2442 C 247.015 -0.218678 1.86825 0
M  V30 2443 O 246.373 -1.15756 1.39536 0
M  V30 2444 C 246.421 1.94434 3.03691 0
M  V30 2445 O 245.525 1.2678 3.92429 0
M  V30 2446 H 244.866 0.420856 0.513592 0
M  V30 2447 H 247.396 1.71775 1.11151 0
M  V30 2448 H 247.406 2.03251 3.5377 0
M  V30 2449 H 246.081 2.98777 2.89318 0
M  V30 2450 H 244.658 1.26282 3.50866 0
M  V30 2451 N 246.843 -1.10192 1.12674 0
M  V30 2452 C 247.775 -2.16418 0.754701 0
M  V30 2453 C 248.788 -1.61309 -0.21986 0
M  V30 2454 O 249.977 -1.785 -0.000826841 0
M  V30 2455 C 247.077 -3.38762 0.096698 0
M  V30 2456 C 246.25 -4.23307 1.10136 0
M  V30 2457 C 245.309 -5.24092 0.470513 0
M  V30 2458 O 244.335 -5.57906 1.12824 0
M  V30 2459 N 245.537 -5.75491 -0.760948 0
M  V30 2460 H 248.302 -2.48943 1.66875 0
M  V30 2461 H 245.863 -1.25834 1.01869 0
M  V30 2462 H 247.855 -4.03291 -0.337384 0
M  V30 2463 H 246.425 -3.04192 -0.720153 0
M  V30 2464 H 245.645 -3.55036 1.71299 0
M  V30 2465 H 246.933 -4.76624 1.78064 0
M  V30 2466 H 246.331 -5.50222 -1.31424 0
M  V30 2467 H 244.888 -6.41792 -1.13781 0
M  V30 2468 N 248.321 -0.919034 -1.28029 0
M  V30 2469 C 249.567 -0.565221 -1.95389 0
M  V30 2470 C 249.922 0.882325 -1.70976 0
M  V30 2471 O 249.215 1.61988 -1.02325 0
M  V30 2472 C 249.409 -0.816855 -3.4794 0
M  V30 2473 C 249.238 -2.28731 -3.87185 0
M  V30 2474 C 248.008 -2.93841 -4.11079 0
M  V30 2475 C 250.206 -3.26415 -3.97439 0
M  V30 2476 N 248.188 -4.31129 -4.37037 0
M  V30 2477 C 249.559 -4.48884 -4.27672 0
M  V30 2478 C 251.614 -3.21742 -3.79982 0
M  V30 2479 C 250.317 -5.67268 -4.42266 0
M  V30 2480 C 252.343 -4.39431 -3.95796 0
M  V30 2481 C 251.705 -5.60675 -4.26407 0
M  V30 2482 H 247.804 -0.256797 -0.738633 0
M  V30 2483 H 250.388 -1.18386 -1.54573 0
M  V30 2484 H 248.559 -0.227445 -3.87733 0
M  V30 2485 H 250.291 -0.426542 -4.02446 0
M  V30 2486 H 247.046 -2.44547 -4.05578 0
M  V30 2487 H 247.47 -5.02127 -4.5409 0
M  V30 2488 H 252.112 -2.29079 -3.55363 0
M  V30 2489 H 249.83 -6.60406 -4.65714 0
M  V30 2490 H 253.416 -4.37323 -3.83719 0
M  V30 2491 H 252.296 -6.50223 -4.38383 0
M  V30 2492 N 249.799 1.42003 -0.683588 0
M  V30 2493 C 250.709 2.34597 -0.0109075 0
M  V30 2494 C 251.725 1.55576 0.779245 0
M  V30 2495 O 252.901 1.88107 0.719555 0
M  V30 2496 C 249.966 3.34199 0.922588 0
M  V30 2497 C 249.027 4.29115 0.125984 0
M  V30 2498 C 248.26 5.23959 1.01502 0
M  V30 2499 O 248.483 5.23952 2.25456 0
M  V30 2500 O 247.417 6.00053 0.47111 0
M  V30 2501 H 251.243 2.93675 -0.773853 0
M  V30 2502 H 248.828 1.42654 -0.443861 0
M  V30 2503 H 250.71 3.95365 1.45823 0
M  V30 2504 H 249.385 2.77582 1.66523 0
M  V30 2505 H 248.292 3.71335 -0.453969 0
M  V30 2506 H 249.625 4.88798 -0.577736 0
M  V30 2507 N 251.277 0.427512 1.51691 0
M  V30 2508 C 252.526 -0.143679 2.01188 0
M  V30 2509 C 252.839 -1.44642 1.31674 0
M  V30 2510 O 254.045 -2.09997 1.72086 0
M  V30 2511 C 252.501 -0.306602 3.58592 0
M  V30 2512 C 252.109 0.985125 4.37035 0
M  V30 2513 C 253.853 -0.832091 4.16265 0
M  V30 2514 C 251.76 0.788382 5.86122 0
M  V30 2515 H 250.69 -0.0574701 0.751807 0
M  V30 2516 H 253.341 0.555772 1.74881 0
M  V30 2517 H 251.723 -1.06882 3.81303 0
M  V30 2518 H 252.897 1.75492 4.26074 0
M  V30 2519 H 251.212 1.4384 3.90767 0
M  V30 2520 H 253.809 -0.995617 5.25349 0
M  V30 2521 H 254.152 -1.81186 3.74803 0
M  V30 2522 H 254.685 -0.128444 3.97593 0
M  V30 2523 H 251.424 1.74025 6.31978 0
M  V30 2524 H 250.944 0.0582143 5.99772 0
M  V30 2525 H 252.623 0.437722 6.45518 0
M  V30 2526 N 252.755 -1.56801 0.158532 0
M  V30 2527 C 253.995 -1.98383 -0.49229 0
M  V30 2528 C 254.359 -1.04184 -1.61275 0
M  V30 2529 O 255.56 -1.34856 -2.32524 0
M  V30 2530 C 253.831 -3.4385 -0.974766 0
M  V30 2531 S 255.39 -4.07459 -1.62857 0
M  V30 2532 H 252.208 -0.693041 -0.158794 0
M  V30 2533 H 254.81 -1.93856 0.252974 0
M  V30 2534 H 253.514 -4.10131 -0.148688 0
M  V30 2535 H 253.045 -3.52115 -1.75438 0
M  V30 2536 H 255.06 -4.01458 -2.91627 0
M  V30 2537 N 254.233 0.115231 -1.57178 0
M  V30 2538 C 255.163 1.1423 -2.03651 0
M  V30 2539 C 256.144 1.42967 -0.921655 0
M  V30 2540 O 257.329 1.53343 -1.19162 0
M  V30 2541 C 254.459 2.4675 -2.44401 0
M  V30 2542 C 253.413 2.32467 -3.59365 0
M  V30 2543 C 252.739 3.69984 -3.86026 0
M  V30 2544 C 254.039 1.78203 -4.90959 0
M  V30 2545 H 255.733 0.755749 -2.89705 0
M  V30 2546 H 253.279 0.362093 -1.39373 0
M  V30 2547 H 255.232 3.18854 -2.75517 0
M  V30 2548 H 253.956 2.87302 -1.55322 0
M  V30 2549 H 252.615 1.62811 -3.28463 0
M  V30 2550 H 252.263 4.08028 -2.94147 0
M  V30 2551 H 251.963 3.61279 -4.63412 0
M  V30 2552 H 253.487 4.43587 -4.19599 0
M  V30 2553 H 254.901 2.40128 -5.20587 0
M  V30 2554 H 253.298 1.8031 -5.72371 0
M  V30 2555 H 254.368 0.739876 -4.79222 0
M  V30 2556 N 255.711 1.52812 0.385517 0
M  V30 2557 C 256.936 1.72207 1.15583 0
M  V30 2558 C 257.361 0.441034 1.82857 0
M  V30 2559 O 256.719 -0.603465 1.70962 0
M  V30 2560 C 256.767 2.87476 2.17692 0
M  V30 2561 O 255.871 2.54693 3.24354 0
M  V30 2562 H 255.212 0.572526 0.336319 0
M  V30 2563 H 257.742 1.99618 0.448744 0
M  V30 2564 H 257.752 3.13072 2.6163 0
M  V30 2565 H 256.427 3.80408 1.68115 0
M  V30 2566 H 255.004 2.3985 2.85529 0
M  V30 2567 N 257.189 -0.644168 1.43834 0
M  V30 2568 C 258.438 -1.39985 1.45214 0
M  V30 2569 C 258.751 -1.95421 0.0835494 0
M  V30 2570 O 259.957 -2.71488 -0.0251748 0
M  V30 2571 C 258.413 -2.53384 2.55587 0
M  V30 2572 C 258.021 -2.04517 3.98594 0
M  V30 2573 C 259.765 -3.30685 2.66172 0
M  V30 2574 C 257.672 -3.1518 5.00416 0
M  V30 2575 H 256.602 -0.526005 0.540218 0
M  V30 2576 H 259.253 -0.694367 1.69855 0
M  V30 2577 H 257.635 -3.26446 2.24163 0
M  V30 2578 H 258.809 -1.38405 4.39523 0
M  V30 2579 H 257.124 -1.40068 3.92135 0
M  V30 2580 H 259.721 -4.13158 3.39418 0
M  V30 2581 H 260.064 -3.79312 1.71546 0
M  V30 2582 H 260.597 -2.64708 2.96942 0
M  V30 2583 H 257.336 -2.71511 5.96625 0
M  V30 2584 H 256.856 -3.79974 4.64091 0
M  V30 2585 H 258.535 -3.80166 5.23529 0
M  V30 2586 N 258.668 -1.30515 -0.883378 0
M  V30 2587 C 259.914 -1.19607 -1.63774 0
M  V30 2588 C 260.247 0.248314 -1.92606 0
M  V30 2589 O 259.522 1.17742 -1.54813 0
M  V30 2590 C 259.805 -2.02669 -2.97653 0
M  V30 2591 C 259.658 -3.55335 -2.75784 0
M  V30 2592 C 260.977 -1.86573 -3.98596 0
M  V30 2593 H 258.096 -0.435856 -0.594305 0
M  V30 2594 H 260.738 -1.60165 -1.02212 0
M  V30 2595 H 258.888 -1.68208 -3.50197 0
M  V30 2596 H 260.56 -3.99863 -2.30016 0
M  V30 2597 H 258.803 -3.79438 -2.1026 0
M  V30 2598 H 259.474 -4.08745 -3.70988 0
M  V30 2599 H 261.95 -2.16703 -3.55217 0
M  V30 2600 H 260.826 -2.47014 -4.90179 0
M  V30 2601 H 261.087 -0.825321 -4.34328 0
M  V30 2602 N 260.146 1.09593 -1.13257 0
M  V30 2603 C 261.371 1.8604 -0.916732 0
M  V30 2604 C 261.796 1.80504 0.529146 0
M  V30 2605 O 261.154 1.18127 1.37534 0
M  V30 2606 C 261.202 3.32017 -1.40703 0
M  V30 2607 O 260.306 4.08141 -0.591153 0
M  V30 2608 H 259.647 0.576943 -0.328683 0
M  V30 2609 H 262.177 1.38405 -1.50682 0
M  V30 2610 H 262.187 3.82865 -1.4099 0
M  V30 2611 H 260.862 3.35361 -2.45979 0
M  V30 2612 H 259.439 3.67084 -0.656005 0
M  V30 2613 N 261.624 0.925811 1.2754 0
M  V30 2614 C 262.849 0.580924 1.99098 0
M  V30 2615 C 263.274 -0.833555 1.68622 0
M  V30 2616 O 262.632 -1.55903 0.925422 0
M  V30 2617 C 262.68 0.811186 3.51358 0
M  V30 2618 O 261.784 -0.124129 4.12213 0
M  V30 2619 H 261.125 0.223873 0.625122 0
M  V30 2620 H 263.655 1.24455 1.62395 0
M  V30 2621 H 263.665 0.72601 4.01489 0
M  V30 2622 H 262.34 1.84227 3.72872 0
M  V30 2623 H 260.917 0.0108006 3.72898 0
M  V30 2624 N 263.102 -1.41638 0.69111 0
M  V30 2625 C 264.327 -2.06148 0.227583 0
M  V30 2626 C 264.752 -1.51652 -1.11281 0
M  V30 2627 O 264.11 -0.64164 -1.69566 0
M  V30 2628 C 264.158 -3.60095 0.190858 0
M  V30 2629 O 263.262 -4.03845 -0.835664 0
M  V30 2630 H 262.603 -0.654434 0.112306 0
M  V30 2631 H 265.133 -1.81484 0.944714 0
M  V30 2632 H 265.143 -4.07995 0.020207 0
M  V30 2633 H 263.818 -3.99129 1.16915 0
M  V30 2634 H 262.395 -3.67458 -0.63473 0
M  V30 2635 N 264.58 -0.43555 -1.51462 0
M  V30 2636 C 265.996 -0.0877501 -1.59359 0
M  V30 2637 C 266.196 1.4027 -1.4466 0
M  V30 2638 O 265.252 2.17243 -1.28693 0
M  V30 2639 C 266.565 -0.606264 -2.94525 0
M  V30 2640 C 268.113 -0.566548 -3.0783 0
M  V30 2641 C 268.588 -1.06201 -4.45517 0
M  V30 2642 N 270.079 -1.01992 -4.51832 0
M  V30 2643 C 270.814 -1.37417 -5.5669 0
M  V30 2644 N 270.31 -1.80119 -6.68976 0
M  V30 2645 N 272.103 -1.29245 -5.47039 0
M  V30 2646 H 264.254 -1.40533 -1.59261 0
M  V30 2647 H 266.517 -0.578992 -0.750648 0
M  V30 2648 H 266.223 -1.64901 -3.10645 0
M  V30 2649 H 266.097 -0.0302097 -3.77188 0
M  V30 2650 H 268.484 0.467208 -2.91378 0
M  V30 2651 H 268.565 -1.17898 -2.2701 0
M  V30 2652 H 268.209 -2.09422 -4.62715 0
M  V30 2653 H 268.139 -0.426127 -5.24873 0
M  V30 2654 H 270.63 -0.706308 -3.71241 0
M  V30 2655 H 270.943 -2.05392 -7.45006 0
M  V30 2656 H 269.288 -1.84044 -6.70189 0
M  V30 2657 H 272.479 -0.957522 -4.58202 0
M  V30 2658 H 272.652 -1.57182 -6.28648 0
M  V30 2659 N 266.058 1.56714 -0.166846 0
M  V30 2660 C 267.306 1.96358 0.478305 0
M  V30 2661 C 267.627 1.0537 1.6408 0
M  V30 2662 O 266.897 0.119154 1.95537 0
M  V30 2663 H 265.477 0.725065 0.179692 0
M  V30 2664 H 268.139 1.93329 -0.246985 0
M  V30 2665 H 267.235 3.00547 0.841292 0
M  V30 2666 N 267.536 -0.106894 1.57237 0
M  V30 2667 C 268.468 -1.15646 1.97885 0
M  V30 2668 C 269.481 -1.36981 0.879779 0
M  V30 2669 O 270.67 -1.35841 1.15799 0
M  V30 2670 C 267.77 -2.51425 2.27241 0
M  V30 2671 C 266.943 -2.50529 3.58545 0
M  V30 2672 C 266.002 -3.68145 3.75973 0
M  V30 2673 O 265.028 -3.51176 4.47956 0
M  V30 2674 N 266.23 -4.87177 3.15656 0
M  V30 2675 H 268.995 -0.81059 2.8853 0
M  V30 2676 H 266.556 -0.296024 1.59171 0
M  V30 2677 H 268.548 -3.28689 2.36105 0
M  V30 2678 H 267.118 -2.78147 1.42663 0
M  V30 2679 H 266.338 -1.58894 3.60758 0
M  V30 2680 H 267.626 -2.46997 4.44826 0
M  V30 2681 H 267.024 -5.03868 2.57165 0
M  V30 2682 H 265.581 -5.62075 3.30023 0
M  V30 2683 N 269.014 -1.53014 -0.377408 0
M  V30 2684 C 270.26 -1.68872 -1.12294 0
M  V30 2685 C 270.593 -0.433224 -1.89306 0
M  V30 2686 O 269.868 0.569258 -1.85983 0
M  V30 2687 C 270.151 -2.93115 -2.09179 0
M  V30 2688 C 270.004 -4.28794 -1.35853 0
M  V30 2689 C 271.323 -3.12928 -3.09458 0
M  V30 2690 H 268.442 -0.614518 -0.406862 0
M  V30 2691 H 271.084 -1.85633 -0.40503 0
M  V30 2692 H 269.234 -2.78956 -2.70399 0
M  V30 2693 H 270.906 -4.54742 -0.775082 0
M  V30 2694 H 269.149 -4.28744 -0.660364 0
M  V30 2695 H 269.82 -5.11837 -2.06706 0
M  V30 2696 H 272.296 -3.26194 -2.58334 0
M  V30 2697 H 271.172 -4.01316 -3.74482 0
M  V30 2698 H 271.433 -2.27669 -3.78971 0
M  V30 2699 N 270.492 0.636531 -1.44174 0
M  V30 2700 C 271.908 0.954104 -1.27941 0
M  V30 2701 C 272.108 2.0039 -0.211248 0
M  V30 2702 O 271.164 2.49236 0.404695 0
M  V30 2703 C 272.477 1.4225 -2.64925 0
M  V30 2704 C 274.025 1.53827 -2.72592 0
M  V30 2705 C 274.5 2.04053 -4.10032 0
M  V30 2706 N 275.991 2.11331 -4.12182 0
M  V30 2707 C 276.726 2.51352 -5.15374 0
M  V30 2708 N 276.222 2.90549 -6.2893 0
M  V30 2709 N 278.015 2.51438 -5.02728 0
M  V30 2710 H 270.166 -0.0578386 -2.12321 0
M  V30 2711 H 272.429 0.0367406 -0.947288 0
M  V30 2712 H 272.135 0.725466 -3.44136 0
M  V30 2713 H 272.009 2.39451 -2.9145 0
M  V30 2714 H 274.396 2.22628 -1.93702 0
M  V30 2715 H 274.477 0.550154 -2.49814 0
M  V30 2716 H 274.121 1.35848 -4.89395 0
M  V30 2717 H 274.051 3.03726 -4.30184 0
M  V30 2718 H 276.542 1.83745 -3.30222 0
M  V30 2719 H 276.855 3.19884 -7.03487 0
M  V30 2720 H 275.2 2.88313 -6.32377 0
M  V30 2721 H 278.391 2.20203 -4.13072 0
M  V30 2722 H 278.564 2.82304 -5.83274 0
M  V30 2723 N 271.97 1.30982 0.876444 0
M  V30 2724 C 273.386 1.09498 1.16113 0
M  V30 2725 C 273.586 -0.13875 2.01022 0
M  V30 2726 O 272.642 -0.829935 2.38471 0
M  V30 2727 C 273.955 2.36308 1.85954 0
M  V30 2728 C 275.503 2.41856 1.98683 0
M  V30 2729 C 275.978 3.6853 2.71937 0
M  V30 2730 N 277.469 3.69387 2.79477 0
M  V30 2731 C 278.204 4.64096 3.36753 0
M  V30 2732 N 277.7 5.69155 3.95012 0
M  V30 2733 N 279.493 4.51626 3.3465 0
M  V30 2734 H 271.644 2.10118 0.310494 0
M  V30 2735 H 273.907 0.926634 0.200131 0
M  V30 2736 H 273.613 3.26388 1.31011 0
M  V30 2737 H 273.487 2.4561 2.86278 0
M  V30 2738 H 275.874 1.52249 2.52793 0
M  V30 2739 H 275.955 2.36523 0.9742 0
M  V30 2740 H 275.599 4.58499 2.18496 0
M  V30 2741 H 275.529 3.71127 3.73593 0
M  V30 2742 H 278.02 2.93438 2.38123 0
M  V30 2743 H 278.333 6.3751 4.36808 0
M  V30 2744 H 276.678 5.72937 3.93406 0
M  V30 2745 H 279.869 3.68728 2.8837 0
M  V30 2746 H 280.042 5.25614 3.7899 0
M  V30 2747 N 273.449 -1.08991 1.13837 0
M  V30 2748 C 274.674 -1.85551 0.926585 0
M  V30 2749 C 275.099 -1.80782 -0.519566 0
M  V30 2750 O 274.457 -1.18855 -1.36906 0
M  V30 2751 C 274.505 -3.31266 1.42462 0
M  V30 2752 O 273.609 -4.07822 0.612789 0
M  V30 2753 H 272.95 -0.575192 0.331738 0
M  V30 2754 H 275.48 -1.37604 1.51414 0
M  V30 2755 H 275.49 -3.82112 1.43019 0
M  V30 2756 H 274.165 -3.34052 2.47754 0
M  V30 2757 H 272.742 -3.66731 0.675463 0
M  V30 2758 N 274.927 -0.932562 -1.27047 0
M  V30 2759 C 275.857 -0.452902 -2.29066 0
M  V30 2760 C 276.838 0.489338 -1.62909 0
M  V30 2761 O 278.023 0.393046 -1.90181 0
M  V30 2762 C 275.153 0.290698 -3.46081 0
M  V30 2763 C 274.107 -0.564168 -4.24265 0
M  V30 2764 C 273.433 0.308886 -5.33807 0
M  V30 2765 C 274.733 -1.83112 -4.89149 0
M  V30 2766 H 276.427 -1.30552 -2.69437 0
M  V30 2767 H 273.973 -0.629201 -1.29526 0
M  V30 2768 H 275.926 0.637233 -4.16554 0
M  V30 2769 H 274.65 1.17738 -3.0464 0
M  V30 2770 H 273.309 -0.893477 -3.55545 0
M  V30 2771 H 272.957 1.19467 -4.88607 0
M  V30 2772 H 272.657 -0.259633 -5.87026 0
M  V30 2773 H 274.181 0.650884 -6.07121 0
M  V30 2774 H 275.595 -1.55236 -5.51883 0
M  V30 2775 H 273.992 -2.34353 -5.52448 0
M  V30 2776 H 275.062 -2.54772 -4.12576 0
M  V30 2777 N 276.405 1.4127 -0.698611 0
M  V30 2778 C 277.653 2.00782 -0.230409 0
M  V30 2779 C 277.974 1.5562 1.17505 0
M  V30 2780 O 277.244 0.78815 1.79346 0
M  V30 2781 H 275.824 0.742464 -0.0821944 0
M  V30 2782 H 278.486 1.72852 -0.90045 0
M  V30 2783 H 277.582 3.11095 -0.25021 0
M  V30 2784 N 277.883 0.443576 1.51229 0
M  V30 2785 C 279.13 -0.120796 2.02139 0
M  V30 2786 C 279.458 -1.42166 1.32736 0
M  V30 2787 O 278.713 -1.90849 0.43301 0
M  V30 2788 C 279.012 -0.380579 3.55368 0
M  V30 2789 C 278.678 0.83523 4.43097 0
M  V30 2790 C 277.34 1.16864 4.66794 0
M  V30 2791 C 279.692 1.64601 4.94526 0
M  V30 2792 C 277.02 2.31339 5.39165 0
M  V30 2793 C 279.372 2.78181 5.68153 0
M  V30 2794 C 278.036 3.11969 5.90112 0
M  V30 2795 H 277.306 -0.0442023 0.73968 0
M  V30 2796 H 279.953 0.592046 1.82118 0
M  V30 2797 H 278.258 -1.17538 3.73754 0
M  V30 2798 H 279.955 -0.830777 3.923 0
M  V30 2799 H 276.545 0.565437 4.24854 0
M  V30 2800 H 280.729 1.40163 4.76097 0
M  V30 2801 H 275.985 2.57823 5.5438 0
M  V30 2802 H 280.159 3.41371 6.06992 0
M  V30 2803 H 277.786 4.00784 6.45969 0
M  V30 2804 N 279.361 -1.56624 0.175154 0
M  V30 2805 C 280.601 -1.98894 -0.471221 0
M  V30 2806 C 280.965 -1.05889 -1.60161 0
M  V30 2807 O 282.166 -1.37315 -2.3108 0
M  V30 2808 C 280.437 -3.44865 -0.938241 0
M  V30 2809 S 281.996 -4.09164 -1.58526 0
M  V30 2810 H 278.814 -0.694686 -0.151434 0
M  V30 2811 H 281.416 -1.93577 0.27352 0
M  V30 2812 H 280.12 -4.10265 -0.10518 0
M  V30 2813 H 279.651 -3.53956 -1.71693 0
M  V30 2814 H 281.666 -4.04528 -2.87352 0
M  V30 2815 N 280.839 0.0985539 -1.57292 0
M  V30 2816 C 282.116 0.834155 -1.76921 0
M  V30 2817 C 282.496 1.97101 -0.755928 0
M  V30 2818 O 281.844 2.27474 0.216245 0
M  V30 2819 C 282.054 1.33194 -3.22584 0
M  V30 2820 C 283.402 1.77611 -3.85668 0
M  V30 2821 O 284.426 1.42825 -3.26312 0
M  V30 2822 O 283.285 2.4192 -4.90038 0
M  V30 2823 H 280.379 0.397628 -0.725135 0
M  V30 2824 H 282.925 0.0807044 -1.69508 0
M  V30 2825 H 281.697 0.517248 -3.87866 0
M  V30 2826 H 281.32 2.1475 -3.34616 0
M  V30 2827 N 282.317 1.53212 0.369288 0
M  V30 2828 C 283.545 1.73119 1.13303 0
M  V30 2829 C 283.96 0.458455 1.83149 0
M  V30 2830 O 283.317 -0.568403 1.73423 0
M  V30 2831 C 283.368 2.89413 2.16616 0
M  V30 2832 O 283.089 4.11761 1.49614 0
M  V30 2833 C 284.59 3.21161 3.05566 0
M  V30 2834 H 281.81 0.579107 0.338934 0
M  V30 2835 H 284.354 1.99942 0.429338 0
M  V30 2836 H 282.509 2.64994 2.82589 0
M  V30 2837 H 282.923 4.76858 2.18419 0
M  V30 2838 H 284.397 4.05949 3.74045 0
M  V30 2839 H 284.874 2.36369 3.70171 0
M  V30 2840 H 285.48 3.47492 2.45213 0
M  V30 2841 N 283.795 -0.628877 1.44509 0
M  V30 2842 C 285.023 -1.41554 1.50897 0
M  V30 2843 C 285.438 -1.8832 0.134564 0
M  V30 2844 O 284.795 -1.60969 -0.859965 0
M  V30 2845 C 284.846 -2.63435 2.47556 0
M  V30 2846 O 284.567 -2.18619 3.79654 0
M  V30 2847 C 286.068 -3.56537 2.63431 0
M  V30 2848 H 283.288 -0.434044 0.511709 0
M  V30 2849 H 285.832 -0.768895 1.89495 0
M  V30 2850 H 283.987 -3.24187 2.12089 0
M  V30 2851 H 284.401 -2.97652 4.31861 0
M  V30 2852 H 285.875 -4.38657 3.35088 0
M  V30 2853 H 286.352 -4.05493 1.68738 0
M  V30 2854 H 286.958 -3.01653 2.9981 0
M  V30 2855 N 285.273 -1.31445 -0.869486 0
M  V30 2856 C 286.221 -1.19067 -1.99814 0
M  V30 2857 C 287.215 -0.0988569 -1.69111 0
M  V30 2858 O 288.421 -0.260781 -1.78101 0
M  V30 2859 H 284.796 -0.368677 -0.655425 0
M  V30 2860 H 286.767 -2.14555 -2.07385 0
M  V30 2861 C 285.516 -0.915323 -3.35436 0
M  V30 2862 H 284.839 -1.74759 -3.59582 0
M  V30 2863 H 286.279 -0.868895 -4.15001 0
M  V30 2864 C 284.738 0.381928 -3.34728 0
M  V30 2865 O 285.268 1.39857 -3.76567 0
M  V30 2866 N 283.474 0.398633 -2.87853 0
M  V30 2867 H 283.021 -0.429186 -2.54 0
M  V30 2868 H 282.979 1.26651 -2.87762 0
M  V30 2869 N 286.751 1.08385 -1.14413 0
M  V30 2870 C 287.698 2.15311 -0.831265 0
M  V30 2871 C 288.668 1.64751 0.211292 0
M  V30 2872 O 289.853 1.90627 0.0811674 0
M  V30 2873 C 286.993 3.43658 -0.315143 0
M  V30 2874 C 286.106 4.08064 -1.41802 0
M  V30 2875 C 285.241 5.24207 -0.859126 0
M  V30 2876 C 284.28 5.80554 -1.93967 0
M  V30 2877 N 283.417 6.88042 -1.39793 0
M  V30 2878 H 288.257 2.41415 -1.74708 0
M  V30 2879 H 285.794 1.18474 -0.871909 0
M  V30 2880 H 287.752 4.172 0.00230884 0
M  V30 2881 H 286.382 3.17839 0.56378 0
M  V30 2882 H 285.434 3.3228 -1.85187 0
M  V30 2883 H 286.746 4.45962 -2.23427 0
M  V30 2884 H 285.9 6.04689 -0.49359 0
M  V30 2885 H 284.639 4.87699 -0.011932 0
M  V30 2886 H 283.644 4.98725 -2.31415 0
M  V30 2887 H 284.869 6.19121 -2.79046 0
M  V30 2888 H 282.815 6.53493 -0.572919 0
M  V30 2889 H 282.732 7.24767 -2.15054 0
M  V30 2890 H 284 7.72255 -1.0603 0
M  V30 2891 N 288.23 0.939286 1.26551 0
M  V30 2892 C 289.478 0.58469 1.93457 0
M  V30 2893 C 289.799 -0.878774 1.74076 0
M  V30 2894 O 289.069 -1.62421 1.09528 0
M  V30 2895 H 287.649 0.21325 0.715914 0
M  V30 2896 H 290.311 1.1942 1.54029 0
M  V30 2897 H 289.407 0.800849 3.0165 0
M  V30 2898 N 289.708 -1.40897 0.706093 0
M  V30 2899 C 290.638 -2.33418 0.0620085 0
M  V30 2900 C 291.619 -1.52385 -0.755827 0
M  V30 2901 O 292.804 -1.80886 -0.706674 0
M  V30 2902 C 289.934 -3.36293 -0.867445 0
M  V30 2903 C 288.888 -4.27716 -0.155932 0
M  V30 2904 C 288.214 -5.2105 -1.20046 0
M  V30 2905 C 289.514 -5.12944 0.984149 0
M  V30 2906 H 291.208 -2.87527 0.83477 0
M  V30 2907 H 288.754 -1.38249 0.402875 0
M  V30 2908 H 290.707 -3.99949 -1.32735 0
M  V30 2909 H 289.431 -2.80556 -1.67199 0
M  V30 2910 H 288.09 -3.65498 0.284047 0
M  V30 2911 H 287.738 -4.61624 -1.99781 0
M  V30 2912 H 287.438 -5.83056 -0.729328 0
M  V30 2913 H 288.962 -5.87584 -1.66066 0
M  V30 2914 H 290.376 -5.70109 0.604048 0
M  V30 2915 H 288.773 -5.83945 1.38304 0
M  V30 2916 H 289.843 -4.49485 1.81911 0
M  V30 2917 N 291.186 -0.45159 -1.50991 0
M  V30 2918 C 292.433 0.110074 -2.02201 0
M  V30 2919 C 292.761 1.4146 -1.33489 0
M  V30 2920 O 292.016 1.90617 -0.443125 0
M  V30 2921 C 292.315 0.361728 -3.55565 0
M  V30 2922 C 291.981 -0.858717 -4.42648 0
M  V30 2923 C 290.643 -1.19338 -4.66167 0
M  V30 2924 C 292.995 -1.67221 -4.93646 0
M  V30 2925 C 290.323 -2.34195 -5.37931 0
M  V30 2926 C 292.675 -2.8119 -5.6667 0
M  V30 2927 C 291.339 -3.15094 -5.88449 0
M  V30 2928 H 290.609 0.040279 -0.739904 0
M  V30 2929 H 293.256 -0.601696 -1.81802 0
M  V30 2930 H 291.561 1.15554 -3.74372 0
M  V30 2931 H 293.258 0.80996 -3.92735 0
M  V30 2932 H 289.848 -0.58796 -4.24548 0
M  V30 2933 H 294.032 -1.42686 -4.75347 0
M  V30 2934 H 289.288 -2.6076 -5.53005 0
M  V30 2935 H 293.462 -3.44585 -6.05173 0
M  V30 2936 H 291.089 -4.04204 -6.43835 0
M  V30 2937 N 292.664 1.56529 -0.183458 0
M  V30 2938 C 293.596 2.15747 0.773697 0
M  V30 2939 C 294.609 1.1162 1.1851 0
M  V30 2940 O 295.798 1.3876 1.12285 0
M  V30 2941 C 292.898 2.6952 2.05456 0
M  V30 2942 C 292.071 3.98429 1.8048 0
M  V30 2943 C 291.13 4.37145 2.92901 0
M  V30 2944 O 290.156 5.04791 2.6301 0
M  V30 2945 N 291.358 3.99695 4.2098 0
M  V30 2946 H 294.123 2.98505 0.26736 0
M  V30 2947 H 291.684 1.619 -0.0010878 0
M  V30 2948 H 293.676 2.92412 2.79781 0
M  V30 2949 H 292.246 1.91282 2.47245 0
M  V30 2950 H 291.466 3.8379 0.899947 0
M  V30 2951 H 292.754 4.82597 1.61175 0
M  V30 2952 H 292.152 3.4526 4.48121 0
M  V30 2953 H 290.709 4.27562 4.9197 0
M  V30 2954 N 294.142 -0.090211 1.57342 0
M  V30 2955 C 295.388 -0.793982 1.86611 0
M  V30 2956 C 295.721 -1.78142 0.773252 0
M  V30 2957 O 294.996 -1.93271 -0.218304 0
M  V30 2958 C 295.279 -1.51839 3.26523 0
M  V30 2959 C 295.132 -0.548609 4.46442 0
M  V30 2960 C 296.451 -2.46779 3.64401 0
M  V30 2961 H 293.57 -0.287186 0.678744 0
M  V30 2962 H 296.212 -0.0575076 1.89913 0
M  V30 2963 H 294.362 -2.14617 3.23839 0
M  V30 2964 H 296.034 0.0725513 4.61243 0
M  V30 2965 H 294.277 0.137614 4.33582 0
M  V30 2966 H 294.948 -1.09271 5.41076 0
M  V30 2967 H 297.424 -1.94089 3.68061 0
M  V30 2968 H 296.3 -2.94479 4.63221 0
M  V30 2969 H 296.561 -3.30758 2.93346 0
M  V30 2970 N 295.62 -1.53406 -0.361157 0
M  V30 2971 C 296.866 -1.70054 -1.10496 0
M  V30 2972 C 297.199 -0.453278 -1.88836 0
M  V30 2973 O 296.474 0.5495 -1.86576 0
M  V30 2974 C 296.757 -2.95317 -2.06058 0
M  V30 2975 C 296.61 -4.3021 -1.31298 0
M  V30 2976 C 297.929 -3.16193 -3.06121 0
M  V30 2977 H 295.048 -0.618799 -0.400321 0
M  V30 2978 H 297.69 -1.86052 -0.385318 0
M  V30 2979 H 295.84 -2.81809 -2.67425 0
M  V30 2980 H 297.512 -4.55538 -0.726807 0
M  V30 2981 H 295.755 -4.29421 -0.614853 0
M  V30 2982 H 296.426 -5.14 -2.01265 0
M  V30 2983 H 298.902 -3.28916 -2.5486 0
M  V30 2984 H 297.778 -4.05266 -3.70204 0
M  V30 2985 H 298.039 -2.31676 -3.76535 0
M  V30 2986 N 297.098 0.621204 -1.44841 0
M  V30 2987 C 298.323 1.41244 -1.51871 0
M  V30 2988 C 298.748 1.87519 -0.147764 0
M  V30 2989 O 298.106 1.59334 0.865 0
M  V30 2990 C 298.154 2.60221 -2.49634 0
M  V30 2991 O 297.258 3.60395 -2.00473 0
M  V30 2992 H 296.599 0.42223 -0.512463 0
M  V30 2993 H 299.129 0.757305 -1.90069 0
M  V30 2994 H 299.139 3.0764 -2.67996 0
M  V30 2995 H 297.814 2.25887 -3.4921 0
M  V30 2996 H 296.391 3.19717 -1.91925 0
M  V30 2997 N 298.576 1.31904 0.862503 0
M  V30 2998 C 299.824 1.21776 1.61292 0
M  V30 2999 C 300.145 -0.222413 1.93727 0
M  V30 3000 O 299.415 -1.1451 1.58947 0
M  V30 3001 H 297.995 0.447717 0.597962 0
M  V30 3002 H 300.657 1.65326 1.03215 0
M  V30 3003 H 299.753 1.7948 2.5533 0
M  V30 3004 N 300.054 -1.07777 1.14986 0
M  V30 3005 C 301.302 -1.79934 0.920235 0
M  V30 3006 C 301.623 -1.86955 -0.554336 0
M  V30 3007 O 300.893 -1.36731 -1.40291 0
M  V30 3008 H 299.473 -0.666424 0.337473 0
M  V30 3009 H 302.135 -1.3027 1.44968 0
M  V30 3010 H 301.231 -2.82539 1.32583 0
M  V30 3011 N 301.532 -0.945985 -1.26051 0
M  V30 3012 C 302.465 -0.403619 -2.24602 0
M  V30 3013 C 303.443 0.510241 -1.54387 0
M  V30 3014 O 304.627 0.446593 -1.83133 0
M  V30 3015 C 301.754 0.419564 -3.36091 0
M  V30 3016 C 300.8 -0.433454 -4.24292 0
M  V30 3017 S 301.633 -1.86037 -5.02146 0
M  V30 3018 C 302.789 -1.04538 -6.17108 0
M  V30 3019 H 303.022 -1.23883 -2.7026 0
M  V30 3020 H 300.555 -0.749438 -1.34992 0
M  V30 3021 H 302.513 0.888595 -4.00767 0
M  V30 3022 H 301.174 1.22951 -2.89036 0
M  V30 3023 H 300.367 0.197486 -5.03613 0
M  V30 3024 H 299.969 -0.837357 -3.64506 0
M  V30 3025 H 302.261 -0.289923 -6.76879 0
M  V30 3026 H 303.204 -1.81222 -6.84518 0
M  V30 3027 H 303.612 -0.579319 -5.61519 0
M  V30 3028 N 303.011 1.40521 -0.713556 0
M  V30 3029 C 304.257 2.01221 -0.252564 0
M  V30 3030 C 304.59 1.56444 1.1506 0
M  V30 3031 O 303.865 0.783597 1.78017 0
M  V30 3032 C 304.148 3.58582 -0.330332 0
M  V30 3033 C 304.001 4.13437 -1.77173 0
M  V30 3034 C 305.32 4.39079 0.299641 0
M  V30 3035 H 302.439 0.731077 -0.0932471 0
M  V30 3036 H 305.081 1.67026 -0.905673 0
M  V30 3037 H 303.231 3.87844 0.225737 0
M  V30 3038 H 304.903 3.9498 -2.38303 0
M  V30 3039 H 303.146 3.67801 -2.3001 0
M  V30 3040 H 303.817 5.22597 -1.77755 0
M  V30 3041 H 306.293 4.15735 -0.174139 0
M  V30 3042 H 305.169 5.4848 0.214771 0
M  V30 3043 H 305.43 4.19915 1.38288 0
M  V30 3044 N 304.489 0.459591 1.5075 0
M  V30 3045 C 305.419 -0.330644 2.31147 0
M  V30 3046 C 306.4 -1.00087 1.37538 0
M  V30 3047 O 307.585 -1.00025 1.66459 0
M  V30 3048 C 304.715 -1.41958 3.16962 0
M  V30 3049 C 303.669 -0.871608 4.19031 0
M  V30 3050 C 302.995 -2.05797 4.9351 0
M  V30 3051 C 304.295 0.109251 5.22186 0
M  V30 3052 H 305.989 0.340336 2.97459 0
M  V30 3053 H 303.535 0.165119 1.4305 0
M  V30 3054 H 305.488 -1.9798 3.71997 0
M  V30 3055 H 304.212 -2.11917 2.48513 0
M  V30 3056 H 302.871 -0.333442 3.6508 0
M  V30 3057 H 302.519 -2.74427 4.21544 0
M  V30 3058 H 302.219 -1.6976 5.62544 0
M  V30 3059 H 303.743 -2.62331 5.51375 0
M  V30 3060 H 305.157 -0.361405 5.7216 0
M  V30 3061 H 303.554 0.383316 5.98875 0
M  V30 3062 H 304.624 1.03887 4.73641 0
M  V30 3063 N 305.967 -1.56429 0.191757 0
M  V30 3064 C 306.899 -2.16154 -0.762245 0
M  V30 3065 C 307.912 -1.12247 -1.17917 0
M  V30 3066 O 309.101 -1.39353 -1.11548 0
M  V30 3067 C 306.201 -2.70606 -2.04024 0
M  V30 3068 C 305.374 -3.99381 -1.78364 0
M  V30 3069 C 304.433 -4.38692 -2.90578 0
M  V30 3070 O 303.459 -5.06179 -2.6033 0
M  V30 3071 N 304.661 -4.01922 -4.18854 0
M  V30 3072 H 307.426 -2.98643 -0.251526 0
M  V30 3073 H 304.987 -1.61897 0.00967373 0
M  V30 3074 H 306.979 -2.93891 -2.78227 0
M  V30 3075 H 305.549 -1.9259 -2.46227 0
M  V30 3076 H 304.769 -3.84262 -0.879581 0
M  V30 3077 H 306.057 -4.83445 -1.58614 0
M  V30 3078 H 305.455 -3.47631 -4.46283 0
M  V30 3079 H 304.012 -4.30165 -4.89695 0
M  V30 3080 N 307.445 0.0818655 -1.57387 0
M  V30 3081 C 308.375 1.09885 -2.06028 0
M  V30 3082 C 309.356 1.4098 -0.951774 0
M  V30 3083 O 310.541 1.50781 -1.22387 0
M  V30 3084 C 307.671 2.4151 -2.4958 0
M  V30 3085 C 306.625 2.24792 -3.64215 0
M  V30 3086 C 305.951 3.61712 -3.93787 0
M  V30 3087 C 307.251 1.67749 -4.94629 0
M  V30 3088 H 308.945 0.694128 -2.91243 0
M  V30 3089 H 306.491 0.332448 -1.4011 0
M  V30 3090 H 308.444 3.12939 -2.82219 0
M  V30 3091 H 307.168 2.83943 -1.61381 0
M  V30 3092 H 305.827 1.55807 -3.31843 0
M  V30 3093 H 305.475 4.01697 -3.02735 0
M  V30 3094 H 305.175 3.51368 -4.70971 0
M  V30 3095 H 306.699 4.34587 -4.28913 0
M  V30 3096 H 308.113 2.29032 -5.25564 0
M  V30 3097 H 306.51 1.68128 -5.76067 0
M  V30 3098 H 307.58 0.638059 -4.80684 0
M  V30 3099 N 308.923 1.53595 0.353017 0
M  V30 3100 C 309.855 1.77219 1.45348 0
M  V30 3101 C 310.868 0.65324 1.49119 0
M  V30 3102 O 312.057 0.929775 1.52373 0
M  V30 3103 C 309.157 1.84841 2.84055 0
M  V30 3104 C 308.33 3.14649 3.03833 0
M  V30 3105 C 307.389 3.13351 4.22727 0
M  V30 3106 O 306.415 3.87107 4.17297 0
M  V30 3107 N 307.617 2.35052 5.30783 0
M  V30 3108 H 310.382 2.72178 1.25457 0
M  V30 3109 H 307.943 1.52528 0.542833 0
M  V30 3110 H 309.935 1.81435 3.61751 0
M  V30 3111 H 308.505 0.971114 2.97133 0
M  V30 3112 H 307.725 3.31256 2.13689 0
M  V30 3113 H 309.013 4.00411 3.13925 0
M  V30 3114 H 308.411 1.74663 5.38061 0
M  V30 3115 H 306.968 2.37453 6.07009 0
M  V30 3116 N 310.401 -0.613514 1.45168 0
M  V30 3117 C 311.333 -1.73825 1.4939 0
M  V30 3118 C 312.346 -1.58175 0.385304 0
M  V30 3119 O 313.535 -1.66165 0.652036 0
M  V30 3120 C 310.635 -3.11758 1.32891 0
M  V30 3121 C 309.808 -3.53704 2.57317 0
M  V30 3122 C 308.867 -4.70579 2.35462 0
M  V30 3123 O 307.893 -4.77996 3.09044 0
M  V30 3124 N 309.095 -5.63454 1.39644 0
M  V30 3125 H 311.86 -1.70669 2.46358 0
M  V30 3126 H 309.421 -0.79862 1.40832 0
M  V30 3127 H 311.413 -3.87692 1.1609 0
M  V30 3128 H 309.983 -3.09456 0.442218 0
M  V30 3129 H 309.203 -2.67794 2.89275 0
M  V30 3130 H 310.491 -3.78486 3.40038 0
M  V30 3131 H 309.889 -5.6017 0.789062 0
M  V30 3132 H 308.446 -6.38944 1.28816 0
M  V30 3133 N 311.879 -1.3236 -0.855495 0
M  V30 3134 C 313.127 -1.22629 -1.60644 0
M  V30 3135 C 313.448 0.212136 -1.93843 0
M  V30 3136 O 312.718 1.13666 -1.59552 0
M  V30 3137 H 311.298 -0.450882 -0.595579 0
M  V30 3138 H 313.96 -1.65871 -1.02337 0
M  V30 3139 H 313.056 -1.80832 -2.54374 0
M  V30 3140 N 313.357 1.07166 -1.15556 0
M  V30 3141 C 314.634 1.76546 -0.842069 0
M  V30 3142 C 315.014 2.00453 0.661939 0
M  V30 3143 O 314.362 1.62452 1.60691 0
M  V30 3144 C 314.572 3.07266 -1.65495 0
M  V30 3145 C 315.92 3.81578 -1.86234 0
M  V30 3146 O 316.944 3.17083 -1.62287 0
M  V30 3147 O 315.803 4.97419 -2.26355 0
M  V30 3148 H 312.897 0.766756 -0.309862 0
M  V30 3149 H 315.443 1.13514 -1.26145 0
M  V30 3150 H 314.215 2.85494 -2.67598 0
M  V30 3151 H 313.838 3.7803 -1.23203 0
M  V30 3152 N 314.835 0.952656 1.25548 0
M  V30 3153 C 315.767 0.428609 2.25157 0
M  V30 3154 C 316.78 -0.454428 1.56329 0
M  V30 3155 O 317.969 -0.263023 1.76552 0
M  V30 3156 C 315.069 -0.401972 3.36508 0
M  V30 3157 C 314.242 0.467601 4.34893 0
M  V30 3158 C 313.301 -0.30445 5.25319 0
M  V30 3159 O 312.327 0.296473 5.68427 0
M  V30 3160 N 313.529 -1.59805 5.5807 0
M  V30 3161 H 316.294 1.28497 2.70756 0
M  V30 3162 H 313.855 0.822798 1.39433 0
M  V30 3163 H 315.847 -0.926134 3.9396 0
M  V30 3164 H 314.417 -1.15918 2.90313 0
M  V30 3165 H 313.637 1.17288 3.76347 0
M  V30 3166 H 314.925 1.06119 4.97611 0
M  V30 3167 H 314.323 -2.10823 5.24948 0
M  V30 3168 H 312.88 -2.06822 6.18116 0
M  V30 3169 N 316.313 -1.40141 0.720998 0
M  V30 3170 C 317.559 -2.01084 0.263231 0
M  V30 3171 C 317.892 -1.57052 -1.14229 0
M  V30 3172 O 317.167 -0.793027 -1.77599 0
M  V30 3173 C 317.45 -3.58401 0.349344 0
M  V30 3174 C 317.303 -4.12491 1.79363 0
M  V30 3175 C 318.622 -4.39231 -0.276351 0
M  V30 3176 H 315.741 -0.730572 0.0971228 0
M  V30 3177 H 318.383 -1.66543 0.914518 0
M  V30 3178 H 316.533 -3.87958 -0.205165 0
M  V30 3179 H 318.205 -3.93711 2.40394 0
M  V30 3180 H 316.448 -3.66576 2.31958 0
M  V30 3181 H 317.119 -5.21646 1.80524 0
M  V30 3182 H 319.595 -4.15637 0.196184 0
M  V30 3183 H 318.471 -5.48586 -0.185681 0
M  V30 3184 H 318.732 -4.20643 -1.36059 0
M  V30 3185 N 317.792 -0.46758 -1.50504 0
M  V30 3186 C 319.038 0.0808869 -2.03239 0
M  V30 3187 C 319.393 1.37721 -1.34353 0
M  V30 3188 O 318.686 1.86016 -0.459194 0
M  V30 3189 C 318.88 0.323995 -3.55928 0
M  V30 3190 C 318.709 -0.947215 -4.39611 0
M  V30 3191 C 317.479 -1.48951 -4.82848 0
M  V30 3192 C 319.677 -1.84166 -4.80195 0
M  V30 3193 N 317.659 -2.71011 -5.50842 0
M  V30 3194 C 319.03 -2.90815 -5.47564 0
M  V30 3195 C 321.085 -1.85246 -4.62156 0
M  V30 3196 C 319.788 -3.98529 -5.98805 0
M  V30 3197 C 321.814 -2.91914 -5.14335 0
M  V30 3198 C 321.176 -3.97282 -5.81676 0
M  V30 3199 H 317.275 -0.0103394 -0.781932 0
M  V30 3200 H 319.859 -0.635003 -1.84054 0
M  V30 3201 H 318.03 1.00892 -3.75067 0
M  V30 3202 H 319.762 0.866492 -3.95315 0
M  V30 3203 H 316.517 -1.03918 -4.62058 0
M  V30 3204 H 316.941 -3.32988 -5.89447 0
M  V30 3205 H 321.583 -1.05103 -4.09528 0
M  V30 3206 H 319.301 -4.79491 -6.50472 0
M  V30 3207 H 322.887 -2.93729 -5.0221 0
M  V30 3208 H 321.767 -4.78462 -6.21324 0
M  V30 3209 N 319.27 1.56325 -0.20005 0
M  V30 3210 C 320.516 1.98012 0.438059 0
M  V30 3211 C 320.849 1.08702 1.60927 0
M  V30 3212 O 320.124 0.140064 1.93995 0
M  V30 3213 C 320.407 3.48841 0.893419 0
M  V30 3214 C 320.26 4.48928 -0.279947 0
M  V30 3215 C 321.579 4.03498 1.75719 0
M  V30 3216 H 318.698 0.719918 0.157757 0
M  V30 3217 H 321.34 1.87743 -0.291968 0
M  V30 3218 H 319.49 3.57723 1.51547 0
M  V30 3219 H 321.162 4.52079 -0.91772 0
M  V30 3220 H 319.405 4.23694 -0.930919 0
M  V30 3221 H 320.076 5.5194 0.0812601 0
M  V30 3222 H 322.552 3.97427 1.23253 0
M  V30 3223 H 321.428 5.09393 2.04476 0
M  V30 3224 H 321.689 3.4906 2.71311 0
M  V30 3225 N 320.748 -0.0735177 1.57428 0
M  V30 3226 C 321.658 -1.10547 2.06922 0
M  V30 3227 C 322.674 -1.42506 0.998402 0
M  V30 3228 O 323.85 -1.52717 1.31299 0
M  V30 3229 C 320.915 -2.40019 2.50184 0
M  V30 3230 C 319.976 -2.15046 3.71556 0
M  V30 3231 C 319.209 -3.38345 4.12745 0
M  V30 3232 O 319.432 -4.47399 3.53822 0
M  V30 3233 O 318.366 -3.2666 5.05546 0
M  V30 3234 H 322.192 -0.715013 2.95163 0
M  V30 3235 H 319.777 -0.287531 1.46607 0
M  V30 3236 H 321.659 -3.16218 2.78539 0
M  V30 3237 H 320.334 -2.78447 1.65072 0
M  V30 3238 H 319.241 -1.36558 3.48285 0
M  V30 3239 H 320.574 -1.81499 4.57514 0
M  V30 3240 N 322.226 -1.5378 -0.344866 0
M  V30 3241 C 323.173 -1.81676 -1.42346 0
M  V30 3242 C 324.143 -0.662376 -1.52321 0
M  V30 3243 O 325.328 -0.906675 -1.67881 0
M  V30 3244 C 322.468 -2.03087 -2.79015 0
M  V30 3245 C 321.581 -3.30799 -2.77842 0
M  V30 3246 C 320.716 -3.42285 -4.0622 0
M  V30 3247 C 319.755 -4.6395 -3.9927 0
M  V30 3248 N 318.892 -4.72477 -5.19336 0
M  V30 3249 H 323.732 -2.73703 -1.17858 0
M  V30 3250 H 321.269 -1.35568 -0.570949 0
M  V30 3251 H 323.227 -2.1349 -3.58438 0
M  V30 3252 H 321.857 -1.14375 -3.01858 0
M  V30 3253 H 320.909 -3.29244 -1.90533 0
M  V30 3254 H 322.221 -4.20314 -2.68584 0
M  V30 3255 H 321.375 -3.52113 -4.94066 0
M  V30 3256 H 320.114 -2.50823 -4.18258 0
M  V30 3257 H 319.119 -4.54201 -3.09809 0
M  V30 3258 H 320.344 -5.56775 -3.88817 0
M  V30 3259 H 318.29 -3.83924 -5.3192 0
M  V30 3260 H 318.207 -5.55927 -5.12329 0
M  V30 3261 H 319.475 -4.86613 -6.08957 0
M  V30 3262 N 323.704 0.605807 -1.45491 0
M  V30 3263 C 324.981 1.36522 -1.40075 0
M  V30 3264 C 325.361 2.10976 -0.0722744 0
M  V30 3265 O 324.709 2.08007 0.945808 0
M  V30 3266 C 324.919 2.31056 -2.61561 0
M  V30 3267 C 326.267 2.93608 -3.06724 0
M  V30 3268 O 327.291 2.41376 -2.61946 0
M  V30 3269 O 326.15 3.88421 -3.84437 0
M  V30 3270 H 323.244 0.612248 -0.555951 0
M  V30 3271 H 325.79 0.628747 -1.57623 0
M  V30 3272 H 324.562 1.75311 -3.49831 0
M  V30 3273 H 324.185 3.12081 -2.46356 0
M  V30 3274 N 325.182 1.32811 0.848464 0
M  V30 3275 C 326.593 1.21315 1.41914 0
M  V30 3276 C 326.944 -0.171847 1.95446 0
M  V30 3277 O 326.069 -1.07093 1.88043 0
M  V30 3278 C 326.664 2.19631 2.57968 0
M  V30 3279 C 325.223 2.12003 3.11017 0
M  V30 3280 C 324.37 2.07651 1.83783 0
M  V30 3281 H 327.321 1.44549 0.655071 0
M  V30 3282 H 327.342 1.79845 3.35315 0
M  V30 3283 H 326.854 3.20423 2.18976 0
M  V30 3284 H 324.955 1.14481 3.54577 0
M  V30 3285 H 325.068 3.02111 3.71841 0
M  V30 3286 H 323.432 1.52983 2.03638 0
M  V30 3287 H 324.215 3.10235 1.47 0
M  V30 3288 N 326.66 -1.06551 1.16123 0
M  V30 3289 C 327.607 -2.13961 0.865414 0
M  V30 3290 C 328.577 -1.65066 -0.185055 0
M  V30 3291 O 329.762 -1.90732 -0.05083 0
M  V30 3292 C 326.902 -3.43113 0.369776 0
M  V30 3293 C 326.015 -4.05756 1.48276 0
M  V30 3294 C 325.15 -5.22773 0.942414 0
M  V30 3295 C 324.189 -5.77395 2.03179 0
M  V30 3296 N 323.326 -6.85731 1.50721 0
M  V30 3297 H 328.166 -2.38605 1.78527 0
M  V30 3298 H 325.703 -1.17072 0.890646 0
M  V30 3299 H 327.661 -4.17151 0.0640643 0
M  V30 3300 H 326.291 -3.18695 -0.513143 0
M  V30 3301 H 325.343 -3.29292 1.9045 0
M  V30 3302 H 326.655 -4.42351 2.30493 0
M  V30 3303 H 325.809 -6.03827 0.589729 0
M  V30 3304 H 324.548 -4.87618 0.0895191 0
M  V30 3305 H 323.553 -4.94981 2.3932 0
M  V30 3306 H 324.778 -6.14603 2.8886 0
M  V30 3307 H 322.724 -6.52499 0.676811 0
M  V30 3308 H 322.641 -7.21254 2.26557 0
M  V30 3309 H 323.909 -7.7047 1.18303 0
M  V30 3310 N 328.138 -0.959301 -1.25041 0
M  V30 3311 C 329.085 -0.482057 -2.2571 0
M  V30 3312 C 330.055 0.467939 -1.59372 0
M  V30 3313 O 331.24 0.380159 -1.86974 0
M  V30 3314 C 328.38 0.229623 -3.44335 0
M  V30 3315 C 327.493 -0.758156 -4.25295 0
M  V30 3316 C 326.628 -0.0234403 -5.31195 0
M  V30 3317 C 325.667 -1.00184 -6.03846 0
M  V30 3318 N 324.804 -0.29769 -7.01469 0
M  V30 3319 H 329.644 -1.34538 -2.65901 0
M  V30 3320 H 327.181 -0.674592 -1.3072 0
M  V30 3321 H 329.139 0.658856 -4.11965 0
M  V30 3322 H 327.769 1.05696 -3.05005 0
M  V30 3323 H 326.821 -1.30586 -3.57284 0
M  V30 3324 H 328.133 -1.50458 -4.75567 0
M  V30 3325 H 327.287 0.464201 -6.04922 0
M  V30 3326 H 326.026 0.755741 -4.81809 0
M  V30 3327 H 325.031 -1.50044 -5.2893 0
M  V30 3328 H 326.256 -1.78133 -6.55321 0
M  V30 3329 H 324.202 0.462668 -6.54366 0
M  V30 3330 H 324.119 -0.983128 -7.4958 0
M  V30 3331 H 325.387 0.16826 -7.79318 0
M  V30 3332 N 329.616 1.39756 -0.72842 0
M  V30 3333 C 330.864 2.00248 -0.272946 0
M  V30 3334 C 331.185 1.58077 1.14178 0
M  V30 3335 O 330.455 0.826014 1.77634 0
M  V30 3336 H 329.035 0.740554 -0.0979247 0
M  V30 3337 H 331.697 1.70903 -0.936912 0
M  V30 3338 H 330.793 3.10495 -0.316142 0
M  V30 3339 N 331.094 0.475555 1.50254 0
M  V30 3340 C 332.044 -0.335025 2.25525 0
M  V30 3341 C 333.028 -0.957625 1.29299 0
M  V30 3342 O 334.22 -0.869436 1.54175 0
M  V30 3343 C 331.349 -1.41385 3.12834 0
M  V30 3344 C 330.435 -0.798762 4.1651 0
M  V30 3345 N 330.826 0.0835815 5.05731 0
M  V30 3346 C 329.124 -1.06221 4.33166 0
M  V30 3347 C 329.825 0.433113 5.80085 0
M  V30 3348 N 328.801 -0.1928 5.43258 0
M  V30 3349 H 332.603 0.344612 2.91873 0
M  V30 3350 H 330.117 0.289986 1.5979 0
M  V30 3351 H 332.114 -2.00777 3.65368 0
M  V30 3352 H 330.774 -2.09543 2.48036 0
M  V30 3353 H 331.785 0.452715 5.15918 0
M  V30 3354 H 328.462 -1.73844 3.79585 0
M  V30 3355 H 329.852 1.15346 6.61925 0
M  V30 3356 N 332.573 -1.56217 0.208337 0
M  V30 3357 C 333.822 -1.97124 -0.427204 0
M  V30 3358 C 334.135 -1.09859 -1.61835 0
M  V30 3359 O 335.341 -1.40606 -2.32255 0
M  V30 3360 C 333.797 -3.50633 -0.811442 0
M  V30 3361 C 333.405 -4.46582 0.35615 0
M  V30 3362 C 335.149 -4.00282 -1.41332 0
M  V30 3363 C 333.056 -5.91379 -0.0497852 0
M  V30 3364 H 331.986 -0.736086 -0.163381 0
M  V30 3365 H 334.637 -1.8099 0.302456 0
M  V30 3366 H 333.019 -3.62319 -1.59815 0
M  V30 3367 H 334.193 -4.46636 1.1337 0
M  V30 3368 H 332.508 -4.07202 0.870396 0
M  V30 3369 H 335.105 -5.0595 -1.72972 0
M  V30 3370 H 335.448 -3.45359 -2.32449 0
M  V30 3371 H 335.981 -3.91764 -0.690323 0
M  V30 3372 H 332.72 -6.50255 0.827529 0
M  V30 3373 H 332.24 -5.94549 -0.791926 0
M  V30 3374 H 333.919 -6.45209 -0.481042 0
M  V30 3375 N 334.051 0.0651679 -1.57465 0
M  V30 3376 C 335.281 0.774683 -1.91526 0
M  V30 3377 C 335.689 1.71305 -0.803196 0
M  V30 3378 O 335.032 1.82231 0.231881 0
M  V30 3379 C 335.094 1.61645 -3.21109 0
M  V30 3380 C 334.758 0.846753 -4.49087 0
M  V30 3381 C 335.755 0.163024 -5.19644 0
M  V30 3382 C 333.44 0.811966 -4.95694 0
M  V30 3383 C 335.434 -0.54519 -6.35064 0
M  V30 3384 C 333.121 0.0999836 -6.11018 0
M  V30 3385 C 334.119 -0.577388 -6.80555 0
M  V30 3386 O 333.807 -1.27789 -7.93678 0
M  V30 3387 H 333.539 0.225031 -0.637446 0
M  V30 3388 H 336.093 0.0377134 -2.05365 0
M  V30 3389 H 334.323 2.39638 -3.03497 0
M  V30 3390 H 336.012 2.20525 -3.40769 0
M  V30 3391 H 336.778 0.181163 -4.84662 0
M  V30 3392 H 332.657 1.32867 -4.41438 0
M  V30 3393 H 336.201 -1.07446 -6.89276 0
M  V30 3394 H 332.098 0.0797945 -6.45451 0
M  V30 3395 H 332.866 -1.18784 -8.09835 0
M  V30 3396 N 335.529 1.53961 0.336706 0
M  V30 3397 C 336.461 1.78751 1.4346 0
M  V30 3398 C 337.474 0.669019 1.48418 0
M  V30 3399 O 338.663 0.945884 1.51378 0
M  V30 3400 C 335.763 1.87844 2.82078 0
M  V30 3401 C 334.936 3.17854 3.00479 0
M  V30 3402 C 333.995 3.17816 4.19379 0
M  V30 3403 O 333.021 3.91511 4.13168 0
M  V30 3404 N 334.223 2.40669 5.2826 0
M  V30 3405 H 336.988 2.73493 1.22563 0
M  V30 3406 H 334.549 1.53096 0.526625 0
M  V30 3407 H 336.541 1.85261 3.59806 0
M  V30 3408 H 335.111 1.00257 2.96086 0
M  V30 3409 H 334.331 3.33504 2.10163 0
M  V30 3410 H 335.619 4.03718 3.0966 0
M  V30 3411 H 335.017 1.8036 5.36178 0
M  V30 3412 H 333.574 2.43877 6.04456 0
M  V30 3413 N 337.007 -0.598083 1.45811 0
M  V30 3414 C 338.255 -1.35413 1.50026 0
M  V30 3415 C 338.576 -1.94444 0.147177 0
M  V30 3416 O 337.846 -1.77701 -0.824571 0
M  V30 3417 H 336.426 -0.502727 0.552517 0
M  V30 3418 H 339.088 -0.701606 1.81834 0
M  V30 3419 H 338.184 -2.16871 2.2444 0
M  V30 3420 N 338.485 -1.33259 -0.841409 0
M  V30 3421 C 339.71 -1.2775 -1.63385 0
M  V30 3422 C 340.135 0.149188 -1.87507 0
M  V30 3423 O 339.493 1.10498 -1.43736 0
M  V30 3424 C 339.541 -2.05571 -2.96265 0
M  V30 3425 O 338.645 -1.41257 -3.87453 0
M  V30 3426 H 337.986 -0.439627 -0.497618 0
M  V30 3427 H 340.516 -1.75782 -1.04699 0
M  V30 3428 H 340.526 -2.16241 -3.45982 0
M  V30 3429 H 339.201 -3.09309 -2.7803 0
M  V30 3430 H 337.778 -1.39217 -3.45938 0
M  V30 3431 N 339.963 1.05934 -1.16686 0
M  V30 3432 C 340.873 2.17014 -0.891183 0
M  V30 3433 C 341.889 1.73453 0.137907 0
M  V30 3434 O 343.065 2.01361 -0.039592 0
M  V30 3435 C 340.13 3.44384 -0.400099 0
M  V30 3436 C 339.191 4.02433 -1.49486 0
M  V30 3437 C 338.424 5.23723 -1.02711 0
M  V30 3438 O 338.647 5.7027 0.121716 0
M  V30 3439 O 337.581 5.7382 -1.81699 0
M  V30 3440 H 341.407 2.43113 -1.82015 0
M  V30 3441 H 338.992 1.15541 -0.947132 0
M  V30 3442 H 340.874 4.21189 -0.133392 0
M  V30 3443 H 339.549 3.19802 0.500817 0
M  V30 3444 H 338.456 3.27102 -1.81535 0
M  V30 3445 H 339.789 4.31317 -2.37121 0
M  V30 3446 N 341.441 0.965919 1.2453 0
M  V30 3447 C 342.404 0.499547 2.2369 0
M  V30 3448 C 343.404 -0.40294 1.5567 0
M  V30 3449 O 344.594 -0.19865 1.73064 0
M  V30 3450 C 341.726 -0.276792 3.39774 0
M  V30 3451 H 342.919 1.37613 2.66463 0
M  V30 3452 H 340.472 0.750324 1.37112 0
M  V30 3453 H 341.207 -1.17055 3.02438 0
M  V30 3454 H 340.992 0.370826 3.90343 0
M  V30 3455 H 342.482 -0.592175 4.1338 0
M  V30 3456 N 342.919 -1.39368 0.735821 0
M  V30 3457 C 344.196 -1.94465 0.210395 0
M  V30 3458 C 344.576 -1.67254 -1.28799 0
M  V30 3459 O 343.924 -1.00123 -2.05396 0
M  V30 3460 C 344.134 -3.4472 0.544897 0
M  V30 3461 C 345.482 -4.21708 0.494689 0
M  V30 3462 O 346.506 -3.52922 0.482136 0
M  V30 3463 O 345.365 -5.44299 0.489947 0
M  V30 3464 H 342.459 -0.826096 0.0386666 0
M  V30 3465 H 345.005 -1.48863 0.814735 0
M  V30 3466 H 343.777 -3.57963 1.58045 0
M  V30 3467 H 343.4 -3.97502 -0.08837 0
M  V30 3468 N 344.397 -0.483516 -1.5 0
M  V30 3469 C 345.622 0.0667119 -2.07293 0
M  V30 3470 C 346.047 1.3164 -1.3436 0
M  V30 3471 O 345.405 1.76945 -0.394987 0
M  V30 3472 C 345.453 0.321126 -3.59167 0
M  V30 3473 O 344.557 1.39927 -3.87936 0
M  V30 3474 H 343.898 -0.0184758 -0.663743 0
M  V30 3475 H 346.428 -0.678125 -1.93035 0
M  V30 3476 H 346.438 0.557906 -4.04168 0
M  V30 3477 H 345.113 -0.592007 -4.11665 0
M  V30 3478 H 343.69 1.14882 -3.54763 0
M  V30 3479 N 345.875 1.56104 -0.216619 0
M  V30 3480 C 347.121 1.98466 0.417033 0
M  V30 3481 C 347.454 1.10403 1.59765 0
M  V30 3482 O 346.729 0.160632 1.93836 0
M  V30 3483 C 347.012 3.49769 0.85637 0
M  V30 3484 C 346.865 4.48606 -0.327546 0
M  V30 3485 C 348.184 4.05339 1.7143 0
M  V30 3486 H 345.303 0.721551 0.150112 0
M  V30 3487 H 347.945 1.87423 -0.311864 0
M  V30 3488 H 346.095 3.5931 1.47745 0
M  V30 3489 H 347.767 4.5108 -0.965618 0
M  V30 3490 H 346.01 4.22682 -0.975805 0
M  V30 3491 H 346.681 5.51995 0.0227149 0
M  V30 3492 H 349.157 3.98712 1.19031 0
M  V30 3493 H 348.033 5.11533 1.99061 0
M  V30 3494 H 348.294 3.51918 2.67593 0
M  V30 3495 N 347.353 -0.0568162 1.57498 0
M  V30 3496 C 348.6 -0.753104 1.87975 0
M  V30 3497 C 348.928 -1.76815 0.81035 0
M  V30 3498 O 348.183 -1.94756 -0.19199 0
M  V30 3499 C 348.482 -1.48359 3.25153 0
M  V30 3500 C 348.148 -0.60713 4.46794 0
M  V30 3501 C 346.81 -0.365642 4.79809 0
M  V30 3502 C 349.162 -0.000305978 5.212 0
M  V30 3503 C 346.49 0.491905 5.84634 0
M  V30 3504 C 348.842 0.844781 6.26934 0
M  V30 3505 C 347.506 1.096 6.58441 0
M  V30 3506 H 346.776 -0.27558 0.687849 0
M  V30 3507 H 349.423 -0.0135173 1.91495 0
M  V30 3508 H 347.728 -2.29577 3.17492 0
M  V30 3509 H 349.425 -2.02739 3.45974 0
M  V30 3510 H 346.015 -0.805487 4.20963 0
M  V30 3511 H 350.199 -0.173961 4.95995 0
M  V30 3512 H 345.455 0.695131 6.07436 0
M  V30 3513 H 349.629 1.32165 6.83744 0
M  V30 3514 H 347.256 1.76224 7.39492 0
M  V30 3515 N 348.832 -1.54138 -0.328536 0
M  V30 3516 C 350.057 -1.76378 -1.09112 0
M  V30 3517 C 350.482 -0.508596 -1.81094 0
M  V30 3518 O 349.84 0.539598 -1.73084 0
M  V30 3519 C 349.888 -2.95358 -2.06872 0
M  V30 3520 O 348.992 -2.66556 -3.14677 0
M  V30 3521 H 348.333 -0.584614 -0.314838 0
M  V30 3522 H 350.863 -2.01146 -0.374348 0
M  V30 3523 H 350.873 -3.22566 -2.4983 0
M  V30 3524 H 349.548 -3.86385 -1.5388 0
M  V30 3525 H 348.125 -2.50282 -2.7643 0
M  V30 3526 N 350.31 0.590341 -1.46126 0
M  V30 3527 C 351.558 1.34616 -1.50742 0
M  V30 3528 C 351.879 1.94363 -0.157486 0
M  V30 3529 O 351.149 1.78136 0.815136 0
M  V30 3530 H 349.729 0.499789 -0.555175 0
M  V30 3531 H 352.391 0.691953 -1.82203 0
M  V30 3532 H 351.487 2.15678 -2.25587 0
M  V30 3533 N 351.788 1.33704 0.83433 0
M  V30 3534 C 353.035 1.25417 1.58987 0
M  V30 3535 C 353.363 -0.178869 1.93676 0
M  V30 3536 O 352.618 -1.13723 1.59265 0
M  V30 3537 C 352.917 2.07926 2.90692 0
M  V30 3538 C 352.583 3.57066 2.75345 0
M  V30 3539 C 351.245 3.97724 2.70867 0
M  V30 3540 C 353.597 4.51817 2.59828 0
M  V30 3541 C 350.925 5.31344 2.48778 0
M  V30 3542 C 353.277 5.85604 2.39272 0
M  V30 3543 C 351.941 6.25439 2.33199 0
M  V30 3544 H 351.211 0.458934 0.581774 0
M  V30 3545 H 353.858 1.65335 0.966261 0
M  V30 3546 H 352.163 1.608 3.57282 0
M  V30 3547 H 353.86 1.98868 3.48213 0
M  V30 3548 H 350.45 3.24785 2.79665 0
M  V30 3549 H 354.634 4.21311 2.62319 0
M  V30 3550 H 349.89 5.61241 2.42526 0
M  V30 3551 H 354.064 6.58623 2.2625 0
M  V30 3552 H 351.691 7.28914 2.15843 0
M  V30 3553 N 353.266 -1.05314 1.17247 0
M  V30 3554 C 354.196 -2.1498 0.911362 0
M  V30 3555 C 355.177 -1.69471 -0.146169 0
M  V30 3556 O 356.362 -1.942 0.003812 0
M  V30 3557 C 353.492 -3.4472 0.422528 0
M  V30 3558 C 352.446 -4.03789 1.4191 0
M  V30 3559 C 351.772 -5.28858 0.788274 0
M  V30 3560 C 353.072 -4.41418 2.7919 0
M  V30 3561 H 354.766 -2.3708 1.82848 0
M  V30 3562 H 352.312 -1.13938 0.880569 0
M  V30 3563 H 354.265 -4.20787 0.227289 0
M  V30 3564 H 352.989 -3.22269 -0.530123 0
M  V30 3565 H 351.648 -3.2979 1.60106 0
M  V30 3566 H 351.296 -5.02709 -0.171173 0
M  V30 3567 H 350.996 -5.69338 1.45353 0
M  V30 3568 H 352.52 -6.07612 0.603282 0
M  V30 3569 H 353.934 -5.08524 2.64719 0
M  V30 3570 H 352.331 -4.92913 3.42282 0
M  V30 3571 H 353.401 -3.51819 3.33693 0
M  V30 3572 N 354.744 -0.972509 -1.24016 0
M  V30 3573 C 355.993 -0.632603 -1.91523 0
M  V30 3574 C 356.306 0.836641 -1.76804 0
M  V30 3575 O 357.512 1.28728 -2.39043 0
M  V30 3576 C 355.968 -1.08082 -3.43287 0
M  V30 3577 C 355.576 -2.57386 -3.66683 0
M  V30 3578 C 357.32 -0.814288 -4.16617 0
M  V30 3579 C 355.227 -2.95915 -5.12043 0
M  V30 3580 H 354.157 -0.232898 -0.717129 0
M  V30 3581 H 356.808 -1.17936 -1.40582 0
M  V30 3582 H 355.19 -0.462339 -3.93292 0
M  V30 3583 H 356.364 -3.24405 -3.27258 0
M  V30 3584 H 354.679 -2.81701 -3.06649 0
M  V30 3585 H 357.276 -1.0781 -5.23718 0
M  V30 3586 H 357.619 0.24955 -4.15551 0
M  V30 3587 H 358.152 -1.39397 -3.72577 0
M  V30 3588 H 354.891 -4.0139 -5.18234 0
M  V30 3589 H 354.411 -2.33584 -5.52448 0
M  V30 3590 H 356.09 -2.86086 -5.80314 0
M  V30 3591 N 356.222 1.38976 -0.743202 0
M  V30 3592 C 357.469 2.00343 -0.294752 0
M  V30 3593 C 357.797 1.58983 1.12047 0
M  V30 3594 O 357.052 0.813809 1.77977 0
M  V30 3595 C 357.351 3.55647 -0.353517 0
M  V30 3596 C 357.017 4.16685 -1.72292 0
M  V30 3597 C 355.679 4.3307 -2.09771 0
M  V30 3598 C 358.031 4.50464 -2.62168 0
M  V30 3599 C 355.359 4.80526 -3.36618 0
M  V30 3600 C 357.711 4.99332 -3.88395 0
M  V30 3601 C 356.375 5.13924 -4.25956 0
M  V30 3602 H 355.645 0.733108 -0.107857 0
M  V30 3603 H 358.292 1.6618 -0.951651 0
M  V30 3604 H 356.597 3.89884 0.386954 0
M  V30 3605 H 358.294 4.00998 0.0117269 0
M  V30 3606 H 354.884 4.04339 -1.42155 0
M  V30 3607 H 359.068 4.37416 -2.3448 0
M  V30 3608 H 354.324 4.90008 -3.65653 0
M  V30 3609 H 358.498 5.2444 -4.58187 0
M  V30 3610 H 356.125 5.50457 -5.2431 0
M  V30 3611 N 357.7 0.491464 1.49741 0
M  V30 3612 C 359.111 0.0413169 1.86654 0
M  V30 3613 C 359.462 -1.36985 1.40462 0
M  V30 3614 O 358.587 -2.01917 0.778354 0
M  V30 3615 C 359.182 0.0682023 3.38731 0
M  V30 3616 C 357.741 -0.32656 3.74981 0
M  V30 3617 C 356.888 0.444888 2.73708 0
M  V30 3618 H 359.839 0.704733 1.42194 0
M  V30 3619 H 359.86 -0.729322 3.73445 0
M  V30 3620 H 359.372 1.09539 3.72321 0
M  V30 3621 H 357.473 -1.35734 3.46997 0
M  V30 3622 H 357.586 -0.013741 4.79098 0
M  V30 3623 H 355.95 -0.104062 2.54487 0
M  V30 3624 H 356.733 1.47197 3.10142 0
M  V30 3625 N 359.178 -1.55987 0.224894 0
M  V30 3626 C 360.403 -2.03232 -0.41369 0
M  V30 3627 C 360.828 -1.10359 -1.52323 0
M  V30 3628 O 360.186 -0.092395 -1.81064 0
M  V30 3629 C 360.234 -3.48682 -0.919405 0
M  V30 3630 O 359.338 -3.58947 -2.03054 0
M  V30 3631 H 358.679 -0.657428 -0.0931903 0
M  V30 3632 H 361.209 -2.01679 0.34451 0
M  V30 3633 H 361.219 -3.8907 -1.22835 0
M  V30 3634 H 359.894 -4.15761 -0.107339 0
M  V30 3635 H 358.471 -3.30448 -1.72796 0
M  V30 3636 N 360.656 0.0484629 -1.57525 0
M  V30 3637 C 361.619 1.03956 -2.04269 0
M  V30 3638 C 362.619 1.30211 -0.943496 0
M  V30 3639 O 363.809 1.25539 -1.20771 0
M  V30 3640 C 360.941 2.37742 -2.44319 0
M  V30 3641 H 362.134 0.636182 -2.93075 0
M  V30 3642 H 359.687 0.294811 -1.53494 0
M  V30 3643 H 360.422 2.82866 -1.5861 0
M  V30 3644 H 360.207 2.20021 -3.24551 0
M  V30 3645 H 361.697 3.08936 -2.80978 0
M  V30 3646 O 362.173 1.60359 0.191666 0
M  V30 3647 H 362.864 1.75005 0.830227 0
M  V30 END ATOM
M  V30 BEGIN BOND
M  V30 END BOND
M  V30 END CTAB
M  END
$$$$
