drugbank_target|P50135 Histamine N-methyltransferase (DB00613; DB01752; DB04655; DB07106; DB13875)
 OpenBabel12092120153D

  0  0  0     0  0            999 V3000
M  V30 BEGIN CTAB
M  V30 COUNTS 4647 4695 0 0 0
M  V30 BEGIN ATOM
M  V30 1 H -0.908 1.98254 -0.117106 0
M  V30 2 N 0 1.576 0 0
M  V30 3 C 0.933 2.03868 1.02534 0
M  V30 4 C 1.911 0.928543 1.3348 0
M  V30 5 O 3.095 1.19667 1.45644 0
M  V30 6 C 0.222 2.43627 2.35294 0
M  V30 7 C -0.732 3.65373 2.2001 0
M  V30 8 S 0.101 5.13292 1.52614 0
M  V30 9 C 1.257 5.56322 2.86805 0
M  V30 10 H 1.49 2.90518 0.631377 0
M  V30 11 H -0.977 1.52953 0.210867 0
M  V30 12 H 0.981 2.67203 3.11629 0
M  V30 13 H -0.358 1.57376 2.7183 0
M  V30 14 H -1.165 3.90944 3.18086 0
M  V30 15 H -1.563 3.418 1.51819 0
M  V30 16 H 0.729 5.58782 3.83104 0
M  V30 17 H 1.672 6.56266 2.65933 0
M  V30 18 H 2.08 4.83886 2.90714 0
M  V30 19 N 1.4781 -0.272755 1.55222 0
M  V30 20 C 2.4411 -1.32041 1.87344 0
M  V30 21 C 3.4411 -1.42342 0.74803 0
M  V30 22 O 4.6311 -1.41488 1.0162 0
M  V30 23 C 1.7631 -2.70173 2.07893 0
M  V30 24 H 2.9561 -1.04789 2.80997 0
M  V30 25 H 0.5091 -0.51083 1.47717 0
M  V30 26 H 1.2441 -3.02605 1.16622 0
M  V30 27 H 1.0291 -2.64082 2.89833 0
M  V30 28 H 2.5191 -3.45869 2.34017 0
M  V30 29 N 2.9562 -1.48159 -0.537278 0
M  V30 30 C 4.1812 -1.59707 -1.32319 0
M  V30 31 C 4.6062 -0.254859 -1.86365 0
M  V30 32 O 3.9642 0.772378 -1.64024 0
M  V30 33 C 4.0122 -2.6412 -2.45505 0
M  V30 34 O 3.1162 -2.20774 -3.48328 0
M  V30 35 H 2.4572 -0.535791 -0.392204 0
M  V30 36 H 4.9872 -1.94092 -0.647268 0
M  V30 37 H 4.9972 -2.85166 -2.91795 0
M  V30 38 H 3.6722 -3.61567 -2.05528 0
M  V30 39 H 2.2492 -2.09911 -3.08207 0
M  V30 40 N 4.4343 0.785586 -1.36625 0
M  V30 41 C 5.6593 1.57963 -1.34397 0
M  V30 42 C 6.0843 1.87964 0.071526 0
M  V30 43 O 5.4423 1.48182 1.0446 0
M  V30 44 C 5.4903 2.87511 -2.17646 0
M  V30 45 O 4.5943 3.81281 -1.57158 0
M  V30 46 H 3.9353 0.479014 -0.459828 0
M  V30 47 H 6.4653 0.973411 -1.79961 0
M  V30 48 H 6.4753 3.36745 -2.30362 0
M  V30 49 H 5.1503 2.65002 -3.20541 0
M  V30 50 H 3.7273 3.39885 -1.53403 0
M  V30 51 N 5.9124 1.20967 1.01018 0
M  V30 52 C 6.8454 0.907578 2.09376 0
M  V30 53 C 7.8234 -0.142868 1.61971 0
M  V30 54 O 9.0074 -0.0150391 1.88494 0
M  V30 55 C 6.1344 0.361791 3.36762 0
M  V30 56 C 5.1804 1.39423 4.03068 0
M  V30 57 S 6.0134 2.96159 4.4615 0
M  V30 58 C 7.1694 2.43173 5.7673 0
M  V30 59 H 7.4024 1.82519 2.34678 0
M  V30 60 H 4.9354 1.03884 1.14225 0
M  V30 61 H 6.8934 0.0534523 4.10465 0
M  V30 62 H 5.5544 -0.53443 3.0952 0
M  V30 63 H 4.7474 0.961853 4.94737 0
M  V30 64 H 4.3494 1.65038 3.35617 0
M  V30 65 H 6.6414 1.83335 6.52223 0
M  V30 66 H 7.5844 3.33264 6.24773 0
M  V30 67 H 7.9924 1.85069 5.33301 0
M  V30 68 N 7.3905 -1.2043 1.01659 0
M  V30 69 C 8.8065 -1.41852 0.731442 0
M  V30 70 C 9.0065 -1.89358 -0.688898 0
M  V30 71 O 8.0625 -2.06247 -1.45666 0
M  V30 72 C 9.3755 -2.44019 1.75714 0
M  V30 73 C 10.9235 -2.57785 1.77527 0
M  V30 74 C 11.3985 -3.63194 2.79023 0
M  V30 75 N 12.8895 -3.70678 2.77763 0
M  V30 76 C 13.6245 -4.51897 3.52954 0
M  V30 77 N 13.1205 -5.36921 4.37821 0
M  V30 78 N 14.9135 -4.4643 3.41551 0
M  V30 79 H 7.0645 -0.879093 1.93354 0
M  V30 80 H 9.3275 -0.448425 0.835236 0
M  V30 81 H 9.0335 -2.1611 2.77469 0
M  V30 82 H 8.9075 -3.43007 1.56927 0
M  V30 83 H 11.2945 -2.85023 0.764569 0
M  V30 84 H 11.3755 -1.58992 2.00387 0
M  V30 85 H 11.0195 -3.36699 3.80258 0
M  V30 86 H 10.9495 -4.61609 2.53425 0
M  V30 87 H 13.4405 -3.09944 2.16201 0
M  V30 88 H 13.7535 -5.95981 4.91962 0
M  V30 89 H 12.0985 -5.36424 4.41899 0
M  V30 90 H 15.2895 -3.79042 2.74672 0
M  V30 91 H 15.4625 -5.09491 4.00404 0
M  V30 92 N 8.8686 -0.792821 -1.36206 0
M  V30 93 C 10.0936 -0.377701 -2.03932 0
M  V30 94 C 10.5186 0.998947 -1.59382 0
M  V30 95 O 9.8766 1.64421 -0.763903 0
M  V30 96 C 9.9246 -0.453635 -3.57735 0
M  V30 97 O 9.0286 0.538151 -4.08874 0
M  V30 98 H 8.3696 -0.159855 -0.644471 0
M  V30 99 H 10.8996 -1.07488 -1.7409 0
M  V30 100 H 10.9096 -0.318464 -4.06755 0
M  V30 101 H 9.5846 -1.45784 -3.89512 0
M  V30 102 H 8.1616 0.364359 -3.71116 0
M  V30 103 N 10.3467 1.47872 -0.545128 0
M  V30 104 C 11.2767 2.32661 0.197793 0
M  V30 105 C 12.2577 1.43041 0.920504 0
M  V30 106 O 13.4427 1.71912 0.90333 0
M  V30 107 C 10.5727 3.24569 1.23582 0
M  V30 108 C 9.5267 4.23333 0.630323 0
M  V30 109 C 8.8527 5.0448 1.77211 0
M  V30 110 C 10.1527 5.20704 -0.407974 0
M  V30 111 H 11.8467 2.95024 -0.510045 0
M  V30 112 H 9.3927 1.4187 -0.246731 0
M  V30 113 H 11.3457 3.8272 1.76362 0
M  V30 114 H 10.0697 2.60236 1.97344 0
M  V30 115 H 8.7287 3.6639 0.123922 0
M  V30 116 H 8.3767 4.36561 2.49847 0
M  V30 117 H 8.0767 5.71339 1.37281 0
M  V30 118 H 9.6007 5.65487 2.3034 0
M  V30 119 H 11.0147 5.7329 0.033305 0
M  V30 120 H 9.4117 5.95699 -0.725486 0
M  V30 121 H 10.4817 4.66917 -1.30828 0
M  V30 122 N 11.8248 0.280983 1.55075 0
M  V30 123 C 13.0718 -0.334115 1.99725 0
M  V30 124 C 13.3998 -1.5542 1.1694 0
M  V30 125 O 12.6548 -1.94361 0.228531 0
M  V30 126 C 12.9538 -0.754656 3.49342 0
M  V30 127 C 12.6198 0.361445 4.49449 0
M  V30 128 C 11.2818 0.667893 4.76542 0
M  V30 129 C 13.6338 1.11322 5.09173 0
M  V30 130 C 10.9618 1.7296 5.60626 0
M  V30 131 C 13.3138 2.1647 5.9441 0
M  V30 132 C 11.9778 2.47742 6.19822 0
M  V30 133 H 11.2478 -0.122261 0.730844 0
M  V30 134 H 13.8948 0.395917 1.87363 0
M  V30 135 H 12.1998 -1.56446 3.5921 0
M  V30 136 H 13.8968 -1.24142 3.813 0
M  V30 137 H 10.4868 0.112481 4.28452 0
M  V30 138 H 14.6708 0.88973 4.8826 0
M  V30 139 H 9.9268 1.97684 5.78559 0
M  V30 140 H 14.1008 2.75193 6.3972 0
M  V30 141 H 11.7278 3.30145 6.84769 0
M  V30 142 N 13.3029 -1.57598 0.00835791 0
M  V30 143 C 14.5279 -1.95617 -0.689103 0
M  V30 144 C 14.9529 -0.883753 -1.66046 0
M  V30 145 O 14.3109 0.157352 -1.80616 0
M  V30 146 C 14.3589 -3.32736 -1.38994 0
M  V30 147 O 13.4629 -3.27631 -2.50463 0
M  V30 148 H 12.8039 -0.638379 -0.182668 0
M  V30 149 H 15.3339 -2.045 0.064036 0
M  V30 150 H 15.3439 -3.68494 -1.75147 0
M  V30 151 H 14.0189 -4.1034 -0.677778 0
M  V30 152 H 12.5959 -3.03561 -2.16576 0
M  V30 153 N 14.781 0.264519 -1.55364 0
M  V30 154 C 16.058 1.01677 -1.67096 0
M  V30 155 C 16.438 2.03996 -0.543015 0
M  V30 156 O 15.786 2.23907 0.45585 0
M  V30 157 C 15.996 1.66596 -3.0667 0
M  V30 158 C 17.344 2.17442 -3.64697 0
M  V30 159 O 18.368 1.76568 -3.09358 0
M  V30 160 O 17.227 2.92439 -4.61673 0
M  V30 161 H 14.321 0.472161 -0.678965 0
M  V30 162 H 16.867 0.259703 -1.67701 0
M  V30 163 H 15.639 0.924962 -3.80211 0
M  V30 164 H 15.262 2.48968 -3.10001 0
M  V30 165 N 16.2591 1.48442 0.529413 0
M  V30 166 C 17.2091 1.59407 1.63014 0
M  V30 167 C 18.1931 0.451166 1.54445 0
M  V30 168 O 19.3851 0.702635 1.62456 0
M  V30 169 C 16.5141 1.63746 3.01732 0
M  V30 170 C 15.6001 2.83518 3.15402 0
M  V30 171 N 15.9911 4.07929 2.99045 0
M  V30 172 C 14.2891 2.80862 3.46457 0
M  V30 173 C 14.9901 4.8829 3.16146 0
M  V30 174 N 13.9661 4.21117 3.43746 0
M  V30 175 H 17.7681 2.53343 1.48978 0
M  V30 176 H 15.2821 1.44821 0.734885 0
M  V30 177 H 17.2791 1.69695 3.80801 0
M  V30 178 H 15.9391 0.709264 3.16859 0
M  V30 179 H 16.9501 4.38357 2.75796 0
M  V30 180 H 13.6271 1.97301 3.67938 0
M  V30 181 H 15.0171 5.97028 3.08232 0
M  V30 182 N 17.7372 -0.778329 1.37039 0
M  V30 183 C 18.9852 -1.53361 1.31623 0
M  V30 184 C 19.3062 -1.94739 -0.100831 0
M  V30 185 O 18.5762 -1.65797 -1.04347 0
M  V30 186 H 17.1562 -0.568794 0.484234 0
M  V30 187 H 19.8182 -0.926742 1.71457 0
M  V30 188 H 18.9142 -2.43606 1.95096 0
M  V30 189 N 19.2153 -1.21501 -1.00376 0
M  V30 190 C 20.1623 -0.975387 -2.09177 0
M  V30 191 C 21.1323 0.0990615 -1.65804 0
M  V30 192 O 22.3173 -0.0483147 -1.90739 0
M  V30 193 C 19.4573 -0.547507 -3.40729 0
M  V30 194 C 18.5703 -1.69153 -3.97506 0
M  V30 195 C 17.7053 -1.2127 -5.17172 0
M  V30 196 C 16.7443 -2.32897 -5.66061 0
M  V30 197 N 15.8813 -1.86138 -6.76976 0
M  V30 198 H 20.7213 -1.9068 -2.29009 0
M  V30 199 H 18.2583 -0.950257 -1.12288 0
M  V30 200 H 20.2163 -0.280667 -4.16255 0
M  V30 201 H 18.8463 0.346904 -3.20931 0
M  V30 202 H 17.8983 -2.07298 -3.18954 0
M  V30 203 H 19.2103 -2.5316 -4.29781 0
M  V30 204 H 18.3643 -0.902591 -5.99948 0
M  V30 205 H 17.1033 -0.342692 -4.86495 0
M  V30 206 H 16.1083 -2.64709 -4.81881 0
M  V30 207 H 17.3333 -3.20396 -5.98768 0
M  V30 208 H 15.2793 -1.01484 -6.48103 0
M  V30 209 H 15.1963 -2.63717 -7.08512 0
M  V30 210 H 16.4643 -1.58165 -7.63285 0
M  V30 211 N 20.6934 1.19889 -1.02296 0
M  V30 212 C 21.9234 1.93109 -0.734332 0
M  V30 213 C 22.3314 1.75377 0.709889 0
M  V30 214 O 21.6744 1.06912 1.49384 0
M  V30 215 C 21.7364 3.45362 -0.99827 0
M  V30 216 C 21.4004 3.8686 -2.43287 0
M  V30 217 C 22.3974 3.92102 -3.41397 0
M  V30 218 C 20.0824 4.18668 -2.77529 0
M  V30 219 C 22.0764 4.28573 -4.71809 0
M  V30 220 C 19.7634 4.54813 -4.08153 0
M  V30 221 C 20.7614 4.59739 -5.05103 0
M  V30 222 O 20.4494 4.95051 -6.33388 0
M  V30 223 H 20.1814 0.620409 -0.268456 0
M  V30 224 H 22.7354 1.53144 -1.3688 0
M  V30 225 H 20.9654 3.85482 -0.306645 0
M  V30 226 H 22.6544 3.99814 -0.700234 0
M  V30 227 H 23.4204 3.67685 -3.1628 0
M  V30 228 H 19.2994 4.14021 -2.0275 0
M  V30 229 H 22.8434 4.32333 -5.4748 0
M  V30 230 H 18.7404 4.78687 -4.33047 0
M  V30 231 H 19.5084 5.1302 -6.37772 0
M  V30 232 N 22.1715 0.800033 1.35784 0
M  V30 233 C 23.4175 0.377901 1.99248 0
M  V30 234 C 23.7505 -1.05052 1.63333 0
M  V30 235 O 23.0255 -1.72768 0.893385 0
M  V30 236 C 23.3085 0.553922 3.55814 0
M  V30 237 C 23.1615 2.0268 4.01548 0
M  V30 238 C 24.4805 -0.0244802 4.40093 0
M  V30 239 H 21.5995 0.138782 0.723815 0
M  V30 240 H 24.2415 1.00835 1.61035 0
M  V30 241 H 22.3915 0.0172398 3.88496 0
M  V30 242 H 24.0635 2.62536 3.79305 0
M  V30 243 H 22.3065 2.5256 3.52698 0
M  V30 244 H 22.9775 2.10087 5.10458 0
M  V30 245 H 25.4535 0.433775 4.13833 0
M  V30 246 H 24.3295 0.128637 5.48749 0
M  V30 247 H 24.5905 -1.11758 4.27741 0
M  V30 248 N 23.6496 -1.47581 0.552962 0
M  V30 249 C 24.5596 -2.33743 -0.200353 0
M  V30 250 C 25.5756 -1.47928 -0.916151 0
M  V30 251 O 26.7516 -1.80865 -0.885993 0
M  V30 252 C 23.8166 -3.24536 -1.21973 0
M  V30 253 C 22.8776 -4.26238 -0.511819 0
M  V30 254 C 22.1106 -5.12693 -1.48263 0
M  V30 255 O 22.3336 -5.01525 -2.71714 0
M  V30 256 O 21.2676 -5.93375 -1.00945 0
M  V30 257 H 25.0936 -2.9945 0.506304 0
M  V30 258 H 22.6786 -1.46071 0.313622 0
M  V30 259 H 24.5606 -3.80631 -1.80827 0
M  V30 260 H 23.2356 -2.61462 -1.90839 0
M  V30 261 H 22.1426 -3.73914 0.117799 0
M  V30 262 H 23.4756 -4.92014 0.135308 0
M  V30 263 N 25.1277 -0.289203 -1.54924 0
M  V30 264 C 26.3527 0.329299 -2.04769 0
M  V30 265 C 26.7777 1.4763 -1.16564 0
M  V30 266 O 26.1357 1.80527 -0.167186 0
M  V30 267 C 26.1837 0.774438 -3.52186 0
M  V30 268 O 25.2877 1.88038 -3.67036 0
M  V30 269 H 24.6287 0.0659259 -0.660719 0
M  V30 270 H 27.1587 -0.42761 -2.00082 0
M  V30 271 H 27.1687 1.06642 -3.93816 0
M  V30 272 H 25.8437 -0.0646707 -4.1585 0
M  V30 273 H 24.4207 1.58985 -3.3731 0
M  V30 274 N 26.6058 1.57591 -0.0167156 0
M  V30 275 C 27.8528 1.91283 0.664597 0
M  V30 276 C 28.1808 0.891949 1.72842 0
M  V30 277 O 27.4358 -0.100931 1.9544 0
M  V30 278 C 27.7348 3.3172 1.33029 0
M  V30 279 C 27.4008 4.4914 0.398047 0
M  V30 280 C 26.0628 4.80992 0.141421 0
M  V30 281 C 28.4148 5.20634 -0.242825 0
M  V30 282 C 25.7428 5.81703 -0.764092 0
M  V30 283 C 28.0948 6.22311 -1.13632 0
M  V30 284 C 26.7588 6.52611 -1.40196 0
M  V30 285 H 26.0288 0.699956 0.243193 0
M  V30 286 H 28.6758 1.9135 -0.0758267 0
M  V30 287 H 26.9808 3.27856 2.14517 0
M  V30 288 H 28.6778 3.55055 1.86379 0
M  V30 289 H 25.2678 4.24262 0.608238 0
M  V30 290 H 29.4518 4.96267 -0.0576019 0
M  V30 291 H 24.7078 6.03532 -0.977732 0
M  V30 292 H 28.8818 6.76834 -1.63917 0
M  V30 293 H 26.5088 7.30467 -2.10529 0
M  V30 294 N 28.0839 -0.256276 1.55502 0
M  V30 295 C 29.4999 -0.604325 1.47716 0
M  V30 296 C 29.6999 -1.88763 0.705039 0
M  V30 297 O 28.7559 -2.51445 0.230613 0
M  V30 298 C 30.0689 -0.715756 2.92057 0
M  V30 299 C 31.6169 -0.808706 3.02372 0
M  V30 300 C 32.0919 -0.951777 4.48001 0
M  V30 301 N 33.5829 -1.01688 4.519 0
M  V30 302 C 34.3179 -1.14668 5.61817 0
M  V30 303 N 33.8139 -1.24261 6.81565 0
M  V30 304 N 35.6069 -1.1791 5.49594 0
M  V30 305 H 27.7579 0.586291 2.04148 0
M  V30 306 H 30.0209 0.201015 0.926443 0
M  V30 307 H 29.7269 0.157027 3.51349 0
M  V30 308 H 29.6009 -1.59071 3.42018 0
M  V30 309 H 31.9879 -1.67195 2.43166 0
M  V30 310 H 32.0689 0.0912063 2.55637 0
M  V30 311 H 31.7129 -0.0931291 5.07815 0
M  V30 312 H 31.6429 -1.86659 4.92408 0
M  V30 313 H 34.1339 -0.954468 3.65648 0
M  V30 314 H 34.4469 -1.34046 7.61086 0
M  V30 315 H 32.7919 -1.21236 6.84344 0
M  V30 316 H 35.9829 -1.10057 4.54978 0
M  V30 317 H 36.1559 -1.27681 6.35296 0
M  V30 318 N 29.562 -1.4872 -0.521534 0
M  V30 319 C 30.978 -1.35028 -0.850855 0
M  V30 320 C 31.178 -0.367712 -1.98116 0
M  V30 321 O 30.234 0.208037 -2.51642 0
M  V30 322 C 31.547 -2.75263 -1.21041 0
M  V30 323 C 33.095 -2.83813 -1.31981 0
M  V30 324 C 33.57 -4.24769 -1.71276 0
M  V30 325 N 35.061 -4.27482 -1.78363 0
M  V30 326 C 35.796 -5.33494 -2.1017 0
M  V30 327 N 35.292 -6.49775 -2.40343 0
M  V30 328 N 37.085 -5.20894 -2.11248 0
M  V30 329 H 29.236 -2.11214 0.22413 0
M  V30 330 H 31.499 -0.947252 0.0376439 0
M  V30 331 H 31.205 -3.48765 -0.453415 0
M  V30 332 H 31.079 -3.09327 -2.15863 0
M  V30 333 H 33.466 -2.10561 -2.06756 0
M  V30 334 H 33.547 -2.53358 -0.352596 0
M  V30 335 H 33.191 -4.9854 -0.970588 0
M  V30 336 H 33.121 -4.52673 -2.69062 0
M  V30 337 H 35.612 -3.43611 -1.57288 0
M  V30 338 H 35.925 -7.26402 -2.63743 0
M  V30 339 H 34.27 -6.53035 -2.37844 0
M  V30 340 H 37.461 -4.29065 -1.87139 0
M  V30 341 H 37.634 -6.03612 -2.35704 0
M  V30 342 N 31.0401 0.771051 -1.3745 0
M  V30 343 C 32.2871 1.52963 -1.32697 0
M  V30 344 C 32.6151 1.94299 0.0883274 0
M  V30 345 O 31.8701 1.64397 1.0617 0
M  V30 346 C 32.1691 2.80676 -2.2126 0
M  V30 347 C 31.8351 2.58389 -3.69521 0
M  V30 348 C 30.4971 2.52019 -4.09927 0
M  V30 349 C 32.8491 2.38469 -4.63446 0
M  V30 350 C 30.1771 2.23721 -5.42371 0
M  V30 351 C 32.5291 2.11694 -5.96128 0
M  V30 352 C 31.1931 2.03769 -6.35637 0
M  V30 353 H 30.4631 0.559732 -0.485573 0
M  V30 354 H 33.1101 0.888083 -1.69662 0
M  V30 355 H 31.4151 3.49392 -1.77291 0
M  V30 356 H 33.1121 3.38557 -2.14895 0
M  V30 357 H 29.7021 2.6421 -3.37478 0
M  V30 358 H 33.8861 2.4238 -4.33089 0
M  V30 359 H 29.1421 2.16081 -5.71943 0
M  V30 360 H 33.3161 1.9528 -6.6846 0
M  V30 361 H 30.9431 1.81606 -7.38189 0
M  V30 362 N 32.5182 1.22032 0.997298 0
M  V30 363 C 33.4482 1.01065 2.10495 0
M  V30 364 C 34.4292 -0.0669542 1.69968 0
M  V30 365 O 35.6142 0.0943987 1.9397 0
M  V30 366 C 32.7442 0.582874 3.42374 0
M  V30 367 C 31.6982 1.60592 3.96729 0
M  V30 368 C 31.0242 1.03412 5.24605 0
M  V30 369 C 32.3242 2.99478 4.27914 0
M  V30 370 H 34.0182 1.93708 2.28292 0
M  V30 371 H 31.5642 0.932761 1.09707 0
M  V30 372 H 33.5172 0.423332 4.19268 0
M  V30 373 H 32.2412 -0.379213 3.24391 0
M  V30 374 H 30.9002 1.75316 3.21963 0
M  V30 375 H 30.5482 0.063518 5.0296 0
M  V30 376 H 30.2482 1.71754 5.61938 0
M  V30 377 H 31.7722 0.886066 6.04137 0
M  V30 378 H 33.1862 2.88153 4.95622 0
M  V30 379 H 31.5832 3.64903 4.76409 0
M  V30 380 H 32.6532 3.49742 3.3587 0
M  V30 381 N 33.9963 -1.19345 1.0293 0
M  V30 382 C 34.9443 -2.24621 0.604001 0
M  V30 383 C 35.9383 -1.65452 -0.363587 0
M  V30 384 O 37.1443 -1.78497 -0.23212 0
M  V30 385 H 33.5193 -0.730858 0.177061 0
M  V30 386 H 35.4903 -2.5781 1.50255 0
M  V30 387 C 34.2393 -3.47688 -0.0289127 0
M  V30 388 H 33.5623 -3.93505 0.706651 0
M  V30 389 H 35.0023 -4.23011 -0.289432 0
M  V30 390 C 33.4613 -3.11817 -1.2756 0
M  V30 391 O 33.9913 -3.2451 -2.36762 0
M  V30 392 N 32.1973 -2.66246 -1.16453 0
M  V30 393 H 31.7443 -2.56118 -0.275914 0
M  V30 394 H 31.7023 -2.42617 -1.99961 0
M  V30 395 N 35.4744 -0.807222 -1.35358 0
M  V30 396 C 36.4244 -0.190706 -2.27201 0
M  V30 397 C 37.4084 0.635838 -1.47804 0
M  V30 398 O 38.6004 0.492991 -1.69996 0
M  V30 399 C 35.7294 0.659337 -3.36909 0
M  V30 400 C 34.8154 -0.176971 -4.23731 0
M  V30 401 N 35.2064 -1.24029 -4.90357 0
M  V30 402 C 33.5044 0.0412953 -4.45981 0
M  V30 403 C 34.2054 -1.75092 -5.54723 0
M  V30 404 N 33.1814 -1.05727 -5.33219 0
M  V30 405 H 36.9834 -1.0043 -2.76208 0
M  V30 406 H 34.4974 -0.648445 -1.48892 0
M  V30 407 H 36.4944 1.11706 -4.01656 0
M  V30 408 H 35.1544 1.47127 -2.89454 0
M  V30 409 H 36.1654 -1.62295 -4.91814 0
M  V30 410 H 32.8424 0.82232 -4.09322 0
M  V30 411 H 34.2324 -2.63963 -6.17878 0
M  V30 412 N 36.9525 1.47285 -0.560781 0
M  V30 413 C 38.1775 2.07359 -0.0410566 0
M  V30 414 C 38.6025 1.41017 1.24483 0
M  V30 415 O 37.9605 0.486368 1.74654 0
M  V30 416 C 38.0085 3.6035 0.134123 0
M  V30 417 O 37.1125 3.94681 1.19587 0
M  V30 418 H 36.4535 0.661887 -0.0529291 0
M  V30 419 H 38.9835 1.89252 -0.777482 0
M  V30 420 H 38.9935 4.0652 0.347207 0
M  V30 421 H 37.6685 4.08034 -0.805047 0
M  V30 422 H 36.2455 3.60251 0.962987 0
M  V30 423 N 38.4306 0.297415 1.54768 0
M  V30 424 C 39.6586 -0.315623 2.04478 0
M  V30 425 C 40.0736 -1.47792 1.17486 0
M  V30 426 O 39.4306 -1.81404 0.19971 0
M  V30 427 C 39.4816 -0.7753 3.53088 0
M  V30 428 O 39.2026 0.340732 4.36773 0
M  V30 429 C 40.7036 -1.45386 4.18781 0
M  V30 430 H 37.9236 -0.0690887 0.667434 0
M  V30 431 H 40.4676 0.436003 1.99798 0
M  V30 432 H 38.6226 -1.47696 3.58141 0
M  V30 433 H 39.0366 -0.0165035 5.24497 0
M  V30 434 H 40.5106 -1.72669 5.24299 0
M  V30 435 H 40.9876 -2.39275 3.68299 0
M  V30 436 H 41.5936 -0.795475 4.17795 0
M  V30 437 N 39.9087 -1.5758 0.0250728 0
M  V30 438 C 40.8187 -2.1343 -0.973905 0
M  V30 439 C 41.8347 -1.08556 -1.35984 0
M  V30 440 O 43.0107 -1.40592 -1.44207 0
M  V30 441 C 40.0757 -2.64703 -2.23904 0
M  V30 442 C 39.1367 -3.84276 -1.91391 0
M  V30 443 C 38.3697 -4.33095 -3.11873 0
M  V30 444 O 38.5927 -3.81107 -4.24398 0
M  V30 445 O 37.5267 -5.24984 -2.94406 0
M  V30 446 H 41.3527 -2.99057 -0.529036 0
M  V30 447 H 38.9377 -1.48118 -0.195288 0
M  V30 448 H 40.8197 -2.97769 -2.98181 0
M  V30 449 H 39.4947 -1.82161 -2.6758 0
M  V30 450 H 38.4017 -3.56143 -1.14511 0
M  V30 451 H 39.7347 -4.67968 -1.52534 0
M  V30 452 N 41.3868 0.248026 -1.55636 0
M  V30 453 C 42.3368 1.30994 -1.86614 0
M  V30 454 C 43.3208 1.43543 -0.726918 0
M  V30 455 O 44.5128 1.46804 -0.988818 0
M  V30 456 C 41.6418 2.6656 -2.16335 0
M  V30 457 C 40.7278 2.58019 -3.36581 0
M  V30 458 N 41.1188 2.1911 -4.55878 0
M  V30 459 C 39.4168 2.89035 -3.39669 0
M  V30 460 C 40.1178 2.21174 -5.38012 0
M  V30 461 N 39.0938 2.60632 -4.77045 0
M  V30 462 H 42.8958 0.999583 -2.76379 0
M  V30 463 H 40.4098 0.456652 -1.55848 0
M  V30 464 H 42.4068 3.43194 -2.36692 0
M  V30 465 H 41.0668 2.98463 -1.27867 0
M  V30 466 H 42.0778 1.90672 -4.81523 0
M  V30 467 H 38.7548 3.25485 -2.61469 0
M  V30 468 H 40.1448 1.9344 -6.43452 0
M  V30 469 N 42.8649 1.48995 0.513639 0
M  V30 470 C 43.7969 1.60836 1.63293 0
M  V30 471 C 44.8099 0.491701 1.55197 0
M  V30 472 O 45.9989 0.763238 1.6136 0
M  V30 473 C 43.0989 1.53731 3.02027 0
M  V30 474 C 42.2719 2.80715 3.35437 0
M  V30 475 C 41.3309 2.66837 4.53525 0
M  V30 476 O 40.3569 3.40753 4.55934 0
M  V30 477 N 41.5589 1.77539 5.52684 0
M  V30 478 H 44.3239 2.57366 1.53566 0
M  V30 479 H 41.8849 1.45925 0.701259 0
M  V30 480 H 43.8769 1.42118 3.78926 0
M  V30 481 H 42.4469 0.651092 3.05744 0
M  V30 482 H 41.6669 3.06772 2.47557 0
M  V30 483 H 42.9549 3.64927 3.54551 0
M  V30 484 H 42.3529 1.16719 5.53528 0
M  V30 485 H 40.9099 1.71856 6.28736 0
M  V30 486 N 44.343 -0.763751 1.37857 0
M  V30 487 C 45.583 -1.53551 1.34913 0
M  V30 488 C 45.947 -1.91895 -0.0635882 0
M  V30 489 O 47.148 -2.67916 -0.217825 0
M  V30 490 C 45.419 -2.76126 2.26912 0
M  V30 491 S 46.978 -3.66105 2.41893 0
M  V30 492 H 43.796 -0.52559 0.478828 0
M  V30 493 H 46.398 -0.897435 1.73685 0
M  V30 494 H 45.102 -2.4605 3.28463 0
M  V30 495 H 44.633 -3.44887 1.89253 0
M  V30 496 H 46.648 -4.68473 1.63545 0
M  V30 497 N 45.8211 -1.22559 -0.990812 0
M  V30 498 C 46.7541 -0.940773 -2.07905 0
M  V30 499 C 47.7321 0.117082 -1.62178 0
M  V30 500 O 48.9161 -0.0149506 -1.88494 0
M  V30 501 C 46.0431 -0.415321 -3.36144 0
M  V30 502 C 45.0891 -1.45818 -4.00799 0
M  V30 503 S 45.9221 -3.03219 -4.41382 0
M  V30 504 C 47.0781 -2.52317 -5.72789 0
M  V30 505 H 47.3111 -1.8623 -2.31745 0
M  V30 506 H 44.8441 -1.05688 -1.12558 0
M  V30 507 H 46.8021 -0.118747 -4.10328 0
M  V30 508 H 45.4631 0.485121 -3.10331 0
M  V30 509 H 44.6561 -1.04044 -4.93144 0
M  V30 510 H 44.2581 -1.70356 -3.32949 0
M  V30 511 H 46.5501 -1.93688 -6.49224 0
M  V30 512 H 47.4931 -3.43161 -6.19392 0
M  V30 513 H 47.9011 -1.93529 -5.30289 0
M  V30 514 N 47.2992 1.18797 -1.03562 0
M  V30 515 C 48.2312 2.21731 -0.580337 0
M  V30 516 C 49.2442 1.59051 0.347349 0
M  V30 517 O 50.4332 1.77929 0.142669 0
M  V30 518 C 47.5332 3.38459 0.172805 0
M  V30 519 C 46.7062 4.3072 -0.761496 0
M  V30 520 C 45.7652 5.26174 -0.0525547 0
M  V30 521 O 44.7912 5.65108 -0.681333 0
M  V30 522 N 45.9932 5.67624 1.21586 0
M  V30 523 H 48.7582 2.61417 -1.46565 0
M  V30 524 H 46.3192 1.33531 -0.915476 0
M  V30 525 H 48.3112 3.99335 0.656793 0
M  V30 526 H 46.8812 2.97507 0.959602 0
M  V30 527 H 46.1012 3.67525 -1.42544 0
M  V30 528 H 47.3892 4.89267 -1.39626 0
M  V30 529 H 46.7872 5.38038 1.74732 0
M  V30 530 H 45.3442 6.30721 1.64421 0
M  V30 531 N 48.7773 0.814389 1.34928 0
M  V30 532 C 49.6873 0.231978 2.3345 0
M  V30 533 C 50.7033 -0.629139 1.62228 0
M  V30 534 O 51.8793 -0.539052 1.94052 0
M  V30 535 C 48.9443 -0.603482 3.41407 0
M  V30 536 C 48.0053 0.279037 4.28392 0
M  V30 537 C 47.2383 -0.516643 5.31193 0
M  V30 538 O 47.4613 -1.75068 5.4287 0
M  V30 539 O 46.3953 0.0965652 6.01823 0
M  V30 540 H 50.2213 1.04721 2.85074 0
M  V30 541 H 47.8063 0.576343 1.37836 0
M  V30 542 H 49.6883 -1.07908 4.0735 0
M  V30 543 H 48.3633 -1.39618 2.92042 0
M  V30 544 H 47.2703 0.801948 3.65403 0
M  V30 545 H 48.6033 1.03588 4.81176 0
M  V30 546 N 50.2554 -1.46986 0.568584 0
M  V30 547 C 51.5024 -2.02441 0.0487986 0
M  V30 548 C 51.8304 -1.44169 -1.30559 0
M  V30 549 O 51.0854 -0.591213 -1.86556 0
M  V30 550 C 51.3844 -3.57306 -0.081836 0
M  V30 551 C 51.0504 -4.34552 1.20313 0
M  V30 552 C 49.7124 -4.55376 1.5552 0
M  V30 553 C 52.0644 -4.79016 2.05411 0
M  V30 554 C 49.3924 -5.17913 2.7565 0
M  V30 555 C 51.7444 -5.42879 3.24754 0
M  V30 556 C 50.4084 -5.61933 3.60261 0
M  V30 557 H 49.6784 -0.740785 0.0178567 0
M  V30 558 H 52.3254 -1.76525 0.742384 0
M  V30 559 H 50.6304 -3.8228 -0.858463 0
M  V30 560 H 52.3274 -3.97876 -0.499546 0
M  V30 561 H 48.9174 -4.18631 0.919014 0
M  V30 562 H 53.1014 -4.62696 1.79516 0
M  V30 563 H 48.3574 -5.30858 3.03315 0
M  V30 564 H 52.5314 -5.76293 3.90973 0
M  V30 565 H 50.1584 -6.10161 4.53439 0
M  V30 566 N 51.7335 -0.305618 -1.54608 0
M  V30 567 C 52.6665 0.610536 -2.19881 0
M  V30 568 C 53.6445 1.1294 -1.16976 0
M  V30 569 O 54.8285 1.19673 -1.45638 0
M  V30 570 C 51.9555 1.83583 -2.84631 0
M  V30 571 C 51.0015 1.4498 -4.01102 0
M  V30 572 S 51.8345 0.501793 -5.33144 0
M  V30 573 C 52.9905 1.73478 -6.01379 0
M  V30 574 H 53.2235 0.0560177 -2.97247 0
M  V30 575 H 50.7565 -0.0897434 -1.54139 0
M  V30 576 H 52.7145 2.53898 -3.22562 0
M  V30 577 H 51.3755 2.36152 -2.07102 0
M  V30 578 H 50.5685 2.36236 -4.45206 0
M  V30 579 H 50.1705 0.826553 -3.64752 0
M  V30 580 H 52.4625 2.67473 -6.22467 0
M  V30 581 H 53.4055 1.33622 -6.95378 0
M  V30 582 H 53.8135 1.9136 -5.31076 0
M  V30 583 N 53.2116 1.57565 -0.0334293 0
M  V30 584 C 54.4886 1.83282 0.683163 0
M  V30 585 C 54.8686 0.91823 1.90084 0
M  V30 586 O 54.2166 -0.025113 2.28486 0
M  V30 587 C 54.4266 3.32599 1.0573 0
M  V30 588 C 55.7746 3.99179 1.44711 0
M  V30 589 O 56.7986 3.3712 1.15015 0
M  V30 590 O 55.6576 5.08565 2.0006 0
M  V30 591 H 52.7516 0.755869 0.335546 0
M  V30 592 H 55.2976 1.69589 -0.0614402 0
M  V30 593 H 54.0696 3.90834 0.190828 0
M  V30 594 H 53.6926 3.51415 1.85993 0
M  V30 595 N 54.6897 -0.239769 1.55765 0
M  V30 596 C 55.6367 -1.29696 1.90913 0
M  V30 597 C 56.6067 -1.47478 0.764164 0
M  V30 598 O 57.7917 -1.61345 1.01845 0
M  V30 599 C 54.9317 -2.64598 2.21544 0
M  V30 600 C 54.0447 -2.54765 3.48882 0
M  V30 601 C 53.1797 -3.82069 3.69049 0
M  V30 602 C 52.2187 -3.66883 4.89963 0
M  V30 603 N 51.3557 -4.86094 5.06614 0
M  V30 604 H 56.1957 -0.990224 2.81067 0
M  V30 605 H 53.7327 -0.477684 1.39128 0
M  V30 606 H 55.6907 -3.43132 2.3731 0
M  V30 607 H 54.3207 -2.93405 1.34585 0
M  V30 608 H 53.3727 -1.67763 3.41409 0
M  V30 609 H 54.6847 -2.39457 4.37563 0
M  V30 610 H 53.8387 -4.69046 3.84812 0
M  V30 611 H 52.5777 -4.00282 2.78614 0
M  V30 612 H 51.5827 -2.78289 4.74168 0
M  V30 613 H 52.8077 -3.50157 5.81865 0
M  V30 614 H 50.7537 -5.04655 4.19117 0
M  V30 615 H 50.6707 -4.73443 5.89396 0
M  V30 616 H 51.9387 -5.74549 5.26795 0
M  V30 617 N 56.1678 -1.49265 -0.50573 0
M  V30 618 C 57.1148 -1.65585 -1.6078 0
M  V30 619 C 58.0848 -0.497396 -1.58478 0
M  V30 620 O 59.2698 -0.72385 -1.76536 0
M  V30 621 C 56.4098 -1.72408 -2.98948 0
M  V30 622 C 55.5228 -2.99525 -3.11301 0
M  V30 623 C 54.6578 -2.97356 -4.40174 0
M  V30 624 C 53.6968 -4.19074 -4.46143 0
M  V30 625 N 52.8338 -4.14841 -5.66437 0
M  V30 626 H 57.6738 -2.59688 -1.46172 0
M  V30 627 H 55.2108 -1.28761 -0.711261 0
M  V30 628 H 57.1688 -1.74344 -3.79025 0
M  V30 629 H 55.7988 -0.817753 -3.1227 0
M  V30 630 H 54.8508 -3.07222 -2.24318 0
M  V30 631 H 56.1628 -3.89518 -3.11572 0
M  V30 632 H 55.3168 -2.97829 -5.28567 0
M  V30 633 H 54.0558 -2.05133 -4.42461 0
M  V30 634 H 53.0608 -4.1885 -3.56153 0
M  V30 635 H 54.2858 -5.12483 -4.45575 0
M  V30 636 H 52.2318 -3.25453 -5.69575 0
M  V30 637 H 52.1488 -4.98564 -5.68304 0
M  V30 638 H 53.4168 -4.1941 -6.57051 0
M  V30 639 N 57.6459 0.756429 -1.3826 0
M  V30 640 C 58.5759 1.88374 -1.37976 0
M  V30 641 C 59.5569 1.68311 -0.246082 0
M  V30 642 O 60.7419 1.88944 -0.44874 0
M  V30 643 C 57.8719 3.25864 -1.20125 0
M  V30 644 C 56.8259 3.60523 -2.30666 0
M  V30 645 C 56.1519 4.9672 -1.97923 0
M  V30 646 C 57.4519 3.65692 -3.72916 0
M  V30 647 H 59.1459 1.88869 -2.32312 0
M  V30 648 H 56.6919 0.907272 -1.11824 0
M  V30 649 H 58.6449 4.0438 -1.18552 0
M  V30 650 H 57.3689 3.25841 -0.222498 0
M  V30 651 H 56.0279 2.84324 -2.3142 0
M  V30 652 H 55.6759 4.93253 -0.985393 0
M  V30 653 H 55.3759 5.20878 -2.71955 0
M  V30 654 H 56.8999 5.77618 -1.97964 0
M  V30 655 H 58.3139 4.34328 -3.74208 0
M  V30 656 H 56.7109 4.01358 -4.4613 0
M  V30 657 H 57.7809 2.65987 -4.05436 0
M  V30 658 N 59.124 1.23083 0.984299 0
M  V30 659 C 60.535 1.05609 1.5396 0
M  V30 660 C 60.886 -0.377793 1.92528 0
M  V30 661 O 60.011 -1.26398 1.75649 0
M  V30 662 C 60.606 1.91087 2.7977 0
M  V30 663 C 59.165 1.77885 3.31713 0
M  V30 664 C 58.312 1.87028 2.04733 0
M  V30 665 H 61.263 1.36802 0.804419 0
M  V30 666 H 61.284 1.43336 3.5247 0
M  V30 667 H 60.796 2.9544 2.51668 0
M  V30 668 H 58.897 0.762995 3.64704 0
M  V30 669 H 59.01 2.61047 4.01735 0
M  V30 670 H 57.374 1.30565 2.18689 0
M  V30 671 H 58.157 2.92929 1.79017 0
M  V30 672 N 60.6021 -1.18246 1.0419 0
M  V30 673 C 61.8501 -1.87886 0.744543 0
M  V30 674 C 62.1711 -1.8082 -0.730006 0
M  V30 675 O 61.4411 -1.22736 -1.52685 0
M  V30 676 H 60.0211 -0.695556 0.272417 0
M  V30 677 H 62.6831 -1.43494 1.31892 0
M  V30 678 H 61.7791 -2.9389 1.05049 0
M  V30 679 N 62.0802 -0.821533 -1.34494 0
M  V30 680 C 63.3292 -0.405355 -1.97585 0
M  V30 681 C 63.6422 1.03677 -1.65863 0
M  V30 682 O 64.8482 1.55679 -2.22433 0
M  V30 683 C 63.3042 -0.673861 -3.53535 0
M  V30 684 C 62.9122 -2.12951 -3.94152 0
M  V30 685 C 64.6562 -0.32378 -4.23263 0
M  V30 686 C 62.5632 -2.34298 -5.43009 0
M  V30 687 H 61.4932 -0.147836 -0.739365 0
M  V30 688 H 64.1442 -1.00769 -1.53355 0
M  V30 689 H 62.5262 -0.00137554 -3.96 0
M  V30 690 H 63.7002 -2.84104 -3.62797 0
M  V30 691 H 62.0152 -2.44089 -3.37356 0
M  V30 692 H 64.6122 -0.461126 -5.32708 0
M  V30 693 H 64.9552 0.731586 -4.09821 0
M  V30 694 H 65.4882 -0.950786 -3.8627 0
M  V30 695 H 62.2272 -3.38335 -5.61435 0
M  V30 696 H 61.7472 -1.67687 -5.75883 0
M  V30 697 H 63.4262 -2.16588 -6.09671 0
M  V30 698 N 63.5583 1.46682 -0.576371 0
M  V30 699 C 64.8073 2.01619 -0.0572825 0
M  V30 700 C 65.1203 1.45417 1.30818 0
M  V30 701 O 66.3263 1.92133 1.91825 0
M  V30 702 C 64.7823 3.59863 -0.0518371 0
M  V30 703 C 64.3903 4.25059 -1.41523 0
M  V30 704 C 66.1343 4.2248 0.413639 0
M  V30 705 C 64.0413 5.75364 -1.36785 0
M  V30 706 H 62.9713 0.753794 -0.0176448 0
M  V30 707 H 65.6223 1.68481 -0.727076 0
M  V30 708 H 64.0043 3.90048 0.683994 0
M  V30 709 H 65.1783 4.06491 -2.17029 0
M  V30 710 H 63.4933 3.7451 -1.8202 0
M  V30 711 H 66.0903 5.3265 0.467779 0
M  V30 712 H 66.4333 3.90976 1.42982 0
M  V30 713 H 66.9663 3.96897 -0.267929 0
M  V30 714 H 63.7053 6.11518 -2.36063 0
M  V30 715 H 63.2253 5.96214 -0.654895 0
M  V30 716 H 64.9043 6.37955 -1.07805 0
M  V30 717 N 65.0364 0.313813 1.54444 0
M  V30 718 C 66.2844 -0.291099 1.99993 0
M  V30 719 C 66.6054 -1.53418 1.20366 0
M  V30 720 O 65.8754 -1.93544 0.302927 0
M  V30 721 H 64.4554 -0.110552 0.738774 0
M  V30 722 H 67.1174 0.428106 1.9014 0
M  V30 723 H 66.2134 -0.554268 3.07139 0
M  V30 724 N 66.5145 -1.57545 0.0417849 0
M  V30 725 C 67.9305 -1.56467 -0.314704 0
M  V30 726 C 68.1305 -1.04859 -1.72066 0
M  V30 727 O 67.1865 -0.700983 -2.42575 0
M  V30 728 C 68.4995 -3.00317 -0.15174 0
M  V30 729 C 70.0475 -3.12201 -0.223553 0
M  V30 730 C 70.5225 -4.57913 -0.0892295 0
M  V30 731 N 72.0135 -4.6297 -0.145808 0
M  V30 732 C 72.7485 -5.73362 -0.0658459 0
M  V30 733 N 72.2445 -6.92769 0.0659282 0
M  V30 734 N 74.0375 -5.6197 -0.12075 0
M  V30 735 H 66.1885 -1.89416 0.961014 0
M  V30 736 H 68.4515 -0.871862 0.372237 0
M  V30 737 H 68.1575 -3.42073 0.817254 0
M  V30 738 H 68.0315 -3.65892 -0.916692 0
M  V30 739 H 70.4185 -2.70349 -1.18301 0
M  V30 740 H 70.4995 -2.49323 0.571994 0
M  V30 741 H 70.1435 -5.00448 0.866867 0
M  V30 742 H 70.0735 -5.18786 -0.903802 0
M  V30 743 H 72.5645 -3.7709 -0.247286 0
M  V30 744 H 72.8775 -7.72707 0.119905 0
M  V30 745 H 71.2225 -6.94927 0.100885 0
M  V30 746 H 74.4135 -4.67572 -0.222187 0
M  V30 747 H 74.5865 -6.47977 -0.0549735 0
M  V30 748 N 67.9926 0.231505 -1.5589 0
M  V30 749 C 69.2416 0.955346 -1.7764 0
M  V30 750 C 69.5546 1.85893 -0.608546 0
M  V30 751 O 70.7606 2.62067 -0.70943 0
M  V30 752 C 69.2166 1.74886 -3.14552 0
M  V30 753 C 68.8246 0.891915 -4.39032 0
M  V30 754 C 70.5686 2.46452 -3.45633 0
M  V30 755 C 68.4756 1.68221 -5.66971 0
M  V30 756 H 67.4056 0.360446 -0.662265 0
M  V30 757 H 70.0566 0.209516 -1.823 0
M  V30 758 H 68.4386 2.53723 -3.04041 0
M  V30 759 H 69.6126 0.144793 -4.60572 0
M  V30 760 H 67.9276 0.288863 -4.15397 0
M  V30 761 H 70.5246 3.06061 -4.38441 0
M  V30 762 H 70.8676 3.18841 -2.67668 0
M  V30 763 H 71.4006 1.74613 -3.57428 0
M  V30 764 H 68.1396 1.00178 -6.478 0
M  V30 765 H 67.6596 2.4042 -5.49507 0
M  V30 766 H 69.3386 2.24544 -6.06786 0
M  V30 767 N 69.4707 1.49531 0.497807 0
M  V30 768 C 70.7187 1.58865 1.24926 0
M  V30 769 C 71.0397 0.278721 1.92998 0
M  V30 770 O 70.3097 -0.702144 1.82885 0
M  V30 771 H 68.8897 0.585343 0.464094 0
M  V30 772 H 71.5517 1.86174 0.57666 0
M  V30 773 H 70.6477 2.38633 2.01149 0
M  V30 774 N 70.9488 -0.749086 1.3866 0
M  V30 775 C 72.2258 -1.4992 1.25632 0
M  V30 776 C 72.6058 -2.10633 -0.140317 0
M  V30 777 O 71.9538 -1.97437 -1.15025 0
M  V30 778 C 72.1638 -2.56195 2.36992 0
M  V30 779 C 73.5118 -3.22972 2.75634 0
M  V30 780 O 74.5358 -2.66502 2.36337 0
M  V30 781 O 73.3948 -4.25122 3.43415 0
M  V30 782 H 70.4888 -0.665067 0.491544 0
M  V30 783 H 73.0348 -0.784113 1.50498 0
M  V30 784 H 71.8068 -2.09612 3.30422 0
M  V30 785 H 71.4298 -3.35279 2.13714 0
M  V30 786 N 72.4269 -1.23603 -0.977757 0
M  V30 787 C 73.6549 -1.09646 -1.75458 0
M  V30 788 C 74.0699 0.351859 -1.85492 0
M  V30 789 O 73.4269 1.24327 -1.336 0
M  V30 790 C 73.4779 -1.71895 -3.18016 0
M  V30 791 O 73.1989 -3.11063 -3.08498 0
M  V30 792 C 74.6999 -1.63415 -4.12081 0
M  V30 793 H 71.9199 -0.38359 -0.550545 0
M  V30 794 H 74.4639 -1.63507 -1.22824 0
M  V30 795 H 72.6189 -1.22061 -3.67668 0
M  V30 796 H 73.0329 -3.41305 -3.9826 0
M  V30 797 H 74.5069 -2.11669 -5.09804 0
M  V30 798 H 74.9839 -0.593462 -4.35172 0
M  V30 799 H 75.5899 -2.12628 -3.68334 0
M  V30 800 N 73.905 1.17692 -1.04816 0
M  V30 801 C 74.852 2.21581 -0.645797 0
M  V30 802 C 75.822 1.62367 0.350159 0
M  V30 803 O 77.007 1.89254 0.242433 0
M  V30 804 C 74.147 3.45092 -0.0227568 0
M  V30 805 C 73.26 4.18613 -1.06709 0
M  V30 806 C 72.395 5.29602 -0.411767 0
M  V30 807 C 71.434 5.94904 -1.44067 0
M  V30 808 N 70.571 6.97414 -0.809781 0
M  V30 809 H 75.411 2.55353 -1.5362 0
M  V30 810 H 72.948 1.25438 -0.768364 0
M  V30 811 H 74.906 4.15679 0.35588 0
M  V30 812 H 73.536 3.11917 0.831122 0
M  V30 813 H 72.588 3.46779 -1.5636 0
M  V30 814 H 73.9 4.63293 -1.84827 0
M  V30 815 H 73.054 6.06696 0.0206623 0
M  V30 816 H 71.793 4.86045 0.401438 0
M  V30 817 H 70.798 5.16544 -1.88316 0
M  V30 818 H 72.023 6.40542 -2.25571 0
M  V30 819 H 69.969 6.55998 -0.0170186 0
M  V30 820 H 69.886 7.40386 -1.52856 0
M  V30 821 H 71.154 7.78463 -0.401999 0
M  V30 822 N 75.3831 0.828654 1.34056 0
M  V30 823 C 76.6081 0.431637 2.02859 0
M  V30 824 C 77.0331 -0.956339 1.61975 0
M  V30 825 O 76.3911 -1.62338 0.807228 0
M  V30 826 C 76.4391 0.548323 3.56407 0
M  V30 827 O 75.5431 -0.429556 4.10157 0
M  V30 828 H 74.8841 0.176886 0.640006 0
M  V30 829 H 77.4141 1.12066 1.71179 0
M  V30 830 H 77.4241 0.426196 4.05768 0
M  V30 831 H 76.0991 1.5606 3.8551 0
M  V30 832 H 74.6761 -0.265836 3.71951 0
M  V30 833 N 76.8612 -1.46375 0.584142 0
M  V30 834 C 77.7712 -2.34115 -0.150728 0
M  V30 835 C 78.7872 -1.49838 -0.884567 0
M  V30 836 O 79.9632 -1.82704 -0.847429 0
M  V30 837 C 77.0282 -3.2705 -1.15062 0
M  V30 838 C 76.0892 -4.27228 -0.421293 0
M  V30 839 C 75.3222 -5.15722 -1.37355 0
M  V30 840 O 75.5452 -5.07176 -2.61014 0
M  V30 841 O 74.4792 -5.95383 -0.883355 0
M  V30 842 H 78.3052 -2.98309 0.569708 0
M  V30 843 H 75.8902 -1.45373 0.344535 0
M  V30 844 H 77.7722 -3.84381 -1.72712 0
M  V30 845 H 76.4472 -2.65451 -1.8525 0
M  V30 846 H 75.3542 -3.7358 0.197085 0
M  V30 847 H 76.6872 -4.91616 0.239641 0
M  V30 848 N 78.3393 -0.321999 -1.54275 0
M  V30 849 C 79.5883 0.281931 -1.9972 0
M  V30 850 C 79.9013 1.53369 -1.21397 0
M  V30 851 O 81.1073 2.21352 -1.57211 0
M  V30 852 C 79.5633 0.5529 -3.55628 0
M  V30 853 C 79.1713 -0.681721 -4.42783 0
M  V30 854 C 80.9153 1.11687 -4.09544 0
M  V30 855 C 78.8223 -0.382742 -5.9016 0
M  V30 856 H 77.7523 0.109124 -0.746062 0
M  V30 857 H 80.4033 -0.43398 -1.78294 0
M  V30 858 H 78.7853 1.32896 -3.73035 0
M  V30 859 H 79.9593 -1.45723 -4.37151 0
M  V30 860 H 78.2743 -1.1658 -3.99748 0
M  V30 861 H 80.8713 1.35515 -5.17242 0
M  V30 862 H 81.2143 2.06575 -3.61431 0
M  V30 863 H 81.7473 0.402032 -3.95763 0
M  V30 864 H 78.4863 -1.30076 -6.42464 0
M  V30 865 H 78.0063 0.355094 -5.98748 0
M  V30 866 H 79.6853 0.00800157 -6.47 0
M  V30 867 N 79.8174 1.5752 -0.0501392 0
M  V30 868 C 80.7644 2.1147 0.924603 0
M  V30 869 C 81.7344 1.02182 1.30951 0
M  V30 870 O 82.9194 1.29723 1.39916 0
M  V30 871 C 80.0594 2.66337 2.19451 0
M  V30 872 C 79.1724 3.89708 1.86418 0
M  V30 873 C 78.3074 4.32893 3.07859 0
M  V30 874 C 77.3464 5.48967 2.70742 0
M  V30 875 N 76.4834 5.87211 3.84874 0
M  V30 876 H 81.3234 2.94465 0.457639 0
M  V30 877 H 78.8604 1.45531 0.214266 0
M  V30 878 H 80.8184 2.96247 2.93758 0
M  V30 879 H 79.4484 1.86141 2.63726 0
M  V30 880 H 78.5004 3.66396 1.02264 0
M  V30 881 H 79.8124 4.74074 1.55096 0
M  V30 882 H 78.9664 4.6435 3.90466 0
M  V30 883 H 77.7054 3.47336 3.42358 0
M  V30 884 H 76.7104 5.17183 1.86551 0
M  V30 885 H 77.9354 6.3624 2.37436 0
M  V30 886 H 75.8814 5.04607 4.19175 0
M  V30 887 H 75.7984 6.66266 3.57247 0
M  V30 888 H 77.0664 6.23282 4.68123 0
M  V30 889 N 81.2955 -0.223234 1.56011 0
M  V30 890 C 82.5445 -0.945912 1.78144 0
M  V30 891 C 82.8575 -1.85567 0.618396 0
M  V30 892 O 84.0635 -2.61688 0.723318 0
M  V30 893 C 82.5195 -1.73216 3.15475 0
M  V30 894 C 82.1275 -0.868619 4.39499 0
M  V30 895 C 83.8715 -2.44615 3.46935 0
M  V30 896 C 81.7785 -1.65212 5.67855 0
M  V30 897 H 80.7085 -0.356929 0.664167 0
M  V30 898 H 83.3595 -0.199845 1.82409 0
M  V30 899 H 81.7415 -2.52107 3.05382 0
M  V30 900 H 82.9155 -0.120366 4.60643 0
M  V30 901 H 81.2305 -0.26683 4.15544 0
M  V30 902 H 83.8275 -3.03732 4.40058 0
M  V30 903 H 84.1705 -3.17417 2.69355 0
M  V30 904 H 84.7035 -1.72715 3.58349 0
M  V30 905 H 81.4425 -0.967407 6.48322 0
M  V30 906 H 80.9625 -2.37503 5.50774 0
M  V30 907 H 82.6415 -2.21322 6.07968 0
M  V30 908 N 82.7736 -1.49793 -0.48987 0
M  V30 909 C 83.7036 -1.70201 -1.59856 0
M  V30 910 C 84.6846 -0.55076 -1.60937 0
M  V30 911 O 85.8696 -0.787841 -1.77501 0
M  V30 912 C 82.9996 -1.77882 -2.98287 0
M  V30 913 C 81.9536 -2.92907 -3.12073 0
M  V30 914 C 81.2796 -2.85712 -4.51965 0
M  V30 915 C 82.5796 -4.3369 -2.91051 0
M  V30 916 H 84.2736 -2.63025 -1.43032 0
M  V30 917 H 81.8196 -1.26574 -0.686664 0
M  V30 918 H 83.7726 -1.90744 -3.75759 0
M  V30 919 H 82.4966 -0.816653 -3.16225 0
M  V30 920 H 81.1556 -2.79665 -2.37029 0
M  V30 921 H 80.8036 -1.8738 -4.66795 0
M  V30 922 H 80.5036 -3.62921 -4.62128 0
M  V30 923 H 82.0276 -3.00598 -5.31482 0
M  V30 924 H 83.4416 -4.47555 -3.58284 0
M  V30 925 H 81.8386 -5.12205 -3.12675 0
M  V30 926 H 82.9086 -4.47362 -1.87071 0
M  V30 927 N 84.2517 0.741722 -1.39055 0
M  V30 928 C 85.4767 1.53607 -1.39354 0
M  V30 929 C 85.9017 1.88096 0.0116905 0
M  V30 930 O 85.2597 1.5143 0.996924 0
M  V30 931 C 85.3077 2.80441 -2.26682 0
M  V30 932 O 84.4117 3.76088 -1.69208 0
M  V30 933 H 83.7527 0.464142 -0.474835 0
M  V30 934 H 86.2827 0.915665 -1.82967 0
M  V30 935 H 86.2927 3.29246 -2.40959 0
M  V30 936 H 84.9677 2.5467 -3.2881 0
M  V30 937 H 83.5447 3.34833 -1.64138 0
M  V30 938 N 85.7298 1.2412 0.971189 0
M  V30 939 C 86.9788 1.07284 1.70801 0
M  V30 940 C 87.2918 -0.388902 1.91695 0
M  V30 941 O 88.4978 -0.677379 2.62914 0
M  V30 942 C 86.9538 1.87145 3.07416 0
M  V30 943 C 86.5618 3.37707 2.94377 0
M  V30 944 C 88.3058 1.78828 3.84995 0
M  V30 945 C 86.2128 4.09925 4.26281 0
M  V30 946 H 85.1428 0.397854 0.64049 0
M  V30 947 H 87.7938 1.4817 1.0825 0
M  V30 948 H 86.1758 1.39071 3.70777 0
M  V30 949 H 87.3498 3.93335 2.4005 0
M  V30 950 H 85.6648 3.46938 2.30267 0
M  V30 951 H 88.2618 2.30089 4.82662 0
M  V30 952 H 88.6048 0.75284 4.09436 0
M  V30 953 H 89.1378 2.24563 3.28354 0
M  V30 954 H 85.8768 5.13813 4.07033 0
M  V30 955 H 85.3968 3.59083 4.80437 0
M  V30 956 H 87.0758 4.1673 4.94919 0
M  V30 957 N 87.2079 -1.17134 1.05439 0
M  V30 958 C 88.4559 -1.87085 0.764429 0
M  V30 959 C 88.7769 -1.81584 -0.710787 0
M  V30 960 O 88.0469 -1.24349 -1.51374 0
M  V30 961 H 86.6269 -0.692627 0.279779 0
M  V30 962 H 89.2889 -1.42087 1.33406 0
M  V30 963 H 88.3849 -2.92759 1.0816 0
M  V30 964 N 88.686 -0.835752 -1.33615 0
M  V30 965 C 89.934 -0.429109 -1.97492 0
M  V30 966 C 90.255 1.01433 -1.66543 0
M  V30 967 O 89.525 1.70611 -0.962744 0
M  V30 968 H 88.105 -0.155686 -0.730596 0
M  V30 969 H 90.767 -1.06802 -1.63031 0
M  V30 970 H 89.863 -0.55861 -3.0706 0
M  V30 971 N 90.1641 1.46063 -0.591896 0
M  V30 972 C 91.4121 2.01938 -0.0808391 0
M  V30 973 C 91.7331 1.46475 1.28725 0
M  V30 974 O 91.0031 0.652944 1.84698 0
M  V30 975 H 89.5831 0.746516 -0.0268938 0
M  V30 976 H 92.2451 1.79055 -0.769752 0
M  V30 977 H 91.3411 3.12094 -0.0187578 0
M  V30 978 N 91.6422 0.330177 1.54103 0
M  V30 979 C 92.6052 -0.520144 2.2322 0
M  V30 980 C 93.6052 -1.03828 1.22786 0
M  V30 981 O 94.7952 -0.929652 1.4732 0
M  V30 982 C 91.9272 -1.72317 2.94142 0
M  V30 983 H 93.1202 0.0841605 2.99782 0
M  V30 984 H 90.6732 0.0813433 1.56088 0
M  V30 985 H 91.4082 -2.36653 2.21734 0
M  V30 986 H 91.1932 -1.35898 3.67796 0
M  V30 987 H 92.6832 -2.3266 3.46784 0
M  V30 988 N 93.1203 -1.57491 0.0584922 0
M  V30 989 C 94.3683 -1.92597 -0.612436 0
M  V30 990 C 94.6893 -0.938162 -1.70949 0
M  V30 991 O 93.9593 0.0158301 -1.95894 0
M  V30 992 H 92.5393 -0.710964 -0.229214 0
M  V30 993 H 95.2013 -1.94571 0.113218 0
M  V30 994 H 94.2973 -2.94038 -1.04633 0
M  V30 995 N 94.5984 0.214957 -1.56127 0
M  V30 996 C 95.5084 1.28727 -1.96129 0
M  V30 997 C 96.5244 1.50916 -0.866044 0
M  V30 998 O 97.7004 1.63918 -1.17016 0
M  V30 999 C 94.7654 2.61569 -2.27558 0
M  V30 1000 C 93.8264 2.47625 -3.50685 0
M  V30 1001 C 93.0594 3.74132 -3.80606 0
M  V30 1002 O 93.2824 4.77438 -3.12104 0
M  V30 1003 O 92.2164 3.70849 -4.74083 0
M  V30 1004 H 96.0424 0.977855 -2.87527 0
M  V30 1005 H 93.6274 0.418358 -1.43423 0
M  V30 1006 H 95.5094 3.40012 -2.48938 0
M  V30 1007 H 94.1844 2.92178 -1.39332 0
M  V30 1008 H 93.0914 1.67361 -3.34576 0
M  V30 1009 H 94.4244 2.21954 -4.39315 0
M  V30 1010 N 96.0765 1.50051 0.48192 0
M  V30 1011 C 97.3255 1.59741 1.23149 0
M  V30 1012 C 97.6385 0.298163 1.93314 0
M  V30 1013 O 98.8445 0.273835 2.70116 0
M  V30 1014 C 97.3005 2.81926 2.23708 0
M  V30 1015 C 96.9085 4.18685 1.59396 0
M  V30 1016 C 98.6525 3.00956 2.99375 0
M  V30 1017 C 96.5595 5.3207 2.58178 0
M  V30 1018 H 95.4895 0.594838 0.46334 0
M  V30 1019 H 98.1405 1.76467 0.503169 0
M  V30 1020 H 96.5225 2.58736 2.99786 0
M  V30 1021 H 97.6965 4.52088 0.891811 0
M  V30 1022 H 96.0115 4.05171 0.960503 0
M  V30 1023 H 98.6085 3.82836 3.73283 0
M  V30 1024 H 98.9515 2.12258 3.58123 0
M  V30 1025 H 99.4845 3.24277 2.30411 0
M  V30 1026 H 96.2235 6.22888 2.04184 0
M  V30 1027 H 95.7435 5.03098 3.26577 0
M  V30 1028 H 97.4225 5.62196 3.20225 0
M  V30 1029 N 97.5546 -0.734337 1.39446 0
M  V30 1030 C 98.8316 -1.48579 1.27215 0
M  V30 1031 C 99.2116 -2.1077 -0.117968 0
M  V30 1032 O 98.5596 -1.98646 -1.12924 0
M  V30 1033 C 98.7696 -2.53667 2.39696 0
M  V30 1034 C 100.118 -3.20031 2.79044 0
M  V30 1035 O 101.142 -2.6398 2.39151 0
M  V30 1036 O 100.001 -4.21455 3.47905 0
M  V30 1037 H 97.0946 -0.659816 0.49857 0
M  V30 1038 H 99.6406 -0.768106 1.51322 0
M  V30 1039 H 98.4126 -2.06096 3.32626 0
M  V30 1040 H 98.0356 -3.32994 2.17258 0
M  V30 1041 N 99.0327 -1.24633 -0.964593 0
M  V30 1042 C 99.9627 -1.06611 -2.07741 0
M  V30 1043 C 100.944 0.0218666 -1.70086 0
M  V30 1044 O 102.129 -0.145793 -1.93652 0
M  V30 1045 C 99.2587 -0.673444 -3.40708 0
M  V30 1046 C 98.2127 -1.71054 -3.92332 0
M  V30 1047 C 97.5387 -1.17285 -5.21678 0
M  V30 1048 C 98.8387 -3.10718 -4.19824 0
M  V30 1049 H 100.533 -1.99693 -2.23076 0
M  V30 1050 H 98.0787 -0.96152 -1.07195 0
M  V30 1051 H 100.032 -0.534345 -4.17998 0
M  V30 1052 H 98.7557 0.293073 -3.25282 0
M  V30 1053 H 97.4147 -1.83791 -3.17201 0
M  V30 1054 H 97.0627 -0.196847 -5.02615 0
M  V30 1055 H 96.7627 -1.86592 -5.57187 0
M  V30 1056 H 98.2867 -1.04593 -6.01575 0
M  V30 1057 H 99.7007 -3.01192 -4.87808 0
M  V30 1058 H 98.0977 -3.77406 -4.66567 0
M  V30 1059 H 99.1677 -3.58524 -3.26479 0
M  V30 1060 N 100.511 1.16574 -1.06058 0
M  V30 1061 C 101.443 2.2045 -0.627239 0
M  V30 1062 C 102.456 1.59752 0.313534 0
M  V30 1063 O 103.645 1.78192 0.104896 0
M  V30 1064 C 100.745 3.3875 0.100974 0
M  V30 1065 C 99.9178 4.29008 -0.852687 0
M  V30 1066 C 98.9768 5.25944 -0.164152 0
M  V30 1067 O 98.0028 5.63535 -0.801047 0
M  V30 1068 N 99.2048 5.70075 1.09518 0
M  V30 1069 H 101.97 2.58249 -1.52077 0
M  V30 1070 H 99.5308 1.3156 -0.943594 0
M  V30 1071 H 101.523 4.00638 0.57194 0
M  V30 1072 H 100.093 2.99476 0.89628 0
M  V30 1073 H 99.3128 3.64419 -1.50308 0
M  V30 1074 H 100.601 4.86195 -1.49972 0
M  V30 1075 H 99.9988 5.41624 1.6328 0
M  V30 1076 H 98.5558 6.34067 1.51006 0
M  V30 1077 N 101.989 0.842826 1.3317 0
M  V30 1078 C 103.238 0.436738 1.96915 0
M  V30 1079 C 103.551 -1.01025 1.67491 0
M  V30 1080 O 104.757 -1.5212 2.24881 0
M  V30 1081 C 103.213 0.730021 3.52418 0
M  V30 1082 C 102.821 2.19195 3.90714 0
M  V30 1083 C 104.565 0.391076 4.22695 0
M  V30 1084 C 102.472 2.42907 5.39212 0
M  V30 1085 H 101.402 0.15958 0.736919 0
M  V30 1086 H 104.053 1.03196 1.51733 0
M  V30 1087 H 102.435 0.0643755 3.95948 0
M  V30 1088 H 103.609 2.8984 3.58231 0
M  V30 1089 H 101.924 2.49425 3.33431 0
M  V30 1090 H 104.521 0.545817 5.31907 0
M  V30 1091 H 104.864 -0.666294 4.10933 0
M  V30 1092 H 105.397 1.01212 3.84709 0
M  V30 1093 H 102.136 3.47224 5.55982 0
M  V30 1094 H 101.656 1.76827 5.73142 0
M  V30 1095 H 103.335 2.2626 6.06148 0
M  V30 1096 N 103.467 -1.45747 0.599634 0
M  V30 1097 C 104.397 -2.33235 -0.111306 0
M  V30 1098 C 105.378 -1.46359 -0.866781 0
M  V30 1099 O 106.563 -1.75146 -0.838904 0
M  V30 1100 C 103.693 -3.28932 -1.11451 0
M  V30 1101 C 102.647 -4.25381 -0.472772 0
M  V30 1102 C 101.973 -5.1071 -1.58365 0
M  V30 1103 C 103.273 -5.18831 0.600948 0
M  V30 1104 H 104.967 -2.92927 0.61919 0
M  V30 1105 H 102.513 -1.40857 0.299215 0
M  V30 1106 H 104.466 -3.89002 -1.62036 0
M  V30 1107 H 103.19 -2.67381 -1.8755 0
M  V30 1108 H 101.849 -3.66598 0.0121472 0
M  V30 1109 H 101.497 -4.45533 -2.33473 0
M  V30 1110 H 101.197 -5.7604 -1.15982 0
M  V30 1111 H 102.721 -5.73647 -2.09194 0
M  V30 1112 H 104.135 -5.73019 0.179491 0
M  V30 1113 H 102.532 -5.92595 0.946076 0
M  V30 1114 H 103.602 -4.6174 1.48068 0
M  V30 1115 N 104.945 -0.338344 -1.53925 0
M  V30 1116 C 106.17 0.263987 -2.05713 0
M  V30 1117 C 106.595 1.43847 -1.21201 0
M  V30 1118 O 105.953 1.79904 -0.224535 0
M  V30 1119 C 106.001 0.662 -3.54471 0
M  V30 1120 O 105.105 1.76265 -3.72833 0
M  V30 1121 H 104.446 0.0448722 -0.662482 0
M  V30 1122 H 106.976 -0.491048 -1.9862 0
M  V30 1123 H 106.986 0.940594 -3.9701 0
M  V30 1124 H 105.661 -0.196937 -4.15433 0
M  V30 1125 H 104.238 1.48173 -3.42198 0
M  V30 1126 N 106.423 1.57458 -0.0668435 0
M  V30 1127 C 107.37 2.12439 0.902122 0
M  V30 1128 C 108.34 1.03565 1.2986 0
M  V30 1129 O 109.525 1.312 1.38532 0
M  V30 1130 C 106.665 2.6865 2.16614 0
M  V30 1131 C 105.778 3.91663 1.82274 0
M  V30 1132 C 104.913 4.36134 3.0325 0
M  V30 1133 C 103.952 5.51808 2.64904 0
M  V30 1134 N 103.089 5.9126 3.78624 0
M  V30 1135 H 107.929 2.94934 0.426382 0
M  V30 1136 H 105.466 1.4575 0.198819 0
M  V30 1137 H 107.424 2.99346 2.90599 0
M  V30 1138 H 106.054 1.88928 2.61737 0
M  V30 1139 H 105.106 3.6746 0.983719 0
M  V30 1140 H 106.418 4.75693 1.50059 0
M  V30 1141 H 105.572 4.68465 3.85519 0
M  V30 1142 H 104.311 3.50948 3.38655 0
M  V30 1143 H 103.316 5.19133 1.81055 0
M  V30 1144 H 104.541 6.38722 2.30675 0
M  V30 1145 H 102.487 5.09024 4.138 0
M  V30 1146 H 102.404 6.70018 3.5016 0
M  V30 1147 H 103.672 6.28212 4.61486 0
M  V30 1148 N 107.901 -0.206675 1.56239 0
M  V30 1149 C 109.147 -0.930218 1.80208 0
M  V30 1150 C 109.48 -1.83387 0.638981 0
M  V30 1151 O 108.755 -1.91119 -0.361066 0
M  V30 1152 C 109.038 -1.75641 3.1436 0
M  V30 1153 C 108.891 -0.878257 4.41142 0
M  V30 1154 C 110.21 -2.73129 3.45092 0
M  V30 1155 H 107.329 -0.336742 0.655571 0
M  V30 1156 H 109.971 -0.198222 1.88963 0
M  V30 1157 H 108.121 -2.38048 3.07027 0
M  V30 1158 H 109.793 -0.269787 4.6051 0
M  V30 1159 H 108.036 -0.184385 4.33408 0
M  V30 1160 H 108.707 -1.49106 5.3148 0
M  V30 1161 H 111.183 -2.20856 3.52649 0
M  V30 1162 H 110.059 -3.28028 4.40101 0
M  V30 1163 H 110.32 -3.51606 2.68003 0
M  V30 1164 N 109.379 -1.50304 -0.473955 0
M  V30 1165 C 110.311 -1.65109 -1.58971 0
M  V30 1166 C 111.324 -0.532676 -1.53839 0
M  V30 1167 O 112.513 -0.805751 -1.59279 0
M  V30 1168 C 109.613 -1.61684 -2.97845 0
M  V30 1169 C 108.786 -2.8951 -3.27876 0
M  V30 1170 C 107.845 -2.78768 -4.4629 0
M  V30 1171 O 106.871 -3.52722 -4.46739 0
M  V30 1172 N 108.073 -1.9213 -5.47783 0
M  V30 1173 H 110.838 -2.61347 -1.46689 0
M  V30 1174 H 108.399 -1.47732 -0.662324 0
M  V30 1175 H 110.391 -1.52114 -3.75024 0
M  V30 1176 H 108.961 -0.731925 -3.03911 0
M  V30 1177 H 108.181 -3.13228 -2.39336 0
M  V30 1178 H 109.469 -3.74199 -3.4475 0
M  V30 1179 H 108.867 -1.31353 -5.50239 0
M  V30 1180 H 107.424 -1.88466 -6.23958 0
M  V30 1181 N 110.857 0.726932 -1.39834 0
M  V30 1182 C 111.82 1.82269 -1.38962 0
M  V30 1183 C 112.82 1.58248 -0.285334 0
M  V30 1184 O 114.01 1.65499 -0.54366 0
M  V30 1185 C 111.142 3.20186 -1.17019 0
M  V30 1186 H 112.335 1.84443 -2.36476 0
M  V30 1187 H 109.888 0.931416 -1.25516 0
M  V30 1188 H 110.623 3.23669 -0.202204 0
M  V30 1189 H 110.408 3.3902 -1.96998 0
M  V30 1190 H 111.898 4.00235 -1.1917 0
M  V30 1191 N 112.336 1.25143 0.95797 0
M  V30 1192 C 113.268 1.01023 2.05735 0
M  V30 1193 C 114.281 -0.0236902 1.62783 0
M  V30 1194 O 115.47 0.21448 1.77207 0
M  V30 1195 C 112.57 0.504595 3.35122 0
M  V30 1196 C 111.743 1.6039 4.06932 0
M  V30 1197 C 110.802 1.09922 5.14591 0
M  V30 1198 O 109.828 1.79293 5.40225 0
M  V30 1199 N 111.03 -0.0612545 5.80468 0
M  V30 1200 H 113.795 1.95683 2.26998 0
M  V30 1201 H 111.356 1.16303 1.12629 0
M  V30 1202 H 113.348 0.151516 4.04416 0
M  V30 1203 H 111.918 -0.347989 3.10657 0
M  V30 1204 H 111.138 2.12872 3.31782 0
M  V30 1205 H 112.426 2.34252 4.51667 0
M  V30 1206 H 111.824 -0.640985 5.62057 0
M  V30 1207 H 110.381 -0.355395 6.5083 0
M  V30 1208 N 113.814 -1.1601 1.06675 0
M  V30 1209 C 115.044 -1.90251 0.805497 0
M  V30 1210 C 115.452 -1.77891 -0.64431 0
M  V30 1211 O 114.795 -1.12383 -1.45313 0
M  V30 1212 C 114.857 -3.41419 1.12576 0
M  V30 1213 C 114.521 -3.77564 2.57477 0
M  V30 1214 C 115.518 -3.79161 3.55715 0
M  V30 1215 C 113.203 -4.08079 2.92877 0
M  V30 1216 C 115.197 -4.10767 4.8739 0
M  V30 1217 C 112.884 -4.39351 4.24751 0
M  V30 1218 C 113.882 -4.40675 5.21818 0
M  V30 1219 O 113.57 -4.71202 6.51325 0
M  V30 1220 H 113.302 -0.610018 0.291297 0
M  V30 1221 H 115.856 -1.47958 1.4247 0
M  V30 1222 H 114.086 -3.84079 0.449503 0
M  V30 1223 H 115.775 -3.9694 0.84814 0
M  V30 1224 H 116.541 -3.55693 3.29708 0
M  V30 1225 H 112.42 -4.06211 2.17976 0
M  V30 1226 H 115.964 -4.11715 5.63148 0
M  V30 1227 H 111.861 -4.62285 4.50514 0
M  V30 1228 H 112.629 -4.88996 6.56373 0
M  V30 1229 N 115.292 -0.849877 -1.32721 0
M  V30 1230 C 116.703 -0.506188 -1.79707 0
M  V30 1231 C 117.054 0.975627 -1.70223 0
M  V30 1232 O 116.179 1.76078 -1.25799 0
M  V30 1233 C 116.774 -0.912044 -3.26293 0
M  V30 1234 C 115.333 -0.620326 -3.71253 0
M  V30 1235 C 114.48 -1.11439 -2.53922 0
M  V30 1236 H 117.431 -1.03754 -1.20087 0
M  V30 1237 H 117.452 -0.226493 -3.79825 0
M  V30 1238 H 116.964 -1.99057 -3.33164 0
M  V30 1239 H 115.065 0.447674 -3.69901 0
M  V30 1240 H 115.178 -1.18327 -4.64258 0
M  V30 1241 H 113.542 -0.534834 -2.49021 0
M  V30 1242 H 114.325 -2.19992 -2.6355 0
M  V30 1243 N 116.77 1.45427 -0.607355 0
M  V30 1244 C 118.018 2.01841 -0.102253 0
M  V30 1245 C 118.339 1.47832 1.27164 0
M  V30 1246 O 117.609 0.672497 1.83995 0
M  V30 1247 H 116.189 0.746188 -0.0348101 0
M  V30 1248 H 118.851 1.78229 -0.7887 0
M  V30 1249 H 117.947 3.12057 -0.0518585 0
M  V30 1250 N 118.248 0.346503 1.53744 0
M  V30 1251 C 119.494 -0.249473 2.0126 0
M  V30 1252 C 119.827 -1.49965 1.23386 0
M  V30 1253 O 119.102 -1.91811 0.32229 0
M  V30 1254 C 119.385 -0.560643 3.55709 0
M  V30 1255 C 119.238 0.701836 4.44291 0
M  V30 1256 C 120.557 -1.36905 4.18264 0
M  V30 1257 H 117.676 -0.0891987 0.731582 0
M  V30 1258 H 120.318 0.467624 1.84156 0
M  V30 1259 H 118.468 -1.17156 3.70414 0
M  V30 1260 H 120.14 1.33974 4.41417 0
M  V30 1261 H 118.383 1.32612 4.13033 0
M  V30 1262 H 119.054 0.43933 5.50249 0
M  V30 1263 H 121.53 -0.852448 4.07275 0
M  V30 1264 H 120.406 -1.55553 5.26398 0
M  V30 1265 H 120.667 -2.37203 3.73078 0
M  V30 1266 N 119.726 -1.57421 0.075193 0
M  V30 1267 C 120.966 -1.95495 -0.596757 0
M  V30 1268 C 121.33 -0.954886 -1.66571 0
M  V30 1269 O 122.531 -1.22341 -2.39345 0
M  V30 1270 C 120.802 -3.382 -1.15566 0
M  V30 1271 S 122.361 -3.98254 -1.84226 0
M  V30 1272 H 119.179 -0.683649 -0.195307 0
M  V30 1273 H 121.781 -1.94925 0.149859 0
M  V30 1274 H 120.485 -4.08766 -0.36588 0
M  V30 1275 H 120.016 -3.42321 -1.93856 0
M  V30 1276 H 122.031 -3.85435 -3.12497 0
M  V30 1277 N 121.204 0.198386 -1.56346 0
M  V30 1278 C 122.453 0.917451 -1.79627 0
M  V30 1279 C 122.766 1.8456 -0.64784 0
M  V30 1280 O 123.972 2.60504 -0.764859 0
M  V30 1281 C 122.428 1.68175 -3.18191 0
M  V30 1282 C 122.036 0.798589 -4.40825 0
M  V30 1283 C 123.78 2.39065 -3.50782 0
M  V30 1284 C 121.687 1.56157 -5.70411 0
M  V30 1285 H 120.617 0.346317 -0.669762 0
M  V30 1286 H 123.268 0.170801 -1.82703 0
M  V30 1287 H 121.65 2.47216 -3.09354 0
M  V30 1288 H 122.824 0.0470665 -4.60776 0
M  V30 1289 H 121.139 0.200686 -4.15916 0
M  V30 1290 H 123.736 2.96692 -4.44835 0
M  V30 1291 H 124.079 3.13091 -2.74371 0
M  V30 1292 H 124.612 1.66993 -3.61052 0
M  V30 1293 H 121.351 0.864142 -6.49779 0
M  V30 1294 H 120.871 2.2871 -5.54483 0
M  V30 1295 H 122.55 2.11622 -6.11412 0
M  V30 1296 N 122.682 1.50554 0.465978 0
M  V30 1297 C 123.63 1.70324 1.58406 0
M  V30 1298 C 124.624 0.569139 1.59553 0
M  V30 1299 O 125.83 0.749776 1.63641 0
M  V30 1300 H 122.205 0.537688 0.525734 0
M  V30 1301 H 124.176 2.64104 1.38894 0
M  V30 1302 C 122.925 1.81928 2.96307 0
M  V30 1303 H 122.248 2.68586 2.96144 0
M  V30 1304 H 123.688 1.99784 3.73982 0
M  V30 1305 C 122.147 0.572095 3.32007 0
M  V30 1306 O 122.677 -0.286416 4.00678 0
M  V30 1307 N 120.883 0.424606 2.87481 0
M  V30 1308 H 120.43 1.12427 2.31771 0
M  V30 1309 H 120.388 -0.408697 3.11732 0
M  V30 1310 N 124.16 -0.719506 1.40217 0
M  V30 1311 C 125.108 -1.85493 1.40339 0
M  V30 1312 C 126.102 -1.66995 0.284415 0
M  V30 1313 O 127.308 -1.74148 0.455252 0
M  V30 1314 H 123.683 -0.610857 0.438586 0
M  V30 1315 H 125.654 -1.82506 2.36081 0
M  V30 1316 C 124.403 -3.23321 1.27901 0
M  V30 1317 H 123.726 -3.38159 2.1328 0
M  V30 1318 H 125.166 -4.02914 1.32045 0
M  V30 1319 C 123.625 -3.36898 -0.0111355 0
M  V30 1320 O 124.155 -3.89674 -0.975538 0
M  V30 1321 N 122.361 -2.90492 -0.0793393 0
M  V30 1322 H 121.908 -2.47731 0.706183 0
M  V30 1323 H 121.866 -2.99955 -0.942038 0
M  V30 1324 N 125.638 -1.25649 -0.95132 0
M  V30 1325 C 126.548 -1.08073 -2.08224 0
M  V30 1326 C 127.564 -0.0169666 -1.73992 0
M  V30 1327 O 128.74 -0.218593 -2.0021 0
M  V30 1328 C 125.805 -0.704922 -3.39458 0
M  V30 1329 C 124.866 -1.84699 -3.87537 0
M  V30 1330 C 124.099 -1.48902 -5.12508 0
M  V30 1331 O 124.322 -0.386156 -5.69091 0
M  V30 1332 O 123.256 -2.32033 -5.55378 0
M  V30 1333 H 127.082 -2.02924 -2.25954 0
M  V30 1334 H 124.667 -1.04618 -1.06656 0
M  V30 1335 H 126.549 -0.507609 -4.18332 0
M  V30 1336 H 125.224 0.214291 -3.2299 0
M  V30 1337 H 124.131 -2.09919 -3.09653 0
M  V30 1338 H 125.464 -2.74557 -4.08509 0
M  V30 1339 N 127.117 1.15442 -1.07289 0
M  V30 1340 C 128.363 1.86489 -0.796846 0
M  V30 1341 C 128.696 1.82078 0.675371 0
M  V30 1342 O 127.971 1.24346 1.4956 0
M  V30 1343 C 128.254 3.35626 -1.30489 0
M  V30 1344 C 128.107 3.48673 -2.84161 0
M  V30 1345 C 129.426 4.30357 -0.920907 0
M  V30 1346 H 126.545 0.677144 -0.290939 0
M  V30 1347 H 129.187 1.35633 -1.33056 0
M  V30 1348 H 127.337 3.79068 -0.850883 0
M  V30 1349 H 129.009 3.14099 -3.37846 0
M  V30 1350 H 127.252 2.90253 -3.22391 0
M  V30 1351 H 127.923 4.53453 -3.14777 0
M  V30 1352 H 130.399 3.94871 -1.3121 0
M  V30 1353 H 129.275 5.33193 -1.30372 0
M  V30 1354 H 129.536 4.4176 0.173226 0
M  V30 1355 N 128.595 0.856903 1.32268 0
M  V30 1356 C 129.841 0.462069 1.97466 0
M  V30 1357 C 130.174 -0.980298 1.67642 0
M  V30 1358 O 129.449 -1.68824 0.965858 0
M  V30 1359 C 129.732 0.704336 3.53145 0
M  V30 1360 C 129.585 2.19529 3.9259 0
M  V30 1361 C 130.904 0.1622 4.39801 0
M  V30 1362 H 128.023 0.169357 0.717278 0
M  V30 1363 H 130.665 1.07574 1.56614 0
M  V30 1364 H 128.815 0.181999 3.88073 0
M  V30 1365 H 130.487 2.78387 3.67829 0
M  V30 1366 H 128.73 2.67292 3.41668 0
M  V30 1367 H 129.401 2.31549 5.01088 0
M  V30 1368 H 131.877 0.608905 4.11621 0
M  V30 1369 H 130.753 0.361265 5.4771 0
M  V30 1370 H 131.014 -0.935158 4.32096 0
M  V30 1371 N 130.073 -1.45103 0.615059 0
M  V30 1372 C 130.983 -2.34382 -0.101034 0
M  V30 1373 C 131.999 -1.51681 -0.852585 0
M  V30 1374 O 133.175 -1.8446 -0.808484 0
M  V30 1375 C 130.24 -3.29417 -1.08099 0
M  V30 1376 C 129.301 -4.28025 -0.330577 0
M  V30 1377 C 128.534 -5.1852 -1.26385 0
M  V30 1378 O 128.757 -5.12598 -2.50198 0
M  V30 1379 O 127.691 -5.97122 -0.756866 0
M  V30 1380 H 131.517 -2.97033 0.632855 0
M  V30 1381 H 129.102 -1.4461 0.375293 0
M  V30 1382 H 130.984 -3.87958 -1.6452 0
M  V30 1383 H 129.659 -2.69321 -1.79577 0
M  V30 1384 H 128.566 -3.73078 0.276283 0
M  V30 1385 H 129.899 -4.90997 0.343866 0
M  V30 1386 N 131.551 -0.354651 -1.53558 0
M  V30 1387 C 132.962 0.126902 -1.86268 0
M  V30 1388 C 133.313 1.49075 -1.27558 0
M  V30 1389 O 132.438 2.08105 -0.5934 0
M  V30 1390 C 133.033 0.237046 -3.3797 0
M  V30 1391 C 131.592 0.662842 -3.70518 0
M  V30 1392 C 130.739 -0.196652 -2.76602 0
M  V30 1393 H 133.69 -0.573849 -1.47962 0
M  V30 1394 H 133.711 1.06259 -3.65362 0
M  V30 1395 H 133.223 -0.755725 -3.80671 0
M  V30 1396 H 131.324 1.66424 -3.33367 0
M  V30 1397 H 131.437 0.445034 -4.77029 0
M  V30 1398 H 129.801 0.332763 -2.52517 0
M  V30 1399 H 130.584 -1.18676 -3.22135 0
M  V30 1400 N 133.029 1.57378 -0.0835403 0
M  V30 1401 C 134.254 1.98682 0.594987 0
M  V30 1402 C 134.679 0.961969 1.61641 0
M  V30 1403 O 134.037 -0.0709989 1.81161 0
M  V30 1404 C 134.085 3.38988 1.2296 0
M  V30 1405 O 133.189 3.39208 2.34546 0
M  V30 1406 H 132.53 0.646368 0.152002 0
M  V30 1407 H 135.06 2.03961 -0.161533 0
M  V30 1408 H 135.07 3.76431 1.57366 0
M  V30 1409 H 133.745 4.13107 0.481228 0
M  V30 1410 H 132.322 3.13548 2.01846 0
M  V30 1411 N 134.507 -0.190092 1.56449 0
M  V30 1412 C 135.47 -1.21925 1.9408 0
M  V30 1413 C 136.47 -1.38176 0.822431 0
M  V30 1414 O 137.66 -1.35903 1.08977 0
M  V30 1415 C 134.792 -2.58773 2.21922 0
M  V30 1416 H 135.985 -0.897464 2.86157 0
M  V30 1417 H 133.538 -0.43181 1.50217 0
M  V30 1418 H 134.273 -2.95998 1.32499 0
M  V30 1419 H 134.058 -2.48348 3.03424 0
M  V30 1420 H 135.548 -3.32978 2.52022 0
M  V30 1421 N 135.985 -1.50799 -0.457987 0
M  V30 1422 C 136.895 -1.73426 -1.57989 0
M  V30 1423 C 137.911 -0.617745 -1.62665 0
M  V30 1424 O 139.087 -0.897614 -1.80291 0
M  V30 1425 C 136.152 -1.83557 -2.94122 0
M  V30 1426 C 135.213 -3.07345 -2.99729 0
M  V30 1427 C 134.446 -3.16983 -4.29368 0
M  V30 1428 O 134.669 -2.33077 -5.20607 0
M  V30 1429 O 133.603 -4.09812 -4.40837 0
M  V30 1430 H 137.429 -2.68555 -1.41817 0
M  V30 1431 H 135.014 -1.35052 -0.638859 0
M  V30 1432 H 136.896 -1.92326 -3.74952 0
M  V30 1433 H 135.571 -0.916137 -3.10465 0
M  V30 1434 H 134.478 -3.04068 -2.1793 0
M  V30 1435 H 135.811 -3.9891 -2.88326 0
M  V30 1436 N 137.463 0.71206 -1.40597 0
M  V30 1437 C 138.395 1.83704 -1.37061 0
M  V30 1438 C 139.408 1.60453 -0.275426 0
M  V30 1439 O 140.597 1.70262 -0.53602 0
M  V30 1440 C 137.697 3.20172 -1.11099 0
M  V30 1441 C 136.87 3.7059 -2.3234 0
M  V30 1442 C 135.929 4.85681 -2.02485 0
M  V30 1443 O 134.955 4.9815 -2.75382 0
M  V30 1444 N 136.157 5.71735 -1.00497 0
M  V30 1445 H 138.922 1.87235 -2.34016 0
M  V30 1446 H 136.483 0.893739 -1.34996 0
M  V30 1447 H 138.475 3.94768 -0.891064 0
M  V30 1448 H 137.045 3.11767 -0.227989 0
M  V30 1449 H 136.265 2.87085 -2.7014 0
M  V30 1450 H 137.553 4.01011 -3.13157 0
M  V30 1451 H 136.951 5.64275 -0.401298 0
M  V30 1452 H 135.508 6.463 -0.844942 0
M  V30 1453 N 138.941 1.26152 0.944643 0
M  V30 1454 C 140.19 1.10883 1.68487 0
M  V30 1455 C 140.503 -0.348153 1.92477 0
M  V30 1456 O 141.709 -0.621459 2.64292 0
M  V30 1457 C 140.165 1.93624 3.03377 0
M  V30 1458 C 139.773 3.43875 2.87148 0
M  V30 1459 C 141.517 1.86954 3.81115 0
M  V30 1460 C 139.424 4.18875 4.1749 0
M  V30 1461 H 138.354 0.41135 0.631907 0
M  V30 1462 H 141.005 1.50433 1.05082 0
M  V30 1463 H 139.387 1.46904 3.67743 0
M  V30 1464 H 140.561 3.98338 2.31653 0
M  V30 1465 H 138.876 3.51744 2.22856 0
M  V30 1466 H 141.473 2.40275 4.77673 0
M  V30 1467 H 141.816 0.839518 4.07747 0
M  V30 1468 H 142.349 2.31477 3.23517 0
M  V30 1469 H 139.088 5.22332 3.96043 0
M  V30 1470 H 138.608 3.69193 4.72712 0
M  V30 1471 H 140.287 4.27134 4.85968 0
M  V30 1472 N 140.419 -1.14872 1.07899 0
M  V30 1473 C 141.382 -2.17986 0.708161 0
M  V30 1474 C 142.382 -1.58775 -0.25442 0
M  V30 1475 O 143.572 -1.74166 -0.034645 0
M  V30 1476 C 140.704 -3.40871 0.0446929 0
M  V30 1477 H 141.897 -2.52306 1.62116 0
M  V30 1478 H 139.45 -1.2943 0.876218 0
M  V30 1479 H 140.185 -3.12124 -0.880281 0
M  V30 1480 H 139.97 -3.8511 0.737091 0
M  V30 1481 H 141.46 -4.17121 -0.19991 0
M  V30 1482 N 141.898 -0.863906 -1.31812 0
M  V30 1483 C 142.845 -0.313303 -2.28664 0
M  V30 1484 C 143.815 0.584868 -1.55462 0
M  V30 1485 O 145 0.517805 -1.83639 0
M  V30 1486 C 142.14 0.48441 -3.41683 0
M  V30 1487 C 141.253 -0.440594 -4.29747 0
M  V30 1488 C 140.388 0.370652 -5.29905 0
M  V30 1489 C 139.427 -0.551164 -6.09613 0
M  V30 1490 N 138.564 0.223462 -7.01744 0
M  V30 1491 H 143.404 -1.14444 -2.75148 0
M  V30 1492 H 140.941 -0.575769 -1.35364 0
M  V30 1493 H 142.899 0.962627 -4.05943 0
M  V30 1494 H 141.529 1.28029 -2.96325 0
M  V30 1495 H 140.581 -1.03724 -3.65986 0
M  V30 1496 H 141.893 -1.14767 -4.85417 0
M  V30 1497 H 141.047 0.911638 -5.99812 0
M  V30 1498 H 139.786 1.11105 -4.74876 0
M  V30 1499 H 138.791 -1.10396 -5.38603 0
M  V30 1500 H 140.016 -1.29032 -6.66729 0
M  V30 1501 H 137.962 0.946787 -6.49132 0
M  V30 1502 H 137.879 -0.424399 -7.54808 0
M  V30 1503 H 139.147 0.745876 -7.75923 0
M  V30 1504 N 143.376 1.44774 -0.622745 0
M  V30 1505 C 144.606 2.06187 -0.130532 0
M  V30 1506 C 145.014 1.46547 1.19669 0
M  V30 1507 O 144.357 0.579636 1.74316 0
M  V30 1508 C 144.419 3.59437 0.0674983 0
M  V30 1509 C 144.083 4.41496 -1.18026 0
M  V30 1510 C 145.08 4.75512 -2.102 0
M  V30 1511 C 142.765 4.82007 -1.41333 0
M  V30 1512 C 144.759 5.48912 -3.23998 0
M  V30 1513 C 142.446 5.55157 -2.55429 0
M  V30 1514 C 143.444 5.88528 -3.46589 0
M  V30 1515 O 143.132 6.60191 -4.58697 0
M  V30 1516 H 142.864 0.672045 -0.0730162 0
M  V30 1517 H 145.418 1.86768 -0.854802 0
M  V30 1518 H 143.648 3.77314 0.846825 0
M  V30 1519 H 145.337 4.02642 0.513209 0
M  V30 1520 H 146.103 4.4476 -1.93425 0
M  V30 1521 H 141.982 4.55457 -0.712709 0
M  V30 1522 H 145.526 5.74877 -3.95174 0
M  V30 1523 H 141.423 5.85324 -2.72151 0
M  V30 1524 H 142.191 6.78654 -4.57571 0
M  V30 1525 N 144.854 0.36279 1.53368 0
M  V30 1526 C 145.801 -0.485008 2.25646 0
M  V30 1527 C 146.771 -1.07982 1.2621 0
M  V30 1528 O 147.956 -1.11284 1.54986 0
M  V30 1529 C 145.096 -1.62023 3.04701 0
M  V30 1530 C 144.209 -1.05086 4.19024 0
M  V30 1531 C 143.344 -2.15496 4.85525 0
M  V30 1532 C 142.383 -1.5601 5.91884 0
M  V30 1533 N 141.52 -2.60241 6.52088 0
M  V30 1534 H 146.36 0.137864 2.97681 0
M  V30 1535 H 143.897 0.0798061 1.46883 0
M  V30 1536 H 145.855 -2.28887 3.48807 0
M  V30 1537 H 144.485 -2.2138 2.34927 0
M  V30 1538 H 143.537 -0.27259 3.79422 0
M  V30 1539 H 144.849 -0.575926 4.95464 0
M  V30 1540 H 144.003 -2.90186 5.32801 0
M  V30 1541 H 142.742 -2.66341 4.08551 0
M  V30 1542 H 141.747 -0.798338 5.43973 0
M  V30 1543 H 142.972 -1.05994 6.70777 0
M  V30 1544 H 140.918 -3.10304 5.77968 0
M  V30 1545 H 140.835 -2.17426 7.24059 0
M  V30 1546 H 142.103 -3.34641 7.04014 0
M  V30 1547 N 146.332 -1.57332 0.0918853 0
M  V30 1548 C 147.242 -2.17368 -0.882505 0
M  V30 1549 C 148.258 -1.14226 -1.31257 0
M  V30 1550 O 149.434 -1.46582 -1.38115 0
M  V30 1551 C 146.499 -2.73962 -2.12476 0
M  V30 1552 C 145.56 -3.92048 -1.7492 0
M  V30 1553 C 144.793 -4.45933 -2.93223 0
M  V30 1554 O 145.016 -3.98764 -4.07852 0
M  V30 1555 O 143.95 -5.36999 -2.71875 0
M  V30 1556 H 147.776 -3.01031 -0.40172 0
M  V30 1557 H 145.361 -1.48813 -0.132291 0
M  V30 1558 H 147.243 -3.10147 -2.85283 0
M  V30 1559 H 145.918 -1.93347 -2.59613 0
M  V30 1560 H 144.825 -3.6068 -0.993025 0
M  V30 1561 H 146.158 -4.74017 -1.32548 0
M  V30 1562 N 147.81 0.181792 -1.56548 0
M  V30 1563 C 148.74 1.22765 -1.98623 0
M  V30 1564 C 149.721 1.46747 -0.860189 0
M  V30 1565 O 150.906 1.58259 -1.12551 0
M  V30 1566 C 148.036 2.56894 -2.33715 0
M  V30 1567 C 146.99 2.475 -3.49182 0
M  V30 1568 C 146.316 3.86023 -3.69986 0
M  V30 1569 C 147.616 1.98866 -4.82959 0
M  V30 1570 H 149.31 0.877942 -2.86239 0
M  V30 1571 H 146.856 0.42088 -1.37712 0
M  V30 1572 H 148.809 3.30253 -2.61746 0
M  V30 1573 H 147.533 2.93632 -1.42997 0
M  V30 1574 H 146.192 1.76596 -3.21262 0
M  V30 1575 H 145.84 4.20136 -2.76576 0
M  V30 1576 H 145.54 3.80609 -4.47672 0
M  V30 1577 H 147.064 4.60984 -4.00407 0
M  V30 1578 H 148.478 2.61992 -5.09934 0
M  V30 1579 H 146.875 2.04424 -5.64208 0
M  V30 1580 H 147.945 0.942465 -4.75653 0
M  V30 1581 N 149.288 1.51039 0.449983 0
M  V30 1582 C 150.534 1.63322 1.20223 0
M  V30 1583 C 150.867 0.34241 1.91158 0
M  V30 1584 O 150.142 -0.657344 1.83055 0
M  V30 1585 C 150.425 2.82801 2.22925 0
M  V30 1586 C 150.278 4.21823 1.56157 0
M  V30 1587 C 151.597 2.97807 3.24035 0
M  V30 1588 H 148.716 0.594407 0.435718 0
M  V30 1589 H 151.358 1.83489 0.493136 0
M  V30 1590 H 149.508 2.65738 2.834 0
M  V30 1591 H 151.18 4.50526 0.991162 0
M  V30 1592 H 149.423 4.25105 0.864172 0
M  V30 1593 H 150.094 5.01391 2.30891 0
M  V30 1594 H 152.57 3.13497 2.73603 0
M  V30 1595 H 151.446 3.82992 3.93202 0
M  V30 1596 H 151.707 2.09328 3.89402 0
M  V30 1597 N 150.766 -0.704594 1.40972 0
M  V30 1598 C 151.729 -1.80035 1.41845 0
M  V30 1599 C 152.729 -1.57774 0.310474 0
M  V30 1600 O 153.919 -1.64613 0.56992 0
M  V30 1601 C 151.051 -3.18284 1.22098 0
M  V30 1602 H 152.244 -1.80658 2.3938 0
M  V30 1603 H 149.797 -0.911329 1.26982 0
M  V30 1604 H 150.532 -3.23306 0.253672 0
M  V30 1605 H 150.317 -3.35843 2.02366 0
M  V30 1606 H 151.807 -3.98289 1.25522 0
M  V30 1607 N 152.244 -1.26651 -0.937939 0
M  V30 1608 C 153.191 -1.0849 -2.03712 0
M  V30 1609 C 154.161 0.011033 -1.66096 0
M  V30 1610 O 155.346 -0.149353 -1.90215 0
M  V30 1611 C 152.486 -0.72735 -3.37348 0
M  V30 1612 C 151.599 -1.89986 -3.87981 0
M  V30 1613 C 150.734 -1.48513 -5.10017 0
M  V30 1614 C 149.773 -2.62575 -5.5292 0
M  V30 1615 N 148.91 -2.21762 -6.66158 0
M  V30 1616 H 153.75 -2.02551 -2.18579 0
M  V30 1617 H 151.287 -1.00844 -1.07093 0
M  V30 1618 H 153.245 -0.50092 -4.14182 0
M  V30 1619 H 151.875 0.176298 -3.22318 0
M  V30 1620 H 150.927 -2.23913 -3.07518 0
M  V30 1621 H 152.239 -2.75586 -4.15757 0
M  V30 1622 H 151.393 -1.21934 -5.94321 0
M  V30 1623 H 150.132 -0.60009 -4.83994 0
M  V30 1624 H 149.137 -2.8988 -4.67172 0
M  V30 1625 H 150.362 -3.51685 -5.80943 0
M  V30 1626 H 148.308 -1.35696 -6.41812 0
M  V30 1627 H 148.225 -3.00903 -6.93537 0
M  V30 1628 H 149.493 -1.98403 -7.53828 0
M  V30 1629 N 153.722 1.14298 -1.08507 0
M  V30 1630 C 154.95 1.89219 -0.836876 0
M  V30 1631 C 155.365 1.78638 0.611054 0
M  V30 1632 O 154.722 1.14643 1.41998 0
M  V30 1633 C 154.773 3.39158 -1.25116 0
M  V30 1634 O 154.494 3.49449 -2.64229 0
M  V30 1635 C 155.995 4.31073 -1.03398 0
M  V30 1636 H 153.215 0.599328 -0.301739 0
M  V30 1637 H 155.759 1.44746 -1.44461 0
M  V30 1638 H 153.914 3.81251 -0.687514 0
M  V30 1639 H 154.328 4.42589 -2.81452 0
M  V30 1640 H 155.802 5.34646 -1.37323 0
M  V30 1641 H 156.279 4.3919 0.0289259 0
M  V30 1642 H 156.885 3.94738 -1.58311 0
M  V30 1643 N 155.201 0.870884 1.31352 0
M  V30 1644 C 156.426 0.495957 2.01383 0
M  V30 1645 C 156.851 -0.904324 1.64935 0
M  V30 1646 O 156.209 -1.59687 0.858466 0
M  V30 1647 C 156.257 0.661433 3.54482 0
M  V30 1648 O 155.361 -0.298851 4.11316 0
M  V30 1649 H 154.702 0.197158 0.634054 0
M  V30 1650 H 157.232 1.17455 1.67527 0
M  V30 1651 H 157.242 0.555072 4.04207 0
M  V30 1652 H 155.917 1.68246 3.8035 0
M  V30 1653 H 154.494 -0.147368 3.72609 0
M  V30 1654 N 156.679 -1.44442 0.630414 0
M  V30 1655 C 157.627 -2.32437 -0.0871428 0
M  V30 1656 C 158.621 -1.47304 -0.836525 0
M  V30 1657 O 159.827 -1.63653 -0.749506 0
M  V30 1658 H 156.202 -0.750533 -0.0469495 0
M  V30 1659 H 158.173 -2.90709 0.673096 0
M  V30 1660 C 156.922 -3.31288 -1.05563 0
M  V30 1661 H 156.245 -3.96805 -0.488426 0
M  V30 1662 H 157.685 -3.9554 -1.52721 0
M  V30 1663 C 156.144 -2.6016 -2.14052 0
M  V30 1664 O 156.674 -2.39997 -3.22124 0
M  V30 1665 N 154.88 -2.19911 -1.89967 0
M  V30 1666 H 154.427 -2.36509 -1.02085 0
M  V30 1667 H 154.385 -1.72646 -2.62756 0
M  V30 1668 N 158.157 -0.370918 -1.53173 0
M  V30 1669 C 159.087 0.464847 -2.28826 0
M  V30 1670 C 160.068 1.07936 -1.31468 0
M  V30 1671 O 161.253 1.0956 -1.60344 0
M  V30 1672 C 158.383 1.60196 -3.08147 0
M  V30 1673 C 157.337 1.11443 -4.13237 0
M  V30 1674 C 156.663 2.3422 -4.80672 0
M  V30 1675 C 157.963 0.195384 -5.21934 0
M  V30 1676 H 159.657 -0.166329 -2.98938 0
M  V30 1677 H 157.203 -0.0814359 -1.4377 0
M  V30 1678 H 159.156 2.19332 -3.59822 0
M  V30 1679 H 157.88 2.26045 -2.35735 0
M  V30 1680 H 156.539 0.545727 -3.62515 0
M  V30 1681 H 156.187 2.98537 -4.04827 0
M  V30 1682 H 155.887 2.02269 -5.51689 0
M  V30 1683 H 157.411 2.94032 -5.35143 0
M  V30 1684 H 158.825 0.694375 -5.69079 0
M  V30 1685 H 157.222 -0.0335027 -6.00091 0
M  V30 1686 H 158.292 -0.760961 -4.78892 0
M  V30 1687 N 159.635 1.57281 -0.100228 0
M  V30 1688 C 160.545 2.17833 0.870965 0
M  V30 1689 C 161.561 1.14921 1.30649 0
M  V30 1690 O 162.737 1.47313 1.37335 0
M  V30 1691 C 159.802 2.75085 2.1102 0
M  V30 1692 C 158.863 3.9297 1.72838 0
M  V30 1693 C 158.096 4.47482 2.90854 0
M  V30 1694 O 158.319 4.00922 4.05731 0
M  V30 1695 O 157.253 5.38433 2.69023 0
M  V30 1696 H 161.079 3.0124 0.38575 0
M  V30 1697 H 158.664 1.48881 0.124397 0
M  V30 1698 H 160.546 3.11656 2.83634 0
M  V30 1699 H 159.221 1.94721 2.58584 0
M  V30 1700 H 158.128 3.61201 0.973883 0
M  V30 1701 H 159.461 4.74713 1.30033 0
M  V30 1702 N 161.113 -0.173488 1.56642 0
M  V30 1703 C 162.061 -1.23417 1.97157 0
M  V30 1704 C 163.055 -1.45946 0.860013 0
M  V30 1705 O 164.261 -1.46551 1.04512 0
M  V30 1706 H 160.636 -0.414818 0.62724 0
M  V30 1707 H 162.607 -0.865582 2.8557 0
M  V30 1708 C 161.356 -2.5665 2.34576 0
M  V30 1709 H 160.679 -2.40137 3.19647 0
M  V30 1710 H 162.119 -3.2956 2.6677 0
M  V30 1711 C 160.578 -3.15245 1.18836 0
M  V30 1712 O 161.108 -3.98883 0.474869 0
M  V30 1713 N 159.314 -2.74303 0.959497 0
M  V30 1714 H 158.861 -2.0639 1.54146 0
M  V30 1715 H 158.819 -3.13844 0.186932 0
M  V30 1716 N 162.591 -1.51276 -0.441967 0
M  V30 1717 C 163.837 -1.63958 -1.19355 0
M  V30 1718 C 164.17 -0.352543 -1.90973 0
M  V30 1719 O 163.445 0.647627 -1.83401 0
M  V30 1720 C 163.728 -2.83979 -2.21422 0
M  V30 1721 C 163.581 -4.22646 -1.53918 0
M  V30 1722 C 164.9 -2.99521 -3.22451 0
M  V30 1723 H 162.019 -0.596709 -0.432559 0
M  V30 1724 H 164.661 -1.83748 -0.483398 0
M  V30 1725 H 162.811 -2.67237 -2.81987 0
M  V30 1726 H 164.483 -4.51045 -0.967256 0
M  V30 1727 H 162.726 -4.25558 -0.841615 0
M  V30 1728 H 163.397 -5.02609 -2.28229 0
M  V30 1729 H 165.873 -3.14944 -2.71937 0
M  V30 1730 H 164.749 -3.85072 -3.91166 0
M  V30 1731 H 165.01 -2.11391 -3.88287 0
M  V30 1732 N 164.069 0.697108 -1.41344 0
M  V30 1733 C 165.016 1.81106 -1.43071 0
M  V30 1734 C 165.986 1.63632 -0.285275 0
M  V30 1735 O 167.171 1.84504 -0.486091 0
M  V30 1736 C 164.311 3.18975 -1.31715 0
M  V30 1737 C 163.424 3.47892 -2.56115 0
M  V30 1738 C 162.559 4.75367 -2.37064 0
M  V30 1739 C 161.598 4.97247 -3.56948 0
M  V30 1740 N 160.735 6.15947 -3.36977 0
M  V30 1741 H 165.575 1.78965 -2.38276 0
M  V30 1742 H 163.112 0.873975 -1.18322 0
M  V30 1743 H 165.07 3.98615 -1.23133 0
M  V30 1744 H 163.7 3.20297 -0.401183 0
M  V30 1745 H 162.752 2.62669 -2.75153 0
M  V30 1746 H 164.064 3.59962 -3.45295 0
M  V30 1747 H 163.218 5.63059 -2.25941 0
M  V30 1748 H 161.957 4.65541 -1.45338 0
M  V30 1749 H 160.962 4.08004 -3.68527 0
M  V30 1750 H 162.187 5.08934 -4.49626 0
M  V30 1751 H 160.133 6.07336 -2.47949 0
M  V30 1752 H 160.05 6.28777 -4.19732 0
M  V30 1753 H 161.318 7.06377 -3.29623 0
M  V30 1754 N 165.547 1.27147 0.931209 0
M  V30 1755 C 166.794 1.13278 1.67852 0
M  V30 1756 C 167.122 -0.32204 1.91815 0
M  V30 1757 O 166.377 -1.25224 1.50391 0
M  V30 1758 C 166.676 1.8579 3.05314 0
M  V30 1759 C 166.342 3.35657 3.01073 0
M  V30 1760 C 165.004 3.76536 2.99623 0
M  V30 1761 C 167.356 4.31299 2.92627 0
M  V30 1762 C 164.684 5.11426 2.87506 0
M  V30 1763 C 167.036 5.66242 2.82051 0
M  V30 1764 C 165.7 6.06418 2.7895 0
M  V30 1765 H 164.97 0.414515 0.614214 0
M  V30 1766 H 167.617 1.57712 1.08624 0
M  V30 1767 H 165.922 1.33854 3.68226 0
M  V30 1768 H 167.619 1.72491 3.62005 0
M  V30 1769 H 164.209 3.03146 3.02986 0
M  V30 1770 H 168.393 4.00692 2.92848 0
M  V30 1771 H 163.649 5.41705 2.83489 0
M  V30 1772 H 167.823 6.40026 2.74481 0
M  V30 1773 H 165.45 7.10895 2.69318 0
M  V30 1774 N 167.025 -1.13721 1.09112 0
M  V30 1775 C 167.988 -2.17222 0.731241 0
M  V30 1776 C 168.988 -1.59035 -0.237566 0
M  V30 1777 O 170.178 -1.74192 -0.0161704 0
M  V30 1778 C 167.31 -3.40804 0.0808443 0
M  V30 1779 H 168.503 -2.50573 1.64783 0
M  V30 1780 H 166.056 -1.28493 0.889897 0
M  V30 1781 H 166.791 -3.1304 -0.847127 0
M  V30 1782 H 166.576 -3.84306 0.777896 0
M  V30 1783 H 168.066 -4.1731 -0.155657 0
M  V30 1784 N 168.503 -0.877838 -1.30888 0
M  V30 1785 C 169.749 -0.502773 -1.97088 0
M  V30 1786 C 170.104 0.936274 -1.68082 0
M  V30 1787 O 169.397 1.65162 -0.971196 0
M  V30 1788 C 169.591 -0.705748 -3.50363 0
M  V30 1789 C 169.42 -2.16297 -3.94266 0
M  V30 1790 C 168.19 -2.80614 -4.20219 0
M  V30 1791 C 170.388 -3.13606 -4.07622 0
M  V30 1792 N 168.37 -4.17007 -4.50532 0
M  V30 1793 C 169.741 -4.35051 -4.41736 0
M  V30 1794 C 171.796 -3.09491 -3.90026 0
M  V30 1795 C 170.499 -5.52911 -4.60089 0
M  V30 1796 C 172.525 -4.26616 -4.09576 0
M  V30 1797 C 171.887 -5.46825 -4.44029 0
M  V30 1798 H 167.986 -0.233168 -0.746429 0
M  V30 1799 H 170.57 -1.13408 -1.58261 0
M  V30 1800 H 168.741 -0.103976 -3.88261 0
M  V30 1801 H 170.473 -0.298291 -4.03599 0
M  V30 1802 H 167.228 -2.3152 -4.13153 0
M  V30 1803 H 167.652 -4.87426 -4.69834 0
M  V30 1804 H 172.294 -2.17657 -3.62471 0
M  V30 1805 H 170.012 -6.45255 -4.86489 0
M  V30 1806 H 173.598 -4.24894 -3.97438 0
M  V30 1807 H 172.478 -6.35947 -4.58848 0
M  V30 1808 N 169.982 1.44106 -0.638065 0
M  V30 1809 C 170.932 2.27843 0.0847285 0
M  V30 1810 C 171.916 1.39055 0.809471 0
M  V30 1811 O 173.108 1.62808 0.694435 0
M  V30 1812 C 170.237 3.26497 1.06089 0
M  V30 1813 C 169.323 4.22772 0.33541 0
M  V30 1814 N 169.714 5.01737 -0.639787 0
M  V30 1815 C 168.012 4.42227 0.578921 0
M  V30 1816 C 168.713 5.71792 -1.06904 0
M  V30 1817 N 167.689 5.42079 -0.406395 0
M  V30 1818 H 171.491 2.86305 -0.663814 0
M  V30 1819 H 169.005 1.55627 -0.464122 0
M  V30 1820 H 171.002 3.8525 1.59337 0
M  V30 1821 H 169.662 2.69595 1.80966 0
M  V30 1822 H 170.673 5.07799 -1.01789 0
M  V30 1823 H 167.35 3.96415 1.31003 0
M  V30 1824 H 168.74 6.45205 -1.8751 0
M  V30 1825 N 171.46 0.379036 1.52974 0
M  V30 1826 C 172.407 -0.461048 2.26148 0
M  V30 1827 C 173.377 -1.06637 1.27349 0
M  V30 1828 O 174.562 -1.09633 1.56157 0
M  V30 1829 C 171.702 -1.58782 3.06402 0
M  V30 1830 C 170.815 -1.00636 4.20115 0
M  V30 1831 C 169.95 -2.10334 4.87784 0
M  V30 1832 C 168.989 -1.49724 5.93506 0
M  V30 1833 N 168.126 -2.5331 6.54812 0
M  V30 1834 H 172.966 0.169429 2.97518 0
M  V30 1835 H 170.503 0.0953806 1.4679 0
M  V30 1836 H 172.461 -2.25174 3.51215 0
M  V30 1837 H 171.091 -2.18876 2.37261 0
M  V30 1838 H 170.143 -0.232332 3.7969 0
M  V30 1839 H 171.455 -0.523343 4.96047 0
M  V30 1840 H 170.609 -2.84519 5.35849 0
M  V30 1841 H 169.348 -2.61992 4.11353 0
M  V30 1842 H 168.353 -0.740598 5.44789 0
M  V30 1843 H 169.578 -0.988732 6.71864 0
M  V30 1844 H 167.524 -3.04156 5.81227 0
M  V30 1845 H 167.441 -2.09734 7.26325 0
M  V30 1846 H 168.709 -3.27155 7.07524 0
M  V30 1847 N 172.938 -1.57226 0.108567 0
M  V30 1848 C 173.848 -2.18292 -0.859401 0
M  V30 1849 C 174.864 -1.15612 -1.30038 0
M  V30 1850 O 176.04 -1.48039 -1.36552 0
M  V30 1851 C 173.105 -2.762 -2.09558 0
M  V30 1852 C 172.166 -3.93881 -1.70752 0
M  V30 1853 C 171.399 -4.49018 -2.88477 0
M  V30 1854 O 171.622 -4.03068 -4.036 0
M  V30 1855 O 170.556 -5.39852 -2.66164 0
M  V30 1856 H 174.382 -3.01441 -0.369769 0
M  V30 1857 H 171.967 -1.48945 -0.1165 0
M  V30 1858 H 173.849 -3.13156 -2.81978 0
M  V30 1859 H 172.524 -1.96089 -2.57548 0
M  V30 1860 H 171.431 -3.61713 -0.954714 0
M  V30 1861 H 172.764 -4.75396 -1.27513 0
M  V30 1862 N 174.416 0.165178 -1.56732 0
M  V30 1863 C 175.644 0.896218 -1.86482 0
M  V30 1864 C 176.059 1.75555 -0.694675 0
M  V30 1865 O 175.416 1.79379 0.33607 0
M  V30 1866 C 175.467 1.76792 -3.1532 0
M  V30 1867 O 175.188 0.943239 -4.27825 0
M  V30 1868 C 176.689 2.6081 -3.58459 0
M  V30 1869 H 173.909 0.260064 -0.618553 0
M  V30 1870 H 176.453 0.163428 -2.03846 0
M  V30 1871 H 174.608 2.45398 -2.99764 0
M  V30 1872 H 175.022 1.53998 -5.01383 0
M  V30 1873 H 176.496 3.17579 -4.51495 0
M  V30 1874 H 176.973 3.35977 -2.82872 0
M  V30 1875 H 177.579 1.97526 -3.76648 0
M  V30 1876 N 175.894 1.51508 0.433938 0
M  V30 1877 C 177.119 1.68443 1.21003 0
M  V30 1878 C 177.544 0.382636 1.84167 0
M  V30 1879 O 176.902 -0.65755 1.68956 0
M  V30 1880 C 176.95 2.80405 2.26727 0
M  V30 1881 O 176.054 2.44245 3.32292 0
M  V30 1882 H 175.395 0.561536 0.354363 0
M  V30 1883 H 177.925 1.9809 0.512024 0
M  V30 1884 H 177.935 3.0459 2.71457 0
M  V30 1885 H 176.61 3.74867 1.80132 0
M  V30 1886 H 175.187 2.30644 2.93015 0
M  V30 1887 N 177.372 -0.689602 1.41712 0
M  V30 1888 C 178.597 -1.48329 1.44959 0
M  V30 1889 C 179.022 -1.8801 0.0581283 0
M  V30 1890 O 178.38 -1.55026 -0.940035 0
M  V30 1891 C 178.428 -2.71835 2.36935 0
M  V30 1892 O 177.532 -3.69549 1.8305 0
M  V30 1893 H 176.873 -0.446199 0.491734 0
M  V30 1894 H 179.403 -0.847127 1.86239 0
M  V30 1895 H 179.413 -3.20076 2.53013 0
M  V30 1896 H 178.088 -2.42291 3.38035 0
M  V30 1897 H 176.665 -3.2851 1.76452 0
M  V30 1898 N 178.85 -1.27639 -0.924453 0
M  V30 1899 C 179.76 -1.12466 -2.05885 0
M  V30 1900 C 180.776 -0.053869 -1.73917 0
M  V30 1901 O 181.952 -0.261012 -1.99702 0
M  V30 1902 C 179.017 -0.776768 -3.37886 0
M  V30 1903 C 178.078 -1.92878 -3.83532 0
M  V30 1904 C 177.311 -1.59739 -5.09234 0
M  V30 1905 O 177.534 -0.506782 -5.68144 0
M  V30 1906 O 176.468 -2.43761 -5.50331 0
M  V30 1907 H 180.294 -2.07671 -2.21599 0
M  V30 1908 H 177.879 -1.06857 -1.04413 0
M  V30 1909 H 179.761 -0.596229 -4.17161 0
M  V30 1910 H 178.436 0.145732 -3.23372 0
M  V30 1911 H 177.343 -2.1644 -3.0513 0
M  V30 1912 H 178.676 -2.8316 -4.02593 0
M  V30 1913 N 180.328 1.1314 -1.09713 0
M  V30 1914 C 181.558 1.88048 -0.855656 0
M  V30 1915 C 181.966 1.79537 0.596919 0
M  V30 1916 O 181.309 1.16196 1.42282 0
M  V30 1917 C 181.371 3.38314 -1.21589 0
M  V30 1918 C 181.035 3.70605 -2.67397 0
M  V30 1919 C 182.032 3.69596 -3.65643 0
M  V30 1920 C 179.717 4.0017 -3.03593 0
M  V30 1921 C 181.711 3.977 -4.9811 0
M  V30 1922 C 179.398 4.27935 -4.36251 0
M  V30 1923 C 180.396 4.26685 -5.33318 0
M  V30 1924 O 180.084 4.53767 -6.63589 0
M  V30 1925 H 179.816 0.60208 -0.307368 0
M  V30 1926 H 182.37 1.44128 -1.46343 0
M  V30 1927 H 180.6 3.82752 -0.551177 0
M  V30 1928 H 182.289 3.94552 -0.953083 0
M  V30 1929 H 183.055 3.46826 -3.39023 0
M  V30 1930 H 178.934 4.00289 -2.2867 0
M  V30 1931 H 182.478 3.9664 -5.73866 0
M  V30 1932 H 178.375 4.50178 -4.62613 0
M  V30 1933 H 179.143 4.71422 -6.69107 0
M  V30 1934 N 181.806 0.884767 1.30421 0
M  V30 1935 C 182.738 0.308655 2.27112 0
M  V30 1936 C 183.751 -0.536655 1.53701 0
M  V30 1937 O 184.94 -0.35624 1.74909 0
M  V30 1938 C 182.04 -0.579782 3.33904 0
M  V30 1939 C 181.213 0.236417 4.36761 0
M  V30 1940 C 180.272 -0.582482 5.22966 0
M  V30 1941 O 179.298 -0.00525502 5.692 0
M  V30 1942 N 180.5 -1.89163 5.48815 0
M  V30 1943 H 183.265 1.13964 2.77186 0
M  V30 1944 H 180.826 0.747731 1.43599 0
M  V30 1945 H 182.818 -1.13366 3.88497 0
M  V30 1946 H 181.388 -1.31144 2.83761 0
M  V30 1947 H 180.608 0.97174 3.82035 0
M  V30 1948 H 181.896 0.795924 5.02536 0
M  V30 1949 H 181.294 -2.38352 5.13035 0
M  V30 1950 H 179.851 -2.39296 6.06284 0
M  V30 1951 N 183.284 -1.43765 0.645699 0
M  V30 1952 C 184.509 -2.06767 0.161883 0
M  V30 1953 C 184.934 -1.48034 -1.16049 0
M  V30 1954 O 184.292 -0.587369 -1.71522 0
M  V30 1955 C 184.34 -3.60519 0.0762003 0
M  V30 1956 O 183.444 -4.00982 -0.963721 0
M  V30 1957 H 182.785 -0.657675 0.091429 0
M  V30 1958 H 185.315 -1.84397 0.886499 0
M  V30 1959 H 185.325 -4.07853 -0.109604 0
M  V30 1960 H 184 -4.02646 1.04157 0
M  V30 1961 H 182.577 -3.65253 -0.751312 0
M  V30 1962 N 184.763 -0.387143 -1.52771 0
M  V30 1963 C 186.179 -0.037007 -1.59557 0
M  V30 1964 C 186.379 1.44801 -1.40124 0
M  V30 1965 O 185.435 2.21227 -1.21716 0
M  V30 1966 C 186.748 -0.512256 -2.96305 0
M  V30 1967 C 188.296 -0.468328 -3.09476 0
M  V30 1968 C 188.771 -0.919731 -4.4867 0
M  V30 1969 N 190.262 -0.875656 -4.54848 0
M  V30 1970 C 190.997 -1.19637 -5.6078 0
M  V30 1971 N 190.493 -1.58745 -6.74368 0
M  V30 1972 N 192.286 -1.11776 -5.50874 0
M  V30 1973 H 184.437 -1.35395 -1.63652 0
M  V30 1974 H 186.7 -0.554818 -0.768688 0
M  V30 1975 H 186.406 -1.54935 -3.15734 0
M  V30 1976 H 186.28 0.089805 -3.77093 0
M  V30 1977 H 188.667 0.559671 -2.89744 0
M  V30 1978 H 188.748 -1.10616 -2.30646 0
M  V30 1979 H 188.392 -1.94595 -4.69143 0
M  V30 1980 H 188.322 -0.258927 -5.25963 0
M  V30 1981 H 190.813 -0.587843 -3.733 0
M  V30 1982 H 191.126 -1.81586 -7.51163 0
M  V30 1983 H 189.471 -1.6263 -6.75705 0
M  V30 1984 H 192.662 -0.811264 -4.61016 0
M  V30 1985 H 192.835 -1.37103 -6.3333 0
M  V30 1986 N 186.241 1.57166 -0.116904 0
M  V30 1987 C 187.174 2.10912 0.871291 0
M  V30 1988 C 188.152 1.025 1.26224 0
M  V30 1989 O 189.336 1.3014 1.36366 0
M  V30 1990 C 186.463 2.6041 2.16574 0
M  V30 1991 C 185.509 3.80687 1.92302 0
M  V30 1992 S 186.342 5.23199 1.14119 0
M  V30 1993 C 187.498 5.76064 2.44748 0
M  V30 1994 H 187.731 2.94401 0.414138 0
M  V30 1995 H 185.264 1.54096 0.096829 0
M  V30 1996 H 187.222 2.89583 2.9095 0
M  V30 1997 H 185.883 1.77106 2.59408 0
M  V30 1998 H 185.076 4.13462 2.8821 0
M  V30 1999 H 184.678 3.5212 1.26047 0
M  V30 2000 H 186.97 5.8566 3.406 0
M  V30 2001 H 187.913 6.74184 2.16521 0
M  V30 2002 H 188.321 5.04117 2.54019 0
M  V30 2003 N 187.719 -0.156864 1.56817 0
M  V30 2004 C 188.649 -1.19589 2.00551 0
M  V30 2005 C 189.63 -1.4536 0.883426 0
M  V30 2006 O 190.815 -1.56449 1.15054 0
M  V30 2007 C 187.945 -2.53143 2.37773 0
M  V30 2008 C 186.899 -2.41913 3.53075 0
M  V30 2009 C 186.225 -3.80088 3.76081 0
M  V30 2010 C 187.525 -1.91157 4.86062 0
M  V30 2011 H 189.219 -0.832293 2.87599 0
M  V30 2012 H 186.765 -0.398918 1.38364 0
M  V30 2013 H 188.718 -3.26047 2.66967 0
M  V30 2014 H 187.442 -2.91319 1.4765 0
M  V30 2015 H 186.101 -1.71462 3.24031 0
M  V30 2016 H 185.749 -4.15683 2.83225 0
M  V30 2017 H 185.449 -3.73439 4.53671 0
M  V30 2018 H 186.973 -4.54556 4.0769 0
M  V30 2019 H 188.387 -2.53846 5.14038 0
M  V30 2020 H 186.784 -1.95422 5.67389 0
M  V30 2021 H 187.854 -0.866673 4.77092 0
M  V30 2022 N 189.197 -1.51736 -0.425897 0
M  V30 2023 C 190.107 -1.76738 -1.54275 0
M  V30 2024 C 191.123 -0.65211 -1.61318 0
M  V30 2025 O 192.299 -0.935654 -1.78346 0
M  V30 2026 C 189.364 -1.89755 -2.90162 0
M  V30 2027 C 188.425 -3.13633 -2.93143 0
M  V30 2028 C 187.658 -3.2602 -4.22548 0
M  V30 2029 O 187.881 -2.44067 -5.15546 0
M  V30 2030 O 186.815 -4.19071 -4.32046 0
M  V30 2031 H 190.641 -2.71502 -1.36089 0
M  V30 2032 H 188.226 -1.36376 -0.610069 0
M  V30 2033 H 190.108 -2.00236 -3.70788 0
M  V30 2034 H 188.783 -0.981785 -3.08452 0
M  V30 2035 H 187.69 -3.08622 -2.11431 0
M  V30 2036 H 189.023 -4.04936 -2.798 0
M  V30 2037 N 190.675 0.682077 -1.42076 0
M  V30 2038 C 191.622 1.79578 -1.44984 0
M  V30 2039 C 192.592 1.6332 -0.302614 0
M  V30 2040 O 193.777 1.83978 -0.505633 0
M  V30 2041 C 190.917 3.1756 -1.35091 0
M  V30 2042 C 190.03 3.45156 -2.59791 0
M  V30 2043 C 189.165 4.72826 -2.42093 0
M  V30 2044 C 188.204 4.93433 -3.62202 0
M  V30 2045 N 187.341 6.12338 -3.43491 0
M  V30 2046 H 192.181 1.76427 -2.40161 0
M  V30 2047 H 189.718 0.861376 -1.19242 0
M  V30 2048 H 191.676 3.97287 -1.27354 0
M  V30 2049 H 190.306 3.19854 -0.435133 0
M  V30 2050 H 189.358 2.59736 -2.77923 0
M  V30 2051 H 190.67 3.5628 -3.49094 0
M  V30 2052 H 189.824 5.60631 -2.319 0
M  V30 2053 H 188.563 4.63973 -1.50268 0
M  V30 2054 H 187.568 4.04073 -3.72834 0
M  V30 2055 H 188.793 5.04136 -4.54998 0
M  V30 2056 H 186.739 6.04672 -2.54377 0
M  V30 2057 H 186.656 6.2429 -4.26377 0
M  V30 2058 H 187.924 7.02841 -3.37097 0
M  V30 2059 N 192.153 1.28127 0.917671 0
M  V30 2060 C 193.1 1.11717 2.0196 0
M  V30 2061 C 194.07 0.0153929 1.66093 0
M  V30 2062 O 195.255 0.179596 1.89953 0
M  V30 2063 C 192.395 0.780927 3.36148 0
M  V30 2064 C 191.508 1.96135 3.84909 0
M  V30 2065 C 190.643 1.56609 5.0759 0
M  V30 2066 C 189.682 2.71339 5.48673 0
M  V30 2067 N 188.819 2.32332 6.62545 0
M  V30 2068 H 193.659 2.06003 2.15329 0
M  V30 2069 H 191.196 1.02535 1.05475 0
M  V30 2070 H 193.154 0.56675 4.13333 0
M  V30 2071 H 191.784 -0.124998 3.22558 0
M  V30 2072 H 190.836 2.28777 3.03916 0
M  V30 2073 H 192.148 2.82165 4.1132 0
M  V30 2074 H 191.302 1.31374 5.92305 0
M  V30 2075 H 190.041 0.677014 4.82978 0
M  V30 2076 H 189.046 2.97276 4.62501 0
M  V30 2077 H 190.271 3.60882 5.75274 0
M  V30 2078 H 188.217 1.45889 6.39572 0
M  V30 2079 H 188.134 3.11899 6.88662 0
M  V30 2080 H 189.402 2.10371 7.50576 0
M  V30 2081 N 193.631 -1.12557 1.10312 0
M  V30 2082 C 194.541 -2.21841 0.763142 0
M  V30 2083 C 195.557 -1.72354 -0.238801 0
M  V30 2084 O 196.733 -2.01249 -0.0778746 0
M  V30 2085 C 193.798 -3.46131 0.198632 0
M  V30 2086 C 192.859 -4.10464 1.25769 0
M  V30 2087 C 192.092 -5.28821 0.72002 0
M  V30 2088 O 192.315 -5.6859 -0.453993 0
M  V30 2089 O 191.249 -5.83437 1.47935 0
M  V30 2090 H 195.075 -2.53312 1.67532 0
M  V30 2091 H 192.66 -1.20867 0.878157 0
M  V30 2092 H 194.542 -4.2125 -0.112401 0
M  V30 2093 H 193.217 -3.16338 -0.686419 0
M  V30 2094 H 192.124 -3.3713 1.62156 0
M  V30 2095 H 193.457 -4.44408 2.11571 0
M  V30 2096 N 195.109 -0.891671 -1.2995 0
M  V30 2097 C 196.039 -0.379797 -2.30391 0
M  V30 2098 C 197.02 0.540919 -1.6127 0
M  V30 2099 O 198.205 0.453352 -1.88834 0
M  V30 2100 C 195.335 0.400654 -3.44981 0
M  V30 2101 C 194.289 -0.428905 -4.25846 0
M  V30 2102 C 193.615 0.478557 -5.32554 0
M  V30 2103 C 194.915 -1.67458 -4.94727 0
M  V30 2104 H 196.609 -1.21914 -2.73454 0
M  V30 2105 H 194.155 -0.587675 -1.31462 0
M  V30 2106 H 196.108 0.769434 -4.14316 0
M  V30 2107 H 194.832 1.27371 -3.0074 0
M  V30 2108 H 193.491 -0.779911 -3.58208 0
M  V30 2109 H 193.139 1.34951 -4.84559 0
M  V30 2110 H 192.839 -0.0727433 -5.87555 0
M  V30 2111 H 194.363 0.843705 -6.04743 0
M  V30 2112 H 195.777 -1.376 -5.56542 0
M  V30 2113 H 194.174 -2.16659 -5.59624 0
M  V30 2114 H 195.244 -2.41518 -4.20473 0
M  V30 2115 N 196.587 1.43421 -0.653314 0
M  V30 2116 C 197.519 2.29071 0.0769134 0
M  V30 2117 C 198.532 1.42513 0.787017 0
M  V30 2118 O 199.721 1.66449 0.644757 0
M  V30 2119 C 196.821 3.19436 1.13199 0
M  V30 2120 C 195.994 4.34533 0.500006 0
M  V30 2121 C 195.053 5.05771 1.45198 0
M  V30 2122 O 194.079 5.61037 0.960538 0
M  V30 2123 N 195.281 5.0928 2.78594 0
M  V30 2124 H 198.046 2.92382 -0.658235 0
M  V30 2125 H 195.607 1.54112 -0.496104 0
M  V30 2126 H 197.599 3.63958 1.76964 0
M  V30 2127 H 196.169 2.57724 1.7691 0
M  V30 2128 H 195.389 3.92925 -0.316738 0
M  V30 2129 H 196.677 5.08766 0.0588345 0
M  V30 2130 H 196.075 4.65751 3.2108 0
M  V30 2131 H 194.632 5.57519 3.37662 0
M  V30 2132 N 198.065 0.39524 1.52563 0
M  V30 2133 C 199.012 -0.437036 2.26624 0
M  V30 2134 C 199.982 -1.05281 1.28472 0
M  V30 2135 O 201.167 -1.07971 1.57311 0
M  V30 2136 C 198.307 -1.55524 3.08069 0
M  V30 2137 C 197.42 -0.961745 4.21158 0
M  V30 2138 C 196.555 -2.05149 4.89987 0
M  V30 2139 C 195.594 -1.4342 5.95061 0
M  V30 2140 N 194.731 -2.46351 6.57462 0
M  V30 2141 H 199.571 0.200976 2.97322 0
M  V30 2142 H 197.108 0.110944 1.46681 0
M  V30 2143 H 199.066 -2.21437 3.53584 0
M  V30 2144 H 197.696 -2.16348 2.3957 0
M  V30 2145 H 196.748 -0.192048 3.79915 0
M  V30 2146 H 198.06 -0.470701 4.96574 0
M  V30 2147 H 197.214 -2.78819 5.38837 0
M  V30 2148 H 195.953 -2.57615 4.14109 0
M  V30 2149 H 194.958 -0.682774 5.45544 0
M  V30 2150 H 196.183 -0.917416 6.72875 0
M  V30 2151 H 194.129 -2.97975 5.8442 0
M  V30 2152 H 194.046 -2.02019 7.28508 0
M  V30 2153 H 195.314 -3.19633 7.10954 0
M  V30 2154 N 199.544 -1.57102 0.125237 0
M  V30 2155 C 200.79 -1.96488 -0.525753 0
M  V30 2156 C 201.145 -1.00786 -1.6389 0
M  V30 2157 O 200.438 -0.038979 -1.9156 0
M  V30 2158 C 200.632 -3.40096 -1.09862 0
M  V30 2159 C 200.461 -4.4968 -0.0425004 0
M  V30 2160 C 199.231 -5.03781 0.391463 0
M  V30 2161 C 201.429 -5.08936 0.740829 0
M  V30 2162 N 199.411 -5.96948 1.4327 0
M  V30 2163 C 200.782 -5.98105 1.6331 0
M  V30 2164 C 202.837 -4.91576 0.791029 0
M  V30 2165 C 201.54 -6.71774 2.57122 0
M  V30 2166 C 203.566 -5.6593 1.71688 0
M  V30 2167 C 202.928 -6.5479 2.59672 0
M  V30 2168 H 199.027 -0.765072 -0.161831 0
M  V30 2169 H 201.611 -1.93511 0.214801 0
M  V30 2170 H 199.782 -3.43707 -1.80887 0
M  V30 2171 H 201.514 -3.66591 -1.71444 0
M  V30 2172 H 198.269 -4.736 -0.00213584 0
M  V30 2173 H 198.693 -6.48236 1.95243 0
M  V30 2174 H 203.335 -4.22615 0.124915 0
M  V30 2175 H 201.053 -7.39977 3.24744 0
M  V30 2176 H 204.639 -5.54501 1.76125 0
M  V30 2177 H 203.519 -7.11316 3.30149 0
M  V30 2178 N 201.022 0.148545 -1.56898 0
M  V30 2179 C 202.299 0.890019 -1.74178 0
M  V30 2180 C 202.679 1.99407 -0.692839 0
M  V30 2181 O 202.027 2.26671 0.288505 0
M  V30 2182 C 202.237 1.43389 -3.18183 0
M  V30 2183 C 203.585 1.89791 -3.79822 0
M  V30 2184 O 204.609 1.53134 -3.21603 0
M  V30 2185 O 203.468 2.57387 -4.82093 0
M  V30 2186 H 200.562 0.420496 -0.712118 0
M  V30 2187 H 203.108 0.134591 -1.69165 0
M  V30 2188 H 201.88 0.640383 -3.86024 0
M  V30 2189 H 201.503 2.25287 -3.27615 0
M  V30 2190 N 202.5 1.5196 0.417844 0
M  V30 2191 C 203.747 1.65591 1.16559 0
M  V30 2192 C 204.075 0.381565 1.90721 0
M  V30 2193 O 203.33 -0.635156 1.85106 0
M  V30 2194 C 203.629 2.82269 2.19223 0
M  V30 2195 C 203.295 4.20819 1.61933 0
M  V30 2196 C 201.957 4.58506 1.46033 0
M  V30 2197 C 204.309 5.07196 1.20008 0
M  V30 2198 C 201.637 5.80257 0.867113 0
M  V30 2199 C 203.989 6.29544 0.621086 0
M  V30 2200 C 202.653 6.65987 0.449144 0
M  V30 2201 H 201.923 0.605939 0.42652 0
M  V30 2202 H 204.57 1.86041 0.45397 0
M  V30 2203 H 202.875 2.56118 2.96498 0
M  V30 2204 H 204.572 2.90012 2.76936 0
M  V30 2205 H 201.162 3.91116 1.7529 0
M  V30 2206 H 205.346 4.7867 1.31105 0
M  V30 2207 H 200.602 6.07124 0.721833 0
M  V30 2208 H 204.776 6.95805 0.287798 0
M  V30 2209 H 202.403 7.60199 -0.012632 0
M  V30 2210 N 203.978 -0.674533 1.42435 0
M  V30 2211 C 205.227 -1.43034 1.42212 0
M  V30 2212 C 205.54 -1.95555 0.0420788 0
M  V30 2213 O 206.746 -2.71374 -0.0827558 0
M  V30 2214 C 205.202 -2.58748 2.50155 0
M  V30 2215 C 204.81 -2.12925 3.94166 0
M  V30 2216 C 206.554 -3.36257 2.59098 0
M  V30 2217 C 204.461 -3.25723 4.93618 0
M  V30 2218 H 203.391 -0.537345 0.528939 0
M  V30 2219 H 206.042 -0.73024 1.68344 0
M  V30 2220 H 204.424 -3.31128 2.17188 0
M  V30 2221 H 205.598 -1.47697 4.36488 0
M  V30 2222 H 203.913 -1.48354 3.89076 0
M  V30 2223 H 206.51 -4.20264 3.30578 0
M  V30 2224 H 206.853 -3.82866 1.63461 0
M  V30 2225 H 207.386 -2.70947 2.9126 0
M  V30 2226 H 204.125 -2.84105 5.90732 0
M  V30 2227 H 203.645 -3.89732 4.55926 0
M  V30 2228 H 205.324 -3.91186 5.15347 0
M  V30 2229 N 205.456 -1.28612 -0.910864 0
M  V30 2230 C 206.406 -1.09423 -2.00026 0
M  V30 2231 C 207.39 -0.0170079 -1.60891 0
M  V30 2232 O 208.582 -0.237472 -1.754 0
M  V30 2233 C 205.711 -0.76114 -3.34756 0
M  V30 2234 C 204.797 -1.87735 -3.80285 0
M  V30 2235 N 205.188 -3.11938 -3.98156 0
M  V30 2236 C 203.486 -1.76786 -4.09467 0
M  V30 2237 C 204.187 -3.84687 -4.36338 0
M  V30 2238 N 203.163 -3.12555 -4.44759 0
M  V30 2239 H 206.965 -2.03658 -2.11898 0
M  V30 2240 H 204.479 -1.19573 -1.09891 0
M  V30 2241 H 206.476 -0.604743 -4.12491 0
M  V30 2242 H 205.136 0.173403 -3.24237 0
M  V30 2243 H 206.147 -3.47516 -3.83996 0
M  V30 2244 H 202.824 -0.905284 -4.07567 0
M  V30 2245 H 204.214 -4.91518 -4.58104 0
M  V30 2246 N 206.934 1.1197 -1.10907 0
M  V30 2247 C 207.867 2.16998 -0.706192 0
M  V30 2248 C 208.845 1.59903 0.294897 0
M  V30 2249 O 210.029 1.87513 0.192636 0
M  V30 2250 C 207.156 3.38673 -0.0427664 0
M  V30 2251 C 206.202 4.14414 -1.00811 0
M  V30 2252 S 207.035 4.72079 -2.52789 0
M  V30 2253 C 208.191 5.97083 -1.87731 0
M  V30 2254 H 208.424 2.50837 -1.59587 0
M  V30 2255 H 205.957 1.23508 -0.926555 0
M  V30 2256 H 207.915 4.09142 0.333668 0
M  V30 2257 H 206.576 3.03105 0.823788 0
M  V30 2258 H 205.769 5.016 -0.491259 0
M  V30 2259 H 205.371 3.49678 -1.3267 0
M  V30 2260 H 207.663 6.66599 -1.21044 0
M  V30 2261 H 208.606 6.53403 -2.72892 0
M  V30 2262 H 209.014 5.4837 -1.33979 0
M  V30 2263 N 208.412 0.89855 1.29475 0
M  V30 2264 C 209.661 0.519863 1.94885 0
M  V30 2265 C 209.974 -0.9383 1.71625 0
M  V30 2266 O 211.18 -1.42445 2.31131 0
M  V30 2267 C 209.636 0.878836 3.49005 0
M  V30 2268 C 209.244 2.35569 3.81066 0
M  V30 2269 C 210.988 0.570004 4.20656 0
M  V30 2270 C 208.895 2.65558 5.28425 0
M  V30 2271 H 207.825 0.190692 0.729488 0
M  V30 2272 H 210.476 1.09539 1.47219 0
M  V30 2273 H 208.858 0.232253 3.95318 0
M  V30 2274 H 210.032 3.04773 3.45616 0
M  V30 2275 H 208.347 2.63343 3.22552 0
M  V30 2276 H 210.944 0.770925 5.29113 0
M  V30 2277 H 211.287 -0.491404 4.1339 0
M  V30 2278 H 211.82 1.17438 3.8007 0
M  V30 2279 H 208.559 3.70493 5.40754 0
M  V30 2280 H 208.079 2.00977 5.65127 0
M  V30 2281 H 209.758 2.51765 5.96006 0
M  V30 2282 N 209.89 -1.43072 0.660911 0
M  V30 2283 C 210.822 -2.29108 -0.0647641 0
M  V30 2284 C 211.835 -1.42928 -0.779448 0
M  V30 2285 O 213.024 -1.66788 -0.635921 0
M  V30 2286 C 210.124 -3.20032 -1.11503 0
M  V30 2287 C 209.297 -4.34792 -0.476955 0
M  V30 2288 C 208.356 -5.06534 -1.42513 0
M  V30 2289 O 207.382 -5.61538 -0.930771 0
M  V30 2290 N 208.584 -5.1075 -2.75889 0
M  V30 2291 H 211.349 -2.92029 0.673731 0
M  V30 2292 H 208.91 -1.53846 0.50427 0
M  V30 2293 H 210.902 -3.64892 -1.75032 0
M  V30 2294 H 209.472 -2.58658 -1.75541 0
M  V30 2295 H 208.692 -3.92752 0.337572 0
M  V30 2296 H 209.98 -5.0879 -0.0318525 0
M  V30 2297 H 209.378 -4.67447 -3.18606 0
M  V30 2298 H 207.935 -5.59302 -3.347 0
M  V30 2299 N 211.368 -0.403325 -1.52352 0
M  V30 2300 C 212.301 0.469463 -2.23319 0
M  V30 2301 C 213.279 1.05272 -1.23922 0
M  V30 2302 O 214.463 1.10169 -1.52954 0
M  V30 2303 C 211.59 1.6511 -2.9573 0
M  V30 2304 C 210.636 1.19178 -4.0951 0
M  V30 2305 S 211.469 0.161718 -5.35256 0
M  V30 2306 C 212.625 1.34882 -6.11194 0
M  V30 2307 H 212.858 -0.133134 -2.97002 0
M  V30 2308 H 210.391 -0.187588 -1.53256 0
M  V30 2309 H 212.349 2.3287 -3.38056 0
M  V30 2310 H 211.01 2.22503 -2.21701 0
M  V30 2311 H 210.203 2.07444 -4.59329 0
M  V30 2312 H 209.805 0.592911 -3.6927 0
M  V30 2313 H 212.097 2.27345 -6.38217 0
M  V30 2314 H 213.04 0.89128 -7.02468 0
M  V30 2315 H 213.448 1.57198 -5.42171 0
M  V30 2316 N 212.846 1.57033 -0.133567 0
M  V30 2317 C 213.776 2.1909 0.807567 0
M  V30 2318 C 214.757 1.13517 1.26681 0
M  V30 2319 O 215.942 1.41809 1.32679 0
M  V30 2320 C 213.072 2.80188 2.05212 0
M  V30 2321 C 212.026 3.91471 1.73015 0
M  V30 2322 C 211.352 4.39443 3.04622 0
M  V30 2323 C 212.652 5.12886 0.987168 0
M  V30 2324 H 214.346 2.97988 0.290403 0
M  V30 2325 H 211.892 1.43335 0.138239 0
M  V30 2326 H 213.845 3.22264 2.71521 0
M  V30 2327 H 212.569 1.98601 2.59278 0
M  V30 2328 H 211.228 3.49993 1.0909 0
M  V30 2329 H 210.876 3.54695 3.56651 0
M  V30 2330 H 210.576 5.14495 2.83847 0
M  V30 2331 H 212.1 4.8418 3.72024 0
M  V30 2332 H 213.514 5.51891 1.55208 0
M  V30 2333 H 211.911 5.93615 0.87985 0
M  V30 2334 H 212.981 4.84894 -0.0235286 0
M  V30 2335 N 214.325 -0.140222 1.56975 0
M  V30 2336 C 215.555 -0.865181 1.87612 0
M  V30 2337 C 215.963 -1.74942 0.72055 0
M  V30 2338 O 215.306 -1.80917 -0.318561 0
M  V30 2339 C 215.368 -1.76782 3.13031 0
M  V30 2340 C 215.032 -1.06005 4.44536 0
M  V30 2341 C 216.029 -0.410768 5.18275 0
M  V30 2342 C 213.714 -1.04754 4.91255 0
M  V30 2343 C 215.708 0.241572 6.36942 0
M  V30 2344 C 213.395 -0.391394 6.09845 0
M  V30 2345 C 214.393 0.252029 6.82535 0
M  V30 2346 O 214.081 0.897757 7.98871 0
M  V30 2347 H 213.813 -0.255188 0.625983 0
M  V30 2348 H 216.367 -0.135653 2.04952 0
M  V30 2349 H 214.597 -2.53846 2.91718 0
M  V30 2350 H 216.286 -2.36533 3.29859 0
M  V30 2351 H 217.052 -0.412195 4.83245 0
M  V30 2352 H 212.931 -1.53777 4.34596 0
M  V30 2353 H 216.475 0.744375 6.93617 0
M  V30 2354 H 212.372 -0.387656 6.44335 0
M  V30 2355 H 213.14 0.800102 8.1458 0
M  V30 2356 N 215.803 -1.52179 -0.40978 0
M  V30 2357 C 217.033 -1.69807 -1.17682 0
M  V30 2358 C 217.441 -0.406908 -1.84773 0
M  V30 2359 O 216.784 0.626863 -1.72673 0
M  V30 2360 C 216.846 -2.77712 -2.2829 0
M  V30 2361 C 216.51 -4.19481 -1.81341 0
M  V30 2362 C 217.507 -5.03345 -1.30154 0
M  V30 2363 C 215.192 -4.65713 -1.88194 0
M  V30 2364 C 217.186 -6.31511 -0.864416 0
M  V30 2365 C 214.873 -5.93869 -1.44093 0
M  V30 2366 C 215.871 -6.76597 -0.933023 0
M  V30 2367 O 215.559 -8.02354 -0.49838 0
M  V30 2368 H 215.291 -0.572372 -0.359675 0
M  V30 2369 H 217.845 -1.99511 -0.488311 0
M  V30 2370 H 216.075 -2.43383 -3.00502 0
M  V30 2371 H 217.764 -2.83946 -2.90051 0
M  V30 2372 H 218.53 -4.68819 -1.24232 0
M  V30 2373 H 214.409 -4.01424 -2.26671 0
M  V30 2374 H 217.953 -6.96033 -0.467286 0
M  V30 2375 H 213.85 -6.27903 -1.49694 0
M  V30 2376 H 214.618 -8.16135 -0.621747 0
M  V30 2377 N 217.281 0.66697 -1.42791 0
M  V30 2378 C 218.527 1.4291 -1.43891 0
M  V30 2379 C 218.86 1.94114 -0.0578972 0
M  V30 2380 O 218.135 1.71414 0.91911 0
M  V30 2381 C 218.418 2.62049 -2.46987 0
M  V30 2382 C 218.271 2.16426 -3.94309 0
M  V30 2383 C 219.59 3.64266 -2.46978 0
M  V30 2384 H 216.709 0.518306 -0.523954 0
M  V30 2385 H 219.351 0.757321 -1.74255 0
M  V30 2386 H 217.501 3.19361 -2.21225 0
M  V30 2387 H 219.173 1.64221 -4.31079 0
M  V30 2388 H 217.416 1.47925 -4.078 0
M  V30 2389 H 218.087 3.02038 -4.62036 0
M  V30 2390 H 220.563 3.16686 -2.69906 0
M  V30 2391 H 219.439 4.45196 -3.21079 0
M  V30 2392 H 219.7 4.15927 -1.49857 0
M  V30 2393 N 218.759 1.29093 0.90403 0
M  V30 2394 C 219.706 1.13853 2.00764 0
M  V30 2395 C 220.676 0.0330084 1.66067 0
M  V30 2396 O 221.861 0.199733 1.89752 0
M  V30 2397 C 219.001 0.816537 3.35301 0
M  V30 2398 C 218.114 2.00206 3.82807 0
M  V30 2399 C 217.249 1.61983 5.059 0
M  V30 2400 C 216.288 2.77143 5.45764 0
M  V30 2401 N 215.425 2.39346 6.60044 0
M  V30 2402 H 220.265 2.08276 2.13132 0
M  V30 2403 H 217.802 1.03648 1.04381 0
M  V30 2404 H 219.76 0.610557 4.12708 0
M  V30 2405 H 218.39 -0.090779 3.22672 0
M  V30 2406 H 217.442 2.31988 3.01473 0
M  V30 2407 H 218.754 2.86512 4.08304 0
M  V30 2408 H 217.908 1.37649 5.90879 0
M  V30 2409 H 216.647 0.728202 4.82233 0
M  V30 2410 H 215.652 3.02165 4.59322 0
M  V30 2411 H 216.877 3.66964 5.71414 0
M  V30 2412 H 214.823 1.52665 6.37989 0
M  V30 2413 H 214.74 3.19185 6.85315 0
M  V30 2414 H 216.008 2.1832 7.48303 0
M  V30 2415 N 220.237 -1.11381 1.11499 0
M  V30 2416 C 221.514 -1.7955 0.775965 0
M  V30 2417 C 221.894 -1.97859 -0.73588 0
M  V30 2418 O 221.242 -1.56376 -1.66609 0
M  V30 2419 C 221.452 -3.13196 1.53977 0
M  V30 2420 C 222.8 -3.88227 1.71944 0
M  V30 2421 O 223.824 -3.22887 1.50407 0
M  V30 2422 O 222.683 -5.05477 2.07738 0
M  V30 2423 H 219.777 -0.777728 0.28119 0
M  V30 2424 H 222.323 -1.18118 1.21845 0
M  V30 2425 H 221.095 -2.95229 2.56818 0
M  V30 2426 H 220.718 -3.82342 1.09088 0
M  V30 2427 N 221.715 -0.905404 -1.28997 0
M  V30 2428 C 222.964 -0.530191 -1.94607 0
M  V30 2429 C 223.277 0.929185 -1.72121 0
M  V30 2430 O 224.483 1.41218 -2.31883 0
M  V30 2431 C 222.939 -0.897333 -3.48534 0
M  V30 2432 C 222.547 -2.37587 -3.79811 0
M  V30 2433 C 224.291 -0.592304 -4.20347 0
M  V30 2434 C 222.198 -2.68357 -5.27009 0
M  V30 2435 H 221.128 -0.194558 -0.728466 0
M  V30 2436 H 223.779 -1.10318 -1.46636 0
M  V30 2437 H 222.161 -0.253214 -3.9519 0
M  V30 2438 H 223.335 -3.06602 -3.43994 0
M  V30 2439 H 221.65 -2.6505 -3.2115 0
M  V30 2440 H 224.247 -0.798975 -5.28697 0
M  V30 2441 H 224.59 0.469474 -4.13644 0
M  V30 2442 H 225.123 -1.19452 -3.79442 0
M  V30 2443 H 221.862 -3.73355 -5.38782 0
M  V30 2444 H 221.382 -2.03971 -5.64053 0
M  V30 2445 H 223.061 -2.54922 -5.94663 0
M  V30 2446 N 223.193 1.4272 -0.668489 0
M  V30 2447 C 224.604 1.84793 -0.266151 0
M  V30 2448 C 224.955 1.55959 1.19043 0
M  V30 2449 O 224.08 1.01622 1.91055 0
M  V30 2450 C 224.675 3.35436 -0.476271 0
M  V30 2451 C 223.234 3.76182 -0.128113 0
M  V30 2452 C 222.381 2.66344 -0.771777 0
M  V30 2453 H 225.332 1.32656 -0.871098 0
M  V30 2454 H 225.353 3.79515 0.273561 0
M  V30 2455 H 224.865 3.5639 -1.53647 0
M  V30 2456 H 222.966 3.60836 0.928891 0
M  V30 2457 H 223.079 4.75766 -0.564231 0
M  V30 2458 H 221.443 2.53885 -0.203652 0
M  V30 2459 H 222.226 2.90123 -1.83531 0
M  V30 2460 N 224.671 0.411399 1.52136 0
M  V30 2461 C 225.634 -0.401089 2.25663 0
M  V30 2462 C 226.634 -0.971732 1.28117 0
M  V30 2463 O 227.824 -0.850254 1.52041 0
M  V30 2464 C 224.956 -1.56483 3.02863 0
M  V30 2465 H 226.149 0.24295 2.98914 0
M  V30 2466 H 223.702 0.163968 1.55438 0
M  V30 2467 H 224.437 -2.24567 2.33967 0
M  V30 2468 H 224.222 -1.16211 3.74483 0
M  V30 2469 H 225.712 -2.13951 3.58629 0
M  V30 2470 N 226.149 -1.5696 0.141893 0
M  V30 2471 C 227.377 -2.00322 -0.517579 0
M  V30 2472 C 227.792 -1.02193 -1.58752 0
M  V30 2473 O 227.149 -0.0181619 -1.82491 0
M  V30 2474 C 227.2 -3.43618 -1.12289 0
M  V30 2475 O 226.921 -4.37995 -0.0956929 0
M  V30 2476 C 228.422 -4.02231 -1.86347 0
M  V30 2477 H 225.642 -0.657243 -0.135177 0
M  V30 2478 H 228.186 -2.03146 0.234973 0
M  V30 2479 H 226.341 -3.41662 -1.82609 0
M  V30 2480 H 226.755 -5.21729 -0.538469 0
M  V30 2481 H 228.229 -5.04509 -2.23997 0
M  V30 2482 H 228.706 -3.42655 -2.74744 0
M  V30 2483 H 229.312 -4.07802 -1.20737 0
M  V30 2484 N 227.627 0.131896 -1.57047 0
M  V30 2485 C 228.557 1.16384 -2.02428 0
M  V30 2486 C 229.538 1.43936 -0.90644 0
M  V30 2487 O 230.723 1.54599 -1.17528 0
M  V30 2488 C 227.853 2.49328 -2.4177 0
M  V30 2489 C 226.807 2.36266 -3.56879 0
M  V30 2490 C 226.133 3.74057 -3.8208 0
M  V30 2491 C 227.433 1.834 -4.89042 0
M  V30 2492 H 229.127 0.786433 -2.88887 0
M  V30 2493 H 226.673 0.376855 -1.38981 0
M  V30 2494 H 228.626 3.21759 -2.7212 0
M  V30 2495 H 227.35 2.88934 -1.52266 0
M  V30 2496 H 226.009 1.66286 -3.26718 0
M  V30 2497 H 225.657 4.11125 -2.89803 0
M  V30 2498 H 225.357 3.66174 -4.59554 0
M  V30 2499 H 226.881 4.48012 -4.1487 0
M  V30 2500 H 228.295 2.45636 -5.18011 0
M  V30 2501 H 226.692 1.8637 -5.70426 0
M  V30 2502 H 227.762 0.790662 -4.7841 0
M  V30 2503 N 229.106 1.52395 0.401703 0
M  V30 2504 C 230.053 1.76268 1.48991 0
M  V30 2505 C 231.023 0.605386 1.54675 0
M  V30 2506 O 232.208 0.843742 1.7113 0
M  V30 2507 C 229.348 1.92592 2.86361 0
M  V30 2508 C 228.461 3.20259 2.89928 0
M  V30 2509 C 227.596 3.26972 4.18644 0
M  V30 2510 C 226.635 4.48812 4.16214 0
M  V30 2511 N 225.772 4.52877 5.36514 0
M  V30 2512 H 230.612 2.6914 1.27935 0
M  V30 2513 H 228.149 1.33355 0.620871 0
M  V30 2514 H 230.107 2.0004 3.66115 0
M  V30 2515 H 228.737 1.03093 3.05895 0
M  V30 2516 H 227.789 3.21945 2.02621 0
M  V30 2517 H 229.101 4.10056 2.83999 0
M  V30 2518 H 228.255 3.33533 5.06794 0
M  V30 2519 H 226.994 2.35126 4.27278 0
M  V30 2520 H 225.999 4.4239 3.26453 0
M  V30 2521 H 227.224 5.41961 4.09213 0
M  V30 2522 H 225.17 3.63917 5.45802 0
M  V30 2523 H 225.087 5.36529 5.32609 0
M  V30 2524 H 226.355 4.63676 6.26597 0
M  V30 2525 N 230.584 -0.659388 1.43143 0
M  V30 2526 C 231.831 -1.41935 1.44433 0
M  V30 2527 C 232.159 -1.94387 0.0663522 0
M  V30 2528 O 231.414 -1.72314 -0.927706 0
M  V30 2529 C 231.713 -2.62206 2.42864 0
M  V30 2530 C 231.379 -2.28208 3.88886 0
M  V30 2531 C 230.041 -2.18647 4.28657 0
M  V30 2532 C 232.393 -2.00887 4.8093 0
M  V30 2533 C 229.721 -1.79914 5.58433 0
M  V30 2534 C 232.073 -1.63653 6.11065 0
M  V30 2535 C 230.737 -1.52614 6.49819 0
M  V30 2536 H 230.007 -0.519376 0.528517 0
M  V30 2537 H 232.654 -0.750453 1.76183 0
M  V30 2538 H 230.959 -3.34199 2.04495 0
M  V30 2539 H 232.656 -3.2041 2.41119 0
M  V30 2540 H 229.246 -2.36557 3.57406 0
M  V30 2541 H 233.43 -2.07198 4.5098 0
M  V30 2542 H 228.686 -1.69948 5.87305 0
M  V30 2543 H 232.86 -1.41543 6.81864 0
M  V30 2544 H 230.487 -1.22371 7.50286 0
M  V30 2545 N 232.062 -1.29571 -0.897171 0
M  V30 2546 C 233.309 -1.17689 -1.6479 0
M  V30 2547 C 233.637 0.27107 -1.92602 0
M  V30 2548 O 232.892 1.21193 -1.53658 0
M  V30 2549 C 233.191 -1.9382 -3.00281 0
M  V30 2550 C 232.857 -3.43522 -2.92068 0
M  V30 2551 C 231.519 -3.84348 -2.89535 0
M  V30 2552 C 233.871 -4.38906 -2.81089 0
M  V30 2553 C 231.199 -5.18869 -2.73846 0
M  V30 2554 C 233.551 -5.73521 -2.66939 0
M  V30 2555 C 232.215 -6.13601 -2.62774 0
M  V30 2556 H 231.485 -0.430654 -0.603008 0
M  V30 2557 H 234.132 -1.60536 -1.04404 0
M  V30 2558 H 232.437 -1.4357 -3.64547 0
M  V30 2559 H 234.134 -1.82028 -3.57305 0
M  V30 2560 H 230.724 -3.11072 -2.94842 0
M  V30 2561 H 234.908 -4.08315 -2.82121 0
M  V30 2562 H 230.164 -5.4903 -2.69027 0
M  V30 2563 H 234.338 -6.47078 -2.57416 0
M  V30 2564 H 231.965 -7.17786 -2.50375 0
M  V30 2565 N 233.54 1.10788 -1.12088 0
M  V30 2566 C 234.49 2.15158 -0.754401 0
M  V30 2567 C 235.474 1.59026 0.244846 0
M  V30 2568 O 236.666 1.76927 0.0509097 0
M  V30 2569 C 233.795 3.42677 -0.206657 0
M  V30 2570 C 232.881 4.05751 -1.23398 0
M  V30 2571 N 233.272 4.43582 -2.43041 0
M  V30 2572 C 231.57 4.32764 -1.07848 0
M  V30 2573 C 232.271 4.93085 -3.08613 0
M  V30 2574 N 231.247 4.89664 -2.36072 0
M  V30 2575 H 235.049 2.42195 -1.6649 0
M  V30 2576 H 232.563 1.27872 -1.00112 0
M  V30 2577 H 234.56 4.16834 0.0740646 0
M  V30 2578 H 233.22 3.17101 0.698342 0
M  V30 2579 H 234.231 4.35395 -2.80449 0
M  V30 2580 H 230.908 4.16863 -0.230483 0
M  V30 2581 H 232.298 5.31933 -4.10483 0
M  V30 2582 N 235.018 0.912232 1.28515 0
M  V30 2583 C 236.243 0.559774 1.99703 0
M  V30 2584 C 236.668 -0.851393 1.67729 0
M  V30 2585 O 236.026 -1.56875 0.908834 0
M  V30 2586 C 236.074 0.773874 3.52198 0
M  V30 2587 O 235.178 -0.167842 4.12058 0
M  V30 2588 H 234.519 0.21723 0.627461 0
M  V30 2589 H 237.049 1.22725 1.63706 0
M  V30 2590 H 237.059 0.683386 4.02236 0
M  V30 2591 H 235.734 1.80261 3.74805 0
M  V30 2592 H 234.311 -0.0287509 3.72889 0
M  V30 2593 N 236.496 -1.42363 0.676048 0
M  V30 2594 C 237.426 -2.33497 0.0124832 0
M  V30 2595 C 238.407 -1.50748 -0.787981 0
M  V30 2596 O 239.592 -1.79346 -0.744884 0
M  V30 2597 C 236.722 -3.34377 -0.938582 0
M  V30 2598 C 235.676 -4.27289 -0.246622 0
M  V30 2599 C 235.002 -5.18386 -1.31071 0
M  V30 2600 C 236.302 -5.14916 0.875125 0
M  V30 2601 H 237.996 -2.89233 0.773593 0
M  V30 2602 H 235.542 -1.39073 0.37346 0
M  V30 2603 H 237.495 -3.97044 -1.41188 0
M  V30 2604 H 236.219 -2.76947 -1.73113 0
M  V30 2605 H 234.878 -3.66018 0.206456 0
M  V30 2606 H 234.526 -4.57282 -2.09528 0
M  V30 2607 H 234.226 -5.81378 -0.852839 0
M  V30 2608 H 235.75 -5.83929 -1.78492 0
M  V30 2609 H 237.164 -5.71262 0.482983 0
M  V30 2610 H 235.561 -5.86747 1.25887 0
M  V30 2611 H 236.631 -4.53242 1.72335 0
M  V30 2612 N 237.974 -0.419461 -1.51915 0
M  V30 2613 C 238.904 0.391813 -2.30189 0
M  V30 2614 C 239.885 1.03699 -1.34836 0
M  V30 2615 O 241.07 1.04403 -1.63748 0
M  V30 2616 C 238.2 1.50312 -3.13087 0
M  V30 2617 C 237.154 0.9824 -4.16573 0
M  V30 2618 C 236.48 2.18809 -4.8788 0
M  V30 2619 C 237.78 0.0292356 -5.22292 0
M  V30 2620 H 239.474 -0.26135 -2.98257 0
M  V30 2621 H 237.02 -0.127134 -1.43438 0
M  V30 2622 H 238.973 2.07773 -3.66617 0
M  V30 2623 H 237.697 2.18431 -2.42807 0
M  V30 2624 H 236.356 0.430119 -3.64068 0
M  V30 2625 H 236.004 2.85507 -4.14119 0
M  V30 2626 H 235.704 1.84615 -5.57845 0
M  V30 2627 H 237.228 2.76858 -5.44226 0
M  V30 2628 H 238.642 0.512976 -5.71 0
M  V30 2629 H 237.039 -0.2244 -5.9968 0
M  V30 2630 H 238.109 -0.912931 -4.76228 0
M  V30 2631 N 239.452 1.56882 -0.150215 0
M  V30 2632 C 240.7 1.9584 0.499105 0
M  V30 2633 C 241.021 1.03623 1.65188 0
M  V30 2634 O 240.291 0.0984084 1.95653 0
M  V30 2635 H 238.871 0.723119 0.187373 0
M  V30 2636 H 241.533 1.9358 -0.226466 0
M  V30 2637 H 240.629 2.99638 0.873122 0
M  V30 2638 N 240.93 -0.123565 1.57115 0
M  V30 2639 C 242.158 -0.846461 1.88793 0
M  V30 2640 C 242.573 -1.73652 0.740976 0
M  V30 2641 O 241.93 -1.80207 -0.288393 0
M  V30 2642 C 241.981 -1.6837 3.19897 0
M  V30 2643 O 241.702 -0.829477 4.30176 0
M  V30 2644 C 243.203 -2.51214 3.65248 0
M  V30 2645 H 240.423 -0.243573 0.625231 0
M  V30 2646 H 242.967 -0.109324 2.04208 0
M  V30 2647 H 241.122 -2.37364 3.06165 0
M  V30 2648 H 241.536 -1.40651 5.0529 0
M  V30 2649 H 243.01 -3.05497 4.59756 0
M  V30 2650 H 243.487 -3.28359 2.9168 0
M  V30 2651 H 244.093 -1.8747 3.81752 0
M  V30 2652 N 242.408 -1.52605 -0.393616 0
M  V30 2653 C 243.356 -1.77688 -1.50099 0
M  V30 2654 C 244.35 -0.644615 -1.56656 0
M  V30 2655 O 245.556 -0.826997 -1.59877 0
M  V30 2656 H 241.931 -0.562159 -0.499481 0
M  V30 2657 H 243.902 -2.7043 -1.26135 0
M  V30 2658 C 242.651 -1.95858 -2.87289 0
M  V30 2659 H 241.974 -2.8241 -2.82992 0
M  V30 2660 H 243.414 -2.174 -3.64024 0
M  V30 2661 C 241.873 -0.729848 -3.28899 0
M  V30 2662 O 242.403 0.0949217 -4.01588 0
M  V30 2663 N 240.609 -0.561283 -2.85128 0
M  V30 2664 H 240.156 -1.23357 -2.26143 0
M  V30 2665 H 240.114 0.2595 -3.13327 0
M  V30 2666 N 243.887 0.651787 -1.4349 0
M  V30 2667 C 244.85 1.74647 -1.48429 0
M  V30 2668 C 245.85 1.56513 -0.368817 0
M  V30 2669 O 247.04 1.62385 -0.630623 0
M  V30 2670 C 244.172 3.13533 -1.33827 0
M  V30 2671 H 245.365 1.71649 -2.4592 0
M  V30 2672 H 242.918 0.863573 -1.30277 0
M  V30 2673 H 243.653 3.22142 -0.37349 0
M  V30 2674 H 243.438 3.28101 -2.14691 0
M  V30 2675 H 244.928 3.93356 -1.40218 0
M  V30 2676 N 245.365 1.30045 0.890287 0
M  V30 2677 C 246.312 1.15976 1.99545 0
M  V30 2678 C 247.282 0.0506202 1.66023 0
M  V30 2679 O 248.467 0.219847 1.89529 0
M  V30 2680 C 245.607 0.852054 3.34416 0
M  V30 2681 C 244.72 2.04255 3.80662 0
M  V30 2682 C 243.855 1.6734 5.04154 0
M  V30 2683 C 242.894 2.82916 5.42794 0
M  V30 2684 N 242.031 2.46333 6.57468 0
M  V30 2685 H 246.871 2.10524 2.10911 0
M  V30 2686 H 244.408 1.04749 1.03276 0
M  V30 2687 H 246.366 0.654296 4.12037 0
M  V30 2688 H 244.996 -0.0565502 3.2275 0
M  V30 2689 H 244.048 2.35172 2.98995 0
M  V30 2690 H 245.36 2.90826 4.05242 0
M  V30 2691 H 244.514 1.43908 5.89386 0
M  V30 2692 H 243.253 0.779308 4.81433 0
M  V30 2693 H 242.258 3.0702 4.56091 0
M  V30 2694 H 243.483 3.73004 5.6749 0
M  V30 2695 H 241.429 1.59423 6.36334 0
M  V30 2696 H 241.346 3.26436 6.81891 0
M  V30 2697 H 242.614 2.26244 7.45945 0
M  V30 2698 N 246.843 -1.10192 1.12674 0
M  V30 2699 C 247.776 -2.15847 0.740625 0
M  V30 2700 C 248.754 -1.60352 -0.269421 0
M  V30 2701 O 249.938 -1.87796 -0.16278 0
M  V30 2702 C 247.065 -3.38562 0.096641 0
M  V30 2703 C 246.111 -4.12758 1.07391 0
M  V30 2704 S 246.944 -4.67997 2.60267 0
M  V30 2705 C 248.1 -5.94021 1.97206 0
M  V30 2706 H 248.333 -2.48266 1.63558 0
M  V30 2707 H 245.866 -1.22019 0.946087 0
M  V30 2708 H 247.824 -4.09621 -0.268535 0
M  V30 2709 H 246.485 -3.04377 -0.775462 0
M  V30 2710 H 245.678 -5.00755 0.570997 0
M  V30 2711 H 245.28 -3.47523 1.38216 0
M  V30 2712 H 247.572 -6.64589 1.31634 0
M  V30 2713 H 248.515 -6.48979 2.83253 0
M  V30 2714 H 248.923 -5.46169 1.42686 0
M  V30 2715 N 248.321 -0.919034 -1.28029 0
M  V30 2716 C 249.251 -0.428581 -2.29533 0
M  V30 2717 C 250.232 0.50659 -1.62381 0
M  V30 2718 O 251.417 0.413195 -1.89753 0
M  V30 2719 C 248.547 0.327388 -3.45753 0
M  V30 2720 C 247.501 -0.519137 -4.2484 0
M  V30 2721 C 246.827 0.365486 -5.33449 0
M  V30 2722 C 248.127 -1.77914 -4.91064 0
M  V30 2723 H 249.821 -1.27687 -2.70807 0
M  V30 2724 H 247.367 -0.615428 -1.30186 0
M  V30 2725 H 249.32 0.681378 -4.15855 0
M  V30 2726 H 248.044 1.20963 -3.03374 0
M  V30 2727 H 246.703 -0.855717 -3.56473 0
M  V30 2728 H 246.351 1.24642 -4.87312 0
M  V30 2729 H 246.051 -0.197356 -5.87268 0
M  V30 2730 H 247.575 0.715241 -6.06396 0
M  V30 2731 H 248.989 -1.49374 -5.53498 0
M  V30 2732 H 247.386 -2.2848 -5.54903 0
M  V30 2733 H 248.456 -2.50382 -4.15255 0
M  V30 2734 N 249.799 1.42003 -0.683588 0
M  V30 2735 C 251.048 2.00638 -0.206681 0
M  V30 2736 C 251.361 1.5472 1.19671 0
M  V30 2737 O 252.567 2.05833 1.77045 0
M  V30 2738 C 251.023 3.58487 -0.318632 0
M  V30 2739 C 250.631 4.1339 -1.72663 0
M  V30 2740 C 252.375 4.24384 0.0991141 0
M  V30 2741 C 250.282 5.63633 -1.79087 0
M  V30 2742 H 249.212 0.750408 -0.0735107 0
M  V30 2743 H 251.863 1.62624 -0.850048 0
M  V30 2744 H 250.245 3.94047 0.392781 0
M  V30 2745 H 251.419 3.89273 -2.46583 0
M  V30 2746 H 249.734 3.59976 -2.09299 0
M  V30 2747 H 252.331 5.34652 0.0713833 0
M  V30 2748 H 252.674 4.00505 1.13586 0
M  V30 2749 H 253.207 3.93816 -0.561599 0
M  V30 2750 H 249.946 5.92323 -2.80774 0
M  V30 2751 H 249.466 5.89714 -1.09535 0
M  V30 2752 H 251.145 6.28201 -1.5483 0
M  V30 2753 N 251.277 0.427512 1.51691 0
M  V30 2754 C 252.526 -0.143679 2.01188 0
M  V30 2755 C 252.839 -1.44642 1.31674 0
M  V30 2756 O 254.045 -2.09997 1.72086 0
M  V30 2757 C 252.501 -0.306602 3.58592 0
M  V30 2758 C 252.109 0.985125 4.37035 0
M  V30 2759 C 253.853 -0.832091 4.16265 0
M  V30 2760 C 251.76 0.788382 5.86122 0
M  V30 2761 H 250.69 -0.0574701 0.751807 0
M  V30 2762 H 253.341 0.555772 1.74881 0
M  V30 2763 H 251.723 -1.06882 3.81303 0
M  V30 2764 H 252.897 1.75492 4.26074 0
M  V30 2765 H 251.212 1.4384 3.90767 0
M  V30 2766 H 253.809 -0.995617 5.25349 0
M  V30 2767 H 254.152 -1.81186 3.74803 0
M  V30 2768 H 254.685 -0.128444 3.97593 0
M  V30 2769 H 251.424 1.74025 6.31978 0
M  V30 2770 H 250.944 0.0582143 5.99772 0
M  V30 2771 H 252.623 0.437722 6.45518 0
M  V30 2772 N 252.755 -1.56801 0.158532 0
M  V30 2773 C 254.001 -1.96781 -0.490405 0
M  V30 2774 C 254.334 -1.04397 -1.63753 0
M  V30 2775 O 253.609 -0.0885805 -1.94298 0
M  V30 2776 C 253.892 -3.4635 -0.985594 0
M  V30 2777 C 253.745 -4.49512 0.160824 0
M  V30 2778 C 255.064 -3.98697 -1.86355 0
M  V30 2779 H 252.183 -0.715482 -0.176788 0
M  V30 2780 H 254.825 -1.88451 0.242088 0
M  V30 2781 H 252.975 -3.53579 -1.60978 0
M  V30 2782 H 254.647 -4.54353 0.797537 0
M  V30 2783 H 252.89 -4.26013 0.818256 0
M  V30 2784 H 253.561 -5.51531 -0.227569 0
M  V30 2785 H 256.037 -3.94019 -1.33746 0
M  V30 2786 H 254.913 -5.03792 -2.17909 0
M  V30 2787 H 255.174 -3.41744 -2.8047 0
M  V30 2788 N 254.233 0.115231 -1.57178 0
M  V30 2789 C 255.479 0.82357 -1.85325 0
M  V30 2790 C 255.812 1.79349 -0.744814 0
M  V30 2791 O 255.087 1.92899 0.249024 0
M  V30 2792 C 255.37 1.57014 -3.24066 0
M  V30 2793 C 255.223 0.619565 -4.45513 0
M  V30 2794 C 256.542 2.52545 -3.60429 0
M  V30 2795 H 253.661 0.297948 -0.674089 0
M  V30 2796 H 256.303 0.0877138 -1.89797 0
M  V30 2797 H 254.453 2.19742 -3.20383 0
M  V30 2798 H 256.125 0.000837639 -4.613 0
M  V30 2799 H 254.368 -0.0686174 -4.33746 0
M  V30 2800 H 255.039 1.17866 -5.3927 0
M  V30 2801 H 257.515 1.9992 -3.64926 0
M  V30 2802 H 256.391 3.01811 -4.58477 0
M  V30 2803 H 256.652 3.35383 -2.88047 0
M  V30 2804 N 255.711 1.52812 0.385517 0
M  V30 2805 C 256.936 1.72207 1.15583 0
M  V30 2806 C 257.361 0.441034 1.82857 0
M  V30 2807 O 256.719 -0.603465 1.70962 0
M  V30 2808 C 256.767 2.87476 2.17692 0
M  V30 2809 O 255.871 2.54693 3.24354 0
M  V30 2810 H 255.212 0.572526 0.336319 0
M  V30 2811 H 257.742 1.99618 0.448744 0
M  V30 2812 H 257.752 3.13072 2.6163 0
M  V30 2813 H 256.427 3.80408 1.68115 0
M  V30 2814 H 255.004 2.3985 2.85529 0
M  V30 2815 N 257.189 -0.644168 1.43834 0
M  V30 2816 C 258.437 -1.40117 1.45642 0
M  V30 2817 C 258.758 -1.94814 0.0852413 0
M  V30 2818 O 258.028 -1.74988 -0.880688 0
M  V30 2819 H 256.608 -0.52005 0.536243 0
M  V30 2820 H 259.27 -0.7591 1.7951 0
M  V30 2821 H 258.366 -2.23902 2.17427 0
M  V30 2822 N 258.668 -1.30515 -0.883378 0
M  V30 2823 C 259.893 -1.22487 -1.67367 0
M  V30 2824 C 260.318 0.208767 -1.86938 0
M  V30 2825 O 259.676 1.15015 -1.40148 0
M  V30 2826 C 259.724 -1.96041 -3.02655 0
M  V30 2827 O 258.828 -1.28859 -3.91751 0
M  V30 2828 H 258.169 -0.423573 -0.511353 0
M  V30 2829 H 260.699 -1.72362 -1.10239 0
M  V30 2830 H 260.709 -2.05124 -3.52687 0
M  V30 2831 H 259.384 -3.00307 -2.8773 0
M  V30 2832 H 257.961 -1.28141 -3.50192 0
M  V30 2833 N 260.146 1.09593 -1.13257 0
M  V30 2834 C 261.371 1.8604 -0.916732 0
M  V30 2835 C 261.796 1.80504 0.529146 0
M  V30 2836 O 261.154 1.18127 1.37534 0
M  V30 2837 C 261.202 3.32017 -1.40703 0
M  V30 2838 O 260.306 4.08141 -0.591153 0
M  V30 2839 H 259.647 0.576943 -0.328683 0
M  V30 2840 H 262.177 1.38405 -1.50682 0
M  V30 2841 H 262.187 3.82865 -1.4099 0
M  V30 2842 H 260.862 3.35361 -2.45979 0
M  V30 2843 H 259.439 3.67084 -0.656005 0
M  V30 2844 N 261.624 0.925811 1.2754 0
M  V30 2845 C 262.872 0.564138 1.94067 0
M  V30 2846 C 263.193 -0.897188 1.73134 0
M  V30 2847 O 262.463 -1.63573 1.07799 0
M  V30 2848 H 261.043 0.205645 0.718136 0
M  V30 2849 H 263.705 1.1778 1.55287 0
M  V30 2850 H 262.801 0.76881 3.02483 0
M  V30 2851 N 263.102 -1.41638 0.69111 0
M  V30 2852 C 264.348 -2.02104 0.229258 0
M  V30 2853 C 264.703 -1.53741 -1.15678 0
M  V30 2854 O 263.996 -0.736849 -1.76865 0
M  V30 2855 C 264.19 -3.56714 0.221277 0
M  V30 2856 C 264.019 -4.20083 1.605 0
M  V30 2857 C 262.789 -4.54566 2.20676 0
M  V30 2858 C 264.987 -4.46587 2.55078 0
M  V30 2859 N 262.969 -5.03199 3.5166 0
M  V30 2860 C 264.34 -4.96946 3.70735 0
M  V30 2861 C 266.395 -4.28593 2.53401 0
M  V30 2862 C 265.098 -5.31203 4.8499 0
M  V30 2863 C 267.124 -4.63936 3.66765 0
M  V30 2864 C 266.486 -5.14463 4.81152 0
M  V30 2865 H 262.585 -0.771256 0.12918 0
M  V30 2866 H 265.169 -1.72251 0.907626 0
M  V30 2867 H 263.34 -3.86051 -0.426562 0
M  V30 2868 H 265.072 -4.03896 -0.254983 0
M  V30 2869 H 261.827 -4.4087 1.73005 0
M  V30 2870 H 262.251 -5.31926 4.18789 0
M  V30 2871 H 266.893 -3.88771 1.66184 0
M  V30 2872 H 264.611 -5.69951 5.72871 0
M  V30 2873 H 268.197 -4.51677 3.66714 0
M  V30 2874 H 267.077 -5.41299 5.67419 0
M  V30 2875 N 264.58 -0.43555 -1.51462 0
M  V30 2876 C 265.857 0.191364 -1.94662 0
M  V30 2877 C 266.237 1.60254 -1.37411 0
M  V30 2878 O 265.585 2.2152 -0.560458 0
M  V30 2879 C 265.795 0.17091 -3.48581 0
M  V30 2880 C 267.143 0.377357 -4.2292 0
M  V30 2881 O 268.167 0.249104 -3.55328 0
M  V30 2882 O 267.026 0.63247 -5.42828 0
M  V30 2883 H 264.12 0.130932 -0.816569 0
M  V30 2884 H 266.666 -0.4934 -1.62369 0
M  V30 2885 H 265.438 -0.815738 -3.82703 0
M  V30 2886 H 265.061 0.898659 -3.87311 0
M  V30 2887 N 266.058 1.56714 -0.166846 0
M  V30 2888 C 267.005 2.17746 0.765193 0
M  V30 2889 C 267.975 1.11614 1.23011 0
M  V30 2890 O 269.16 1.39745 1.29908 0
M  V30 2891 C 266.3 2.81882 1.9909 0
M  V30 2892 C 265.413 4.02462 1.56997 0
M  V30 2893 C 264.548 4.54537 2.749 0
M  V30 2894 C 263.587 5.67538 2.29275 0
M  V30 2895 N 262.724 6.14142 3.40255 0
M  V30 2896 H 267.564 2.97048 0.237952 0
M  V30 2897 H 265.101 1.4672 0.105725 0
M  V30 2898 H 267.059 3.17221 2.70974 0
M  V30 2899 H 265.689 2.05191 2.49192 0
M  V30 2900 H 264.741 3.72973 0.748037 0
M  V30 2901 H 266.053 4.84273 1.19503 0
M  V30 2902 H 265.207 4.92035 3.54946 0
M  V30 2903 H 263.946 3.71774 3.1565 0
M  V30 2904 H 262.951 5.29597 1.47674 0
M  V30 2905 H 264.176 6.52099 1.89588 0
M  V30 2906 H 262.122 5.3431 3.8059 0
M  V30 2907 H 262.039 6.9093 3.06841 0
M  V30 2908 H 263.307 6.56289 4.206 0
M  V30 2909 N 267.536 -0.106894 1.57237 0
M  V30 2910 C 268.466 -1.13148 2.04254 0
M  V30 2911 C 269.447 -1.42476 0.929224 0
M  V30 2912 O 270.632 -1.52709 1.19973 0
M  V30 2913 C 267.762 -2.4545 2.45706 0
M  V30 2914 C 266.716 -2.30558 3.60592 0
M  V30 2915 C 266.042 -3.67931 3.87983 0
M  V30 2916 C 267.342 -1.75597 4.91897 0
M  V30 2917 H 269.036 -0.740374 2.90101 0
M  V30 2918 H 266.582 -0.354696 1.39563 0
M  V30 2919 H 268.535 -3.17389 2.77205 0
M  V30 2920 H 267.259 -2.86475 1.56843 0
M  V30 2921 H 265.918 -1.61067 3.29322 0
M  V30 2922 H 265.566 -4.06462 2.96306 0
M  V30 2923 H 265.266 -3.58817 4.65322 0
M  V30 2924 H 266.79 -4.41356 4.21945 0
M  V30 2925 H 268.204 -2.37364 5.21854 0
M  V30 2926 H 266.601 -1.77272 5.73319 0
M  V30 2927 H 267.671 -0.714451 4.79608 0
M  V30 2928 N 269.014 -1.53014 -0.377408 0
M  V30 2929 C 270.26 -1.69821 -1.11948 0
M  V30 2930 C 270.615 -0.438581 -1.87335 0
M  V30 2931 O 269.908 0.568094 -1.82984 0
M  V30 2932 C 270.102 -2.87982 -2.11663 0
M  V30 2933 C 269.931 -4.25315 -1.46072 0
M  V30 2934 C 268.701 -4.90354 -1.21986 0
M  V30 2935 C 270.899 -5.06281 -0.904664 0
M  V30 2936 N 268.881 -6.11641 -0.526215 0
M  V30 2937 C 270.252 -6.19069 -0.339726 0
M  V30 2938 C 272.307 -4.91395 -0.8022 0
M  V30 2939 C 271.01 -7.18598 0.317669 0
M  V30 2940 C 273.036 -5.91187 -0.158606 0
M  V30 2941 C 272.398 -7.03289 0.39551 0
M  V30 2942 H 268.497 -0.674785 -0.395207 0
M  V30 2943 H 271.081 -1.90389 -0.407437 0
M  V30 2944 H 269.252 -2.68974 -2.80192 0
M  V30 2945 H 270.984 -2.93669 -2.78461 0
M  V30 2946 H 267.739 -4.49286 -1.49798 0
M  V30 2947 H 268.163 -6.76719 -0.195098 0
M  V30 2948 H 272.805 -4.04925 -1.21639 0
M  V30 2949 H 270.523 -8.04669 0.743836 0
M  V30 2950 H 274.109 -5.81744 -0.0804138 0
M  V30 2951 H 272.989 -7.79183 0.885648 0
M  V30 2952 N 270.492 0.636531 -1.44174 0
M  V30 2953 C 271.439 1.74875 -1.50624 0
M  V30 2954 C 272.409 1.62275 -0.35442 0
M  V30 2955 O 273.594 1.82276 -0.563908 0
M  V30 2956 C 270.734 3.13102 -1.45125 0
M  V30 2957 C 269.847 3.36717 -2.7064 0
M  V30 2958 C 268.982 4.64885 -2.57013 0
M  V30 2959 C 268.021 4.8166 -3.77717 0
M  V30 2960 N 267.158 6.01101 -3.62798 0
M  V30 2961 H 271.998 1.68697 -2.45653 0
M  V30 2962 H 269.535 0.823004 -1.21922 0
M  V30 2963 H 271.493 3.93034 -1.39929 0
M  V30 2964 H 270.123 3.18308 -0.536671 0
M  V30 2965 H 269.175 2.50763 -2.86046 0
M  V30 2966 H 270.487 3.44993 -3.60252 0
M  V30 2967 H 269.641 5.52969 -2.49619 0
M  V30 2968 H 268.38 4.58957 -1.64953 0
M  V30 2969 H 267.385 3.92007 -3.85501 0
M  V30 2970 H 268.61 4.89406 -4.70807 0
M  V30 2971 H 266.556 5.96273 -2.73486 0
M  V30 2972 H 266.473 6.10409 -4.46023 0
M  V30 2973 H 267.741 6.91761 -3.59286 0
M  V30 2974 N 271.97 1.30982 0.876444 0
M  V30 2975 C 272.917 1.18085 1.98304 0
M  V30 2976 C 273.887 0.0682263 1.6596 0
M  V30 2977 O 275.072 0.239937 1.89285 0
M  V30 2978 C 272.212 0.887475 3.33493 0
M  V30 2979 C 271.325 2.08281 3.78475 0
M  V30 2980 C 270.46 1.72678 5.0235 0
M  V30 2981 C 269.499 2.88657 5.39762 0
M  V30 2982 N 268.636 2.53292 6.54819 0
M  V30 2983 H 273.476 2.1275 2.08666 0
M  V30 2984 H 271.013 1.05839 1.02159 0
M  V30 2985 H 272.971 0.697961 4.1132 0
M  V30 2986 H 271.601 -0.022315 3.22792 0
M  V30 2987 H 270.653 2.3833 2.96484 0
M  V30 2988 H 271.965 2.95108 4.02135 0
M  V30 2989 H 271.119 1.50151 5.87826 0
M  V30 2990 H 269.858 0.830327 4.8058 0
M  V30 2991 H 268.863 3.1184 4.52809 0
M  V30 2992 H 270.088 3.79002 5.63502 0
M  V30 2993 H 268.034 1.66163 6.34607 0
M  V30 2994 H 267.951 3.3365 6.7839 0
M  V30 2995 H 269.219 2.34143 7.43503 0
M  V30 2996 N 273.449 -1.08991 1.13837 0
M  V30 2997 C 274.679 -1.84743 0.924859 0
M  V30 2998 C 275.087 -1.81629 -0.529874 0
M  V30 2999 O 274.43 -1.21397 -1.37872 0
M  V30 3000 C 274.492 -3.33568 1.34061 0
M  V30 3001 C 274.156 -3.60425 2.80968 0
M  V30 3002 C 275.153 -3.55771 3.79108 0
M  V30 3003 C 272.838 -3.88627 3.18236 0
M  V30 3004 C 274.832 -3.78939 5.12527 0
M  V30 3005 C 272.519 -4.11449 4.51833 0
M  V30 3006 C 273.517 -4.06598 5.48787 0
M  V30 3007 O 273.205 -4.28826 6.79973 0
M  V30 3008 H 272.937 -0.590258 0.329502 0
M  V30 3009 H 275.491 -1.38598 1.51591 0
M  V30 3010 H 273.721 -3.80442 0.692853 0
M  V30 3011 H 275.41 -3.90743 1.09886 0
M  V30 3012 H 276.176 -3.34005 3.51661 0
M  V30 3013 H 272.055 -3.91526 2.43369 0
M  V30 3014 H 275.599 -3.75068 5.88192 0
M  V30 3015 H 271.496 -4.32698 4.79002 0
M  V30 3016 H 272.264 -4.46264 6.86142 0
M  V30 3017 N 274.927 -0.932562 -1.27047 0
M  V30 3018 C 276.175 -0.574422 -1.93765 0
M  V30 3019 C 276.496 0.887993 -1.73608 0
M  V30 3020 O 275.766 1.62999 -1.08665 0
M  V30 3021 H 274.346 -0.209451 -0.717035 0
M  V30 3022 H 277.008 -1.18601 -1.5466 0
M  V30 3023 H 276.104 -0.784841 -3.02071 0
M  V30 3024 N 276.405 1.4127 -0.698611 0
M  V30 3025 C 277.63 2.06024 -0.238512 0
M  V30 3026 C 278.055 1.5224 1.10475 0
M  V30 3027 O 277.413 0.650623 1.69223 0
M  V30 3028 C 277.461 3.59988 -0.209952 0
M  V30 3029 O 276.565 4.04282 0.814235 0
M  V30 3030 H 275.906 0.653829 -0.115775 0
M  V30 3031 H 278.436 1.8098 -0.954326 0
M  V30 3032 H 278.446 4.07979 -0.0418436 0
M  V30 3033 H 277.121 3.98503 -1.1903 0
M  V30 3034 H 275.698 3.6779 0.615234 0
M  V30 3035 N 277.883 0.443576 1.51229 0
M  V30 3036 C 279.299 0.0962001 1.5931 0
M  V30 3037 C 279.499 -1.39501 1.45402 0
M  V30 3038 O 278.555 -2.16557 1.29843 0
M  V30 3039 C 279.868 0.621875 2.94199 0
M  V30 3040 C 281.416 0.582865 3.07525 0
M  V30 3041 C 281.891 1.08562 4.44948 0
M  V30 3042 N 283.382 1.04387 4.51284 0
M  V30 3043 C 284.117 1.40368 5.55954 0
M  V30 3044 N 283.613 1.83664 6.68011 0
M  V30 3045 N 285.406 1.32145 5.46346 0
M  V30 3046 H 277.557 1.41376 1.58514 0
M  V30 3047 H 279.82 0.582965 0.747567 0
M  V30 3048 H 279.526 1.66546 3.09767 0
M  V30 3049 H 279.4 0.0502125 3.77167 0
M  V30 3050 H 281.787 -0.451749 2.91622 0
M  V30 3051 H 281.868 1.191 2.26382 0
M  V30 3052 H 281.512 2.11873 4.61598 0
M  V30 3053 H 281.442 0.453956 5.2464 0
M  V30 3054 H 283.933 0.725986 3.70861 0
M  V30 3055 H 284.246 2.0934 7.43906 0
M  V30 3056 H 282.591 1.87596 6.69203 0
M  V30 3057 H 285.782 0.981808 4.57688 0
M  V30 3058 H 285.955 1.60514 6.27805 0
M  V30 3059 N 279.361 -1.56624 0.175154 0
M  V30 3060 C 280.608 -1.96999 -0.468811 0
M  V30 3061 C 280.936 -1.06129 -1.62994 0
M  V30 3062 O 280.191 -0.0961771 -1.95464 0
M  V30 3063 C 280.49 -3.43419 -0.989864 0
M  V30 3064 C 280.156 -4.50866 0.0557687 0
M  V30 3065 C 278.818 -4.79975 0.343134 0
M  V30 3066 C 281.17 -5.15551 0.765308 0
M  V30 3067 C 278.498 -5.71066 1.34536 0
M  V30 3068 C 280.85 -6.07724 1.75654 0
M  V30 3069 C 279.514 -6.35199 2.05132 0
M  V30 3070 H 278.784 -0.720869 -0.17155 0
M  V30 3071 H 281.431 -1.89616 0.267924 0
M  V30 3072 H 279.736 -3.47772 -1.80449 0
M  V30 3073 H 281.433 -3.72002 -1.49719 0
M  V30 3074 H 278.023 -4.28229 -0.178381 0
M  V30 3075 H 282.207 -4.9317 0.556513 0
M  V30 3076 H 277.463 -5.90635 1.57988 0
M  V30 3077 H 281.637 -6.56912 2.31169 0
M  V30 3078 H 279.264 -7.05584 2.8294 0
M  V30 3079 N 280.839 0.0985539 -1.57292 0
M  V30 3080 C 282.25 0.653457 -1.74891 0
M  V30 3081 C 282.601 1.7929 -0.796838 0
M  V30 3082 O 281.726 2.16385 0.0254886 0
M  V30 3083 C 282.321 1.19216 -3.17133 0
M  V30 3084 C 280.88 1.69316 -3.36168 0
M  V30 3085 C 280.027 0.601294 -2.70702 0
M  V30 3086 H 282.978 -0.127497 -1.58187 0
M  V30 3087 H 282.999 2.06154 -3.19814 0
M  V30 3088 H 282.511 0.362635 -3.86402 0
M  V30 3089 H 280.612 2.5468 -2.71972 0
M  V30 3090 H 280.725 1.78853 -4.44464 0
M  V30 3091 H 279.089 1.0399 -2.32504 0
M  V30 3092 H 279.872 -0.217592 -3.4261 0
M  V30 3093 N 282.317 1.53212 0.369288 0
M  V30 3094 C 283.249 1.75668 1.47219 0
M  V30 3095 C 284.262 0.637387 1.49804 0
M  V30 3096 O 285.451 0.913561 1.5335 0
M  V30 3097 C 282.551 1.81818 2.85999 0
M  V30 3098 C 281.724 3.11409 3.07153 0
M  V30 3099 C 280.783 3.08849 4.26026 0
M  V30 3100 O 279.809 3.82659 4.2138 0
M  V30 3101 N 281.011 2.29409 5.33246 0
M  V30 3102 H 283.776 2.70832 1.28337 0
M  V30 3103 H 281.337 1.51944 0.55898 0
M  V30 3104 H 283.329 1.77588 3.63655 0
M  V30 3105 H 281.899 0.939544 2.98146 0
M  V30 3106 H 281.119 3.28971 2.1719 0
M  V30 3107 H 282.407 3.97059 3.18154 0
M  V30 3108 H 281.805 1.68946 5.39883 0
M  V30 3109 H 280.362 2.31001 6.09493 0
M  V30 3110 N 283.795 -0.628877 1.44509 0
M  V30 3111 C 285.072 -1.38733 1.37886 0
M  V30 3112 C 285.452 -2.11065 0.0387008 0
M  V30 3113 O 284.8 -2.06476 -0.97878 0
M  V30 3114 C 285.01 -2.35188 2.57852 0
M  V30 3115 C 286.358 -2.9845 3.02014 0
M  V30 3116 O 287.382 -2.45513 2.58073 0
M  V30 3117 O 286.241 -3.94487 3.78209 0
M  V30 3118 H 283.335 -0.621015 0.54614 0
M  V30 3119 H 285.881 -0.653744 1.56602 0
M  V30 3120 H 284.653 -1.80855 3.46998 0
M  V30 3121 H 284.276 -3.1596 2.4136 0
M  V30 3122 N 285.273 -1.31445 -0.869486 0
M  V30 3123 C 286.55 -1.11795 -1.60503 0
M  V30 3124 C 286.93 0.327168 -2.08549 0
M  V30 3125 O 286.278 1.32135 -1.8642 0
M  V30 3126 C 286.488 -2.13258 -2.76265 0
M  V30 3127 C 287.836 -2.45805 -3.46215 0
M  V30 3128 O 288.86 -2.11688 -2.86473 0
M  V30 3129 O 287.719 -3.04228 -4.5399 0
M  V30 3130 H 284.813 -0.430421 -0.706163 0
M  V30 3131 H 287.359 -1.42925 -0.914907 0
M  V30 3132 H 286.131 -3.10461 -2.3818 0
M  V30 3133 H 285.754 -1.83035 -3.52964 0
M  V30 3134 N 286.751 1.08385 -1.14413 0
M  V30 3135 C 287.681 2.17321 -0.854044 0
M  V30 3136 C 288.662 1.69024 0.191049 0
M  V30 3137 O 289.847 1.94141 0.0476779 0
M  V30 3138 C 286.977 3.45719 -0.330983 0
M  V30 3139 C 285.931 4.07409 -1.31155 0
M  V30 3140 C 285.257 5.30762 -0.64778 0
M  V30 3141 C 286.557 4.48665 -2.67388 0
M  V30 3142 H 288.251 2.41845 -1.76498 0
M  V30 3143 H 285.797 1.16233 -0.850051 0
M  V30 3144 H 287.75 4.21241 -0.115645 0
M  V30 3145 H 286.474 3.2075 0.615381 0
M  V30 3146 H 285.133 3.33919 -1.51306 0
M  V30 3147 H 284.781 5.02078 0.304398 0
M  V30 3148 H 284.481 5.72992 -1.30207 0
M  V30 3149 H 286.005 6.08998 -0.441972 0
M  V30 3150 H 287.419 5.15364 -2.51143 0
M  V30 3151 H 285.816 5.01814 -3.29093 0
M  V30 3152 H 286.886 3.60543 -3.24248 0
M  V30 3153 N 288.23 0.939286 1.26551 0
M  V30 3154 C 289.47 0.5933 1.956 0
M  V30 3155 C 289.834 -0.851515 1.72085 0
M  V30 3156 O 291.035 -1.30634 2.34921 0
M  V30 3157 C 289.306 0.923996 3.45249 0
M  V30 3158 S 290.865 0.688269 4.33369 0
M  V30 3159 H 287.683 0.218591 0.676564 0
M  V30 3160 H 290.285 1.2102 1.5354 0
M  V30 3161 H 288.989 1.97297 3.59864 0
M  V30 3162 H 288.52 0.296746 3.92279 0
M  V30 3163 H 290.535 -0.448434 4.9417 0
M  V30 3164 N 289.708 -1.40897 0.706093 0
M  V30 3165 C 290.64 -2.29199 0.00815776 0
M  V30 3166 C 291.653 -1.45336 -0.733582 0
M  V30 3167 O 292.842 -1.68727 -0.582537 0
M  V30 3168 C 289.942 -3.23417 -1.01265 0
M  V30 3169 C 289.115 -4.36089 -0.338387 0
M  V30 3170 C 288.174 -5.10811 -1.26326 0
M  V30 3171 O 287.2 -5.64215 -0.751651 0
M  V30 3172 N 288.402 -5.19269 -2.595 0
M  V30 3173 H 291.167 -2.89738 0.766297 0
M  V30 3174 H 288.728 -1.52164 0.55296 0
M  V30 3175 H 290.72 -3.70276 -1.63334 0
M  V30 3176 H 289.29 -2.64112 -1.67223 0
M  V30 3177 H 288.51 -3.91479 0.462352 0
M  V30 3178 H 289.798 -5.08634 0.130031 0
M  V30 3179 H 289.196 -4.77347 -3.03573 0
M  V30 3180 H 287.753 -5.69667 -3.16737 0
M  V30 3181 N 291.186 -0.45159 -1.50991 0
M  V30 3182 C 292.416 0.108177 -2.06317 0
M  V30 3183 C 292.824 1.35774 -1.31765 0
M  V30 3184 O 292.167 1.79838 -0.374694 0
M  V30 3185 C 292.229 0.481659 -3.56259 0
M  V30 3186 C 291.893 -0.663114 -4.52163 0
M  V30 3187 C 292.89 -1.53947 -4.96585 0
M  V30 3188 C 290.575 -0.8479 -4.95092 0
M  V30 3189 C 292.569 -2.58518 -5.82621 0
M  V30 3190 C 290.256 -1.89686 -5.80915 0
M  V30 3191 C 291.254 -2.76388 -6.24579 0
M  V30 3192 O 290.942 -3.79482 -7.08695 0
M  V30 3193 H 290.674 0.00499183 -0.675982 0
M  V30 3194 H 293.228 -0.633659 -1.95381 0
M  V30 3195 H 291.458 1.27641 -3.65027 0
M  V30 3196 H 293.147 0.974233 -3.94035 0
M  V30 3197 H 293.913 -1.4083 -4.64103 0
M  V30 3198 H 289.792 -0.18258 -4.60638 0
M  V30 3199 H 293.336 -3.26224 -6.16623 0
M  V30 3200 H 289.233 -2.02817 -6.12809 0
M  V30 3201 H 290.001 -3.76234 -7.26905 0
M  V30 3202 N 292.664 1.56529 -0.183458 0
M  V30 3203 C 293.913 1.96419 0.458511 0
M  V30 3204 C 294.226 1.0727 1.63562 0
M  V30 3205 O 295.432 1.36893 2.34462 0
M  V30 3206 C 293.888 3.49298 0.867122 0
M  V30 3207 C 293.496 4.47092 -0.285057 0
M  V30 3208 C 295.24 3.97983 1.47683 0
M  V30 3209 C 293.147 5.91225 0.143862 0
M  V30 3210 H 292.077 0.733394 0.175071 0
M  V30 3211 H 294.728 1.81448 -0.273624 0
M  V30 3212 H 293.11 3.59731 1.65559 0
M  V30 3213 H 294.284 4.48383 -1.0625 0
M  V30 3214 H 292.599 4.08535 -0.805503 0
M  V30 3215 H 295.196 5.03134 1.80999 0
M  V30 3216 H 295.539 3.41618 2.37914 0
M  V30 3217 H 296.072 3.90617 0.752562 0
M  V30 3218 H 292.811 6.5149 -0.723974 0
M  V30 3219 H 292.331 5.93214 0.886413 0
M  V30 3220 H 294.01 6.44362 0.583628 0
M  V30 3221 N 294.142 -0.090211 1.57342 0
M  V30 3222 C 295.37 -0.806224 1.90546 0
M  V30 3223 C 295.785 -1.72041 0.777644 0
M  V30 3224 O 295.142 -1.80778 -0.250103 0
M  V30 3225 C 295.193 -1.61546 3.23396 0
M  V30 3226 O 294.914 -0.738043 4.31839 0
M  V30 3227 C 296.415 -2.4341 3.70495 0
M  V30 3228 H 293.635 -0.230256 0.630257 0
M  V30 3229 H 296.179 -0.0659843 2.04394 0
M  V30 3230 H 294.334 -2.30816 3.11131 0
M  V30 3231 H 294.748 -1.29901 5.08159 0
M  V30 3232 H 296.222 -2.95676 4.66133 0
M  V30 3233 H 296.699 -3.22098 2.98579 0
M  V30 3234 H 297.305 -1.79331 3.85643 0
M  V30 3235 N 295.62 -1.53406 -0.361157 0
M  V30 3236 C 296.845 -1.74024 -1.12829 0
M  V30 3237 C 297.27 -0.470069 -1.82132 0
M  V30 3238 O 296.628 0.57619 -1.719 0
M  V30 3239 C 296.676 -2.90903 -2.13091 0
M  V30 3240 O 295.78 -2.59821 -3.20261 0
M  V30 3241 H 295.121 -0.577804 -0.327168 0
M  V30 3242 H 297.651 -2.00307 -0.41693 0
M  V30 3243 H 297.661 -3.17194 -2.56616 0
M  V30 3244 H 296.336 -3.83034 -1.62042 0
M  V30 3245 H 294.913 -2.44362 -2.81677 0
M  V30 3246 N 297.098 0.621204 -1.44841 0
M  V30 3247 C 298.375 1.38 -1.38619 0
M  V30 3248 C 298.755 2.11041 -0.0498935 0
M  V30 3249 O 298.103 2.06992 0.967816 0
M  V30 3250 C 298.313 2.33817 -2.59096 0
M  V30 3251 C 299.661 2.96844 -3.03593 0
M  V30 3252 O 300.685 2.44141 -2.59371 0
M  V30 3253 O 299.544 3.92476 -3.80296 0
M  V30 3254 H 296.638 0.61811 -0.549426 0
M  V30 3255 H 299.184 0.645429 -1.56947 0
M  V30 3256 H 297.956 1.79012 -3.47952 0
M  V30 3257 H 297.579 3.14676 -2.43032 0
M  V30 3258 N 298.576 1.31904 0.862503 0
M  V30 3259 C 299.853 1.12644 1.59908 0
M  V30 3260 C 300.233 -0.316104 2.0872 0
M  V30 3261 O 299.581 -1.31145 1.87118 0
M  V30 3262 C 299.791 2.1472 2.7513 0
M  V30 3263 C 301.139 2.47637 3.44907 0
M  V30 3264 O 302.163 2.13205 2.85346 0
M  V30 3265 O 301.022 3.06632 4.52371 0
M  V30 3266 H 298.116 0.43416 0.703871 0
M  V30 3267 H 300.662 1.43408 0.907314 0
M  V30 3268 H 299.434 3.1172 2.3653 0
M  V30 3269 H 299.057 1.84905 3.51989 0
M  V30 3270 N 300.054 -1.07777 1.14986 0
M  V30 3271 C 300.984 -2.16865 0.865557 0
M  V30 3272 C 301.965 -1.69123 -0.182083 0
M  V30 3273 O 303.15 -1.94164 -0.0373815 0
M  V30 3274 C 300.28 -3.45539 0.349313 0
M  V30 3275 C 299.234 -4.06708 1.33313 0
M  V30 3276 C 298.56 -5.30411 0.675918 0
M  V30 3277 C 299.86 -4.47241 2.69764 0
M  V30 3278 H 301.554 -2.40905 1.77778 0
M  V30 3279 H 299.1 -1.15781 0.856203 0
M  V30 3280 H 301.053 -4.21174 0.137983 0
M  V30 3281 H 299.777 -3.21072 -0.598362 0
M  V30 3282 H 298.436 -3.33112 1.53075 0
M  V30 3283 H 298.084 -5.02232 -0.277767 0
M  V30 3284 H 297.784 -5.72293 1.33244 0
M  V30 3285 H 299.308 -6.08755 0.474262 0
M  V30 3286 H 300.722 -5.14025 2.53873 0
M  V30 3287 H 299.119 -5.00062 3.3175 0
M  V30 3288 H 300.189 -3.58818 3.26156 0
M  V30 3289 N 301.532 -0.945985 -1.26051 0
M  V30 3290 C 302.76 -0.613025 -1.9761 0
M  V30 3291 C 303.175 0.813035 -1.70397 0
M  V30 3292 O 302.532 1.54274 -0.974979 0
M  V30 3293 C 302.583 -0.85159 -3.51326 0
M  V30 3294 O 302.304 -2.22157 -3.77595 0
M  V30 3295 C 303.805 -0.529831 -4.40122 0
M  V30 3296 H 301.025 -0.230593 -0.630133 0
M  V30 3297 H 303.569 -1.268 -1.60443 0
M  V30 3298 H 301.724 -0.243151 -3.86636 0
M  V30 3299 H 302.138 -2.2852 -4.721 0
M  V30 3300 H 303.612 -0.747348 -5.46917 0
M  V30 3301 H 304.089 0.535341 -4.35925 0
M  V30 3302 H 304.695 -1.11721 -4.10364 0
M  V30 3303 N 303.011 1.40521 -0.713556 0
M  V30 3304 C 303.943 2.29191 -0.0203126 0
M  V30 3305 C 304.956 1.45723 0.725864 0
M  V30 3306 O 306.145 1.69033 0.573581 0
M  V30 3307 C 303.245 3.2395 0.995486 0
M  V30 3308 C 302.418 4.36262 0.315256 0
M  V30 3309 C 301.477 5.11474 1.23616 0
M  V30 3310 O 300.503 5.64606 0.721719 0
M  V30 3311 N 301.705 5.20638 2.56743 0
M  V30 3312 H 304.47 2.89327 -0.781652 0
M  V30 3313 H 302.031 1.51869 -0.561022 0
M  V30 3314 H 304.023 3.71137 1.61368 0
M  V30 3315 H 302.593 2.64995 1.6582 0
M  V30 3316 H 301.813 3.91228 -0.483106 0
M  V30 3317 H 303.101 5.08558 -0.157004 0
M  V30 3318 H 302.499 4.7895 3.01037 0
M  V30 3319 H 301.056 5.71339 3.13712 0
M  V30 3320 N 304.489 0.459591 1.5075 0
M  V30 3321 C 305.422 -0.386257 2.24907 0
M  V30 3322 C 306.4 -1.006 1.27744 0
M  V30 3323 O 307.584 -1.04416 1.56938 0
M  V30 3324 C 304.711 -1.54021 3.01654 0
M  V30 3325 C 303.757 -1.03898 4.13651 0
M  V30 3326 S 304.59 0.0370501 5.35487 0
M  V30 3327 C 305.746 -1.12105 6.15779 0
M  V30 3328 H 305.979 0.243272 2.96303 0
M  V30 3329 H 303.512 0.244339 1.52454 0
M  V30 3330 H 305.47 -2.20163 3.46466 0
M  V30 3331 H 304.131 -2.14121 2.29806 0
M  V30 3332 H 303.324 -1.90254 4.66711 0
M  V30 3333 H 302.926 -0.45545 3.71216 0
M  V30 3334 H 305.218 -2.03501 6.46215 0
M  V30 3335 H 306.161 -0.62995 7.05292 0
M  V30 3336 H 306.569 -1.36967 5.47631 0
M  V30 3337 N 305.967 -1.56429 0.191757 0
M  V30 3338 C 306.897 -2.21937 -0.725696 0
M  V30 3339 C 307.878 -1.1814 -1.2238 0
M  V30 3340 O 309.063 -1.46636 -1.27325 0
M  V30 3341 C 306.193 -2.87611 -1.94672 0
M  V30 3342 C 305.147 -3.97623 -1.58366 0
M  V30 3343 C 304.473 -4.50446 -2.88102 0
M  V30 3344 C 305.773 -5.16197 -0.796133 0
M  V30 3345 H 307.467 -2.98861 -0.179606 0
M  V30 3346 H 305.013 -1.43749 -0.0849464 0
M  V30 3347 H 306.966 -3.3212 -2.59373 0
M  V30 3348 H 305.69 -2.08087 -2.51728 0
M  V30 3349 H 304.349 -3.53801 -0.960247 0
M  V30 3350 H 303.997 -3.67688 -3.43241 0
M  V30 3351 H 303.697 -5.24675 -2.64556 0
M  V30 3352 H 305.221 -4.97654 -3.53798 0
M  V30 3353 H 306.635 -5.57271 -1.34618 0
M  V30 3354 H 305.032 -5.96471 -0.658928 0
M  V30 3355 H 306.102 -4.84473 0.203478 0
M  V30 3356 N 307.445 0.0818655 -1.57387 0
M  V30 3357 C 308.722 0.815343 -1.77796 0
M  V30 3358 C 309.102 1.96289 -0.77679 0
M  V30 3359 O 308.45 2.27691 0.192106 0
M  V30 3360 C 308.66 1.29765 -3.23978 0
M  V30 3361 C 310.008 1.7351 -3.8753 0
M  V30 3362 O 311.032 1.39356 -3.27808 0
M  V30 3363 O 309.891 2.36708 -4.92576 0
M  V30 3364 H 306.985 0.389914 -0.729312 0
M  V30 3365 H 309.531 0.0627213 -1.69584 0
M  V30 3366 H 308.303 0.47608 -3.88393 0
M  V30 3367 H 307.926 2.11189 -3.36875 0
M  V30 3368 N 308.923 1.53595 0.353017 0
M  V30 3369 C 309.871 1.81605 1.45335 0
M  V30 3370 C 310.865 0.685923 1.54892 0
M  V30 3371 O 312.071 0.869095 1.57628 0
M  V30 3372 H 308.446 0.575204 0.484401 0
M  V30 3373 H 310.417 2.73679 1.18921 0
M  V30 3374 C 309.166 2.03406 2.81995 0
M  V30 3375 H 308.489 2.89814 2.75405 0
M  V30 3376 H 309.929 2.26975 3.58132 0
M  V30 3377 C 308.388 0.816794 3.26849 0
M  V30 3378 O 308.918 0.0115856 4.01698 0
M  V30 3379 N 307.124 0.636682 2.8354 0
M  V30 3380 H 306.671 1.2931 2.22793 0
M  V30 3381 H 306.629 -0.176336 3.13905 0
M  V30 3382 N 310.401 -0.613514 1.45168 0
M  V30 3383 C 311.331 -1.7354 1.56225 0
M  V30 3384 C 312.312 -1.64981 0.41414 0
M  V30 3385 O 313.497 -1.83472 0.636526 0
M  V30 3386 C 310.627 -3.12128 1.52295 0
M  V30 3387 C 309.581 -3.35491 2.65762 0
M  V30 3388 C 308.907 -4.74291 2.46885 0
M  V30 3389 C 310.207 -3.26325 4.0781 0
M  V30 3390 H 311.901 -1.64543 2.50132 0
M  V30 3391 H 309.447 -0.790185 1.20383 0
M  V30 3392 H 311.4 -3.90404 1.58628 0
M  V30 3393 H 310.124 -3.2195 0.549139 0
M  V30 3394 H 308.783 -2.59603 2.58847 0
M  V30 3395 H 308.431 -4.80839 1.47657 0
M  V30 3396 H 308.131 -4.9088 3.22972 0
M  V30 3397 H 309.655 -5.54775 2.55063 0
M  V30 3398 H 311.069 -3.94483 4.16 0
M  V30 3399 H 309.466 -3.54445 4.8424 0
M  V30 3400 H 310.536 -2.23855 4.30136 0
M  V30 3401 N 311.879 -1.3236 -0.855495 0
M  V30 3402 C 313.127 -1.22629 -1.60644 0
M  V30 3403 C 313.448 0.212136 -1.93843 0
M  V30 3404 O 312.718 1.13666 -1.59552 0
M  V30 3405 H 311.298 -0.450882 -0.595579 0
M  V30 3406 H 313.96 -1.65871 -1.02337 0
M  V30 3407 H 313.056 -1.80832 -2.54374 0
M  V30 3408 N 313.357 1.07166 -1.15556 0
M  V30 3409 C 314.287 2.16403 -0.877046 0
M  V30 3410 C 315.268 1.69217 0.173111 0
M  V30 3411 O 316.453 1.94181 0.027084 0
M  V30 3412 C 313.583 3.45349 -0.367632 0
M  V30 3413 C 312.537 4.05995 -1.35468 0
M  V30 3414 C 311.863 5.30045 -0.704038 0
M  V30 3415 C 313.163 4.45804 -2.72132 0
M  V30 3416 H 314.857 2.39959 -1.79053 0
M  V30 3417 H 312.403 1.15325 -0.862331 0
M  V30 3418 H 314.356 4.21095 -0.160317 0
M  V30 3419 H 313.08 3.21385 0.581326 0
M  V30 3420 H 311.739 3.32296 -1.54839 0
M  V30 3421 H 311.387 5.02373 0.251128 0
M  V30 3422 H 311.087 5.71579 -1.36277 0
M  V30 3423 H 312.611 6.08495 -0.50654 0
M  V30 3424 H 314.025 5.12671 -2.56595 0
M  V30 3425 H 312.422 4.98296 -3.34397 0
M  V30 3426 H 313.492 3.57083 -3.28054 0
M  V30 3427 N 314.835 0.952656 1.25548 0
M  V30 3428 C 315.782 0.47008 2.25962 0
M  V30 3429 C 316.752 -0.476384 1.59122 0
M  V30 3430 O 317.937 -0.39007 1.8677 0
M  V30 3431 C 315.077 -0.247881 3.44209 0
M  V30 3432 C 314.19 0.735591 4.25691 0
M  V30 3433 C 313.325 -0.0047306 5.312 0
M  V30 3434 C 312.364 0.969805 6.04368 0
M  V30 3435 N 311.501 0.260486 7.01617 0
M  V30 3436 H 316.341 1.33126 2.66611 0
M  V30 3437 H 313.878 0.66765 1.31076 0
M  V30 3438 H 315.836 -0.680695 4.1161 0
M  V30 3439 H 314.466 -1.07312 3.0444 0
M  V30 3440 H 313.518 1.28689 3.57971 0
M  V30 3441 H 314.83 1.47934 4.76358 0
M  V30 3442 H 313.984 -0.496275 6.04667 0
M  V30 3443 H 312.723 -0.781282 4.81401 0
M  V30 3444 H 311.728 1.47237 5.29718 0
M  V30 3445 H 312.953 1.74655 6.56256 0
M  V30 3446 H 310.899 -0.497364 6.54112 0
M  V30 3447 H 310.816 0.943362 7.50091 0
M  V30 3448 H 312.084 -0.209587 7.79218 0
M  V30 3449 N 316.313 -1.40141 0.720998 0
M  V30 3450 C 317.543 -2.04798 0.27226 0
M  V30 3451 C 317.951 -1.54442 -1.09289 0
M  V30 3452 O 317.294 -0.698342 -1.69908 0
M  V30 3453 C 317.356 -3.59048 0.18027 0
M  V30 3454 C 317.02 -4.32317 1.48159 0
M  V30 3455 C 318.017 -4.59902 2.42458 0
M  V30 3456 C 315.702 -4.71125 1.74202 0
M  V30 3457 C 317.696 -5.25288 3.61042 0
M  V30 3458 C 315.383 -5.36242 2.93066 0
M  V30 3459 C 316.381 -5.63254 3.86308 0
M  V30 3460 O 316.069 -6.27024 5.03086 0
M  V30 3461 H 315.801 -0.665419 0.119139 0
M  V30 3462 H 318.355 -1.80436 0.981432 0
M  V30 3463 H 316.585 -3.82251 -0.58489 0
M  V30 3464 H 318.274 -4.05221 -0.234618 0
M  V30 3465 H 319.04 -4.30379 2.23604 0
M  V30 3466 H 314.919 -4.49466 1.02477 0
M  V30 3467 H 318.463 -5.46289 4.33837 0
M  V30 3468 H 314.36 -5.65185 3.11826 0
M  V30 3469 H 315.128 -6.4552 5.03235 0
M  V30 3470 N 317.792 -0.46758 -1.50504 0
M  V30 3471 C 318.702 0.33382 -2.32213 0
M  V30 3472 C 319.718 0.999323 -1.42441 0
M  V30 3473 O 320.894 0.988068 -1.75497 0
M  V30 3474 C 317.959 1.4035 -3.17022 0
M  V30 3475 C 317.02 0.754961 -4.2261 0
M  V30 3476 C 316.253 1.77367 -5.03365 0
M  V30 3477 O 316.476 2.99976 -4.8515 0
M  V30 3478 O 315.41 1.34744 -5.86624 0
M  V30 3479 H 319.236 -0.334067 -3.01857 0
M  V30 3480 H 316.821 -0.229496 -1.47627 0
M  V30 3481 H 318.703 2.02318 -3.69656 0
M  V30 3482 H 317.378 2.05492 -2.5011 0
M  V30 3483 H 316.285 0.0964244 -3.73976 0
M  V30 3484 H 317.618 0.146545 -4.91982 0
M  V30 3485 N 319.27 1.56325 -0.20005 0
M  V30 3486 C 320.51 1.99619 0.439519 0
M  V30 3487 C 320.874 1.08423 1.58456 0
M  V30 3488 O 322.075 1.40973 2.28867 0
M  V30 3489 C 320.346 3.46314 0.883258 0
M  V30 3490 S 321.905 4.11634 1.51997 0
M  V30 3491 H 318.723 0.697007 0.140363 0
M  V30 3492 H 321.325 1.93118 -0.304282 0
M  V30 3493 H 320.029 4.10381 0.0398967 0
M  V30 3494 H 319.56 3.56643 1.6604 0
M  V30 3495 H 321.575 4.09049 2.8088 0
M  V30 3496 N 320.748 -0.0735177 1.57428 0
M  V30 3497 C 321.978 -0.78483 1.91112 0
M  V30 3498 C 322.386 -1.71729 0.7941 0
M  V30 3499 O 321.729 -1.82105 -0.241542 0
M  V30 3500 C 321.791 -1.63346 3.20247 0
M  V30 3501 C 321.455 -0.870557 4.48632 0
M  V30 3502 C 322.452 -0.19058 5.19551 0
M  V30 3503 C 320.137 -0.838242 4.95256 0
M  V30 3504 C 322.131 0.511503 6.35344 0
M  V30 3505 C 319.818 -0.132386 6.10957 0
M  V30 3506 C 320.816 0.541288 6.80852 0
M  V30 3507 O 320.504 1.23578 7.94345 0
M  V30 3508 H 320.236 -0.228408 0.636244 0
M  V30 3509 H 322.79 -0.0486039 2.05342 0
M  V30 3510 H 321.02 -2.41245 3.02222 0
M  V30 3511 H 322.709 -2.22329 3.39595 0
M  V30 3512 H 323.475 -0.206864 4.84559 0
M  V30 3513 H 319.354 -1.35206 4.40727 0
M  V30 3514 H 322.898 1.03789 6.89836 0
M  V30 3515 H 318.795 -0.114023 6.45399 0
M  V30 3516 H 319.563 1.14487 8.10454 0
M  V30 3517 N 322.226 -1.5378 -0.344866 0
M  V30 3518 C 323.503 -1.61589 -1.10219 0
M  V30 3519 C 323.883 -0.436316 -2.06542 0
M  V30 3520 O 323.231 0.571543 -2.21237 0
M  V30 3521 C 323.441 -2.97602 -1.82301 0
M  V30 3522 C 324.789 -3.5291 -2.36093 0
M  V30 3523 O 325.813 -2.99768 -1.924 0
M  V30 3524 O 324.672 -4.45859 -3.16026 0
M  V30 3525 H 321.766 -0.653522 -0.506792 0
M  V30 3526 H 324.312 -1.66126 -0.346465 0
M  V30 3527 H 323.084 -3.74893 -1.12121 0
M  V30 3528 H 322.707 -2.9665 -2.64735 0
M  V30 3529 N 323.704 0.605807 -1.45491 0
M  V30 3530 C 324.634 1.72709 -1.57143 0
M  V30 3531 C 325.615 1.6476 -0.422884 0
M  V30 3532 O 326.8 1.83132 -0.646247 0
M  V30 3533 C 323.93 3.11316 -1.53948 0
M  V30 3534 C 322.884 3.34077 -2.67537 0
M  V30 3535 C 322.21 4.72975 -2.49397 0
M  V30 3536 C 323.51 3.24158 -4.09535 0
M  V30 3537 H 325.204 1.63214 -2.51001 0
M  V30 3538 H 322.75 0.78379 -1.208 0
M  V30 3539 H 324.703 3.89557 -1.60696 0
M  V30 3540 H 323.427 3.21655 -0.566205 0
M  V30 3541 H 322.086 2.58227 -2.6022 0
M  V30 3542 H 321.734 4.8005 -1.50205 0
M  V30 3543 H 321.434 4.8916 -3.25571 0
M  V30 3544 H 322.958 5.53414 -2.58002 0
M  V30 3545 H 324.372 3.92271 -4.18086 0
M  V30 3546 H 322.769 3.51872 -4.86113 0
M  V30 3547 H 323.839 2.2157 -4.31317 0
M  V30 3548 N 325.182 1.32811 0.848464 0
M  V30 3549 C 326.112 1.24882 1.97299 0
M  V30 3550 C 327.093 0.131357 1.69592 0
M  V30 3551 O 328.278 0.319553 1.91553 0
M  V30 3552 C 325.408 0.97746 3.33261 0
M  V30 3553 C 324.362 2.05682 3.75338 0
M  V30 3554 C 323.688 1.63777 5.09 0
M  V30 3555 C 324.988 3.47254 3.90144 0
M  V30 3556 H 326.682 2.18966 2.04191 0
M  V30 3557 H 324.228 1.05413 0.981029 0
M  V30 3558 H 326.181 0.908513 4.1149 0
M  V30 3559 H 324.905 0.000980011 3.266 0
M  V30 3560 H 323.564 2.11603 2.99366 0
M  V30 3561 H 323.212 0.648569 4.98801 0
M  V30 3562 H 322.912 2.36 5.38124 0
M  V30 3563 H 324.436 1.5833 5.89715 0
M  V30 3564 H 325.85 3.43888 4.58709 0
M  V30 3565 H 324.247 4.1788 4.30693 0
M  V30 3566 H 325.317 3.86462 2.92874 0
M  V30 3567 N 326.66 -1.06551 1.16123 0
M  V30 3568 C 327.885 -1.83544 0.965735 0
M  V30 3569 C 328.31 -1.81843 -0.481102 0
M  V30 3570 O 327.668 -1.21732 -1.34354 0
M  V30 3571 C 327.716 -3.28169 1.49457 0
M  V30 3572 O 326.82 -4.0643 0.699157 0
M  V30 3573 H 326.161 -0.568026 0.343864 0
M  V30 3574 H 328.691 -1.34362 1.54299 0
M  V30 3575 H 328.701 -3.78992 1.51092 0
M  V30 3576 H 327.376 -3.28722 2.54784 0
M  V30 3577 H 325.953 -3.65216 0.7531 0
M  V30 3578 N 328.138 -0.959301 -1.25041 0
M  V30 3579 C 329.366 -0.633949 -1.96948 0
M  V30 3580 C 329.781 0.794916 -1.7125 0
M  V30 3581 O 329.138 1.53231 -0.991287 0
M  V30 3582 C 329.189 -0.888805 -3.50403 0
M  V30 3583 O 328.91 -2.26149 -3.75218 0
M  V30 3584 C 330.411 -0.576482 -4.39536 0
M  V30 3585 H 327.631 -0.237263 -0.627652 0
M  V30 3586 H 330.175 -1.28495 -1.59089 0
M  V30 3587 H 328.33 -0.284145 -3.86357 0
M  V30 3588 H 328.744 -2.33514 -4.6965 0
M  V30 3589 H 330.218 -0.805314 -5.46094 0
M  V30 3590 H 330.695 0.489075 -4.36468 0
M  V30 3591 H 331.301 -1.16067 -4.09156 0
M  V30 3592 N 329.616 1.39756 -0.72842 0
M  V30 3593 C 330.549 2.28176 -0.0330172 0
M  V30 3594 C 331.527 1.44035 0.754501 0
M  V30 3595 O 332.711 1.73434 0.738445 0
M  V30 3596 C 329.838 3.24795 0.960504 0
M  V30 3597 C 328.884 4.25693 0.262264 0
M  V30 3598 S 329.717 5.25714 -1.01906 0
M  V30 3599 C 330.873 6.25894 -0.0279717 0
M  V30 3600 H 331.106 2.86807 -0.78287 0
M  V30 3601 H 328.639 1.45382 -0.519951 0
M  V30 3602 H 330.597 3.80983 1.52846 0
M  V30 3603 H 329.258 2.65196 1.68315 0
M  V30 3604 H 328.451 4.93699 1.01379 0
M  V30 3605 H 328.053 3.7327 -0.233482 0
M  V30 3606 H 330.345 6.72585 0.814621 0
M  V30 3607 H 331.288 7.04876 -0.67499 0
M  V30 3608 H 331.696 5.63466 0.341489 0
M  V30 3609 N 331.094 0.475555 1.50254 0
M  V30 3610 C 332.371 -0.139685 1.95101 0
M  V30 3611 C 332.751 -1.56555 1.41611 0
M  V30 3612 O 332.099 -2.19956 0.618993 0
M  V30 3613 C 332.309 -0.0784298 3.48912 0
M  V30 3614 C 333.657 -0.265095 4.23772 0
M  V30 3615 O 334.681 -0.154808 3.55863 0
M  V30 3616 O 333.54 -0.488327 5.44314 0
M  V30 3617 H 330.634 -0.109236 0.819754 0
M  V30 3618 H 333.18 0.536276 1.61004 0
M  V30 3619 H 331.952 0.916918 3.80405 0
M  V30 3620 H 331.575 -0.795655 3.89558 0
M  V30 3621 N 332.573 -1.56217 0.208337 0
M  V30 3622 C 333.822 -1.97124 -0.427204 0
M  V30 3623 C 334.135 -1.09859 -1.61835 0
M  V30 3624 O 335.341 -1.40606 -2.32255 0
M  V30 3625 C 333.797 -3.50633 -0.811442 0
M  V30 3626 C 333.405 -4.46582 0.35615 0
M  V30 3627 C 335.149 -4.00282 -1.41332 0
M  V30 3628 C 333.056 -5.91379 -0.0497852 0
M  V30 3629 H 331.986 -0.736086 -0.163381 0
M  V30 3630 H 334.637 -1.8099 0.302456 0
M  V30 3631 H 333.019 -3.62319 -1.59815 0
M  V30 3632 H 334.193 -4.46636 1.1337 0
M  V30 3633 H 332.508 -4.07202 0.870396 0
M  V30 3634 H 335.105 -5.0595 -1.72972 0
M  V30 3635 H 335.448 -3.45359 -2.32449 0
M  V30 3636 H 335.981 -3.91764 -0.690323 0
M  V30 3637 H 332.72 -6.50255 0.827529 0
M  V30 3638 H 332.24 -5.94549 -0.791926 0
M  V30 3639 H 333.919 -6.45209 -0.481042 0
M  V30 3640 N 334.051 0.0651679 -1.57465 0
M  V30 3641 C 335.276 0.779605 -1.9219 0
M  V30 3642 C 335.701 1.69988 -0.805333 0
M  V30 3643 O 335.059 1.79685 0.241435 0
M  V30 3644 C 335.107 1.54364 -3.2589 0
M  V30 3645 O 334.211 2.65474 -3.1559 0
M  V30 3646 H 333.552 0.212249 -0.629163 0
M  V30 3647 H 336.082 0.0314294 -2.04576 0
M  V30 3648 H 336.092 1.92146 -3.59922 0
M  V30 3649 H 334.767 0.868457 -4.06732 0
M  V30 3650 H 333.344 2.30501 -2.93128 0
M  V30 3651 N 335.529 1.53961 0.336706 0
M  V30 3652 C 336.806 1.62171 1.09361 0
M  V30 3653 C 337.186 0.447263 2.06307 0
M  V30 3654 O 336.534 -0.559802 2.21537 0
M  V30 3655 C 336.744 2.98565 1.80721 0
M  V30 3656 C 338.092 3.54157 2.34218 0
M  V30 3657 O 339.116 3.00784 1.90807 0
M  V30 3658 O 337.975 4.47528 3.13657 0
M  V30 3659 H 335.069 0.6562 0.503319 0
M  V30 3660 H 337.615 1.66307 0.33765 0
M  V30 3661 H 336.387 3.75482 1.10132 0
M  V30 3662 H 336.01 2.9805 2.63158 0
M  V30 3663 N 337.007 -0.598083 1.45811 0
M  V30 3664 C 338.247 -1.36802 1.5187 0
M  V30 3665 C 338.611 -1.9133 0.160224 0
M  V30 3666 O 339.812 -2.6863 0.0955302 0
M  V30 3667 C 338.083 -2.47835 2.57513 0
M  V30 3668 S 339.642 -3.35458 2.82866 0
M  V30 3669 H 336.46 -0.466278 0.536755 0
M  V30 3670 H 339.062 -0.689152 1.82951 0
M  V30 3671 H 337.766 -2.06141 3.54872 0
M  V30 3672 H 337.297 -3.20512 2.28114 0
M  V30 3673 H 339.312 -4.46251 2.16967 0
M  V30 3674 N 338.485 -1.33259 -0.841409 0
M  V30 3675 C 339.732 -1.24572 -1.5965 0
M  V30 3676 C 340.06 0.189137 -1.93578 0
M  V30 3677 O 339.315 1.14566 -1.5866 0
M  V30 3678 C 339.614 -2.06381 -2.9179 0
M  V30 3679 C 339.28 -3.556 -2.77235 0
M  V30 3680 C 337.942 -3.96282 -2.72973 0
M  V30 3681 C 340.294 -4.50433 -2.62221 0
M  V30 3682 C 337.622 -5.30017 -2.51592 0
M  V30 3683 C 339.974 -5.84327 -2.42374 0
M  V30 3684 C 338.638 -6.24194 -2.36512 0
M  V30 3685 H 337.908 -0.455842 -0.5842 0
M  V30 3686 H 340.555 -1.6482 -0.975016 0
M  V30 3687 H 338.86 -1.58903 -3.5813 0
M  V30 3688 H 340.557 -1.97019 -3.49263 0
M  V30 3689 H 337.147 -3.23298 -2.81384 0
M  V30 3690 H 341.331 -4.19914 -2.64549 0
M  V30 3691 H 336.587 -5.59947 -2.45499 0
M  V30 3692 H 340.761 -6.57414 -2.29739 0
M  V30 3693 H 338.388 -7.27759 -2.19706 0
M  V30 3694 N 339.963 1.05934 -1.16686 0
M  V30 3695 C 341.212 1.78188 -0.945085 0
M  V30 3696 C 341.525 1.88338 0.528021 0
M  V30 3697 O 342.731 2.57258 0.867799 0
M  V30 3698 C 341.187 3.20277 -1.64167 0
M  V30 3699 C 340.795 3.18281 -3.15279 0
M  V30 3700 C 342.539 3.97039 -1.502 0
M  V30 3701 C 340.446 4.55112 -3.7766 0
M  V30 3702 H 339.376 0.667866 -0.349959 0
M  V30 3703 H 342.027 1.18794 -1.39858 0
M  V30 3704 H 340.409 3.79952 -1.11589 0
M  V30 3705 H 341.583 2.68167 -3.74731 0
M  V30 3706 H 339.898 2.55018 -3.29173 0
M  V30 3707 H 342.495 4.98194 -1.94183 0
M  V30 3708 H 342.838 4.13845 -0.451461 0
M  V30 3709 H 343.371 3.43894 -1.99954 0
M  V30 3710 H 340.11 4.43512 -4.82677 0
M  V30 3711 H 339.63 5.05406 -3.22994 0
M  V30 3712 H 341.309 5.24064 -3.79428 0
M  V30 3713 N 341.441 0.965919 1.2453 0
M  V30 3714 C 342.718 0.543777 1.87889 0
M  V30 3715 C 343.098 -0.97909 1.87021 0
M  V30 3716 O 342.446 -1.84969 1.3416 0
M  V30 3717 C 342.656 1.13327 3.30088 0
M  V30 3718 C 344.004 1.21707 4.06783 0
M  V30 3719 O 345.028 1.08566 3.39252 0
M  V30 3720 O 343.887 1.42456 5.27606 0
M  V30 3721 H 340.981 0.181054 0.806938 0
M  V30 3722 H 343.527 1.06007 1.32516 0
M  V30 3723 H 342.299 2.17612 3.25209 0
M  V30 3724 H 341.922 0.600911 3.93033 0
M  V30 3725 N 342.919 -1.39368 0.735821 0
M  V30 3726 C 344.167 -2.00101 0.283562 0
M  V30 3727 C 344.488 -1.5868 -1.13338 0
M  V30 3728 O 343.758 -0.835423 -1.77193 0
M  V30 3729 H 342.338 -0.740024 0.101851 0
M  V30 3730 H 345 -1.70404 0.945962 0
M  V30 3731 H 344.096 -3.10323 0.332604 0
M  V30 3732 N 344.397 -0.483516 -1.5 0
M  V30 3733 C 345.345 0.318061 -2.30415 0
M  V30 3734 C 346.339 0.978988 -1.38247 0
M  V30 3735 O 347.545 0.908673 -1.55381 0
M  V30 3736 H 343.92 0.121419 -0.742133 0
M  V30 3737 H 345.891 -0.380403 -2.95965 0
M  V30 3738 C 344.64 1.38013 -3.19136 0
M  V30 3739 H 343.963 0.880952 -3.89973 0
M  V30 3740 H 345.403 1.91332 -3.78375 0
M  V30 3741 C 343.862 2.38884 -2.37563 0
M  V30 3742 O 344.392 3.44412 -2.06744 0
M  V30 3743 N 342.598 2.10912 -1.99911 0
M  V30 3744 H 342.145 1.25118 -2.25174 0
M  V30 3745 H 342.103 2.78635 -1.45636 0
M  V30 3746 N 345.875 1.56104 -0.216619 0
M  V30 3747 C 346.785 2.23694 0.706982 0
M  V30 3748 C 347.801 1.24295 1.21765 0
M  V30 3749 O 348.977 1.57094 1.2603 0
M  V30 3750 C 346.042 2.8998 1.90033 0
M  V30 3751 C 345.103 4.04708 1.43213 0
M  V30 3752 C 344.336 4.67824 2.56859 0
M  V30 3753 O 344.559 4.29913 3.74874 0
M  V30 3754 O 343.493 5.56905 2.28343 0
M  V30 3755 H 347.319 3.03272 0.161235 0
M  V30 3756 H 344.904 1.49394 0.0136177 0
M  V30 3757 H 346.786 3.31837 2.59735 0
M  V30 3758 H 345.461 2.13365 2.43428 0
M  V30 3759 H 344.368 3.6743 0.70327 0
M  V30 3760 H 345.701 4.83051 0.944615 0
M  V30 3761 N 347.353 -0.0568162 1.57498 0
M  V30 3762 C 348.301 -1.08452 2.05769 0
M  V30 3763 C 349.295 -1.39164 0.965903 0
M  V30 3764 O 350.501 -1.38395 1.15095 0
M  V30 3765 H 346.876 -0.367148 0.656282 0
M  V30 3766 H 348.847 -0.651368 2.91204 0
M  V30 3767 C 347.596 -2.38543 2.52968 0
M  V30 3768 H 346.919 -2.15765 3.36579 0
M  V30 3769 H 348.359 -3.08863 2.90481 0
M  V30 3770 C 346.818 -3.05562 1.41893 0
M  V30 3771 O 347.348 -3.94262 0.769442 0
M  V30 3772 N 345.554 -2.6643 1.16032 0
M  V30 3773 H 345.101 -1.94387 1.6903 0
M  V30 3774 H 345.059 -3.11593 0.419219 0
M  V30 3775 N 348.832 -1.54138 -0.328536 0
M  V30 3776 C 350.08 -1.71765 -1.06496 0
M  V30 3777 C 350.401 -0.49149 -1.88704 0
M  V30 3778 O 349.671 0.494539 -1.89555 0
M  V30 3779 H 348.251 -0.633295 -0.396164 0
M  V30 3780 H 350.913 -1.91429 -0.366176 0
M  V30 3781 H 350.009 -2.5951 -1.73381 0
M  V30 3782 N 350.31 0.590341 -1.46126 0
M  V30 3783 C 351.587 1.35029 -1.41515 0
M  V30 3784 C 351.967 2.10888 -0.0946472 0
M  V30 3785 O 351.315 2.08998 0.923693 0
M  V30 3786 C 351.525 2.28269 -2.63997 0
M  V30 3787 C 352.873 2.90338 -3.09821 0
M  V30 3788 O 353.897 2.38585 -2.64492 0
M  V30 3789 O 352.756 3.84321 -3.88535 0
M  V30 3790 H 349.85 0.606317 -0.562413 0
M  V30 3791 H 352.396 0.611994 -1.58281 0
M  V30 3792 H 351.168 1.71591 -3.51671 0
M  V30 3793 H 350.791 3.0945 -2.49652 0
M  V30 3794 N 351.788 1.33704 0.83433 0
M  V30 3795 C 352.718 1.26967 1.95963 0
M  V30 3796 C 353.699 0.149337 1.69443 0
M  V30 3797 O 354.884 0.339852 1.91203 0
M  V30 3798 C 352.014 1.01275 3.32206 0
M  V30 3799 C 350.968 2.09652 3.73136 0
M  V30 3800 C 350.294 1.69166 5.07235 0
M  V30 3801 C 351.594 3.51372 3.86439 0
M  V30 3802 H 353.288 2.2112 2.01857 0
M  V30 3803 H 350.834 1.06447 0.969793 0
M  V30 3804 H 352.787 0.952106 4.10503 0
M  V30 3805 H 351.511 0.0356203 3.26581 0
M  V30 3806 H 350.17 2.14766 2.97104 0
M  V30 3807 H 349.818 0.701437 4.98085 0
M  V30 3808 H 349.518 2.41694 5.35591 0
M  V30 3809 H 351.042 1.64576 5.88003 0
M  V30 3810 H 352.456 3.48734 4.55036 0
M  V30 3811 H 350.853 4.22425 4.26236 0
M  V30 3812 H 351.923 3.89546 2.88759 0
M  V30 3813 N 353.266 -1.05314 1.17247 0
M  V30 3814 C 354.196 -2.1498 0.911362 0
M  V30 3815 C 355.177 -1.69471 -0.146169 0
M  V30 3816 O 356.362 -1.942 0.003812 0
M  V30 3817 C 353.492 -3.4472 0.422528 0
M  V30 3818 C 352.446 -4.03789 1.4191 0
M  V30 3819 C 351.772 -5.28858 0.788274 0
M  V30 3820 C 353.072 -4.41418 2.7919 0
M  V30 3821 H 354.766 -2.3708 1.82848 0
M  V30 3822 H 352.312 -1.13938 0.880569 0
M  V30 3823 H 354.265 -4.20787 0.227289 0
M  V30 3824 H 352.989 -3.22269 -0.530123 0
M  V30 3825 H 351.648 -3.2979 1.60106 0
M  V30 3826 H 351.296 -5.02709 -0.171173 0
M  V30 3827 H 350.996 -5.69338 1.45353 0
M  V30 3828 H 352.52 -6.07612 0.603282 0
M  V30 3829 H 353.934 -5.08524 2.64719 0
M  V30 3830 H 352.331 -4.92913 3.42282 0
M  V30 3831 H 353.401 -3.51819 3.33693 0
M  V30 3832 N 354.744 -0.972509 -1.24016 0
M  V30 3833 C 355.99 -0.647583 -1.92816 0
M  V30 3834 C 356.345 0.809015 -1.74564 0
M  V30 3835 O 355.638 1.57502 -1.09103 0
M  V30 3836 C 355.832 -0.963694 -3.44162 0
M  V30 3837 C 355.661 -2.44947 -3.77135 0
M  V30 3838 C 354.431 -3.11012 -3.98246 0
M  V30 3839 C 356.629 -3.42978 -3.83237 0
M  V30 3840 N 354.611 -4.49277 -4.18358 0
M  V30 3841 C 355.982 -4.66619 -4.08248 0
M  V30 3842 C 358.037 -3.37569 -3.65994 0
M  V30 3843 C 356.74 -5.85516 -4.17808 0
M  V30 3844 C 358.766 -4.55822 -3.76802 0
M  V30 3845 C 358.128 -5.78256 -4.02243 0
M  V30 3846 H 354.227 -0.287894 -0.727077 0
M  V30 3847 H 356.811 -1.24835 -1.49413 0
M  V30 3848 H 354.982 -0.391692 -3.8642 0
M  V30 3849 H 356.714 -0.596849 -4.00275 0
M  V30 3850 H 353.469 -2.61529 -3.94841 0
M  V30 3851 H 353.893 -5.20935 -4.32384 0
M  V30 3852 H 358.535 -2.43945 -3.45327 0
M  V30 3853 H 356.253 -6.79564 -4.37285 0
M  V30 3854 H 359.839 -4.53204 -3.64825 0
M  V30 3855 H 358.719 -6.68231 -4.10411 0
M  V30 3856 N 356.222 1.38976 -0.743202 0
M  V30 3857 C 357.499 1.94351 -0.220705 0
M  V30 3858 C 357.879 1.67935 1.2791 0
M  V30 3859 O 357.227 1.01211 2.04862 0
M  V30 3860 C 357.437 3.44426 -0.563171 0
M  V30 3861 C 358.785 4.2144 -0.517046 0
M  V30 3862 O 359.809 3.52661 -0.500846 0
M  V30 3863 O 358.668 5.44032 -0.518806 0
M  V30 3864 H 355.762 0.825879 -0.043047 0
M  V30 3865 H 358.308 1.48429 -0.822618 0
M  V30 3866 H 357.08 3.5712 -1.59941 0
M  V30 3867 H 356.703 3.97543 0.0672883 0
M  V30 3868 N 357.7 0.491464 1.49741 0
M  V30 3869 C 358.947 -0.0564256 2.02421 0
M  V30 3870 C 359.275 -1.37872 1.37192 0
M  V30 3871 O 358.53 -1.89375 0.493508 0
M  V30 3872 C 358.829 -0.267329 3.56399 0
M  V30 3873 C 358.495 0.975775 4.40215 0
M  V30 3874 C 357.157 1.31655 4.62839 0
M  V30 3875 C 359.509 1.80251 4.89039 0
M  V30 3876 C 356.837 2.48375 5.31532 0
M  V30 3877 C 359.189 2.96116 5.59015 0
M  V30 3878 C 357.853 3.30585 5.79888 0
M  V30 3879 H 357.123 -0.0206476 0.740712 0
M  V30 3880 H 359.77 0.649686 1.80143 0
M  V30 3881 H 358.075 -1.05588 3.77304 0
M  V30 3882 H 359.772 -0.705549 3.94744 0
M  V30 3883 H 356.362 0.700315 4.2284 0
M  V30 3884 H 360.546 1.55239 4.71396 0
M  V30 3885 H 355.802 2.7533 5.45897 0
M  V30 3886 H 359.976 3.60509 5.95824 0
M  V30 3887 H 357.603 4.21132 6.32892 0
M  V30 3888 N 359.178 -1.55987 0.224894 0
M  V30 3889 C 360.108 -2.23426 -0.678457 0
M  V30 3890 C 361.089 -1.20709 -1.19847 0
M  V30 3891 O 362.274 -1.49304 -1.24186 0
M  V30 3892 C 359.404 -2.91676 -1.88527 0
M  V30 3893 C 358.358 -4.00893 -1.49896 0
M  V30 3894 C 357.684 -4.56455 -2.78483 0
M  V30 3895 C 358.984 -5.17769 -0.686461 0
M  V30 3896 H 360.678 -2.99175 -0.116173 0
M  V30 3897 H 358.224 -1.43897 -0.054436 0
M  V30 3898 H 360.177 -3.37547 -2.5227 0
M  V30 3899 H 358.901 -2.1338 -2.47258 0
M  V30 3900 H 357.56 -3.55758 -0.884985 0
M  V30 3901 H 357.208 -3.74886 -3.35365 0
M  V30 3902 H 356.908 -5.30169 -2.53368 0
M  V30 3903 H 358.432 -5.05047 -3.43162 0
M  V30 3904 H 359.846 -5.60001 -1.22767 0
M  V30 3905 H 358.243 -5.97735 -0.532259 0
M  V30 3906 H 359.313 -4.83932 0.306196 0
M  V30 3907 N 360.656 0.0484629 -1.57525 0
M  V30 3908 C 361.884 0.755421 -1.92616 0
M  V30 3909 C 362.299 1.69919 -0.822984 0
M  V30 3910 O 361.656 1.81378 0.202085 0
M  V30 3911 C 361.707 1.52915 -3.27566 0
M  V30 3912 O 361.428 0.62329 -4.33644 0
M  V30 3913 C 362.929 2.33502 -3.76818 0
M  V30 3914 H 360.149 0.213465 -0.63614 0
M  V30 3915 H 362.693 0.0117698 -2.04497 0
M  V30 3916 H 360.848 2.22486 -3.17142 0
M  V30 3917 H 361.262 1.16383 -5.11425 0
M  V30 3918 H 362.736 2.83214 -4.73808 0
M  V30 3919 H 363.213 3.14068 -3.07014 0
M  V30 3920 H 363.819 1.69043 -3.90262 0
M  V30 3921 N 362.134 1.5431 0.320358 0
M  V30 3922 C 363.044 1.86946 1.41734 0
M  V30 3923 C 364.06 0.761689 1.56443 0
M  V30 3924 O 365.236 1.05629 1.71477 0
M  V30 3925 C 362.301 2.09293 2.76401 0
M  V30 3926 C 361.362 3.33082 2.70841 0
M  V30 3927 C 360.595 3.54353 3.99086 0
M  V30 3928 O 360.818 2.79002 4.97508 0
M  V30 3929 O 359.752 4.47838 4.0215 0
M  V30 3930 H 363.578 2.80232 1.17062 0
M  V30 3931 H 361.163 1.40255 0.514673 0
M  V30 3932 H 363.045 2.25303 3.56113 0
M  V30 3933 H 361.72 1.19194 3.00956 0
M  V30 3934 H 360.627 3.22454 1.89668 0
M  V30 3935 H 361.96 4.23249 2.5124 0
M  V30 3936 N 363.613 -0.582584 1.46437 0
M  V30 3937 C 364.841 -1.36682 1.55324 0
M  V30 3938 C 365.256 -1.87796 0.194409 0
M  V30 3939 O 364.613 -1.63623 -0.808318 0
M  V30 3940 C 364.664 -2.55426 2.55812 0
M  V30 3941 O 364.385 -2.0643 3.86417 0
M  V30 3942 C 365.886 -3.47976 2.74641 0
M  V30 3943 H 363.106 -0.417545 0.525259 0
M  V30 3944 H 365.65 -0.708219 1.91845 0
M  V30 3945 H 363.805 -3.17275 2.22295 0
M  V30 3946 H 364.219 -2.83762 4.41111 0
M  V30 3947 H 365.693 -4.27775 3.48874 0
M  V30 3948 H 366.17 -3.99919 1.81553 0
M  V30 3949 H 366.776 -2.91962 3.09255 0
M  V30 3950 N 365.091 -1.34144 -0.827227 0
M  V30 3951 C 366.331 -1.27603 -1.59677 0
M  V30 3952 C 366.695 0.153035 -1.91389 0
M  V30 3953 O 367.896 0.342566 -2.66608 0
M  V30 3954 C 366.167 -2.13784 -2.86411 0
M  V30 3955 S 367.726 -2.24552 -3.76991 0
M  V30 3956 H 364.544 -0.453789 -0.547354 0
M  V30 3957 H 367.146 -1.69309 -0.977479 0
M  V30 3958 H 365.85 -3.16627 -2.61104 0
M  V30 3959 H 365.381 -1.72959 -3.5334 0
M  V30 3960 H 367.396 -1.41514 -4.75593 0
M  V30 3961 N 366.569 1.04691 -1.17803 0
M  V30 3962 C 367.517 2.14665 -0.895635 0
M  V30 3963 C 368.511 1.68806 0.141679 0
M  V30 3964 O 369.717 1.79999 -0.00587914 0
M  V30 3965 H 366.092 0.701038 -0.272121 0
M  V30 3966 H 368.063 2.35685 -1.83017 0
M  V30 3967 C 366.812 3.45019 -0.430962 0
M  V30 3968 H 366.135 3.8071 -1.22064 0
M  V30 3969 H 367.575 4.23125 -0.272301 0
M  V30 3970 C 366.034 3.25943 0.852207 0
M  V30 3971 O 366.564 3.5296 1.91786 0
M  V30 3972 N 364.77 2.79304 0.802346 0
M  V30 3973 H 364.317 2.57518 -0.0650788 0
M  V30 3974 H 364.275 2.66921 1.66134 0
M  V30 3975 N 368.047 0.979072 1.23499 0
M  V30 3976 C 369.294 0.647219 1.91878 0
M  V30 3977 C 369.622 -0.819074 1.76413 0
M  V30 3978 O 368.877 -1.60616 1.11808 0
M  V30 3979 C 369.176 0.981932 3.43646 0
M  V30 3980 C 368.842 2.43822 3.79291 0
M  V30 3981 C 367.504 2.83622 3.88731 0
M  V30 3982 C 369.856 3.3828 3.96505 0
M  V30 3983 C 367.184 4.16897 4.12812 0
M  V30 3984 C 369.536 4.71197 4.22085 0
M  V30 3985 C 368.2 5.10758 4.29747 0
M  V30 3986 H 367.47 0.236834 0.702133 0
M  V30 3987 H 370.117 1.23268 1.46551 0
M  V30 3988 H 368.422 0.314365 3.90537 0
M  V30 3989 H 370.119 0.703395 3.94783 0
M  V30 3990 H 366.709 2.11966 3.72516 0
M  V30 3991 H 370.893 3.0871 3.88603 0
M  V30 3992 H 366.149 4.47157 4.16966 0
M  V30 3993 H 370.323 5.44348 4.34348 0
M  V30 3994 H 367.95 6.1405 4.48159 0
M  V30 3995 N 369.525 -1.3858 0.750561 0
M  V30 3996 C 370.473 -2.32339 0.110162 0
M  V30 3997 C 371.467 -1.53864 -0.708674 0
M  V30 3998 O 372.673 -1.69417 -0.608112 0
M  V30 3999 H 369.048 -0.751812 0.0168275 0
M  V30 4000 H 371.019 -2.83959 0.917053 0
M  V30 4001 C 369.768 -3.39043 -0.771067 0
M  V30 4002 H 369.091 -3.99517 -0.150374 0
M  V30 4003 H 370.531 -4.07061 -1.1865 0
M  V30 4004 C 368.99 -2.77365 -1.91234 0
M  V30 4005 O 369.52 -2.66434 -3.00626 0
M  V30 4006 N 367.726 -2.35219 -1.70646 0
M  V30 4007 H 367.273 -2.4431 -0.81673 0
M  V30 4008 H 367.231 -1.94294 -2.47178 0
M  V30 4009 N 371.003 -0.499398 -1.49478 0
M  V30 4010 C 371.966 0.268838 -2.27618 0
M  V30 4011 C 372.966 0.895383 -1.33565 0
M  V30 4012 O 374.156 0.760164 -1.56739 0
M  V30 4013 C 371.288 1.38559 -3.11471 0
M  V30 4014 H 372.481 -0.416812 -2.96989 0
M  V30 4015 H 370.034 -0.254313 -1.54217 0
M  V30 4016 H 370.769 2.10544 -2.46661 0
M  V30 4017 H 370.554 0.941797 -3.80621 0
M  V30 4018 H 372.044 1.92678 -3.70493 0
M  V30 4019 N 372.481 1.55866 -0.233164 0
M  V30 4020 C 373.709 2.02998 0.399905 0
M  V30 4021 C 374.124 1.11274 1.52524 0
M  V30 4022 O 373.481 0.124528 1.82075 0
M  V30 4023 C 373.532 3.4958 0.920639 0
M  V30 4024 O 373.253 4.37808 -0.159834 0
M  V30 4025 C 374.754 4.12411 1.62578 0
M  V30 4026 H 371.974 0.664006 0.0966281 0
M  V30 4027 H 374.518 2.0143 -0.353013 0
M  V30 4028 H 372.673 3.51727 1.62379 0
M  V30 4029 H 373.087 5.23981 0.23337 0
M  V30 4030 H 374.561 5.16711 1.94201 0
M  V30 4031 H 375.038 3.5809 2.54299 0
M  V30 4032 H 375.644 4.14148 0.967553 0
M  V30 4033 N 373.959 -0.0401083 1.57549 0
M  V30 4034 C 374.922 -1.02871 2.04817 0
M  V30 4035 C 375.922 -1.29708 0.950388 0
M  V30 4036 O 377.112 -1.24897 1.21435 0
M  V30 4037 C 374.244 -2.36443 2.45576 0
M  V30 4038 H 375.437 -0.620631 2.93408 0
M  V30 4039 H 372.99 -0.286667 1.53649 0
M  V30 4040 H 373.725 -2.82021 1.60108 0
M  V30 4041 H 373.51 -2.18296 3.25713 0
M  V30 4042 H 375 -3.07441 2.82612 0
M  V30 4043 N 375.437 -1.54477 -0.31217 0
M  V30 4044 C 376.848 -1.64344 -0.885891 0
M  V30 4045 C 377.199 -0.54485 -1.88483 0
M  V30 4046 O 376.324 0.320387 -2.14015 0
M  V30 4047 C 376.919 -2.97908 -1.61357 0
M  V30 4048 C 375.478 -3.09933 -2.13585 0
M  V30 4049 C 374.625 -2.59971 -0.964897 0
M  V30 4050 H 377.576 -1.58448 -0.0894528 0
M  V30 4051 H 377.597 -2.88706 -2.47848 0
M  V30 4052 H 377.109 -3.77845 -0.886277 0
M  V30 4053 H 375.21 -2.34694 -2.89395 0
M  V30 4054 H 375.323 -4.15916 -2.37804 0
M  V30 4055 H 373.687 -2.16147 -1.34731 0
M  V30 4056 H 374.47 -3.42376 -0.251742 0
M  V30 4057 N 376.915 0.57481 -1.46744 0
M  V30 4058 C 378.326 1.15695 -1.46532 0
M  V30 4059 C 378.677 1.95068 -0.210425 0
M  V30 4060 O 377.802 2.05241 0.685944 0
M  V30 4061 C 378.397 2.1048 -2.65487 0
M  V30 4062 C 376.956 2.64002 -2.68291 0
M  V30 4063 C 376.103 1.40026 -2.39349 0
M  V30 4064 H 379.054 0.362325 -1.54509 0
M  V30 4065 H 379.075 2.94074 -2.41455 0
M  V30 4066 H 378.587 1.52683 -3.56805 0
M  V30 4067 H 376.688 3.25646 -1.81067 0
M  V30 4068 H 376.801 3.06197 -3.68483 0
M  V30 4069 H 375.165 1.70106 -1.89568 0
M  V30 4070 H 375.948 0.840485 -3.32852 0
M  V30 4071 N 378.394 1.34581 0.820102 0
M  V30 4072 C 379.671 1.17675 1.56244 0
M  V30 4073 C 380.051 -0.249541 2.0962 0
M  V30 4074 O 379.399 -1.25125 1.91196 0
M  V30 4075 C 379.609 2.23364 2.6816 0
M  V30 4076 C 380.957 2.58485 3.36854 0
M  V30 4077 O 381.981 2.22175 2.78418 0
M  V30 4078 O 380.84 3.20868 4.42386 0
M  V30 4079 H 377.934 0.456333 0.689702 0
M  V30 4080 H 380.48 1.46222 0.861231 0
M  V30 4081 H 379.252 3.19087 2.26493 0
M  V30 4082 H 378.875 1.96009 3.45928 0
M  V30 4083 N 379.872 -1.04064 1.18357 0
M  V30 4084 C 380.802 -2.14001 0.934113 0
M  V30 4085 C 381.783 -1.69616 -0.128186 0
M  V30 4086 O 382.968 -1.94185 0.0244093 0
M  V30 4087 C 380.098 -3.44253 0.459066 0
M  V30 4088 C 379.052 -4.02261 1.46185 0
M  V30 4089 C 378.378 -5.27992 0.844322 0
M  V30 4090 C 379.678 -4.38432 2.83856 0
M  V30 4091 H 381.372 -2.35127 1.85352 0
M  V30 4092 H 378.918 -1.12998 0.892604 0
M  V30 4093 H 380.871 -4.20522 0.271907 0
M  V30 4094 H 379.595 -3.22813 -0.495912 0
M  V30 4095 H 378.254 -3.28074 1.63595 0
M  V30 4096 H 377.902 -5.02862 -0.117845 0
M  V30 4097 H 377.602 -5.67765 1.51384 0
M  V30 4098 H 379.126 -6.06938 0.667693 0
M  V30 4099 H 380.54 -5.05688 2.70098 0
M  V30 4100 H 378.937 -4.89254 3.47491 0
M  V30 4101 H 380.007 -3.4826 3.37406 0
M  V30 4102 N 381.35 -0.985608 -1.22978 0
M  V30 4103 C 382.766 -0.695104 -1.43668 0
M  V30 4104 C 382.966 0.736866 -1.87543 0
M  V30 4105 O 382.022 1.50868 -2.02473 0
M  V30 4106 C 383.335 -1.69447 -2.48412 0
M  V30 4107 C 384.883 -1.70909 -2.62219 0
M  V30 4108 C 385.358 -2.6969 -3.70178 0
M  V30 4109 N 386.849 -2.6824 -3.77626 0
M  V30 4110 C 387.584 -3.41339 -4.60733 0
M  V30 4111 N 387.08 -4.24015 -5.4789 0
M  V30 4112 N 388.873 -3.30079 -4.54977 0
M  V30 4113 H 381.024 -1.91054 -0.928016 0
M  V30 4114 H 383.287 -0.823553 -0.469536 0
M  V30 4115 H 382.993 -2.7188 -2.23102 0
M  V30 4116 H 382.867 -1.48147 -3.46889 0
M  V30 4117 H 385.254 -0.691785 -2.86877 0
M  V30 4118 H 385.335 -1.96276 -1.6404 0
M  V30 4119 H 384.979 -3.71566 -3.46268 0
M  V30 4120 H 384.909 -2.41595 -4.67909 0
M  V30 4121 H 387.4 -2.08243 -3.15346 0
M  V30 4122 H 387.713 -4.76636 -6.08308 0
M  V30 4123 H 386.058 -4.28104 -5.47496 0
M  V30 4124 H 389.249 -2.64937 -3.85909 0
M  V30 4125 H 389.422 -3.87308 -5.19516 0
M  V30 4126 N 382.828 1.3818 -0.7579 0
M  V30 4127 C 383.791 2.28764 -0.141286 0
M  V30 4128 C 384.791 1.47388 0.642907 0
M  V30 4129 O 385.981 1.67781 0.468536 0
M  V30 4130 C 383.113 3.31184 0.808069 0
M  V30 4131 H 384.306 2.848 -0.939633 0
M  V30 4132 H 381.859 1.47212 -0.525191 0
M  V30 4133 H 382.594 2.80247 1.63193 0
M  V30 4134 H 382.379 3.91314 0.248104 0
M  V30 4135 H 383.869 3.98909 1.23536 0
M  V30 4136 N 384.306 0.507319 1.49211 0
M  V30 4137 C 385.216 -0.272136 2.33016 0
M  V30 4138 C 386.232 -0.961206 1.45041 0
M  V30 4139 O 387.408 -0.941191 1.78055 0
M  V30 4140 C 384.473 -1.31895 3.20631 0
M  V30 4141 C 383.534 -0.642648 4.24463 0
M  V30 4142 C 382.767 -1.63959 5.07891 0
M  V30 4143 O 382.99 -2.87007 4.92933 0
M  V30 4144 O 381.924 -1.19143 5.8999 0
M  V30 4145 H 385.75 0.413982 3.00865 0
M  V30 4146 H 383.335 0.268556 1.46966 0
M  V30 4147 H 385.217 -1.92446 3.7489 0
M  V30 4148 H 383.892 -1.98788 2.5547 0
M  V30 4149 H 382.799 0.00276252 3.741 0
M  V30 4150 H 384.132 -0.0160534 4.92197 0
M  V30 4151 N 385.784 -1.5574 0.241426 0
M  V30 4152 C 386.714 -2.24133 -0.654722 0
M  V30 4153 C 387.695 -1.21974 -1.1856 0
M  V30 4154 O 388.88 -1.50612 -1.22595 0
M  V30 4155 C 386.01 -2.93659 -1.85423 0
M  V30 4156 C 384.964 -4.0246 -1.45636 0
M  V30 4157 C 384.29 -4.59383 -2.73626 0
M  V30 4158 C 385.59 -5.18468 -0.631506 0
M  V30 4159 H 387.284 -2.99281 -0.0844353 0
M  V30 4160 H 384.83 -1.43947 -0.0391707 0
M  V30 4161 H 386.783 -3.40203 -2.48676 0
M  V30 4162 H 385.507 -2.15991 -2.44981 0
M  V30 4163 H 384.166 -3.56676 -0.847202 0
M  V30 4164 H 383.814 -3.78422 -3.3137 0
M  V30 4165 H 383.514 -5.32826 -2.4773 0
M  V30 4166 H 385.038 -5.08658 -3.37786 0
M  V30 4167 H 386.452 -5.61272 -1.1682 0
M  V30 4168 H 384.849 -5.98266 -0.468831 0
M  V30 4169 H 385.919 -4.8358 0.357506 0
M  V30 4170 N 387.262 0.0317525 -1.57568 0
M  V30 4171 C 388.51 0.721676 -1.88776 0
M  V30 4172 C 388.831 1.76039 -0.838772 0
M  V30 4173 O 388.101 1.95482 0.127935 0
M  V30 4174 H 386.681 0.269534 -0.696678 0
M  V30 4175 H 389.343 -0.00165879 -1.949 0
M  V30 4176 H 388.439 1.21293 -2.87566 0
M  V30 4177 N 388.74 1.54641 0.303973 0
M  V30 4178 C 389.687 1.85386 1.37479 0
M  V30 4179 C 390.657 0.702528 1.50512 0
M  V30 4180 O 391.842 0.950867 1.65418 0
M  V30 4181 C 388.982 2.10413 2.73533 0
M  V30 4182 C 388.095 3.38049 2.68974 0
M  V30 4183 C 387.23 3.52934 3.97002 0
M  V30 4184 C 386.269 4.74373 3.86829 0
M  V30 4185 N 385.406 4.8608 5.06627 0
M  V30 4186 H 390.246 2.76732 1.1056 0
M  V30 4187 H 387.783 1.37034 0.534805 0
M  V30 4188 H 389.741 2.22919 3.52652 0
M  V30 4189 H 388.371 1.22338 2.98719 0
M  V30 4190 H 387.423 3.3418 1.81736 0
M  V30 4191 H 388.735 4.27288 2.57346 0
M  V30 4192 H 387.889 3.65088 4.84557 0
M  V30 4193 H 386.628 2.61824 4.1146 0
M  V30 4194 H 385.633 4.62255 2.97658 0
M  V30 4195 H 386.858 5.66888 3.73918 0
M  V30 4196 H 384.804 3.97891 5.21554 0
M  V30 4197 H 384.721 5.69315 4.9741 0
M  V30 4198 H 385.989 5.02587 5.95841 0
M  V30 4199 N 390.218 -0.567019 1.47046 0
M  V30 4200 C 391.495 -1.3276 1.43646 0
M  V30 4201 C 391.875 -2.1071 0.128186 0
M  V30 4202 O 391.223 -2.10441 -0.890326 0
M  V30 4203 C 391.433 -2.2404 2.67595 0
M  V30 4204 C 392.781 -2.85372 3.14401 0
M  V30 4205 O 393.805 -2.34346 2.68254 0
M  V30 4206 O 392.664 -3.78091 3.946 0
M  V30 4207 H 389.758 -0.597293 0.571988 0
M  V30 4208 H 392.304 -0.586735 1.59234 0
M  V30 4209 H 391.076 -1.65975 3.54356 0
M  V30 4210 H 390.699 -3.05439 2.54544 0
M  V30 4211 N 391.696 -1.35014 -0.812953 0
M  V30 4212 C 392.626 -1.30069 -1.93919 0
M  V30 4213 C 393.607 -0.176275 -1.69184 0
M  V30 4214 O 394.792 -0.370227 -1.90638 0
M  V30 4215 C 391.922 -1.06547 -3.30552 0
M  V30 4216 C 390.876 -2.15561 -3.69753 0
M  V30 4217 C 390.202 -1.77214 -5.04479 0
M  V30 4218 C 391.502 -3.57476 -3.808 0
M  V30 4219 H 393.196 -2.24303 -1.98314 0
M  V30 4220 H 390.742 -1.07977 -0.952736 0
M  V30 4221 H 392.695 -1.01729 -4.08937 0
M  V30 4222 H 391.419 -0.0875719 -3.26483 0
M  V30 4223 H 390.078 -2.19466 -2.9365 0
M  V30 4224 H 389.726 -0.780589 -4.96906 0
M  V30 4225 H 389.426 -2.50184 -5.31678 0
M  V30 4226 H 390.95 -1.7391 -5.8531 0
M  V30 4227 H 392.364 -3.55929 -4.4943 0
M  V30 4228 H 390.761 -4.29152 -4.19462 0
M  V30 4229 H 391.831 -3.94091 -2.82525 0
M  V30 4230 N 393.175 1.03435 -1.18907 0
M  V30 4231 C 394.107 2.1165 -0.879595 0
M  V30 4232 C 395.12 1.62316 0.125439 0
M  V30 4233 O 396.309 1.78201 -0.103245 0
M  V30 4234 C 393.409 3.37622 -0.294042 0
M  V30 4235 C 392.582 4.16166 -1.34629 0
M  V30 4236 C 391.641 5.20457 -0.775274 0
M  V30 4237 O 390.667 5.50379 -1.4516 0
M  V30 4238 N 391.869 5.78949 0.424126 0
M  V30 4239 H 394.634 2.38791 -1.81105 0
M  V30 4240 H 392.195 1.19681 -1.09032 0
M  V30 4241 H 394.187 4.04572 0.101679 0
M  V30 4242 H 392.757 3.07873 0.541575 0
M  V30 4243 H 391.977 3.44444 -1.91707 0
M  V30 4244 H 393.265 4.65432 -2.05549 0
M  V30 4245 H 392.663 5.56948 0.991209 0
M  V30 4246 H 391.22 6.47334 0.761691 0
M  V30 4247 N 394.653 0.992116 1.22453 0
M  V30 4248 C 395.563 0.55065 2.28046 0
M  V30 4249 C 396.579 -0.400189 1.69335 0
M  V30 4250 O 397.755 -0.267215 1.99619 0
M  V30 4251 C 394.82 -0.128496 3.46462 0
M  V30 4252 C 393.881 0.865208 4.20491 0
M  V30 4253 C 393.114 0.218377 5.33253 0
M  V30 4254 O 393.337 -0.987894 5.6178 0
M  V30 4255 O 392.271 0.922845 5.94783 0
M  V30 4256 H 396.097 1.4291 2.67975 0
M  V30 4257 H 393.682 0.760326 1.28606 0
M  V30 4258 H 395.564 -0.508947 4.18315 0
M  V30 4259 H 394.239 -0.981526 3.0846 0
M  V30 4260 H 393.146 1.29658 3.50913 0
M  V30 4261 H 394.479 1.68741 4.62371 0
M  V30 4262 N 396.131 -1.37776 0.765217 0
M  V30 4263 C 397.542 -1.82521 0.392819 0
M  V30 4264 C 397.893 -1.63789 -1.08017 0
M  V30 4265 O 397.018 -1.14542 -1.83601 0
M  V30 4266 C 397.613 -3.31358 0.706214 0
M  V30 4267 C 396.172 -3.74406 0.386952 0
M  V30 4268 C 395.319 -2.60394 0.953422 0
M  V30 4269 H 398.27 -1.2634 0.960412 0
M  V30 4270 H 398.291 -3.80498 -0.0114706 0
M  V30 4271 H 397.803 -3.44959 1.77833 0
M  V30 4272 H 395.904 -3.66377 -0.678112 0
M  V30 4273 H 396.017 -4.70749 0.890636 0
M  V30 4274 H 394.381 -2.51878 0.378064 0
M  V30 4275 H 395.164 -2.76791 2.03081 0
M  V30 4276 N 397.609 -0.515225 -1.4894 0
M  V30 4277 C 398.519 0.259774 -2.33157 0
M  V30 4278 C 399.535 0.953501 -1.45548 0
M  V30 4279 O 400.711 0.931735 -1.78552 0
M  V30 4280 C 397.776 1.30193 -3.21326 0
M  V30 4281 C 396.837 0.620129 -4.24797 0
M  V30 4282 C 396.07 1.61263 -5.08753 0
M  V30 4283 O 396.293 2.84389 -4.94448 0
M  V30 4284 O 395.227 1.16013 -5.90614 0
M  V30 4285 H 399.053 -0.429932 -3.00641 0
M  V30 4286 H 396.638 -0.276346 -1.46822 0
M  V30 4287 H 398.52 1.90455 -3.75905 0
M  V30 4288 H 397.195 1.97431 -2.56521 0
M  V30 4289 H 396.102 -0.0226019 -3.74093 0
M  V30 4290 H 397.435 -0.0100493 -4.92199 0
M  V30 4291 N 399.087 1.5561 -0.249682 0
M  V30 4292 C 400.334 1.99011 0.374287 0
M  V30 4293 C 400.662 1.13785 1.57744 0
M  V30 4294 O 399.917 0.189326 1.94782 0
M  V30 4295 C 400.216 3.4775 0.824887 0
M  V30 4296 C 399.882 4.50086 -0.270819 0
M  V30 4297 C 398.544 4.77791 -0.571746 0
M  V30 4298 C 400.896 5.11312 -1.01041 0
M  V30 4299 C 398.224 5.63997 -1.61629 0
M  V30 4300 C 400.576 5.98651 -2.0445 0
M  V30 4301 C 399.24 6.24688 -2.35204 0
M  V30 4302 H 398.51 0.728233 0.136961 0
M  V30 4303 H 401.157 1.88122 -0.358087 0
M  V30 4304 H 399.462 3.55985 1.63651 0
M  V30 4305 H 401.159 3.78721 1.31799 0
M  V30 4306 H 397.749 4.28592 -0.026136 0
M  V30 4307 H 401.933 4.89953 -0.791177 0
M  V30 4308 H 397.189 5.82425 -1.85988 0
M  V30 4309 H 401.363 6.45135 -2.62248 0
M  V30 4310 H 398.99 6.91281 -3.16282 0
M  V30 4311 N 400.565 -0.0233959 1.57583 0
M  V30 4312 C 401.79 -0.728376 1.94189 0
M  V30 4313 C 402.215 -1.67793 0.850119 0
M  V30 4314 O 401.573 -1.80262 -0.19371 0
M  V30 4315 C 401.621 -1.45669 3.29868 0
M  V30 4316 O 400.725 -2.57013 3.22518 0
M  V30 4317 H 400.066 -0.195493 0.63457 0
M  V30 4318 H 402.596 0.0228214 2.04587 0
M  V30 4319 H 402.606 -1.82535 3.6489 0
M  V30 4320 H 401.281 -0.760314 4.08891 0
M  V30 4321 H 399.858 -2.22648 2.99136 0
M  V30 4322 N 402.043 -1.548 -0.295768 0
M  V30 4323 C 403.006 -1.85363 -1.34808 0
M  V30 4324 C 404.006 -0.726817 -1.43436 0
M  V30 4325 O 405.196 -0.995088 -1.42981 0
M  V30 4326 C 402.328 -2.03859 -2.73229 0
M  V30 4327 H 403.521 -2.7941 -1.08949 0
M  V30 4328 H 401.074 -1.46942 -0.532702 0
M  V30 4329 H 401.809 -1.12117 -3.04303 0
M  V30 4330 H 401.594 -2.8588 -2.68356 0
M  V30 4331 H 403.084 -2.28857 -3.49305 0
M  V30 4332 N 403.521 0.559213 -1.47345 0
M  V30 4333 C 404.468 1.66645 -1.59682 0
M  V30 4334 C 405.438 1.60168 -0.43994 0
M  V30 4335 O 406.623 1.79031 -0.659736 0
M  V30 4336 C 403.763 3.04969 -1.61518 0
M  V30 4337 C 402.876 3.21897 -2.88108 0
M  V30 4338 C 402.011 4.50608 -2.81294 0
M  V30 4339 C 401.05 4.60961 -4.02717 0
M  V30 4340 N 400.187 5.81024 -3.94151 0
M  V30 4341 H 405.027 1.55439 -2.54249 0
M  V30 4342 H 402.564 0.757219 -1.26113 0
M  V30 4343 H 404.522 3.85064 -1.60566 0
M  V30 4344 H 403.152 3.15015 -0.704645 0
M  V30 4345 H 402.204 2.35248 -2.98936 0
M  V30 4346 H 403.516 3.25412 -3.78032 0
M  V30 4347 H 402.67 5.3896 -2.7858 0
M  V30 4348 H 401.409 4.49568 -1.89049 0
M  V30 4349 H 400.414 3.71021 -4.05738 0
M  V30 4350 H 401.639 4.63761 -4.96087 0
M  V30 4351 H 399.585 5.80938 -3.04708 0
M  V30 4352 H 399.502 5.85909 -4.77752 0
M  V30 4353 H 400.77 6.71744 -3.9545 0
M  V30 4354 N 404.999 1.35443 0.805782 0
M  V30 4355 C 405.946 1.28431 1.91766 0
M  V30 4356 C 406.916 0.156102 1.65365 0
M  V30 4357 O 408.101 0.339936 1.87747 0
M  V30 4358 C 405.241 1.06301 3.2832 0
M  V30 4359 C 404.354 2.2805 3.66902 0
M  V30 4360 C 403.489 1.99064 4.92491 0
M  V30 4361 C 402.528 3.16863 5.23703 0
M  V30 4362 N 401.665 2.87647 6.40471 0
M  V30 4363 H 406.505 2.23511 1.97096 0
M  V30 4364 H 404.042 1.11105 0.964054 0
M  V30 4365 H 406 0.915012 4.07042 0
M  V30 4366 H 404.63 0.148822 3.22457 0
M  V30 4367 H 403.682 2.53711 2.83434 0
M  V30 4368 H 404.994 3.1601 3.85927 0
M  V30 4369 H 404.148 1.81099 5.7904 0
M  V30 4370 H 402.887 1.0839 4.75503 0
M  V30 4371 H 401.892 3.35404 4.35642 0
M  V30 4372 H 403.117 4.08339 5.4262 0
M  V30 4373 H 401.063 1.99568 6.24907 0
M  V30 4374 H 400.98 3.69141 6.59751 0
M  V30 4375 H 402.248 2.73226 7.30047 0
M  V30 4376 N 406.477 -1.02803 1.19454 0
M  V30 4377 C 407.387 -2.14575 0.948408 0
M  V30 4378 C 408.403 -1.73757 -0.091871 0
M  V30 4379 O 409.579 -2.01185 0.0929654 0
M  V30 4380 C 406.644 -3.43202 0.491265 0
M  V30 4381 C 405.705 -3.98328 1.60103 0
M  V30 4382 C 404.938 -5.20816 1.16561 0
M  V30 4383 O 405.161 -5.70392 0.0295238 0
M  V30 4384 O 404.095 -5.68801 1.96849 0
M  V30 4385 H 407.921 -2.38202 1.88397 0
M  V30 4386 H 405.506 -1.12989 0.977433 0
M  V30 4387 H 407.388 -4.20687 0.245015 0
M  V30 4388 H 406.063 -3.21018 -0.415851 0
M  V30 4389 H 404.97 -3.22174 1.90144 0
M  V30 4390 H 406.303 -4.24879 2.48473 0
M  V30 4391 N 407.956 -0.998596 -1.21925 0
M  V30 4392 C 409.204 -0.676325 -1.90448 0
M  V30 4393 C 409.525 0.794719 -1.78071 0
M  V30 4394 O 408.795 1.5701 -1.17152 0
M  V30 4395 H 407.375 -0.247165 -0.704925 0
M  V30 4396 H 410.037 -1.26633 -1.48156 0
M  V30 4397 H 409.133 -0.943858 -2.97486 0
M  V30 4398 N 409.434 1.37368 -0.772513 0
M  V30 4399 C 410.381 2.30262 -0.157488 0
M  V30 4400 C 411.351 1.51137 0.688965 0
M  V30 4401 O 412.536 1.79704 0.641168 0
M  V30 4402 C 409.676 3.37611 0.715045 0
M  V30 4403 C 408.789 4.31746 -0.148098 0
M  V30 4404 C 407.924 5.26171 0.729213 0
M  V30 4405 C 406.963 6.11948 -0.136418 0
M  V30 4406 N 406.1 6.98613 0.698914 0
M  V30 4407 H 410.94 2.82277 -0.955179 0
M  V30 4408 H 408.477 1.38957 -0.482631 0
M  V30 4409 H 410.435 3.98479 1.23575 0
M  V30 4410 H 409.065 2.86959 1.47833 0
M  V30 4411 H 408.117 3.72178 -0.786613 0
M  V30 4412 H 409.429 4.92084 -0.81579 0
M  V30 4413 H 408.583 5.92247 1.31637 0
M  V30 4414 H 407.322 4.66246 1.43059 0
M  V30 4415 H 406.327 5.4485 -0.736102 0
M  V30 4416 H 407.552 6.73945 -0.835134 0
M  V30 4417 H 405.498 6.41215 1.38489 0
M  V30 4418 H 405.415 7.55948 0.0885358 0
M  V30 4419 H 406.683 7.69077 1.27044 0
M  V30 4420 N 410.912 0.523116 1.48665 0
M  V30 4421 C 412.158 -0.0134963 2.02796 0
M  V30 4422 C 412.491 -1.34582 1.40004 0
M  V30 4423 O 411.766 -1.86756 0.543381 0
M  V30 4424 C 412.049 -0.14276 3.59817 0
M  V30 4425 C 411.902 1.21425 4.331 0
M  V30 4426 C 413.221 -0.872856 4.31357 0
M  V30 4427 H 410.34 -0.00343074 0.736992 0
M  V30 4428 H 412.982 0.678816 1.7746 0
M  V30 4429 H 411.132 -0.732401 3.81534 0
M  V30 4430 H 412.804 1.84447 4.2282 0
M  V30 4431 H 411.047 1.79791 3.94788 0
M  V30 4432 H 411.718 1.07687 5.41394 0
M  V30 4433 H 414.194 -0.372555 4.14429 0
M  V30 4434 H 413.07 -0.932185 5.40927 0
M  V30 4435 H 413.331 -1.92161 3.98154 0
M  V30 4436 N 412.39 -1.55475 0.257931 0
M  V30 4437 C 413.32 -2.24815 -0.630912 0
M  V30 4438 C 414.301 -1.23224 -1.17259 0
M  V30 4439 O 415.486 -1.51904 -1.20991 0
M  V30 4440 C 412.616 -2.95609 -1.82298 0
M  V30 4441 C 411.57 -4.03982 -1.41359 0
M  V30 4442 C 410.896 -4.6226 -2.68738 0
M  V30 4443 C 412.196 -5.19109 -0.57648 0
M  V30 4444 H 413.89 -2.99354 -0.0526878 0
M  V30 4445 H 411.436 -1.4398 -0.023901 0
M  V30 4446 H 413.389 -3.42822 -2.45054 0
M  V30 4447 H 412.113 -2.18577 -2.42676 0
M  V30 4448 H 410.772 -3.57555 -0.809324 0
M  V30 4449 H 410.42 -3.81915 -3.27338 0
M  V30 4450 H 410.12 -5.35424 -2.42065 0
M  V30 4451 H 411.644 -5.12212 -3.32372 0
M  V30 4452 H 413.058 -5.62479 -1.10861 0
M  V30 4453 H 411.455 -5.98729 -0.405351 0
M  V30 4454 H 412.525 -4.83174 0.408776 0
M  V30 4455 N 413.868 0.0150385 -1.57593 0
M  V30 4456 C 415.115 0.703001 -1.89906 0
M  V30 4457 C 415.443 1.74604 -0.856944 0
M  V30 4458 O 414.698 1.95197 0.140287 0
M  V30 4459 C 414.997 1.39686 -3.28972 0
M  V30 4460 C 414.663 0.488457 -4.48246 0
M  V30 4461 C 413.325 0.2383 -4.8061 0
M  V30 4462 C 415.677 -0.137881 -5.21018 0
M  V30 4463 C 413.005 -0.646738 -5.83125 0
M  V30 4464 C 415.357 -1.0107 -6.24474 0
M  V30 4465 C 414.021 -1.27019 -6.55303 0
M  V30 4466 H 413.291 0.257246 -0.694914 0
M  V30 4467 H 415.938 -0.037259 -1.91464 0
M  V30 4468 H 414.243 2.21079 -3.23468 0
M  V30 4469 H 415.94 1.93495 -3.51227 0
M  V30 4470 H 412.53 0.693593 -4.22951 0
M  V30 4471 H 416.714 0.0423953 -4.96282 0
M  V30 4472 H 411.97 -0.855937 -6.05379 0
M  V30 4473 H 416.144 -1.50247 -6.79999 0
M  V30 4474 H 413.771 -1.95769 -7.3456 0
M  V30 4475 N 415.346 1.54954 0.287554 0
M  V30 4476 C 416.294 1.87606 1.37502 0
M  V30 4477 C 417.288 0.751001 1.51843 0
M  V30 4478 O 418.494 0.935169 1.53801 0
M  V30 4479 H 414.869 0.595231 0.459569 0
M  V30 4480 H 416.84 2.78477 1.07206 0
M  V30 4481 C 415.589 2.15183 2.73115 0
M  V30 4482 H 414.912 3.01234 2.62866 0
M  V30 4483 H 416.352 2.4196 3.48183 0
M  V30 4484 C 414.811 0.954686 3.2309 0
M  V30 4485 O 415.341 0.181949 4.01288 0
M  V30 4486 N 413.547 0.756368 2.80584 0
M  V30 4487 H 413.094 1.38643 2.17108 0
M  V30 4488 H 413.052 -0.0430391 3.14371 0
M  V30 4489 N 416.824 -0.551391 1.4764 0
M  V30 4490 C 417.772 -1.67896 1.60978 0
M  V30 4491 C 418.766 -1.62549 0.476877 0
M  V30 4492 O 419.972 -1.67664 0.654878 0
M  V30 4493 H 416.347 -0.555649 0.506713 0
M  V30 4494 H 418.318 -1.53784 2.55721 0
M  V30 4495 C 417.067 -3.06234 1.64669 0
M  V30 4496 H 416.39 -3.11033 2.51194 0
M  V30 4497 H 417.83 -3.84804 1.7805 0
M  V30 4498 C 416.289 -3.34737 0.381115 0
M  V30 4499 O 416.819 -3.98381 -0.515297 0
M  V30 4500 N 415.025 -2.8944 0.259354 0
M  V30 4501 H 414.572 -2.37827 0.98976 0
M  V30 4502 H 414.53 -3.08882 -0.586464 0
M  V30 4503 N 418.302 -1.35869 -0.798587 0
M  V30 4504 C 419.53 -1.32722 -1.58722 0
M  V30 4505 C 419.945 0.0935631 -1.88568 0
M  V30 4506 O 419.302 1.04784 -1.49421 0
M  V30 4507 C 419.353 -2.13974 -2.91371 0
M  V30 4508 O 419.074 -3.50514 -2.62815 0
M  V30 4509 C 420.575 -2.18504 -3.85708 0
M  V30 4510 H 417.795 -0.45562 -0.492596 0
M  V30 4511 H 420.339 -1.78837 -0.991843 0
M  V30 4512 H 418.494 -1.71438 -3.47402 0
M  V30 4513 H 418.908 -3.92806 -3.47568 0
M  V30 4514 H 420.382 -2.79732 -4.75872 0
M  V30 4515 H 420.859 -1.18597 -4.22885 0
M  V30 4516 H 421.465 -2.61236 -3.35612 0
M  V30 4517 N 419.78 1.02168 -1.19998 0
M  V30 4518 C 420.71 2.12488 -0.96804 0
M  V30 4519 C 421.691 1.69799 0.101185 0
M  V30 4520 O 422.876 1.94121 -0.0552993 0
M  V30 4521 C 420.006 3.43479 -0.513776 0
M  V30 4522 C 418.96 3.99884 -1.52566 0
M  V30 4523 C 418.286 5.26582 -0.928214 0
M  V30 4524 C 419.586 4.33861 -2.90795 0
M  V30 4525 H 421.28 2.32149 -1.89069 0
M  V30 4526 H 418.826 1.11564 -0.910468 0
M  V30 4527 H 420.779 4.20036 -0.338774 0
M  V30 4528 H 419.503 3.23561 0.444493 0
M  V30 4529 H 418.162 3.25429 -1.68794 0
M  V30 4530 H 417.81 5.02986 0.0378289 0
M  V30 4531 H 417.51 5.65284 -1.60397 0
M  V30 4532 H 419.034 6.05799 -0.764167 0
M  V30 4533 H 420.448 5.01327 -2.78109 0
M  V30 4534 H 418.845 4.83664 -3.55231 0
M  V30 4535 H 419.915 3.42848 -3.42904 0
M  V30 4536 N 421.258 1.00505 1.21394 0
M  V30 4537 C 422.483 0.706367 1.95001 0
M  V30 4538 C 422.908 -0.72463 1.73582 0
M  V30 4539 O 422.266 -1.49702 1.0227 0
M  V30 4540 C 422.314 1.03299 3.45487 0
M  V30 4541 O 421.418 0.138275 4.12168 0
M  V30 4542 H 420.759 0.263175 0.609619 0
M  V30 4543 H 423.289 1.34531 1.54151 0
M  V30 4544 H 423.299 0.979872 3.96059 0
M  V30 4545 H 421.974 2.07567 3.60401 0
M  V30 4546 H 420.551 0.247928 3.72075 0
M  V30 4547 N 422.737 -1.36956 0.779787 0
M  V30 4548 C 423.984 -1.99491 0.347766 0
M  V30 4549 C 424.312 -1.61898 -1.07793 0
M  V30 4550 O 423.567 -0.86071 -1.75756 0
M  V30 4551 C 423.866 -3.54585 0.447686 0
M  V30 4552 C 423.532 -4.1197 1.83279 0
M  V30 4553 C 422.194 -4.27356 2.2118 0
M  V30 4554 C 424.546 -4.43354 2.74019 0
M  V30 4555 C 421.874 -4.71432 3.4924 0
M  V30 4556 C 424.226 -4.88858 4.01497 0
M  V30 4557 C 422.89 -5.0245 4.39432 0
M  V30 4558 H 422.16 -0.729991 0.127257 0
M  V30 4559 H 424.807 -1.63599 0.995376 0
M  V30 4560 H 423.112 -3.90773 -0.283447 0
M  V30 4561 H 424.809 -4.00888 0.0945948 0
M  V30 4562 H 421.399 -4.00428 1.52825 0
M  V30 4563 H 425.583 -4.31045 2.45995 0
M  V30 4564 H 420.839 -4.80141 3.78516 0
M  V30 4565 H 425.013 -5.12108 4.71931 0
M  V30 4566 H 422.64 -5.36362 5.38721 0
M  V30 4567 N 424.215 -0.530993 -1.48385 0
M  V30 4568 C 425.464 0.00474348 -2.01699 0
M  V30 4569 C 425.777 1.35227 -1.41325 0
M  V30 4570 O 426.983 1.97643 -1.86144 0
M  V30 4571 C 425.439 0.0588473 -3.59852 0
M  V30 4572 C 425.047 -1.28385 -4.2921 0
M  V30 4573 C 426.791 0.543358 -4.21008 0
M  V30 4574 C 424.698 -1.19028 -5.79298 0
M  V30 4575 H 423.628 0.00554317 -0.75398 0
M  V30 4576 H 426.279 -0.674924 -1.70637 0
M  V30 4577 H 424.661 0.803612 -3.8776 0
M  V30 4578 H 425.835 -2.04426 -4.12973 0
M  V30 4579 H 424.15 -1.70418 -3.7993 0
M  V30 4580 H 426.747 0.631351 -5.3096 0
M  V30 4581 H 427.09 1.54937 -3.86394 0
M  V30 4582 H 427.623 -0.145754 -3.97533 0
M  V30 4583 H 424.362 -2.17147 -6.18488 0
M  V30 4584 H 423.882 -0.471246 -5.97946 0
M  V30 4585 H 425.561 -0.881365 -6.40969 0
M  V30 4586 N 425.693 1.55336 -0.266172 0
M  V30 4587 C 426.939 1.99692 0.353681 0
M  V30 4588 C 427.272 1.1543 1.56172 0
M  V30 4589 O 426.547 0.222218 1.93226 0
M  V30 4590 C 426.83 3.52316 0.74466 0
M  V30 4591 C 426.683 4.47337 -0.470101 0
M  V30 4592 C 428.002 4.10588 1.58447 0
M  V30 4593 H 425.121 0.725961 0.12708 0
M  V30 4594 H 427.763 1.86336 -0.371333 0
M  V30 4595 H 425.913 3.63829 1.36239 0
M  V30 4596 H 427.585 4.4778 -1.10864 0
M  V30 4597 H 425.828 4.19364 -1.10978 0
M  V30 4598 H 426.499 5.51788 -0.15291 0
M  V30 4599 H 428.975 4.02297 1.06286 0
M  V30 4600 H 427.851 5.17607 1.82686 0
M  V30 4601 H 428.112 3.60253 2.56262 0
M  V30 4602 N 427.171 -0.0066808 1.57599 0
M  V30 4603 C 428.42 -0.692078 1.89455 0
M  V30 4604 C 428.733 -1.75306 0.867586 0
M  V30 4605 O 429.939 -2.49262 1.07614 0
M  V30 4606 C 428.395 -1.2821 3.36289 0
M  V30 4607 C 428.003 -0.256291 4.47266 0
M  V30 4608 C 429.747 -1.94608 3.77264 0
M  V30 4609 C 427.654 -0.855927 5.85173 0
M  V30 4610 H 426.584 -0.262252 0.706923 0
M  V30 4611 H 429.235 0.052769 1.83424 0
M  V30 4612 H 427.617 -2.0774 3.37135 0
M  V30 4613 H 428.791 0.513923 4.57925 0
M  V30 4614 H 427.106 0.306862 4.15268 0
M  V30 4615 H 429.703 -2.40364 4.77629 0
M  V30 4616 H 430.046 -2.77382 3.10427 0
M  V30 4617 H 430.579 -1.21822 3.78688 0
M  V30 4618 H 427.318 -0.0671161 6.55466 0
M  V30 4619 H 426.838 -1.59546 5.78191 0
M  V30 4620 H 428.517 -1.35658 6.32618 0
M  V30 4621 N 428.649 -1.55105 -0.279332 0
M  V30 4622 C 429.559 -1.90638 -1.36727 0
M  V30 4623 C 430.575 -0.802899 -1.54368 0
M  V30 4624 O 431.751 -1.10138 -1.68616 0
M  V30 4625 C 428.816 -2.16547 -2.70755 0
M  V30 4626 C 427.877 -3.40146 -2.61915 0
M  V30 4627 C 427.11 -3.6481 -3.8955 0
M  V30 4628 O 427.333 -2.92095 -4.89935 0
M  V30 4629 O 426.267 -4.58343 -3.90135 0
M  V30 4630 H 430.093 -2.83237 -1.09591 0
M  V30 4631 H 427.678 -1.4157 -0.477306 0
M  V30 4632 H 429.56 -2.34665 -3.50014 0
M  V30 4633 H 428.235 -1.27131 -2.9769 0
M  V30 4634 H 427.142 -3.2737 -1.81052 0
M  V30 4635 H 428.475 -4.29761 -2.3993 0
M  V30 4636 N 430.127 0.543554 -1.4793 0
M  V30 4637 C 431.09 1.63156 -1.60975 0
M  V30 4638 C 432.09 1.53346 -0.483899 0
M  V30 4639 O 433.28 1.5726 -0.749339 0
M  V30 4640 C 430.412 3.02743 -1.56716 0
M  V30 4641 H 431.605 1.52934 -2.57975 0
M  V30 4642 H 429.158 0.764557 -1.36324 0
M  V30 4643 H 429.893 3.18484 -0.611418 0
M  V30 4644 H 429.678 3.11272 -2.38438 0
M  V30 4645 H 431.168 3.81871 -1.6901 0
M  V30 4646 O 431.644 1.46095 0.688375 0
M  V30 4647 H 432.335 1.39822 1.34051 0
M  V30 END ATOM
M  V30 BEGIN BOND
M  V30 END BOND
M  V30 END CTAB
M  END
$$$$
