drugbank_target|Q72497 Gag polyprotein (DB08231)
 OpenBabel12092120493D

  0  0  0     0  0            999 V3000
M  V30 BEGIN CTAB
M  V30 COUNTS 7837 7919 0 0 0
M  V30 BEGIN ATOM
M  V30 1 H -0.908 1.98254 -0.117106 0
M  V30 2 N 0 1.576 0 0
M  V30 3 C 0.933 2.03868 1.02534 0
M  V30 4 C 1.911 0.928543 1.3348 0
M  V30 5 O 3.095 1.19667 1.45644 0
M  V30 6 C 0.222 2.43627 2.35294 0
M  V30 7 C -0.732 3.65373 2.2001 0
M  V30 8 S 0.101 5.13292 1.52614 0
M  V30 9 C 1.257 5.56322 2.86805 0
M  V30 10 H 1.49 2.90518 0.631377 0
M  V30 11 H -0.977 1.52953 0.210867 0
M  V30 12 H 0.981 2.67203 3.11629 0
M  V30 13 H -0.358 1.57376 2.7183 0
M  V30 14 H -1.165 3.90944 3.18086 0
M  V30 15 H -1.563 3.418 1.51819 0
M  V30 16 H 0.729 5.58782 3.83104 0
M  V30 17 H 1.672 6.56266 2.65933 0
M  V30 18 H 2.08 4.83886 2.90714 0
M  V30 19 N 1.4781 -0.272755 1.55222 0
M  V30 20 C 2.7261 -1.00234 1.75492 0
M  V30 21 C 3.0471 -1.8681 0.5592 0
M  V30 22 O 2.3171 -1.91215 -0.425882 0
M  V30 23 H 0.8971 -0.373076 0.647166 0
M  V30 24 H 3.5591 -0.296926 1.92625 0
M  V30 25 H 2.6551 -1.63913 2.65592 0
M  V30 26 N 2.9562 -1.48159 -0.537278 0
M  V30 27 C 3.9192 -1.61665 -1.62472 0
M  V30 28 C 4.9192 -0.490395 -1.5314 0
M  V30 29 O 6.1092 -0.755998 -1.5694 0
M  V30 30 C 3.2412 -1.57997 -3.02076 0
M  V30 31 H 4.4342 -2.58621 -1.51839 0
M  V30 32 H 1.9872 -1.36647 -0.758771 0
M  V30 33 H 2.7222 -0.624913 -3.18222 0
M  V30 34 H 2.5072 -2.39755 -3.10258 0
M  V30 35 H 3.9972 -1.70627 -3.81151 0
M  V30 36 N 4.4343 0.785586 -1.36625 0
M  V30 37 C 5.8503 1.08419 -1.17122 0
M  V30 38 C 6.0503 2.015 0.00208491 0
M  V30 39 O 5.1063 2.43551 0.666278 0
M  V30 40 C 6.4193 1.69498 -2.48377 0
M  V30 41 C 7.9673 1.81821 -2.54775 0
M  V30 42 C 8.4423 2.46315 -3.86126 0
M  V30 43 N 9.9333 2.53779 -3.87492 0
M  V30 44 C 10.6683 3.045 -4.85868 0
M  V30 45 N 10.1643 3.55499 -5.94637 0
M  V30 46 N 11.9573 3.03247 -4.73284 0
M  V30 47 H 4.1083 0.167264 -2.1174 0
M  V30 48 H 6.3713 0.13682 -0.938075 0
M  V30 49 H 6.0773 1.08571 -3.34522 0
M  V30 50 H 5.9513 2.6896 -2.64462 0
M  V30 51 H 8.3383 2.41884 -1.69045 0
M  V30 52 H 8.4193 0.811532 -2.42586 0
M  V30 53 H 8.0633 1.86895 -4.72263 0
M  V30 54 H 7.9933 3.47561 -3.95612 0
M  V30 55 H 10.4843 2.17672 -3.08913 0
M  V30 56 H 10.7973 3.92562 -6.65669 0
M  V30 57 H 9.1423 3.5364 -5.98301 0
M  V30 58 H 12.3333 2.62696 -3.87438 0
M  V30 59 H 12.5063 3.42467 -5.50109 0
M  V30 60 N 5.9124 1.20967 1.01018 0
M  V30 61 C 6.8754 0.965918 2.07853 0
M  V30 62 C 7.8754 -0.0610545 1.60684 0
M  V30 63 O 9.0654 0.175681 1.73312 0
M  V30 64 C 6.1974 0.455513 3.37843 0
M  V30 65 H 7.3904 1.91365 2.3091 0
M  V30 66 H 4.9434 1.02594 1.17916 0
M  V30 67 H 5.6784 -0.497381 3.20463 0
M  V30 68 H 5.4634 1.19622 3.73407 0
M  V30 69 H 6.9534 0.304667 4.16487 0
M  V30 70 N 7.3905 -1.2043 1.01659 0
M  V30 71 C 8.6155 -1.94318 0.724942 0
M  V30 72 C 9.0405 -1.74266 -0.708034 0
M  V30 73 O 8.3985 -1.03694 -1.48719 0
M  V30 74 C 8.4465 -3.44486 1.06591 0
M  V30 75 O 7.5505 -4.12017 0.177599 0
M  V30 76 H 6.8915 -0.60708 0.26898 0
M  V30 77 H 9.4215 -1.52861 1.35995 0
M  V30 78 H 9.4315 -3.95106 1.01762 0
M  V30 79 H 8.1065 -3.58404 2.10997 0
M  V30 80 H 6.6835 -3.71821 0.283421 0
M  V30 81 N 8.8686 -0.792821 -1.36206 0
M  V30 82 C 10.1146 -0.36733 -1.99446 0
M  V30 83 C 10.4476 1.05917 -1.62774 0
M  V30 84 O 9.7226 1.7324 -0.88421 0
M  V30 85 C 10.0056 -0.535044 -3.56103 0
M  V30 86 C 9.8586 -2.00548 -4.02617 0
M  V30 87 C 11.1776 0.0478191 -4.40074 0
M  V30 88 H 8.2966 -0.134941 -0.724541 0
M  V30 89 H 10.9386 -0.999794 -1.61568 0
M  V30 90 H 9.0886 0.00336329 -3.885 0
M  V30 91 H 10.7606 -2.60521 -3.80692 0
M  V30 92 H 9.0036 -2.50686 -3.54032 0
M  V30 93 H 9.6746 -2.07377 -5.11565 0
M  V30 94 H 12.1506 -0.411822 -4.14057 0
M  V30 95 H 11.0266 -0.0995336 -5.4881 0
M  V30 96 H 11.2876 1.14025 -4.27142 0
M  V30 97 N 10.3467 1.47872 -0.545128 0
M  V30 98 C 11.2767 2.32661 0.197793 0
M  V30 99 C 12.2577 1.43041 0.920504 0
M  V30 100 O 13.4427 1.71912 0.90333 0
M  V30 101 C 10.5727 3.24569 1.23582 0
M  V30 102 C 9.5267 4.23333 0.630323 0
M  V30 103 C 8.8527 5.0448 1.77211 0
M  V30 104 C 10.1527 5.20704 -0.407974 0
M  V30 105 H 11.8467 2.95024 -0.510045 0
M  V30 106 H 9.3927 1.4187 -0.246731 0
M  V30 107 H 11.3457 3.8272 1.76362 0
M  V30 108 H 10.0697 2.60236 1.97344 0
M  V30 109 H 8.7287 3.6639 0.123922 0
M  V30 110 H 8.3767 4.36561 2.49847 0
M  V30 111 H 8.0767 5.71339 1.37281 0
M  V30 112 H 9.6007 5.65487 2.3034 0
M  V30 113 H 11.0147 5.7329 0.033305 0
M  V30 114 H 9.4117 5.95699 -0.725486 0
M  V30 115 H 10.4817 4.66917 -1.30828 0
M  V30 116 N 11.8248 0.280983 1.55075 0
M  V30 117 C 13.0498 -0.340154 2.04592 0
M  V30 118 C 13.4748 -1.48246 1.15779 0
M  V30 119 O 12.8328 -1.80614 0.15761 0
M  V30 120 C 12.8808 -0.793104 3.5177 0
M  V30 121 O 11.9848 -1.89981 3.66034 0
M  V30 122 H 11.3258 -0.0694289 0.66036 0
M  V30 123 H 13.8558 0.416993 2.00306 0
M  V30 124 H 13.8658 -1.08729 3.93245 0
M  V30 125 H 12.5408 0.0426163 4.15878 0
M  V30 126 H 11.1178 -1.60771 3.36463 0
M  V30 127 N 13.3029 -1.57598 0.00835791 0
M  V30 128 C 14.5509 -1.90551 -0.6734 0
M  V30 129 C 14.8719 -0.883301 -1.73847 0
M  V30 130 O 14.1419 0.0781442 -1.95744 0
M  V30 131 H 12.7219 -0.703312 -0.251717 0
M  V30 132 H 15.3839 -1.94833 0.0512592 0
M  V30 133 H 14.4799 -2.9056 -1.13935 0
M  V30 134 N 14.781 0.264519 -1.55364 0
M  V30 135 C 16.029 0.993021 -1.76021 0
M  V30 136 C 16.35 1.86511 -0.569099 0
M  V30 137 O 15.62 1.91438 0.415735 0
M  V30 138 H 14.2 0.369639 -0.649135 0
M  V30 139 H 16.862 0.286707 -1.9278 0
M  V30 140 H 15.958 1.62502 -2.66457 0
M  V30 141 N 16.2591 1.48442 0.529413 0
M  V30 142 C 17.1691 1.6569 1.66084 0
M  V30 143 C 18.1851 0.539432 1.65427 0
M  V30 144 O 19.3611 0.810572 1.84368 0
M  V30 145 C 16.4261 1.69315 3.02545 0
M  V30 146 C 15.4871 2.92694 3.14052 0
M  V30 147 C 14.7201 2.96137 4.44003 0
M  V30 148 O 14.9431 2.07973 5.31134 0
M  V30 149 O 13.8771 3.88312 4.59888 0
M  V30 150 H 17.7031 2.61483 1.54469 0
M  V30 151 H 15.2881 1.3185 0.702567 0
M  V30 152 H 17.1701 1.74217 3.83701 0
M  V30 153 H 15.8451 0.766966 3.14483 0
M  V30 154 H 14.7521 2.93324 2.32189 0
M  V30 155 H 16.0851 3.84699 3.0703 0
M  V30 156 N 17.7372 -0.778329 1.37039 0
M  V30 157 C 18.6672 -1.90546 1.34962 0
M  V30 158 C 19.6482 -1.68681 0.219274 0
M  V30 159 O 20.8332 -1.89634 0.418624 0
M  V30 160 C 17.9632 -3.27734 1.14925 0
M  V30 161 C 16.9172 -3.64147 2.24902 0
M  V30 162 C 16.2432 -4.99806 1.89996 0
M  V30 163 C 17.5432 -3.71579 3.67051 0
M  V30 164 H 19.2372 -1.92541 2.29277 0
M  V30 165 H 16.7832 -0.924948 1.10366 0
M  V30 166 H 18.7362 -4.06215 1.12104 0
M  V30 167 H 17.4602 -3.26154 0.170631 0
M  V30 168 H 16.1192 -2.8797 2.26868 0
M  V30 169 H 15.7672 -4.94759 0.906796 0
M  V30 170 H 15.4672 -5.25139 2.63634 0
M  V30 171 H 16.9912 -5.80694 1.88749 0
M  V30 172 H 18.4052 -4.40227 3.67251 0
M  V30 173 H 16.8022 -4.08405 4.39688 0
M  V30 174 H 17.8722 -2.72404 4.01154 0
M  V30 175 N 19.2153 -1.21501 -1.00376 0
M  V30 176 C 20.4923 -0.941745 -1.71437 0
M  V30 177 C 20.8723 0.546114 -2.03914 0
M  V30 178 O 20.2203 1.51128 -1.71384 0
M  V30 179 C 20.4303 -1.82812 -2.97289 0
M  V30 180 C 21.7783 -2.07771 -3.70292 0
M  V30 181 O 22.8023 -1.80171 -3.07273 0
M  V30 182 O 21.6613 -2.54456 -4.83647 0
M  V30 183 H 18.7553 -0.353243 -0.747762 0
M  V30 184 H 21.3013 -1.32436 -1.06108 0
M  V30 185 H 20.0733 -2.83501 -2.69709 0
M  V30 186 H 19.6963 -1.4464 -3.70358 0
M  V30 187 N 20.6934 1.19889 -1.02296 0
M  V30 188 C 21.6404 2.22901 -0.598651 0
M  V30 189 C 22.6104 1.61588 0.384521 0
M  V30 190 O 23.7954 1.88697 0.282522 0
M  V30 191 C 20.9354 3.45063 0.0504476 0
M  V30 192 C 20.0484 4.20783 -0.978053 0
M  V30 193 C 19.1834 5.30356 -0.299338 0
M  V30 194 C 18.2224 5.97826 -1.31416 0
M  V30 195 N 17.3594 6.98975 -0.661667 0
M  V30 196 H 22.1994 2.58554 -1.48169 0
M  V30 197 H 19.7364 1.27039 -0.741584 0
M  V30 198 H 21.6944 4.14831 0.443971 0
M  V30 199 H 20.3244 3.10084 0.897097 0
M  V30 200 H 19.3764 3.50018 -1.48969 0
M  V30 201 H 20.6884 4.67109 -1.74958 0
M  V30 202 H 19.8424 6.06516 0.149347 0
M  V30 203 H 18.5814 4.85084 0.504445 0
M  V30 204 H 17.5864 5.20422 -1.77317 0
M  V30 205 H 18.8114 6.45183 -2.11933 0
M  V30 206 H 16.7574 6.55886 0.122132 0
M  V30 207 H 16.6744 7.43461 -1.37117 0
M  V30 208 H 17.9424 7.7914 -0.236785 0
M  V30 209 N 22.1715 0.800033 1.35784 0
M  V30 210 C 23.4175 0.38701 1.99684 0
M  V30 211 C 23.7725 -1.03268 1.62338 0
M  V30 212 O 23.0655 -1.70543 0.87325 0
M  V30 213 C 23.2595 0.500276 3.53881 0
M  V30 214 C 23.0885 1.92942 4.06206 0
M  V30 215 C 21.8585 2.55637 4.35865 0
M  V30 216 C 24.0565 2.89307 4.25213 0
M  V30 217 N 22.0385 3.9003 4.74078 0
M  V30 218 C 23.4095 4.08556 4.66349 0
M  V30 219 C 25.4645 2.86225 4.07406 0
M  V30 220 C 24.1675 5.25146 4.91543 0
M  V30 221 C 26.1935 4.02011 4.33752 0
M  V30 222 C 25.5555 5.20007 4.75155 0
M  V30 223 H 21.6545 0.189252 0.758754 0
M  V30 224 H 24.2385 1.03988 1.64604 0
M  V30 225 H 22.4095 -0.122568 3.88207 0
M  V30 226 H 24.1415 0.0624733 4.04652 0
M  V30 227 H 20.8965 2.07039 4.25948 0
M  V30 228 H 21.3205 4.59205 4.97454 0
M  V30 229 H 25.9625 1.96154 3.74544 0
M  V30 230 H 23.6805 6.15794 5.23281 0
M  V30 231 H 27.2665 4.00999 4.21534 0
M  V30 232 H 26.1465 6.08113 4.95145 0
M  V30 233 N 23.6496 -1.47581 0.552962 0
M  V30 234 C 24.5596 -2.33743 -0.200353 0
M  V30 235 C 25.5756 -1.47928 -0.916151 0
M  V30 236 O 26.7516 -1.80865 -0.885993 0
M  V30 237 C 23.8166 -3.24536 -1.21973 0
M  V30 238 C 22.8776 -4.26238 -0.511819 0
M  V30 239 C 22.1106 -5.12693 -1.48263 0
M  V30 240 O 22.3336 -5.01525 -2.71714 0
M  V30 241 O 21.2676 -5.93375 -1.00945 0
M  V30 242 H 25.0936 -2.9945 0.506304 0
M  V30 243 H 22.6786 -1.46071 0.313622 0
M  V30 244 H 24.5606 -3.80631 -1.80827 0
M  V30 245 H 23.2356 -2.61462 -1.90839 0
M  V30 246 H 22.1426 -3.73914 0.117799 0
M  V30 247 H 23.4756 -4.92014 0.135308 0
M  V30 248 N 25.1277 -0.289203 -1.54924 0
M  V30 249 C 26.0747 0.592115 -2.23075 0
M  V30 250 C 27.0447 1.13881 -1.20915 0
M  V30 251 O 28.2297 1.18551 -1.495 0
M  V30 252 C 25.3697 1.76376 -2.96623 0
M  V30 253 C 24.4827 1.24959 -4.13533 0
M  V30 254 C 23.6177 2.38416 -4.74691 0
M  V30 255 C 22.6567 1.84072 -5.83767 0
M  V30 256 N 21.7937 2.91057 -6.38929 0
M  V30 257 H 26.6337 0.00432038 -2.98 0
M  V30 258 H 24.1707 -0.00963529 -1.47097 0
M  V30 259 H 26.1287 2.45268 -3.3749 0
M  V30 260 H 24.7587 2.32337 -2.24097 0
M  V30 261 H 23.8107 0.453307 -3.77689 0
M  V30 262 H 25.1227 0.811662 -4.92152 0
M  V30 263 H 24.2767 3.15276 -5.18349 0
M  V30 264 H 23.0157 2.8553 -3.95378 0
M  V30 265 H 22.0207 1.05697 -5.39545 0
M  V30 266 H 23.2457 1.37877 -6.64956 0
M  V30 267 H 21.1917 3.37526 -5.62505 0
M  V30 268 H 21.1087 2.51724 -7.12861 0
M  V30 269 H 22.3767 3.6785 -6.87246 0
M  V30 270 N 26.6058 1.57591 -0.0167156 0
M  V30 271 C 27.8548 1.90461 0.663877 0
M  V30 272 C 28.1678 0.893515 1.73999 0
M  V30 273 O 29.3738 1.11302 2.47637 0
M  V30 274 C 27.8298 3.38155 1.23204 0
M  V30 275 C 27.4378 4.47597 0.189866 0
M  V30 276 C 29.1818 3.80111 1.88986 0
M  V30 277 C 27.0888 5.86379 0.768964 0
M  V30 278 H 26.0188 0.710738 0.251729 0
M  V30 279 H 28.6698 1.83326 -0.0799926 0
M  V30 280 H 27.0518 3.40182 2.02712 0
M  V30 281 H 28.2258 4.57112 -0.581846 0
M  V30 282 H 26.5408 4.14766 -0.368475 0
M  V30 283 H 29.1378 4.81145 2.33247 0
M  V30 284 H 29.4808 3.14511 2.72743 0
M  V30 285 H 30.0138 3.80454 1.16187 0
M  V30 286 H 26.7528 6.55493 -0.0301957 0
M  V30 287 H 26.2728 5.80496 1.50945 0
M  V30 288 H 27.9518 6.34563 1.26251 0
M  V30 289 N 28.0839 -0.256276 1.55502 0
M  V30 290 C 29.4999 -0.604325 1.47716 0
M  V30 291 C 29.6999 -1.88763 0.705039 0
M  V30 292 O 28.7559 -2.51445 0.230613 0
M  V30 293 C 30.0689 -0.715756 2.92057 0
M  V30 294 C 31.6169 -0.808706 3.02372 0
M  V30 295 C 32.0919 -0.951777 4.48001 0
M  V30 296 N 33.5829 -1.01688 4.519 0
M  V30 297 C 34.3179 -1.14668 5.61817 0
M  V30 298 N 33.8139 -1.24261 6.81565 0
M  V30 299 N 35.6069 -1.1791 5.49594 0
M  V30 300 H 27.7579 0.586291 2.04148 0
M  V30 301 H 30.0209 0.201015 0.926443 0
M  V30 302 H 29.7269 0.157027 3.51349 0
M  V30 303 H 29.6009 -1.59071 3.42018 0
M  V30 304 H 31.9879 -1.67195 2.43166 0
M  V30 305 H 32.0689 0.0912063 2.55637 0
M  V30 306 H 31.7129 -0.0931291 5.07815 0
M  V30 307 H 31.6429 -1.86659 4.92408 0
M  V30 308 H 34.1339 -0.954468 3.65648 0
M  V30 309 H 34.4469 -1.34046 7.61086 0
M  V30 310 H 32.7919 -1.21236 6.84344 0
M  V30 311 H 35.9829 -1.10057 4.54978 0
M  V30 312 H 36.1559 -1.27681 6.35296 0
M  V30 313 N 29.562 -1.4872 -0.521534 0
M  V30 314 C 30.492 -1.66771 -1.63431 0
M  V30 315 C 31.473 -0.516499 -1.62069 0
M  V30 316 O 32.658 -0.750013 -1.79132 0
M  V30 317 C 29.788 -1.71515 -3.01993 0
M  V30 318 C 28.742 -2.86222 -3.18216 0
M  V30 319 C 28.068 -2.76061 -4.57924 0
M  V30 320 C 29.368 -4.27419 -3.00184 0
M  V30 321 H 31.062 -2.59932 -1.48579 0
M  V30 322 H 28.608 -1.25089 -0.713358 0
M  V30 323 H 30.561 -1.82731 -3.7972 0
M  V30 324 H 29.285 -0.749393 -3.17886 0
M  V30 325 H 27.944 -2.74575 -2.42908 0
M  V30 326 H 27.592 -1.77437 -4.70665 0
M  V30 327 H 27.292 -3.53037 -4.69722 0
M  V30 328 H 28.816 -2.89256 -5.37739 0
M  V30 329 H 30.23 -4.39855 -3.67697 0
M  V30 330 H 28.627 -5.05458 -3.2347 0
M  V30 331 H 29.697 -4.43293 -1.96518 0
M  V30 332 N 31.0401 0.771051 -1.3745 0
M  V30 333 C 32.4561 1.07171 -1.18265 0
M  V30 334 C 32.6561 2.01491 -0.019287 0
M  V30 335 O 31.7121 2.44244 0.640408 0
M  V30 336 C 33.0251 1.66854 -2.50161 0
M  V30 337 C 34.5731 1.79109 -2.56689 0
M  V30 338 C 35.0481 2.42205 -3.88717 0
M  V30 339 N 36.5391 2.49655 -3.90162 0
M  V30 340 C 37.2741 2.9933 -4.8907 0
M  V30 341 N 36.7701 3.49172 -5.98374 0
M  V30 342 N 38.5631 2.9821 -4.76474 0
M  V30 343 H 30.7141 0.144796 -2.11906 0
M  V30 344 H 32.9771 0.126863 -0.939473 0
M  V30 345 H 32.6831 1.05017 -3.35655 0
M  V30 346 H 32.5571 2.6614 -2.673 0
M  V30 347 H 34.9441 2.40077 -1.71601 0
M  V30 348 H 35.0251 0.785757 -2.43433 0
M  V30 349 H 34.6691 1.81875 -4.74219 0
M  V30 350 H 34.5991 3.43345 -3.99276 0
M  V30 351 H 37.0901 2.14383 -3.11205 0
M  V30 352 H 37.4031 3.8548 -6.69795 0
M  V30 353 H 35.7481 3.47275 -6.02018 0
M  V30 354 H 38.9391 2.58572 -3.90203 0
M  V30 355 H 39.1121 3.36613 -5.53711 0
M  V30 356 N 32.5182 1.22032 0.997298 0
M  V30 357 C 33.9292 1.0397 1.55071 0
M  V30 358 C 34.2802 -0.398192 1.92117 0
M  V30 359 O 33.4052 -1.28254 1.74298 0
M  V30 360 C 34.0002 1.88109 2.81781 0
M  V30 361 C 32.5592 1.74357 3.33581 0
M  V30 362 C 31.7062 1.84846 2.06706 0
M  V30 363 H 34.6572 1.35941 0.818883 0
M  V30 364 H 34.6782 1.39589 3.53971 0
M  V30 365 H 34.1902 2.92754 2.54787 0
M  V30 366 H 32.2912 0.72427 3.65493 0
M  V30 367 H 32.4042 2.56772 4.04481 0
M  V30 368 H 30.7682 1.28238 2.20062 0
M  V30 369 H 31.5512 2.91014 1.82114 0
M  V30 370 N 33.9963 -1.19345 1.0293 0
M  V30 371 C 35.2443 -1.88665 0.724574 0
M  V30 372 C 35.5653 -1.80036 -0.749144 0
M  V30 373 O 34.8353 -1.2111 -1.53978 0
M  V30 374 H 33.4153 -0.698406 0.265025 0
M  V30 375 H 36.0773 -1.44885 1.30362 0
M  V30 376 H 35.1733 -2.94987 1.01926 0
M  V30 377 N 35.4744 -0.807222 -1.35358 0
M  V30 378 C 36.7224 -0.387122 -1.98358 0
M  V30 379 C 37.0434 1.04942 -1.64354 0
M  V30 380 O 36.3134 1.72615 -0.926339 0
M  V30 381 H 34.8934 -0.140154 -0.733734 0
M  V30 382 H 37.5554 -1.0332 -1.6526 0
M  V30 383 H 36.6514 -0.493352 -3.08176 0
M  V30 384 N 36.9525 1.47285 -0.560781 0
M  V30 385 C 37.8995 2.30058 0.18491 0
M  V30 386 C 38.8695 1.39281 0.904986 0
M  V30 387 O 40.0545 1.68241 0.899979 0
M  V30 388 C 37.1945 3.23317 1.20666 0
M  V30 389 C 36.3075 4.29186 0.492285 0
M  V30 390 C 35.4425 5.09592 1.49964 0
M  V30 391 C 34.4815 6.07232 0.770439 0
M  V30 392 N 33.6185 6.80584 1.72479 0
M  V30 393 H 38.4585 2.93302 -0.527048 0
M  V30 394 H 35.9955 1.44568 -0.271738 0
M  V30 395 H 37.9535 3.75811 1.81168 0
M  V30 396 H 36.5835 2.61929 1.88661 0
M  V30 397 H 35.6355 3.7972 -0.227333 0
M  V30 398 H 36.9475 4.98738 -0.0787929 0
M  V30 399 H 36.1015 5.66254 2.17809 0
M  V30 400 H 34.8405 4.3995 2.10464 0
M  V30 401 H 33.8455 5.49745 0.0780846 0
M  V30 402 H 35.0705 6.78884 0.171134 0
M  V30 403 H 33.0165 6.1367 2.3183 0
M  V30 404 H 32.9335 7.46319 1.20596 0
M  V30 405 H 34.2015 7.41818 2.39428 0
M  V30 406 N 38.4306 0.297415 1.54768 0
M  V30 407 C 39.3776 -0.580276 2.23386 0
M  V30 408 C 40.3476 -1.13238 1.21517 0
M  V30 409 O 41.5326 -1.17757 1.50126 0
M  V30 410 C 38.6726 -1.74801 2.97555 0
M  V30 411 C 37.7856 -1.22764 4.1419 0
M  V30 412 C 36.9206 -2.35895 4.75949 0
M  V30 413 C 35.9596 -1.80974 5.84735 0
M  V30 414 N 35.0966 -2.87664 6.40464 0
M  V30 415 H 39.9366 0.0114833 2.97998 0
M  V30 416 H 37.4736 0.0174361 1.4709 0
M  V30 417 H 39.4316 -2.43475 3.38786 0
M  V30 418 H 38.0616 -2.31145 2.25326 0
M  V30 419 H 37.1136 -0.433271 3.77924 0
M  V30 420 H 38.4256 -0.785551 4.92575 0
M  V30 421 H 37.5796 -3.12523 5.20014 0
M  V30 422 H 36.3186 -2.83429 3.96887 0
M  V30 423 H 35.3236 -1.02834 5.40097 0
M  V30 424 H 36.5486 -1.34348 6.65678 0
M  V30 425 H 34.4946 -3.34538 5.64287 0
M  V30 426 H 34.4116 -2.4794 7.14186 0
M  V30 427 H 35.6796 -3.642 6.89187 0
M  V30 428 N 39.9087 -1.5758 0.0250728 0
M  V30 429 C 40.8407 -2.06869 -0.986796 0
M  V30 430 C 41.8537 -0.991332 -1.29137 0
M  V30 431 O 43.0427 -1.26761 -1.25674 0
M  V30 432 C 40.1427 -2.47486 -2.31525 0
M  V30 433 C 39.3157 -3.78253 -2.19643 0
M  V30 434 C 38.3747 -4.05464 -3.35388 0
M  V30 435 O 37.4007 -4.75774 -3.12454 0
M  V30 436 N 38.6027 -3.55321 -4.59051 0
M  V30 437 H 41.3677 -2.94302 -0.566276 0
M  V30 438 H 38.9287 -1.6109 -0.161776 0
M  V30 439 H 40.9207 -2.62785 -3.07776 0
M  V30 440 H 39.4907 -1.65441 -2.65232 0
M  V30 441 H 38.7107 -3.7279 -1.28144 0
M  V30 442 H 39.9987 -4.63936 -2.08903 0
M  V30 443 H 39.3967 -2.98431 -4.80578 0
M  V30 444 H 37.9537 -3.75905 -5.32483 0
M  V30 445 N 41.3868 0.248026 -1.55636 0
M  V30 446 C 42.6168 0.992367 -1.81206 0
M  V30 447 C 43.0248 1.7949 -0.598324 0
M  V30 448 O 42.3678 1.78292 0.442434 0
M  V30 449 C 42.4298 1.97926 -3.00109 0
M  V30 450 C 42.0938 1.36377 -4.36177 0
M  V30 451 C 43.0908 0.76682 -5.14214 0
M  V30 452 C 40.7758 1.38347 -4.82872 0
M  V30 453 C 42.7698 0.197778 -6.37093 0
M  V30 454 C 40.4568 0.810574 -6.057 0
M  V30 455 C 41.4548 0.218754 -6.8265 0
M  V30 456 O 41.1428 -0.345298 -8.03158 0
M  V30 457 H 40.8748 0.297704 -0.606917 0
M  V30 458 H 43.4288 0.276517 -2.0353 0
M  V30 459 H 41.6588 2.73339 -2.73538 0
M  V30 460 H 43.3478 2.58694 -3.12781 0
M  V30 461 H 44.1138 0.744114 -4.79258 0
M  V30 462 H 39.9928 1.8335 -4.2297 0
M  V30 463 H 43.5368 -0.264788 -6.97097 0
M  V30 464 H 39.4338 0.830604 -6.40134 0
M  V30 465 H 40.2018 -0.237055 -8.18157 0
M  V30 466 N 42.8649 1.48995 0.513639 0
M  V30 467 C 43.8119 1.6473 1.61656 0
M  V30 468 C 44.7819 0.488984 1.58739 0
M  V30 469 O 45.9669 0.714478 1.76918 0
M  V30 470 C 43.1069 1.7082 2.99858 0
M  V30 471 C 42.2199 2.9787 3.12885 0
M  V30 472 C 41.3549 2.95017 4.41744 0
M  V30 473 C 40.3939 4.16702 4.48359 0
M  V30 474 N 39.5309 4.11832 5.68629 0
M  V30 475 H 44.3709 2.58909 1.47547 0
M  V30 476 H 41.9079 1.28382 0.71808 0
M  V30 477 H 43.8659 1.72331 3.79944 0
M  V30 478 H 42.4959 0.801181 3.12699 0
M  V30 479 H 41.5479 3.06029 2.25944 0
M  V30 480 H 42.8599 3.8786 3.13633 0
M  V30 481 H 42.0139 2.95021 5.30139 0
M  V30 482 H 40.7529 2.02784 4.43542 0
M  V30 483 H 39.7579 4.16955 3.58369 0
M  V30 484 H 40.9829 5.10113 4.48287 0
M  V30 485 H 38.9289 3.22428 5.71293 0
M  V30 486 H 38.8459 4.95543 5.7094 0
M  V30 487 H 40.1139 4.1592 6.59266 0
M  V30 488 N 44.343 -0.763751 1.37857 0
M  V30 489 C 45.273 -1.89103 1.36975 0
M  V30 490 C 46.254 -1.68439 0.237152 0
M  V30 491 O 47.439 -1.8918 0.438713 0
M  V30 492 C 44.569 -3.26496 1.18395 0
M  V30 493 C 43.523 -3.61741 2.28751 0
M  V30 494 C 42.849 -4.97762 1.95286 0
M  V30 495 C 44.149 -3.67665 3.70972 0
M  V30 496 H 45.843 -1.90099 2.31307 0
M  V30 497 H 43.389 -0.91319 1.11341 0
M  V30 498 H 45.342 -4.05003 1.16406 0
M  V30 499 H 44.066 -3.25955 0.205215 0
M  V30 500 H 42.725 -2.85547 2.29909 0
M  V30 501 H 42.373 -4.93769 0.959221 0
M  V30 502 H 42.073 -5.22313 2.69189 0
M  V30 503 H 43.597 -5.7866 1.94898 0
M  V30 504 H 45.011 -4.36307 3.719 0
M  V30 505 H 43.408 -4.03718 4.43995 0
M  V30 506 H 44.478 -2.68134 4.0402 0
M  V30 507 N 45.8211 -1.22559 -0.990812 0
M  V30 508 C 46.7681 -0.997519 -2.0813 0
M  V30 509 C 47.7381 0.0814702 -1.659 0
M  V30 510 O 48.9231 -0.0685424 -1.90677 0
M  V30 511 C 46.0631 -0.583615 -3.40129 0
M  V30 512 C 45.1761 -1.7336 -3.9569 0
M  V30 513 C 44.3111 -1.26748 -5.15857 0
M  V30 514 C 43.3501 -2.38888 -5.63559 0
M  V30 515 N 42.4871 -1.93308 -6.74964 0
M  V30 516 H 47.3271 -1.93099 -2.26973 0
M  V30 517 H 44.8641 -0.962114 -1.11273 0
M  V30 518 H 46.8221 -0.324801 -4.15934 0
M  V30 519 H 45.4521 0.312845 -3.2128 0
M  V30 520 H 44.5041 -2.10669 -3.16738 0
M  V30 521 H 45.8161 -2.57704 -4.27071 0
M  V30 522 H 44.9701 -0.966173 -5.98957 0
M  V30 523 H 43.7091 -0.394272 -4.86104 0
M  V30 524 H 42.7141 -2.69805 -4.79046 0
M  V30 525 H 43.9391 -3.26728 -5.95336 0
M  V30 526 H 41.8851 -1.08352 -6.4699 0
M  V30 527 H 41.8021 -2.71217 -7.05675 0
M  V30 528 H 43.0701 -1.66252 -7.61564 0
M  V30 529 N 47.2992 1.18797 -1.03562 0
M  V30 530 C 48.2492 2.20161 -0.592724 0
M  V30 531 C 49.2332 1.56772 0.362133 0
M  V30 532 O 50.4252 1.76062 0.182009 0
M  V30 533 C 47.5542 3.43266 0.0481024 0
M  V30 534 C 46.6402 4.13786 -0.9296 0
M  V30 535 N 47.0312 4.60388 -2.09467 0
M  V30 536 C 45.3292 4.39572 -0.754499 0
M  V30 537 C 46.0302 5.14619 -2.71187 0
M  V30 538 N 45.0062 5.05826 -1.991 0
M  V30 539 H 48.8082 2.53877 -1.48066 0
M  V30 540 H 46.3222 1.34946 -0.903514 0
M  V30 541 H 48.3192 4.15136 0.383058 0
M  V30 542 H 46.9792 3.11048 0.931636 0
M  V30 543 H 47.9902 4.54999 -2.47379 0
M  V30 544 H 44.6672 4.17425 0.0793713 0
M  V30 545 H 46.0572 5.60917 -3.69895 0
M  V30 546 N 48.7773 0.814389 1.34928 0
M  V30 547 C 50.0263 0.394871 1.97797 0
M  V30 548 C 50.3393 -1.04555 1.65311 0
M  V30 549 O 51.5453 -1.56856 2.21604 0
M  V30 550 C 50.0013 0.655103 3.53888 0
M  V30 551 C 49.6093 2.10858 3.95276 0
M  V30 552 C 51.3533 0.301329 4.23429 0
M  V30 553 C 49.2603 2.31415 5.44244 0
M  V30 554 H 48.1903 0.143913 0.740139 0
M  V30 555 H 50.8413 0.999544 1.53888 0
M  V30 556 H 49.2233 -0.0196253 3.95995 0
M  V30 557 H 50.3973 2.82176 3.64298 0
M  V30 558 H 48.7123 2.42297 3.38646 0
M  V30 559 H 51.3093 0.432869 5.32945 0
M  V30 560 H 51.6523 -0.75331 4.09428 0
M  V30 561 H 52.1853 0.930288 3.86769 0
M  V30 562 H 48.9243 3.35353 5.63222 0
M  V30 563 H 48.4443 1.6463 5.76764 0
M  V30 564 H 50.1233 2.13352 6.10811 0
M  V30 565 N 50.2554 -1.46986 0.568584 0
M  V30 566 C 51.5014 -2.02741 0.0488709 0
M  V30 567 C 51.8344 -1.44077 -1.30214 0
M  V30 568 O 51.1094 -0.600552 -1.84996 0
M  V30 569 C 51.3924 -3.60086 -0.032047 0
M  V30 570 C 51.2454 -4.29162 1.34686 0
M  V30 571 C 52.5644 -4.33838 -0.739798 0
M  V30 572 H 49.6834 -0.736749 0.0192338 0
M  V30 573 H 52.3254 -1.75289 0.733065 0
M  V30 574 H 50.4754 -3.83606 -0.61473 0
M  V30 575 H 52.1474 -4.16948 1.97362 0
M  V30 576 H 50.3904 -3.89073 1.91846 0
M  V30 577 H 51.0614 -5.37826 1.24285 0
M  V30 578 H 53.5374 -4.15378 -0.244939 0
M  V30 579 H 52.4134 -5.43537 -0.765406 0
M  V30 580 H 52.6744 -4.03875 -1.79827 0
M  V30 581 N 51.7335 -0.305618 -1.54608 0
M  V30 582 C 52.9795 0.295595 -2.01241 0
M  V30 583 C 53.3345 1.51171 -1.19018 0
M  V30 584 O 52.6275 1.89832 -0.259684 0
M  V30 585 C 52.8215 0.698983 -3.50498 0
M  V30 586 C 52.6505 -0.476491 -4.47168 0
M  V30 587 C 51.4205 -0.969963 -4.95903 0
M  V30 588 C 53.6185 -1.32294 -4.96994 0
M  V30 589 N 51.6005 -2.11172 -5.76437 0
M  V30 590 C 52.9715 -2.31212 -5.75275 0
M  V30 591 C 55.0265 -1.35278 -4.7917 0
M  V30 592 C 53.7295 -3.32896 -6.37631 0
M  V30 593 C 55.7555 -2.35823 -5.42348 0
M  V30 594 C 55.1175 -3.33469 -6.20466 0
M  V30 595 H 51.2165 0.0724992 -0.778632 0
M  V30 596 H 53.8005 -0.436583 -1.89742 0
M  V30 597 H 51.9715 1.40032 -3.62278 0
M  V30 598 H 53.7035 1.28013 -3.8392 0
M  V30 599 H 50.4585 -0.544178 -4.70463 0
M  V30 600 H 50.8825 -2.68714 -6.21387 0
M  V30 601 H 55.5245 -0.61157 -4.18354 0
M  V30 602 H 53.2425 -4.07933 -6.97579 0
M  V30 603 H 56.8285 -2.38911 -5.30484 0
M  V30 604 H 55.7085 -4.09996 -6.68485 0
M  V30 605 N 53.2116 1.57565 -0.0334293 0
M  V30 606 C 54.1746 2.09393 0.932048 0
M  V30 607 C 55.1746 1.00986 1.25134 0
M  V30 608 O 56.3646 1.27129 1.19096 0
M  V30 609 C 53.4966 2.56338 2.2473 0
M  V30 610 H 54.6896 2.95984 0.483085 0
M  V30 611 H 52.2426 1.54819 0.21468 0
M  V30 612 H 52.9776 1.7309 2.74245 0
M  V30 613 H 52.7626 3.35542 2.02865 0
M  V30 614 H 54.2526 2.96646 2.93923 0
M  V30 615 N 54.6897 -0.239769 1.55765 0
M  V30 616 C 55.9147 -0.988373 1.82335 0
M  V30 617 C 56.3397 -1.77886 0.611421 0
M  V30 618 O 55.6977 -1.75889 -0.439639 0
M  V30 619 C 55.7457 -1.89627 3.06715 0
M  V30 620 O 54.8497 -2.98904 2.84131 0
M  V30 621 H 54.1907 -0.280858 0.601677 0
M  V30 622 H 56.7207 -0.258597 2.02959 0
M  V30 623 H 56.7307 -2.30957 3.36338 0
M  V30 624 H 55.4057 -1.31511 3.9456 0
M  V30 625 H 53.9827 -2.61651 2.65694 0
M  V30 626 N 56.1678 -1.49265 -0.50573 0
M  V30 627 C 57.5838 -1.35923 -0.836486 0
M  V30 628 C 57.7838 -0.388704 -1.97715 0
M  V30 629 O 56.8398 0.181336 -2.51848 0
M  V30 630 C 58.1528 -2.76531 -1.18115 0
M  V30 631 C 59.7008 -2.85197 -1.28964 0
M  V30 632 C 60.1758 -4.26561 -1.66761 0
M  V30 633 N 61.6668 -4.2935 -1.73819 0
M  V30 634 C 62.4018 -5.35693 -2.045 0
M  V30 635 N 61.8978 -6.52287 -2.33438 0
M  V30 636 N 63.6908 -5.23105 -2.05711 0
M  V30 637 H 55.8418 -2.10965 0.246519 0
M  V30 638 H 58.1048 -0.9468 0.0476887 0
M  V30 639 H 57.8108 -3.49226 -0.416398 0
M  V30 640 H 57.6848 -3.11599 -2.1257 0
M  V30 641 H 60.0718 -2.12742 -2.04511 0
M  V30 642 H 60.1528 -2.53718 -0.325704 0
M  V30 643 H 59.7968 -4.99541 -0.917656 0
M  V30 644 H 59.7268 -4.55502 -2.64246 0
M  V30 645 H 62.2178 -3.4526 -1.53635 0
M  V30 646 H 62.5308 -7.29158 -2.56024 0
M  V30 647 H 60.8758 -6.55521 -2.30905 0
M  V30 648 H 64.0668 -4.31026 -1.82577 0
M  V30 649 H 64.2398 -6.06078 -2.29289 0
M  V30 650 N 57.6459 0.756429 -1.3826 0
M  V30 651 C 58.5559 1.9009 -1.37488 0
M  V30 652 C 59.5719 1.71855 -0.272366 0
M  V30 653 O 60.7479 1.94827 -0.510318 0
M  V30 654 C 57.8129 3.25421 -1.19592 0
M  V30 655 C 56.8739 3.56202 -2.39622 0
M  V30 656 C 56.1069 4.85075 -2.2257 0
M  V30 657 O 56.3299 5.57246 -1.21793 0
M  V30 658 O 55.2639 5.15269 -3.11098 0
M  V30 659 H 59.0899 1.93695 -2.33914 0
M  V30 660 H 56.6749 0.901313 -1.1915 0
M  V30 661 H 58.5569 4.06337 -1.11661 0
M  V30 662 H 57.2319 3.22634 -0.262486 0
M  V30 663 H 56.1389 2.75458 -2.53128 0
M  V30 664 H 57.4719 3.63747 -3.31586 0
M  V30 665 N 59.124 1.23083 0.984299 0
M  V30 666 C 60.054 1.03292 2.09411 0
M  V30 667 C 61.035 -0.048923 1.7003 0
M  V30 668 O 62.22 0.114967 1.93859 0
M  V30 669 C 59.35 0.619155 3.41736 0
M  V30 670 C 58.304 1.64791 3.95004 0
M  V30 671 C 57.63 1.0897 5.23478 0
M  V30 672 C 58.93 3.03999 4.24714 0
M  V30 673 H 60.624 1.96119 2.26225 0
M  V30 674 H 58.17 0.944344 1.08711 0
M  V30 675 H 60.123 0.467777 4.18796 0
M  V30 676 H 58.847 -0.344786 3.24775 0
M  V30 677 H 57.506 1.78721 3.20085 0
M  V30 678 H 57.154 0.11686 5.02864 0
M  V30 679 H 56.854 1.77704 5.60085 0
M  V30 680 H 58.378 0.950093 6.03163 0
M  V30 681 H 59.792 2.93393 4.92538 0
M  V30 682 H 58.189 3.69936 4.72512 0
M  V30 683 H 59.259 3.53285 3.32142 0
M  V30 684 N 60.6021 -1.18246 1.0419 0
M  V30 685 C 61.5121 -2.25574 0.644476 0
M  V30 686 C 62.5281 -1.70845 -0.329826 0
M  V30 687 O 63.7041 -2.00554 -0.184443 0
M  V30 688 C 60.7691 -3.46697 0.014877 0
M  V30 689 C 59.8301 -4.16554 1.03834 0
M  V30 690 C 59.0631 -5.31894 0.438692 0
M  V30 691 O 59.2861 -5.65385 -0.754752 0
M  V30 692 O 58.2201 -5.90459 1.168 0
M  V30 693 H 62.0461 -2.61836 1.53869 0
M  V30 694 H 59.6311 -1.25352 0.812854 0
M  V30 695 H 61.5131 -4.20062 -0.335538 0
M  V30 696 H 60.1881 -3.12255 -0.853138 0
M  V30 697 H 59.0951 -3.45251 1.44057 0
M  V30 698 H 60.4281 -4.54998 1.87716 0
M  V30 699 N 62.0802 -0.821533 -1.34494 0
M  V30 700 C 63.4962 -0.507117 -1.51329 0
M  V30 701 C 63.6962 0.968964 -1.76673 0
M  V30 702 O 62.7522 1.75348 -1.81685 0
M  V30 703 C 64.0652 -1.36544 -2.67911 0
M  V30 704 C 65.6132 -1.36242 -2.81793 0
M  V30 705 C 66.0882 -2.2052 -4.01416 0
M  V30 706 N 67.5792 -2.18136 -4.08621 0
M  V30 707 C 68.3142 -2.80095 -5.00334 0
M  V30 708 N 67.8102 -3.51039 -5.9728 0
M  V30 709 N 69.6032 -2.69656 -4.93196 0
M  V30 710 H 61.7542 -1.77729 -1.16302 0
M  V30 711 H 64.0172 -0.757291 -0.570276 0
M  V30 712 H 63.7232 -2.41361 -2.55808 0
M  V30 713 H 63.5972 -1.02917 -3.62888 0
M  V30 714 H 65.9842 -0.322041 -2.93338 0
M  V30 715 H 66.0652 -1.73866 -1.87628 0
M  V30 716 H 65.7092 -3.24607 -3.90631 0
M  V30 717 H 65.6392 -1.80247 -4.94791 0
M  V30 718 H 68.1302 -1.6653 -3.39229 0
M  V30 719 H 68.4432 -3.95565 -6.63889 0
M  V30 720 H 66.7882 -3.55145 -5.97409 0
M  V30 721 H 69.9792 -2.13808 -4.16418 0
M  V30 722 H 70.1522 -3.1823 -5.64476 0
M  V30 723 N 63.5583 1.46682 -0.576371 0
M  V30 724 C 64.8053 2.02412 -0.0595339 0
M  V30 725 C 65.1333 1.44859 1.29793 0
M  V30 726 O 64.3883 0.601099 1.8624 0
M  V30 727 C 64.6873 3.57345 0.062886 0
M  V30 728 C 64.3533 4.33908 -1.22616 0
M  V30 729 C 63.0153 4.54544 -1.57933 0
M  V30 730 C 65.3673 4.77919 -2.07948 0
M  V30 731 C 62.6953 5.16444 -2.78393 0
M  V30 732 C 65.0473 5.41149 -3.27629 0
M  V30 733 C 63.7113 5.60014 -3.63236 0
M  V30 734 H 62.9813 0.74068 -0.021785 0
M  V30 735 H 65.6283 1.76128 -0.751735 0
M  V30 736 H 63.9333 3.82729 0.838178 0
M  V30 737 H 65.6303 3.98136 0.478439 0
M  V30 738 H 62.2203 4.18138 -0.941202 0
M  V30 739 H 66.4043 4.61738 -1.81967 0
M  V30 740 H 61.6603 5.29242 -3.06126 0
M  V30 741 H 65.8343 5.74211 -3.94023 0
M  V30 742 H 63.4613 6.07748 -4.56669 0
M  V30 743 N 65.0364 0.313813 1.54444 0
M  V30 744 C 65.9994 -0.54379 2.22656 0
M  V30 745 C 66.9994 -1.05124 1.21678 0
M  V30 746 O 68.1894 -0.945225 1.46325 0
M  V30 747 C 65.3214 -1.75427 2.92298 0
M  V30 748 H 66.5144 0.0523599 2.99854 0
M  V30 749 H 64.0674 0.0647834 1.56166 0
M  V30 750 H 64.8024 -2.38991 2.19211 0
M  V30 751 H 64.5874 -1.39791 3.66334 0
M  V30 752 H 66.0774 -2.36325 3.44297 0
M  V30 753 N 66.5145 -1.57545 0.0417849 0
M  V30 754 C 67.7605 -1.92601 -0.635021 0
M  V30 755 C 68.0935 -0.919627 -1.71045 0
M  V30 756 O 67.3685 0.0557892 -1.9442 0
M  V30 757 C 67.6515 -3.38085 -1.23979 0
M  V30 758 C 67.5045 -4.49467 -0.173057 0
M  V30 759 C 68.8235 -3.83776 -2.15416 0
M  V30 760 H 65.9425 -0.700397 -0.229374 0
M  V30 761 H 68.5845 -1.89728 0.101633 0
M  V30 762 H 66.7345 -3.40664 -1.86762 0
M  V30 763 H 68.4065 -4.59018 0.458312 0
M  V30 764 H 66.6495 -4.30909 0.499996 0
M  V30 765 H 67.3205 -5.48323 -0.636054 0
M  V30 766 H 69.7965 -3.83013 -1.62605 0
M  V30 767 H 68.6725 -4.8624 -2.54679 0
M  V30 768 H 68.9335 -3.19998 -3.05047 0
M  V30 769 N 67.9926 0.231505 -1.5589 0
M  V30 770 C 68.9406 1.30649 -1.92441 0
M  V30 771 C 69.9346 1.49037 -0.805254 0
M  V30 772 O 71.1406 1.50329 -0.990007 0
M  V30 773 H 67.5156 0.437812 -0.611412 0
M  V30 774 H 69.4866 0.970973 -2.82161 0
M  V30 775 C 68.2356 2.65179 -2.24889 0
M  V30 776 H 67.5586 2.51835 -3.10514 0
M  V30 777 H 68.9986 3.39234 -2.54355 0
M  V30 778 C 67.4576 3.19439 -1.07054 0
M  V30 779 O 67.9876 4.00371 -0.326499 0
M  V30 780 N 66.1936 2.77675 -0.85703 0
M  V30 781 H 65.7406 2.11969 -1.46379 0
M  V30 782 H 65.6986 3.14321 -0.0703223 0
M  V30 783 N 69.4707 1.49531 0.497807 0
M  V30 784 C 70.8817 1.52344 1.07927 0
M  V30 785 C 71.2327 0.311469 1.93712 0
M  V30 786 O 70.3577 -0.578405 2.08527 0
M  V30 787 C 70.9527 2.76062 1.96405 0
M  V30 788 C 69.5117 2.81643 2.49709 0
M  V30 789 C 68.6587 2.46299 1.27404 0
M  V30 790 H 71.6097 1.56182 0.281576 0
M  V30 791 H 71.6307 2.56405 2.81135 0
M  V30 792 H 71.1427 3.64254 1.33943 0
M  V30 793 H 69.2437 1.97739 3.15801 0
M  V30 794 H 69.3567 3.83891 2.86643 0
M  V30 795 H 67.7207 1.98148 1.60029 0
M  V30 796 H 68.5037 3.36769 0.66645 0
M  V30 797 N 70.9488 -0.749086 1.3866 0
M  V30 798 C 72.1968 -1.50535 1.34847 0
M  V30 799 C 72.5178 -1.94909 -0.0595016 0
M  V30 800 O 71.7878 -1.67973 -1.00806 0
M  V30 801 H 70.3678 -0.558395 0.49619 0
M  V30 802 H 73.0298 -0.890165 1.73384 0
M  V30 803 H 72.1258 -2.39413 2.00219 0
M  V30 804 N 72.4269 -1.23603 -0.977757 0
M  V30 805 C 73.3569 -1.04401 -2.0886 0
M  V30 806 C 74.3379 0.0399052 -1.70053 0
M  V30 807 O 75.5229 -0.125246 -1.93796 0
M  V30 808 C 72.6529 -0.637269 -3.41403 0
M  V30 809 C 71.6069 -1.66883 -3.94124 0
M  V30 810 C 70.9329 -1.11745 -5.22893 0
M  V30 811 C 72.2329 -3.06247 -4.23096 0
M  V30 812 H 73.9269 -1.97316 -2.25182 0
M  V30 813 H 71.4729 -0.950096 -1.08209 0
M  V30 814 H 73.4259 -0.48998 -4.18542 0
M  V30 815 H 72.1499 0.327557 -3.24953 0
M  V30 816 H 70.8089 -1.80416 -3.19133 0
M  V30 817 H 70.4569 -0.143527 -5.02795 0
M  V30 818 H 70.1569 -1.80672 -5.59134 0
M  V30 819 H 71.6809 -0.982067 -6.02651 0
M  V30 820 H 73.0949 -2.96001 -4.90975 0
M  V30 821 H 71.4919 -3.72436 -4.70544 0
M  V30 822 H 72.5619 -3.55041 -3.30263 0
M  V30 823 N 73.905 1.17692 -1.04816 0
M  V30 824 C 74.835 2.23777 -0.666791 0
M  V30 825 C 75.816 1.66796 0.33361 0
M  V30 826 O 77.001 1.93039 0.212042 0
M  V30 827 C 74.131 3.47281 -0.0367933 0
M  V30 828 C 73.085 4.17059 -0.961546 0
M  V30 829 C 72.411 5.34342 -0.195626 0
M  V30 830 C 73.711 4.69713 -2.28402 0
M  V30 831 H 75.405 2.55933 -1.55367 0
M  V30 832 H 72.951 1.23019 -0.748484 0
M  V30 833 H 74.904 4.20706 0.241775 0
M  V30 834 H 73.628 3.14381 0.885004 0
M  V30 835 H 72.287 3.45541 -1.22462 0
M  V30 836 H 71.935 4.97692 0.728816 0
M  V30 837 H 71.635 5.81966 -0.811775 0
M  V30 838 H 73.159 6.10553 0.0757473 0
M  V30 839 H 74.573 5.34794 -2.06563 0
M  V30 840 H 72.97 5.279 -2.8538 0
M  V30 841 H 74.04 3.86726 -2.92525 0
M  V30 842 N 75.3831 0.828654 1.34056 0
M  V30 843 C 76.2931 0.256725 2.33191 0
M  V30 844 C 77.3091 -0.611898 1.62886 0
M  V30 845 O 78.4851 -0.51844 1.94613 0
M  V30 846 C 75.5501 -0.567238 3.42028 0
M  V30 847 C 74.6111 0.324458 4.28072 0
M  V30 848 C 73.8441 -0.460274 5.31712 0
M  V30 849 O 74.0671 -1.693 5.44696 0
M  V30 850 O 73.0011 0.160391 6.01686 0
M  V30 851 H 76.8271 1.07739 2.83947 0
M  V30 852 H 74.4121 0.59093 1.37217 0
M  V30 853 H 76.2941 -1.03582 4.08471 0
M  V30 854 H 74.9691 -1.36513 2.93506 0
M  V30 855 H 73.8761 0.840659 3.64532 0
M  V30 856 H 75.2091 1.08685 4.8005 0
M  V30 857 N 76.8612 -1.46375 0.584142 0
M  V30 858 C 78.0892 -2.06761 0.0759296 0
M  V30 859 C 78.5042 -1.43266 -1.22965 0
M  V30 860 O 77.8612 -0.538458 -1.74376 0
M  V30 861 C 77.9122 -3.61375 -0.0950384 0
M  V30 862 O 77.6332 -4.22495 1.15887 0
M  V30 863 C 79.1342 -4.38693 -0.637434 0
M  V30 864 H 76.3542 -0.668479 0.0581075 0
M  V30 865 H 78.8982 -1.8798 0.805218 0
M  V30 866 H 77.0532 -3.79578 -0.774554 0
M  V30 867 H 77.4672 -5.15385 0.973598 0
M  V30 868 H 78.9412 -5.47464 -0.706237 0
M  V30 869 H 79.4182 -4.06836 -1.65472 0
M  V30 870 H 80.0242 -4.25299 0.00725967 0
M  V30 871 N 78.3393 -0.321999 -1.54275 0
M  V30 872 C 79.5643 0.285791 -2.05422 0
M  V30 873 C 79.9893 1.45124 -1.19669 0
M  V30 874 O 79.3473 1.80132 -0.205441 0
M  V30 875 C 79.3953 0.69956 -3.53749 0
M  V30 876 O 78.4993 1.8021 -3.70942 0
M  V30 877 H 77.8403 0.0518962 -0.661969 0
M  V30 878 H 80.3703 -0.469954 -1.9913 0
M  V30 879 H 80.3803 0.982649 -3.9599 0
M  V30 880 H 79.0553 -0.152864 -4.15619 0
M  V30 881 H 77.6323 1.51794 -3.40607 0
M  V30 882 N 79.8174 1.5752 -0.0501392 0
M  V30 883 C 80.7274 2.14952 0.939827 0
M  V30 884 C 81.7434 1.10706 1.34239 0
M  V30 885 O 82.9194 1.42869 1.41952 0
M  V30 886 C 79.9844 2.68232 2.19665 0
M  V30 887 C 79.0454 3.87272 1.85253 0
M  V30 888 C 78.2784 4.38002 3.04943 0
M  V30 889 O 78.5014 3.87811 4.18281 0
M  V30 890 O 77.4354 5.29602 2.86017 0
M  V30 891 H 81.2614 2.9986 0.481392 0
M  V30 892 H 78.8464 1.4841 0.171699 0
M  V30 893 H 80.7284 3.02475 2.93406 0
M  V30 894 H 79.4034 1.86395 2.64648 0
M  V30 895 H 78.3104 3.5792 1.0883 0
M  V30 896 H 79.6434 4.70336 1.4507 0
M  V30 897 N 81.2955 -0.223234 1.56011 0
M  V30 898 C 82.5435 -0.946003 1.78592 0
M  V30 899 C 82.8645 -1.84936 0.618349 0
M  V30 900 O 82.1345 -1.92473 -0.364833 0
M  V30 901 H 80.7145 -0.352298 0.658707 0
M  V30 902 H 83.3765 -0.235494 1.93472 0
M  V30 903 H 82.4725 -1.55381 2.70672 0
M  V30 904 N 82.7736 -1.49793 -0.48987 0
M  V30 905 C 84.0136 -1.61466 -1.25332 0
M  V30 906 C 84.3776 -0.299688 -1.89647 0
M  V30 907 O 85.5786 -0.291687 -2.67213 0
M  V30 908 C 83.8496 -2.74944 -2.28343 0
M  V30 909 S 85.4086 -3.06637 -3.13878 0
M  V30 910 H 82.2266 -0.569411 -0.425784 0
M  V30 911 H 84.8286 -1.875 -0.553541 0
M  V30 912 H 83.5326 -3.68994 -1.79643 0
M  V30 913 H 83.0636 -2.50938 -3.02975 0
M  V30 914 H 85.0786 -2.49015 -4.29192 0
M  V30 915 N 84.2517 0.741722 -1.39055 0
M  V30 916 C 85.6677 1.04638 -1.20512 0
M  V30 917 C 85.8677 2.01405 -0.0620218 0
M  V30 918 O 84.9237 2.45547 0.588457 0
M  V30 919 C 86.2367 1.6151 -2.53643 0
M  V30 920 C 87.7847 1.73623 -2.6043 0
M  V30 921 C 88.2597 2.33906 -3.93767 0
M  V30 922 N 89.7507 2.41323 -3.9537 0
M  V30 923 C 90.4857 2.88888 -4.95309 0
M  V30 924 N 89.9817 3.36401 -6.05645 0
M  V30 925 N 91.7747 2.88037 -4.82692 0
M  V30 926 H 83.9257 0.0998155 -2.12165 0
M  V30 927 H 86.1887 0.106907 -0.941953 0
M  V30 928 H 85.8947 0.978739 -3.37807 0
M  V30 929 H 85.7687 2.60411 -2.72885 0
M  V30 930 H 88.1557 2.36384 -1.76655 0
M  V30 931 H 88.2367 0.733945 -2.45045 0
M  V30 932 H 87.8807 1.71776 -4.7797 0
M  V30 933 H 87.8107 3.34799 -4.06469 0
M  V30 934 H 90.3017 2.07734 -3.15682 0
M  V30 935 H 90.6147 3.71186 -6.77821 0
M  V30 936 H 88.9597 3.34427 -6.09248 0
M  V30 937 H 92.1507 2.50237 -3.95599 0
M  V30 938 H 92.3237 3.24792 -5.60726 0
M  V30 939 N 85.7298 1.2412 0.971189 0
M  V30 940 C 86.6618 0.988349 2.06795 0
M  V30 941 C 87.6748 -0.0409541 1.62748 0
M  V30 942 O 88.8638 0.195673 1.77424 0
M  V30 943 C 85.9638 0.469023 3.35639 0
M  V30 944 C 85.1368 1.56065 4.08611 0
M  V30 945 C 84.1958 1.04458 5.15728 0
M  V30 946 O 83.2218 1.73553 5.42096 0
M  V30 947 N 84.4238 -0.122817 5.8037 0
M  V30 948 H 87.1888 1.93265 2.29061 0
M  V30 949 H 84.7498 1.15102 1.13856 0
M  V30 950 H 86.7418 0.108613 4.04554 0
M  V30 951 H 85.3118 -0.380919 3.1027 0
M  V30 952 H 84.5318 2.09341 3.34021 0
M  V30 953 H 85.8198 2.29449 4.54126 0
M  V30 954 H 85.2178 -0.700563 5.61345 0
M  V30 955 H 83.7748 -0.424404 6.50417 0
M  V30 956 N 87.2079 -1.17134 1.05439 0
M  V30 957 C 88.4569 -1.86791 0.761049 0
M  V30 958 C 88.7699 -1.82072 -0.714795 0
M  V30 959 O 89.9759 -2.47223 -1.12218 0
M  V30 960 C 88.4319 -3.35166 1.31117 0
M  V30 961 C 88.0399 -3.48381 2.81664 0
M  V30 962 C 89.7839 -4.10134 1.09499 0
M  V30 963 C 87.6909 -4.90793 3.29964 0
M  V30 964 H 86.6209 -0.699681 0.281002 0
M  V30 965 H 89.2719 -1.3226 1.27199 0
M  V30 966 H 87.6539 -3.8925 0.72803 0
M  V30 967 H 88.8279 -3.04502 3.45855 0
M  V30 968 H 87.1429 -2.86836 3.01851 0
M  V30 969 H 89.7399 -5.152 1.43084 0
M  V30 970 H 90.0829 -4.16287 0.0328772 0
M  V30 971 H 90.6159 -3.62264 1.64346 0
M  V30 972 H 87.3549 -4.89816 4.35616 0
M  V30 973 H 86.8749 -5.35333 2.70516 0
M  V30 974 H 88.5539 -5.59573 3.24787 0
M  V30 975 N 88.686 -0.835752 -1.33615 0
M  V30 976 C 89.616 -0.281739 -2.31794 0
M  V30 977 C 90.597 0.608833 -1.58831 0
M  V30 978 O 91.782 0.533035 -1.86741 0
M  V30 979 C 88.912 0.546612 -3.42971 0
M  V30 980 C 87.866 -0.247904 -4.27281 0
M  V30 981 C 87.192 0.704001 -5.30045 0
M  V30 982 C 88.492 -1.46324 -5.01385 0
M  V30 983 H 90.186 -1.10206 -2.78379 0
M  V30 984 H 87.732 -0.531388 -1.33837 0
M  V30 985 H 89.685 0.944467 -4.1068 0
M  V30 986 H 88.409 1.40011 -2.95067 0
M  V30 987 H 87.068 -0.627281 -3.61194 0
M  V30 988 H 86.716 1.55381 -4.78399 0
M  V30 989 H 86.416 0.176524 -5.87335 0
M  V30 990 H 87.94 1.09944 -6.0062 0
M  V30 991 H 89.354 -1.13871 -5.61877 0
M  V30 992 H 87.751 -1.92728 -5.6831 0
M  V30 993 H 88.821 -2.23467 -4.30338 0
M  V30 994 N 90.1641 1.46063 -0.591896 0
M  V30 995 C 91.4121 2.01938 -0.0808391 0
M  V30 996 C 91.7331 1.46475 1.28725 0
M  V30 997 O 91.0031 0.652944 1.84698 0
M  V30 998 H 89.5831 0.746516 -0.0268938 0
M  V30 999 H 92.2451 1.79055 -0.769752 0
M  V30 1000 H 91.3411 3.12094 -0.0187578 0
M  V30 1001 N 91.6422 0.330177 1.54103 0
M  V30 1002 C 92.5742 -0.566902 2.22079 0
M  V30 1003 C 93.5872 -1.07462 1.22294 0
M  V30 1004 O 94.7762 -0.987065 1.48726 0
M  V30 1005 C 91.8762 -1.79138 2.87685 0
M  V30 1006 C 91.0492 -1.42123 4.13666 0
M  V30 1007 C 90.1082 -2.50394 4.62806 0
M  V30 1008 O 89.1342 -2.14261 5.27334 0
M  V30 1009 N 90.3362 -3.81433 4.37595 0
M  V30 1010 H 93.1012 0.0151844 2.99696 0
M  V30 1011 H 90.6622 0.153681 1.61169 0
M  V30 1012 H 92.6542 -2.50975 3.1748 0
M  V30 1013 H 91.2242 -2.28115 2.13734 0
M  V30 1014 H 90.4442 -0.534201 3.90564 0
M  V30 1015 H 91.7322 -1.14971 4.9564 0
M  V30 1016 H 91.1302 -4.13584 3.8596 0
M  V30 1017 H 89.6872 -4.4948 4.72029 0
M  V30 1018 N 93.1203 -1.57491 0.0584922 0
M  V30 1019 C 94.0503 -2.14988 -0.911178 0
M  V30 1020 C 95.0313 -1.07343 -1.31952 0
M  V30 1021 O 96.2163 -1.35318 -1.39294 0
M  V30 1022 C 93.3463 -2.70078 -2.18347 0
M  V30 1023 C 92.3003 -3.82771 -1.91495 0
M  V30 1024 C 91.6263 -4.24408 -3.25241 0
M  V30 1025 C 92.9263 -5.07592 -1.23075 0
M  V30 1026 H 94.6203 -2.96263 -0.432246 0
M  V30 1027 H 92.1663 -1.42512 -0.206469 0
M  V30 1028 H 94.1193 -3.08943 -2.86587 0
M  V30 1029 H 92.8433 -1.86005 -2.68458 0
M  V30 1030 H 91.5023 -3.44389 -1.25664 0
M  V30 1031 H 91.1503 -3.37275 -3.73168 0
M  V30 1032 H 90.8503 -5.00366 -3.08071 0
M  V30 1033 H 92.3743 -4.65879 -3.94701 0
M  V30 1034 H 93.7883 -5.43857 -1.81362 0
M  V30 1035 H 92.1853 -5.88741 -1.16207 0
M  V30 1036 H 93.2553 -4.84454 -0.207847 0
M  V30 1037 N 94.5984 0.214957 -1.56127 0
M  V30 1038 C 95.5304 1.29004 -1.89448 0
M  V30 1039 C 96.5434 1.42716 -0.783326 0
M  V30 1040 O 97.7324 1.43496 -1.06166 0
M  V30 1041 C 94.8324 2.66482 -2.09381 0
M  V30 1042 C 94.0054 2.74633 -3.40434 0
M  V30 1043 C 93.0644 3.9317 -3.49719 0
M  V30 1044 O 92.0904 3.812 -4.227 0
M  V30 1045 N 93.2924 5.07765 -2.81346 0
M  V30 1046 H 96.0574 1.00743 -2.82261 0
M  V30 1047 H 93.6184 0.40497 -1.56753 0
M  V30 1048 H 95.6104 3.44173 -2.12901 0
M  V30 1049 H 94.1804 2.87314 -1.23163 0
M  V30 1050 H 93.4004 1.83368 -3.48955 0
M  V30 1051 H 94.6884 2.77054 -4.26754 0
M  V30 1052 H 94.0864 5.20386 -2.21843 0
M  V30 1053 H 92.6434 5.83474 -2.90519 0
M  V30 1054 N 96.0765 1.50051 0.48192 0
M  V30 1055 C 97.4875 1.5348 1.06305 0
M  V30 1056 C 97.8385 0.331997 1.93371 0
M  V30 1057 O 96.9635 -0.556256 2.09129 0
M  V30 1058 C 97.5585 2.7813 1.93466 0
M  V30 1059 C 96.1175 2.84275 2.46707 0
M  V30 1060 C 95.2645 2.47637 1.24785 0
M  V30 1061 H 98.2155 1.56472 0.264995 0
M  V30 1062 H 98.2365 2.59372 2.78399 0
M  V30 1063 H 97.7485 3.65654 1.30072 0
M  V30 1064 H 95.8495 2.01077 3.13686 0
M  V30 1065 H 95.9625 3.8691 2.82555 0
M  V30 1066 H 94.3265 1.99835 1.57918 0
M  V30 1067 H 95.1095 3.37457 0.630694 0
M  V30 1068 N 97.5546 -0.734337 1.39446 0
M  V30 1069 C 98.7796 -1.52866 1.40167 0
M  V30 1070 C 99.2046 -1.881 -0.00171513 0
M  V30 1071 O 98.5626 -1.51957 -0.988879 0
M  V30 1072 C 98.6106 -2.79235 2.28167 0
M  V30 1073 O 97.7146 -3.75185 1.71201 0
M  V30 1074 H 97.0556 -0.461618 0.477289 0
M  V30 1075 H 99.5856 -0.905949 1.8345 0
M  V30 1076 H 99.5956 -3.27963 2.42702 0
M  V30 1077 H 98.2706 -2.52923 3.30156 0
M  V30 1078 H 96.8476 -3.33958 1.65912 0
M  V30 1079 N 99.0327 -1.24633 -0.964593 0
M  V30 1080 C 99.9627 -1.06611 -2.07741 0
M  V30 1081 C 100.944 0.0218666 -1.70086 0
M  V30 1082 O 102.129 -0.145793 -1.93652 0
M  V30 1083 C 99.2587 -0.673444 -3.40708 0
M  V30 1084 C 98.2127 -1.71054 -3.92332 0
M  V30 1085 C 97.5387 -1.17285 -5.21678 0
M  V30 1086 C 98.8387 -3.10718 -4.19824 0
M  V30 1087 H 100.533 -1.99693 -2.23076 0
M  V30 1088 H 98.0787 -0.96152 -1.07195 0
M  V30 1089 H 100.032 -0.534345 -4.17998 0
M  V30 1090 H 98.7557 0.293073 -3.25282 0
M  V30 1091 H 97.4147 -1.83791 -3.17201 0
M  V30 1092 H 97.0627 -0.196847 -5.02615 0
M  V30 1093 H 96.7627 -1.86592 -5.57187 0
M  V30 1094 H 98.2867 -1.04593 -6.01575 0
M  V30 1095 H 99.7007 -3.01192 -4.87808 0
M  V30 1096 H 98.0977 -3.77406 -4.66567 0
M  V30 1097 H 99.1677 -3.58524 -3.26479 0
M  V30 1098 N 100.511 1.16574 -1.06058 0
M  V30 1099 C 101.443 2.2045 -0.627239 0
M  V30 1100 C 102.456 1.59752 0.313534 0
M  V30 1101 O 103.645 1.78192 0.104896 0
M  V30 1102 C 100.745 3.3875 0.100974 0
M  V30 1103 C 99.9178 4.29008 -0.852687 0
M  V30 1104 C 98.9768 5.25944 -0.164152 0
M  V30 1105 O 98.0028 5.63535 -0.801047 0
M  V30 1106 N 99.2048 5.70075 1.09518 0
M  V30 1107 H 101.97 2.58249 -1.52077 0
M  V30 1108 H 99.5308 1.3156 -0.943594 0
M  V30 1109 H 101.523 4.00638 0.57194 0
M  V30 1110 H 100.093 2.99476 0.89628 0
M  V30 1111 H 99.3128 3.64419 -1.50308 0
M  V30 1112 H 100.601 4.86195 -1.49972 0
M  V30 1113 H 99.9988 5.41624 1.6328 0
M  V30 1114 H 98.5558 6.34067 1.51006 0
M  V30 1115 N 101.989 0.842826 1.3317 0
M  V30 1116 C 103.217 0.454055 2.01856 0
M  V30 1117 C 103.632 -0.94587 1.63397 0
M  V30 1118 O 102.989 -1.61534 0.849302 0
M  V30 1119 C 103.04 0.569715 3.56982 0
M  V30 1120 O 102.761 1.91448 3.94055 0
M  V30 1121 C 104.262 0.178412 4.42941 0
M  V30 1122 H 101.482 0.17979 0.646465 0
M  V30 1123 H 104.026 1.1365 1.70012 0
M  V30 1124 H 102.181 -0.0648587 3.87346 0
M  V30 1125 H 102.595 1.90282 4.88767 0
M  V30 1126 H 104.069 0.310376 5.51127 0
M  V30 1127 H 104.546 -0.880056 4.30293 0
M  V30 1128 H 105.152 0.787579 4.17944 0
M  V30 1129 N 103.467 -1.45747 0.599634 0
M  V30 1130 C 104.715 -2.01893 0.0915472 0
M  V30 1131 C 105.036 -1.47155 -1.27946 0
M  V30 1132 O 104.306 -0.66273 -1.84349 0
M  V30 1133 H 102.886 -0.746363 0.0308524 0
M  V30 1134 H 105.548 -1.78645 0.779237 0
M  V30 1135 H 104.644 -3.1208 0.0353086 0
M  V30 1136 N 104.945 -0.338344 -1.53925 0
M  V30 1137 C 106.17 0.263987 -2.05713 0
M  V30 1138 C 106.595 1.43847 -1.21201 0
M  V30 1139 O 105.953 1.79904 -0.224535 0
M  V30 1140 C 106.001 0.662 -3.54471 0
M  V30 1141 O 105.105 1.76265 -3.72833 0
M  V30 1142 H 104.446 0.0448722 -0.662482 0
M  V30 1143 H 106.976 -0.491048 -1.9862 0
M  V30 1144 H 106.986 0.940594 -3.9701 0
M  V30 1145 H 105.661 -0.196937 -4.15433 0
M  V30 1146 H 104.238 1.48173 -3.42198 0
M  V30 1147 N 106.423 1.57458 -0.0668435 0
M  V30 1148 C 107.333 2.15937 0.916975 0
M  V30 1149 C 108.349 1.12123 1.33058 0
M  V30 1150 O 109.525 1.44366 1.40429 0
M  V30 1151 C 106.59 2.70547 2.16807 0
M  V30 1152 C 105.651 3.89215 1.81135 0
M  V30 1153 C 104.884 4.41211 3.0028 0
M  V30 1154 O 105.107 3.92225 4.14144 0
M  V30 1155 O 104.041 5.32605 2.80384 0
M  V30 1156 H 107.867 3.00354 0.449561 0
M  V30 1157 H 105.452 1.48584 0.155949 0
M  V30 1158 H 107.334 3.0557 2.90181 0
M  V30 1159 H 106.009 1.89192 2.62656 0
M  V30 1160 H 104.916 3.59054 1.05028 0
M  V30 1161 H 106.249 4.71848 1.40073 0
M  V30 1162 N 107.901 -0.206675 1.56239 0
M  V30 1163 C 108.811 -1.27686 1.96808 0
M  V30 1164 C 109.827 -1.50455 0.874035 0
M  V30 1165 O 111.003 -1.63295 1.17884 0
M  V30 1166 C 108.068 -2.60358 2.28942 0
M  V30 1167 C 107.129 -2.45762 3.51994 0
M  V30 1168 C 106.362 -3.72108 3.82585 0
M  V30 1169 O 106.585 -4.75776 3.14631 0
M  V30 1170 O 105.519 -3.6833 4.76043 0
M  V30 1171 H 109.345 -0.962593 2.88041 0
M  V30 1172 H 106.93 -0.410746 1.43643 0
M  V30 1173 H 108.812 -3.38687 2.50737 0
M  V30 1174 H 107.487 -2.91435 1.4088 0
M  V30 1175 H 106.394 -1.65584 3.35459 0
M  V30 1176 H 107.727 -2.19621 4.40486 0
M  V30 1177 N 109.379 -1.50304 -0.473955 0
M  V30 1178 C 110.309 -1.71886 -1.58042 0
M  V30 1179 C 111.29 -0.567799 -1.60344 0
M  V30 1180 O 112.475 -0.806623 -1.76656 0
M  V30 1181 C 109.605 -1.81036 -2.96384 0
M  V30 1182 C 108.559 -2.962 -3.08949 0
M  V30 1183 C 107.885 -2.9049 -4.48909 0
M  V30 1184 C 109.185 -4.36752 -2.86434 0
M  V30 1185 H 110.879 -2.64527 -1.40234 0
M  V30 1186 H 108.425 -1.27295 -0.673201 0
M  V30 1187 H 110.378 -1.94719 -3.73714 0
M  V30 1188 H 109.102 -0.850147 -3.15341 0
M  V30 1189 H 107.761 -2.82164 -2.3405 0
M  V30 1190 H 107.409 -1.92321 -4.64781 0
M  V30 1191 H 107.109 -3.67802 -4.58253 0
M  V30 1192 H 108.633 -3.06218 -5.28264 0
M  V30 1193 H 110.047 -4.5133 -3.53517 0
M  V30 1194 H 108.444 -5.15493 -3.07225 0
M  V30 1195 H 109.514 -4.49321 -1.82316 0
M  V30 1196 N 110.857 0.726932 -1.39834 0
M  V30 1197 C 112.273 1.03354 -1.21615 0
M  V30 1198 C 112.473 2.01327 -0.08338 0
M  V30 1199 O 111.529 2.46158 0.56238 0
M  V30 1200 C 112.842 1.58811 -2.55342 0
M  V30 1201 C 114.39 1.70851 -2.62257 0
M  V30 1202 C 114.865 2.29716 -3.96225 0
M  V30 1203 N 116.356 2.37116 -3.97907 0
M  V30 1204 C 117.091 2.83619 -4.98345 0
M  V30 1205 N 116.587 3.29958 -6.09179 0
M  V30 1206 N 118.38 2.82901 -4.8572 0
M  V30 1207 H 110.531 0.0773069 -2.12259 0
M  V30 1208 H 112.794 0.0969102 -0.943034 0
M  V30 1209 H 112.5 0.942855 -3.38826 0
M  V30 1210 H 112.374 2.57502 -2.75632 0
M  V30 1211 H 114.761 2.34497 -1.79152 0
M  V30 1212 H 114.842 0.707913 -2.45809 0
M  V30 1213 H 114.486 1.66696 -4.79765 0
M  V30 1214 H 114.416 3.30469 -4.09997 0
M  V30 1215 H 116.907 2.04374 -3.17868 0
M  V30 1216 H 117.22 3.63976 -6.8172 0
M  V30 1217 H 115.565 3.27946 -6.12761 0
M  V30 1218 H 118.756 2.46027 -3.98231 0
M  V30 1219 H 118.929 3.18827 -5.6414 0
M  V30 1220 N 112.336 1.25143 0.95797 0
M  V30 1221 C 113.561 1.12521 1.74223 0
M  V30 1222 C 113.986 -0.317402 1.85403 0
M  V30 1223 O 113.344 -1.2299 1.33204 0
M  V30 1224 C 113.392 1.78062 3.1357 0
M  V30 1225 O 112.496 1.058 3.98598 0
M  V30 1226 H 111.837 0.39304 0.535178 0
M  V30 1227 H 114.367 1.65641 1.201 0
M  V30 1228 H 114.377 1.84213 3.64046 0
M  V30 1229 H 113.052 2.83021 3.04749 0
M  V30 1230 H 111.629 1.07506 3.57067 0
M  V30 1231 N 113.814 -1.1601 1.06675 0
M  V30 1232 C 114.744 -2.22688 0.702307 0
M  V30 1233 C 115.725 -1.67306 -0.307032 0
M  V30 1234 O 116.91 -1.93352 -0.181305 0
M  V30 1235 C 114.04 -3.47178 0.092038 0
M  V30 1236 C 112.994 -4.15477 1.02777 0
M  V30 1237 C 112.32 -5.33963 0.28061 0
M  V30 1238 C 113.62 -4.66019 2.35846 0
M  V30 1239 H 115.314 -2.53429 1.59419 0
M  V30 1240 H 112.86 -1.21813 0.767961 0
M  V30 1241 H 114.813 -4.21037 -0.174814 0
M  V30 1242 H 113.537 -3.15749 -0.834877 0
M  V30 1243 H 112.196 -3.43549 1.27944 0
M  V30 1244 H 111.844 -4.98788 -0.649545 0
M  V30 1245 H 111.544 -5.806 0.904258 0
M  V30 1246 H 113.068 -6.10596 0.021396 0
M  V30 1247 H 114.482 -5.3144 2.15045 0
M  V30 1248 H 112.879 -5.23293 2.93743 0
M  V30 1249 H 113.949 -3.82023 2.98641 0
M  V30 1250 N 115.292 -0.849877 -1.32721 0
M  V30 1251 C 116.522 -0.46408 -2.0132 0
M  V30 1252 C 116.93 0.94246 -1.64056 0
M  V30 1253 O 116.273 1.6257 -0.855379 0
M  V30 1254 C 116.335 -0.517887 -3.5575 0
M  V30 1255 C 115.999 -1.88248 -4.16427 0
M  V30 1256 C 116.996 -2.84726 -4.35002 0
M  V30 1257 C 114.681 -2.17832 -4.52609 0
M  V30 1258 C 116.675 -4.08945 -4.8892 0
M  V30 1259 C 114.362 -3.42304 -5.06232 0
M  V30 1260 C 115.36 -4.37677 -5.24335 0
M  V30 1261 O 115.048 -5.59946 -5.76815 0
M  V30 1262 H 114.78 -0.181327 -0.651227 0
M  V30 1263 H 117.334 -1.14713 -1.70382 0
M  V30 1264 H 115.564 0.221997 -3.86062 0
M  V30 1265 H 117.253 -0.148366 -4.05629 0
M  V30 1266 H 118.019 -2.63174 -4.07388 0
M  V30 1267 H 113.898 -1.44385 -4.37806 0
M  V30 1268 H 117.442 -4.83396 -5.02966 0
M  V30 1269 H 113.339 -3.63709 -5.33278 0
M  V30 1270 H 114.107 -5.61838 -5.95214 0
M  V30 1271 N 116.77 1.45427 -0.607355 0
M  V30 1272 C 117.718 2.32269 0.12411 0
M  V30 1273 C 118.712 1.45955 0.859854 0
M  V30 1274 O 119.918 1.6244 0.775447 0
M  V30 1275 H 116.293 0.749691 0.0588839 0
M  V30 1276 H 118.264 2.91743 -0.626762 0
M  V30 1277 C 117.013 3.29567 1.1082 0
M  V30 1278 H 116.336 3.95978 0.551492 0
M  V30 1279 H 117.776 3.93061 1.58995 0
M  V30 1280 C 116.235 2.56722 2.18164 0
M  V30 1281 O 116.765 2.34842 3.25902 0
M  V30 1282 N 114.971 2.16861 1.93442 0
M  V30 1283 H 114.518 2.34855 1.05834 0
M  V30 1284 H 114.476 1.68444 2.65469 0
M  V30 1285 N 118.248 0.346503 1.53744 0
M  V30 1286 C 119.476 -0.25041 2.05379 0
M  V30 1287 C 119.891 -1.43979 1.22129 0
M  V30 1288 O 119.248 -1.80677 0.257321 0
M  V30 1289 C 119.299 -0.662575 3.55376 0
M  V30 1290 O 119.02 0.479515 4.35468 0
M  V30 1291 C 120.521 -1.31989 4.23195 0
M  V30 1292 H 117.741 -0.0478198 0.669294 0
M  V30 1293 H 120.285 0.499346 1.9831 0
M  V30 1294 H 118.44 -1.36227 3.62658 0
M  V30 1295 H 118.854 0.15037 5.24284 0
M  V30 1296 H 120.328 -1.55902 5.29527 0
M  V30 1297 H 120.805 -2.27436 3.75725 0
M  V30 1298 H 121.411 -0.662154 4.20114 0
M  V30 1299 N 119.726 -1.57421 0.075193 0
M  V30 1300 C 120.975 -1.92794 -0.592731 0
M  V30 1301 C 121.288 -0.957478 -1.70563 0
M  V30 1302 O 122.494 -1.20417 -2.43335 0
M  V30 1303 C 120.95 -3.42495 -1.10569 0
M  V30 1304 C 120.558 -4.47994 -0.0236121 0
M  V30 1305 C 122.302 -3.86864 -1.74748 0
M  V30 1306 C 120.209 -5.88829 -0.550803 0
M  V30 1307 H 119.139 -0.719591 -0.225177 0
M  V30 1308 H 121.79 -1.82902 0.147978 0
M  V30 1309 H 120.172 -3.47471 -1.89947 0
M  V30 1310 H 121.346 -4.54637 0.751099 0
M  V30 1311 H 119.661 -4.13113 0.522159 0
M  V30 1312 H 122.258 -4.8947 -2.15229 0
M  V30 1313 H 122.601 -3.24417 -2.60882 0
M  V30 1314 H 123.134 -3.84504 -1.01986 0
M  V30 1315 H 119.873 -6.54929 0.273457 0
M  V30 1316 H 119.393 -5.85698 -1.29296 0
M  V30 1317 H 121.072 -6.38811 -1.02613 0
M  V30 1318 N 121.204 0.198386 -1.56346 0
M  V30 1319 C 122.167 1.22952 -1.93431 0
M  V30 1320 C 123.167 1.38611 -0.815092 0
M  V30 1321 O 124.357 1.36479 -1.08255 0
M  V30 1322 C 121.489 2.59946 -2.20546 0
M  V30 1323 H 122.682 0.912626 -2.85677 0
M  V30 1324 H 120.235 0.43977 -1.49986 0
M  V30 1325 H 120.97 2.96696 -1.30927 0
M  V30 1326 H 120.755 2.49953 -3.02102 0
M  V30 1327 H 122.245 3.3431 -2.50253 0
M  V30 1328 N 122.682 1.50554 0.465978 0
M  V30 1329 C 123.928 1.62038 1.21949 0
M  V30 1330 C 124.261 0.322116 1.9151 0
M  V30 1331 O 123.536 -0.676723 1.82348 0
M  V30 1332 C 123.819 2.80421 2.25912 0
M  V30 1333 C 123.672 4.20144 1.60622 0
M  V30 1334 C 124.991 2.94354 3.27176 0
M  V30 1335 H 122.11 0.589752 0.441998 0
M  V30 1336 H 124.752 1.82956 0.51257 0
M  V30 1337 H 122.902 2.62717 2.86203 0
M  V30 1338 H 124.574 4.49449 1.03889 0
M  V30 1339 H 122.817 4.24165 0.909211 0
M  V30 1340 H 123.488 4.98914 2.36196 0
M  V30 1341 H 125.964 3.10578 2.76913 0
M  V30 1342 H 124.84 3.788 3.97242 0
M  V30 1343 H 125.101 2.05186 3.916 0
M  V30 1344 N 124.16 -0.719506 1.40217 0
M  V30 1345 C 125.09 -1.8465 1.42922 0
M  V30 1346 C 126.071 -1.67599 0.29062 0
M  V30 1347 O 127.256 -1.87688 0.498677 0
M  V30 1348 C 124.386 -3.22565 1.28722 0
M  V30 1349 C 123.34 -3.54281 2.40144 0
M  V30 1350 C 122.666 -4.91298 2.11023 0
M  V30 1351 C 123.966 -3.55676 3.82481 0
M  V30 1352 H 125.66 -1.82644 2.37237 0
M  V30 1353 H 123.206 -0.877305 1.1419 0
M  V30 1354 H 125.159 -4.01095 1.29232 0
M  V30 1355 H 123.883 -3.25137 0.308811 0
M  V30 1356 H 122.542 -2.78088 2.38877 0
M  V30 1357 H 122.19 -4.90468 1.11582 0
M  V30 1358 H 121.89 -5.13485 2.8567 0
M  V30 1359 H 123.414 -5.72166 2.13209 0
M  V30 1360 H 124.828 -4.24254 3.85592 0
M  V30 1361 H 123.225 -3.89388 4.56614 0
M  V30 1362 H 124.295 -2.55144 4.12346 0
M  V30 1363 N 125.638 -1.25649 -0.95132 0
M  V30 1364 C 126.868 -1.13179 -1.72841 0
M  V30 1365 C 127.276 0.316827 -1.86528 0
M  V30 1366 O 126.619 1.22948 -1.3649 0
M  V30 1367 C 126.681 -1.71644 -3.15878 0
M  V30 1368 C 126.345 -3.20667 -3.25609 0
M  V30 1369 C 127.342 -4.17616 -3.09666 0
M  V30 1370 C 125.027 -3.6094 -3.49324 0
M  V30 1371 C 127.021 -5.52817 -3.17289 0
M  V30 1372 C 124.708 -4.96278 -3.56584 0
M  V30 1373 C 125.706 -5.92025 -3.40581 0
M  V30 1374 O 125.394 -7.24899 -3.47528 0
M  V30 1375 H 125.126 -0.395389 -0.54831 0
M  V30 1376 H 127.68 -1.66566 -1.20187 0
M  V30 1377 H 125.91 -1.12707 -3.69911 0
M  V30 1378 H 127.599 -1.54225 -3.75459 0
M  V30 1379 H 128.365 -3.87842 -2.91211 0
M  V30 1380 H 124.244 -2.86907 -3.6084 0
M  V30 1381 H 127.788 -6.2753 -3.04716 0
M  V30 1382 H 123.685 -5.25716 -3.74556 0
M  V30 1383 H 124.453 -7.33039 -3.64138 0
M  V30 1384 N 127.117 1.15442 -1.07289 0
M  V30 1385 C 128.357 1.8788 -0.805012 0
M  V30 1386 C 128.721 1.80413 0.656907 0
M  V30 1387 O 129.922 2.47874 1.0398 0
M  V30 1388 C 128.193 3.3298 -1.29843 0
M  V30 1389 S 129.752 4.23158 -1.16114 0
M  V30 1390 H 126.57 0.64839 -0.291739 0
M  V30 1391 H 129.172 1.39285 -1.37186 0
M  V30 1392 H 127.876 3.35958 -2.35712 0
M  V30 1393 H 127.407 3.86629 -0.726767 0
M  V30 1394 H 129.422 4.96103 -0.0982778 0
M  V30 1395 N 128.595 0.856903 1.32268 0
M  V30 1396 C 129.841 0.462069 1.97466 0
M  V30 1397 C 130.174 -0.980298 1.67642 0
M  V30 1398 O 129.449 -1.68824 0.965858 0
M  V30 1399 C 129.732 0.704336 3.53145 0
M  V30 1400 C 129.585 2.19529 3.9259 0
M  V30 1401 C 130.904 0.1622 4.39801 0
M  V30 1402 H 128.023 0.169357 0.717278 0
M  V30 1403 H 130.665 1.07574 1.56614 0
M  V30 1404 H 128.815 0.181999 3.88073 0
M  V30 1405 H 130.487 2.78387 3.67829 0
M  V30 1406 H 128.73 2.67292 3.41668 0
M  V30 1407 H 129.401 2.31549 5.01088 0
M  V30 1408 H 131.877 0.608905 4.11621 0
M  V30 1409 H 130.753 0.361265 5.4771 0
M  V30 1410 H 131.014 -0.935158 4.32096 0
M  V30 1411 N 130.073 -1.45103 0.615059 0
M  V30 1412 C 131.023 -2.27679 -0.120966 0
M  V30 1413 C 132.007 -1.3775 -0.831491 0
M  V30 1414 O 133.199 -1.61683 -0.720249 0
M  V30 1415 C 130.328 -3.24767 -1.1127 0
M  V30 1416 C 129.414 -4.22184 -0.402627 0
M  V30 1417 N 129.805 -5.02692 0.559884 0
M  V30 1418 C 128.103 -4.4125 -0.649202 0
M  V30 1419 C 128.804 -5.73421 0.977942 0
M  V30 1420 N 127.78 -5.42657 0.320104 0
M  V30 1421 H 131.582 -2.87325 0.618181 0
M  V30 1422 H 129.096 -1.56345 0.439304 0
M  V30 1423 H 131.093 -3.82666 -1.65446 0
M  V30 1424 H 129.753 -2.66682 -1.85232 0
M  V30 1425 H 130.764 -5.09354 0.936976 0
M  V30 1426 H 127.441 -3.9428 -1.37293 0
M  V30 1427 H 128.831 -6.48107 1.77222 0
M  V30 1428 N 131.551 -0.354651 -1.53558 0
M  V30 1429 C 132.483 0.5315 -2.22952 0
M  V30 1430 C 133.496 1.05503 -1.23988 0
M  V30 1431 O 134.685 0.963279 -1.50277 0
M  V30 1432 C 131.785 1.74538 -2.90499 0
M  V30 1433 C 130.958 1.35524 -4.15875 0
M  V30 1434 C 130.017 2.42999 -4.66731 0
M  V30 1435 O 129.043 2.05844 -5.30676 0
M  V30 1436 N 130.245 3.74423 -4.43608 0
M  V30 1437 H 133.01 -0.0628615 -2.99634 0
M  V30 1438 H 130.571 -0.179302 -1.60904 0
M  V30 1439 H 132.563 2.45892 -3.21433 0
M  V30 1440 H 131.133 2.24686 -2.17336 0
M  V30 1441 H 130.353 0.471998 -3.91364 0
M  V30 1442 H 131.641 1.07071 -4.97406 0
M  V30 1443 H 131.039 4.07391 -3.92491 0
M  V30 1444 H 129.596 4.41913 -4.7912 0
M  V30 1445 N 133.029 1.57378 -0.0835403 0
M  V30 1446 C 134.445 1.57246 0.273109 0
M  V30 1447 C 134.645 1.09385 1.69225 0
M  V30 1448 O 133.701 0.765051 2.40631 0
M  V30 1449 C 135.014 3.00614 0.0720628 0
M  V30 1450 C 136.562 3.12684 0.1407 0
M  V30 1451 C 137.037 4.57989 -0.0322094 0
M  V30 1452 N 138.528 4.63194 0.0230085 0
M  V30 1453 C 139.263 5.73335 -0.0861941 0
M  V30 1454 N 138.759 6.9235 -0.24958 0
M  V30 1455 N 140.552 5.62093 -0.0282886 0
M  V30 1456 H 132.703 1.86801 -1.0109 0
M  V30 1457 H 134.966 0.861687 -0.395222 0
M  V30 1458 H 134.672 3.39786 -0.907662 0
M  V30 1459 H 134.546 3.68193 0.81936 0
M  V30 1460 H 136.933 2.73391 1.11092 0
M  V30 1461 H 137.014 2.47719 -0.637896 0
M  V30 1462 H 136.658 4.97973 -0.999247 0
M  V30 1463 H 136.588 5.21 0.765937 0
M  V30 1464 H 139.079 3.77613 0.14722 0
M  V30 1465 H 139.392 7.72117 -0.324733 0
M  V30 1466 H 137.737 6.94415 -0.285097 0
M  V30 1467 H 140.928 4.67997 0.0981408 0
M  V30 1468 H 141.101 6.47895 -0.116845 0
M  V30 1469 N 134.507 -0.190092 1.56449 0
M  V30 1470 C 135.756 -0.907912 1.80111 0
M  V30 1471 C 136.069 -1.84214 0.657619 0
M  V30 1472 O 137.275 -2.60094 0.778663 0
M  V30 1473 C 135.731 -1.66485 3.19078 0
M  V30 1474 C 135.339 -0.7752 4.41242 0
M  V30 1475 C 137.083 -2.37201 3.52045 0
M  V30 1476 C 134.99 -1.53129 5.71231 0
M  V30 1477 H 133.92 -0.34276 0.671589 0
M  V30 1478 H 136.571 -0.161109 1.82791 0
M  V30 1479 H 134.953 -2.45572 3.10661 0
M  V30 1480 H 136.127 -0.0226298 4.60794 0
M  V30 1481 H 134.442 -0.178627 4.16017 0
M  V30 1482 H 137.039 -2.94329 4.46402 0
M  V30 1483 H 137.382 -3.11632 2.76028 0
M  V30 1484 H 137.915 -1.65075 3.61932 0
M  V30 1485 H 134.654 -0.82967 6.50228 0
M  V30 1486 H 134.174 -2.25767 5.55688 0
M  V30 1487 H 135.853 -2.08377 6.12526 0
M  V30 1488 N 135.985 -1.50799 -0.457987 0
M  V30 1489 C 137.262 -1.52968 -1.21902 0
M  V30 1490 C 137.642 -0.281906 -2.09209 0
M  V30 1491 O 136.99 0.734076 -2.16388 0
M  V30 1492 C 137.2 -2.8326 -2.03875 0
M  V30 1493 C 138.548 -3.34425 -2.6162 0
M  V30 1494 O 139.572 -2.8467 -2.14106 0
M  V30 1495 O 138.431 -4.21188 -3.48228 0
M  V30 1496 H 135.525 -0.614129 -0.553873 0
M  V30 1497 H 138.071 -1.63098 -0.468739 0
M  V30 1498 H 136.843 -3.65543 -1.39621 0
M  V30 1499 H 136.466 -2.76195 -2.8601 0
M  V30 1500 N 137.463 0.71206 -1.40597 0
M  V30 1501 C 138.709 1.47416 -1.39271 0
M  V30 1502 C 139.042 1.942 0.00388791 0
M  V30 1503 O 138.317 1.68403 0.973179 0
M  V30 1504 C 138.6 2.69774 -2.38525 0
M  V30 1505 C 138.453 2.28861 -3.87224 0
M  V30 1506 C 139.772 3.71939 -2.35264 0
M  V30 1507 H 136.891 0.534713 -0.5072 0
M  V30 1508 H 139.533 0.812375 -1.71757 0
M  V30 1509 H 137.683 3.26238 -2.10953 0
M  V30 1510 H 139.355 1.77852 -4.25636 0
M  V30 1511 H 137.598 1.60824 -4.02887 0
M  V30 1512 H 138.269 3.16584 -4.52193 0
M  V30 1513 H 140.745 3.25113 -2.59694 0
M  V30 1514 H 139.621 4.55186 -3.06753 0
M  V30 1515 H 139.882 4.20484 -1.36549 0
M  V30 1516 N 138.941 1.26152 0.944643 0
M  V30 1517 C 139.888 1.07408 2.04285 0
M  V30 1518 C 140.858 -0.0198413 1.66088 0
M  V30 1519 O 142.043 0.139264 1.90291 0
M  V30 1520 C 139.183 0.70945 3.37729 0
M  V30 1521 C 138.296 1.87926 3.88983 0
M  V30 1522 C 137.431 1.45807 5.10797 0
M  V30 1523 C 136.47 2.5964 5.54305 0
M  V30 1524 N 135.607 2.18226 6.67324 0
M  V30 1525 H 140.447 2.01389 2.1965 0
M  V30 1526 H 137.984 1.00275 1.07626 0
M  V30 1527 H 139.942 0.478948 4.14442 0
M  V30 1528 H 138.572 -0.193389 3.2222 0
M  V30 1529 H 137.624 2.22279 3.08701 0
M  V30 1530 H 138.936 2.73377 4.17213 0
M  V30 1531 H 138.09 1.18781 5.94959 0
M  V30 1532 H 136.829 0.574414 4.84305 0
M  V30 1533 H 135.834 2.87399 4.68702 0
M  V30 1534 H 137.059 3.48599 5.828 0
M  V30 1535 H 135.005 1.3229 6.42523 0
M  V30 1536 H 134.922 2.97221 6.95123 0
M  V30 1537 H 136.19 1.94403 7.54869 0
M  V30 1538 N 140.419 -1.14872 1.07899 0
M  V30 1539 C 141.696 -1.81928 0.71845 0
M  V30 1540 C 142.076 -1.95417 -0.798455 0
M  V30 1541 O 141.424 -1.50997 -1.715 0
M  V30 1542 C 141.634 -3.17937 1.43935 0
M  V30 1543 C 142.982 -3.93501 1.59506 0
M  V30 1544 O 144.006 -3.27509 1.40058 0
M  V30 1545 O 142.865 -5.1183 1.91551 0
M  V30 1546 H 139.959 -0.78628 0.256305 0
M  V30 1547 H 142.505 -1.21934 1.18026 0
M  V30 1548 H 141.277 -3.0325 2.47295 0
M  V30 1549 H 140.9 -3.85619 0.968687 0
M  V30 1550 N 141.898 -0.863906 -1.31812 0
M  V30 1551 C 143.126 -0.486111 -2.01108 0
M  V30 1552 C 143.541 0.919755 -1.64882 0
M  V30 1553 O 142.898 1.60162 -0.874893 0
M  V30 1554 C 142.949 -0.626435 -3.56031 0
M  V30 1555 O 142.67 -1.97693 -3.90959 0
M  V30 1556 C 144.171 -0.248857 -4.42601 0
M  V30 1557 H 141.391 -0.190052 -0.643523 0
M  V30 1558 H 143.935 -1.1634 -1.68182 0
M  V30 1559 H 142.09 0.00322717 -3.874 0
M  V30 1560 H 142.504 -1.98034 -4.85678 0
M  V30 1561 H 143.978 -0.398016 -5.50563 0
M  V30 1562 H 144.455 0.811489 -4.31638 0
M  V30 1563 H 145.061 -0.853971 -4.16638 0
M  V30 1564 N 143.376 1.44774 -0.622745 0
M  V30 1565 C 144.323 2.30635 0.0871679 0
M  V30 1566 C 145.293 1.42994 0.845097 0
M  V30 1567 O 146.478 1.71907 0.827812 0
M  V30 1568 C 143.618 3.28144 1.06844 0
M  V30 1569 C 142.731 4.30888 0.309809 0
M  V30 1570 C 141.866 5.15494 1.28215 0
M  V30 1571 C 140.905 6.09953 0.512198 0
M  V30 1572 N 140.042 6.87287 1.43458 0
M  V30 1573 H 144.882 2.90803 -0.650974 0
M  V30 1574 H 142.419 1.43286 -0.33281 0
M  V30 1575 H 144.377 3.83157 1.65066 0
M  V30 1576 H 143.007 2.69695 1.77382 0
M  V30 1577 H 142.059 3.78414 -0.388181 0
M  V30 1578 H 143.371 4.97955 -0.290254 0
M  V30 1579 H 142.525 5.74983 1.93596 0
M  V30 1580 H 141.264 4.48481 1.91614 0
M  V30 1581 H 140.269 5.49581 -0.155151 0
M  V30 1582 H 141.494 6.78999 -0.116958 0
M  V30 1583 H 139.44 6.2295 2.05594 0
M  V30 1584 H 139.357 7.50763 0.888335 0
M  V30 1585 H 140.625 7.51306 2.07749 0
M  V30 1586 N 144.854 0.36279 1.53368 0
M  V30 1587 C 145.764 -0.492994 2.29362 0
M  V30 1588 C 146.78 -1.09507 1.35219 0
M  V30 1589 O 147.956 -1.10662 1.68273 0
M  V30 1590 C 145.021 -1.61855 3.066 0
M  V30 1591 C 144.082 -1.04429 4.16405 0
M  V30 1592 C 143.315 -2.11621 4.89951 0
M  V30 1593 O 143.538 -3.32684 4.63333 0
M  V30 1594 O 142.472 -1.74835 5.75948 0
M  V30 1595 H 146.298 0.125331 3.03441 0
M  V30 1596 H 143.883 0.127253 1.48857 0
M  V30 1597 H 145.765 -2.27302 3.54841 0
M  V30 1598 H 144.44 -2.22233 2.3536 0
M  V30 1599 H 143.347 -0.353819 3.72423 0
M  V30 1600 H 144.68 -0.485113 4.89804 0
M  V30 1601 N 146.332 -1.57332 0.0918853 0
M  V30 1602 C 147.295 -2.12708 -0.85369 0
M  V30 1603 C 148.295 -1.05561 -1.213 0
M  V30 1604 O 149.485 -1.31461 -1.14296 0
M  V30 1605 C 146.617 -2.64503 -2.15061 0
M  V30 1606 H 147.81 -2.97573 -0.3729 0
M  V30 1607 H 145.363 -1.55509 -0.157072 0
M  V30 1608 H 146.098 -1.83149 -2.67632 0
M  V30 1609 H 145.883 -3.4284 -1.90272 0
M  V30 1610 H 147.373 -3.07351 -2.82711 0
M  V30 1611 N 147.81 0.181792 -1.56548 0
M  V30 1612 C 148.74 1.22765 -1.98623 0
M  V30 1613 C 149.721 1.46747 -0.860189 0
M  V30 1614 O 150.906 1.58259 -1.12551 0
M  V30 1615 C 148.036 2.56894 -2.33715 0
M  V30 1616 C 146.99 2.475 -3.49182 0
M  V30 1617 C 146.316 3.86023 -3.69986 0
M  V30 1618 C 147.616 1.98866 -4.82959 0
M  V30 1619 H 149.31 0.877942 -2.86239 0
M  V30 1620 H 146.856 0.42088 -1.37712 0
M  V30 1621 H 148.809 3.30253 -2.61746 0
M  V30 1622 H 147.533 2.93632 -1.42997 0
M  V30 1623 H 146.192 1.76596 -3.21262 0
M  V30 1624 H 145.84 4.20136 -2.76576 0
M  V30 1625 H 145.54 3.80609 -4.47672 0
M  V30 1626 H 147.064 4.60984 -4.00407 0
M  V30 1627 H 148.478 2.61992 -5.09934 0
M  V30 1628 H 146.875 2.04424 -5.64208 0
M  V30 1629 H 147.945 0.942465 -4.75653 0
M  V30 1630 N 149.288 1.51039 0.449983 0
M  V30 1631 C 150.565 1.53612 1.21089 0
M  V30 1632 C 150.945 0.292997 2.09057 0
M  V30 1633 O 150.293 -0.72259 2.16774 0
M  V30 1634 C 150.503 2.84337 2.0237 0
M  V30 1635 C 151.851 3.35807 2.59843 0
M  V30 1636 O 152.875 2.85802 2.12593 0
M  V30 1637 O 151.734 4.23029 3.45989 0
M  V30 1638 H 148.828 0.617057 0.550608 0
M  V30 1639 H 151.374 1.63344 0.460082 0
M  V30 1640 H 150.146 3.66278 1.37681 0
M  V30 1641 H 149.769 2.77708 2.84542 0
M  V30 1642 N 150.766 -0.704594 1.40972 0
M  V30 1643 C 151.713 -1.81862 1.42109 0
M  V30 1644 C 152.683 -1.63781 0.276593 0
M  V30 1645 O 153.868 -1.84759 0.4763 0
M  V30 1646 C 151.008 -3.19669 1.30022 0
M  V30 1647 C 150.121 -3.49246 2.54267 0
M  V30 1648 C 149.256 -4.76618 2.3454 0
M  V30 1649 C 148.295 -4.99133 3.54306 0
M  V30 1650 N 147.432 -6.17726 3.33706 0
M  V30 1651 H 152.272 -1.80226 2.37324 0
M  V30 1652 H 149.809 -0.880238 1.17857 0
M  V30 1653 H 151.767 -3.99263 1.21018 0
M  V30 1654 H 150.397 -3.20506 0.384192 0
M  V30 1655 H 149.449 -2.64125 2.73756 0
M  V30 1656 H 150.761 -3.61788 3.43381 0
M  V30 1657 H 149.915 -5.64249 2.22952 0
M  V30 1658 H 148.654 -4.66305 1.42867 0
M  V30 1659 H 147.659 -4.09953 3.66359 0
M  V30 1660 H 148.884 -5.11311 4.4692 0
M  V30 1661 H 146.83 -6.08642 2.44725 0
M  V30 1662 H 146.747 -6.30995 4.16391 0
M  V30 1663 H 148.015 -7.08115 3.25873 0
M  V30 1664 N 152.244 -1.26651 -0.937939 0
M  V30 1665 C 153.493 -1.11775 -1.67897 0
M  V30 1666 C 153.806 0.33794 -1.92659 0
M  V30 1667 O 155.012 0.607434 -2.64618 0
M  V30 1668 C 153.468 -1.9523 -3.02346 0
M  V30 1669 C 153.076 -3.45393 -2.8532 0
M  V30 1670 C 154.82 -1.88972 -3.80118 0
M  V30 1671 C 152.727 -4.21083 -4.15263 0
M  V30 1672 H 151.657 -0.414696 -0.629717 0
M  V30 1673 H 154.308 -1.50988 -1.04283 0
M  V30 1674 H 152.69 -1.48853 -3.66959 0
M  V30 1675 H 153.864 -3.99561 -2.29537 0
M  V30 1676 H 152.179 -3.52921 -2.20988 0
M  V30 1677 H 154.776 -2.42805 -4.76392 0
M  V30 1678 H 155.119 -0.86113 -4.07296 0
M  V30 1679 H 155.652 -2.33189 -3.22285 0
M  V30 1680 H 152.391 -5.24425 -3.93267 0
M  V30 1681 H 151.911 -3.71695 -4.70747 0
M  V30 1682 H 153.59 -4.29706 -4.83696 0
M  V30 1683 N 153.722 1.14298 -1.08507 0
M  V30 1684 C 154.632 2.23027 -0.727753 0
M  V30 1685 C 155.648 1.71952 0.26619 0
M  V30 1686 O 156.824 2.011 0.109882 0
M  V30 1687 C 153.889 3.46403 -0.143541 0
M  V30 1688 C 152.95 4.12413 -1.19223 0
M  V30 1689 C 152.183 5.29899 -0.635798 0
M  V30 1690 O 152.406 5.67796 0.544393 0
M  V30 1691 O 151.34 5.85717 -1.38634 0
M  V30 1692 H 155.166 2.55945 -1.63481 0
M  V30 1693 H 152.751 1.22248 -0.858817 0
M  V30 1694 H 154.633 4.21018 0.179404 0
M  V30 1695 H 153.308 3.15206 0.736659 0
M  V30 1696 H 152.215 3.39667 -1.56772 0
M  V30 1697 H 153.548 4.47718 -2.04474 0
M  V30 1698 N 155.201 0.870884 1.31352 0
M  V30 1699 C 156.111 0.330783 2.32256 0
M  V30 1700 C 157.127 -0.559767 1.6475 0
M  V30 1701 O 158.303 -0.456263 1.96164 0
M  V30 1702 C 155.368 -0.458137 3.4366 0
M  V30 1703 C 154.429 0.460482 4.26823 0
M  V30 1704 C 153.662 -0.290881 5.32907 0
M  V30 1705 O 153.885 -1.51885 5.49806 0
M  V30 1706 O 152.819 0.351732 6.00871 0
M  V30 1707 H 156.645 1.16718 2.80376 0
M  V30 1708 H 154.23 0.634285 1.35267 0
M  V30 1709 H 156.112 -0.905343 4.1156 0
M  V30 1710 H 154.787 -1.27106 2.97701 0
M  V30 1711 H 153.694 0.956207 3.61673 0
M  V30 1712 H 155.027 1.23903 4.7635 0
M  V30 1713 N 156.679 -1.44442 0.630414 0
M  V30 1714 C 157.589 -2.34476 -0.0761693 0
M  V30 1715 C 158.605 -1.52576 -0.836449 0
M  V30 1716 O 159.781 -1.85307 -0.788874 0
M  V30 1717 C 156.846 -3.30545 -1.04599 0
M  V30 1718 C 155.907 -4.28352 -0.28516 0
M  V30 1719 C 155.14 -5.19831 -1.20878 0
M  V30 1720 O 155.363 -5.15223 -2.44747 0
M  V30 1721 O 154.297 -5.97892 -0.693491 0
M  V30 1722 H 158.123 -2.96345 0.664324 0
M  V30 1723 H 155.708 -1.44203 0.39061 0
M  V30 1724 H 157.59 -3.89681 -1.60396 0
M  V30 1725 H 156.265 -2.7121 -1.76711 0
M  V30 1726 H 155.172 -3.72764 0.315837 0
M  V30 1727 H 156.505 -4.90605 0.395924 0
M  V30 1728 N 158.157 -0.370918 -1.53173 0
M  V30 1729 C 159.089 0.507823 -2.23503 0
M  V30 1730 C 160.102 1.04182 -1.251 0
M  V30 1731 O 161.291 0.947286 -1.5129 0
M  V30 1732 C 158.391 1.71447 -2.92334 0
M  V30 1733 C 157.564 1.31105 -4.17289 0
M  V30 1734 C 156.623 2.38035 -4.69282 0
M  V30 1735 O 155.649 2.00204 -5.32829 0
M  V30 1736 N 156.851 3.69697 -4.47554 0
M  V30 1737 H 159.616 -0.0946382 -2.99551 0
M  V30 1738 H 157.177 -0.196358 -1.60705 0
M  V30 1739 H 159.169 2.42469 -3.24023 0
M  V30 1740 H 157.739 2.22368 -2.19707 0
M  V30 1741 H 156.959 0.430462 -3.91843 0
M  V30 1742 H 158.247 1.0179 -4.98514 0
M  V30 1743 H 157.645 4.03205 -3.9679 0
M  V30 1744 H 156.202 4.36807 -4.8378 0
M  V30 1745 N 159.635 1.57281 -0.100228 0
M  V30 1746 C 160.583 2.15542 0.874328 0
M  V30 1747 C 161.577 1.09962 1.28859 0
M  V30 1748 O 162.783 1.28298 1.26252 0
M  V30 1749 H 159.158 0.689567 0.300003 0
M  V30 1750 H 161.129 2.96241 0.35829 0
M  V30 1751 C 159.878 2.75454 2.1218 0
M  V30 1752 H 159.201 3.56384 1.81193 0
M  V30 1753 H 160.641 3.19781 2.78417 0
M  V30 1754 C 159.1 1.71602 2.89921 0
M  V30 1755 O 159.63 1.15804 3.84646 0
M  V30 1756 N 157.836 1.41975 2.53558 0
M  V30 1757 H 157.383 1.87539 1.76598 0
M  V30 1758 H 157.341 0.727274 3.05873 0
M  V30 1759 N 161.113 -0.173488 1.56642 0
M  V30 1760 C 162.06 -1.21482 1.96242 0
M  V30 1761 C 163.03 -1.44104 0.826027 0
M  V30 1762 O 164.215 -1.5688 1.08597 0
M  V30 1763 C 161.355 -2.54964 2.32567 0
M  V30 1764 C 160.468 -2.39739 3.59373 0
M  V30 1765 C 159.603 -3.66072 3.84921 0
M  V30 1766 C 158.642 -3.45771 5.05083 0
M  V30 1767 N 157.779 -4.64169 5.26775 0
M  V30 1768 H 162.619 -0.870123 2.85014 0
M  V30 1769 H 160.156 -0.418245 1.41029 0
M  V30 1770 H 162.114 -3.32758 2.5165 0
M  V30 1771 H 160.744 -2.87433 1.46908 0
M  V30 1772 H 159.796 -1.53131 3.48217 0
M  V30 1773 H 161.108 -2.20683 4.47326 0
M  V30 1774 H 160.262 -4.52303 4.0436 0
M  V30 1775 H 159.001 -3.88105 2.9534 0
M  V30 1776 H 158.006 -2.57927 4.85545 0
M  V30 1777 H 159.231 -3.25163 5.96193 0
M  V30 1778 H 157.177 -4.86425 4.40144 0
M  V30 1779 H 157.094 -4.48019 6.08946 0
M  V30 1780 H 158.362 -5.51689 5.5069 0
M  V30 1781 N 162.591 -1.51276 -0.441967 0
M  V30 1782 C 163.816 -1.67799 -1.21895 0
M  V30 1783 C 164.241 -0.372864 -1.84367 0
M  V30 1784 O 163.599 0.666501 -1.68604 0
M  V30 1785 C 163.647 -2.79199 -2.28211 0
M  V30 1786 O 162.751 -2.42479 -3.33583 0
M  V30 1787 H 162.092 -0.559649 -0.357336 0
M  V30 1788 H 164.622 -1.97815 -0.522522 0
M  V30 1789 H 164.632 -3.03146 -2.73069 0
M  V30 1790 H 163.307 -3.73906 -1.82118 0
M  V30 1791 H 161.884 -2.29087 -2.94234 0
M  V30 1792 N 164.069 0.697108 -1.41344 0
M  V30 1793 C 165.016 1.81106 -1.43071 0
M  V30 1794 C 165.986 1.63632 -0.285275 0
M  V30 1795 O 167.171 1.84504 -0.486091 0
M  V30 1796 C 164.311 3.18975 -1.31715 0
M  V30 1797 C 163.424 3.47892 -2.56115 0
M  V30 1798 C 162.559 4.75367 -2.37064 0
M  V30 1799 C 161.598 4.97247 -3.56948 0
M  V30 1800 N 160.735 6.15947 -3.36977 0
M  V30 1801 H 165.575 1.78965 -2.38276 0
M  V30 1802 H 163.112 0.873975 -1.18322 0
M  V30 1803 H 165.07 3.98615 -1.23133 0
M  V30 1804 H 163.7 3.20297 -0.401183 0
M  V30 1805 H 162.752 2.62669 -2.75153 0
M  V30 1806 H 164.064 3.59962 -3.45295 0
M  V30 1807 H 163.218 5.63059 -2.25941 0
M  V30 1808 H 161.957 4.65541 -1.45338 0
M  V30 1809 H 160.962 4.08004 -3.68527 0
M  V30 1810 H 162.187 5.08934 -4.49626 0
M  V30 1811 H 160.133 6.07336 -2.47949 0
M  V30 1812 H 160.05 6.28777 -4.19732 0
M  V30 1813 H 161.318 7.06377 -3.29623 0
M  V30 1814 N 165.547 1.27147 0.931209 0
M  V30 1815 C 166.494 1.09568 2.03134 0
M  V30 1816 C 167.464 -0.00222433 1.661 0
M  V30 1817 O 168.649 0.159439 1.90133 0
M  V30 1818 C 165.789 0.745231 3.36957 0
M  V30 1819 C 164.902 1.92041 3.86968 0
M  V30 1820 C 164.037 1.51216 5.09222 0
M  V30 1821 C 163.076 2.65504 5.5152 0
M  V30 1822 N 162.213 2.25291 6.64972 0
M  V30 1823 H 167.053 2.03708 2.17502 0
M  V30 1824 H 164.59 1.01411 1.06556 0
M  V30 1825 H 166.548 0.522878 4.1391 0
M  V30 1826 H 165.178 -0.159202 3.22407 0
M  V30 1827 H 164.23 2.25541 3.06326 0
M  V30 1828 H 165.542 2.77787 4.1429 0
M  V30 1829 H 164.696 1.25084 5.93666 0
M  V30 1830 H 163.435 0.625749 4.83669 0
M  V30 1831 H 162.44 2.92354 4.65628 0
M  V30 1832 H 163.665 3.54761 5.7907 0
M  V30 1833 H 161.611 1.39098 6.41083 0
M  V30 1834 H 161.528 3.04577 6.91931 0
M  V30 1835 H 162.796 2.02398 7.52765 0
M  V30 1836 N 167.025 -1.13721 1.09112 0
M  V30 1837 C 167.972 -2.19031 0.727591 0
M  V30 1838 C 168.942 -1.63555 -0.289656 0
M  V30 1839 O 170.127 -1.90023 -0.172026 0
M  V30 1840 C 167.267 -3.4477 0.15082 0
M  V30 1841 C 166.38 -4.14365 1.22172 0
M  V30 1842 C 165.515 -5.27709 0.608042 0
M  V30 1843 C 164.554 -5.89147 1.66047 0
M  V30 1844 N 163.691 -6.93929 1.06806 0
M  V30 1845 H 168.531 -2.49475 1.62991 0
M  V30 1846 H 166.068 -1.22499 0.81439 0
M  V30 1847 H 168.026 -4.16714 -0.201358 0
M  V30 1848 H 166.656 -3.14787 -0.714783 0
M  V30 1849 H 165.708 -3.40737 1.69122 0
M  V30 1850 H 167.02 -4.56114 2.01895 0
M  V30 1851 H 166.174 -6.06355 0.204523 0
M  V30 1852 H 164.913 -4.872 -0.220769 0
M  V30 1853 H 163.918 -5.09198 2.07357 0
M  V30 1854 H 165.143 -6.31729 2.49189 0
M  V30 1855 H 163.089 -6.55483 0.260476 0
M  V30 1856 H 163.006 -7.34202 1.8023 0
M  V30 1857 H 164.274 -7.76434 0.690644 0
M  V30 1858 N 168.503 -0.877838 -1.30888 0
M  V30 1859 C 169.466 -0.344265 -2.266 0
M  V30 1860 C 170.466 0.50922 -1.52524 0
M  V30 1861 O 171.656 0.317398 -1.71284 0
M  V30 1862 C 168.788 0.510198 -3.37061 0
M  V30 1863 H 169.981 -1.1893 -2.7531 0
M  V30 1864 H 167.534 -0.654088 -1.41956 0
M  V30 1865 H 168.269 1.37612 -2.93655 0
M  V30 1866 H 168.054 -0.101047 -3.9197 0
M  V30 1867 H 169.544 0.875537 -4.08319 0
M  V30 1868 N 169.982 1.44106 -0.638065 0
M  V30 1869 C 170.914 2.28976 0.101205 0
M  V30 1870 C 171.927 1.4167 0.802088 0
M  V30 1871 O 173.116 1.65755 0.662375 0
M  V30 1872 C 170.216 3.18217 1.16581 0
M  V30 1873 C 169.389 4.33978 0.546066 0
M  V30 1874 C 168.448 5.04202 1.50554 0
M  V30 1875 O 167.474 5.59986 1.01999 0
M  V30 1876 N 168.676 5.06296 2.8398 0
M  V30 1877 H 171.441 2.93064 -0.627186 0
M  V30 1878 H 169.002 1.54629 -0.479731 0
M  V30 1879 H 170.994 3.62061 1.80815 0
M  V30 1880 H 169.564 2.55833 1.79634 0
M  V30 1881 H 168.784 3.93239 -0.275046 0
M  V30 1882 H 170.072 5.08675 0.112793 0
M  V30 1883 H 169.47 4.62319 3.26002 0
M  V30 1884 H 168.027 5.53907 3.43556 0
M  V30 1885 N 171.46 0.379036 1.52974 0
M  V30 1886 C 172.392 -0.495963 2.2377 0
M  V30 1887 C 173.405 -1.03517 1.25651 0
M  V30 1888 O 174.594 -0.939249 1.51791 0
M  V30 1889 C 171.694 -1.69894 2.93239 0
M  V30 1890 C 170.867 -1.2889 4.17979 0
M  V30 1891 C 169.926 -2.35543 4.70538 0
M  V30 1892 O 168.952 -1.97375 5.33883 0
M  V30 1893 N 170.154 -3.67318 4.49508 0
M  V30 1894 H 172.919 0.110523 2.99496 0
M  V30 1895 H 170.48 0.204878 1.60598 0
M  V30 1896 H 172.472 -2.40747 3.25304 0
M  V30 1897 H 171.042 -2.212 2.20883 0
M  V30 1898 H 170.262 -0.409676 3.92065 0
M  V30 1899 H 171.55 -0.991443 4.99047 0
M  V30 1900 H 170.948 -4.01095 3.98923 0
M  V30 1901 H 169.505 -4.34235 4.8609 0
M  V30 1902 N 172.938 -1.57226 0.108567 0
M  V30 1903 C 173.901 -2.13602 -0.831082 0
M  V30 1904 C 174.901 -1.06841 -1.20173 0
M  V30 1905 O 176.091 -1.32666 -1.12895 0
M  V30 1906 C 173.223 -2.66769 -2.12243 0
M  V30 1907 H 174.416 -2.97951 -0.341317 0
M  V30 1908 H 171.969 -1.55667 -0.14057 0
M  V30 1909 H 172.704 -1.85977 -2.65675 0
M  V30 1910 H 172.489 -3.44839 -1.86625 0
M  V30 1911 H 173.979 -3.10332 -2.79435 0
M  V30 1912 N 174.416 0.165178 -1.56732 0
M  V30 1913 C 175.379 1.18822 -1.95995 0
M  V30 1914 C 176.379 1.3685 -0.84431 0
M  V30 1915 O 177.569 1.34152 -1.11126 0
M  V30 1916 C 174.701 2.5521 -2.26011 0
M  V30 1917 H 175.894 0.851825 -2.87548 0
M  V30 1918 H 173.447 0.407857 -1.50885 0
M  V30 1919 H 174.182 2.93852 -1.37191 0
M  V30 1920 H 173.967 2.43489 -3.07336 0
M  V30 1921 H 175.457 3.28927 -2.57288 0
M  V30 1922 N 175.894 1.51508 0.433938 0
M  V30 1923 C 176.857 1.72473 1.50949 0
M  V30 1924 C 177.857 0.594725 1.49398 0
M  V30 1925 O 179.047 0.862315 1.5136 0
M  V30 1926 C 176.179 1.78431 2.90474 0
M  V30 1927 H 177.372 2.68467 1.33662 0
M  V30 1928 H 174.925 1.41549 0.662836 0
M  V30 1929 H 175.66 0.842645 3.13161 0
M  V30 1930 H 175.445 2.60558 2.93005 0
M  V30 1931 H 176.935 1.96479 3.68491 0
M  V30 1932 N 177.372 -0.689602 1.41712 0
M  V30 1933 C 178.649 -1.44457 1.31877 0
M  V30 1934 C 179.029 -2.11039 -0.0508537 0
M  V30 1935 O 178.377 -2.02138 -1.06547 0
M  V30 1936 C 178.587 -2.45913 2.47645 0
M  V30 1937 C 179.935 -3.10991 2.89084 0
M  V30 1938 O 180.959 -2.56238 2.47428 0
M  V30 1939 O 179.818 -4.10174 3.61137 0
M  V30 1940 H 176.912 -0.64362 0.519309 0
M  V30 1941 H 179.458 -0.719576 1.53689 0
M  V30 1942 H 178.23 -1.95409 3.39015 0
M  V30 1943 H 177.853 -3.25913 2.27742 0
M  V30 1944 N 178.85 -1.27639 -0.924453 0
M  V30 1945 C 180.078 -1.16989 -1.70649 0
M  V30 1946 C 180.493 0.272869 -1.86818 0
M  V30 1947 O 179.85 1.18549 -1.38753 0
M  V30 1948 C 179.901 -1.85229 -3.10439 0
M  V30 1949 O 179.622 -3.23868 -2.95028 0
M  V30 1950 C 181.123 -1.80746 -4.04779 0
M  V30 1951 H 178.343 -0.406595 -0.53378 0
M  V30 1952 H 180.887 -1.68569 -1.15778 0
M  V30 1953 H 179.042 -1.37545 -3.6216 0
M  V30 1954 H 179.456 -3.57889 -3.83426 0
M  V30 1955 H 180.93 -2.33101 -5.00368 0
M  V30 1956 H 181.407 -0.777499 -4.32263 0
M  V30 1957 H 182.013 -2.28059 -3.58984 0
M  V30 1958 N 180.328 1.1314 -1.09713 0
M  V30 1959 C 181.576 1.84119 -0.833338 0
M  V30 1960 C 181.897 1.84097 0.642904 0
M  V30 1961 O 181.167 1.29881 1.46655 0
M  V30 1962 H 179.747 0.681766 -0.305293 0
M  V30 1963 H 182.409 1.37038 -1.38588 0
M  V30 1964 H 181.505 2.88543 -1.18951 0
M  V30 1965 N 181.806 0.884767 1.30421 0
M  V30 1966 C 182.754 0.340869 2.30089 0
M  V30 1967 C 183.748 -0.55201 1.60154 0
M  V30 1968 O 184.954 -0.436467 1.74628 0
M  V30 1969 H 181.329 0.0915739 0.746404 0
M  V30 1970 H 183.3 1.19513 2.73421 0
M  V30 1971 C 182.049 -0.429779 3.45034 0
M  V30 1972 H 181.372 0.248024 3.9903 0
M  V30 1973 H 182.812 -0.775445 4.16849 0
M  V30 1974 C 181.271 -1.62677 2.95022 0
M  V30 1975 O 181.801 -2.72614 2.95033 0
M  V30 1976 N 180.007 -1.46387 2.51036 0
M  V30 1977 H 179.554 -0.569506 2.51226 0
M  V30 1978 H 179.512 -2.26612 2.17932 0
M  V30 1979 N 183.284 -1.43765 0.645699 0
M  V30 1980 C 184.232 -2.32516 -0.0624849 0
M  V30 1981 C 185.226 -1.48183 -0.820855 0
M  V30 1982 O 186.432 -1.64439 -0.732106 0
M  V30 1983 H 182.807 -0.750989 -0.0389864 0
M  V30 1984 H 184.778 -2.89979 0.703892 0
M  V30 1985 C 183.527 -3.32389 -1.02044 0
M  V30 1986 H 182.85 -3.97301 -0.446312 0
M  V30 1987 H 184.29 -3.97138 -1.48517 0
M  V30 1988 C 182.749 -2.62416 -2.11281 0
M  V30 1989 O 183.279 -2.434 -3.19561 0
M  V30 1990 N 181.485 -2.21913 -1.87624 0
M  V30 1991 H 181.032 -2.37578 -0.995703 0
M  V30 1992 H 180.99 -1.75424 -2.6091 0
M  V30 1993 N 184.763 -0.387143 -1.52771 0
M  V30 1994 C 185.988 0.198407 -2.06449 0
M  V30 1995 C 186.413 1.39918 -1.25716 0
M  V30 1996 O 185.771 1.79099 -0.281657 0
M  V30 1997 C 185.819 0.548893 -3.56398 0
M  V30 1998 O 184.923 1.64315 -3.78252 0
M  V30 1999 H 184.264 0.0237731 -0.663574 0
M  V30 2000 H 186.794 -0.553989 -1.96957 0
M  V30 2001 H 186.804 0.813812 -3.99801 0
M  V30 2002 H 185.479 -0.329005 -4.14597 0
M  V30 2003 H 184.056 1.37211 -3.46738 0
M  V30 2004 N 186.241 1.57166 -0.116904 0
M  V30 2005 C 187.173 2.12271 0.864507 0
M  V30 2006 C 188.186 1.06494 1.23138 0
M  V30 2007 O 189.375 1.33873 1.18069 0
M  V30 2008 C 186.475 2.60564 2.16702 0
M  V30 2009 C 185.648 3.90416 1.97216 0
M  V30 2010 C 184.707 4.24329 3.11178 0
M  V30 2011 O 183.733 4.93182 2.84184 0
M  V30 2012 N 184.935 3.8148 4.37554 0
M  V30 2013 H 187.7 2.97102 0.393726 0
M  V30 2014 H 185.261 1.61759 0.0675805 0
M  V30 2015 H 187.253 2.80282 2.91932 0
M  V30 2016 H 185.823 1.80623 2.55135 0
M  V30 2017 H 185.043 3.79627 1.06192 0
M  V30 2018 H 186.331 4.75327 1.81499 0
M  V30 2019 H 185.729 3.25943 4.62361 0
M  V30 2020 H 184.286 4.06311 5.09661 0
M  V30 2021 N 187.719 -0.156864 1.56817 0
M  V30 2022 C 188.965 -0.872416 1.83076 0
M  V30 2023 C 189.298 -1.81261 0.697001 0
M  V30 2024 O 188.573 -1.92171 -0.30008 0
M  V30 2025 C 188.856 -1.65551 3.19789 0
M  V30 2026 C 188.709 -0.737467 4.43713 0
M  V30 2027 C 190.028 -2.62012 3.53606 0
M  V30 2028 H 187.147 -0.315715 0.665953 0
M  V30 2029 H 189.789 -0.138004 1.89498 0
M  V30 2030 H 187.939 -2.28159 3.14445 0
M  V30 2031 H 189.611 -0.123143 4.61136 0
M  V30 2032 H 187.854 -0.0464067 4.33775 0
M  V30 2033 H 188.525 -1.32122 5.35955 0
M  V30 2034 H 191.001 -2.09525 3.59497 0
M  V30 2035 H 189.877 -3.13861 4.50314 0
M  V30 2036 H 190.138 -3.42902 2.79053 0
M  V30 2037 N 189.197 -1.51736 -0.425897 0
M  V30 2038 C 190.422 -1.69082 -1.20108 0
M  V30 2039 C 190.847 -0.392398 -1.83962 0
M  V30 2040 O 190.205 0.64858 -1.69302 0
M  V30 2041 C 190.253 -2.81604 -2.25237 0
M  V30 2042 O 189.357 -2.46004 -3.30992 0
M  V30 2043 H 188.698 -0.563408 -0.35138 0
M  V30 2044 H 191.228 -1.98358 -0.501512 0
M  V30 2045 H 191.238 -3.06025 -2.69838 0
M  V30 2046 H 189.913 -3.75817 -1.78142 0
M  V30 2047 H 188.49 -2.32195 -2.91787 0
M  V30 2048 N 190.675 0.682077 -1.42076 0
M  V30 2049 C 191.607 1.80755 -1.40926 0
M  V30 2050 C 192.62 1.59833 -0.309398 0
M  V30 2051 O 193.809 1.69087 -0.572014 0
M  V30 2052 C 190.909 3.17744 -1.17865 0
M  V30 2053 C 190.082 3.65578 -2.40149 0
M  V30 2054 C 189.141 4.81277 -2.12742 0
M  V30 2055 O 188.167 4.92197 -2.85887 0
M  V30 2056 N 189.369 5.69474 -1.12602 0
M  V30 2057 H 192.134 1.82229 -2.37935 0
M  V30 2058 H 189.695 0.864903 -1.36861 0
M  V30 2059 H 191.687 3.9279 -0.9746 0
M  V30 2060 H 190.257 3.11214 -0.294068 0
M  V30 2061 H 189.477 2.81291 -2.76169 0
M  V30 2062 H 190.765 3.94278 -3.21593 0
M  V30 2063 H 190.163 5.63297 -0.520899 0
M  V30 2064 H 188.72 6.44363 -0.981842 0
M  V30 2065 N 192.153 1.28127 0.917671 0
M  V30 2066 C 193.101 1.11569 2.04096 0
M  V30 2067 C 194.095 0.0360242 1.69362 0
M  V30 2068 O 195.301 0.194501 1.78946 0
M  V30 2069 H 191.676 0.344097 0.668656 0
M  V30 2070 H 193.647 2.06711 2.15205 0
M  V30 2071 C 192.396 0.790197 3.38602 0
M  V30 2072 H 191.719 1.61293 3.6582 0
M  V30 2073 H 193.159 0.714271 4.1794 0
M  V30 2074 C 191.618 -0.505897 3.3308 0
M  V30 2075 O 192.148 -1.53736 3.71117 0
M  V30 2076 N 190.354 -0.505193 2.86175 0
M  V30 2077 H 189.901 0.334621 2.55417 0
M  V30 2078 H 189.859 -1.37243 2.82863 0
M  V30 2079 N 193.631 -1.12557 1.10312 0
M  V30 2080 C 194.861 -1.87592 0.865617 0
M  V30 2081 C 195.269 -1.79851 -0.587389 0
M  V30 2082 O 194.612 -1.16949 -1.41664 0
M  V30 2083 C 194.674 -3.37665 1.23381 0
M  V30 2084 C 194.338 -3.69181 2.69359 0
M  V30 2085 C 195.335 -3.67652 3.67597 0
M  V30 2086 C 193.02 -3.98555 3.05711 0
M  V30 2087 C 195.014 -3.95053 5.00212 0
M  V30 2088 C 192.701 -4.25616 4.38514 0
M  V30 2089 C 193.699 -4.23851 5.35574 0
M  V30 2090 O 193.387 -4.50242 6.65986 0
M  V30 2091 H 193.119 -0.600442 0.310557 0
M  V30 2092 H 195.673 -1.4335 1.47105 0
M  V30 2093 H 193.903 -3.82454 0.571467 0
M  V30 2094 H 195.592 -3.94041 0.973994 0
M  V30 2095 H 196.358 -3.45024 3.40857 0
M  V30 2096 H 192.237 -3.99071 2.30789 0
M  V30 2097 H 195.781 -3.93591 5.75962 0
M  V30 2098 H 191.678 -4.47718 4.64994 0
M  V30 2099 H 192.446 -4.67867 6.71597 0
M  V30 2100 N 195.109 -0.891671 -1.2995 0
M  V30 2101 C 196.52 -0.563104 -1.78006 0
M  V30 2102 C 196.871 0.920978 -1.73241 0
M  V30 2103 O 195.996 1.71987 -1.31337 0
M  V30 2104 C 196.591 -1.01539 -3.23226 0
M  V30 2105 C 195.15 -0.738124 -3.69092 0
M  V30 2106 C 194.297 -1.19461 -2.50249 0
M  V30 2107 H 197.248 -1.07522 -1.16725 0
M  V30 2108 H 197.269 -0.347217 -3.78912 0
M  V30 2109 H 196.781 -2.09555 -3.26662 0
M  V30 2110 H 194.882 0.329766 -3.71138 0
M  V30 2111 H 194.995 -1.33037 -4.60259 0
M  V30 2112 H 193.359 -0.613787 -2.47194 0
M  V30 2113 H 194.142 -2.28265 -2.56417 0
M  V30 2114 N 196.587 1.43421 -0.653314 0
M  V30 2115 C 197.836 2.01032 -0.164076 0
M  V30 2116 C 198.149 1.52147 1.22926 0
M  V30 2117 O 199.355 2.02031 1.81371 0
M  V30 2118 C 197.811 3.59082 -0.24252 0
M  V30 2119 C 197.419 4.1696 -1.63855 0
M  V30 2120 C 199.163 4.24079 0.18911 0
M  V30 2121 C 197.07 5.67304 -1.67092 0
M  V30 2122 H 196 0.751798 -0.0575769 0
M  V30 2123 H 198.651 1.6439 -0.815362 0
M  V30 2124 H 197.033 3.93125 0.476276 0
M  V30 2125 H 198.207 3.94416 -2.38271 0
M  V30 2126 H 196.522 3.64335 -2.01616 0
M  V30 2127 H 199.119 5.34381 0.184775 0
M  V30 2128 H 199.462 3.98005 1.22056 0
M  V30 2129 H 199.995 3.94918 -0.477938 0
M  V30 2130 H 196.734 5.98145 -2.68146 0
M  V30 2131 H 196.254 5.91904 -0.970014 0
M  V30 2132 H 197.933 6.31344 -1.4147 0
M  V30 2133 N 198.065 0.39524 1.52563 0
M  V30 2134 C 199.311 -0.185318 2.01952 0
M  V30 2135 C 199.644 -1.45964 1.28095 0
M  V30 2136 O 198.919 -1.90689 0.38315 0
M  V30 2137 C 199.202 -0.447193 3.57312 0
M  V30 2138 C 199.055 0.842828 4.41833 0
M  V30 2139 C 200.374 -1.23529 4.22408 0
M  V30 2140 H 197.493 -0.0658788 0.73405 0
M  V30 2141 H 200.135 0.525975 1.82575 0
M  V30 2142 H 198.285 -1.05312 3.73954 0
M  V30 2143 H 199.957 1.4795 4.36931 0
M  V30 2144 H 198.2 1.45686 4.08605 0
M  V30 2145 H 198.871 0.614165 5.48573 0
M  V30 2146 H 201.347 -0.722445 4.0978 0
M  V30 2147 H 200.223 -1.38727 5.3108 0
M  V30 2148 H 200.484 -2.25213 3.80436 0
M  V30 2149 N 199.544 -1.57102 0.125237 0
M  V30 2150 C 200.476 -2.12726 -0.853237 0
M  V30 2151 C 201.489 -1.07145 -1.22571 0
M  V30 2152 O 202.678 -1.34497 -1.17358 0
M  V30 2153 C 199.778 -2.61709 -2.15317 0
M  V30 2154 C 198.951 -3.91456 -1.95143 0
M  V30 2155 C 198.01 -4.25973 -3.08923 0
M  V30 2156 O 197.036 -4.94682 -2.81564 0
M  V30 2157 N 198.238 -3.83795 -4.35524 0
M  V30 2158 H 201.003 -2.97307 -0.377964 0
M  V30 2159 H 198.564 -1.61792 -0.0590011 0
M  V30 2160 H 200.556 -2.81826 -2.90441 0
M  V30 2161 H 199.126 -1.81974 -2.54174 0
M  V30 2162 H 198.346 -3.80185 -1.04177 0
M  V30 2163 H 199.634 -4.76283 -1.78976 0
M  V30 2164 H 199.032 -3.2839 -4.60626 0
M  V30 2165 H 197.589 -4.09008 -5.07499 0
M  V30 2166 N 201.022 0.148545 -1.56898 0
M  V30 2167 C 201.97 1.20265 -1.99096 0
M  V30 2168 C 202.964 1.44559 -0.883123 0
M  V30 2169 O 204.17 1.4487 -1.0683 0
M  V30 2170 H 200.545 0.404786 -0.63376 0
M  V30 2171 H 202.516 0.82004 -2.86911 0
M  V30 2172 C 201.265 2.52886 -2.3863 0
M  V30 2173 H 200.588 2.35021 -3.23427 0
M  V30 2174 H 202.028 3.25274 -2.7198 0
M  V30 2175 C 200.487 3.13315 -1.23837 0
M  V30 2176 O 201.017 3.98077 -0.538268 0
M  V30 2177 N 199.223 2.72742 -1.00301 0
M  V30 2178 H 198.77 2.03912 -1.5741 0
M  V30 2179 H 198.728 3.13507 -0.236838 0
M  V30 2180 N 202.5 1.5196 0.417844 0
M  V30 2181 C 203.43 1.77634 1.51554 0
M  V30 2182 C 204.411 0.626918 1.58126 0
M  V30 2183 O 205.596 0.871632 1.7354 0
M  V30 2184 C 202.726 1.91911 2.8946 0
M  V30 2185 C 201.68 3.07463 2.97743 0
M  V30 2186 C 201.006 3.06951 4.37819 0
M  V30 2187 C 202.306 4.47082 2.70027 0
M  V30 2188 H 204 2.6955 1.3032 0
M  V30 2189 H 201.546 1.29706 0.625492 0
M  V30 2190 H 203.499 2.08455 3.6623 0
M  V30 2191 H 202.223 0.966598 3.11969 0
M  V30 2192 H 200.882 2.90656 2.23416 0
M  V30 2193 H 200.53 2.09438 4.57323 0
M  V30 2194 H 200.23 3.84556 4.44286 0
M  V30 2195 H 201.754 3.25613 5.16535 0
M  V30 2196 H 203.168 4.6414 3.36522 0
M  V30 2197 H 201.565 5.2654 2.87881 0
M  V30 2198 H 202.635 4.55777 1.65514 0
M  V30 2199 N 203.978 -0.674533 1.42435 0
M  V30 2200 C 204.91 -1.80005 1.41883 0
M  V30 2201 C 205.923 -1.59667 0.31787 0
M  V30 2202 O 207.112 -1.68781 0.580973 0
M  V30 2203 C 204.212 -3.17114 1.19549 0
M  V30 2204 C 203.385 -3.64299 2.42084 0
M  V30 2205 C 202.444 -4.80142 2.15291 0
M  V30 2206 O 201.47 -4.90673 2.88493 0
M  V30 2207 N 202.672 -5.68869 1.1562 0
M  V30 2208 H 205.437 -1.80964 2.38898 0
M  V30 2209 H 202.998 -0.857633 1.37318 0
M  V30 2210 H 204.99 -3.92267 0.995417 0
M  V30 2211 H 203.56 -3.11053 0.310569 0
M  V30 2212 H 202.78 -2.79822 2.77657 0
M  V30 2213 H 204.068 -3.92567 3.23679 0
M  V30 2214 H 203.466 -5.63012 0.550765 0
M  V30 2215 H 202.023 -6.43833 1.016 0
M  V30 2216 N 205.456 -1.28612 -0.910864 0
M  V30 2217 C 206.704 -1.15705 -1.65701 0
M  V30 2218 C 207.025 0.29416 -1.92769 0
M  V30 2219 O 206.295 1.20331 -1.54588 0
M  V30 2220 H 204.875 -0.425216 -0.614167 0
M  V30 2221 H 207.537 -1.61381 -1.0928 0
M  V30 2222 H 206.633 -1.6988 -2.61815 0
M  V30 2223 N 206.934 1.1197 -1.10907 0
M  V30 2224 C 207.866 2.17592 -0.720175 0
M  V30 2225 C 208.879 1.60938 0.245495 0
M  V30 2226 O 210.068 1.78476 0.0292245 0
M  V30 2227 C 207.168 3.38873 -0.0427917 0
M  V30 2228 C 206.341 4.25006 -1.03388 0
M  V30 2229 C 205.4 5.24774 -0.387075 0
M  V30 2230 O 204.426 5.59631 -1.03934 0
M  V30 2231 N 205.628 5.74208 0.852407 0
M  V30 2232 H 208.393 2.51567 -1.62893 0
M  V30 2233 H 205.954 1.27439 -0.998543 0
M  V30 2234 H 207.946 4.02703 0.401501 0
M  V30 2235 H 206.516 3.03007 0.768456 0
M  V30 2236 H 205.736 3.57716 -1.65629 0
M  V30 2237 H 207.024 4.79397 -1.70458 0
M  V30 2238 H 206.422 5.48062 1.40161 0
M  V30 2239 H 204.979 6.39901 1.23977 0
M  V30 2240 N 208.412 0.89855 1.29475 0
M  V30 2241 C 209.345 0.319981 2.25945 0
M  V30 2242 C 210.323 -0.567189 1.52387 0
M  V30 2243 O 211.507 -0.514254 1.8135 0
M  V30 2244 C 208.634 -0.544013 3.34303 0
M  V30 2245 C 207.68 0.275682 4.25608 0
M  V30 2246 S 208.513 1.67272 5.08704 0
M  V30 2247 C 209.669 0.815621 6.20563 0
M  V30 2248 H 209.902 1.13767 2.74671 0
M  V30 2249 H 207.435 0.69882 1.3768 0
M  V30 2250 H 209.393 -1.03673 3.97193 0
M  V30 2251 H 208.054 -1.33593 2.84274 0
M  V30 2252 H 207.247 -0.384263 5.02533 0
M  V30 2253 H 206.849 0.701496 3.67362 0
M  V30 2254 H 209.141 0.0385042 6.77489 0
M  V30 2255 H 210.084 1.55691 6.90772 0
M  V30 2256 H 210.492 0.370516 5.63283 0
M  V30 2257 N 209.89 -1.43072 0.660911 0
M  V30 2258 C 211.136 -2.0202 0.177708 0
M  V30 2259 C 211.469 -1.52066 -1.20787 0
M  V30 2260 O 210.744 -0.716987 -1.80802 0
M  V30 2261 C 211.027 -3.59561 0.197019 0
M  V30 2262 C 210.88 -4.19727 1.61706 0
M  V30 2263 C 212.199 -4.37664 -0.462396 0
M  V30 2264 H 209.318 -0.734034 0.0660494 0
M  V30 2265 H 211.96 -1.70272 0.843058 0
M  V30 2266 H 210.11 -3.86739 -0.369527 0
M  V30 2267 H 211.782 -4.03553 2.23479 0
M  V30 2268 H 210.025 -3.76084 2.16201 0
M  V30 2269 H 210.696 -5.28834 1.58237 0
M  V30 2270 H 213.172 -4.16095 0.0197215 0
M  V30 2271 H 212.048 -5.47305 -0.418188 0
M  V30 2272 H 212.309 -4.14493 -1.53778 0
M  V30 2273 N 211.368 -0.403325 -1.52352 0
M  V30 2274 C 212.318 0.442244 -2.2367 0
M  V30 2275 C 213.302 1.01823 -1.24583 0
M  V30 2276 O 214.494 0.942005 -1.49851 0
M  V30 2277 C 211.623 1.5615 -3.05732 0
M  V30 2278 C 210.709 0.996575 -4.12225 0
M  V30 2279 N 211.1 0.157804 -5.05554 0
M  V30 2280 C 209.398 1.26767 -4.27605 0
M  V30 2281 C 210.099 -0.155853 -5.81491 0
M  V30 2282 N 209.075 0.451775 -5.41719 0
M  V30 2283 H 212.877 -0.204964 -2.93184 0
M  V30 2284 H 210.391 -0.213418 -1.60992 0
M  V30 2285 H 212.388 2.17981 -3.55373 0
M  V30 2286 H 211.048 2.21139 -2.37755 0
M  V30 2287 H 212.059 -0.206049 -5.1749 0
M  V30 2288 H 208.736 1.91757 -3.70858 0
M  V30 2289 H 210.126 -0.836329 -6.66675 0
M  V30 2290 N 212.846 1.57033 -0.133567 0
M  V30 2291 C 213.778 2.13176 0.841944 0
M  V30 2292 C 214.791 1.07794 1.22001 0
M  V30 2293 O 215.98 1.35117 1.16643 0
M  V30 2294 C 213.08 2.62847 2.13926 0
M  V30 2295 C 212.253 3.92486 1.93064 0
M  V30 2296 C 211.312 4.27605 3.0666 0
M  V30 2297 O 210.338 4.96168 2.78937 0
M  V30 2298 N 211.54 3.861 4.33483 0
M  V30 2299 H 214.305 2.97503 0.362192 0
M  V30 2300 H 211.866 1.61821 0.05042 0
M  V30 2301 H 213.858 2.83363 2.88942 0
M  V30 2302 H 212.428 1.83319 2.53205 0
M  V30 2303 H 211.648 3.80732 1.02159 0
M  V30 2304 H 212.936 4.77225 1.76447 0
M  V30 2305 H 212.334 3.30828 4.58878 0
M  V30 2306 H 210.891 4.11694 5.05323 0
M  V30 2307 N 214.325 -0.140222 1.56975 0
M  V30 2308 C 215.288 -1.15689 1.97861 0
M  V30 2309 C 216.288 -1.3549 0.865974 0
M  V30 2310 O 217.478 -1.32367 1.13246 0
M  V30 2311 C 214.61 -2.51582 2.30042 0
M  V30 2312 H 215.803 -0.805971 2.88867 0
M  V30 2313 H 213.356 -0.383801 1.51515 0
M  V30 2314 H 214.091 -2.91632 1.41849 0
M  V30 2315 H 213.876 -2.38569 3.11171 0
M  V30 2316 H 215.366 -3.24792 2.62488 0
M  V30 2317 N 215.803 -1.52179 -0.40978 0
M  V30 2318 C 217.052 -1.65434 -1.15388 0
M  V30 2319 C 217.365 -0.390056 -1.91671 0
M  V30 2320 O 218.571 -0.402399 -2.68501 0
M  V30 2321 C 217.027 -2.92279 -2.10003 0
M  V30 2322 C 216.635 -4.25813 -1.39239 0
M  V30 2323 C 218.379 -3.14897 -2.84675 0
M  V30 2324 C 216.286 -5.43782 -2.32498 0
M  V30 2325 H 215.216 -0.616267 -0.434432 0
M  V30 2326 H 217.867 -1.78666 -0.418401 0
M  V30 2327 H 216.249 -2.72744 -2.871 0
M  V30 2328 H 217.423 -4.55828 -0.675099 0
M  V30 2329 H 215.738 -4.09292 -0.766097 0
M  V30 2330 H 218.335 -4.0021 -3.54593 0
M  V30 2331 H 218.678 -2.29103 -3.47588 0
M  V30 2332 H 219.211 -3.34901 -2.14677 0
M  V30 2333 H 215.95 -6.3192 -1.74233 0
M  V30 2334 H 215.47 -5.18106 -3.02201 0
M  V30 2335 H 217.149 -5.76834 -2.93038 0
M  V30 2336 N 217.281 0.66697 -1.42791 0
M  V30 2337 C 218.506 1.46004 -1.47301 0
M  V30 2338 C 218.931 1.87894 -0.0880317 0
M  V30 2339 O 218.289 1.56502 0.915253 0
M  V30 2340 C 218.337 2.68031 -2.41229 0
M  V30 2341 O 217.441 3.6659 -1.88906 0
M  V30 2342 H 216.782 0.43832 -0.49877 0
M  V30 2343 H 219.312 0.817391 -1.87563 0
M  V30 2344 H 219.322 3.1601 -2.58073 0
M  V30 2345 H 217.997 2.36883 -3.41847 0
M  V30 2346 H 216.574 3.25661 -1.81656 0
M  V30 2347 N 218.759 1.29093 0.90403 0
M  V30 2348 C 220.17 1.15186 1.46932 0
M  V30 2349 C 220.521 -0.254587 1.94541 0
M  V30 2350 O 219.646 -1.14972 1.83332 0
M  V30 2351 C 220.241 2.08492 2.67051 0
M  V30 2352 C 218.8 1.98621 3.19729 0
M  V30 2353 C 217.947 1.9967 1.92425 0
M  V30 2354 H 220.898 1.41641 0.715789 0
M  V30 2355 H 220.919 1.65461 3.42641 0
M  V30 2356 H 220.431 3.10847 2.3237 0
M  V30 2357 H 218.532 0.993389 3.59114 0
M  V30 2358 H 218.645 2.86068 3.8432 0
M  V30 2359 H 217.009 1.44208 2.09943 0
M  V30 2360 H 217.792 3.03721 1.60026 0
M  V30 2361 N 220.237 -1.11381 1.11499 0
M  V30 2362 C 221.653 -1.35143 0.849031 0
M  V30 2363 C 221.853 -1.94515 -0.525938 0
M  V30 2364 O 220.909 -2.1785 -1.27662 0
M  V30 2365 C 222.222 -2.28249 1.95762 0
M  V30 2366 C 223.77 -2.41812 1.98736 0
M  V30 2367 C 224.245 -3.3824 3.088 0
M  V30 2368 N 225.736 -3.45803 3.08179 0
M  V30 2369 C 226.471 -4.20358 3.89982 0
M  V30 2370 N 225.967 -4.97884 4.8175 0
M  V30 2371 N 227.76 -4.15877 3.78157 0
M  V30 2372 H 219.911 -0.712062 2.00109 0
M  V30 2373 H 222.174 -0.376025 0.870235 0
M  V30 2374 H 221.88 -1.91817 2.94787 0
M  V30 2375 H 221.754 -3.28473 1.85433 0
M  V30 2376 H 224.141 -2.77518 1.00338 0
M  V30 2377 H 224.222 -1.41437 2.13141 0
M  V30 2378 H 223.866 -3.03261 4.07425 0
M  V30 2379 H 223.796 -4.38471 2.91635 0
M  V30 2380 H 226.287 -2.90506 2.41691 0
M  V30 2381 H 226.6 -5.52142 5.40702 0
M  V30 2382 H 224.945 -4.97043 4.85771 0
M  V30 2383 H 228.136 -3.544 3.05808 0
M  V30 2384 H 228.309 -4.73723 4.42143 0
M  V30 2385 N 221.715 -0.905404 -1.28997 0
M  V30 2386 C 222.943 -0.549846 -1.9946 0
M  V30 2387 C 223.358 0.866834 -1.67724 0
M  V30 2388 O 222.715 1.57298 -0.925404 0
M  V30 2389 C 222.766 -0.739387 -3.53858 0
M  V30 2390 O 222.487 -2.10031 -3.84472 0
M  V30 2391 C 223.988 -0.389541 -4.41585 0
M  V30 2392 H 221.208 -0.210429 -0.637151 0
M  V30 2393 H 223.752 -1.21632 -1.64396 0
M  V30 2394 H 221.907 -0.120023 -3.87214 0
M  V30 2395 H 222.321 -2.13385 -4.79132 0
M  V30 2396 H 223.795 -0.572972 -5.49018 0
M  V30 2397 H 224.272 0.673756 -4.34001 0
M  V30 2398 H 224.878 -0.986089 -4.1371 0
M  V30 2399 N 223.193 1.4272 -0.668489 0
M  V30 2400 C 224.123 2.335 -0.000100175 0
M  V30 2401 C 225.104 1.50328 0.795964 0
M  V30 2402 O 226.289 1.78949 0.754385 0
M  V30 2403 C 223.419 3.33874 0.956302 0
M  V30 2404 C 222.373 4.27152 0.269278 0
M  V30 2405 C 221.699 5.17684 1.33818 0
M  V30 2406 C 222.999 5.15373 -0.847805 0
M  V30 2407 H 224.693 2.89639 -0.758244 0
M  V30 2408 H 222.239 1.39269 -0.366079 0
M  V30 2409 H 224.192 3.9629 1.43292 0
M  V30 2410 H 222.916 2.76025 1.74579 0
M  V30 2411 H 221.575 3.66123 -0.187042 0
M  V30 2412 H 221.223 4.56165 2.1195 0
M  V30 2413 H 220.923 5.80918 0.883659 0
M  V30 2414 H 222.447 5.82974 1.81586 0
M  V30 2415 H 223.861 5.7151 -0.452681 0
M  V30 2416 H 222.258 5.87407 -1.22773 0
M  V30 2417 H 223.328 4.5415 -1.69929 0
M  V30 2418 N 224.671 0.411399 1.52136 0
M  V30 2419 C 225.619 -0.427633 2.28635 0
M  V30 2420 C 226.613 -1.04383 1.33419 0
M  V30 2421 O 227.819 -0.981772 1.50868 0
M  V30 2422 H 224.194 -0.156689 0.735495 0
M  V30 2423 H 226.165 0.238761 2.97443 0
M  V30 2424 C 224.914 -1.53082 3.12188 0
M  V30 2425 H 224.237 -1.06601 3.85326 0
M  V30 2426 H 225.677 -2.09167 3.68816 0
M  V30 2427 C 224.136 -2.49946 2.25895 0
M  V30 2428 O 224.666 -3.53884 1.90076 0
M  V30 2429 N 222.872 -2.2021 1.8962 0
M  V30 2430 H 222.419 -1.35719 2.18948 0
M  V30 2431 H 222.377 -2.85266 1.32176 0
M  V30 2432 N 226.149 -1.5696 0.141893 0
M  V30 2433 C 227.112 -2.15316 -0.785587 0
M  V30 2434 C 228.112 -1.09366 -1.1788 0
M  V30 2435 O 229.302 -1.35031 -1.10056 0
M  V30 2436 C 226.434 -2.71211 -2.06537 0
M  V30 2437 H 227.627 -2.98608 -0.278041 0
M  V30 2438 H 225.18 -1.5593 -0.107519 0
M  V30 2439 H 225.915 -1.91571 -2.6167 0
M  V30 2440 H 225.7 -3.4872 -1.79268 0
M  V30 2441 H 227.19 -3.16189 -2.72789 0
M  V30 2442 N 227.627 0.131896 -1.57047 0
M  V30 2443 C 228.873 0.838268 -1.85323 0
M  V30 2444 C 229.228 1.78098 -0.727937 0
M  V30 2445 O 228.521 1.89645 0.27304 0
M  V30 2446 C 228.715 1.63703 -3.17704 0
M  V30 2447 C 228.544 0.773167 -4.43004 0
M  V30 2448 C 227.314 0.432956 -5.03442 0
M  V30 2449 C 229.512 0.0966216 -5.14209 0
M  V30 2450 N 227.494 -0.442924 -6.123 0
M  V30 2451 C 228.865 -0.638778 -6.16701 0
M  V30 2452 C 230.92 0.018861 -4.97896 0
M  V30 2453 C 229.623 -1.44462 -7.04644 0
M  V30 2454 C 231.649 -0.773762 -5.86316 0
M  V30 2455 C 231.011 -1.4974 -6.883 0
M  V30 2456 H 227.11 0.284086 -0.728573 0
M  V30 2457 H 229.694 0.102731 -1.94429 0
M  V30 2458 H 227.865 2.3437 -3.09718 0
M  V30 2459 H 229.597 2.28774 -3.33833 0
M  V30 2460 H 226.352 0.772237 -4.67262 0
M  V30 2461 H 226.776 -0.872332 -6.71356 0
M  V30 2462 H 231.418 0.56397 -4.19022 0
M  V30 2463 H 229.136 -2.00093 -7.82936 0
M  V30 2464 H 232.722 -0.83612 -5.75761 0
M  V30 2465 H 231.602 -2.10087 -7.55535 0
M  V30 2466 N 229.106 1.52395 0.401703 0
M  V30 2467 C 230.352 1.67065 1.14966 0
M  V30 2468 C 230.685 0.403052 1.89971 0
M  V30 2469 O 229.96 -0.598774 1.85054 0
M  V30 2470 C 230.243 2.8975 2.13815 0
M  V30 2471 C 230.096 4.26578 1.42658 0
M  V30 2472 C 231.415 3.07965 3.14397 0
M  V30 2473 H 228.534 0.607968 0.416587 0
M  V30 2474 H 231.176 1.84965 0.434511 0
M  V30 2475 H 229.326 2.74619 2.74803 0
M  V30 2476 H 230.998 4.53451 0.847329 0
M  V30 2477 H 229.241 4.27639 0.72849 0
M  V30 2478 H 229.912 5.08483 2.14823 0
M  V30 2479 H 232.388 3.22043 2.63491 0
M  V30 2480 H 231.264 3.95308 3.80819 0
M  V30 2481 H 231.525 2.21611 3.82545 0
M  V30 2482 N 230.584 -0.659388 1.43143 0
M  V30 2483 C 231.531 -1.77249 1.47822 0
M  V30 2484 C 232.501 -1.62818 0.328558 0
M  V30 2485 O 233.686 -1.83151 0.534838 0
M  V30 2486 C 230.826 -3.15371 1.40126 0
M  V30 2487 C 229.939 -3.4098 2.65249 0
M  V30 2488 C 229.074 -4.68915 2.49584 0
M  V30 2489 C 228.113 -4.87608 3.70006 0
M  V30 2490 N 227.25 -6.06796 3.53189 0
M  V30 2491 H 232.09 -1.72584 2.42938 0
M  V30 2492 H 229.627 -0.842297 1.20598 0
M  V30 2493 H 231.585 -3.9521 1.33659 0
M  V30 2494 H 230.215 -3.19121 0.485964 0
M  V30 2495 H 229.267 -2.55282 2.8202 0
M  V30 2496 H 230.579 -3.50681 3.54717 0
M  V30 2497 H 229.733 -5.56871 2.4079 0
M  V30 2498 H 228.472 -4.61524 1.5763 0
M  V30 2499 H 227.477 -3.9809 3.79215 0
M  V30 2500 H 228.702 -4.96834 4.62961 0
M  V30 2501 H 226.648 -6.00549 2.63965 0
M  V30 2502 H 226.565 -6.17428 4.36255 0
M  V30 2503 H 227.833 -6.9739 3.48236 0
M  V30 2504 N 232.062 -1.29571 -0.897171 0
M  V30 2505 C 233.308 -1.17863 -1.65034 0
M  V30 2506 C 233.641 0.268729 -1.92332 0
M  V30 2507 O 232.916 1.19378 -1.53555 0
M  V30 2508 C 233.199 -1.995 -2.99786 0
M  V30 2509 C 233.052 -3.5239 -2.79538 0
M  V30 2510 C 234.371 -1.82335 -4.00552 0
M  V30 2511 H 231.49 -0.429528 -0.598895 0
M  V30 2512 H 234.132 -1.59072 -1.03905 0
M  V30 2513 H 232.282 -1.64485 -3.51962 0
M  V30 2514 H 233.954 -3.97401 -2.34244 0
M  V30 2515 H 232.197 -3.77187 -2.14273 0
M  V30 2516 H 232.868 -4.04787 -3.75302 0
M  V30 2517 H 235.344 -2.12924 -3.57495 0
M  V30 2518 H 234.22 -2.41801 -4.92771 0
M  V30 2519 H 234.481 -0.779209 -4.35179 0
M  V30 2520 N 233.54 1.10788 -1.12088 0
M  V30 2521 C 234.786 1.82942 -0.875226 0
M  V30 2522 C 235.119 1.84779 0.597538 0
M  V30 2523 O 234.394 1.30578 1.44152 0
M  V30 2524 C 234.677 3.29789 -1.44606 0
M  V30 2525 C 234.53 3.36307 -2.98693 0
M  V30 2526 C 235.849 4.26064 -1.10261 0
M  V30 2527 H 232.968 0.664195 -0.319397 0
M  V30 2528 H 235.61 1.29867 -1.38689 0
M  V30 2529 H 233.76 3.75118 -1.01089 0
M  V30 2530 H 235.432 2.99487 -3.50864 0
M  V30 2531 H 233.675 2.76318 -3.34411 0
M  V30 2532 H 234.346 4.39694 -3.33726 0
M  V30 2533 H 236.822 3.88951 -1.4784 0
M  V30 2534 H 235.698 5.27183 -1.52869 0
M  V30 2535 H 235.959 4.42098 -0.0142953 0
M  V30 2536 N 235.018 0.912232 1.28515 0
M  V30 2537 C 235.928 0.404506 2.31086 0
M  V30 2538 C 236.944 -0.50707 1.66448 0
M  V30 2539 O 238.12 -0.393624 1.97516 0
M  V30 2540 C 235.185 -0.348572 3.44943 0
M  V30 2541 C 234.246 0.59604 4.25142 0
M  V30 2542 C 233.479 -0.121194 5.33562 0
M  V30 2543 O 233.702 -1.34317 5.5436 0
M  V30 2544 O 232.636 0.542716 5.99448 0
M  V30 2545 H 236.462 1.25579 2.76521 0
M  V30 2546 H 234.047 0.676998 1.33181 0
M  V30 2547 H 235.929 -0.77395 4.14232 0
M  V30 2548 H 234.604 -1.17571 3.01594 0
M  V30 2549 H 233.511 1.07079 3.58448 0
M  V30 2550 H 234.844 1.38995 4.72167 0
M  V30 2551 N 236.496 -1.42363 0.676048 0
M  V30 2552 C 237.406 -2.346 -0.00153389 0
M  V30 2553 C 238.422 -1.5516 -0.787485 0
M  V30 2554 O 239.598 -1.87723 -0.729521 0
M  V30 2555 C 236.663 -3.33705 -0.940298 0
M  V30 2556 C 235.724 -4.29042 -0.148739 0
M  V30 2557 C 234.957 -5.23413 -1.04279 0
M  V30 2558 O 235.18 -5.22749 -2.28232 0
M  V30 2559 O 234.114 -5.99795 -0.502925 0
M  V30 2560 H 237.94 -2.94082 0.758268 0
M  V30 2561 H 235.525 -1.42888 0.436289 0
M  V30 2562 H 237.407 -3.94586 -1.47917 0
M  V30 2563 H 236.082 -2.76695 -1.67993 0
M  V30 2564 H 234.989 -3.71571 0.43427 0
M  V30 2565 H 236.322 -4.89097 0.551805 0
M  V30 2566 N 237.974 -0.419461 -1.51915 0
M  V30 2567 C 238.921 0.400927 -2.27291 0
M  V30 2568 C 239.891 1.03224 -1.30131 0
M  V30 2569 O 241.076 1.05455 -1.59009 0
M  V30 2570 C 238.216 1.50603 -3.10504 0
M  V30 2571 C 237.329 0.89462 -4.22635 0
M  V30 2572 C 236.464 1.97328 -4.93189 0
M  V30 2573 C 235.503 1.33935 -5.97267 0
M  V30 2574 N 234.64 2.3586 -6.61298 0
M  V30 2575 H 239.48 -0.248251 -2.96964 0
M  V30 2576 H 237.017 -0.134266 -1.46486 0
M  V30 2577 H 238.975 2.15783 -3.57062 0
M  V30 2578 H 237.605 2.12509 -2.42981 0
M  V30 2579 H 236.657 0.131583 -3.80172 0
M  V30 2580 H 237.969 0.391641 -4.9726 0
M  V30 2581 H 237.123 2.70211 -5.43204 0
M  V30 2582 H 235.862 2.50994 -4.18155 0
M  V30 2583 H 234.867 0.595896 -5.46561 0
M  V30 2584 H 236.092 0.810252 -6.74249 0
M  V30 2585 H 234.038 2.88639 -5.89087 0
M  V30 2586 H 233.955 1.90403 -7.3163 0
M  V30 2587 H 235.223 3.08282 -7.15949 0
M  V30 2588 N 239.452 1.56882 -0.150215 0
M  V30 2589 C 240.415 2.1573 0.774157 0
M  V30 2590 C 241.415 1.0999 1.17298 0
M  V30 2591 O 242.605 1.35613 1.09338 0
M  V30 2592 C 239.737 2.72302 2.05096 0
M  V30 2593 H 240.93 2.98752 0.262201 0
M  V30 2594 H 238.483 1.55985 0.099248 0
M  V30 2595 H 239.218 1.92956 2.6065 0
M  V30 2596 H 239.003 3.49665 1.77416 0
M  V30 2597 H 240.493 3.17632 2.71109 0
M  V30 2598 N 240.93 -0.123565 1.57115 0
M  V30 2599 C 242.177 -0.832153 1.84612 0
M  V30 2600 C 242.505 -1.80093 0.734627 0
M  V30 2601 O 241.76 -1.93766 -0.27442 0
M  V30 2602 C 242.059 -1.62016 3.18568 0
M  V30 2603 C 241.725 -0.796084 4.43817 0
M  V30 2604 C 240.387 -0.568816 4.77826 0
M  V30 2605 C 242.739 -0.221364 5.2073 0
M  V30 2606 C 240.067 0.243499 5.86194 0
M  V30 2607 C 242.419 0.578117 6.29953 0
M  V30 2608 C 241.083 0.815744 6.62497 0
M  V30 2609 H 240.353 -0.304507 0.675542 0
M  V30 2610 H 243 -0.0947248 1.91266 0
M  V30 2611 H 241.305 -2.42837 3.0747 0
M  V30 2612 H 243.002 -2.17231 3.37064 0
M  V30 2613 H 239.592 -0.983307 4.17168 0
M  V30 2614 H 243.776 -0.384173 4.94811 0
M  V30 2615 H 239.032 0.436871 6.09837 0
M  V30 2616 H 243.206 1.03046 6.88734 0
M  V30 2617 H 240.833 1.44701 7.46301 0
M  V30 2618 N 242.408 -1.52605 -0.393616 0
M  V30 2619 C 243.633 -1.71592 -1.16495 0
M  V30 2620 C 244.058 -0.43133 -1.83088 0
M  V30 2621 O 243.416 0.612523 -1.7064 0
M  V30 2622 C 243.464 -2.86318 -2.19213 0
M  V30 2623 O 242.568 -2.52969 -3.257 0
M  V30 2624 H 241.909 -0.570734 -0.33935 0
M  V30 2625 H 244.439 -1.99377 -0.459324 0
M  V30 2626 H 244.449 -3.1168 -2.63286 0
M  V30 2627 H 243.124 -3.79511 -1.7013 0
M  V30 2628 H 241.701 -2.38332 -2.86797 0
M  V30 2629 N 243.887 0.651787 -1.4349 0
M  V30 2630 C 245.298 1.233 -1.40193 0
M  V30 2631 C 245.649 1.9591 -0.106727 0
M  V30 2632 O 244.774 2.01316 0.793773 0
M  V30 2633 C 245.369 2.24257 -2.53957 0
M  V30 2634 C 243.928 2.77852 -2.5392 0
M  V30 2635 C 243.075 1.52517 -2.3159 0
M  V30 2636 H 246.026 0.443717 -1.52371 0
M  V30 2637 H 246.047 3.0646 -2.25528 0
M  V30 2638 H 245.559 1.71382 -3.4821 0
M  V30 2639 H 243.66 3.34786 -1.63551 0
M  V30 2640 H 243.773 3.25299 -3.51735 0
M  V30 2641 H 242.137 1.79915 -1.80285 0
M  V30 2642 H 242.92 1.01574 -3.27929 0
M  V30 2643 N 245.365 1.30045 0.890287 0
M  V30 2644 C 246.275 1.17885 2.02831 0
M  V30 2645 C 247.291 0.0999609 1.73713 0
M  V30 2646 O 248.467 0.313867 1.98939 0
M  V30 2647 C 245.532 0.866079 3.35708 0
M  V30 2648 C 244.593 2.02979 3.78283 0
M  V30 2649 C 243.826 1.73184 5.0482 0
M  V30 2650 O 244.049 0.657237 5.66601 0
M  V30 2651 O 242.983 2.58267 5.43674 0
M  V30 2652 H 246.809 2.13474 2.16015 0
M  V30 2653 H 244.394 1.09587 1.01543 0
M  V30 2654 H 246.276 0.706623 4.15433 0
M  V30 2655 H 244.951 -0.0599443 3.23644 0
M  V30 2656 H 243.858 2.24454 2.99285 0
M  V30 2657 H 245.191 2.93734 3.94944 0
M  V30 2658 N 246.843 -1.10192 1.12674 0
M  V30 2659 C 248.089 -1.82475 0.884915 0
M  V30 2660 C 248.422 -1.85093 -0.58773 0
M  V30 2661 O 247.697 -1.3134 -1.43457 0
M  V30 2662 C 247.98 -3.29018 1.46353 0
M  V30 2663 C 247.833 -3.34718 3.00473 0
M  V30 2664 C 249.152 -4.25473 1.12519 0
M  V30 2665 H 246.271 -0.662492 0.322915 0
M  V30 2666 H 248.913 -1.2913 1.39375 0
M  V30 2667 H 247.063 -3.74576 1.03077 0
M  V30 2668 H 248.735 -2.97622 3.52447 0
M  V30 2669 H 246.978 -2.74541 3.35872 0
M  V30 2670 H 247.649 -4.37918 3.36053 0
M  V30 2671 H 250.125 -3.88161 1.499 0
M  V30 2672 H 249.001 -5.26365 1.55663 0
M  V30 2673 H 249.262 -4.42084 0.0377407 0
M  V30 2674 N 248.321 -0.919034 -1.28029 0
M  V30 2675 C 249.57 -0.550802 -1.94034 0
M  V30 2676 C 249.883 0.910877 -1.73096 0
M  V30 2677 O 251.089 1.3875 -2.33368 0
M  V30 2678 C 249.545 -0.934249 -3.47563 0
M  V30 2679 C 249.153 -2.41602 -3.7727 0
M  V30 2680 C 250.897 -0.636854 -4.19696 0
M  V30 2681 C 248.804 -2.73932 -5.24133 0
M  V30 2682 H 247.734 -0.202273 -0.726362 0
M  V30 2683 H 250.385 -1.11867 -1.45458 0
M  V30 2684 H 248.767 -0.295115 -3.94899 0
M  V30 2685 H 249.941 -3.10233 -3.40723 0
M  V30 2686 H 248.256 -2.68441 -3.18321 0
M  V30 2687 H 250.853 -0.855005 -5.2782 0
M  V30 2688 H 251.196 0.425575 -4.14119 0
M  V30 2689 H 251.729 -1.23469 -3.78154 0
M  V30 2690 H 248.468 -3.79049 -5.34792 0
M  V30 2691 H 247.988 -2.09942 -5.61858 0
M  V30 2692 H 249.667 -2.61215 -5.91925 0
M  V30 2693 N 249.799 1.42003 -0.683588 0
M  V30 2694 C 251.21 1.84501 -0.285736 0
M  V30 2695 C 251.561 1.57213 1.17382 0
M  V30 2696 O 250.686 1.03642 1.89966 0
M  V30 2697 C 251.281 3.34912 -0.511821 0
M  V30 2698 C 249.84 3.76025 -0.168005 0
M  V30 2699 C 248.987 2.6551 -0.799983 0
M  V30 2700 H 251.938 1.31724 -0.885119 0
M  V30 2701 H 251.959 3.79784 0.233292 0
M  V30 2702 H 251.471 3.54741 -1.57418 0
M  V30 2703 H 249.572 3.61801 0.890567 0
M  V30 2704 H 249.685 4.75141 -0.614661 0
M  V30 2705 H 248.049 2.53654 -0.230568 0
M  V30 2706 H 248.832 2.8816 -1.86597 0
M  V30 2707 N 251.277 0.427512 1.51691 0
M  V30 2708 C 252.21 -0.433876 2.24037 0
M  V30 2709 C 253.188 -1.03287 1.25581 0
M  V30 2710 O 254.372 -1.07722 1.54688 0
M  V30 2711 C 251.499 -1.60385 2.98319 0
M  V30 2712 C 250.545 -1.12648 4.11355 0
M  V30 2713 S 251.378 -0.076543 5.35445 0
M  V30 2714 C 252.534 -1.25141 6.13262 0
M  V30 2715 H 252.767 0.180367 2.96752 0
M  V30 2716 H 250.3 0.211946 1.52938 0
M  V30 2717 H 252.258 -2.27462 3.41718 0
M  V30 2718 H 250.919 -2.18948 2.25213 0
M  V30 2719 H 250.112 -2.0011 4.62571 0
M  V30 2720 H 249.714 -0.534088 3.70167 0
M  V30 2721 H 252.006 -2.17162 6.41753 0
M  V30 2722 H 252.949 -0.779411 7.03797 0
M  V30 2723 H 253.357 -1.48553 5.44603 0
M  V30 2724 N 252.755 -1.56801 0.158532 0
M  V30 2725 C 254.002 -1.9649 -0.489679 0
M  V30 2726 C 254.33 -1.04394 -1.6411 0
M  V30 2727 O 253.585 -0.0754401 -1.95555 0
M  V30 2728 C 253.884 -3.4235 -1.02623 0
M  V30 2729 C 253.55 -4.50899 0.00794526 0
M  V30 2730 C 252.212 -4.80312 0.292207 0
M  V30 2731 C 254.564 -5.16333 0.710584 0
M  V30 2732 C 251.892 -5.72461 1.28472 0
M  V30 2733 C 254.244 -6.09553 1.69199 0
M  V30 2734 C 252.908 -6.37339 1.98383 0
M  V30 2735 H 252.178 -0.719009 -0.179186 0
M  V30 2736 H 254.825 -1.8989 0.247798 0
M  V30 2737 H 253.13 -3.45838 -1.84128 0
M  V30 2738 H 254.827 -3.70393 -1.53656 0
M  V30 2739 H 251.417 -4.28015 -0.22379 0
M  V30 2740 H 255.601 -4.93732 0.504174 0
M  V30 2741 H 250.857 -5.92278 1.51714 0
M  V30 2742 H 255.031 -6.59327 2.24189 0
M  V30 2743 H 252.658 -7.08546 2.7544 0
M  V30 2744 N 254.233 0.115231 -1.57178 0
M  V30 2745 C 255.458 0.840354 -1.89612 0
M  V30 2746 C 255.883 1.72464 -0.750845 0
M  V30 2747 O 255.241 1.78826 0.298478 0
M  V30 2748 C 255.289 1.64654 -3.20814 0
M  V30 2749 O 254.393 2.7538 -3.06985 0
M  V30 2750 H 253.734 0.232158 -0.622092 0
M  V30 2751 H 256.264 0.0964977 -2.04372 0
M  V30 2752 H 256.274 2.03499 -3.53627 0
M  V30 2753 H 254.949 0.997416 -4.03763 0
M  V30 2754 H 253.526 2.3971 -2.85646 0
M  V30 2755 N 255.711 1.52812 0.385517 0
M  V30 2756 C 256.674 1.77188 1.45386 0
M  V30 2757 C 257.674 0.641953 1.4743 0
M  V30 2758 O 258.864 0.910033 1.4854 0
M  V30 2759 C 255.996 1.87582 2.8465 0
M  V30 2760 H 257.189 2.72583 1.25054 0
M  V30 2761 H 254.742 1.43586 0.617467 0
M  V30 2762 H 255.477 0.941849 3.10322 0
M  V30 2763 H 255.262 2.69748 2.84567 0
M  V30 2764 H 256.752 2.08102 3.62054 0
M  V30 2765 N 257.189 -0.644168 1.43834 0
M  V30 2766 C 258.119 -1.76814 1.52509 0
M  V30 2767 C 259.1 -1.65823 0.379052 0
M  V30 2768 O 260.285 -1.84781 0.597466 0
M  V30 2769 C 257.415 -3.15288 1.4564 0
M  V30 2770 C 256.369 -3.41053 2.58586 0
M  V30 2771 C 255.695 -4.79421 2.36769 0
M  V30 2772 C 256.995 -3.34902 4.00797 0
M  V30 2773 H 258.689 -1.69812 2.46586 0
M  V30 2774 H 256.235 -0.815542 1.1868 0
M  V30 2775 H 258.188 -3.93681 1.50311 0
M  V30 2776 H 256.912 -3.23043 0.480725 0
M  V30 2777 H 255.571 -2.65035 2.53282 0
M  V30 2778 H 255.219 -4.83863 1.37424 0
M  V30 2779 H 254.919 -4.9762 3.12487 0
M  V30 2780 H 256.443 -5.6006 2.43238 0
M  V30 2781 H 257.857 -4.03218 4.07539 0
M  V30 2782 H 256.254 -3.64637 4.76613 0
M  V30 2783 H 257.324 -2.32928 4.25291 0
M  V30 2784 N 258.668 -1.30515 -0.883378 0
M  V30 2785 C 259.893 -1.22487 -1.67367 0
M  V30 2786 C 260.318 0.208767 -1.86938 0
M  V30 2787 O 259.676 1.15015 -1.40148 0
M  V30 2788 C 259.724 -1.96041 -3.02655 0
M  V30 2789 O 258.828 -1.28859 -3.91751 0
M  V30 2790 H 258.169 -0.423573 -0.511353 0
M  V30 2791 H 260.699 -1.72362 -1.10239 0
M  V30 2792 H 260.709 -2.05124 -3.52687 0
M  V30 2793 H 259.384 -3.00307 -2.8773 0
M  V30 2794 H 257.961 -1.28141 -3.50192 0
M  V30 2795 N 260.146 1.09593 -1.13257 0
M  V30 2796 C 261.056 2.19739 -0.821691 0
M  V30 2797 C 262.072 1.72926 0.19302 0
M  V30 2798 O 263.248 2.01385 0.0244895 0
M  V30 2799 C 260.313 3.45482 -0.290333 0
M  V30 2800 C 259.374 4.06985 -1.36607 0
M  V30 2801 C 258.607 5.26726 -0.859975 0
M  V30 2802 O 258.83 5.69594 0.303082 0
M  V30 2803 O 257.764 5.7931 -1.63351 0
M  V30 2804 H 261.59 2.48781 -1.74189 0
M  V30 2805 H 259.175 1.18496 -0.909894 0
M  V30 2806 H 261.057 4.214 0.000674022 0
M  V30 2807 H 259.732 3.18047 0.602306 0
M  V30 2808 H 258.639 3.32712 -1.71037 0
M  V30 2809 H 259.972 4.38643 -2.23279 0
M  V30 2810 N 261.624 0.925811 1.2754 0
M  V30 2811 C 262.872 0.564138 1.94067 0
M  V30 2812 C 263.193 -0.897188 1.73134 0
M  V30 2813 O 262.463 -1.63573 1.07799 0
M  V30 2814 H 261.043 0.205645 0.718136 0
M  V30 2815 H 263.705 1.1778 1.55287 0
M  V30 2816 H 262.801 0.76881 3.02483 0
M  V30 2817 N 263.102 -1.41638 0.69111 0
M  V30 2818 C 264.065 -2.29178 0.0319786 0
M  V30 2819 C 265.065 -1.44153 -0.712496 0
M  V30 2820 O 266.255 -1.65354 -0.548053 0
M  V30 2821 C 263.387 -3.26952 -0.965161 0
M  V30 2822 H 264.58 -2.88959 0.802681 0
M  V30 2823 H 262.133 -1.4955 0.454356 0
M  V30 2824 H 262.868 -2.72142 -1.76378 0
M  V30 2825 H 262.653 -3.89685 -0.434522 0
M  V30 2826 H 264.143 -3.92561 -1.42428 0
M  V30 2827 N 264.58 -0.43555 -1.51462 0
M  V30 2828 C 265.808 0.130242 -2.0649 0
M  V30 2829 C 266.223 1.36614 -1.30315 0
M  V30 2830 O 265.58 1.78869 -0.362223 0
M  V30 2831 C 265.631 0.454253 -3.58635 0
M  V30 2832 O 265.352 -0.73259 -4.31931 0
M  V30 2833 C 266.853 1.07091 -4.3017 0
M  V30 2834 H 264.073 0.00871669 -0.670943 0
M  V30 2835 H 266.617 -0.614117 -1.95061 0
M  V30 2836 H 264.772 1.14851 -3.69984 0
M  V30 2837 H 265.186 -0.455787 -5.22516 0
M  V30 2838 H 266.66 1.24764 -5.37716 0
M  V30 2839 H 267.137 2.05144 -3.88346 0
M  V30 2840 H 267.743 0.416089 -4.2326 0
M  V30 2841 N 266.058 1.56714 -0.166846 0
M  V30 2842 C 267.469 1.83378 0.350646 0
M  V30 2843 C 267.82 1.08646 1.63372 0
M  V30 2844 O 266.945 0.338058 2.13743 0
M  V30 2845 C 267.54 3.32643 0.642963 0
M  V30 2846 C 266.099 3.59818 1.10491 0
M  V30 2847 C 265.246 2.76954 0.138411 0
M  V30 2848 H 268.197 1.53803 -0.391193 0
M  V30 2849 H 268.218 3.49878 1.49551 0
M  V30 2850 H 267.73 3.87007 -0.291055 0
M  V30 2851 H 265.831 3.1086 2.05418 0
M  V30 2852 H 265.944 4.68178 1.01716 0
M  V30 2853 H 264.308 2.4666 0.634911 0
M  V30 2854 H 265.091 3.34097 -0.789549 0
M  V30 2855 N 267.536 -0.106894 1.57237 0
M  V30 2856 C 268.468 -1.15646 1.97885 0
M  V30 2857 C 269.481 -1.36981 0.879779 0
M  V30 2858 O 270.67 -1.35841 1.15799 0
M  V30 2859 C 267.77 -2.51425 2.27241 0
M  V30 2860 C 266.943 -2.50529 3.58545 0
M  V30 2861 C 266.002 -3.68145 3.75973 0
M  V30 2862 O 265.028 -3.51176 4.47956 0
M  V30 2863 N 266.23 -4.87177 3.15656 0
M  V30 2864 H 268.995 -0.81059 2.8853 0
M  V30 2865 H 266.556 -0.296024 1.59171 0
M  V30 2866 H 268.548 -3.28689 2.36105 0
M  V30 2867 H 267.118 -2.78147 1.42663 0
M  V30 2868 H 266.338 -1.58894 3.60758 0
M  V30 2869 H 267.626 -2.46997 4.44826 0
M  V30 2870 H 267.024 -5.03868 2.57165 0
M  V30 2871 H 265.581 -5.62075 3.30023 0
M  V30 2872 N 269.014 -1.53014 -0.377408 0
M  V30 2873 C 270.291 -1.59215 -1.13622 0
M  V30 2874 C 270.671 -0.392407 -2.07421 0
M  V30 2875 O 270.019 0.618342 -2.19975 0
M  V30 2876 C 270.229 -2.93669 -1.88573 0
M  V30 2877 C 271.577 -3.47822 -2.43526 0
M  V30 2878 O 272.601 -2.9562 -1.98715 0
M  V30 2879 O 271.46 -4.39055 -3.25412 0
M  V30 2880 H 268.554 -0.642625 -0.52054 0
M  V30 2881 H 271.1 -1.65353 -0.381625 0
M  V30 2882 H 269.872 -3.7243 -1.20048 0
M  V30 2883 H 269.495 -2.90968 -2.70968 0
M  V30 2884 N 270.492 0.636531 -1.44174 0
M  V30 2885 C 271.422 1.76003 -1.53444 0
M  V30 2886 C 272.403 1.65619 -0.387841 0
M  V30 2887 O 273.588 1.84461 -0.607257 0
M  V30 2888 C 270.718 3.14511 -1.4731 0
M  V30 2889 C 269.672 3.39677 -2.60391 0
M  V30 2890 C 268.998 4.78159 -2.39308 0
M  V30 2891 C 270.298 3.32772 -4.02567 0
M  V30 2892 H 271.992 1.68501 -2.47483 0
M  V30 2893 H 269.538 0.809237 -1.19111 0
M  V30 2894 H 271.491 3.92878 -1.52397 0
M  V30 2895 H 270.215 3.22783 -0.49785 0
M  V30 2896 H 268.874 2.63688 -2.54684 0
M  V30 2897 H 268.522 4.83128 -1.39988 0
M  V30 2898 H 268.222 4.95956 -3.15122 0
M  V30 2899 H 269.746 5.58762 -2.46205 0
M  V30 2900 H 271.16 4.01051 -4.09672 0
M  V30 2901 H 269.557 3.62104 -4.7854 0
M  V30 2902 H 270.627 2.30669 -4.2652 0
M  V30 2903 N 271.97 1.30982 0.876444 0
M  V30 2904 C 272.918 1.18006 2.00443 0
M  V30 2905 C 273.912 0.0898871 1.69161 0
M  V30 2906 O 275.118 0.251333 1.78237 0
M  V30 2907 H 271.493 0.365196 0.65737 0
M  V30 2908 H 273.464 2.13453 2.0852 0
M  V30 2909 C 272.213 0.897521 3.35916 0
M  V30 2910 H 271.536 1.7285 3.60504 0
M  V30 2911 H 272.976 0.846874 4.15456 0
M  V30 2912 C 271.435 -0.399674 3.34521 0
M  V30 2913 O 271.965 -1.41852 3.7582 0
M  V30 2914 N 270.171 -0.413893 2.87637 0
M  V30 2915 H 269.718 0.41571 2.54224 0
M  V30 2916 H 269.676 -1.28175 2.87086 0
M  V30 2917 N 273.449 -1.08991 1.13837 0
M  V30 2918 C 274.677 -1.85011 0.926202 0
M  V30 2919 C 275.092 -1.8135 -0.525127 0
M  V30 2920 O 274.449 -1.21287 -1.36366 0
M  V30 2921 C 274.5 -3.32802 1.41155 0
M  V30 2922 O 274.221 -3.36444 2.80601 0
M  V30 2923 C 275.722 -4.25649 1.23847 0
M  V30 2924 H 272.942 -0.584249 0.32999 0
M  V30 2925 H 275.486 -1.37688 1.51202 0
M  V30 2926 H 273.641 -3.77536 0.868631 0
M  V30 2927 H 274.055 -4.28657 3.02248 0
M  V30 2928 H 275.529 -5.27485 1.62675 0
M  V30 2929 H 276.006 -4.38828 0.18065 0
M  V30 2930 H 276.612 -3.86735 1.76964 0
M  V30 2931 N 274.927 -0.932562 -1.27047 0
M  V30 2932 C 275.86 -0.379774 -2.25018 0
M  V30 2933 C 276.838 0.526587 -1.53837 0
M  V30 2934 O 278.022 0.465992 -1.82649 0
M  V30 2935 C 275.149 0.455187 -3.35627 0
M  V30 2936 C 274.195 -0.388428 -4.24728 0
M  V30 2937 S 275.028 -1.80701 -5.04091 0
M  V30 2938 C 276.184 -0.979865 -6.18182 0
M  V30 2939 H 276.417 -1.2101 -2.71558 0
M  V30 2940 H 273.95 -0.735078 -1.35779 0
M  V30 2941 H 275.908 0.931052 -3.99802 0
M  V30 2942 H 274.569 1.26009 -2.87716 0
M  V30 2943 H 273.762 0.25089 -5.03375 0
M  V30 2944 H 273.364 -0.798649 -3.65373 0
M  V30 2945 H 275.656 -0.218115 -6.77149 0
M  V30 2946 H 276.599 -1.73951 -6.86401 0
M  V30 2947 H 277.007 -0.51973 -5.62102 0
M  V30 2948 N 276.405 1.4127 -0.698611 0
M  V30 2949 C 277.335 2.33447 -0.049629 0
M  V30 2950 C 278.316 1.51982 0.763898 0
M  V30 2951 O 279.501 1.80509 0.716257 0
M  V30 2952 C 276.631 3.35828 0.885267 0
M  V30 2953 C 275.585 4.27627 0.178613 0
M  V30 2954 C 274.911 5.20406 1.22807 0
M  V30 2955 C 276.211 5.13459 -0.956933 0
M  V30 2956 H 277.905 2.87966 -0.81951 0
M  V30 2957 H 275.451 1.38461 -0.395538 0
M  V30 2958 H 277.404 3.9924 1.34854 0
M  V30 2959 H 276.128 2.79666 1.68685 0
M  V30 2960 H 274.787 3.65643 -0.26466 0
M  V30 2961 H 274.435 4.60558 2.02226 0
M  V30 2962 H 274.135 5.82661 0.760239 0
M  V30 2963 H 275.659 5.86695 1.69179 0
M  V30 2964 H 277.073 5.70421 -0.573805 0
M  V30 2965 H 275.47 5.8467 -1.35205 0
M  V30 2966 H 276.54 4.50443 -1.79524 0
M  V30 2967 N 277.883 0.443576 1.51229 0
M  V30 2968 C 278.831 -0.37904 2.29491 0
M  V30 2969 C 279.825 -1.0153 1.35603 0
M  V30 2970 O 281.031 -0.94955 1.52917 0
M  V30 2971 H 277.406 -0.141053 0.738653 0
M  V30 2972 H 279.377 0.301799 2.9687 0
M  V30 2973 C 278.126 -1.46426 3.15364 0
M  V30 2974 H 277.449 -0.984037 3.87501 0
M  V30 2975 H 278.889 -2.01297 3.7317 0
M  V30 2976 C 277.348 -2.45099 2.31146 0
M  V30 2977 O 277.878 -3.49773 1.9754 0
M  V30 2978 N 276.084 -2.16139 1.94249 0
M  V30 2979 H 275.631 -1.31044 2.21777 0
M  V30 2980 H 275.589 -2.82398 1.38198 0
M  V30 2981 N 279.361 -1.56624 0.175154 0
M  V30 2982 C 280.589 -2.01374 -0.474971 0
M  V30 2983 C 281.004 -1.05537 -1.56548 0
M  V30 2984 O 280.361 -0.0568668 -1.82411 0
M  V30 2985 C 280.412 -3.45923 -1.04975 0
M  V30 2986 O 280.133 -4.381 -0.00276605 0
M  V30 2987 C 281.634 -4.06093 -1.77773 0
M  V30 2988 H 278.854 -0.659962 -0.121206 0
M  V30 2989 H 281.398 -2.02601 0.27801 0
M  V30 2990 H 279.553 -3.45458 -1.75321 0
M  V30 2991 H 279.967 -5.22753 -0.427681 0
M  V30 2992 H 281.441 -5.09147 -2.13245 0
M  V30 2993 H 281.918 -3.48405 -2.67414 0
M  V30 2994 H 282.524 -4.10272 -1.12059 0
M  V30 2995 N 280.839 0.0985539 -1.57292 0
M  V30 2996 C 282.085 0.803867 -1.86188 0
M  V30 2997 C 282.418 1.78549 -0.763794 0
M  V30 2998 O 281.693 1.93153 0.22855 0
M  V30 2999 C 281.976 1.53568 -3.25713 0
M  V30 3000 C 281.829 0.572277 -4.46145 0
M  V30 3001 C 283.148 2.48708 -3.63087 0
M  V30 3002 H 280.267 0.290781 -0.677211 0
M  V30 3003 H 282.909 0.0675783 -1.8988 0
M  V30 3004 H 281.059 2.16332 -3.22696 0
M  V30 3005 H 282.731 -0.0480894 -4.61275 0
M  V30 3006 H 280.974 -0.114618 -4.33649 0
M  V30 3007 H 281.645 1.12139 -5.40489 0
M  V30 3008 H 284.121 1.96039 -3.67026 0
M  V30 3009 H 282.997 2.96932 -4.61652 0
M  V30 3010 H 283.258 3.32309 -2.91588 0
M  V30 3011 N 282.317 1.53212 0.369288 0
M  V30 3012 C 283.565 1.68881 1.11012 0
M  V30 3013 C 283.886 0.441285 1.89941 0
M  V30 3014 O 283.156 -0.544623 1.88177 0
M  V30 3015 H 281.736 0.622569 0.412816 0
M  V30 3016 H 284.398 1.90391 0.416802 0
M  V30 3017 H 283.494 2.54822 1.80201 0
M  V30 3018 N 283.795 -0.628877 1.44509 0
M  V30 3019 C 285.043 -1.38565 1.4712 0
M  V30 3020 C 285.364 -1.94712 0.105899 0
M  V30 3021 O 284.634 -1.75912 -0.862079 0
M  V30 3022 H 283.214 -0.514333 0.541729 0
M  V30 3023 H 285.876 -0.740018 1.80305 0
M  V30 3024 H 284.972 -2.21583 2.19789 0
M  V30 3025 N 285.273 -1.31445 -0.869486 0
M  V30 3026 C 286.223 -1.15731 -1.96444 0
M  V30 3027 C 287.207 -0.0681855 -1.60755 0
M  V30 3028 O 288.399 -0.293154 -1.74555 0
M  V30 3029 C 285.528 -0.867255 -3.32165 0
M  V30 3030 C 284.614 -1.99738 -3.74119 0
M  V30 3031 N 285.005 -3.24447 -3.88031 0
M  V30 3032 C 283.303 -1.89723 -4.03635 0
M  V30 3033 C 284.004 -3.98374 -4.23879 0
M  V30 3034 N 282.98 -3.26547 -4.3459 0
M  V30 3035 H 286.782 -2.10296 -2.05312 0
M  V30 3036 H 284.296 -1.23009 -1.06031 0
M  V30 3037 H 286.293 -0.735668 -4.10358 0
M  V30 3038 H 284.953 0.0701614 -3.24624 0
M  V30 3039 H 285.964 -3.59557 -3.72746 0
M  V30 3040 H 282.641 -1.03449 -4.04481 0
M  V30 3041 H 284.031 -5.05844 -4.42235 0
M  V30 3042 N 286.751 1.08385 -1.14413 0
M  V30 3043 C 287.683 2.1519 -0.789036 0
M  V30 3044 C 288.696 1.61638 0.19417 0
M  V30 3045 O 289.885 1.78479 -0.0275711 0
M  V30 3046 C 286.985 3.38565 -0.15058 0
M  V30 3047 C 286.158 4.21501 -1.16857 0
M  V30 3048 C 285.217 5.23277 -0.553832 0
M  V30 3049 O 284.243 5.56041 -1.21686 0
M  V30 3050 N 285.445 5.76629 0.669296 0
M  V30 3051 H 288.21 2.46257 -1.70814 0
M  V30 3052 H 285.771 1.24198 -1.03858 0
M  V30 3053 H 287.763 4.03777 0.273181 0
M  V30 3054 H 286.333 3.05299 0.671667 0
M  V30 3055 H 285.553 3.52265 -1.76926 0
M  V30 3056 H 286.841 4.73731 -1.85624 0
M  V30 3057 H 286.239 5.52243 1.22654 0
M  V30 3058 H 284.796 6.43521 1.03556 0
M  V30 3059 N 288.23 0.939286 1.26551 0
M  V30 3060 C 289.193 0.451987 2.24699 0
M  V30 3061 C 290.193 -0.435869 1.5478 0
M  V30 3062 O 291.383 -0.235314 1.72603 0
M  V30 3063 C 288.515 -0.348801 3.39111 0
M  V30 3064 H 289.708 1.3193 2.69322 0
M  V30 3065 H 287.261 0.721072 1.38673 0
M  V30 3066 H 287.996 -1.23444 2.99887 0
M  V30 3067 H 287.781 0.287945 3.91041 0
M  V30 3068 H 289.271 -0.679726 4.12031 0
M  V30 3069 N 289.708 -1.40897 0.706093 0
M  V30 3070 C 290.671 -2.29131 0.0562841 0
M  V30 3071 C 291.671 -1.44901 -0.697166 0
M  V30 3072 O 292.861 -1.65926 -0.530484 0
M  V30 3073 C 289.993 -3.27957 -0.93043 0
M  V30 3074 H 291.186 -2.88091 0.833284 0
M  V30 3075 H 288.739 -1.4906 0.470192 0
M  V30 3076 H 289.474 -2.73997 -1.73482 0
M  V30 3077 H 289.259 -3.90124 -0.393166 0
M  V30 3078 H 290.749 -3.94049 -1.38256 0
M  V30 3079 N 291.186 -0.45159 -1.50991 0
M  V30 3080 C 292.119 0.398179 -2.24699 0
M  V30 3081 C 293.097 1.01276 -1.27208 0
M  V30 3082 O 294.281 1.05247 -1.56382 0
M  V30 3083 C 291.408 1.55618 -3.00833 0
M  V30 3084 C 290.454 1.0609 -4.13095 0
M  V30 3085 S 291.287 -0.00865136 -5.35499 0
M  V30 3086 C 292.443 1.15369 -6.15175 0
M  V30 3087 H 292.676 -0.227555 -2.96428 0
M  V30 3088 H 290.209 -0.236251 -1.52582 0
M  V30 3089 H 292.167 2.21997 -3.45293 0
M  V30 3090 H 290.828 2.15337 -2.28667 0
M  V30 3091 H 290.021 1.92726 -4.65696 0
M  V30 3092 H 289.623 0.47513 -3.7097 0
M  V30 3093 H 291.915 2.06925 -6.45126 0
M  V30 3094 H 292.858 0.667344 -7.04948 0
M  V30 3095 H 293.266 1.3987 -5.46897 0
M  V30 3096 N 292.664 1.56529 -0.183458 0
M  V30 3097 C 293.596 2.15747 0.773697 0
M  V30 3098 C 294.609 1.1162 1.1851 0
M  V30 3099 O 295.798 1.3876 1.12285 0
M  V30 3100 C 292.898 2.6952 2.05456 0
M  V30 3101 C 292.071 3.98429 1.8048 0
M  V30 3102 C 291.13 4.37145 2.92901 0
M  V30 3103 O 290.156 5.04791 2.6301 0
M  V30 3104 N 291.358 3.99695 4.2098 0
M  V30 3105 H 294.123 2.98505 0.26736 0
M  V30 3106 H 291.684 1.619 -0.0010878 0
M  V30 3107 H 293.676 2.92412 2.79781 0
M  V30 3108 H 292.246 1.91282 2.47245 0
M  V30 3109 H 291.466 3.8379 0.899947 0
M  V30 3110 H 292.754 4.82597 1.61175 0
M  V30 3111 H 292.152 3.4526 4.48121 0
M  V30 3112 H 290.709 4.27562 4.9197 0
M  V30 3113 N 294.142 -0.090211 1.57342 0
M  V30 3114 C 295.075 -1.14035 1.97664 0
M  V30 3115 C 296.053 -1.38576 0.850616 0
M  V30 3116 O 297.237 -1.52255 1.11134 0
M  V30 3117 C 294.364 -2.48854 2.2976 0
M  V30 3118 C 293.41 -2.40564 3.52181 0
M  V30 3119 S 294.243 -1.81745 5.03715 0
M  V30 3120 C 295.399 -3.18178 5.38993 0
M  V30 3121 H 295.632 -0.796636 2.86428 0
M  V30 3122 H 293.165 -0.298072 1.51496 0
M  V30 3123 H 295.123 -3.26413 2.48927 0
M  V30 3124 H 293.784 -2.80393 1.41558 0
M  V30 3125 H 292.977 -3.39942 3.72096 0
M  V30 3126 H 292.579 -1.71135 3.32549 0
M  V30 3127 H 294.871 -4.14461 5.35937 0
M  V30 3128 H 295.814 -3.03062 6.39968 0
M  V30 3129 H 296.222 -3.17935 4.66452 0
M  V30 3130 N 295.62 -1.53406 -0.361157 0
M  V30 3131 C 296.55 -1.83136 -1.44857 0
M  V30 3132 C 297.531 -0.685174 -1.5569 0
M  V30 3133 O 298.716 -0.93544 -1.70186 0
M  V30 3134 C 295.846 -2.02522 -2.82138 0
M  V30 3135 C 294.8 -3.18302 -2.86126 0
M  V30 3136 C 294.126 -3.22989 -4.26125 0
M  V30 3137 C 295.426 -4.56796 -2.53248 0
M  V30 3138 H 297.12 -2.74201 -1.20226 0
M  V30 3139 H 294.666 -1.31938 -0.576922 0
M  V30 3140 H 296.619 -2.21904 -3.58241 0
M  V30 3141 H 295.343 -1.08172 -3.08166 0
M  V30 3142 H 294.002 -2.98747 -2.12475 0
M  V30 3143 H 293.65 -2.26267 -4.49235 0
M  V30 3144 H 293.35 -4.00781 -4.29708 0
M  V30 3145 H 294.874 -3.44559 -5.04094 0
M  V30 3146 H 296.288 -4.7631 -3.19064 0
M  V30 3147 H 294.685 -5.36862 -2.68141 0
M  V30 3148 H 295.755 -4.61606 -1.48484 0
M  V30 3149 N 297.098 0.621204 -1.44841 0
M  V30 3150 C 298.045 1.73267 -1.5247 0
M  V30 3151 C 299.015 1.6189 -0.371611 0
M  V30 3152 O 300.2 1.81668 -0.58321 0
M  V30 3153 C 297.34 3.11545 -1.48438 0
M  V30 3154 C 296.453 3.33827 -2.74196 0
M  V30 3155 C 295.588 4.62133 -2.61929 0
M  V30 3156 C 294.627 4.77627 -3.82804 0
M  V30 3157 N 293.764 5.97219 -3.69153 0
M  V30 3158 H 298.604 1.66082 -2.47428 0
M  V30 3159 H 296.141 0.810026 -1.22788 0
M  V30 3160 H 298.099 3.91528 -1.4409 0
M  V30 3161 H 296.729 3.1772 -0.570402 0
M  V30 3162 H 295.781 2.47715 -2.88689 0
M  V30 3163 H 297.093 3.41153 -3.6389 0
M  V30 3164 H 296.247 5.50291 -2.5547 0
M  V30 3165 H 294.986 4.57182 -1.69811 0
M  V30 3166 H 293.991 3.87896 -3.89637 0
M  V30 3167 H 295.216 4.84385 -4.75971 0
M  V30 3168 H 293.162 5.93339 -2.79794 0
M  V30 3169 H 293.079 6.05644 -4.52472 0
M  V30 3170 H 294.347 6.87912 -3.66603 0
M  V30 3171 N 298.576 1.31904 0.862503 0
M  V30 3172 C 299.486 1.22161 2.00285 0
M  V30 3173 C 300.502 0.136785 1.73462 0
M  V30 3174 O 301.678 0.355994 1.98229 0
M  V30 3175 C 298.743 0.937093 3.33796 0
M  V30 3176 C 297.804 2.10957 3.73893 0
M  V30 3177 C 297.037 1.83853 5.01033 0
M  V30 3178 O 297.26 0.777274 5.65079 0
M  V30 3179 O 296.194 2.69741 5.38074 0
M  V30 3180 H 300.02 2.18008 2.11439 0
M  V30 3181 H 297.605 1.11716 0.991957 0
M  V30 3182 H 299.487 0.794583 4.13841 0
M  V30 3183 H 298.162 0.00871894 3.23699 0
M  V30 3184 H 297.069 2.30752 2.94456 0
M  V30 3185 H 298.402 3.02046 3.88625 0
M  V30 3186 N 300.054 -1.07777 1.14986 0
M  V30 3187 C 301.282 -1.84018 0.945773 0
M  V30 3188 C 301.697 -1.81897 -0.505863 0
M  V30 3189 O 301.054 -1.22726 -1.35072 0
M  V30 3190 C 301.105 -3.31287 1.44677 0
M  V30 3191 O 300.826 -3.33449 2.84154 0
M  V30 3192 C 302.327 -4.24311 1.28355 0
M  V30 3193 H 299.547 -0.580716 0.336169 0
M  V30 3194 H 302.091 -1.36077 1.52654 0
M  V30 3195 H 300.246 -3.76594 0.908625 0
M  V30 3196 H 300.66 -4.25427 3.06777 0
M  V30 3197 H 302.134 -5.2573 1.68261 0
M  V30 3198 H 302.611 -4.38612 0.227184 0
M  V30 3199 H 303.217 -3.84836 1.81056 0
M  V30 3200 N 301.532 -0.945985 -1.26051 0
M  V30 3201 C 302.781 -0.591836 -1.92822 0
M  V30 3202 C 303.094 0.873956 -1.7499 0
M  V30 3203 O 304.3 1.33769 -2.36259 0
M  V30 3204 C 302.756 -1.00776 -3.45503 0
M  V30 3205 C 302.364 -2.4955 -3.7206 0
M  V30 3206 C 304.108 -0.725735 -4.1825 0
M  V30 3207 C 302.015 -2.84988 -5.18205 0
M  V30 3208 H 300.945 -0.217635 -0.721908 0
M  V30 3209 H 303.596 -1.14927 -1.43052 0
M  V30 3210 H 301.978 -0.378812 -3.94184 0
M  V30 3211 H 303.152 -3.1739 -3.34066 0
M  V30 3212 H 301.467 -2.75133 -3.12555 0
M  V30 3213 H 304.064 -0.966771 -5.25887 0
M  V30 3214 H 304.407 0.337639 -4.14929 0
M  V30 3215 H 304.94 -1.31463 -3.7545 0
M  V30 3216 H 301.679 -3.90307 -5.26631 0
M  V30 3217 H 301.199 -2.21813 -5.57278 0
M  V30 3218 H 302.878 -2.73712 -5.86252 0
M  V30 3219 N 303.011 1.40521 -0.713556 0
M  V30 3220 C 303.959 2.32549 -0.0485227 0
M  V30 3221 C 304.953 1.51931 0.74922 0
M  V30 3222 O 306.159 1.67745 0.652816 0
M  V30 3223 H 302.534 0.751994 0.00311138 0
M  V30 3224 H 304.505 2.86291 -0.841443 0
M  V30 3225 C 303.254 3.36879 0.860687 0
M  V30 3226 H 302.577 3.98978 0.256246 0
M  V30 3227 H 304.017 4.03772 1.294 0
M  V30 3228 C 302.476 2.72197 1.9852 0
M  V30 3229 O 303.006 2.5837 3.07584 0
M  V30 3230 N 301.212 2.30612 1.76823 0
M  V30 3231 H 300.759 2.42059 0.881217 0
M  V30 3232 H 300.717 1.87672 2.52243 0
M  V30 3233 N 304.489 0.459591 1.5075 0
M  V30 3234 C 305.399 -0.34613 2.32033 0
M  V30 3235 C 306.415 -1.00686 1.41909 0
M  V30 3236 O 307.591 -0.997361 1.7497 0
M  V30 3237 C 304.656 -1.42029 3.16273 0
M  V30 3238 C 303.717 -0.777362 4.22203 0
M  V30 3239 C 302.95 -1.80034 5.02418 0
M  V30 3240 O 303.173 -3.02544 4.83553 0
M  V30 3241 O 302.107 -1.37853 5.85901 0
M  V30 3242 H 305.933 0.318054 3.0203 0
M  V30 3243 H 303.518 0.221663 1.47746 0
M  V30 3244 H 305.4 -2.04275 3.68578 0
M  V30 3245 H 304.075 -2.06815 2.49016 0
M  V30 3246 H 302.982 -0.116256 3.73919 0
M  V30 3247 H 304.315 -0.172634 4.91897 0
M  V30 3248 N 305.967 -1.56429 0.191757 0
M  V30 3249 C 306.877 -2.22541 -0.742481 0
M  V30 3250 C 307.893 -1.22342 -1.23727 0
M  V30 3251 O 309.069 -1.55069 -1.28513 0
M  V30 3252 C 306.134 -2.8692 -1.94623 0
M  V30 3253 C 305.195 -4.02378 -1.49633 0
M  V30 3254 C 304.428 -4.63678 -2.6427 0
M  V30 3255 O 304.651 -4.23895 -3.81666 0
M  V30 3256 O 303.585 -5.53202 -2.37174 0
M  V30 3257 H 307.411 -3.02977 -0.209462 0
M  V30 3258 H 304.996 -1.49353 -0.0373832 0
M  V30 3259 H 306.878 -3.27663 -2.64982 0
M  V30 3260 H 305.553 -2.09466 -2.46791 0
M  V30 3261 H 304.46 -3.66265 -0.761636 0
M  V30 3262 H 305.793 -4.81487 -1.02134 0
M  V30 3263 N 307.445 0.0818655 -1.57387 0
M  V30 3264 C 308.408 1.08265 -2.02018 0
M  V30 3265 C 309.408 1.32183 -0.915664 0
M  V30 3266 O 310.598 1.28073 -1.18081 0
M  V30 3267 C 307.73 2.42871 -2.39221 0
M  V30 3268 H 308.923 0.698204 -2.91659 0
M  V30 3269 H 306.476 0.327303 -1.52835 0
M  V30 3270 H 307.211 2.86167 -1.52575 0
M  V30 3271 H 306.996 2.26855 -3.19811 0
M  V30 3272 H 308.486 3.14826 -2.74362 0
M  V30 3273 N 308.923 1.53595 0.353017 0
M  V30 3274 C 309.886 1.80232 1.41594 0
M  V30 3275 C 310.886 0.673081 1.46035 0
M  V30 3276 O 312.076 0.941335 1.46576 0
M  V30 3277 C 309.208 1.93578 2.80607 0
M  V30 3278 H 310.401 2.75174 1.19244 0
M  V30 3279 H 307.954 1.44864 0.586872 0
M  V30 3280 H 308.689 1.00746 3.08254 0
M  V30 3281 H 308.474 2.75724 2.78781 0
M  V30 3282 H 309.964 2.15735 3.57558 0
M  V30 3283 N 310.401 -0.613514 1.45168 0
M  V30 3284 C 311.311 -1.75296 1.55912 0
M  V30 3285 C 312.327 -1.68244 0.443856 0
M  V30 3286 O 313.503 -1.88706 0.70371 0
M  V30 3287 C 310.568 -3.1174 1.5172 0
M  V30 3288 C 309.629 -3.30291 2.74238 0
M  V30 3289 C 308.862 -4.60226 2.70236 0
M  V30 3290 O 309.085 -5.42168 1.77229 0
M  V30 3291 O 308.019 -4.81361 3.61352 0
M  V30 3292 H 311.845 -1.69183 2.52212 0
M  V30 3293 H 309.43 -0.776886 1.27612 0
M  V30 3294 H 311.312 -3.93044 1.51968 0
M  V30 3295 H 309.987 -3.18357 0.585697 0
M  V30 3296 H 308.894 -2.48598 2.79553 0
M  V30 3297 H 310.227 -3.28547 3.66494 0
M  V30 3298 N 311.879 -1.3236 -0.855495 0
M  V30 3299 C 313.125 -1.24064 -1.61182 0
M  V30 3300 C 313.48 0.195914 -1.914 0
M  V30 3301 O 312.773 1.13345 -1.54478 0
M  V30 3302 C 312.967 -2.03275 -2.93963 0
M  V30 3303 C 312.796 -3.54486 -2.76712 0
M  V30 3304 C 311.566 -4.23824 -2.75139 0
M  V30 3305 C 313.764 -4.49154 -2.50531 0
M  V30 3306 N 311.746 -5.61095 -2.4909 0
M  V30 3307 C 313.117 -5.74195 -2.3388 0
M  V30 3308 C 315.172 -4.3842 -2.35992 0
M  V30 3309 C 313.875 -6.89716 -2.04168 0
M  V30 3310 C 315.901 -5.53739 -2.0767 0
M  V30 3311 C 315.263 -6.77779 -1.9182 0
M  V30 3312 H 311.362 -0.509139 -0.59355 0
M  V30 3313 H 313.946 -1.66715 -1.00569 0
M  V30 3314 H 312.117 -1.6297 -3.52555 0
M  V30 3315 H 313.849 -1.86881 -3.58967 0
M  V30 3316 H 310.604 -3.75934 -2.88047 0
M  V30 3317 H 311.028 -6.33411 -2.38996 0
M  V30 3318 H 315.67 -3.43172 -2.46967 0
M  V30 3319 H 313.388 -7.84977 -1.9193 0
M  V30 3320 H 316.974 -5.4736 -1.97201 0
M  V30 3321 H 315.854 -7.65504 -1.70217 0
M  V30 3322 N 313.357 1.07166 -1.15556 0
M  V30 3323 C 314.634 1.76546 -0.842069 0
M  V30 3324 C 315.014 2.00453 0.661939 0
M  V30 3325 O 314.362 1.62452 1.60691 0
M  V30 3326 C 314.572 3.07266 -1.65495 0
M  V30 3327 C 315.92 3.81578 -1.86234 0
M  V30 3328 O 316.944 3.17083 -1.62287 0
M  V30 3329 O 315.803 4.97419 -2.26355 0
M  V30 3330 H 312.897 0.766756 -0.309862 0
M  V30 3331 H 315.443 1.13514 -1.26145 0
M  V30 3332 H 314.215 2.85494 -2.67598 0
M  V30 3333 H 313.838 3.7803 -1.23203 0
M  V30 3334 N 314.835 0.952656 1.25548 0
M  V30 3335 C 316.251 0.656769 1.4546 0
M  V30 3336 C 316.451 -0.78633 1.85524 0
M  V30 3337 O 315.507 -1.56183 1.98402 0
M  V30 3338 C 316.82 1.62801 2.52817 0
M  V30 3339 C 318.368 1.63897 2.66659 0
M  V30 3340 C 318.843 2.5978 3.77198 0
M  V30 3341 N 320.334 2.58133 3.84606 0
M  V30 3342 C 321.069 3.29003 4.69621 0
M  V30 3343 N 320.565 4.09339 5.58939 0
M  V30 3344 N 322.358 3.179 4.63569 0
M  V30 3345 H 314.509 1.88526 0.978344 0
M  V30 3346 H 316.772 0.810815 0.491206 0
M  V30 3347 H 316.478 2.65869 2.30232 0
M  V30 3348 H 316.352 1.38898 3.50695 0
M  V30 3349 H 318.739 0.615481 2.8861 0
M  V30 3350 H 318.82 1.91858 1.69187 0
M  V30 3351 H 318.464 3.62254 3.55997 0
M  V30 3352 H 318.394 2.29105 4.7415 0
M  V30 3353 H 320.885 1.99809 3.20757 0
M  V30 3354 H 321.198 4.6034 6.20731 0
M  V30 3355 H 319.543 4.13438 5.58654 0
M  V30 3356 H 322.734 2.54612 3.92798 0
M  V30 3357 H 322.907 3.73398 5.29602 0
M  V30 3358 N 316.313 -1.40141 0.720998 0
M  V30 3359 C 317.243 -2.33339 0.0867621 0
M  V30 3360 C 318.224 -1.53178 -0.739622 0
M  V30 3361 O 319.409 -1.81625 -0.687449 0
M  V30 3362 C 316.539 -3.37194 -0.831728 0
M  V30 3363 C 315.493 -4.27857 -0.110558 0
M  V30 3364 C 314.819 -5.22294 -1.14513 0
M  V30 3365 C 316.119 -5.11872 1.0385 0
M  V30 3366 H 317.813 -2.86626 0.865219 0
M  V30 3367 H 315.359 -1.37814 0.417516 0
M  V30 3368 H 317.312 -4.01335 -1.28485 0
M  V30 3369 H 316.036 -2.82314 -1.64214 0
M  V30 3370 H 314.695 -3.65176 0.322797 0
M  V30 3371 H 314.343 -4.63717 -1.94874 0
M  V30 3372 H 314.043 -5.83797 -0.667446 0
M  V30 3373 H 315.567 -5.89312 -1.59824 0
M  V30 3374 H 316.981 -5.69436 0.664482 0
M  V30 3375 H 315.378 -5.82445 1.4449 0
M  V30 3376 H 316.448 -4.4753 1.86668 0
M  V30 3377 N 317.792 -0.46758 -1.50504 0
M  V30 3378 C 318.742 0.34698 -2.25344 0
M  V30 3379 C 319.726 0.964469 -1.2879 0
M  V30 3380 O 320.918 0.8776 -1.53711 0
M  V30 3381 C 318.047 1.43042 -3.1208 0
M  V30 3382 C 317.133 0.82084 -4.16081 0
M  V30 3383 N 317.524 -0.0567602 -5.05768 0
M  V30 3384 C 315.822 1.08517 -4.32597 0
M  V30 3385 C 316.523 -0.402343 -5.80307 0
M  V30 3386 N 315.499 0.221607 -5.43148 0
M  V30 3387 H 319.301 -0.329129 -2.92051 0
M  V30 3388 H 316.815 -0.281508 -1.59942 0
M  V30 3389 H 318.812 2.02712 -3.64299 0
M  V30 3390 H 317.472 2.10856 -2.46921 0
M  V30 3391 H 318.483 -0.425349 -5.1615 0
M  V30 3392 H 315.16 1.75855 -3.78657 0
M  V30 3393 H 316.55 -1.11834 -6.62528 0
M  V30 3394 N 319.27 1.56325 -0.20005 0
M  V30 3395 C 320.681 1.8408 0.31167 0
M  V30 3396 C 321.032 1.12087 1.61031 0
M  V30 3397 O 320.157 0.38332 2.12978 0
M  V30 3398 C 320.752 3.33932 0.57226 0
M  V30 3399 C 319.311 3.6208 1.02834 0
M  V30 3400 C 318.458 2.77186 0.079634 0
M  V30 3401 H 321.409 1.52939 -0.423729 0
M  V30 3402 H 321.43 3.52971 1.42096 0
M  V30 3403 H 320.942 3.86303 -0.37308 0
M  V30 3404 H 319.043 3.15147 1.98778 0
M  V30 3405 H 319.156 4.7023 0.917624 0
M  V30 3406 H 317.52 2.47951 0.582448 0
M  V30 3407 H 318.303 3.32347 -0.860238 0
M  V30 3408 N 320.748 -0.0735177 1.57428 0
M  V30 3409 C 321.994 -0.774145 1.87443 0
M  V30 3410 C 322.327 -1.77311 0.792103 0
M  V30 3411 O 321.602 -1.93492 -0.197793 0
M  V30 3412 C 321.885 -1.48367 3.28115 0
M  V30 3413 C 321.738 -0.501227 4.46999 0
M  V30 3414 C 323.057 -2.429 3.66998 0
M  V30 3415 H 320.176 -0.279971 0.681752 0
M  V30 3416 H 322.818 -0.0373616 1.89963 0
M  V30 3417 H 320.968 -2.11171 3.26097 0
M  V30 3418 H 322.64 0.121468 4.6114 0
M  V30 3419 H 320.883 0.183593 4.33411 0
M  V30 3420 H 321.554 -1.03526 5.42205 0
M  V30 3421 H 324.03 -1.90175 3.70098 0
M  V30 3422 H 322.906 -2.89549 4.66318 0
M  V30 3423 H 323.167 -3.27628 2.96837 0
M  V30 3424 N 322.226 -1.5378 -0.344866 0
M  V30 3425 C 323.176 -1.78057 -1.42407 0
M  V30 3426 C 324.16 -0.635732 -1.47808 0
M  V30 3427 O 325.352 -0.89508 -1.527 0
M  V30 3428 C 322.481 -1.99242 -2.79566 0
M  V30 3429 C 321.567 -3.19787 -2.78562 0
M  V30 3430 N 321.958 -4.41284 -2.47189 0
M  V30 3431 C 320.256 -3.2093 -3.0971 0
M  V30 3432 C 320.957 -5.23128 -2.54385 0
M  V30 3433 N 319.933 -4.59813 -2.89953 0
M  V30 3434 H 323.735 -2.69588 -1.17046 0
M  V30 3435 H 321.249 -1.52687 -0.553217 0
M  V30 3436 H 323.246 -2.14768 -3.57324 0
M  V30 3437 H 321.906 -1.08953 -3.05875 0
M  V30 3438 H 322.917 -4.68657 -2.20411 0
M  V30 3439 H 319.594 -2.40603 -3.41199 0
M  V30 3440 H 320.984 -6.30096 -2.333 0
M  V30 3441 N 323.704 0.605807 -1.45491 0
M  V30 3442 C 324.667 1.69836 -1.5391 0
M  V30 3443 C 325.667 1.55261 -0.418424 0
M  V30 3444 O 326.857 1.60296 -0.681965 0
M  V30 3445 C 323.989 3.09117 -1.43734 0
M  V30 3446 H 325.182 1.63738 -2.51257 0
M  V30 3447 H 322.735 0.821689 -1.32959 0
M  V30 3448 H 323.47 3.20791 -0.475788 0
M  V30 3449 H 323.255 3.21104 -2.25021 0
M  V30 3450 H 324.745 3.88696 -1.52661 0
M  V30 3451 N 325.182 1.32811 0.848464 0
M  V30 3452 C 326.43 1.23479 1.59991 0
M  V30 3453 C 326.751 -0.201853 1.93952 0
M  V30 3454 O 326.021 -1.12818 1.60153 0
M  V30 3455 H 324.601 0.454034 0.593179 0
M  V30 3456 H 327.263 1.66412 1.01455 0
M  V30 3457 H 326.359 1.82178 2.53412 0
M  V30 3458 N 326.66 -1.06551 1.16123 0
M  V30 3459 C 328.071 -1.60768 0.949232 0
M  V30 3460 C 328.422 -1.89523 -0.507508 0
M  V30 3461 O 327.547 -1.66671 -1.38021 0
M  V30 3462 C 328.142 -2.92086 1.71671 0
M  V30 3463 C 326.701 -3.43015 1.54977 0
M  V30 3464 C 325.848 -2.16947 1.72711 0
M  V30 3465 H 328.799 -0.895354 1.31031 0
M  V30 3466 H 328.82 -3.6138 1.19099 0
M  V30 3467 H 328.332 -2.71127 2.7769 0
M  V30 3468 H 326.433 -3.69039 0.513873 0
M  V30 3469 H 326.546 -4.18516 2.33198 0
M  V30 3470 H 324.91 -2.27041 1.15431 0
M  V30 3471 H 325.693 -1.98473 2.80113 0
M  V30 3472 N 328.138 -0.959301 -1.25041 0
M  V30 3473 C 329.387 -0.612254 -1.92183 0
M  V30 3474 C 329.7 0.855347 -1.75907 0
M  V30 3475 O 330.906 1.31256 -2.37664 0
M  V30 3476 C 329.362 -1.04435 -3.44414 0
M  V30 3477 C 328.97 -2.53482 -3.69393 0
M  V30 3478 C 330.714 -0.770055 -4.17457 0
M  V30 3479 C 328.621 -2.90468 -5.15153 0
M  V30 3480 H 327.551 -0.225279 -0.719559 0
M  V30 3481 H 330.202 -1.16438 -1.41825 0
M  V30 3482 H 328.584 -0.4206 -3.9376 0
M  V30 3483 H 329.758 -3.20916 -3.30681 0
M  V30 3484 H 328.073 -2.78432 -3.0962 0
M  V30 3485 H 330.67 -1.02249 -5.24832 0
M  V30 3486 H 331.013 0.293611 -4.15263 0
M  V30 3487 H 331.546 -1.35437 -3.74034 0
M  V30 3488 H 328.285 -3.95871 -5.22462 0
M  V30 3489 H 327.805 -2.27711 -5.54894 0
M  V30 3490 H 329.484 -2.79914 -5.83315 0
M  V30 3491 N 329.616 1.39756 -0.72842 0
M  V30 3492 C 330.579 2.29012 -0.0927297 0
M  V30 3493 C 331.579 1.45992 0.674025 0
M  V30 3494 O 332.769 1.66749 0.50402 0
M  V30 3495 C 329.901 3.29396 0.878137 0
M  V30 3496 H 331.094 2.86729 -0.879011 0
M  V30 3497 H 328.647 1.48293 -0.493847 0
M  V30 3498 H 329.382 2.76722 1.69101 0
M  V30 3499 H 329.167 3.907 0.331051 0
M  V30 3500 H 330.657 3.96199 1.3197 0
M  V30 3501 N 331.094 0.475555 1.50254 0
M  V30 3502 C 332.505 0.0215174 1.86688 0
M  V30 3503 C 332.856 -1.38467 1.39001 0
M  V30 3504 O 331.981 -2.02732 0.756894 0
M  V30 3505 C 332.576 0.0322715 3.38785 0
M  V30 3506 C 331.135 -0.366314 3.74613 0
M  V30 3507 C 330.282 0.415832 2.74164 0
M  V30 3508 H 333.233 0.689612 1.42934 0
M  V30 3509 H 333.254 -0.76889 3.7265 0
M  V30 3510 H 332.766 1.05584 3.73462 0
M  V30 3511 H 330.867 -1.39406 3.45538 0
M  V30 3512 H 330.98 -0.064555 4.79057 0
M  V30 3513 H 329.344 -0.131048 2.54363 0
M  V30 3514 H 330.127 1.43899 3.11686 0
M  V30 3515 N 332.573 -1.56217 0.208337 0
M  V30 3516 C 333.821 -1.97558 -0.426076 0
M  V30 3517 C 334.142 -1.09683 -1.61229 0
M  V30 3518 O 333.412 -0.170956 -1.95153 0
M  V30 3519 H 331.992 -0.729575 -0.160405 0
M  V30 3520 H 334.654 -1.92606 0.298155 0
M  V30 3521 H 333.75 -3.02672 -0.761312 0
M  V30 3522 N 334.051 0.0651679 -1.57465 0
M  V30 3523 C 334.983 1.10359 -2.00882 0
M  V30 3524 C 335.996 1.346 -0.915788 0
M  V30 3525 O 337.185 1.32723 -1.1936 0
M  V30 3526 C 334.285 2.45312 -2.33828 0
M  V30 3527 C 333.458 2.40934 -3.65061 0
M  V30 3528 C 332.517 3.58047 -3.85602 0
M  V30 3529 O 331.543 3.39175 -4.57109 0
M  V30 3530 N 332.745 4.78637 -3.28462 0
M  V30 3531 H 335.51 0.733807 -2.90578 0
M  V30 3532 H 333.071 0.253719 -1.599 0
M  V30 3533 H 335.063 3.22314 -2.44737 0
M  V30 3534 H 333.633 2.74267 -1.49988 0
M  V30 3535 H 332.853 1.49273 -3.64844 0
M  V30 3536 H 334.141 2.35117 -4.51218 0
M  V30 3537 H 333.539 4.96872 -2.70433 0
M  V30 3538 H 332.096 5.53127 -3.44809 0
M  V30 3539 N 335.529 1.53961 0.336706 0
M  V30 3540 C 336.462 1.77255 1.43722 0
M  V30 3541 C 337.44 0.62193 1.50236 0
M  V30 3542 O 338.624 0.857874 1.67847 0
M  V30 3543 C 335.751 1.87733 2.81912 0
M  V30 3544 C 334.797 3.09933 2.92991 0
M  V30 3545 S 335.63 4.68836 2.58753 0
M  V30 3546 C 336.786 4.82202 3.99039 0
M  V30 3547 H 337.019 2.70322 1.23748 0
M  V30 3548 H 334.552 1.44917 0.532777 0
M  V30 3549 H 336.51 1.94455 3.61521 0
M  V30 3550 H 335.171 0.956666 2.99177 0
M  V30 3551 H 334.364 3.1396 3.94265 0
M  V30 3552 H 333.966 3.01472 2.21338 0
M  V30 3553 H 336.258 4.64032 4.9364 0
M  V30 3554 H 337.201 5.84298 4.00002 0
M  V30 3555 H 337.609 4.10604 3.87382 0
M  V30 3556 N 337.007 -0.598083 1.45811 0
M  V30 3557 C 338.423 -0.919847 1.30426 0
M  V30 3558 C 338.623 -1.99759 0.264303 0
M  V30 3559 O 337.679 -2.50221 -0.338472 0
M  V30 3560 C 338.992 -1.35176 2.68603 0
M  V30 3561 C 340.54 -1.46546 2.76574 0
M  V30 3562 C 341.015 -1.9311 4.15298 0
M  V30 3563 N 342.506 -2.00328 4.1764 0
M  V30 3564 C 343.241 -2.37599 5.21856 0
M  V30 3565 N 342.737 -2.73771 6.36413 0
M  V30 3566 N 344.53 -2.38021 5.09218 0
M  V30 3567 H 336.681 0.114111 2.12093 0
M  V30 3568 H 338.944 -0.0116121 0.947929 0
M  V30 3569 H 338.65 -0.633969 3.45939 0
M  V30 3570 H 338.524 -2.3164 2.97696 0
M  V30 3571 H 340.911 -2.17415 1.99537 0
M  V30 3572 H 340.992 -0.483727 2.51185 0
M  V30 3573 H 340.636 -1.22824 4.92825 0
M  V30 3574 H 340.566 -2.92213 4.38086 0
M  V30 3575 H 343.057 -1.74925 3.34977 0
M  V30 3576 H 343.37 -3.0112 7.11721 0
M  V30 3577 H 341.715 -2.71445 6.39799 0
M  V30 3578 H 344.906 -2.09174 4.18765 0
M  V30 3579 H 345.079 -2.66741 5.90554 0
M  V30 3580 N 338.485 -1.33259 -0.841409 0
M  V30 3581 C 339.395 -1.25332 -1.98316 0
M  V30 3582 C 340.411 -0.164364 -1.73222 0
M  V30 3583 O 341.587 -0.387486 -1.97637 0
M  V30 3584 C 338.652 -0.990078 -3.32262 0
M  V30 3585 C 337.713 -2.16879 -3.70489 0
M  V30 3586 C 336.946 -1.91801 -4.98044 0
M  V30 3587 O 337.169 -0.867075 -5.63771 0
M  V30 3588 O 336.103 -2.78267 -5.33714 0
M  V30 3589 H 339.929 -2.21344 -2.07944 0
M  V30 3590 H 337.514 -1.1328 -0.974058 0
M  V30 3591 H 339.396 -0.860321 -4.12524 0
M  V30 3592 H 338.071 -0.0602155 -3.23644 0
M  V30 3593 H 336.978 -2.35407 -2.90748 0
M  V30 3594 H 338.311 -3.0819 -3.8377 0
M  V30 3595 N 339.963 1.05934 -1.16686 0
M  V30 3596 C 341.374 1.60263 -0.957745 0
M  V30 3597 C 341.725 1.89789 0.49745 0
M  V30 3598 O 340.85 1.67401 1.37135 0
M  V30 3599 C 341.445 2.91172 -1.73218 0
M  V30 3600 C 340.004 3.42188 -1.56794 0
M  V30 3601 C 339.151 2.16028 -1.73859 0
M  V30 3602 H 342.102 0.888392 -1.31504 0
M  V30 3603 H 342.123 3.60744 -1.21014 0
M  V30 3604 H 341.635 2.6965 -2.79124 0
M  V30 3605 H 339.736 3.68762 -0.533437 0
M  V30 3606 H 339.849 4.17273 -2.35414 0
M  V30 3607 H 338.213 2.26426 -1.16633 0
M  V30 3608 H 338.996 1.96985 -2.81161 0
M  V30 3609 N 341.441 0.965919 1.2453 0
M  V30 3610 C 342.857 0.67216 1.44756 0
M  V30 3611 C 343.057 -0.766609 1.86347 0
M  V30 3612 O 342.113 -1.5407 2.00047 0
M  V30 3613 C 343.426 1.65473 2.51076 0
M  V30 3614 C 344.974 1.66716 2.64905 0
M  V30 3615 C 345.449 2.63766 3.74421 0
M  V30 3616 N 346.94 2.62198 3.81846 0
M  V30 3617 C 347.675 3.33966 4.66106 0
M  V30 3618 N 347.171 4.15245 5.54566 0
M  V30 3619 N 348.964 3.22799 4.60171 0
M  V30 3620 H 341.115 1.89553 0.958293 0
M  V30 3621 H 343.378 0.815979 0.482579 0
M  V30 3622 H 343.084 2.68296 2.27399 0
M  V30 3623 H 342.958 1.4261 3.49202 0
M  V30 3624 H 345.345 0.646057 2.87941 0
M  V30 3625 H 345.426 1.93642 1.67142 0
M  V30 3626 H 345.07 3.6601 3.52135 0
M  V30 3627 H 345 2.34121 4.71694 0
M  V30 3628 H 347.491 2.032 3.18619 0
M  V30 3629 H 347.804 4.66898 6.15814 0
M  V30 3630 H 346.149 4.1934 5.54237 0
M  V30 3631 H 349.34 2.58764 3.90075 0
M  V30 3632 H 349.513 3.78994 5.25612 0
M  V30 3633 N 342.919 -1.39368 0.735821 0
M  V30 3634 C 344.167 -2.00101 0.283562 0
M  V30 3635 C 344.488 -1.5868 -1.13338 0
M  V30 3636 O 343.758 -0.835423 -1.77193 0
M  V30 3637 H 342.338 -0.740024 0.101851 0
M  V30 3638 H 345 -1.70404 0.945962 0
M  V30 3639 H 344.096 -3.10323 0.332604 0
M  V30 3640 N 344.397 -0.483516 -1.5 0
M  V30 3641 C 345.622 0.0667119 -2.07293 0
M  V30 3642 C 346.047 1.3164 -1.3436 0
M  V30 3643 O 345.405 1.76945 -0.394987 0
M  V30 3644 C 345.453 0.321126 -3.59167 0
M  V30 3645 O 344.557 1.39927 -3.87936 0
M  V30 3646 H 343.898 -0.0184758 -0.663743 0
M  V30 3647 H 346.428 -0.678125 -1.93035 0
M  V30 3648 H 346.438 0.557906 -4.04168 0
M  V30 3649 H 345.113 -0.592007 -4.11665 0
M  V30 3650 H 343.69 1.14882 -3.54763 0
M  V30 3651 N 345.875 1.56104 -0.216619 0
M  V30 3652 C 347.152 1.89988 0.465165 0
M  V30 3653 C 347.532 1.13326 1.78102 0
M  V30 3654 O 346.88 0.241033 2.27225 0
M  V30 3655 C 347.09 3.42646 0.662939 0
M  V30 3656 C 348.438 4.13311 0.972602 0
M  V30 3657 O 349.462 3.48217 0.749901 0
M  V30 3658 O 348.321 5.28396 1.39499 0
M  V30 3659 H 345.415 0.78979 0.245276 0
M  V30 3660 H 347.961 1.67721 -0.258436 0
M  V30 3661 H 346.733 3.90399 -0.26543 0
M  V30 3662 H 346.356 3.70677 1.43821 0
M  V30 3663 N 347.353 -0.0568162 1.57498 0
M  V30 3664 C 348.602 -0.752001 1.87157 0
M  V30 3665 C 348.915 -1.77978 0.811375 0
M  V30 3666 O 350.121 -2.52559 0.996293 0
M  V30 3667 C 348.577 -1.38844 3.3204 0
M  V30 3668 C 348.185 -0.398456 4.46225 0
M  V30 3669 C 349.929 -2.06512 3.70882 0
M  V30 3670 C 347.836 -1.04166 5.82154 0
M  V30 3671 H 346.766 -0.28461 0.698222 0
M  V30 3672 H 349.417 -0.00561272 1.83499 0
M  V30 3673 H 347.799 -2.1836 3.30356 0
M  V30 3674 H 348.973 0.367977 4.59328 0
M  V30 3675 H 347.288 0.174592 4.16034 0
M  V30 3676 H 349.885 -2.55437 4.6974 0
M  V30 3677 H 350.228 -2.87117 3.01445 0
M  V30 3678 H 350.761 -1.33808 3.7462 0
M  V30 3679 H 347.5 -0.275614 6.5492 0
M  V30 3680 H 347.02 -1.7786 5.72823 0
M  V30 3681 H 348.699 -1.55715 6.27982 0
M  V30 3682 N 348.832 -1.54138 -0.328536 0
M  V30 3683 C 349.795 -1.82462 -1.38709 0
M  V30 3684 C 350.795 -0.696229 -1.44946 0
M  V30 3685 O 351.985 -0.964535 -1.4506 0
M  V30 3686 C 349.117 -1.98018 -2.77492 0
M  V30 3687 H 350.31 -2.77037 -1.14851 0
M  V30 3688 H 347.863 -1.45779 -0.563751 0
M  V30 3689 H 348.598 -1.05637 -3.06613 0
M  V30 3690 H 348.383 -2.80124 -2.74359 0
M  V30 3691 H 349.873 -2.21396 -3.54081 0
M  V30 3692 N 350.31 0.590341 -1.46126 0
M  V30 3693 C 351.558 1.34616 -1.50742 0
M  V30 3694 C 351.879 1.94363 -0.157486 0
M  V30 3695 O 351.149 1.78136 0.815136 0
M  V30 3696 H 349.729 0.499789 -0.555175 0
M  V30 3697 H 352.391 0.691953 -1.82203 0
M  V30 3698 H 351.487 2.15678 -2.25587 0
M  V30 3699 N 351.788 1.33704 0.83433 0
M  V30 3700 C 353.016 1.28467 1.62185 0
M  V30 3701 C 353.431 -0.143526 1.88254 0
M  V30 3702 O 352.788 -1.08709 1.4659 0
M  V30 3703 C 352.839 2.06174 2.96942 0
M  V30 3704 O 352.56 3.43422 2.72016 0
M  V30 3705 C 354.061 2.08201 3.91366 0
M  V30 3706 H 351.281 0.4424 0.504503 0
M  V30 3707 H 353.825 1.76145 1.03891 0
M  V30 3708 H 351.98 1.62167 3.51825 0
M  V30 3709 H 352.394 3.83453 3.57861 0
M  V30 3710 H 353.868 2.67017 4.83121 0
M  V30 3711 H 354.345 1.07343 4.2588 0
M  V30 3712 H 354.951 2.52246 3.42421 0
M  V30 3713 N 353.266 -1.05314 1.17247 0
M  V30 3714 C 354.494 -1.81971 0.984593 0
M  V30 3715 C 354.909 -1.82929 -0.467166 0
M  V30 3716 O 354.266 -1.25564 -1.32438 0
M  V30 3717 C 354.317 -3.28143 1.51672 0
M  V30 3718 O 354.038 -3.27347 2.91163 0
M  V30 3719 C 355.539 -4.21493 1.37326 0
M  V30 3720 H 352.759 -0.573455 0.348411 0
M  V30 3721 H 355.303 -1.32808 1.55506 0
M  V30 3722 H 353.458 -3.74582 0.988302 0
M  V30 3723 H 353.872 -4.18824 3.15732 0
M  V30 3724 H 355.346 -5.22043 1.79375 0
M  V30 3725 H 355.823 -4.38031 0.320169 0
M  V30 3726 H 356.429 -3.80909 1.89178 0
M  V30 3727 N 354.744 -0.972509 -1.24016 0
M  V30 3728 C 355.969 -0.654417 -1.96805 0
M  V30 3729 C 356.394 0.770398 -1.716 0
M  V30 3730 O 355.752 1.52361 -0.982647 0
M  V30 3731 C 355.8 -0.941031 -3.48105 0
M  V30 3732 O 354.904 -0.0289472 -4.1239 0
M  V30 3733 H 354.245 -0.24692 -0.616382 0
M  V30 3734 H 356.775 -1.30396 -1.57664 0
M  V30 3735 H 356.785 -0.87452 -3.98517 0
M  V30 3736 H 355.46 -1.97939 -3.65777 0
M  V30 3737 H 354.037 -0.149192 -3.72601 0
M  V30 3738 N 356.222 1.38976 -0.743202 0
M  V30 3739 C 357.45 2.04636 -0.30525 0
M  V30 3740 C 357.865 1.56044 1.06281 0
M  V30 3741 O 357.222 0.728921 1.67311 0
M  V30 3742 C 357.273 3.60193 -0.307177 0
M  V30 3743 O 356.994 4.06998 -1.62124 0
M  V30 3744 C 358.495 4.4306 0.145928 0
M  V30 3745 H 355.715 0.65788 -0.132041 0
M  V30 3746 H 358.259 1.77866 -1.00915 0
M  V30 3747 H 356.414 3.85835 0.347898 0
M  V30 3748 H 356.828 5.01371 -1.54036 0
M  V30 3749 H 358.302 5.51921 0.0934183 0
M  V30 3750 H 358.779 4.22706 1.19231 0
M  V30 3751 H 359.385 4.22584 -0.479886 0
M  V30 3752 N 357.7 0.491464 1.49741 0
M  V30 3753 C 358.63 -0.28154 2.31796 0
M  V30 3754 C 359.611 -0.971473 1.3963 0
M  V30 3755 O 360.796 -0.964719 1.68543 0
M  V30 3756 C 357.926 -1.35203 3.19902 0
M  V30 3757 C 356.88 -0.782529 4.20786 0
M  V30 3758 C 356.206 -1.95283 4.97764 0
M  V30 3759 C 357.506 0.21999 5.21837 0
M  V30 3760 H 359.2 0.403355 2.96671 0
M  V30 3761 H 356.746 0.195425 1.42668 0
M  V30 3762 H 358.699 -1.90045 3.76113 0
M  V30 3763 H 357.423 -2.06598 2.52953 0
M  V30 3764 H 356.082 -0.255928 3.65706 0
M  V30 3765 H 355.73 -2.65423 4.2727 0
M  V30 3766 H 355.43 -1.57789 5.66018 0
M  V30 3767 H 356.954 -2.50577 5.56816 0
M  V30 3768 H 358.368 -0.23996 5.72798 0
M  V30 3769 H 356.765 0.51026 5.97927 0
M  V30 3770 H 357.835 1.13911 4.7133 0
M  V30 3771 N 359.178 -1.55987 0.224894 0
M  V30 3772 C 360.11 -2.17722 -0.716224 0
M  V30 3773 C 361.123 -1.14723 -1.15509 0
M  V30 3774 O 362.312 -1.41688 -1.08567 0
M  V30 3775 C 359.412 -2.74873 -1.98238 0
M  V30 3776 C 358.585 -4.03074 -1.69853 0
M  V30 3777 C 357.644 -4.44757 -2.81208 0
M  V30 3778 O 356.67 -5.11587 -2.49534 0
M  V30 3779 N 357.872 -4.10716 -4.10235 0
M  V30 3780 H 360.637 -2.99109 -0.188123 0
M  V30 3781 H 358.198 -1.6184 0.0440123 0
M  V30 3782 H 360.19 -2.99727 -2.7193 0
M  V30 3783 H 358.76 -1.9777 -2.42086 0
M  V30 3784 H 357.98 -3.86041 -0.797875 0
M  V30 3785 H 359.268 -4.86701 -1.48324 0
M  V30 3786 H 358.666 -3.57019 -4.38809 0
M  V30 3787 H 357.223 -4.40455 -4.80461 0
M  V30 3788 N 360.656 0.0484629 -1.57525 0
M  V30 3789 C 361.566 1.07241 -2.08654 0
M  V30 3790 C 362.582 1.409 -1.02095 0
M  V30 3791 O 363.758 1.50609 -1.33712 0
M  V30 3792 C 360.823 2.36008 -2.5397 0
M  V30 3793 C 359.884 2.09108 -3.7493 0
M  V30 3794 C 359.117 3.31736 -4.18075 0
M  V30 3795 O 359.34 4.41714 -3.60895 0
M  V30 3796 O 358.274 3.18576 -5.10679 0
M  V30 3797 H 362.1 0.667965 -2.96263 0
M  V30 3798 H 359.685 0.26417 -1.47046 0
M  V30 3799 H 361.567 3.11747 -2.83535 0
M  V30 3800 H 360.242 2.75786 -1.69481 0
M  V30 3801 H 359.149 1.31 -3.50414 0
M  V30 3802 H 360.482 1.74198 -4.60343 0
M  V30 3803 N 362.134 1.5431 0.320358 0
M  V30 3804 C 363.066 1.80262 1.41556 0
M  V30 3805 C 364.079 0.684723 1.477 0
M  V30 3806 O 365.268 0.961886 1.50366 0
M  V30 3807 C 362.368 1.90825 2.8007 0
M  V30 3808 C 361.541 3.21023 2.97091 0
M  V30 3809 C 360.6 3.22247 4.15985 0
M  V30 3810 O 359.626 3.95871 4.08992 0
M  V30 3811 N 360.828 2.46258 5.25678 0
M  V30 3812 H 363.593 2.74778 1.19655 0
M  V30 3813 H 361.154 1.53646 0.510358 0
M  V30 3814 H 363.146 1.89067 3.57821 0
M  V30 3815 H 361.716 1.03392 2.95006 0
M  V30 3816 H 360.936 3.35715 2.06614 0
M  V30 3817 H 362.224 4.0698 3.05361 0
M  V30 3818 H 361.622 1.86037 5.34235 0
M  V30 3819 H 360.179 2.50275 6.01835 0
M  V30 3820 N 363.613 -0.582584 1.46437 0
M  V30 3821 C 364.862 -1.337 1.5102 0
M  V30 3822 C 365.175 -1.94891 0.166359 0
M  V30 3823 O 366.381 -2.71351 0.0899954 0
M  V30 3824 C 364.837 -2.42315 2.66104 0
M  V30 3825 C 364.445 -1.87427 4.06909 0
M  V30 3826 C 366.189 -3.19099 2.79958 0
M  V30 3827 C 364.096 -2.93672 5.13333 0
M  V30 3828 H 363.026 -0.502619 0.562041 0
M  V30 3829 H 365.677 -0.621701 1.72647 0
M  V30 3830 H 364.059 -3.16645 2.37807 0
M  V30 3831 H 365.233 -1.19639 4.44998 0
M  V30 3832 H 363.548 -1.2331 3.97723 0
M  V30 3833 H 366.145 -3.9839 3.56636 0
M  V30 3834 H 366.488 -3.71695 1.87479 0
M  V30 3835 H 367.021 -2.51875 3.07902 0
M  V30 3836 H 363.76 -2.45962 6.07604 0
M  V30 3837 H 363.28 -3.59948 4.79789 0
M  V30 3838 H 364.959 -3.5762 5.39182 0
M  V30 3839 N 365.091 -1.34144 -0.827227 0
M  V30 3840 C 366.339 -1.26009 -1.58007 0
M  V30 3841 C 366.66 0.170971 -1.94249 0
M  V30 3842 O 365.93 1.10256 -1.61927 0
M  V30 3843 H 364.51 -0.463414 -0.585881 0
M  V30 3844 H 367.172 -1.68005 -0.987951 0
M  V30 3845 H 366.268 -1.86187 -2.50481 0
M  V30 3846 N 366.569 1.04691 -1.17803 0
M  V30 3847 C 367.815 1.78181 -0.980977 0
M  V30 3848 C 368.17 1.86191 0.484825 0
M  V30 3849 O 367.463 1.35436 1.35527 0
M  V30 3850 C 367.657 3.21467 -1.56186 0
M  V30 3851 C 367.486 3.27422 -3.08261 0
M  V30 3852 C 366.256 3.36415 -3.77032 0
M  V30 3853 C 368.454 3.15947 -4.0581 0
M  V30 3854 N 366.436 3.31554 -5.16667 0
M  V30 3855 C 367.807 3.18514 -5.31929 0
M  V30 3856 C 369.862 2.99945 -3.97413 0
M  V30 3857 C 368.565 3.06723 -6.50625 0
M  V30 3858 C 370.591 2.89497 -5.15699 0
M  V30 3859 C 369.953 2.92702 -6.40706 0
M  V30 3860 H 366.052 0.6641 -0.412911 0
M  V30 3861 H 368.636 1.24762 -1.49474 0
M  V30 3862 H 366.807 3.73245 -1.07436 0
M  V30 3863 H 368.539 3.8322 -1.30093 0
M  V30 3864 H 365.294 3.41887 -3.27735 0
M  V30 3865 H 365.718 3.3258 -5.89678 0
M  V30 3866 H 370.36 2.96302 -3.01604 0
M  V30 3867 H 368.078 3.0912 -7.46639 0
M  V30 3868 H 371.664 2.78179 -5.10987 0
M  V30 3869 H 370.544 2.84697 -7.30696 0
M  V30 3870 N 368.047 0.979072 1.23499 0
M  V30 3871 C 368.98 0.463027 2.23453 0
M  V30 3872 C 369.958 -0.469128 1.55685 0
M  V30 3873 O 371.142 -0.397882 1.84253 0
M  V30 3874 C 368.269 -0.330308 3.37086 0
M  V30 3875 C 367.315 0.545795 4.22993 0
M  V30 3876 S 368.148 1.99285 4.97037 0
M  V30 3877 C 369.304 1.20862 6.1412 0
M  V30 3878 H 369.537 1.31005 2.6688 0
M  V30 3879 H 367.07 0.784965 1.32957 0
M  V30 3880 H 369.028 -0.782027 4.02982 0
M  V30 3881 H 367.689 -1.15244 2.92194 0
M  V30 3882 H 366.882 -0.0638928 5.03959 0
M  V30 3883 H 366.484 0.933705 3.62157 0
M  V30 3884 H 368.776 0.469284 6.75873 0
M  V30 3885 H 369.719 1.99307 6.79472 0
M  V30 3886 H 370.127 0.727992 5.59786 0
M  V30 3887 N 369.525 -1.3858 0.750561 0
M  V30 3888 C 370.753 -2.04471 0.316098 0
M  V30 3889 C 371.168 -1.56606 -1.05452 0
M  V30 3890 O 370.525 -0.737784 -1.66922 0
M  V30 3891 C 370.576 -3.60025 0.326275 0
M  V30 3892 O 370.297 -4.06133 1.6428 0
M  V30 3893 C 371.798 -4.43131 -0.122429 0
M  V30 3894 H 369.018 -0.65717 0.135528 0
M  V30 3895 H 371.562 -1.77329 1.01857 0
M  V30 3896 H 369.717 -3.86014 -0.327431 0
M  V30 3897 H 370.131 -5.00547 1.56693 0
M  V30 3898 H 371.605 -5.51963 -0.0641473 0
M  V30 3899 H 372.082 -4.23333 -1.16988 0
M  V30 3900 H 372.688 -4.22323 0.50229 0
M  V30 3901 N 371.003 -0.499398 -1.49478 0
M  V30 3902 C 371.953 0.299103 -2.2603 0
M  V30 3903 C 372.937 0.936934 -1.30807 0
M  V30 3904 O 374.129 0.844798 -1.55538 0
M  V30 3905 C 371.258 1.36391 -3.15044 0
M  V30 3906 C 370.344 0.732398 -4.17728 0
M  V30 3907 N 370.735 -0.164028 -5.05534 0
M  V30 3908 C 369.033 0.993162 -4.34801 0
M  V30 3909 C 369.734 -0.525345 -5.79323 0
M  V30 3910 N 368.71 0.106348 -5.43496 0
M  V30 3911 H 372.512 -0.391003 -2.91287 0
M  V30 3912 H 370.026 -0.31537 -1.59308 0
M  V30 3913 H 372.023 1.94939 -3.68516 0
M  V30 3914 H 370.683 2.05571 -2.51338 0
M  V30 3915 H 371.694 -0.534736 -5.15132 0
M  V30 3916 H 368.371 1.67783 -3.82302 0
M  V30 3917 H 369.761 -1.25862 -6.60006 0
M  V30 3918 N 372.481 1.55866 -0.233164 0
M  V30 3919 C 373.429 2.22176 0.68851 0
M  V30 3920 C 374.423 1.20487 1.19076 0
M  V30 3921 O 375.629 1.38536 1.14925 0
M  V30 3922 H 372.004 0.712511 0.240483 0
M  V30 3923 H 373.975 2.98212 0.105935 0
M  V30 3924 C 372.724 2.92446 1.88071 0
M  V30 3925 H 372.047 3.70458 1.50337 0
M  V30 3926 H 373.487 3.42226 2.50314 0
M  V30 3927 C 371.946 1.95555 2.74335 0
M  V30 3928 O 372.476 1.47986 3.73447 0
M  V30 3929 N 370.682 1.62953 2.40613 0
M  V30 3930 H 370.229 2.01831 1.60069 0
M  V30 3931 H 370.187 0.983886 2.98609 0
M  V30 3932 N 373.959 -0.0401083 1.57549 0
M  V30 3933 C 375.37 -0.588097 1.77196 0
M  V30 3934 C 375.721 -1.76209 0.862832 0
M  V30 3935 O 374.846 -2.16331 0.0548389 0
M  V30 3936 C 375.441 -1.07363 3.21339 0
M  V30 3937 C 374 -1.56723 3.42221 0
M  V30 3938 C 373.147 -0.50041 2.72747 0
M  V30 3939 H 376.098 0.186119 1.57605 0
M  V30 3940 H 376.119 -1.94143 3.27244 0
M  V30 3941 H 375.631 -0.218975 3.87482 0
M  V30 3942 H 373.732 -2.4441 2.81237 0
M  V30 3943 H 373.845 -1.62234 4.50796 0
M  V30 3944 H 372.209 -0.952894 2.36203 0
M  V30 3945 H 372.992 0.344599 3.41566 0
M  V30 3946 N 375.437 -1.54477 -0.31217 0
M  V30 3947 C 376.848 -1.64344 -0.885891 0
M  V30 3948 C 377.199 -0.54485 -1.88483 0
M  V30 3949 O 376.324 0.320387 -2.14015 0
M  V30 3950 C 376.919 -2.97908 -1.61357 0
M  V30 3951 C 375.478 -3.09933 -2.13585 0
M  V30 3952 C 374.625 -2.59971 -0.964897 0
M  V30 3953 H 377.576 -1.58448 -0.0894528 0
M  V30 3954 H 377.597 -2.88706 -2.47848 0
M  V30 3955 H 377.109 -3.77845 -0.886277 0
M  V30 3956 H 375.21 -2.34694 -2.89395 0
M  V30 3957 H 375.323 -4.15916 -2.37804 0
M  V30 3958 H 373.687 -2.16147 -1.34731 0
M  V30 3959 H 374.47 -3.42376 -0.251742 0
M  V30 3960 N 376.915 0.57481 -1.46744 0
M  V30 3961 C 378.164 1.32898 -1.51727 0
M  V30 3962 C 378.477 1.948 -0.176692 0
M  V30 3963 O 379.683 2.71299 -0.104385 0
M  V30 3964 C 378.139 2.40901 -2.67385 0
M  V30 3965 C 377.747 1.85266 -4.07898 0
M  V30 3966 C 379.491 3.17609 -2.81646 0
M  V30 3967 C 377.398 2.90945 -5.14883 0
M  V30 3968 H 376.328 0.499631 -0.564699 0
M  V30 3969 H 378.979 0.612536 -1.72975 0
M  V30 3970 H 377.361 3.15379 -2.39483 0
M  V30 3971 H 378.535 1.17278 -4.45626 0
M  V30 3972 H 376.85 1.21199 -3.98371 0
M  V30 3973 H 379.447 3.96493 -3.58744 0
M  V30 3974 H 379.79 3.70696 -1.89448 0
M  V30 3975 H 380.323 2.50239 -3.09233 0
M  V30 3976 H 377.062 2.42736 -6.089 0
M  V30 3977 H 376.582 3.57398 -4.81691 0
M  V30 3978 H 378.261 3.54755 -5.41071 0
M  V30 3979 N 378.394 1.34581 0.820102 0
M  V30 3980 C 379.805 1.24298 1.39309 0
M  V30 3981 C 380.156 -0.130351 1.95767 0
M  V30 3982 O 379.281 -1.0308 1.90272 0
M  V30 3983 C 379.876 2.25054 2.53251 0
M  V30 3984 C 378.435 2.18552 3.0645 0
M  V30 3985 C 377.582 2.11503 1.79337 0
M  V30 3986 H 380.533 1.45906 0.624262 0
M  V30 3987 H 380.554 1.86917 3.31425 0
M  V30 3988 H 380.066 3.24996 2.1213 0
M  V30 3989 H 378.167 1.21976 3.52069 0
M  V30 3990 H 378.28 3.0993 3.65349 0
M  V30 3991 H 376.644 1.57268 2.00347 0
M  V30 3992 H 377.427 3.13284 1.40386 0
M  V30 3993 N 379.872 -1.04064 1.18357 0
M  V30 3994 C 381.118 -1.77528 0.980397 0
M  V30 3995 C 381.451 -1.87948 -0.48879 0
M  V30 3996 O 380.726 -1.3876 -1.36293 0
M  V30 3997 C 381.009 -3.20797 1.63588 0
M  V30 3998 C 380.862 -3.1832 3.17793 0
M  V30 3999 C 382.181 -4.18911 1.34914 0
M  V30 4000 H 379.3 -0.644443 0.357578 0
M  V30 4001 H 381.942 -1.2156 1.46024 0
M  V30 4002 H 380.092 -3.68586 1.22788 0
M  V30 4003 H 381.764 -2.78521 3.67728 0
M  V30 4004 H 380.007 -2.56351 3.49952 0
M  V30 4005 H 380.678 -4.19489 3.58794 0
M  V30 4006 H 383.154 -3.7967 1.70265 0
M  V30 4007 H 382.03 -5.17374 1.83346 0
M  V30 4008 H 382.291 -4.41262 0.272027 0
M  V30 4009 N 381.35 -0.985608 -1.22978 0
M  V30 4010 C 382.598 -0.656087 -1.91154 0
M  V30 4011 C 382.919 0.813561 -1.77218 0
M  V30 4012 O 382.189 1.58244 -1.1548 0
M  V30 4013 H 380.769 -0.239674 -0.707506 0
M  V30 4014 H 383.431 -1.25054 -1.49491 0
M  V30 4015 H 382.527 -0.912253 -2.9847 0
M  V30 4016 N 382.828 1.3818 -0.7579 0
M  V30 4017 C 383.738 2.3421 -0.135247 0
M  V30 4018 C 384.754 1.59487 0.695683 0
M  V30 4019 O 385.93 1.91657 0.618832 0
M  V30 4020 C 382.995 3.3862 0.744139 0
M  V30 4021 C 382.056 4.2918 -0.101658 0
M  V30 4022 C 381.289 5.28603 0.735851 0
M  V30 4023 O 381.512 5.35166 1.97366 0
M  V30 4024 O 380.446 6.01707 0.152372 0
M  V30 4025 H 384.272 2.8916 -0.928436 0
M  V30 4026 H 381.857 1.40101 -0.518855 0
M  V30 4027 H 383.739 4.02539 1.2466 0
M  V30 4028 H 382.414 2.86019 1.51575 0
M  V30 4029 H 381.321 3.68407 -0.650167 0
M  V30 4030 H 382.654 4.85048 -0.836024 0
M  V30 4031 N 384.306 0.507319 1.49211 0
M  V30 4032 C 385.555 -0.0368315 2.01666 0
M  V30 4033 C 385.868 -1.37459 1.39156 0
M  V30 4034 O 387.074 -2.00579 1.82976 0
M  V30 4035 C 385.53 -0.116089 3.59713 0
M  V30 4036 C 385.138 1.2154 4.31198 0
M  V30 4037 C 386.882 -0.610268 4.2009 0
M  V30 4038 C 384.789 1.09796 5.81119 0
M  V30 4039 H 383.719 -0.0175376 0.753796 0
M  V30 4040 H 386.37 0.647691 1.71689 0
M  V30 4041 H 384.752 -0.8652 3.86433 0
M  V30 4042 H 385.926 1.9783 4.16173 0
M  V30 4043 H 384.241 1.64352 3.82593 0
M  V30 4044 H 386.838 -0.715742 5.29888 0
M  V30 4045 H 387.181 -1.61064 3.8388 0
M  V30 4046 H 387.714 0.0824916 3.97714 0
M  V30 4047 H 384.453 2.0728 6.21864 0
M  V30 4048 H 383.973 0.376058 5.9862 0
M  V30 4049 H 385.652 0.779281 6.4229 0
M  V30 4050 N 385.784 -1.5574 0.241426 0
M  V30 4051 C 387.014 -2.02913 -0.38857 0
M  V30 4052 C 387.422 -1.12014 -1.52478 0
M  V30 4053 O 386.765 -0.125903 -1.83268 0
M  V30 4054 C 386.827 -3.4636 -0.963075 0
M  V30 4055 C 386.491 -4.56982 0.0401916 0
M  V30 4056 C 387.488 -5.12941 0.847766 0
M  V30 4057 C 385.173 -5.0203 0.164699 0
M  V30 4058 C 387.167 -6.12437 1.76636 0
M  V30 4059 C 384.854 -6.01358 1.0868 0
M  V30 4060 C 385.852 -6.5644 1.88616 0
M  V30 4061 O 385.54 -7.53831 2.79273 0
M  V30 4062 H 385.272 -0.668983 -0.0971452 0
M  V30 4063 H 387.826 -2.02198 0.361248 0
M  V30 4064 H 386.056 -3.44206 -1.76235 0
M  V30 4065 H 387.745 -3.77065 -1.50257 0
M  V30 4066 H 388.511 -4.78974 0.762133 0
M  V30 4067 H 384.39 -4.58824 -0.447411 0
M  V30 4068 H 387.934 -6.55355 2.39071 0
M  V30 4069 H 383.831 -6.34746 1.17338 0
M  V30 4070 H 384.599 -7.71428 2.73572 0
M  V30 4071 N 387.262 0.0317525 -1.57568 0
M  V30 4072 C 388.209 1.0332 -2.06382 0
M  V30 4073 C 389.179 1.36082 -0.952414 0
M  V30 4074 O 390.364 1.46466 -1.2228 0
M  V30 4075 C 387.504 2.32989 -2.54578 0
M  V30 4076 C 386.617 2.0641 -3.79498 0
M  V30 4077 C 385.752 3.2993 -4.16317 0
M  V30 4078 C 384.791 2.98893 -5.34162 0
M  V30 4079 N 383.928 4.14857 -5.66426 0
M  V30 4080 H 388.768 0.609982 -2.9169 0
M  V30 4081 H 386.305 0.289573 -1.44222 0
M  V30 4082 H 388.263 3.0875 -2.80587 0
M  V30 4083 H 386.893 2.73039 -1.7219 0
M  V30 4084 H 385.945 1.21158 -3.6059 0
M  V30 4085 H 387.257 1.79513 -4.65378 0
M  V30 4086 H 386.411 4.1406 -4.4344 0
M  V30 4087 H 385.15 3.59938 -3.29083 0
M  V30 4088 H 384.155 2.13164 -5.06795 0
M  V30 4089 H 385.38 2.70165 -6.23047 0
M  V30 4090 H 383.326 4.44821 -4.82151 0
M  V30 4091 H 383.243 3.91374 -6.4681 0
M  V30 4092 H 384.511 4.99868 -5.98124 0
M  V30 4093 N 388.74 1.54641 0.303973 0
M  V30 4094 C 390.156 1.45788 0.649463 0
M  V30 4095 C 390.356 0.64666 1.90842 0
M  V30 4096 O 389.412 0.153183 2.52035 0
M  V30 4097 C 390.725 2.89718 0.805227 0
M  V30 4098 C 392.273 2.99742 0.901305 0
M  V30 4099 C 392.748 4.44863 1.08909 0
M  V30 4100 N 394.239 4.48559 1.15536 0
M  V30 4101 C 394.974 5.58026 1.3189 0
M  V30 4102 N 394.47 6.77422 1.45161 0
M  V30 4103 N 396.263 5.45708 1.34755 0
M  V30 4104 H 388.414 2.05854 -0.523237 0
M  V30 4105 H 390.677 0.932186 -0.172431 0
M  V30 4106 H 390.383 3.51666 -0.0489108 0
M  V30 4107 H 390.257 3.36964 1.69513 0
M  V30 4108 H 392.644 2.3791 1.74593 0
M  V30 4109 H 392.725 2.55797 -0.0125531 0
M  V30 4110 H 392.369 5.07288 0.249241 0
M  V30 4111 H 392.299 4.86436 2.01713 0
M  V30 4112 H 394.79 3.6254 1.06646 0
M  V30 4113 H 395.103 7.56604 1.57387 0
M  V30 4114 H 393.448 6.80292 1.42223 0
M  V30 4115 H 396.639 4.51378 1.23996 0
M  V30 4116 H 396.812 6.3107 1.47157 0
M  V30 4117 N 390.218 -0.567019 1.47046 0
M  V30 4118 C 391.464 -1.32434 1.54379 0
M  V30 4119 C 391.819 -1.91365 0.199276 0
M  V30 4120 O 391.112 -1.74378 -0.793915 0
M  V30 4121 C 391.306 -2.4623 2.59047 0
M  V30 4122 C 391.135 -1.98448 4.03545 0
M  V30 4123 C 389.905 -1.82741 4.71098 0
M  V30 4124 C 392.103 -1.53477 4.90866 0
M  V30 4125 N 390.085 -1.29196 6.00151 0
M  V30 4126 C 391.456 -1.1163 6.09868 0
M  V30 4127 C 393.511 -1.41438 4.77388 0
M  V30 4128 C 392.214 -0.589425 7.16881 0
M  V30 4129 C 394.24 -0.901528 5.84488 0
M  V30 4130 C 393.602 -0.492932 7.02673 0
M  V30 4131 H 389.701 -0.477005 0.61967 0
M  V30 4132 H 392.285 -0.643856 1.83746 0
M  V30 4133 H 390.456 -3.11821 2.31564 0
M  V30 4134 H 392.188 -3.13213 2.56281 0
M  V30 4135 H 388.943 -2.05162 4.26855 0
M  V30 4136 H 389.367 -1.0454 6.6888 0
M  V30 4137 H 394.009 -1.71643 3.86392 0
M  V30 4138 H 391.727 -0.274994 8.07632 0
M  V30 4139 H 395.313 -0.812071 5.76105 0
M  V30 4140 H 394.193 -0.102227 7.84133 0
M  V30 4141 N 391.696 -1.35014 -0.812953 0
M  V30 4142 C 392.945 -1.27269 -1.56479 0
M  V30 4143 C 393.258 0.152771 -1.95002 0
M  V30 4144 O 394.464 0.352451 -2.69203 0
M  V30 4145 C 392.92 -2.23159 -2.82362 0
M  V30 4146 C 392.528 -3.71016 -2.511 0
M  V30 4147 C 394.272 -2.24342 -3.60376 0
M  V30 4148 C 392.179 -4.58746 -3.73237 0
M  V30 4149 H 391.109 -0.472829 -0.587324 0
M  V30 4150 H 393.76 -1.6024 -0.894171 0
M  V30 4151 H 392.142 -1.83151 -3.51101 0
M  V30 4152 H 393.316 -4.1962 -1.90409 0
M  V30 4153 H 391.631 -3.72378 -1.86343 0
M  V30 4154 H 394.228 -2.87107 -4.51081 0
M  V30 4155 H 394.571 -1.24542 -3.97234 0
M  V30 4156 H 395.104 -2.62846 -2.98591 0
M  V30 4157 H 391.843 -5.59521 -3.41492 0
M  V30 4158 H 391.363 -4.14871 -4.33176 0
M  V30 4159 H 393.042 -4.73852 -4.40537 0
M  V30 4160 N 393.175 1.03435 -1.18907 0
M  V30 4161 C 394.424 1.76143 -0.982669 0
M  V30 4162 C 394.737 1.89416 0.487953 0
M  V30 4163 O 395.943 2.59041 0.813036 0
M  V30 4164 C 394.399 3.16722 -1.70924 0
M  V30 4165 C 394.007 3.11522 -3.21959 0
M  V30 4166 C 395.751 3.93764 -1.58588 0
M  V30 4167 C 393.658 4.46999 -3.87228 0
M  V30 4168 H 392.588 0.660292 -0.364047 0
M  V30 4169 H 395.239 1.158 -1.42347 0
M  V30 4170 H 393.621 3.775 -1.19623 0
M  V30 4171 H 394.795 2.60158 -3.80335 0
M  V30 4172 H 393.11 2.47978 -3.34508 0
M  V30 4173 H 395.707 4.93963 -2.04707 0
M  V30 4174 H 396.05 4.12794 -0.539142 0
M  V30 4175 H 396.583 3.39576 -2.07203 0
M  V30 4176 H 393.322 4.33174 -4.91976 0
M  V30 4177 H 392.842 4.98441 -3.33642 0
M  V30 4178 H 394.521 5.15898 -3.90459 0
M  V30 4179 N 394.653 0.992116 1.22453 0
M  V30 4180 C 395.583 0.561677 2.26644 0
M  V30 4181 C 396.564 -0.411055 1.65059 0
M  V30 4182 O 397.749 -0.301861 1.9184 0
M  V30 4183 C 394.879 -0.125247 3.47074 0
M  V30 4184 C 393.833 0.765948 4.21091 0
M  V30 4185 C 393.159 -0.0538484 5.34673 0
M  V30 4186 C 394.459 2.06242 4.79856 0
M  V30 4187 H 396.153 1.43259 2.62902 0
M  V30 4188 H 393.699 0.690283 1.26377 0
M  V30 4189 H 395.652 -0.437764 4.1912 0
M  V30 4190 H 394.376 -1.03069 3.0991 0
M  V30 4191 H 393.035 1.0621 3.50878 0
M  V30 4192 H 392.683 -0.960188 4.9375 0
M  V30 4193 H 392.383 0.539415 5.85119 0
M  V30 4194 H 393.907 -0.360477 6.09535 0
M  V30 4195 H 395.321 1.8139 5.43848 0
M  V30 4196 H 393.718 2.60444 5.40638 0
M  V30 4197 H 394.788 2.74167 3.99951 0
M  V30 4198 N 396.131 -1.37776 0.765217 0
M  V30 4199 C 397.379 -1.99454 0.325943 0
M  V30 4200 C 397.7 -1.61049 -1.09947 0
M  V30 4201 O 396.97 -0.872821 -1.75381 0
M  V30 4202 H 395.55 -0.737697 0.117525 0
M  V30 4203 H 398.212 -1.68359 0.981895 0
M  V30 4204 H 397.308 -3.09547 0.398353 0
M  V30 4205 N 397.609 -0.515225 -1.4894 0
M  V30 4206 C 398.539 0.244628 -2.32215 0
M  V30 4207 C 399.52 0.949136 -1.41157 0
M  V30 4208 O 400.705 0.937783 -1.70057 0
M  V30 4209 C 397.835 1.30096 -3.22013 0
M  V30 4210 C 396.789 0.715486 -4.21977 0
M  V30 4211 C 396.115 1.87339 -5.00808 0
M  V30 4212 C 397.415 -0.302982 -5.2142 0
M  V30 4213 H 399.109 -0.450501 -2.95991 0
M  V30 4214 H 396.655 -0.218098 -1.42339 0
M  V30 4215 H 398.608 1.84037 -3.79089 0
M  V30 4216 H 397.332 2.02547 -2.56207 0
M  V30 4217 H 395.991 0.197715 -3.66066 0
M  V30 4218 H 395.639 2.58592 -4.31438 0
M  V30 4219 H 395.339 1.48764 -5.68457 0
M  V30 4220 H 396.863 2.41686 -5.60732 0
M  V30 4221 H 398.277 0.148802 -5.73107 0
M  V30 4222 H 396.674 -0.60532 -5.97039 0
M  V30 4223 H 397.744 -1.21395 -4.69459 0
M  V30 4224 N 399.087 1.5561 -0.249682 0
M  V30 4225 C 400.035 2.22894 0.664906 0
M  V30 4226 C 401.029 1.21743 1.17792 0
M  V30 4227 O 402.235 1.39748 1.13449 0
M  V30 4228 H 398.61 0.715022 0.232912 0
M  V30 4229 H 400.581 2.98307 0.0742998 0
M  V30 4230 C 399.33 2.94424 1.84959 0
M  V30 4231 H 398.653 3.72031 1.46399 0
M  V30 4232 H 400.093 3.44862 2.4667 0
M  V30 4233 C 398.552 1.98454 2.72245 0
M  V30 4234 O 399.082 1.51939 3.71857 0
M  V30 4235 N 397.288 1.65496 2.38871 0
M  V30 4236 H 396.835 2.03517 1.57919 0
M  V30 4237 H 396.793 1.0155 2.97548 0
M  V30 4238 N 400.565 -0.0233959 1.57583 0
M  V30 4239 C 401.512 -1.02224 2.06927 0
M  V30 4240 C 402.482 -1.35575 0.959617 0
M  V30 4241 O 403.667 -1.45815 1.23055 0
M  V30 4242 C 400.807 -2.31636 2.5581 0
M  V30 4243 C 399.92 -2.04394 3.80588 0
M  V30 4244 C 399.055 -3.27717 4.18061 0
M  V30 4245 C 398.094 -2.96056 5.3574 0
M  V30 4246 N 397.231 -4.11847 5.68618 0
M  V30 4247 H 402.071 -0.594504 2.9201 0
M  V30 4248 H 399.608 -0.281921 1.44373 0
M  V30 4249 H 401.566 -3.07258 2.82221 0
M  V30 4250 H 400.196 -2.72122 1.73636 0
M  V30 4251 H 399.248 -1.19244 3.61227 0
M  V30 4252 H 400.56 -1.77042 4.66323 0
M  V30 4253 H 399.714 -4.11702 4.4563 0
M  V30 4254 H 398.453 -3.58188 3.30988 0
M  V30 4255 H 397.458 -2.10474 5.07918 0
M  V30 4256 H 398.683 -2.66857 6.24471 0
M  V30 4257 H 396.629 -4.42258 4.84504 0
M  V30 4258 H 396.546 -3.87938 6.48876 0
M  V30 4259 H 397.814 -4.96689 6.00766 0
M  V30 4260 N 402.043 -1.548 -0.295768 0
M  V30 4261 C 403.292 -1.73538 -1.02798 0
M  V30 4262 C 403.605 -0.531159 -1.8825 0
M  V30 4263 O 404.811 -0.600458 -2.64777 0
M  V30 4264 C 403.267 -3.07051 -1.87744 0
M  V30 4265 C 402.875 -4.34968 -1.07269 0
M  V30 4266 C 404.619 -3.35146 -2.60533 0
M  V30 4267 C 402.526 -5.5953 -1.91521 0
M  V30 4268 H 401.456 -0.646794 -0.387522 0
M  V30 4269 H 404.107 -1.81278 -0.284718 0
M  V30 4270 H 402.489 -2.93289 -2.66078 0
M  V30 4271 H 403.663 -4.5958 -0.335117 0
M  V30 4272 H 401.978 -4.13847 -0.460384 0
M  V30 4273 H 404.575 -4.2541 -3.23929 0
M  V30 4274 H 404.918 -2.54255 -3.29636 0
M  V30 4275 H 405.451 -3.49902 -1.89244 0
M  V30 4276 H 402.19 -6.43103 -1.26878 0
M  V30 4277 H 401.71 -5.39096 -2.62937 0
M  V30 4278 H 403.389 -5.96982 -2.49442 0
M  V30 4279 N 403.521 0.559213 -1.47345 0
M  V30 4280 C 404.767 1.31843 -1.54095 0
M  V30 4281 C 405.1 1.93149 -0.201726 0
M  V30 4282 O 404.375 1.77759 0.789428 0
M  V30 4283 C 404.658 2.43006 -2.65744 0
M  V30 4284 C 404.511 1.86581 -4.09277 0
M  V30 4285 C 405.83 3.44943 -2.73318 0
M  V30 4286 H 402.949 0.478012 -0.560957 0
M  V30 4287 H 405.591 0.625977 -1.79392 0
M  V30 4288 H 403.741 3.02072 -2.44305 0
M  V30 4289 H 405.413 1.31792 -4.42073 0
M  V30 4290 H 403.656 1.17268 -4.17649 0
M  V30 4291 H 404.327 2.66933 -4.83168 0
M  V30 4292 H 406.803 2.95793 -2.92653 0
M  V30 4293 H 405.679 4.20153 -3.53218 0
M  V30 4294 H 405.94 4.03665 -1.80296 0
M  V30 4295 N 404.999 1.35443 0.805782 0
M  V30 4296 C 406.415 1.15499 1.10146 0
M  V30 4297 C 406.615 -0.0319975 2.01475 0
M  V30 4298 O 405.671 -0.70236 2.42535 0
M  V30 4299 C 406.984 2.45833 1.73166 0
M  V30 4300 C 408.532 2.52047 1.85583 0
M  V30 4301 C 409.007 3.82427 2.52019 0
M  V30 4302 N 410.498 3.83682 2.59504 0
M  V30 4303 C 411.233 4.81294 3.11679 0
M  V30 4304 N 410.729 5.89294 3.64287 0
M  V30 4305 N 412.522 4.6873 3.1024 0
M  V30 4306 H 404.673 2.11469 0.198678 0
M  V30 4307 H 406.936 0.93594 0.150731 0
M  V30 4308 H 406.642 3.32874 1.13526 0
M  V30 4309 H 406.516 2.6044 2.72857 0
M  V30 4310 H 408.903 1.65435 2.44367 0
M  V30 4311 H 408.984 2.41354 0.847455 0
M  V30 4312 H 408.628 4.69437 1.93885 0
M  V30 4313 H 408.558 3.90409 3.53395 0
M  V30 4314 H 411.049 3.05648 2.22234 0
M  V30 4315 H 411.362 6.59768 4.02401 0
M  V30 4316 H 409.707 5.92985 3.62483 0
M  V30 4317 H 412.898 3.83496 2.68419 0
M  V30 4318 H 413.071 5.44965 3.50596 0
M  V30 4319 N 406.477 -1.02803 1.19454 0
M  V30 4320 C 407.41 -2.107 0.876396 0
M  V30 4321 C 408.388 -1.61741 -0.166897 0
M  V30 4322 O 409.572 -1.88451 -0.0430195 0
M  V30 4323 C 406.699 -3.37262 0.311758 0
M  V30 4324 C 405.745 -4.05093 1.33424 0
M  V30 4325 S 406.578 -4.50498 2.89503 0
M  V30 4326 C 407.734 -5.80277 2.34584 0
M  V30 4327 H 407.967 -2.37362 1.79016 0
M  V30 4328 H 405.5 -1.15755 1.02177 0
M  V30 4329 H 407.458 -4.10499 -0.00748752 0
M  V30 4330 H 406.119 -3.08693 -0.58032 0
M  V30 4331 H 405.312 -4.9611 0.888302 0
M  V30 4332 H 404.914 -3.3803 1.60037 0
M  V30 4333 H 407.206 -6.54873 1.73633 0
M  V30 4334 H 408.149 -6.29651 3.23952 0
M  V30 4335 H 408.557 -5.3599 1.77131 0
M  V30 4336 N 407.956 -0.998596 -1.21925 0
M  V30 4337 C 409.186 -0.695276 -1.94549 0
M  V30 4338 C 409.594 0.745079 -1.73911 0
M  V30 4339 O 408.937 1.51507 -1.03881 0
M  V30 4340 C 408.999 -0.928485 -3.47303 0
M  V30 4341 C 408.663 -2.35443 -3.91683 0
M  V30 4342 C 409.66 -3.33428 -3.98901 0
M  V30 4343 C 407.345 -2.69038 -4.24174 0
M  V30 4344 C 409.339 -4.63079 -4.37992 0
M  V30 4345 C 407.026 -3.98906 -4.62944 0
M  V30 4346 C 408.024 -4.95738 -4.69822 0
M  V30 4347 O 407.712 -6.23285 -5.07711 0
M  V30 4348 H 407.444 -0.255902 -0.625692 0
M  V30 4349 H 409.998 -1.33767 -1.5587 0
M  V30 4350 H 408.228 -0.228917 -3.86022 0
M  V30 4351 H 409.917 -0.619539 -4.01144 0
M  V30 4352 H 410.683 -3.08807 -3.73983 0
M  V30 4353 H 406.562 -1.94367 -4.18022 0
M  V30 4354 H 410.106 -5.38658 -4.43275 0
M  V30 4355 H 406.003 -4.23314 -4.87314 0
M  V30 4356 H 406.771 -6.27306 -5.25766 0
M  V30 4357 N 409.434 1.37368 -0.772513 0
M  V30 4358 C 410.659 2.0447 -0.347386 0
M  V30 4359 C 411.084 1.57882 1.0225 0
M  V30 4360 O 410.442 0.73941 1.65537 0
M  V30 4361 C 410.49 3.58369 -0.400479 0
M  V30 4362 O 409.594 4.0803 0.598789 0
M  V30 4363 H 408.935 0.646773 -0.15027 0
M  V30 4364 H 411.465 1.75667 -1.04892 0
M  V30 4365 H 411.475 4.07183 -0.258045 0
M  V30 4366 H 410.15 3.91633 -1.39986 0
M  V30 4367 H 408.727 3.70534 0.419411 0
M  V30 4368 N 410.912 0.523116 1.48665 0
M  V30 4369 C 412.323 0.0808997 1.86525 0
M  V30 4370 C 412.674 -1.33975 1.43336 0
M  V30 4371 O 411.799 -2.00221 0.821009 0
M  V30 4372 C 412.394 0.140037 3.3851 0
M  V30 4373 C 410.953 -0.246948 3.75589 0
M  V30 4374 C 410.1 0.502845 2.72703 0
M  V30 4375 H 413.051 0.734736 1.40667 0
M  V30 4376 H 413.072 -0.649945 3.74908 0
M  V30 4377 H 412.584 1.17412 3.69914 0
M  V30 4378 H 410.685 -1.28343 3.49798 0
M  V30 4379 H 410.798 0.0878859 4.79019 0
M  V30 4380 H 409.162 -0.0500581 2.54651 0
M  V30 4381 H 409.945 1.53743 3.0695 0
M  V30 4382 N 412.39 -1.55475 0.257931 0
M  V30 4383 C 413.618 -2.03609 -0.367559 0
M  V30 4384 C 414.033 -1.13687 -1.50734 0
M  V30 4385 O 413.39 -0.153479 -1.81853 0
M  V30 4386 C 413.441 -3.51001 -0.864908 0
M  V30 4387 O 413.162 -4.37499 0.229465 0
M  V30 4388 C 414.663 -4.14946 -1.55997 0
M  V30 4389 H 411.883 -0.665459 -0.0860521 0
M  V30 4390 H 414.427 -2.00843 0.385014 0
M  V30 4391 H 412.582 -3.54266 -1.56762 0
M  V30 4392 H 412.996 -5.24286 -0.14998 0
M  V30 4393 H 414.47 -5.19735 -1.85956 0
M  V30 4394 H 414.947 -3.6209 -2.4857 0
M  V30 4395 H 415.553 -4.15635 -0.901543 0
M  V30 4396 N 413.868 0.0150385 -1.57593 0
M  V30 4397 C 415.093 0.718067 -1.94573 0
M  V30 4398 C 415.518 1.6734 -0.859005 0
M  V30 4399 O 414.876 1.80362 0.184147 0
M  V30 4400 C 414.924 1.43918 -3.30636 0
M  V30 4401 O 414.028 2.55299 -3.23876 0
M  V30 4402 H 413.369 0.192125 -0.635597 0
M  V30 4403 H 415.899 -0.0336708 -2.04572 0
M  V30 4404 H 415.909 1.80598 -3.65853 0
M  V30 4405 H 414.584 0.738619 -4.09289 0
M  V30 4406 H 413.161 2.21058 -3.00312 0
M  V30 4407 N 415.346 1.54954 0.287554 0
M  V30 4408 C 416.595 1.74081 1.01877 0
M  V30 4409 C 416.908 0.541135 1.87966 0
M  V30 4410 O 418.114 0.614491 2.64455 0
M  V30 4411 C 416.57 3.08042 1.86113 0
M  V30 4412 C 416.178 4.35531 1.04961 0
M  V30 4413 C 417.922 3.36523 2.58752 0
M  V30 4414 C 415.829 5.60538 1.88551 0
M  V30 4415 H 414.759 0.64884 0.384087 0
M  V30 4416 H 417.41 1.81426 0.275101 0
M  V30 4417 H 415.792 2.94696 2.64519 0
M  V30 4418 H 416.966 4.59751 0.31074 0
M  V30 4419 H 415.281 4.14085 0.43843 0
M  V30 4420 H 417.878 4.27122 3.21668 0
M  V30 4421 H 418.221 2.56 3.28283 0
M  V30 4422 H 418.754 3.50901 1.87386 0
M  V30 4423 H 415.493 6.43767 1.23466 0
M  V30 4424 H 415.013 5.40483 2.60074 0
M  V30 4425 H 416.692 5.98297 2.46273 0
M  V30 4426 N 416.824 -0.551391 1.4764 0
M  V30 4427 C 417.754 -1.66757 1.63445 0
M  V30 4428 C 418.735 -1.63077 0.483742 0
M  V30 4429 O 419.92 -1.80607 0.71377 0
M  V30 4430 C 417.05 -3.05387 1.65396 0
M  V30 4431 C 416.004 -3.23918 2.79752 0
M  V30 4432 C 415.33 -4.63393 2.66779 0
M  V30 4433 C 416.63 -3.08735 4.21284 0
M  V30 4434 H 418.324 -1.53786 2.56886 0
M  V30 4435 H 415.87 -0.738415 1.23626 0
M  V30 4436 H 417.823 -3.83325 1.75043 0
M  V30 4437 H 416.547 -3.19332 0.685195 0
M  V30 4438 H 415.206 -2.48391 2.69625 0
M  V30 4439 H 414.854 -4.74144 1.67918 0
M  V30 4440 H 414.554 -4.7674 3.43501 0
M  V30 4441 H 416.078 -5.43458 2.78364 0
M  V30 4442 H 417.492 -3.76484 4.32357 0
M  V30 4443 H 415.889 -3.33588 4.98838 0
M  V30 4444 H 416.959 -2.0541 4.39243 0
M  V30 4445 N 418.302 -1.35869 -0.798587 0
M  V30 4446 C 419.579 -1.20145 -1.54352 0
M  V30 4447 C 419.959 0.216161 -2.0999 0
M  V30 4448 O 419.307 1.22068 -1.93162 0
M  V30 4449 C 419.517 -2.27602 -2.64572 0
M  V30 4450 C 420.865 -2.63811 -3.32699 0
M  V30 4451 O 421.889 -2.26576 -2.74849 0
M  V30 4452 O 420.748 -3.27866 -4.37226 0
M  V30 4453 H 417.842 -0.467248 -0.682355 0
M  V30 4454 H 420.388 -1.47574 -0.837859 0
M  V30 4455 H 419.16 -3.2265 -2.21388 0
M  V30 4456 H 418.783 -2.01488 -3.42766 0
M  V30 4457 N 419.78 1.02168 -1.19998 0
M  V30 4458 C 421.029 1.75091 -1.0013 0
M  V30 4459 C 421.342 1.89923 0.467835 0
M  V30 4460 O 422.548 2.59888 0.785515 0
M  V30 4461 C 421.004 3.14892 -1.74273 0
M  V30 4462 C 420.612 3.0809 -3.25245 0
M  V30 4463 C 422.356 3.9206 -1.62755 0
M  V30 4464 C 420.263 4.42867 -3.91948 0
M  V30 4465 H 419.193 0.656394 -0.37103 0
M  V30 4466 H 421.844 1.14284 -1.43567 0
M  V30 4467 H 420.226 3.7621 -1.2362 0
M  V30 4468 H 421.4 2.5611 -3.83072 0
M  V30 4469 H 419.715 2.44416 -3.3712 0
M  V30 4470 H 422.312 4.91764 -2.09934 0
M  V30 4471 H 422.655 4.12199 -0.582894 0
M  V30 4472 H 423.188 3.37359 -2.10793 0
M  V30 4473 H 419.927 4.27931 -4.96543 0
M  V30 4474 H 419.447 4.94874 -3.3891 0
M  V30 4475 H 421.126 5.11728 -3.95909 0
M  V30 4476 N 421.258 1.00505 1.21394 0
M  V30 4477 C 422.674 0.717873 1.42544 0
M  V30 4478 C 422.874 -0.706936 1.88692 0
M  V30 4479 O 421.93 -1.47627 2.04847 0
M  V30 4480 C 423.243 1.73377 2.45684 0
M  V30 4481 C 424.791 1.75059 2.59467 0
M  V30 4482 C 425.266 2.75545 3.6584 0
M  V30 4483 N 426.757 2.74213 3.73311 0
M  V30 4484 C 427.492 3.48626 4.55245 0
M  V30 4485 N 426.988 4.32678 5.41075 0
M  V30 4486 N 428.781 3.37276 4.49668 0
M  V30 4487 H 420.932 1.92506 0.897503 0
M  V30 4488 H 423.195 0.830919 0.456375 0
M  V30 4489 H 422.901 2.75395 2.18748 0
M  V30 4490 H 422.775 1.53647 3.44489 0
M  V30 4491 H 425.162 0.737337 2.8574 0
M  V30 4492 H 425.243 1.98861 1.60897 0
M  V30 4493 H 424.887 3.77028 3.40313 0
M  V30 4494 H 424.817 2.49009 4.64007 0
M  V30 4495 H 427.308 2.13234 3.11993 0
M  V30 4496 H 427.621 4.86253 6.00648 0
M  V30 4497 H 425.966 4.3676 5.40616 0
M  V30 4498 H 429.157 2.71043 3.81646 0
M  V30 4499 H 429.33 3.95524 5.13288 0
M  V30 4500 N 422.737 -1.36956 0.779787 0
M  V30 4501 C 423.669 -2.28833 0.129639 0
M  V30 4502 C 424.682 -1.4902 -0.655511 0
M  V30 4503 O 425.871 -1.71578 -0.492279 0
M  V30 4504 C 422.971 -3.2833 -0.839792 0
M  V30 4505 C 422.144 -4.3727 -0.10675 0
M  V30 4506 C 421.203 -5.16789 -0.990717 0
M  V30 4507 O 420.229 -5.67406 -0.451516 0
M  V30 4508 N 421.431 -5.32294 -2.3161 0
M  V30 4509 H 424.196 -2.85268 0.918803 0
M  V30 4510 H 421.757 -1.49019 0.632841 0
M  V30 4511 H 423.749 -3.78413 -1.43477 0
M  V30 4512 H 422.319 -2.72605 -1.52988 0
M  V30 4513 H 421.539 -3.88478 0.669216 0
M  V30 4514 H 422.827 -5.07229 0.399464 0
M  V30 4515 H 422.225 -4.92768 -2.77843 0
M  V30 4516 H 420.782 -5.85656 -2.86095 0
M  V30 4517 N 424.215 -0.530993 -1.48385 0
M  V30 4518 C 425.463 0.00273189 -2.021 0
M  V30 4519 C 425.784 1.34672 -1.41027 0
M  V30 4520 O 425.054 1.8724 -0.576012 0
M  V30 4521 H 423.634 0.00399774 -0.746989 0
M  V30 4522 H 426.296 -0.695054 -1.82085 0
M  V30 4523 H 425.392 0.11031 -3.11905 0
M  V30 4524 N 425.693 1.55336 -0.266172 0
M  V30 4525 C 427.104 1.85236 0.233315 0
M  V30 4526 C 427.455 1.18816 1.56132 0
M  V30 4527 O 426.58 0.473307 2.11161 0
M  V30 4528 C 427.175 3.36059 0.430113 0
M  V30 4529 C 425.734 3.66116 0.873842 0
M  V30 4530 C 424.881 2.77274 -0.0380016 0
M  V30 4531 H 427.832 1.51004 -0.488214 0
M  V30 4532 H 427.853 3.58681 1.26998 0
M  V30 4533 H 427.365 3.84373 -0.536588 0
M  V30 4534 H 425.466 3.23295 1.85233 0
M  V30 4535 H 425.579 4.73699 0.717358 0
M  V30 4536 H 423.943 2.50198 0.476759 0
M  V30 4537 H 424.726 3.284 -1.00042 0
M  V30 4538 N 427.171 -0.0066808 1.57599 0
M  V30 4539 C 428.118 -1.00024 2.08 0
M  V30 4540 C 429.088 -1.34549 0.973943 0
M  V30 4541 O 430.273 -1.44502 1.24595 0
M  V30 4542 C 427.413 -2.2891 2.58252 0
M  V30 4543 C 426.526 -2.00346 3.82734 0
M  V30 4544 C 425.661 -3.23265 4.21513 0
M  V30 4545 C 424.7 -2.90357 5.3885 0
M  V30 4546 N 423.837 -4.05793 5.72954 0
M  V30 4547 H 428.677 -0.563499 2.92624 0
M  V30 4548 H 426.214 -0.266592 1.44664 0
M  V30 4549 H 428.172 -3.04247 2.85464 0
M  V30 4550 H 426.802 -2.70265 1.76512 0
M  V30 4551 H 425.854 -1.15406 3.62471 0
M  V30 4552 H 427.166 -1.72086 4.68175 0
M  V30 4553 H 426.32 -4.06953 4.49971 0
M  V30 4554 H 425.059 -3.54657 3.34768 0
M  V30 4555 H 424.064 -2.05075 5.10122 0
M  V30 4556 H 425.289 -2.60219 6.27266 0
M  V30 4557 H 423.235 -4.37094 4.89167 0
M  V30 4558 H 423.152 -3.81034 6.52954 0
M  V30 4559 H 424.42 -4.90289 6.06001 0
M  V30 4560 N 428.649 -1.55105 -0.279332 0
M  V30 4561 C 429.559 -1.90638 -1.36727 0
M  V30 4562 C 430.575 -0.802899 -1.54368 0
M  V30 4563 O 431.751 -1.10138 -1.68616 0
M  V30 4564 C 428.816 -2.16547 -2.70755 0
M  V30 4565 C 427.877 -3.40146 -2.61915 0
M  V30 4566 C 427.11 -3.6481 -3.8955 0
M  V30 4567 O 427.333 -2.92095 -4.89935 0
M  V30 4568 O 426.267 -4.58343 -3.90135 0
M  V30 4569 H 430.093 -2.83237 -1.09591 0
M  V30 4570 H 427.678 -1.4157 -0.477306 0
M  V30 4571 H 429.56 -2.34665 -3.50014 0
M  V30 4572 H 428.235 -1.27131 -2.9769 0
M  V30 4573 H 427.142 -3.2737 -1.81052 0
M  V30 4574 H 428.475 -4.29761 -2.3993 0
M  V30 4575 N 430.127 0.543554 -1.4793 0
M  V30 4576 C 431.538 1.12561 -1.48953 0
M  V30 4577 C 431.889 1.94578 -0.251754 0
M  V30 4578 O 431.014 2.0665 0.642255 0
M  V30 4579 C 431.609 2.04801 -2.69892 0
M  V30 4580 C 430.168 2.58251 -2.73831 0
M  V30 4581 C 429.315 1.34918 -2.42265 0
M  V30 4582 H 432.266 0.32947 -1.55242 0
M  V30 4583 H 432.287 2.88886 -2.47639 0
M  V30 4584 H 431.799 1.4508 -3.59963 0
M  V30 4585 H 429.9 3.21732 -1.87934 0
M  V30 4586 H 430.013 2.98312 -3.74895 0
M  V30 4587 H 428.377 1.66046 -1.93134 0
M  V30 4588 H 429.16 0.769693 -3.3456 0
M  V30 4589 N 431.605 1.3629 0.791371 0
M  V30 4590 C 432.852 1.30412 1.54916 0
M  V30 4591 C 433.18 -0.117162 1.94147 0
M  V30 4592 O 432.435 -1.08599 1.62803 0
M  V30 4593 C 432.734 2.17068 2.8393 0
M  V30 4594 C 432.4 3.65645 2.63846 0
M  V30 4595 C 431.062 4.0614 2.58077 0
M  V30 4596 C 433.414 4.59855 2.45322 0
M  V30 4597 C 430.742 5.3899 2.31748 0
M  V30 4598 C 433.094 5.9292 2.2052 0
M  V30 4599 C 431.758 6.32542 2.13183 0
M  V30 4600 H 431.028 0.47721 0.566879 0
M  V30 4601 H 433.675 1.68325 0.913172 0
M  V30 4602 H 431.98 1.72085 3.51986 0
M  V30 4603 H 433.677 2.09846 3.4171 0
M  V30 4604 H 430.267 3.33518 2.69191 0
M  V30 4605 H 434.451 4.29443 2.48782 0
M  V30 4606 H 429.707 5.68672 2.24548 0
M  V30 4607 H 433.881 6.65487 2.05182 0
M  V30 4608 H 431.508 7.35412 1.92544 0
M  V30 4609 N 433.083 -1.0153 1.20538 0
M  V30 4610 C 434.499 -1.27461 0.96051 0
M  V30 4611 C 434.699 -1.98273 -0.359193 0
M  V30 4612 O 433.755 -2.27886 -1.0874 0
M  V30 4613 C 435.068 -2.10837 2.14402 0
M  V30 4614 C 436.616 -2.24099 2.18515 0
M  V30 4615 C 437.091 -3.10852 3.36355 0
M  V30 4616 N 438.582 -3.18441 3.36377 0
M  V30 4617 C 439.317 -3.85795 4.24205 0
M  V30 4618 N 438.813 -4.55264 5.22213 0
M  V30 4619 N 440.606 -3.82331 4.12043 0
M  V30 4620 H 432.757 -0.539907 2.05423 0
M  V30 4621 H 435.02 -0.30092 0.898972 0
M  V30 4622 H 434.726 -1.66144 3.09983 0
M  V30 4623 H 434.6 -3.11576 2.12604 0
M  V30 4624 H 436.987 -2.68016 1.23497 0
M  V30 4625 H 437.068 -1.22865 2.24361 0
M  V30 4626 H 436.712 -2.6764 4.31661 0
M  V30 4627 H 436.642 -4.12177 3.27746 0
M  V30 4628 H 439.133 -2.68978 2.65442 0
M  V30 4629 H 439.446 -5.04331 5.85551 0
M  V30 4630 H 437.791 -4.54085 5.26148 0
M  V30 4631 H 440.982 -3.27207 3.34743 0
M  V30 4632 H 441.155 -4.34547 4.807 0
M  V30 4633 N 434.561 -1.01147 -1.20859 0
M  V30 4634 C 435.838 -0.613136 -1.85742 0
M  V30 4635 C 436.218 0.909004 -1.90526 0
M  V30 4636 O 435.566 1.79862 -1.40932 0
M  V30 4637 C 435.776 -1.255 -3.25654 0
M  V30 4638 C 437.124 -1.3672 -4.01986 0
M  V30 4639 O 438.148 -1.21082 -3.34989 0
M  V30 4640 O 437.007 -1.6194 -5.21956 0
M  V30 4641 H 434.101 -0.210878 -0.799662 0
M  V30 4642 H 436.647 -1.10853 -1.2849 0
M  V30 4643 H 435.419 -2.29532 -3.16908 0
M  V30 4644 H 435.042 -0.746369 -3.90532 0
M  V30 4645 N 436.039 1.36541 -0.78704 0
M  V30 4646 C 437.269 2.03266 -0.369662 0
M  V30 4647 C 437.677 1.59481 1.01796 0
M  V30 4648 O 437.02 0.778612 1.66383 0
M  V30 4649 C 437.082 3.57779 -0.351371 0
M  V30 4650 C 436.746 4.24756 -1.68617 0
M  V30 4651 C 437.743 4.47811 -2.64124 0
M  V30 4652 C 435.428 4.62277 -1.96481 0
M  V30 4653 C 437.422 5.07464 -3.85693 0
M  V30 4654 C 435.109 5.21649 -3.18317 0
M  V30 4655 C 436.107 5.44182 -4.12741 0
M  V30 4656 O 435.795 6.02307 -5.32429 0
M  V30 4657 H 435.527 0.658977 -0.150751 0
M  V30 4658 H 438.081 1.75548 -1.0664 0
M  V30 4659 H 436.311 3.84606 0.401847 0
M  V30 4660 H 438 4.05879 0.0410147 0
M  V30 4661 H 438.766 4.19221 -2.43883 0
M  V30 4662 H 434.645 4.44065 -1.23805 0
M  V30 4663 H 438.189 5.24968 -4.59407 0
M  V30 4664 H 434.086 5.49664 -3.38437 0
M  V30 4665 H 434.854 6.20775 -5.33461 0
M  V30 4666 N 437.518 0.538854 1.48102 0
M  V30 4667 C 438.764 0.00801365 2.02798 0
M  V30 4668 C 439.097 -1.3309 1.41424 0
M  V30 4669 O 438.372 -1.86169 0.563158 0
M  V30 4670 C 438.655 -0.104589 3.59948 0
M  V30 4671 C 438.508 1.26012 4.31788 0
M  V30 4672 C 439.827 -0.827055 4.32259 0
M  V30 4673 H 436.946 0.00438624 0.736987 0
M  V30 4674 H 439.588 0.6976 1.7673 0
M  V30 4675 H 437.738 -0.691893 3.82289 0
M  V30 4676 H 439.41 1.88922 4.2084 0
M  V30 4677 H 437.653 1.83968 3.92859 0
M  V30 4678 H 438.324 1.13424 5.40221 0
M  V30 4679 H 440.8 -0.328578 4.14801 0
M  V30 4680 H 439.676 -0.87476 5.41885 0
M  V30 4681 H 439.937 -1.87927 4.0017 0
M  V30 4682 N 438.996 -1.55193 0.274407 0
M  V30 4683 C 440.273 -1.91584 -0.394331 0
M  V30 4684 C 440.653 -1.19858 -1.73774 0
M  V30 4685 O 440.001 -0.3252 -2.26174 0
M  V30 4686 C 440.211 -3.4487 -0.535311 0
M  V30 4687 C 441.559 -4.16636 -0.818534 0
M  V30 4688 O 442.583 -3.5076 -0.620146 0
M  V30 4689 O 441.442 -5.33209 -1.19792 0
M  V30 4690 H 438.536 -0.798349 -0.215794 0
M  V30 4691 H 441.082 -1.66646 0.320507 0
M  V30 4692 H 439.854 -3.89145 0.410141 0
M  V30 4693 H 439.477 -3.75759 -1.29964 0
M  V30 4694 N 440.474 -0.00167713 -1.576 0
M  V30 4695 C 441.89 0.354422 -1.55615 0
M  V30 4696 C 442.09 1.74679 -1.00447 0
M  V30 4697 O 441.146 2.4428 -0.639022 0
M  V30 4698 C 442.459 0.22812 -2.99833 0
M  V30 4699 C 444.007 0.302934 -3.11531 0
M  V30 4700 C 444.482 0.205737 -4.57538 0
M  V30 4701 N 445.973 0.263584 -4.62449 0
M  V30 4702 C 446.708 0.211742 -5.73009 0
M  V30 4703 N 446.204 0.110399 -6.92712 0
M  V30 4704 N 447.997 0.263729 -5.61481 0
M  V30 4705 H 440.148 -0.912498 -1.918 0
M  V30 4706 H 442.411 -0.349928 -0.881053 0
M  V30 4707 H 442.117 -0.729934 -3.44042 0
M  V30 4708 H 441.991 1.00951 -3.6344 0
M  V30 4709 H 444.378 1.25143 -2.67251 0
M  V30 4710 H 444.459 -0.508357 -2.50698 0
M  V30 4711 H 444.103 -0.739225 -5.02492 0
M  V30 4712 H 444.033 1.03554 -5.16318 0
M  V30 4713 H 446.524 0.343173 -3.76339 0
M  V30 4714 H 446.837 0.0767828 -7.72762 0
M  V30 4715 H 445.182 0.0760025 -6.94958 0
M  V30 4716 H 448.373 0.34111 -4.66855 0
M  V30 4717 H 448.546 0.219862 -6.47627 0
M  V30 4718 N 441.952 1.55251 0.271103 0
M  V30 4719 C 443.199 1.75946 1.00245 0
M  V30 4720 C 443.527 0.561611 1.86215 0
M  V30 4721 O 442.782 -0.455832 1.90317 0
M  V30 4722 C 443.081 3.01879 1.91321 0
M  V30 4723 C 442.747 4.34337 1.21086 0
M  V30 4724 C 441.409 4.70338 1.01666 0
M  V30 4725 C 443.761 5.16325 0.71119 0
M  V30 4726 C 441.089 5.8588 0.310099 0
M  V30 4727 C 443.441 6.32597 0.0182157 0
M  V30 4728 C 442.105 6.67236 -0.18768 0
M  V30 4729 H 441.375 0.643833 0.366824 0
M  V30 4730 H 444.022 1.89521 0.27458 0
M  V30 4731 H 442.327 2.83212 2.70736 0
M  V30 4732 H 444.024 3.15088 2.48033 0
M  V30 4733 H 440.614 4.06043 1.37213 0
M  V30 4734 H 444.798 4.88987 0.848844 0
M  V30 4735 H 440.054 6.1124 0.139873 0
M  V30 4736 H 444.228 6.9538 -0.376711 0
M  V30 4737 H 441.855 7.56618 -0.73715 0
M  V30 4738 N 443.43 -0.535701 1.48216 0
M  V30 4739 C 444.66 -1.3148 1.59363 0
M  V30 4740 C 445.068 -1.8753 0.250844 0
M  V30 4741 O 444.411 -1.66821 -0.769174 0
M  V30 4742 C 444.473 -2.50731 2.57632 0
M  V30 4743 C 444.137 -2.15811 4.02833 0
M  V30 4744 C 445.134 -1.71822 4.90686 0
M  V30 4745 C 442.819 -2.26509 4.48329 0
M  V30 4746 C 444.813 -1.3899 6.22062 0
M  V30 4747 C 442.5 -1.93289 5.79726 0
M  V30 4748 C 443.498 -1.49599 6.66415 0
M  V30 4749 O 443.186 -1.16812 7.95368 0
M  V30 4750 H 442.918 -0.406315 0.540263 0
M  V30 4751 H 445.472 -0.653569 1.94725 0
M  V30 4752 H 443.702 -3.19817 2.1738 0
M  V30 4753 H 445.391 -3.12797 2.58675 0
M  V30 4754 H 446.157 -1.63031 4.56778 0
M  V30 4755 H 442.036 -2.59471 3.81045 0
M  V30 4756 H 445.58 -1.04816 6.89681 0
M  V30 4757 H 441.477 -2.01718 6.13172 0
M  V30 4758 H 442.245 -1.30259 8.08069 0
M  V30 4759 N 444.908 -1.36708 -0.784132 0
M  V30 4760 C 445.855 -1.31466 -1.89698 0
M  V30 4761 C 446.825 -0.18239 -1.65096 0
M  V30 4762 O 448.01 -0.369762 -1.87183 0
M  V30 4763 C 445.15 -1.1151 -3.26588 0
M  V30 4764 C 444.263 -2.33859 -3.63227 0
M  V30 4765 C 443.398 -2.06873 -4.89262 0
M  V30 4766 C 442.437 -3.25154 -5.18595 0
M  V30 4767 N 441.574 -2.978 -6.35814 0
M  V30 4768 H 446.414 -2.26619 -1.93515 0
M  V30 4769 H 443.951 -1.12625 -0.946256 0
M  V30 4770 H 445.909 -0.979653 -4.05535 0
M  V30 4771 H 444.539 -0.200103 -3.22179 0
M  V30 4772 H 443.591 -2.58188 -2.79362 0
M  V30 4773 H 444.903 -3.22109 -3.8085 0
M  V30 4774 H 444.057 -1.90289 -5.76086 0
M  V30 4775 H 442.796 -1.15942 -4.73718 0
M  V30 4776 H 441.801 -3.42292 -4.30251 0
M  V30 4777 H 443.026 -4.1692 -5.36055 0
M  V30 4778 H 440.972 -2.09485 -6.21653 0
M  V30 4779 H 440.889 -3.7959 -6.53794 0
M  V30 4780 H 442.157 -2.84805 -7.25607 0
M  V30 4781 N 446.386 1.0089 -1.21074 0
M  V30 4782 C 447.614 1.78191 -1.05145 0
M  V30 4783 C 448.029 1.84537 0.398952 0
M  V30 4784 O 447.386 1.30393 1.27687 0
M  V30 4785 C 447.437 3.22288 -1.63746 0
M  V30 4786 O 447.158 3.16315 -3.03111 0
M  V30 4787 C 448.659 4.16106 -1.52875 0
M  V30 4788 H 445.879 0.560129 -0.369454 0
M  V30 4789 H 448.423 1.26945 -1.60328 0
M  V30 4790 H 446.578 3.70655 -1.12664 0
M  V30 4791 H 446.992 4.06817 -3.31059 0
M  V30 4792 H 448.466 5.15026 -1.98626 0
M  V30 4793 H 448.943 4.36541 -0.482521 0
M  V30 4794 H 449.549 3.73625 -2.03185 0
M  V30 4795 N 447.864 1.01787 1.20321 0
M  V30 4796 C 448.794 0.609625 2.25401 0
M  V30 4797 C 449.775 -0.375951 1.65893 0
M  V30 4798 O 450.96 -0.261101 1.92437 0
M  V30 4799 C 448.09 -0.0515995 3.47262 0
M  V30 4800 C 447.044 0.855095 4.19371 0
M  V30 4801 C 446.37 0.0595757 5.34667 0
M  V30 4802 C 447.67 2.16374 4.75373 0
M  V30 4803 H 449.364 1.48803 2.59804 0
M  V30 4804 H 446.91 0.716934 1.24884 0
M  V30 4805 H 448.863 -0.348764 4.19954 0
M  V30 4806 H 447.587 -0.964726 3.12027 0
M  V30 4807 H 446.246 1.13628 3.48546 0
M  V30 4808 H 445.894 -0.85524 4.95676 0
M  V30 4809 H 445.594 0.663406 5.83843 0
M  V30 4810 H 447.118 -0.231105 6.10162 0
M  V30 4811 H 448.532 1.92885 5.39878 0
M  V30 4812 H 446.929 2.71853 5.34991 0
M  V30 4813 H 447.999 2.82589 3.94045 0
M  V30 4814 N 449.342 -1.36122 0.79427 0
M  V30 4815 C 450.758 -1.5232 0.476525 0
M  V30 4816 C 450.958 -1.74685 -1.00436 0
M  V30 4817 O 450.014 -1.78115 -1.78973 0
M  V30 4818 C 451.327 -2.70607 1.31119 0
M  V30 4819 C 452.875 -2.8448 1.30537 0
M  V30 4820 C 453.35 -4.05778 2.12387 0
M  V30 4821 N 454.841 -4.12933 2.09859 0
M  V30 4822 C 455.576 -5.05876 2.69957 0
M  V30 4823 N 455.072 -6.04232 3.38934 0
M  V30 4824 N 456.865 -4.98528 2.59665 0
M  V30 4825 H 449.016 -1.1986 1.75349 0
M  V30 4826 H 451.279 -0.585418 0.745647 0
M  V30 4827 H 450.985 -2.60619 2.36158 0
M  V30 4828 H 450.859 -3.64888 0.955843 0
M  V30 4829 H 453.246 -2.93927 0.262876 0
M  V30 4830 H 453.327 -1.91093 1.70051 0
M  V30 4831 H 452.971 -3.97092 3.1667 0
M  V30 4832 H 452.901 -4.98323 1.70242 0
M  V30 4833 H 455.392 -3.42515 1.59662 0
M  V30 4834 H 455.705 -6.71724 3.82109 0
M  V30 4835 H 454.05 -6.04443 3.43036 0
M  V30 4836 H 457.241 -4.20641 2.05375 0
M  V30 4837 H 457.414 -5.70773 3.06793 0
M  V30 4838 N 450.82 -0.546701 -1.47814 0
M  V30 4839 C 451.783 0.196287 -2.28358 0
M  V30 4840 C 452.783 0.852437 -1.36346 0
M  V30 4841 O 453.973 0.709913 -1.59078 0
M  V30 4842 C 451.105 1.28579 -3.15722 0
M  V30 4843 H 452.298 -0.511086 -2.95513 0
M  V30 4844 H 449.851 -0.303248 -1.5333 0
M  V30 4845 H 450.586 2.0259 -2.53235 0
M  V30 4846 H 450.371 0.820229 -3.83425 0
M  V30 4847 H 451.861 1.80793 -3.76435 0
M  V30 4848 N 452.299 1.55045 -0.282633 0
M  V30 4849 C 453.209 2.26491 0.61147 0
M  V30 4850 C 454.225 1.29348 1.16384 0
M  V30 4851 O 455.401 1.62298 1.19253 0
M  V30 4852 C 452.466 2.97779 1.77563 0
M  V30 4853 C 451.527 4.10418 1.25919 0
M  V30 4854 C 450.76 4.78297 2.36786 0
M  V30 4855 O 450.983 4.45426 3.56303 0
M  V30 4856 O 449.917 5.66089 2.04517 0
M  V30 4857 H 453.743 3.03683 0.0324615 0
M  V30 4858 H 451.328 1.49317 -0.0497576 0
M  V30 4859 H 453.21 3.42554 2.45427 0
M  V30 4860 H 451.885 2.23498 2.34159 0
M  V30 4861 H 450.792 3.70082 0.546797 0
M  V30 4862 H 452.125 4.86622 0.738887 0
M  V30 4863 N 453.777 0.010035 1.57597 0
M  V30 4864 C 454.709 -1.00649 2.05918 0
M  V30 4865 C 455.722 -1.30077 0.978964 0
M  V30 4866 O 456.911 -1.26878 1.25556 0
M  V30 4867 C 454.011 -2.33876 2.45265 0
M  V30 4868 C 453.184 -2.23242 3.7614 0
M  V30 4869 C 452.243 -3.39242 4.02245 0
M  V30 4870 O 451.269 -3.1698 4.72771 0
M  V30 4871 N 452.471 -4.6242 3.50924 0
M  V30 4872 H 455.236 -0.594333 2.93748 0
M  V30 4873 H 452.797 -0.17714 1.60928 0
M  V30 4874 H 454.789 -3.1027 2.59836 0
M  V30 4875 H 453.359 -2.66799 1.62902 0
M  V30 4876 H 452.579 -1.31696 3.71551 0
M  V30 4877 H 453.867 -2.13321 4.61922 0
M  V30 4878 H 453.265 -4.83404 2.93832 0
M  V30 4879 H 451.822 -5.36046 3.70807 0
M  V30 4880 N 455.255 -1.55392 -0.262866 0
M  V30 4881 C 456.218 -1.88181 -1.30846 0
M  V30 4882 C 457.218 -0.757079 -1.41862 0
M  V30 4883 O 458.408 -1.02519 -1.40838 0
M  V30 4884 C 455.54 -2.09609 -2.68844 0
M  V30 4885 H 456.733 -2.81659 -1.02997 0
M  V30 4886 H 454.286 -1.48039 -0.501414 0
M  V30 4887 H 455.021 -1.18547 -3.01856 0
M  V30 4888 H 454.806 -2.91508 -2.62231 0
M  V30 4889 H 456.296 -2.36215 -3.44372 0
M  V30 4890 N 456.733 0.527833 -1.48498 0
M  V30 4891 C 457.958 1.313 -1.60546 0
M  V30 4892 C 458.383 1.86199 -0.26672 0
M  V30 4893 O 457.741 1.64513 0.761918 0
M  V30 4894 C 457.789 2.43818 -2.65678 0
M  V30 4895 O 456.893 3.46916 -2.22987 0
M  V30 4896 H 456.234 0.388784 -0.538277 0
M  V30 4897 H 458.764 0.634896 -1.945 0
M  V30 4898 H 458.774 2.89973 -2.87018 0
M  V30 4899 H 457.449 2.03222 -3.62869 0
M  V30 4900 H 456.026 3.06864 -2.11869 0
M  V30 4901 N 458.211 1.37122 0.776871 0
M  V30 4902 C 459.143 1.28342 1.89897 0
M  V30 4903 C 460.156 0.200277 1.61563 0
M  V30 4904 O 461.345 0.456012 1.72577 0
M  V30 4905 C 458.445 0.960427 3.25006 0
M  V30 4906 C 457.618 2.148 3.81025 0
M  V30 4907 C 456.677 1.79608 4.94598 0
M  V30 4908 O 455.703 2.51845 5.10454 0
M  V30 4909 N 456.905 0.737171 5.758 0
M  V30 4910 H 459.67 2.25027 1.97947 0
M  V30 4911 H 457.231 1.3068 0.955739 0
M  V30 4912 H 459.223 0.705942 3.98495 0
M  V30 4913 H 457.793 0.0823066 3.12492 0
M  V30 4914 H 457.013 2.56454 2.99374 0
M  V30 4915 H 458.301 2.9411 4.15183 0
M  V30 4916 H 457.699 0.137637 5.65533 0
M  V30 4917 H 456.256 0.542534 6.49538 0
M  V30 4918 N 459.689 -1.00246 1.21608 0
M  V30 4919 C 460.599 -2.12515 0.993709 0
M  V30 4920 C 461.615 -1.73913 -0.0549939 0
M  V30 4921 O 462.791 -2.00943 0.135619 0
M  V30 4922 C 459.856 -3.42083 0.563953 0
M  V30 4923 C 458.917 -3.94843 1.68516 0
M  V30 4924 C 458.15 -5.18226 1.27582 0
M  V30 4925 O 458.373 -5.70201 0.150506 0
M  V30 4926 O 457.307 -5.64497 2.0887 0
M  V30 4927 H 461.133 -2.34152 1.93407 0
M  V30 4928 H 458.718 -1.10891 1.00118 0
M  V30 4929 H 460.6 -4.20073 0.334194 0
M  V30 4930 H 459.275 -3.21828 -0.347665 0
M  V30 4931 H 458.182 -3.18068 1.96935 0
M  V30 4932 H 459.515 -4.19512 2.5743 0
M  V30 4933 N 461.167 -1.02423 -1.1978 0
M  V30 4934 C 462.413 -0.719051 -1.89625 0
M  V30 4935 C 462.746 0.750083 -1.7913 0
M  V30 4936 O 462.021 1.54574 -1.18056 0
M  V30 4937 C 462.304 -1.16499 -3.40735 0
M  V30 4938 C 462.157 -2.695 -3.60125 0
M  V30 4939 C 463.476 -0.742166 -4.33797 0
M  V30 4940 H 460.595 -0.26269 -0.688595 0
M  V30 4941 H 463.237 -1.27333 -1.41018 0
M  V30 4942 H 461.387 -0.69341 -3.82262 0
M  V30 4943 H 463.059 -3.24569 -3.278 0
M  V30 4944 H 461.302 -3.10113 -3.03336 0
M  V30 4945 H 461.973 -2.95757 -4.66081 0
M  V30 4946 H 464.449 -1.1477 -3.99959 0
M  V30 4947 H 463.325 -1.08213 -5.38127 0
M  V30 4948 H 463.586 0.355747 -4.40666 0
M  V30 4949 N 462.645 1.35699 -0.801477 0
M  V30 4950 C 463.592 2.29876 -0.206294 0
M  V30 4951 C 464.562 1.52565 0.656752 0
M  V30 4952 O 465.747 1.81024 0.602906 0
M  V30 4953 C 462.887 3.39052 0.643272 0
M  V30 4954 C 462 4.31335 -0.239644 0
M  V30 4955 C 461.135 5.27599 0.61744 0
M  V30 4956 C 460.174 6.11521 -0.26619 0
M  V30 4957 N 459.311 6.99938 0.550571 0
M  V30 4958 H 464.151 2.80187 -1.01484 0
M  V30 4959 H 461.688 1.37902 -0.511997 0
M  V30 4960 H 463.646 4.0101 1.15094 0
M  V30 4961 H 462.276 2.9003 1.41713 0
M  V30 4962 H 461.328 3.70426 -0.865381 0
M  V30 4963 H 462.64 4.90243 -0.919985 0
M  V30 4964 H 461.794 5.94906 1.19045 0
M  V30 4965 H 460.533 4.69176 1.33137 0
M  V30 4966 H 459.538 5.43166 -0.851507 0
M  V30 4967 H 460.763 6.72022 -0.9779 0
M  V30 4968 H 458.709 6.44008 1.24856 0
M  V30 4969 H 458.626 7.55966 -0.071832 0
M  V30 4970 H 459.894 7.71599 1.10702 0
M  V30 4971 N 464.123 0.554532 1.47522 0
M  V30 4972 C 465.071 -0.207765 2.3167 0
M  V30 4973 C 466.065 -0.911914 1.4276 0
M  V30 4974 O 467.271 -0.833504 1.59539 0
M  V30 4975 H 463.646 -0.0858726 0.747081 0
M  V30 4976 H 465.617 0.521178 2.93813 0
M  V30 4977 C 464.366 -1.2263 3.25357 0
M  V30 4978 H 463.689 -0.693887 3.93732 0
M  V30 4979 H 465.129 -1.73062 3.87073 0
M  V30 4980 C 463.588 -2.27278 2.4869 0
M  V30 4981 O 464.118 -3.34156 2.22941 0
M  V30 4982 N 462.324 -2.01134 2.09746 0
M  V30 4983 H 461.871 -1.14232 2.30887 0
M  V30 4984 H 461.829 -2.71369 1.58765 0
M  V30 4985 N 465.601 -1.54893 0.290851 0
M  V30 4986 C 466.847 -2.00949 -0.314784 0
M  V30 4987 C 467.202 -1.1757 -1.52299 0
M  V30 4988 O 466.495 -0.241558 -1.90071 0
M  V30 4989 C 466.689 -3.49815 -0.732397 0
M  V30 4990 C 466.518 -4.47603 0.433799 0
M  V30 4991 C 465.288 -4.96806 0.922599 0
M  V30 4992 C 467.486 -4.98233 1.27546 0
M  V30 4993 N 465.468 -5.78426 2.05662 0
M  V30 4994 C 466.839 -5.77455 2.25712 0
M  V30 4995 C 468.894 -4.80439 1.307 0
M  V30 4996 C 467.597 -6.40778 3.26796 0
M  V30 4997 C 469.623 -5.44574 2.30637 0
M  V30 4998 C 468.985 -6.23619 3.27533 0
M  V30 4999 H 465.084 -0.777905 -0.0799257 0
M  V30 5000 H 467.668 -1.9015 0.418458 0
M  V30 5001 H 465.839 -3.60925 -1.43483 0
M  V30 5002 H 467.571 -3.82681 -1.31671 0
M  V30 5003 H 464.326 -4.70961 0.49926 0
M  V30 5004 H 464.75 -6.23923 2.62772 0
M  V30 5005 H 469.392 -4.18918 0.571622 0
M  V30 5006 H 467.11 -7.01439 4.01258 0
M  V30 5007 H 470.696 -5.32739 2.33838 0
M  V30 5008 H 469.576 -6.72367 4.03599 0
M  V30 5009 N 467.08 -0.0183926 -1.57589 0
M  V30 5010 C 468.013 1.00148 -2.0505 0
M  V30 5011 C 468.991 1.32387 -0.944058 0
M  V30 5012 O 470.175 1.44237 -1.21358 0
M  V30 5013 C 467.302 2.32435 -2.46357 0
M  V30 5014 C 466.348 2.15731 -3.67916 0
M  V30 5015 S 467.181 1.46613 -5.15039 0
M  V30 5016 C 468.337 2.80293 -5.59631 0
M  V30 5017 H 468.57 0.597429 -2.91235 0
M  V30 5018 H 466.103 0.193002 -1.53189 0
M  V30 5019 H 468.061 3.0849 -2.70822 0
M  V30 5020 H 466.722 2.69975 -1.60537 0
M  V30 5021 H 465.915 3.13502 -3.9463 0
M  V30 5022 H 465.517 1.4782 -3.43548 0
M  V30 5023 H 467.809 3.76557 -5.63215 0
M  V30 5024 H 468.752 2.58256 -6.59325 0
M  V30 5025 H 469.16 2.85047 -4.87246 0
M  V30 5026 N 468.558 1.5553 0.254621 0
M  V30 5027 C 469.786 1.81046 1.00149 0
M  V30 5028 C 470.201 0.593047 1.79244 0
M  V30 5029 O 469.558 -0.438196 1.77161 0
M  V30 5030 C 469.609 3.04684 1.94551 0
M  V30 5031 O 469.33 4.21725 1.18658 0
M  V30 5032 C 470.831 3.42943 2.80901 0
M  V30 5033 H 468.051 0.602653 0.295044 0
M  V30 5034 H 470.595 2.02576 0.279842 0
M  V30 5035 H 468.75 2.85226 2.62154 0
M  V30 5036 H 469.164 4.91746 1.82445 0
M  V30 5037 H 470.638 4.32576 3.42902 0
M  V30 5038 H 471.115 2.63176 3.51617 0
M  V30 5039 H 471.721 3.64724 2.18762 0
M  V30 5040 N 470.036 -0.519951 1.48776 0
M  V30 5041 C 470.946 -1.65025 1.66745 0
M  V30 5042 C 471.962 -1.6508 0.549954 0
M  V30 5043 O 473.138 -1.83848 0.822295 0
M  V30 5044 C 470.203 -3.0146 1.71238 0
M  V30 5045 C 469.264 -3.12182 2.94688 0
M  V30 5046 C 468.497 -4.42109 2.98958 0
M  V30 5047 O 468.72 -5.29799 2.1135 0
M  V30 5048 O 467.654 -4.57406 3.91233 0
M  V30 5049 H 471.48 -1.52801 2.62461 0
M  V30 5050 H 469.065 -0.694157 1.32294 0
M  V30 5051 H 470.947 -3.82584 1.76657 0
M  V30 5052 H 469.622 -3.13988 0.786975 0
M  V30 5053 H 468.529 -2.30316 2.94797 0
M  V30 5054 H 469.862 -3.04574 3.86646 0
M  V30 5055 N 471.514 -1.37532 -0.769588 0
M  V30 5056 C 472.742 -1.36059 -1.55871 0
M  V30 5057 C 473.157 0.053544 -1.88724 0
M  V30 5058 O 472.514 1.01591 -1.5161 0
M  V30 5059 C 472.565 -2.20107 -2.86767 0
M  V30 5060 O 472.286 -3.56009 -2.55321 0
M  V30 5061 C 473.787 -2.26636 -3.80987 0
M  V30 5062 H 471.007 -0.465967 -0.482821 0
M  V30 5063 H 473.551 -1.80901 -0.953686 0
M  V30 5064 H 471.706 -1.78768 -3.43687 0
M  V30 5065 H 472.12 -4.0009 -3.39158 0
M  V30 5066 H 473.594 -2.89763 -4.69831 0
M  V30 5067 H 474.071 -1.2754 -4.20274 0
M  V30 5068 H 474.677 -2.68296 -3.29996 0
M  V30 5069 N 472.992 0.995999 -1.22138 0
M  V30 5070 C 473.922 2.10387 -1.01289 0
M  V30 5071 C 474.903 1.69975 0.0651454 0
M  V30 5072 O 476.088 1.9396 -0.0964628 0
M  V30 5073 C 473.218 3.42312 -0.586517 0
M  V30 5074 C 472.172 3.96558 -1.61014 0
M  V30 5075 C 471.498 5.24494 -1.0397 0
M  V30 5076 C 472.798 4.27595 -2.99933 0
M  V30 5077 H 474.492 2.28086 -1.93951 0
M  V30 5078 H 472.038 1.09607 -0.933928 0
M  V30 5079 H 473.991 4.19223 -0.427793 0
M  V30 5080 H 472.715 3.24431 0.375761 0
M  V30 5081 H 471.374 3.21776 -1.75658 0
M  V30 5082 H 471.022 5.02953 -0.0688703 0
M  V30 5083 H 470.722 5.61755 -1.72352 0
M  V30 5084 H 472.246 6.04042 -0.892494 0
M  V30 5085 H 473.66 4.95315 -2.8868 0
M  V30 5086 H 472.057 4.76021 -3.6541 0
M  V30 5087 H 473.127 3.35498 -3.50099 0
M  V30 5088 N 474.47 1.03057 1.19235 0
M  V30 5089 C 475.4 0.633497 2.24742 0
M  V30 5090 C 476.381 -0.358335 1.66283 0
M  V30 5091 O 477.566 -0.240676 1.92703 0
M  V30 5092 C 474.696 -0.0147648 3.47297 0
M  V30 5093 C 473.65 0.899527 4.18441 0
M  V30 5094 C 472.976 0.116281 5.34574 0
M  V30 5095 C 474.276 2.21404 4.73051 0
M  V30 5096 H 475.97 1.5155 2.58211 0
M  V30 5097 H 473.516 0.73014 1.24117 0
M  V30 5098 H 475.469 -0.304202 4.20301 0
M  V30 5099 H 474.193 -0.931577 3.13032 0
M  V30 5100 H 472.852 1.17319 3.47321 0
M  V30 5101 H 472.5 -0.802619 4.96555 0
M  V30 5102 H 472.2 0.725293 5.83107 0
M  V30 5103 H 473.724 -0.166376 6.10373 0
M  V30 5104 H 475.138 1.98601 5.37802 0
M  V30 5105 H 473.535 2.77512 5.32078 0
M  V30 5106 H 474.605 2.86752 3.91026 0
M  V30 5107 N 475.948 -1.35272 0.808662 0
M  V30 5108 C 477.194 -1.99003 0.390581 0
M  V30 5109 C 477.527 -1.63999 -1.0401 0
M  V30 5110 O 476.802 -0.904368 -1.72196 0
M  V30 5111 C 477.085 -3.55454 0.576566 0
M  V30 5112 C 476.938 -4.00249 2.05233 0
M  V30 5113 C 478.257 -4.401 0.00354277 0
M  V30 5114 H 475.376 -0.722917 0.143388 0
M  V30 5115 H 478.018 -1.6039 1.01858 0
M  V30 5116 H 476.168 -3.88477 0.0419766 0
M  V30 5117 H 477.84 -3.77626 2.64946 0
M  V30 5118 H 476.083 -3.51082 2.54801 0
M  V30 5119 H 476.754 -5.0911 2.13333 0
M  V30 5120 H 479.23 -4.13548 0.460117 0
M  V30 5121 H 478.106 -5.48656 0.163575 0
M  V30 5122 H 478.367 -4.28444 -1.09032 0
M  V30 5123 N 477.426 -0.562348 -1.47226 0
M  V30 5124 C 478.358 0.220011 -2.28142 0
M  V30 5125 C 479.371 0.874596 -1.37312 0
M  V30 5126 O 480.56 0.747583 -1.62091 0
M  V30 5127 C 477.66 1.32953 -3.11732 0
M  V30 5128 C 476.833 0.770759 -4.30556 0
M  V30 5129 C 475.892 1.76541 -4.95701 0
M  V30 5130 O 474.918 1.3095 -5.53932 0
M  V30 5131 N 476.12 3.09896 -4.90861 0
M  V30 5132 H 478.885 -0.474107 -2.95926 0
M  V30 5133 H 476.446 -0.398761 -1.56912 0
M  V30 5134 H 478.438 1.99378 -3.5218 0
M  V30 5135 H 477.008 1.92681 -2.46156 0
M  V30 5136 H 476.228 -0.0704056 -3.94137 0
M  V30 5137 H 477.516 0.376872 -5.07402 0
M  V30 5138 H 476.914 3.49577 -4.44761 0
M  V30 5139 H 475.471 3.71865 -5.35313 0
M  V30 5140 N 478.904 1.54736 -0.299062 0
M  V30 5141 C 479.852 2.24897 0.593658 0
M  V30 5142 C 480.846 1.25429 1.13859 0
M  V30 5143 O 482.052 1.43286 1.08945 0
M  V30 5144 H 478.427 0.72207 0.210046 0
M  V30 5145 H 480.398 2.98393 -0.0206421 0
M  V30 5146 C 479.147 3.00159 1.75499 0
M  V30 5147 H 478.47 3.76501 1.34489 0
M  V30 5148 H 479.91 3.52535 2.35574 0
M  V30 5149 C 478.369 2.07015 2.65794 0
M  V30 5150 O 478.899 1.63692 3.66835 0
M  V30 5151 N 477.105 1.73012 2.33485 0
M  V30 5152 H 476.652 2.08439 1.51364 0
M  V30 5153 H 476.61 1.10965 2.94167 0
M  V30 5154 N 480.382 0.0267497 1.57577 0
M  V30 5155 C 481.345 -0.940916 2.08996 0
M  V30 5156 C 482.345 -1.25561 1.00455 0
M  V30 5157 O 483.535 -1.19634 1.26623 0
M  V30 5158 C 480.667 -2.25814 2.55384 0
M  V30 5159 H 481.86 -0.495628 2.95776 0
M  V30 5160 H 479.413 -0.221241 1.54726 0
M  V30 5161 H 480.148 -2.74976 1.71926 0
M  V30 5162 H 479.933 -2.04285 3.34679 0
M  V30 5163 H 481.423 -2.95178 2.95398 0
M  V30 5164 N 481.861 -1.55662 -0.24637 0
M  V30 5165 C 482.809 -1.91186 -1.3248 0
M  V30 5166 C 483.803 -0.790996 -1.49799 0
M  V30 5167 O 485.009 -0.975617 -1.51267 0
M  V30 5168 H 481.384 -0.607207 -0.443626 0
M  V30 5169 H 483.355 -2.81221 -0.997853 0
M  V30 5170 C 482.104 -2.22349 -2.67313 0
M  V30 5171 H 481.427 -3.08097 -2.54786 0
M  V30 5172 H 482.867 -2.51107 -3.41645 0
M  V30 5173 C 481.326 -1.04001 -3.20446 0
M  V30 5174 O 481.856 -0.28828 -4.00664 0
M  V30 5175 N 480.062 -0.830494 -2.7848 0
M  V30 5176 H 479.609 -1.4435 -2.13356 0
M  V30 5177 H 479.567 -0.0403258 -3.14374 0
M  V30 5178 N 483.339 0.512053 -1.4905 0
M  V30 5179 C 484.75 1.09376 -1.51307 0
M  V30 5180 C 485.101 1.94 -0.292971 0
M  V30 5181 O 484.226 2.07965 0.598277 0
M  V30 5182 C 484.821 1.99031 -2.74176 0
M  V30 5183 C 483.38 2.52385 -2.79247 0
M  V30 5184 C 482.527 1.29749 -2.45073 0
M  V30 5185 H 485.478 0.296467 -1.55906 0
M  V30 5186 H 485.499 2.83569 -2.53711 0
M  V30 5187 H 485.011 1.37412 -3.62959 0
M  V30 5188 H 483.112 3.17673 -1.94716 0
M  V30 5189 H 483.225 2.90293 -3.81139 0
M  V30 5190 H 481.589 1.61912 -1.96612 0
M  V30 5191 H 482.372 0.698555 -3.36118 0
M  V30 5192 N 484.817 1.37938 0.762283 0
M  V30 5193 C 486.094 1.24196 1.51112 0
M  V30 5194 C 486.474 -0.160409 2.1049 0
M  V30 5195 O 485.822 -1.16904 1.96331 0
M  V30 5196 C 486.032 2.34537 2.58445 0
M  V30 5197 C 487.38 2.7254 3.25588 0
M  V30 5198 O 488.404 2.33783 2.68745 0
M  V30 5199 O 487.263 3.39343 4.28379 0
M  V30 5200 H 484.357 0.485175 0.669727 0
M  V30 5201 H 486.903 1.49743 0.798438 0
M  V30 5202 H 485.675 3.28406 2.12756 0
M  V30 5203 H 485.298 2.10505 3.37303 0
M  V30 5204 N 486.295 -0.989507 1.22664 0
M  V30 5205 C 487.535 -1.7447 1.06488 0
M  V30 5206 C 487.899 -1.8794 -0.392737 0
M  V30 5207 O 489.1 -2.60175 -0.675446 0
M  V30 5208 C 487.371 -3.11043 1.76031 0
M  V30 5209 S 488.93 -4.02258 1.7531 0
M  V30 5210 H 485.748 -0.600123 0.381278 0
M  V30 5211 H 488.35 -1.18283 1.55658 0
M  V30 5212 H 487.054 -2.98884 2.81241 0
M  V30 5213 H 486.585 -3.72301 1.27105 0
M  V30 5214 H 488.6 -4.89623 0.805208 0
M  V30 5215 N 487.773 -1.03688 -1.18687 0
M  V30 5216 C 488.72 -0.624624 -2.22187 0
M  V30 5217 C 489.69 0.365636 -1.62026 0
M  V30 5218 O 490.875 0.260481 -1.89014 0
M  V30 5219 C 488.015 0.0101738 -3.45099 0
M  V30 5220 C 487.128 -1.02709 -4.19613 0
M  V30 5221 C 486.263 -0.361213 -5.2997 0
M  V30 5222 C 485.302 -1.38384 -5.96252 0
M  V30 5223 N 484.439 -0.743196 -6.98155 0
M  V30 5224 H 489.279 -1.51176 -2.56807 0
M  V30 5225 H 486.816 -0.75636 -1.26165 0
M  V30 5226 H 488.774 0.395528 -4.15321 0
M  V30 5227 H 487.404 0.860848 -3.1111 0
M  V30 5228 H 486.456 -1.53043 -3.48256 0
M  V30 5229 H 487.768 -1.80398 -4.65036 0
M  V30 5230 H 486.922 0.0785537 -6.06649 0
M  V30 5231 H 485.661 0.447799 -4.8564 0
M  V30 5232 H 484.666 -1.83378 -5.18317 0
M  V30 5233 H 485.891 -2.19448 -6.42666 0
M  V30 5234 H 483.837 0.0455789 -6.55984 0
M  V30 5235 H 483.754 -1.45784 -7.41811 0
M  V30 5236 H 485.022 -0.327698 -7.78811 0
M  V30 5237 N 489.251 1.34841 -0.815825 0
M  V30 5238 C 490.479 2.0273 -0.413294 0
M  V30 5239 C 490.894 1.61459 0.978599 0
M  V30 5240 O 490.251 0.816584 1.63212 0
M  V30 5241 C 490.302 3.58058 -0.497676 0
M  V30 5242 O 490.023 3.97832 -1.8347 0
M  V30 5243 C 491.524 4.4321 -0.0891339 0
M  V30 5244 H 488.744 0.649956 -0.166728 0
M  V30 5245 H 491.288 1.72267 -1.10201 0
M  V30 5246 H 489.443 3.87136 0.142886 0
M  V30 5247 H 489.857 4.92501 -1.80396 0
M  V30 5248 H 491.331 5.5164 -0.199274 0
M  V30 5249 H 491.808 4.28432 0.966571 0
M  V30 5250 H 492.414 4.19446 -0.703214 0
M  V30 5251 N 490.729 0.570148 1.46925 0
M  V30 5252 C 491.978 0.0487352 2.01641 0
M  V30 5253 C 492.291 -1.31433 1.44861 0
M  V30 5254 O 493.497 -1.92638 1.91318 0
M  V30 5255 C 491.953 0.0365817 3.59881 0
M  V30 5256 C 491.561 1.39719 4.25655 0
M  V30 5257 C 493.305 -0.431545 4.22301 0
M  V30 5258 C 491.212 1.34345 5.75939 0
M  V30 5259 H 490.142 0.0144492 0.753862 0
M  V30 5260 H 492.793 0.719928 1.68788 0
M  V30 5261 H 491.175 -0.700522 3.89755 0
M  V30 5262 H 492.349 2.15303 4.07408 0
M  V30 5263 H 490.664 1.80431 3.75278 0
M  V30 5264 H 493.261 -0.490354 5.32447 0
M  V30 5265 H 493.604 -1.44638 3.90366 0
M  V30 5266 H 494.137 0.251102 3.97007 0
M  V30 5267 H 490.876 2.33469 6.12513 0
M  V30 5268 H 490.396 0.629615 5.96486 0
M  V30 5269 H 492.075 1.051 6.38407 0
M  V30 5270 N 492.207 -1.54576 0.307264 0
M  V30 5271 C 493.137 -2.26708 -0.55907 0
M  V30 5272 C 494.118 -1.26893 -1.1328 0
M  V30 5273 O 495.303 -1.55677 -1.16097 0
M  V30 5274 C 492.433 -3.01259 -1.72801 0
M  V30 5275 C 491.387 -4.08275 -1.28435 0
M  V30 5276 C 490.713 -4.70575 -2.53895 0
M  V30 5277 C 492.013 -5.2068 -0.411038 0
M  V30 5278 H 493.707 -2.9937 0.042576 0
M  V30 5279 H 491.253 -1.43983 0.0219173 0
M  V30 5280 H 493.206 -3.50444 -2.34023 0
M  V30 5281 H 491.93 -2.26187 -2.356 0
M  V30 5282 H 490.589 -3.59949 -0.695161 0
M  V30 5283 H 490.237 -3.92136 -3.15021 0
M  V30 5284 H 489.937 -5.42854 -2.24908 0
M  V30 5285 H 491.461 -5.22527 -3.15908 0
M  V30 5286 H 492.875 -5.65721 -0.929097 0
M  V30 5287 H 491.272 -5.99716 -0.214664 0
M  V30 5288 H 492.342 -4.81629 0.562287 0
M  V30 5289 N 493.685 -0.035106 -1.57561 0
M  V30 5290 C 494.632 0.94474 -2.10578 0
M  V30 5291 C 495.602 1.3192 -1.00927 0
M  V30 5292 O 496.787 1.41147 -1.28382 0
M  V30 5293 C 493.927 2.21982 -2.64231 0
M  V30 5294 C 493.04 1.90128 -3.87911 0
M  V30 5295 C 492.175 3.11975 -4.29936 0
M  V30 5296 C 491.214 2.75968 -5.46359 0
M  V30 5297 N 490.351 3.90459 -5.83512 0
M  V30 5298 H 495.191 0.485717 -2.94015 0
M  V30 5299 H 492.728 0.228143 -1.4532 0
M  V30 5300 H 494.686 2.96572 -2.9343 0
M  V30 5301 H 493.316 2.6549 -1.83616 0
M  V30 5302 H 492.368 1.05755 -3.65404 0
M  V30 5303 H 493.68 1.59613 -4.72573 0
M  V30 5304 H 492.834 3.9488 -4.60603 0
M  V30 5305 H 491.573 3.45657 -3.44053 0
M  V30 5306 H 490.578 1.91478 -5.1538 0
M  V30 5307 H 491.803 2.43497 -6.33945 0
M  V30 5308 H 489.749 4.23971 -5.00584 0
M  V30 5309 H 489.666 3.63588 -6.62827 0
M  V30 5310 H 490.934 4.7405 -6.18787 0
M  V30 5311 N 495.163 1.55791 0.238111 0
M  V30 5312 C 496.126 1.90239 1.27835 0
M  V30 5313 C 497.126 0.779552 1.4064 0
M  V30 5314 O 498.316 1.04747 1.3919 0
M  V30 5315 C 495.448 2.13859 2.65475 0
M  V30 5316 H 496.641 2.83262 0.985034 0
M  V30 5317 H 494.194 1.48818 0.477799 0
M  V30 5318 H 494.929 1.23334 2.99932 0
M  V30 5319 H 494.714 2.95643 2.57561 0
M  V30 5320 H 496.204 2.41664 3.40571 0
M  V30 5321 N 496.642 -0.504142 1.49319 0
M  V30 5322 C 497.572 -1.61473 1.68667 0
M  V30 5323 C 498.553 -1.61455 0.535378 0
M  V30 5324 O 499.738 -1.78245 0.770868 0
M  V30 5325 C 496.868 -2.99971 1.75028 0
M  V30 5326 C 495.822 -3.14854 2.89916 0
M  V30 5327 C 495.148 -4.54671 2.81387 0
M  V30 5328 C 496.448 -2.95176 4.30893 0
M  V30 5329 H 498.142 -1.45535 2.61648 0
M  V30 5330 H 495.688 -0.698711 1.25913 0
M  V30 5331 H 497.641 -3.77562 1.8715 0
M  V30 5332 H 496.365 -3.1699 0.786441 0
M  V30 5333 H 495.024 -2.39687 2.77391 0
M  V30 5334 H 494.672 -4.68562 1.82917 0
M  V30 5335 H 494.372 -4.6557 3.58494 0
M  V30 5336 H 495.896 -5.34327 2.95512 0
M  V30 5337 H 497.31 -3.62538 4.44116 0
M  V30 5338 H 495.707 -3.17549 5.09198 0
M  V30 5339 H 496.777 -1.91332 4.45556 0
M  V30 5340 N 498.12 -1.38341 -0.754957 0
M  V30 5341 C 499.368 -1.34208 -1.51105 0
M  V30 5342 C 499.689 0.0677634 -1.94882 0
M  V30 5343 O 498.959 1.01517 -1.67544 0
M  V30 5344 H 497.539 -0.493819 -0.560493 0
M  V30 5345 H 500.201 -1.73005 -0.897507 0
M  V30 5346 H 499.297 -1.99203 -2.4026 0
M  V30 5347 N 499.598 0.982988 -1.23187 0
M  V30 5348 C 501.009 1.53847 -1.05773 0
M  V30 5349 C 501.36 1.92568 0.375744 0
M  V30 5350 O 500.485 1.75783 1.26211 0
M  V30 5351 C 501.08 2.79567 -1.91384 0
M  V30 5352 C 499.639 3.31524 -1.78238 0
M  V30 5353 C 498.786 2.04534 -1.87246 0
M  V30 5354 H 501.737 0.802962 -1.36888 0
M  V30 5355 H 501.758 3.52317 -1.43711 0
M  V30 5356 H 501.27 2.51353 -2.95708 0
M  V30 5357 H 499.371 3.64623 -0.766875 0
M  V30 5358 H 499.484 4.01457 -2.61475 0
M  V30 5359 H 497.848 2.1855 -1.30797 0
M  V30 5360 H 498.631 1.78706 -2.9312 0
M  V30 5361 N 501.076 1.04316 1.18135 0
M  V30 5362 C 502.324 0.746542 1.87806 0
M  V30 5363 C 502.645 -0.728082 1.80898 0
M  V30 5364 O 501.915 -1.52554 1.22899 0
M  V30 5365 H 500.495 0.273157 0.695265 0
M  V30 5366 H 503.157 1.32044 1.43354 0
M  V30 5367 H 502.253 1.05362 2.93778 0
M  V30 5368 N 502.554 -1.34406 0.822964 0
M  V30 5369 C 503.517 -2.2783 0.250271 0
M  V30 5370 C 504.517 -1.50288 -0.571854 0
M  V30 5371 O 505.707 -1.69825 -0.387952 0
M  V30 5372 C 502.839 -3.34663 -0.649137 0
M  V30 5373 H 504.032 -2.79992 1.07444 0
M  V30 5374 H 501.585 -1.44539 0.594829 0
M  V30 5375 H 502.32 -2.87714 -1.49637 0
M  V30 5376 H 502.105 -3.92052 -0.0611199 0
M  V30 5377 H 503.595 -4.04349 -1.04363 0
M  V30 5378 N 504.032 -0.577932 -1.46621 0
M  V30 5379 C 505.26 -0.0671642 -2.06791 0
M  V30 5380 C 505.675 1.23571 -1.42743 0
M  V30 5381 O 505.032 1.74602 -0.531062 0
M  V30 5382 C 505.083 0.110357 -3.61332 0
M  V30 5383 O 504.804 -1.14095 -4.22982 0
M  V30 5384 C 506.305 0.656025 -4.38419 0
M  V30 5385 H 503.525 -0.0552732 -0.66872 0
M  V30 5386 H 506.069 -0.797242 -1.8832 0
M  V30 5387 H 504.224 0.790637 -3.79246 0
M  V30 5388 H 504.638 -0.951742 -5.15793 0
M  V30 5389 H 506.112 0.729438 -5.47159 0
M  V30 5390 H 506.589 1.67195 -4.06131 0
M  V30 5391 H 507.195 0.0107692 -4.25299 0
M  V30 5392 N 505.51 1.54411 -0.315457 0
M  V30 5393 C 506.44 2.27002 0.547039 0
M  V30 5394 C 507.421 1.27492 1.12605 0
M  V30 5395 O 508.606 1.5629 1.15269 0
M  V30 5396 C 505.736 3.02171 1.71201 0
M  V30 5397 C 504.69 4.0895 1.26268 0
M  V30 5398 C 504.016 4.71915 2.51396 0
M  V30 5399 C 505.316 5.20891 0.383419 0
M  V30 5400 H 507.01 2.99343 -0.0584517 0
M  V30 5401 H 504.556 1.4397 -0.0295527 0
M  V30 5402 H 506.509 3.51681 2.32161 0
M  V30 5403 H 505.233 2.27433 2.34397 0
M  V30 5404 H 503.892 3.60312 0.676062 0
M  V30 5405 H 503.54 3.93801 3.12937 0
M  V30 5406 H 503.24 5.44039 2.22026 0
M  V30 5407 H 504.764 5.24195 3.13133 0
M  V30 5408 H 506.178 5.66206 0.899082 0
M  V30 5409 H 504.575 5.99821 0.182857 0
M  V30 5410 H 505.645 4.81324 -0.587821 0
M  V30 5411 N 506.988 0.0434614 1.5754 0
M  V30 5412 C 507.898 -0.94893 2.14552 0
M  V30 5413 C 508.914 -1.34707 1.10136 0
M  V30 5414 O 510.09 -1.42557 1.42266 0
M  V30 5415 C 507.155 -2.208 2.67298 0
M  V30 5416 C 506.216 -1.86893 3.86484 0
M  V30 5417 C 505.449 -3.06797 4.36705 0
M  V30 5418 O 505.672 -4.19921 3.86034 0
M  V30 5419 O 504.606 -2.8826 5.28384 0
M  V30 5420 H 508.432 -0.494099 2.99654 0
M  V30 5421 H 506.017 -0.177989 1.48336 0
M  V30 5422 H 507.899 -2.94686 3.01228 0
M  V30 5423 H 506.574 -2.65436 1.85272 0
M  V30 5424 H 505.481 -1.10347 3.57455 0
M  V30 5425 H 506.814 -1.47062 4.69716 0
M  V30 5426 N 508.466 -1.55915 -0.229846 0
M  V30 5427 C 509.376 -1.94891 -1.30593 0
M  V30 5428 C 510.392 -0.851604 -1.51736 0
M  V30 5429 O 511.568 -1.15447 -1.65027 0
M  V30 5430 C 508.633 -2.25052 -2.63728 0
M  V30 5431 C 507.694 -3.48306 -2.5096 0
M  V30 5432 C 506.927 -3.77019 -3.77747 0
M  V30 5433 O 507.15 -3.07534 -4.80395 0
M  V30 5434 O 506.084 -4.70523 -3.75356 0
M  V30 5435 H 509.91 -2.86581 -1.00525 0
M  V30 5436 H 507.495 -1.43017 -0.432025 0
M  V30 5437 H 509.377 -2.45682 -3.42372 0
M  V30 5438 H 508.052 -1.36538 -2.93495 0
M  V30 5439 H 506.959 -3.32964 -1.70546 0
M  V30 5440 H 508.292 -4.37177 -2.26136 0
M  V30 5441 N 509.944 0.496216 -1.49584 0
M  V30 5442 C 510.877 1.61508 -1.61215 0
M  V30 5443 C 511.855 1.55927 -0.461045 0
M  V30 5444 O 513.039 1.75914 -0.677231 0
M  V30 5445 C 510.166 3.00035 -1.57152 0
M  V30 5446 C 509.212 3.23861 -2.77518 0
M  V30 5447 S 510.045 3.06466 -4.39134 0
M  V30 5448 C 511.201 4.4738 -4.37724 0
M  V30 5449 H 511.434 1.51398 -2.55863 0
M  V30 5450 H 508.967 0.681727 -1.38535 0
M  V30 5451 H 510.925 3.7991 -1.55494 0
M  V30 5452 H 509.586 3.07556 -0.637834 0
M  V30 5453 H 508.779 4.25 -2.70908 0
M  V30 5454 H 508.381 2.51716 -2.76614 0
M  V30 5455 H 510.673 5.39556 -4.09738 0
M  V30 5456 H 511.616 4.59038 -5.39156 0
M  V30 5457 H 512.024 4.28283 -3.67742 0
M  V30 5458 N 511.423 1.38739 0.74761 0
M  V30 5459 C 512.356 1.3083 1.86972 0
M  V30 5460 C 513.334 0.184229 1.61553 0
M  V30 5461 O 514.518 0.36256 1.8498 0
M  V30 5462 C 511.645 1.02854 3.22705 0
M  V30 5463 C 510.691 2.17281 3.67003 0
M  V30 5464 S 511.524 3.79468 3.77842 0
M  V30 5465 C 512.68 3.53692 5.16385 0
M  V30 5466 H 512.913 2.258 1.93395 0
M  V30 5467 H 510.446 1.24646 0.911199 0
M  V30 5468 H 512.404 0.87397 4.01089 0
M  V30 5469 H 511.065 0.0959295 3.13953 0
M  V30 5470 H 510.258 1.93267 4.65472 0
M  V30 5471 H 509.86 2.28876 2.9579 0
M  V30 5472 H 512.152 3.10176 6.02327 0
M  V30 5473 H 513.095 4.51576 5.45422 0
M  V30 5474 H 513.503 2.8807 4.85464 0
M  V30 5475 N 512.901 -0.976442 1.23707 0
M  V30 5476 C 514.129 -1.75341 1.09833 0
M  V30 5477 C 514.544 -1.8553 -0.349885 0
M  V30 5478 O 513.901 -1.33732 -1.24185 0
M  V30 5479 C 513.952 -3.17833 1.72233 0
M  V30 5480 O 513.673 -3.08167 3.11391 0
M  V30 5481 C 515.174 -4.11906 1.63853 0
M  V30 5482 H 512.394 -0.550137 0.384175 0
M  V30 5483 H 514.938 -1.2265 1.63638 0
M  V30 5484 H 513.093 -3.67538 1.22452 0
M  V30 5485 H 513.507 -3.97897 3.41729 0
M  V30 5486 H 514.981 -5.09579 2.12211 0
M  V30 5487 H 515.458 -4.35109 0.598092 0
M  V30 5488 H 516.064 -3.68107 2.13019 0
M  V30 5489 N 514.379 -1.04941 -1.1758 0
M  V30 5490 C 515.342 -0.652456 -2.19717 0
M  V30 5491 C 516.342 0.294745 -1.58076 0
M  V30 5492 O 517.532 0.0789579 -1.74021 0
M  V30 5493 C 514.664 0.0420712 -3.40874 0
M  V30 5494 H 515.857 -1.55642 -2.5635 0
M  V30 5495 H 513.41 -0.842995 -1.31618 0
M  V30 5496 H 514.145 0.95943 -3.09783 0
M  V30 5497 H 513.93 -0.638844 -3.86861 0
M  V30 5498 H 515.42 0.306 -4.16477 0
M  V30 5499 N 515.857 1.33968 -0.830081 0
M  V30 5500 C 517.097 1.99879 -0.427521 0
M  V30 5501 C 517.461 1.64355 0.992546 0
M  V30 5502 O 518.662 2.23164 1.49837 0
M  V30 5503 C 516.933 3.51771 -0.631815 0
M  V30 5504 S 518.492 4.37608 -0.323168 0
M  V30 5505 H 515.31 0.692485 -0.161202 0
M  V30 5506 H 517.912 1.63129 -1.07745 0
M  V30 5507 H 516.616 3.75113 -1.66488 0
M  V30 5508 H 516.147 3.93386 0.0325936 0
M  V30 5509 H 518.162 4.88683 0.860432 0
M  V30 5510 N 517.335 0.585699 1.46312 0
M  V30 5511 C 518.267 -0.183687 2.28463 0
M  V30 5512 C 519.28 -0.85264 1.38686 0
M  V30 5513 O 520.469 -0.721701 1.6326 0
M  V30 5514 C 517.569 -1.27977 3.13808 0
M  V30 5515 C 516.742 -0.702164 4.31727 0
M  V30 5516 C 515.801 -1.68633 4.98447 0
M  V30 5517 O 514.827 -1.22121 5.55945 0
M  V30 5518 N 516.029 -3.02047 4.95729 0
M  V30 5519 H 518.794 0.521127 2.95134 0
M  V30 5520 H 516.355 0.423673 1.56258 0
M  V30 5521 H 518.347 -1.9375 3.55307 0
M  V30 5522 H 516.917 -1.8874 2.4919 0
M  V30 5523 H 516.137 0.1331 3.93975 0
M  V30 5524 H 517.425 -0.296101 5.07938 0
M  V30 5525 H 516.823 -3.42457 4.50266 0
M  V30 5526 H 515.38 -3.63301 5.41161 0
M  V30 5527 N 518.813 -1.54241 0.323641 0
M  V30 5528 C 520.061 -2.00174 -0.278359 0
M  V30 5529 C 520.382 -1.2134 -1.52648 0
M  V30 5530 O 519.652 -0.315244 -1.93347 0
M  V30 5531 H 518.232 -0.739463 -0.105845 0
M  V30 5532 H 520.894 -1.89864 0.440204 0
M  V30 5533 H 519.99 -3.07486 -0.5347 0
M  V30 5534 N 520.291 -0.0518155 -1.57515 0
M  V30 5535 C 521.537 0.622745 -1.93002 0
M  V30 5536 C 521.87 1.70456 -0.930499 0
M  V30 5537 O 521.145 1.94452 0.0434086 0
M  V30 5538 C 521.428 1.21824 -3.38867 0
M  V30 5539 C 521.281 0.144434 -4.49568 0
M  V30 5540 C 522.6 2.12968 -3.8514 0
M  V30 5541 H 519.719 0.22491 -0.701844 0
M  V30 5542 H 522.361 -0.113711 -1.89659 0
M  V30 5543 H 520.511 1.8459 -3.41846 0
M  V30 5544 H 522.183 -0.48753 -4.58717 0
M  V30 5545 H 520.426 -0.527424 -4.30582 0
M  V30 5546 H 521.097 0.601127 -5.48717 0
M  V30 5547 H 523.573 1.60163 -3.8404 0
M  V30 5548 H 522.449 2.51578 -4.87852 0
M  V30 5549 H 522.71 3.03004 -3.21934 0
M  V30 5550 N 521.769 1.56035 0.221574 0
M  V30 5551 C 523.017 1.78693 0.944102 0
M  V30 5552 C 523.338 0.620317 1.8487 0
M  V30 5553 O 522.608 -0.362784 1.92512 0
M  V30 5554 H 521.188 0.659082 0.351597 0
M  V30 5555 H 523.85 1.93497 0.233435 0
M  V30 5556 H 522.946 2.70837 1.55093 0
M  V30 5557 N 523.247 -0.488276 1.49845 0
M  V30 5558 C 524.495 -1.23911 1.59657 0
M  V30 5559 C 524.816 -1.92816 0.291005 0
M  V30 5560 O 524.086 -1.83328 -0.690485 0
M  V30 5561 H 522.666 -0.460357 0.588286 0
M  V30 5562 H 525.328 -0.564794 1.86537 0
M  V30 5563 H 524.424 -1.99625 2.39909 0
M  V30 5564 N 524.725 -1.39134 -0.740242 0
M  V30 5565 C 526.136 -1.32208 -1.31825 0
M  V30 5566 C 526.487 0.0159919 -1.96193 0
M  V30 5567 O 525.612 0.918111 -1.95958 0
M  V30 5568 C 526.207 -2.39436 -2.39699 0
M  V30 5569 C 524.766 -2.36048 -2.93187 0
M  V30 5570 C 523.913 -2.21599 -1.66701 0
M  V30 5571 H 526.864 -1.49298 -0.538133 0
M  V30 5572 H 526.885 -2.05922 -3.19963 0
M  V30 5573 H 526.397 -3.36811 -1.92821 0
M  V30 5574 H 524.498 -1.42295 -3.44359 0
M  V30 5575 H 524.611 -3.30704 -3.46658 0
M  V30 5576 H 522.975 -1.68681 -1.90837 0
M  V30 5577 H 523.758 -3.20936 -1.21882 0
M  V30 5578 N 526.204 0.969867 -1.24223 0
M  V30 5579 C 527.452 1.70918 -1.0785 0
M  V30 5580 C 527.773 1.91186 0.383763 0
M  V30 5581 O 527.043 1.48806 1.27411 0
M  V30 5582 H 525.623 0.633334 -0.396103 0
M  V30 5583 H 528.285 1.16689 -1.56108 0
M  V30 5584 H 527.381 2.69455 -1.57482 0
M  V30 5585 N 527.682 1.05563 1.17022 0
M  V30 5586 C 528.632 0.630007 2.19123 0
M  V30 5587 C 529.616 -0.335472 1.57364 0
M  V30 5588 O 530.808 -0.1521 1.76345 0
M  V30 5589 C 527.937 0.0101676 3.43298 0
M  V30 5590 C 527.023 0.999698 4.12149 0
M  V30 5591 N 527.414 2.17251 4.56766 0
M  V30 5592 C 525.712 0.829 4.38228 0
M  V30 5593 C 526.413 2.79883 5.09942 0
M  V30 5594 N 525.389 2.07656 5.02374 0
M  V30 5595 H 529.191 1.52353 2.51328 0
M  V30 5596 H 526.705 0.926288 1.33393 0
M  V30 5597 H 528.702 -0.312541 4.15727 0
M  V30 5598 H 527.362 -0.878707 3.12584 0
M  V30 5599 H 528.373 2.55067 4.50734 0
M  V30 5600 H 525.05 -0.00850974 4.17499 0
M  V30 5601 H 526.44 3.79362 5.54558 0
M  V30 5602 N 529.16 -1.33526 0.837174 0
M  V30 5603 C 530.107 -2.29248 0.267169 0
M  V30 5604 C 531.077 -1.54252 -0.616071 0
M  V30 5605 O 532.262 -1.82559 -0.554699 0
M  V30 5606 C 529.402 -3.40638 -0.553152 0
M  V30 5607 C 528.515 -4.30548 0.353921 0
M  V30 5608 C 527.65 -5.29051 -0.477339 0
M  V30 5609 C 526.689 -6.106 0.42823 0
M  V30 5610 N 525.826 -7.01152 -0.364801 0
M  V30 5611 H 530.666 -2.77398 1.08877 0
M  V30 5612 H 528.203 -1.36496 0.54838 0
M  V30 5613 H 530.161 -4.03921 -1.04422 0
M  V30 5614 H 528.791 -2.93685 -1.33973 0
M  V30 5615 H 527.843 -3.68001 0.963289 0
M  V30 5616 H 529.155 -4.87631 1.04964 0
M  V30 5617 H 528.309 -5.97853 -1.0323 0
M  V30 5618 H 527.048 -4.72541 -1.2065 0
M  V30 5619 H 526.053 -5.40718 0.995219 0
M  V30 5620 H 527.278 -6.69193 1.15573 0
M  V30 5621 H 525.224 -6.47092 -1.07738 0
M  V30 5622 H 525.141 -7.5551 0.272238 0
M  V30 5623 H 526.409 -7.74263 -0.902054 0
M  V30 5624 N 530.638 -0.59345 -1.46 0
M  V30 5625 C 531.601 0.123538 -2.28867 0
M  V30 5626 C 532.601 0.808628 -1.38989 0
M  V30 5627 O 533.791 0.658945 -1.61256 0
M  V30 5628 C 530.923 1.1847 -3.19653 0
M  V30 5629 H 532.116 -0.604843 -2.93737 0
M  V30 5630 H 529.669 -0.351875 -1.52288 0
M  V30 5631 H 530.404 1.94431 -2.59552 0
M  V30 5632 H 530.189 0.69783 -3.8584 0
M  V30 5633 H 531.679 1.68726 -3.81997 0
M  V30 5634 N 532.116 1.54067 -0.331816 0
M  V30 5635 C 533.532 1.59587 0.0205388 0
M  V30 5636 C 533.732 1.34813 1.49759 0
M  V30 5637 O 532.788 1.13661 2.25471 0
M  V30 5638 C 534.101 2.97959 -0.405103 0
M  V30 5639 C 535.649 3.10964 -0.356454 0
M  V30 5640 C 536.124 4.51694 -0.757384 0
M  V30 5641 N 537.615 4.57709 -0.71111 0
M  V30 5642 C 538.35 5.64729 -0.993427 0
M  V30 5643 N 537.846 6.79652 -1.3433 0
M  V30 5644 N 539.639 5.54546 -0.918442 0
M  V30 5645 H 531.79 1.68426 -1.29407 0
M  V30 5646 H 534.053 0.78819 -0.526745 0
M  V30 5647 H 533.759 3.21115 -1.43451 0
M  V30 5648 H 533.633 3.76524 0.225692 0
M  V30 5649 H 536.02 2.87538 0.663763 0
M  V30 5650 H 536.101 2.34484 -1.02229 0
M  V30 5651 H 535.745 4.75853 -1.77555 0
M  V30 5652 H 535.675 5.26555 -0.0691444 0
M  V30 5653 H 538.166 3.75176 -0.452883 0
M  V30 5654 H 538.479 7.57221 -1.54388 0
M  V30 5655 H 536.824 6.81128 -1.38164 0
M  V30 5656 H 540.015 4.63641 -0.644536 0
M  V30 5657 H 540.188 6.37861 -1.14181 0
M  V30 5658 N 533.594 0.0601682 1.57485 0
M  V30 5659 C 534.84 -0.612501 1.93329 0
M  V30 5660 C 535.173 -1.6996 0.939526 0
M  V30 5661 O 534.448 -1.94472 -0.0330957 0
M  V30 5662 C 534.731 -1.20025 3.39508 0
M  V30 5663 C 534.584 -0.12059 4.49638 0
M  V30 5664 C 535.903 -2.10923 3.86264 0
M  V30 5665 H 533.022 -0.221185 0.703027 0
M  V30 5666 H 535.664 0.123768 1.89596 0
M  V30 5667 H 533.814 -1.82774 3.42821 0
M  V30 5668 H 535.486 0.51185 4.58452 0
M  V30 5669 H 533.729 0.550251 4.30296 0
M  V30 5670 H 534.4 -0.572019 5.49028 0
M  V30 5671 H 536.876 -1.58124 3.84884 0
M  V30 5672 H 535.752 -2.48987 4.8918 0
M  V30 5673 H 536.013 -3.01292 3.23536 0
M  V30 5674 N 535.072 -1.5615 -0.213296 0
M  V30 5675 C 536.002 -1.96109 -1.26742 0
M  V30 5676 C 536.983 -0.830448 -1.48451 0
M  V30 5677 O 538.168 -1.09339 -1.60495 0
M  V30 5678 C 535.298 -2.28492 -2.61551 0
M  V30 5679 C 534.252 -3.44124 -2.54485 0
M  V30 5680 C 533.578 -3.62134 -3.93399 0
M  V30 5681 C 534.878 -4.78855 -2.08556 0
M  V30 5682 H 536.572 -2.84412 -0.935434 0
M  V30 5683 H 534.118 -1.36836 -0.44854 0
M  V30 5684 H 536.071 -2.55039 -3.3546 0
M  V30 5685 H 534.795 -1.37052 -2.96453 0
M  V30 5686 H 533.454 -3.17639 -1.83033 0
M  V30 5687 H 533.102 -2.68055 -4.25623 0
M  V30 5688 H 532.802 -4.39913 -3.89551 0
M  V30 5689 H 534.326 -3.91038 -4.68958 0
M  V30 5690 H 535.74 -5.04552 -2.72213 0
M  V30 5691 H 534.137 -5.59975 -2.1575 0
M  V30 5692 H 535.207 -4.73657 -1.03811 0
M  V30 5693 N 536.55 0.480323 -1.50102 0
M  V30 5694 C 537.513 1.56181 -1.6775 0
M  V30 5695 C 538.513 1.51156 -0.548503 0
M  V30 5696 O 539.703 1.5394 -0.815363 0
M  V30 5697 C 536.835 2.95823 -1.69415 0
M  V30 5698 H 538.028 1.41855 -2.6423 0
M  V30 5699 H 535.581 0.70605 -1.39444 0
M  V30 5700 H 536.316 3.15604 -0.745948 0
M  V30 5701 H 536.101 3.00878 -2.51425 0
M  V30 5702 H 537.591 3.74359 -1.85054 0
M  V30 5703 N 538.028 1.39524 0.732853 0
M  V30 5704 C 538.938 1.40695 1.87729 0
M  V30 5705 C 539.954 0.301496 1.71368 0
M  V30 5706 O 541.13 0.543313 1.93933 0
M  V30 5707 C 538.195 1.25098 3.23344 0
M  V30 5708 C 537.256 2.45634 3.52083 0
M  V30 5709 C 536.489 2.30772 4.81228 0
M  V30 5710 O 536.712 1.31233 5.55098 0
M  V30 5711 O 535.646 3.19799 5.09914 0
M  V30 5712 H 539.472 2.37168 1.89697 0
M  V30 5713 H 537.057 1.20663 0.880959 0
M  V30 5714 H 538.939 1.18541 4.04383 0
M  V30 5715 H 537.614 0.317209 3.22142 0
M  V30 5716 H 536.521 2.57767 2.71122 0
M  V30 5717 H 537.854 3.37712 3.58066 0
M  V30 5718 N 539.506 -0.963266 1.24736 0
M  V30 5719 C 540.469 -2.04013 1.04457 0
M  V30 5720 C 541.469 -1.608 0.000335555 0
M  V30 5721 O 542.659 -1.72515 0.241719 0
M  V30 5722 C 539.791 -3.35858 0.584162 0
M  V30 5723 H 540.984 -2.23436 2.00041 0
M  V30 5724 H 538.537 -1.13914 1.07021 0
M  V30 5725 H 539.272 -3.22128 -0.374673 0
M  V30 5726 H 539.057 -3.68568 1.3379 0
M  V30 5727 H 540.547 -4.1502 0.463451 0
M  V30 5728 N 540.985 -1.06182 -1.16461 0
M  V30 5729 C 541.918 -0.615859 -2.19733 0
M  V30 5730 C 542.896 0.360766 -1.58547 0
M  V30 5731 O 544.08 0.270009 -1.86556 0
M  V30 5732 C 541.207 0.097312 -3.3856 0
M  V30 5733 C 540.253 -0.835889 -4.18229 0
M  V30 5734 S 541.086 -2.33052 -4.82128 0
M  V30 5735 C 542.242 -1.62881 -6.04335 0
M  V30 5736 H 542.475 -1.49079 -2.57221 0
M  V30 5737 H 540.008 -0.874692 -1.27234 0
M  V30 5738 H 541.966 0.502563 -4.07412 0
M  V30 5739 H 540.627 0.948418 -2.99439 0
M  V30 5740 H 539.82 -0.283426 -5.03202 0
M  V30 5741 H 539.422 -1.18097 -3.54865 0
M  V30 5742 H 541.714 -0.933764 -6.71034 0
M  V30 5743 H 542.657 -2.45641 -6.64128 0
M  V30 5744 H 543.065 -1.11189 -5.53441 0
M  V30 5745 N 542.463 1.3308 -0.844243 0
M  V30 5746 C 543.688 2.02341 -0.455282 0
M  V30 5747 C 544.113 1.6308 0.93737 0
M  V30 5748 O 543.471 0.826118 1.61385 0
M  V30 5749 C 543.519 3.55743 -0.58988 0
M  V30 5750 O 542.623 4.1063 0.38166 0
M  V30 5751 H 541.964 0.637898 -0.184343 0
M  V30 5752 H 544.494 1.6986 -1.14056 0
M  V30 5753 H 544.504 4.05243 -0.473522 0
M  V30 5754 H 543.179 3.83662 -1.60549 0
M  V30 5755 H 541.756 3.72236 0.22241 0
M  V30 5756 N 543.941 0.601185 1.45683 0
M  V30 5757 C 544.873 -0.159446 2.28645 0
M  V30 5758 C 545.886 -0.837882 1.39583 0
M  V30 5759 O 547.075 -0.704344 1.64016 0
M  V30 5760 C 544.175 -1.24641 3.15147 0
M  V30 5761 C 543.348 -0.656334 4.32448 0
M  V30 5762 C 542.407 -1.63337 5.00208 0
M  V30 5763 O 541.433 -1.16217 5.57209 0
M  V30 5764 N 542.635 -2.96773 4.98905 0
M  V30 5765 H 545.4 0.5524 2.94565 0
M  V30 5766 H 542.961 0.440223 1.558 0
M  V30 5767 H 544.953 -1.8997 3.57342 0
M  V30 5768 H 543.523 -1.86087 2.51178 0
M  V30 5769 H 542.743 0.174879 3.93812 0
M  V30 5770 H 544.031 -0.242211 5.08223 0
M  V30 5771 H 543.429 -3.37662 4.53873 0
M  V30 5772 H 541.986 -3.57541 5.44984 0
M  V30 5773 N 545.419 -1.53889 0.339982 0
M  V30 5774 C 546.665 -2.01152 -0.258003 0
M  V30 5775 C 546.998 -1.22749 -1.50487 0
M  V30 5776 O 546.273 -0.314156 -1.91946 0
M  V30 5777 C 546.556 -3.55468 -0.575717 0
M  V30 5778 C 546.409 -4.44584 0.682996 0
M  V30 5779 C 547.728 -4.1768 -1.38677 0
M  V30 5780 H 544.847 -0.731198 -0.0922992 0
M  V30 5781 H 547.489 -1.84352 0.459814 0
M  V30 5782 H 545.639 -3.69914 -1.18725 0
M  V30 5783 H 547.311 -4.41981 1.32102 0
M  V30 5784 H 545.554 -4.13592 1.3086 0
M  V30 5785 H 546.225 -5.5043 0.416001 0
M  V30 5786 H 548.701 -4.0691 -0.869705 0
M  V30 5787 H 547.577 -5.25734 -1.57783 0
M  V30 5788 H 547.838 -3.72069 -2.38782 0
M  V30 5789 N 546.897 -0.0685191 -1.57451 0
M  V30 5790 C 548.125 0.610462 -1.97689 0
M  V30 5791 C 548.54 1.63346 -0.946758 0
M  V30 5792 O 547.897 1.82377 0.0669868 0
M  V30 5793 C 547.948 1.28196 -3.38006 0
M  V30 5794 O 547.669 0.299906 -4.37072 0
M  V30 5795 C 549.17 2.04907 -3.931 0
M  V30 5796 H 546.39 0.165689 -0.650222 0
M  V30 5797 H 548.934 -0.139953 -2.04021 0
M  V30 5798 H 547.089 1.98348 -3.32771 0
M  V30 5799 H 547.503 0.78126 -5.18649 0
M  V30 5800 H 548.977 2.47287 -4.93511 0
M  V30 5801 H 549.454 2.9043 -3.29465 0
M  V30 5802 H 550.06 1.39629 -4.01726 0
M  V30 5803 N 548.375 1.56261 0.205012 0
M  V30 5804 C 549.323 1.94631 1.27364 0
M  V30 5805 C 550.317 0.830434 1.47649 0
M  V30 5806 O 551.523 1.01538 1.48627 0
M  V30 5807 H 547.898 0.618755 0.427371 0
M  V30 5808 H 549.869 2.83768 0.922941 0
M  V30 5809 C 548.618 2.29358 2.61324 0
M  V30 5810 H 547.941 3.14744 2.46528 0
M  V30 5811 H 549.381 2.60076 3.34868 0
M  V30 5812 C 547.84 1.12461 3.17575 0
M  V30 5813 O 548.37 0.394407 3.99759 0
M  V30 5814 N 546.576 0.904036 2.7618 0
M  V30 5815 H 546.123 1.49956 2.09454 0
M  V30 5816 H 546.081 0.123662 3.14157 0
M  V30 5817 N 549.853 -0.472356 1.50355 0
M  V30 5818 C 551.264 -1.05326 1.54154 0
M  V30 5819 C 551.615 -1.93155 0.344303 0
M  V30 5820 O 550.74 -2.09479 -0.542928 0
M  V30 5821 C 551.335 -1.91691 2.79356 0
M  V30 5822 C 549.894 -2.44892 2.8584 0
M  V30 5823 C 549.041 -1.23205 2.48426 0
M  V30 5824 H 551.992 -0.255027 1.56637 0
M  V30 5825 H 552.013 -2.76742 2.6114 0
M  V30 5826 H 551.525 -1.27741 3.66475 0
M  V30 5827 H 549.626 -3.12399 2.0307 0
M  V30 5828 H 549.739 -2.80086 3.88701 0
M  V30 5829 H 548.103 -1.56643 2.00836 0
M  V30 5830 H 548.886 -0.609194 3.37852 0
M  V30 5831 N 551.331 -1.39911 -0.725443 0
M  V30 5832 C 552.294 -1.39156 -1.82121 0
M  V30 5833 C 553.294 -0.287018 -1.58218 0
M  V30 5834 O 554.484 -0.545421 -1.65441 0
M  V30 5835 C 551.616 -1.1736 -3.20062 0
M  V30 5836 H 552.809 -2.36672 -1.84191 0
M  V30 5837 H 550.362 -1.25615 -0.930079 0
M  V30 5838 H 551.097 -0.205648 -3.23647 0
M  V30 5839 H 550.882 -1.97358 -3.3881 0
M  V30 5840 H 552.372 -1.19596 -4.00108 0
M  V30 5841 N 552.809 0.956637 -1.25245 0
M  V30 5842 C 554.037 1.73571 -1.12608 0
M  V30 5843 C 554.452 1.86063 0.320324 0
M  V30 5844 O 553.809 1.35691 1.22042 0
M  V30 5845 C 553.86 3.15053 -1.77268 0
M  V30 5846 O 553.581 3.03174 -3.16255 0
M  V30 5847 C 555.082 4.09248 -1.70386 0
M  V30 5848 H 552.302 0.543955 -0.392879 0
M  V30 5849 H 554.846 1.20031 -1.65568 0
M  V30 5850 H 553.001 3.65543 -1.28284 0
M  V30 5851 H 553.415 3.9241 -3.48015 0
M  V30 5852 H 554.889 5.06138 -2.20291 0
M  V30 5853 H 555.366 4.34102 -0.667239 0
M  V30 5854 H 555.972 3.64672 -2.18849 0
M  V30 5855 N 554.287 1.06798 1.15896 0
M  V30 5856 C 555.536 0.782796 1.8589 0
M  V30 5857 C 555.849 -0.693498 1.82893 0
M  V30 5858 O 557.055 -1.09325 2.48516 0
M  V30 5859 C 555.511 1.3502 3.33613 0
M  V30 5860 C 555.119 2.8571 3.45071 0
M  V30 5861 C 556.863 1.14278 4.08829 0
M  V30 5862 C 554.77 3.35669 4.86909 0
M  V30 5863 H 553.7 0.289149 0.696354 0
M  V30 5864 H 556.351 1.28734 1.30766 0
M  V30 5865 H 554.733 0.773407 3.88374 0
M  V30 5866 H 555.907 3.49385 3.00445 0
M  V30 5867 H 554.222 3.05178 2.83294 0
M  V30 5868 H 556.819 1.49087 5.13495 0
M  V30 5869 H 557.162 0.0814575 4.1622 0
M  V30 5870 H 557.695 1.68563 3.60321 0
M  V30 5871 H 554.434 4.41302 4.84698 0
M  V30 5872 H 553.954 2.76745 5.32139 0
M  V30 5873 H 555.633 3.31296 5.55745 0
M  V30 5874 N 555.766 -1.3263 0.851289 0
M  V30 5875 C 556.699 -2.26952 0.238318 0
M  V30 5876 C 557.677 -1.50243 -0.621757 0
M  V30 5877 O 558.861 -1.79378 -0.579298 0
M  V30 5878 C 555.988 -3.32124 -0.664178 0
M  V30 5879 C 555.034 -4.26325 0.122067 0
M  V30 5880 S 555.867 -5.14404 1.48824 0
M  V30 5881 C 557.023 -6.231 0.591372 0
M  V30 5882 H 557.256 -2.78594 1.03791 0
M  V30 5883 H 554.789 -1.4011 0.648731 0
M  V30 5884 H 556.747 -3.93197 -1.17924 0
M  V30 5885 H 555.408 -2.79273 -1.43755 0
M  V30 5886 H 554.601 -5.00821 -0.565181 0
M  V30 5887 H 554.203 -3.69652 0.568602 0
M  V30 5888 H 556.495 -6.77187 -0.205762 0
M  V30 5889 H 557.438 -6.95936 1.30687 0
M  V30 5890 H 557.846 -5.64252 0.167206 0
M  V30 5891 N 557.244 -0.608902 -1.45362 0
M  V30 5892 C 558.493 -0.10218 -2.01441 0
M  V30 5893 C 558.806 1.27546 -1.48295 0
M  V30 5894 O 560.012 1.87498 -1.96359 0
M  V30 5895 C 558.468 -0.131985 -3.59658 0
M  V30 5896 C 558.076 -1.50956 -4.21801 0
M  V30 5897 C 559.82 0.319427 -4.23296 0
M  V30 5898 C 557.727 -1.49568 -5.72174 0
M  V30 5899 H 556.657 -0.0344314 -0.753213 0
M  V30 5900 H 559.308 -0.764426 -1.6682 0
M  V30 5901 H 557.69 0.596939 -3.91475 0
M  V30 5902 H 558.864 -2.26029 -4.01556 0
M  V30 5903 H 557.179 -1.90318 -3.70362 0
M  V30 5904 H 559.776 0.349013 -5.3356 0
M  V30 5905 H 560.119 1.34237 -3.94064 0
M  V30 5906 H 560.652 -0.356273 -3.96201 0
M  V30 5907 H 557.391 -2.49626 -6.06108 0
M  V30 5908 H 556.911 -0.787542 -5.94607 0
M  V30 5909 H 558.59 -1.21989 -6.35396 0
M  V30 5910 N 558.722 1.53707 -0.348139 0
M  V30 5911 C 559.654 2.22725 0.540946 0
M  V30 5912 C 560.667 1.2354 1.06027 0
M  V30 5913 O 561.856 1.49867 0.96964 0
M  V30 5914 C 558.956 2.89756 1.75768 0
M  V30 5915 C 558.129 4.15297 1.37285 0
M  V30 5916 C 557.188 4.65697 2.44976 0
M  V30 5917 O 556.214 5.29798 2.08092 0
M  V30 5918 N 557.416 4.42017 3.763 0
M  V30 5919 H 560.181 2.99658 -0.0501592 0
M  V30 5920 H 557.742 1.60979 -0.17248 0
M  V30 5921 H 559.734 3.20388 2.47252 0
M  V30 5922 H 558.304 2.16382 2.25605 0
M  V30 5923 H 557.524 3.9116 0.488584 0
M  V30 5924 H 558.812 4.96948 1.09179 0
M  V30 5925 H 558.21 3.9076 4.09051 0
M  V30 5926 H 556.767 4.77242 4.4394 0
M  V30 5927 N 560.2 0.0768682 1.57412 0
M  V30 5928 C 561.147 -0.888577 2.13009 0
M  V30 5929 C 562.117 -1.29198 1.0439 0
M  V30 5930 O 563.302 -1.37694 1.3208 0
M  V30 5931 C 560.442 -2.14899 2.70023 0
M  V30 5932 C 559.555 -1.79777 3.92816 0
M  V30 5933 C 558.69 -3.00467 4.38056 0
M  V30 5934 C 557.729 -2.61385 5.53484 0
M  V30 5935 N 556.866 -3.74851 5.93659 0
M  V30 5936 H 561.706 -0.407593 2.95199 0
M  V30 5937 H 559.243 -0.189534 1.45874 0
M  V30 5938 H 561.201 -2.88688 3.0119 0
M  V30 5939 H 559.831 -2.60529 1.9059 0
M  V30 5940 H 558.883 -0.960301 3.68079 0
M  V30 5941 H 560.195 -1.47027 4.76639 0
M  V30 5942 H 559.349 -3.82529 4.7091 0
M  V30 5943 H 558.088 -3.36413 3.53097 0
M  V30 5944 H 557.093 -1.77746 5.20275 0
M  V30 5945 H 558.318 -2.26603 6.40178 0
M  V30 5946 H 556.264 -4.1055 5.11649 0
M  V30 5947 H 556.181 -3.45887 6.72234 0
M  V30 5948 H 557.449 -4.57477 6.31138 0
M  V30 5949 N 561.678 -1.56367 -0.196722 0
M  V30 5950 C 562.926 -1.80172 -0.915554 0
M  V30 5951 C 563.247 -0.649649 -1.8386 0
M  V30 5952 O 562.517 0.332111 -1.93064 0
M  V30 5953 H 561.097 -0.664592 -0.341067 0
M  V30 5954 H 563.759 -1.93844 -0.202622 0
M  V30 5955 H 562.855 -2.7327 -1.50764 0
M  V30 5956 N 563.156 0.464375 -1.50603 0
M  V30 5957 C 564.104 1.58224 -1.70493 0
M  V30 5958 C 565.098 1.59492 -0.570836 0
M  V30 5959 O 566.304 1.63561 -0.751517 0
M  V30 5960 H 562.679 0.525161 -0.538247 0
M  V30 5961 H 564.65 1.38613 -2.64252 0
M  V30 5962 C 563.399 2.96113 -1.82243 0
M  V30 5963 H 562.722 2.95858 -2.68901 0
M  V30 5964 H 564.162 3.73769 -2.00182 0
M  V30 5965 C 562.621 3.31946 -0.575628 0
M  V30 5966 O 563.151 4.00708 0.282152 0
M  V30 5967 N 561.357 2.87436 -0.427665 0
M  V30 5968 H 560.904 2.31652 -1.12674 0
M  V30 5969 H 560.862 3.11776 0.405379 0
M  V30 5970 N 564.634 1.40294 0.718013 0
M  V30 5971 C 565.881 1.3844 1.47786 0
M  V30 5972 C 566.209 -0.0140838 1.94495 0
M  V30 5973 O 565.464 -0.998165 1.68331 0
M  V30 5974 C 565.763 2.31814 2.72024 0
M  V30 5975 C 565.429 3.79117 2.44093 0
M  V30 5976 C 564.091 4.19249 2.36185 0
M  V30 5977 C 566.443 4.72212 2.20602 0
M  V30 5978 C 563.771 5.50516 2.02851 0
M  V30 5979 C 566.123 6.03775 1.88781 0
M  V30 5980 C 564.787 6.42953 1.79354 0
M  V30 5981 H 564.057 0.506588 0.540786 0
M  V30 5982 H 566.704 1.72929 0.822663 0
M  V30 5983 H 565.009 1.90501 3.42369 0
M  V30 5984 H 566.706 2.27664 3.30106 0
M  V30 5985 H 563.296 3.47318 2.51133 0
M  V30 5986 H 567.48 4.42026 2.25669 0
M  V30 5987 H 562.736 5.79776 1.94088 0
M  V30 5988 H 566.91 6.75428 1.69617 0
M  V30 5989 H 564.537 7.44584 1.53291 0
M  V30 5990 N 566.112 -0.949982 1.2575 0
M  V30 5991 C 567.528 -1.22191 1.02672 0
M  V30 5992 C 567.728 -1.99898 -0.253588 0
M  V30 5993 O 566.784 -2.33329 -0.965076 0
M  V30 5994 C 568.097 -1.99175 2.25277 0
M  V30 5995 C 569.645 -2.12201 2.30087 0
M  V30 5996 C 570.12 -2.92586 3.5236 0
M  V30 5997 N 571.611 -3.00163 3.52784 0
M  V30 5998 C 572.346 -3.62766 4.44059 0
M  V30 5999 N 571.842 -4.26943 5.45611 0
M  V30 6000 N 573.635 -3.59953 4.3173 0
M  V30 6001 H 565.786 -0.430258 2.07996 0
M  V30 6002 H 568.049 -0.252844 0.91366 0
M  V30 6003 H 567.755 -1.49479 3.18354 0
M  V30 6004 H 567.629 -2.99868 2.28821 0
M  V30 6005 H 570.016 -2.61093 1.3753 0
M  V30 6006 H 570.097 -1.10799 2.30559 0
M  V30 6007 H 569.741 -2.44383 4.45241 0
M  V30 6008 H 569.671 -3.94224 3.49134 0
M  V30 6009 H 572.162 -2.54529 2.79327 0
M  V30 6010 H 572.475 -4.72583 6.11461 0
M  V30 6011 H 570.82 -4.25557 5.49478 0
M  V30 6012 H 574.011 -3.09003 3.51617 0
M  V30 6013 H 574.184 -4.08455 5.03059 0
M  V30 6014 N 567.59 -1.07411 -1.15328 0
M  V30 6015 C 568.538 -0.689316 -2.22151 0
M  V30 6016 C 569.532 0.300156 -1.6672 0
M  V30 6017 O 570.738 0.163804 -1.79253 0
M  V30 6018 H 567.113 -0.204834 -0.723566 0
M  V30 6019 H 569.084 -1.59988 -2.51886 0
M  V30 6020 C 567.833 -0.103848 -3.47545 0
M  V30 6021 H 567.156 -0.856367 -3.90521 0
M  V30 6022 H 568.596 0.127725 -4.23808 0
M  V30 6023 C 567.055 1.15563 -3.1646 0
M  V30 6024 O 567.585 2.242 -3.33312 0
M  V30 6025 N 565.791 1.06203 -2.70498 0
M  V30 6026 H 565.338 0.177933 -2.56985 0
M  V30 6027 H 565.296 1.90553 -2.50074 0
M  V30 6028 N 569.068 1.32177 -0.85831 0
M  V30 6029 C 570 2.27688 -0.262835 0
M  V30 6030 C 571.013 1.52588 0.567513 0
M  V30 6031 O 572.202 1.74156 0.391407 0
M  V30 6032 C 569.302 3.32668 0.646937 0
M  V30 6033 C 568.475 4.37148 -0.148372 0
M  V30 6034 C 567.534 5.21686 0.687728 0
M  V30 6035 O 566.56 5.69074 0.119934 0
M  V30 6036 N 567.762 5.44892 2.00182 0
M  V30 6037 H 570.527 2.79426 -1.08356 0
M  V30 6038 H 568.088 1.45076 -0.718647 0
M  V30 6039 H 570.08 3.86134 1.2117 0
M  V30 6040 H 568.65 2.81061 1.36834 0
M  V30 6041 H 567.87 3.83915 -0.894572 0
M  V30 6042 H 569.158 5.04038 -0.694514 0
M  V30 6043 H 568.556 5.08128 2.4864 0
M  V30 6044 H 567.113 6.0134 2.51463 0
M  V30 6045 N 570.547 0.616602 1.45037 0
M  V30 6046 C 571.963 0.280994 1.57107 0
M  V30 6047 C 572.163 -1.21627 1.60653 0
M  V30 6048 O 571.219 -1.9997 1.54169 0
M  V30 6049 C 572.532 0.960116 2.8496 0
M  V30 6050 C 574.08 0.936884 2.98649 0
M  V30 6051 C 574.555 1.59619 4.29285 0
M  V30 6052 N 576.046 1.5621 4.36065 0
M  V30 6053 C 576.781 2.04131 5.35834 0
M  V30 6054 N 576.277 2.60177 6.4209 0
M  V30 6055 N 578.07 1.94845 5.27249 0
M  V30 6056 H 570.221 1.58867 1.40979 0
M  V30 6057 H 572.484 0.666024 0.674623 0
M  V30 6058 H 572.19 2.01473 2.88273 0
M  V30 6059 H 572.064 0.488921 3.74018 0
M  V30 6060 H 574.451 -0.109209 2.94898 0
M  V30 6061 H 574.532 1.44643 2.10979 0
M  V30 6062 H 574.176 2.64166 4.33796 0
M  V30 6063 H 574.106 1.06159 5.15789 0
M  V30 6064 H 576.597 1.15276 3.59889 0
M  V30 6065 H 576.91 2.94513 7.1448 0
M  V30 6066 H 575.255 2.64221 6.42816 0
M  V30 6067 H 578.446 1.50792 4.43147 0
M  V30 6068 H 578.619 2.32504 6.04852 0
M  V30 6069 N 572.025 -1.5352 0.356285 0
M  V30 6070 C 572.972 -2.25439 -0.494569 0
M  V30 6071 C 573.942 -1.25752 -1.08516 0
M  V30 6072 O 575.127 -1.54513 -1.1194 0
M  V30 6073 C 572.267 -3.04011 -1.63313 0
M  V30 6074 C 571.38 -4.18574 -1.06862 0
M  V30 6075 C 570.515 -4.84607 -2.17552 0
M  V30 6076 C 569.554 -5.91218 -1.58518 0
M  V30 6077 N 568.691 -6.50979 -2.63003 0
M  V30 6078 H 573.531 -2.97737 0.125244 0
M  V30 6079 H 571.068 -1.46916 0.0735789 0
M  V30 6080 H 573.026 -3.47834 -2.30363 0
M  V30 6081 H 571.656 -2.33986 -2.22374 0
M  V30 6082 H 570.708 -3.79303 -0.288672 0
M  V30 6083 H 572.02 -4.95215 -0.596924 0
M  V30 6084 H 571.174 -5.31566 -2.92442 0
M  V30 6085 H 569.913 -4.07418 -2.6807 0
M  V30 6086 H 568.918 -5.4363 -0.821391 0
M  V30 6087 H 570.143 -6.70322 -1.08836 0
M  V30 6088 H 568.089 -5.76648 -3.12751 0
M  V30 6089 H 568.006 -7.23131 -2.20493 0
M  V30 6090 H 569.274 -7.02589 -3.37623 0
M  V30 6091 N 573.503 -0.0852151 -1.57369 0
M  V30 6092 C 574.731 0.58946 -1.98325 0
M  V30 6093 C 575.146 1.62333 -0.96403 0
M  V30 6094 O 574.503 1.82438 0.0476395 0
M  V30 6095 C 574.554 1.24604 -3.39347 0
M  V30 6096 O 574.275 0.253532 -4.37366 0
M  V30 6097 C 575.776 2.00726 -3.95252 0
M  V30 6098 H 572.996 0.158783 -0.651942 0
M  V30 6099 H 575.54 -0.161584 -2.03861 0
M  V30 6100 H 573.695 1.94808 -3.34856 0
M  V30 6101 H 574.109 0.726207 -5.19448 0
M  V30 6102 H 575.583 2.42039 -4.96106 0
M  V30 6103 H 576.06 2.86919 -3.32527 0
M  V30 6104 H 576.666 1.3536 -4.03185 0
M  V30 6105 N 574.981 1.5647 0.188427 0
M  V30 6106 C 576.227 1.81281 0.909124 0
M  V30 6107 C 576.56 0.66034 1.82628 0
M  V30 6108 O 575.835 -0.338737 1.91528 0
M  V30 6109 C 576.118 3.16388 1.7196 0
M  V30 6110 C 575.971 4.42137 0.826714 0
M  V30 6111 C 577.29 3.48256 2.69083 0
M  V30 6112 H 574.409 0.659457 0.329068 0
M  V30 6113 H 577.051 1.89182 0.176156 0
M  V30 6114 H 575.201 3.09784 2.34448 0
M  V30 6115 H 576.873 4.60794 0.216025 0
M  V30 6116 H 575.116 4.33594 0.133792 0
M  V30 6117 H 575.787 5.33184 1.42893 0
M  V30 6118 H 578.263 3.55203 2.16726 0
M  V30 6119 H 577.139 4.43899 3.2287 0
M  V30 6120 H 577.4 2.72088 3.48455 0
M  V30 6121 N 576.459 -0.456382 1.50847 0
M  V30 6122 C 577.406 -1.55249 1.70782 0
M  V30 6123 C 578.376 -1.56757 0.549231 0
M  V30 6124 O 579.561 -1.74061 0.7815 0
M  V30 6125 C 576.701 -2.93118 1.82143 0
M  V30 6126 C 575.814 -3.01285 3.09598 0
M  V30 6127 C 574.949 -4.30159 3.11667 0
M  V30 6128 C 573.988 -4.32124 4.33515 0
M  V30 6129 N 573.125 -5.52492 4.3324 0
M  V30 6130 H 577.965 -1.37555 2.64353 0
M  V30 6131 H 575.502 -0.668543 1.3103 0
M  V30 6132 H 577.46 -3.73088 1.86711 0
M  V30 6133 H 576.09 -3.09413 0.919978 0
M  V30 6134 H 575.142 -2.14096 3.14431 0
M  V30 6135 H 576.454 -2.98597 3.99551 0
M  V30 6136 H 575.608 -5.18489 3.15046 0
M  V30 6137 H 574.347 -4.35477 2.1957 0
M  V30 6138 H 573.352 -3.42189 4.30333 0
M  V30 6139 H 574.577 -4.28485 5.26856 0
M  V30 6140 H 572.523 -5.58567 3.44004 0
M  V30 6141 H 572.44 -5.51605 5.16979 0
M  V30 6142 H 573.708 -6.42906 4.40786 0
M  V30 6143 N 577.937 -1.40673 -0.710563 0
M  V30 6144 C 579.177 -1.40677 -1.48288 0
M  V30 6145 C 579.541 -0.0097193 -1.91998 0
M  V30 6146 O 580.742 0.115381 -2.68552 0
M  V30 6147 C 579.013 -2.37289 -2.67262 0
M  V30 6148 S 580.572 -2.55694 -3.56603 0
M  V30 6149 H 577.39 -0.498545 -0.506926 0
M  V30 6150 H 579.992 -1.76984 -0.830472 0
M  V30 6151 H 578.696 -3.37617 -2.3333 0
M  V30 6152 H 578.227 -2.02282 -3.3741 0
M  V30 6153 H 580.242 -1.81311 -4.61888 0
M  V30 6154 N 579.415 0.9433 -1.26252 0
M  V30 6155 C 580.662 1.68925 -1.11672 0
M  V30 6156 C 580.99 1.91499 0.340329 0
M  V30 6157 O 580.245 1.49189 1.26653 0
M  V30 6158 C 580.544 3.07073 -1.82868 0
M  V30 6159 C 580.21 3.04262 -3.32769 0
M  V30 6160 C 578.872 3.03203 -3.7366 0
M  V30 6161 C 581.224 2.96729 -4.28487 0
M  V30 6162 C 578.552 2.92373 -5.0866 0
M  V30 6163 C 580.904 2.87442 -5.63525 0
M  V30 6164 C 579.568 2.84724 -6.03729 0
M  V30 6165 H 578.838 0.618141 -0.408635 0
M  V30 6166 H 581.485 1.10124 -1.56668 0
M  V30 6167 H 579.79 3.69486 -1.30335 0
M  V30 6168 H 581.487 3.63635 -1.69029 0
M  V30 6169 H 578.077 3.05865 -3.00241 0
M  V30 6170 H 582.261 2.96658 -3.97879 0
M  V30 6171 H 577.517 2.88645 -5.38975 0
M  V30 6172 H 581.691 2.80576 -6.37377 0
M  V30 6173 H 579.318 2.76089 -7.08293 0
M  V30 6174 N 580.893 1.08022 1.14757 0
M  V30 6175 C 581.841 0.701088 2.21783 0
M  V30 6176 C 582.835 -0.291311 1.66876 0
M  V30 6177 O 584.041 -0.154296 1.79337 0
M  V30 6178 H 580.416 0.208668 0.722469 0
M  V30 6179 H 582.387 1.61321 2.51034 0
M  V30 6180 C 581.136 0.122278 3.47485 0
M  V30 6181 H 580.459 0.877065 3.90061 0
M  V30 6182 H 581.899 -0.105248 4.23869 0
M  V30 6183 C 580.358 -1.13883 3.17068 0
M  V30 6184 O 580.888 -2.22429 3.34497 0
M  V30 6185 N 579.094 -1.04767 2.71058 0
M  V30 6186 H 578.641 -0.164302 2.57075 0
M  V30 6187 H 578.599 -1.89224 2.51081 0
M  V30 6188 N 582.371 -1.3172 0.865308 0
M  V30 6189 C 583.611 -1.98675 0.480365 0
M  V30 6190 C 583.975 -1.66929 -0.948621 0
M  V30 6191 O 585.176 -2.27059 -1.43867 0
M  V30 6192 C 583.447 -3.49972 0.724858 0
M  V30 6193 S 585.006 -4.36598 0.439078 0
M  V30 6194 H 581.824 -0.687967 0.179506 0
M  V30 6195 H 584.426 -1.60215 1.12033 0
M  V30 6196 H 583.13 -3.70567 1.76375 0
M  V30 6197 H 582.661 -3.93335 0.0717173 0
M  V30 6198 H 584.676 -4.90792 -0.730564 0
M  V30 6199 N 583.85 -0.624285 -1.44708 0
M  V30 6200 C 585.098 -0.125802 -2.01708 0
M  V30 6201 C 585.418 1.2543 -1.49306 0
M  V30 6202 O 584.689 1.83198 -0.693924 0
M  V30 6203 H 583.269 -0.0435161 -0.745731 0
M  V30 6204 H 585.931 -0.809446 -1.77296 0
M  V30 6205 H 585.027 -0.0882734 -3.11975 0
M  V30 6206 N 585.328 1.53329 -0.364422 0
M  V30 6207 C 586.275 2.25698 0.482607 0
M  V30 6208 C 587.245 1.26325 1.07848 0
M  V30 6209 O 588.43 1.55104 1.11119 0
M  V30 6210 C 585.57 3.04873 1.61699 0
M  V30 6211 C 584.683 4.19135 1.0464 0
M  V30 6212 C 583.818 4.85754 2.14979 0
M  V30 6213 C 582.857 5.9205 1.5538 0
M  V30 6214 N 581.994 6.52365 2.59547 0
M  V30 6215 H 586.834 2.97666 -0.141032 0
M  V30 6216 H 584.371 1.46875 -0.0813692 0
M  V30 6217 H 586.329 3.49051 2.28516 0
M  V30 6218 H 584.959 2.35162 2.2113 0
M  V30 6219 H 584.011 3.79451 0.268553 0
M  V30 6220 H 585.323 4.95525 0.570653 0
M  V30 6221 H 584.477 5.3311 2.89619 0
M  V30 6222 H 583.216 4.08834 2.65906 0
M  V30 6223 H 582.221 5.44058 0.792549 0
M  V30 6224 H 583.446 6.7089 1.0528 0
M  V30 6225 H 581.392 5.78298 3.09689 0
M  V30 6226 H 581.309 7.2429 2.16655 0
M  V30 6227 H 582.577 7.0437 3.33892 0
M  V30 6228 N 586.806 0.0935595 1.57322 0
M  V30 6229 C 587.716 -0.880192 2.17462 0
M  V30 6230 C 588.732 -1.31135 1.14366 0
M  V30 6231 O 589.908 -1.37958 1.46729 0
M  V30 6232 C 586.973 -2.12184 2.74188 0
M  V30 6233 C 586.034 -1.74503 3.92234 0
M  V30 6234 C 585.267 -2.92748 4.46245 0
M  V30 6235 O 585.49 -4.07427 3.99198 0
M  V30 6236 O 584.424 -2.71303 5.37288 0
M  V30 6237 H 588.25 -0.398516 3.01074 0
M  V30 6238 H 585.835 -0.130707 1.48827 0
M  V30 6239 H 587.717 -2.84953 3.10451 0
M  V30 6240 H 586.392 -2.59407 1.93623 0
M  V30 6241 H 585.299 -0.989186 3.60785 0
M  V30 6242 H 586.632 -1.32044 4.74157 0
M  V30 6243 N 588.284 -1.56567 -0.180126 0
M  V30 6244 C 589.532 -1.81133 -0.896392 0
M  V30 6245 C 589.853 -0.669114 -1.83161 0
M  V30 6246 O 589.123 0.311616 -1.93406 0
M  V30 6247 H 587.703 -0.668172 -0.333999 0
M  V30 6248 H 590.365 -1.94048 -0.182051 0
M  V30 6249 H 589.461 -2.74854 -1.47857 0
M  V30 6250 N 589.762 0.448376 -1.51087 0
M  V30 6251 C 590.712 1.54156 -1.67988 0
M  V30 6252 C 591.696 1.5178 -0.534015 0
M  V30 6253 O 592.888 1.58419 -0.789448 0
M  V30 6254 C 590.017 2.92437 -1.79822 0
M  V30 6255 C 589.103 2.99611 -3.00157 0
M  V30 6256 N 589.494 2.7655 -4.23502 0
M  V30 6257 C 587.792 3.30764 -2.99184 0
M  V30 6258 C 588.493 2.89281 -5.0467 0
M  V30 6259 N 587.469 3.20473 -4.39088 0
M  V30 6260 H 591.271 1.35061 -2.61028 0
M  V30 6261 H 588.785 0.655504 -1.48583 0
M  V30 6262 H 590.782 3.71068 -1.90037 0
M  V30 6263 H 589.442 3.1256 -0.879554 0
M  V30 6264 H 590.453 2.5169 -4.52628 0
M  V30 6265 H 587.13 3.56732 -2.16907 0
M  V30 6266 H 588.52 2.75499 -6.12821 0
M  V30 6267 N 591.24 1.41047 0.703093 0
M  V30 6268 C 592.489 1.39301 1.4587 0
M  V30 6269 C 592.802 0.00267077 1.956 0
M  V30 6270 O 594.008 -0.137414 2.71152 0
M  V30 6271 C 592.464 2.44891 2.63735 0
M  V30 6272 C 592.072 3.89796 2.20824 0
M  V30 6273 C 593.816 2.5227 3.41409 0
M  V30 6274 C 591.723 4.86955 3.35602 0
M  V30 6275 H 590.653 0.518005 0.547893 0
M  V30 6276 H 593.304 1.66839 0.764009 0
M  V30 6277 H 591.686 2.10472 3.35436 0
M  V30 6278 H 592.86 4.33424 1.56461 0
M  V30 6279 H 591.175 3.86008 1.56163 0
M  V30 6280 H 593.772 3.22044 4.26839 0
M  V30 6281 H 594.115 1.55714 3.86081 0
M  V30 6282 H 594.648 2.85742 2.7676 0
M  V30 6283 H 591.387 5.84888 2.9595 0
M  V30 6284 H 590.907 4.47982 3.98839 0
M  V30 6285 H 592.586 5.07361 4.01489 0
M  V30 6286 N 592.718 -0.936591 1.26751 0
M  V30 6287 C 593.681 -2.01752 1.08761 0
M  V30 6288 C 594.681 -1.60763 0.0344435 0
M  V30 6289 O 595.871 -1.71963 0.278258 0
M  V30 6290 C 593.003 -3.34543 0.655271 0
M  V30 6291 H 594.196 -2.19143 2.04735 0
M  V30 6292 H 591.749 -1.11618 1.09413 0
M  V30 6293 H 592.484 -3.22851 -0.30626 0
M  V30 6294 H 592.269 -3.65647 1.41578 0
M  V30 6295 H 593.759 -4.13944 0.551378 0
M  V30 6296 N 594.196 -1.08629 -1.14182 0
M  V30 6297 C 595.143 -0.718299 -2.19338 0
M  V30 6298 C 596.113 0.296587 -1.63431 0
M  V30 6299 O 597.298 0.180079 -1.89948 0
M  V30 6300 C 594.438 -0.136203 -3.44831 0
M  V30 6301 C 593.551 -1.20414 -4.14879 0
M  V30 6302 C 592.686 -0.585666 -5.27962 0
M  V30 6303 C 591.725 -1.63548 -5.89846 0
M  V30 6304 N 590.862 -1.03864 -6.94375 0
M  V30 6305 H 595.702 -1.61932 -2.50164 0
M  V30 6306 H 593.239 -0.80919 -1.22844 0
M  V30 6307 H 595.197 0.219021 -4.16625 0
M  V30 6308 H 593.827 0.728121 -3.14481 0
M  V30 6309 H 592.879 -1.67676 -3.41451 0
M  V30 6310 H 594.191 -1.99959 -4.56966 0
M  V30 6311 H 593.345 -0.178818 -6.06436 0
M  V30 6312 H 592.084 0.24142 -4.87102 0
M  V30 6313 H 591.089 -2.05197 -5.10073 0
M  V30 6314 H 592.314 -2.46509 -6.3278 0
M  V30 6315 H 590.26 -0.232687 -6.55587 0
M  V30 6316 H 590.177 -1.77116 -7.3496 0
M  V30 6317 H 591.445 -0.657724 -7.7672 0
M  V30 6318 N 595.674 1.31259 -0.872281 0
M  V30 6319 C 596.622 2.30404 -0.318897 0
M  V30 6320 C 597.616 1.5962 0.567267 0
M  V30 6321 O 598.822 1.74204 0.453111 0
M  V30 6322 H 595.197 0.747243 -0.0844474 0
M  V30 6323 H 597.168 2.74549 -1.16899 0
M  V30 6324 C 595.917 3.44608 0.462683 0
M  V30 6325 H 595.24 3.99248 -0.209936 0
M  V30 6326 H 596.68 4.1609 0.815187 0
M  V30 6327 C 595.139 2.93456 1.65485 0
M  V30 6328 O 595.669 2.92418 2.75417 0
M  V30 6329 N 593.875 2.49628 1.48776 0
M  V30 6330 H 593.422 2.50671 0.593452 0
M  V30 6331 H 593.38 2.15759 2.28682 0
M  V30 6332 N 597.152 0.631951 1.44375 0
M  V30 6333 C 598.392 0.14009 2.03919 0
M  V30 6334 C 598.756 -1.21534 1.48639 0
M  V30 6335 O 599.957 -1.79936 1.99691 0
M  V30 6336 C 598.228 0.127174 3.57174 0
M  V30 6337 S 599.787 -0.299946 4.37774 0
M  V30 6338 H 596.605 0.0614891 0.708336 0
M  V30 6339 H 599.207 0.835524 1.76746 0
M  V30 6340 H 597.911 1.11676 3.94913 0
M  V30 6341 H 597.442 -0.589482 3.88958 0
M  V30 6342 H 599.457 -1.54396 4.71568 0
M  V30 6343 N 598.631 -1.53133 0.372548 0
M  V30 6344 C 600.047 -1.59585 0.02178 0
M  V30 6345 C 600.247 -1.38736 -1.46132 0
M  V30 6346 O 599.303 -1.19599 -2.22379 0
M  V30 6347 C 600.616 -2.9678 0.483959 0
M  V30 6348 C 602.164 -3.09909 0.438775 0
M  V30 6349 C 602.639 -4.49527 0.876876 0
M  V30 6350 N 604.13 -4.55663 0.832214 0
M  V30 6351 C 604.865 -5.61896 1.14281 0
M  V30 6352 N 604.361 -6.75852 1.52303 0
M  V30 6353 N 606.154 -5.51916 1.06515 0
M  V30 6354 H 598.305 -1.64936 1.33827 0
M  V30 6355 H 600.568 -0.773947 0.547458 0
M  V30 6356 H 600.274 -3.17198 1.51915 0
M  V30 6357 H 600.148 -3.7699 -0.125784 0
M  V30 6358 H 602.535 -2.89197 -0.587294 0
M  V30 6359 H 602.616 -2.31691 1.0841 0
M  V30 6360 H 602.26 -4.70979 1.90109 0
M  V30 6361 H 602.19 -5.26186 0.208727 0
M  V30 6362 H 604.681 -3.73844 0.552195 0
M  V30 6363 H 604.994 -7.52862 1.7441 0
M  V30 6364 H 603.339 -6.77226 1.56175 0
M  V30 6365 H 606.53 -4.6177 0.767235 0
M  V30 6366 H 606.703 -6.34609 1.31053 0
M  V30 6367 N 600.109 -0.101901 -1.5727 0
M  V30 6368 C 601.072 0.840129 -2.13247 0
M  V30 6369 C 602.072 1.20625 -1.06331 0
M  V30 6370 O 603.262 1.13456 -1.32186 0
M  V30 6371 C 600.394 2.13372 -2.65867 0
M  V30 6372 H 601.587 0.353945 -2.97804 0
M  V30 6373 H 599.14 0.147167 -1.55606 0
M  V30 6374 H 599.875 2.66461 -1.84849 0
M  V30 6375 H 599.66 1.88085 -3.44044 0
M  V30 6376 H 601.15 2.80748 -3.09145 0
M  V30 6377 N 601.587 1.56661 0.17182 0
M  V30 6378 C 602.998 1.71652 0.734329 0
M  V30 6379 C 603.349 0.712335 1.82812 0
M  V30 6380 O 602.474 -0.126401 2.16031 0
M  V30 6381 C 603.069 3.11226 1.3388 0
M  V30 6382 C 601.628 3.27904 1.84813 0
M  V30 6383 C 600.775 2.67603 0.726917 0
M  V30 6384 H 603.726 1.5861 -0.0535665 0
M  V30 6385 H 603.747 3.09849 2.20849 0
M  V30 6386 H 603.259 3.8429 0.54249 0
M  V30 6387 H 601.36 2.59796 2.6709 0
M  V30 6388 H 601.473 4.35637 1.99392 0
M  V30 6389 H 599.837 2.274 1.14723 0
M  V30 6390 H 600.62 3.43252 -0.0575334 0
M  V30 6391 N 603.065 -0.440357 1.51323 0
M  V30 6392 C 604.481 -0.7766 1.39431 0
M  V30 6393 C 604.681 -1.95838 0.474296 0
M  V30 6394 O 603.737 -2.52398 -0.0716692 0
M  V30 6395 C 605.05 -1.05981 2.81405 0
M  V30 6396 C 606.598 -1.16442 2.90534 0
M  V30 6397 C 607.073 -1.48058 4.33408 0
M  V30 6398 N 608.564 -1.54988 4.36501 0
M  V30 6399 C 609.299 -1.81017 5.44078 0
M  V30 6400 N 608.795 -2.04858 6.61819 0
M  V30 6401 N 610.588 -1.82774 5.31554 0
M  V30 6402 H 602.739 0.338006 2.09693 0
M  V30 6403 H 605.002 0.0888072 0.943831 0
M  V30 6404 H 604.708 -0.264173 3.50706 0
M  V30 6405 H 604.582 -1.98822 3.20546 0
M  V30 6406 H 606.969 -1.95068 2.21432 0
M  V30 6407 H 607.05 -0.215088 2.54894 0
M  V30 6408 H 606.694 -0.699605 5.03059 0
M  V30 6409 H 606.624 -2.44192 4.66559 0
M  V30 6410 H 609.115 -1.38479 3.51613 0
M  V30 6411 H 609.428 -2.2408 7.396 0
M  V30 6412 H 607.773 -2.02187 6.6494 0
M  V30 6413 H 610.964 -1.63665 4.38556 0
M  V30 6414 H 611.137 -2.02722 6.15474 0
M  V30 6415 N 604.543 -1.41418 -0.695603 0
M  V30 6416 C 605.49 -1.43264 -1.80954 0
M  V30 6417 C 606.46 -0.287016 -1.63601 0
M  V30 6418 O 607.645 -0.488054 -1.84452 0
M  V30 6419 C 604.785 -1.32054 -3.18835 0
M  V30 6420 C 603.898 -2.56485 -3.4762 0
M  V30 6421 C 603.033 -2.3757 -4.75115 0
M  V30 6422 C 602.072 -3.57477 -4.96867 0
M  V30 6423 N 601.209 -3.37632 -6.15588 0
M  V30 6424 H 606.049 -2.38467 -1.78711 0
M  V30 6425 H 603.586 -1.18415 -0.872715 0
M  V30 6426 H 605.544 -1.23558 -3.98484 0
M  V30 6427 H 604.174 -0.404592 -3.20254 0
M  V30 6428 H 603.226 -2.75432 -2.62376 0
M  V30 6429 H 604.538 -3.45678 -3.59594 0
M  V30 6430 H 603.692 -2.2654 -5.62818 0
M  V30 6431 H 602.431 -1.45834 -4.65386 0
M  V30 6432 H 601.436 -3.68961 -4.07612 0
M  V30 6433 H 602.661 -4.50167 -5.08455 0
M  V30 6434 H 600.607 -2.48596 -6.07072 0
M  V30 6435 H 600.524 -4.20401 -6.2833 0
M  V30 6436 H 601.792 -3.30375 -7.06026 0
M  V30 6437 N 606.021 0.929856 -1.27246 0
M  V30 6438 C 606.968 2.03017 -1.09785 0
M  V30 6439 C 607.938 1.661 0.000456744 0
M  V30 6440 O 609.123 1.90116 -0.161462 0
M  V30 6441 C 606.263 3.36878 -0.748816 0
M  V30 6442 C 605.376 3.86763 -1.92453 0
M  V30 6443 C 604.511 5.09061 -1.51758 0
M  V30 6444 C 603.55 5.51237 -2.66091 0
M  V30 6445 N 602.687 6.64732 -2.25999 0
M  V30 6446 H 607.527 2.17285 -2.03939 0
M  V30 6447 H 605.064 1.06448 -1.01524 0
M  V30 6448 H 607.022 4.13855 -0.527283 0
M  V30 6449 H 605.652 3.22424 0.155771 0
M  V30 6450 H 604.704 3.06086 -2.25867 0
M  V30 6451 H 606.016 4.13994 -2.78227 0
M  V30 6452 H 605.17 5.93532 -1.25716 0
M  V30 6453 H 603.909 4.83602 -0.630896 0
M  V30 6454 H 602.914 4.65316 -2.92849 0
M  V30 6455 H 604.139 5.78692 -3.55377 0
M  V30 6456 H 602.085 6.40935 -1.3978 0
M  V30 6457 H 602.002 6.91607 -3.05313 0
M  V30 6458 H 603.27 7.52549 -2.03199 0
M  V30 6459 N 607.499 1.09233 1.13605 0
M  V30 6460 C 608.747 0.825525 1.84471 0
M  V30 6461 C 609.068 -0.650702 1.83823 0
M  V30 6462 O 608.338 -1.47204 1.29259 0
M  V30 6463 H 606.918 0.3024 0.683054 0
M  V30 6464 H 609.58 1.38006 1.37624 0
M  V30 6465 H 608.676 1.17727 2.89045 0
M  V30 6466 N 608.977 -1.30795 0.87923 0
M  V30 6467 C 610.217 -1.98155 0.50141 0
M  V30 6468 C 610.581 -1.67925 -0.930863 0
M  V30 6469 O 611.782 -2.28572 -1.41451 0
M  V30 6470 C 610.053 -3.49184 0.761937 0
M  V30 6471 S 611.612 -4.36107 0.485361 0
M  V30 6472 H 608.43 -0.686025 0.186792 0
M  V30 6473 H 611.032 -1.59018 1.13726 0
M  V30 6474 H 609.736 -3.68676 1.80295 0
M  V30 6475 H 609.267 -3.93236 0.113432 0
M  V30 6476 H 611.282 -4.9154 -0.678467 0
M  V30 6477 N 610.455 -0.639598 -1.44038 0
M  V30 6478 C 611.701 -0.156248 -2.02799 0
M  V30 6479 C 612.056 1.21145 -1.49471 0
M  V30 6480 O 611.349 1.79406 -0.672608 0
M  V30 6481 C 611.543 -0.0925348 -3.5728 0
M  V30 6482 C 611.372 -1.45252 -4.25596 0
M  V30 6483 C 610.142 -2.04145 -4.62226 0
M  V30 6484 C 612.34 -2.38812 -4.55492 0
M  V30 6485 N 610.322 -3.3329 -5.15549 0
M  V30 6486 C 611.693 -3.52578 -5.09989 0
M  V30 6487 C 613.748 -2.37785 -4.3745 0
M  V30 6488 C 612.451 -4.65525 -5.48342 0
M  V30 6489 C 614.477 -3.49802 -4.76857 0
M  V30 6490 C 613.839 -4.62292 -5.31475 0
M  V30 6491 H 609.938 -0.101292 -0.775412 0
M  V30 6492 H 612.522 -0.844938 -1.75411 0
M  V30 6493 H 610.693 0.565459 -3.84262 0
M  V30 6494 H 612.425 0.400426 -4.02714 0
M  V30 6495 H 609.18 -1.56999 -4.4682 0
M  V30 6496 H 609.604 -3.9934 -5.46678 0
M  V30 6497 H 614.246 -1.52061 -3.94509 0
M  V30 6498 H 611.964 -5.51951 -5.90233 0
M  V30 6499 H 615.55 -3.50193 -4.64603 0
M  V30 6500 H 614.43 -5.47536 -5.61403 0
M  V30 6501 N 611.933 1.52934 -0.380664 0
M  V30 6502 C 612.88 2.26197 0.458641 0
M  V30 6503 C 613.85 1.27462 1.06502 0
M  V30 6504 O 615.035 1.56274 1.09467 0
M  V30 6505 C 612.175 3.06571 1.58456 0
M  V30 6506 C 611.288 4.20222 1.00189 0
M  V30 6507 C 610.423 4.88007 2.09815 0
M  V30 6508 C 609.462 5.93665 1.49092 0
M  V30 6509 N 608.599 6.55081 2.52613 0
M  V30 6510 H 613.439 2.975 -0.172595 0
M  V30 6511 H 610.976 1.4678 -0.0969426 0
M  V30 6512 H 612.934 3.51455 2.24801 0
M  V30 6513 H 611.564 2.37494 2.18624 0
M  V30 6514 H 610.616 3.79714 0.228292 0
M  V30 6515 H 611.928 4.96102 0.518064 0
M  V30 6516 H 611.082 5.36151 2.83948 0
M  V30 6517 H 609.821 4.11632 2.61555 0
M  V30 6518 H 608.826 5.44868 0.7348 0
M  V30 6519 H 610.051 6.71969 0.981582 0
M  V30 6520 H 607.997 5.8155 3.03538 0
M  V30 6521 H 607.914 7.26548 2.08961 0
M  V30 6522 H 609.182 7.07871 3.26402 0
M  V30 6523 N 613.412 0.11024 1.57214 0
M  V30 6524 C 614.652 -0.553061 1.96775 0
M  V30 6525 C 615.016 -1.64403 0.991753 0
M  V30 6526 O 616.217 -2.36561 1.27642 0
M  V30 6527 C 614.488 -1.08004 3.4069 0
M  V30 6528 S 616.047 -1.75309 4.02259 0
M  V30 6529 H 612.865 -0.18003 0.68783 0
M  V30 6530 H 615.467 0.193242 1.94543 0
M  V30 6531 H 614.171 -0.274735 4.09479 0
M  V30 6532 H 613.702 -1.86182 3.46554 0
M  V30 6533 H 615.717 -3.03834 3.923 0
M  V30 6534 N 614.89 -1.56749 -0.16351 0
M  V30 6535 C 616.138 -1.82074 -0.87713 0
M  V30 6536 C 616.459 -0.688503 -1.82441 0
M  V30 6537 O 615.729 0.291085 -1.93725 0
M  V30 6538 H 614.309 -0.671677 -0.326893 0
M  V30 6539 H 616.971 -1.9423 -0.161459 0
M  V30 6540 H 616.067 -2.76407 -1.44934 0
M  V30 6541 N 616.368 0.432326 -1.51554 0
M  V30 6542 C 617.315 1.52512 -1.7323 0
M  V30 6543 C 618.285 1.55863 -0.5741 0
M  V30 6544 O 619.47 1.72796 -0.809093 0
M  V30 6545 C 616.61 2.90183 -1.86783 0
M  V30 6546 C 615.723 2.96322 -3.14352 0
M  V30 6547 C 614.858 4.25147 -3.18471 0
M  V30 6548 C 613.897 4.25172 -4.40335 0
M  V30 6549 N 613.034 5.45529 -4.41975 0
M  V30 6550 H 617.874 1.33332 -2.66508 0
M  V30 6551 H 615.411 0.647613 -1.32077 0
M  V30 6552 H 617.369 3.70071 -1.92623 0
M  V30 6553 H 615.999 3.0791 -0.969087 0
M  V30 6554 H 615.051 2.09066 -3.17798 0
M  V30 6555 H 616.363 2.92203 -4.04251 0
M  V30 6556 H 615.517 5.13411 -3.23255 0
M  V30 6557 H 614.256 4.31929 -2.2647 0
M  V30 6558 H 613.261 3.353 -4.35723 0
M  V30 6559 H 614.486 4.20049 -5.33606 0
M  V30 6560 H 612.432 5.53024 -3.52847 0
M  V30 6561 H 612.349 5.43311 -5.25689 0
M  V30 6562 H 613.617 6.35812 -4.50958 0
M  V30 6563 N 617.846 1.41785 0.688094 0
M  V30 6564 C 618.756 1.46596 1.83158 0
M  V30 6565 C 619.772 0.355862 1.70322 0
M  V30 6566 O 620.948 0.604737 1.92106 0
M  V30 6567 C 618.013 1.35322 3.192 0
M  V30 6568 C 617.074 2.56711 3.4409 0
M  V30 6569 C 616.307 2.45965 4.73642 0
M  V30 6570 O 616.53 1.48827 5.50642 0
M  V30 6571 O 615.464 3.35859 4.99482 0
M  V30 6572 H 619.29 2.43083 1.82056 0
M  V30 6573 H 616.875 1.23404 0.842126 0
M  V30 6574 H 618.757 1.31347 4.00407 0
M  V30 6575 H 617.432 0.419536 3.2097 0
M  V30 6576 H 616.339 2.66262 2.62784 0
M  V30 6577 H 617.672 3.48933 3.47141 0
M  V30 6578 N 619.324 -0.923095 1.27737 0
M  V30 6579 C 620.572 -1.66797 1.14119 0
M  V30 6580 C 620.893 -1.92479 -0.312541 0
M  V30 6581 O 620.163 -1.53432 -1.218 0
M  V30 6582 H 618.743 -0.618196 0.419336 0
M  V30 6583 H 621.405 -1.10815 1.60331 0
M  V30 6584 H 620.501 -2.63424 1.67374 0
M  V30 6585 N 620.802 -1.09834 -1.13024 0
M  V30 6586 C 621.752 -0.710899 -2.16634 0
M  V30 6587 C 622.736 0.276836 -1.58501 0
M  V30 6588 O 623.928 0.0865457 -1.76788 0
M  V30 6589 C 621.057 -0.137574 -3.43024 0
M  V30 6590 C 620.143 -1.15198 -4.08155 0
M  V30 6591 N 620.534 -2.34054 -4.48388 0
M  V30 6592 C 618.832 -0.991074 -4.34849 0
M  V30 6593 C 619.533 -2.98616 -4.99203 0
M  V30 6594 N 618.509 -2.26159 -4.94321 0
M  V30 6595 H 622.311 -1.61576 -2.455 0
M  V30 6596 H 619.825 -0.975158 -1.29863 0
M  V30 6597 H 621.822 0.158031 -4.166 0
M  V30 6598 H 620.482 0.762088 -3.1563 0
M  V30 6599 H 621.493 -2.7162 -4.40957 0
M  V30 6600 H 618.17 -0.146448 -4.17243 0
M  V30 6601 H 619.56 -3.99683 -5.40096 0
M  V30 6602 N 622.28 1.30327 -0.886154 0
M  V30 6603 C 623.212 2.27079 -0.311072 0
M  V30 6604 C 624.225 1.53758 0.53502 0
M  V30 6605 O 625.414 1.74947 0.354378 0
M  V30 6606 C 622.514 3.33965 0.576228 0
M  V30 6607 C 621.687 4.36735 -0.241064 0
M  V30 6608 C 620.746 5.23028 0.576916 0
M  V30 6609 O 619.772 5.692 -0.000802231 0
M  V30 6610 N 620.974 5.49016 1.88579 0
M  V30 6611 H 623.739 2.77065 -1.14259 0
M  V30 6612 H 621.3 1.43519 -0.749258 0
M  V30 6613 H 623.292 3.88618 1.12953 0
M  V30 6614 H 621.862 2.839 1.30842 0
M  V30 6615 H 621.082 3.81932 -0.975805 0
M  V30 6616 H 622.37 5.02451 -0.801272 0
M  V30 6617 H 621.768 5.13288 2.37806 0
M  V30 6618 H 620.325 6.06539 2.38651 0
M  V30 6619 N 623.758 0.647228 1.43697 0
M  V30 6620 C 624.691 -0.097646 2.27991 0
M  V30 6621 C 625.669 -0.83571 1.3948 0
M  V30 6622 O 626.853 -0.836509 1.68922 0
M  V30 6623 C 623.98 -1.14484 3.18765 0
M  V30 6624 C 623.026 -0.505503 4.23494 0
M  V30 6625 S 623.859 0.716471 5.30685 0
M  V30 6626 C 625.015 -0.330339 6.25028 0
M  V30 6627 H 625.248 0.617417 2.90818 0
M  V30 6628 H 622.781 0.435881 1.4812 0
M  V30 6629 H 624.739 -1.74403 3.7161 0
M  V30 6630 H 623.4 -1.83219 2.55127 0
M  V30 6631 H 622.593 -1.29473 4.87086 0
M  V30 6632 H 622.195 0.0194377 3.73995 0
M  V30 6633 H 624.487 -1.19828 6.66819 0
M  V30 6634 H 625.43 0.270409 7.07583 0
M  V30 6635 H 625.838 -0.663459 5.60588 0
M  V30 6636 N 625.236 -1.5273 0.388769 0
M  V30 6637 C 626.183 -2.26437 -0.446639 0
M  V30 6638 C 627.153 -1.28025 -1.05824 0
M  V30 6639 O 628.338 -1.56852 -1.08637 0
M  V30 6640 C 625.478 -3.07407 -1.56828 0
M  V30 6641 C 624.591 -4.20747 -0.979589 0
M  V30 6642 C 623.726 -4.89113 -2.07224 0
M  V30 6643 C 622.765 -5.94447 -1.45942 0
M  V30 6644 N 621.902 -6.56411 -2.49135 0
M  V30 6645 H 626.742 -2.97404 0.18837 0
M  V30 6646 H 624.279 -1.46727 0.104725 0
M  V30 6647 H 626.237 -3.52642 -2.22934 0
M  V30 6648 H 624.867 -2.3865 -2.17361 0
M  V30 6649 H 623.919 -3.7983 -0.208151 0
M  V30 6650 H 625.231 -4.9637 -0.491747 0
M  V30 6651 H 624.385 -5.3765 -2.81101 0
M  V30 6652 H 623.124 -4.13013 -2.59368 0
M  V30 6653 H 622.129 -5.4525 -0.705894 0
M  V30 6654 H 623.354 -6.7248 -0.945932 0
M  V30 6655 H 621.3 -5.83152 -3.00449 0
M  V30 6656 H 621.217 -7.27645 -2.05105 0
M  V30 6657 H 622.485 -7.09592 -3.22644 0
M  V30 6658 N 626.714 -0.118576 -1.57153 0
M  V30 6659 C 627.991 0.583062 -1.86708 0
M  V30 6660 C 628.371 1.84841 -1.01967 0
M  V30 6661 O 627.719 2.28288 -0.0984673 0
M  V30 6662 C 627.929 0.875912 -3.3783 0
M  V30 6663 C 629.277 1.22916 -4.0642 0
M  V30 6664 O 630.301 0.966188 -3.42846 0
M  V30 6665 O 629.16 1.72269 -5.18638 0
M  V30 6666 H 626.254 0.294185 -0.772906 0
M  V30 6667 H 628.8 -0.153048 -1.69008 0
M  V30 6668 H 627.572 -0.0207776 -3.91294 0
M  V30 6669 H 627.195 1.66719 -3.60958 0
M  V30 6670 N 628.193 1.56834 0.155195 0
M  V30 6671 C 629.433 1.84701 0.875488 0
M  V30 6672 C 629.797 0.701747 1.78716 0
M  V30 6673 O 630.998 0.861263 2.54629 0
M  V30 6674 C 629.269 3.1773 1.63654 0
M  V30 6675 S 630.828 3.67128 2.40338 0
M  V30 6676 H 627.646 0.647856 0.292923 0
M  V30 6677 H 630.248 1.95026 0.136024 0
M  V30 6678 H 628.952 3.99059 0.958117 0
M  V30 6679 H 628.483 3.10388 2.41708 0
M  V30 6680 H 630.498 3.35739 3.65368 0
M  V30 6681 N 629.671 -0.424282 1.51781 0
M  V30 6682 C 630.899 -1.1947 1.68921 0
M  V30 6683 C 631.314 -1.84683 0.39213 0
M  V30 6684 O 630.671 -1.71261 -0.630554 0
M  V30 6685 C 630.722 -2.26909 2.81416 0
M  V30 6686 O 630.443 -1.64361 4.061 0
M  V30 6687 C 631.944 -3.16945 3.09937 0
M  V30 6688 H 629.164 -0.359591 0.566511 0
M  V30 6689 H 631.708 -0.501139 1.98265 0
M  V30 6690 H 629.863 -2.91959 2.54635 0
M  V30 6691 H 630.277 -2.35468 4.68674 0
M  V30 6692 H 631.751 -3.88437 3.922 0
M  V30 6693 H 632.228 -3.78451 2.22871 0
M  V30 6694 H 632.834 -2.57581 3.38426 0
M  V30 6695 N 631.149 -1.42148 -0.680565 0
M  V30 6696 C 632.059 -1.47565 -1.82378 0
M  V30 6697 C 633.075 -0.36489 -1.70131 0
M  V30 6698 O 634.251 -0.614916 -1.91783 0
M  V30 6699 C 631.316 -1.37013 -3.18478 0
M  V30 6700 C 630.377 -2.58532 -3.42724 0
M  V30 6701 C 629.61 -2.48473 -4.72331 0
M  V30 6702 O 629.833 -1.51745 -5.49845 0
M  V30 6703 O 628.767 -3.38503 -4.97694 0
M  V30 6704 H 632.593 -2.44045 -1.80764 0
M  V30 6705 H 630.178 -1.23849 -0.835569 0
M  V30 6706 H 632.06 -1.33468 -3.99705 0
M  V30 6707 H 630.735 -0.436552 -3.20743 0
M  V30 6708 H 629.642 -2.67652 -2.61368 0
M  V30 6709 H 630.975 -3.50769 -3.45286 0
M  V30 6710 N 632.627 0.916307 -1.28225 0
M  V30 6711 C 634.043 1.19425 -1.05876 0
M  V30 6712 C 634.243 2.005 0.2005 0
M  V30 6713 O 633.299 2.35806 0.902873 0
M  V30 6714 C 634.612 1.93133 -2.30478 0
M  V30 6715 C 636.16 2.06026 -2.35632 0
M  V30 6716 C 636.635 2.83141 -3.59994 0
M  V30 6717 N 638.126 2.90704 -3.60618 0
M  V30 6718 C 638.861 3.50865 -4.53521 0
M  V30 6719 N 638.357 4.12327 -5.56739 0
M  V30 6720 N 640.15 3.48379 -4.41122 0
M  V30 6721 H 632.301 0.37496 -2.09064 0
M  V30 6722 H 634.564 0.228531 -0.920042 0
M  V30 6723 H 634.27 1.40985 -3.22205 0
M  V30 6724 H 634.144 2.93696 -2.36691 0
M  V30 6725 H 636.531 2.57355 -1.44404 0
M  V30 6726 H 636.612 1.04647 -2.33415 0
M  V30 6727 H 636.256 2.32492 -4.51564 0
M  V30 6728 H 636.186 3.84829 -3.59464 0
M  V30 6729 H 638.677 2.47034 -2.85977 0
M  V30 6730 H 638.99 4.56205 -6.23776 0
M  V30 6731 H 637.335 4.10839 -5.60568 0
M  V30 6732 H 640.526 2.99572 -3.59686 0
M  V30 6733 H 640.699 3.94974 -5.13712 0
M  V30 6734 N 634.105 1.10431 1.1244 0
M  V30 6735 C 635.037 0.710945 2.17895 0
M  V30 6736 C 636.05 -0.252315 1.60833 0
M  V30 6737 O 637.239 -0.03679 1.78462 0
M  V30 6738 C 634.339 0.0284262 3.38888 0
M  V30 6739 C 633.512 1.01585 4.2544 0
M  V30 6740 C 632.571 0.364826 5.24934 0
M  V30 6741 O 631.597 1.01561 5.60066 0
M  V30 6742 N 632.799 -0.87674 5.73841 0
M  V30 6743 H 635.564 1.61826 2.52255 0
M  V30 6744 H 633.125 0.993132 1.27861 0
M  V30 6745 H 635.117 -0.418568 4.0253 0
M  V30 6746 H 633.687 -0.781294 3.02679 0
M  V30 6747 H 632.907 1.64111 3.58415 0
M  V30 6748 H 634.195 1.68425 4.80115 0
M  V30 6749 H 633.593 -1.42483 5.47462 0
M  V30 6750 H 632.15 -1.26688 6.39369 0
M  V30 6751 N 635.583 -1.29855 0.893053 0
M  V30 6752 C 636.546 -2.26183 0.370687 0
M  V30 6753 C 637.546 -1.53108 -0.491385 0
M  V30 6754 O 638.736 -1.71643 -0.297386 0
M  V30 6755 C 635.868 -3.37633 -0.470827 0
M  V30 6756 H 637.061 -2.73903 1.22135 0
M  V30 6757 H 634.614 -1.41183 0.67061 0
M  V30 6758 H 635.349 -2.95241 -1.34175 0
M  V30 6759 H 635.134 -3.91825 0.146784 0
M  V30 6760 H 636.624 -4.09313 -0.827825 0
M  V30 6761 N 637.061 -0.65484 -1.43351 0
M  V30 6762 C 638.009 0.0476784 -2.32551 0
M  V30 6763 C 639.003 0.811403 -1.48703 0
M  V30 6764 O 640.209 0.721621 -1.64902 0
M  V30 6765 H 636.584 0.0342038 -0.751222 0
M  V30 6766 H 638.555 -0.722342 -2.89525 0
M  V30 6767 C 637.304 0.999251 -3.33032 0
M  V30 6768 H 636.627 0.421005 -3.97577 0
M  V30 6769 H 638.067 1.45986 -3.98076 0
M  V30 6770 C 636.526 2.09606 -2.63756 0
M  V30 6771 O 637.056 3.18004 -2.4543 0
M  V30 6772 N 635.262 1.86207 -2.23103 0
M  V30 6773 H 634.809 0.980555 -2.38208 0
M  V30 6774 H 634.767 2.59787 -1.77081 0
M  V30 6775 N 638.539 1.52521 -0.396863 0
M  V30 6776 C 639.786 2.01672 0.182898 0
M  V30 6777 C 640.114 1.28302 1.46181 0
M  V30 6778 O 639.369 0.374118 1.92091 0
M  V30 6779 C 639.668 3.5403 0.489677 0
M  V30 6780 C 639.334 4.45456 -0.698581 0
M  V30 6781 C 637.996 4.70166 -1.02454 0
M  V30 6782 C 640.348 4.99354 -1.49316 0
M  V30 6783 C 637.676 5.46024 -2.1465 0
M  V30 6784 C 640.028 5.76439 -2.60579 0
M  V30 6785 C 638.692 5.99426 -2.93675 0
M  V30 6786 H 637.962 0.737971 0.066927 0
M  V30 6787 H 640.609 1.83853 -0.535764 0
M  V30 6788 H 638.914 3.69963 1.28976 0
M  V30 6789 H 640.611 3.8956 0.951018 0
M  V30 6790 H 637.201 4.26392 -0.434525 0
M  V30 6791 H 641.385 4.80182 -1.25457 0
M  V30 6792 H 636.641 5.62046 -2.40654 0
M  V30 6793 H 640.815 6.17202 -3.22544 0
M  V30 6794 H 638.442 6.57988 -3.80731 0
M  V30 6795 N 640.017 0.126909 1.57088 0
M  V30 6796 C 640.947 -0.816847 2.18746 0
M  V30 6797 C 641.928 -1.27161 1.12979 0
M  V30 6798 O 643.113 -1.33279 1.41246 0
M  V30 6799 C 640.243 -2.06398 2.79315 0
M  V30 6800 C 639.197 -1.74673 3.90735 0
M  V30 6801 C 638.523 -3.06482 4.38147 0
M  V30 6802 C 639.823 -1.0089 5.12463 0
M  V30 6803 H 641.517 -0.303032 2.97863 0
M  V30 6804 H 639.063 -0.144314 1.43275 0
M  V30 6805 H 641.016 -2.72885 3.2111 0
M  V30 6806 H 639.74 -2.60118 1.975 0
M  V30 6807 H 638.399 -1.10572 3.49527 0
M  V30 6808 H 638.047 -3.58152 3.5318 0
M  V30 6809 H 637.747 -2.86025 5.13287 0
M  V30 6810 H 639.271 -3.74073 4.82599 0
M  V30 6811 H 640.685 -1.57546 5.51228 0
M  V30 6812 H 639.082 -0.905006 5.93237 0
M  V30 6813 H 640.152 0.00297335 4.849 0
M  V30 6814 N 641.495 -1.56914 -0.146875 0
M  V30 6815 C 642.743 -1.82994 -0.85777 0
M  V30 6816 C 643.064 -0.707814 -1.817 0
M  V30 6817 O 642.334 0.270521 -1.94023 0
M  V30 6818 H 640.914 -0.675106 -0.319751 0
M  V30 6819 H 643.576 -1.9439 -0.140849 0
M  V30 6820 H 642.672 -2.77928 -1.41994 0
M  V30 6821 N 642.974 0.416227 -1.52004 0
M  V30 6822 C 643.921 1.50666 -1.74838 0
M  V30 6823 C 644.891 1.55245 -0.590599 0
M  V30 6824 O 646.076 1.71928 -0.827374 0
M  V30 6825 C 643.216 2.88185 -1.89851 0
M  V30 6826 C 642.329 2.92971 -3.17478 0
M  V30 6827 C 641.464 4.21745 -3.22962 0
M  V30 6828 C 640.503 4.20478 -4.4482 0
M  V30 6829 N 639.64 5.40811 -4.47736 0
M  V30 6830 H 644.48 1.30498 -2.67907 0
M  V30 6831 H 642.017 0.633568 -1.32757 0
M  V30 6832 H 643.975 3.68007 -1.96537 0
M  V30 6833 H 642.605 3.06865 -1.00169 0
M  V30 6834 H 641.657 2.05684 -3.19997 0
M  V30 6835 H 642.969 2.87899 -4.07328 0
M  V30 6836 H 642.123 5.09954 -3.28682 0
M  V30 6837 H 640.862 4.29503 -2.31038 0
M  V30 6838 H 639.867 3.30659 -4.39254 0
M  V30 6839 H 641.092 4.14366 -5.38031 0
M  V30 6840 H 639.038 5.4925 -3.58692 0
M  V30 6841 H 638.955 5.37705 -5.31422 0
M  V30 6842 H 640.223 6.30993 -4.57676 0
M  V30 6843 N 644.452 1.42507 0.673017 0
M  V30 6844 C 645.701 1.42364 1.42883 0
M  V30 6845 C 646.014 0.0441598 1.9555 0
M  V30 6846 O 647.22 -0.0798679 2.71382 0
M  V30 6847 C 645.676 2.5043 2.58482 0
M  V30 6848 C 645.284 3.94392 2.12506 0
M  V30 6849 C 647.028 2.59455 3.35981 0
M  V30 6850 C 644.935 4.93964 3.25198 0
M  V30 6851 H 643.865 0.52951 0.536782 0
M  V30 6852 H 646.516 1.68422 0.728448 0
M  V30 6853 H 644.898 2.1754 3.30896 0
M  V30 6854 H 646.072 4.36645 1.47233 0
M  V30 6855 H 644.387 3.89233 1.4794 0
M  V30 6856 H 646.984 3.31025 4.19912 0
M  V30 6857 H 647.327 1.63869 3.82691 0
M  V30 6858 H 647.86 2.91549 2.70637 0
M  V30 6859 H 644.599 5.91034 2.83477 0
M  V30 6860 H 644.119 4.56341 3.89247 0
M  V30 6861 H 645.798 5.15763 3.90637 0
M  V30 6862 N 645.93 -0.909495 1.28709 0
M  V30 6863 C 647.176 -1.66175 1.17293 0
M  V30 6864 C 647.531 -1.90426 -0.274891 0
M  V30 6865 O 646.824 -1.49659 -1.19635 0
M  V30 6866 C 647.018 -3.02117 1.90945 0
M  V30 6867 C 646.847 -2.91134 3.42741 0
M  V30 6868 C 645.617 -2.92429 4.12085 0
M  V30 6869 C 647.815 -2.68889 4.3841 0
M  V30 6870 N 645.797 -2.72078 5.50315 0
M  V30 6871 C 647.168 -2.57423 5.64033 0
M  V30 6872 C 649.223 -2.53919 4.28287 0
M  V30 6873 C 647.926 -2.32513 6.80683 0
M  V30 6874 C 649.952 -2.3039 5.44678 0
M  V30 6875 C 649.314 -2.19682 6.69268 0
M  V30 6876 H 645.413 -0.614095 0.48416 0
M  V30 6877 H 647.997 -1.07377 1.62414 0
M  V30 6878 H 646.168 -3.58993 1.48252 0
M  V30 6879 H 647.9 -3.66388 1.71878 0
M  V30 6880 H 644.655 -3.03345 3.63701 0
M  V30 6881 H 645.079 -2.64983 6.22987 0
M  V30 6882 H 649.721 -2.60946 3.32666 0
M  V30 6883 H 647.439 -2.24225 7.76369 0
M  V30 6884 H 651.025 -2.19665 5.38738 0
M  V30 6885 H 649.905 -2.01725 7.5781 0
M  V30 6886 N 647.408 -1.11026 -1.11852 0
M  V30 6887 C 648.819 -0.873203 -1.65021 0
M  V30 6888 C 649.17 0.595364 -1.86949 0
M  V30 6889 O 648.295 1.45645 -1.60051 0
M  V30 6890 C 648.89 -1.57859 -2.99777 0
M  V30 6891 C 647.449 -1.38807 -3.49871 0
M  V30 6892 C 646.596 -1.62403 -2.24768 0
M  V30 6893 H 649.547 -1.26712 -0.955503 0
M  V30 6894 H 649.568 -1.02111 -3.66543 0
M  V30 6895 H 649.08 -2.6474 -2.83786 0
M  V30 6896 H 647.181 -0.341163 -3.71035 0
M  V30 6897 H 647.294 -2.13421 -4.28938 0
M  V30 6898 H 645.658 -1.04714 -2.32179 0
M  V30 6899 H 646.441 -2.70549 -2.11324 0
M  V30 6900 N 648.886 1.2938 -0.899927 0
M  V30 6901 C 650.111 2.00228 -0.540692 0
M  V30 6902 C 650.536 1.66909 0.867359 0
M  V30 6903 O 649.894 0.893824 1.57735 0
M  V30 6904 C 649.942 3.52921 -0.740232 0
M  V30 6905 O 649.046 4.11879 0.207154 0
M  V30 6906 H 648.387 0.629505 -0.211233 0
M  V30 6907 H 650.917 1.6487 -1.21158 0
M  V30 6908 H 650.927 4.0287 -0.644973 0
M  V30 6909 H 649.602 3.76508 -1.76677 0
M  V30 6910 H 648.179 3.72845 0.0643315 0
M  V30 6911 N 650.364 0.662433 1.43002 0
M  V30 6912 C 651.314 -0.0460442 2.27954 0
M  V30 6913 C 652.298 -0.785753 1.40409 0
M  V30 6914 O 653.49 -0.666701 1.63964 0
M  V30 6915 C 650.619 -1.00532 3.2825 0
M  V30 6916 C 649.705 -0.263604 4.2328 0
M  V30 6917 N 650.096 0.724855 5.00579 0
M  V30 6918 C 648.394 -0.503778 4.43146 0
M  V30 6919 C 649.095 1.16594 5.69895 0
M  V30 6920 N 648.071 0.498345 5.41311 0
M  V30 6921 H 651.873 0.712314 2.85137 0
M  V30 6922 H 649.387 0.490469 1.54817 0
M  V30 6923 H 651.384 -1.52775 3.87899 0
M  V30 6924 H 650.044 -1.76364 2.72628 0
M  V30 6925 H 651.055 1.10393 5.05998 0
M  V30 6926 H 647.732 -1.24255 3.98581 0
M  V30 6927 H 649.122 1.98434 6.4193 0
M  V30 6928 N 651.842 -1.52309 0.404946 0
M  V30 6929 C 652.789 -2.26898 -0.422597 0
M  V30 6930 C 653.759 -1.2914 -1.04461 0
M  V30 6931 O 654.944 -1.57996 -1.06967 0
M  V30 6932 C 652.084 -3.09053 -1.53559 0
M  V30 6933 C 651.197 -4.21762 -0.934908 0
M  V30 6934 C 650.332 -4.91283 -2.02025 0
M  V30 6935 C 649.371 -5.95962 -1.39628 0
M  V30 6936 N 648.508 -6.59017 -2.42159 0
M  V30 6937 H 653.348 -2.97188 0.219903 0
M  V30 6938 H 650.885 -1.46607 0.120282 0
M  V30 6939 H 652.843 -3.54987 -2.19181 0
M  V30 6940 H 651.473 -2.40942 -2.14818 0
M  V30 6941 H 650.525 -3.80029 -0.167854 0
M  V30 6942 H 651.837 -4.96864 -0.439073 0
M  V30 6943 H 650.991 -5.40601 -2.75383 0
M  V30 6944 H 649.73 -4.15741 -2.54973 0
M  V30 6945 H 648.735 -5.45968 -0.648023 0
M  V30 6946 H 649.96 -6.73445 -0.874553 0
M  V30 6947 H 647.906 -5.86306 -2.94247 0
M  V30 6948 H 647.823 -7.2978 -1.97376 0
M  V30 6949 H 649.091 -7.12974 -3.15099 0
M  V30 6950 N 653.32 -0.135238 -1.57019 0
M  V30 6951 C 654.568 0.51777 -1.95355 0
M  V30 6952 C 654.889 1.6617 -1.02042 0
M  V30 6953 O 654.159 1.95738 -0.0797343 0
M  V30 6954 H 652.739 0.194264 -0.721298 0
M  V30 6955 H 655.401 -0.207983 -1.93787 0
M  V30 6956 H 654.497 0.901675 -2.98791 0
M  V30 6957 N 654.798 1.5699 0.138552 0
M  V30 6958 C 656.214 1.51844 0.491472 0
M  V30 6959 C 656.414 0.845063 1.82923 0
M  V30 6960 O 655.47 0.419143 2.48997 0
M  V30 6961 C 656.783 2.96615 0.493987 0
M  V30 6962 C 658.331 3.076 0.578913 0
M  V30 6963 C 658.806 4.53893 0.612009 0
M  V30 6964 N 660.297 4.5827 0.673997 0
M  V30 6965 C 661.032 5.68852 0.720729 0
M  V30 6966 N 660.528 6.88982 0.726292 0
M  V30 6967 N 662.321 5.56908 0.762253 0
M  V30 6968 H 654.472 1.99158 -0.738228 0
M  V30 6969 H 656.735 0.908693 -0.270149 0
M  V30 6970 H 656.441 3.49172 -0.420933 0
M  V30 6971 H 656.315 3.53017 1.32887 0
M  V30 6972 H 658.702 2.55057 1.48425 0
M  V30 6973 H 658.783 2.54227 -0.283286 0
M  V30 6974 H 658.427 5.07076 -0.289208 0
M  V30 6975 H 658.357 5.05057 1.49082 0
M  V30 6976 H 660.848 3.71793 0.676654 0
M  V30 6977 H 661.161 7.69014 0.764032 0
M  V30 6978 H 659.506 6.91526 0.69403 0
M  V30 6979 H 662.697 4.61969 0.755135 0
M  V30 6980 H 662.87 6.43102 0.795207 0
M  V30 6981 N 656.276 -0.40816 1.52223 0
M  V30 6982 C 657.687 -0.986929 1.58482 0
M  V30 6983 C 658.038 -1.91521 0.425917 0
M  V30 6984 O 657.163 -2.11593 -0.453593 0
M  V30 6985 C 657.758 -1.7967 2.87235 0
M  V30 6986 C 656.317 -2.32549 2.9597 0
M  V30 6987 C 655.464 -1.12558 2.53428 0
M  V30 6988 H 658.415 -0.188362 1.57578 0
M  V30 6989 H 658.436 -2.65417 2.72642 0
M  V30 6990 H 657.948 -1.12082 3.71563 0
M  V30 6991 H 656.049 -3.03505 2.16137 0
M  V30 6992 H 656.162 -2.63348 4.00231 0
M  V30 6993 H 654.526 -1.47984 2.07299 0
M  V30 6994 H 655.309 -0.465351 3.40131 0
M  V30 6995 N 657.755 -1.42862 -0.66545 0
M  V30 6996 C 659.003 -1.43546 -1.42264 0
M  V30 6997 C 659.324 -0.0563116 -1.94919 0
M  V30 6998 O 658.594 0.906568 -1.73661 0
M  V30 6999 H 657.174 -0.528464 -0.527953 0
M  V30 7000 H 659.836 -1.78363 -0.785665 0
M  V30 7001 H 658.932 -2.14079 -2.27105 0
M  V30 7002 N 659.233 0.902656 -1.29189 0
M  V30 7003 C 660.181 2.0278 -1.13943 0
M  V30 7004 C 661.175 1.69308 -0.055787 0
M  V30 7005 O 662.381 1.78707 -0.215371 0
M  V30 7006 H 658.756 0.664595 -0.351877 0
M  V30 7007 H 660.727 2.12778 -2.09208 0
M  V30 7008 C 659.476 3.37657 -0.82966 0
M  V30 7009 H 658.799 3.63913 -1.65551 0
M  V30 7010 H 660.239 4.17078 -0.762998 0
M  V30 7011 C 658.698 3.33648 0.466991 0
M  V30 7012 O 659.228 3.72886 1.49395 0
M  V30 7013 N 657.434 2.86745 0.471761 0
M  V30 7014 H 656.981 2.55009 -0.364406 0
M  V30 7015 H 656.939 2.84446 1.33933 0
M  V30 7016 N 660.711 1.11618 1.11262 0
M  V30 7017 C 661.958 0.86618 1.8304 0
M  V30 7018 C 662.286 -0.608149 1.84748 0
M  V30 7019 O 661.541 -1.46508 1.29745 0
M  V30 7020 C 661.84 1.37529 3.2988 0
M  V30 7021 C 661.506 2.86317 3.4833 0
M  V30 7022 C 660.168 3.26945 3.53073 0
M  V30 7023 C 662.52 3.82136 3.54431 0
M  V30 7024 C 659.848 4.62117 3.61475 0
M  V30 7025 C 662.2 5.17128 3.64365 0
M  V30 7026 C 660.864 5.57312 3.67369 0
M  V30 7027 H 660.134 0.316958 0.66979 0
M  V30 7028 H 662.781 1.3949 1.31205 0
M  V30 7029 H 661.086 0.766842 3.84222 0
M  V30 7030 H 662.783 1.15817 3.83911 0
M  V30 7031 H 659.373 2.53889 3.45309 0
M  V30 7032 H 663.557 3.51847 3.50025 0
M  V30 7033 H 658.813 4.92655 3.62079 0
M  V30 7034 H 662.987 5.91208 3.68029 0
M  V30 7035 H 660.614 6.62045 3.73632 0
M  V30 7036 N 662.189 -1.289 0.906776 0
M  V30 7037 C 663.119 -2.29932 0.406659 0
M  V30 7038 C 664.1 -1.6189 -0.522061 0
M  V30 7039 O 665.285 -1.8935 -0.431283 0
M  V30 7040 C 662.415 -3.45425 -0.360366 0
M  V30 7041 C 661.369 -4.25316 0.478574 0
M  V30 7042 C 660.695 -5.33076 -0.416373 0
M  V30 7043 C 661.995 -4.92739 1.7322 0
M  V30 7044 H 663.689 -2.72013 1.25097 0
M  V30 7045 H 661.235 -1.30768 0.602977 0
M  V30 7046 H 663.188 -4.15186 -0.721029 0
M  V30 7047 H 661.912 -3.02206 -1.23852 0
M  V30 7048 H 660.571 -3.57273 0.821662 0
M  V30 7049 H 660.219 -4.86101 -1.29287 0
M  V30 7050 H 659.919 -5.8743 0.141309 0
M  V30 7051 H 661.443 -6.05686 -0.773072 0
M  V30 7052 H 662.857 -5.54898 1.44086 0
M  V30 7053 H 661.254 -5.57057 2.23175 0
M  V30 7054 H 662.324 -4.17625 2.46408 0
M  V30 7055 N 663.667 -0.670007 -1.42649 0
M  V30 7056 C 664.599 0.0501746 -2.29145 0
M  V30 7057 C 665.612 0.770331 -1.43422 0
M  V30 7058 O 666.801 0.625288 -1.6719 0
M  V30 7059 C 663.901 1.09463 -3.20735 0
M  V30 7060 C 663.074 0.44926 -4.35087 0
M  V30 7061 C 662.133 1.39285 -5.07431 0
M  V30 7062 O 661.159 0.894997 -5.6212 0
M  V30 7063 N 662.361 2.72631 -5.12496 0
M  V30 7064 H 665.126 -0.692312 -2.91594 0
M  V30 7065 H 662.687 -0.514056 -1.53522 0
M  V30 7066 H 664.679 1.72705 -3.65999 0
M  V30 7067 H 663.249 1.73891 -2.59771 0
M  V30 7068 H 662.469 -0.362573 -3.92529 0
M  V30 7069 H 663.757 -0.000544776 -5.088 0
M  V30 7070 H 663.155 3.15623 -4.69467 0
M  V30 7071 H 661.712 3.31132 -5.61422 0
M  V30 7072 N 665.145 1.52092 -0.413018 0
M  V30 7073 C 666.37 2.06756 0.163338 0
M  V30 7074 C 666.795 1.28073 1.37764 0
M  V30 7075 O 666.153 0.312015 1.78595 0
M  V30 7076 C 666.201 3.57278 0.488322 0
M  V30 7077 O 665.305 3.80986 1.57871 0
M  V30 7078 H 664.646 0.663882 0.0125068 0
M  V30 7079 H 667.176 1.95988 -0.587339 0
M  V30 7080 H 667.186 4.01125 0.745836 0
M  V30 7081 H 665.861 4.13978 -0.399327 0
M  V30 7082 H 664.438 3.49017 1.31306 0
M  V30 7083 N 666.623 0.143563 1.56945 0
M  V30 7084 C 668.039 -0.212877 1.58174 0
M  V30 7085 C 668.239 -1.64926 1.15766 0
M  V30 7086 O 667.295 -2.37535 0.856361 0
M  V30 7087 C 668.608 0.0427573 3.0067 0
M  V30 7088 C 670.156 -0.0212221 3.12993 0
M  V30 7089 C 670.631 0.207036 4.57532 0
M  V30 7090 N 672.122 0.153845 4.62944 0
M  V30 7091 C 672.857 0.305018 5.72588 0
M  V30 7092 N 672.353 0.513722 6.90893 0
M  V30 7093 N 674.146 0.242862 5.61575 0
M  V30 7094 H 666.297 1.08148 1.82805 0
M  V30 7095 H 668.56 0.427831 0.84597 0
M  V30 7096 H 668.266 1.03672 3.36073 0
M  V30 7097 H 668.14 -0.678195 3.71053 0
M  V30 7098 H 670.527 -1.00574 2.77433 0
M  V30 7099 H 670.608 0.732004 2.45103 0
M  V30 7100 H 670.252 1.18863 4.93795 0
M  V30 7101 H 670.182 -0.566473 5.23544 0
M  V30 7102 H 672.673 -0.00294866 3.779 0
M  V30 7103 H 672.986 0.619273 7.70315 0
M  V30 7104 H 671.331 0.550001 6.9282 0
M  V30 7105 H 674.522 0.0806015 4.68031 0
M  V30 7106 H 674.695 0.364112 6.46976 0
M  V30 7107 N 668.101 -1.57061 -0.130224 0
M  V30 7108 C 669.512 -1.73539 -0.68856 0
M  V30 7109 C 669.863 -0.760554 -1.80859 0
M  V30 7110 O 668.988 0.0690796 -2.1629 0
M  V30 7111 C 669.583 -3.14666 -1.25581 0
M  V30 7112 C 668.142 -3.32689 -1.76055 0
M  V30 7113 C 667.289 -2.69436 -0.655712 0
M  V30 7114 H 670.24 -1.58412 0.0956002 0
M  V30 7115 H 670.261 -3.15595 -2.12556 0
M  V30 7116 H 669.773 -3.85593 -0.440412 0
M  V30 7117 H 667.874 -2.66786 -2.60108 0
M  V30 7118 H 667.987 -4.4077 -1.87772 0
M  V30 7119 H 666.351 -2.30362 -1.08654 0
M  V30 7120 H 667.134 -3.42979 0.14852 0
M  V30 7121 N 669.579 0.400081 -1.52437 0
M  V30 7122 C 670.489 1.51253 -1.79331 0
M  V30 7123 C 671.505 1.60188 -0.679396 0
M  V30 7124 O 672.681 1.76733 -0.965791 0
M  V30 7125 C 669.746 2.869 -1.94652 0
M  V30 7126 C 668.807 2.87777 -3.18564 0
M  V30 7127 C 668.04 4.16954 -3.33145 0
M  V30 7128 O 668.263 5.11329 -2.52783 0
M  V30 7129 O 667.197 4.2487 -4.26343 0
M  V30 7130 H 671.023 1.31461 -2.73773 0
M  V30 7131 H 668.608 0.586834 -1.37392 0
M  V30 7132 H 670.49 3.67336 -2.065 0
M  V30 7133 H 669.165 3.06741 -1.034 0
M  V30 7134 H 668.072 2.06162 -3.12167 0
M  V30 7135 H 669.405 2.72886 -4.09627 0
M  V30 7136 N 671.057 1.43213 0.657864 0
M  V30 7137 C 672.468 1.39669 1.23893 0
M  V30 7138 C 672.819 0.0984217 1.95953 0
M  V30 7139 O 671.944 -0.8023 2.00978 0
M  V30 7140 C 672.539 2.53004 2.25332 0
M  V30 7141 C 671.098 2.5274 2.78926 0
M  V30 7142 C 670.245 2.30941 1.53497 0
M  V30 7143 H 673.196 1.52181 0.450172 0
M  V30 7144 H 673.217 2.24226 3.07413 0
M  V30 7145 H 672.729 3.4748 1.72856 0
M  V30 7146 H 670.83 1.6213 3.35477 0
M  V30 7147 H 670.943 3.50352 3.26787 0
M  V30 7148 H 669.307 1.7952 1.80678 0
M  V30 7149 H 670.09 3.27496 1.02963 0
M  V30 7150 N 672.536 -0.895792 1.29666 0
M  V30 7151 C 673.764 -1.68001 1.20761 0
M  V30 7152 C 674.179 -1.87379 -0.231187 0
M  V30 7153 O 673.536 -1.41359 -1.15429 0
M  V30 7154 C 673.587 -3.06236 1.92098 0
M  V30 7155 O 673.308 -2.8774 3.30359 0
M  V30 7156 C 674.809 -4.00652 1.89717 0
M  V30 7157 H 672.029 -0.524591 0.418384 0
M  V30 7158 H 674.573 -1.11995 1.71106 0
M  V30 7159 H 672.728 -3.59007 1.45578 0
M  V30 7160 H 673.142 -3.75359 3.66342 0
M  V30 7161 H 674.616 -4.95051 2.44189 0
M  V30 7162 H 675.093 -4.30424 0.873595 0
M  V30 7163 H 675.699 -3.53815 2.35998 0
M  V30 7164 N 674.014 -1.12206 -1.10668 0
M  V30 7165 C 674.977 -0.790867 -2.15123 0
M  V30 7166 C 675.977 0.193618 -1.5963 0
M  V30 7167 O 677.167 -0.0318728 -1.74171 0
M  V30 7168 C 674.299 -0.174797 -3.40452 0
M  V30 7169 H 675.492 -1.7163 -2.45933 0
M  V30 7170 H 673.045 -0.924993 -1.2599 0
M  V30 7171 H 673.78 0.760478 -3.15257 0
M  V30 7172 H 673.565 -0.88358 -3.82015 0
M  V30 7173 H 675.055 0.0405162 -4.1758 0
M  V30 7174 N 675.492 1.28418 -0.913599 0
M  V30 7175 C 676.903 1.77024 -0.593237 0
M  V30 7176 C 677.254 1.74779 0.891441 0
M  V30 7177 O 676.379 1.34237 1.69733 0
M  V30 7178 C 676.974 3.21456 -1.07011 0
M  V30 7179 C 675.533 3.67786 -0.800664 0
M  V30 7180 C 674.68 2.48185 -1.23691 0
M  V30 7181 H 677.631 1.14883 -1.09487 0
M  V30 7182 H 677.652 3.78269 -0.411481 0
M  V30 7183 H 677.164 3.23058 -2.1507 0
M  V30 7184 H 675.265 3.71644 0.266725 0
M  V30 7185 H 675.378 4.57934 -1.4083 0
M  V30 7186 H 673.742 2.46116 -0.655655 0
M  V30 7187 H 674.525 2.52506 -2.32585 0
M  V30 7188 N 676.97 0.677563 1.42291 0
M  V30 7189 C 678.381 0.277912 1.8462 0
M  V30 7190 C 678.732 -1.18048 1.56714 0
M  V30 7191 O 677.857 -1.90404 1.02836 0
M  V30 7192 C 678.452 0.497619 3.35126 0
M  V30 7193 C 677.011 0.152063 3.76093 0
M  V30 7194 C 676.158 0.78872 2.65847 0
M  V30 7195 H 679.109 0.879527 1.32098 0
M  V30 7196 H 679.13 -0.24939 3.79682 0
M  V30 7197 H 678.642 1.55913 3.55405 0
M  V30 7198 H 676.743 -0.905896 3.6142 0
M  V30 7199 H 676.856 0.594514 4.75397 0
M  V30 7200 H 675.22 0.219813 2.5375 0
M  V30 7201 H 676.003 1.85374 2.88949 0
M  V30 7202 N 678.448 -1.51871 0.421078 0
M  V30 7203 C 679.358 -2.31077 -0.405069 0
M  V30 7204 C 680.374 -1.39301 -1.04265 0
M  V30 7205 O 681.55 -1.72376 -1.04157 0
M  V30 7206 C 678.615 -3.12556 -1.50032 0
M  V30 7207 C 677.676 -4.20088 -0.884559 0
M  V30 7208 C 676.909 -4.97673 -1.92762 0
M  V30 7209 O 677.132 -4.75696 -3.14753 0
M  V30 7210 O 676.066 -5.82203 -1.52719 0
M  V30 7211 H 679.892 -3.02742 0.241086 0
M  V30 7212 H 677.477 -1.48263 0.183991 0
M  V30 7213 H 679.359 -3.6326 -2.13589 0
M  V30 7214 H 678.034 -2.43672 -2.13086 0
M  V30 7215 H 676.941 -3.73502 -0.211379 0
M  V30 7216 H 678.274 -4.91298 -0.297763 0
M  V30 7217 N 679.926 -0.151884 -1.56866 0
M  V30 7218 C 680.836 0.798876 -2.20579 0
M  V30 7219 C 681.852 1.268 -1.19154 0
M  V30 7220 O 683.028 1.32418 -1.51748 0
M  V30 7221 C 680.093 2.01861 -2.81874 0
M  V30 7222 C 679.154 1.59825 -3.9844 0
M  V30 7223 C 678.387 2.75984 -4.56802 0
M  V30 7224 O 678.61 3.92331 -4.14044 0
M  V30 7225 O 677.544 2.51175 -5.46987 0
M  V30 7226 H 681.37 0.2865 -3.02346 0
M  V30 7227 H 678.955 0.0753806 -1.4921 0
M  V30 7228 H 680.837 2.73235 -3.20813 0
M  V30 7229 H 679.512 2.52042 -2.03117 0
M  V30 7230 H 678.419 0.854601 -3.64208 0
M  V30 7231 H 679.752 1.14355 -4.78731 0
M  V30 7232 N 681.404 1.57128 0.121893 0
M  V30 7233 C 682.629 1.89254 0.848385 0
M  V30 7234 C 683.054 0.743527 1.72781 0
M  V30 7235 O 682.412 -0.306056 1.78698 0
M  V30 7236 C 682.46 3.20113 1.66012 0
M  V30 7237 O 681.564 3.05815 2.76679 0
M  V30 7238 H 680.905 0.621103 0.234793 0
M  V30 7239 H 683.435 2.0433 0.10516 0
M  V30 7240 H 683.445 3.52761 2.04996 0
M  V30 7241 H 682.12 4.03336 1.01452 0
M  V30 7242 H 680.697 2.84627 2.40918 0
M  V30 7243 N 682.882 -0.391992 1.52647 0
M  V30 7244 C 684.129 -1.13732 1.67545 0
M  V30 7245 C 684.457 -1.90045 0.413881 0
M  V30 7246 O 683.712 -1.86157 -0.603646 0
M  V30 7247 C 684.011 -2.14401 2.85949 0
M  V30 7248 C 683.677 -1.54767 4.23507 0
M  V30 7249 C 682.339 -1.38229 4.60919 0
M  V30 7250 C 684.691 -1.11382 5.0916 0
M  V30 7251 C 682.019 -0.7685 5.81645 0
M  V30 7252 C 684.371 -0.514143 6.30507 0
M  V30 7253 C 683.035 -0.33604 6.66654 0
M  V30 7254 H 682.305 -0.416174 0.613091 0
M  V30 7255 H 684.952 -0.422327 1.86785 0
M  V30 7256 H 683.257 -2.92108 2.61114 0
M  V30 7257 H 684.954 -2.71974 2.94671 0
M  V30 7258 H 681.544 -1.68626 3.94035 0
M  V30 7259 H 685.728 -1.22962 4.80826 0
M  V30 7260 H 680.984 -0.618681 6.08262 0
M  V30 7261 H 685.158 -0.169657 6.96193 0
M  V30 7262 H 682.785 0.14166 7.60068 0
M  V30 7263 N 684.36 -1.4356 -0.65026 0
M  V30 7264 C 685.776 -1.27025 -0.966269 0
M  V30 7265 C 685.976 -0.192117 -2.00582 0
M  V30 7266 O 685.032 0.428459 -2.48838 0
M  V30 7267 C 686.345 -2.63556 -1.44772 0
M  V30 7268 C 687.893 -2.71111 -1.56421 0
M  V30 7269 C 688.368 -4.08067 -2.07956 0
M  V30 7270 N 689.859 -4.10146 -2.15254 0
M  V30 7271 C 690.594 -5.12952 -2.56258 0
M  V30 7272 N 690.09 -6.26129 -2.96537 0
M  V30 7273 N 691.883 -5.00306 -2.56224 0
M  V30 7274 H 684.034 -2.12367 0.0375758 0
M  V30 7275 H 686.297 -0.946894 -0.0457782 0
M  V30 7276 H 686.003 -3.43429 -0.758271 0
M  V30 7277 H 685.877 -2.89152 -2.42221 0
M  V30 7278 H 688.264 -1.91569 -2.24467 0
M  V30 7279 H 688.345 -2.49277 -0.573967 0
M  V30 7280 H 687.989 -4.88077 -1.40511 0
M  V30 7281 H 687.919 -4.27266 -3.07817 0
M  V30 7282 H 690.41 -3.28453 -1.86887 0
M  V30 7283 H 690.723 -7.00403 -3.26582 0
M  V30 7284 H 689.068 -6.29597 -2.94334 0
M  V30 7285 H 692.259 -4.10952 -2.24135 0
M  V30 7286 H 692.432 -5.80553 -2.87857 0
M  V30 7287 N 685.838 0.888903 -1.30139 0
M  V30 7288 C 687.085 1.64037 -1.18736 0
M  V30 7289 C 687.413 1.92771 0.258801 0
M  V30 7290 O 686.668 1.54427 1.20212 0
M  V30 7291 C 686.967 2.99041 -1.95728 0
M  V30 7292 C 686.633 2.89874 -3.45375 0
M  V30 7293 C 685.295 2.87082 -3.86183 0
M  V30 7294 C 687.647 2.78289 -4.40687 0
M  V30 7295 C 684.975 2.70536 -5.20603 0
M  V30 7296 C 687.327 2.63282 -5.75209 0
M  V30 7297 C 685.991 2.58861 -6.15262 0
M  V30 7298 H 685.261 0.600253 -0.434485 0
M  V30 7299 H 687.908 1.0338 -1.61198 0
M  V30 7300 H 686.213 3.63626 -1.45888 0
M  V30 7301 H 687.91 3.56139 -1.843 0
M  V30 7302 H 684.5 2.92856 -3.12943 0
M  V30 7303 H 688.684 2.79516 -4.10103 0
M  V30 7304 H 683.94 2.65526 -5.50732 0
M  V30 7305 H 688.114 2.5329 -6.48704 0
M  V30 7306 H 685.741 2.45799 -7.19366 0
M  V30 7307 N 687.317 1.12792 1.10072 0
M  V30 7308 C 688.565 0.883796 1.81751 0
M  V30 7309 C 688.886 -0.591891 1.858 0
M  V30 7310 O 688.156 -1.43017 1.33876 0
M  V30 7311 H 686.736 0.323978 0.673088 0
M  V30 7312 H 689.398 1.42314 1.33164 0
M  V30 7313 H 688.494 1.26863 2.85153 0
M  V30 7314 N 688.795 -1.27931 0.920396 0
M  V30 7315 C 689.705 -2.30824 0.419212 0
M  V30 7316 C 690.721 -1.66767 -0.496461 0
M  V30 7317 O 691.897 -1.97763 -0.38104 0
M  V30 7318 C 688.962 -3.45158 -0.326601 0
M  V30 7319 C 688.023 -4.24754 0.623098 0
M  V30 7320 C 687.256 -5.33629 -0.0872172 0
M  V30 7321 O 687.479 -5.55204 -1.30784 0
M  V30 7322 O 686.413 -5.99091 0.580875 0
M  V30 7323 H 690.239 -2.75716 1.27337 0
M  V30 7324 H 687.824 -1.32747 0.685465 0
M  V30 7325 H 689.706 -4.14716 -0.747559 0
M  V30 7326 H 688.381 -3.02336 -1.15648 0
M  V30 7327 H 687.288 -3.57759 1.09359 0
M  V30 7328 H 688.621 -4.71272 1.41998 0
M  V30 7329 N 690.273 -0.685099 -1.4193 0
M  V30 7330 C 691.183 -0.013404 -2.34596 0
M  V30 7331 C 692.199 0.777589 -1.55658 0
M  V30 7332 O 693.375 0.717553 -1.88184 0
M  V30 7333 C 690.44 0.919031 -3.34297 0
M  V30 7334 C 689.501 0.121417 -4.29128 0
M  V30 7335 C 688.734 1.00944 -5.24067 0
M  V30 7336 O 688.957 2.24898 -5.24192 0
M  V30 7337 O 687.891 0.464724 -6.00103 0
M  V30 7338 H 691.717 -0.776978 -2.93593 0
M  V30 7339 H 689.302 -0.445379 -1.42607 0
M  V30 7340 H 691.184 1.45402 -3.9552 0
M  V30 7341 H 689.859 1.66228 -2.77759 0
M  V30 7342 H 688.766 -0.45792 -3.71287 0
M  V30 7343 H 690.099 -0.582937 -4.88736 0
M  V30 7344 N 691.751 1.51645 -0.429126 0
M  V30 7345 C 692.979 2.06433 0.138994 0
M  V30 7346 C 693.394 1.29735 1.37165 0
M  V30 7347 O 692.751 0.354638 1.79021 0
M  V30 7348 C 692.802 3.58439 0.469452 0
M  V30 7349 O 692.523 4.32238 -0.714273 0
M  V30 7350 C 694.024 4.29712 1.08914 0
M  V30 7351 H 691.244 0.6709 0.0115608 0
M  V30 7352 H 693.788 1.9532 -0.605843 0
M  V30 7353 H 691.943 3.69494 1.16419 0
M  V30 7354 H 692.357 5.22704 -0.433633 0
M  V30 7355 H 693.831 5.37182 1.27042 0
M  V30 7356 H 694.308 3.87473 2.06788 0
M  V30 7357 H 694.914 4.2308 0.434028 0
M  V30 7358 N 693.229 0.160201 1.56784 0
M  V30 7359 C 694.457 -0.494165 2.00912 0
M  V30 7360 C 694.872 -1.57548 1.04038 0
M  V30 7361 O 694.229 -1.82457 0.0394581 0
M  V30 7362 C 694.28 -1.08271 3.44905 0
M  V30 7363 O 694.001 -0.0445704 4.38077 0
M  V30 7364 C 695.502 -1.8164 4.04378 0
M  V30 7365 H 692.722 -0.127498 0.658776 0
M  V30 7366 H 695.266 0.258665 2.02858 0
M  V30 7367 H 693.421 -1.78609 3.4377 0
M  V30 7368 H 693.835 -0.477544 5.22322 0
M  V30 7369 H 695.309 -2.18094 5.07089 0
M  V30 7370 H 695.786 -2.70727 3.45838 0
M  V30 7371 H 696.392 -1.15969 4.09184 0
M  V30 7372 N 694.707 -1.5719 -0.113559 0
M  V30 7373 C 695.935 -1.89328 -0.834422 0
M  V30 7374 C 696.35 -0.752018 -1.73177 0
M  V30 7375 O 695.707 0.276912 -1.80387 0
M  V30 7376 C 695.758 -3.20962 -1.66329 0
M  V30 7377 O 695.479 -4.30695 -0.802069 0
M  V30 7378 C 696.98 -3.6684 -2.48884 0
M  V30 7379 H 694.2 -0.626769 -0.239587 0
M  V30 7380 H 696.744 -2.04273 -0.0963195 0
M  V30 7381 H 694.899 -3.0767 -2.35409 0
M  V30 7382 H 695.313 -5.06175 -1.37431 0
M  V30 7383 H 696.787 -4.61692 -3.02563 0
M  V30 7384 H 697.264 -2.93765 -3.26495 0
M  V30 7385 H 697.87 -3.82938 -1.85036 0
M  V30 7386 N 696.185 0.383891 -1.52853 0
M  V30 7387 C 697.596 0.961591 -1.60032 0
M  V30 7388 C 697.947 1.90819 -0.456333 0
M  V30 7389 O 697.072 2.12288 0.419873 0
M  V30 7390 C 697.667 1.75078 -2.90057 0
M  V30 7391 C 696.226 2.2781 -2.99632 0
M  V30 7392 C 695.373 1.08512 -2.55187 0
M  V30 7393 H 698.324 0.163269 -1.57858 0
M  V30 7394 H 698.345 2.61046 -2.7683 0
M  V30 7395 H 697.857 1.06157 -3.73299 0
M  V30 7396 H 695.958 3.00028 -2.20939 0
M  V30 7397 H 696.071 2.56947 -4.0437 0
M  V30 7398 H 694.435 1.44667 -2.09627 0
M  V30 7399 H 695.218 0.41118 -3.40829 0
M  V30 7400 N 697.663 1.43903 0.642637 0
M  V30 7401 C 698.888 1.49758 1.43483 0
M  V30 7402 C 699.313 0.119911 1.87717 0
M  V30 7403 O 698.671 -0.888558 1.58033 0
M  V30 7404 C 698.719 2.45744 2.63898 0
M  V30 7405 O 697.823 1.95101 3.63331 0
M  V30 7406 H 697.164 0.506138 0.429791 0
M  V30 7407 H 699.694 1.88923 0.785438 0
M  V30 7408 H 699.704 2.63399 3.11584 0
M  V30 7409 H 698.379 3.45818 2.31046 0
M  V30 7410 H 696.956 1.87158 3.22531 0
M  V30 7411 N 699.141 -0.881989 1.30609 0
M  V30 7412 C 700.073 -1.99375 1.13058 0
M  V30 7413 C 701.086 -1.62636 0.0729879 0
M  V30 7414 O 702.275 -1.75621 0.319301 0
M  V30 7415 C 699.375 -3.31536 0.702651 0
M  V30 7416 C 698.548 -3.96693 1.84265 0
M  V30 7417 C 697.607 -5.07158 1.40277 0
M  V30 7418 O 696.633 -5.28628 2.11048 0
M  V30 7419 N 697.835 -5.79808 0.283449 0
M  V30 7420 H 700.6 -2.14981 2.08814 0
M  V30 7421 H 698.161 -1.05526 1.22784 0
M  V30 7422 H 700.153 -4.02804 0.391331 0
M  V30 7423 H 698.723 -3.12175 -0.162954 0
M  V30 7424 H 697.943 -3.1856 2.32192 0
M  V30 7425 H 699.231 -4.36964 2.60653 0
M  V30 7426 H 698.629 -5.64871 -0.306189 0
M  V30 7427 H 697.186 -6.51792 0.0315985 0
M  V30 7428 N 700.619 -1.13374 -1.09472 0
M  V30 7429 C 702.035 -0.871846 -1.33682 0
M  V30 7430 C 702.235 0.492847 -1.9538 0
M  V30 7431 O 701.291 1.23946 -2.19985 0
M  V30 7432 C 702.604 -1.99608 -2.24893 0
M  V30 7433 C 704.152 -2.02812 -2.38404 0
M  V30 7434 C 704.627 -3.14497 -3.3295 0
M  V30 7435 N 706.118 -3.14004 -3.40523 0
M  V30 7436 C 706.853 -3.97061 -4.13679 0
M  V30 7437 N 706.349 -4.90131 -4.89636 0
M  V30 7438 N 708.142 -3.85162 -4.09398 0
M  V30 7439 H 700.293 -2.01288 -0.677995 0
M  V30 7440 H 702.556 -0.876492 -0.361201 0
M  V30 7441 H 702.262 -2.98 -1.86786 0
M  V30 7442 H 702.136 -1.90981 -3.25278 0
M  V30 7443 H 704.523 -1.05034 -2.75775 0
M  V30 7444 H 704.604 -2.15511 -1.37799 0
M  V30 7445 H 704.248 -4.12514 -2.96302 0
M  V30 7446 H 704.178 -2.99035 -4.33458 0
M  V30 7447 H 706.669 -2.46587 -2.86362 0
M  V30 7448 H 706.982 -5.49996 -5.42885 0
M  V30 7449 H 705.327 -4.94138 -4.88726 0
M  V30 7450 H 708.518 -3.11779 -3.49158 0
M  V30 7451 H 708.691 -4.5012 -4.6615 0
M  V30 7452 N 702.098 1.27442 -0.927168 0
M  V30 7453 C 703.03 2.25975 -0.383158 0
M  V30 7454 C 704.043 1.55382 0.485832 0
M  V30 7455 O 705.232 1.75986 0.298541 0
M  V30 7456 C 702.332 3.35629 0.469688 0
M  V30 7457 C 701.505 4.35747 -0.379886 0
M  V30 7458 C 700.564 5.24598 0.410227 0
M  V30 7459 O 699.59 5.68909 -0.181888 0
M  V30 7460 N 700.792 5.54737 1.71017 0
M  V30 7461 H 703.557 2.7329 -1.23015 0
M  V30 7462 H 701.118 1.41063 -0.794539 0
M  V30 7463 H 703.11 3.92015 1.00532 0
M  V30 7464 H 701.68 2.87919 1.21744 0
M  V30 7465 H 700.9 3.78634 -1.09682 0
M  V30 7466 H 702.188 4.99648 -0.960717 0
M  V30 7467 H 701.586 5.20594 2.21356 0
M  V30 7468 H 700.143 6.13824 2.19234 0
M  V30 7469 N 703.576 0.692616 1.41565 0
M  V30 7470 C 704.486 0.0258451 2.34586 0
M  V30 7471 C 705.502 -0.769324 1.56069 0
M  V30 7472 O 706.678 -0.707563 1.88562 0
M  V30 7473 C 703.743 -0.901289 3.3478 0
M  V30 7474 C 702.804 -0.0986579 4.29187 0
M  V30 7475 C 702.037 -0.981634 5.24595 0
M  V30 7476 O 702.26 -2.22115 5.25377 0
M  V30 7477 O 701.194 -0.432892 6.00341 0
M  V30 7478 H 705.02 0.792537 2.93177 0
M  V30 7479 H 702.605 0.452935 1.42369 0
M  V30 7480 H 704.487 -1.43302 3.96286 0
M  V30 7481 H 703.162 -1.64752 2.78637 0
M  V30 7482 H 702.069 0.477604 3.71039 0
M  V30 7483 H 703.402 0.608848 4.8842 0
M  V30 7484 N 705.054 -1.51416 0.437162 0
M  V30 7485 C 706.465 -1.86682 -0.0260005 0
M  V30 7486 C 706.816 -1.35432 -1.4196 0
M  V30 7487 O 705.941 -0.705055 -2.04592 0
M  V30 7488 C 706.536 -3.38757 -0.0539577 0
M  V30 7489 C 705.095 -3.7356 -0.461532 0
M  V30 7490 C 704.242 -2.75134 0.345924 0
M  V30 7491 H 707.193 -1.44642 0.653013 0
M  V30 7492 H 707.214 -3.70573 -0.863478 0
M  V30 7493 H 706.726 -3.76028 0.96045 0
M  V30 7494 H 704.827 -3.41878 -1.48155 0
M  V30 7495 H 704.94 -4.78737 -0.186451 0
M  V30 7496 H 703.304 -2.53947 -0.195739 0
M  V30 7497 H 704.087 -3.15247 1.35921 0
M  V30 7498 N 706.532 -0.168513 -1.56696 0
M  V30 7499 C 707.781 0.477233 -1.95973 0
M  V30 7500 C 708.094 1.64578 -1.05704 0
M  V30 7501 O 709.3 2.35758 -1.3465 0
M  V30 7502 C 707.756 0.900413 -3.48455 0
M  V30 7503 C 707.364 -0.242382 -4.47344 0
M  V30 7504 C 709.108 1.51474 -3.96555 0
M  V30 7505 C 707.015 0.200272 -5.91061 0
M  V30 7506 H 705.945 0.182061 -0.73169 0
M  V30 7507 H 708.596 -0.256297 -1.81701 0
M  V30 7508 H 706.978 1.68984 -3.58135 0
M  V30 7509 H 708.152 -1.01967 -4.49377 0
M  V30 7510 H 706.467 -0.766484 -4.09285 0
M  V30 7511 H 709.064 1.85792 -5.01384 0
M  V30 7512 H 709.407 2.41163 -3.39332 0
M  V30 7513 H 709.94 0.789802 -3.89881 0
M  V30 7514 H 706.679 -0.661775 -6.52151 0
M  V30 7515 H 706.199 0.942979 -5.92341 0
M  V30 7516 H 707.878 0.645088 -6.43776 0
M  V30 7517 N 708.01 1.57248 0.105221 0
M  V30 7518 C 709.287 1.76566 0.841647 0
M  V30 7519 C 709.667 0.747566 1.9742 0
M  V30 7520 O 709.015 -0.225886 2.27381 0
M  V30 7521 C 709.225 3.22016 1.3456 0
M  V30 7522 C 710.573 3.84911 1.79244 0
M  V30 7523 O 711.597 3.25703 1.44207 0
M  V30 7524 O 710.456 4.89008 2.43995 0
M  V30 7525 H 707.55 0.723443 0.400698 0
M  V30 7526 H 710.096 1.69472 0.0878893 0
M  V30 7527 H 708.868 3.87644 0.533685 0
M  V30 7528 H 708.491 3.33703 2.16167 0
M  V30 7529 N 709.488 -0.375779 1.53054 0
M  V30 7530 C 710.435 -1.45978 1.78771 0
M  V30 7531 C 711.405 -1.53625 0.631552 0
M  V30 7532 O 712.59 -1.69674 0.872667 0
M  V30 7533 C 709.73 -2.8305 1.97425 0
M  V30 7534 C 708.843 -2.84451 3.25134 0
M  V30 7535 C 707.978 -4.13034 3.34031 0
M  V30 7536 C 707.017 -4.08536 4.55812 0
M  V30 7537 N 706.154 -5.2875 4.61918 0
M  V30 7538 H 710.994 -1.23349 2.71273 0
M  V30 7539 H 708.531 -0.598147 1.3439 0
M  V30 7540 H 710.489 -3.62666 2.06225 0
M  V30 7541 H 709.119 -3.04101 1.0827 0
M  V30 7542 H 708.171 -1.97127 3.25338 0
M  V30 7543 H 709.483 -2.76998 4.14818 0
M  V30 7544 H 708.637 -5.0106 3.42087 0
M  V30 7545 H 707.376 -4.23226 2.42345 0
M  V30 7546 H 706.381 -3.18897 4.47867 0
M  V30 7547 H 707.606 -3.99955 5.48828 0
M  V30 7548 H 705.552 -5.39547 3.73129 0
M  V30 7549 H 705.469 -5.23426 5.45492 0
M  V30 7550 H 706.737 -6.18637 4.74245 0
M  V30 7551 N 710.966 -1.44241 -0.634997 0
M  V30 7552 C 711.876 -1.53293 -1.77591 0
M  V30 7553 C 712.892 -0.418831 -1.68884 0
M  V30 7554 O 714.068 -0.675619 -1.8973 0
M  V30 7555 C 711.133 -1.47075 -3.13958 0
M  V30 7556 C 710.194 -2.69304 -3.34326 0
M  V30 7557 C 709.427 -2.63374 -4.64187 0
M  V30 7558 O 709.65 -1.69161 -5.44739 0
M  V30 7559 O 708.584 -3.54166 -4.86673 0
M  V30 7560 H 712.41 -2.49673 -1.72908 0
M  V30 7561 H 709.995 -1.26445 -0.795745 0
M  V30 7562 H 711.877 -1.46117 -3.95257 0
M  V30 7563 H 710.552 -0.538373 -3.19192 0
M  V30 7564 H 709.459 -2.75831 -2.52721 0
M  V30 7565 H 710.792 -3.61576 -3.33951 0
M  V30 7566 N 712.444 0.87505 -1.31075 0
M  V30 7567 C 713.374 1.99775 -1.20881 0
M  V30 7568 C 714.355 1.69822 -0.0971612 0
M  V30 7569 O 715.54 1.92158 -0.280895 0
M  V30 7570 C 712.67 3.35163 -0.910118 0
M  V30 7571 C 711.624 3.79406 -1.98078 0
M  V30 7572 C 710.95 5.12197 -1.53488 0
M  V30 7573 C 712.25 3.97061 -3.39323 0
M  V30 7574 H 713.944 2.08562 -2.14808 0
M  V30 7575 H 711.49 1.00207 -1.03415 0
M  V30 7576 H 713.443 4.13237 -0.825423 0
M  V30 7577 H 712.167 3.26536 0.064822 0
M  V30 7578 H 710.826 3.03568 -2.05528 0
M  V30 7579 H 710.474 5.00007 -0.547941 0
M  V30 7580 H 710.174 5.4277 -2.2511 0
M  V30 7581 H 711.698 5.92785 -1.46417 0
M  V30 7582 H 713.112 4.65545 -3.34576 0
M  V30 7583 H 711.509 4.39025 -4.09118 0
M  V30 7584 H 712.579 3.00601 -3.80483 0
M  V30 7585 N 713.922 1.13953 1.08869 0
M  V30 7586 C 715.152 0.926825 1.84644 0
M  V30 7587 C 715.56 -0.527941 1.81685 0
M  V30 7588 O 714.903 -1.37742 1.21543 0
M  V30 7589 C 714.965 1.34416 3.33426 0
M  V30 7590 C 714.629 2.81351 3.60126 0
M  V30 7591 C 715.626 3.79486 3.55368 0
M  V30 7592 C 713.311 3.1865 3.88288 0
M  V30 7593 C 715.305 5.1293 3.78393 0
M  V30 7594 C 712.992 4.5227 4.10968 0
M  V30 7595 C 713.99 5.4922 4.06013 0
M  V30 7596 O 713.678 6.80429 4.28102 0
M  V30 7597 H 713.41 0.33013 0.589907 0
M  V30 7598 H 715.964 1.51738 1.38436 0
M  V30 7599 H 714.194 0.696901 3.80368 0
M  V30 7600 H 715.883 1.10302 3.90626 0
M  V30 7601 H 716.649 3.52017 3.3363 0
M  V30 7602 H 712.528 2.43785 3.91267 0
M  V30 7603 H 716.072 5.88591 3.74442 0
M  V30 7604 H 711.969 4.79462 4.32188 0
M  V30 7605 H 712.737 6.86617 4.45533 0
M  V30 7606 N 715.4 -1.26948 0.933913 0
M  V30 7607 C 716.811 -1.76058 0.621324 0
M  V30 7608 C 717.162 -1.76175 -0.863522 0
M  V30 7609 O 716.287 -1.36921 -1.67576 0
M  V30 7610 C 716.882 -3.19713 1.12111 0
M  V30 7611 C 715.441 -3.66465 0.859074 0
M  V30 7612 C 714.588 -2.46186 1.27624 0
M  V30 7613 H 717.539 -1.13127 1.11301 0
M  V30 7614 H 717.56 -3.77566 0.471608 0
M  V30 7615 H 717.072 -3.19596 2.20182 0
M  V30 7616 H 715.173 -3.72021 -0.207566 0
M  V30 7617 H 715.286 -4.55636 1.48098 0
M  V30 7618 H 713.65 -2.45042 0.694727 0
M  V30 7619 H 714.433 -2.48774 2.36572 0
M  V30 7620 N 716.879 -0.700114 -1.41195 0
M  V30 7621 C 717.809 -0.0521132 -2.33442 0
M  V30 7622 C 718.79 0.76228 -1.52063 0
M  V30 7623 O 719.975 0.714336 -1.80585 0
M  V30 7624 C 717.105 0.881693 -3.35922 0
M  V30 7625 C 716.059 0.174062 -4.27646 0
M  V30 7626 C 715.385 1.22254 -5.20536 0
M  V30 7627 C 716.685 -0.962396 -5.13357 0
M  V30 7628 H 718.379 -0.822574 -2.87879 0
M  V30 7629 H 715.925 -0.397011 -1.38419 0
M  V30 7630 H 717.878 1.34429 -3.99383 0
M  V30 7631 H 716.602 1.68387 -2.79845 0
M  V30 7632 H 715.261 -0.268551 -3.65615 0
M  V30 7633 H 714.909 2.01736 -4.60773 0
M  V30 7634 H 714.609 0.754038 -5.82742 0
M  V30 7635 H 716.133 1.68555 -5.86874 0
M  V30 7636 H 717.547 -0.579875 -5.7036 0
M  V30 7637 H 715.944 -1.35828 -5.84526 0
M  V30 7638 H 717.014 -1.80003 -4.50252 0
M  V30 7639 N 718.357 1.51182 -0.445186 0
M  V30 7640 C 719.32 2.26501 0.350722 0
M  V30 7641 C 720.32 1.3025 0.942952 0
M  V30 7642 O 721.51 1.53897 0.816175 0
M  V30 7643 C 718.642 3.06274 1.49697 0
M  V30 7644 H 719.835 2.98299 -0.309474 0
M  V30 7645 H 717.388 1.55034 -0.198551 0
M  V30 7646 H 718.123 2.38911 2.19299 0
M  V30 7647 H 717.908 3.76979 1.0784 0
M  V30 7648 H 719.398 3.63306 2.05909 0
M  V30 7649 N 719.835 0.176821 1.56605 0
M  V30 7650 C 721.06 -0.47599 2.01864 0
M  V30 7651 C 721.485 -1.55645 1.05623 0
M  V30 7652 O 720.843 -1.81263 0.0366729 0
M  V30 7653 C 720.891 -1.02619 3.4569 0
M  V30 7654 O 719.995 -2.13996 3.52533 0
M  V30 7655 H 719.336 -0.113363 0.654251 0
M  V30 7656 H 721.866 0.28233 2.02643 0
M  V30 7657 H 721.876 -1.34742 3.85109 0
M  V30 7658 H 720.551 -0.235138 4.15235 0
M  V30 7659 H 719.128 -1.82876 3.24978 0
M  V30 7660 N 721.313 -1.57302 -0.09688 0
M  V30 7661 C 722.243 -2.0497 -1.11846 0
M  V30 7662 C 723.224 -0.938278 -1.41882 0
M  V30 7663 O 724.409 -1.20943 -1.51942 0
M  V30 7664 C 721.539 -2.47264 -2.43881 0
M  V30 7665 C 720.493 -3.62053 -2.28257 0
M  V30 7666 C 719.819 -3.90318 -3.65453 0
M  V30 7667 C 721.119 -4.93005 -1.72461 0
M  V30 7668 H 722.813 -2.90567 -0.721888 0
M  V30 7669 H 720.359 -1.39786 -0.345803 0
M  V30 7670 H 722.312 -2.7922 -3.15617 0
M  V30 7671 H 721.036 -1.58664 -2.8547 0
M  V30 7672 H 719.695 -3.30341 -1.58967 0
M  V30 7673 H 719.343 -2.98889 -4.04567 0
M  V30 7674 H 719.043 -4.67597 -3.55846 0
M  V30 7675 H 720.567 -4.24747 -4.3866 0
M  V30 7676 H 721.981 -5.23354 -2.34036 0
M  V30 7677 H 720.378 -5.74436 -1.73618 0
M  V30 7678 H 721.448 -4.80053 -0.683898 0
M  V30 7679 N 722.791 0.367657 -1.53252 0
M  V30 7680 C 724.207 0.709191 -1.42978 0
M  V30 7681 C 724.407 1.93352 -0.567193 0
M  V30 7682 O 723.463 2.52453 -0.0488349 0
M  V30 7683 C 724.776 0.924338 -2.86141 0
M  V30 7684 C 726.324 1.02448 -2.95759 0
M  V30 7685 C 726.799 1.27211 -4.39979 0
M  V30 7686 N 728.29 1.33986 -4.43398 0
M  V30 7687 C 729.025 1.54852 -5.52095 0
M  V30 7688 N 728.521 1.73049 -6.7084 0
M  V30 7689 N 730.314 1.57205 -5.39669 0
M  V30 7690 H 722.465 -0.437669 -2.07842 0
M  V30 7691 H 724.728 -0.133737 -0.938519 0
M  V30 7692 H 724.434 0.0965455 -3.51567 0
M  V30 7693 H 724.308 1.83302 -3.29667 0
M  V30 7694 H 726.695 1.84282 -2.30487 0
M  V30 7695 H 726.776 0.0932301 -2.5563 0
M  V30 7696 H 726.42 0.458792 -5.05824 0
M  V30 7697 H 726.35 2.21654 -4.77679 0
M  V30 7698 H 728.841 1.21545 -3.5782 0
M  V30 7699 H 729.154 1.88538 -7.49449 0
M  V30 7700 H 727.499 1.70231 -6.7383 0
M  V30 7701 H 730.69 1.42555 -4.45865 0
M  V30 7702 H 730.863 1.73126 -6.24445 0
M  V30 7703 N 724.269 1.44576 0.627338 0
M  V30 7704 C 725.494 1.51271 1.41887 0
M  V30 7705 C 725.919 0.139814 1.8758 0
M  V30 7706 O 725.277 -0.871746 1.58966 0
M  V30 7707 C 725.325 2.48529 2.61277 0
M  V30 7708 O 724.429 1.98944 3.61241 0
M  V30 7709 H 723.77 0.510668 0.424399 0
M  V30 7710 H 726.3 1.89746 0.765356 0
M  V30 7711 H 726.31 2.66689 3.08773 0
M  V30 7712 H 724.985 3.48249 2.27366 0
M  V30 7713 H 723.562 1.90568 3.20528 0
M  V30 7714 N 725.747 -0.868086 1.31537 0
M  V30 7715 C 726.677 -1.99131 1.21939 0
M  V30 7716 C 727.658 -1.69768 0.106166 0
M  V30 7717 O 728.843 -1.92006 0.291081 0
M  V30 7718 C 725.973 -3.34676 0.927879 0
M  V30 7719 C 724.927 -3.7835 2.00088 0
M  V30 7720 C 724.253 -5.11375 1.56203 0
M  V30 7721 C 725.553 -3.95256 3.41424 0
M  V30 7722 H 727.247 -2.07419 2.15911 0
M  V30 7723 H 724.793 -0.996569 1.03945 0
M  V30 7724 H 726.746 -4.12793 0.847327 0
M  V30 7725 H 725.47 -3.26565 -0.0475042 0
M  V30 7726 H 724.129 -3.02474 2.07135 0
M  V30 7727 H 723.777 -4.99709 0.57445 0
M  V30 7728 H 723.477 -5.41568 2.27985 0
M  V30 7729 H 725.001 -5.92001 1.49558 0
M  V30 7730 H 726.415 -4.63764 3.3704 0
M  V30 7731 H 724.812 -4.36849 4.1144 0
M  V30 7732 H 725.882 -2.98579 3.82072 0
M  V30 7733 N 727.225 -1.14528 -1.08264 0
M  V30 7734 C 728.472 -0.914405 -1.80679 0
M  V30 7735 C 728.8 0.558952 -1.86295 0
M  V30 7736 O 728.055 1.43017 -1.33584 0
M  V30 7737 C 728.354 -1.46226 -3.26117 0
M  V30 7738 C 728.02 -2.95451 -3.40616 0
M  V30 7739 C 726.682 -3.36191 -3.4428 0
M  V30 7740 C 729.034 -3.91399 -3.44175 0
M  V30 7741 C 726.362 -4.71539 -3.49096 0
M  V30 7742 C 728.714 -5.26606 -3.50526 0
M  V30 7743 C 727.378 -5.66856 -3.52464 0
M  V30 7744 H 726.648 -0.334604 -0.661151 0
M  V30 7745 H 729.295 -1.4292 -1.27461 0
M  V30 7746 H 727.6 -0.868442 -3.82054 0
M  V30 7747 H 729.297 -1.25955 -3.80705 0
M  V30 7748 H 725.887 -2.62955 -3.38456 0
M  V30 7749 H 730.071 -3.61004 -3.40573 0
M  V30 7750 H 725.327 -5.02082 -3.4889 0
M  V30 7751 H 729.501 -6.00758 -3.52225 0
M  V30 7752 H 727.128 -6.71718 -3.55948 0
M  V30 7753 N 728.703 1.26451 -0.940633 0
M  V30 7754 C 729.951 1.93395 -0.586748 0
M  V30 7755 C 730.272 1.7417 0.876921 0
M  V30 7756 O 729.542 1.097 1.62304 0
M  V30 7757 H 728.122 0.715687 -0.214012 0
M  V30 7758 H 730.784 1.53902 -1.19584 0
M  V30 7759 H 729.88 3.01565 -0.804059 0
M  V30 7760 N 730.181 0.707592 1.40822 0
M  V30 7761 C 731.406 0.251626 2.05868 0
M  V30 7762 C 731.831 -1.09503 1.5294 0
M  V30 7763 O 731.189 -1.68806 0.661385 0
M  V30 7764 C 731.237 0.23287 3.59847 0
M  V30 7765 O 730.341 -0.788477 4.04792 0
M  V30 7766 H 729.682 0.119936 0.653078 0
M  V30 7767 H 732.212 0.96583 1.80369 0
M  V30 7768 H 732.222 0.0678204 4.07944 0
M  V30 7769 H 730.897 1.21565 3.97737 0
M  V30 7770 H 729.474 -0.591802 3.68174 0
M  V30 7771 N 731.66 -1.50943 0.453197 0
M  V30 7772 C 732.937 -1.94872 -0.168633 0
M  V30 7773 C 733.317 -1.39272 -1.5864 0
M  V30 7774 O 732.665 -0.586272 -2.20851 0
M  V30 7775 C 732.875 -3.48757 -0.130217 0
M  V30 7776 C 734.223 -4.23331 -0.327975 0
M  V30 7777 O 735.247 -3.55594 -0.207619 0
M  V30 7778 O 734.106 -5.43529 -0.569077 0
M  V30 7779 H 731.2 -0.818042 -0.121394 0
M  V30 7780 H 733.746 -1.61782 0.512316 0
M  V30 7781 H 732.518 -3.81725 0.860346 0
M  V30 7782 H 732.141 -3.88333 -0.853397 0
M  V30 7783 N 733.138 -0.185124 -1.56509 0
M  V30 7784 C 734.549 0.329221 -1.83774 0
M  V30 7785 C 734.9 1.62093 -1.10545 0
M  V30 7786 O 734.025 2.13334 -0.36298 0
M  V30 7787 C 734.62 0.604099 -3.33371 0
M  V30 7788 C 733.179 1.06284 -3.61083 0
M  V30 7789 C 732.326 0.10608 -2.77097 0
M  V30 7790 H 735.277 -0.409116 -1.53336 0
M  V30 7791 H 735.298 1.45458 -3.51599 0
M  V30 7792 H 734.81 -0.336201 -3.86641 0
M  V30 7793 H 732.911 2.01777 -3.13236 0
M  V30 7794 H 733.024 0.962453 -4.69333 0
M  V30 7795 H 731.388 0.606082 -2.47384 0
M  V30 7796 H 732.171 -0.828486 -3.33153 0
M  V30 7797 N 734.616 1.57351 0.0885366 0
M  V30 7798 C 735.841 1.91011 0.80805 0
M  V30 7799 C 736.266 0.780009 1.71165 0
M  V30 7800 O 735.624 -0.268083 1.79307 0
M  V30 7801 C 735.672 3.23562 1.59185 0
M  V30 7802 O 734.776 3.11615 2.7013 0
M  V30 7803 H 734.117 0.625943 0.221565 0
M  V30 7804 H 736.647 2.04507 0.0617954 0
M  V30 7805 H 736.657 3.5703 1.97468 0
M  V30 7806 H 735.332 4.05398 0.928741 0
M  V30 7807 H 733.909 2.89673 2.34827 0
M  V30 7808 N 736.094 -0.359525 1.53444 0
M  V30 7809 C 737.319 -1.12644 1.74144 0
M  V30 7810 C 737.744 -1.82082 0.472007 0
M  V30 7811 O 737.102 -1.71962 -0.57436 0
M  V30 7812 C 737.15 -2.12781 2.9113 0
M  V30 7813 O 736.254 -3.19984 2.60162 0
M  V30 7814 H 735.595 -0.326553 0.578152 0
M  V30 7815 H 738.125 -0.414798 2.00351 0
M  V30 7816 H 738.135 -2.56278 3.17467 0
M  V30 7817 H 736.81 -1.61634 3.83207 0
M  V30 7818 H 735.387 -2.81417 2.44661 0
M  V30 7819 N 737.572 -1.44907 -0.619662 0
M  V30 7820 C 738.504 -1.48652 -1.74457 0
M  V30 7821 C 739.517 -0.378596 -1.58337 0
M  V30 7822 O 740.706 -0.644987 -1.6644 0
M  V30 7823 C 737.806 -1.31568 -3.12319 0
M  V30 7824 C 736.979 -2.55816 -3.54792 0
M  V30 7825 C 736.038 -2.33465 -4.71573 0
M  V30 7826 O 735.064 -3.07015 -4.79302 0
M  V30 7827 N 736.266 -1.37254 -5.6404 0
M  V30 7828 H 739.031 -2.45632 -1.71712 0
M  V30 7829 H 736.592 -1.40492 -0.804582 0
M  V30 7830 H 738.584 -1.14445 -3.88181 0
M  V30 7831 H 737.154 -0.429095 -3.09641 0
M  V30 7832 H 736.374 -2.88137 -2.69018 0
M  V30 7833 H 737.662 -3.38431 -3.79924 0
M  V30 7834 H 737.06 -0.765309 -5.60499 0
M  V30 7835 H 735.617 -1.26106 -6.39485 0
M  V30 7836 O 739.089 0.763334 -1.42322 0
M  V30 7837 H 739.78 1.41133 -1.3267 0
M  V30 END ATOM
M  V30 BEGIN BOND
M  V30 END BOND
M  V30 END CTAB
M  END
$$$$
