drugbank_target|P50213 Isocitrate dehydrogenase [NAD] subunit alpha, mitochondrial (DB00157; DB06757; DB09092; DB09130)
 OpenBabel12092119223D

  0  0  0     0  0            999 V3000
M  V30 BEGIN CTAB
M  V30 COUNTS 5566 5616 0 0 0
M  V30 BEGIN ATOM
M  V30 1 H -0.908 1.98254 -0.117106 0
M  V30 2 N 0 1.576 0 0
M  V30 3 C 0.933 2.03868 1.02534 0
M  V30 4 C 1.911 0.928543 1.3348 0
M  V30 5 O 3.095 1.19667 1.45644 0
M  V30 6 C 0.222 2.43627 2.35294 0
M  V30 7 C -0.732 3.65373 2.2001 0
M  V30 8 S 0.101 5.13292 1.52614 0
M  V30 9 C 1.257 5.56322 2.86805 0
M  V30 10 H 1.49 2.90518 0.631377 0
M  V30 11 H -0.977 1.52953 0.210867 0
M  V30 12 H 0.981 2.67203 3.11629 0
M  V30 13 H -0.358 1.57376 2.7183 0
M  V30 14 H -1.165 3.90944 3.18086 0
M  V30 15 H -1.563 3.418 1.51819 0
M  V30 16 H 0.729 5.58782 3.83104 0
M  V30 17 H 1.672 6.56266 2.65933 0
M  V30 18 H 2.08 4.83886 2.90714 0
M  V30 19 N 1.4781 -0.272755 1.55222 0
M  V30 20 C 2.4411 -1.32041 1.87344 0
M  V30 21 C 3.4411 -1.42342 0.74803 0
M  V30 22 O 4.6311 -1.41488 1.0162 0
M  V30 23 C 1.7631 -2.70173 2.07893 0
M  V30 24 H 2.9561 -1.04789 2.80997 0
M  V30 25 H 0.5091 -0.51083 1.47717 0
M  V30 26 H 1.2441 -3.02605 1.16622 0
M  V30 27 H 1.0291 -2.64082 2.89833 0
M  V30 28 H 2.5191 -3.45869 2.34017 0
M  V30 29 N 2.9562 -1.48159 -0.537278 0
M  V30 30 C 4.2042 -1.55497 -1.29094 0
M  V30 31 C 4.5252 -0.227454 -1.93669 0
M  V30 32 O 3.7952 0.750386 -1.80959 0
M  V30 33 H 2.3752 -0.572832 -0.47945 0
M  V30 34 H 5.0372 -1.84579 -0.625818 0
M  V30 35 H 4.1332 -2.33216 -2.07405 0
M  V30 36 N 4.4343 0.785586 -1.36625 0
M  V30 37 C 5.8453 1.36101 -1.27803 0
M  V30 38 C 6.1963 1.96035 0.0804875 0
M  V30 39 O 5.3213 1.92834 0.982042 0
M  V30 40 C 5.9163 2.47442 -2.31426 0
M  V30 41 C 4.4753 3.00789 -2.26281 0
M  V30 42 C 3.6223 1.73896 -2.15999 0
M  V30 43 H 6.5733 0.586928 -1.47448 0
M  V30 44 H 6.5943 3.2656 -1.95291 0
M  V30 45 H 6.1063 2.03791 -3.30289 0
M  V30 46 H 4.2073 3.48851 -1.30896 0
M  V30 47 H 4.3203 3.57343 -3.19128 0
M  V30 48 H 2.6843 1.9628 -1.62316 0
M  V30 49 H 3.4673 1.32368 -3.16755 0
M  V30 50 N 5.9124 1.20967 1.01018 0
M  V30 51 C 6.8754 0.965918 2.07853 0
M  V30 52 C 7.8754 -0.0610545 1.60684 0
M  V30 53 O 9.0654 0.175681 1.73312 0
M  V30 54 C 6.1974 0.455513 3.37843 0
M  V30 55 H 7.3904 1.91365 2.3091 0
M  V30 56 H 4.9434 1.02594 1.17916 0
M  V30 57 H 5.6784 -0.497381 3.20463 0
M  V30 58 H 5.4634 1.19622 3.73407 0
M  V30 59 H 6.9534 0.304667 4.16487 0
M  V30 60 N 7.3905 -1.2043 1.01659 0
M  V30 61 C 8.6365 -1.90356 0.716674 0
M  V30 62 C 8.9915 -1.77367 -0.745557 0
M  V30 63 O 8.2845 -1.1471 -1.53467 0
M  V30 64 C 8.4785 -3.40464 1.08714 0
M  V30 65 C 8.3075 -3.6806 2.58384 0
M  V30 66 C 7.0775 -3.86775 3.25167 0
M  V30 67 C 9.2755 -3.70623 3.56572 0
M  V30 68 N 7.2575 -4.01889 4.64067 0
M  V30 69 C 8.6285 -3.91161 4.81034 0
M  V30 70 C 10.6835 -3.53586 3.50544 0
M  V30 71 C 9.3865 -3.96428 6.00198 0
M  V30 72 C 11.4125 -3.60125 4.6911 0
M  V30 73 C 10.7745 -3.81135 5.92381 0
M  V30 74 H 6.8735 -0.716226 0.313918 0
M  V30 75 H 9.4575 -1.44815 1.30141 0
M  V30 76 H 7.6285 -3.84757 0.530745 0
M  V30 77 H 9.3605 -3.97863 0.740763 0
M  V30 78 H 6.1155 -3.85156 2.75594 0
M  V30 79 H 6.5395 -4.13323 5.36184 0
M  V30 80 H 11.1815 -3.36308 2.56235 0
M  V30 81 H 8.8995 -4.12502 6.94887 0
M  V30 82 H 12.4855 -3.4825 4.66062 0
M  V30 83 H 11.3655 -3.86054 6.82592 0
M  V30 84 N 8.8686 -0.792821 -1.36206 0
M  V30 85 C 10.1176 -0.363353 -1.984 0
M  V30 86 C 10.4306 1.07172 -1.63626 0
M  V30 87 O 11.6366 1.60362 -2.19081 0
M  V30 88 C 10.0926 -0.59872 -3.54885 0
M  V30 89 C 9.7006 -2.04543 -3.9858 0
M  V30 90 C 11.4446 -0.233926 -4.23855 0
M  V30 91 C 9.3516 -2.22727 -5.47856 0
M  V30 92 H 8.2816 -0.13212 -0.742334 0
M  V30 93 H 10.9326 -0.974935 -1.55458 0
M  V30 94 H 9.3146 0.0826222 -3.95914 0
M  V30 95 H 10.4886 -2.76345 -3.68741 0
M  V30 96 H 8.8036 -2.36879 -3.42458 0
M  V30 97 H 11.4006 -0.348027 -5.33566 0
M  V30 98 H 11.7436 0.818351 -4.08177 0
M  V30 99 H 12.2766 -0.868639 -3.882 0
M  V30 100 H 9.0156 -3.2635 -5.68486 0
M  V30 101 H 8.5356 -1.55434 -5.7931 0
M  V30 102 H 10.2146 -2.03607 -6.14128 0
M  V30 103 N 10.3467 1.47872 -0.545128 0
M  V30 104 C 11.5717 2.07391 -0.0190611 0
M  V30 105 C 11.9967 1.39688 1.25971 0
M  V30 106 O 11.3547 0.467816 1.7516 0
M  V30 107 C 11.4027 3.60188 0.172335 0
M  V30 108 O 10.5067 3.9339 1.23766 0
M  V30 109 H 9.8477 0.662411 -0.0459059 0
M  V30 110 H 12.3777 1.90066 -0.757365 0
M  V30 111 H 12.3877 4.06129 0.390305 0
M  V30 112 H 11.0627 4.08865 -0.761725 0
M  V30 113 H 9.6397 3.5921 1.00114 0
M  V30 114 N 11.8248 0.280983 1.55075 0
M  V30 115 C 12.7718 -0.603937 2.22758 0
M  V30 116 C 13.7418 -1.1452 1.20309 0
M  V30 117 O 14.9268 -1.19343 1.48869 0
M  V30 118 C 12.0668 -1.77947 2.95684 0
M  V30 119 C 11.1798 -1.2715 4.12864 0
M  V30 120 C 10.3148 -2.4093 4.7342 0
M  V30 121 C 9.3538 -1.87165 5.82783 0
M  V30 122 N 8.4908 -2.94441 6.37377 0
M  V30 123 H 13.3308 -0.020124 2.97993 0
M  V30 124 H 10.8678 0.00183425 1.471 0
M  V30 125 H 12.8258 -2.47055 3.36184 0
M  V30 126 H 11.4558 -2.33522 2.22861 0
M  V30 127 H 10.5078 -0.473331 3.77444 0
M  V30 128 H 11.8198 -0.837751 4.91715 0
M  V30 129 H 10.9738 -3.18021 5.1667 0
M  V30 130 H 9.7128 -2.87623 3.93859 0
M  V30 131 H 8.7178 -1.08556 5.38976 0
M  V30 132 H 9.9428 -1.41401 6.64216 0
M  V30 133 H 7.8888 -3.40505 5.60707 0
M  V30 134 H 7.8058 -2.55501 7.11516 0
M  V30 135 H 9.0738 -3.71489 6.85285 0
M  V30 136 N 13.3029 -1.57598 0.00835791 0
M  V30 137 C 14.5489 -1.91211 -0.675732 0
M  V30 138 C 14.8819 -0.883139 -1.72958 0
M  V30 139 O 14.1569 0.097016 -1.94258 0
M  V30 140 C 14.4399 -3.35379 -1.31123 0
M  V30 141 C 14.2929 -4.48999 -0.268356 0
M  V30 142 C 15.6119 -3.7912 -2.23508 0
M  V30 143 H 12.7309 -0.695374 -0.244179 0
M  V30 144 H 15.3729 -1.89901 0.0613655 0
M  V30 145 H 13.5229 -3.36626 -1.93946 0
M  V30 146 H 15.1949 -4.59887 0.360844 0
M  V30 147 H 13.4379 -4.31873 0.408482 0
M  V30 148 H 14.1089 -5.46851 -0.752218 0
M  V30 149 H 16.5849 -3.79477 -1.70693 0
M  V30 150 H 15.4609 -4.80729 -2.64936 0
M  V30 151 H 15.7219 -3.13455 -3.11766 0
M  V30 152 N 14.781 0.264519 -1.55364 0
M  V30 153 C 16.006 1.01726 -1.80739 0
M  V30 154 C 16.431 1.78836 -0.583044 0
M  V30 155 O 15.789 1.75167 0.467566 0
M  V30 156 C 15.837 1.94482 -3.03659 0
M  V30 157 O 14.941 3.03386 -2.7934 0
M  V30 158 H 14.282 0.290395 -0.597132 0
M  V30 159 H 16.812 0.290854 -2.02522 0
M  V30 160 H 16.822 2.36278 -3.32621 0
M  V30 161 H 15.497 1.37772 -3.92418 0
M  V30 162 H 14.074 2.65844 -2.61498 0
M  V30 163 N 16.2591 1.48442 0.529413 0
M  V30 164 C 17.6751 1.34575 0.858004 0
M  V30 165 C 17.8751 0.3572 1.98309 0
M  V30 166 O 16.9311 -0.221379 2.51528 0
M  V30 167 C 18.2441 2.74617 1.22499 0
M  V30 168 C 19.7921 2.83109 1.33484 0
M  V30 169 C 20.2671 4.23854 1.73526 0
M  V30 170 N 21.7581 4.2653 1.80628 0
M  V30 171 C 22.4931 5.32372 2.12997 0
M  V30 172 N 21.9891 6.48491 2.43786 0
M  V30 173 N 23.7821 5.19766 2.14008 0
M  V30 174 H 15.9331 2.1133 -0.212925 0
M  V30 175 H 18.1961 0.947439 -0.0326199 0
M  V30 176 H 17.9021 3.4852 0.471905 0
M  V30 177 H 17.7761 3.08177 2.17501 0
M  V30 178 H 20.1631 2.09462 2.0787 0
M  V30 179 H 20.2441 2.53168 0.366027 0
M  V30 180 H 19.8881 4.98018 0.997013 0
M  V30 181 H 19.8181 4.5124 2.71459 0
M  V30 182 H 22.3091 3.42772 1.59108 0
M  V30 183 H 22.6221 7.24993 2.67592 0
M  V30 184 H 20.9671 6.51765 2.41304 0
M  V30 185 H 24.1581 4.28066 1.89412 0
M  V30 186 H 24.3311 6.02354 2.38902 0
M  V30 187 N 17.7372 -0.778329 1.37039 0
M  V30 188 C 18.6672 -1.90546 1.34962 0
M  V30 189 C 19.6482 -1.68681 0.219274 0
M  V30 190 O 20.8332 -1.89634 0.418624 0
M  V30 191 C 17.9632 -3.27734 1.14925 0
M  V30 192 C 16.9172 -3.64147 2.24902 0
M  V30 193 C 16.2432 -4.99806 1.89996 0
M  V30 194 C 17.5432 -3.71579 3.67051 0
M  V30 195 H 19.2372 -1.92541 2.29277 0
M  V30 196 H 16.7832 -0.924948 1.10366 0
M  V30 197 H 18.7362 -4.06215 1.12104 0
M  V30 198 H 17.4602 -3.26154 0.170631 0
M  V30 199 H 16.1192 -2.8797 2.26868 0
M  V30 200 H 15.7672 -4.94759 0.906796 0
M  V30 201 H 15.4672 -5.25139 2.63634 0
M  V30 202 H 16.9912 -5.80694 1.88749 0
M  V30 203 H 18.4052 -4.40227 3.67251 0
M  V30 204 H 16.8022 -4.08405 4.39688 0
M  V30 205 H 17.8722 -2.72404 4.01154 0
M  V30 206 N 19.2153 -1.21501 -1.00376 0
M  V30 207 C 20.1453 -0.999478 -2.11028 0
M  V30 208 C 21.1263 0.0759671 -1.6993 0
M  V30 209 O 22.3113 -0.0841106 -1.94018 0
M  V30 210 C 19.4413 -0.564709 -3.42678 0
M  V30 211 C 18.3953 -1.58486 -3.97576 0
M  V30 212 C 17.7213 -1.00628 -5.25146 0
M  V30 213 C 19.0213 -2.97204 -4.29496 0
M  V30 214 H 20.7153 -1.92495 -2.29317 0
M  V30 215 H 18.2613 -0.92693 -1.102 0
M  V30 216 H 20.2143 -0.401091 -4.19487 0
M  V30 217 H 18.9383 0.396411 -3.24185 0
M  V30 218 H 17.5973 -1.73606 -3.22888 0
M  V30 219 H 17.2453 -0.0368439 -5.02987 0
M  V30 220 H 16.9453 -1.68771 -5.62841 0
M  V30 221 H 18.4693 -0.854015 -6.04598 0
M  V30 222 H 19.8833 -2.8552 -4.97143 0
M  V30 223 H 18.2803 -3.62372 -4.78338 0
M  V30 224 H 19.3503 -3.47956 -3.3772 0
M  V30 225 N 20.6934 1.19889 -1.02296 0
M  V30 226 C 21.9414 1.89046 -0.714558 0
M  V30 227 C 22.2624 1.79636 0.758681 0
M  V30 228 O 21.5324 1.20292 1.54618 0
M  V30 229 H 20.1124 0.699802 -0.261317 0
M  V30 230 H 22.7744 1.45574 -1.29592 0
M  V30 231 H 21.8704 2.95524 -1.0036 0
M  V30 232 N 22.1715 0.800033 1.35784 0
M  V30 233 C 23.1345 0.211565 2.28221 0
M  V30 234 C 24.1345 -0.59728 1.49296 0
M  V30 235 O 25.3245 -0.416721 1.69142 0
M  V30 236 C 22.4565 -0.705846 3.33513 0
M  V30 237 H 23.6495 1.02677 2.81776 0
M  V30 238 H 21.2025 0.570211 1.45528 0
M  V30 239 H 21.9375 -1.54498 2.85133 0
M  V30 240 H 21.7225 -0.127655 3.91892 0
M  V30 241 H 23.2125 -1.11211 4.02519 0
M  V30 242 N 23.6496 -1.47581 0.552962 0
M  V30 243 C 24.8966 -2.02482 0.0273243 0
M  V30 244 C 25.2246 -1.42776 -1.32081 0
M  V30 245 O 24.4796 -0.571393 -1.87173 0
M  V30 246 C 24.7786 -3.57199 -0.119728 0
M  V30 247 C 24.4446 -4.35804 1.15697 0
M  V30 248 C 23.1066 -4.57 1.50681 0
M  V30 249 C 25.4586 -4.81167 2.00319 0
M  V30 250 C 22.7866 -5.20807 2.70142 0
M  V30 251 C 25.1386 -5.46293 3.18978 0
M  V30 252 C 23.8026 -5.65722 3.54281 0
M  V30 253 H 23.0726 -0.740933 0.00999866 0
M  V30 254 H 25.7196 -1.77302 0.72362 0
M  V30 255 H 24.0246 -3.81348 -0.89896 0
M  V30 256 H 25.7216 -3.97324 -0.541718 0
M  V30 257 H 22.3116 -4.19582 0.874561 0
M  V30 258 H 26.4956 -4.64574 1.74599 0
M  V30 259 H 21.7516 -5.34045 2.97668 0
M  V30 260 H 25.9256 -5.80407 3.84838 0
M  V30 261 H 23.5526 -6.14936 4.46942 0
M  V30 262 N 25.1277 -0.289203 -1.54924 0
M  V30 263 C 26.0777 0.606939 -2.19773 0
M  V30 264 C 27.0617 1.10783 -1.16687 0
M  V30 265 O 28.2537 1.05057 -1.4245 0
M  V30 266 C 25.3827 1.78398 -2.93307 0
M  V30 267 C 24.4687 1.29961 -4.03697 0
M  V30 268 N 24.8597 0.532377 -5.0299 0
M  V30 269 C 23.1577 1.58136 -4.17024 0
M  V30 270 C 23.8587 0.275912 -5.81045 0
M  V30 271 N 22.8347 0.852365 -5.36876 0
M  V30 272 H 26.6367 0.0130779 -2.93897 0
M  V30 273 H 24.1507 -0.09341 -1.62131 0
M  V30 274 H 26.1477 2.43741 -3.38225 0
M  V30 275 H 24.8077 2.38166 -2.20697 0
M  V30 276 H 25.8187 0.17838 -5.17593 0
M  V30 277 H 22.4957 2.18738 -3.55612 0
M  V30 278 H 23.8857 -0.339502 -6.71042 0
M  V30 279 N 26.6058 1.57591 -0.0167156 0
M  V30 280 C 27.5538 2.10604 0.987353 0
M  V30 281 C 28.5478 1.02977 1.34507 0
M  V30 282 O 29.7538 1.21425 1.32875 0
M  V30 283 H 26.1288 0.672695 0.336134 0
M  V30 284 H 28.0998 2.93925 0.514817 0
M  V30 285 C 26.8488 2.6382 2.26483 0
M  V30 286 H 26.1718 3.46278 1.99829 0
M  V30 287 H 27.6118 3.04573 2.94977 0
M  V30 288 C 26.0708 1.55992 2.9861 0
M  V30 289 O 26.6008 0.952521 3.90243 0
M  V30 290 N 24.8068 1.28335 2.60727 0
M  V30 291 H 24.3538 1.77914 1.86291 0
M  V30 292 H 24.3118 0.564115 3.09298 0
M  V30 293 N 28.0839 -0.256276 1.55502 0
M  V30 294 C 29.4949 -0.826068 1.67431 0
M  V30 295 C 29.8459 -1.86396 0.612446 0
M  V30 296 O 28.9709 -2.15031 -0.243025 0
M  V30 297 C 29.5659 -1.50512 3.03532 0
M  V30 298 C 28.1249 -2.02273 3.17431 0
M  V30 299 C 27.2719 -0.870548 2.63281 0
M  V30 300 H 30.2229 -0.0322728 1.58667 0
M  V30 301 H 30.2439 -2.37279 2.97454 0
M  V30 302 H 29.7559 -0.749484 3.80794 0
M  V30 303 H 27.8569 -2.80746 2.44974 0
M  V30 304 H 27.9699 -2.22655 4.24219 0
M  V30 305 H 26.3339 -1.26851 2.20864 0
M  V30 306 H 27.1169 -0.128149 3.43061 0
M  V30 307 N 29.562 -1.4872 -0.521534 0
M  V30 308 C 30.509 -1.63871 -1.62527 0
M  V30 309 C 31.479 -0.480559 -1.58996 0
M  V30 310 O 32.664 -0.705085 -1.77294 0
M  V30 311 C 29.804 -1.69227 -3.00759 0
M  V30 312 C 28.917 -2.96207 -3.14461 0
M  V30 313 C 28.052 -2.92671 -4.43303 0
M  V30 314 C 27.091 -4.14318 -4.50563 0
M  V30 315 N 26.228 -4.0881 -5.70805 0
M  V30 316 H 31.068 -2.58123 -1.48918 0
M  V30 317 H 28.605 -1.28 -0.724878 0
M  V30 318 H 30.563 -1.70314 -3.80853 0
M  V30 319 H 29.193 -0.784586 -3.1312 0
M  V30 320 H 28.245 -3.04826 -2.27564 0
M  V30 321 H 29.557 -3.86192 -3.15686 0
M  V30 322 H 28.711 -2.92206 -5.31696 0
M  V30 323 H 27.45 -2.00429 -4.44612 0
M  V30 324 H 26.455 -4.15049 -3.60575 0
M  V30 325 H 27.68 -5.07729 -4.50986 0
M  V30 326 H 25.626 -3.19394 -5.72995 0
M  V30 327 H 25.543 -4.92509 -5.7356 0
M  V30 328 H 26.811 -4.12418 -6.61462 0
M  V30 329 N 31.0401 0.771051 -1.3745 0
M  V30 330 C 31.9721 1.89352 -1.29146 0
M  V30 331 C 32.9851 1.61477 -0.207124 0
M  V30 332 O 34.1741 1.72382 -0.463324 0
M  V30 333 C 31.2741 3.24596 -0.974195 0
M  V30 334 C 30.4471 3.80111 -2.16413 0
M  V30 335 C 29.5061 4.93832 -1.81703 0
M  V30 336 O 28.5321 5.09382 -2.54006 0
M  V30 337 N 29.7341 5.75483 -0.761573 0
M  V30 338 H 32.4991 1.96991 -2.25864 0
M  V30 339 H 30.0601 0.950191 -1.31084 0
M  V30 340 H 32.0521 3.98193 -0.722828 0
M  V30 341 H 30.6221 3.12454 -0.0955527 0
M  V30 342 H 29.8421 2.98284 -2.57721 0
M  V30 343 H 31.1301 4.13932 -2.95867 0
M  V30 344 H 30.5281 5.65469 -0.161609 0
M  V30 345 H 29.0851 6.49302 -0.570064 0
M  V30 346 N 32.5182 1.22032 0.997298 0
M  V30 347 C 33.7642 1.04376 1.73878 0
M  V30 348 C 34.0972 -0.420716 1.89588 0
M  V30 349 O 33.3722 -1.31202 1.43583 0
M  V30 350 C 33.6552 1.75047 3.14691 0
M  V30 351 C 33.5082 3.29062 3.06656 0
M  V30 352 C 34.8272 1.49928 4.13775 0
M  V30 353 H 31.9462 0.380578 0.631133 0
M  V30 354 H 34.5882 1.50312 1.16217 0
M  V30 355 H 32.7382 1.35996 3.63919 0
M  V30 356 H 34.4102 3.7753 2.65083 0
M  V30 357 H 32.6532 3.58967 2.43568 0
M  V30 358 H 33.3242 3.73683 4.06282 0
M  V30 359 H 35.8002 1.83842 3.73285 0
M  V30 360 H 34.6762 2.01878 5.10428 0
M  V30 361 H 34.9372 0.430929 4.39995 0
M  V30 362 N 33.9963 -1.19345 1.0293 0
M  V30 363 C 35.2243 -1.92997 0.745644 0
M  V30 364 C 35.6393 -1.75519 -0.695589 0
M  V30 365 O 34.9963 -1.07737 -1.47306 0
M  V30 366 C 35.0473 -3.44741 1.08792 0
M  V30 367 O 34.7683 -3.61658 2.47256 0
M  V30 368 C 36.2693 -4.35515 0.827129 0
M  V30 369 H 33.4893 -0.613042 0.272801 0
M  V30 370 H 36.0333 -1.51473 1.3739 0
M  V30 371 H 34.1883 -3.84097 0.504832 0
M  V30 372 H 34.6023 -4.55514 2.60015 0
M  V30 373 H 36.0763 -5.40589 1.11658 0
M  V30 374 H 36.5533 -4.38552 -0.238436 0
M  V30 375 H 37.1593 -4.01841 1.39297 0
M  V30 376 N 35.4744 -0.807222 -1.35358 0
M  V30 377 C 36.8904 -0.491038 -1.51858 0
M  V30 378 C 37.0904 0.987648 -1.75635 0
M  V30 379 O 36.1464 1.77265 -1.79815 0
M  V30 380 C 37.4594 -1.33695 -2.69344 0
M  V30 381 C 39.0074 -1.33246 -2.83222 0
M  V30 382 C 39.4824 -2.1625 -4.03733 0
M  V30 383 N 40.9734 -2.1379 -4.10911 0
M  V30 384 C 41.7084 -2.74772 -5.03277 0
M  V30 385 N 41.2044 -3.44684 -6.0097 0
M  V30 386 N 42.9974 -2.6441 -4.96028 0
M  V30 387 H 35.1484 -1.76485 -1.18181 0
M  V30 388 H 37.4114 -0.751199 -0.578276 0
M  V30 389 H 37.1174 -2.38634 -2.58354 0
M  V30 390 H 36.9914 -0.990618 -3.6396 0
M  V30 391 H 39.3784 -0.290911 -2.93663 0
M  V30 392 H 39.4594 -1.71866 -1.89461 0
M  V30 393 H 39.1034 -3.20445 -3.94052 0
M  V30 394 H 39.0334 -1.74989 -4.96675 0
M  V30 395 H 41.5244 -1.62923 -3.40976 0
M  V30 396 H 41.8374 -3.88501 -6.68047 0
M  V30 397 H 40.1824 -3.48788 -6.01142 0
M  V30 398 H 43.3734 -2.0938 -4.18662 0
M  V30 399 H 43.5464 -3.12225 -5.6782 0
M  V30 400 N 36.9525 1.47285 -0.560781 0
M  V30 401 C 38.2005 2.02064 -0.0379868 0
M  V30 402 C 38.5215 1.43711 1.31803 0
M  V30 403 O 37.7915 0.61362 1.86042 0
M  V30 404 H 36.3715 0.746918 -0.0110531 0
M  V30 405 H 39.0335 1.80648 -0.731598 0
M  V30 406 H 38.1295 3.12064 0.0474463 0
M  V30 407 N 38.4306 0.297415 1.54768 0
M  V30 408 C 39.6776 -0.312913 2.00068 0
M  V30 409 C 40.0056 -1.54171 1.18582 0
M  V30 410 O 39.2606 -1.94108 0.249133 0
M  V30 411 C 39.5596 -0.717561 3.50123 0
M  V30 412 C 39.2256 0.409095 4.4904 0
M  V30 413 C 37.8876 0.718399 4.75807 0
M  V30 414 C 40.2396 1.16717 5.07963 0
M  V30 415 C 37.5676 1.78896 5.5876 0
M  V30 416 C 39.9196 2.22762 5.92081 0
M  V30 417 C 38.5836 2.54303 6.1716 0
M  V30 418 H 37.8536 -0.114503 0.7321 0
M  V30 419 H 40.5006 0.415767 1.86932 0
M  V30 420 H 38.8056 -1.52627 3.60849 0
M  V30 421 H 40.5026 -1.20091 3.82595 0
M  V30 422 H 37.0926 0.157918 4.28309 0
M  V30 423 H 41.2766 0.941466 4.87289 0
M  V30 424 H 36.5326 2.0381 5.7643 0
M  V30 425 H 40.7066 2.81962 6.36765 0
M  V30 426 H 38.3336 3.3739 6.81229 0
M  V30 427 N 39.9087 -1.5758 0.0250728 0
M  V30 428 C 41.1367 -1.9593 -0.664747 0
M  V30 429 C 41.5517 -0.901352 -1.65895 0
M  V30 430 O 40.9087 0.117255 -1.82123 0
M  V30 431 C 40.9597 -3.34342 -1.37468 0
M  V30 432 O 40.6807 -4.36079 -0.420324 0
M  V30 433 C 42.1817 -3.873 -2.1567 0
M  V30 434 H 39.4017 -0.645405 -0.183557 0
M  V30 435 H 41.9457 -2.04329 0.0836372 0
M  V30 436 H 40.1007 -3.27175 -2.0745 0
M  V30 437 H 40.5147 -5.16297 -0.923991 0
M  V30 438 H 41.9887 -4.86504 -2.60803 0
M  V30 439 H 42.4657 -3.21331 -2.99405 0
M  V30 440 H 43.0717 -3.97723 -1.50654 0
M  V30 441 N 41.3868 0.248026 -1.55636 0
M  V30 442 C 42.6348 0.974295 -1.77065 0
M  V30 443 C 42.9558 1.85897 -0.588849 0
M  V30 444 O 42.2258 1.91868 0.395407 0
M  V30 445 H 40.8058 0.362733 -0.653019 0
M  V30 446 H 43.4678 0.266244 -1.93073 0
M  V30 447 H 42.5638 1.59667 -2.68166 0
M  V30 448 N 42.8649 1.48995 0.513639 0
M  V30 449 C 44.1129 1.57531 1.26604 0
M  V30 450 C 44.4339 0.258236 1.93283 0
M  V30 451 O 43.7039 -0.721502 1.8213 0
M  V30 452 H 42.2839 0.580387 0.470276 0
M  V30 453 H 44.9459 1.85552 0.596373 0
M  V30 454 H 44.0419 2.36486 2.03669 0
M  V30 455 N 44.343 -0.763751 1.37857 0
M  V30 456 C 45.589 -1.52483 1.33704 0
M  V30 457 C 45.922 -1.94051 -0.0759612 0
M  V30 458 O 45.197 -1.64675 -1.03501 0
M  V30 459 C 45.48 -2.78441 2.28348 0
M  V30 460 C 45.333 -2.43075 3.78463 0
M  V30 461 C 46.652 -3.80415 2.21298 0
M  V30 462 H 43.771 -0.553169 0.487005 0
M  V30 463 H 46.413 -0.875562 1.68624 0
M  V30 464 H 44.563 -3.33842 1.987 0
M  V30 465 H 46.235 -1.93527 4.18742 0
M  V30 466 H 44.478 -1.75666 3.96641 0
M  V30 467 H 45.149 -3.33149 4.40132 0
M  V30 468 H 47.625 -3.34527 2.47449 0
M  V30 469 H 46.501 -4.66257 2.89647 0
M  V30 470 H 46.762 -4.25262 1.20849 0
M  V30 471 N 45.8211 -1.22559 -0.990812 0
M  V30 472 C 46.7531 -0.955325 -2.08342 0
M  V30 473 C 47.7661 0.0668408 -1.62663 0
M  V30 474 O 48.9551 -0.167421 -1.77713 0
M  V30 475 C 46.0551 -0.415566 -3.36342 0
M  V30 476 C 45.2281 -1.49544 -4.11042 0
M  V30 477 C 44.2871 -0.962399 -5.17324 0
M  V30 478 O 43.3131 -1.64907 -5.44788 0
M  V30 479 N 44.5151 0.215134 -5.80101 0
M  V30 480 H 47.2801 -1.89596 -2.32106 0
M  V30 481 H 44.8411 -1.13276 -1.15673 0
M  V30 482 H 46.8331 -0.0442386 -4.04676 0
M  V30 483 H 45.4031 0.430232 -3.09625 0
M  V30 484 H 44.6231 -2.04 -3.37309 0
M  V30 485 H 45.9111 -2.22195 -4.57719 0
M  V30 486 H 45.3091 0.789779 -5.6016 0
M  V30 487 H 43.8661 0.527826 -6.49659 0
M  V30 488 N 47.2992 1.18797 -1.03562 0
M  V30 489 C 48.5272 1.92599 -0.755869 0
M  V30 490 C 48.9422 1.75886 0.686271 0
M  V30 491 O 48.2992 1.08517 1.46732 0
M  V30 492 C 48.3502 3.44159 -1.10619 0
M  V30 493 O 48.0712 3.60341 -2.4917 0
M  V30 494 C 49.5722 4.3507 -0.850214 0
M  V30 495 H 46.7922 0.611587 -0.276048 0
M  V30 496 H 49.3362 1.50742 -1.38192 0
M  V30 497 H 47.4912 3.83823 -0.525194 0
M  V30 498 H 47.9052 4.54128 -2.62427 0
M  V30 499 H 49.3792 5.39989 -1.14523 0
M  V30 500 H 49.8562 4.38673 0.215176 0
M  V30 501 H 50.4622 4.01097 -1.41426 0
M  V30 502 N 48.7773 0.814389 1.34928 0
M  V30 503 C 50.0233 0.399013 1.98836 0
M  V30 504 C 50.3563 -1.03314 1.64438 0
M  V30 505 O 49.6313 -1.71811 0.911659 0
M  V30 506 C 49.9143 0.591629 3.55207 0
M  V30 507 C 49.7673 2.06928 3.99376 0
M  V30 508 C 51.0863 0.022199 4.40094 0
M  V30 509 H 48.2053 0.146451 0.722303 0
M  V30 510 H 50.8473 1.02537 1.59957 0
M  V30 511 H 48.9973 0.0584441 3.88456 0
M  V30 512 H 50.6693 2.66544 3.76499 0
M  V30 513 H 48.9123 2.56287 3.49999 0
M  V30 514 H 49.5833 2.1549 5.08201 0
M  V30 515 H 52.0593 0.477643 4.13349 0
M  V30 516 H 50.9353 0.186832 5.48582 0
M  V30 517 H 51.1963 -1.07215 4.28902 0
M  V30 518 N 50.2554 -1.46986 0.568584 0
M  V30 519 C 51.4834 -2.0683 0.0539956 0
M  V30 520 C 51.8984 -1.41953 -1.24478 0
M  V30 521 O 51.2554 -0.519933 -1.74937 0
M  V30 522 C 51.3064 -3.61254 -0.133362 0
M  V30 523 O 51.0274 -4.237 1.11399 0
M  V30 524 C 52.5284 -4.37992 -0.683927 0
M  V30 525 H 49.7484 -0.669058 0.0510141 0
M  V30 526 H 52.2924 -1.88824 0.785234 0
M  V30 527 H 50.4474 -3.78735 -0.81477 0
M  V30 528 H 50.8614 -5.16388 0.91888 0
M  V30 529 H 52.3354 -5.46684 -0.764263 0
M  V30 530 H 52.8124 -4.05058 -1.69778 0
M  V30 531 H 53.4184 -4.25283 -0.0378494 0
M  V30 532 N 51.7335 -0.305618 -1.54608 0
M  V30 533 C 52.6635 0.561482 -2.26649 0
M  V30 534 C 53.6445 1.13415 -1.26772 0
M  V30 535 O 54.8295 1.16262 -1.55553 0
M  V30 536 C 51.9595 1.73122 -3.01075 0
M  V30 537 C 50.9135 1.2887 -4.08138 0
M  V30 538 C 50.2395 2.54396 -4.70305 0
M  V30 539 C 51.5395 0.416578 -5.20636 0
M  V30 540 H 53.2335 -0.0393902 -2.99374 0
M  V30 541 H 50.7795 -0.020385 -1.43986 0
M  V30 542 H 52.7325 2.34396 -3.50195 0
M  V30 543 H 51.4565 2.3584 -2.25936 0
M  V30 544 H 50.1155 0.698991 -3.59875 0
M  V30 545 H 49.7635 3.15439 -3.918 0
M  V30 546 H 49.4635 2.25486 -5.42614 0
M  V30 547 H 50.9875 3.16464 -5.2219 0
M  V30 548 H 52.4015 0.935116 -5.65622 0
M  V30 549 H 50.7985 0.221046 -5.99693 0
M  V30 550 H 51.8685 -0.557162 -4.81688 0
M  V30 551 N 53.2116 1.57565 -0.0334293 0
M  V30 552 C 54.4606 1.91155 0.643639 0
M  V30 553 C 54.7736 0.91192 1.73042 0
M  V30 554 O 55.9796 1.13923 2.46442 0
M  V30 555 C 54.4356 3.39443 1.1961 0
M  V30 556 C 54.0436 4.47774 0.142381 0
M  V30 557 C 55.7876 3.82094 1.84944 0
M  V30 558 C 53.6946 5.87162 0.706727 0
M  V30 559 H 52.6246 0.713368 0.244176 0
M  V30 560 H 55.2756 1.8323 -0.0994323 0
M  V30 561 H 53.6576 3.42313 1.99092 0
M  V30 562 H 54.8316 4.56469 -0.630296 0
M  V30 563 H 53.1466 4.14352 -0.412446 0
M  V30 564 H 55.7436 4.83591 2.2813 0
M  V30 565 H 56.0866 3.17386 2.69392 0
M  V30 566 H 56.6196 3.81665 1.12145 0
M  V30 567 H 53.3586 6.55424 -0.0997178 0
M  V30 568 H 52.8786 5.82064 1.44779 0
M  V30 569 H 54.5576 6.35866 1.19514 0
M  V30 570 N 54.6897 -0.239769 1.55765 0
M  V30 571 C 56.1007 -0.808263 1.68297 0
M  V30 572 C 56.4517 -1.85736 0.632181 0
M  V30 573 O 55.5767 -2.15277 -0.220204 0
M  V30 574 C 56.1717 -1.47284 3.05111 0
M  V30 575 C 54.7307 -1.98895 3.19559 0
M  V30 576 C 53.8777 -0.842575 2.64189 0
M  V30 577 H 56.8287 -0.0154422 1.58692 0
M  V30 578 H 56.8497 -2.34111 2.99954 0
M  V30 579 H 56.3617 -0.709053 3.81568 0
M  V30 580 H 54.4627 -2.78132 2.47938 0
M  V30 581 H 54.5757 -2.18143 4.26556 0
M  V30 582 H 52.9397 -1.24501 2.22197 0
M  V30 583 H 53.7227 -0.0917552 3.43177 0
M  V30 584 N 56.1678 -1.49265 -0.50573 0
M  V30 585 C 57.4158 -1.582 -1.25766 0
M  V30 586 C 57.7368 -0.268482 -1.93143 0
M  V30 587 O 57.0068 0.711833 -1.8251 0
M  V30 588 H 55.5868 -0.582873 -0.467191 0
M  V30 589 H 58.2488 -1.85865 -0.586525 0
M  V30 590 H 57.3448 -2.37563 -2.02412 0
M  V30 591 N 57.6459 0.756429 -1.3826 0
M  V30 592 C 58.9229 1.50584 -1.24835 0
M  V30 593 C 59.3029 2.10556 0.151485 0
M  V30 594 O 58.6509 1.96825 1.1607 0
M  V30 595 C 58.8609 2.57448 -2.3563 0
M  V30 596 C 60.2089 3.24429 -2.73917 0
M  V30 597 O 61.2329 2.67751 -2.34921 0
M  V30 598 O 60.0919 4.26937 -3.41156 0
M  V30 599 H 57.1859 0.667664 -0.48801 0
M  V30 600 H 59.7319 0.792083 -1.5008 0
M  V30 601 H 58.5039 2.11362 -3.29305 0
M  V30 602 H 58.1269 3.36408 -2.11933 0
M  V30 603 N 59.124 1.23083 0.984299 0
M  V30 604 C 60.372 1.05848 1.72165 0
M  V30 605 C 60.693 -0.406049 1.90726 0
M  V30 606 O 59.963 -1.29139 1.47309 0
M  V30 607 H 58.543 0.388685 0.637913 0
M  V30 608 H 61.205 1.54736 1.18503 0
M  V30 609 H 60.301 1.54327 2.71274 0
M  V30 610 N 60.6021 -1.18246 1.0419 0
M  V30 611 C 61.8511 -1.87588 0.741194 0
M  V30 612 C 62.1641 -1.81303 -0.734066 0
M  V30 613 O 63.3701 -2.46019 -1.14834 0
M  V30 614 C 61.8261 -3.36538 1.27555 0
M  V30 615 C 61.4341 -3.51349 2.77953 0
M  V30 616 C 63.1781 -4.11273 1.05143 0
M  V30 617 C 61.0851 -4.94265 3.2474 0
M  V30 618 H 60.0151 -0.702622 0.273565 0
M  V30 619 H 62.6661 -1.33601 1.25789 0
M  V30 620 H 61.0481 -3.9 0.686703 0
M  V30 621 H 62.2221 -3.08153 3.42605 0
M  V30 622 H 60.5371 -2.90022 2.98791 0
M  V30 623 H 63.1341 -5.16689 1.37611 0
M  V30 624 H 63.4771 -4.16298 -0.0112774 0
M  V30 625 H 64.0101 -3.63987 1.60495 0
M  V30 626 H 60.7491 -4.94408 4.30396 0
M  V30 627 H 60.2691 -5.38172 2.64823 0
M  V30 628 H 61.9481 -5.62987 3.18834 0
M  V30 629 N 62.0802 -0.821533 -1.34494 0
M  V30 630 C 63.3282 -0.408139 -1.97936 0
M  V30 631 C 63.6492 1.03193 -1.65457 0
M  V30 632 O 62.9192 1.71622 -0.944595 0
M  V30 633 H 61.4992 -0.147928 -0.732206 0
M  V30 634 H 64.1612 -1.05067 -1.64155 0
M  V30 635 H 63.2572 -0.52601 -3.07635 0
M  V30 636 N 63.5583 1.46682 -0.576371 0
M  V30 637 C 64.9693 1.86112 -0.148091 0
M  V30 638 C 65.3203 1.48073 1.2872 0
M  V30 639 O 64.4453 0.892656 1.97131 0
M  V30 640 C 65.0403 3.37786 -0.261982 0
M  V30 641 C 63.5993 3.76235 0.111384 0
M  V30 642 C 62.7463 2.70713 -0.60083 0
M  V30 643 H 65.6973 1.37927 -0.78497 0
M  V30 644 H 65.7183 3.77007 0.514364 0
M  V30 645 H 65.2303 3.6544 -1.30671 0
M  V30 646 H 63.3313 3.54198 1.15649 0
M  V30 647 H 63.4443 4.78391 -0.26052 0
M  V30 648 H 61.8083 2.54666 -0.0417783 0
M  V30 649 H 62.5913 3.01208 -1.64708 0
M  V30 650 N 65.0364 0.313813 1.54444 0
M  V30 651 C 65.9464 -0.565714 2.27677 0
M  V30 652 C 66.9624 -1.13754 1.31666 0
M  V30 653 O 68.1384 -1.15959 1.64668 0
M  V30 654 C 65.2034 -1.71528 3.01296 0
M  V30 655 C 64.2644 -1.17624 4.12872 0
M  V30 656 C 63.4974 -2.27102 4.8297 0
M  V30 657 O 63.7204 -3.47256 4.52514 0
M  V30 658 O 62.6544 -1.9307 5.70094 0
M  V30 659 H 66.4804 0.0287296 3.03686 0
M  V30 660 H 64.0654 0.0798312 1.49187 0
M  V30 661 H 65.9474 -2.38476 3.4743 0
M  V30 662 H 64.6224 -2.29608 2.2817 0
M  V30 663 H 63.5294 -0.472124 3.71109 0
M  V30 664 H 64.8624 -0.640695 4.88012 0
M  V30 665 N 66.5145 -1.57545 0.0417849 0
M  V30 666 C 67.7635 -1.91494 -0.633492 0
M  V30 667 C 68.0765 -0.921084 -1.72556 0
M  V30 668 O 69.2825 -1.15228 -2.45835 0
M  V30 669 C 67.7385 -3.40072 -1.17808 0
M  V30 670 C 67.3465 -4.47843 -0.118633 0
M  V30 671 C 69.0905 -3.8307 -1.82915 0
M  V30 672 C 66.9975 -5.87529 -0.675578 0
M  V30 673 H 65.9275 -0.714653 -0.24039 0
M  V30 674 H 68.5785 -1.83175 0.109148 0
M  V30 675 H 66.9605 -3.43364 -1.97274 0
M  V30 676 H 68.1345 -4.56128 0.654494 0
M  V30 677 H 66.4495 -4.14128 0.434414 0
M  V30 678 H 69.0465 -4.84794 -2.25563 0
M  V30 679 H 69.3895 -3.1881 -2.67705 0
M  V30 680 H 69.9225 -3.82255 -1.10119 0
M  V30 681 H 66.6615 -6.55362 0.134475 0
M  V30 682 H 66.1815 -5.82824 -1.4169 0
M  V30 683 H 67.8605 -6.36491 -1.1614 0
M  V30 684 N 67.9926 0.231505 -1.5589 0
M  V30 685 C 69.2176 0.978689 -1.82856 0
M  V30 686 C 69.6426 1.77559 -0.620846 0
M  V30 687 O 69.0006 1.76119 0.430305 0
M  V30 688 C 69.0486 1.87997 -3.07716 0
M  V30 689 O 68.1526 2.97393 -2.85712 0
M  V30 690 H 67.4936 0.277663 -0.603158 0
M  V30 691 H 70.0236 0.24783 -2.03093 0
M  V30 692 H 70.0336 2.2917 -3.37558 0
M  V30 693 H 68.7086 1.29417 -3.95252 0
M  V30 694 H 67.2856 2.60238 -2.67078 0
M  V30 695 N 69.4707 1.49531 0.497807 0
M  V30 696 C 70.4337 1.65916 1.58128 0
M  V30 697 C 71.4337 0.530825 1.51786 0
M  V30 698 O 72.6237 0.797342 1.54881 0
M  V30 699 C 69.7557 1.65951 2.9778 0
M  V30 700 H 70.9487 2.62556 1.44929 0
M  V30 701 H 68.5017 1.38611 0.722275 0
M  V30 702 H 69.2367 0.709065 3.16453 0
M  V30 703 H 69.0217 2.47897 3.03792 0
M  V30 704 H 70.5117 1.80673 3.76493 0
M  V30 705 N 70.9488 -0.749086 1.3866 0
M  V30 706 C 71.9118 -1.84457 1.36045 0
M  V30 707 C 72.9118 -1.58682 0.260122 0
M  V30 708 O 74.1018 -1.66343 0.517261 0
M  V30 709 C 71.2338 -3.22008 1.11911 0
M  V30 710 H 72.4268 -1.88182 2.33512 0
M  V30 711 H 69.9798 -0.951266 1.24019 0
M  V30 712 H 70.7148 -3.2395 0.150686 0
M  V30 713 H 70.4998 -3.42111 1.91579 0
M  V30 714 H 71.9898 -4.0208 1.12788 0
M  V30 715 N 72.4269 -1.23603 -0.977757 0
M  V30 716 C 73.6729 -1.07129 -1.72195 0
M  V30 717 C 74.0059 0.390501 -1.90233 0
M  V30 718 O 73.2809 1.28902 -1.45653 0
M  V30 719 C 73.5639 -1.80031 -3.11867 0
M  V30 720 C 73.4169 -3.33899 -3.01383 0
M  V30 721 C 74.7359 -1.56492 -4.11337 0
M  V30 722 H 71.8549 -0.390571 -0.624999 0
M  V30 723 H 74.4969 -1.52142 -1.13811 0
M  V30 724 H 72.6469 -1.41768 -3.6171 0
M  V30 725 H 74.3189 -3.81699 -2.59043 0
M  V30 726 H 72.5619 -3.62796 -2.37827 0
M  V30 727 H 73.2329 -3.801 -4.00285 0
M  V30 728 H 75.7089 -1.89757 -3.70313 0
M  V30 729 H 74.5849 -2.09973 -5.07151 0
M  V30 730 H 74.8459 -0.500874 -4.39254 0
M  V30 731 N 73.905 1.17692 -1.04816 0
M  V30 732 C 74.838 2.20436 -0.590173 0
M  V30 733 C 75.816 1.58115 0.379244 0
M  V30 734 O 77 1.86228 0.291762 0
M  V30 735 C 74.127 3.38424 0.136817 0
M  V30 736 C 73.173 4.19176 -0.787023 0
M  V30 737 S 74.006 4.84815 -2.27409 0
M  V30 738 C 75.162 6.06195 -1.55817 0
M  V30 739 H 75.395 2.58944 -1.46067 0
M  V30 740 H 72.928 1.28246 -0.859784 0
M  V30 741 H 74.886 4.06798 0.550076 0
M  V30 742 H 73.547 2.98312 0.983299 0
M  V30 743 H 72.74 5.03499 -0.224681 0
M  V30 744 H 72.342 3.56219 -1.13947 0
M  V30 745 H 74.634 6.72078 -0.855387 0
M  V30 746 H 75.577 6.6695 -2.37873 0
M  V30 747 H 75.985 5.54701 -1.04722 0
M  V30 748 N 75.3831 0.828654 1.34056 0
M  V30 749 C 76.3301 0.252567 2.29414 0
M  V30 750 C 77.3001 -0.62588 1.53857 0
M  V30 751 O 78.4851 -0.566312 1.82202 0
M  V30 752 C 75.6251 -0.574831 3.40279 0
M  V30 753 C 74.7381 0.326499 4.30764 0
M  V30 754 C 73.8731 -0.511016 5.28736 0
M  V30 755 C 72.9121 0.389342 6.1086 0
M  V30 756 N 72.0491 -0.409439 7.00905 0
M  V30 757 H 76.8891 1.07108 2.78086 0
M  V30 758 H 74.4261 0.539677 1.36843 0
M  V30 759 H 76.3841 -1.06992 4.03248 0
M  V30 760 H 75.0141 -1.35841 2.92826 0
M  V30 761 H 74.0661 0.939837 3.68607 0
M  V30 762 H 75.3781 1.01857 4.88289 0
M  V30 763 H 74.5321 -1.07035 5.97184 0
M  V30 764 H 73.2711 -1.23657 4.71763 0
M  V30 765 H 72.2761 0.960769 5.4134 0
M  V30 766 H 73.5011 1.1131 6.69916 0
M  V30 767 H 71.4471 -1.11856 6.46393 0
M  V30 768 H 71.3641 0.224126 7.55668 0
M  V30 769 H 72.6321 -0.951336 7.73673 0
M  V30 770 N 76.8612 -1.46375 0.584142 0
M  V30 771 C 78.1102 -2.01585 0.0679741 0
M  V30 772 C 78.4232 -1.46109 -1.30045 0
M  V30 773 O 79.6292 -1.93148 -1.90804 0
M  V30 774 C 78.0852 -3.5983 0.0709207 0
M  V30 775 C 77.6932 -4.24303 1.43775 0
M  V30 776 C 79.4372 -4.22693 -0.391228 0
M  V30 777 C 77.3442 -5.74631 1.39834 0
M  V30 778 H 76.2742 -0.753689 0.0216421 0
M  V30 779 H 78.9252 -1.68093 0.736001 0
M  V30 780 H 77.3072 -3.90405 -0.663299 0
M  V30 781 H 78.4812 -4.05335 2.19181 0
M  V30 782 H 76.7962 -3.73539 1.84004 0
M  V30 783 H 79.3932 -5.3289 -0.439524 0
M  V30 784 H 79.7362 -3.91728 -1.40906 0
M  V30 785 H 80.2692 -3.96749 0.288974 0
M  V30 786 H 77.0082 -6.10258 2.39303 0
M  V30 787 H 76.5282 -5.95858 0.686505 0
M  V30 788 H 78.2072 -6.37375 1.11187 0
M  V30 789 N 78.3393 -0.321999 -1.54275 0
M  V30 790 C 79.5863 0.281044 -2.0054 0
M  V30 791 C 79.9143 1.52265 -1.21019 0
M  V30 792 O 79.1693 1.93687 -0.279982 0
M  V30 793 C 79.4683 0.661769 -3.5122 0
M  V30 794 C 79.1343 -0.480482 -4.48333 0
M  V30 795 C 77.7963 -0.794005 -4.74604 0
M  V30 796 C 80.1483 -1.24783 -5.06042 0
M  V30 797 C 77.4763 -1.87763 -5.55844 0
M  V30 798 C 79.8283 -2.32153 -5.88462 0
M  V30 799 C 78.4923 -2.64089 -6.13036 0
M  V30 800 H 77.7623 0.102841 -0.733829 0
M  V30 801 H 80.4093 -0.445453 -1.86247 0
M  V30 802 H 78.7143 1.46867 -3.63232 0
M  V30 803 H 80.4113 1.13989 -3.84457 0
M  V30 804 H 77.0013 -0.226039 -4.28004 0
M  V30 805 H 81.1853 -1.01887 -4.85729 0
M  V30 806 H 76.4413 -2.12954 -5.73115 0
M  V30 807 H 80.6153 -2.92057 -6.32199 0
M  V30 808 H 78.2423 -3.48185 -6.75775 0
M  V30 809 N 79.8174 1.5752 -0.0501392 0
M  V30 810 C 81.0944 1.83996 0.663685 0
M  V30 811 C 81.4744 0.938339 1.89099 0
M  V30 812 O 80.8224 -0.00087759 2.285 0
M  V30 813 C 81.0324 3.33702 1.02196 0
M  V30 814 C 82.3804 4.00691 1.40469 0
M  V30 815 O 83.4044 3.38321 1.11433 0
M  V30 816 O 82.2634 5.10658 1.94654 0
M  V30 817 H 79.3574 0.759385 0.32751 0
M  V30 818 H 81.9034 1.69514 -0.0794238 0
M  V30 819 H 80.6754 3.91015 0.149364 0
M  V30 820 H 80.2984 3.53368 1.82255 0
M  V30 821 N 81.2955 -0.223234 1.56011 0
M  V30 822 C 82.2585 -1.26014 1.9145 0
M  V30 823 C 83.2585 -1.3989 0.792937 0
M  V30 824 O 84.4485 -1.38184 1.0607 0
M  V30 825 C 81.5805 -2.63422 2.16383 0
M  V30 826 H 82.7735 -0.95796 2.84189 0
M  V30 827 H 80.3265 -0.463576 1.49267 0
M  V30 828 H 81.0615 -2.98741 1.2619 0
M  V30 829 H 80.8465 -2.54728 2.98088 0
M  V30 830 H 82.3365 -3.38249 2.44903 0
M  V30 831 N 82.7736 -1.49793 -0.48987 0
M  V30 832 C 83.7366 -1.66752 -1.57246 0
M  V30 833 C 84.7366 -0.538867 -1.51502 0
M  V30 834 O 85.9266 -0.805545 -1.54456 0
M  V30 835 C 83.0586 -1.67528 -2.96896 0
M  V30 836 H 84.2516 -2.63321 -1.43534 0
M  V30 837 H 81.8046 -1.38992 -0.714914 0
M  V30 838 H 82.5396 -0.725837 -3.16073 0
M  V30 839 H 82.3246 -2.49504 -3.02473 0
M  V30 840 H 83.8146 -1.82667 -3.7553 0
M  V30 841 N 84.2517 0.741722 -1.39055 0
M  V30 842 C 85.1987 1.85566 -1.37237 0
M  V30 843 C 86.1687 1.64457 -0.233072 0
M  V30 844 O 87.3537 1.85957 -0.427147 0
M  V30 845 C 84.4937 3.23004 -1.215 0
M  V30 846 C 83.6067 3.55864 -2.44918 0
M  V30 847 C 82.7417 4.82669 -2.21821 0
M  V30 848 C 81.7807 5.08351 -3.40948 0
M  V30 849 N 80.9177 6.26356 -3.17211 0
M  V30 850 H 85.7577 1.86455 -2.32462 0
M  V30 851 H 83.2947 0.911176 -1.15482 0
M  V30 852 H 85.2527 4.02331 -1.10389 0
M  V30 853 H 83.8827 3.21411 -0.29908 0
M  V30 854 H 82.9347 2.7129 -2.66657 0
M  V30 855 H 84.2467 3.70765 -3.33668 0
M  V30 856 H 83.4007 5.69962 -2.07914 0
M  V30 857 H 82.1397 4.69929 -1.30454 0
M  V30 858 H 81.1447 4.19522 -3.55361 0
M  V30 859 H 82.3697 5.22981 -4.33207 0
M  V30 860 H 80.3157 6.14917 -2.28502 0
M  V30 861 H 80.2327 6.41813 -3.99515 0
M  V30 862 H 81.5007 7.16506 -3.06984 0
M  V30 863 N 85.7298 1.2412 0.971189 0
M  V30 864 C 86.6928 1.03156 2.04674 0
M  V30 865 C 87.6928 -0.00990322 1.60797 0
M  V30 866 O 88.8828 0.230729 1.72665 0
M  V30 867 C 86.0148 0.562765 3.36223 0
M  V30 868 H 87.2078 1.98614 2.24705 0
M  V30 869 H 84.7608 1.06293 1.14593 0
M  V30 870 H 85.4958 -0.395176 3.21883 0
M  V30 871 H 85.2808 1.31441 3.69413 0
M  V30 872 H 86.7708 0.437015 4.15307 0
M  V30 873 N 87.2079 -1.17134 1.05439 0
M  V30 874 C 88.6189 -1.69084 0.791676 0
M  V30 875 C 88.9699 -1.83822 -0.685839 0
M  V30 876 O 88.0949 -1.52757 -1.53278 0
M  V30 877 C 88.6899 -3.07119 1.4305 0
M  V30 878 C 87.2489 -3.56225 1.21577 0
M  V30 879 C 86.3959 -2.32421 1.51247 0
M  V30 880 H 89.3469 -1.01617 1.219 0
M  V30 881 H 89.3679 -3.71087 0.84112 0
M  V30 882 H 88.8799 -2.9636 2.50584 0
M  V30 883 H 86.9809 -3.72257 0.159787 0
M  V30 884 H 87.0939 -4.38837 1.92246 0
M  V30 885 H 85.4579 -2.3701 0.932653 0
M  V30 886 H 86.2409 -2.24268 2.5992 0
M  V30 887 N 88.686 -0.835752 -1.33615 0
M  V30 888 C 89.935 -0.426289 -1.97144 0
M  V30 889 C 90.248 1.01912 -1.66953 0
M  V30 890 O 91.454 1.53311 -2.24072 0
M  V30 891 C 89.91 -0.711321 -3.52801 0
M  V30 892 C 89.518 -2.1712 -3.91871 0
M  V30 893 C 91.262 -0.368654 -4.22896 0
M  V30 894 C 89.169 -2.40044 -5.40493 0
M  V30 895 H 88.099 -0.15567 -0.737755 0
M  V30 896 H 90.75 -1.0239 -1.52278 0
M  V30 897 H 89.132 -0.0433766 -3.95976 0
M  V30 898 H 90.306 -2.87936 -3.59763 0
M  V30 899 H 88.621 -2.47654 -3.34749 0
M  V30 900 H 91.218 -0.517601 -5.32189 0
M  V30 901 H 91.561 0.688078 -4.10574 0
M  V30 902 H 92.094 -0.991702 -3.8524 0
M  V30 903 H 88.833 -3.44271 -5.57815 0
M  V30 904 H 88.353 -1.73785 -5.74072 0
M  V30 905 H 90.032 -2.23042 -6.0734 0
M  V30 906 N 90.1641 1.46063 -0.591896 0
M  V30 907 C 91.0961 2.28539 0.174001 0
M  V30 908 C 92.1091 1.39047 0.846753 0
M  V30 909 O 93.2981 1.63564 0.714774 0
M  V30 910 C 90.3981 3.14347 1.26645 0
M  V30 911 C 89.5711 4.32021 0.683856 0
M  V30 912 C 88.6301 4.99157 1.66518 0
M  V30 913 O 87.6561 5.56458 1.19763 0
M  V30 914 N 88.8581 4.97005 2.99943 0
M  V30 915 H 91.6231 2.94911 -0.533633 0
M  V30 916 H 89.1841 1.56077 -0.430294 0
M  V30 917 H 91.1761 3.56125 1.92242 0
M  V30 918 H 89.7461 2.49988 1.87682 0
M  V30 919 H 88.9661 3.93915 -0.1498 0
M  V30 920 H 90.2541 5.08059 0.274567 0
M  V30 921 H 89.6521 4.51714 3.40545 0
M  V30 922 H 88.2091 5.42696 3.61004 0
M  V30 923 N 91.6422 0.330177 1.54103 0
M  V30 924 C 92.8882 -0.263542 2.01685 0
M  V30 925 C 93.2432 -1.49258 1.21408 0
M  V30 926 O 92.5362 -1.89395 0.289852 0
M  V30 927 C 92.7302 -0.643134 3.51566 0
M  V30 928 C 92.5592 0.547571 4.46354 0
M  V30 929 C 91.3292 1.04873 4.94297 0
M  V30 930 C 93.5272 1.40184 4.94826 0
M  V30 931 N 91.5092 2.20316 5.73005 0
M  V30 932 C 92.8802 2.40335 5.71524 0
M  V30 933 C 94.9352 1.42884 4.76958 0
M  V30 934 C 93.6382 3.42998 6.32254 0
M  V30 935 C 95.6642 2.44421 5.38528 0
M  V30 936 C 95.0262 3.43298 6.15082 0
M  V30 937 H 91.1252 -0.0601026 0.779687 0
M  V30 938 H 93.7092 0.466714 1.89023 0
M  V30 939 H 91.8802 -1.34251 3.6446 0
M  V30 940 H 93.6122 -1.21889 3.85908 0
M  V30 941 H 90.3672 0.618956 4.69538 0
M  V30 942 H 90.7912 2.78565 6.17034 0
M  V30 943 H 95.4332 0.678049 4.17328 0
M  V30 944 H 93.1512 4.1898 6.91 0
M  V30 945 H 96.7372 2.4732 5.26616 0
M  V30 946 H 95.6172 4.20579 6.61878 0
M  V30 947 N 93.1203 -1.57491 0.0584922 0
M  V30 948 C 94.0303 -2.15448 -0.928414 0
M  V30 949 C 95.0463 -1.11416 -1.3365 0
M  V30 950 O 96.2223 -1.4362 -1.41193 0
M  V30 951 C 93.2873 -2.69393 -2.18239 0
M  V30 952 C 92.3483 -3.88249 -1.83196 0
M  V30 953 C 91.5813 -4.39613 -3.02616 0
M  V30 954 O 91.8043 -3.90023 -4.16219 0
M  V30 955 O 90.7383 -5.31111 -2.83204 0
M  V30 956 H 94.5643 -3.00112 -0.465483 0
M  V30 957 H 92.1493 -1.48499 -0.163826 0
M  V30 958 H 94.0313 -3.04026 -2.91798 0
M  V30 959 H 92.7063 -1.87796 -2.63656 0
M  V30 960 H 91.6133 -3.58492 -1.06931 0
M  V30 961 H 92.9463 -4.71098 -1.42573 0
M  V30 962 N 94.5984 0.214957 -1.56127 0
M  V30 963 C 95.5084 1.28727 -1.96129 0
M  V30 964 C 96.5244 1.50916 -0.866044 0
M  V30 965 O 97.7004 1.63918 -1.17016 0
M  V30 966 C 94.7654 2.61569 -2.27558 0
M  V30 967 C 93.8264 2.47625 -3.50685 0
M  V30 968 C 93.0594 3.74132 -3.80606 0
M  V30 969 O 93.2824 4.77438 -3.12104 0
M  V30 970 O 92.2164 3.70849 -4.74083 0
M  V30 971 H 96.0424 0.977855 -2.87527 0
M  V30 972 H 93.6274 0.418358 -1.43423 0
M  V30 973 H 95.5094 3.40012 -2.48938 0
M  V30 974 H 94.1844 2.92178 -1.39332 0
M  V30 975 H 93.0914 1.67361 -3.34576 0
M  V30 976 H 94.4244 2.21954 -4.39315 0
M  V30 977 N 96.0765 1.50051 0.48192 0
M  V30 978 C 97.4925 1.37237 0.814756 0
M  V30 979 C 97.6925 0.420109 1.97072 0
M  V30 980 O 96.7485 -0.141246 2.52105 0
M  V30 981 C 98.0615 2.78375 1.13701 0
M  V30 982 C 99.6095 2.87213 1.2441 0
M  V30 983 C 100.084 4.29161 1.59954 0
M  V30 984 N 101.575 4.32061 1.66967 0
M  V30 985 C 102.31 5.38879 1.95952 0
M  V30 986 N 101.806 6.55918 2.23031 0
M  V30 987 N 103.599 5.26312 1.97363 0
M  V30 988 H 95.7505 2.10546 -0.28005 0
M  V30 989 H 98.0135 0.945921 -0.0627454 0
M  V30 990 H 97.7195 3.49845 0.360787 0
M  V30 991 H 97.5935 3.14941 2.07586 0
M  V30 992 H 99.9805 2.15969 2.01101 0
M  V30 993 H 100.061 2.54204 0.285299 0
M  V30 994 H 99.7055 5.00938 0.838067 0
M  V30 995 H 99.6355 4.59648 2.56966 0
M  V30 996 H 102.126 3.47661 1.48123 0
M  V30 997 H 102.439 7.33139 2.44391 0
M  V30 998 H 100.784 6.59112 2.20447 0
M  V30 999 H 103.975 4.33876 1.75697 0
M  V30 1000 H 104.148 6.09649 2.19618 0
M  V30 1001 N 97.5546 -0.734337 1.39446 0
M  V30 1002 C 98.5026 -1.86971 1.38364 0
M  V30 1003 C 99.4966 -1.67288 0.266687 0
M  V30 1004 O 100.703 -1.74621 0.436755 0
M  V30 1005 H 97.0776 -0.615474 0.432082 0
M  V30 1006 H 99.0486 -1.85 2.34132 0
M  V30 1007 C 97.7976 -3.2466 1.24465 0
M  V30 1008 H 97.1206 -3.40402 2.09682 0
M  V30 1009 H 98.5606 -4.04292 1.27764 0
M  V30 1010 C 97.0196 -3.36867 -0.0468674 0
M  V30 1011 O 97.5496 -3.88618 -1.01681 0
M  V30 1012 N 95.7556 -2.90391 -0.110145 0
M  V30 1013 H 95.3026 -2.48466 0.679868 0
M  V30 1014 H 95.2606 -2.98939 -0.973799 0
M  V30 1015 N 99.0327 -1.24633 -0.964593 0
M  V30 1016 C 100.279 -1.08949 -1.71049 0
M  V30 1017 C 100.612 0.370302 -1.90637 0
M  V30 1018 O 99.8867 1.27349 -1.47011 0
M  V30 1019 C 100.17 -1.83329 -3.0994 0
M  V30 1020 C 100.023 -3.37077 -2.97824 0
M  V30 1021 C 101.342 -1.60846 -4.09654 0
M  V30 1022 H 98.4607 -0.397178 -0.620821 0
M  V30 1023 H 101.103 -1.5334 -1.12191 0
M  V30 1024 H 99.2527 -1.45597 -3.60186 0
M  V30 1025 H 100.925 -3.84425 -2.5498 0
M  V30 1026 H 99.1677 -3.65298 -2.33965 0
M  V30 1027 H 99.8387 -3.84324 -3.96231 0
M  V30 1028 H 102.315 -1.93674 -3.68279 0
M  V30 1029 H 101.191 -2.1534 -5.04896 0
M  V30 1030 H 101.452 -0.547434 -4.38698 0
M  V30 1031 N 100.511 1.16574 -1.06058 0
M  V30 1032 C 101.739 1.90952 -0.796552 0
M  V30 1033 C 102.154 1.77302 0.648808 0
M  V30 1034 O 101.511 1.11605 1.44397 0
M  V30 1035 C 101.562 3.41736 -1.17894 0
M  V30 1036 O 101.283 3.54975 -2.56758 0
M  V30 1037 C 102.784 4.33169 -0.942308 0
M  V30 1038 H 100.004 0.605594 -0.288959 0
M  V30 1039 H 102.548 1.47777 -1.41358 0
M  V30 1040 H 100.703 3.82623 -0.606491 0
M  V30 1041 H 101.117 4.4846 -2.72 0
M  V30 1042 H 102.591 5.37439 -1.25952 0
M  V30 1043 H 103.068 4.3903 0.122078 0
M  V30 1044 H 103.674 3.98007 -1.49902 0
M  V30 1045 N 101.989 0.842826 1.3317 0
M  V30 1046 C 102.952 0.284065 2.27433 0
M  V30 1047 C 103.952 -0.54948 1.5112 0
M  V30 1048 O 105.142 -0.362699 1.70382 0
M  V30 1049 C 102.274 -0.599384 3.35589 0
M  V30 1050 H 103.467 1.11589 2.78366 0
M  V30 1051 H 101.02 0.616221 1.4364 0
M  V30 1052 H 101.755 -1.45349 2.89904 0
M  V30 1053 H 101.54 -0.00291266 3.921 0
M  V30 1054 H 103.03 -0.983488 4.05854 0
M  V30 1055 N 103.467 -1.45747 0.599634 0
M  V30 1056 C 104.716 -2.01502 0.0893511 0
M  V30 1057 C 105.029 -1.4748 -1.28488 0
M  V30 1058 O 106.235 -1.95161 -1.88745 0
M  V30 1059 C 104.691 -3.59735 0.109082 0
M  V30 1060 C 104.299 -4.22754 1.48267 0
M  V30 1061 C 106.043 -4.23085 -0.346374 0
M  V30 1062 C 103.95 -5.73115 1.45921 0
M  V30 1063 H 102.88 -0.753417 0.0296347 0
M  V30 1064 H 105.531 -1.67303 0.753788 0
M  V30 1065 H 103.913 -3.91087 -0.621854 0
M  V30 1066 H 105.087 -4.02987 2.23468 0
M  V30 1067 H 103.402 -3.71567 1.87955 0
M  V30 1068 H 105.999 -5.33327 -0.38298 0
M  V30 1069 H 106.342 -3.93201 -1.36743 0
M  V30 1070 H 106.875 -3.9642 0.331038 0
M  V30 1071 H 103.614 -6.07685 2.45762 0
M  V30 1072 H 103.134 -5.95097 0.749665 0
M  V30 1073 H 104.813 -6.3616 1.17941 0
M  V30 1074 N 104.945 -0.338344 -1.53925 0
M  V30 1075 C 105.877 0.555117 -2.22376 0
M  V30 1076 C 106.89 1.06812 -1.22862 0
M  V30 1077 O 108.079 0.979163 -1.49247 0
M  V30 1078 C 105.179 1.77609 -2.88631 0
M  V30 1079 C 104.352 1.39927 -4.14414 0
M  V30 1080 C 103.411 2.47936 -4.64127 0
M  V30 1081 O 102.437 2.11461 -5.28463 0
M  V30 1082 N 103.639 3.79107 -4.39612 0
M  V30 1083 H 106.404 -0.0310778 -2.99684 0
M  V30 1084 H 103.965 -0.162226 -1.61085 0
M  V30 1085 H 105.957 2.49287 -3.18807 0
M  V30 1086 H 104.527 2.26978 -2.14941 0
M  V30 1087 H 103.747 0.513481 -3.90841 0
M  V30 1088 H 105.035 1.12341 -4.96243 0
M  V30 1089 H 104.433 4.11531 -3.88148 0
M  V30 1090 H 102.99 4.4697 -4.74406 0
M  V30 1091 N 106.423 1.57458 -0.0668435 0
M  V30 1092 C 107.671 1.92919 0.602214 0
M  V30 1093 C 107.992 0.947215 1.70449 0
M  V30 1094 O 107.262 -0.00544117 1.95899 0
M  V30 1095 H 105.842 0.71217 0.22544 0
M  V30 1096 H 108.504 1.94508 -0.123535 0
M  V30 1097 H 107.6 2.94589 1.03073 0
M  V30 1098 N 107.901 -0.206675 1.56239 0
M  V30 1099 C 109.312 -0.772383 1.69974 0
M  V30 1100 C 109.663 -1.84353 0.671436 0
M  V30 1101 O 108.788 -2.15695 -0.174491 0
M  V30 1102 C 109.383 -1.40779 3.08167 0
M  V30 1103 C 107.942 -1.92072 3.23706 0
M  V30 1104 C 107.089 -0.786347 2.65917 0
M  V30 1105 H 110.04 0.0182223 1.5869 0
M  V30 1106 H 110.061 -2.27696 3.04852 0
M  V30 1107 H 109.573 -0.627958 3.82986 0
M  V30 1108 H 107.674 -2.7281 2.53782 0
M  V30 1109 H 107.787 -2.09046 4.31087 0
M  V30 1110 H 106.151 -1.1976 2.24788 0
M  V30 1111 H 106.934 -0.0189416 3.43295 0
M  V30 1112 N 109.379 -1.50304 -0.473955 0
M  V30 1113 C 110.627 -1.60832 -1.22382 0
M  V30 1114 C 110.948 -0.30939 -1.9253 0
M  V30 1115 O 110.218 0.67296 -1.83978 0
M  V30 1116 H 108.798 -0.592652 -0.454723 0
M  V30 1117 H 111.46 -1.87068 -0.546968 0
M  V30 1118 H 110.556 -2.41803 -1.97327 0
M  V30 1119 N 110.857 0.726932 -1.39834 0
M  V30 1120 C 112.105 1.4837 -1.37225 0
M  V30 1121 C 112.426 1.94979 0.0284857 0
M  V30 1122 O 111.696 1.69555 0.981213 0
M  V30 1123 H 110.276 0.55043 -0.505011 0
M  V30 1124 H 112.938 0.862468 -1.74778 0
M  V30 1125 H 112.034 2.36198 -2.04003 0
M  V30 1126 N 112.336 1.25143 0.95797 0
M  V30 1127 C 113.283 1.05235 2.05412 0
M  V30 1128 C 114.253 -0.0374561 1.66058 0
M  V30 1129 O 115.438 0.119073 1.90428 0
M  V30 1130 C 112.578 0.673589 3.38462 0
M  V30 1131 C 111.691 1.8379 3.90954 0
M  V30 1132 C 110.826 1.40381 5.12315 0
M  V30 1133 C 109.865 2.53746 5.57027 0
M  V30 1134 N 109.002 2.11136 6.69601 0
M  V30 1135 H 113.842 1.99048 2.21774 0
M  V30 1136 H 111.379 0.991277 1.08683 0
M  V30 1137 H 113.337 0.434964 4.14926 0
M  V30 1138 H 111.967 -0.227554 3.21997 0
M  V30 1139 H 111.019 2.18992 3.11041 0
M  V30 1140 H 112.331 2.68937 4.20089 0
M  V30 1141 H 111.485 1.12464 5.96185 0
M  V30 1142 H 110.224 0.523015 4.84887 0
M  V30 1143 H 109.229 2.82412 4.71724 0
M  V30 1144 H 110.454 3.42398 5.86464 0
M  V30 1145 H 108.4 1.25468 6.4389 0
M  V30 1146 H 108.317 2.89832 6.98236 0
M  V30 1147 H 109.585 1.86385 7.56889 0
M  V30 1148 N 113.814 -1.1601 1.06675 0
M  V30 1149 C 115.06 -1.87145 0.796766 0
M  V30 1150 C 115.415 -1.8037 -0.669658 0
M  V30 1151 O 114.708 -1.21116 -1.48463 0
M  V30 1152 C 114.902 -3.35547 1.23057 0
M  V30 1153 C 114.731 -3.56769 2.73762 0
M  V30 1154 C 113.501 -3.72635 3.41279 0
M  V30 1155 C 115.699 -3.55166 3.7197 0
M  V30 1156 N 113.681 -3.81845 4.80695 0
M  V30 1157 C 115.052 -3.70406 4.97191 0
M  V30 1158 C 117.107 -3.384 3.65226 0
M  V30 1159 C 115.81 -3.70615 6.16471 0
M  V30 1160 C 117.836 -3.39904 4.83962 0
M  V30 1161 C 117.198 -3.55667 6.08013 0
M  V30 1162 H 113.297 -0.702267 0.344014 0
M  V30 1163 H 115.881 -1.39165 1.36166 0
M  V30 1164 H 114.052 -3.82159 0.693456 0
M  V30 1165 H 115.784 -3.94363 0.908844 0
M  V30 1166 H 112.539 -3.73121 2.91681 0
M  V30 1167 H 112.963 -3.90209 5.53232 0
M  V30 1168 H 117.605 -3.25138 2.70269 0
M  V30 1169 H 115.323 -3.82658 7.11757 0
M  V30 1170 H 118.909 -3.28169 4.80413 0
M  V30 1171 H 117.789 -3.56755 6.98352 0
M  V30 1172 N 115.292 -0.849877 -1.32721 0
M  V30 1173 C 116.225 -0.235903 -2.26977 0
M  V30 1174 C 117.203 0.623355 -1.50177 0
M  V30 1175 O 118.387 0.581207 -1.79316 0
M  V30 1176 C 115.514 0.667712 -3.32053 0
M  V30 1177 C 114.56 -0.11753 -4.26338 0
M  V30 1178 S 115.393 -1.48277 -5.14562 0
M  V30 1179 C 116.549 -0.584741 -6.23163 0
M  V30 1180 H 116.782 -1.03495 -2.78704 0
M  V30 1181 H 114.315 -0.64724 -1.40179 0
M  V30 1182 H 116.273 1.18343 -3.93072 0
M  V30 1183 H 114.934 1.44052 -2.7912 0
M  V30 1184 H 114.127 0.57051 -5.00761 0
M  V30 1185 H 113.729 -0.564668 -3.69713 0
M  V30 1186 H 116.021 0.212968 -6.77165 0
M  V30 1187 H 116.964 -1.29947 -6.96074 0
M  V30 1188 H 117.372 -0.161202 -5.6427 0
M  V30 1189 N 116.77 1.45427 -0.607355 0
M  V30 1190 C 118.019 2.01452 -0.100036 0
M  V30 1191 C 118.332 1.48159 1.27704 0
M  V30 1192 O 119.538 1.96159 1.87707 0
M  V30 1193 C 117.994 3.59672 -0.128158 0
M  V30 1194 C 117.602 4.21962 -1.50507 0
M  V30 1195 C 119.346 4.23262 0.323932 0
M  V30 1196 C 117.253 5.72333 -1.48959 0
M  V30 1197 H 116.183 0.75325 -0.0336299 0
M  V30 1198 H 118.834 1.66901 -0.76265 0
M  V30 1199 H 117.216 3.91411 0.601105 0
M  V30 1200 H 118.39 4.01796 -2.25602 0
M  V30 1201 H 116.705 3.70565 -1.89923 0
M  V30 1202 H 119.302 5.33522 0.354691 0
M  V30 1203 H 119.645 3.93921 1.34656 0
M  V30 1204 H 120.178 3.96239 -0.352056 0
M  V30 1205 H 116.917 6.06373 -2.48981 0
M  V30 1206 H 116.437 5.94691 -0.781214 0
M  V30 1207 H 118.116 6.35525 -1.21313 0
M  V30 1208 N 118.248 0.346503 1.53744 0
M  V30 1209 C 119.659 -0.136779 1.86198 0
M  V30 1210 C 120.01 -1.49749 1.26766 0
M  V30 1211 O 119.135 -2.08417 0.582355 0
M  V30 1212 C 119.73 -0.254966 3.37839 0
M  V30 1213 C 118.289 -0.682482 3.70161 0
M  V30 1214 C 117.436 0.181981 2.76702 0
M  V30 1215 H 120.387 0.565994 1.48264 0
M  V30 1216 H 120.408 -1.08195 3.64793 0
M  V30 1217 H 119.92 0.735526 3.81066 0
M  V30 1218 H 118.021 -1.68189 3.3248 0
M  V30 1219 H 118.134 -0.470326 4.76786 0
M  V30 1220 H 116.498 -0.34615 2.52337 0
M  V30 1221 H 117.281 1.16966 3.2276 0
M  V30 1222 N 119.726 -1.57421 0.075193 0
M  V30 1223 C 120.951 -1.98364 -0.605515 0
M  V30 1224 C 121.376 -0.953383 -1.62149 0
M  V30 1225 O 120.734 0.0806053 -1.81121 0
M  V30 1226 C 120.782 -3.38332 -1.24756 0
M  V30 1227 O 119.886 -3.37959 -2.36342 0
M  V30 1228 H 119.227 -0.645553 -0.155428 0
M  V30 1229 H 121.757 -2.04044 0.150714 0
M  V30 1230 H 121.767 -3.75591 -1.5936 0
M  V30 1231 H 120.442 -4.12846 -0.503129 0
M  V30 1232 H 119.019 -3.12474 -2.03506 0
M  V30 1233 N 121.204 0.198386 -1.56346 0
M  V30 1234 C 122.114 1.2664 -1.97483 0
M  V30 1235 C 123.13 1.49989 -0.882002 0
M  V30 1236 O 124.306 1.62668 -1.18748 0
M  V30 1237 C 121.371 2.59141 -2.30319 0
M  V30 1238 C 120.432 2.43892 -3.53292 0
M  V30 1239 C 119.665 3.70074 -3.84553 0
M  V30 1240 O 119.888 4.74101 -3.1715 0
M  V30 1241 O 118.822 3.658 -4.7799 0
M  V30 1242 H 122.648 0.947304 -2.88548 0
M  V30 1243 H 120.233 0.403123 -1.43859 0
M  V30 1244 H 122.115 3.37352 -2.5253 0
M  V30 1245 H 120.79 2.90684 -1.42423 0
M  V30 1246 H 119.697 1.63803 -3.36332 0
M  V30 1247 H 121.03 2.17282 -4.41644 0
M  V30 1248 N 122.682 1.50554 0.465978 0
M  V30 1249 C 123.645 1.69233 1.54574 0
M  V30 1250 C 124.645 0.562901 1.50626 0
M  V30 1251 O 125.835 0.830016 1.53155 0
M  V30 1252 C 122.967 1.7223 2.94193 0
M  V30 1253 H 124.16 2.65571 1.39327 0
M  V30 1254 H 121.713 1.40111 0.692711 0
M  V30 1255 H 122.448 0.77603 3.14878 0
M  V30 1256 H 122.233 2.54285 2.98466 0
M  V30 1257 H 123.723 1.88618 3.72576 0
M  V30 1258 N 124.16 -0.719506 1.40217 0
M  V30 1259 C 125.107 -1.83359 1.40172 0
M  V30 1260 C 126.077 -1.64065 0.259206 0
M  V30 1261 O 127.262 -1.85254 0.456677 0
M  V30 1262 C 124.402 -3.2103 1.26624 0
M  V30 1263 C 123.515 -3.51923 2.50548 0
M  V30 1264 C 122.65 -4.79079 2.29471 0
M  V30 1265 C 121.689 -5.02863 3.48992 0
M  V30 1266 N 120.826 -6.2123 3.27135 0
M  V30 1267 H 125.666 -1.82733 2.35399 0
M  V30 1268 H 123.203 -0.892688 1.16917 0
M  V30 1269 H 125.161 -4.00524 1.16776 0
M  V30 1270 H 123.791 -3.20895 0.350176 0
M  V30 1271 H 122.843 -2.67014 2.70939 0
M  V30 1272 H 124.155 -3.6541 3.39525 0
M  V30 1273 H 123.309 -5.66582 2.16955 0
M  V30 1274 H 122.048 -4.67794 1.37913 0
M  V30 1275 H 121.053 -4.13816 3.6199 0
M  V30 1276 H 122.278 -5.16023 4.41472 0
M  V30 1277 H 120.224 -6.11204 2.38256 0
M  V30 1278 H 120.141 -6.35375 4.09675 0
M  V30 1279 H 121.409 -7.11532 3.18344 0
M  V30 1280 N 125.638 -1.25649 -0.95132 0
M  V30 1281 C 126.548 -1.08073 -2.08224 0
M  V30 1282 C 127.564 -0.0169666 -1.73992 0
M  V30 1283 O 128.74 -0.218593 -2.0021 0
M  V30 1284 C 125.805 -0.704922 -3.39458 0
M  V30 1285 C 124.866 -1.84699 -3.87537 0
M  V30 1286 C 124.099 -1.48902 -5.12508 0
M  V30 1287 O 124.322 -0.386156 -5.69091 0
M  V30 1288 O 123.256 -2.32033 -5.55378 0
M  V30 1289 H 127.082 -2.02924 -2.25954 0
M  V30 1290 H 124.667 -1.04618 -1.06656 0
M  V30 1291 H 126.549 -0.507609 -4.18332 0
M  V30 1292 H 125.224 0.214291 -3.2299 0
M  V30 1293 H 124.131 -2.09919 -3.09653 0
M  V30 1294 H 125.464 -2.74557 -4.08509 0
M  V30 1295 N 127.117 1.15442 -1.07289 0
M  V30 1296 C 128.342 1.90638 -0.816828 0
M  V30 1297 C 128.767 1.77445 0.624083 0
M  V30 1298 O 128.125 1.10671 1.43602 0
M  V30 1299 C 128.173 3.39008 -1.22906 0
M  V30 1300 O 127.277 4.10701 -0.373975 0
M  V30 1301 H 126.618 0.593555 -0.297638 0
M  V30 1302 H 129.148 1.46198 -1.43134 0
M  V30 1303 H 129.158 3.89801 -1.20497 0
M  V30 1304 H 127.833 3.47929 -2.27856 0
M  V30 1305 H 126.41 3.70046 -0.460499 0
M  V30 1306 N 128.595 0.856903 1.32268 0
M  V30 1307 C 129.528 0.247937 2.26849 0
M  V30 1308 C 130.506 -0.615382 1.50505 0
M  V30 1309 O 131.69 -0.571689 1.79622 0
M  V30 1310 C 128.817 -0.650093 3.32403 0
M  V30 1311 C 127.863 0.140138 4.2627 0
M  V30 1312 S 128.696 1.51004 5.13769 0
M  V30 1313 C 129.852 0.61778 6.22844 0
M  V30 1314 H 130.085 1.04971 2.78152 0
M  V30 1315 H 127.618 0.654665 1.39834 0
M  V30 1316 H 129.576 -1.16256 3.93694 0
M  V30 1317 H 128.237 -1.4257 2.7988 0
M  V30 1318 H 127.43 -0.543945 5.01056 0
M  V30 1319 H 127.032 0.584267 3.69408 0
M  V30 1320 H 129.324 -0.177053 6.77269 0
M  V30 1321 H 130.267 1.33636 6.95375 0
M  V30 1322 H 130.675 0.191124 5.64176 0
M  V30 1323 N 130.073 -1.45103 0.615059 0
M  V30 1324 C 131.35 -1.95549 0.0448276 0
M  V30 1325 C 131.73 -1.55737 -1.4251 0
M  V30 1326 O 131.078 -0.823556 -2.13143 0
M  V30 1327 C 131.288 -3.48098 0.250785 0
M  V30 1328 C 132.636 -4.24384 0.135509 0
M  V30 1329 O 133.66 -3.55738 0.181299 0
M  V30 1330 O 132.519 -5.46493 0.0268878 0
M  V30 1331 H 129.613 -0.8264 -0.0314845 0
M  V30 1332 H 132.159 -1.55232 0.685642 0
M  V30 1333 H 130.931 -3.7007 1.27139 0
M  V30 1334 H 130.554 -3.95323 -0.424937 0
M  V30 1335 N 131.551 -0.354651 -1.53558 0
M  V30 1336 C 132.498 0.496968 -2.25386 0
M  V30 1337 C 133.468 1.0865 -1.25636 0
M  V30 1338 O 134.653 1.12104 -1.54394 0
M  V30 1339 C 131.793 1.63637 -3.03837 0
M  V30 1340 C 130.906 1.07307 -4.18461 0
M  V30 1341 C 130.041 2.18068 -4.84376 0
M  V30 1342 C 129.08 1.59147 -5.91049 0
M  V30 1343 N 128.217 2.63695 -6.50699 0
M  V30 1344 H 133.057 -0.122075 -2.9775 0
M  V30 1345 H 130.594 -0.0720154 -1.46924 0
M  V30 1346 H 132.552 2.30734 -3.47589 0
M  V30 1347 H 131.182 2.22623 -2.33749 0
M  V30 1348 H 130.234 0.292708 -3.79272 0
M  V30 1349 H 131.546 0.602193 -4.95152 0
M  V30 1350 H 130.7 2.93007 -5.31255 0
M  V30 1351 H 129.439 2.68504 -4.07133 0
M  V30 1352 H 128.444 0.827175 -5.43542 0
M  V30 1353 H 129.669 1.09549 -6.70206 0
M  V30 1354 H 127.615 3.13365 -5.76315 0
M  V30 1355 H 127.532 2.21263 -7.22896 0
M  V30 1356 H 128.8 3.3837 -7.02229 0
M  V30 1357 N 133.029 1.57378 -0.0835403 0
M  V30 1358 C 133.977 2.14602 0.89714 0
M  V30 1359 C 134.971 1.08589 1.30018 0
M  V30 1360 O 136.177 1.26952 1.27606 0
M  V30 1361 H 132.552 0.686346 0.3073 0
M  V30 1362 H 134.523 2.95845 0.38969 0
M  V30 1363 C 133.272 2.73188 2.15089 0
M  V30 1364 H 132.595 3.54442 1.84962 0
M  V30 1365 H 134.035 3.1681 2.81793 0
M  V30 1366 C 132.494 1.68517 2.91725 0
M  V30 1367 O 133.024 1.11718 3.85852 0
M  V30 1368 N 131.23 1.39277 2.55049 0
M  V30 1369 H 130.777 1.85655 1.78577 0
M  V30 1370 H 130.735 0.694791 3.06627 0
M  V30 1371 N 134.507 -0.190092 1.56449 0
M  V30 1372 C 135.454 -1.23557 1.94942 0
M  V30 1373 C 136.424 -1.44972 0.810696 0
M  V30 1374 O 137.609 -1.58023 1.06927 0
M  V30 1375 C 134.749 -2.57416 2.2985 0
M  V30 1376 C 133.862 -2.43537 3.5681 0
M  V30 1377 C 132.997 -3.70134 3.81017 0
M  V30 1378 C 132.036 -3.51109 5.01387 0
M  V30 1379 N 131.173 -4.6973 5.21822 0
M  V30 1380 H 136.013 -0.900304 2.84075 0
M  V30 1381 H 133.55 -0.43318 1.40577 0
M  V30 1382 H 135.508 -3.35409 2.48106 0
M  V30 1383 H 134.138 -2.88975 1.43852 0
M  V30 1384 H 133.19 -1.56816 3.46573 0
M  V30 1385 H 134.502 -2.25415 4.4496 0
M  V30 1386 H 133.656 -4.56566 3.9954 0
M  V30 1387 H 132.395 -3.91215 2.91207 0
M  V30 1388 H 131.4 -2.63063 4.82782 0
M  V30 1389 H 132.625 -3.31468 5.9271 0
M  V30 1390 H 130.571 -4.91065 4.34961 0
M  V30 1391 H 130.488 -4.54452 6.0416 0
M  V30 1392 H 131.756 -5.57499 5.44808 0
M  V30 1393 N 135.985 -1.50799 -0.457987 0
M  V30 1394 C 136.918 -1.65273 -1.57353 0
M  V30 1395 C 137.896 -0.500578 -1.54703 0
M  V30 1396 O 139.08 -0.721781 -1.74134 0
M  V30 1397 C 136.207 -1.64737 -2.95938 0
M  V30 1398 C 135.253 -2.8567 -3.16693 0
M  V30 1399 S 136.086 -4.46791 -2.95191 0
M  V30 1400 C 137.242 -4.48968 -4.36095 0
M  V30 1401 H 137.475 -2.59633 -1.44838 0
M  V30 1402 H 135.008 -1.40225 -0.64625 0
M  V30 1403 H 136.966 -1.65112 -3.7583 0
M  V30 1404 H 135.627 -0.715899 -3.05833 0
M  V30 1405 H 134.82 -2.81637 -4.17967 0
M  V30 1406 H 134.422 -2.8293 -2.44594 0
M  V30 1407 H 136.714 -4.23337 -5.28954 0
M  V30 1408 H 137.657 -5.50664 -4.45168 0
M  V30 1409 H 138.065 -3.78522 -4.18786 0
M  V30 1410 N 137.463 0.71206 -1.40597 0
M  V30 1411 C 138.711 1.46907 -1.38791 0
M  V30 1412 C 139.032 1.94998 0.00780391 0
M  V30 1413 O 138.302 1.70587 0.963174 0
M  V30 1414 H 136.882 0.545043 -0.51082 0
M  V30 1415 H 139.544 0.843882 -1.75683 0
M  V30 1416 H 138.64 2.34021 -2.06496 0
M  V30 1417 N 138.941 1.26152 0.944643 0
M  V30 1418 C 139.871 1.09902 2.06019 0
M  V30 1419 C 140.852 0.00519538 1.70099 0
M  V30 1420 O 142.037 0.176583 1.93396 0
M  V30 1421 C 139.167 0.727562 3.39594 0
M  V30 1422 C 138.121 1.77274 3.89561 0
M  V30 1423 C 137.447 1.25569 5.19747 0
M  V30 1424 C 138.747 3.17357 4.14827 0
M  V30 1425 H 140.441 2.03217 2.19871 0
M  V30 1426 H 137.987 0.978452 1.05652 0
M  V30 1427 H 139.94 0.600777 4.17095 0
M  V30 1428 H 138.664 -0.241287 3.25707 0
M  V30 1429 H 137.323 1.88814 3.14237 0
M  V30 1430 H 136.971 0.276783 5.02238 0
M  V30 1431 H 136.671 1.95433 5.54148 0
M  V30 1432 H 138.195 1.1415 5.99835 0
M  V30 1433 H 139.609 3.08914 4.82954 0
M  V30 1434 H 138.006 3.84781 4.60504 0
M  V30 1435 H 139.076 3.63673 3.20734 0
M  V30 1436 N 140.419 -1.14872 1.07899 0
M  V30 1437 C 141.366 -2.19791 0.704319 0
M  V30 1438 C 142.336 -1.63238 -0.306987 0
M  V30 1439 O 143.521 -1.8983 -0.192171 0
M  V30 1440 C 140.661 -3.44911 0.114244 0
M  V30 1441 C 139.774 -4.15637 1.1777 0
M  V30 1442 C 138.909 -5.28324 0.552037 0
M  V30 1443 C 137.948 -5.90875 1.59789 0
M  V30 1444 N 137.085 -6.95022 0.994404 0
M  V30 1445 H 141.925 -2.5119 1.60336 0
M  V30 1446 H 139.462 -1.23356 0.801352 0
M  V30 1447 H 141.42 -4.16477 -0.245544 0
M  V30 1448 H 140.05 -3.14011 -0.74813 0
M  V30 1449 H 139.102 -3.42512 1.65499 0
M  V30 1450 H 140.414 -4.5823 1.97046 0
M  V30 1451 H 139.568 -6.06538 0.1402 0
M  V30 1452 H 138.307 -4.86939 -0.272431 0
M  V30 1453 H 137.312 -5.11369 2.01945 0
M  V30 1454 H 138.537 -6.34337 2.42474 0
M  V30 1455 H 136.483 -6.55722 0.190939 0
M  V30 1456 H 136.4 -7.36073 1.72432 0
M  V30 1457 H 137.668 -7.77123 0.608253 0
M  V30 1458 N 141.898 -0.863906 -1.31812 0
M  V30 1459 C 143.146 -0.470904 -1.96537 0
M  V30 1460 C 143.467 0.978771 -1.68657 0
M  V30 1461 O 142.737 1.6853 -0.998717 0
M  V30 1462 H 141.317 -0.171148 -0.72713 0
M  V30 1463 H 143.979 -1.10236 -1.60729 0
M  V30 1464 H 143.075 -0.623616 -3.05806 0
M  V30 1465 N 143.376 1.44774 -0.622745 0
M  V30 1466 C 144.787 1.85546 -0.207226 0
M  V30 1467 C 145.138 1.52093 1.23944 0
M  V30 1468 O 144.263 0.95492 1.94191 0
M  V30 1469 C 144.858 3.36781 -0.369313 0
M  V30 1470 C 143.417 3.76399 -0.00836847 0
M  V30 1471 C 142.564 2.68664 -0.686651 0
M  V30 1472 H 145.515 1.3536 -0.828454 0
M  V30 1473 H 145.536 3.78453 0.394162 0
M  V30 1474 H 145.048 3.61098 -1.42231 0
M  V30 1475 H 143.149 3.57698 1.04322 0
M  V30 1476 H 143.262 4.7732 -0.412584 0
M  V30 1477 H 141.626 2.54404 -0.122777 0
M  V30 1478 H 142.409 2.95815 -1.74208 0
M  V30 1479 N 144.854 0.36279 1.53368 0
M  V30 1480 C 145.784 -0.476976 2.28576 0
M  V30 1481 C 146.765 -1.08631 1.30894 0
M  V30 1482 O 147.95 -1.10409 1.59761 0
M  V30 1483 C 145.08 -1.61828 3.07293 0
M  V30 1484 C 144.034 -1.13633 4.1264 0
M  V30 1485 C 143.36 -2.36766 4.79423 0
M  V30 1486 C 144.66 -0.223061 5.21823 0
M  V30 1487 H 146.354 0.150474 2.99022 0
M  V30 1488 H 143.9 0.0738103 1.43811 0
M  V30 1489 H 145.853 -2.21237 3.58653 0
M  V30 1490 H 144.577 -2.27292 2.34533 0
M  V30 1491 H 143.236 -0.564945 3.62221 0
M  V30 1492 H 142.884 -3.0068 4.03238 0
M  V30 1493 H 142.584 -2.05192 5.50609 0
M  V30 1494 H 144.108 -2.96865 5.33576 0
M  V30 1495 H 145.522 -0.724545 5.68703 0
M  V30 1496 H 143.919 0.001678 6.001 0
M  V30 1497 H 144.989 0.735553 4.79289 0
M  V30 1498 N 146.332 -1.57332 0.0918853 0
M  V30 1499 C 147.279 -2.13847 -0.868211 0
M  V30 1500 C 148.249 -1.05618 -1.28196 0
M  V30 1501 O 149.434 -1.33387 -1.36427 0
M  V30 1502 C 146.574 -2.72062 -2.12312 0
M  V30 1503 C 145.687 -3.94514 -1.7602 0
M  V30 1504 C 144.822 -4.40903 -2.96273 0
M  V30 1505 C 143.861 -5.55953 -2.56092 0
M  V30 1506 N 142.998 -5.97209 -3.69169 0
M  V30 1507 H 147.838 -2.95575 -0.379406 0
M  V30 1508 H 145.375 -1.46048 -0.175606 0
M  V30 1509 H 147.333 -3.03931 -2.858 0
M  V30 1510 H 145.963 -1.93068 -2.58698 0
M  V30 1511 H 145.015 -3.68979 -0.925135 0
M  V30 1512 H 146.327 -4.7802 -1.42472 0
M  V30 1513 H 145.481 -4.74539 -3.78018 0
M  V30 1514 H 144.22 -3.56291 -3.33029 0
M  V30 1515 H 143.225 -5.21948 -1.72773 0
M  V30 1516 H 144.45 -6.42311 -2.20484 0
M  V30 1517 H 142.396 -5.15543 -4.05649 0
M  V30 1518 H 142.313 -6.75504 -3.39456 0
M  V30 1519 H 143.581 -6.35475 -4.51434 0
M  V30 1520 N 147.81 0.181792 -1.56548 0
M  V30 1521 C 149.038 0.915947 -1.85521 0
M  V30 1522 C 149.453 1.76282 -0.676016 0
M  V30 1523 O 148.81 1.79012 0.355077 0
M  V30 1524 C 148.861 1.80126 -3.13427 0
M  V30 1525 O 148.582 0.988562 -4.26801 0
M  V30 1526 C 150.083 2.64597 -3.55673 0
M  V30 1527 H 147.303 0.26661 -0.61576 0
M  V30 1528 H 149.847 0.185039 -2.03661 0
M  V30 1529 H 148.002 2.48563 -2.97145 0
M  V30 1530 H 148.416 1.59308 -4.99721 0
M  V30 1531 H 149.89 3.2235 -4.48101 0
M  V30 1532 H 150.367 3.38958 -2.79292 0
M  V30 1533 H 150.973 2.0151 -3.74532 0
M  V30 1534 N 149.288 1.51039 0.449983 0
M  V30 1535 C 150.699 1.557 1.03026 0
M  V30 1536 C 151.05 0.372939 1.92623 0
M  V30 1537 O 150.175 -0.511771 2.10261 0
M  V30 1538 C 150.77 2.82171 1.87523 0
M  V30 1539 C 149.329 2.89444 2.40622 0
M  V30 1540 C 148.476 2.50228 1.19504 0
M  V30 1541 H 151.427 1.56999 0.231745 0
M  V30 1542 H 151.448 2.65219 2.72835 0
M  V30 1543 H 150.96 3.68331 1.22286 0
M  V30 1544 H 149.061 2.07685 3.0935 0
M  V30 1545 H 149.174 3.92816 2.74285 0
M  V30 1546 H 147.538 2.03139 1.53644 0
M  V30 1547 H 148.321 3.38719 0.558972 0
M  V30 1548 N 150.766 -0.704594 1.40972 0
M  V30 1549 C 152.015 -1.46018 1.39146 0
M  V30 1550 C 152.328 -1.956 0.000589254 0
M  V30 1551 O 153.534 -2.71137 -0.1403 0
M  V30 1552 C 151.99 -2.63996 2.4461 0
M  V30 1553 C 151.598 -2.21238 3.89561 0
M  V30 1554 C 153.342 -3.41677 2.51907 0
M  V30 1555 C 151.249 -3.3612 4.86598 0
M  V30 1556 H 150.179 -0.548444 0.517422 0
M  V30 1557 H 152.83 -0.765784 1.66757 0
M  V30 1558 H 151.212 -3.3566 2.10115 0
M  V30 1559 H 152.386 -1.56923 4.33257 0
M  V30 1560 H 150.701 -1.56574 3.85841 0
M  V30 1561 H 153.298 -4.27182 3.2159 0
M  V30 1562 H 153.641 -3.86247 1.55303 0
M  V30 1563 H 154.174 -2.77064 2.85448 0
M  V30 1564 H 150.913 -2.96572 5.84573 0
M  V30 1565 H 150.433 -3.99315 4.47557 0
M  V30 1566 H 152.112 -4.02029 5.06934 0
M  V30 1567 N 152.244 -1.26651 -0.937939 0
M  V30 1568 C 153.207 -1.08546 -2.01867 0
M  V30 1569 C 154.207 -0.0327327 -1.60767 0
M  V30 1570 O 155.397 -0.276427 -1.71993 0
M  V30 1571 C 152.529 -0.651711 -3.34613 0
M  V30 1572 H 153.722 -2.04502 -2.1936 0
M  V30 1573 H 151.275 -1.09294 -1.11734 0
M  V30 1574 H 152.01 0.309696 -3.22818 0
M  V30 1575 H 151.795 -1.41189 -3.65798 0
M  V30 1576 H 153.285 -0.546973 -4.14002 0
M  V30 1577 N 153.722 1.14298 -1.08507 0
M  V30 1578 C 154.685 2.17607 -0.719711 0
M  V30 1579 C 155.685 1.58907 0.245997 0
M  V30 1580 O 156.875 1.74181 0.0254081 0
M  V30 1581 C 154.007 3.40842 -0.0627695 0
M  V30 1582 H 155.2 2.51443 -1.63452 0
M  V30 1583 H 152.753 1.28963 -0.88307 0
M  V30 1584 H 153.488 3.12587 0.863716 0
M  V30 1585 H 153.273 3.84713 -0.757504 0
M  V30 1586 H 154.763 4.17221 0.177786 0
M  V30 1587 N 155.201 0.870884 1.31352 0
M  V30 1588 C 156.449 0.48132 1.96285 0
M  V30 1589 C 156.77 -0.969813 1.69173 0
M  V30 1590 O 156.04 -1.67998 1.00764 0
M  V30 1591 H 154.62 0.175002 0.726212 0
M  V30 1592 H 157.282 1.11087 1.60143 0
M  V30 1593 H 156.378 0.639825 3.05471 0
M  V30 1594 N 156.679 -1.44442 0.630414 0
M  V30 1595 C 157.629 -2.27794 -0.0968103 0
M  V30 1596 C 158.613 -1.38624 -0.816834 0
M  V30 1597 O 159.805 -1.62438 -0.70306 0
M  V30 1598 C 156.934 -3.25929 -1.07819 0
M  V30 1599 C 156.02 -4.22588 -0.357826 0
M  V30 1600 N 156.411 -5.0207 0.613169 0
M  V30 1601 C 154.709 -4.41914 -0.602365 0
M  V30 1602 C 155.41 -5.72351 1.03871 0
M  V30 1603 N 154.386 -5.42287 0.377642 0
M  V30 1604 H 158.188 -2.86653 0.648621 0
M  V30 1605 H 155.702 -1.55871 0.455862 0
M  V30 1606 H 157.699 -3.84399 -1.61378 0
M  V30 1607 H 156.359 -2.68631 -1.82393 0
M  V30 1608 H 157.37 -5.08331 0.990947 0
M  V30 1609 H 154.047 -3.95714 -1.33103 0
M  V30 1610 H 155.437 -6.4619 1.84086 0
M  V30 1611 N 158.157 -0.370918 -1.53173 0
M  V30 1612 C 159.568 0.107139 -1.86392 0
M  V30 1613 C 159.919 1.47714 -1.29132 0
M  V30 1614 O 159.044 2.07464 -0.615439 0
M  V30 1615 C 159.639 0.201187 -3.38202 0
M  V30 1616 C 158.198 0.623507 -3.712 0
M  V30 1617 C 157.345 -0.225978 -2.76378 0
M  V30 1618 H 160.296 -0.58951 -1.47345 0
M  V30 1619 H 160.317 1.02377 -3.66468 0
M  V30 1620 H 159.829 -0.796058 -3.79848 0
M  V30 1621 H 157.93 1.62879 -3.35114 0
M  V30 1622 H 158.043 0.394414 -4.77474 0
M  V30 1623 H 156.407 0.305962 -2.52856 0
M  V30 1624 H 157.19 -1.22086 -3.20858 0
M  V30 1625 N 159.635 1.57281 -0.100228 0
M  V30 1626 C 160.86 1.99302 0.573881 0
M  V30 1627 C 161.285 0.979059 1.60611 0
M  V30 1628 O 160.643 -0.0517803 1.81226 0
M  V30 1629 C 160.691 3.40274 1.19358 0
M  V30 1630 O 159.795 3.41676 2.30935 0
M  V30 1631 H 159.136 0.647944 0.145138 0
M  V30 1632 H 161.666 2.03779 -0.183156 0
M  V30 1633 H 161.676 3.78078 1.53365 0
M  V30 1634 H 160.351 4.13594 0.437385 0
M  V30 1635 H 158.928 3.15672 1.98509 0
M  V30 1636 N 161.113 -0.173488 1.56642 0
M  V30 1637 C 162.046 -1.24353 1.91342 0
M  V30 1638 C 163.024 -1.4289 0.775965 0
M  V30 1639 O 164.208 -1.57932 1.02907 0
M  V30 1640 C 161.335 -2.60683 2.16245 0
M  V30 1641 C 160.381 -2.58894 3.38934 0
M  V30 1642 S 161.214 -2.0819 4.93373 0
M  V30 1643 C 162.37 -3.46302 5.21369 0
M  V30 1644 H 162.603 -0.947345 2.81803 0
M  V30 1645 H 160.136 -0.377958 1.49703 0
M  V30 1646 H 162.094 -3.39149 2.31275 0
M  V30 1647 H 160.755 -2.87502 1.26496 0
M  V30 1648 H 159.948 -3.59188 3.53553 0
M  V30 1649 H 159.55 -1.88522 3.2301 0
M  V30 1650 H 161.842 -4.42287 5.13214 0
M  V30 1651 H 162.785 -3.3656 6.23003 0
M  V30 1652 H 163.193 -3.42214 4.48943 0
M  V30 1653 N 162.591 -1.51276 -0.441967 0
M  V30 1654 C 163.539 -1.72823 -1.55676 0
M  V30 1655 C 164.533 -0.59445 -1.58627 0
M  V30 1656 O 165.739 -0.775715 -1.62427 0
M  V30 1657 H 162.114 -0.545983 -0.517113 0
M  V30 1658 H 164.085 -2.6628 -1.34675 0
M  V30 1659 C 162.834 -1.86619 -2.93375 0
M  V30 1660 H 162.157 -2.73264 -2.91834 0
M  V30 1661 H 163.597 -2.05709 -3.70756 0
M  V30 1662 C 162.056 -0.624842 -3.31055 0
M  V30 1663 O 162.586 0.222636 -4.01083 0
M  V30 1664 N 160.792 -0.470288 -2.86769 0
M  V30 1665 H 160.339 -1.161 -2.29953 0
M  V30 1666 H 160.297 0.359051 -3.12343 0
M  V30 1667 N 164.069 0.697108 -1.41344 0
M  V30 1668 C 164.999 1.82353 -1.45841 0
M  V30 1669 C 165.98 1.67115 -0.317247 0
M  V30 1670 O 167.165 1.86871 -0.528474 0
M  V30 1671 C 164.295 3.20476 -1.33838 0
M  V30 1672 C 163.249 3.50415 -2.4575 0
M  V30 1673 C 162.575 4.87878 -2.18813 0
M  V30 1674 C 163.875 3.49546 -3.88091 0
M  V30 1675 H 165.569 1.78846 -2.40113 0
M  V30 1676 H 163.115 0.859028 -1.15571 0
M  V30 1677 H 165.068 3.98988 -1.35596 0
M  V30 1678 H 163.792 3.24604 -0.360498 0
M  V30 1679 H 162.451 2.74253 -2.43271 0
M  V30 1680 H 162.099 4.8863 -1.19371 0
M  V30 1681 H 161.799 5.08875 -2.93803 0
M  V30 1682 H 163.323 5.68702 -2.22284 0
M  V30 1683 H 164.737 4.18066 -3.92293 0
M  V30 1684 H 163.134 3.82075 -4.62751 0
M  V30 1685 H 164.204 2.48552 -4.16353 0
M  V30 1686 N 165.547 1.27147 0.931209 0
M  V30 1687 C 166.477 1.12081 2.04842 0
M  V30 1688 C 167.458 0.0232364 1.70084 0
M  V30 1689 O 168.643 0.197085 1.93197 0
M  V30 1690 C 165.773 0.76354 3.38803 0
M  V30 1691 C 164.727 1.81396 3.87659 0
M  V30 1692 C 164.053 1.31075 5.18385 0
M  V30 1693 C 165.353 3.21739 4.11438 0
M  V30 1694 H 167.047 2.05537 2.17703 0
M  V30 1695 H 164.593 0.989603 1.04608 0
M  V30 1696 H 166.546 0.644982 4.16435 0
M  V30 1697 H 165.27 -0.206727 3.25945 0
M  V30 1698 H 163.929 1.92136 3.12217 0
M  V30 1699 H 163.577 0.330037 5.01916 0
M  V30 1700 H 163.277 2.013 5.52044 0
M  V30 1701 H 164.801 1.20506 5.98591 0
M  V30 1702 H 166.215 3.14019 4.79651 0
M  V30 1703 H 164.612 3.89644 4.56397 0
M  V30 1704 H 165.682 3.67054 3.16859 0
M  V30 1705 N 167.025 -1.13721 1.09112 0
M  V30 1706 C 167.955 -2.21148 0.749385 0
M  V30 1707 C 168.936 -1.6792 -0.271475 0
M  V30 1708 O 170.121 -1.93693 -0.140251 0
M  V30 1709 C 167.251 -3.46905 0.165659 0
M  V30 1710 C 166.205 -4.13203 1.11567 0
M  V30 1711 C 165.531 -5.33248 0.393809 0
M  V30 1712 C 166.831 -4.60912 2.45678 0
M  V30 1713 H 168.525 -2.4999 1.64758 0
M  V30 1714 H 166.071 -1.20156 0.793626 0
M  V30 1715 H 168.024 -4.21313 -0.085466 0
M  V30 1716 H 166.748 -3.17449 -0.767714 0
M  V30 1717 H 165.407 -3.40758 1.35202 0
M  V30 1718 H 165.055 -5.00054 -0.543599 0
M  V30 1719 H 164.755 -5.78552 1.02721 0
M  V30 1720 H 166.279 -6.10413 0.150908 0
M  V30 1721 H 167.693 -5.26759 2.26269 0
M  V30 1722 H 166.09 -5.16944 3.04776 0
M  V30 1723 H 167.16 -3.75603 3.06677 0
M  V30 1724 N 168.503 -0.877838 -1.30888 0
M  V30 1725 C 169.919 -0.570844 -1.49042 0
M  V30 1726 C 170.119 0.893159 -1.80624 0
M  V30 1727 O 169.175 1.67485 -1.88958 0
M  V30 1728 C 170.488 -1.47784 -2.61878 0
M  V30 1729 C 172.036 -1.48071 -2.75761 0
M  V30 1730 C 172.511 -2.37347 -3.91702 0
M  V30 1731 N 174.002 -2.35271 -3.99001 0
M  V30 1732 C 174.737 -3.01063 -4.88004 0
M  V30 1733 N 174.233 -3.76055 -5.81854 0
M  V30 1734 N 176.026 -2.90332 -4.81315 0
M  V30 1735 H 168.177 -1.82502 -1.0866 0
M  V30 1736 H 170.44 -0.780797 -0.537644 0
M  V30 1737 H 170.146 -2.51993 -2.45341 0
M  V30 1738 H 170.02 -1.18215 -3.58197 0
M  V30 1739 H 172.407 -0.446166 -2.91708 0
M  V30 1740 H 172.488 -1.81668 -1.80085 0
M  V30 1741 H 172.132 -3.40883 -3.76512 0
M  V30 1742 H 172.062 -2.01071 -4.86701 0
M  V30 1743 H 174.553 -1.80768 -3.3186 0
M  V30 1744 H 174.866 -4.23366 -6.46514 0
M  V30 1745 H 173.211 -3.80163 -5.81808 0
M  V30 1746 H 176.402 -2.31278 -4.06974 0
M  V30 1747 H 176.575 -3.41885 -5.50471 0
M  V30 1748 N 169.982 1.44106 -0.638065 0
M  V30 1749 C 170.929 2.30715 0.062701 0
M  V30 1750 C 171.899 1.43882 0.829883 0
M  V30 1751 O 173.084 1.72775 0.809532 0
M  V30 1752 C 170.224 3.29258 1.03358 0
M  V30 1753 C 169.337 4.31192 0.26409 0
M  V30 1754 C 168.472 5.16825 1.22741 0
M  V30 1755 C 167.511 6.10462 0.447475 0
M  V30 1756 N 166.648 6.8877 1.36161 0
M  V30 1757 H 171.488 2.90096 -0.681781 0
M  V30 1758 H 169.025 1.42925 -0.347988 0
M  V30 1759 H 170.983 3.84886 1.60992 0
M  V30 1760 H 169.613 2.71562 1.74511 0
M  V30 1761 H 168.665 3.77981 -0.428295 0
M  V30 1762 H 169.977 4.97619 -0.343052 0
M  V30 1763 H 169.131 5.77004 1.87487 0
M  V30 1764 H 167.87 4.50488 1.86847 0
M  V30 1765 H 166.875 5.49386 -0.213433 0
M  V30 1766 H 168.1 6.78837 -0.188968 0
M  V30 1767 H 166.046 6.25096 1.98975 0
M  V30 1768 H 165.963 7.51663 0.808656 0
M  V30 1769 H 167.231 7.53467 1.99769 0
M  V30 1770 N 171.46 0.379036 1.52974 0
M  V30 1771 C 172.688 -0.20679 2.05864 0
M  V30 1772 C 173.103 -1.41356 1.25155 0
M  V30 1773 O 172.46 -1.8009 0.295588 0
M  V30 1774 C 172.511 -0.587045 3.56702 0
M  V30 1775 O 172.232 0.571776 4.34353 0
M  V30 1776 C 173.733 -1.22983 4.25899 0
M  V30 1777 H 170.953 -0.0336123 0.670158 0
M  V30 1778 H 173.497 0.541298 1.97206 0
M  V30 1779 H 171.652 -1.28504 3.65466 0
M  V30 1780 H 172.066 0.261544 5.23847 0
M  V30 1781 H 173.54 -1.44635 5.32715 0
M  V30 1782 H 174.017 -2.19416 3.80465 0
M  V30 1783 H 174.623 -0.572892 4.21424 0
M  V30 1784 N 172.938 -1.57226 0.108567 0
M  V30 1785 C 174.185 -1.94833 -0.551943 0
M  V30 1786 C 174.513 -0.991204 -1.67348 0
M  V30 1787 O 173.768 -0.0131878 -1.95696 0
M  V30 1788 C 174.067 -3.38911 -1.13463 0
M  V30 1789 C 173.733 -4.50696 -0.135509 0
M  V30 1790 C 172.395 -4.80998 0.139252 0
M  V30 1791 C 174.747 -5.18333 0.545957 0
M  V30 1792 C 172.075 -5.76259 1.10194 0
M  V30 1793 C 174.427 -6.14627 1.49721 0
M  V30 1794 C 173.091 -6.43327 1.78006 0
M  V30 1795 H 172.361 -0.712944 -0.20197 0
M  V30 1796 H 175.008 -1.90582 0.18726 0
M  V30 1797 H 173.313 -3.39805 -1.95037 0
M  V30 1798 H 175.01 -3.65317 -1.65362 0
M  V30 1799 H 171.6 -4.27087 -0.359846 0
M  V30 1800 H 175.784 -4.95087 0.346842 0
M  V30 1801 H 171.04 -5.96804 1.32795 0
M  V30 1802 H 175.214 -6.66126 2.03099 0
M  V30 1803 H 172.841 -7.1695 2.52759 0
M  V30 1804 N 174.416 0.165178 -1.56732 0
M  V30 1805 C 175.693 0.908443 -1.73224 0
M  V30 1806 C 176.073 2.0013 -0.67165 0
M  V30 1807 O 175.421 2.26353 0.31253 0
M  V30 1808 C 175.631 1.46756 -3.16644 0
M  V30 1809 C 176.979 1.93809 -3.77787 0
M  V30 1810 O 178.003 1.56537 -3.1996 0
M  V30 1811 O 176.862 2.62486 -4.79336 0
M  V30 1812 H 173.956 0.428025 -0.707618 0
M  V30 1813 H 176.502 0.152526 -1.69013 0
M  V30 1814 H 175.274 0.68129 -3.85323 0
M  V30 1815 H 174.897 2.28749 -3.25207 0
M  V30 1816 N 175.894 1.51508 0.433938 0
M  V30 1817 C 176.824 1.76016 1.53429 0
M  V30 1818 C 177.805 0.610112 1.58782 0
M  V30 1819 O 178.99 0.853177 1.74455 0
M  V30 1820 C 176.12 1.88831 2.9148 0
M  V30 1821 C 175.074 3.04288 3.00987 0
M  V30 1822 C 174.4 3.0229 4.4105 0
M  V30 1823 C 175.7 4.44193 2.74754 0
M  V30 1824 H 177.394 2.68152 1.33171 0
M  V30 1825 H 174.94 1.29035 0.639214 0
M  V30 1826 H 176.893 2.04559 3.6842 0
M  V30 1827 H 175.617 0.933455 3.12976 0
M  V30 1828 H 174.276 2.8827 2.26486 0
M  V30 1829 H 173.924 2.04576 4.59519 0
M  V30 1830 H 173.624 3.79822 4.4834 0
M  V30 1831 H 175.148 3.20116 5.1996 0
M  V30 1832 H 176.562 4.60544 3.41426 0
M  V30 1833 H 174.959 5.23457 2.9345 0
M  V30 1834 H 176.029 4.53996 1.70339 0
M  V30 1835 N 177.372 -0.689602 1.41712 0
M  V30 1836 C 178.602 -1.47613 1.44548 0
M  V30 1837 C 179.01 -1.89132 0.0509034 0
M  V30 1838 O 178.353 -1.57741 -0.94146 0
M  V30 1839 C 178.415 -2.76596 2.2964 0
M  V30 1840 C 178.079 -2.57245 3.77722 0
M  V30 1841 C 179.076 -2.22804 4.69739 0
M  V30 1842 C 176.761 -2.727 4.2183 0
M  V30 1843 C 178.755 -2.04064 6.03851 0
M  V30 1844 C 176.442 -2.53576 5.56006 0
M  V30 1845 C 177.44 -2.1931 6.46832 0
M  V30 1846 O 177.128 -2.00359 7.78532 0
M  V30 1847 H 176.86 -0.461227 0.494212 0
M  V30 1848 H 179.414 -0.856045 1.86711 0
M  V30 1849 H 177.644 -3.41033 1.82301 0
M  V30 1850 H 179.333 -3.38424 2.24107 0
M  V30 1851 H 180.099 -2.10473 4.36951 0
M  V30 1852 H 175.978 -2.98353 3.51435 0
M  V30 1853 H 179.522 -1.77241 6.74708 0
M  V30 1854 H 175.419 -2.65499 5.88371 0
M  V30 1855 H 176.187 -2.15075 7.89737 0
M  V30 1856 N 178.85 -1.27639 -0.924453 0
M  V30 1857 C 179.813 -1.10681 -2.00705 0
M  V30 1858 C 180.813 -0.0497823 -1.60723 0
M  V30 1859 O 182.003 -0.294654 -1.7169 0
M  V30 1860 C 179.135 -0.687164 -3.33902 0
M  V30 1861 H 180.328 -2.06817 -2.17179 0
M  V30 1862 H 177.881 -1.10473 -1.10569 0
M  V30 1863 H 178.616 0.275439 -3.23128 0
M  V30 1864 H 178.401 -1.45061 -3.6428 0
M  V30 1865 H 179.891 -0.590853 -4.13399 0
M  V30 1866 N 180.328 1.1314 -1.09713 0
M  V30 1867 C 181.276 2.20717 -0.733934 0
M  V30 1868 C 182.27 1.6729 0.266506 0
M  V30 1869 O 183.476 1.79547 0.127656 0
M  V30 1870 H 179.851 0.719292 -0.21937 0
M  V30 1871 H 181.822 2.48611 -1.6503 0
M  V30 1872 C 180.571 3.47265 -0.173849 0
M  V30 1873 H 179.894 3.88716 -0.934873 0
M  V30 1874 H 181.334 4.23979 0.0423126 0
M  V30 1875 C 179.793 3.18724 1.09164 0
M  V30 1876 O 180.323 3.37762 2.17439 0
M  V30 1877 N 178.529 2.72583 1.00732 0
M  V30 1878 H 178.076 2.57291 0.126121 0
M  V30 1879 H 178.034 2.53862 1.85476 0
M  V30 1880 N 181.806 0.884767 1.30421 0
M  V30 1881 C 183.052 0.503851 1.96441 0
M  V30 1882 C 183.385 -0.944518 1.69684 0
M  V30 1883 O 182.66 -1.66737 1.00145 0
M  V30 1884 C 182.943 0.779085 3.51571 0
M  V30 1885 C 182.796 2.27807 3.87846 0
M  V30 1886 C 184.115 0.255452 4.39358 0
M  V30 1887 H 181.234 0.184533 0.713524 0
M  V30 1888 H 183.876 1.10872 1.54297 0
M  V30 1889 H 182.026 0.264274 3.876 0
M  V30 1890 H 183.698 2.86127 3.61841 0
M  V30 1891 H 181.941 2.74479 3.35922 0
M  V30 1892 H 182.612 2.42125 4.96064 0
M  V30 1893 H 185.088 0.696079 4.10236 0
M  V30 1894 H 183.964 0.477361 5.4682 0
M  V30 1895 H 184.225 -0.843293 4.33983 0
M  V30 1896 N 183.284 -1.43765 0.645699 0
M  V30 1897 C 184.7 -1.56509 0.312591 0
M  V30 1898 C 184.9 -1.6307 -1.18365 0
M  V30 1899 O 183.956 -1.58167 -1.96824 0
M  V30 1900 C 185.269 -2.82968 1.01733 0
M  V30 1901 C 186.817 -2.96701 0.996865 0
M  V30 1902 C 187.292 -4.25982 1.68236 0
M  V30 1903 N 188.783 -4.32829 1.64964 0
M  V30 1904 C 189.518 -5.31613 2.14885 0
M  V30 1905 N 189.014 -6.36718 2.73061 0
M  V30 1906 N 190.807 -5.23217 2.05428 0
M  V30 1907 H 182.958 -1.3775 1.61675 0
M  V30 1908 H 185.221 -0.661067 0.679481 0
M  V30 1909 H 184.927 -2.84156 2.0724 0
M  V30 1910 H 184.801 -3.72957 0.564177 0
M  V30 1911 H 187.188 -2.95058 -0.0497719 0
M  V30 1912 H 187.269 -2.08022 1.48865 0
M  V30 1913 H 186.913 -4.28386 2.72852 0
M  V30 1914 H 186.843 -5.13545 1.16529 0
M  V30 1915 H 189.334 -3.57493 1.22503 0
M  V30 1916 H 189.647 -7.08401 3.08848 0
M  V30 1917 H 187.992 -6.37362 2.77118 0
M  V30 1918 H 191.183 -4.40019 1.59689 0
M  V30 1919 H 191.356 -6.00045 2.44643 0
M  V30 1920 N 184.763 -0.387143 -1.52771 0
M  V30 1921 C 186.174 0.0873634 -1.86495 0
M  V30 1922 C 186.525 1.46336 -1.30691 0
M  V30 1923 O 185.65 2.068 -0.637409 0
M  V30 1924 C 186.245 0.165305 -3.38396 0
M  V30 1925 C 184.804 0.584101 -3.7184 0
M  V30 1926 C 183.951 -0.255279 -2.76122 0
M  V30 1927 H 186.902 -0.605104 -1.46711 0
M  V30 1928 H 186.923 0.984848 -3.67534 0
M  V30 1929 H 186.435 -0.836301 -3.78982 0
M  V30 1930 H 184.536 1.59315 -3.36823 0
M  V30 1931 H 184.649 0.343749 -4.77865 0
M  V30 1932 H 183.013 0.279126 -2.53166 0
M  V30 1933 H 183.796 -1.25482 -3.19545 0
M  V30 1934 N 186.241 1.57166 -0.116904 0
M  V30 1935 C 187.481 1.97008 0.544715 0
M  V30 1936 C 187.845 0.998713 1.63981 0
M  V30 1937 O 189.046 1.28644 2.36018 0
M  V30 1938 C 187.317 3.41145 1.06559 0
M  V30 1939 S 188.876 4.02998 1.73603 0
M  V30 1940 H 185.694 0.688587 0.177112 0
M  V30 1941 H 188.296 1.94459 -0.201487 0
M  V30 1942 H 187 4.09592 0.257374 0
M  V30 1943 H 186.531 3.4734 1.84712 0
M  V30 1944 H 188.546 3.93585 3.02168 0
M  V30 1945 N 187.719 -0.156864 1.56817 0
M  V30 1946 C 188.965 -0.872416 1.83076 0
M  V30 1947 C 189.298 -1.81261 0.697001 0
M  V30 1948 O 188.573 -1.92171 -0.30008 0
M  V30 1949 C 188.856 -1.65551 3.19789 0
M  V30 1950 C 188.709 -0.737467 4.43713 0
M  V30 1951 C 190.028 -2.62012 3.53606 0
M  V30 1952 H 187.147 -0.315715 0.665953 0
M  V30 1953 H 189.789 -0.138004 1.89498 0
M  V30 1954 H 187.939 -2.28159 3.14445 0
M  V30 1955 H 189.611 -0.123143 4.61136 0
M  V30 1956 H 187.854 -0.0464067 4.33775 0
M  V30 1957 H 188.525 -1.32122 5.35955 0
M  V30 1958 H 191.001 -2.09525 3.59497 0
M  V30 1959 H 189.877 -3.13861 4.50314 0
M  V30 1960 H 190.138 -3.42902 2.79053 0
M  V30 1961 N 189.197 -1.51736 -0.425897 0
M  V30 1962 C 190.422 -1.69082 -1.20108 0
M  V30 1963 C 190.847 -0.392398 -1.83962 0
M  V30 1964 O 190.205 0.64858 -1.69302 0
M  V30 1965 C 190.253 -2.81604 -2.25237 0
M  V30 1966 O 189.357 -2.46004 -3.30992 0
M  V30 1967 H 188.698 -0.563408 -0.35138 0
M  V30 1968 H 191.228 -1.98358 -0.501512 0
M  V30 1969 H 191.238 -3.06025 -2.69838 0
M  V30 1970 H 189.913 -3.75817 -1.78142 0
M  V30 1971 H 188.49 -2.32195 -2.91787 0
M  V30 1972 N 190.675 0.682077 -1.42076 0
M  V30 1973 C 191.924 1.43786 -1.41451 0
M  V30 1974 C 192.237 1.95574 -0.0317074 0
M  V30 1975 O 193.443 2.71326 0.0971462 0
M  V30 1976 C 191.899 2.60071 -2.48779 0
M  V30 1977 C 191.507 2.15013 -3.93031 0
M  V30 1978 C 193.251 3.37626 -2.57311 0
M  V30 1979 C 191.158 3.28336 -4.91883 0
M  V30 1980 H 190.088 0.540143 -0.526082 0
M  V30 1981 H 192.739 0.739157 -1.67955 0
M  V30 1982 H 191.121 3.32275 -2.15429 0
M  V30 1983 H 192.295 1.5001 -4.35699 0
M  V30 1984 H 190.61 1.50416 -3.88284 0
M  V30 1985 H 193.207 4.22012 -3.28345 0
M  V30 1986 H 193.55 3.83727 -1.61429 0
M  V30 1987 H 194.083 2.72488 -2.89819 0
M  V30 1988 H 190.822 2.87234 -5.89217 0
M  V30 1989 H 190.342 3.92145 -4.53853 0
M  V30 1990 H 192.021 3.93913 -5.13265 0
M  V30 1991 N 192.153 1.28127 0.917671 0
M  V30 1992 C 193.063 1.13556 2.05286 0
M  V30 1993 C 194.079 0.0630914 1.73886 0
M  V30 1994 O 195.255 0.271598 1.9956 0
M  V30 1995 C 192.32 0.794676 3.3747 0
M  V30 1996 C 191.381 1.94909 3.82504 0
M  V30 1997 C 190.614 1.62437 5.0838 0
M  V30 1998 O 190.837 0.536905 5.67867 0
M  V30 1999 O 189.771 2.46677 5.4903 0
M  V30 2000 H 193.597 2.08844 2.20495 0
M  V30 2001 H 191.182 1.07409 1.03845 0
M  V30 2002 H 193.064 0.618344 4.16839 0
M  V30 2003 H 191.739 -0.128581 3.23445 0
M  V30 2004 H 190.646 2.18055 3.03978 0
M  V30 2005 H 191.979 2.85291 4.01086 0
M  V30 2006 N 193.631 -1.12557 1.10312 0
M  V30 2007 C 194.879 -1.83675 0.843091 0
M  V30 2008 C 195.2 -1.84435 -0.633131 0
M  V30 2009 O 194.47 -1.30657 -1.45964 0
M  V30 2010 H 193.05 -0.680138 0.308904 0
M  V30 2011 H 195.712 -1.36301 1.39313 0
M  V30 2012 H 194.808 -2.87908 1.2048 0
M  V30 2013 N 195.109 -0.891671 -1.2995 0
M  V30 2014 C 196.339 -0.527893 -1.99742 0
M  V30 2015 C 196.747 0.88979 -1.66971 0
M  V30 2016 O 196.09 1.59766 -0.906667 0
M  V30 2017 C 196.152 -0.630804 -3.53922 0
M  V30 2018 C 195.816 -2.01401 -4.10228 0
M  V30 2019 C 196.813 -2.98422 -4.25724 0
M  V30 2020 C 194.498 -2.32121 -4.45449 0
M  V30 2021 C 196.492 -4.24293 -4.75662 0
M  V30 2022 C 194.179 -3.58237 -4.95086 0
M  V30 2023 C 195.177 -4.54137 -5.10146 0
M  V30 2024 O 194.865 -5.78014 -5.58708 0
M  V30 2025 H 194.597 -0.201953 -0.645129 0
M  V30 2026 H 197.151 -1.20076 -1.66646 0
M  V30 2027 H 195.381 0.0990616 -3.86573 0
M  V30 2028 H 197.07 -0.277338 -4.04951 0
M  V30 2029 H 197.836 -2.76001 -3.98809 0
M  V30 2030 H 193.715 -1.5824 -4.32991 0
M  V30 2031 H 197.259 -4.99153 -4.87332 0
M  V30 2032 H 193.156 -3.80491 -5.21437 0
M  V30 2033 H 193.924 -5.8049 -5.77039 0
M  V30 2034 N 196.587 1.43421 -0.653314 0
M  V30 2035 C 197.534 2.30768 0.0382271 0
M  V30 2036 C 198.504 1.44755 0.814576 0
M  V30 2037 O 199.689 1.73624 0.791162 0
M  V30 2038 C 196.829 3.30336 0.998599 0
M  V30 2039 C 195.942 4.31448 0.218342 0
M  V30 2040 C 195.077 5.18098 1.17252 0
M  V30 2041 C 194.116 6.10902 0.382702 0
M  V30 2042 N 193.253 6.90176 1.28848 0
M  V30 2043 H 198.093 2.89357 -0.712511 0
M  V30 2044 H 195.63 1.42548 -0.363128 0
M  V30 2045 H 197.588 3.86572 1.56901 0
M  V30 2046 H 196.218 2.73397 1.71621 0
M  V30 2047 H 195.27 3.77506 -0.46836 0
M  V30 2048 H 196.582 4.97227 -0.395812 0
M  V30 2049 H 195.736 5.7896 1.81356 0
M  V30 2050 H 194.475 4.52444 1.82058 0
M  V30 2051 H 193.48 5.49128 -0.27169 0
M  V30 2052 H 194.705 6.78598 -0.260957 0
M  V30 2053 H 192.651 6.27171 1.92334 0
M  V30 2054 H 192.568 7.52478 0.728887 0
M  V30 2055 H 193.836 7.55543 1.91766 0
M  V30 2056 N 198.065 0.39524 1.52563 0
M  V30 2057 C 199.293 -0.184943 2.06072 0
M  V30 2058 C 199.708 -1.40021 1.26647 0
M  V30 2059 O 199.065 -1.79767 0.314672 0
M  V30 2060 C 199.116 -0.549179 3.57304 0
M  V30 2061 O 198.837 0.617813 4.33722 0
M  V30 2062 C 200.338 -1.18459 4.2718 0
M  V30 2063 H 197.558 -0.0265025 0.670476 0
M  V30 2064 H 200.102 0.562184 1.96621 0
M  V30 2065 H 198.257 -1.2462 3.66809 0
M  V30 2066 H 198.671 0.317091 5.23541 0
M  V30 2067 H 200.145 -1.38976 5.34219 0
M  V30 2068 H 200.622 -2.15368 3.82771 0
M  V30 2069 H 201.228 -0.528163 4.22008 0
M  V30 2070 N 199.544 -1.57102 0.125237 0
M  V30 2071 C 200.955 -1.82384 -0.399142 0
M  V30 2072 C 201.306 -1.04276 -1.66195 0
M  V30 2073 O 200.431 -0.281269 -2.14564 0
M  V30 2074 C 201.026 -3.30821 -0.730932 0
M  V30 2075 C 199.585 -3.56762 -1.19992 0
M  V30 2076 C 198.732 -2.7649 -0.211792 0
M  V30 2077 H 201.683 -1.54786 0.350277 0
M  V30 2078 H 201.704 -3.4579 -1.58775 0
M  V30 2079 H 201.216 -3.87643 0.188345 0
M  V30 2080 H 199.317 -3.05305 -2.13588 0
M  V30 2081 H 199.43 -4.65317 -1.14093 0
M  V30 2082 H 197.794 -2.4489 -0.700085 0
M  V30 2083 H 198.577 -3.36073 0.700691 0
M  V30 2084 N 201.022 0.148545 -1.56898 0
M  V30 2085 C 202.252 0.875118 -1.8715 0
M  V30 2086 C 202.66 1.75322 -0.711262 0
M  V30 2087 O 202.003 1.80745 0.328151 0
M  V30 2088 C 202.065 1.7844 -3.12089 0
M  V30 2089 C 201.729 1.08361 -4.43967 0
M  V30 2090 C 202.726 0.438247 -5.1805 0
M  V30 2091 C 200.411 1.07358 -4.90693 0
M  V30 2092 C 202.405 -0.20779 -6.37061 0
M  V30 2093 C 200.092 0.42373 -6.09629 0
M  V30 2094 C 201.09 -0.215829 -6.82659 0
M  V30 2095 O 200.778 -0.855378 -7.99336 0
M  V30 2096 H 200.51 0.258504 -0.624621 0
M  V30 2097 H 203.064 0.14652 -2.04877 0
M  V30 2098 H 201.294 2.55389 -2.90367 0
M  V30 2099 H 202.983 2.38279 -3.286 0
M  V30 2100 H 203.749 0.437817 -4.8302 0
M  V30 2101 H 199.628 1.5608 -4.33774 0
M  V30 2102 H 203.172 -0.70758 -6.94002 0
M  V30 2103 H 199.069 0.421822 -6.4412 0
M  V30 2104 H 199.837 -0.756892 -8.14993 0
M  V30 2105 N 202.5 1.5196 0.417844 0
M  V30 2106 C 203.728 1.69426 1.18753 0
M  V30 2107 C 204.143 0.399955 1.84515 0
M  V30 2108 O 203.5 -0.623288 1.71527 0
M  V30 2109 C 203.551 2.82375 2.25714 0
M  V30 2110 O 203.272 4.06793 1.62638 0
M  V30 2111 C 204.773 3.11277 3.15628 0
M  V30 2112 H 201.993 0.568031 0.357186 0
M  V30 2113 H 204.537 1.98475 0.49273 0
M  V30 2114 H 202.692 2.5587 2.90877 0
M  V30 2115 H 203.106 4.69667 2.3348 0
M  V30 2116 H 204.58 3.93843 3.86771 0
M  V30 2117 H 205.057 2.24473 3.77503 0
M  V30 2118 H 205.663 3.39515 2.56144 0
M  V30 2119 N 203.978 -0.674533 1.42435 0
M  V30 2120 C 205.255 -1.4305 1.33402 0
M  V30 2121 C 205.635 -2.11081 -0.0284674 0
M  V30 2122 O 204.983 -2.03257 -1.04397 0
M  V30 2123 C 205.193 -2.43272 2.50239 0
M  V30 2124 C 206.541 -3.07907 2.92367 0
M  V30 2125 O 207.565 -2.53599 2.50132 0
M  V30 2126 O 206.424 -4.0632 3.65467 0
M  V30 2127 H 203.518 -0.638076 0.526106 0
M  V30 2128 H 206.064 -0.703235 1.54443 0
M  V30 2129 H 204.836 -1.91803 3.41068 0
M  V30 2130 H 204.459 -3.23479 2.31186 0
M  V30 2131 N 205.456 -1.28612 -0.910864 0
M  V30 2132 C 206.702 -1.16106 -1.66274 0
M  V30 2133 C 207.035 0.289113 -1.92036 0
M  V30 2134 O 206.31 1.21 -1.52281 0
M  V30 2135 C 206.593 -1.96309 -3.01885 0
M  V30 2136 C 206.446 -3.49405 -2.8326 0
M  V30 2137 C 207.765 -1.78076 -4.02463 0
M  V30 2138 H 204.884 -0.423152 -0.603417 0
M  V30 2139 H 207.526 -1.57961 -1.05586 0
M  V30 2140 H 205.676 -1.60742 -3.53687 0
M  V30 2141 H 207.348 -3.94894 -2.38446 0
M  V30 2142 H 205.591 -3.74893 -2.18261 0
M  V30 2143 H 206.262 -4.00784 -3.79574 0
M  V30 2144 H 208.738 -2.0912 -3.59733 0
M  V30 2145 H 207.614 -2.36561 -4.95308 0
M  V30 2146 H 207.875 -0.733008 -4.35981 0
M  V30 2147 N 206.934 1.1197 -1.10907 0
M  V30 2148 C 207.882 2.19927 -0.757303 0
M  V30 2149 C 208.876 1.67564 0.248747 0
M  V30 2150 O 210.082 1.79672 0.108605 0
M  V30 2151 H 206.457 0.716925 -0.226987 0
M  V30 2152 H 208.428 2.46847 -1.67658 0
M  V30 2153 C 207.177 3.47061 -0.210671 0
M  V30 2154 H 206.5 3.87703 -0.976049 0
M  V30 2155 H 207.94 4.24 -0.0026584 0
M  V30 2156 C 206.399 3.19864 1.05777 0
M  V30 2157 O 206.929 3.40049 2.13845 0
M  V30 2158 N 205.135 2.73636 0.978349 0
M  V30 2159 H 204.682 2.5741 0.0988246 0
M  V30 2160 H 204.64 2.55815 1.82773 0
M  V30 2161 N 208.412 0.89855 1.29475 0
M  V30 2162 C 209.661 0.519863 1.94885 0
M  V30 2163 C 209.974 -0.9383 1.71625 0
M  V30 2164 O 211.18 -1.42445 2.31131 0
M  V30 2165 C 209.636 0.878836 3.49005 0
M  V30 2166 C 209.244 2.35569 3.81066 0
M  V30 2167 C 210.988 0.570004 4.20656 0
M  V30 2168 C 208.895 2.65558 5.28425 0
M  V30 2169 H 207.825 0.190692 0.729488 0
M  V30 2170 H 210.476 1.09539 1.47219 0
M  V30 2171 H 208.858 0.232253 3.95318 0
M  V30 2172 H 210.032 3.04773 3.45616 0
M  V30 2173 H 208.347 2.63343 3.22552 0
M  V30 2174 H 210.944 0.770925 5.29113 0
M  V30 2175 H 211.287 -0.491404 4.1339 0
M  V30 2176 H 211.82 1.17438 3.8007 0
M  V30 2177 H 208.559 3.70493 5.40754 0
M  V30 2178 H 208.079 2.00977 5.65127 0
M  V30 2179 H 209.758 2.51765 5.96006 0
M  V30 2180 N 209.89 -1.43072 0.660911 0
M  V30 2181 C 211.136 -2.0202 0.177708 0
M  V30 2182 C 211.469 -1.52066 -1.20787 0
M  V30 2183 O 210.744 -0.716987 -1.80802 0
M  V30 2184 C 211.027 -3.59561 0.197019 0
M  V30 2185 C 210.88 -4.19727 1.61706 0
M  V30 2186 C 212.199 -4.37664 -0.462396 0
M  V30 2187 H 209.318 -0.734034 0.0660494 0
M  V30 2188 H 211.96 -1.70272 0.843058 0
M  V30 2189 H 210.11 -3.86739 -0.369527 0
M  V30 2190 H 211.782 -4.03553 2.23479 0
M  V30 2191 H 210.025 -3.76084 2.16201 0
M  V30 2192 H 210.696 -5.28834 1.58237 0
M  V30 2193 H 213.172 -4.16095 0.0197215 0
M  V30 2194 H 212.048 -5.47305 -0.418188 0
M  V30 2195 H 212.309 -4.14493 -1.53778 0
M  V30 2196 N 211.368 -0.403325 -1.52352 0
M  V30 2197 C 212.596 0.174012 -2.06167 0
M  V30 2198 C 213.011 1.39347 -1.27388 0
M  V30 2199 O 212.368 1.79597 -0.324201 0
M  V30 2200 C 212.419 0.530223 -3.5759 0
M  V30 2201 O 212.14 -0.640806 -4.33388 0
M  V30 2202 C 213.641 1.16192 -4.27802 0
M  V30 2203 H 210.861 0.0229464 -0.670608 0
M  V30 2204 H 213.405 -0.572604 -1.9632 0
M  V30 2205 H 211.56 1.22673 -3.67464 0
M  V30 2206 H 211.974 -0.344851 -5.23365 0
M  V30 2207 H 213.448 1.36141 -5.34948 0
M  V30 2208 H 213.925 2.13335 -3.83907 0
M  V30 2209 H 214.531 0.505775 -4.22282 0
M  V30 2210 N 212.846 1.57033 -0.133567 0
M  V30 2211 C 214.095 1.94861 0.520768 0
M  V30 2212 C 214.408 1.02012 1.66892 0
M  V30 2213 O 215.614 1.29365 2.38699 0
M  V30 2214 C 214.07 3.46362 0.977809 0
M  V30 2215 C 213.678 4.47773 -0.142674 0
M  V30 2216 C 215.422 3.93083 1.60269 0
M  V30 2217 C 213.329 5.90468 0.331883 0
M  V30 2218 H 212.259 0.727453 0.198315 0
M  V30 2219 H 214.91 1.82227 -0.215759 0
M  V30 2220 H 213.292 3.54282 1.7692 0
M  V30 2221 H 214.466 4.51536 -0.919317 0
M  V30 2222 H 212.781 4.10891 -0.675124 0
M  V30 2223 H 215.378 4.97121 1.96914 0
M  V30 2224 H 215.721 3.33876 2.48662 0
M  V30 2225 H 216.254 3.88025 0.876453 0
M  V30 2226 H 212.993 6.53463 -0.516341 0
M  V30 2227 H 212.513 5.90094 1.07469 0
M  V30 2228 H 214.192 6.42179 0.788332 0
M  V30 2229 N 214.325 -0.140222 1.56975 0
M  V30 2230 C 215.741 -0.493088 1.51792 0
M  V30 2231 C 215.941 -1.83013 0.843116 0
M  V30 2232 O 214.997 -2.49041 0.416493 0
M  V30 2233 C 216.31 -0.497144 2.96562 0
M  V30 2234 C 217.858 -0.582186 3.07538 0
M  V30 2235 C 218.333 -0.616838 4.53827 0
M  V30 2236 N 219.824 -0.678873 4.58198 0
M  V30 2237 C 220.559 -0.726782 5.68775 0
M  V30 2238 N 220.055 -0.733623 6.88905 0
M  V30 2239 N 221.848 -0.768179 5.56826 0
M  V30 2240 H 213.999 0.736108 1.99237 0
M  V30 2241 H 216.262 0.269182 0.90898 0
M  V30 2242 H 215.968 0.417217 3.49217 0
M  V30 2243 H 215.842 -1.33263 3.52875 0
M  V30 2244 H 218.229 -1.48697 2.54899 0
M  V30 2245 H 218.31 0.280581 2.54257 0
M  V30 2246 H 217.954 0.283812 5.07106 0
M  V30 2247 H 217.884 -1.49619 5.04898 0
M  V30 2248 H 220.375 -0.68061 3.7172 0
M  V30 2249 H 220.688 -0.772215 7.68932 0
M  V30 2250 H 219.033 -0.701389 6.91452 0
M  V30 2251 H 222.224 -0.760051 4.61888 0
M  V30 2252 H 222.397 -0.80205 6.43017 0
M  V30 2253 N 215.803 -1.52179 -0.40978 0
M  V30 2254 C 216.713 -1.78364 -1.52392 0
M  V30 2255 C 217.729 -0.669183 -1.60617 0
M  V30 2256 O 218.905 -0.954518 -1.77344 0
M  V30 2257 C 215.97 -1.92822 -2.88133 0
M  V30 2258 C 215.031 -3.16725 -2.898 0
M  V30 2259 C 214.264 -3.30483 -4.19067 0
M  V30 2260 O 214.487 -2.49522 -5.12928 0
M  V30 2261 O 213.421 -4.2363 -4.27576 0
M  V30 2262 H 217.247 -2.72931 -1.33201 0
M  V30 2263 H 214.832 -1.37016 -0.59557 0
M  V30 2264 H 216.714 -2.04157 -3.68643 0
M  V30 2265 H 215.389 -1.01444 -3.07393 0
M  V30 2266 H 214.296 -3.10848 -2.08146 0
M  V30 2267 H 215.629 -4.07881 -2.75489 0
M  V30 2268 N 217.281 0.66697 -1.42791 0
M  V30 2269 C 218.229 1.80157 -1.47127 0
M  V30 2270 C 219.223 1.65825 -0.346199 0
M  V30 2271 O 220.429 1.72338 -0.519572 0
M  V30 2272 H 216.804 0.594158 -0.460956 0
M  V30 2273 H 218.775 1.73619 -2.42692 0
M  V30 2274 C 217.524 3.18351 -1.39813 0
M  V30 2275 H 216.847 3.3001 -2.25684 0
M  V30 2276 H 218.287 3.97736 -1.46908 0
M  V30 2277 C 216.746 3.36707 -0.11391 0
M  V30 2278 O 217.276 3.93027 0.830241 0
M  V30 2279 N 215.482 2.90586 -0.0285295 0
M  V30 2280 H 215.029 2.4494 -0.79764 0
M  V30 2281 H 214.987 3.03245 0.830063 0
M  V30 2282 N 218.759 1.29093 0.90403 0
M  V30 2283 C 219.987 1.19689 1.68766 0
M  V30 2284 C 220.402 -0.243113 1.87228 0
M  V30 2285 O 219.759 -1.16326 1.40621 0
M  V30 2286 C 219.81 1.90144 3.07453 0
M  V30 2287 O 219.531 3.2852 2.89838 0
M  V30 2288 C 221.032 1.87162 4.01852 0
M  V30 2289 H 218.252 0.415035 0.527244 0
M  V30 2290 H 220.796 1.7039 1.13082 0
M  V30 2291 H 218.951 1.43289 3.59926 0
M  V30 2292 H 219.365 3.63944 3.77684 0
M  V30 2293 H 220.839 2.41032 4.96596 0
M  V30 2294 H 221.316 0.84617 4.30972 0
M  V30 2295 H 221.922 2.33741 3.5531 0
M  V30 2296 N 220.237 -1.11381 1.11499 0
M  V30 2297 C 221.147 -2.21019 0.786628 0
M  V30 2298 C 222.163 -1.72597 -0.220507 0
M  V30 2299 O 223.339 -2.01321 -0.0565251 0
M  V30 2300 C 220.404 -3.459 0.235333 0
M  V30 2301 C 219.465 -4.09107 1.30115 0
M  V30 2302 C 218.698 -5.28027 0.776068 0
M  V30 2303 O 218.921 -5.6904 -0.393661 0
M  V30 2304 O 217.855 -5.81835 1.54114 0
M  V30 2305 H 221.681 -2.51521 1.70209 0
M  V30 2306 H 219.266 -1.19928 0.890928 0
M  V30 2307 H 221.148 -4.21346 -0.067715 0
M  V30 2308 H 219.823 -3.17049 -0.652828 0
M  V30 2309 H 218.73 -3.35391 1.65722 0
M  V30 2310 H 220.063 -4.42139 2.16273 0
M  V30 2311 N 221.715 -0.905404 -1.28997 0
M  V30 2312 C 222.963 -0.533192 -1.9494 0
M  V30 2313 C 223.284 0.924618 -1.71685 0
M  V30 2314 O 222.554 1.65268 -1.05183 0
M  V30 2315 H 221.134 -0.194194 -0.721317 0
M  V30 2316 H 223.796 -1.15294 -1.57141 0
M  V30 2317 H 222.892 -0.72059 -3.03667 0
M  V30 2318 N 223.193 1.4272 -0.668489 0
M  V30 2319 C 224.103 2.34596 0.0139753 0
M  V30 2320 C 225.119 1.5474 0.795703 0
M  V30 2321 O 226.295 1.87334 0.739466 0
M  V30 2322 C 223.36 3.33202 0.957982 0
M  V30 2323 C 222.421 4.28957 0.17149 0
M  V30 2324 C 221.654 5.22853 1.07053 0
M  V30 2325 O 221.877 5.21531 2.31001 0
M  V30 2326 O 220.811 5.9952 0.534727 0
M  V30 2327 H 224.637 2.9448 -0.742661 0
M  V30 2328 H 222.222 1.43117 -0.428705 0
M  V30 2329 H 224.104 3.93796 1.50008 0
M  V30 2330 H 222.779 2.758 1.69458 0
M  V30 2331 H 221.686 3.71796 -0.414558 0
M  V30 2332 H 223.019 4.89383 -0.52586 0
M  V30 2333 N 224.671 0.411399 1.52136 0
M  V30 2334 C 225.901 -0.16284 2.05957 0
M  V30 2335 C 226.309 -1.3922 1.28119 0
M  V30 2336 O 225.652 -1.80768 0.326881 0
M  V30 2337 C 225.714 -0.575946 3.54856 0
M  V30 2338 C 225.378 0.542998 4.53763 0
M  V30 2339 C 226.375 1.40726 5.00492 0
M  V30 2340 C 224.06 0.716337 4.97166 0
M  V30 2341 C 226.054 2.4298 5.8927 0
M  V30 2342 C 223.741 1.74218 5.8574 0
M  V30 2343 C 224.739 2.59731 6.31687 0
M  V30 2344 O 224.427 3.60558 7.18507 0
M  V30 2345 H 224.159 -0.0229125 0.675612 0
M  V30 2346 H 226.713 0.581634 1.96993 0
M  V30 2347 H 224.943 -1.37274 3.61515 0
M  V30 2348 H 226.632 -1.07836 3.91313 0
M  V30 2349 H 227.398 1.28476 4.67674 0
M  V30 2350 H 223.277 0.0603857 4.6096 0
M  V30 2351 H 226.821 3.0976 6.25055 0
M  V30 2352 H 222.718 1.86498 6.17971 0
M  V30 2353 H 223.486 3.56829 7.36624 0
M  V30 2354 N 226.149 -1.5696 0.141893 0
M  V30 2355 C 227.374 -2.00754 -0.520838 0
M  V30 2356 C 227.799 -1.0213 -1.57959 0
M  V30 2357 O 227.157 0.00371324 -1.813 0
M  V30 2358 C 227.205 -3.43318 -1.10294 0
M  V30 2359 O 226.309 -3.47679 -2.21795 0
M  V30 2360 H 225.65 -0.651564 -0.127908 0
M  V30 2361 H 228.18 -2.03221 0.23712 0
M  V30 2362 H 228.19 -3.82012 -1.43287 0
M  V30 2363 H 226.865 -4.14608 -0.327574 0
M  V30 2364 H 225.442 -3.20824 -1.9007 0
M  V30 2365 N 227.627 0.131896 -1.57047 0
M  V30 2366 C 228.875 0.840269 -1.83804 0
M  V30 2367 C 229.196 1.81017 -0.72512 0
M  V30 2368 O 228.466 1.94272 0.251995 0
M  V30 2369 H 227.046 0.313294 -0.678127 0
M  V30 2370 H 229.708 0.122294 -1.94516 0
M  V30 2371 H 228.804 1.39335 -2.79271 0
M  V30 2372 N 229.106 1.52395 0.401703 0
M  V30 2373 C 230.355 1.66044 1.14509 0
M  V30 2374 C 230.668 0.400216 1.91462 0
M  V30 2375 O 231.874 0.416632 2.68284 0
M  V30 2376 C 230.33 2.93388 2.0845 0
M  V30 2377 C 229.938 4.26545 1.36978 0
M  V30 2378 C 231.682 3.16402 2.83001 0
M  V30 2379 C 229.589 5.45007 2.29611 0
M  V30 2380 H 228.519 0.618562 0.431158 0
M  V30 2381 H 231.17 1.78886 0.40892 0
M  V30 2382 H 229.552 2.74263 2.8565 0
M  V30 2383 H 230.726 4.56179 0.650916 0
M  V30 2384 H 229.041 4.09692 0.74438 0
M  V30 2385 H 231.638 4.02085 3.52465 0
M  V30 2386 H 231.981 2.30943 3.46368 0
M  V30 2387 H 232.514 3.36034 2.12898 0
M  V30 2388 H 229.253 6.32835 1.70879 0
M  V30 2389 H 228.773 5.19702 2.9945 0
M  V30 2390 H 230.452 5.7838 2.89974 0
M  V30 2391 N 230.584 -0.659388 1.43143 0
M  V30 2392 C 231.494 -1.80167 1.50256 0
M  V30 2393 C 232.51 -1.69571 0.390106 0
M  V30 2394 O 233.686 -1.90849 0.643319 0
M  V30 2395 C 230.751 -3.16409 1.41725 0
M  V30 2396 C 229.812 -3.38848 2.63591 0
M  V30 2397 C 229.045 -4.68591 2.55458 0
M  V30 2398 O 229.268 -5.47532 1.59891 0
M  V30 2399 O 228.202 -4.92614 3.45854 0
M  V30 2400 H 232.028 -1.77121 2.46702 0
M  V30 2401 H 229.613 -0.817092 1.25076 0
M  V30 2402 H 231.495 -3.9768 1.39387 0
M  V30 2403 H 230.17 -3.20059 0.484118 0
M  V30 2404 H 229.077 -2.57366 2.71502 0
M  V30 2405 H 230.41 -3.4004 3.55856 0
M  V30 2406 N 232.062 -1.29571 -0.897171 0
M  V30 2407 C 233.012 -1.11539 -1.98855 0
M  V30 2408 C 233.996 -0.0340716 -1.60864 0
M  V30 2409 O 235.188 -0.256062 -1.75138 0
M  V30 2410 C 232.317 -0.796603 -3.3393 0
M  V30 2411 C 231.403 -1.91758 -3.78272 0
M  V30 2412 N 231.794 -3.16143 -3.94826 0
M  V30 2413 C 230.092 -1.81119 -4.07568 0
M  V30 2414 C 230.793 -3.89293 -4.32233 0
M  V30 2415 N 229.769 -3.17255 -4.41419 0
M  V30 2416 H 233.571 -2.05894 -2.09726 0
M  V30 2417 H 231.085 -1.20732 -1.08616 0
M  V30 2418 H 233.082 -0.648459 -4.11826 0
M  V30 2419 H 231.742 0.139003 -3.24402 0
M  V30 2420 H 232.753 -3.5157 -3.80288 0
M  V30 2421 H 229.43 -0.948461 -4.06584 0
M  V30 2422 H 230.82 -4.9635 -4.52865 0
M  V30 2423 N 233.54 1.10788 -1.12088 0
M  V30 2424 C 234.786 1.82942 -0.875226 0
M  V30 2425 C 235.119 1.84779 0.597538 0
M  V30 2426 O 234.394 1.30578 1.44152 0
M  V30 2427 C 234.677 3.29789 -1.44606 0
M  V30 2428 C 234.53 3.36307 -2.98693 0
M  V30 2429 C 235.849 4.26064 -1.10261 0
M  V30 2430 H 232.968 0.664195 -0.319397 0
M  V30 2431 H 235.61 1.29867 -1.38689 0
M  V30 2432 H 233.76 3.75118 -1.01089 0
M  V30 2433 H 235.432 2.99487 -3.50864 0
M  V30 2434 H 233.675 2.76318 -3.34411 0
M  V30 2435 H 234.346 4.39694 -3.33726 0
M  V30 2436 H 236.822 3.88951 -1.4784 0
M  V30 2437 H 235.698 5.27183 -1.52869 0
M  V30 2438 H 235.959 4.42098 -0.0142953 0
M  V30 2439 N 235.018 0.912232 1.28515 0
M  V30 2440 C 236.267 0.540504 1.94323 0
M  V30 2441 C 236.58 -0.920044 1.72611 0
M  V30 2442 O 237.786 -1.39986 2.32629 0
M  V30 2443 C 236.242 0.915803 3.48053 0
M  V30 2444 C 235.85 2.39598 3.78546 0
M  V30 2445 C 237.594 0.614588 4.20027 0
M  V30 2446 C 235.501 2.71148 5.25578 0
M  V30 2447 H 234.431 0.198418 0.727424 0
M  V30 2448 H 237.082 1.11094 1.46049 0
M  V30 2449 H 235.464 0.274168 3.9505 0
M  V30 2450 H 236.638 3.08422 3.42364 0
M  V30 2451 H 234.953 2.66749 3.1974 0
M  V30 2452 H 237.55 0.827002 5.28266 0
M  V30 2453 H 237.893 -0.447531 4.13887 0
M  V30 2454 H 238.426 1.21462 3.78803 0
M  V30 2455 H 235.165 3.76207 5.36794 0
M  V30 2456 H 234.685 2.0696 5.62963 0
M  V30 2457 H 236.364 2.58072 5.93302 0
M  V30 2458 N 236.496 -1.42363 0.676048 0
M  V30 2459 C 237.742 -2.0182 0.199125 0
M  V30 2460 C 238.075 -1.53339 -1.19168 0
M  V30 2461 O 237.35 -0.736124 -1.80032 0
M  V30 2462 C 237.633 -3.59331 0.235144 0
M  V30 2463 C 237.486 -4.17989 1.66149 0
M  V30 2464 C 238.805 -4.3813 -0.41595 0
M  V30 2465 H 235.924 -0.733293 0.0738311 0
M  V30 2466 H 238.566 -1.69368 0.86107 0
M  V30 2467 H 236.716 -3.87109 -0.328487 0
M  V30 2468 H 238.388 -4.0116 2.27747 0
M  V30 2469 H 236.631 -3.7377 2.20178 0
M  V30 2470 H 237.302 -5.27126 1.63837 0
M  V30 2471 H 239.778 -4.16051 0.0638529 0
M  V30 2472 H 238.654 -5.47717 -0.360115 0
M  V30 2473 H 238.915 -4.16101 -1.49373 0
M  V30 2474 N 237.974 -0.419461 -1.51915 0
M  V30 2475 C 239.251 0.211999 -1.94448 0
M  V30 2476 C 239.631 1.61703 -1.35703 0
M  V30 2477 O 238.979 2.22102 -0.536931 0
M  V30 2478 C 239.189 0.207872 -3.4838 0
M  V30 2479 C 240.537 0.422192 -4.22496 0
M  V30 2480 O 241.561 0.286778 -3.55044 0
M  V30 2481 O 240.42 0.690009 -5.42126 0
M  V30 2482 H 237.514 0.139586 -0.815135 0
M  V30 2483 H 240.06 -0.476151 -1.62883 0
M  V30 2484 H 238.832 -0.775102 -3.83546 0
M  V30 2485 H 238.455 0.939688 -3.86336 0
M  V30 2486 N 239.452 1.56882 -0.150215 0
M  V30 2487 C 240.7 1.9584 0.499105 0
M  V30 2488 C 241.021 1.03623 1.65188 0
M  V30 2489 O 240.291 0.0984084 1.95653 0
M  V30 2490 H 238.871 0.723119 0.187373 0
M  V30 2491 H 241.533 1.9358 -0.226466 0
M  V30 2492 H 240.629 2.99638 0.873122 0
M  V30 2493 N 240.93 -0.123565 1.57115 0
M  V30 2494 C 242.176 -0.833386 1.84885 0
M  V30 2495 C 242.509 -1.79742 0.735292 0
M  V30 2496 O 241.784 -1.92764 -0.25925 0
M  V30 2497 C 242.067 -1.5873 3.23228 0
M  V30 2498 C 241.92 -0.643183 4.45178 0
M  V30 2499 C 243.239 -2.54453 3.59085 0
M  V30 2500 H 240.358 -0.301518 0.6725 0
M  V30 2501 H 243 -0.097778 1.89748 0
M  V30 2502 H 241.15 -2.21438 3.19214 0
M  V30 2503 H 242.822 -0.0253015 4.61293 0
M  V30 2504 H 241.065 0.0456139 4.33776 0
M  V30 2505 H 241.736 -1.20724 5.38637 0
M  V30 2506 H 244.212 -2.01853 3.63861 0
M  V30 2507 H 243.088 -3.04238 4.5687 0
M  V30 2508 H 243.349 -3.36906 2.86264 0
M  V30 2509 N 242.408 -1.52605 -0.393616 0
M  V30 2510 C 243.654 -1.67672 -1.14079 0
M  V30 2511 C 243.987 -0.413121 -1.89755 0
M  V30 2512 O 243.262 0.588952 -1.85369 0
M  V30 2513 C 243.545 -2.9088 -2.12276 0
M  V30 2514 C 243.398 -4.27329 -1.40394 0
M  V30 2515 C 244.717 -3.09628 -3.12759 0
M  V30 2516 H 241.836 -0.610168 -0.413356 0
M  V30 2517 H 244.478 -1.85193 -0.424696 0
M  V30 2518 H 242.628 -2.76073 -2.73342 0
M  V30 2519 H 244.3 -4.53894 -0.82327 0
M  V30 2520 H 242.543 -4.2802 -0.705801 0
M  V30 2521 H 243.214 -5.09615 -2.12123 0
M  V30 2522 H 245.69 -3.23436 -2.61779 0
M  V30 2523 H 244.566 -3.97322 -3.78717 0
M  V30 2524 H 244.827 -2.23637 -3.81365 0
M  V30 2525 N 243.887 0.651787 -1.4349 0
M  V30 2526 C 244.819 1.77725 -1.44729 0
M  V30 2527 C 245.832 1.59141 -0.343231 0
M  V30 2528 O 247.021 1.67835 -0.607751 0
M  V30 2529 C 244.121 3.15172 -1.24579 0
M  V30 2530 C 243.294 3.60402 -2.47849 0
M  V30 2531 C 242.353 4.76656 -2.22902 0
M  V30 2532 O 241.379 4.86022 -2.96263 0
M  V30 2533 N 242.581 5.66958 -1.24656 0
M  V30 2534 H 245.346 1.77141 -2.41746 0
M  V30 2535 H 242.907 0.835678 -1.38665 0
M  V30 2536 H 244.899 3.90634 -1.0577 0
M  V30 2537 H 243.469 3.1052 -0.360015 0
M  V30 2538 H 242.689 2.75369 -2.82073 0
M  V30 2539 H 243.977 3.87368 -3.29884 0
M  V30 2540 H 243.375 5.62065 -0.640265 0
M  V30 2541 H 241.932 6.42135 -1.1183 0
M  V30 2542 N 245.365 1.30045 0.890287 0
M  V30 2543 C 246.59 1.21598 1.68014 0
M  V30 2544 C 247.015 -0.218678 1.86825 0
M  V30 2545 O 246.373 -1.15756 1.39536 0
M  V30 2546 C 246.421 1.94434 3.03691 0
M  V30 2547 O 245.525 1.2678 3.92429 0
M  V30 2548 H 244.866 0.420856 0.513592 0
M  V30 2549 H 247.396 1.71775 1.11151 0
M  V30 2550 H 247.406 2.03251 3.5377 0
M  V30 2551 H 246.081 2.98777 2.89318 0
M  V30 2552 H 244.658 1.26282 3.50866 0
M  V30 2553 N 246.843 -1.10192 1.12674 0
M  V30 2554 C 248.092 -1.81573 0.8783 0
M  V30 2555 C 248.405 -1.86249 -0.597557 0
M  V30 2556 O 249.611 -2.5386 -0.962681 0
M  V30 2557 C 248.067 -3.26149 1.52167 0
M  V30 2558 C 247.675 -3.29763 3.03249 0
M  V30 2559 C 249.419 -4.0234 1.3536 0
M  V30 2560 C 247.326 -4.68815 3.60508 0
M  V30 2561 H 246.256 -0.680394 0.324931 0
M  V30 2562 H 248.907 -1.23902 1.35353 0
M  V30 2563 H 247.289 -3.83832 0.974104 0
M  V30 2564 H 248.463 -2.8189 3.6452 0
M  V30 2565 H 246.778 -2.67059 3.19481 0
M  V30 2566 H 249.375 -5.05058 1.75559 0
M  V30 2567 H 249.718 -4.15235 0.297554 0
M  V30 2568 H 250.251 -3.51079 1.87052 0
M  V30 2569 H 246.99 -4.61121 4.65884 0
M  V30 2570 H 246.51 -5.17045 3.04014 0
M  V30 2571 H 248.189 -5.37785 3.59717 0
M  V30 2572 N 248.321 -0.919034 -1.28029 0
M  V30 2573 C 249.268 -0.410005 -2.27129 0
M  V30 2574 C 250.238 0.518405 -1.57803 0
M  V30 2575 O 251.423 0.439451 -1.8567 0
M  V30 2576 C 248.563 0.339054 -3.4343 0
M  V30 2577 C 247.676 -0.622468 -4.27492 0
M  V30 2578 C 246.811 0.145567 -5.31001 0
M  V30 2579 C 245.85 -0.809226 -6.06727 0
M  V30 2580 N 244.987 -0.0743728 -7.02061 0
M  V30 2581 H 249.827 -1.26011 -2.70047 0
M  V30 2582 H 247.364 -0.632663 -1.328 0
M  V30 2583 H 249.322 0.789586 -4.0966 0
M  V30 2584 H 247.952 1.15346 -3.01488 0
M  V30 2585 H 247.004 -1.19153 -3.61257 0
M  V30 2586 H 248.316 -1.35252 -4.80113 0
M  V30 2587 H 247.47 0.656417 -6.03139 0
M  V30 2588 H 246.209 0.908643 -4.79161 0
M  V30 2589 H 245.214 -1.3314 -5.33436 0
M  V30 2590 H 246.439 -1.57194 -6.60656 0
M  V30 2591 H 244.385 0.670616 -6.52563 0
M  V30 2592 H 244.302 -0.744157 -7.52329 0
M  V30 2593 H 245.57 0.416109 -7.78389 0
M  V30 2594 N 249.799 1.42003 -0.683588 0
M  V30 2595 C 250.729 2.33487 -0.024866 0
M  V30 2596 C 251.71 1.51163 0.779975 0
M  V30 2597 O 252.895 1.79739 0.735362 0
M  V30 2598 C 250.025 3.3487 0.920836 0
M  V30 2599 C 248.979 4.27414 0.223958 0
M  V30 2600 C 248.305 5.19074 1.2832 0
M  V30 2601 C 249.605 5.14445 -0.90242 0
M  V30 2602 H 251.299 2.88819 -0.788921 0
M  V30 2603 H 248.845 1.38873 -0.38083 0
M  V30 2604 H 250.798 3.97787 1.39081 0
M  V30 2605 H 249.522 2.77861 1.71642 0
M  V30 2606 H 248.181 3.65904 -0.225864 0
M  V30 2607 H 247.829 4.58387 2.071 0
M  V30 2608 H 247.529 5.81822 0.821995 0
M  V30 2609 H 249.053 5.84867 1.75392 0
M  V30 2610 H 250.467 5.70998 -0.513272 0
M  V30 2611 H 248.864 5.86072 -1.28997 0
M  V30 2612 H 249.934 4.52322 -1.74737 0
M  V30 2613 N 251.277 0.427512 1.51691 0
M  V30 2614 C 252.526 -0.143679 2.01188 0
M  V30 2615 C 252.839 -1.44642 1.31674 0
M  V30 2616 O 254.045 -2.09997 1.72086 0
M  V30 2617 C 252.501 -0.306602 3.58592 0
M  V30 2618 C 252.109 0.985125 4.37035 0
M  V30 2619 C 253.853 -0.832091 4.16265 0
M  V30 2620 C 251.76 0.788382 5.86122 0
M  V30 2621 H 250.69 -0.0574701 0.751807 0
M  V30 2622 H 253.341 0.555772 1.74881 0
M  V30 2623 H 251.723 -1.06882 3.81303 0
M  V30 2624 H 252.897 1.75492 4.26074 0
M  V30 2625 H 251.212 1.4384 3.90767 0
M  V30 2626 H 253.809 -0.995617 5.25349 0
M  V30 2627 H 254.152 -1.81186 3.74803 0
M  V30 2628 H 254.685 -0.128444 3.97593 0
M  V30 2629 H 251.424 1.74025 6.31978 0
M  V30 2630 H 250.944 0.0582143 5.99772 0
M  V30 2631 H 252.623 0.437722 6.45518 0
M  V30 2632 N 252.755 -1.56801 0.158532 0
M  V30 2633 C 253.983 -2.00859 -0.496303 0
M  V30 2634 C 254.398 -1.03871 -1.57659 0
M  V30 2635 O 253.755 -0.0375165 -1.82461 0
M  V30 2636 C 253.806 -3.4479 -1.08638 0
M  V30 2637 O 253.527 -4.38072 -0.0492322 0
M  V30 2638 C 255.028 -4.04185 -1.8207 0
M  V30 2639 H 252.248 -0.65864 -0.128199 0
M  V30 2640 H 254.792 -2.02885 0.256506 0
M  V30 2641 H 252.947 -3.43579 -1.78975 0
M  V30 2642 H 253.361 -5.2227 -0.483102 0
M  V30 2643 H 254.835 -5.06857 -2.18633 0
M  V30 2644 H 255.312 -3.45549 -2.71095 0
M  V30 2645 H 255.918 -4.0906 -1.16405 0
M  V30 2646 N 254.233 0.115231 -1.57178 0
M  V30 2647 C 255.143 1.15994 -2.03918 0
M  V30 2648 C 256.159 1.45103 -0.960268 0
M  V30 2649 O 257.335 1.56144 -1.27204 0
M  V30 2650 C 254.4 2.46568 -2.43732 0
M  V30 2651 C 253.461 2.24822 -3.65723 0
M  V30 2652 C 252.694 3.4917 -4.03629 0
M  V30 2653 O 252.917 4.56623 -3.41835 0
M  V30 2654 O 251.851 3.39949 -4.96708 0
M  V30 2655 H 255.677 0.793019 -2.93164 0
M  V30 2656 H 253.262 0.3263 -1.45793 0
M  V30 2657 H 255.144 3.23492 -2.70057 0
M  V30 2658 H 253.819 2.82726 -1.57631 0
M  V30 2659 H 252.726 1.45744 -3.44542 0
M  V30 2660 H 254.059 1.93566 -4.52541 0
M  V30 2661 N 255.711 1.52812 0.385517 0
M  V30 2662 C 256.959 1.67694 1.12797 0
M  V30 2663 C 257.28 0.421115 1.90399 0
M  V30 2664 O 256.55 -0.564551 1.87589 0
M  V30 2665 H 255.13 0.618155 0.419396 0
M  V30 2666 H 257.792 1.89938 0.436972 0
M  V30 2667 H 256.888 2.52896 1.82894 0
M  V30 2668 N 257.189 -0.644168 1.43834 0
M  V30 2669 C 258.152 -1.73857 1.49353 0
M  V30 2670 C 259.152 -1.56315 0.377112 0
M  V30 2671 O 260.342 -1.62048 0.639226 0
M  V30 2672 C 257.474 -3.12819 1.35488 0
M  V30 2673 H 258.667 -1.70342 2.46827 0
M  V30 2674 H 256.22 -0.856652 1.30733 0
M  V30 2675 H 256.955 -3.2194 0.390569 0
M  V30 2676 H 256.74 -3.26958 2.16428 0
M  V30 2677 H 258.23 -3.92606 1.42302 0
M  V30 2678 N 258.668 -1.30515 -0.883378 0
M  V30 2679 C 259.893 -1.22487 -1.67367 0
M  V30 2680 C 260.318 0.208767 -1.86938 0
M  V30 2681 O 259.676 1.15015 -1.40148 0
M  V30 2682 C 259.724 -1.96041 -3.02655 0
M  V30 2683 O 258.828 -1.28859 -3.91751 0
M  V30 2684 H 258.169 -0.423573 -0.511353 0
M  V30 2685 H 260.699 -1.72362 -1.10239 0
M  V30 2686 H 260.709 -2.05124 -3.52687 0
M  V30 2687 H 259.384 -3.00307 -2.8773 0
M  V30 2688 H 257.961 -1.28141 -3.50192 0
M  V30 2689 N 260.146 1.09593 -1.13257 0
M  V30 2690 C 261.093 2.1618 -0.808381 0
M  V30 2691 C 262.063 1.64517 0.228754 0
M  V30 2692 O 263.248 1.9053 0.101381 0
M  V30 2693 C 260.388 3.43973 -0.278675 0
M  V30 2694 C 259.501 4.09545 -1.37466 0
M  V30 2695 C 258.636 5.25088 -0.803479 0
M  V30 2696 C 257.675 5.82579 -1.87799 0
M  V30 2697 N 256.812 6.89486 -1.32488 0
M  V30 2698 H 261.652 2.43254 -1.72138 0
M  V30 2699 H 259.189 1.19392 -0.859294 0
M  V30 2700 H 261.147 4.17174 0.0465583 0
M  V30 2701 H 259.777 3.17223 0.597459 0
M  V30 2702 H 258.829 3.34226 -1.81652 0
M  V30 2703 H 260.141 4.48307 -2.18684 0
M  V30 2704 H 259.295 6.05178 -0.429427 0
M  V30 2705 H 258.034 4.87684 0.0397956 0
M  V30 2706 H 257.039 5.01152 -2.26113 0
M  V30 2707 H 258.264 6.22045 -2.72463 0
M  V30 2708 H 256.21 6.54064 -0.503575 0
M  V30 2709 H 256.127 7.27007 -2.07355 0
M  V30 2710 H 257.395 7.73336 -0.978336 0
M  V30 2711 N 261.624 0.925811 1.2754 0
M  V30 2712 C 263.04 0.625767 1.46821 0
M  V30 2713 C 263.24 -0.825506 1.83814 0
M  V30 2714 O 262.296 -1.60356 1.95044 0
M  V30 2715 C 263.609 1.57402 2.56213 0
M  V30 2716 C 265.157 1.58204 2.70075 0
M  V30 2717 C 265.632 2.51721 3.82623 0
M  V30 2718 N 267.123 2.49917 3.89994 0
M  V30 2719 C 267.858 3.18968 4.76494 0
M  V30 2720 N 267.354 3.97391 5.67496 0
M  V30 2721 N 269.147 3.07996 4.70208 0
M  V30 2722 H 261.298 1.86409 1.01811 0
M  V30 2723 H 263.561 0.800213 0.508295 0
M  V30 2724 H 263.267 2.60925 2.35819 0
M  V30 2725 H 263.141 1.31428 3.53563 0
M  V30 2726 H 265.528 0.554124 2.89851 0
M  V30 2727 H 265.609 1.88226 1.73218 0
M  V30 2728 H 265.253 3.54622 3.63601 0
M  V30 2729 H 265.183 2.18996 4.78903 0
M  V30 2730 H 267.674 1.9296 3.24923 0
M  V30 2731 H 267.987 4.4707 6.30356 0
M  V30 2732 H 266.332 4.01495 5.67298 0
M  V30 2733 H 269.523 2.46223 3.9811 0
M  V30 2734 H 269.696 3.6208 5.37403 0
M  V30 2735 N 263.102 -1.41638 0.69111 0
M  V30 2736 C 264.351 -2.00526 0.217318 0
M  V30 2737 C 264.664 -1.55353 -1.18848 0
M  V30 2738 O 265.87 -2.06769 -1.75951 0
M  V30 2739 C 264.326 -3.58313 0.337639 0
M  V30 2740 C 263.934 -4.12469 1.74852 0
M  V30 2741 C 265.678 -4.24431 -0.0766066 0
M  V30 2742 C 263.585 -5.62675 1.82074 0
M  V30 2743 H 262.515 -0.750008 0.0774893 0
M  V30 2744 H 265.166 -1.6217 0.858661 0
M  V30 2745 H 263.548 -3.9425 -0.371879 0
M  V30 2746 H 264.722 -3.8796 2.48644 0
M  V30 2747 H 263.037 -3.58861 2.11205 0
M  V30 2748 H 265.634 -5.34683 -0.0430284 0
M  V30 2749 H 265.977 -4.01101 -1.1146 0
M  V30 2750 H 266.51 -3.93512 0.582476 0
M  V30 2751 H 263.249 -5.90826 2.83911 0
M  V30 2752 H 262.769 -5.89124 1.12661 0
M  V30 2753 H 264.448 -6.27371 1.58159 0
M  V30 2754 N 264.58 -0.43555 -1.51462 0
M  V30 2755 C 265.543 0.365137 -2.26273 0
M  V30 2756 C 266.543 0.951227 -1.29647 0
M  V30 2757 O 267.733 0.825958 -1.53374 0
M  V30 2758 C 264.865 1.51645 -3.05314 0
M  V30 2759 H 266.058 -0.290474 -2.9849 0
M  V30 2760 H 263.611 -0.188676 -1.55157 0
M  V30 2761 H 264.346 2.20816 -2.3751 0
M  V30 2762 H 264.131 1.10238 -3.76284 0
M  V30 2763 H 265.621 2.08218 -3.61987 0
M  V30 2764 N 266.058 1.56714 -0.166846 0
M  V30 2765 C 266.968 2.21331 0.777791 0
M  V30 2766 C 267.984 1.20358 1.25658 0
M  V30 2767 O 269.16 1.53005 1.30964 0
M  V30 2768 C 266.225 2.83787 1.99163 0
M  V30 2769 C 265.286 3.99947 1.56016 0
M  V30 2770 C 264.519 4.59415 2.71613 0
M  V30 2771 O 264.742 4.17769 3.88362 0
M  V30 2772 O 263.676 5.49359 2.45945 0
M  V30 2773 H 267.502 3.02605 0.257636 0
M  V30 2774 H 265.087 1.49275 0.0611393 0
M  V30 2775 H 266.969 3.23405 2.70161 0
M  V30 2776 H 265.644 2.05513 2.50092 0
M  V30 2777 H 264.551 3.65007 0.819809 0
M  V30 2778 H 265.884 4.79801 1.09782 0
M  V30 2779 N 267.536 -0.106894 1.57237 0
M  V30 2780 C 268.783 -0.812526 1.85484 0
M  V30 2781 C 269.111 -1.79304 0.753687 0
M  V30 2782 O 268.366 -1.94047 -0.253853 0
M  V30 2783 C 268.665 -1.58628 3.20268 0
M  V30 2784 C 268.331 -0.748967 4.44636 0
M  V30 2785 C 266.993 -0.518104 4.78403 0
M  V30 2786 C 269.345 -0.166122 5.20935 0
M  V30 2787 C 266.673 0.305659 5.85903 0
M  V30 2788 C 269.025 0.644899 6.29304 0
M  V30 2789 C 267.689 0.885965 6.61594 0
M  V30 2790 H 266.959 -0.297324 0.678734 0
M  V30 2791 H 269.606 -0.0744332 1.91355 0
M  V30 2792 H 267.911 -2.39562 3.10028 0
M  V30 2793 H 269.608 -2.13643 3.39349 0
M  V30 2794 H 266.198 -0.939006 4.18187 0
M  V30 2795 H 270.382 -0.33167 4.95191 0
M  V30 2796 H 265.638 0.501528 6.0934 0
M  V30 2797 H 269.812 1.10345 6.87602 0
M  V30 2798 H 267.439 1.52609 7.44725 0
M  V30 2799 N 269.014 -1.53014 -0.377408 0
M  V30 2800 C 269.977 -1.77957 -1.44444 0
M  V30 2801 C 270.977 -0.649763 -1.47087 0
M  V30 2802 O 272.167 -0.917897 -1.48055 0
M  V30 2803 C 269.299 -1.89089 -2.83651 0
M  V30 2804 H 270.492 -2.73243 -1.23606 0
M  V30 2805 H 268.045 -1.43912 -0.609844 0
M  V30 2806 H 268.78 -0.958293 -3.09818 0
M  V30 2807 H 268.565 -2.71254 -2.83132 0
M  V30 2808 H 270.055 -2.1002 -3.60945 0
M  V30 2809 N 270.492 0.636531 -1.44174 0
M  V30 2810 C 271.739 1.39619 -1.46672 0
M  V30 2811 C 272.067 1.94257 -0.0972691 0
M  V30 2812 O 271.322 1.73768 0.900175 0
M  V30 2813 C 271.621 2.58309 -2.47005 0
M  V30 2814 C 271.287 2.21992 -3.92467 0
M  V30 2815 C 269.949 2.118 -4.32081 0
M  V30 2816 C 272.301 1.9321 -4.84065 0
M  V30 2817 C 269.629 1.71007 -5.61225 0
M  V30 2818 C 271.981 1.53911 -6.13591 0
M  V30 2819 C 270.645 1.42257 -6.52165 0
M  V30 2820 H 269.915 0.510902 -0.536712 0
M  V30 2821 H 272.562 0.722328 -1.77355 0
M  V30 2822 H 270.867 3.30903 -2.09786 0
M  V30 2823 H 272.564 3.16533 -2.46186 0
M  V30 2824 H 269.154 2.30841 -3.61124 0
M  V30 2825 H 273.338 1.99997 -4.54219 0
M  V30 2826 H 268.594 1.60583 -5.89935 0
M  V30 2827 H 272.768 1.30677 -6.8403 0
M  V30 2828 H 270.395 1.10419 -7.52138 0
M  V30 2829 N 271.97 1.30982 0.876444 0
M  V30 2830 C 272.88 1.2003 2.01569 0
M  V30 2831 C 273.896 0.11838 1.73597 0
M  V30 2832 O 275.072 0.33495 1.98595 0
M  V30 2833 C 272.137 0.901637 3.34771 0
M  V30 2834 C 271.198 2.06979 3.76109 0
M  V30 2835 C 270.431 1.78529 5.02954 0
M  V30 2836 O 270.654 0.717296 5.65872 0
M  V30 2837 O 269.588 2.64019 5.40905 0
M  V30 2838 H 273.414 2.15753 2.13739 0
M  V30 2839 H 270.999 1.10658 1.00375 0
M  V30 2840 H 272.881 0.750645 4.1466 0
M  V30 2841 H 271.556 -0.0256141 3.2369 0
M  V30 2842 H 270.463 2.27616 2.96887 0
M  V30 2843 H 271.796 2.97907 3.91807 0
M  V30 2844 N 273.449 -1.08991 1.13837 0
M  V30 2845 C 274.679 -1.84743 0.924859 0
M  V30 2846 C 275.087 -1.81629 -0.529874 0
M  V30 2847 O 274.43 -1.21397 -1.37872 0
M  V30 2848 C 274.492 -3.33568 1.34061 0
M  V30 2849 C 274.156 -3.60425 2.80968 0
M  V30 2850 C 275.153 -3.55771 3.79108 0
M  V30 2851 C 272.838 -3.88627 3.18236 0
M  V30 2852 C 274.832 -3.78939 5.12527 0
M  V30 2853 C 272.519 -4.11449 4.51833 0
M  V30 2854 C 273.517 -4.06598 5.48787 0
M  V30 2855 O 273.205 -4.28826 6.79973 0
M  V30 2856 H 272.937 -0.590258 0.329502 0
M  V30 2857 H 275.491 -1.38598 1.51591 0
M  V30 2858 H 273.721 -3.80442 0.692853 0
M  V30 2859 H 275.41 -3.90743 1.09886 0
M  V30 2860 H 276.176 -3.34005 3.51661 0
M  V30 2861 H 272.055 -3.91526 2.43369 0
M  V30 2862 H 275.599 -3.75068 5.88192 0
M  V30 2863 H 271.496 -4.32698 4.79002 0
M  V30 2864 H 272.264 -4.46264 6.86142 0
M  V30 2865 N 274.927 -0.932562 -1.27047 0
M  V30 2866 C 275.89 -0.440064 -2.24936 0
M  V30 2867 C 276.89 0.444071 -1.54547 0
M  V30 2868 O 278.08 0.244465 -1.72476 0
M  V30 2869 C 275.212 0.36678 -3.38921 0
M  V30 2870 H 276.405 -1.305 -2.70018 0
M  V30 2871 H 273.958 -0.713707 -1.39054 0
M  V30 2872 H 274.693 1.25033 -2.99228 0
M  V30 2873 H 274.478 -0.267204 -3.91188 0
M  V30 2874 H 275.968 0.701567 -4.11665 0
M  V30 2875 N 276.405 1.4127 -0.698611 0
M  V30 2876 C 277.821 1.55241 -0.370462 0
M  V30 2877 C 278.021 1.67351 1.12231 0
M  V30 2878 O 277.077 1.65363 1.90818 0
M  V30 2879 C 278.39 2.78997 -1.12165 0
M  V30 2880 C 279.938 2.92797 -1.1063 0
M  V30 2881 C 280.413 4.19445 -1.8393 0
M  V30 2882 N 281.904 4.26409 -1.80914 0
M  V30 2883 C 282.639 5.23271 -2.34467 0
M  V30 2884 N 282.135 6.26145 -2.96504 0
M  V30 2885 N 283.928 5.15232 -2.24706 0
M  V30 2886 H 276.079 1.31654 -1.66676 0
M  V30 2887 H 278.342 0.635393 -0.703548 0
M  V30 2888 H 278.048 2.76268 -2.17644 0
M  V30 2889 H 277.922 3.70606 -0.702209 0
M  V30 2890 H 280.309 2.95039 -0.0597713 0
M  V30 2891 H 280.39 2.02353 -1.56483 0
M  V30 2892 H 280.034 4.17964 -2.88563 0
M  V30 2893 H 279.964 5.08866 -1.35509 0
M  V30 2894 H 282.455 3.527 -1.35687 0
M  V30 2895 H 282.768 6.96451 -3.34927 0
M  V30 2896 H 281.113 6.26638 -3.00583 0
M  V30 2897 H 284.304 4.33789 -1.7591 0
M  V30 2898 H 284.477 5.90552 -2.66745 0
M  V30 2899 N 277.883 0.443576 1.51229 0
M  V30 2900 C 278.831 -0.37904 2.29491 0
M  V30 2901 C 279.825 -1.0153 1.35603 0
M  V30 2902 O 281.031 -0.94955 1.52917 0
M  V30 2903 H 277.406 -0.141053 0.738653 0
M  V30 2904 H 279.377 0.301799 2.9687 0
M  V30 2905 C 278.126 -1.46426 3.15364 0
M  V30 2906 H 277.449 -0.984037 3.87501 0
M  V30 2907 H 278.889 -2.01297 3.7317 0
M  V30 2908 C 277.348 -2.45099 2.31146 0
M  V30 2909 O 277.878 -3.49773 1.9754 0
M  V30 2910 N 276.084 -2.16139 1.94249 0
M  V30 2911 H 275.631 -1.31044 2.21777 0
M  V30 2912 H 275.589 -2.82398 1.38198 0
M  V30 2913 N 279.361 -1.56624 0.175154 0
M  V30 2914 C 280.309 -2.19468 -0.770495 0
M  V30 2915 C 281.303 -1.15985 -1.23466 0
M  V30 2916 O 282.509 -1.34176 -1.19987 0
M  V30 2917 H 278.884 -0.703095 -0.266761 0
M  V30 2918 H 280.855 -2.97613 -0.216542 0
M  V30 2919 C 279.604 -2.85264 -1.98796 0
M  V30 2920 H 278.927 -3.64623 -1.63983 0
M  V30 2921 H 280.367 -3.327 -2.62843 0
M  V30 2922 C 278.826 -1.85239 -2.81404 0
M  V30 2923 O 279.356 -1.34024 -3.78682 0
M  V30 2924 N 277.562 -1.53911 -2.46495 0
M  V30 2925 H 277.109 -1.95751 -1.67449 0
M  V30 2926 H 277.067 -0.872382 -3.02054 0
M  V30 2927 N 280.839 0.0985539 -1.57292 0
M  V30 2928 C 281.789 1.1261 -1.9825 0
M  V30 2929 C 282.773 1.35961 -0.860426 0
M  V30 2930 O 283.965 1.36711 -1.12424 0
M  V30 2931 C 281.094 2.44727 -2.40757 0
M  V30 2932 C 280.18 2.24764 -3.59642 0
M  V30 2933 N 280.571 1.74661 -4.74687 0
M  V30 2934 C 278.869 2.55344 -3.65672 0
M  V30 2935 C 279.57 1.68887 -5.56644 0
M  V30 2936 N 278.546 2.13976 -4.99715 0
M  V30 2937 H 282.348 0.731604 -2.84648 0
M  V30 2938 H 279.862 0.306029 -1.59491 0
M  V30 2939 H 281.859 3.19072 -2.68326 0
M  V30 2940 H 280.519 2.84917 -1.55733 0
M  V30 2941 H 281.53 1.43908 -4.97505 0
M  V30 2942 H 278.207 2.99081 -2.91302 0
M  V30 2943 H 279.597 1.3123 -6.5896 0
M  V30 2944 N 282.317 1.53212 0.369288 0
M  V30 2945 C 283.733 1.42902 0.710712 0
M  V30 2946 C 283.933 0.565135 1.93413 0
M  V30 2947 O 282.989 0.0461484 2.52458 0
M  V30 2948 C 284.302 2.86042 0.927382 0
M  V30 2949 C 285.85 2.9565 1.02762 0
M  V30 2950 C 286.325 4.39843 1.27679 0
M  V30 2951 N 287.816 4.43256 1.34457 0
M  V30 2952 C 288.551 5.51929 1.55439 0
M  V30 2953 N 288.047 6.70655 1.73762 0
M  V30 2954 N 289.84 5.39502 1.57779 0
M  V30 2955 H 281.991 2.07888 -0.435457 0
M  V30 2956 H 284.254 0.938661 -0.132739 0
M  V30 2957 H 283.96 3.51557 0.100287 0
M  V30 2958 H 283.834 3.29472 1.83653 0
M  V30 2959 H 286.221 2.30291 1.84527 0
M  V30 2960 H 286.302 2.5562 0.0959504 0
M  V30 2961 H 285.946 5.05774 0.464175 0
M  V30 2962 H 285.876 4.77443 2.22162 0
M  V30 2963 H 288.367 3.5769 1.21926 0
M  V30 2964 H 288.68 7.49248 1.89335 0
M  V30 2965 H 287.025 6.73648 1.70948 0
M  V30 2966 H 290.216 4.45713 1.43029 0
M  V30 2967 H 290.389 6.2426 1.7379 0
M  V30 2968 N 283.795 -0.628877 1.44509 0
M  V30 2969 C 285.02 -1.42048 1.5112 0
M  V30 2970 C 285.445 -1.87594 0.137818 0
M  V30 2971 O 284.803 -1.58873 -0.873437 0
M  V30 2972 C 284.851 -2.61541 2.48251 0
M  V30 2973 O 283.955 -3.61453 1.98559 0
M  V30 2974 H 283.296 -0.424942 0.510216 0
M  V30 2975 H 285.826 -0.767374 1.89664 0
M  V30 2976 H 285.836 -3.09057 2.66361 0
M  V30 2977 H 284.511 -2.27736 3.48007 0
M  V30 2978 H 283.088 -3.20731 1.90227 0
M  V30 2979 N 285.273 -1.31445 -0.869486 0
M  V30 2980 C 286.221 -1.19067 -1.99814 0
M  V30 2981 C 287.215 -0.0988569 -1.69111 0
M  V30 2982 O 288.421 -0.260781 -1.78101 0
M  V30 2983 H 284.796 -0.368677 -0.655425 0
M  V30 2984 H 286.767 -2.14555 -2.07385 0
M  V30 2985 C 285.516 -0.915323 -3.35436 0
M  V30 2986 H 284.839 -1.74759 -3.59582 0
M  V30 2987 H 286.279 -0.868895 -4.15001 0
M  V30 2988 C 284.738 0.381928 -3.34728 0
M  V30 2989 O 285.268 1.39857 -3.76567 0
M  V30 2990 N 283.474 0.398633 -2.87853 0
M  V30 2991 H 283.021 -0.429186 -2.54 0
M  V30 2992 H 282.979 1.26651 -2.87762 0
M  V30 2993 N 286.751 1.08385 -1.14413 0
M  V30 2994 C 287.997 1.81044 -0.913834 0
M  V30 2995 C 288.33 1.86004 0.558209 0
M  V30 2996 O 287.605 1.33606 1.4135 0
M  V30 2997 C 287.888 3.26648 -1.51569 0
M  V30 2998 C 287.741 3.29895 -3.0576 0
M  V30 2999 C 289.06 4.23629 -1.19273 0
M  V30 3000 H 286.179 0.65727 -0.333414 0
M  V30 3001 H 288.821 1.26896 -1.41412 0
M  V30 3002 H 286.971 3.72889 -1.09023 0
M  V30 3003 H 288.643 2.91977 -3.57137 0
M  V30 3004 H 286.886 2.69163 -3.40197 0
M  V30 3005 H 287.557 4.32516 -3.42977 0
M  V30 3006 H 290.033 3.85727 -1.56057 0
M  V30 3007 H 288.909 5.23822 -1.64017 0
M  V30 3008 H 289.17 4.41968 -0.108068 0
M  V30 3009 N 288.23 0.939286 1.26551 0
M  V30 3010 C 289.458 0.602536 1.97932 0
M  V30 3011 C 289.873 -0.82206 1.69964 0
M  V30 3012 O 289.23 -1.54789 0.966784 0
M  V30 3013 C 289.281 0.832946 3.51773 0
M  V30 3014 O 289.002 2.20151 3.78768 0
M  V30 3015 C 290.503 0.506483 4.40397 0
M  V30 3016 H 287.723 0.227248 0.631347 0
M  V30 3017 H 290.267 1.25948 1.61113 0
M  V30 3018 H 288.422 0.222644 3.8676 0
M  V30 3019 H 288.836 2.26013 4.73306 0
M  V30 3020 H 290.31 0.718333 5.47306 0
M  V30 3021 H 290.787 -0.558451 4.35635 0
M  V30 3022 H 291.393 1.09543 4.10951 0
M  V30 3023 N 289.708 -1.40897 0.706093 0
M  V30 3024 C 290.671 -2.29131 0.0562841 0
M  V30 3025 C 291.671 -1.44901 -0.697166 0
M  V30 3026 O 292.861 -1.65926 -0.530484 0
M  V30 3027 C 289.993 -3.27957 -0.93043 0
M  V30 3028 H 291.186 -2.88091 0.833284 0
M  V30 3029 H 288.739 -1.4906 0.470192 0
M  V30 3030 H 289.474 -2.73997 -1.73482 0
M  V30 3031 H 289.259 -3.90124 -0.393166 0
M  V30 3032 H 290.749 -3.94049 -1.38256 0
M  V30 3033 N 291.186 -0.45159 -1.50991 0
M  V30 3034 C 292.432 0.110237 -2.025 0
M  V30 3035 C 292.765 1.41109 -1.33424 0
M  V30 3036 O 292.04 1.89135 -0.453659 0
M  V30 3037 C 292.323 0.314271 -3.58726 0
M  V30 3038 C 292.176 -1.00623 -4.38401 0
M  V30 3039 C 293.495 1.07767 -4.26702 0
M  V30 3040 H 290.614 0.0385897 -0.735989 0
M  V30 3041 H 293.256 -0.593374 -1.80497 0
M  V30 3042 H 291.406 0.913601 -3.77605 0
M  V30 3043 H 293.078 -1.64064 -4.31139 0
M  V30 3044 H 291.321 -1.6075 -4.02917 0
M  V30 3045 H 291.992 -0.817341 -5.45915 0
M  V30 3046 H 294.468 0.56986 -4.12179 0
M  V30 3047 H 293.344 1.18921 -5.35863 0
M  V30 3048 H 293.605 2.10939 -3.88532 0
M  V30 3049 N 292.664 1.56529 -0.183458 0
M  V30 3050 C 293.614 2.1515 0.754605 0
M  V30 3051 C 294.598 1.08904 1.18443 0
M  V30 3052 O 295.79 1.34997 1.14476 0
M  V30 3053 C 292.919 2.80531 1.97881 0
M  V30 3054 C 292.005 3.93952 1.57043 0
M  V30 3055 N 292.396 4.98221 0.87231 0
M  V30 3056 C 290.694 4.05338 1.86057 0
M  V30 3057 C 291.395 5.77836 0.669377 0
M  V30 3058 N 290.371 5.29858 1.21454 0
M  V30 3059 H 294.173 2.93132 0.212387 0
M  V30 3060 H 291.687 1.62391 0.0167725 0
M  V30 3061 H 293.684 3.20914 2.6612 0
M  V30 3062 H 292.344 2.04035 2.52586 0
M  V30 3063 H 293.355 5.15191 0.529033 0
M  V30 3064 H 290.032 3.39957 2.42354 0
M  V30 3065 H 291.422 6.71799 0.116422 0
M  V30 3066 N 294.142 -0.090211 1.57342 0
M  V30 3067 C 295.089 -1.10909 2.02405 0
M  V30 3068 C 296.059 -1.39523 0.901252 0
M  V30 3069 O 297.244 -1.50903 1.1676 0
M  V30 3070 C 294.384 -2.42277 2.45755 0
M  V30 3071 C 293.497 -2.20352 3.71576 0
M  V30 3072 C 292.632 -3.45154 4.03785 0
M  V30 3073 C 291.671 -3.18512 5.22701 0
M  V30 3074 N 290.808 -4.35593 5.50639 0
M  V30 3075 H 295.648 -0.71782 2.89225 0
M  V30 3076 H 293.185 -0.342901 1.43048 0
M  V30 3077 H 295.143 -3.18951 2.68935 0
M  V30 3078 H 293.773 -2.79242 1.61938 0
M  V30 3079 H 292.825 -1.34458 3.55844 0
M  V30 3080 H 294.137 -1.96661 4.58395 0
M  V30 3081 H 293.291 -4.30233 4.27767 0
M  V30 3082 H 292.03 -3.71904 3.15498 0
M  V30 3083 H 291.035 -2.31827 4.98534 0
M  V30 3084 H 292.26 -2.93103 6.12591 0
M  V30 3085 H 290.206 -4.6241 4.6531 0
M  V30 3086 H 290.123 -4.1511 6.31838 0
M  V30 3087 H 291.391 -5.21723 5.7916 0
M  V30 3088 N 295.62 -1.53406 -0.361157 0
M  V30 3089 C 296.583 -1.79479 -1.42548 0
M  V30 3090 C 297.583 -0.665327 -1.4639 0
M  V30 3091 O 298.773 -0.933549 -1.47073 0
M  V30 3092 C 295.905 -1.92087 -2.8163 0
M  V30 3093 H 297.098 -2.74538 -1.20701 0
M  V30 3094 H 294.651 -1.4455 -0.594546 0
M  V30 3095 H 295.386 -0.991099 -3.08784 0
M  V30 3096 H 295.171 -2.74241 -2.80239 0
M  V30 3097 H 296.661 -2.13836 -3.58697 0
M  V30 3098 N 297.098 0.621204 -1.44841 0
M  V30 3099 C 298.046 1.75385 -1.52784 0
M  V30 3100 C 299.04 1.64639 -0.398779 0
M  V30 3101 O 300.246 1.70598 -0.574137 0
M  V30 3102 H 296.621 0.579193 -0.479625 0
M  V30 3103 H 298.592 1.6581 -2.48092 0
M  V30 3104 C 297.341 3.13742 -1.4987 0
M  V30 3105 H 296.664 3.22663 -2.36069 0
M  V30 3106 H 298.104 3.92861 -1.59487 0
M  V30 3107 C 296.563 3.36175 -0.220973 0
M  V30 3108 O 297.093 3.95469 0.704782 0
M  V30 3109 N 295.299 2.90348 -0.120963 0
M  V30 3110 H 294.846 2.42278 -0.875162 0
M  V30 3111 H 294.804 3.05732 0.733168 0
M  V30 3112 N 298.576 1.31904 0.862503 0
M  V30 3113 C 299.825 1.21373 1.61094 0
M  V30 3114 C 300.138 -0.22504 1.94301 0
M  V30 3115 O 301.344 -0.452121 2.67709 0
M  V30 3116 C 299.8 2.12525 2.9045 0
M  V30 3117 C 299.408 3.61441 2.64697 0
M  V30 3118 C 301.152 2.10813 3.68454 0
M  V30 3119 C 299.059 4.44578 3.90006 0
M  V30 3120 H 297.989 0.450705 0.604468 0
M  V30 3121 H 300.64 1.56811 0.953027 0
M  V30 3122 H 299.022 1.69994 3.57656 0
M  V30 3123 H 300.196 4.12264 2.05851 0
M  V30 3124 H 298.511 3.65205 2.00036 0
M  V30 3125 H 301.108 2.70167 4.61426 0
M  V30 3126 H 301.451 1.09713 4.01583 0
M  V30 3127 H 301.984 2.51583 3.08141 0
M  V30 3128 H 298.723 5.46461 3.62023 0
M  V30 3129 H 298.243 3.98508 4.48276 0
M  V30 3130 H 299.922 4.57176 4.5782 0
M  V30 3131 N 300.054 -1.07777 1.14986 0
M  V30 3132 C 300.987 -2.14228 0.786243 0
M  V30 3133 C 301.965 -1.60888 -0.235347 0
M  V30 3134 O 303.149 -1.88099 -0.122909 0
M  V30 3135 C 300.276 -3.38281 0.168433 0
M  V30 3136 C 299.322 -4.10387 1.16123 0
M  V30 3137 S 300.155 -4.62371 2.70135 0
M  V30 3138 C 301.311 -5.89704 2.09762 0
M  V30 3139 H 301.544 -2.44741 1.68787 0
M  V30 3140 H 299.077 -1.19984 0.971756 0
M  V30 3141 H 301.035 -4.10098 -0.181588 0
M  V30 3142 H 299.696 -3.05953 -0.710725 0
M  V30 3143 H 298.889 -4.99431 0.677086 0
M  V30 3144 H 298.491 -3.44513 1.45556 0
M  V30 3145 H 300.783 -6.61648 1.45701 0
M  V30 3146 H 301.726 -6.42824 2.96955 0
M  V30 3147 H 302.134 -5.4302 1.54239 0
M  V30 3148 N 301.532 -0.945985 -1.26051 0
M  V30 3149 C 302.948 -0.649045 -1.45807 0
M  V30 3150 C 303.148 0.796158 -1.85104 0
M  V30 3151 O 302.204 1.57233 -1.97571 0
M  V30 3152 C 303.517 -1.61458 -2.53677 0
M  V30 3153 C 305.065 -1.62481 -2.67524 0
M  V30 3154 C 305.54 -2.57776 -3.7857 0
M  V30 3155 N 307.031 -2.5609 -3.85969 0
M  V30 3156 C 307.766 -3.26508 -4.7136 0
M  V30 3157 N 307.262 -4.0637 -5.61102 0
M  V30 3158 N 309.055 -3.15437 -4.65248 0
M  V30 3159 H 301.206 -1.88005 -0.988328 0
M  V30 3160 H 303.469 -0.808198 -0.4955 0
M  V30 3161 H 303.175 -2.64644 -2.31638 0
M  V30 3162 H 303.049 -1.37036 -3.51427 0
M  V30 3163 H 305.436 -0.600167 -2.88933 0
M  V30 3164 H 305.517 -1.90958 -1.70202 0
M  V30 3165 H 305.161 -3.60361 -3.57913 0
M  V30 3166 H 305.091 -2.26587 -4.75359 0
M  V30 3167 H 307.582 -1.98105 -3.21812 0
M  V30 3168 H 307.895 -4.57042 -6.23164 0
M  V30 3169 H 306.24 -4.10469 -5.60839 0
M  V30 3170 H 309.431 -2.52525 -3.94143 0
M  V30 3171 H 309.604 -3.70584 -5.31575 0
M  V30 3172 N 303.011 1.40521 -0.713556 0
M  V30 3173 C 303.944 2.28198 -0.00881422 0
M  V30 3174 C 304.922 1.43227 0.769735 0
M  V30 3175 O 306.106 1.72641 0.756799 0
M  V30 3176 C 303.233 3.23758 0.994899 0
M  V30 3177 C 302.279 4.25391 0.3074 0
M  V30 3178 S 303.112 5.26765 -0.963247 0
M  V30 3179 C 304.268 6.25888 0.0384143 0
M  V30 3180 H 304.501 2.87622 -0.752407 0
M  V30 3181 H 302.034 1.45925 -0.504502 0
M  V30 3182 H 303.992 3.79341 1.56879 0
M  V30 3183 H 302.653 2.63396 1.71118 0
M  V30 3184 H 301.846 4.92596 1.0661 0
M  V30 3185 H 301.448 3.73497 -0.193879 0
M  V30 3186 H 303.74 6.71683 0.885912 0
M  V30 3187 H 304.683 7.05552 -0.60019 0
M  V30 3188 H 305.091 5.63072 0.401233 0
M  V30 3189 N 304.489 0.459591 1.5075 0
M  V30 3190 C 305.714 -0.0996819 2.0716 0
M  V30 3191 C 306.139 -1.33761 1.32249 0
M  V30 3192 O 305.497 -1.77551 0.366786 0
M  V30 3193 C 305.545 -0.378226 3.58611 0
M  V30 3194 O 304.649 -1.46081 3.85661 0
M  V30 3195 H 303.99 0.00791392 0.663953 0
M  V30 3196 H 306.52 0.647329 1.9409 0
M  V30 3197 H 306.53 -0.622135 4.03229 0
M  V30 3198 H 305.205 0.526439 4.12555 0
M  V30 3199 H 303.782 -1.20511 3.5289 0
M  V30 3200 N 305.967 -1.56429 0.191757 0
M  V30 3201 C 307.244 -1.89224 -0.495332 0
M  V30 3202 C 307.624 -1.10478 -1.79883 0
M  V30 3203 O 306.972 -0.204852 -2.2758 0
M  V30 3204 C 307.182 -3.41548 -0.717367 0
M  V30 3205 C 308.53 -4.11711 -1.03823 0
M  V30 3206 O 309.554 -3.4698 -0.805204 0
M  V30 3207 O 308.413 -5.2611 -1.47887 0
M  V30 3208 H 305.507 -0.785788 -0.25781 0
M  V30 3209 H 308.053 -1.68111 0.231721 0
M  V30 3210 H 306.825 -3.90772 0.203287 0
M  V30 3211 H 306.448 -3.68342 -1.497 0
M  V30 3212 N 307.445 0.0818655 -1.57387 0
M  V30 3213 C 308.693 0.781368 -1.86384 0
M  V30 3214 C 309.014 1.78618 -0.782342 0
M  V30 3215 O 308.284 1.94976 0.190061 0
M  V30 3216 H 306.864 0.291562 -0.687751 0
M  V30 3217 H 309.526 0.060348 -1.94807 0
M  V30 3218 H 308.622 1.3038 -2.83562 0
M  V30 3219 N 308.923 1.53595 0.353017 0
M  V30 3220 C 309.853 1.83902 1.43883 0
M  V30 3221 C 310.834 0.693421 1.55324 0
M  V30 3222 O 312.019 0.944452 1.69687 0
M  V30 3223 C 309.149 2.04016 2.8106 0
M  V30 3224 C 308.103 3.19814 2.84434 0
M  V30 3225 C 307.429 3.25244 4.24406 0
M  V30 3226 C 308.729 4.58133 2.50822 0
M  V30 3227 H 310.423 2.74835 1.1877 0
M  V30 3228 H 307.969 1.32242 0.569917 0
M  V30 3229 H 309.922 2.238 3.57059 0
M  V30 3230 H 308.646 1.09804 3.07588 0
M  V30 3231 H 307.305 2.9987 2.10887 0
M  V30 3232 H 306.953 2.28646 4.48029 0
M  V30 3233 H 306.653 4.03054 4.27576 0
M  V30 3234 H 308.177 3.47228 5.0226 0
M  V30 3235 H 309.591 4.77995 3.16534 0
M  V30 3236 H 307.988 5.38276 2.6529 0
M  V30 3237 H 309.058 4.62387 1.46034 0
M  V30 3238 N 310.401 -0.613514 1.45168 0
M  V30 3239 C 311.648 -1.37268 1.48875 0
M  V30 3240 C 311.976 -1.94077 0.128161 0
M  V30 3241 O 311.231 -1.75178 -0.872416 0
M  V30 3242 C 311.53 -2.54347 2.51083 0
M  V30 3243 C 311.196 -2.1572 3.95949 0
M  V30 3244 C 309.858 -2.04899 4.35396 0
M  V30 3245 C 312.21 -1.85485 4.87078 0
M  V30 3246 C 309.538 -1.62057 5.63875 0
M  V30 3247 C 311.89 -1.4413 6.15962 0
M  V30 3248 C 310.554 -1.31863 6.54346 0
M  V30 3249 H 309.824 -0.502299 0.544773 0
M  V30 3250 H 312.471 -0.694021 1.78481 0
M  V30 3251 H 310.776 -3.27524 2.15024 0
M  V30 3252 H 312.473 -3.12577 2.51191 0
M  V30 3253 H 309.063 -2.25066 3.64751 0
M  V30 3254 H 313.247 -1.92745 4.57343 0
M  V30 3255 H 308.503 -1.51177 5.92415 0
M  V30 3256 H 312.677 -1.19778 6.86022 0
M  V30 3257 H 310.304 -0.984392 7.538 0
M  V30 3258 N 311.879 -1.3236 -0.855495 0
M  V30 3259 C 312.809 -1.23833 -1.97958 0
M  V30 3260 C 313.79 -0.122361 -1.69659 0
M  V30 3261 O 314.975 -0.30939 -1.9172 0
M  V30 3262 C 312.105 -0.959772 -3.33775 0
M  V30 3263 C 311.059 -2.03689 -3.76424 0
M  V30 3264 C 310.385 -1.61075 -5.09862 0
M  V30 3265 C 311.685 -3.4518 -3.9198 0
M  V30 3266 H 313.379 -2.1788 -2.0535 0
M  V30 3267 H 310.925 -1.04891 -0.986605 0
M  V30 3268 H 312.878 -0.886678 -4.11966 0
M  V30 3269 H 311.602 0.0163404 -3.26596 0
M  V30 3270 H 310.261 -2.10012 -3.00484 0
M  V30 3271 H 309.909 -0.622107 -4.99138 0
M  V30 3272 H 309.609 -2.33143 -5.39368 0
M  V30 3273 H 311.133 -1.55201 -5.90546 0
M  V30 3274 H 312.547 -3.4145 -4.60526 0
M  V30 3275 H 310.944 -4.1559 -4.32903 0
M  V30 3276 H 312.014 -3.84903 -2.94919 0
M  V30 3277 N 313.357 1.07166 -1.15556 0
M  V30 3278 C 314.289 2.14341 -0.811815 0
M  V30 3279 C 315.302 1.61835 0.177015 0
M  V30 3280 O 316.491 1.78439 -0.0464996 0
M  V30 3281 C 313.591 3.38387 -0.186481 0
M  V30 3282 C 312.764 4.20238 -1.21321 0
M  V30 3283 C 311.823 5.2266 -0.609302 0
M  V30 3284 O 310.849 5.54719 -1.27576 0
M  V30 3285 N 312.051 5.77306 0.608099 0
M  V30 3286 H 314.816 2.44431 -1.73417 0
M  V30 3287 H 312.377 1.23089 -1.0517 0
M  V30 3288 H 314.369 4.04044 0.230339 0
M  V30 3289 H 312.939 3.05994 0.639249 0
M  V30 3290 H 312.159 3.50369 -1.80652 0
M  V30 3291 H 313.447 4.71736 -1.90638 0
M  V30 3292 H 312.845 5.53513 1.1679 0
M  V30 3293 H 311.402 6.44583 0.96725 0
M  V30 3294 N 314.835 0.952656 1.25548 0
M  V30 3295 C 315.782 0.47008 2.25962 0
M  V30 3296 C 316.752 -0.476384 1.59122 0
M  V30 3297 O 317.937 -0.39007 1.8677 0
M  V30 3298 C 315.077 -0.247881 3.44209 0
M  V30 3299 C 314.19 0.735591 4.25691 0
M  V30 3300 C 313.325 -0.0047306 5.312 0
M  V30 3301 C 312.364 0.969805 6.04368 0
M  V30 3302 N 311.501 0.260486 7.01617 0
M  V30 3303 H 316.341 1.33126 2.66611 0
M  V30 3304 H 313.878 0.66765 1.31076 0
M  V30 3305 H 315.836 -0.680695 4.1161 0
M  V30 3306 H 314.466 -1.07312 3.0444 0
M  V30 3307 H 313.518 1.28689 3.57971 0
M  V30 3308 H 314.83 1.47934 4.76358 0
M  V30 3309 H 313.984 -0.496275 6.04667 0
M  V30 3310 H 312.723 -0.781282 4.81401 0
M  V30 3311 H 311.728 1.47237 5.29718 0
M  V30 3312 H 312.953 1.74655 6.56256 0
M  V30 3313 H 310.899 -0.497364 6.54112 0
M  V30 3314 H 310.816 0.943362 7.50091 0
M  V30 3315 H 312.084 -0.209587 7.79218 0
M  V30 3316 N 316.313 -1.40141 0.720998 0
M  V30 3317 C 317.553 -2.02644 0.267335 0
M  V30 3318 C 317.917 -1.55948 -1.12001 0
M  V30 3319 O 319.118 -2.10552 -1.67097 0
M  V30 3320 C 317.389 -3.55679 0.350281 0
M  V30 3321 S 318.948 -4.38793 -0.0256004 0
M  V30 3322 H 315.766 -0.703105 0.105664 0
M  V30 3323 H 318.368 -1.71175 0.944416 0
M  V30 3324 H 317.072 -3.87157 1.36153 0
M  V30 3325 H 316.603 -3.91883 -0.345096 0
M  V30 3326 H 318.618 -4.803 -1.24604 0
M  V30 3327 N 317.792 -0.46758 -1.50504 0
M  V30 3328 C 319.208 -0.121533 -1.59137 0
M  V30 3329 C 319.408 1.3717 -1.47603 0
M  V30 3330 O 318.464 2.14464 -1.33272 0
M  V30 3331 C 319.777 -0.6686 -2.93173 0
M  V30 3332 C 321.325 -0.631716 -3.06559 0
M  V30 3333 C 321.8 -1.15627 -4.43164 0
M  V30 3334 N 323.291 -1.11553 -4.49567 0
M  V30 3335 C 324.026 -1.49195 -5.5365 0
M  V30 3336 N 323.522 -1.94269 -6.65005 0
M  V30 3337 N 325.315 -1.4082 -5.44175 0
M  V30 3338 H 317.466 -1.4388 -1.56245 0
M  V30 3339 H 319.729 -0.594784 -0.738198 0
M  V30 3340 H 319.435 -1.71453 -3.07078 0
M  V30 3341 H 319.309 -0.11021 -3.77039 0
M  V30 3342 H 321.696 0.405297 -2.92304 0
M  V30 3343 H 321.777 -1.22687 -2.24458 0
M  V30 3344 H 321.421 -2.1919 -4.58168 0
M  V30 3345 H 321.351 -0.537365 -5.23851 0
M  V30 3346 H 323.842 -0.784895 -3.69659 0
M  V30 3347 H 324.155 -2.21148 -7.40482 0
M  V30 3348 H 322.5 -1.98219 -6.66134 0
M  V30 3349 H 325.691 -1.0545 -4.56068 0
M  V30 3350 H 325.864 -1.70481 -6.25172 0
M  V30 3351 N 319.27 1.56325 -0.20005 0
M  V30 3352 C 320.18 2.22931 0.730668 0
M  V30 3353 C 321.196 1.22997 1.23076 0
M  V30 3354 O 322.372 1.55748 1.27689 0
M  V30 3355 C 319.437 2.87948 1.93098 0
M  V30 3356 C 318.498 4.03166 1.47497 0
M  V30 3357 C 317.731 4.65073 2.61807 0
M  V30 3358 O 317.954 4.25913 3.79413 0
M  V30 3359 O 316.888 5.54452 2.34237 0
M  V30 3360 H 320.714 3.03084 0.193391 0
M  V30 3361 H 318.299 1.49371 0.0294621 0
M  V30 3362 H 320.181 3.29063 2.6324 0
M  V30 3363 H 318.856 2.10771 2.45677 0
M  V30 3364 H 317.763 3.66664 0.742201 0
M  V30 3365 H 319.096 4.82022 0.995796 0
M  V30 3366 N 320.748 -0.0735177 1.57428 0
M  V30 3367 C 321.994 -0.774145 1.87443 0
M  V30 3368 C 322.327 -1.77311 0.792103 0
M  V30 3369 O 321.602 -1.93492 -0.197793 0
M  V30 3370 C 321.885 -1.48367 3.28115 0
M  V30 3371 C 321.738 -0.501227 4.46999 0
M  V30 3372 C 323.057 -2.429 3.66998 0
M  V30 3373 H 320.176 -0.279971 0.681752 0
M  V30 3374 H 322.818 -0.0373616 1.89963 0
M  V30 3375 H 320.968 -2.11171 3.26097 0
M  V30 3376 H 322.64 0.121468 4.6114 0
M  V30 3377 H 320.883 0.183593 4.33411 0
M  V30 3378 H 321.554 -1.03526 5.42205 0
M  V30 3379 H 324.03 -1.90175 3.70098 0
M  V30 3380 H 322.906 -2.89549 4.66318 0
M  V30 3381 H 323.167 -3.27628 2.96837 0
M  V30 3382 N 322.226 -1.5378 -0.344866 0
M  V30 3383 C 323.189 -1.80981 -1.40637 0
M  V30 3384 C 324.189 -0.680816 -1.45676 0
M  V30 3385 O 325.379 -0.949095 -1.46075 0
M  V30 3386 C 322.511 -1.95063 -2.79577 0
M  V30 3387 H 323.704 -2.75803 -1.17783 0
M  V30 3388 H 321.257 -1.45173 -0.579181 0
M  V30 3389 H 321.992 -1.02379 -3.07716 0
M  V30 3390 H 321.777 -2.77198 -2.77315 0
M  V30 3391 H 323.267 -2.17629 -3.56409 0
M  V30 3392 N 323.704 0.605807 -1.45491 0
M  V30 3393 C 324.614 1.74466 -1.56839 0
M  V30 3394 C 325.63 1.68006 -0.452772 0
M  V30 3395 O 326.806 1.8833 -0.713708 0
M  V30 3396 C 323.871 3.10931 -1.53371 0
M  V30 3397 C 322.932 3.28832 -2.75986 0
M  V30 3398 C 322.165 4.58787 -2.72673 0
M  V30 3399 O 322.388 5.4122 -1.80102 0
M  V30 3400 O 321.322 4.79438 -3.63899 0
M  V30 3401 H 325.148 1.67843 -2.53106 0
M  V30 3402 H 322.733 0.770108 -1.28022 0
M  V30 3403 H 324.615 3.92233 -1.54051 0
M  V30 3404 H 323.29 3.18042 -0.602572 0
M  V30 3405 H 322.197 2.47112 -2.80867 0
M  V30 3406 H 323.53 3.26599 -3.68231 0
M  V30 3407 N 325.182 1.32811 0.848464 0
M  V30 3408 C 326.407 1.26882 1.6406 0
M  V30 3409 C 326.832 -0.15913 1.87426 0
M  V30 3410 O 326.19 -1.11258 1.43148 0
M  V30 3411 C 326.238 2.03997 2.97351 0
M  V30 3412 O 325.342 1.39201 3.88197 0
M  V30 3413 H 324.683 0.436982 0.499943 0
M  V30 3414 H 327.213 1.75224 1.0563 0
M  V30 3415 H 327.223 2.14403 3.47124 0
M  V30 3416 H 325.898 3.0783 2.79666 0
M  V30 3417 H 324.475 1.37381 3.46671 0
M  V30 3418 N 326.66 -1.06551 1.16123 0
M  V30 3419 C 327.9 -1.80889 0.951766 0
M  V30 3420 C 328.264 -1.85062 -0.511465 0
M  V30 3421 O 329.465 -2.55353 -0.83954 0
M  V30 3422 C 327.736 -3.21609 1.55893 0
M  V30 3423 S 329.295 -4.12593 1.49373 0
M  V30 3424 H 326.113 -0.623156 0.342341 0
M  V30 3425 H 328.715 -1.27943 1.47821 0
M  V30 3426 H 327.419 -3.16165 2.61664 0
M  V30 3427 H 326.95 -3.79631 1.0317 0
M  V30 3428 H 328.965 -4.93753 0.492196 0
M  V30 3429 N 328.138 -0.959301 -1.25041 0
M  V30 3430 C 329.085 -0.482057 -2.2571 0
M  V30 3431 C 330.055 0.467939 -1.59372 0
M  V30 3432 O 331.24 0.380159 -1.86974 0
M  V30 3433 C 328.38 0.229623 -3.44335 0
M  V30 3434 C 327.493 -0.758156 -4.25295 0
M  V30 3435 C 326.628 -0.0234403 -5.31195 0
M  V30 3436 C 325.667 -1.00184 -6.03846 0
M  V30 3437 N 324.804 -0.29769 -7.01469 0
M  V30 3438 H 329.644 -1.34538 -2.65901 0
M  V30 3439 H 327.181 -0.674592 -1.3072 0
M  V30 3440 H 329.139 0.658856 -4.11965 0
M  V30 3441 H 327.769 1.05696 -3.05005 0
M  V30 3442 H 326.821 -1.30586 -3.57284 0
M  V30 3443 H 328.133 -1.50458 -4.75567 0
M  V30 3444 H 327.287 0.464201 -6.04922 0
M  V30 3445 H 326.026 0.755741 -4.81809 0
M  V30 3446 H 325.031 -1.50044 -5.2893 0
M  V30 3447 H 326.256 -1.78133 -6.55321 0
M  V30 3448 H 324.202 0.462668 -6.54366 0
M  V30 3449 H 324.119 -0.983128 -7.4958 0
M  V30 3450 H 325.387 0.16826 -7.79318 0
M  V30 3451 N 329.616 1.39756 -0.72842 0
M  V30 3452 C 330.893 1.94574 -0.200079 0
M  V30 3453 C 331.273 1.66569 1.29684 0
M  V30 3454 O 330.621 0.990326 2.05924 0
M  V30 3455 C 330.831 3.45004 -0.526608 0
M  V30 3456 C 332.179 4.21965 -0.472318 0
M  V30 3457 O 333.203 3.53173 -0.463413 0
M  V30 3458 O 332.062 5.44552 -0.461075 0
M  V30 3459 H 329.156 0.826289 -0.0342851 0
M  V30 3460 H 331.702 1.49293 -0.806829 0
M  V30 3461 H 330.474 3.58796 -1.56144 0
M  V30 3462 H 330.097 3.97449 0.109449 0
M  V30 3463 N 331.094 0.475555 1.50254 0
M  V30 3464 C 332.343 -0.0795996 2.01543 0
M  V30 3465 C 332.656 -1.4038 1.36209 0
M  V30 3466 O 333.862 -2.04415 1.7868 0
M  V30 3467 C 332.318 -0.192363 3.59386 0
M  V30 3468 C 331.926 1.12367 4.33679 0
M  V30 3469 C 333.67 -0.699238 4.18701 0
M  V30 3470 C 331.577 0.974453 5.83317 0
M  V30 3471 H 330.507 -0.0335228 0.753254 0
M  V30 3472 H 333.158 0.611128 1.73025 0
M  V30 3473 H 331.54 -0.946974 3.84511 0
M  V30 3474 H 332.714 1.88958 4.20276 0
M  V30 3475 H 331.029 1.562 3.85993 0
M  V30 3476 H 333.626 -0.827978 5.28251 0
M  V30 3477 H 333.969 -1.69171 3.80377 0
M  V30 3478 H 334.502 -0.00188807 3.978 0
M  V30 3479 H 331.241 1.94042 6.26121 0
M  V30 3480 H 330.761 0.248998 5.99283 0
M  V30 3481 H 332.44 0.642867 6.43798 0
M  V30 3482 N 332.573 -1.56217 0.208337 0
M  V30 3483 C 333.52 -2.19699 -0.707192 0
M  V30 3484 C 334.49 -1.14836 -1.20008 0
M  V30 3485 O 335.675 -1.4314 -1.26157 0
M  V30 3486 C 332.815 -2.87061 -1.91546 0
M  V30 3487 C 331.928 -4.06483 -1.46271 0
M  V30 3488 C 331.063 -4.61665 -2.62752 0
M  V30 3489 C 330.102 -5.73417 -2.14147 0
M  V30 3490 N 329.239 -6.22948 -3.23853 0
M  V30 3491 H 334.079 -2.97575 -0.159111 0
M  V30 3492 H 331.616 -1.46948 -0.0667874 0
M  V30 3493 H 333.574 -3.24294 -2.62468 0
M  V30 3494 H 332.204 -2.11725 -2.43664 0
M  V30 3495 H 331.256 -3.74825 -0.648886 0
M  V30 3496 H 332.568 -4.87271 -1.06622 0
M  V30 3497 H 331.722 -5.01272 -3.41776 0
M  V30 3498 H 330.461 -3.80013 -3.05682 0
M  V30 3499 H 329.466 -5.33326 -1.33581 0
M  V30 3500 H 330.691 -6.56897 -1.72232 0
M  V30 3501 H 328.637 -5.44213 -3.6629 0
M  V30 3502 H 328.554 -6.98823 -2.88414 0
M  V30 3503 H 329.822 -6.6721 -4.03052 0
M  V30 3504 N 334.051 0.0651679 -1.57465 0
M  V30 3505 C 335.298 0.763063 -1.87573 0
M  V30 3506 C 335.626 1.77242 -0.800961 0
M  V30 3507 O 334.881 1.94651 0.202316 0
M  V30 3508 C 335.18 1.50081 -3.24362 0
M  V30 3509 C 334.846 0.630816 -4.46466 0
M  V30 3510 C 333.508 0.391082 -4.79608 0
M  V30 3511 C 335.86 0.0279465 -5.21193 0
M  V30 3512 C 333.188 -0.460894 -5.84887 0
M  V30 3513 C 335.54 -0.811522 -6.27373 0
M  V30 3514 C 334.204 -1.06106 -6.59013 0
M  V30 3515 H 333.474 0.279224 -0.686378 0
M  V30 3516 H 336.121 0.0236726 -1.91485 0
M  V30 3517 H 334.426 2.31258 -3.16271 0
M  V30 3518 H 336.123 2.04571 -3.44894 0
M  V30 3519 H 332.713 0.8278 -4.2053 0
M  V30 3520 H 336.897 0.200262 -4.95896 0
M  V30 3521 H 332.153 -0.662907 -6.07796 0
M  V30 3522 H 336.327 -1.28537 -6.84435 0
M  V30 3523 H 333.954 -1.723 -7.40417 0
M  V30 3524 N 335.529 1.53961 0.336706 0
M  V30 3525 C 336.477 1.83136 1.43401 0
M  V30 3526 C 337.471 0.702313 1.54156 0
M  V30 3527 O 338.677 0.885765 1.56698 0
M  V30 3528 H 335.052 0.580309 0.478273 0
M  V30 3529 H 337.023 2.74925 1.16012 0
M  V30 3530 C 335.772 2.06385 2.79822 0
M  V30 3531 H 335.095 2.92718 2.72316 0
M  V30 3532 H 336.535 2.30761 3.55704 0
M  V30 3533 C 334.994 0.851414 3.25964 0
M  V30 3534 O 335.524 0.0541904 4.01663 0
M  V30 3535 N 333.73 0.66672 2.82848 0
M  V30 3536 H 333.277 1.31665 2.21409 0
M  V30 3537 H 333.235 -0.143032 3.14074 0
M  V30 3538 N 337.007 -0.598083 1.45811 0
M  V30 3539 C 337.917 -1.73632 1.57763 0
M  V30 3540 C 338.933 -1.67763 0.461676 0
M  V30 3541 O 340.109 -1.87949 0.723685 0
M  V30 3542 C 337.174 -3.10114 1.55018 0
M  V30 3543 C 336.235 -3.27364 2.77726 0
M  V30 3544 C 335.468 -4.57334 2.75102 0
M  V30 3545 O 335.691 -5.40258 1.8297 0
M  V30 3546 O 334.625 -4.77502 3.66437 0
M  V30 3547 H 338.451 -1.66498 2.53992 0
M  V30 3548 H 336.036 -0.763308 1.28429 0
M  V30 3549 H 337.918 -3.9141 1.56129 0
M  V30 3550 H 336.593 -3.17718 0.619431 0
M  V30 3551 H 335.5 -2.45619 2.82174 0
M  V30 3552 H 336.833 -3.24641 3.69958 0
M  V30 3553 N 338.485 -1.33259 -0.841409 0
M  V30 3554 C 339.418 -1.1764 -1.95541 0
M  V30 3555 C 340.396 -0.072501 -1.62438 0
M  V30 3556 O 341.58 -0.23427 -1.87039 0
M  V30 3557 C 338.707 -0.803794 -3.29024 0
M  V30 3558 C 337.753 -1.91482 -3.81099 0
M  V30 3559 S 338.586 -3.52538 -4.03085 0
M  V30 3560 C 339.742 -3.17279 -5.39523 0
M  V30 3561 H 339.975 -2.11941 -2.08491 0
M  V30 3562 H 337.508 -1.18072 -0.9949 0
M  V30 3563 H 339.466 -0.595592 -4.06156 0
M  V30 3564 H 338.127 0.120574 -3.13868 0
M  V30 3565 H 337.32 -1.60742 -4.7768 0
M  V30 3566 H 336.922 -2.07956 -3.10854 0
M  V30 3567 H 339.214 -2.67946 -6.22263 0
M  V30 3568 H 340.157 -4.1293 -5.75234 0
M  V30 3569 H 340.565 -2.53943 -5.04156 0
M  V30 3570 N 339.963 1.05934 -1.16686 0
M  V30 3571 C 341.193 1.82226 -0.973515 0
M  V30 3572 C 341.601 1.8297 0.481532 0
M  V30 3573 O 340.944 1.25009 1.34604 0
M  V30 3574 C 341.006 3.29897 -1.42858 0
M  V30 3575 C 340.67 3.52849 -2.90425 0
M  V30 3576 C 341.667 3.45595 -3.88407 0
M  V30 3577 C 339.352 3.80053 -3.28428 0
M  V30 3578 C 341.346 3.65217 -5.22394 0
M  V30 3579 C 339.033 3.99325 -4.62583 0
M  V30 3580 C 340.031 3.91905 -5.59374 0
M  V30 3581 O 339.719 4.10647 -6.91104 0
M  V30 3582 H 339.451 0.581314 -0.345036 0
M  V30 3583 H 342.005 1.3453 -1.55212 0
M  V30 3584 H 340.235 3.78472 -0.793477 0
M  V30 3585 H 341.924 3.87692 -1.20207 0
M  V30 3586 H 342.69 3.24564 -3.60393 0
M  V30 3587 H 338.569 3.84936 -2.53664 0
M  V30 3588 H 342.113 3.59341 -5.9793 0
M  V30 3589 H 338.01 4.19846 -4.90306 0
M  V30 3590 H 338.778 4.27915 -6.97733 0
M  V30 3591 N 341.441 0.965919 1.2453 0
M  V30 3592 C 342.371 0.513476 2.27784 0
M  V30 3593 C 343.352 -0.445974 1.6415 0
M  V30 3594 O 344.537 -0.342485 1.91156 0
M  V30 3595 C 341.667 -0.198839 3.4673 0
M  V30 3596 C 340.621 0.676456 4.2262 0
M  V30 3597 C 339.947 -0.167248 5.34438 0
M  V30 3598 C 341.247 1.96017 4.84123 0
M  V30 3599 H 342.941 1.3765 2.65881 0
M  V30 3600 H 340.487 0.663321 1.27813 0
M  V30 3601 H 342.44 -0.526567 4.18097 0
M  V30 3602 H 341.164 -1.0962 3.07654 0
M  V30 3603 H 339.823 0.98743 3.53052 0
M  V30 3604 H 339.471 -1.0647 4.91603 0
M  V30 3605 H 339.171 0.415181 5.86131 0
M  V30 3606 H 340.695 -0.489688 6.08633 0
M  V30 3607 H 342.109 1.69814 5.47573 0
M  V30 3608 H 340.506 2.48918 5.4604 0
M  V30 3609 H 341.576 2.65622 4.05676 0
M  V30 3610 N 342.919 -1.39368 0.735821 0
M  V30 3611 C 344.196 -1.94465 0.210395 0
M  V30 3612 C 344.576 -1.67254 -1.28799 0
M  V30 3613 O 343.924 -1.00123 -2.05396 0
M  V30 3614 C 344.134 -3.4472 0.544897 0
M  V30 3615 C 345.482 -4.21708 0.494689 0
M  V30 3616 O 346.506 -3.52922 0.482136 0
M  V30 3617 O 345.365 -5.44299 0.489947 0
M  V30 3618 H 342.459 -0.826096 0.0386666 0
M  V30 3619 H 345.005 -1.48863 0.814735 0
M  V30 3620 H 343.777 -3.57963 1.58045 0
M  V30 3621 H 343.4 -3.97502 -0.08837 0
M  V30 3622 N 344.397 -0.483516 -1.5 0
M  V30 3623 C 345.625 0.0644831 -2.06799 0
M  V30 3624 C 346.04 1.32399 -1.34596 0
M  V30 3625 O 345.397 1.77626 -0.418946 0
M  V30 3626 C 345.448 0.339927 -3.59898 0
M  V30 3627 O 345.169 -0.869635 -4.29382 0
M  V30 3628 C 346.67 0.933515 -4.33359 0
M  V30 3629 H 343.89 -0.0126333 -0.670881 0
M  V30 3630 H 346.434 -0.675864 -1.93009 0
M  V30 3631 H 344.589 1.03022 -3.7345 0
M  V30 3632 H 345.003 -0.62179 -5.20801 0
M  V30 3633 H 346.477 1.07593 -5.41413 0
M  V30 3634 H 346.954 1.92685 -3.94676 0
M  V30 3635 H 347.56 0.281221 -4.24369 0
M  V30 3636 N 345.875 1.56104 -0.216619 0
M  V30 3637 C 347.121 1.98466 0.417033 0
M  V30 3638 C 347.454 1.10403 1.59765 0
M  V30 3639 O 346.729 0.160632 1.93836 0
M  V30 3640 C 347.012 3.49769 0.85637 0
M  V30 3641 C 346.865 4.48606 -0.327546 0
M  V30 3642 C 348.184 4.05339 1.7143 0
M  V30 3643 H 345.303 0.721551 0.150112 0
M  V30 3644 H 347.945 1.87423 -0.311864 0
M  V30 3645 H 346.095 3.5931 1.47745 0
M  V30 3646 H 347.767 4.5108 -0.965618 0
M  V30 3647 H 346.01 4.22682 -0.975805 0
M  V30 3648 H 346.681 5.51995 0.0227149 0
M  V30 3649 H 349.157 3.98712 1.19031 0
M  V30 3650 H 348.033 5.11533 1.99061 0
M  V30 3651 H 348.294 3.51918 2.67593 0
M  V30 3652 N 347.353 -0.0568162 1.57498 0
M  V30 3653 C 348.593 -0.758273 1.89815 0
M  V30 3654 C 348.957 -1.73978 0.812132 0
M  V30 3655 O 350.158 -2.48744 1.01881 0
M  V30 3656 C 348.429 -1.43465 3.27342 0
M  V30 3657 S 349.988 -2.1691 3.81439 0
M  V30 3658 H 346.806 -0.251836 0.664906 0
M  V30 3659 H 349.408 -0.0137997 1.95495 0
M  V30 3660 H 348.112 -0.706693 4.0427 0
M  V30 3661 H 347.643 -2.21825 3.24896 0
M  V30 3662 H 349.658 -3.43658 3.5793 0
M  V30 3663 N 348.832 -1.54138 -0.328536 0
M  V30 3664 C 349.762 -1.86167 -1.40939 0
M  V30 3665 C 350.743 -0.718044 -1.54202 0
M  V30 3666 O 351.928 -0.971328 -1.68163 0
M  V30 3667 C 349.058 -2.08461 -2.77779 0
M  V30 3668 C 348.012 -3.24299 -2.7931 0
M  V30 3669 C 347.338 -3.31955 -4.19178 0
M  V30 3670 C 348.638 -4.62065 -2.43502 0
M  V30 3671 H 350.332 -2.76689 -1.14383 0
M  V30 3672 H 347.878 -1.33132 -0.548806 0
M  V30 3673 H 349.831 -2.29453 -3.53454 0
M  V30 3674 H 348.555 -1.14684 -3.05802 0
M  V30 3675 H 347.214 -3.03187 -2.0609 0
M  V30 3676 H 346.862 -2.35745 -4.44335 0
M  V30 3677 H 346.562 -4.09805 -4.2111 0
M  V30 3678 H 348.086 -3.55175 -4.96672 0
M  V30 3679 H 349.5 -4.8297 -3.08889 0
M  V30 3680 H 347.897 -5.42429 -2.56693 0
M  V30 3681 H 348.967 -4.64652 -1.38659 0
M  V30 3682 N 350.31 0.590341 -1.46126 0
M  V30 3683 C 351.258 1.72105 -1.5647 0
M  V30 3684 C 352.252 1.63756 -0.433612 0
M  V30 3685 O 353.458 1.69342 -0.610194 0
M  V30 3686 H 349.833 0.568889 -0.491802 0
M  V30 3687 H 351.804 1.6051 -2.51553 0
M  V30 3688 C 350.553 3.10493 -1.56491 0
M  V30 3689 H 349.876 3.17583 -2.4286 0
M  V30 3690 H 351.316 3.8939 -1.67785 0
M  V30 3691 C 349.775 3.3563 -0.292231 0
M  V30 3692 O 350.305 3.96875 0.620739 0
M  V30 3693 N 348.511 2.90026 -0.182523 0
M  V30 3694 H 348.058 2.40367 -0.926356 0
M  V30 3695 H 348.016 3.07218 0.668152 0
M  V30 3696 N 351.788 1.33704 0.83433 0
M  V30 3697 C 352.721 1.18675 1.94914 0
M  V30 3698 C 353.699 0.0811145 1.62398 0
M  V30 3699 O 354.883 0.244186 1.86912 0
M  V30 3700 C 352.01 0.821231 3.28593 0
M  V30 3701 C 351.056 1.93501 3.80079 0
M  V30 3702 S 351.889 3.54671 4.01209 0
M  V30 3703 C 353.045 3.20136 5.37833 0
M  V30 3704 H 353.278 2.13043 2.07364 0
M  V30 3705 H 350.811 1.18598 0.988624 0
M  V30 3706 H 352.769 0.617123 4.05835 0
M  V30 3707 H 351.43 -0.103927 3.13928 0
M  V30 3708 H 350.623 1.63273 4.76821 0
M  V30 3709 H 350.225 2.09601 3.09747 0
M  V30 3710 H 352.517 2.71242 6.20833 0
M  V30 3711 H 353.46 4.15975 5.73036 0
M  V30 3712 H 353.868 2.56613 5.02802 0
M  V30 3713 N 353.266 -1.05314 1.17247 0
M  V30 3714 C 354.512 -1.78557 0.961513 0
M  V30 3715 C 354.845 -1.87419 -0.508697 0
M  V30 3716 O 354.12 -1.37307 -1.37757 0
M  V30 3717 C 354.403 -3.22514 1.60176 0
M  V30 3718 C 354.256 -3.21673 3.14399 0
M  V30 3719 C 355.575 -4.20318 1.30463 0
M  V30 3720 H 352.694 -0.6482 0.350723 0
M  V30 3721 H 355.336 -1.23102 1.44727 0
M  V30 3722 H 353.486 -3.69867 1.18871 0
M  V30 3723 H 355.158 -2.82405 3.64753 0
M  V30 3724 H 353.401 -2.60048 3.47214 0
M  V30 3725 H 354.072 -4.23271 3.54324 0
M  V30 3726 H 356.548 -3.81454 1.66229 0
M  V30 3727 H 355.424 -5.19289 1.77848 0
M  V30 3728 H 355.685 -4.41526 0.22521 0
M  V30 3729 N 354.744 -0.972509 -1.24016 0
M  V30 3730 C 355.676 -0.464375 -2.24446 0
M  V30 3731 C 356.689 0.4295 -1.57032 0
M  V30 3732 O 357.878 0.234902 -1.76948 0
M  V30 3733 C 354.978 0.348385 -3.37105 0
M  V30 3734 C 354.151 -0.53673 -4.34094 0
M  V30 3735 C 353.21 0.220838 -5.25736 0
M  V30 3736 O 352.236 -0.386867 -5.67884 0
M  V30 3737 N 353.438 1.50907 -5.60542 0
M  V30 3738 H 356.203 -1.32788 -2.68677 0
M  V30 3739 H 353.764 -0.844877 -1.38107 0
M  V30 3740 H 355.756 0.863341 -3.95384 0
M  V30 3741 H 354.326 1.11285 -2.92121 0
M  V30 3742 H 353.546 -1.23261 -3.74433 0
M  V30 3743 H 354.834 -1.14022 -4.95859 0
M  V30 3744 H 354.232 2.02444 -5.28236 0
M  V30 3745 H 352.789 1.96962 -6.21329 0
M  V30 3746 N 356.222 1.38976 -0.743202 0
M  V30 3747 C 357.499 1.94351 -0.220705 0
M  V30 3748 C 357.879 1.67935 1.2791 0
M  V30 3749 O 357.227 1.01211 2.04862 0
M  V30 3750 C 357.437 3.44426 -0.563171 0
M  V30 3751 C 358.785 4.2144 -0.517046 0
M  V30 3752 O 359.809 3.52661 -0.500846 0
M  V30 3753 O 358.668 5.44032 -0.518806 0
M  V30 3754 H 355.762 0.825879 -0.043047 0
M  V30 3755 H 358.308 1.48429 -0.822618 0
M  V30 3756 H 357.08 3.5712 -1.59941 0
M  V30 3757 H 356.703 3.97543 0.0672883 0
M  V30 3758 N 357.7 0.491464 1.49741 0
M  V30 3759 C 359.111 0.0413169 1.86654 0
M  V30 3760 C 359.462 -1.36985 1.40462 0
M  V30 3761 O 358.587 -2.01917 0.778354 0
M  V30 3762 C 359.182 0.0682023 3.38731 0
M  V30 3763 C 357.741 -0.32656 3.74981 0
M  V30 3764 C 356.888 0.444888 2.73708 0
M  V30 3765 H 359.839 0.704733 1.42194 0
M  V30 3766 H 359.86 -0.729322 3.73445 0
M  V30 3767 H 359.372 1.09539 3.72321 0
M  V30 3768 H 357.473 -1.35734 3.46997 0
M  V30 3769 H 357.586 -0.013741 4.79098 0
M  V30 3770 H 355.95 -0.104062 2.54487 0
M  V30 3771 H 356.733 1.47197 3.10142 0
M  V30 3772 N 359.178 -1.55987 0.224894 0
M  V30 3773 C 360.403 -2.03232 -0.41369 0
M  V30 3774 C 360.828 -1.10359 -1.52323 0
M  V30 3775 O 360.186 -0.092395 -1.81064 0
M  V30 3776 C 360.234 -3.48682 -0.919405 0
M  V30 3777 O 359.338 -3.58947 -2.03054 0
M  V30 3778 H 358.679 -0.657428 -0.0931903 0
M  V30 3779 H 361.209 -2.01679 0.34451 0
M  V30 3780 H 361.219 -3.8907 -1.22835 0
M  V30 3781 H 359.894 -4.15761 -0.107339 0
M  V30 3782 H 358.471 -3.30448 -1.72796 0
M  V30 3783 N 360.656 0.0484629 -1.57525 0
M  V30 3784 C 361.588 1.08222 -2.02041 0
M  V30 3785 C 362.601 1.33621 -0.930012 0
M  V30 3786 O 363.79 1.3145 -1.20761 0
M  V30 3787 C 360.89 2.42818 -2.36416 0
M  V30 3788 C 360.063 2.37049 -3.67596 0
M  V30 3789 C 359.122 3.53937 -3.89378 0
M  V30 3790 O 358.148 3.34308 -4.60681 0
M  V30 3791 N 359.35 4.75126 -3.3352 0
M  V30 3792 H 362.115 0.702946 -2.9134 0
M  V30 3793 H 359.676 0.236745 -1.6016 0
M  V30 3794 H 361.668 3.197 -2.48141 0
M  V30 3795 H 360.238 2.72661 -1.52888 0
M  V30 3796 H 359.458 1.45395 -3.66407 0
M  V30 3797 H 360.746 2.30318 -4.53686 0
M  V30 3798 H 360.144 4.93976 -2.75688 0
M  V30 3799 H 358.701 5.49439 -3.50656 0
M  V30 3800 N 362.134 1.5431 0.320358 0
M  V30 3801 C 363.381 1.72668 1.05792 0
M  V30 3802 C 363.709 0.502084 1.87908 0
M  V30 3803 O 362.964 -0.516149 1.88771 0
M  V30 3804 C 363.263 2.95639 2.00828 0
M  V30 3805 C 362.929 4.30265 1.34843 0
M  V30 3806 C 361.591 4.66865 1.16578 0
M  V30 3807 C 363.943 5.13801 0.875095 0
M  V30 3808 C 361.271 5.84597 0.496336 0
M  V30 3809 C 363.623 6.32219 0.219463 0
M  V30 3810 C 362.287 6.67495 0.0246915 0
M  V30 3811 H 361.557 0.631837 0.387121 0
M  V30 3812 H 364.204 1.88552 0.334735 0
M  V30 3813 H 362.509 2.74456 2.79609 0
M  V30 3814 H 364.206 3.07038 2.57932 0
M  V30 3815 H 360.796 4.01472 1.50061 0
M  V30 3816 H 364.98 4.86039 1.00398 0
M  V30 3817 H 360.236 6.10486 0.334264 0
M  V30 3818 H 364.41 6.96227 -0.155291 0
M  V30 3819 H 362.037 7.5858 -0.496065 0
M  V30 3820 N 363.613 -0.582584 1.46437 0
M  V30 3821 C 364.89 -1.34276 1.4223 0
M  V30 3822 C 365.27 -2.10835 0.10583 0
M  V30 3823 O 364.618 -2.09485 -0.912596 0
M  V30 3824 C 364.828 -2.26865 2.65204 0
M  V30 3825 C 366.176 -2.88691 3.11356 0
M  V30 3826 O 367.2 -2.37178 2.65753 0
M  V30 3827 O 366.059 -3.82255 3.90568 0
M  V30 3828 H 363.153 -0.603326 0.565621 0
M  V30 3829 H 365.699 -0.603591 1.58603 0
M  V30 3830 H 364.471 -1.69724 3.52576 0
M  V30 3831 H 364.094 -3.08122 2.5129 0
M  V30 3832 N 365.091 -1.34144 -0.827227 0
M  V30 3833 C 366.337 -1.26446 -1.58554 0
M  V30 3834 C 366.67 0.1664 -1.93486 0
M  V30 3835 O 365.945 1.1107 -1.59667 0
M  V30 3836 C 366.228 -2.15111 -2.8879 0
M  V30 3837 C 366.081 -3.66712 -2.60465 0
M  V30 3838 C 367.4 -2.03311 -3.90324 0
M  V30 3839 H 364.519 -0.46067 -0.575284 0
M  V30 3840 H 367.161 -1.64356 -0.953269 0
M  V30 3841 H 365.311 -1.8291 -3.42748 0
M  V30 3842 H 366.983 -4.09259 -2.1285 0
M  V30 3843 H 365.226 -3.88014 -1.93978 0
M  V30 3844 H 365.897 -4.24112 -3.53317 0
M  V30 3845 H 368.373 -2.31574 -3.45706 0
M  V30 3846 H 367.249 -2.67582 -4.79261 0
M  V30 3847 H 367.51 -1.00879 -4.30437 0
M  V30 3848 N 366.569 1.04691 -1.17803 0
M  V30 3849 C 367.499 2.14494 -0.92275 0
M  V30 3850 C 368.48 1.69546 0.137179 0
M  V30 3851 O 369.665 1.94195 -0.0141108 0
M  V30 3852 C 366.795 3.44491 -0.440803 0
M  V30 3853 C 365.749 4.03031 -1.4405 0
M  V30 3854 C 365.075 5.28432 -0.81631 0
M  V30 3855 C 366.375 4.39932 -2.81527 0
M  V30 3856 H 368.069 2.36107 -1.84103 0
M  V30 3857 H 365.615 1.1347 -0.886599 0
M  V30 3858 H 367.568 4.2066 -0.249602 0
M  V30 3859 H 366.292 3.22546 0.513025 0
M  V30 3860 H 364.951 3.28937 -1.61853 0
M  V30 3861 H 364.599 5.02792 0.144511 0
M  V30 3862 H 364.299 5.68559 -1.48371 0
M  V30 3863 H 365.823 6.07284 -0.635496 0
M  V30 3864 H 367.237 5.07113 -2.67412 0
M  V30 3865 H 365.634 4.9109 -3.44892 0
M  V30 3866 H 366.704 3.50045 -3.35554 0
M  V30 3867 N 368.047 0.979072 1.23499 0
M  V30 3868 C 369.293 0.648178 1.92163 0
M  V30 3869 C 369.626 -0.816049 1.76222 0
M  V30 3870 O 368.901 -1.58849 1.12237 0
M  V30 3871 C 369.184 1.03773 3.44824 0
M  V30 3872 C 369.037 2.55948 3.69879 0
M  V30 3873 C 370.356 0.580653 4.36253 0
M  V30 3874 H 367.475 0.236952 0.69787 0
M  V30 3875 H 370.117 1.22012 1.45647 0
M  V30 3876 H 368.267 0.551058 3.84572 0
M  V30 3877 H 369.939 3.12179 3.3962 0
M  V30 3878 H 368.182 2.98641 3.14636 0
M  V30 3879 H 368.853 2.78255 4.76737 0
M  V30 3880 H 371.329 0.998465 4.03943 0
M  V30 3881 H 370.205 0.881663 5.41773 0
M  V30 3882 H 370.466 -0.519052 4.39042 0
M  V30 3883 N 369.525 -1.3858 0.750561 0
M  V30 3884 C 370.458 -2.28095 0.0693139 0
M  V30 3885 C 371.436 -1.45217 -0.731491 0
M  V30 3886 O 372.62 -1.74587 -0.71076 0
M  V30 3887 C 369.747 -3.26282 -0.90871 0
M  V30 3888 C 368.793 -4.26056 -0.194507 0
M  V30 3889 S 369.626 -5.24026 1.10257 0
M  V30 3890 C 370.782 -6.2577 0.127542 0
M  V30 3891 H 371.015 -2.85526 0.8284 0
M  V30 3892 H 368.548 -1.44536 0.543014 0
M  V30 3893 H 370.506 -3.83367 -1.46766 0
M  V30 3894 H 369.167 -2.6784 -1.64075 0
M  V30 3895 H 368.36 -4.95249 -0.93512 0
M  V30 3896 H 367.962 -3.72852 0.292837 0
M  V30 3897 H 370.254 -6.73796 -0.707516 0
M  V30 3898 H 371.197 -7.03712 0.787044 0
M  V30 3899 H 371.605 -5.63938 -0.251803 0
M  V30 3900 N 371.003 -0.499398 -1.49478 0
M  V30 3901 C 372.414 -0.051215 -1.8663 0
M  V30 3902 C 372.765 1.36238 -1.41186 0
M  V30 3903 O 371.89 2.01502 -0.789051 0
M  V30 3904 C 372.485 -0.0861651 -3.3869 0
M  V30 3905 C 371.044 0.30667 -3.75149 0
M  V30 3906 C 370.191 -0.459397 -2.73468 0
M  V30 3907 H 373.142 -0.712264 -1.41818 0
M  V30 3908 H 373.163 0.709507 -3.73826 0
M  V30 3909 H 372.675 -1.11512 -3.71735 0
M  V30 3910 H 370.776 1.33892 -3.47712 0
M  V30 3911 H 370.889 -0.0116669 -4.79099 0
M  V30 3912 H 369.253 0.0905645 -2.54539 0
M  V30 3913 H 370.036 -1.4884 -3.09357 0
M  V30 3914 N 372.481 1.55866 -0.233164 0
M  V30 3915 C 373.429 2.22176 0.68851 0
M  V30 3916 C 374.423 1.20487 1.19076 0
M  V30 3917 O 375.629 1.38536 1.14925 0
M  V30 3918 H 372.004 0.712511 0.240483 0
M  V30 3919 H 373.975 2.98212 0.105935 0
M  V30 3920 C 372.724 2.92446 1.88071 0
M  V30 3921 H 372.047 3.70458 1.50337 0
M  V30 3922 H 373.487 3.42226 2.50314 0
M  V30 3923 C 371.946 1.95555 2.74335 0
M  V30 3924 O 372.476 1.47986 3.73447 0
M  V30 3925 N 370.682 1.62953 2.40613 0
M  V30 3926 H 370.229 2.01831 1.60069 0
M  V30 3927 H 370.187 0.983886 2.98609 0
M  V30 3928 N 373.959 -0.0401083 1.57549 0
M  V30 3929 C 374.889 -1.04384 2.08869 0
M  V30 3930 C 375.87 -1.38407 0.988817 0
M  V30 3931 O 377.055 -1.47483 1.26342 0
M  V30 3932 C 374.185 -2.34808 2.55895 0
M  V30 3933 C 373.139 -2.15057 3.70047 0
M  V30 3934 C 372.465 -3.51145 4.03239 0
M  V30 3935 C 373.765 -1.54576 4.98902 0
M  V30 3936 H 375.459 -0.616666 2.92981 0
M  V30 3937 H 373.005 -0.295184 1.40942 0
M  V30 3938 H 374.958 -3.05346 2.90417 0
M  V30 3939 H 373.682 -2.79565 1.68853 0
M  V30 3940 H 372.341 -1.46954 3.35857 0
M  V30 3941 H 371.989 -3.93529 3.13279 0
M  V30 3942 H 371.689 -3.38758 4.80122 0
M  V30 3943 H 373.213 -4.23062 4.40285 0
M  V30 3944 H 374.627 -2.15017 5.31451 0
M  V30 3945 H 373.024 -1.52796 5.80322 0
M  V30 3946 H 374.094 -0.51039 4.82206 0
M  V30 3947 N 375.437 -1.54477 -0.31217 0
M  V30 3948 C 376.667 -1.76948 -1.06645 0
M  V30 3949 C 377.075 -0.523593 -1.81811 0
M  V30 3950 O 376.418 0.51578 -1.76311 0
M  V30 3951 C 376.48 -2.91668 -2.10166 0
M  V30 3952 C 376.144 -4.30165 -1.54296 0
M  V30 3953 C 377.141 -5.10603 -0.978793 0
M  V30 3954 C 374.826 -4.76738 -1.58196 0
M  V30 3955 C 376.82 -6.3573 -0.461048 0
M  V30 3956 C 374.507 -6.01831 -1.06034 0
M  V30 3957 C 375.505 -6.81161 -0.500844 0
M  V30 3958 O 375.193 -8.03899 0.0128958 0
M  V30 3959 H 374.925 -0.594088 -0.322546 0
M  V30 3960 H 377.479 -2.02213 -0.360441 0
M  V30 3961 H 375.709 -2.62001 -2.84416 0
M  V30 3962 H 377.398 -3.01817 -2.71406 0
M  V30 3963 H 378.164 -4.75771 -0.941651 0
M  V30 3964 H 374.043 -4.15027 -2.00683 0
M  V30 3965 H 377.587 -6.97596 -0.0236894 0
M  V30 3966 H 373.484 -6.36152 -1.09459 0
M  V30 3967 H 374.252 -8.18437 -0.101457 0
M  V30 3968 N 376.915 0.57481 -1.46744 0
M  V30 3969 C 378.163 1.33009 -1.52161 0
M  V30 3970 C 378.484 1.94185 -0.178092 0
M  V30 3971 O 377.754 1.7899 0.796196 0
M  V30 3972 H 376.334 0.493873 -0.560445 0
M  V30 3973 H 378.996 0.672589 -1.82927 0
M  V30 3974 H 378.092 2.13273 -2.27862 0
M  V30 3975 N 378.394 1.34581 0.820102 0
M  V30 3976 C 379.671 1.17675 1.56244 0
M  V30 3977 C 380.051 -0.249541 2.0962 0
M  V30 3978 O 379.399 -1.25125 1.91196 0
M  V30 3979 C 379.609 2.23364 2.6816 0
M  V30 3980 C 380.957 2.58485 3.36854 0
M  V30 3981 O 381.981 2.22175 2.78418 0
M  V30 3982 O 380.84 3.20868 4.42386 0
M  V30 3983 H 377.934 0.456333 0.689702 0
M  V30 3984 H 380.48 1.46222 0.861231 0
M  V30 3985 H 379.252 3.19087 2.26493 0
M  V30 3986 H 378.875 1.96009 3.45928 0
M  V30 3987 N 379.872 -1.04064 1.18357 0
M  V30 3988 C 381.121 -1.76662 0.973313 0
M  V30 3989 C 381.434 -1.89154 -0.497991 0
M  V30 3990 O 382.64 -2.58606 -0.826762 0
M  V30 3991 C 381.096 -3.17624 1.69242 0
M  V30 3992 C 380.704 -3.13225 3.20303 0
M  V30 3993 C 382.448 -3.946 1.56497 0
M  V30 3994 C 380.355 -4.49046 3.84853 0
M  V30 3995 H 379.285 -0.662214 0.36054 0
M  V30 3996 H 381.936 -1.16553 1.41731 0
M  V30 3997 H 380.318 -3.78129 1.1762 0
M  V30 3998 H 381.492 -2.62172 3.78949 0
M  V30 3999 H 379.807 -2.49749 3.33189 0
M  V30 4000 H 382.404 -4.95042 2.02084 0
M  V30 4001 H 382.747 -4.13074 0.517243 0
M  V30 4002 H 383.28 -3.4067 2.05399 0
M  V30 4003 H 380.019 -4.35777 4.89672 0
M  V30 4004 H 379.539 -5.00203 3.30994 0
M  V30 4005 H 381.218 -5.17961 3.87718 0
M  V30 4006 N 381.35 -0.985608 -1.22978 0
M  V30 4007 C 382.28 -0.549649 -2.26939 0
M  V30 4008 C 383.261 0.419803 -1.64838 0
M  V30 4009 O 384.446 0.31203 -1.91677 0
M  V30 4010 C 381.576 0.143652 -3.47003 0
M  V30 4011 C 380.53 -0.743606 -4.21491 0
M  V30 4012 C 379.856 0.0822027 -5.34637 0
M  V30 4013 C 381.156 -2.03694 -4.80943 0
M  V30 4014 H 382.85 -1.41862 -2.63658 0
M  V30 4015 H 380.396 -0.683571 -1.26741 0
M  V30 4016 H 382.349 0.459985 -4.18882 0
M  V30 4017 H 381.073 1.04711 -3.09359 0
M  V30 4018 H 379.732 -1.04347 -3.51436 0
M  V30 4019 H 379.38 0.986359 -4.93234 0
M  V30 4020 H 379.08 -0.508377 -5.85397 0
M  V30 4021 H 380.604 0.392797 -6.09335 0
M  V30 4022 H 382.018 -1.78504 -5.44802 0
M  V30 4023 H 380.415 -2.57573 -5.42011 0
M  V30 4024 H 381.485 -2.72042 -4.01399 0
M  V30 4025 N 382.828 1.3818 -0.7579 0
M  V30 4026 C 384.053 2.04827 -0.325679 0
M  V30 4027 C 384.478 1.56788 1.03919 0
M  V30 4028 O 383.836 0.721811 1.66312 0
M  V30 4029 C 383.884 3.58774 -0.362447 0
M  V30 4030 O 382.988 4.07372 0.642033 0
M  V30 4031 H 382.329 0.64833 -0.143402 0
M  V30 4032 H 384.859 1.7677 -1.03023 0
M  V30 4033 H 384.869 4.07434 -0.214844 0
M  V30 4034 H 383.544 3.93096 -1.35824 0
M  V30 4035 H 382.121 3.70068 0.458688 0
M  V30 4036 N 384.306 0.507319 1.49211 0
M  V30 4037 C 385.583 -0.0982702 1.95353 0
M  V30 4038 C 385.963 -1.53516 1.449 0
M  V30 4039 O 385.311 -2.18594 0.66551 0
M  V30 4040 C 385.521 -0.00440283 3.49 0
M  V30 4041 C 386.869 -0.175147 4.24239 0
M  V30 4042 O 387.893 -0.0792891 3.56112 0
M  V30 4043 O 386.752 -0.37276 5.45227 0
M  V30 4044 H 383.846 -0.0918236 0.821887 0
M  V30 4045 H 386.392 0.570307 1.5983 0
M  V30 4046 H 385.164 0.997402 3.78375 0
M  V30 4047 H 384.787 -0.712845 3.91158 0
M  V30 4048 N 385.784 -1.5574 0.241426 0
M  V30 4049 C 386.714 -2.24133 -0.654722 0
M  V30 4050 C 387.695 -1.21974 -1.1856 0
M  V30 4051 O 388.88 -1.50612 -1.22595 0
M  V30 4052 C 386.01 -2.93659 -1.85423 0
M  V30 4053 C 384.964 -4.0246 -1.45636 0
M  V30 4054 C 384.29 -4.59383 -2.73626 0
M  V30 4055 C 385.59 -5.18468 -0.631506 0
M  V30 4056 H 387.284 -2.99281 -0.0844353 0
M  V30 4057 H 384.83 -1.43947 -0.0391707 0
M  V30 4058 H 386.783 -3.40203 -2.48676 0
M  V30 4059 H 385.507 -2.15991 -2.44981 0
M  V30 4060 H 384.166 -3.56676 -0.847202 0
M  V30 4061 H 383.814 -3.78422 -3.3137 0
M  V30 4062 H 383.514 -5.32826 -2.4773 0
M  V30 4063 H 385.038 -5.08658 -3.37786 0
M  V30 4064 H 386.452 -5.61272 -1.1682 0
M  V30 4065 H 384.849 -5.98266 -0.468831 0
M  V30 4066 H 385.919 -4.8358 0.357506 0
M  V30 4067 N 387.262 0.0317525 -1.57568 0
M  V30 4068 C 388.502 0.727979 -1.90997 0
M  V30 4069 C 388.866 1.72664 -0.839708 0
M  V30 4070 O 390.067 2.47092 -1.05825 0
M  V30 4071 C 388.338 1.38239 -3.29583 0
M  V30 4072 S 389.897 2.10814 -3.84841 0
M  V30 4073 H 386.715 0.241226 -0.668828 0
M  V30 4074 H 389.317 -0.0173037 -1.95492 0
M  V30 4075 H 388.021 0.642288 -4.05343 0
M  V30 4076 H 387.552 2.16628 -3.28384 0
M  V30 4077 H 389.567 3.3792 -3.63352 0
M  V30 4078 N 388.74 1.54641 0.303973 0
M  V30 4079 C 389.703 1.84646 1.35789 0
M  V30 4080 C 390.703 0.7192 1.4382 0
M  V30 4081 O 391.893 0.987491 1.43507 0
M  V30 4082 C 389.025 2.02407 2.74307 0
M  V30 4083 H 390.218 2.78829 1.10429 0
M  V30 4084 H 387.771 1.46658 0.540487 0
M  V30 4085 H 388.506 1.10502 3.04893 0
M  V30 4086 H 388.291 2.84453 2.69868 0
M  V30 4087 H 389.781 2.27002 3.50514 0
M  V30 4088 N 390.218 -0.567019 1.47046 0
M  V30 4089 C 391.466 -1.322 1.52864 0
M  V30 4090 C 391.787 -1.94088 0.188388 0
M  V30 4091 O 391.057 -1.7941 -0.786693 0
M  V30 4092 H 389.637 -0.490894 0.563056 0
M  V30 4093 H 392.299 -0.662879 1.83281 0
M  V30 4094 H 391.395 -2.12062 2.2899 0
M  V30 4095 N 391.696 -1.35014 -0.812953 0
M  V30 4096 C 392.626 -1.30069 -1.93919 0
M  V30 4097 C 393.607 -0.176275 -1.69184 0
M  V30 4098 O 394.792 -0.370227 -1.90638 0
M  V30 4099 C 391.922 -1.06547 -3.30552 0
M  V30 4100 C 390.876 -2.15561 -3.69753 0
M  V30 4101 C 390.202 -1.77214 -5.04479 0
M  V30 4102 C 391.502 -3.57476 -3.808 0
M  V30 4103 H 393.196 -2.24303 -1.98314 0
M  V30 4104 H 390.742 -1.07977 -0.952736 0
M  V30 4105 H 392.695 -1.01729 -4.08937 0
M  V30 4106 H 391.419 -0.0875719 -3.26483 0
M  V30 4107 H 390.078 -2.19466 -2.9365 0
M  V30 4108 H 389.726 -0.780589 -4.96906 0
M  V30 4109 H 389.426 -2.50184 -5.31678 0
M  V30 4110 H 390.95 -1.7391 -5.8531 0
M  V30 4111 H 392.364 -3.55929 -4.4943 0
M  V30 4112 H 390.761 -4.29152 -4.19462 0
M  V30 4113 H 391.831 -3.94091 -2.82525 0
M  V30 4114 N 393.175 1.03435 -1.18907 0
M  V30 4115 C 394.424 1.76143 -0.982669 0
M  V30 4116 C 394.737 1.89416 0.487953 0
M  V30 4117 O 395.943 2.59041 0.813036 0
M  V30 4118 C 394.399 3.16722 -1.70924 0
M  V30 4119 C 394.007 3.11522 -3.21959 0
M  V30 4120 C 395.751 3.93764 -1.58588 0
M  V30 4121 C 393.658 4.46999 -3.87228 0
M  V30 4122 H 392.588 0.660292 -0.364047 0
M  V30 4123 H 395.239 1.158 -1.42347 0
M  V30 4124 H 393.621 3.775 -1.19623 0
M  V30 4125 H 394.795 2.60158 -3.80335 0
M  V30 4126 H 393.11 2.47978 -3.34508 0
M  V30 4127 H 395.707 4.93963 -2.04707 0
M  V30 4128 H 396.05 4.12794 -0.539142 0
M  V30 4129 H 396.583 3.39576 -2.07203 0
M  V30 4130 H 393.322 4.33174 -4.91976 0
M  V30 4131 H 392.842 4.98441 -3.33642 0
M  V30 4132 H 394.521 5.15898 -3.90459 0
M  V30 4133 N 394.653 0.992116 1.22453 0
M  V30 4134 C 395.901 0.666215 1.90804 0
M  V30 4135 C 396.222 -0.804152 1.77647 0
M  V30 4136 O 395.492 -1.57629 1.16318 0
M  V30 4137 H 394.072 0.243423 0.706225 0
M  V30 4138 H 396.734 1.25845 1.48825 0
M  V30 4139 H 395.83 0.928069 2.97982 0
M  V30 4140 N 396.131 -1.37776 0.765217 0
M  V30 4141 C 397.379 -1.99454 0.325943 0
M  V30 4142 C 397.7 -1.61049 -1.09947 0
M  V30 4143 O 396.97 -0.872821 -1.75381 0
M  V30 4144 H 395.55 -0.737697 0.117525 0
M  V30 4145 H 398.212 -1.68359 0.981895 0
M  V30 4146 H 397.308 -3.09547 0.398353 0
M  V30 4147 N 397.609 -0.515225 -1.4894 0
M  V30 4148 C 398.539 0.244628 -2.32215 0
M  V30 4149 C 399.52 0.949136 -1.41157 0
M  V30 4150 O 400.705 0.937783 -1.70057 0
M  V30 4151 C 397.835 1.30096 -3.22013 0
M  V30 4152 C 396.789 0.715486 -4.21977 0
M  V30 4153 C 396.115 1.87339 -5.00808 0
M  V30 4154 C 397.415 -0.302982 -5.2142 0
M  V30 4155 H 399.109 -0.450501 -2.95991 0
M  V30 4156 H 396.655 -0.218098 -1.42339 0
M  V30 4157 H 398.608 1.84037 -3.79089 0
M  V30 4158 H 397.332 2.02547 -2.56207 0
M  V30 4159 H 395.991 0.197715 -3.66066 0
M  V30 4160 H 395.639 2.58592 -4.31438 0
M  V30 4161 H 395.339 1.48764 -5.68457 0
M  V30 4162 H 396.863 2.41686 -5.60732 0
M  V30 4163 H 398.277 0.148802 -5.73107 0
M  V30 4164 H 396.674 -0.60532 -5.97039 0
M  V30 4165 H 397.744 -1.21395 -4.69459 0
M  V30 4166 N 399.087 1.5561 -0.249682 0
M  V30 4167 C 400.335 1.98618 0.373548 0
M  V30 4168 C 400.656 1.13919 1.58264 0
M  V30 4169 O 399.926 0.222637 1.94631 0
M  V30 4170 H 398.506 0.733571 0.141006 0
M  V30 4171 H 401.168 1.91748 -0.349117 0
M  V30 4172 H 400.264 3.04584 0.680796 0
M  V30 4173 N 400.565 -0.0233959 1.57583 0
M  V30 4174 C 401.811 -0.714119 1.89811 0
M  V30 4175 C 402.144 -1.74702 0.848113 0
M  V30 4176 O 401.419 -1.94023 -0.136135 0
M  V30 4177 C 401.702 -1.37853 3.32669 0
M  V30 4178 C 401.555 -0.358764 4.48367 0
M  V30 4179 C 402.874 -2.31101 3.7454 0
M  V30 4180 H 399.993 -0.25814 0.690314 0
M  V30 4181 H 402.635 0.0230927 1.89986 0
M  V30 4182 H 400.785 -2.00689 3.3265 0
M  V30 4183 H 402.457 0.268115 4.6052 0
M  V30 4184 H 400.7 0.321387 4.32608 0
M  V30 4185 H 401.371 -0.862242 5.45224 0
M  V30 4186 H 403.847 -1.78304 3.75961 0
M  V30 4187 H 402.723 -2.74567 4.75294 0
M  V30 4188 H 402.984 -3.18018 3.0711 0
M  V30 4189 N 402.043 -1.548 -0.295768 0
M  V30 4190 C 403.271 -1.78327 -1.04914 0
M  V30 4191 C 403.686 -0.545316 -1.80753 0
M  V30 4192 O 403.043 0.485013 -1.75937 0
M  V30 4193 C 403.094 -2.99418 -2.02561 0
M  V30 4194 O 402.815 -4.18431 -1.29798 0
M  V30 4195 C 404.316 -3.35375 -2.89895 0
M  V30 4196 H 401.536 -0.594618 -0.310918 0
M  V30 4197 H 404.08 -2.01763 -0.333454 0
M  V30 4198 H 402.235 -2.78175 -2.69624 0
M  V30 4199 H 402.649 -4.86736 -1.95419 0
M  V30 4200 H 404.123 -4.23332 -3.54251 0
M  V30 4201 H 404.6 -2.53761 -3.58472 0
M  V30 4202 H 405.206 -3.58796 -2.28355 0
M  V30 4203 N 403.521 0.559213 -1.47345 0
M  V30 4204 C 404.932 1.14134 -1.47751 0
M  V30 4205 C 405.283 1.94834 -0.231103 0
M  V30 4206 O 404.408 2.05957 0.664137 0
M  V30 4207 C 405.003 2.07653 -2.67705 0
M  V30 4208 C 403.562 2.61141 -2.71076 0
M  V30 4209 C 402.709 1.3748 -2.40821 0
M  V30 4210 H 405.66 0.345917 -1.54884 0
M  V30 4211 H 405.681 2.91497 -2.44561 0
M  V30 4212 H 405.193 1.4889 -3.58404 0
M  V30 4213 H 403.294 3.23707 -1.84511 0
M  V30 4214 H 403.407 3.02272 -3.7171 0
M  V30 4215 H 401.771 1.68086 -1.91362 0
M  V30 4216 H 402.554 0.805135 -3.33725 0
M  V30 4217 N 404.999 1.35443 0.805782 0
M  V30 4218 C 406.224 1.32037 1.59941 0
M  V30 4219 C 406.649 -0.0994215 1.87837 0
M  V30 4220 O 406.007 -1.06648 1.46615 0
M  V30 4221 C 406.055 2.13354 2.90711 0
M  V30 4222 O 405.159 1.5148 3.83572 0
M  V30 4223 H 404.5 0.452666 0.485787 0
M  V30 4224 H 407.03 1.78496 1.00002 0
M  V30 4225 H 407.04 2.25338 3.40128 0
M  V30 4226 H 405.715 3.16572 2.69732 0
M  V30 4227 H 404.292 1.4834 3.42125 0
M  V30 4228 N 406.477 -1.02803 1.19454 0
M  V30 4229 C 407.725 -1.75869 0.995722 0
M  V30 4230 C 408.046 -1.89138 -0.474543 0
M  V30 4231 O 407.316 -1.42558 -1.34366 0
M  V30 4232 H 405.896 -0.651511 0.365435 0
M  V30 4233 H 408.558 -1.24004 1.50363 0
M  V30 4234 H 407.654 -2.76661 1.44447 0
M  V30 4235 N 407.956 -0.998596 -1.21925 0
M  V30 4236 C 408.904 -0.546641 -2.26085 0
M  V30 4237 C 409.898 0.405576 -1.64473 0
M  V30 4238 O 411.104 0.277471 -1.77849 0
M  V30 4239 H 407.479 -0.158403 -0.735127 0
M  V30 4240 H 409.45 -1.43645 -2.61551 0
M  V30 4241 C 408.199 0.117388 -3.47502 0
M  V30 4242 H 407.522 -0.606277 -3.95176 0
M  V30 4243 H 408.962 0.396993 -4.22137 0
M  V30 4244 C 407.421 1.35455 -3.0847 0
M  V30 4245 O 407.951 2.44944 -3.18379 0
M  V30 4246 N 406.157 1.23191 -2.63196 0
M  V30 4247 H 405.704 0.341006 -2.55333 0
M  V30 4248 H 405.662 2.06071 -2.37449 0
M  V30 4249 N 409.434 1.37368 -0.772513 0
M  V30 4250 C 410.683 1.98918 -0.333861 0
M  V30 4251 C 410.996 1.62017 1.09589 0
M  V30 4252 O 412.202 2.16676 1.63596 0
M  V30 4253 C 410.658 3.55735 -0.545971 0
M  V30 4254 C 410.266 4.01573 -1.98603 0
M  V30 4255 C 412.01 4.24156 -0.170979 0
M  V30 4256 C 409.917 5.51102 -2.1457 0
M  V30 4257 H 408.847 0.744214 -0.121085 0
M  V30 4258 H 411.498 1.56888 -0.95175 0
M  V30 4259 H 409.88 3.95748 0.141387 0
M  V30 4260 H 411.054 3.72803 -2.7084 0
M  V30 4261 H 409.369 3.45937 -2.31769 0
M  V30 4262 H 411.966 5.34024 -0.26878 0
M  V30 4263 H 412.309 4.06917 0.878855 0
M  V30 4264 H 412.842 3.89447 -0.810914 0
M  V30 4265 H 409.581 5.73268 -3.17875 0
M  V30 4266 H 409.101 5.81554 -1.46817 0
M  V30 4267 H 410.78 6.17083 -1.94468 0
M  V30 4268 N 410.912 0.523116 1.48665 0
M  V30 4269 C 412.16 -0.0134497 2.02096 0
M  V30 4270 C 412.481 -1.35418 1.40311 0
M  V30 4271 O 411.751 -1.87543 0.566074 0
M  V30 4272 H 410.331 -0.00795915 0.746958 0
M  V30 4273 H 412.993 0.685388 1.82451 0
M  V30 4274 H 412.089 -0.126849 3.11842 0
M  V30 4275 N 412.39 -1.55475 0.257931 0
M  V30 4276 C 413.353 -2.20551 -0.623706 0
M  V30 4277 C 414.353 -1.17809 -1.09443 0
M  V30 4278 O 415.543 -1.42823 -0.997362 0
M  V30 4279 C 412.675 -2.85784 -1.8585 0
M  V30 4280 H 413.868 -2.99848 -0.0557743 0
M  V30 4281 H 411.421 -1.56298 0.0084422 0
M  V30 4282 H 412.156 -2.10453 -2.46739 0
M  V30 4283 H 411.941 -3.61057 -1.52907 0
M  V30 4284 H 413.431 -3.35553 -2.48584 0
M  V30 4285 N 413.868 0.0150385 -1.57593 0
M  V30 4286 C 414.816 1.02958 -2.08572 0
M  V30 4287 C 415.81 1.36554 -1.00246 0
M  V30 4288 O 417.016 1.35295 -1.18724 0
M  V30 4289 H 413.391 0.349619 -0.665786 0
M  V30 4290 H 415.362 0.573932 -2.92829 0
M  V30 4291 C 414.111 2.31752 -2.59203 0
M  V30 4292 H 413.434 2.06765 -3.42182 0
M  V30 4293 H 414.874 3.01053 -2.98568 0
M  V30 4294 C 413.333 3.01692 -1.49945 0
M  V30 4295 O 413.863 3.92083 -0.873704 0
M  V30 4296 N 412.069 2.6326 -1.23056 0
M  V30 4297 H 411.616 1.89838 -1.74125 0
M  V30 4298 H 411.574 3.10372 -0.501685 0
M  V30 4299 N 415.346 1.54954 0.287554 0
M  V30 4300 C 416.594 1.74528 1.01904 0
M  V30 4301 C 416.915 0.541349 1.87335 0
M  V30 4302 O 416.185 -0.444108 1.908 0
M  V30 4303 H 414.765 0.643576 0.379235 0
M  V30 4304 H 417.427 1.92333 0.315294 0
M  V30 4305 H 416.523 2.64015 1.6644 0
M  V30 4306 N 416.824 -0.551391 1.4764 0
M  V30 4307 C 418.07 -1.31024 1.54792 0
M  V30 4308 C 418.403 -1.9304 0.211967 0
M  V30 4309 O 417.678 -1.78175 -0.77999 0
M  V30 4310 C 417.961 -2.41593 2.67029 0
M  V30 4311 C 417.814 -1.84408 4.10261 0
M  V30 4312 C 419.133 -3.43488 2.75143 0
M  V30 4313 H 416.252 -0.475031 0.563485 0
M  V30 4314 H 418.894 -0.616454 1.79722 0
M  V30 4315 H 417.044 -3.00772 2.45904 0
M  V30 4316 H 418.716 -1.29445 4.42766 0
M  V30 4317 H 416.959 -1.15051 4.18265 0
M  V30 4318 H 417.63 -2.64367 4.84576 0
M  V30 4319 H 420.106 -2.94236 2.94218 0
M  V30 4320 H 418.982 -4.18274 3.55441 0
M  V30 4321 H 419.243 -4.02703 1.82435 0
M  V30 4322 N 418.302 -1.35869 -0.798587 0
M  V30 4323 C 419.265 -1.29307 -1.89242 0
M  V30 4324 C 420.265 -0.202747 -1.59517 0
M  V30 4325 O 421.455 -0.456957 -1.681 0
M  V30 4326 C 418.587 -1.00229 -3.25833 0
M  V30 4327 H 419.78 -2.26576 -1.96478 0
M  V30 4328 H 417.333 -1.20509 -0.995358 0
M  V30 4329 H 418.068 -0.033801 -3.24282 0
M  V30 4330 H 417.853 -1.79121 -3.48795 0
M  V30 4331 H 419.343 -0.98219 -4.05885 0
M  V30 4332 N 419.78 1.02168 -1.19998 0
M  V30 4333 C 421.029 1.75091 -1.0013 0
M  V30 4334 C 421.342 1.89923 0.467835 0
M  V30 4335 O 422.548 2.59888 0.785515 0
M  V30 4336 C 421.004 3.14892 -1.74273 0
M  V30 4337 C 420.612 3.0809 -3.25245 0
M  V30 4338 C 422.356 3.9206 -1.62755 0
M  V30 4339 C 420.263 4.42867 -3.91948 0
M  V30 4340 H 419.193 0.656394 -0.37103 0
M  V30 4341 H 421.844 1.14284 -1.43567 0
M  V30 4342 H 420.226 3.7621 -1.2362 0
M  V30 4343 H 421.4 2.5611 -3.83072 0
M  V30 4344 H 419.715 2.44416 -3.3712 0
M  V30 4345 H 422.312 4.91764 -2.09934 0
M  V30 4346 H 422.655 4.12199 -0.582894 0
M  V30 4347 H 423.188 3.37359 -2.10793 0
M  V30 4348 H 419.927 4.27931 -4.96543 0
M  V30 4349 H 419.447 4.94874 -3.3891 0
M  V30 4350 H 421.126 5.11728 -3.95909 0
M  V30 4351 N 421.258 1.00505 1.21394 0
M  V30 4352 C 422.505 0.687774 1.90462 0
M  V30 4353 C 422.833 -0.78147 1.7811 0
M  V30 4354 O 422.088 -1.58208 1.1519 0
M  V30 4355 C 422.387 1.0546 3.41486 0
M  V30 4356 C 422.053 2.51812 3.74034 0
M  V30 4357 C 420.715 2.91804 3.82628 0
M  V30 4358 C 423.067 3.46614 3.8924 0
M  V30 4359 C 420.395 4.2556 4.03876 0
M  V30 4360 C 422.747 4.80044 4.11995 0
M  V30 4361 C 421.411 5.19759 4.18816 0
M  V30 4362 H 420.681 0.251674 0.696951 0
M  V30 4363 H 423.328 1.26349 1.43903 0
M  V30 4364 H 421.633 0.397133 3.89782 0
M  V30 4365 H 423.33 0.786976 3.93202 0
M  V30 4366 H 419.92 2.1982 3.67936 0
M  V30 4367 H 424.104 3.16883 3.81967 0
M  V30 4368 H 419.36 4.55901 4.07387 0
M  V30 4369 H 423.534 5.53439 4.22704 0
M  V30 4370 H 421.161 6.23418 4.35033 0
M  V30 4371 N 422.737 -1.36956 0.779787 0
M  V30 4372 C 423.647 -2.33965 0.172491 0
M  V30 4373 C 424.663 -1.60574 -0.670222 0
M  V30 4374 O 425.839 -1.92617 -0.588263 0
M  V30 4375 C 422.904 -3.39761 -0.690173 0
M  V30 4376 C 421.965 -4.28964 0.169924 0
M  V30 4377 C 421.198 -5.29707 -0.651662 0
M  V30 4378 O 421.421 -5.38238 -1.88827 0
M  V30 4379 O 420.355 -6.01873 -0.0566264 0
M  V30 4380 H 424.181 -2.87647 0.974321 0
M  V30 4381 H 421.766 -1.39258 0.541078 0
M  V30 4382 H 423.648 -4.04471 -1.1824 0
M  V30 4383 H 422.323 -2.88394 -1.47006 0
M  V30 4384 H 421.23 -3.67326 0.708696 0
M  V30 4385 H 422.563 -4.83656 0.913085 0
M  V30 4386 N 424.215 -0.530993 -1.48385 0
M  V30 4387 C 425.44 0.000729535 -2.074 0
M  V30 4388 C 425.865 1.27298 -1.3848 0
M  V30 4389 O 425.223 1.75599 -0.451081 0
M  V30 4390 C 425.271 0.206697 -3.60007 0
M  V30 4391 O 424.375 1.27514 -3.92191 0
M  V30 4392 H 423.716 -0.039583 -0.662819 0
M  V30 4393 H 426.246 -0.739194 -1.9078 0
M  V30 4394 H 426.256 0.42904 -4.05738 0
M  V30 4395 H 424.931 -0.722675 -4.09573 0
M  V30 4396 H 423.508 1.03537 -3.58238 0
M  V30 4397 N 425.693 1.55336 -0.266172 0
M  V30 4398 C 426.939 1.99692 0.353681 0
M  V30 4399 C 427.272 1.1543 1.56172 0
M  V30 4400 O 426.547 0.222218 1.93226 0
M  V30 4401 C 426.83 3.52316 0.74466 0
M  V30 4402 C 426.683 4.47337 -0.470101 0
M  V30 4403 C 428.002 4.10588 1.58447 0
M  V30 4404 H 425.121 0.725961 0.12708 0
M  V30 4405 H 427.763 1.86336 -0.371333 0
M  V30 4406 H 425.913 3.63829 1.36239 0
M  V30 4407 H 427.585 4.4778 -1.10864 0
M  V30 4408 H 425.828 4.19364 -1.10978 0
M  V30 4409 H 426.499 5.51788 -0.15291 0
M  V30 4410 H 428.975 4.02297 1.06286 0
M  V30 4411 H 427.851 5.17607 1.82686 0
M  V30 4412 H 428.112 3.60253 2.56262 0
M  V30 4413 N 427.171 -0.0066808 1.57599 0
M  V30 4414 C 428.121 -1.0086 2.04478 0
M  V30 4415 C 429.105 -1.30714 0.938231 0
M  V30 4416 O 430.297 -1.29924 1.20203 0
M  V30 4417 C 427.426 -2.30273 2.54615 0
M  V30 4418 C 426.512 -2.03413 3.72134 0
M  V30 4419 N 426.903 -1.46688 4.84062 0
M  V30 4420 C 425.201 -2.33589 3.79937 0
M  V30 4421 C 425.902 -1.36146 5.65543 0
M  V30 4422 N 424.878 -1.84477 5.1134 0
M  V30 4423 H 428.68 -0.564402 2.8843 0
M  V30 4424 H 426.194 -0.212521 1.61003 0
M  V30 4425 H 428.191 -3.02885 2.86472 0
M  V30 4426 H 426.851 -2.75352 1.72079 0
M  V30 4427 H 427.862 -1.14658 5.05049 0
M  V30 4428 H 424.539 -2.81589 3.08243 0
M  V30 4429 H 425.929 -0.925873 6.6549 0
M  V30 4430 N 428.649 -1.55105 -0.279332 0
M  V30 4431 C 429.897 -1.75066 -1.00977 0
M  V30 4432 C 430.218 -0.551276 -1.87045 0
M  V30 4433 O 429.488 0.433984 -1.91032 0
M  V30 4434 H 428.068 -0.645578 -0.375816 0
M  V30 4435 H 430.73 -1.92497 -0.305089 0
M  V30 4436 H 429.826 -2.64894 -1.65038 0
M  V30 4437 N 430.127 0.543554 -1.4793 0
M  V30 4438 C 431.355 1.32516 -1.58894 0
M  V30 4439 C 431.77 1.87215 -0.244131 0
M  V30 4440 O 431.127 1.65709 0.764652 0
M  V30 4441 C 431.178 2.48554 -2.62494 0
M  V30 4442 O 430.899 1.96112 -3.91755 0
M  V30 4443 C 432.4 3.40572 -2.8377 0
M  V30 4444 H 429.62 0.403472 -0.536145 0
M  V30 4445 H 432.164 0.657106 -1.93655 0
M  V30 4446 H 430.319 3.1127 -2.30629 0
M  V30 4447 H 430.733 2.71967 -4.4848 0
M  V30 4448 H 432.207 4.18375 -3.60093 0
M  V30 4449 H 432.684 3.94965 -1.92092 0
M  V30 4450 H 433.29 2.8366 -3.16887 0
M  V30 4451 N 431.605 1.3629 0.791371 0
M  V30 4452 C 432.568 1.30309 1.88553 0
M  V30 4453 C 433.568 0.211204 1.59407 0
M  V30 4454 O 434.758 0.465865 1.67855 0
M  V30 4455 C 431.89 1.01956 3.25297 0
M  V30 4456 H 433.083 2.27614 1.95273 0
M  V30 4457 H 430.636 1.21035 0.988953 0
M  V30 4458 H 431.371 0.050998 3.2426 0
M  V30 4459 H 431.156 1.80968 3.4784 0
M  V30 4460 H 432.646 1.0037 4.05359 0
M  V30 4461 N 433.083 -1.0153 1.20538 0
M  V30 4462 C 434.494 -1.56598 1.01657 0
M  V30 4463 C 434.845 -1.91505 -0.426668 0
M  V30 4464 O 433.97 -1.72375 -1.30827 0
M  V30 4465 C 434.565 -2.84542 1.83905 0
M  V30 4466 C 433.124 -3.36133 1.69386 0
M  V30 4467 C 432.271 -2.09427 1.81757 0
M  V30 4468 H 435.222 -0.838974 1.34711 0
M  V30 4469 H 435.243 -3.56004 1.34319 0
M  V30 4470 H 434.755 -2.59105 2.8894 0
M  V30 4471 H 432.856 -3.66528 0.669933 0
M  V30 4472 H 432.969 -4.08248 2.50739 0
M  V30 4473 H 431.333 -2.21941 1.24957 0
M  V30 4474 H 432.116 -1.86414 2.88279 0
M  V30 4475 N 434.561 -1.01147 -1.20859 0
M  V30 4476 C 435.838 -0.613136 -1.85742 0
M  V30 4477 C 436.218 0.909004 -1.90526 0
M  V30 4478 O 435.566 1.79862 -1.40932 0
M  V30 4479 C 435.776 -1.255 -3.25654 0
M  V30 4480 C 437.124 -1.3672 -4.01986 0
M  V30 4481 O 438.148 -1.21082 -3.34989 0
M  V30 4482 O 437.007 -1.6194 -5.21956 0
M  V30 4483 H 434.101 -0.210878 -0.799662 0
M  V30 4484 H 436.647 -1.10853 -1.2849 0
M  V30 4485 H 435.419 -2.29532 -3.16908 0
M  V30 4486 H 435.042 -0.746369 -3.90532 0
M  V30 4487 N 436.039 1.36541 -0.78704 0
M  V30 4488 C 437.288 1.98552 -0.35494 0
M  V30 4489 C 437.601 1.63171 1.07864 0
M  V30 4490 O 438.807 2.18399 1.61289 0
M  V30 4491 C 437.263 3.55136 -0.583671 0
M  V30 4492 C 436.871 3.99444 -2.02851 0
M  V30 4493 C 438.615 4.2395 -0.215957 0
M  V30 4494 C 436.522 5.48796 -2.20403 0
M  V30 4495 H 435.452 0.742888 -0.128972 0
M  V30 4496 H 438.103 1.5587 -0.968337 0
M  V30 4497 H 436.485 3.95875 0.0994046 0
M  V30 4498 H 437.659 3.6991 -2.74779 0
M  V30 4499 H 435.974 3.43459 -2.35425 0
M  V30 4500 H 438.571 5.33709 -0.325405 0
M  V30 4501 H 438.914 4.07827 0.835646 0
M  V30 4502 H 439.447 3.88565 -0.852175 0
M  V30 4503 H 436.186 5.69864 -3.23937 0
M  V30 4504 H 435.706 5.79964 -1.52977 0
M  V30 4505 H 437.385 6.14986 -2.01002 0
M  V30 4506 N 437.518 0.538854 1.48102 0
M  V30 4507 C 438.481 -0.208395 2.28251 0
M  V30 4508 C 439.481 -0.859656 1.35892 0
M  V30 4509 O 440.671 -0.71834 1.58699 0
M  V30 4510 C 437.803 -1.30252 3.15035 0
M  V30 4511 H 438.996 0.495407 2.9578 0
M  V30 4512 H 436.549 0.295112 1.53489 0
M  V30 4513 H 437.284 -2.0393 2.52157 0
M  V30 4514 H 437.069 -0.840551 3.82985 0
M  V30 4515 H 438.559 -1.82787 3.75471 0
M  V30 4516 N 438.996 -1.55193 0.274407 0
M  V30 4517 C 440.244 -1.99187 -0.341902 0
M  V30 4518 C 440.565 -1.16422 -1.56431 0
M  V30 4519 O 439.835 -0.253573 -1.94252 0
M  V30 4520 H 438.415 -0.735721 -0.129317 0
M  V30 4521 H 441.077 -1.91168 0.379578 0
M  V30 4522 H 440.173 -3.05629 -0.632253 0
M  V30 4523 N 440.474 -0.00167713 -1.576 0
M  V30 4524 C 441.421 0.989195 -2.08527 0
M  V30 4525 C 442.391 1.34031 -0.981065 0
M  V30 4526 O 443.576 1.43839 -1.2536 0
M  V30 4527 C 440.716 2.27537 -2.59463 0
M  V30 4528 C 439.829 1.98314 -3.83791 0
M  V30 4529 C 438.964 3.21025 -4.23222 0
M  V30 4530 C 438.003 2.87495 -5.40382 0
M  V30 4531 N 437.14 4.02749 -5.75098 0
M  V30 4532 H 441.98 0.547973 -2.92919 0
M  V30 4533 H 439.517 0.258917 -1.44803 0
M  V30 4534 H 441.475 3.02729 -2.87073 0
M  V30 4535 H 440.105 2.69325 -1.77943 0
M  V30 4536 H 439.157 1.13482 -3.63078 0
M  V30 4537 H 440.469 1.69601 -4.69081 0
M  V30 4538 H 439.623 4.04561 -4.52123 0
M  V30 4539 H 438.362 3.52877 -3.36644 0
M  V30 4540 H 437.367 2.02367 -5.11202 0
M  V30 4541 H 438.592 2.56889 -6.28637 0
M  V30 4542 H 436.538 4.34494 -4.91478 0
M  V30 4543 H 436.455 3.77566 -6.54966 0
M  V30 4544 H 437.723 4.87068 -6.08592 0
M  V30 4545 N 441.952 1.55251 0.271103 0
M  V30 4546 C 443.229 1.66664 1.02384 0
M  V30 4547 C 443.609 0.534363 2.04225 0
M  V30 4548 O 442.957 -0.465337 2.23712 0
M  V30 4549 C 443.167 3.05961 1.67895 0
M  V30 4550 C 444.515 3.63772 2.18986 0
M  V30 4551 O 445.539 3.08606 1.77878 0
M  V30 4552 O 444.398 4.60429 2.94393 0
M  V30 4553 H 441.492 0.676957 0.475035 0
M  V30 4554 H 444.038 1.67589 0.26681 0
M  V30 4555 H 442.81 3.79815 0.941071 0
M  V30 4556 H 442.433 3.08943 2.5028 0
M  V30 4557 N 443.43 -0.535701 1.48216 0
M  V30 4558 C 444.363 -1.65726 1.56876 0
M  V30 4559 C 445.341 -1.57094 0.419542 0
M  V30 4560 O 446.525 -1.77648 0.630352 0
M  V30 4561 C 443.652 -3.04096 1.49142 0
M  V30 4562 C 442.698 -3.31105 2.68834 0
M  V30 4563 S 443.531 -3.18001 4.30854 0
M  V30 4564 C 444.687 -4.58828 4.25709 0
M  V30 4565 H 444.92 -1.58129 2.51759 0
M  V30 4566 H 442.453 -0.718218 1.36678 0
M  V30 4567 H 444.411 -3.839 1.45366 0
M  V30 4568 H 443.072 -3.09139 0.556067 0
M  V30 4569 H 442.265 -4.32033 2.59545 0
M  V30 4570 H 441.867 -2.58961 2.69843 0
M  V30 4571 H 444.159 -5.5023 3.95289 0
M  V30 4572 H 445.102 -4.73172 5.26796 0
M  V30 4573 H 445.51 -4.37883 3.56257 0
M  V30 4574 N 444.908 -1.36708 -0.784132 0
M  V30 4575 C 445.871 -1.31307 -1.87859 0
M  V30 4576 C 446.871 -0.219654 -1.59293 0
M  V30 4577 O 448.061 -0.47476 -1.67606 0
M  V30 4578 C 445.193 -1.03679 -3.24751 0
M  V30 4579 H 446.386 -2.28647 -1.94064 0
M  V30 4580 H 443.939 -1.21558 -0.98252 0
M  V30 4581 H 444.674 -0.0681936 -3.24228 0
M  V30 4582 H 444.459 -1.82811 -3.46876 0
M  V30 4583 H 445.949 -1.02518 -4.04821 0
M  V30 4584 N 446.386 1.0089 -1.21074 0
M  V30 4585 C 447.334 2.11707 -0.963476 0
M  V30 4586 C 448.328 1.69172 0.0879032 0
M  V30 4587 O 449.534 1.79889 -0.0631415 0
M  V30 4588 H 445.909 0.692026 -0.294287 0
M  V30 4589 H 447.88 2.29743 -1.90422 0
M  V30 4590 C 446.629 3.43473 -0.540509 0
M  V30 4591 H 445.952 3.76634 -1.34114 0
M  V30 4592 H 447.392 4.22044 -0.406777 0
M  V30 4593 C 445.851 3.2849 0.748079 0
M  V30 4594 O 446.381 3.58883 1.8046 0
M  V30 4595 N 444.587 2.81715 0.713081 0
M  V30 4596 H 444.134 2.5718 -0.146973 0
M  V30 4597 H 444.092 2.72071 1.57558 0
M  V30 4598 N 447.864 1.01787 1.20321 0
M  V30 4599 C 449.275 0.739307 1.71438 0
M  V30 4600 C 449.626 -0.742041 1.81627 0
M  V30 4601 O 448.751 -1.57903 1.47971 0
M  V30 4602 C 449.346 1.33538 3.11373 0
M  V30 4603 C 447.905 1.10566 3.59795 0
M  V30 4604 C 447.052 1.44028 2.36962 0
M  V30 4605 H 450.003 1.18718 1.05317 0
M  V30 4606 H 450.024 0.726611 3.73498 0
M  V30 4607 H 449.536 2.41352 3.03926 0
M  V30 4608 H 447.637 0.0452405 3.72573 0
M  V30 4609 H 447.75 1.78661 4.44542 0
M  V30 4610 H 446.114 0.85933 2.39766 0
M  V30 4611 H 446.897 2.52901 2.32155 0
M  V30 4612 N 449.342 -1.36122 0.79427 0
M  V30 4613 C 450.57 -2.03362 0.380989 0
M  V30 4614 C 450.985 -1.59881 -1.00416 0
M  V30 4615 O 450.342 -0.790515 -1.6449 0
M  V30 4616 C 450.393 -3.58804 0.440649 0
M  V30 4617 O 450.114 -4.007 1.77118 0
M  V30 4618 C 451.615 -4.43296 0.0186117 0
M  V30 4619 H 448.835 -0.652526 0.156367 0
M  V30 4620 H 451.379 -1.73998 1.07447 0
M  V30 4621 H 449.534 -3.8686 -0.204458 0
M  V30 4622 H 449.948 -4.95309 1.72538 0
M  V30 4623 H 451.422 -5.51887 0.111488 0
M  V30 4624 H 451.899 -4.2684 -1.03461 0
M  V30 4625 H 452.505 -4.20512 0.636395 0
M  V30 4626 N 450.82 -0.546701 -1.47814 0
M  V30 4627 C 451.783 0.196287 -2.28358 0
M  V30 4628 C 452.783 0.852437 -1.36346 0
M  V30 4629 O 453.973 0.709913 -1.59078 0
M  V30 4630 C 451.105 1.28579 -3.15722 0
M  V30 4631 H 452.298 -0.511086 -2.95513 0
M  V30 4632 H 449.851 -0.303248 -1.5333 0
M  V30 4633 H 450.586 2.0259 -2.53235 0
M  V30 4634 H 450.371 0.820229 -3.83425 0
M  V30 4635 H 451.861 1.80793 -3.76435 0
M  V30 4636 N 452.299 1.55045 -0.282633 0
M  V30 4637 C 453.229 2.2579 0.595066 0
M  V30 4638 C 454.21 1.25074 1.15284 0
M  V30 4639 O 455.395 1.5381 1.18559 0
M  V30 4640 C 452.525 2.98472 1.77572 0
M  V30 4641 C 451.479 4.0618 1.34914 0
M  V30 4642 C 450.805 4.66477 2.6135 0
M  V30 4643 C 452.105 5.1996 0.493821 0
M  V30 4644 H 453.799 2.994 0.00505653 0
M  V30 4645 H 451.345 1.44 0.000992001 0
M  V30 4646 H 453.298 3.46677 2.39568 0
M  V30 4647 H 452.022 2.2241 2.39168 0
M  V30 4648 H 450.681 3.58797 0.752338 0
M  V30 4649 H 450.329 3.87074 3.2122 0
M  V30 4650 H 450.029 5.39207 2.33516 0
M  V30 4651 H 451.553 5.17435 3.24181 0
M  V30 4652 H 452.967 5.64172 1.01898 0
M  V30 4653 H 451.364 5.99299 0.310047 0
M  V30 4654 H 452.434 4.82462 -0.485593 0
M  V30 4655 N 453.777 0.010035 1.57597 0
M  V30 4656 C 454.707 -0.976857 2.12084 0
M  V30 4657 C 455.688 -1.35191 1.03235 0
M  V30 4658 O 456.873 -1.43389 1.3097 0
M  V30 4659 C 454.003 -2.26548 2.63236 0
M  V30 4660 C 452.957 -2.03175 3.76701 0
M  V30 4661 C 452.283 -3.38138 4.14206 0
M  V30 4662 C 453.583 -1.38625 5.03568 0
M  V30 4663 H 455.277 -0.523145 2.94794 0
M  V30 4664 H 452.823 -0.250195 1.4181 0
M  V30 4665 H 454.776 -2.95952 2.99984 0
M  V30 4666 H 453.5 -2.74051 1.77661 0
M  V30 4667 H 452.159 -1.36195 3.40362 0
M  V30 4668 H 451.807 -3.83363 3.25641 0
M  V30 4669 H 451.507 -3.23312 4.90656 0
M  V30 4670 H 453.031 -4.08841 4.53521 0
M  V30 4671 H 454.445 -1.98 5.38023 0
M  V30 4672 H 452.842 -1.34256 5.84889 0
M  V30 4673 H 453.912 -0.356722 4.83586 0
M  V30 4674 N 455.255 -1.55392 -0.262866 0
M  V30 4675 C 456.185 -1.91978 -1.32917 0
M  V30 4676 C 457.166 -0.7828 -1.51017 0
M  V30 4677 O 458.351 -1.04178 -1.63892 0
M  V30 4678 C 455.481 -2.20055 -2.68687 0
M  V30 4679 C 454.435 -3.35854 -2.65304 0
M  V30 4680 C 453.761 -3.49435 -4.04721 0
M  V30 4681 C 455.061 -4.71977 -2.23685 0
M  V30 4682 H 456.755 -2.81292 -1.02544 0
M  V30 4683 H 454.301 -1.3534 -0.491846 0
M  V30 4684 H 456.254 -2.44237 -3.43404 0
M  V30 4685 H 454.978 -1.27551 -3.00663 0
M  V30 4686 H 453.637 -3.11655 -1.93045 0
M  V30 4687 H 453.285 -2.54379 -4.33936 0
M  V30 4688 H 452.985 -4.27297 -4.0335 0
M  V30 4689 H 454.509 -3.7592 -4.81161 0
M  V30 4690 H 455.923 -4.95637 -2.88127 0
M  V30 4691 H 454.32 -5.52828 -2.33456 0
M  V30 4692 H 455.39 -4.70115 -1.18827 0
M  V30 4693 N 456.733 0.527833 -1.48498 0
M  V30 4694 C 457.958 1.313 -1.60546 0
M  V30 4695 C 458.383 1.86199 -0.26672 0
M  V30 4696 O 457.741 1.64513 0.761918 0
M  V30 4697 C 457.789 2.43818 -2.65678 0
M  V30 4698 O 456.893 3.46916 -2.22987 0
M  V30 4699 H 456.234 0.388784 -0.538277 0
M  V30 4700 H 458.764 0.634896 -1.945 0
M  V30 4701 H 458.774 2.89973 -2.87018 0
M  V30 4702 H 457.449 2.03222 -3.62869 0
M  V30 4703 H 456.026 3.06864 -2.11869 0
M  V30 4704 N 458.211 1.37122 0.776871 0
M  V30 4705 C 459.174 1.32301 1.8716 0
M  V30 4706 C 460.174 0.228099 1.59174 0
M  V30 4707 O 461.364 0.483642 1.67352 0
M  V30 4708 C 458.496 1.054 3.24197 0
M  V30 4709 H 459.689 2.29673 1.92848 0
M  V30 4710 H 457.242 1.22077 0.97606 0
M  V30 4711 H 457.977 0.0853872 3.24188 0
M  V30 4712 H 457.762 1.84648 3.45901 0
M  V30 4713 H 459.252 1.04664 4.04271 0
M  V30 4714 N 459.689 -1.00246 1.21608 0
M  V30 4715 C 460.935 -1.74319 1.03638 0
M  V30 4716 C 461.268 -1.89408 -0.428749 0
M  V30 4717 O 460.543 -1.43026 -1.3181 0
M  V30 4718 C 460.826 -3.15431 1.73711 0
M  V30 4719 C 460.679 -3.08049 3.27759 0
M  V30 4720 C 461.998 -4.14407 1.48173 0
M  V30 4721 H 459.117 -0.632741 0.377899 0
M  V30 4722 H 461.759 -1.16853 1.49818 0
M  V30 4723 H 459.909 -3.64493 1.34452 0
M  V30 4724 H 461.581 -2.66681 3.76403 0
M  V30 4725 H 459.824 -2.45088 3.57931 0
M  V30 4726 H 460.495 -4.07862 3.71958 0
M  V30 4727 H 462.971 -3.74061 1.82258 0
M  V30 4728 H 461.847 -5.11279 1.99713 0
M  V30 4729 H 462.108 -4.40174 0.412273 0
M  V30 4730 N 461.167 -1.02423 -1.1978 0
M  V30 4731 C 462.1 -0.545641 -2.21581 0
M  V30 4732 C 463.078 0.411024 -1.57319 0
M  V30 4733 O 464.262 0.329223 -1.85603 0
M  V30 4734 C 461.389 0.204973 -3.38079 0
M  V30 4735 C 460.435 -0.70241 -4.20676 0
M  V30 4736 S 461.268 -2.17595 -4.89298 0
M  V30 4737 C 462.424 -1.43572 -6.09211 0
M  V30 4738 H 462.657 -1.4082 -2.61834 0
M  V30 4739 H 460.19 -0.833771 -1.29952 0
M  V30 4740 H 462.148 0.631924 -4.05607 0
M  V30 4741 H 460.809 1.0432 -2.9627 0
M  V30 4742 H 460.002 -0.123193 -5.03849 0
M  V30 4743 H 459.604 -1.06747 -3.58442 0
M  V30 4744 H 461.896 -0.719806 -6.73665 0
M  V30 4745 H 462.839 -2.24388 -6.71607 0
M  V30 4746 H 463.247 -0.935252 -5.56699 0
M  V30 4747 N 462.645 1.35699 -0.801477 0
M  V30 4748 C 463.578 2.2768 -0.153922 0
M  V30 4749 C 464.556 1.47832 0.67709 0
M  V30 4750 O 465.74 1.77104 0.645474 0
M  V30 4751 C 462.867 3.2943 0.786986 0
M  V30 4752 C 461.913 4.26485 0.0362447 0
M  V30 4753 S 462.746 5.19573 -1.2963 0
M  V30 4754 C 463.902 6.24866 -0.359705 0
M  V30 4755 H 464.135 2.82254 -0.9338 0
M  V30 4756 H 461.668 1.42421 -0.596283 0
M  V30 4757 H 463.626 3.8855 1.32436 0
M  V30 4758 H 462.287 2.73745 1.54021 0
M  V30 4759 H 461.48 4.98378 0.750668 0
M  V30 4760 H 461.082 3.71508 -0.431017 0
M  V30 4761 H 463.374 6.75957 0.456954 0
M  V30 4762 H 464.317 7.00307 -1.04768 0
M  V30 4763 H 464.725 5.64484 0.0423274 0
M  V30 4764 N 464.123 0.554532 1.47522 0
M  V30 4765 C 465.053 -0.182974 2.32782 0
M  V30 4766 C 466.034 -0.911377 1.43624 0
M  V30 4767 O 467.219 -0.892366 1.72483 0
M  V30 4768 C 464.349 -1.21513 3.25349 0
M  V30 4769 C 463.303 -0.603355 4.23726 0
M  V30 4770 C 462.629 -1.73995 5.05598 0
M  V30 4771 C 463.929 0.441121 5.20434 0
M  V30 4772 H 465.623 0.52882 2.94693 0
M  V30 4773 H 463.169 0.255759 1.41711 0
M  V30 4774 H 465.122 -1.73922 3.83835 0
M  V30 4775 H 463.846 -1.95683 2.61487 0
M  V30 4776 H 462.505 -0.10059 3.66462 0
M  V30 4777 H 462.153 -2.47063 4.38143 0
M  V30 4778 H 461.853 -1.3364 5.72201 0
M  V30 4779 H 463.377 -2.26735 5.66942 0
M  V30 4780 H 464.791 0.00319931 5.733 0
M  V30 4781 H 463.188 0.763402 5.95224 0
M  V30 4782 H 464.258 1.33799 4.66075 0
M  V30 4783 N 465.601 -1.54893 0.290851 0
M  V30 4784 C 467.017 -1.59476 -0.0628432 0
M  V30 4785 C 467.217 -1.30795 -1.5328 0
M  V30 4786 O 466.273 -1.07644 -2.28406 0
M  V30 4787 C 467.586 -2.98928 0.325962 0
M  V30 4788 C 469.134 -3.11799 0.273882 0
M  V30 4789 C 469.609 -4.53544 0.637359 0
M  V30 4790 N 471.1 -4.59433 0.589507 0
M  V30 4791 C 471.835 -5.67164 0.84335 0
M  V30 4792 N 471.331 -6.82975 1.16263 0
M  V30 4793 N 473.124 -5.56786 0.771091 0
M  V30 4794 H 465.275 -1.71798 1.24896 0
M  V30 4795 H 467.538 -0.801879 0.505663 0
M  V30 4796 H 467.244 -3.24805 1.34887 0
M  V30 4797 H 467.118 -3.75793 -0.325441 0
M  V30 4798 H 469.505 -2.85677 -0.739765 0
M  V30 4799 H 469.586 -2.37112 0.959766 0
M  V30 4800 H 469.23 -4.80394 1.64877 0
M  V30 4801 H 469.16 -5.26553 -0.0704866 0
M  V30 4802 H 471.651 -3.76245 0.353252 0
M  V30 4803 H 471.964 -7.61048 1.34257 0
M  V30 4804 H 470.309 -6.84552 1.20057 0
M  V30 4805 H 473.5 -4.65187 0.521383 0
M  V30 4806 H 473.673 -6.40664 0.972295 0
M  V30 4807 N 467.08 -0.0183926 -1.57589 0
M  V30 4808 C 468.03 0.975944 -2.06057 0
M  V30 4809 C 469.014 1.29204 -0.958908 0
M  V30 4810 O 470.206 1.27995 -1.22255 0
M  V30 4811 C 467.335 2.26194 -2.58247 0
M  V30 4812 C 466.421 1.97467 -3.75323 0
M  V30 4813 N 466.812 1.38968 -4.86335 0
M  V30 4814 C 465.11 2.27515 -3.83605 0
M  V30 4815 C 465.811 1.27131 -5.67638 0
M  V30 4816 N 464.787 1.76319 -5.14211 0
M  V30 4817 H 468.589 0.518444 -2.89291 0
M  V30 4818 H 466.103 0.18688 -1.61321 0
M  V30 4819 H 468.1 2.98289 -2.91255 0
M  V30 4820 H 466.76 2.7258 -1.76438 0
M  V30 4821 H 467.771 1.06608 -5.06809 0
M  V30 4822 H 464.448 2.76649 -3.12684 0
M  V30 4823 H 465.838 0.819882 -6.66879 0
M  V30 4824 N 468.558 1.5553 0.254621 0
M  V30 4825 C 469.491 1.84624 1.34124 0
M  V30 4826 C 470.469 0.700693 1.46728 0
M  V30 4827 O 471.653 0.94564 1.63064 0
M  V30 4828 C 468.78 2.02412 2.71564 0
M  V30 4829 C 467.826 3.25028 2.7615 0
M  V30 4830 S 468.659 4.81893 2.33538 0
M  V30 4831 C 469.815 5.02677 3.72917 0
M  V30 4832 H 470.048 2.76501 1.09245 0
M  V30 4833 H 467.581 1.47537 0.455211 0
M  V30 4834 H 469.539 2.13345 3.50705 0
M  V30 4835 H 468.2 1.11391 2.93685 0
M  V30 4836 H 467.393 3.34418 3.77069 0
M  V30 4837 H 466.995 3.12781 2.05046 0
M  V30 4838 H 469.287 4.89546 4.68349 0
M  V30 4839 H 470.23 6.0468 3.68467 0
M  V30 4840 H 470.638 4.30561 3.65072 0
M  V30 4841 N 470.036 -0.519951 1.48776 0
M  V30 4842 C 471.284 -1.2727 1.56993 0
M  V30 4843 C 471.605 -1.9339 0.25004 0
M  V30 4844 O 470.875 -1.81822 -0.729216 0
M  V30 4845 H 469.455 -0.472732 0.578389 0
M  V30 4846 H 472.117 -0.604234 1.85297 0
M  V30 4847 H 471.213 -2.04669 2.3562 0
M  V30 4848 N 471.514 -1.37532 -0.769588 0
M  V30 4849 C 472.444 -1.36172 -1.89682 0
M  V30 4850 C 473.425 -0.23001 -1.68538 0
M  V30 4851 O 474.61 -0.43069 -1.89364 0
M  V30 4852 C 471.74 -1.1701 -3.26995 0
M  V30 4853 C 470.694 -2.27216 -3.62708 0
M  V30 4854 C 470.02 -1.93174 -4.98586 0
M  V30 4855 C 471.32 -3.6941 -3.69234 0
M  V30 4856 H 473.014 -2.30499 -1.91078 0
M  V30 4857 H 470.56 -1.10953 -0.917902 0
M  V30 4858 H 472.513 -1.14688 -4.05493 0
M  V30 4859 H 471.237 -0.191395 -3.26039 0
M  V30 4860 H 469.896 -2.28697 -2.86519 0
M  V30 4861 H 469.544 -0.938281 -4.94171 0
M  V30 4862 H 469.244 -2.66973 -5.23449 0
M  V30 4863 H 470.768 -1.92443 -5.79481 0
M  V30 4864 H 472.182 -3.70047 -4.37879 0
M  V30 4865 H 470.579 -4.4228 -4.05597 0
M  V30 4866 H 471.649 -4.0288 -2.69844 0
M  V30 4867 N 472.992 0.995999 -1.22138 0
M  V30 4868 C 474.239 1.7351 -1.04406 0
M  V30 4869 C 474.567 1.89884 0.421244 0
M  V30 4870 O 473.822 1.43683 1.32867 0
M  V30 4871 C 474.121 3.14553 -1.6968 0
M  V30 4872 C 473.787 3.18102 -3.19565 0
M  V30 4873 C 472.449 3.18778 -3.60464 0
M  V30 4874 C 474.801 3.14636 -4.15516 0
M  V30 4875 C 472.129 3.13684 -4.95801 0
M  V30 4876 C 474.481 3.11084 -5.50826 0
M  V30 4877 C 473.145 3.10074 -5.91109 0
M  V30 4878 H 472.415 0.634916 -0.38205 0
M  V30 4879 H 475.062 1.1667 -1.51857 0
M  V30 4880 H 473.367 3.74682 -1.14546 0
M  V30 4881 H 475.064 3.70477 -1.53454 0
M  V30 4882 H 471.654 3.18324 -2.86998 0
M  V30 4883 H 475.838 3.13266 -3.84939 0
M  V30 4884 H 471.094 3.11245 -5.26247 0
M  V30 4885 H 475.268 3.07357 -6.24904 0
M  V30 4886 H 472.895 3.05882 -6.95946 0
M  V30 4887 N 474.47 1.03057 1.19235 0
M  V30 4888 C 475.747 0.642608 1.84743 0
M  V30 4889 C 476.127 -0.878577 1.91948 0
M  V30 4890 O 475.475 -1.77597 1.43776 0
M  V30 4891 C 475.685 1.30665 3.23616 0
M  V30 4892 C 477.033 1.43098 3.9976 0
M  V30 4893 O 478.057 1.26396 3.3302 0
M  V30 4894 O 476.916 1.70223 5.19313 0
M  V30 4895 H 474.01 0.223573 0.796206 0
M  V30 4896 H 476.556 1.12883 1.26711 0
M  V30 4897 H 475.328 2.34544 3.13217 0
M  V30 4898 H 474.951 0.808405 3.89295 0
M  V30 4899 N 475.948 -1.35272 0.808662 0
M  V30 4900 C 476.898 -2.27181 0.193124 0
M  V30 4901 C 477.882 -1.47871 -0.634265 0
M  V30 4902 O 479.074 -1.70048 -0.491182 0
M  V30 4903 C 476.203 -3.36979 -0.655751 0
M  V30 4904 C 475.289 -4.23712 0.181481 0
M  V30 4905 N 475.68 -4.90225 1.24551 0
M  V30 4906 C 473.978 -4.45985 -0.0365493 0
M  V30 4907 C 474.679 -5.54537 1.75682 0
M  V30 4908 N 473.655 -5.33107 1.06294 0
M  V30 4909 H 477.457 -2.76101 1.00724 0
M  V30 4910 H 474.971 -1.48823 0.650029 0
M  V30 4911 H 476.968 -4.01774 -1.11279 0
M  V30 4912 H 475.628 -2.89611 -1.46819 0
M  V30 4913 H 476.639 -4.91641 1.62818 0
M  V30 4914 H 473.316 -4.09409 -0.817964 0
M  V30 4915 H 474.706 -6.17597 2.64621 0
M  V30 4916 N 477.426 -0.562348 -1.47226 0
M  V30 4917 C 478.389 0.172056 -2.28553 0
M  V30 4918 C 479.389 0.837928 -1.37242 0
M  V30 4919 O 480.579 0.693001 -1.59822 0
M  V30 4920 C 477.711 1.25223 -3.17068 0
M  V30 4921 H 478.904 -0.542401 -2.94954 0
M  V30 4922 H 476.457 -0.319493 -1.53 0
M  V30 4923 H 477.192 1.99892 -2.55369 0
M  V30 4924 H 476.977 0.779515 -3.84273 0
M  V30 4925 H 478.467 1.76791 -3.78332 0
M  V30 4926 N 478.904 1.54736 -0.299062 0
M  V30 4927 C 479.867 2.22127 0.565012 0
M  V30 4928 C 480.867 1.20669 1.06281 0
M  V30 4929 O 482.057 1.45417 0.959145 0
M  V30 4930 C 479.189 2.90611 1.78208 0
M  V30 4931 H 480.382 2.99891 -0.0237448 0
M  V30 4932 H 477.935 1.5622 -0.0498788 0
M  V30 4933 H 478.67 2.16921 2.41072 0
M  V30 4934 H 478.455 3.64984 1.43281 0
M  V30 4935 H 479.945 3.42026 2.396 0
M  V30 4936 N 480.382 0.0267497 1.57577 0
M  V30 4937 C 481.798 -0.32962 1.56159 0
M  V30 4938 C 481.998 -1.73059 1.03213 0
M  V30 4939 O 481.054 -2.43233 0.677804 0
M  V30 4940 C 482.367 -0.18039 3.00158 0
M  V30 4941 C 483.915 -0.253334 3.11973 0
M  V30 4942 C 484.39 -0.132921 4.57807 0
M  V30 4943 N 485.881 -0.189979 4.6281 0
M  V30 4944 C 486.616 -0.120554 5.73273 0
M  V30 4945 N 486.112 -0.000180315 6.928 0
M  V30 4946 N 487.905 -0.174369 5.61829 0
M  V30 4947 H 480.056 0.942896 1.90324 0
M  V30 4948 H 482.319 0.3639 0.875375 0
M  V30 4949 H 482.025 0.784576 3.42837 0
M  V30 4950 H 481.899 -0.951565 3.65 0
M  V30 4951 H 484.286 -1.20876 2.69208 0
M  V30 4952 H 484.367 0.548177 2.49857 0
M  V30 4953 H 484.011 0.819073 5.01252 0
M  V30 4954 H 483.941 -0.953264 5.179 0
M  V30 4955 H 486.432 -0.283257 3.76837 0
M  V30 4956 H 486.745 0.0461666 7.72786 0
M  V30 4957 H 485.09 0.034569 6.94991 0
M  V30 4958 H 488.281 -0.266794 4.67339 0
M  V30 4959 H 488.454 -0.116802 6.47895 0
M  V30 4960 N 481.861 -1.55662 -0.24637 0
M  V30 4961 C 483.11 -1.7672 -0.972254 0
M  V30 4962 C 483.423 -0.59078 -1.86465 0
M  V30 4963 O 484.629 -0.684391 -2.62732 0
M  V30 4964 C 483.085 -3.12869 -1.7788 0
M  V30 4965 C 482.693 -4.38161 -0.933768 0
M  V30 4966 C 484.437 -3.43265 -2.49738 0
M  V30 4967 C 482.344 -5.6534 -1.73623 0
M  V30 4968 H 481.274 -0.658795 -0.366749 0
M  V30 4969 H 483.925 -1.82092 -0.226902 0
M  V30 4970 H 482.307 -3.01606 -2.56612 0
M  V30 4971 H 483.481 -4.60413 -0.188736 0
M  V30 4972 H 481.796 -4.15102 -0.328488 0
M  V30 4973 H 484.393 -4.35501 -3.10231 0
M  V30 4974 H 484.736 -2.64614 -3.2138 0
M  V30 4975 H 485.269 -3.55746 -1.78016 0
M  V30 4976 H 482.008 -6.46814 -1.06354 0
M  V30 4977 H 481.528 -5.47188 -2.45653 0
M  V30 4978 H 483.207 -6.04616 -2.30323 0
M  V30 4979 N 483.339 0.512053 -1.4905 0
M  V30 4980 C 484.249 1.64139 -1.67617 0
M  V30 4981 C 485.265 1.64786 -0.558701 0
M  V30 4982 O 486.441 1.8341 -0.832034 0
M  V30 4983 C 483.506 3.00548 -1.72835 0
M  V30 4984 C 482.567 3.10615 -2.96339 0
M  V30 4985 C 481.8 4.40517 -3.01298 0
M  V30 4986 O 482.023 5.28671 -2.14157 0
M  V30 4987 O 480.957 4.55325 -3.93653 0
M  V30 4988 H 484.783 1.51407 -2.63267 0
M  V30 4989 H 482.368 0.687131 -1.32661 0
M  V30 4990 H 484.25 3.81641 -1.78683 0
M  V30 4991 H 482.925 3.13566 -0.803616 0
M  V30 4992 H 481.832 2.2875 -2.96014 0
M  V30 4993 H 483.165 3.0252 -3.88256 0
M  V30 4994 N 484.817 1.37938 0.762283 0
M  V30 4995 C 485.78 1.34279 1.85747 0
M  V30 4996 C 486.78 0.244969 1.58923 0
M  V30 4997 O 487.97 0.501365 1.66829 0
M  V30 4998 C 485.102 1.08833 3.23061 0
M  V30 4999 H 486.295 2.31705 1.90401 0
M  V30 5000 H 483.848 1.23105 0.963057 0
M  V30 5001 H 484.583 0.119767 3.24079 0
M  V30 5002 H 484.368 1.88306 3.43923 0
M  V30 5003 H 485.858 1.08946 4.03138 0
M  V30 5004 N 486.295 -0.989507 1.22664 0
M  V30 5005 C 487.258 -2.06183 1.00106 0
M  V30 5006 C 488.258 -1.60765 -0.0337726 0
M  V30 5007 O 489.448 -1.72989 0.205072 0
M  V30 5008 C 486.58 -3.37021 0.51279 0
M  V30 5009 H 487.773 -2.27629 1.95256 0
M  V30 5010 H 485.326 -1.16158 1.0458 0
M  V30 5011 H 486.061 -3.21261 -0.442917 0
M  V30 5012 H 485.846 -3.71323 1.25942 0
M  V30 5013 H 487.336 -4.1591 0.375315 0
M  V30 5014 N 487.773 -1.03688 -1.18687 0
M  V30 5015 C 489.013 -0.746858 -1.90267 0
M  V30 5016 C 489.377 0.712075 -1.78307 0
M  V30 5017 O 490.578 1.11553 -2.44559 0
M  V30 5018 C 488.849 -1.19543 -3.36815 0
M  V30 5019 S 490.408 -1.03047 -4.26529 0
M  V30 5020 H 487.226 -0.271663 -0.657054 0
M  V30 5021 H 489.828 -1.32838 -1.43437 0
M  V30 5022 H 488.532 -2.2527 -3.43047 0
M  V30 5023 H 488.063 -0.607533 -3.88681 0
M  V30 5024 H 490.078 0.0543232 -4.9617 0
M  V30 5025 N 489.251 1.34841 -0.815825 0
M  V30 5026 C 490.498 1.98499 -0.400535 0
M  V30 5027 C 490.826 1.64699 1.03463 0
M  V30 5028 O 490.081 0.907006 1.73412 0
M  V30 5029 C 490.38 3.53273 -0.541541 0
M  V30 5030 C 490.046 4.06966 -1.94138 0
M  V30 5031 C 488.708 4.21341 -2.32433 0
M  V30 5032 C 491.06 4.35933 -2.85677 0
M  V30 5033 C 488.388 4.62007 -3.61617 0
M  V30 5034 C 490.74 4.78042 -4.14317 0
M  V30 5035 C 489.404 4.90622 -4.52599 0
M  V30 5036 H 488.674 0.72636 -0.146566 0
M  V30 5037 H 491.321 1.60902 -1.0384 0
M  V30 5038 H 489.626 3.91387 0.179741 0
M  V30 5039 H 491.323 4.00497 -0.20085 0
M  V30 5040 H 487.913 3.96235 -1.63388 0
M  V30 5041 H 492.097 4.24372 -2.57337 0
M  V30 5042 H 487.353 4.69937 -3.91113 0
M  V30 5043 H 491.527 4.99415 -4.85342 0
M  V30 5044 H 489.154 5.2189 -5.52752 0
M  V30 5045 N 490.729 0.570148 1.46925 0
M  V30 5046 C 491.692 -0.159933 2.28641 0
M  V30 5047 C 492.692 -0.830638 1.37685 0
M  V30 5048 O 493.882 -0.684516 1.60187 0
M  V30 5049 C 491.014 -1.2354 3.17727 0
M  V30 5050 H 492.207 0.558035 2.94662 0
M  V30 5051 H 489.76 0.327603 1.52828 0
M  V30 5052 H 490.495 -1.98535 2.56426 0
M  V30 5053 H 490.28 -0.759125 3.84681 0
M  V30 5054 H 491.77 -1.74782 3.79264 0
M  V30 5055 N 492.207 -1.54576 0.307264 0
M  V30 5056 C 493.435 -2.04675 -0.302597 0
M  V30 5057 C 493.85 -1.18425 -1.47041 0
M  V30 5058 O 493.207 -0.211257 -1.81273 0
M  V30 5059 C 493.258 -3.53575 -0.752801 0
M  V30 5060 O 492.979 -4.36547 0.368536 0
M  V30 5061 C 494.48 -4.19699 -1.42717 0
M  V30 5062 H 491.7 -0.66786 -0.0648374 0
M  V30 5063 H 494.244 -1.99516 0.448716 0
M  V30 5064 H 492.399 -3.59074 -1.45412 0
M  V30 5065 H 492.813 -5.24497 0.0168937 0
M  V30 5066 H 494.287 -5.25388 -1.69327 0
M  V30 5067 H 494.764 -3.69815 -2.36925 0
M  V30 5068 H 495.37 -4.18293 -0.768856 0
M  V30 5069 N 493.685 -0.035106 -1.57561 0
M  V30 5070 C 494.934 0.641604 -1.91223 0
M  V30 5071 C 495.247 1.72944 -0.913761 0
M  V30 5072 O 496.453 2.46321 -1.14185 0
M  V30 5073 C 494.909 1.19249 -3.3957 0
M  V30 5074 C 494.517 0.137616 -4.47789 0
M  V30 5075 C 496.261 1.84537 -3.82291 0
M  V30 5076 C 494.168 0.700478 -5.87237 0
M  V30 5077 H 493.098 0.243417 -0.713627 0
M  V30 5078 H 495.749 -0.101382 -1.8322 0
M  V30 5079 H 494.131 1.98728 -3.42525 0
M  V30 5080 H 495.305 -0.635153 -4.56402 0
M  V30 5081 H 493.62 -0.416855 -4.14308 0
M  V30 5082 H 496.217 2.27616 -4.83834 0
M  V30 5083 H 496.56 2.69054 -3.17672 0
M  V30 5084 H 497.093 1.11739 -3.81784 0
M  V30 5085 H 493.832 -0.106693 -6.55413 0
M  V30 5086 H 493.352 1.4416 -5.82218 0
M  V30 5087 H 495.031 1.18837 -6.35993 0
M  V30 5088 N 495.163 1.55791 0.238111 0
M  V30 5089 C 496.11 1.9105 1.29493 0
M  V30 5090 C 497.08 0.765733 1.47397 0
M  V30 5091 O 498.265 1.02017 1.61236 0
M  V30 5092 C 495.405 2.21826 2.64362 0
M  V30 5093 C 494.518 3.49153 2.54394 0
M  V30 5094 C 493.653 3.69455 3.81676 0
M  V30 5095 C 492.692 4.90353 3.66361 0
M  V30 5096 N 491.829 5.07131 4.85554 0
M  V30 5097 H 496.669 2.81172 0.987233 0
M  V30 5098 H 494.206 1.39179 0.476203 0
M  V30 5099 H 496.164 2.37675 3.4288 0
M  V30 5100 H 494.794 1.34897 2.93262 0
M  V30 5101 H 493.846 3.41587 1.67399 0
M  V30 5102 H 495.158 4.37818 2.38991 0
M  V30 5103 H 494.312 3.85311 4.68636 0
M  V30 5104 H 493.051 2.7904 3.99985 0
M  V30 5105 H 492.056 4.74464 2.77784 0
M  V30 5106 H 493.281 5.82237 3.49538 0
M  V30 5107 H 491.227 4.19654 5.04209 0
M  V30 5108 H 491.144 5.89899 4.72816 0
M  V30 5109 H 492.412 5.27407 5.73988 0
M  V30 5110 N 496.642 -0.504142 1.49319 0
M  V30 5111 C 497.919 -1.26548 1.49147 0
M  V30 5112 C 498.299 -2.09977 0.21744 0
M  V30 5113 O 497.647 -2.14028 -0.800269 0
M  V30 5114 C 497.857 -2.12489 2.76857 0
M  V30 5115 C 499.205 -2.7178 3.26222 0
M  V30 5116 O 500.229 -2.22758 2.77952 0
M  V30 5117 O 499.088 -3.61015 4.10281 0
M  V30 5118 H 496.182 -0.572495 0.596806 0
M  V30 5119 H 498.728 -0.51867 1.61579 0
M  V30 5120 H 497.5 -1.50796 3.61077 0
M  V30 5121 H 497.123 -2.94368 2.6727 0
M  V30 5122 N 498.12 -1.38341 -0.754957 0
M  V30 5123 C 499.368 -1.34208 -1.51105 0
M  V30 5124 C 499.689 0.0677634 -1.94882 0
M  V30 5125 O 498.959 1.01517 -1.67544 0
M  V30 5126 H 497.539 -0.493819 -0.560493 0
M  V30 5127 H 500.201 -1.73005 -0.897507 0
M  V30 5128 H 499.297 -1.99203 -2.4026 0
M  V30 5129 N 499.598 0.982988 -1.23187 0
M  V30 5130 C 500.545 2.07491 -1.01075 0
M  V30 5131 C 501.515 1.65949 0.070905 0
M  V30 5132 O 502.7 1.90629 -0.0806822 0
M  V30 5133 C 499.84 3.39751 -0.605261 0
M  V30 5134 C 498.953 3.94578 -1.75876 0
M  V30 5135 C 498.088 5.15039 -1.3003 0
M  V30 5136 C 497.127 5.62027 -2.42472 0
M  V30 5137 N 496.264 6.73719 -1.97602 0
M  V30 5138 H 501.104 2.25739 -1.9454 0
M  V30 5139 H 498.641 1.10659 -0.969179 0
M  V30 5140 H 500.599 4.15719 -0.351279 0
M  V30 5141 H 499.229 3.21473 0.292382 0
M  V30 5142 H 498.281 3.1539 -2.12681 0
M  V30 5143 H 499.593 4.25422 -2.60418 0
M  V30 5144 H 498.747 5.9833 -1.00429 0
M  V30 5145 H 497.486 4.85843 -0.425216 0
M  V30 5146 H 496.491 4.77318 -2.7285 0
M  V30 5147 H 497.716 5.93244 -3.30512 0
M  V30 5148 H 495.662 6.46287 -1.1247 0
M  V30 5149 H 495.579 7.03934 -2.75705 0
M  V30 5150 H 496.847 7.6049 -1.71098 0
M  V30 5151 N 501.076 1.04316 1.18135 0
M  V30 5152 C 502.301 0.768047 1.92655 0
M  V30 5153 C 502.726 -0.66904 1.758 0
M  V30 5154 O 502.084 -1.46372 1.06981 0
M  V30 5155 C 502.132 1.14239 3.42026 0
M  V30 5156 O 501.236 0.269333 4.1152 0
M  V30 5157 H 500.577 0.282436 0.600937 0
M  V30 5158 H 503.107 1.39367 1.49793 0
M  V30 5159 H 503.117 1.10538 3.92741 0
M  V30 5160 H 501.792 2.18928 3.53615 0
M  V30 5161 H 500.369 0.366175 3.71098 0
M  V30 5162 N 502.554 -1.34406 0.822964 0
M  V30 5163 C 503.484 -2.32052 0.259608 0
M  V30 5164 C 504.465 -1.58243 -0.623961 0
M  V30 5165 O 505.65 -1.86224 -0.55083 0
M  V30 5166 C 502.78 -3.42434 -0.579314 0
M  V30 5167 C 501.734 -4.27499 0.20712 0
M  V30 5168 C 501.06 -5.29349 -0.754547 0
M  V30 5169 C 502.36 -5.02758 1.41533 0
M  V30 5170 H 504.054 -2.79418 1.07545 0
M  V30 5171 H 501.6 -1.34338 0.518593 0
M  V30 5172 H 503.553 -4.0976 -0.983612 0
M  V30 5173 H 502.277 -2.93717 -1.4282 0
M  V30 5174 H 500.936 -3.61776 0.592787 0
M  V30 5175 H 500.584 -4.76895 -1.59939 0
M  V30 5176 H 500.284 -5.8714 -0.232561 0
M  V30 5177 H 501.808 -5.99544 -1.1567 0
M  V30 5178 H 503.222 -5.62938 1.08504 0
M  V30 5179 H 501.619 -5.70123 1.87296 0
M  V30 5180 H 502.689 -4.32451 2.1935 0
M  V30 5181 N 504.032 -0.577932 -1.46621 0
M  V30 5182 C 505.26 -0.0671642 -2.06791 0
M  V30 5183 C 505.675 1.23571 -1.42743 0
M  V30 5184 O 505.032 1.74602 -0.531062 0
M  V30 5185 C 505.083 0.110357 -3.61332 0
M  V30 5186 O 504.804 -1.14095 -4.22982 0
M  V30 5187 C 506.305 0.656025 -4.38419 0
M  V30 5188 H 503.525 -0.0552732 -0.66872 0
M  V30 5189 H 506.069 -0.797242 -1.8832 0
M  V30 5190 H 504.224 0.790637 -3.79246 0
M  V30 5191 H 504.638 -0.951742 -5.15793 0
M  V30 5192 H 506.112 0.729438 -5.47159 0
M  V30 5193 H 506.589 1.67195 -4.06131 0
M  V30 5194 H 507.195 0.0107692 -4.25299 0
M  V30 5195 N 505.51 1.54411 -0.315457 0
M  V30 5196 C 506.457 2.24048 0.554166 0
M  V30 5197 C 507.427 1.2283 1.11812 0
M  V30 5198 O 508.612 1.51491 1.15997 0
M  V30 5199 C 505.752 2.99574 1.71316 0
M  V30 5200 C 504.865 4.15594 1.17922 0
M  V30 5201 C 504 4.78669 2.30324 0
M  V30 5202 C 503.039 5.86807 1.74137 0
M  V30 5203 N 502.176 6.43777 2.8017 0
M  V30 5204 H 507.016 2.97964 -0.0462602 0
M  V30 5205 H 504.553 1.47059 -0.0346009 0
M  V30 5206 H 506.511 3.41604 2.39505 0
M  V30 5207 H 505.141 2.28008 2.285 0
M  V30 5208 H 504.193 3.78404 0.389136 0
M  V30 5209 H 505.505 4.93459 0.728012 0
M  V30 5210 H 504.659 5.23626 3.06433 0
M  V30 5211 H 503.398 4.00168 2.78778 0
M  V30 5212 H 502.403 5.41261 0.965236 0
M  V30 5213 H 503.628 6.67201 1.2657 0
M  V30 5214 H 501.574 5.68153 3.2793 0
M  V30 5215 H 501.491 7.17031 2.39588 0
M  V30 5216 H 502.759 6.9339 3.56132 0
M  V30 5217 N 506.988 0.0434614 1.5754 0
M  V30 5218 C 508.265 -0.671479 1.83713 0
M  V30 5219 C 508.645 -1.89495 0.930315 0
M  V30 5220 O 507.993 -2.28498 -0.0105639 0
M  V30 5221 C 508.203 -1.0361 3.33266 0
M  V30 5222 C 509.551 -1.42167 4.00092 0
M  V30 5223 O 510.575 -1.12866 3.37846 0
M  V30 5224 O 509.434 -1.96817 5.09829 0
M  V30 5225 H 506.528 -0.330726 0.75799 0
M  V30 5226 H 509.074 0.0722373 1.69546 0
M  V30 5227 H 507.846 -0.165938 3.90948 0
M  V30 5228 H 507.469 -1.83751 3.52592 0
M  V30 5229 N 508.466 -1.55915 -0.229846 0
M  V30 5230 C 509.396 -1.94754 -1.28815 0
M  V30 5231 C 510.377 -0.814657 -1.49323 0
M  V30 5232 O 511.562 -1.07631 -1.61645 0
M  V30 5233 C 508.692 -2.25705 -2.63959 0
M  V30 5234 C 507.646 -3.41406 -2.5812 0
M  V30 5235 C 506.972 -3.57941 -3.97218 0
M  V30 5236 C 508.272 -4.76616 -2.13623 0
M  V30 5237 H 509.966 -2.83404 -0.965547 0
M  V30 5238 H 507.512 -1.36353 -0.463028 0
M  V30 5239 H 509.465 -2.51467 -3.38146 0
M  V30 5240 H 508.189 -1.339 -2.9789 0
M  V30 5241 H 506.848 -3.1568 -1.86391 0
M  V30 5242 H 506.496 -2.63526 -4.28443 0
M  V30 5243 H 506.196 -4.35757 -3.94195 0
M  V30 5244 H 507.72 -3.86042 -4.73079 0
M  V30 5245 H 509.134 -5.01637 -2.77549 0
M  V30 5246 H 507.531 -5.57655 -2.21677 0
M  V30 5247 H 508.601 -4.7253 -1.08829 0
M  V30 5248 N 509.944 0.496216 -1.49584 0
M  V30 5249 C 511.192 1.24756 -1.58998 0
M  V30 5250 C 511.513 1.92968 -0.280775 0
M  V30 5251 O 510.783 1.82959 0.700198 0
M  V30 5252 H 509.363 0.463471 -0.585836 0
M  V30 5253 H 512.025 0.574678 -1.86235 0
M  V30 5254 H 511.121 2.00895 -2.38847 0
M  V30 5255 N 511.423 1.38739 0.74761 0
M  V30 5256 C 512.671 1.35007 1.50391 0
M  V30 5257 C 512.992 -0.0574274 1.94915 0
M  V30 5258 O 512.262 -1.00628 1.6808 0
M  V30 5259 H 510.842 0.496784 0.557866 0
M  V30 5260 H 513.504 1.73479 0.888319 0
M  V30 5261 H 512.6 2.00474 2.392 0
M  V30 5262 N 512.901 -0.976442 1.23707 0
M  V30 5263 C 513.849 -2.09078 1.01927 0
M  V30 5264 C 514.843 -1.69345 -0.0430193 0
M  V30 5265 O 516.049 -1.79659 0.110814 0
M  V30 5266 H 512.424 -0.68398 0.312531 0
M  V30 5267 H 514.395 -2.24614 1.96447 0
M  V30 5268 C 513.144 -3.41919 0.631385 0
M  V30 5269 H 512.467 -3.72946 1.44053 0
M  V30 5270 H 513.907 -4.20817 0.518532 0
M  V30 5271 C 512.366 -3.30357 -0.660723 0
M  V30 5272 O 512.896 -3.63542 -1.70881 0
M  V30 5273 N 511.102 -2.83507 -0.638139 0
M  V30 5274 H 510.649 -2.567 0.215108 0
M  V30 5275 H 510.607 -2.76153 -1.50289 0
M  V30 5276 N 514.379 -1.04941 -1.1758 0
M  V30 5277 C 515.342 -0.652456 -2.19717 0
M  V30 5278 C 516.342 0.294745 -1.58076 0
M  V30 5279 O 517.532 0.0789579 -1.74021 0
M  V30 5280 C 514.664 0.0420712 -3.40874 0
M  V30 5281 H 515.857 -1.55642 -2.5635 0
M  V30 5282 H 513.41 -0.842995 -1.31618 0
M  V30 5283 H 514.145 0.95943 -3.09783 0
M  V30 5284 H 513.93 -0.638844 -3.86861 0
M  V30 5285 H 515.42 0.306 -4.16477 0
M  V30 5286 N 515.857 1.33968 -0.830081 0
M  V30 5287 C 516.804 2.29387 -0.255008 0
M  V30 5288 C 517.774 1.53923 0.624243 0
M  V30 5289 O 518.959 1.82262 0.564372 0
M  V30 5290 C 516.099 3.4034 0.571209 0
M  V30 5291 C 515.212 4.30729 -0.331083 0
M  V30 5292 C 514.347 5.2879 0.505389 0
M  V30 5293 C 513.386 6.10819 -0.395843 0
M  V30 5294 N 512.523 7.00948 0.401979 0
M  V30 5295 H 517.363 2.77972 -1.07404 0
M  V30 5296 H 514.9 1.36785 -0.541133 0
M  V30 5297 H 516.858 4.03361 1.06562 0
M  V30 5298 H 515.488 2.9297 1.35529 0
M  V30 5299 H 514.54 3.68507 -0.943759 0
M  V30 5300 H 515.852 4.88181 -1.02377 0
M  V30 5301 H 515.006 5.97297 1.06399 0
M  V30 5302 H 513.745 4.71894 1.23155 0
M  V30 5303 H 512.75 5.41238 -0.966529 0
M  V30 5304 H 513.975 6.69797 -1.12023 0
M  V30 5305 H 511.921 6.46512 1.11168 0
M  V30 5306 H 511.838 7.55643 -0.232167 0
M  V30 5307 H 513.106 7.73774 0.943102 0
M  V30 5308 N 517.335 0.585699 1.46312 0
M  V30 5309 C 518.575 0.0751432 2.04262 0
M  V30 5310 C 518.939 -1.26201 1.44697 0
M  V30 5311 O 520.14 -1.86198 1.93865 0
M  V30 5312 C 518.411 0.013478 3.57397 0
M  V30 5313 S 519.97 -0.439068 4.36598 0
M  V30 5314 H 516.788 0.0389228 0.709934 0
M  V30 5315 H 519.39 0.778871 1.79315 0
M  V30 5316 H 518.094 0.990558 3.98266 0
M  V30 5317 H 517.625 -0.712927 3.86886 0
M  V30 5318 H 519.64 -1.6932 4.66417 0
M  V30 5319 N 518.813 -1.54241 0.323641 0
M  V30 5320 C 520.038 -2.05452 -0.283605 0
M  V30 5321 C 520.463 -1.19823 -1.44997 0
M  V30 5322 O 519.821 -0.207358 -1.8011 0
M  V30 5323 C 519.869 -3.53823 -0.695795 0
M  V30 5324 O 518.973 -3.71134 -1.79815 0
M  V30 5325 H 518.314 -0.662024 -0.0511917 0
M  V30 5326 H 520.844 -1.99079 0.472073 0
M  V30 5327 H 520.854 -3.96094 -0.978434 0
M  V30 5328 H 519.529 -4.15602 0.157287 0
M  V30 5329 H 518.106 -3.40768 -1.51431 0
M  V30 5330 N 520.291 -0.0518155 -1.57515 0
M  V30 5331 C 521.568 0.661727 -1.84067 0
M  V30 5332 C 521.948 1.88999 -0.940351 0
M  V30 5333 O 521.296 2.285 -0.00155404 0
M  V30 5334 C 521.506 1.01841 -3.3381 0
M  V30 5335 C 522.854 1.40043 -4.00841 0
M  V30 5336 O 523.878 1.11073 -3.38439 0
M  V30 5337 O 522.737 1.94111 -5.10865 0
M  V30 5338 H 519.831 0.326702 -0.759733 0
M  V30 5339 H 522.377 -0.0812277 -1.69505 0
M  V30 5340 H 521.149 0.145202 -3.91031 0
M  V30 5341 H 520.772 1.81879 -3.53562 0
M  V30 5342 N 521.769 1.56035 0.221574 0
M  V30 5343 C 523.016 1.79047 0.94597 0
M  V30 5344 C 523.344 0.62057 1.84334 0
M  V30 5345 O 522.599 -0.395053 1.91671 0
M  V30 5346 C 522.898 3.07813 1.8162 0
M  V30 5347 C 522.564 4.3797 1.07206 0
M  V30 5348 C 521.226 4.73334 0.866508 0
M  V30 5349 C 523.578 5.18326 0.546565 0
M  V30 5350 C 520.906 5.8657 0.123549 0
M  V30 5351 C 523.258 6.32335 -0.18305 0
M  V30 5352 C 521.922 6.66301 -0.399861 0
M  V30 5353 H 521.192 0.655178 0.346155 0
M  V30 5354 H 523.839 1.90299 0.214146 0
M  V30 5355 H 522.144 2.91682 2.61589 0
M  V30 5356 H 523.841 3.2282 2.37884 0
M  V30 5357 H 520.431 4.10202 1.24226 0
M  V30 5358 H 524.615 4.9144 0.692847 0
M  V30 5359 H 519.871 6.11376 -0.0546591 0
M  V30 5360 H 524.045 6.9383 -0.59775 0
M  V30 5361 H 521.672 7.53889 -0.977489 0
M  V30 5362 N 523.247 -0.488276 1.49845 0
M  V30 5363 C 524.475 -1.26527 1.63702 0
M  V30 5364 C 524.89 -1.8618 0.313447 0
M  V30 5365 O 524.247 -1.68432 -0.702624 0
M  V30 5366 C 524.298 -2.3864 2.71538 0
M  V30 5367 O 524.019 -1.81437 3.98763 0
M  V30 5368 C 525.52 -3.29805 2.96215 0
M  V30 5369 H 522.74 -0.383295 0.55075 0
M  V30 5370 H 525.284 -0.584779 1.95961 0
M  V30 5371 H 523.439 -3.02496 2.42023 0
M  V30 5372 H 523.853 -2.55135 4.58265 0
M  V30 5373 H 525.327 -4.04722 3.75372 0
M  V30 5374 H 525.804 -3.87563 2.06619 0
M  V30 5375 H 526.41 -2.71703 3.27196 0
M  V30 5376 N 524.725 -1.39134 -0.740242 0
M  V30 5377 C 525.635 -1.39697 -1.88473 0
M  V30 5378 C 526.651 -0.292403 -1.71526 0
M  V30 5379 O 527.827 -0.533021 -1.94219 0
M  V30 5380 C 524.892 -1.23382 -3.24003 0
M  V30 5381 C 523.953 -2.43763 -3.53381 0
M  V30 5382 C 523.186 -2.28216 -4.82445 0
M  V30 5383 O 523.409 -1.28288 -5.55786 0
M  V30 5384 O 522.343 -3.1709 -5.11603 0
M  V30 5385 H 526.169 -2.36159 -1.90952 0
M  V30 5386 H 523.754 -1.20194 -0.887346 0
M  V30 5387 H 525.636 -1.16395 -4.05006 0
M  V30 5388 H 524.311 -0.300121 -3.22306 0
M  V30 5389 H 523.218 -2.56325 -2.72485 0
M  V30 5390 H 524.551 -3.35808 -3.59852 0
M  V30 5391 N 526.204 0.969867 -1.24223 0
M  V30 5392 C 527.114 2.09806 -1.0497 0
M  V30 5393 C 528.13 1.73998 0.00886455 0
M  V30 5394 O 529.306 2.00513 -0.188848 0
M  V30 5395 C 526.371 3.40467 -0.654452 0
M  V30 5396 C 525.432 3.90236 -1.78926 0
M  V30 5397 C 524.665 5.14662 -1.41277 0
M  V30 5398 O 524.888 5.69602 -0.301632 0
M  V30 5399 O 523.822 5.58761 -2.23763 0
M  V30 5400 H 527.648 2.28942 -1.99548 0
M  V30 5401 H 525.233 1.08197 -1.03023 0
M  V30 5402 H 527.115 4.19039 -0.445452 0
M  V30 5403 H 525.79 3.22636 0.262216 0
M  V30 5404 H 524.697 3.12735 -2.05299 0
M  V30 5405 H 526.03 4.1254 -2.68462 0
M  V30 5406 N 527.682 1.05563 1.17022 0
M  V30 5407 C 528.931 0.763036 1.8671 0
M  V30 5408 C 529.244 -0.712857 1.82147 0
M  V30 5409 O 530.45 -1.11955 2.47343 0
M  V30 5410 C 528.906 1.31474 3.35026 0
M  V30 5411 C 528.514 2.82034 3.48081 0
M  V30 5412 C 530.258 1.09935 4.10018 0
M  V30 5413 C 528.165 3.30486 4.90442 0
M  V30 5414 H 527.095 0.281747 0.699382 0
M  V30 5415 H 529.746 1.2734 1.32124 0
M  V30 5416 H 528.128 0.732171 3.89173 0
M  V30 5417 H 529.302 3.46178 3.04133 0
M  V30 5418 H 527.617 3.02156 2.86515 0
M  V30 5419 H 530.214 1.43632 5.15048 0
M  V30 5420 H 530.557 0.0373072 4.16283 0
M  V30 5421 H 531.09 1.64732 3.62089 0
M  V30 5422 H 527.829 4.36137 4.89352 0
M  V30 5423 H 527.349 2.71086 5.35044 0
M  V30 5424 H 529.028 3.25382 5.59227 0
M  V30 5425 N 529.16 -1.33526 0.837174 0
M  V30 5426 C 530.4 -1.99649 0.438115 0
M  V30 5427 C 530.764 -1.64879 -0.983816 0
M  V30 5428 O 531.965 -2.23956 -1.48651 0
M  V30 5429 C 530.236 -3.51431 0.650461 0
M  V30 5430 S 531.795 -4.37431 0.346371 0
M  V30 5431 H 528.613 -0.69162 0.164872 0
M  V30 5432 H 531.215 -1.62556 1.08609 0
M  V30 5433 H 529.919 -3.74225 1.68475 0
M  V30 5434 H 529.45 -3.93398 -0.0117309 0
M  V30 5435 H 531.465 -4.89132 -0.834504 0
M  V30 5436 N 530.638 -0.59345 -1.46 0
M  V30 5437 C 532.054 -0.255965 -1.57534 0
M  V30 5438 C 532.254 1.24167 -1.58697 0
M  V30 5439 O 531.31 2.02398 -1.50968 0
M  V30 5440 C 532.623 -0.91466 -2.86451 0
M  V30 5441 C 534.171 -0.889253 -3.00102 0
M  V30 5442 C 534.646 -1.52769 -4.3177 0
M  V30 5443 N 536.137 -1.49253 -4.38495 0
M  V30 5444 C 536.872 -1.9558 -5.39014 0
M  V30 5445 N 536.368 -2.49929 -6.46148 0
M  V30 5446 N 538.161 -1.86432 -5.30282 0
M  V30 5447 H 530.312 -1.56604 -1.43489 0
M  V30 5448 H 532.575 -0.655207 -0.685133 0
M  V30 5449 H 532.281 -1.96861 -2.91442 0
M  V30 5450 H 532.155 -0.429356 -3.74748 0
M  V30 5451 H 534.542 0.156111 -2.94687 0
M  V30 5452 H 534.623 -1.41268 -2.13253 0
M  V30 5453 H 534.267 -2.57231 -4.37944 0
M  V30 5454 H 534.197 -0.979398 -5.17412 0
M  V30 5455 H 536.688 -1.09536 -3.61677 0
M  V30 5456 H 537.001 -2.83109 -7.19075 0
M  V30 5457 H 535.346 -2.53961 -6.46938 0
M  V30 5458 H 538.537 -1.43722 -4.4549 0
M  V30 5459 H 538.71 -2.22852 -6.08474 0
M  V30 5460 N 532.116 1.54067 -0.331816 0
M  V30 5461 C 533.532 1.59587 0.0205388 0
M  V30 5462 C 533.732 1.34813 1.49759 0
M  V30 5463 O 532.788 1.13661 2.25471 0
M  V30 5464 C 534.101 2.97959 -0.405103 0
M  V30 5465 C 535.649 3.10964 -0.356454 0
M  V30 5466 C 536.124 4.51694 -0.757384 0
M  V30 5467 N 537.615 4.57709 -0.71111 0
M  V30 5468 C 538.35 5.64729 -0.993427 0
M  V30 5469 N 537.846 6.79652 -1.3433 0
M  V30 5470 N 539.639 5.54546 -0.918442 0
M  V30 5471 H 531.79 1.68426 -1.29407 0
M  V30 5472 H 534.053 0.78819 -0.526745 0
M  V30 5473 H 533.759 3.21115 -1.43451 0
M  V30 5474 H 533.633 3.76524 0.225692 0
M  V30 5475 H 536.02 2.87538 0.663763 0
M  V30 5476 H 536.101 2.34484 -1.02229 0
M  V30 5477 H 535.745 4.75853 -1.77555 0
M  V30 5478 H 535.675 5.26555 -0.0691444 0
M  V30 5479 H 538.166 3.75176 -0.452883 0
M  V30 5480 H 538.479 7.57221 -1.54388 0
M  V30 5481 H 536.824 6.81128 -1.38164 0
M  V30 5482 H 540.015 4.63641 -0.644536 0
M  V30 5483 H 540.188 6.37861 -1.14181 0
M  V30 5484 N 533.594 0.0601682 1.57485 0
M  V30 5485 C 534.84 -0.612501 1.93329 0
M  V30 5486 C 535.173 -1.6996 0.939526 0
M  V30 5487 O 534.448 -1.94472 -0.0330957 0
M  V30 5488 C 534.731 -1.20025 3.39508 0
M  V30 5489 C 534.584 -0.12059 4.49638 0
M  V30 5490 C 535.903 -2.10923 3.86264 0
M  V30 5491 H 533.022 -0.221185 0.703027 0
M  V30 5492 H 535.664 0.123768 1.89596 0
M  V30 5493 H 533.814 -1.82774 3.42821 0
M  V30 5494 H 535.486 0.51185 4.58452 0
M  V30 5495 H 533.729 0.550251 4.30296 0
M  V30 5496 H 534.4 -0.572019 5.49028 0
M  V30 5497 H 536.876 -1.58124 3.84884 0
M  V30 5498 H 535.752 -2.48987 4.8918 0
M  V30 5499 H 536.013 -3.01292 3.23536 0
M  V30 5500 N 535.072 -1.5615 -0.213296 0
M  V30 5501 C 536.019 -1.93086 -1.26437 0
M  V30 5502 C 536.989 -0.789086 -1.4616 0
M  V30 5503 O 538.174 -1.04569 -1.59593 0
M  V30 5504 C 535.314 -2.26003 -2.608 0
M  V30 5505 C 534.427 -3.53156 -2.48807 0
M  V30 5506 C 533.562 -3.7548 -3.7575 0
M  V30 5507 C 532.601 -4.96119 -3.58514 0
M  V30 5508 N 531.738 -5.14791 -4.77425 0
M  V30 5509 H 536.578 -2.82707 -0.942376 0
M  V30 5510 H 534.115 -1.39919 -0.454001 0
M  V30 5511 H 536.073 -2.431 -3.39055 0
M  V30 5512 H 534.703 -1.39546 -2.91079 0
M  V30 5513 H 533.755 -3.44207 -1.61944 0
M  V30 5514 H 535.067 -4.41565 -2.31996 0
M  V30 5515 H 534.221 -3.92718 -4.62447 0
M  V30 5516 H 532.96 -2.85368 -3.95495 0
M  V30 5517 H 531.965 -4.78823 -2.70201 0
M  V30 5518 H 533.19 -5.87724 -3.40231 0
M  V30 5519 H 531.136 -4.27623 -4.97468 0
M  V30 5520 H 531.053 -5.97347 -4.63371 0
M  V30 5521 H 532.321 -5.36471 -5.65525 0
M  V30 5522 N 536.55 0.480323 -1.50102 0
M  V30 5523 C 537.827 1.24159 -1.51142 0
M  V30 5524 C 538.207 2.09605 -0.250818 0
M  V30 5525 O 537.555 2.15274 0.766118 0
M  V30 5526 C 537.765 2.08057 -2.80202 0
M  V30 5527 C 539.113 2.66556 -3.30504 0
M  V30 5528 O 540.137 2.18308 -2.81461 0
M  V30 5529 O 538.996 3.54442 -4.15973 0
M  V30 5530 H 536.09 0.562928 -0.605839 0
M  V30 5531 H 538.636 0.492899 -1.62384 0
M  V30 5532 H 537.408 1.45032 -3.6343 0
M  V30 5533 H 537.031 2.90079 -2.71919 0
M  V30 5534 N 538.028 1.39524 0.732853 0
M  V30 5535 C 538.958 1.41153 1.86005 0
M  V30 5536 C 539.939 0.274614 1.67869 0
M  V30 5537 O 541.124 0.480745 1.88155 0
M  V30 5538 C 538.254 1.25638 3.23778 0
M  V30 5539 C 537.208 2.36752 3.56556 0
M  V30 5540 C 536.534 2.06326 4.93289 0
M  V30 5541 C 537.834 3.79069 3.5931 0
M  V30 5542 H 539.528 2.35484 1.84899 0
M  V30 5543 H 537.074 1.13348 0.888162 0
M  V30 5544 H 539.027 1.25398 4.0231 0
M  V30 5545 H 537.751 0.277772 3.25417 0
M  V30 5546 H 536.41 2.36213 2.80355 0
M  V30 5547 H 536.058 1.06897 4.9151 0
M  V30 5548 H 535.758 2.80757 5.16187 0
M  V30 5549 H 537.282 2.07739 5.74175 0
M  V30 5550 H 538.696 3.81526 4.27914 0
M  V30 5551 H 537.093 4.52878 3.93728 0
M  V30 5552 H 538.163 4.09893 2.59068 0
M  V30 5553 N 539.506 -0.963266 1.24736 0
M  V30 5554 C 540.783 -1.68248 0.9976 0
M  V30 5555 C 541.163 -2.05599 -0.478776 0
M  V30 5556 O 540.511 -1.7626 -1.45412 0
M  V30 5557 C 540.721 -2.91118 1.92487 0
M  V30 5558 C 542.069 -3.63261 2.19833 0
M  V30 5559 O 543.093 -3.01184 1.90176 0
M  V30 5560 O 541.952 -4.75019 2.7022 0
M  V30 5561 H 539.046 -0.735744 0.377637 0
M  V30 5562 H 541.592 -1.01696 1.35853 0
M  V30 5563 H 540.364 -2.60242 2.92215 0
M  V30 5564 H 539.987 -3.65402 1.56738 0
M  V30 5565 O 541.023 -1.1863 -1.09586 0
M  V30 5566 H 541.714 -0.930355 -1.69894 0
M  V30 END ATOM
M  V30 BEGIN BOND
M  V30 END BOND
M  V30 END CTAB
M  END
$$$$
