drugbank_target|O14556 Glyceraldehyde-3-phosphate dehydrogenase, testis-specific (DB00157; DB01593; DB02205; DB03331; DB04477; DB11638; DB14487; DB14533; DB14548)
 OpenBabel12092119383D

  0  0  0     0  0            999 V3000
M  V30 BEGIN CTAB
M  V30 COUNTS 6273 6354 0 0 0
M  V30 BEGIN ATOM
M  V30 1 H -0.908 1.98254 -0.117106 0
M  V30 2 N 0 1.576 0 0
M  V30 3 C 0.933 2.03868 1.02534 0
M  V30 4 C 1.911 0.928543 1.3348 0
M  V30 5 O 3.095 1.19667 1.45644 0
M  V30 6 C 0.222 2.43627 2.35294 0
M  V30 7 C -0.732 3.65373 2.2001 0
M  V30 8 S 0.101 5.13292 1.52614 0
M  V30 9 C 1.257 5.56322 2.86805 0
M  V30 10 H 1.49 2.90518 0.631377 0
M  V30 11 H -0.977 1.52953 0.210867 0
M  V30 12 H 0.981 2.67203 3.11629 0
M  V30 13 H -0.358 1.57376 2.7183 0
M  V30 14 H -1.165 3.90944 3.18086 0
M  V30 15 H -1.563 3.418 1.51819 0
M  V30 16 H 0.729 5.58782 3.83104 0
M  V30 17 H 1.672 6.56266 2.65933 0
M  V30 18 H 2.08 4.83886 2.90714 0
M  V30 19 N 1.4781 -0.272755 1.55222 0
M  V30 20 C 2.7031 -1.02683 1.80197 0
M  V30 21 C 3.1281 -1.79142 0.573551 0
M  V30 22 O 2.4861 -1.74917 -0.476849 0
M  V30 23 C 2.5341 -1.9609 3.02624 0
M  V30 24 O 1.6381 -3.04863 2.77727 0
M  V30 25 H 0.9791 -0.293557 0.595584 0
M  V30 26 H 3.5091 -0.30159 2.02365 0
M  V30 27 H 3.5191 -2.38039 3.31363 0
M  V30 28 H 2.1941 -1.39851 3.91682 0
M  V30 29 H 0.7711 -2.67228 2.60084 0
M  V30 30 N 2.9562 -1.48159 -0.537278 0
M  V30 31 C 3.9032 -1.62138 -1.64256 0
M  V30 32 C 4.8732 -0.463668 -1.59497 0
M  V30 33 O 6.0582 -0.686241 -1.78032 0
M  V30 34 C 3.1982 -1.66028 -3.02537 0
M  V30 35 C 2.3112 -2.92855 -3.17585 0
M  V30 36 C 1.4462 -2.87952 -4.46382 0
M  V30 37 C 0.4852 -4.09516 -4.54932 0
M  V30 38 N -0.3778 -4.02733 -5.75109 0
M  V30 39 H 4.4622 -2.56529 -1.51647 0
M  V30 40 H 1.9992 -1.27224 -0.738414 0
M  V30 41 H 3.9572 -1.66265 -3.82638 0
M  V30 42 H 2.5872 -0.751331 -3.13934 0
M  V30 43 H 1.6392 -3.02395 -2.30784 0
M  V30 44 H 2.9512 -3.82822 -3.19764 0
M  V30 45 H 2.1052 -2.8655 -5.34765 0
M  V30 46 H 0.8442 -1.95702 -4.46712 0
M  V30 47 H -0.1508 -4.11201 -3.64957 0
M  V30 48 H 1.0742 -5.02917 -4.56346 0
M  V30 49 H -0.9798 -3.13299 -5.76351 0
M  V30 50 H -1.0628 -4.86397 -5.78752 0
M  V30 51 H 0.2052 -4.05379 -6.65799 0
M  V30 52 N 4.4343 0.785586 -1.36625 0
M  V30 53 C 5.8503 1.08419 -1.17122 0
M  V30 54 C 6.0503 2.015 0.00208491 0
M  V30 55 O 5.1063 2.43551 0.666278 0
M  V30 56 C 6.4193 1.69498 -2.48377 0
M  V30 57 C 7.9673 1.81821 -2.54775 0
M  V30 58 C 8.4423 2.46315 -3.86126 0
M  V30 59 N 9.9333 2.53779 -3.87492 0
M  V30 60 C 10.6683 3.045 -4.85868 0
M  V30 61 N 10.1643 3.55499 -5.94637 0
M  V30 62 N 11.9573 3.03247 -4.73284 0
M  V30 63 H 4.1083 0.167264 -2.1174 0
M  V30 64 H 6.3713 0.13682 -0.938075 0
M  V30 65 H 6.0773 1.08571 -3.34522 0
M  V30 66 H 5.9513 2.6896 -2.64462 0
M  V30 67 H 8.3383 2.41884 -1.69045 0
M  V30 68 H 8.4193 0.811532 -2.42586 0
M  V30 69 H 8.0633 1.86895 -4.72263 0
M  V30 70 H 7.9933 3.47561 -3.95612 0
M  V30 71 H 10.4843 2.17672 -3.08913 0
M  V30 72 H 10.7973 3.92562 -6.65669 0
M  V30 73 H 9.1423 3.5364 -5.98301 0
M  V30 74 H 12.3333 2.62696 -3.87438 0
M  V30 75 H 12.5063 3.42467 -5.50109 0
M  V30 76 N 5.9124 1.20967 1.01018 0
M  V30 77 C 7.1894 0.93264 1.71934 0
M  V30 78 C 7.5694 -0.55692 2.03621 0
M  V30 79 O 6.9174 -1.52035 1.7058 0
M  V30 80 C 7.1274 1.81233 2.98254 0
M  V30 81 C 8.4754 2.05804 3.71389 0
M  V30 82 O 9.4994 1.78539 3.08225 0
M  V30 83 O 8.3584 2.51888 4.84989 0
M  V30 84 H 5.4524 0.349272 0.749625 0
M  V30 85 H 7.9984 1.31871 1.06808 0
M  V30 86 H 6.7704 2.82067 2.71208 0
M  V30 87 H 6.3934 1.42674 3.7112 0
M  V30 88 N 7.3905 -1.2043 1.01659 0
M  V30 89 C 8.6395 -1.89118 0.701237 0
M  V30 90 C 8.9525 -1.79705 -0.772358 0
M  V30 91 O 10.1585 -2.43528 -1.20026 0
M  V30 92 C 8.6145 -3.39168 1.20388 0
M  V30 93 C 8.2225 -3.57166 2.70438 0
M  V30 94 C 9.9665 -4.1341 0.963953 0
M  V30 95 C 7.8735 -5.01042 3.14183 0
M  V30 96 H 6.8035 -0.708267 0.2586 0
M  V30 97 H 9.4545 -1.36239 1.22927 0
M  V30 98 H 7.8365 -3.91369 0.603824 0
M  V30 99 H 9.0105 -3.15351 3.35992 0
M  V30 100 H 7.3255 -2.96294 2.92572 0
M  V30 101 H 9.9225 -5.19491 1.26621 0
M  V30 102 H 10.2655 -4.16181 -0.099578 0
M  V30 103 H 10.7985 -3.67309 1.52738 0
M  V30 104 H 7.5375 -5.03426 4.19812 0
M  V30 105 H 7.0575 -5.43668 2.53348 0
M  V30 106 H 8.7365 -5.69623 3.0682 0
M  V30 107 N 8.8686 -0.792821 -1.36206 0
M  V30 108 C 10.1146 -0.36733 -1.99446 0
M  V30 109 C 10.4476 1.05917 -1.62774 0
M  V30 110 O 9.7226 1.7324 -0.88421 0
M  V30 111 C 10.0056 -0.535044 -3.56103 0
M  V30 112 C 9.8586 -2.00548 -4.02617 0
M  V30 113 C 11.1776 0.0478191 -4.40074 0
M  V30 114 H 8.2966 -0.134941 -0.724541 0
M  V30 115 H 10.9386 -0.999794 -1.61568 0
M  V30 116 H 9.0886 0.00336329 -3.885 0
M  V30 117 H 10.7606 -2.60521 -3.80692 0
M  V30 118 H 9.0036 -2.50686 -3.54032 0
M  V30 119 H 9.6746 -2.07377 -5.11565 0
M  V30 120 H 12.1506 -0.411822 -4.14057 0
M  V30 121 H 11.0266 -0.0995336 -5.4881 0
M  V30 122 H 11.2876 1.14025 -4.27142 0
M  V30 123 N 10.3467 1.47872 -0.545128 0
M  V30 124 C 11.2767 2.32661 0.197793 0
M  V30 125 C 12.2577 1.43041 0.920504 0
M  V30 126 O 13.4427 1.71912 0.90333 0
M  V30 127 C 10.5727 3.24569 1.23582 0
M  V30 128 C 9.5267 4.23333 0.630323 0
M  V30 129 C 8.8527 5.0448 1.77211 0
M  V30 130 C 10.1527 5.20704 -0.407974 0
M  V30 131 H 11.8467 2.95024 -0.510045 0
M  V30 132 H 9.3927 1.4187 -0.246731 0
M  V30 133 H 11.3457 3.8272 1.76362 0
M  V30 134 H 10.0697 2.60236 1.97344 0
M  V30 135 H 8.7287 3.6639 0.123922 0
M  V30 136 H 8.3767 4.36561 2.49847 0
M  V30 137 H 8.0767 5.71339 1.37281 0
M  V30 138 H 9.6007 5.65487 2.3034 0
M  V30 139 H 11.0147 5.7329 0.033305 0
M  V30 140 H 9.4117 5.95699 -0.725486 0
M  V30 141 H 10.4817 4.66917 -1.30828 0
M  V30 142 N 11.8248 0.280983 1.55075 0
M  V30 143 C 13.0528 -0.337293 2.04132 0
M  V30 144 C 13.4678 -1.4903 1.15912 0
M  V30 145 O 12.8248 -1.81606 0.180459 0
M  V30 146 C 12.8758 -0.812706 3.52246 0
M  V30 147 O 12.5968 0.294387 4.3711 0
M  V30 148 C 14.0978 -1.4982 4.17216 0
M  V30 149 H 11.3178 -0.0761638 0.666663 0
M  V30 150 H 13.8618 0.414787 2.00249 0
M  V30 151 H 12.0168 -1.51486 3.56554 0
M  V30 152 H 12.4308 -0.0721325 5.2445 0
M  V30 153 H 13.9048 -1.7822 5.22438 0
M  V30 154 H 14.3818 -2.43168 3.65741 0
M  V30 155 H 14.9878 -0.839742 4.16927 0
M  V30 156 N 13.3029 -1.57598 0.00835791 0
M  V30 157 C 14.2509 -2.10078 -0.998508 0
M  V30 158 C 15.2449 -1.02262 -1.35051 0
M  V30 159 O 16.4509 -1.20719 -1.33518 0
M  V30 160 H 12.8259 -0.670903 -0.339696 0
M  V30 161 H 14.7969 -2.93648 -0.530398 0
M  V30 162 C 13.5459 -2.62615 -2.27879 0
M  V30 163 H 12.8689 -3.45213 -2.01662 0
M  V30 164 H 14.3089 -3.03004 -2.96588 0
M  V30 165 C 12.7679 -1.54407 -2.99433 0
M  V30 166 O 13.2979 -0.931812 -3.90743 0
M  V30 167 N 11.5039 -1.2695 -2.61404 0
M  V30 168 H 11.0509 -1.76924 -1.87232 0
M  V30 169 H 11.0089 -0.547704 -3.09593 0
M  V30 170 N 14.781 0.264519 -1.55364 0
M  V30 171 C 16.027 0.99646 -1.76631 0
M  V30 172 C 16.36 1.85632 -0.570478 0
M  V30 173 O 15.635 1.89647 0.43175 0
M  V30 174 C 15.918 1.87187 -3.07625 0
M  V30 175 C 15.771 1.04138 -4.37579 0
M  V30 176 C 17.09 2.85749 -3.34717 0
M  V30 177 H 14.209 0.360841 -0.642622 0
M  V30 178 H 16.851 0.268218 -1.88097 0
M  V30 179 H 15.001 2.49279 -2.9798 0
M  V30 180 H 16.673 0.440517 -4.59192 0
M  V30 181 H 14.916 0.345115 -4.32425 0
M  V30 182 H 15.587 1.68729 -5.2558 0
M  V30 183 H 18.063 2.33793 -3.4421 0
M  V30 184 H 16.939 3.44136 -4.27623 0
M  V30 185 H 17.2 3.61311 -2.54768 0
M  V30 186 N 16.2591 1.48442 0.529413 0
M  V30 187 C 17.4871 1.60151 1.30994 0
M  V30 188 C 17.9021 0.261985 1.86973 0
M  V30 189 O 17.2591 -0.748805 1.66431 0
M  V30 190 C 17.3101 2.64854 2.46038 0
M  V30 191 O 17.0311 3.93608 1.92365 0
M  V30 192 C 18.5321 2.87007 3.37849 0
M  V30 193 H 15.7521 0.539971 0.398338 0
M  V30 194 H 18.2961 1.94273 0.638597 0
M  V30 195 H 16.4511 2.33589 3.09055 0
M  V30 196 H 16.8651 4.51055 2.67675 0
M  V30 197 H 18.3391 3.64068 4.14919 0
M  V30 198 H 18.8161 1.95852 3.93114 0
M  V30 199 H 19.4221 3.19579 2.80623 0
M  V30 200 N 17.7372 -0.778329 1.37039 0
M  V30 201 C 18.9832 -1.53892 1.32079 0
M  V30 202 C 19.3162 -1.9396 -0.0965386 0
M  V30 203 O 18.5912 -1.63568 -1.05242 0
M  V30 204 C 18.8742 -2.80847 2.25382 0
M  V30 205 C 18.7272 -2.47076 3.75864 0
M  V30 206 C 20.0462 -3.82741 2.1725 0
M  V30 207 H 17.1652 -0.558303 0.48111 0
M  V30 208 H 19.8072 -0.893397 1.67685 0
M  V30 209 H 17.9572 -3.35931 1.95148 0
M  V30 210 H 19.6292 -1.97957 4.16666 0
M  V30 211 H 17.8722 -1.79863 3.94755 0
M  V30 212 H 18.5432 -3.37798 4.36574 0
M  V30 213 H 21.0192 -3.37133 2.43887 0
M  V30 214 H 19.8952 -4.69303 2.84686 0
M  V30 215 H 20.1562 -4.2652 1.16331 0
M  V30 216 N 19.2153 -1.21501 -1.00376 0
M  V30 217 C 20.4613 -1.03452 -1.74429 0
M  V30 218 C 20.7943 0.430764 -1.89362 0
M  V30 219 O 20.0693 1.31962 -1.42886 0
M  V30 220 C 20.3523 -1.73375 -3.15615 0
M  V30 221 C 20.2053 -3.27431 -3.08397 0
M  V30 222 C 21.5243 -1.47732 -4.14564 0
M  V30 223 H 18.6433 -0.377226 -0.633143 0
M  V30 224 H 21.2853 -1.49693 -1.17013 0
M  V30 225 H 19.4353 -1.34064 -3.64636 0
M  V30 226 H 21.1073 -3.76119 -2.67081 0
M  V30 227 H 19.3503 -3.5767 -2.45468 0
M  V30 228 H 20.0213 -3.71524 -4.08258 0
M  V30 229 H 22.4973 -1.8186 -3.74254 0
M  V30 230 H 21.3733 -1.99169 -5.11491 0
M  V30 231 H 21.6343 -0.407589 -4.40217 0
M  V30 232 N 20.6934 1.19889 -1.02296 0
M  V30 233 C 21.6254 2.22334 -0.556787 0
M  V30 234 C 22.6384 1.58674 0.364199 0
M  V30 235 O 23.8274 1.77768 0.161533 0
M  V30 236 C 20.9274 3.38257 0.208694 0
M  V30 237 C 20.1004 4.31504 -0.71577 0
M  V30 238 C 19.1594 5.262 0.00325597 0
M  V30 239 O 18.1854 5.65798 -0.621357 0
M  V30 240 N 19.3874 5.66303 1.27599 0
M  V30 241 H 22.1524 2.62957 -1.43784 0
M  V30 242 H 19.7134 1.34495 -0.901261 0
M  V30 243 H 21.7054 3.98616 0.699111 0
M  V30 244 H 20.2754 2.96472 0.991102 0
M  V30 245 H 19.4954 3.69016 -1.38638 0
M  V30 246 H 20.7834 4.9072 -1.34428 0
M  V30 247 H 20.1814 5.36155 1.80429 0
M  V30 248 H 18.7384 6.28942 1.71102 0
M  V30 249 N 22.1715 0.800033 1.35784 0
M  V30 250 C 23.1015 0.220184 2.3246 0
M  V30 251 C 24.0825 -0.65073 1.57161 0
M  V30 252 O 25.2675 -0.582359 1.85263 0
M  V30 253 C 22.3975 -0.637353 3.41402 0
M  V30 254 C 21.3515 0.134531 4.27789 0
M  V30 255 C 20.6775 -0.844285 5.27992 0
M  V30 256 C 21.9775 1.32979 5.05088 0
M  V30 257 H 23.6715 1.02787 2.81203 0
M  V30 258 H 21.2175 0.495717 1.35199 0
M  V30 259 H 23.1705 -1.05302 4.08031 0
M  V30 260 H 21.8945 -1.47785 2.91251 0
M  V30 261 H 20.5535 0.531296 3.6273 0
M  V30 262 H 20.2015 -1.68011 4.74111 0
M  V30 263 H 19.9015 -0.332184 5.8666 0
M  V30 264 H 21.4255 -1.2583 5.97494 0
M  V30 265 H 22.8395 0.98934 5.64699 0
M  V30 266 H 21.2365 1.77593 5.7322 0
M  V30 267 H 22.3065 2.11978 4.36111 0
M  V30 268 N 23.6496 -1.47581 0.552962 0
M  V30 269 C 24.5796 -2.32762 -0.185451 0
M  V30 270 C 25.5606 -1.43527 -0.912905 0
M  V30 271 O 26.7456 -1.72388 -0.894201 0
M  V30 272 C 23.8756 -3.25219 -1.21859 0
M  V30 273 C 22.8296 -4.23661 -0.607864 0
M  V30 274 C 22.1556 -5.05413 -1.74533 0
M  V30 275 C 23.4556 -5.20481 0.435582 0
M  V30 276 H 25.1496 -2.94749 0.525684 0
M  V30 277 H 22.6956 -1.41738 0.254251 0
M  V30 278 H 24.6486 -3.8365 -1.7433 0
M  V30 279 H 23.3726 -2.61279 -1.95961 0
M  V30 280 H 22.0316 -3.66451 -0.104489 0
M  V30 281 H 21.6796 -4.3788 -2.47529 0
M  V30 282 H 21.3796 -5.72059 -1.34249 0
M  V30 283 H 22.9036 -5.66701 -2.27338 0
M  V30 284 H 24.3176 -5.733 -0.00290157 0
M  V30 285 H 22.7146 -5.95305 0.757067 0
M  V30 286 H 23.7846 -4.66217 1.33303 0
M  V30 287 N 25.1277 -0.289203 -1.54924 0
M  V30 288 C 26.5437 0.0645403 -1.59469 0
M  V30 289 C 26.7437 1.53419 -1.30632 0
M  V30 290 O 25.7997 2.2852 -1.074 0
M  V30 291 C 27.1127 -0.32278 -2.98963 0
M  V30 292 C 28.6607 -0.270564 -3.11828 0
M  V30 293 C 29.1357 -0.632532 -4.53611 0
M  V30 294 N 30.6267 -0.584617 -4.59496 0
M  V30 295 C 31.3617 -0.837314 -5.67254 0
M  V30 296 N 30.8577 -1.15536 -6.83098 0
M  V30 297 N 32.6507 -0.765166 -5.56868 0
M  V30 298 H 24.8017 -1.24714 -1.71931 0
M  V30 299 H 27.0647 -0.504809 -0.802416 0
M  V30 300 H 26.7707 -1.34541 -3.24948 0
M  V30 301 H 26.6447 0.32944 -3.75759 0
M  V30 302 H 29.0317 0.742805 -2.85598 0
M  V30 303 H 29.1127 -0.957242 -2.37214 0
M  V30 304 H 28.7567 -1.64365 -4.80569 0
M  V30 305 H 28.6867 0.07609 -5.26545 0
M  V30 306 H 31.1777 -0.349248 -3.76283 0
M  V30 307 H 31.4907 -1.33447 -7.61191 0
M  V30 308 H 29.8357 -1.19328 -6.84679 0
M  V30 309 H 33.0267 -0.516432 -4.65243 0
M  V30 310 H 33.1997 -0.965477 -6.40767 0
M  V30 311 N 26.6058 1.57591 -0.0167156 0
M  V30 312 C 27.5378 2.06343 0.997753 0
M  V30 313 C 28.5508 0.984469 1.29661 0
M  V30 314 O 29.7398 1.26093 1.26344 0
M  V30 315 C 26.8398 2.46255 2.32834 0
M  V30 316 C 26.0128 3.77083 2.21646 0
M  V30 317 C 25.0718 4.0368 3.37534 0
M  V30 318 O 24.0978 4.7411 3.14973 0
M  V30 319 N 25.2998 3.52881 4.60929 0
M  V30 320 H 28.0648 2.93997 0.581875 0
M  V30 321 H 25.6258 1.61002 0.170316 0
M  V30 322 H 27.6178 2.61149 3.09166 0
M  V30 323 H 26.1878 1.64032 2.66106 0
M  V30 324 H 25.4078 3.72106 1.30119 0
M  V30 325 H 26.6958 4.62822 2.11361 0
M  V30 326 H 26.0938 2.95878 4.82154 0
M  V30 327 H 24.6508 3.73076 5.34469 0
M  V30 328 N 28.0839 -0.256276 1.55502 0
M  V30 329 C 29.4949 -0.826068 1.67431 0
M  V30 330 C 29.8459 -1.86396 0.612446 0
M  V30 331 O 28.9709 -2.15031 -0.243025 0
M  V30 332 C 29.5659 -1.50512 3.03532 0
M  V30 333 C 28.1249 -2.02273 3.17431 0
M  V30 334 C 27.2719 -0.870548 2.63281 0
M  V30 335 H 30.2229 -0.0322728 1.58667 0
M  V30 336 H 30.2439 -2.37279 2.97454 0
M  V30 337 H 29.7559 -0.749484 3.80794 0
M  V30 338 H 27.8569 -2.80746 2.44974 0
M  V30 339 H 27.9699 -2.22655 4.24219 0
M  V30 340 H 26.3339 -1.26851 2.20864 0
M  V30 341 H 27.1169 -0.128149 3.43061 0
M  V30 342 N 29.562 -1.4872 -0.521534 0
M  V30 343 C 30.802 -1.58771 -1.28729 0
M  V30 344 C 31.166 -0.259394 -1.9024 0
M  V30 345 O 32.367 -0.234942 -2.67771 0
M  V30 346 C 30.638 -2.70039 -2.34124 0
M  V30 347 S 32.197 -2.9991 -3.20312 0
M  V30 348 H 29.015 -0.560251 -0.437767 0
M  V30 349 H 31.617 -1.86283 -0.593188 0
M  V30 350 H 30.321 -3.65101 -1.87429 0
M  V30 351 H 29.852 -2.44455 -3.08229 0
M  V30 352 H 31.867 -2.39855 -4.34378 0
M  V30 353 N 31.0401 0.771051 -1.3745 0
M  V30 354 C 32.4511 1.34737 -1.29239 0
M  V30 355 C 32.8021 1.96109 0.0596908 0
M  V30 356 O 31.9271 1.93865 0.961534 0
M  V30 357 C 32.5221 2.44973 -2.34037 0
M  V30 358 C 31.0811 2.98372 -2.29458 0
M  V30 359 C 30.2281 1.71595 -2.17831 0
M  V30 360 H 33.1791 0.571256 -1.48062 0
M  V30 361 H 33.2001 3.24471 -1.98744 0
M  V30 362 H 32.7121 2.00276 -3.32432 0
M  V30 363 H 30.8131 3.47443 -1.34589 0
M  V30 364 H 30.9261 3.53939 -3.229 0
M  V30 365 H 29.2901 1.94547 -1.64388 0
M  V30 366 H 30.0731 1.29001 -3.18141 0
M  V30 367 N 32.5182 1.22032 0.997298 0
M  V30 368 C 33.7642 1.04376 1.73878 0
M  V30 369 C 34.0972 -0.420716 1.89588 0
M  V30 370 O 33.3722 -1.31202 1.43583 0
M  V30 371 C 33.6552 1.75047 3.14691 0
M  V30 372 C 33.5082 3.29062 3.06656 0
M  V30 373 C 34.8272 1.49928 4.13775 0
M  V30 374 H 31.9462 0.380578 0.631133 0
M  V30 375 H 34.5882 1.50312 1.16217 0
M  V30 376 H 32.7382 1.35996 3.63919 0
M  V30 377 H 34.4102 3.7753 2.65083 0
M  V30 378 H 32.6532 3.58967 2.43568 0
M  V30 379 H 33.3242 3.73683 4.06282 0
M  V30 380 H 35.8002 1.83842 3.73285 0
M  V30 381 H 34.6762 2.01878 5.10428 0
M  V30 382 H 34.9372 0.430929 4.39995 0
M  V30 383 N 33.9963 -1.19345 1.0293 0
M  V30 384 C 35.2243 -1.92997 0.745644 0
M  V30 385 C 35.6393 -1.75519 -0.695589 0
M  V30 386 O 34.9963 -1.07737 -1.47306 0
M  V30 387 C 35.0473 -3.44741 1.08792 0
M  V30 388 O 34.7683 -3.61658 2.47256 0
M  V30 389 C 36.2693 -4.35515 0.827129 0
M  V30 390 H 33.4893 -0.613042 0.272801 0
M  V30 391 H 36.0333 -1.51473 1.3739 0
M  V30 392 H 34.1883 -3.84097 0.504832 0
M  V30 393 H 34.6023 -4.55514 2.60015 0
M  V30 394 H 36.0763 -5.40589 1.11658 0
M  V30 395 H 36.5533 -4.38552 -0.238436 0
M  V30 396 H 37.1593 -4.01841 1.39297 0
M  V30 397 N 35.4744 -0.807222 -1.35358 0
M  V30 398 C 36.8904 -0.491038 -1.51858 0
M  V30 399 C 37.0904 0.987648 -1.75635 0
M  V30 400 O 36.1464 1.77265 -1.79815 0
M  V30 401 C 37.4594 -1.33695 -2.69344 0
M  V30 402 C 39.0074 -1.33246 -2.83222 0
M  V30 403 C 39.4824 -2.1625 -4.03733 0
M  V30 404 N 40.9734 -2.1379 -4.10911 0
M  V30 405 C 41.7084 -2.74772 -5.03277 0
M  V30 406 N 41.2044 -3.44684 -6.0097 0
M  V30 407 N 42.9974 -2.6441 -4.96028 0
M  V30 408 H 35.1484 -1.76485 -1.18181 0
M  V30 409 H 37.4114 -0.751199 -0.578276 0
M  V30 410 H 37.1174 -2.38634 -2.58354 0
M  V30 411 H 36.9914 -0.990618 -3.6396 0
M  V30 412 H 39.3784 -0.290911 -2.93663 0
M  V30 413 H 39.4594 -1.71866 -1.89461 0
M  V30 414 H 39.1034 -3.20445 -3.94052 0
M  V30 415 H 39.0334 -1.74989 -4.96675 0
M  V30 416 H 41.5244 -1.62923 -3.40976 0
M  V30 417 H 41.8374 -3.88501 -6.68047 0
M  V30 418 H 40.1824 -3.48788 -6.01142 0
M  V30 419 H 43.3734 -2.0938 -4.18662 0
M  V30 420 H 43.5464 -3.12225 -5.6782 0
M  V30 421 N 36.9525 1.47285 -0.560781 0
M  V30 422 C 37.9155 2.28535 0.174488 0
M  V30 423 C 38.9155 1.37153 0.839388 0
M  V30 424 O 40.1055 1.59748 0.694702 0
M  V30 425 C 37.2375 3.16934 1.25561 0
M  V30 426 H 38.4305 2.95012 -0.539262 0
M  V30 427 H 35.9835 1.53034 -0.317865 0
M  V30 428 H 36.7185 2.55157 2.00164 0
M  V30 429 H 36.5035 3.8419 0.783604 0
M  V30 430 H 37.9935 3.78143 1.77193 0
M  V30 431 N 38.4306 0.297415 1.54768 0
M  V30 432 C 39.8416 -0.195947 1.85669 0
M  V30 433 C 40.1926 -1.53707 1.21937 0
M  V30 434 O 39.3176 -2.10164 0.515754 0
M  V30 435 C 39.9126 -0.362318 3.36857 0
M  V30 436 C 38.4716 -0.799901 3.67802 0
M  V30 437 C 37.6186 0.0938578 2.77141 0
M  V30 438 H 40.5696 0.518538 1.4999 0
M  V30 439 H 40.5906 -1.19745 3.61167 0
M  V30 440 H 40.1026 0.613921 3.83214 0
M  V30 441 H 38.2036 -1.78682 3.26961 0
M  V30 442 H 38.3166 -0.621773 4.75048 0
M  V30 443 H 36.6806 -0.426254 2.51108 0
M  V30 444 H 37.4636 1.06639 3.26318 0
M  V30 445 N 39.9087 -1.5758 0.0250728 0
M  V30 446 C 41.3197 -1.79476 -0.514323 0
M  V30 447 C 41.6707 -0.934956 -1.72491 0
M  V30 448 O 40.7957 -0.144245 -2.15919 0
M  V30 449 C 41.3907 -3.25503 -0.939842 0
M  V30 450 C 39.9497 -3.48408 -1.42438 0
M  V30 451 C 39.0967 -2.74583 -0.387201 0
M  V30 452 H 42.0477 -1.567 0.25113 0
M  V30 453 H 42.0687 -3.34992 -1.80445 0
M  V30 454 H 41.5807 -3.88056 -0.0585628 0
M  V30 455 H 39.6817 -2.91103 -2.32572 0
M  V30 456 H 39.7947 -4.57119 -1.43455 0
M  V30 457 H 38.1587 -2.39942 -0.854409 0
M  V30 458 H 38.9417 -3.39849 0.485543 0
M  V30 459 N 41.3868 0.248026 -1.55636 0
M  V30 460 C 42.7978 0.817177 -1.67866 0
M  V30 461 C 43.1488 1.86069 -0.622322 0
M  V30 462 O 42.2738 2.15157 0.231618 0
M  V30 463 C 42.8688 1.489 -3.04326 0
M  V30 464 C 41.4278 2.00587 -3.185 0
M  V30 465 C 40.5748 0.856573 -2.63739 0
M  V30 466 H 43.5258 0.0238579 -1.58682 0
M  V30 467 H 43.5468 2.35698 -2.98708 0
M  V30 468 H 43.0588 0.729279 -3.81186 0
M  V30 469 H 41.1598 2.79443 -2.4646 0
M  V30 470 H 41.2728 2.20402 -4.25393 0
M  V30 471 H 39.6368 1.25678 -2.21534 0
M  V30 472 H 40.4198 0.109953 -3.43124 0
M  V30 473 N 42.8649 1.48995 0.513639 0
M  V30 474 C 44.2759 1.5119 1.09537 0
M  V30 475 C 44.6269 0.290906 1.94031 0
M  V30 476 O 43.7519 -0.60049 2.07902 0
M  V30 477 C 44.3469 2.73964 1.99322 0
M  V30 478 C 42.9059 2.78978 2.52682 0
M  V30 479 C 42.0529 2.44934 1.30009 0
M  V30 480 H 45.0039 1.55875 0.298125 0
M  V30 481 H 45.0249 2.53409 2.83838 0
M  V30 482 H 44.5369 3.62813 1.37799 0
M  V30 483 H 42.6379 1.94378 3.1788 0
M  V30 484 H 42.7509 3.8083 2.90698 0
M  V30 485 H 41.1149 1.9644 1.62122 0
M  V30 486 H 41.8979 3.36043 0.702131 0
M  V30 487 N 44.343 -0.763751 1.37857 0
M  V30 488 C 45.253 -1.90817 1.36478 0
M  V30 489 C 46.269 -1.71997 0.263248 0
M  V30 490 O 47.445 -1.95095 0.499979 0
M  V30 491 C 44.51 -3.2605 1.17864 0
M  V30 492 C 43.571 -3.57467 2.3773 0
M  V30 493 C 42.804 -4.86249 2.19995 0
M  V30 494 O 43.027 -5.57884 1.18836 0
M  V30 495 O 41.961 -5.16911 3.08361 0
M  V30 496 H 45.787 -1.94933 2.32884 0
M  V30 497 H 43.372 -0.907619 1.1867 0
M  V30 498 H 45.254 -4.06924 1.09504 0
M  V30 499 H 43.929 -3.22769 0.245372 0
M  V30 500 H 42.836 -2.76796 2.51664 0
M  V30 501 H 44.169 -3.655 3.29652 0
M  V30 502 N 45.8211 -1.22559 -0.990812 0
M  V30 503 C 47.2321 -1.04791 -1.54518 0
M  V30 504 C 47.5831 0.387998 -1.92325 0
M  V30 505 O 46.7081 1.27328 -1.74976 0
M  V30 506 C 47.3031 -1.896 -2.80779 0
M  V30 507 C 45.8621 -1.76124 -3.32652 0
M  V30 508 C 45.0091 -1.8594 -2.05722 0
M  V30 509 H 47.9601 -1.36374 -0.811662 0
M  V30 510 H 47.9811 -1.41464 -3.53225 0
M  V30 511 H 47.4931 -2.94101 -2.53231 0
M  V30 512 H 45.5941 -0.743643 -3.65104 0
M  V30 513 H 45.7071 -2.58913 -4.03114 0
M  V30 514 H 44.0711 -1.29403 -2.19379 0
M  V30 515 H 44.8541 -2.91976 -1.80568 0
M  V30 516 N 47.2992 1.18797 -1.03562 0
M  V30 517 C 48.2462 2.22253 -0.622259 0
M  V30 518 C 49.2162 1.61987 0.36736 0
M  V30 519 O 50.4012 1.88986 0.262492 0
M  V30 520 C 47.5412 3.45097 0.0138462 0
M  V30 521 C 46.6542 4.19722 -1.02263 0
M  V30 522 C 45.7892 5.30009 -0.355573 0
M  V30 523 C 44.8282 5.96399 -1.37749 0
M  V30 524 N 43.9652 6.98234 -0.735766 0
M  V30 525 H 48.8052 2.56968 -1.50903 0
M  V30 526 H 46.3422 1.26245 -0.755017 0
M  V30 527 H 48.3002 4.15279 0.399948 0
M  V30 528 H 46.9302 3.11018 0.864158 0
M  V30 529 H 45.9822 3.48418 -1.52673 0
M  V30 530 H 47.2942 4.65227 -1.79903 0
M  V30 531 H 46.4482 6.0664 0.0850095 0
M  V30 532 H 45.1872 4.85592 0.452967 0
M  V30 533 H 44.1922 5.18512 -1.82826 0
M  V30 534 H 45.4172 6.42899 -2.18764 0
M  V30 535 H 43.3632 6.55979 0.0525597 0
M  V30 536 H 43.2802 7.41965 -1.44995 0
M  V30 537 H 44.5482 7.78845 -0.31941 0
M  V30 538 N 48.7773 0.814389 1.34928 0
M  V30 539 C 49.7403 0.235759 2.27984 0
M  V30 540 C 50.7403 -0.581412 1.49921 0
M  V30 541 O 51.9303 -0.398758 1.69575 0
M  V30 542 C 49.0623 -0.670433 3.34242 0
M  V30 543 H 50.2553 1.05659 2.80671 0
M  V30 544 H 47.8083 0.585614 1.44915 0
M  V30 545 H 48.5433 -1.51466 2.86755 0
M  V30 546 H 48.3283 -0.0860822 3.92005 0
M  V30 547 H 49.8183 -1.06935 4.03676 0
M  V30 548 N 50.2554 -1.46986 0.568584 0
M  V30 549 C 51.1654 -2.33942 -0.17555 0
M  V30 550 C 52.1814 -1.48891 -0.90041 0
M  V30 551 O 53.3574 -1.81794 -0.86676 0
M  V30 552 C 50.4224 -3.25811 -1.18524 0
M  V30 553 C 49.4834 -4.26757 -0.466582 0
M  V30 554 C 48.7164 -5.14236 -1.42817 0
M  V30 555 O 48.9394 -5.04379 -2.66379 0
M  V30 556 O 47.8734 -5.94412 -0.946453 0
M  V30 557 H 51.6994 -2.98896 0.538036 0
M  V30 558 H 49.2844 -1.4573 0.329097 0
M  V30 559 H 51.1664 -3.82527 -1.76779 0
M  V30 560 H 49.8414 -2.63471 -1.88055 0
M  V30 561 H 48.7484 -3.73769 0.157451 0
M  V30 562 H 50.0814 -4.91843 0.187485 0
M  V30 563 N 51.7335 -0.305618 -1.54608 0
M  V30 564 C 52.9795 0.302746 -2.00528 0
M  V30 565 C 53.3125 1.53184 -1.19367 0
M  V30 566 O 52.5875 1.92598 -0.271321 0
M  V30 567 C 52.8705 0.654756 -3.54097 0
M  V30 568 C 52.7235 -0.583793 -4.45995 0
M  V30 569 C 54.0425 1.47947 -4.14487 0
M  V30 570 H 51.1615 0.108564 -0.72896 0
M  V30 571 H 53.8035 -0.418634 -1.85331 0
M  V30 572 H 51.9535 1.26935 -3.67178 0
M  V30 573 H 53.6255 -1.22224 -4.44814 0
M  V30 574 H 51.8685 -1.21615 -4.16404 0
M  V30 575 H 52.5395 -0.293287 -5.5122 0
M  V30 576 H 55.0155 0.96013 -4.04871 0
M  V30 577 H 53.8915 1.69454 -5.22088 0
M  V30 578 H 54.1525 2.47011 -3.66658 0
M  V30 579 N 53.2116 1.57565 -0.0334293 0
M  V30 580 C 54.1216 2.13943 0.962572 0
M  V30 581 C 55.1376 1.09276 1.35406 0
M  V30 582 O 56.3136 1.41355 1.4346 0
M  V30 583 C 53.3786 2.65887 2.22497 0
M  V30 584 C 52.4396 3.85286 1.8935 0
M  V30 585 C 51.6726 4.34743 3.09571 0
M  V30 586 O 51.8956 3.83352 4.22371 0
M  V30 587 O 50.8296 5.26538 2.91618 0
M  V30 588 H 54.6556 2.99333 0.513169 0
M  V30 589 H 52.2406 1.4822 0.18743 0
M  V30 590 H 54.1226 2.99346 2.96598 0
M  V30 591 H 52.7976 1.83578 2.6661 0
M  V30 592 H 51.7046 3.56746 1.1262 0
M  V30 593 H 53.0376 4.68771 1.5005 0
M  V30 594 N 54.6897 -0.239769 1.55765 0
M  V30 595 C 56.1007 -0.808263 1.68297 0
M  V30 596 C 56.4517 -1.85736 0.632181 0
M  V30 597 O 55.5767 -2.15277 -0.220204 0
M  V30 598 C 56.1717 -1.47284 3.05111 0
M  V30 599 C 54.7307 -1.98895 3.19559 0
M  V30 600 C 53.8777 -0.842575 2.64189 0
M  V30 601 H 56.8287 -0.0154422 1.58692 0
M  V30 602 H 56.8497 -2.34111 2.99954 0
M  V30 603 H 56.3617 -0.709053 3.81568 0
M  V30 604 H 54.4627 -2.78132 2.47938 0
M  V30 605 H 54.5757 -2.18143 4.26556 0
M  V30 606 H 52.9397 -1.24501 2.22197 0
M  V30 607 H 53.7227 -0.0917552 3.43177 0
M  V30 608 N 56.1678 -1.49265 -0.50573 0
M  V30 609 C 57.0998 -1.617 -1.62437 0
M  V30 610 C 58.1128 -0.499924 -1.54934 0
M  V30 611 O 59.3018 -0.771785 -1.60953 0
M  V30 612 C 56.4018 -1.5533 -3.01207 0
M  V30 613 C 55.5748 -2.8249 -3.33943 0
M  V30 614 C 54.6338 -2.69238 -4.52103 0
M  V30 615 O 53.6598 -3.43167 -4.5412 0
M  V30 616 N 54.8618 -1.80468 -5.51735 0
M  V30 617 H 57.6268 -2.58177 -1.52199 0
M  V30 618 H 55.1878 -1.46294 -0.693511 0
M  V30 619 H 57.1798 -1.44125 -3.78167 0
M  V30 620 H 55.7498 -0.667297 -3.05395 0
M  V30 621 H 54.9698 -3.08081 -2.45926 0
M  V30 622 H 56.2578 -3.66802 -3.5261 0
M  V30 623 H 55.6558 -1.19653 -5.52901 0
M  V30 624 H 54.2128 -1.75188 -6.27816 0
M  V30 625 N 57.6459 0.756429 -1.3826 0
M  V30 626 C 59.0569 1.33359 -1.30661 0
M  V30 627 C 59.4079 1.96161 0.0388875 0
M  V30 628 O 58.5329 1.94874 0.940918 0
M  V30 629 C 59.1279 2.42477 -2.36622 0
M  V30 630 C 57.6869 2.95922 -2.3261 0
M  V30 631 C 56.8339 1.69275 -2.19639 0
M  V30 632 H 59.7849 0.55552 -1.4866 0
M  V30 633 H 59.8059 3.22345 -2.02174 0
M  V30 634 H 59.3179 1.96739 -3.34538 0
M  V30 635 H 57.4189 3.45996 -1.38267 0
M  V30 636 H 57.5319 3.50494 -3.26636 0
M  V30 637 H 55.8959 1.92793 -1.66442 0
M  V30 638 H 56.6789 1.25619 -3.19491 0
M  V30 639 N 59.124 1.23083 0.984299 0
M  V30 640 C 60.056 0.96636 2.07832 0
M  V30 641 C 61.069 -0.0582135 1.62696 0
M  V30 642 O 62.258 0.176843 1.77622 0
M  V30 643 C 59.358 0.433397 3.36117 0
M  V30 644 C 58.531 1.51722 4.10243 0
M  V30 645 C 57.59 0.989821 5.16807 0
M  V30 646 O 56.616 1.67794 5.43906 0
M  V30 647 N 57.818 -0.184367 5.80207 0
M  V30 648 H 60.583 1.90824 2.31098 0
M  V30 649 H 58.144 1.13888 1.1507 0
M  V30 650 H 60.136 0.065699 4.04647 0
M  V30 651 H 58.706 -0.413806 3.09849 0
M  V30 652 H 57.926 2.05786 3.36223 0
M  V30 653 H 59.214 2.24619 4.56534 0
M  V30 654 H 58.612 -0.760062 5.60571 0
M  V30 655 H 57.169 -0.493366 6.4993 0
M  V30 656 N 60.6021 -1.18246 1.0419 0
M  V30 657 C 62.0131 -1.69914 0.773698 0
M  V30 658 C 62.3641 -1.83085 -0.705297 0
M  V30 659 O 61.4891 -1.51123 -1.5489 0
M  V30 660 C 62.0841 -3.08619 1.39784 0
M  V30 661 C 60.6431 -3.57494 1.17792 0
M  V30 662 C 59.7901 -2.34013 1.48773 0
M  V30 663 H 62.7411 -1.02904 1.20816 0
M  V30 664 H 62.7621 -3.71958 0.801714 0
M  V30 665 H 62.2741 -2.99001 2.47426 0
M  V30 666 H 60.3751 -3.72406 0.120295 0
M  V30 667 H 60.4881 -4.40852 1.87581 0
M  V30 668 H 58.8521 -2.37986 0.907463 0
M  V30 669 H 59.6351 -2.27013 2.57527 0
M  V30 670 N 62.0802 -0.821533 -1.34494 0
M  V30 671 C 62.9902 -0.244355 -2.33324 0
M  V30 672 C 64.0062 0.620527 -1.62559 0
M  V30 673 O 65.1822 0.528754 -1.94335 0
M  V30 674 C 62.2472 0.585368 -3.41723 0
M  V30 675 C 61.3082 -0.301752 -4.28238 0
M  V30 676 C 60.5412 0.488466 -5.3146 0
M  V30 677 O 60.7642 1.72186 -5.4379 0
M  V30 678 O 59.6982 -0.12848 -6.01763 0
M  V30 679 H 63.5242 -1.06231 -2.84515 0
M  V30 680 H 61.1092 -0.583645 -1.37528 0
M  V30 681 H 62.9912 1.05747 -4.07916 0
M  V30 682 H 61.6662 1.38068 -2.92778 0
M  V30 683 H 60.5732 -0.821315 -3.64973 0
M  V30 684 H 61.9062 -1.06138 -4.8062 0
M  V30 685 N 63.5583 1.46682 -0.576371 0
M  V30 686 C 64.9693 1.86112 -0.148091 0
M  V30 687 C 65.3203 1.48073 1.2872 0
M  V30 688 O 64.4453 0.892656 1.97131 0
M  V30 689 C 65.0403 3.37786 -0.261982 0
M  V30 690 C 63.5993 3.76235 0.111384 0
M  V30 691 C 62.7463 2.70713 -0.60083 0
M  V30 692 H 65.6973 1.37927 -0.78497 0
M  V30 693 H 65.7183 3.77007 0.514364 0
M  V30 694 H 65.2303 3.6544 -1.30671 0
M  V30 695 H 63.3313 3.54198 1.15649 0
M  V30 696 H 63.4443 4.78391 -0.26052 0
M  V30 697 H 61.8083 2.54666 -0.0417783 0
M  V30 698 H 62.5913 3.01208 -1.64708 0
M  V30 699 N 65.0364 0.313813 1.54444 0
M  V30 700 C 66.2644 -0.293918 2.04802 0
M  V30 701 C 66.6794 -1.46537 1.19047 0
M  V30 702 O 66.0364 -1.81182 0.218939 0
M  V30 703 C 66.0874 -0.737806 3.53891 0
M  V30 704 O 65.8084 0.387038 4.36387 0
M  V30 705 C 67.3094 -1.40936 4.203 0
M  V30 706 H 64.5294 -0.0620057 0.668129 0
M  V30 707 H 67.0734 0.457169 1.99324 0
M  V30 708 H 65.2284 -1.43889 3.59687 0
M  V30 709 H 65.6424 0.0391274 5.24485 0
M  V30 710 H 67.1164 -1.67099 5.26101 0
M  V30 711 H 67.5934 -2.35355 3.70816 0
M  V30 712 H 68.1994 -0.751117 4.18615 0
M  V30 713 N 66.5145 -1.57545 0.0417849 0
M  V30 714 C 67.9255 -1.80011 -0.495259 0
M  V30 715 C 68.2765 -0.953199 -1.71489 0
M  V30 716 O 67.4015 -0.167138 -2.15754 0
M  V30 717 C 67.9965 -3.26482 -0.905265 0
M  V30 718 C 66.5555 -3.499 -1.38734 0
M  V30 719 C 65.7025 -2.74979 -0.358056 0
M  V30 720 H 68.6535 -1.56425 0.267736 0
M  V30 721 H 68.6745 -3.36887 -1.76882 0
M  V30 722 H 68.1865 -3.88096 -0.017401 0
M  V30 723 H 66.2875 -2.93553 -2.29471 0
M  V30 724 H 66.4005 -4.58615 -1.38598 0
M  V30 725 H 64.7645 -2.40834 -0.828912 0
M  V30 726 H 65.5475 -3.39315 0.521561 0
M  V30 727 N 67.9926 0.231505 -1.5589 0
M  V30 728 C 69.2386 0.95877 -1.78705 0
M  V30 729 C 69.5716 1.8438 -0.609725 0
M  V30 730 O 68.8466 1.90521 0.391426 0
M  V30 731 C 69.1296 1.8062 -3.11526 0
M  V30 732 C 68.9826 0.948328 -4.39689 0
M  V30 733 C 70.3016 2.78585 -3.40703 0
M  V30 734 H 67.4206 0.347129 -0.650131 0
M  V30 735 H 70.0626 0.228259 -1.88624 0
M  V30 736 H 68.2126 2.42902 -3.03201 0
M  V30 737 H 69.8846 0.343016 -4.60023 0
M  V30 738 H 68.1276 0.253314 -4.3306 0
M  V30 739 H 68.7986 1.57543 -5.29041 0
M  V30 740 H 71.2746 2.26439 -3.49091 0
M  V30 741 H 70.1506 3.34988 -4.34826 0
M  V30 742 H 70.4116 3.55825 -2.62375 0
M  V30 743 N 69.4707 1.49531 0.497807 0
M  V30 744 C 70.8867 1.36365 0.829266 0
M  V30 745 C 71.0867 0.399184 1.97506 0
M  V30 746 O 70.1427 -0.167977 2.51941 0
M  V30 747 C 71.4557 2.77153 1.16647 0
M  V30 748 C 73.0037 2.85877 1.27449 0
M  V30 749 C 73.4787 4.2744 1.64497 0
M  V30 750 N 74.9697 4.30265 1.7154 0
M  V30 751 C 75.7047 5.3677 2.01656 0
M  V30 752 N 75.2007 6.53516 2.29976 0
M  V30 753 N 76.9937 5.24189 2.02934 0
M  V30 754 H 69.1447 2.10831 -0.257703 0
M  V30 755 H 71.4077 0.946534 -0.0527091 0
M  V30 756 H 71.1137 3.49442 0.397872 0
M  V30 757 H 70.9877 3.12722 2.10915 0
M  V30 758 H 73.3747 2.13824 2.0338 0
M  V30 759 H 73.4557 2.53887 0.312244 0
M  V30 760 H 73.0997 5.00021 0.891151 0
M  V30 761 H 73.0297 4.56896 2.61827 0
M  V30 762 H 75.5207 3.4607 1.51802 0
M  V30 763 H 75.8337 7.30506 2.52153 0
M  V30 764 H 74.1787 6.56737 2.27425 0
M  V30 765 H 77.3697 4.31988 1.80289 0
M  V30 766 H 77.5427 6.07286 2.26071 0
M  V30 767 N 70.9488 -0.749086 1.3866 0
M  V30 768 C 71.8588 -1.89358 1.38494 0
M  V30 769 C 72.8748 -1.71708 0.281476 0
M  V30 770 O 74.0508 -1.94554 0.520643 0
M  V30 771 C 71.1158 -3.24782 1.21316 0
M  V30 772 C 70.1768 -3.54926 2.41508 0
M  V30 773 C 69.4098 -4.83888 2.2514 0
M  V30 774 O 69.6328 -5.56592 1.24746 0
M  V30 775 O 68.5668 -5.13612 3.13826 0
M  V30 776 H 72.3928 -1.92452 2.34938 0
M  V30 777 H 69.9778 -0.894981 1.19626 0
M  V30 778 H 71.8598 -4.05739 1.13814 0
M  V30 779 H 70.5348 -3.2249 0.279592 0
M  V30 780 H 69.4418 -2.74112 2.54585 0
M  V30 781 H 70.7748 -3.61983 3.3351 0
M  V30 782 N 72.4269 -1.23603 -0.977757 0
M  V30 783 C 73.3369 -1.03632 -2.1047 0
M  V30 784 C 74.3529 0.0199435 -1.73989 0
M  V30 785 O 75.5289 -0.176076 -2.00629 0
M  V30 786 C 72.5939 -0.63276 -3.40877 0
M  V30 787 C 71.6549 -1.76437 -3.91367 0
M  V30 788 C 70.8879 -1.37997 -5.15551 0
M  V30 789 O 71.1109 -0.265357 -5.69782 0
M  V30 790 O 70.0449 -2.20201 -5.60174 0
M  V30 791 H 73.8709 -1.98086 -2.30208 0
M  V30 792 H 71.4559 -1.02332 -1.08851 0
M  V30 793 H 73.3379 -0.418761 -4.19314 0
M  V30 794 H 72.0129 0.282754 -3.22463 0
M  V30 795 H 70.9199 -2.03304 -3.14036 0
M  V30 796 H 72.2529 -2.6583 -4.14241 0
M  V30 797 N 73.905 1.17692 -1.04816 0
M  V30 798 C 75.154 1.87192 -0.751132 0
M  V30 799 C 75.467 1.8169 0.724441 0
M  V30 800 O 76.673 2.46625 1.13527 0
M  V30 801 C 75.129 3.35857 -1.29338 0
M  V30 802 C 74.737 3.4987 -2.79812 0
M  V30 803 C 76.481 4.10709 -1.07322 0
M  V30 804 C 74.388 4.92536 -3.27356 0
M  V30 805 H 73.318 0.701162 -0.277288 0
M  V30 806 H 75.969 1.32932 -1.26496 0
M  V30 807 H 74.351 3.89631 -0.707376 0
M  V30 808 H 75.525 3.06332 -3.44235 0
M  V30 809 H 73.84 2.88433 -3.00325 0
M  V30 810 H 76.437 5.15952 -1.4035 0
M  V30 811 H 76.78 4.16299 -0.0108001 0
M  V30 812 H 77.313 3.6313 -1.62423 0
M  V30 813 H 74.052 4.92119 -4.33012 0
M  V30 814 H 73.572 5.3676 -2.67673 0
M  V30 815 H 75.251 5.61288 -3.21815 0
M  V30 816 N 75.3831 0.828654 1.34056 0
M  V30 817 C 76.3301 0.252567 2.29414 0
M  V30 818 C 77.3001 -0.62588 1.53857 0
M  V30 819 O 78.4851 -0.566312 1.82202 0
M  V30 820 C 75.6251 -0.574831 3.40279 0
M  V30 821 C 74.7381 0.326499 4.30764 0
M  V30 822 C 73.8731 -0.511016 5.28736 0
M  V30 823 C 72.9121 0.389342 6.1086 0
M  V30 824 N 72.0491 -0.409439 7.00905 0
M  V30 825 H 76.8891 1.07108 2.78086 0
M  V30 826 H 74.4261 0.539677 1.36843 0
M  V30 827 H 76.3841 -1.06992 4.03248 0
M  V30 828 H 75.0141 -1.35841 2.92826 0
M  V30 829 H 74.0661 0.939837 3.68607 0
M  V30 830 H 75.3781 1.01857 4.88289 0
M  V30 831 H 74.5321 -1.07035 5.97184 0
M  V30 832 H 73.2711 -1.23657 4.71763 0
M  V30 833 H 72.2761 0.960769 5.4134 0
M  V30 834 H 73.5011 1.1131 6.69916 0
M  V30 835 H 71.4471 -1.11856 6.46393 0
M  V30 836 H 71.3641 0.224126 7.55668 0
M  V30 837 H 72.6321 -0.951336 7.73673 0
M  V30 838 N 76.8612 -1.46375 0.584142 0
M  V30 839 C 78.2722 -1.86031 0.157959 0
M  V30 840 C 78.6232 -1.48753 -1.27933 0
M  V30 841 O 77.7482 -0.903098 -1.96655 0
M  V30 842 C 78.3432 -3.37642 0.279892 0
M  V30 843 C 76.9022 -3.76289 -0.09143 0
M  V30 844 C 76.0492 -2.7039 0.615178 0
M  V30 845 H 79.0002 -1.37509 0.792274 0
M  V30 846 H 79.0212 -3.77275 -0.494364 0
M  V30 847 H 78.5332 -3.64742 1.32607 0
M  V30 848 H 76.6342 -3.54806 -1.13769 0
M  V30 849 H 76.7472 -4.78246 0.285886 0
M  V30 850 H 75.1112 -2.5464 0.0552833 0
M  V30 851 H 75.8942 -3.0033 1.66303 0
M  V30 852 N 78.3393 -0.321999 -1.54275 0
M  V30 853 C 79.7503 0.166384 -1.85957 0
M  V30 854 C 80.1013 1.51747 -1.24367 0
M  V30 855 O 79.2263 2.09317 -0.549124 0
M  V30 856 C 79.8213 0.308681 -3.37391 0
M  V30 857 C 78.3803 0.741286 -3.69028 0
M  V30 858 C 77.5273 -0.137937 -2.76957 0
M  V30 859 H 80.4783 -0.542335 -1.49146 0
M  V30 860 H 80.4993 1.13984 -3.63026 0
M  V30 861 H 80.0113 -0.674809 -3.82188 0
M  V30 862 H 78.1123 1.73458 -3.29762 0
M  V30 863 H 78.2253 0.546118 -4.75977 0
M  V30 864 H 76.5893 0.386251 -2.51754 0
M  V30 865 H 77.3723 -1.11816 -3.2458 0
M  V30 866 N 79.8174 1.5752 -0.0501392 0
M  V30 867 C 81.2284 1.80271 0.485705 0
M  V30 868 C 81.5794 0.96228 1.70981 0
M  V30 869 O 80.7044 0.178578 2.15662 0
M  V30 870 C 81.2994 3.26957 0.887938 0
M  V30 871 C 79.8584 3.5063 1.36877 0
M  V30 872 C 79.0054 2.75165 0.343468 0
M  V30 873 H 81.9564 1.56281 -0.276028 0
M  V30 874 H 81.9774 3.37821 1.75093 0
M  V30 875 H 81.4894 3.881 -0.0031809 0
M  V30 876 H 79.5904 2.94766 2.27911 0
M  V30 877 H 79.7034 4.59343 1.36164 0
M  V30 878 H 78.0674 2.4127 0.816128 0
M  V30 879 H 78.8504 3.39034 -0.539548 0
M  V30 880 N 81.2955 -0.223234 1.56011 0
M  V30 881 C 82.7065 -0.790368 1.69145 0
M  V30 882 C 83.0575 -1.85055 0.651845 0
M  V30 883 O 82.1825 -2.15498 -0.197359 0
M  V30 884 C 82.7775 -1.4404 3.06656 0
M  V30 885 C 81.3365 -1.95494 3.2165 0
M  V30 886 C 80.4835 -0.814506 2.65068 0
M  V30 887 H 83.4345 0.00139011 1.587 0
M  V30 888 H 83.4555 -2.30916 3.0242 0
M  V30 889 H 82.9675 -0.668543 3.82298 0
M  V30 890 H 81.0685 -2.75487 2.50874 0
M  V30 891 H 81.1815 -2.13607 4.28846 0
M  V30 892 H 79.5455 -1.22137 2.23505 0
M  V30 893 H 80.3285 -0.0553515 3.43255 0
M  V30 894 N 82.7736 -1.49793 -0.48987 0
M  V30 895 C 84.1846 -1.52914 -1.07118 0
M  V30 896 C 84.5356 -0.321738 -1.93544 0
M  V30 897 O 83.6606 0.567338 -2.08831 0
M  V30 898 C 84.2556 -2.771 -1.94938 0
M  V30 899 C 82.8146 -2.82963 -2.48212 0
M  V30 900 C 81.9616 -2.46972 -1.26096 0
M  V30 901 H 84.9126 -1.56329 -0.273289 0
M  V30 902 H 84.9336 -2.57892 -2.79771 0
M  V30 903 H 84.4456 -3.64959 -1.32009 0
M  V30 904 H 82.5466 -1.99411 -3.14748 0
M  V30 905 H 82.6596 -3.85406 -2.84603 0
M  V30 906 H 81.0236 -1.98994 -1.58976 0
M  V30 907 H 81.8066 -3.37118 -0.648581 0
M  V30 908 N 84.2517 0.741722 -1.39055 0
M  V30 909 C 85.1817 1.869 -1.39966 0
M  V30 910 C 86.1627 1.6804 -0.26392 0
M  V30 911 O 87.3477 1.88458 -0.468755 0
M  V30 912 C 84.4777 3.24572 -1.23574 0
M  V30 913 C 83.4317 3.58056 -2.34477 0
M  V30 914 C 82.7577 4.94593 -2.0318 0
M  V30 915 C 84.0577 3.61716 -3.76774 0
M  V30 916 H 85.7517 1.86395 -2.34302 0
M  V30 917 H 83.2977 0.895361 -1.1278 0
M  V30 918 H 85.2507 4.031 -1.22834 0
M  V30 919 H 83.9747 3.25587 -0.257045 0
M  V30 920 H 82.6337 2.81854 -2.34423 0
M  V30 921 H 82.2817 4.92181 -1.03765 0
M  V30 922 H 81.9817 5.17964 -2.77465 0
M  V30 923 H 83.5057 5.75486 -2.04079 0
M  V30 924 H 84.9197 4.30335 -3.78794 0
M  V30 925 H 83.3167 3.96603 -4.50362 0
M  V30 926 H 84.3867 2.61672 -4.08235 0
M  V30 927 N 85.7298 1.2412 0.971189 0
M  V30 928 C 87.1408 1.07236 1.52831 0
M  V30 929 C 87.4918 -0.357352 1.92918 0
M  V30 930 O 86.6168 -1.24528 1.76979 0
M  V30 931 C 87.2118 1.94043 2.77728 0
M  V30 932 C 85.7708 1.81394 3.29808 0
M  V30 933 C 84.9178 1.89189 2.02738 0
M  V30 934 H 87.8688 1.37648 0.789864 0
M  V30 935 H 87.8898 1.47066 3.5093 0
M  V30 936 H 87.4018 2.98093 2.4852 0
M  V30 937 H 85.5028 0.801634 3.63874 0
M  V30 938 H 85.6158 2.65294 3.98944 0
M  V30 939 H 83.9798 1.32877 2.17292 0
M  V30 940 H 84.7628 2.94812 1.759 0
M  V30 941 N 87.2079 -1.17134 1.05439 0
M  V30 942 C 88.6189 -1.69084 0.791676 0
M  V30 943 C 88.9699 -1.83822 -0.685839 0
M  V30 944 O 88.0949 -1.52757 -1.53278 0
M  V30 945 C 88.6899 -3.07119 1.4305 0
M  V30 946 C 87.2489 -3.56225 1.21577 0
M  V30 947 C 86.3959 -2.32421 1.51247 0
M  V30 948 H 89.3469 -1.01617 1.219 0
M  V30 949 H 89.3679 -3.71087 0.84112 0
M  V30 950 H 88.8799 -2.9636 2.50584 0
M  V30 951 H 86.9809 -3.72257 0.159787 0
M  V30 952 H 87.0939 -4.38837 1.92246 0
M  V30 953 H 85.4579 -2.3701 0.932653 0
M  V30 954 H 86.2409 -2.24268 2.5992 0
M  V30 955 N 88.686 -0.835752 -1.33615 0
M  V30 956 C 89.636 -0.238856 -2.26745 0
M  V30 957 C 90.62 0.604343 -1.49119 0
M  V30 958 O 91.812 0.456822 -1.71003 0
M  V30 959 C 88.941 0.587725 -3.38232 0
M  V30 960 C 88.027 -0.266811 -4.2326 0
M  V30 961 N 88.418 -1.34403 -4.87616 0
M  V30 962 C 86.716 -0.0533131 -4.45968 0
M  V30 963 C 87.417 -1.86819 -5.50884 0
M  V30 964 N 86.393 -1.17013 -5.30857 0
M  V30 965 H 90.195 -1.06266 -2.74016 0
M  V30 966 H 87.709 -0.679881 -1.47483 0
M  V30 967 H 89.706 1.03161 -4.03935 0
M  V30 968 H 88.366 1.40954 -2.9251 0
M  V30 969 H 89.377 -1.7269 -4.88261 0
M  V30 970 H 86.054 0.735312 -4.10974 0
M  V30 971 H 87.444 -2.7701 -6.1214 0
M  V30 972 N 90.1641 1.46063 -0.591896 0
M  V30 973 C 91.5751 1.85944 -0.167822 0
M  V30 974 C 91.9261 1.49429 1.27143 0
M  V30 975 O 91.0511 0.913515 1.96173 0
M  V30 976 C 91.6461 3.37489 -0.297794 0
M  V30 977 C 90.2051 3.76332 0.0714732 0
M  V30 978 C 89.3521 2.7006 -0.629509 0
M  V30 979 H 92.3031 1.37087 -0.799555 0
M  V30 980 H 92.3241 3.77532 0.474349 0
M  V30 981 H 91.8361 3.64034 -1.3454 0
M  V30 982 H 89.9371 3.55405 1.11886 0
M  V30 983 H 90.0501 4.78088 -0.311245 0
M  V30 984 H 88.4141 2.54607 -0.0687867 0
M  V30 985 H 89.1971 2.99444 -1.67894 0
M  V30 986 N 91.6422 0.330177 1.54103 0
M  V30 987 C 92.6052 -0.520144 2.2322 0
M  V30 988 C 93.6052 -1.03828 1.22786 0
M  V30 989 O 94.7952 -0.929652 1.4732 0
M  V30 990 C 91.9272 -1.72317 2.94142 0
M  V30 991 H 93.1202 0.0841605 2.99782 0
M  V30 992 H 90.6732 0.0813433 1.56088 0
M  V30 993 H 91.4082 -2.36653 2.21734 0
M  V30 994 H 91.1932 -1.35898 3.67796 0
M  V30 995 H 92.6832 -2.3266 3.46784 0
M  V30 996 N 93.1203 -1.57491 0.0584922 0
M  V30 997 C 94.3483 -1.97296 -0.623037 0
M  V30 998 C 94.7633 -0.936338 -1.63946 0
M  V30 999 O 94.1203 0.0785981 -1.82331 0
M  V30 1000 C 94.1713 -3.37183 -1.30345 0
M  V30 1001 O 93.8923 -4.36872 -0.32773 0
M  V30 1002 C 95.3933 -3.91788 -2.07406 0
M  V30 1003 H 92.6133 -0.649153 -0.169826 0
M  V30 1004 H 95.1573 -2.04106 0.12696 0
M  V30 1005 H 93.3123 -3.31502 -2.00463 0
M  V30 1006 H 93.7263 -5.18141 -0.814269 0
M  V30 1007 H 95.2003 -4.91926 -2.50425 0
M  V30 1008 H 95.6773 -3.27609 -2.92521 0
M  V30 1009 H 96.2833 -4.00829 -1.42184 0
M  V30 1010 N 94.5984 0.214957 -1.56127 0
M  V30 1011 C 96.0094 0.781386 -1.69562 0
M  V30 1012 C 96.3604 1.84707 -0.66165 0
M  V30 1013 O 95.4854 2.156 0.185927 0
M  V30 1014 C 96.0804 1.42411 -3.07416 0
M  V30 1015 C 94.6394 1.93786 -3.22683 0
M  V30 1016 C 93.7864 0.800438 -2.65496 0
M  V30 1017 H 96.7374 -0.00980633 -1.58697 0
M  V30 1018 H 96.7584 2.29309 -3.0364 0
M  V30 1019 H 96.2704 0.64826 -3.82648 0
M  V30 1020 H 94.3714 2.74152 -2.52332 0
M  V30 1021 H 94.4844 2.1133 -4.29973 0
M  V30 1022 H 92.8484 1.2095 -2.2415 0
M  V30 1023 H 93.6314 0.0371471 -3.4328 0
M  V30 1024 N 96.0765 1.50051 0.48192 0
M  V30 1025 C 97.4875 1.5348 1.06305 0
M  V30 1026 C 97.8385 0.331997 1.93371 0
M  V30 1027 O 96.9635 -0.556256 2.09129 0
M  V30 1028 C 97.5585 2.7813 1.93466 0
M  V30 1029 C 96.1175 2.84275 2.46707 0
M  V30 1030 C 95.2645 2.47637 1.24785 0
M  V30 1031 H 98.2155 1.56472 0.264995 0
M  V30 1032 H 98.2365 2.59372 2.78399 0
M  V30 1033 H 97.7485 3.65654 1.30072 0
M  V30 1034 H 95.8495 2.01077 3.13686 0
M  V30 1035 H 95.9625 3.8691 2.82555 0
M  V30 1036 H 94.3265 1.99835 1.57918 0
M  V30 1037 H 95.1095 3.37457 0.630694 0
M  V30 1038 N 97.5546 -0.734337 1.39446 0
M  V30 1039 C 98.9656 -1.31264 1.32766 0
M  V30 1040 C 99.3166 -1.96198 -0.00767497 0
M  V30 1041 O 98.4416 -1.96346 -0.909796 0
M  V30 1042 C 99.0366 -2.38682 2.4045 0
M  V30 1043 C 97.5956 -2.92184 2.37288 0
M  V30 1044 C 96.7426 -1.6576 2.22304 0
M  V30 1045 H 99.6936 -0.531799 1.49525 0
M  V30 1046 H 99.7146 -3.19087 2.07276 0
M  V30 1047 H 99.2266 -1.91392 3.37625 0
M  V30 1048 H 97.3276 -3.43752 1.43754 0
M  V30 1049 H 97.4406 -3.45253 3.3217 0
M  V30 1050 H 95.8046 -1.9012 1.69489 0
M  V30 1051 H 96.5876 -1.20521 3.21449 0
M  V30 1052 N 99.0327 -1.24633 -0.964593 0
M  V30 1053 C 99.9797 -1.04144 -2.05968 0
M  V30 1054 C 100.95 0.046262 -1.66036 0
M  V30 1055 O 102.135 -0.108972 -1.90489 0
M  V30 1056 C 99.2747 -0.65563 -3.38815 0
M  V30 1057 C 98.3877 -1.81714 -3.91923 0
M  V30 1058 C 97.5227 -1.37662 -5.13052 0
M  V30 1059 C 96.5617 -2.50788 -5.58365 0
M  V30 1060 N 95.6987 -2.07582 -6.70712 0
M  V30 1061 H 100.539 -1.9787 -2.22827 0
M  V30 1062 H 98.0757 -0.9855 -1.09208 0
M  V30 1063 H 100.034 -0.412954 -4.15151 0
M  V30 1064 H 98.6637 0.244627 -3.21872 0
M  V30 1065 H 97.7157 -2.1734 -3.12198 0
M  V30 1066 H 99.0277 -2.66705 -4.21509 0
M  V30 1067 H 98.1817 -1.093 -5.96773 0
M  V30 1068 H 96.9207 -0.497293 -4.85158 0
M  V30 1069 H 95.9257 -2.79906 -4.73215 0
M  V30 1070 H 97.1507 -3.39283 -5.88272 0
M  V30 1071 H 95.0967 -1.22051 -6.44546 0
M  V30 1072 H 95.0137 -2.86125 -6.99763 0
M  V30 1073 H 96.2817 -1.82369 -7.57867 0
M  V30 1074 N 100.511 1.16574 -1.06058 0
M  V30 1075 C 101.444 2.19798 -0.61352 0
M  V30 1076 C 102.422 1.58509 0.362453 0
M  V30 1077 O 103.606 1.86527 0.271994 0
M  V30 1078 C 100.733 3.3855 0.100915 0
M  V30 1079 C 99.7788 4.18317 -0.831438 0
M  V30 1080 S 100.612 4.82375 -2.32539 0
M  V30 1081 C 101.768 6.04508 -1.62238 0
M  V30 1082 H 102.001 2.5738 -1.48805 0
M  V30 1083 H 99.5338 1.27327 -0.873338 0
M  V30 1084 H 101.492 4.07358 0.506898 0
M  V30 1085 H 100.153 2.99338 0.951604 0
M  V30 1086 H 99.3458 5.03232 -0.278071 0
M  V30 1087 H 98.9478 3.5499 -1.17719 0
M  V30 1088 H 101.24 6.71133 -0.926622 0
M  V30 1089 H 102.183 6.64389 -2.44934 0
M  V30 1090 H 102.591 5.53559 -1.106 0
M  V30 1091 N 101.989 0.842826 1.3317 0
M  V30 1092 C 103.235 0.441099 1.97945 0
M  V30 1093 C 103.568 -0.998024 1.66593 0
M  V30 1094 O 102.843 -1.69839 0.947898 0
M  V30 1095 C 103.126 0.666841 3.53872 0
M  V30 1096 C 102.979 2.15352 3.94897 0
M  V30 1097 C 104.298 0.115544 4.39948 0
M  V30 1098 H 101.417 0.161739 0.719034 0
M  V30 1099 H 104.059 1.05907 1.57746 0
M  V30 1100 H 102.209 0.140828 3.88245 0
M  V30 1101 H 103.881 2.7447 3.70761 0
M  V30 1102 H 102.124 2.63653 3.44484 0
M  V30 1103 H 102.795 2.26221 5.03516 0
M  V30 1104 H 105.271 0.565213 4.12243 0
M  V30 1105 H 104.147 0.303152 5.48062 0
M  V30 1106 H 104.408 -0.980935 4.3108 0
M  V30 1107 N 103.467 -1.45747 0.599634 0
M  V30 1108 C 104.692 -2.07178 0.0960198 0
M  V30 1109 C 105.117 -1.44268 -1.207 0
M  V30 1110 O 104.475 -0.532503 -1.73303 0
M  V30 1111 C 104.523 -3.60579 -0.0385348 0
M  V30 1112 O 103.627 -3.97713 -1.0908 0
M  V30 1113 H 102.968 -0.660251 0.0704593 0
M  V30 1114 H 105.498 -1.87124 0.827385 0
M  V30 1115 H 105.508 -4.07298 -0.239304 0
M  V30 1116 H 104.183 -4.05756 0.912947 0
M  V30 1117 H 102.76 -3.62678 -0.867135 0
M  V30 1118 N 104.945 -0.338344 -1.53925 0
M  V30 1119 C 106.191 0.260143 -2.01125 0
M  V30 1120 C 106.524 1.50617 -1.22589 0
M  V30 1121 O 105.799 1.91979 -0.312113 0
M  V30 1122 C 106.082 0.579499 -3.55407 0
M  V30 1123 C 105.935 -0.678264 -4.44657 0
M  V30 1124 C 107.254 1.39122 -4.17532 0
M  V30 1125 H 104.373 0.0930772 -0.731099 0
M  V30 1126 H 107.015 -0.457852 -1.84401 0
M  V30 1127 H 105.165 1.19118 -3.69788 0
M  V30 1128 H 106.837 -1.31631 -4.42121 0
M  V30 1129 H 105.08 -1.3042 -4.13731 0
M  V30 1130 H 105.751 -0.410143 -5.50474 0
M  V30 1131 H 108.227 0.874035 -4.06817 0
M  V30 1132 H 107.103 1.58342 -5.25565 0
M  V30 1133 H 107.364 2.39178 -3.71815 0
M  V30 1134 N 106.423 1.57458 -0.0668435 0
M  V30 1135 C 107.386 2.11323 0.887422 0
M  V30 1136 C 108.386 1.03618 1.22964 0
M  V30 1137 O 109.576 1.29626 1.16373 0
M  V30 1138 C 106.708 2.61048 2.19242 0
M  V30 1139 H 107.901 2.96942 0.420194 0
M  V30 1140 H 105.454 1.55239 0.181793 0
M  V30 1141 H 106.189 1.78868 2.70512 0
M  V30 1142 H 105.974 3.39769 1.95702 0
M  V30 1143 H 107.464 3.02814 2.87565 0
M  V30 1144 N 107.901 -0.206675 1.56239 0
M  V30 1145 C 109.317 -0.557025 1.49564 0
M  V30 1146 C 109.517 -1.86424 0.764735 0
M  V30 1147 O 108.573 -2.50584 0.310491 0
M  V30 1148 C 109.886 -0.622478 2.94186 0
M  V30 1149 C 111.434 -0.712099 3.04792 0
M  V30 1150 C 111.909 -0.808767 4.50803 0
M  V30 1151 N 113.4 -0.8726 4.54907 0
M  V30 1152 C 114.135 -0.967365 5.65181 0
M  V30 1153 N 113.631 -1.02515 6.85173 0
M  V30 1154 N 115.424 -1.00366 5.53067 0
M  V30 1155 H 107.575 0.650943 2.02179 0
M  V30 1156 H 109.838 0.230387 0.919579 0
M  V30 1157 H 109.544 0.268727 3.50672 0
M  V30 1158 H 109.418 -1.4811 3.46905 0
M  V30 1159 H 111.805 -1.59374 2.48363 0
M  V30 1160 H 111.886 0.172489 2.55218 0
M  V30 1161 H 111.53 0.0684754 5.07854 0
M  V30 1162 H 111.46 -1.70899 4.98098 0
M  V30 1163 H 113.951 -0.837657 3.68499 0
M  V30 1164 H 114.264 -1.09765 7.64965 0
M  V30 1165 H 112.609 -0.994026 6.87855 0
M  V30 1166 H 115.8 -0.95527 4.58249 0
M  V30 1167 H 115.973 -1.07405 6.39037 0
M  V30 1168 N 109.379 -1.50304 -0.473955 0
M  V30 1169 C 110.289 -1.7174 -1.5982 0
M  V30 1170 C 111.305 -0.600457 -1.63311 0
M  V30 1171 O 112.481 -0.878441 -1.81233 0
M  V30 1172 C 109.546 -1.80427 -2.96052 0
M  V30 1173 C 108.607 -3.04148 -3.02972 0
M  V30 1174 C 107.84 -3.12411 -4.32706 0
M  V30 1175 O 108.063 -2.27542 -5.23049 0
M  V30 1176 O 106.997 -4.05113 -4.45159 0
M  V30 1177 H 110.823 -2.67035 -1.44657 0
M  V30 1178 H 108.408 -1.34366 -0.653148 0
M  V30 1179 H 110.29 -1.88338 -3.7697 0
M  V30 1180 H 108.965 -0.883156 -3.11419 0
M  V30 1181 H 107.872 -3.0174 -2.21142 0
M  V30 1182 H 109.205 -3.95829 -2.92541 0
M  V30 1183 N 110.857 0.726932 -1.39834 0
M  V30 1184 C 111.787 1.85405 -1.41941 0
M  V30 1185 C 112.768 1.67751 -0.281728 0
M  V30 1186 O 113.953 1.8795 -0.488717 0
M  V30 1187 C 111.083 3.23243 -1.2701 0
M  V30 1188 C 110.037 3.55549 -2.38262 0
M  V30 1189 C 109.363 4.9241 -2.08415 0
M  V30 1190 C 110.663 3.577 -3.80589 0
M  V30 1191 H 112.357 1.83899 -2.36266 0
M  V30 1192 H 109.903 0.883349 -1.13723 0
M  V30 1193 H 111.856 4.01775 -1.27103 0
M  V30 1194 H 110.58 3.25296 -0.291564 0
M  V30 1195 H 109.239 2.79351 -2.37399 0
M  V30 1196 H 108.887 4.91052 -1.0898 0
M  V30 1197 H 108.587 5.14992 -2.82943 0
M  V30 1198 H 110.111 5.73289 -2.10171 0
M  V30 1199 H 111.525 4.26293 -3.83337 0
M  V30 1200 H 109.922 3.91804 -4.54543 0
M  V30 1201 H 110.992 2.57328 -4.10987 0
M  V30 1202 N 112.336 1.25143 0.95797 0
M  V30 1203 C 113.564 1.12424 1.73691 0
M  V30 1204 C 113.979 -0.322304 1.86029 0
M  V30 1205 O 113.336 -1.22186 1.35561 0
M  V30 1206 C 113.387 1.76933 3.15241 0
M  V30 1207 O 113.108 3.15932 3.03511 0
M  V30 1208 C 114.609 1.6995 4.09429 0
M  V30 1209 H 111.829 0.3923 0.544373 0
M  V30 1210 H 114.373 1.6544 1.20207 0
M  V30 1211 H 112.528 1.27895 3.6568 0
M  V30 1212 H 112.942 3.47598 3.9278 0
M  V30 1213 H 114.416 2.19753 5.06372 0
M  V30 1214 H 114.893 0.662619 4.34173 0
M  V30 1215 H 115.499 2.18461 3.64904 0
M  V30 1216 N 113.814 -1.1601 1.06675 0
M  V30 1217 C 115.06 -1.86909 0.786945 0
M  V30 1218 C 115.393 -1.81717 -0.685018 0
M  V30 1219 O 114.668 -1.23551 -1.50218 0
M  V30 1220 C 114.951 -3.36313 1.28707 0
M  V30 1221 C 114.804 -3.50175 2.82308 0
M  V30 1222 C 116.123 -4.3084 0.898071 0
M  V30 1223 H 113.242 -0.678677 0.287343 0
M  V30 1224 H 115.884 -1.36336 1.32334 0
M  V30 1225 H 114.034 -3.79513 0.830768 0
M  V30 1226 H 115.706 -3.15886 3.36175 0
M  V30 1227 H 113.949 -2.91959 3.20847 0
M  V30 1228 H 114.62 -4.55116 3.12368 0
M  V30 1229 H 117.096 -3.95561 1.29114 0
M  V30 1230 H 115.972 -5.33876 1.27543 0
M  V30 1231 H 116.233 -4.41662 -0.196651 0
M  V30 1232 N 115.292 -0.849877 -1.32721 0
M  V30 1233 C 116.54 -0.450032 -1.97026 0
M  V30 1234 C 116.861 0.996604 -1.67609 0
M  V30 1235 O 116.131 1.6958 -0.980786 0
M  V30 1236 H 114.711 -0.163426 -0.728904 0
M  V30 1237 H 117.373 -1.08526 -1.6189 0
M  V30 1238 H 116.469 -0.591146 -3.0645 0
M  V30 1239 N 116.77 1.45427 -0.607355 0
M  V30 1240 C 118.019 2.01452 -0.100036 0
M  V30 1241 C 118.332 1.48159 1.27704 0
M  V30 1242 O 119.538 1.96159 1.87707 0
M  V30 1243 C 117.994 3.59672 -0.128158 0
M  V30 1244 C 117.602 4.21962 -1.50507 0
M  V30 1245 C 119.346 4.23262 0.323932 0
M  V30 1246 C 117.253 5.72333 -1.48959 0
M  V30 1247 H 116.183 0.75325 -0.0336299 0
M  V30 1248 H 118.834 1.66901 -0.76265 0
M  V30 1249 H 117.216 3.91411 0.601105 0
M  V30 1250 H 118.39 4.01796 -2.25602 0
M  V30 1251 H 116.705 3.70565 -1.89923 0
M  V30 1252 H 119.302 5.33522 0.354691 0
M  V30 1253 H 119.645 3.93921 1.34656 0
M  V30 1254 H 120.178 3.96239 -0.352056 0
M  V30 1255 H 116.917 6.06373 -2.48981 0
M  V30 1256 H 116.437 5.94691 -0.781214 0
M  V30 1257 H 118.116 6.35525 -1.21313 0
M  V30 1258 N 118.248 0.346503 1.53744 0
M  V30 1259 C 119.196 -0.52422 2.26616 0
M  V30 1260 C 120.19 -1.09948 1.28871 0
M  V30 1261 O 121.396 -1.04488 1.46568 0
M  V30 1262 H 117.771 -0.187743 0.728187 0
M  V30 1263 H 119.742 0.11239 2.98188 0
M  V30 1264 C 118.491 -1.66186 3.05414 0
M  V30 1265 H 117.814 -1.22848 3.80458 0
M  V30 1266 H 119.254 -2.24622 3.59612 0
M  V30 1267 C 117.713 -2.59302 2.1509 0
M  V30 1268 O 118.243 -3.61628 1.74895 0
M  V30 1269 N 116.449 -2.28055 1.8011 0
M  V30 1270 H 115.996 -1.44883 2.12994 0
M  V30 1271 H 115.954 -2.90615 1.19958 0
M  V30 1272 N 119.726 -1.57421 0.075193 0
M  V30 1273 C 120.974 -1.93236 -0.591974 0
M  V30 1274 C 121.295 -0.956241 -1.69944 0
M  V30 1275 O 120.565 -0.00494792 -1.95899 0
M  V30 1276 H 119.145 -0.713355 -0.22166 0
M  V30 1277 H 121.807 -1.9444 0.133848 0
M  V30 1278 H 120.903 -2.95131 -1.01509 0
M  V30 1279 N 121.204 0.198386 -1.56346 0
M  V30 1280 C 122.451 0.919286 -1.80431 0
M  V30 1281 C 122.779 1.83393 -0.647866 0
M  V30 1282 O 122.034 1.92236 0.366556 0
M  V30 1283 C 122.333 1.77031 -3.10475 0
M  V30 1284 C 121.999 1.00693 -4.39513 0
M  V30 1285 C 120.661 0.796145 -4.74568 0
M  V30 1286 C 123.013 0.469559 -5.19081 0
M  V30 1287 C 120.341 0.0364588 -5.86689 0
M  V30 1288 C 122.693 -0.2769 -6.31994 0
M  V30 1289 C 121.357 -0.49873 -6.65634 0
M  V30 1290 H 120.627 0.336391 -0.660244 0
M  V30 1291 H 123.274 0.185872 -1.90596 0
M  V30 1292 H 121.579 2.5723 -2.95533 0
M  V30 1293 H 123.276 2.33065 -3.26315 0
M  V30 1294 H 119.866 1.18122 -4.12001 0
M  V30 1295 H 124.05 0.619816 -4.92414 0
M  V30 1296 H 119.306 -0.145412 -6.11227 0
M  V30 1297 H 123.48 -0.700684 -6.92866 0
M  V30 1298 H 121.107 -1.0893 -7.52355 0
M  V30 1299 N 122.682 1.50554 0.465978 0
M  V30 1300 C 123.93 1.61479 1.21528 0
M  V30 1301 C 124.251 0.319596 1.92363 0
M  V30 1302 O 123.521 -0.663194 1.84333 0
M  V30 1303 H 122.101 0.595055 0.451573 0
M  V30 1304 H 124.763 1.87355 0.53704 0
M  V30 1305 H 123.859 2.42846 1.96042 0
M  V30 1306 N 124.16 -0.719506 1.40217 0
M  V30 1307 C 125.576 -1.02707 1.22161 0
M  V30 1308 C 125.776 -2.0128 0.0940557 0
M  V30 1309 O 124.832 -2.46452 -0.549318 0
M  V30 1310 C 126.145 -1.57454 2.56181 0
M  V30 1311 C 127.693 -1.69458 2.63159 0
M  V30 1312 C 128.168 -2.27611 3.97438 0
M  V30 1313 N 129.659 -2.35002 3.99159 0
M  V30 1314 C 130.394 -2.80972 4.99842 0
M  V30 1315 N 129.89 -3.26723 6.10921 0
M  V30 1316 N 131.683 -2.80321 4.87213 0
M  V30 1317 H 123.834 -0.0660492 2.12297 0
M  V30 1318 H 126.097 -0.0919077 0.943534 0
M  V30 1319 H 125.803 -0.924873 3.39321 0
M  V30 1320 H 125.677 -2.56036 2.76993 0
M  V30 1321 H 128.064 -2.33543 1.80393 0
M  V30 1322 H 128.145 -0.694867 2.46181 0
M  V30 1323 H 127.789 -1.6415 4.80643 0
M  V30 1324 H 127.719 -3.2829 4.11744 0
M  V30 1325 H 130.21 -2.02685 3.18947 0
M  V30 1326 H 130.523 -3.60355 6.8364 0
M  V30 1327 H 128.868 -3.24692 6.14492 0
M  V30 1328 H 132.059 -2.43912 3.9953 0
M  V30 1329 H 132.232 -3.15831 5.65822 0
M  V30 1330 N 125.638 -1.25649 -0.95132 0
M  V30 1331 C 126.887 -1.09988 -1.69073 0
M  V30 1332 C 127.2 0.358355 -1.92289 0
M  V30 1333 O 128.406 0.635466 -2.63958 0
M  V30 1334 C 126.862 -1.92012 -3.044 0
M  V30 1335 C 126.47 -3.42347 -2.88968 0
M  V30 1336 C 128.214 -1.8493 -3.82101 0
M  V30 1337 C 126.121 -4.16655 -4.19705 0
M  V30 1338 H 125.051 -0.407993 -0.63408 0
M  V30 1339 H 127.702 -1.49873 -1.05879 0
M  V30 1340 H 126.084 -1.44952 -3.68517 0
M  V30 1341 H 127.258 -3.97104 -2.33762 0
M  V30 1342 H 125.573 -3.50557 -2.24719 0
M  V30 1343 H 128.17 -2.37739 -4.78941 0
M  V30 1344 H 128.513 -0.817883 -4.08187 0
M  V30 1345 H 129.046 -2.29758 -3.2474 0
M  V30 1346 H 125.785 -5.20224 -3.98807 0
M  V30 1347 H 125.305 -3.66681 -4.74663 0
M  V30 1348 H 126.984 -4.24551 -4.88227 0
M  V30 1349 N 127.117 1.15442 -1.07289 0
M  V30 1350 C 128.365 1.85845 -0.794096 0
M  V30 1351 C 128.686 1.82692 0.681809 0
M  V30 1352 O 127.956 1.26741 1.49377 0
M  V30 1353 H 126.536 0.688089 -0.290763 0
M  V30 1354 H 129.198 1.39947 -1.3565 0
M  V30 1355 H 128.294 2.91001 -1.12804 0
M  V30 1356 N 128.595 0.856903 1.32268 0
M  V30 1357 C 130.011 0.547061 1.49931 0
M  V30 1358 C 130.211 -0.921781 1.7918 0
M  V30 1359 O 129.267 -1.70469 1.8627 0
M  V30 1360 C 130.58 1.43599 2.64196 0
M  V30 1361 C 132.128 1.43665 2.78081 0
M  V30 1362 C 132.603 2.31085 3.95428 0
M  V30 1363 N 134.094 2.28893 4.02694 0
M  V30 1364 C 134.829 2.93262 4.92732 0
M  V30 1365 N 134.325 3.66751 5.87763 0
M  V30 1366 N 136.118 2.82638 4.85873 0
M  V30 1367 H 128.269 1.8075 1.11549 0
M  V30 1368 H 130.532 0.772144 0.549997 0
M  V30 1369 H 130.238 2.48058 2.49319 0
M  V30 1370 H 130.112 1.12502 3.60032 0
M  V30 1371 H 132.499 0.399701 2.92381 0
M  V30 1372 H 132.58 1.7878 1.82952 0
M  V30 1373 H 132.224 3.34849 3.81888 0
M  V30 1374 H 132.154 1.93302 4.89839 0
M  V30 1375 H 134.645 1.75466 3.34694 0
M  V30 1376 H 134.958 4.13027 6.53168 0
M  V30 1377 H 133.303 3.70859 5.87783 0
M  V30 1378 H 136.494 2.24774 4.10602 0
M  V30 1379 H 136.667 3.33084 5.55841 0
M  V30 1380 N 130.073 -1.45103 0.615059 0
M  V30 1381 C 131.003 -2.33339 -0.0865619 0
M  V30 1382 C 131.984 -1.4727 -0.851209 0
M  V30 1383 O 133.169 -1.76026 -0.820281 0
M  V30 1384 C 130.299 -3.30095 -1.07956 0
M  V30 1385 C 129.253 -4.25858 -0.427628 0
M  V30 1386 C 128.579 -5.12361 -1.5294 0
M  V30 1387 C 129.879 -5.18165 0.655944 0
M  V30 1388 H 131.573 -2.92254 0.650224 0
M  V30 1389 H 129.119 -1.40532 0.314138 0
M  V30 1390 H 131.072 -3.90698 -1.57901 0
M  V30 1391 H 129.796 -2.69355 -1.84703 0
M  V30 1392 H 128.455 -3.66564 0.0510292 0
M  V30 1393 H 128.103 -4.47984 -2.28734 0
M  V30 1394 H 127.803 -5.77238 -1.09865 0
M  V30 1395 H 129.327 -5.75833 -2.03098 0
M  V30 1396 H 130.741 -5.72796 0.240257 0
M  V30 1397 H 129.138 -5.91559 1.00888 0
M  V30 1398 H 130.208 -4.60144 1.52957 0
M  V30 1399 N 131.551 -0.354651 -1.53558 0
M  V30 1400 C 132.797 0.238797 -2.01389 0
M  V30 1401 C 133.13 1.49309 -1.2418 0
M  V30 1402 O 132.405 1.91638 -0.332457 0
M  V30 1403 C 132.688 0.541771 -3.56001 0
M  V30 1404 C 132.541 -0.725388 -4.43912 0
M  V30 1405 C 133.86 1.34685 -4.18984 0
M  V30 1406 H 130.979 0.0853177 -0.732045 0
M  V30 1407 H 133.621 -0.477384 -1.83905 0
M  V30 1408 H 131.771 1.15189 -3.71031 0
M  V30 1409 H 133.443 -1.36313 -4.407 0
M  V30 1410 H 131.686 -1.34801 -4.12324 0
M  V30 1411 H 132.357 -0.468505 -5.50008 0
M  V30 1412 H 134.833 0.830837 -4.07721 0
M  V30 1413 H 133.709 1.52759 -5.27215 0
M  V30 1414 H 133.97 2.35221 -3.74331 0
M  V30 1415 N 133.029 1.57378 -0.0835403 0
M  V30 1416 C 133.959 2.1641 0.87686 0
M  V30 1417 C 134.94 1.09429 1.30228 0
M  V30 1418 O 136.125 1.37516 1.37124 0
M  V30 1419 C 133.255 2.73517 2.14022 0
M  V30 1420 C 132.209 3.85769 1.85381 0
M  V30 1421 C 131.535 4.29529 3.18448 0
M  V30 1422 C 132.835 5.09486 1.14984 0
M  V30 1423 H 134.529 2.96914 0.385059 0
M  V30 1424 H 132.075 1.42823 0.18377 0
M  V30 1425 H 134.028 3.13463 2.81636 0
M  V30 1426 H 132.752 1.90252 2.65465 0
M  V30 1427 H 131.411 3.46345 1.20169 0
M  V30 1428 H 131.059 3.43169 3.67755 0
M  V30 1429 H 130.759 5.05204 3.00071 0
M  V30 1430 H 132.283 4.72099 3.8724 0
M  V30 1431 H 133.697 5.46674 1.72687 0
M  V30 1432 H 132.094 5.90515 1.06826 0
M  V30 1433 H 133.164 4.84724 0.130749 0
M  V30 1434 N 134.507 -0.190092 1.56449 0
M  V30 1435 C 135.923 -0.54113 1.50146 0
M  V30 1436 C 136.123 -1.85603 0.784465 0
M  V30 1437 O 135.179 -2.5024 0.337051 0
M  V30 1438 C 136.492 -0.591241 2.9483 0
M  V30 1439 C 138.04 -0.679732 3.0553 0
M  V30 1440 C 138.515 -0.760908 4.51635 0
M  V30 1441 N 140.006 -0.824302 4.55806 0
M  V30 1442 C 140.741 -0.907365 5.66175 0
M  V30 1443 N 140.237 -0.952422 6.86222 0
M  V30 1444 N 142.03 -0.94494 5.541 0
M  V30 1445 H 134.181 0.67235 2.01478 0
M  V30 1446 H 136.444 0.240127 0.917084 0
M  V30 1447 H 136.15 0.305905 3.50367 0
M  V30 1448 H 136.024 -1.44422 3.48457 0
M  V30 1449 H 138.411 -1.56731 2.50039 0
M  V30 1450 H 138.492 0.199549 2.5502 0
M  V30 1451 H 138.136 0.122336 5.07753 0
M  V30 1452 H 138.066 -1.65606 4.99882 0
M  V30 1453 H 140.557 -0.798526 3.69367 0
M  V30 1454 H 140.87 -1.01645 7.66086 0
M  V30 1455 H 139.215 -0.921014 6.8887 0
M  V30 1456 H 142.406 -0.906612 4.59236 0
M  V30 1457 H 142.579 -1.00622 6.4014 0
M  V30 1458 N 135.985 -1.50799 -0.457987 0
M  V30 1459 C 136.948 -1.7005 -1.53674 0
M  V30 1460 C 137.948 -0.570881 -1.50325 0
M  V30 1461 O 139.138 -0.838126 -1.52712 0
M  V30 1462 C 136.27 -1.73788 -2.93276 0
M  V30 1463 H 137.463 -2.66306 -1.37917 0
M  V30 1464 H 135.016 -1.40477 -0.685271 0
M  V30 1465 H 135.751 -0.792717 -3.14462 0
M  V30 1466 H 135.536 -2.55864 -2.97113 0
M  V30 1467 H 137.026 -1.90591 -3.71571 0
M  V30 1468 N 137.463 0.71206 -1.40597 0
M  V30 1469 C 138.703 1.48438 -1.40519 0
M  V30 1470 C 139.067 1.91998 -0.00767611 0
M  V30 1471 O 140.268 2.6854 0.118239 0
M  V30 1472 C 138.539 2.67514 -2.37004 0
M  V30 1473 S 140.098 3.56875 -2.55315 0
M  V30 1474 H 136.916 0.507457 -0.498005 0
M  V30 1475 H 139.518 0.832355 -1.76896 0
M  V30 1476 H 138.222 2.33689 -3.37368 0
M  V30 1477 H 137.753 3.37625 -2.01923 0
M  V30 1478 H 139.768 4.62081 -1.8082 0
M  V30 1479 N 138.941 1.26152 0.944643 0
M  V30 1480 C 139.874 1.01729 2.04271 0
M  V30 1481 C 140.852 -0.0568101 1.62501 0
M  V30 1482 O 142.036 0.0848987 1.88309 0
M  V30 1483 C 139.163 0.539792 3.34371 0
M  V30 1484 C 138.209 1.60593 3.9511 0
M  V30 1485 S 139.042 3.19392 4.29825 0
M  V30 1486 C 140.198 2.73402 5.63029 0
M  V30 1487 H 140.431 1.94703 2.24673 0
M  V30 1488 H 137.964 1.09793 1.08558 0
M  V30 1489 H 139.922 0.270956 4.09605 0
M  V30 1490 H 138.583 -0.369609 3.11918 0
M  V30 1491 H 137.776 1.22275 4.88943 0
M  V30 1492 H 137.378 1.82596 3.26397 0
M  V30 1493 H 139.67 2.1765 6.41588 0
M  V30 1494 H 140.613 3.65913 6.06229 0
M  V30 1495 H 141.021 2.13077 5.22741 0
M  V30 1496 N 140.419 -1.14872 1.07899 0
M  V30 1497 C 141.329 -2.2341 0.715915 0
M  V30 1498 C 142.345 -1.71808 -0.275306 0
M  V30 1499 O 143.521 -2.01039 -0.120545 0
M  V30 1500 C 140.586 -3.46474 0.125168 0
M  V30 1501 C 139.647 -4.13039 1.17034 0
M  V30 1502 C 138.88 -5.30229 0.607688 0
M  V30 1503 O 139.103 -5.675 -0.574497 0
M  V30 1504 O 138.037 -5.86444 1.35526 0
M  V30 1505 H 141.863 -2.56808 1.62121 0
M  V30 1506 H 139.448 -1.22702 0.852322 0
M  V30 1507 H 141.33 -4.20917 -0.201729 0
M  V30 1508 H 140.005 -3.14811 -0.753364 0
M  V30 1509 H 138.912 -3.40493 1.54968 0
M  V30 1510 H 140.245 -4.48796 2.02097 0
M  V30 1511 N 141.898 -0.863906 -1.31812 0
M  V30 1512 C 142.845 -0.313303 -2.28664 0
M  V30 1513 C 143.815 0.584868 -1.55462 0
M  V30 1514 O 145 0.517805 -1.83639 0
M  V30 1515 C 142.14 0.48441 -3.41683 0
M  V30 1516 C 141.253 -0.440594 -4.29747 0
M  V30 1517 C 140.388 0.370652 -5.29905 0
M  V30 1518 C 139.427 -0.551164 -6.09613 0
M  V30 1519 N 138.564 0.223462 -7.01744 0
M  V30 1520 H 143.404 -1.14444 -2.75148 0
M  V30 1521 H 140.941 -0.575769 -1.35364 0
M  V30 1522 H 142.899 0.962627 -4.05943 0
M  V30 1523 H 141.529 1.28029 -2.96325 0
M  V30 1524 H 140.581 -1.03724 -3.65986 0
M  V30 1525 H 141.893 -1.14767 -4.85417 0
M  V30 1526 H 141.047 0.911638 -5.99812 0
M  V30 1527 H 139.786 1.11105 -4.74876 0
M  V30 1528 H 138.791 -1.10396 -5.38603 0
M  V30 1529 H 140.016 -1.29032 -6.66729 0
M  V30 1530 H 137.962 0.946787 -6.49132 0
M  V30 1531 H 137.879 -0.424399 -7.54808 0
M  V30 1532 H 139.147 0.745876 -7.75923 0
M  V30 1533 N 143.376 1.44774 -0.622745 0
M  V30 1534 C 144.624 2.01721 -0.123655 0
M  V30 1535 C 144.945 1.49172 1.25589 0
M  V30 1536 O 144.215 0.691974 1.83272 0
M  V30 1537 H 142.795 0.745777 -0.0427225 0
M  V30 1538 H 145.457 1.77382 -0.807559 0
M  V30 1539 H 144.553 3.11984 -0.0849534 0
M  V30 1540 N 144.854 0.36279 1.53368 0
M  V30 1541 C 146.1 -0.228113 2.01513 0
M  V30 1542 C 146.433 -1.48648 1.2497 0
M  V30 1543 O 145.708 -1.91459 0.342616 0
M  V30 1544 C 145.991 -0.522884 3.56284 0
M  V30 1545 C 145.844 0.74892 4.43521 0
M  V30 1546 C 147.163 -1.32461 4.19693 0
M  V30 1547 H 144.282 -0.0814343 0.732487 0
M  V30 1548 H 146.924 0.48713 1.83649 0
M  V30 1549 H 145.074 -1.1322 3.71636 0
M  V30 1550 H 146.746 1.38648 4.39971 0
M  V30 1551 H 144.989 1.36986 4.11603 0
M  V30 1552 H 145.66 0.497667 5.49752 0
M  V30 1553 H 148.136 -0.809203 4.08156 0
M  V30 1554 H 147.012 -1.49961 5.28018 0
M  V30 1555 H 147.273 -2.33232 3.75573 0
M  V30 1556 N 146.332 -1.57332 0.0918853 0
M  V30 1557 C 147.279 -2.13847 -0.868211 0
M  V30 1558 C 148.249 -1.05618 -1.28196 0
M  V30 1559 O 149.434 -1.33387 -1.36427 0
M  V30 1560 C 146.574 -2.72062 -2.12312 0
M  V30 1561 C 145.687 -3.94514 -1.7602 0
M  V30 1562 C 144.822 -4.40903 -2.96273 0
M  V30 1563 C 143.861 -5.55953 -2.56092 0
M  V30 1564 N 142.998 -5.97209 -3.69169 0
M  V30 1565 H 147.838 -2.95575 -0.379406 0
M  V30 1566 H 145.375 -1.46048 -0.175606 0
M  V30 1567 H 147.333 -3.03931 -2.858 0
M  V30 1568 H 145.963 -1.93068 -2.58698 0
M  V30 1569 H 145.015 -3.68979 -0.925135 0
M  V30 1570 H 146.327 -4.7802 -1.42472 0
M  V30 1571 H 145.481 -4.74539 -3.78018 0
M  V30 1572 H 144.22 -3.56291 -3.33029 0
M  V30 1573 H 143.225 -5.21948 -1.72773 0
M  V30 1574 H 144.45 -6.42311 -2.20484 0
M  V30 1575 H 142.396 -5.15543 -4.05649 0
M  V30 1576 H 142.313 -6.75504 -3.39456 0
M  V30 1577 H 143.581 -6.35475 -4.51434 0
M  V30 1578 N 147.81 0.181792 -1.56548 0
M  V30 1579 C 149.056 0.901431 -1.81665 0
M  V30 1580 C 149.389 1.82347 -0.668075 0
M  V30 1581 O 148.664 1.91669 0.330615 0
M  V30 1582 C 148.947 1.70618 -3.17115 0
M  V30 1583 C 148.8 0.807964 -4.42484 0
M  V30 1584 C 150.119 2.67605 -3.49393 0
M  V30 1585 H 147.238 0.32627 -0.660846 0
M  V30 1586 H 149.88 0.168134 -1.89255 0
M  V30 1587 H 148.03 2.33133 -3.10775 0
M  V30 1588 H 149.702 0.19649 -4.60881 0
M  V30 1589 H 147.945 0.115411 -4.33646 0
M  V30 1590 H 148.616 1.40632 -5.33785 0
M  V30 1591 H 151.092 2.15218 -3.56118 0
M  V30 1592 H 149.968 3.20985 -4.45264 0
M  V30 1593 H 150.229 3.47298 -2.73563 0
M  V30 1594 N 149.288 1.51039 0.449983 0
M  V30 1595 C 150.534 1.63322 1.20223 0
M  V30 1596 C 150.867 0.34241 1.91158 0
M  V30 1597 O 150.142 -0.657344 1.83055 0
M  V30 1598 C 150.425 2.82801 2.22925 0
M  V30 1599 C 150.278 4.21823 1.56157 0
M  V30 1600 C 151.597 2.97807 3.24035 0
M  V30 1601 H 148.716 0.594407 0.435718 0
M  V30 1602 H 151.358 1.83489 0.493136 0
M  V30 1603 H 149.508 2.65738 2.834 0
M  V30 1604 H 151.18 4.50526 0.991162 0
M  V30 1605 H 149.423 4.25105 0.864172 0
M  V30 1606 H 150.094 5.01391 2.30891 0
M  V30 1607 H 152.57 3.13497 2.73603 0
M  V30 1608 H 151.446 3.82992 3.93202 0
M  V30 1609 H 151.707 2.09328 3.89402 0
M  V30 1610 N 150.766 -0.704594 1.40972 0
M  V30 1611 C 151.729 -1.80035 1.41845 0
M  V30 1612 C 152.729 -1.57774 0.310474 0
M  V30 1613 O 153.919 -1.64613 0.56992 0
M  V30 1614 C 151.051 -3.18284 1.22098 0
M  V30 1615 H 152.244 -1.80658 2.3938 0
M  V30 1616 H 149.797 -0.911329 1.26982 0
M  V30 1617 H 150.532 -3.23306 0.253672 0
M  V30 1618 H 150.317 -3.35843 2.02366 0
M  V30 1619 H 151.807 -3.98289 1.25522 0
M  V30 1620 N 152.244 -1.26651 -0.937939 0
M  V30 1621 C 153.49 -1.12553 -1.687 0
M  V30 1622 C 153.823 0.329782 -1.91379 0
M  V30 1623 O 153.098 1.24202 -1.4968 0
M  V30 1624 C 153.381 -1.89862 -3.05981 0
M  V30 1625 C 153.234 -3.43318 -2.90607 0
M  V30 1626 C 154.553 -1.69499 -4.0615 0
M  V30 1627 H 151.672 -0.410257 -0.612257 0
M  V30 1628 H 154.314 -1.55685 -1.08913 0
M  V30 1629 H 152.464 -1.53204 -3.57017 0
M  V30 1630 H 154.136 -3.89747 -2.46769 0
M  V30 1631 H 152.379 -3.70179 -2.26164 0
M  V30 1632 H 153.05 -3.92642 -3.8799 0
M  V30 1633 H 155.526 -2.01442 -3.64088 0
M  V30 1634 H 154.402 -2.26002 -5.00214 0
M  V30 1635 H 154.663 -0.640365 -4.37438 0
M  V30 1636 N 153.722 1.14298 -1.08507 0
M  V30 1637 C 154.67 2.21483 -0.710483 0
M  V30 1638 C 155.664 1.66998 0.284234 0
M  V30 1639 O 156.87 1.79401 0.146692 0
M  V30 1640 H 153.245 0.721578 -0.211729 0
M  V30 1641 H 155.216 2.50348 -1.62384 0
M  V30 1642 C 153.965 3.4743 -0.137007 0
M  V30 1643 H 153.288 3.89686 -0.893592 0
M  V30 1644 H 154.728 4.2391 0.0872789 0
M  V30 1645 C 153.187 3.17548 1.12538 0
M  V30 1646 O 153.717 3.35437 2.21009 0
M  V30 1647 N 151.923 2.71499 1.03617 0
M  V30 1648 H 151.47 2.57143 0.153403 0
M  V30 1649 H 151.428 2.51881 1.88158 0
M  V30 1650 N 155.201 0.870884 1.31352 0
M  V30 1651 C 156.478 0.402907 1.91405 0
M  V30 1652 C 156.858 -1.11512 1.79244 0
M  V30 1653 O 156.206 -1.94411 1.2007 0
M  V30 1654 C 156.416 0.885301 3.37585 0
M  V30 1655 C 157.764 0.911971 4.14691 0
M  V30 1656 O 158.788 0.831016 3.46371 0
M  V30 1657 O 157.647 1.02927 5.3672 0
M  V30 1658 H 154.741 0.120698 0.818145 0
M  V30 1659 H 157.287 0.958857 1.40014 0
M  V30 1660 H 156.059 1.92889 3.40455 0
M  V30 1661 H 155.682 0.307714 3.96407 0
M  V30 1662 N 156.679 -1.44442 0.630414 0
M  V30 1663 C 158.09 -1.85434 0.217063 0
M  V30 1664 C 158.441 -1.52748 -1.23136 0
M  V30 1665 O 157.566 -0.965205 -1.93682 0
M  V30 1666 C 158.161 -3.36581 0.387168 0
M  V30 1667 C 156.72 -3.76389 0.0283297 0
M  V30 1668 C 155.867 -2.68296 0.700889 0
M  V30 1669 H 158.818 -1.34919 0.83562 0
M  V30 1670 H 158.839 -3.78657 -0.374086 0
M  V30 1671 H 158.351 -3.60339 1.44144 0
M  V30 1672 H 156.452 -3.58246 -1.02423 0
M  V30 1673 H 156.565 -4.77095 0.437892 0
M  V30 1674 H 154.929 -2.54335 0.136267 0
M  V30 1675 H 155.712 -2.94887 1.75774 0
M  V30 1676 N 158.157 -0.370918 -1.53173 0
M  V30 1677 C 159.404 0.217102 -2.01333 0
M  V30 1678 C 159.732 1.48338 -1.25802 0
M  V30 1679 O 158.987 1.92698 -0.34146 0
M  V30 1680 C 159.286 0.549696 -3.53147 0
M  V30 1681 C 158.952 -0.622872 -4.46577 0
M  V30 1682 C 157.614 -0.944595 -4.71838 0
M  V30 1683 C 159.966 -1.40819 -5.01816 0
M  V30 1684 C 157.294 -2.05351 -5.49589 0
M  V30 1685 C 159.646 -2.50757 -5.80778 0
M  V30 1686 C 158.31 -2.83458 -6.04324 0
M  V30 1687 H 157.58 0.0794431 -0.736729 0
M  V30 1688 H 160.227 -0.504481 -1.84736 0
M  V30 1689 H 158.532 1.35237 -3.6772 0
M  V30 1690 H 160.229 1.017 -3.87889 0
M  V30 1691 H 156.819 -0.36209 -4.27068 0
M  V30 1692 H 161.003 -1.17289 -4.82242 0
M  V30 1693 H 156.259 -2.3108 -5.6605 0
M  V30 1694 H 160.433 -3.12022 -6.22588 0
M  V30 1695 H 158.06 -3.69508 -6.64355 0
M  V30 1696 N 159.635 1.57281 -0.100228 0
M  V30 1697 C 160.884 1.93713 0.561984 0
M  V30 1698 C 161.197 0.984492 1.69018 0
M  V30 1699 O 162.403 1.24273 2.41389 0
M  V30 1700 C 160.859 3.4421 1.05106 0
M  V30 1701 C 160.467 4.47975 -0.0476628 0
M  V30 1702 C 162.211 3.89595 1.68571 0
M  V30 1703 C 160.118 5.89631 0.457055 0
M  V30 1704 H 159.048 0.723082 0.2137 0
M  V30 1705 H 161.699 1.82644 -0.177057 0
M  V30 1706 H 160.081 3.50449 1.84395 0
M  V30 1707 H 161.255 4.53385 -0.823333 0
M  V30 1708 H 159.57 4.1223 -0.587816 0
M  V30 1709 H 162.167 4.92832 2.07414 0
M  V30 1710 H 162.51 3.28526 2.55688 0
M  V30 1711 H 163.043 3.86078 0.958562 0
M  V30 1712 H 159.782 6.54411 -0.377616 0
M  V30 1713 H 159.302 5.87681 1.19962 0
M  V30 1714 H 160.981 6.40363 0.92437 0
M  V30 1715 N 161.113 -0.173488 1.56642 0
M  V30 1716 C 162.39 -0.917617 1.7274 0
M  V30 1717 C 162.77 -2.00484 0.661027 0
M  V30 1718 O 162.118 -2.26184 -0.32453 0
M  V30 1719 C 162.328 -1.48433 3.15862 0
M  V30 1720 C 163.676 -1.95809 3.76754 0
M  V30 1721 O 164.7 -1.58231 3.19126 0
M  V30 1722 O 163.559 -2.65024 4.77938 0
M  V30 1723 H 160.653 -0.431772 0.705338 0
M  V30 1724 H 163.199 -0.161487 1.6893 0
M  V30 1725 H 161.971 -0.701715 3.84957 0
M  V30 1726 H 161.594 -2.30471 3.23989 0
M  V30 1727 N 162.591 -1.51276 -0.441967 0
M  V30 1728 C 164.002 -1.56244 -1.02199 0
M  V30 1729 C 164.353 -0.383149 -1.92422 0
M  V30 1730 O 163.478 0.500613 -2.1053 0
M  V30 1731 C 164.073 -2.83162 -1.86024 0
M  V30 1732 C 162.632 -2.90716 -2.39084 0
M  V30 1733 C 161.779 -2.50858 -1.18175 0
M  V30 1734 H 164.73 -1.5712 -0.223416 0
M  V30 1735 H 164.751 -2.66663 -2.71425 0
M  V30 1736 H 164.263 -3.68974 -1.20331 0
M  V30 1737 H 162.364 -2.09323 -3.08244 0
M  V30 1738 H 162.477 -3.94266 -2.72198 0
M  V30 1739 H 160.841 -2.03951 -1.52565 0
M  V30 1740 H 161.624 -3.3901 -0.541001 0
M  V30 1741 N 164.069 0.697108 -1.41344 0
M  V30 1742 C 164.979 1.84088 -1.45427 0
M  V30 1743 C 165.995 1.70545 -0.34501 0
M  V30 1744 O 167.171 1.92488 -0.592492 0
M  V30 1745 C 164.236 3.20056 -1.33286 0
M  V30 1746 C 163.297 3.45718 -2.54514 0
M  V30 1747 C 162.53 4.75199 -2.42944 0
M  V30 1748 O 162.753 5.51579 -1.45318 0
M  V30 1749 O 161.687 5.0161 -3.32672 0
M  V30 1750 H 165.513 1.836 -2.41919 0
M  V30 1751 H 163.098 0.849966 -1.22866 0
M  V30 1752 H 164.98 4.01236 -1.28794 0
M  V30 1753 H 163.655 3.2123 -0.39909 0
M  V30 1754 H 162.562 2.64474 -2.64583 0
M  V30 1755 H 163.895 3.49356 -3.46715 0
M  V30 1756 N 165.547 1.27147 0.931209 0
M  V30 1757 C 166.777 1.15914 1.71019 0
M  V30 1758 C 167.185 -0.287112 1.87009 0
M  V30 1759 O 166.528 -1.20761 1.38429 0
M  V30 1760 C 166.59 1.76647 3.13107 0
M  V30 1761 C 166.254 3.25807 3.20467 0
M  V30 1762 C 167.251 4.22489 3.02983 0
M  V30 1763 C 164.936 3.66452 3.43538 0
M  V30 1764 C 166.93 5.57794 3.08454 0
M  V30 1765 C 164.617 5.01888 3.48643 0
M  V30 1766 C 165.615 5.97369 3.31119 0
M  V30 1767 O 165.303 7.30337 3.35952 0
M  V30 1768 H 165.035 0.404062 0.54195 0
M  V30 1769 H 167.589 1.68457 1.17521 0
M  V30 1770 H 165.819 1.18578 3.68071 0
M  V30 1771 H 167.508 1.60179 3.72958 0
M  V30 1772 H 168.274 3.92425 2.85004 0
M  V30 1773 H 164.153 2.92611 3.5623 0
M  V30 1774 H 167.697 6.32298 2.94694 0
M  V30 1775 H 163.594 5.31609 3.66145 0
M  V30 1776 H 164.362 7.38739 3.5243 0
M  V30 1777 N 167.025 -1.13721 1.09112 0
M  V30 1778 C 167.958 -2.18094 0.67158 0
M  V30 1779 C 168.936 -1.59414 -0.320299 0
M  V30 1780 O 170.12 -1.87183 -0.222444 0
M  V30 1781 C 167.247 -3.38698 -0.0111189 0
M  V30 1782 C 166.293 -4.15966 0.942055 0
M  V30 1783 S 167.126 -4.7604 2.45246 0
M  V30 1784 C 168.282 -5.99994 1.78208 0
M  V30 1785 H 168.515 -2.53344 1.55577 0
M  V30 1786 H 166.048 -1.24967 0.906789 0
M  V30 1787 H 168.006 -4.08559 -0.398716 0
M  V30 1788 H 166.667 -3.01756 -0.871905 0
M  V30 1789 H 165.86 -5.02318 0.411396 0
M  V30 1790 H 165.462 -3.51745 1.2709 0
M  V30 1791 H 167.754 -6.68441 1.10424 0
M  V30 1792 H 168.697 -6.57662 2.62463 0
M  V30 1793 H 169.105 -5.50432 1.25238 0
M  V30 1794 N 168.503 -0.877838 -1.30888 0
M  V30 1795 C 169.749 -0.493426 -1.96706 0
M  V30 1796 C 170.082 0.953504 -1.6918 0
M  V30 1797 O 169.357 1.67266 -0.992594 0
M  V30 1798 C 169.64 -0.760429 -3.51979 0
M  V30 1799 C 169.493 -2.25747 -3.89048 0
M  V30 1800 C 170.812 -0.232148 -4.39487 0
M  V30 1801 H 167.931 -0.180746 -0.714493 0
M  V30 1802 H 170.573 -1.10052 -1.54882 0
M  V30 1803 H 168.723 -0.243715 -3.87735 0
M  V30 1804 H 170.395 -2.84204 -3.63354 0
M  V30 1805 H 168.638 -2.72694 -3.37373 0
M  V30 1806 H 169.309 -2.39491 -4.97341 0
M  V30 1807 H 171.785 -0.674314 -4.106 0
M  V30 1808 H 170.661 -0.448355 -5.47066 0
M  V30 1809 H 170.922 0.866297 -4.33529 0
M  V30 1810 N 169.982 1.44106 -0.638065 0
M  V30 1811 C 171.212 2.06037 -0.152394 0
M  V30 1812 C 171.62 1.47808 1.18108 0
M  V30 1813 O 170.963 0.598092 1.73691 0
M  V30 1814 C 171.025 3.59488 0.0293714 0
M  V30 1815 C 170.689 4.4022 -1.22702 0
M  V30 1816 C 171.686 4.73256 -2.15232 0
M  V30 1817 C 169.371 4.8048 -1.46437 0
M  V30 1818 C 171.365 5.45444 -3.29802 0
M  V30 1819 C 169.052 5.52417 -2.61303 0
M  V30 1820 C 170.05 5.84819 -3.52811 0
M  V30 1821 O 169.738 6.55289 -4.65673 0
M  V30 1822 H 169.47 0.671233 -0.0801401 0
M  V30 1823 H 172.024 1.85851 -0.874563 0
M  V30 1824 H 170.254 3.78191 0.806758 0
M  V30 1825 H 171.943 4.03164 0.470475 0
M  V30 1826 H 172.709 4.42684 -1.98131 0
M  V30 1827 H 168.588 4.54676 -0.760977 0
M  V30 1828 H 172.132 5.70653 -4.01249 0
M  V30 1829 H 168.029 5.82404 -2.78344 0
M  V30 1830 H 168.797 6.73762 -4.64744 0
M  V30 1831 N 171.46 0.379036 1.52974 0
M  V30 1832 C 172.393 -0.504932 2.22544 0
M  V30 1833 C 173.371 -1.0723 1.22231 0
M  V30 1834 O 174.555 -1.12589 1.51182 0
M  V30 1835 C 171.682 -1.69794 2.93066 0
M  V30 1836 C 170.728 -1.25678 4.07563 0
M  V30 1837 S 171.561 -0.246852 5.34931 0
M  V30 1838 C 172.717 -1.44588 6.08971 0
M  V30 1839 H 172.95 0.0858666 2.97176 0
M  V30 1840 H 170.483 0.163183 1.53535 0
M  V30 1841 H 172.441 -2.38219 3.34308 0
M  V30 1842 H 171.102 -2.26002 2.18133 0
M  V30 1843 H 170.295 -2.14725 4.5597 0
M  V30 1844 H 169.897 -0.651584 3.6828 0
M  V30 1845 H 172.189 -2.37469 6.34519 0
M  V30 1846 H 173.132 -1.00292 7.00962 0
M  V30 1847 H 173.54 -1.65804 5.39601 0
M  V30 1848 N 172.938 -1.57226 0.108567 0
M  V30 1849 C 174.185 -1.94833 -0.551943 0
M  V30 1850 C 174.513 -0.991204 -1.67348 0
M  V30 1851 O 173.768 -0.0131878 -1.95696 0
M  V30 1852 C 174.067 -3.38911 -1.13463 0
M  V30 1853 C 173.733 -4.50696 -0.135509 0
M  V30 1854 C 172.395 -4.80998 0.139252 0
M  V30 1855 C 174.747 -5.18333 0.545957 0
M  V30 1856 C 172.075 -5.76259 1.10194 0
M  V30 1857 C 174.427 -6.14627 1.49721 0
M  V30 1858 C 173.091 -6.43327 1.78006 0
M  V30 1859 H 172.361 -0.712944 -0.20197 0
M  V30 1860 H 175.008 -1.90582 0.18726 0
M  V30 1861 H 173.313 -3.39805 -1.95037 0
M  V30 1862 H 175.01 -3.65317 -1.65362 0
M  V30 1863 H 171.6 -4.27087 -0.359846 0
M  V30 1864 H 175.784 -4.95087 0.346842 0
M  V30 1865 H 171.04 -5.96804 1.32795 0
M  V30 1866 H 175.214 -6.66126 2.03099 0
M  V30 1867 H 172.841 -7.1695 2.52759 0
M  V30 1868 N 174.416 0.165178 -1.56732 0
M  V30 1869 C 175.363 1.2044 -1.96883 0
M  V30 1870 C 176.333 1.43664 -0.833657 0
M  V30 1871 O 177.518 1.56302 -1.09427 0
M  V30 1872 C 174.658 2.53727 -2.33916 0
M  V30 1873 C 173.771 2.3783 -3.6064 0
M  V30 1874 C 172.906 3.64026 -3.86857 0
M  V30 1875 C 171.945 3.43088 -5.06909 0
M  V30 1876 N 171.082 4.61369 -5.29229 0
M  V30 1877 H 175.922 0.854996 -2.85471 0
M  V30 1878 H 173.459 0.41076 -1.41249 0
M  V30 1879 H 175.417 3.31419 -2.53411 0
M  V30 1880 H 174.047 2.8665 -1.48431 0
M  V30 1881 H 173.099 1.51282 -3.49024 0
M  V30 1882 H 174.411 2.18308 -4.4849 0
M  V30 1883 H 173.565 4.50152 -4.06753 0
M  V30 1884 H 172.304 3.86533 -2.97394 0
M  V30 1885 H 171.309 2.55349 -4.86906 0
M  V30 1886 H 172.534 3.21997 -5.97909 0
M  V30 1887 H 170.48 4.84084 -4.42718 0
M  V30 1888 H 170.397 4.44783 -6.11313 0
M  V30 1889 H 171.665 5.48761 -5.53608 0
M  V30 1890 N 175.894 1.51508 0.433938 0
M  V30 1891 C 177.124 1.67914 1.20369 0
M  V30 1892 C 177.532 0.377461 1.85397 0
M  V30 1893 O 176.875 -0.654255 1.71654 0
M  V30 1894 C 176.937 2.74045 2.32679 0
M  V30 1895 C 176.601 4.16543 1.87991 0
M  V30 1896 C 177.598 5.01211 1.38145 0
M  V30 1897 C 175.283 4.6266 1.95579 0
M  V30 1898 C 177.277 6.30056 0.964774 0
M  V30 1899 C 174.964 5.91501 1.53523 0
M  V30 1900 C 175.962 6.75027 1.04055 0
M  V30 1901 O 175.65 8.01459 0.625964 0
M  V30 1902 H 175.382 0.566578 0.368735 0
M  V30 1903 H 177.936 1.98709 0.51999 0
M  V30 1904 H 176.166 2.38572 3.04336 0
M  V30 1905 H 177.855 2.79295 2.94532 0
M  V30 1906 H 178.621 4.66783 1.31675 0
M  V30 1907 H 174.5 3.97767 2.33029 0
M  V30 1908 H 178.044 6.95202 0.57796 0
M  V30 1909 H 173.941 6.25442 1.59665 0
M  V30 1910 H 174.709 8.15043 0.751509 0
M  V30 1911 N 177.372 -0.689602 1.41712 0
M  V30 1912 C 178.649 -1.44457 1.31877 0
M  V30 1913 C 179.029 -2.11039 -0.0508537 0
M  V30 1914 O 178.377 -2.02138 -1.06547 0
M  V30 1915 C 178.587 -2.45913 2.47645 0
M  V30 1916 C 179.935 -3.10991 2.89084 0
M  V30 1917 O 180.959 -2.56238 2.47428 0
M  V30 1918 O 179.818 -4.10174 3.61137 0
M  V30 1919 H 176.912 -0.64362 0.519309 0
M  V30 1920 H 179.458 -0.719576 1.53689 0
M  V30 1921 H 178.23 -1.95409 3.39015 0
M  V30 1922 H 177.853 -3.25913 2.27742 0
M  V30 1923 N 178.85 -1.27639 -0.924453 0
M  V30 1924 C 180.075 -1.17101 -1.71179 0
M  V30 1925 C 180.5 0.268134 -1.86179 0
M  V30 1926 O 179.858 1.19415 -1.36418 0
M  V30 1927 C 179.906 -1.86313 -3.08739 0
M  V30 1928 O 179.01 -1.16331 -3.95652 0
M  V30 1929 H 178.351 -0.407091 -0.524569 0
M  V30 1930 H 180.881 -1.68767 -1.15666 0
M  V30 1931 H 180.891 -1.938 -3.59034 0
M  V30 1932 H 179.566 -2.91001 -2.97138 0
M  V30 1933 H 178.143 -1.16935 -3.54091 0
M  V30 1934 N 180.328 1.1314 -1.09713 0
M  V30 1935 C 181.556 1.88321 -0.856898 0
M  V30 1936 C 181.971 1.79276 0.592073 0
M  V30 1937 O 181.328 1.16142 1.40774 0
M  V30 1938 C 181.379 3.37812 -1.28706 0
M  V30 1939 O 181.1 3.46627 -2.67921 0
M  V30 1940 C 182.601 4.29952 -1.07964 0
M  V30 1941 H 179.821 0.596094 -0.308079 0
M  V30 1942 H 182.365 1.43205 -1.45988 0
M  V30 1943 H 180.52 3.805 -0.727912 0
M  V30 1944 H 180.934 4.39579 -2.8613 0
M  V30 1945 H 182.408 5.33159 -1.42986 0
M  V30 1946 H 182.885 4.39196 -0.0176577 0
M  V30 1947 H 183.491 3.93036 -1.62489 0
M  V30 1948 N 181.806 0.884767 1.30421 0
M  V30 1949 C 182.756 0.322846 2.25703 0
M  V30 1950 C 183.74 -0.548582 1.51259 0
M  V30 1951 O 184.932 -0.39304 1.72581 0
M  V30 1952 C 182.061 -0.461787 3.4018 0
M  V30 1953 C 181.147 0.423717 4.21978 0
M  V30 1954 N 181.538 1.52408 4.82292 0
M  V30 1955 C 179.836 0.218795 4.45463 0
M  V30 1956 C 180.537 2.07136 5.43571 0
M  V30 1957 N 179.513 1.36635 5.26148 0
M  V30 1958 H 183.315 1.16363 2.69883 0
M  V30 1959 H 180.829 0.73415 1.44859 0
M  V30 1960 H 182.826 -0.880985 4.07485 0
M  V30 1961 H 181.486 -1.30001 2.9754 0
M  V30 1962 H 182.497 1.90693 4.81515 0
M  V30 1963 H 179.174 -0.582275 4.1342 0
M  V30 1964 H 180.564 2.99538 6.01437 0
M  V30 1965 N 183.284 -1.43765 0.645699 0
M  V30 1966 C 184.532 -2.01499 0.155731 0
M  V30 1967 C 184.853 -1.51151 -1.232 0
M  V30 1968 O 184.123 -0.721044 -1.82148 0
M  V30 1969 H 182.703 -0.745003 0.0545817 0
M  V30 1970 H 185.365 -1.76075 0.835677 0
M  V30 1971 H 184.461 -3.1181 0.134577 0
M  V30 1972 N 184.763 -0.387143 -1.52771 0
M  V30 1973 C 186.179 -0.037007 -1.59557 0
M  V30 1974 C 186.379 1.44801 -1.40124 0
M  V30 1975 O 185.435 2.21227 -1.21716 0
M  V30 1976 C 186.748 -0.512256 -2.96305 0
M  V30 1977 C 188.296 -0.468328 -3.09476 0
M  V30 1978 C 188.771 -0.919731 -4.4867 0
M  V30 1979 N 190.262 -0.875656 -4.54848 0
M  V30 1980 C 190.997 -1.19637 -5.6078 0
M  V30 1981 N 190.493 -1.58745 -6.74368 0
M  V30 1982 N 192.286 -1.11776 -5.50874 0
M  V30 1983 H 184.437 -1.35395 -1.63652 0
M  V30 1984 H 186.7 -0.554818 -0.768688 0
M  V30 1985 H 186.406 -1.54935 -3.15734 0
M  V30 1986 H 186.28 0.089805 -3.77093 0
M  V30 1987 H 188.667 0.559671 -2.89744 0
M  V30 1988 H 188.748 -1.10616 -2.30646 0
M  V30 1989 H 188.392 -1.94595 -4.69143 0
M  V30 1990 H 188.322 -0.258927 -5.25963 0
M  V30 1991 H 190.813 -0.587843 -3.733 0
M  V30 1992 H 191.126 -1.81586 -7.51163 0
M  V30 1993 H 189.471 -1.6263 -6.75705 0
M  V30 1994 H 192.662 -0.811264 -4.61016 0
M  V30 1995 H 192.835 -1.37103 -6.3333 0
M  V30 1996 N 186.241 1.57166 -0.116904 0
M  V30 1997 C 187.471 1.99184 0.548586 0
M  V30 1998 C 187.879 0.995436 1.60897 0
M  V30 1999 O 187.222 -0.0201293 1.83689 0
M  V30 2000 C 187.284 3.37611 1.23526 0
M  V30 2001 C 186.948 4.55857 0.323077 0
M  V30 2002 C 187.945 5.18056 -0.437476 0
M  V30 2003 C 185.63 5.01751 0.234761 0
M  V30 2004 C 187.624 6.24536 -1.2741 0
M  V30 2005 C 185.311 6.08093 -0.605496 0
M  V30 2006 C 186.309 6.69352 -1.35856 0
M  V30 2007 O 185.997 7.7364 -2.18487 0
M  V30 2008 H 185.729 0.659148 0.149999 0
M  V30 2009 H 188.283 2.0443 -0.199428 0
M  V30 2010 H 186.513 3.29113 2.0303 0
M  V30 2011 H 188.202 3.63932 1.79745 0
M  V30 2012 H 188.968 4.83516 -0.379105 0
M  V30 2013 H 184.847 4.53817 0.810601 0
M  V30 2014 H 188.391 6.72281 -1.86237 0
M  V30 2015 H 184.288 6.42063 -0.665268 0
M  V30 2016 H 185.056 7.90727 -2.11406 0
M  V30 2017 N 187.719 -0.156864 1.56817 0
M  V30 2018 C 188.666 -1.19394 1.97519 0
M  V30 2019 C 189.636 -1.4322 0.841265 0
M  V30 2020 O 190.821 -1.55719 1.10255 0
M  V30 2021 C 187.961 -2.52483 2.35258 0
M  V30 2022 C 187.074 -2.35914 3.61896 0
M  V30 2023 C 186.209 -3.61969 3.88782 0
M  V30 2024 C 185.248 -3.40395 5.08722 0
M  V30 2025 N 184.385 -4.58556 5.31668 0
M  V30 2026 H 189.225 -0.839845 2.85921 0
M  V30 2027 H 186.762 -0.403264 1.41464 0
M  V30 2028 H 188.72 -3.30071 2.55165 0
M  V30 2029 H 187.35 -2.85859 1.49949 0
M  V30 2030 H 186.402 -1.49429 3.49821 0
M  V30 2031 H 187.714 -2.15926 4.49641 0
M  V30 2032 H 186.868 -4.47989 4.09135 0
M  V30 2033 H 185.607 -3.84951 2.9944 0
M  V30 2034 H 184.612 -2.52763 4.88253 0
M  V30 2035 H 185.837 -3.18822 5.99608 0
M  V30 2036 H 183.783 -4.81729 4.45279 0
M  V30 2037 H 183.7 -4.41535 6.13664 0
M  V30 2038 H 184.968 -5.45817 5.5651 0
M  V30 2039 N 189.197 -1.51736 -0.425897 0
M  V30 2040 C 190.445 -1.64644 -1.17204 0
M  V30 2041 C 190.766 -0.370486 -1.91448 0
M  V30 2042 O 190.036 0.614088 -1.86026 0
M  V30 2043 H 188.616 -0.606819 -0.435638 0
M  V30 2044 H 191.278 -1.88713 -0.487177 0
M  V30 2045 H 190.374 -2.47958 -1.89534 0
M  V30 2046 N 190.675 0.682077 -1.42076 0
M  V30 2047 C 191.9 1.47558 -1.45744 0
M  V30 2048 C 192.325 1.87977 -0.0680981 0
M  V30 2049 O 191.683 1.55522 0.9318 0
M  V30 2050 C 191.731 2.70575 -2.38373 0
M  V30 2051 O 190.835 3.68573 -1.85007 0
M  V30 2052 H 190.176 0.443585 -0.494093 0
M  V30 2053 H 192.706 0.837238 -1.86686 0
M  V30 2054 H 192.716 3.18729 -2.54707 0
M  V30 2055 H 191.391 2.40495 -3.39315 0
M  V30 2056 H 189.968 3.2757 -1.78192 0
M  V30 2057 N 192.153 1.28127 0.917671 0
M  V30 2058 C 193.399 1.15223 1.66888 0
M  V30 2059 C 193.732 -0.299293 1.9188 0
M  V30 2060 O 193.007 -1.21805 1.51637 0
M  V30 2061 C 193.29 1.94706 3.02922 0
M  V30 2062 C 193.143 3.47898 2.85109 0
M  V30 2063 C 194.462 1.75939 4.03402 0
M  V30 2064 H 191.581 0.419946 0.605652 0
M  V30 2065 H 194.223 1.57398 1.06423 0
M  V30 2066 H 192.373 1.58864 3.54534 0
M  V30 2067 H 194.045 3.93624 2.40537 0
M  V30 2068 H 192.288 3.7373 2.20246 0
M  V30 2069 H 192.959 3.98765 3.81694 0
M  V30 2070 H 195.435 2.07209 3.60837 0
M  V30 2071 H 194.311 2.33931 4.96556 0
M  V30 2072 H 194.572 0.709877 4.36364 0
M  V30 2073 N 193.631 -1.12557 1.10312 0
M  V30 2074 C 194.541 -2.21841 0.763142 0
M  V30 2075 C 195.557 -1.72354 -0.238801 0
M  V30 2076 O 196.733 -2.01249 -0.0778746 0
M  V30 2077 C 193.798 -3.46131 0.198632 0
M  V30 2078 C 192.859 -4.10464 1.25769 0
M  V30 2079 C 192.092 -5.28821 0.72002 0
M  V30 2080 O 192.315 -5.6859 -0.453993 0
M  V30 2081 O 191.249 -5.83437 1.47935 0
M  V30 2082 H 195.075 -2.53312 1.67532 0
M  V30 2083 H 192.66 -1.20867 0.878157 0
M  V30 2084 H 194.542 -4.2125 -0.112401 0
M  V30 2085 H 193.217 -3.16338 -0.686419 0
M  V30 2086 H 192.124 -3.3713 1.62156 0
M  V30 2087 H 193.457 -4.44408 2.11571 0
M  V30 2088 N 195.109 -0.891671 -1.2995 0
M  V30 2089 C 196.356 -0.513501 -1.95881 0
M  V30 2090 C 196.684 0.938655 -1.70351 0
M  V30 2091 O 195.939 1.67936 -1.00478 0
M  V30 2092 C 196.238 -0.742868 -3.49594 0
M  V30 2093 C 195.904 -2.17114 -3.95186 0
M  V30 2094 C 194.566 -2.56169 -4.07346 0
M  V30 2095 C 196.918 -3.10162 -4.18866 0
M  V30 2096 C 194.246 -3.87469 -4.4055 0
M  V30 2097 C 196.598 -4.41001 -4.53542 0
M  V30 2098 C 195.262 -4.79941 -4.63911 0
M  V30 2099 H 194.532 -0.187903 -0.71678 0
M  V30 2100 H 197.179 -1.1288 -1.54694 0
M  V30 2101 H 195.484 -0.044586 -3.91775 0
M  V30 2102 H 197.181 -0.429767 -3.9869 0
M  V30 2103 H 193.771 -1.85801 -3.86233 0
M  V30 2104 H 197.955 -2.81206 -4.08946 0
M  V30 2105 H 193.211 -4.17371 -4.46779 0
M  V30 2106 H 197.385 -5.13133 -4.70815 0
M  V30 2107 H 195.012 -5.81719 -4.89395 0
M  V30 2108 N 196.587 1.43421 -0.653314 0
M  V30 2109 C 198.003 1.56341 -0.320886 0
M  V30 2110 C 198.203 1.63696 1.17499 0
M  V30 2111 O 197.259 1.59208 1.95982 0
M  V30 2112 C 198.572 2.82424 -1.03233 0
M  V30 2113 C 200.12 2.96168 -1.01259 0
M  V30 2114 C 200.595 4.25084 -1.70492 0
M  V30 2115 N 202.086 4.31948 -1.67257 0
M  V30 2116 C 202.821 5.30466 -2.17701 0
M  V30 2117 N 202.317 6.35261 -2.76434 0
M  V30 2118 N 204.11 5.2212 -2.082 0
M  V30 2119 H 196.261 1.3689 -1.62403 0
M  V30 2120 H 198.524 0.657455 -0.682977 0
M  V30 2121 H 198.23 2.83053 -2.08744 0
M  V30 2122 H 198.104 3.72653 -0.583948 0
M  V30 2123 H 200.491 2.9508 0.0341235 0
M  V30 2124 H 200.572 2.07229 -1.49966 0
M  V30 2125 H 200.216 4.26932 -2.7512 0
M  V30 2126 H 200.146 5.1292 -1.19251 0
M  V30 2127 H 202.637 3.56838 -1.24398 0
M  V30 2128 H 202.95 7.06754 -3.12601 0
M  V30 2129 H 201.295 6.35884 -2.80495 0
M  V30 2130 H 204.486 4.39166 -1.62021 0
M  V30 2131 H 204.659 5.98739 -2.47822 0
M  V30 2132 N 198.065 0.39524 1.52563 0
M  V30 2133 C 199.013 -0.451859 2.28169 0
M  V30 2134 C 200.007 -1.05792 1.32304 0
M  V30 2135 O 201.213 -0.997718 1.49818 0
M  V30 2136 H 197.588 -0.164481 0.733792 0
M  V30 2137 H 199.559 0.207199 2.9768 0
M  V30 2138 C 198.308 -1.56385 3.10546 0
M  V30 2139 H 197.631 -1.10682 3.84174 0
M  V30 2140 H 199.071 -2.13067 3.66577 0
M  V30 2141 C 197.53 -2.52328 2.23231 0
M  V30 2142 O 198.06 -3.5588 1.86312 0
M  V30 2143 N 196.266 -2.22209 1.87274 0
M  V30 2144 H 195.813 -1.38033 2.17496 0
M  V30 2145 H 195.771 -2.86652 1.29143 0
M  V30 2146 N 199.544 -1.57102 0.125237 0
M  V30 2147 C 200.792 -1.95021 -0.530198 0
M  V30 2148 C 201.113 -1.00982 -1.66816 0
M  V30 2149 O 200.383 -0.0672693 -1.95784 0
M  V30 2150 H 198.963 -0.720046 -0.198853 0
M  V30 2151 H 201.625 -1.93916 0.19564 0
M  V30 2152 H 200.721 -2.98211 -0.920681 0
M  V30 2153 N 201.022 0.148545 -1.56898 0
M  V30 2154 C 201.954 1.20852 -1.9475 0
M  V30 2155 C 202.967 1.39265 -0.843152 0
M  V30 2156 O 204.156 1.38864 -1.12156 0
M  V30 2157 C 201.256 2.57362 -2.20495 0
M  V30 2158 C 200.429 2.59947 -3.51776 0
M  V30 2159 C 199.488 3.77984 -3.6608 0
M  V30 2160 O 198.514 3.62929 -4.38487 0
M  V30 2161 N 199.716 4.95375 -3.02629 0
M  V30 2162 H 202.481 0.886804 -2.86279 0
M  V30 2163 H 200.042 0.338121 -1.5833 0
M  V30 2164 H 202.034 3.34833 -2.27307 0
M  V30 2165 H 200.604 2.81832 -1.35238 0
M  V30 2166 H 199.824 1.68403 -3.56419 0
M  V30 2167 H 201.112 2.58704 -4.38121 0
M  V30 2168 H 200.51 5.10509 -2.43715 0
M  V30 2169 H 199.067 5.70627 -3.15004 0
M  V30 2170 N 202.5 1.5196 0.417844 0
M  V30 2171 C 203.43 1.77634 1.51554 0
M  V30 2172 C 204.411 0.626918 1.58126 0
M  V30 2173 O 205.596 0.871632 1.7354 0
M  V30 2174 C 202.726 1.91911 2.8946 0
M  V30 2175 C 201.68 3.07463 2.97743 0
M  V30 2176 C 201.006 3.06951 4.37819 0
M  V30 2177 C 202.306 4.47082 2.70027 0
M  V30 2178 H 204 2.6955 1.3032 0
M  V30 2179 H 201.546 1.29706 0.625492 0
M  V30 2180 H 203.499 2.08455 3.6623 0
M  V30 2181 H 202.223 0.966598 3.11969 0
M  V30 2182 H 200.882 2.90656 2.23416 0
M  V30 2183 H 200.53 2.09438 4.57323 0
M  V30 2184 H 200.23 3.84556 4.44286 0
M  V30 2185 H 201.754 3.25613 5.16535 0
M  V30 2186 H 203.168 4.6414 3.36522 0
M  V30 2187 H 201.565 5.2654 2.87881 0
M  V30 2188 H 202.635 4.55777 1.65514 0
M  V30 2189 N 203.978 -0.674533 1.42435 0
M  V30 2190 C 205.224 -1.43671 1.43131 0
M  V30 2191 C 205.557 -1.94142 0.0476021 0
M  V30 2192 O 204.832 -1.70924 -0.928188 0
M  V30 2193 C 205.115 -2.63355 2.45594 0
M  V30 2194 C 204.968 -2.18514 3.93156 0
M  V30 2195 C 206.287 -3.65571 2.45043 0
M  V30 2196 H 203.406 -0.521077 0.521198 0
M  V30 2197 H 206.048 -0.766551 1.7385 0
M  V30 2198 H 204.198 -3.2053 2.19528 0
M  V30 2199 H 205.87 -1.66504 4.30202 0
M  V30 2200 H 204.113 -1.50086 4.07009 0
M  V30 2201 H 204.784 -3.04484 4.60428 0
M  V30 2202 H 207.26 -3.18113 2.68223 0
M  V30 2203 H 206.136 -4.46893 3.18713 0
M  V30 2204 H 206.397 -4.16716 1.47649 0
M  V30 2205 N 205.456 -1.28612 -0.910864 0
M  V30 2206 C 206.702 -1.16106 -1.66274 0
M  V30 2207 C 207.035 0.289113 -1.92036 0
M  V30 2208 O 206.31 1.21 -1.52281 0
M  V30 2209 C 206.593 -1.96309 -3.01885 0
M  V30 2210 C 206.446 -3.49405 -2.8326 0
M  V30 2211 C 207.765 -1.78076 -4.02463 0
M  V30 2212 H 204.884 -0.423152 -0.603417 0
M  V30 2213 H 207.526 -1.57961 -1.05586 0
M  V30 2214 H 205.676 -1.60742 -3.53687 0
M  V30 2215 H 207.348 -3.94894 -2.38446 0
M  V30 2216 H 205.591 -3.74893 -2.18261 0
M  V30 2217 H 206.262 -4.00784 -3.79574 0
M  V30 2218 H 208.738 -2.0912 -3.59733 0
M  V30 2219 H 207.614 -2.36561 -4.95308 0
M  V30 2220 H 207.875 -0.733008 -4.35981 0
M  V30 2221 N 206.934 1.1197 -1.10907 0
M  V30 2222 C 208.211 1.79959 -0.766432 0
M  V30 2223 C 208.591 1.97466 0.746363 0
M  V30 2224 O 207.939 1.55491 1.67436 0
M  V30 2225 C 208.149 3.14009 -1.52314 0
M  V30 2226 C 209.497 3.89134 -1.69883 0
M  V30 2227 O 210.521 3.2368 -1.48692 0
M  V30 2228 O 209.38 5.06572 -2.05054 0
M  V30 2229 H 206.474 0.779208 -0.277062 0
M  V30 2230 H 209.02 1.18762 -1.21217 0
M  V30 2231 H 207.792 2.96587 -2.55249 0
M  V30 2232 H 207.415 3.82915 -1.07059 0
M  V30 2233 N 208.412 0.89855 1.29475 0
M  V30 2234 C 209.36 0.365253 2.29714 0
M  V30 2235 C 210.354 -0.534993 1.6073 0
M  V30 2236 O 211.56 -0.417921 1.75081 0
M  V30 2237 H 207.935 0.0994853 0.74539 0
M  V30 2238 H 209.906 1.22406 2.72138 0
M  V30 2239 C 208.655 -0.393159 3.4547 0
M  V30 2240 H 207.978 0.290332 3.98744 0
M  V30 2241 H 209.418 -0.731189 4.17648 0
M  V30 2242 C 207.877 -1.59539 2.9673 0
M  V30 2243 O 208.407 -2.69469 2.97908 0
M  V30 2244 N 206.613 -1.43716 2.52575 0
M  V30 2245 H 206.16 -0.542828 2.51816 0
M  V30 2246 H 206.118 -2.24288 2.20323 0
M  V30 2247 N 209.89 -1.43072 0.660911 0
M  V30 2248 C 210.84 -2.27948 -0.04847 0
M  V30 2249 C 211.824 -1.40325 -0.787246 0
M  V30 2250 O 213.016 -1.63893 -0.668446 0
M  V30 2251 C 210.145 -3.28143 -1.00881 0
M  V30 2252 C 209.231 -4.23252 -0.268108 0
M  V30 2253 N 209.622 -5.00656 0.719528 0
M  V30 2254 C 207.92 -4.43092 -0.508493 0
M  V30 2255 C 208.621 -5.70019 1.15988 0
M  V30 2256 N 207.597 -5.41364 0.492584 0
M  V30 2257 H 211.399 -2.85213 0.709279 0
M  V30 2258 H 208.913 -1.54869 0.488822 0
M  V30 2259 H 210.91 -3.87736 -1.53188 0
M  V30 2260 H 209.57 -2.7244 -1.76654 0
M  V30 2261 H 210.581 -5.06115 1.09855 0
M  V30 2262 H 207.258 -3.98449 -1.24679 0
M  V30 2263 H 208.648 -6.4214 1.97751 0
M  V30 2264 N 211.368 -0.403325 -1.52352 0
M  V30 2265 C 212.278 0.432009 -2.30588 0
M  V30 2266 C 213.294 1.05884 -1.38075 0
M  V30 2267 O 214.47 1.06161 -1.71148 0
M  V30 2268 C 211.535 1.53669 -3.10784 0
M  V30 2269 C 210.596 0.933525 -4.19027 0
M  V30 2270 C 209.829 1.98557 -4.9539 0
M  V30 2271 O 210.052 3.20283 -4.71991 0
M  V30 2272 O 208.986 1.59504 -5.80381 0
M  V30 2273 H 212.812 -0.205739 -3.03002 0
M  V30 2274 H 210.397 -0.166675 -1.48467 0
M  V30 2275 H 212.279 2.17814 -3.60742 0
M  V30 2276 H 210.954 2.15915 -2.41169 0
M  V30 2277 H 209.861 0.254954 -3.7323 0
M  V30 2278 H 211.194 0.35508 -4.90918 0
M  V30 2279 N 212.846 1.57033 -0.133567 0
M  V30 2280 C 214.095 1.94861 0.520768 0
M  V30 2281 C 214.408 1.02012 1.66892 0
M  V30 2282 O 215.614 1.29365 2.38699 0
M  V30 2283 C 214.07 3.46362 0.977809 0
M  V30 2284 C 213.678 4.47773 -0.142674 0
M  V30 2285 C 215.422 3.93083 1.60269 0
M  V30 2286 C 213.329 5.90468 0.331883 0
M  V30 2287 H 212.259 0.727453 0.198315 0
M  V30 2288 H 214.91 1.82227 -0.215759 0
M  V30 2289 H 213.292 3.54282 1.7692 0
M  V30 2290 H 214.466 4.51536 -0.919317 0
M  V30 2291 H 212.781 4.10891 -0.675124 0
M  V30 2292 H 215.378 4.97121 1.96914 0
M  V30 2293 H 215.721 3.33876 2.48662 0
M  V30 2294 H 216.254 3.88025 0.876453 0
M  V30 2295 H 212.993 6.53463 -0.516341 0
M  V30 2296 H 212.513 5.90094 1.07469 0
M  V30 2297 H 214.192 6.42179 0.788332 0
M  V30 2298 N 214.325 -0.140222 1.56975 0
M  V30 2299 C 215.55 -0.870414 1.88251 0
M  V30 2300 C 215.975 -1.73637 0.723312 0
M  V30 2301 O 215.333 -1.78329 -0.32689 0
M  V30 2302 C 215.381 -1.69737 3.18154 0
M  V30 2303 O 214.485 -2.80229 3.02565 0
M  V30 2304 H 213.826 -0.242025 0.61832 0
M  V30 2305 H 216.356 -0.128999 2.04193 0
M  V30 2306 H 216.366 -2.09099 3.50345 0
M  V30 2307 H 215.041 -1.06152 4.02125 0
M  V30 2308 H 213.618 -2.44224 2.81796 0
M  V30 2309 N 215.803 -1.52179 -0.40978 0
M  V30 2310 C 217.049 -1.66453 -1.15851 0
M  V30 2311 C 217.382 -0.392972 -1.90182 0
M  V30 2312 O 216.657 0.608579 -1.84734 0
M  V30 2313 C 216.94 -2.88612 -2.15349 0
M  V30 2314 C 216.793 -4.25815 -1.44918 0
M  V30 2315 C 218.112 -3.06294 -3.16026 0
M  V30 2316 H 215.231 -0.60575 -0.419805 0
M  V30 2317 H 217.873 -1.84732 -0.444314 0
M  V30 2318 H 216.023 -2.73158 -2.76255 0
M  V30 2319 H 217.695 -4.52995 -0.871365 0
M  V30 2320 H 215.938 -4.27247 -0.751159 0
M  V30 2321 H 216.609 -5.07337 -2.17516 0
M  V30 2322 H 219.085 -3.20641 -2.65195 0
M  V30 2323 H 217.961 -3.93283 -3.8291 0
M  V30 2324 H 218.222 -2.19579 -3.83715 0
M  V30 2325 N 217.281 0.66697 -1.42791 0
M  V30 2326 C 218.511 1.45294 -1.46878 0
M  V30 2327 C 218.919 1.89027 -0.0809861 0
M  V30 2328 O 218.262 1.59219 0.916246 0
M  V30 2329 C 218.324 2.72908 -2.34012 0
M  V30 2330 C 217.988 2.51203 -3.81767 0
M  V30 2331 C 218.985 2.15302 -4.73224 0
M  V30 2332 C 216.67 2.65954 -4.26115 0
M  V30 2333 C 218.664 1.94431 -6.07022 0
M  V30 2334 C 216.351 2.44699 -5.59969 0
M  V30 2335 C 217.349 2.08992 -6.5024 0
M  V30 2336 O 217.037 1.87948 -7.81621 0
M  V30 2337 H 216.769 0.453306 -0.501487 0
M  V30 2338 H 219.323 0.826232 -1.88049 0
M  V30 2339 H 217.553 3.38089 -1.87703 0
M  V30 2340 H 219.242 3.34816 -2.29462 0
M  V30 2341 H 220.008 2.03495 -4.40244 0
M  V30 2342 H 215.887 2.92724 -3.56137 0
M  V30 2343 H 219.431 1.66484 -6.77443 0
M  V30 2344 H 215.328 2.56105 -5.9252 0
M  V30 2345 H 216.096 2.02483 -7.93059 0
M  V30 2346 N 218.759 1.29093 0.90403 0
M  V30 2347 C 219.691 1.09658 2.01266 0
M  V30 2348 C 220.704 0.0453729 1.62737 0
M  V30 2349 O 221.893 0.289446 1.76138 0
M  V30 2350 C 218.993 0.646278 3.32681 0
M  V30 2351 C 218.166 1.77505 3.99763 0
M  V30 2352 C 217.225 1.31649 5.09465 0
M  V30 2353 O 216.251 2.02045 5.32134 0
M  V30 2354 N 217.453 0.184997 5.80205 0
M  V30 2355 H 220.218 2.05135 2.18494 0
M  V30 2356 H 217.779 1.20975 1.07594 0
M  V30 2357 H 219.771 0.322906 4.0341 0
M  V30 2358 H 218.341 -0.215916 3.11853 0
M  V30 2359 H 217.561 2.26752 3.22455 0
M  V30 2360 H 218.849 2.53198 4.41325 0
M  V30 2361 H 218.247 -0.402021 5.6427 0
M  V30 2362 H 216.804 -0.0790358 6.51752 0
M  V30 2363 N 220.237 -1.11381 1.11499 0
M  V30 2364 C 221.477 -1.84763 0.874188 0
M  V30 2365 C 221.841 -1.82726 -0.589496 0
M  V30 2366 O 223.042 -2.51562 -0.947089 0
M  V30 2367 C 221.313 -3.27931 1.42112 0
M  V30 2368 S 222.872 -4.18557 1.31739 0
M  V30 2369 H 219.69 -0.637115 0.315603 0
M  V30 2370 H 222.292 -1.34097 1.42261 0
M  V30 2371 H 220.996 -3.26978 2.48019 0
M  V30 2372 H 220.527 -3.83665 0.869761 0
M  V30 2373 H 222.542 -4.95396 0.282335 0
M  V30 2374 N 221.715 -0.905404 -1.28997 0
M  V30 2375 C 222.662 -0.385892 -2.27551 0
M  V30 2376 C 223.632 0.535113 -1.57244 0
M  V30 2377 O 224.817 0.459119 -1.85194 0
M  V30 2378 C 221.957 0.375461 -3.43051 0
M  V30 2379 C 221.07 -0.577092 -4.28128 0
M  V30 2380 C 220.205 0.201879 -5.30816 0
M  V30 2381 C 219.244 -0.744829 -6.07551 0
M  V30 2382 N 218.381 9.42587e-05 -7.021 0
M  V30 2383 H 223.221 -1.23139 -2.71368 0
M  V30 2384 H 220.758 -0.618542 -1.33463 0
M  V30 2385 H 222.716 0.832992 -4.088 0
M  V30 2386 H 221.346 1.18537 -3.00248 0
M  V30 2387 H 220.398 -1.15315 -3.62501 0
M  V30 2388 H 221.71 -1.30152 -4.8152 0
M  V30 2389 H 220.864 0.720351 -6.02408 0
M  V30 2390 H 219.603 0.959413 -4.7817 0
M  V30 2391 H 218.608 -1.27475 -5.34818 0
M  V30 2392 H 219.833 -1.50178 -6.62286 0
M  V30 2393 H 217.779 0.739791 -6.51815 0
M  V30 2394 H 217.696 -0.664321 -7.53076 0
M  V30 2395 H 218.964 0.498644 -7.77903 0
M  V30 2396 N 223.193 1.4272 -0.668489 0
M  V30 2397 C 224.103 2.34596 0.0139753 0
M  V30 2398 C 225.119 1.5474 0.795703 0
M  V30 2399 O 226.295 1.87334 0.739466 0
M  V30 2400 C 223.36 3.33202 0.957982 0
M  V30 2401 C 222.421 4.28957 0.17149 0
M  V30 2402 C 221.654 5.22853 1.07053 0
M  V30 2403 O 221.877 5.21531 2.31001 0
M  V30 2404 O 220.811 5.9952 0.534727 0
M  V30 2405 H 224.637 2.9448 -0.742661 0
M  V30 2406 H 222.222 1.43117 -0.428705 0
M  V30 2407 H 224.104 3.93796 1.50008 0
M  V30 2408 H 222.779 2.758 1.69458 0
M  V30 2409 H 221.686 3.71796 -0.414558 0
M  V30 2410 H 223.019 4.89383 -0.52586 0
M  V30 2411 N 224.671 0.411399 1.52136 0
M  V30 2412 C 226.082 -0.0576826 1.86611 0
M  V30 2413 C 226.433 -1.44238 1.33003 0
M  V30 2414 O 225.558 -2.05759 0.670228 0
M  V30 2415 C 226.153 -0.111448 3.38617 0
M  V30 2416 C 224.712 -0.52487 3.72723 0
M  V30 2417 C 223.859 0.299176 2.75681 0
M  V30 2418 H 226.81 0.628368 1.4573 0
M  V30 2419 H 226.831 -0.926252 3.69054 0
M  V30 2420 H 226.343 0.896488 3.77604 0
M  V30 2421 H 224.444 -1.53936 3.39315 0
M  V30 2422 H 224.557 -0.267681 4.78352 0
M  V30 2423 H 222.921 -0.238814 2.53578 0
M  V30 2424 H 223.704 1.3055 3.17508 0
M  V30 2425 N 226.149 -1.5696 0.141893 0
M  V30 2426 C 227.096 -2.16501 -0.799737 0
M  V30 2427 C 228.066 -1.09643 -1.24771 0
M  V30 2428 O 229.251 -1.3766 -1.32115 0
M  V30 2429 C 226.391 -2.78679 -2.03549 0
M  V30 2430 C 225.504 -3.99914 -1.6338 0
M  V30 2431 C 224.639 -4.50106 -2.82096 0
M  V30 2432 C 223.678 -5.63819 -2.38275 0
M  V30 2433 N 222.815 -6.08651 -3.49983 0
M  V30 2434 H 227.655 -2.96632 -0.285179 0
M  V30 2435 H 225.192 -1.46533 -0.129053 0
M  V30 2436 H 227.15 -3.1287 -2.75986 0
M  V30 2437 H 225.78 -2.012 -2.52425 0
M  V30 2438 H 224.832 -3.71735 -0.807279 0
M  V30 2439 H 226.144 -4.82311 -1.27192 0
M  V30 2440 H 225.298 -4.86325 -3.62729 0
M  V30 2441 H 224.037 -3.66706 -3.21525 0
M  V30 2442 H 223.042 -5.2718 -1.56081 0
M  V30 2443 H 224.267 -6.49 -1.99938 0
M  V30 2444 H 222.213 -5.28188 -3.89042 0
M  V30 2445 H 222.13 -6.85961 -3.17794 0
M  V30 2446 H 223.398 -6.49515 -4.30988 0
M  V30 2447 N 227.627 0.131896 -1.57047 0
M  V30 2448 C 228.559 1.1878 -1.9602 0
M  V30 2449 C 229.572 1.38363 -0.857875 0
M  V30 2450 O 230.761 1.37666 -1.13623 0
M  V30 2451 C 227.861 2.55008 -2.23213 0
M  V30 2452 C 227.034 2.56201 -3.54513 0
M  V30 2453 C 226.093 3.7408 -3.70069 0
M  V30 2454 O 225.119 3.58258 -4.42312 0
M  V30 2455 N 226.321 4.92137 -3.07866 0
M  V30 2456 H 229.086 0.85639 -2.87204 0
M  V30 2457 H 226.647 0.321309 -1.5868 0
M  V30 2458 H 228.639 3.32404 -2.30846 0
M  V30 2459 H 227.209 2.80382 -1.3822 0
M  V30 2460 H 226.429 1.64613 -3.58185 0
M  V30 2461 H 227.717 2.54043 -4.4084 0
M  V30 2462 H 227.115 5.07895 -2.49116 0
M  V30 2463 H 225.672 5.67254 -3.21039 0
M  V30 2464 N 229.106 1.52395 0.401703 0
M  V30 2465 C 230.355 1.66044 1.14509 0
M  V30 2466 C 230.668 0.400216 1.91462 0
M  V30 2467 O 231.874 0.416632 2.68284 0
M  V30 2468 C 230.33 2.93388 2.0845 0
M  V30 2469 C 229.938 4.26545 1.36978 0
M  V30 2470 C 231.682 3.16402 2.83001 0
M  V30 2471 C 229.589 5.45007 2.29611 0
M  V30 2472 H 228.519 0.618562 0.431158 0
M  V30 2473 H 231.17 1.78886 0.40892 0
M  V30 2474 H 229.552 2.74263 2.8565 0
M  V30 2475 H 230.726 4.56179 0.650916 0
M  V30 2476 H 229.041 4.09692 0.74438 0
M  V30 2477 H 231.638 4.02085 3.52465 0
M  V30 2478 H 231.981 2.30943 3.46368 0
M  V30 2479 H 232.514 3.36034 2.12898 0
M  V30 2480 H 229.253 6.32835 1.70879 0
M  V30 2481 H 228.773 5.19702 2.9945 0
M  V30 2482 H 230.452 5.7838 2.89974 0
M  V30 2483 N 230.584 -0.659388 1.43143 0
M  V30 2484 C 231.995 -1.24041 1.39537 0
M  V30 2485 C 232.346 -1.95963 0.0963364 0
M  V30 2486 O 231.471 -2.00892 -0.804438 0
M  V30 2487 C 232.066 -2.25601 2.52764 0
M  V30 2488 C 230.625 -2.79195 2.52443 0
M  V30 2489 C 229.772 -1.53743 2.30778 0
M  V30 2490 H 232.723 -0.451792 1.52133 0
M  V30 2491 H 232.744 -3.07651 2.23899 0
M  V30 2492 H 232.256 -1.73226 3.47296 0
M  V30 2493 H 230.357 -3.35649 1.61773 0
M  V30 2494 H 230.47 -3.2716 3.50004 0
M  V30 2495 H 228.834 -1.80869 1.79328 0
M  V30 2496 H 229.617 -1.03312 3.27386 0
M  V30 2497 N 232.062 -1.29571 -0.897171 0
M  V30 2498 C 233.308 -1.18873 -1.65048 0
M  V30 2499 C 233.663 0.256707 -1.9068 0
M  V30 2500 O 232.956 1.18202 -1.50794 0
M  V30 2501 C 233.15 -1.9382 -3.00281 0
M  V30 2502 C 232.979 -3.45503 -2.8785 0
M  V30 2503 C 231.749 -4.14856 -2.88483 0
M  V30 2504 C 233.947 -4.40956 -2.64693 0
M  V30 2505 N 231.929 -5.52886 -2.66815 0
M  V30 2506 C 233.3 -5.66464 -2.5203 0
M  V30 2507 C 235.355 -4.3069 -2.49821 0
M  V30 2508 C 234.058 -6.82871 -2.26008 0
M  V30 2509 C 236.084 -5.46852 -2.25182 0
M  V30 2510 C 235.446 -6.71333 -2.13286 0
M  V30 2511 H 231.545 -0.489998 -0.609447 0
M  V30 2512 H 234.129 -1.63431 -1.05822 0
M  V30 2513 H 232.3 -1.51671 -3.57562 0
M  V30 2514 H 234.032 -1.75366 -3.64731 0
M  V30 2515 H 230.787 -3.66579 -2.99861 0
M  V30 2516 H 231.211 -6.25487 -2.59027 0
M  V30 2517 H 235.853 -3.35141 -2.5776 0
M  V30 2518 H 233.571 -7.78473 -2.16806 0
M  V30 2519 H 237.157 -5.40809 -2.14515 0
M  V30 2520 H 236.037 -7.59701 -1.94485 0
M  V30 2521 N 233.54 1.10788 -1.12088 0
M  V30 2522 C 234.956 1.34691 -0.856186 0
M  V30 2523 C 235.156 1.94791 0.515615 0
M  V30 2524 O 234.212 2.18524 1.26505 0
M  V30 2525 C 235.525 2.27208 -1.9697 0
M  V30 2526 C 237.073 2.40755 -2.00016 0
M  V30 2527 C 237.548 3.36598 -3.1059 0
M  V30 2528 N 239.039 3.44164 -3.10008 0
M  V30 2529 C 239.774 4.18284 -3.92206 0
M  V30 2530 N 239.27 4.95322 -4.84384 0
M  V30 2531 N 241.063 4.13865 -3.80357 0
M  V30 2532 H 233.214 0.70144 -2.00483 0
M  V30 2533 H 235.477 0.371405 -0.872217 0
M  V30 2534 H 235.183 1.90251 -2.958 0
M  V30 2535 H 235.057 3.27485 -1.87172 0
M  V30 2536 H 237.444 2.76982 -1.01808 0
M  V30 2537 H 237.525 1.40305 -2.13888 0
M  V30 2538 H 237.169 3.01096 -4.09028 0
M  V30 2539 H 237.099 4.36918 -2.93956 0
M  V30 2540 H 239.59 2.8922 -2.43228 0
M  V30 2541 H 239.903 5.49267 -5.43623 0
M  V30 2542 H 238.248 4.94459 -4.884 0
M  V30 2543 H 241.439 3.52773 -3.07683 0
M  V30 2544 H 241.612 4.71372 -4.44649 0
M  V30 2545 N 235.018 0.912232 1.28515 0
M  V30 2546 C 235.981 0.404223 2.25607 0
M  V30 2547 C 236.981 -0.468602 1.53821 0
M  V30 2548 O 238.171 -0.271873 1.72065 0
M  V30 2549 C 235.303 -0.420653 3.38295 0
M  V30 2550 H 236.496 1.26188 2.7206 0
M  V30 2551 H 234.049 0.691495 1.40171 0
M  V30 2552 H 234.784 -1.29777 2.97201 0
M  V30 2553 H 234.569 0.204935 3.91564 0
M  V30 2554 H 236.059 -0.766971 4.10496 0
M  V30 2555 N 236.496 -1.42363 0.676048 0
M  V30 2556 C 237.742 -2.0182 0.199125 0
M  V30 2557 C 238.075 -1.53339 -1.19168 0
M  V30 2558 O 237.35 -0.736124 -1.80032 0
M  V30 2559 C 237.633 -3.59331 0.235144 0
M  V30 2560 C 237.486 -4.17989 1.66149 0
M  V30 2561 C 238.805 -4.3813 -0.41595 0
M  V30 2562 H 235.924 -0.733293 0.0738311 0
M  V30 2563 H 238.566 -1.69368 0.86107 0
M  V30 2564 H 236.716 -3.87109 -0.328487 0
M  V30 2565 H 238.388 -4.0116 2.27747 0
M  V30 2566 H 236.631 -3.7377 2.20178 0
M  V30 2567 H 237.302 -5.27126 1.63837 0
M  V30 2568 H 239.778 -4.16051 0.0638529 0
M  V30 2569 H 238.654 -5.47717 -0.360115 0
M  V30 2570 H 238.915 -4.16101 -1.49373 0
M  V30 2571 N 237.974 -0.419461 -1.51915 0
M  V30 2572 C 239.222 0.152637 -2.01523 0
M  V30 2573 C 239.543 1.44762 -1.30649 0
M  V30 2574 O 238.813 1.90997 -0.435535 0
M  V30 2575 H 237.393 0.0593966 -0.744635 0
M  V30 2576 H 240.055 -0.558073 -1.86739 0
M  V30 2577 H 239.151 0.341369 -3.10227 0
M  V30 2578 N 239.452 1.56882 -0.150215 0
M  V30 2579 C 240.677 2.01027 0.510184 0
M  V30 2580 C 241.102 1.02966 1.57415 0
M  V30 2581 O 240.46 0.00590158 1.81299 0
M  V30 2582 C 240.508 3.43899 1.08472 0
M  V30 2583 O 239.612 3.4885 2.19948 0
M  V30 2584 H 238.953 0.652233 0.124451 0
M  V30 2585 H 241.483 2.03093 -0.247894 0
M  V30 2586 H 241.493 3.82766 1.41259 0
M  V30 2587 H 240.168 4.14776 0.305582 0
M  V30 2588 H 238.745 3.21827 1.88366 0
M  V30 2589 N 240.93 -0.123565 1.57115 0
M  V30 2590 C 242.341 -0.681198 1.73829 0
M  V30 2591 C 242.692 -1.80535 0.768214 0
M  V30 2592 O 241.817 -2.16317 -0.0599103 0
M  V30 2593 C 242.412 -1.24246 3.15196 0
M  V30 2594 C 240.971 -1.74643 3.33432 0
M  V30 2595 C 240.118 -0.644284 2.69711 0
M  V30 2596 H 243.069 0.102315 1.5837 0
M  V30 2597 H 243.09 -2.11216 3.16493 0
M  V30 2598 H 242.602 -0.424062 3.85776 0
M  V30 2599 H 240.703 -2.58974 2.67886 0
M  V30 2600 H 240.816 -1.85902 4.41562 0
M  V30 2601 H 239.18 -1.07676 2.3082 0
M  V30 2602 H 239.963 0.163058 3.42913 0
M  V30 2603 N 242.408 -1.52605 -0.393616 0
M  V30 2604 C 243.638 -1.71046 -1.15874 0
M  V30 2605 C 244.046 -0.426483 -1.84331 0
M  V30 2606 O 243.389 0.608513 -1.73329 0
M  V30 2607 C 243.451 -2.80118 -2.25332 0
M  V30 2608 C 243.115 -4.21381 -1.76881 0
M  V30 2609 C 244.112 -5.04697 -1.24808 0
M  V30 2610 C 241.797 -4.67683 -1.83244 0
M  V30 2611 C 243.791 -6.32393 -0.797387 0
M  V30 2612 C 241.478 -5.95364 -1.37787 0
M  V30 2613 C 242.476 -6.77549 -0.861208 0
M  V30 2614 O 242.164 -8.02837 -0.413252 0
M  V30 2615 H 241.896 -0.576155 -0.353583 0
M  V30 2616 H 244.45 -2.00018 -0.467123 0
M  V30 2617 H 242.68 -2.46557 -2.97904 0
M  V30 2618 H 244.369 -2.87006 -2.87023 0
M  V30 2619 H 245.135 -4.70111 -1.19252 0
M  V30 2620 H 241.014 -4.03805 -2.22401 0
M  V30 2621 H 244.558 -6.9649 -0.393437 0
M  V30 2622 H 240.455 -6.29455 -1.43026 0
M  V30 2623 H 241.223 -8.16749 -0.53515 0
M  V30 2624 N 243.887 0.651787 -1.4349 0
M  V30 2625 C 245.133 1.41376 -1.45398 0
M  V30 2626 C 245.466 1.94041 -0.0784823 0
M  V30 2627 O 244.741 1.72379 0.900878 0
M  V30 2628 C 245.024 2.59414 -2.49752 0
M  V30 2629 C 244.877 2.12232 -3.96582 0
M  V30 2630 C 246.196 3.61626 -2.50827 0
M  V30 2631 H 243.315 0.512719 -0.529422 0
M  V30 2632 H 245.957 0.738796 -1.75048 0
M  V30 2633 H 244.107 3.16997 -2.246 0
M  V30 2634 H 245.779 1.59639 -4.32797 0
M  V30 2635 H 244.022 1.43592 -4.09346 0
M  V30 2636 H 244.693 2.9712 -4.65214 0
M  V30 2637 H 247.169 3.13805 -2.7325 0
M  V30 2638 H 246.045 4.41766 -3.25783 0
M  V30 2639 H 246.306 4.14314 -1.5426 0
M  V30 2640 N 245.365 1.30045 0.890287 0
M  V30 2641 C 246.611 1.18737 1.64406 0
M  V30 2642 C 246.944 -0.258525 1.92472 0
M  V30 2643 O 246.219 -1.18562 1.54186 0
M  V30 2644 C 246.502 2.01087 2.98724 0
M  V30 2645 C 246.355 3.53867 2.77665 0
M  V30 2646 C 247.674 1.84457 3.9958 0
M  V30 2647 H 244.793 0.432698 0.596608 0
M  V30 2648 H 247.435 1.5962 1.0306 0
M  V30 2649 H 245.585 1.66349 3.51084 0
M  V30 2650 H 247.257 3.98637 2.32133 0
M  V30 2651 H 245.5 3.78318 2.12269 0
M  V30 2652 H 246.171 4.06772 3.7315 0
M  V30 2653 H 248.647 2.14817 3.56361 0
M  V30 2654 H 247.523 2.44411 4.91482 0
M  V30 2655 H 247.784 0.802276 4.3476 0
M  V30 2656 N 246.843 -1.10192 1.12674 0
M  V30 2657 C 247.753 -2.20172 0.810026 0
M  V30 2658 C 248.769 -1.72821 -0.202188 0
M  V30 2659 O 249.945 -2.01369 -0.0351691 0
M  V30 2660 C 247.01 -3.45631 0.272007 0
M  V30 2661 C 246.071 -4.07704 1.34447 0
M  V30 2662 C 245.304 -5.27175 0.832029 0
M  V30 2663 O 245.527 -5.69425 -0.333284 0
M  V30 2664 O 244.461 -5.80168 1.60277 0
M  V30 2665 H 248.287 -2.49701 1.72867 0
M  V30 2666 H 245.872 -1.18977 0.903597 0
M  V30 2667 H 247.754 -4.21394 -0.0230219 0
M  V30 2668 H 246.429 -3.17723 -0.619164 0
M  V30 2669 H 245.336 -3.33614 1.6927 0
M  V30 2670 H 246.669 -4.3982 2.2095 0
M  V30 2671 N 248.321 -0.919034 -1.28029 0
M  V30 2672 C 249.546 -0.570357 -1.99403 0
M  V30 2673 C 249.971 0.842486 -1.68178 0
M  V30 2674 O 249.329 1.56391 -0.917141 0
M  V30 2675 C 249.377 -0.792541 -3.51783 0
M  V30 2676 O 248.481 0.145988 -4.12142 0
M  V30 2677 H 247.822 -0.220555 -0.6263 0
M  V30 2678 H 250.352 -1.23592 -1.63053 0
M  V30 2679 H 250.362 -0.704708 -4.01868 0
M  V30 2680 H 249.037 -1.82247 -3.73844 0
M  V30 2681 H 247.614 0.00897528 -3.72899 0
M  V30 2682 N 249.799 1.42003 -0.683588 0
M  V30 2683 C 251.027 2.05746 -0.218182 0
M  V30 2684 C 251.442 1.51396 1.12804 0
M  V30 2685 O 250.799 0.657303 1.70252 0
M  V30 2686 C 250.85 3.61171 -0.154131 0
M  V30 2687 O 250.571 4.13508 -1.44716 0
M  V30 2688 C 252.072 4.42042 0.333713 0
M  V30 2689 H 249.292 0.662888 -0.10402 0
M  V30 2690 H 251.836 1.81987 -0.9328 0
M  V30 2691 H 249.991 3.84012 0.511231 0
M  V30 2692 H 250.405 5.07453 -1.32632 0
M  V30 2693 H 251.879 5.51028 0.327423 0
M  V30 2694 H 252.356 4.17269 1.37053 0
M  V30 2695 H 252.962 4.24239 -0.300222 0
M  V30 2696 N 251.277 0.427512 1.51691 0
M  V30 2697 C 252.525 -0.141948 2.01601 0
M  V30 2698 C 252.846 -1.44067 1.31414 0
M  V30 2699 O 252.116 -1.90763 0.445658 0
M  V30 2700 H 250.696 -0.0554468 0.744939 0
M  V30 2701 H 253.358 0.567968 1.86441 0
M  V30 2702 H 252.454 -0.324913 3.10404 0
M  V30 2703 N 252.755 -1.56801 0.158532 0
M  V30 2704 C 254.001 -1.96781 -0.490405 0
M  V30 2705 C 254.334 -1.04397 -1.63753 0
M  V30 2706 O 253.609 -0.0885805 -1.94298 0
M  V30 2707 C 253.892 -3.4635 -0.985594 0
M  V30 2708 C 253.745 -4.49512 0.160824 0
M  V30 2709 C 255.064 -3.98697 -1.86355 0
M  V30 2710 H 252.183 -0.715482 -0.176788 0
M  V30 2711 H 254.825 -1.88451 0.242088 0
M  V30 2712 H 252.975 -3.53579 -1.60978 0
M  V30 2713 H 254.647 -4.54353 0.797537 0
M  V30 2714 H 252.89 -4.26013 0.818256 0
M  V30 2715 H 253.561 -5.51531 -0.227569 0
M  V30 2716 H 256.037 -3.94019 -1.33746 0
M  V30 2717 H 254.913 -5.03792 -2.17909 0
M  V30 2718 H 255.174 -3.41744 -2.8047 0
M  V30 2719 N 254.233 0.115231 -1.57178 0
M  V30 2720 C 255.463 0.835224 -1.88964 0
M  V30 2721 C 255.871 1.73774 -0.74829 0
M  V30 2722 O 255.214 1.81401 0.289739 0
M  V30 2723 C 255.276 1.7178 -3.15804 0
M  V30 2724 C 254.94 0.989198 -4.46166 0
M  V30 2725 C 255.937 0.328263 -5.18863 0
M  V30 2726 C 253.622 0.969256 -4.9286 0
M  V30 2727 C 255.616 -0.342873 -6.36477 0
M  V30 2728 C 253.303 0.294324 -6.10391 0
M  V30 2729 C 254.301 -0.360582 -6.82048 0
M  V30 2730 O 253.989 -1.02474 -7.97342 0
M  V30 2731 H 253.721 0.245197 -0.629964 0
M  V30 2732 H 256.275 0.10303 -2.05141 0
M  V30 2733 H 254.505 2.49173 -2.95719 0
M  V30 2734 H 256.194 2.31255 -3.33581 0
M  V30 2735 H 256.96 0.335263 -4.8384 0
M  V30 2736 H 252.839 1.46844 -4.36987 0
M  V30 2737 H 256.383 -0.854629 -6.92345 0
M  V30 2738 H 252.28 0.285099 -6.4487 0
M  V30 2739 H 253.048 -0.929594 -8.13204 0
M  V30 2740 N 255.711 1.52812 0.385517 0
M  V30 2741 C 256.641 1.80808 1.47752 0
M  V30 2742 C 257.622 0.660318 1.5676 0
M  V30 2743 O 258.807 0.908246 1.71652 0
M  V30 2744 C 255.937 1.98008 2.85324 0
M  V30 2745 C 254.891 3.13709 2.91154 0
M  V30 2746 C 254.217 3.16169 4.31209 0
M  V30 2747 C 255.517 4.52709 2.60483 0
M  V30 2748 H 257.211 2.72253 1.24573 0
M  V30 2749 H 254.757 1.31003 0.597839 0
M  V30 2750 H 256.71 2.16176 3.61726 0
M  V30 2751 H 255.434 1.03255 3.09848 0
M  V30 2752 H 254.093 2.95329 2.17201 0
M  V30 2753 H 253.741 2.19092 4.52778 0
M  V30 2754 H 253.441 3.93894 4.36029 0
M  V30 2755 H 254.965 3.36496 5.09512 0
M  V30 2756 H 256.379 4.71173 3.26602 0
M  V30 2757 H 254.776 5.32528 2.76648 0
M  V30 2758 H 255.846 4.59186 1.55809 0
M  V30 2759 N 257.189 -0.644168 1.43834 0
M  V30 2760 C 258.414 -1.43642 1.49605 0
M  V30 2761 C 258.839 -1.8773 0.117913 0
M  V30 2762 O 258.197 -1.57938 -0.890239 0
M  V30 2763 C 258.245 -2.6416 2.45463 0
M  V30 2764 O 257.349 -3.63538 1.94714 0
M  V30 2765 H 256.69 -0.430329 0.50568 0
M  V30 2766 H 259.22 -0.787448 1.8884 0
M  V30 2767 H 259.23 -3.11864 2.63068 0
M  V30 2768 H 257.905 -2.31414 3.45572 0
M  V30 2769 H 256.482 -3.2273 1.86814 0
M  V30 2770 N 258.668 -1.30515 -0.883378 0
M  V30 2771 C 259.917 -1.18795 -1.63005 0
M  V30 2772 C 260.23 0.255923 -1.93919 0
M  V30 2773 O 261.436 0.494654 -2.66956 0
M  V30 2774 C 259.892 -2.07878 -2.93794 0
M  V30 2775 C 259.5 -3.57184 -2.70414 0
M  V30 2776 C 261.244 -2.04924 -3.71761 0
M  V30 2777 C 259.151 -4.38317 -3.97029 0
M  V30 2778 H 258.081 -0.441031 -0.611562 0
M  V30 2779 H 260.732 -1.55275 -0.977854 0
M  V30 2780 H 259.114 -1.64283 -3.60315 0
M  V30 2781 H 260.288 -4.08937 -2.12384 0
M  V30 2782 H 258.603 -3.61976 -2.0582 0
M  V30 2783 H 261.2 -2.62792 -4.65665 0
M  V30 2784 H 261.543 -1.0331 -4.03277 0
M  V30 2785 H 262.076 -2.46649 -3.12104 0
M  V30 2786 H 258.815 -5.40632 -3.70671 0
M  V30 2787 H 258.335 -3.91326 -4.54559 0
M  V30 2788 H 260.014 -4.49834 -4.65036 0
M  V30 2789 N 260.146 1.09593 -1.13257 0
M  V30 2790 C 261.078 2.16015 -0.766167 0
M  V30 2791 C 262.091 1.61423 0.211303 0
M  V30 2792 O 263.28 1.78498 -0.00863946 0
M  V30 2793 C 260.38 3.38706 -0.114662 0
M  V30 2794 C 259.553 4.22717 -1.12379 0
M  V30 2795 C 258.612 5.23835 -0.498301 0
M  V30 2796 O 257.638 5.573 -1.15781 0
M  V30 2797 N 258.84 5.75886 0.730417 0
M  V30 2798 H 261.605 2.48055 -1.68193 0
M  V30 2799 H 259.166 1.25292 -1.02535 0
M  V30 2800 H 261.158 4.03464 0.315991 0
M  V30 2801 H 259.728 3.04569 0.704011 0
M  V30 2802 H 258.948 3.54122 -1.73179 0
M  V30 2803 H 260.236 4.75673 -1.80589 0
M  V30 2804 H 259.634 5.50911 1.28504 0
M  V30 2805 H 258.191 6.42387 1.10376 0
M  V30 2806 N 261.624 0.925811 1.2754 0
M  V30 2807 C 262.587 0.428129 2.25166 0
M  V30 2808 C 263.587 -0.452261 1.54309 0
M  V30 2809 O 264.777 -0.253608 1.72344 0
M  V30 2810 C 261.909 -0.384749 3.38722 0
M  V30 2811 H 263.102 1.29066 2.70706 0
M  V30 2812 H 260.655 0.706323 1.3943 0
M  V30 2813 H 261.39 -1.26618 2.98561 0
M  V30 2814 H 261.175 0.246454 3.91325 0
M  V30 2815 H 262.665 -0.723389 4.11287 0
M  V30 2816 N 263.102 -1.41638 0.69111 0
M  V30 2817 C 264.065 -2.29178 0.0319786 0
M  V30 2818 C 265.065 -1.44153 -0.712496 0
M  V30 2819 O 266.255 -1.65354 -0.548053 0
M  V30 2820 C 263.387 -3.26952 -0.965161 0
M  V30 2821 H 264.58 -2.88959 0.802681 0
M  V30 2822 H 262.133 -1.4955 0.454356 0
M  V30 2823 H 262.868 -2.72142 -1.76378 0
M  V30 2824 H 262.653 -3.89685 -0.434522 0
M  V30 2825 H 264.143 -3.92561 -1.42428 0
M  V30 2826 N 264.58 -0.43555 -1.51462 0
M  V30 2827 C 265.805 0.132627 -2.06976 0
M  V30 2828 C 266.23 1.35848 -1.30104 0
M  V30 2829 O 265.588 1.78112 -0.338493 0
M  V30 2830 C 265.636 0.43523 -3.57964 0
M  V30 2831 O 264.74 1.52198 -3.83288 0
M  V30 2832 H 264.081 0.00265 -0.663995 0
M  V30 2833 H 266.611 -0.616369 -1.95095 0
M  V30 2834 H 266.621 0.686206 -4.02188 0
M  V30 2835 H 265.296 -0.460739 -4.1334 0
M  V30 2836 H 263.873 1.2611 -3.50928 0
M  V30 2837 N 266.058 1.56714 -0.166846 0
M  V30 2838 C 267.335 1.88412 0.525373 0
M  V30 2839 C 267.715 1.07602 1.81618 0
M  V30 2840 O 267.063 0.168621 2.27877 0
M  V30 2841 C 267.273 3.40363 0.771613 0
M  V30 2842 C 268.621 4.10007 1.1036 0
M  V30 2843 O 269.645 3.45655 0.860304 0
M  V30 2844 O 268.504 5.2369 1.56239 0
M  V30 2845 H 265.598 0.781587 0.270278 0
M  V30 2846 H 268.144 1.68458 -0.204946 0
M  V30 2847 H 266.916 3.91046 -0.141093 0
M  V30 2848 H 266.539 3.65914 1.55541 0
M  V30 2849 N 267.536 -0.106894 1.57237 0
M  V30 2850 C 268.486 -1.1366 1.9765 0
M  V30 2851 C 269.47 -1.36416 0.853203 0
M  V30 2852 O 270.662 -1.37305 1.11697 0
M  V30 2853 C 267.791 -2.46 2.39455 0
M  V30 2854 C 266.877 -2.26668 3.58445 0
M  V30 2855 N 267.268 -1.77176 4.73754 0
M  V30 2856 C 265.566 -2.57279 3.64312 0
M  V30 2857 C 266.267 -1.71836 5.5574 0
M  V30 2858 N 265.243 -2.16623 4.98573 0
M  V30 2859 H 269.045 -0.74669 2.84256 0
M  V30 2860 H 266.559 -0.314483 1.59326 0
M  V30 2861 H 268.556 -3.2049 2.6663 0
M  V30 2862 H 267.216 -2.85738 1.54219 0
M  V30 2863 H 268.227 -1.46545 4.96734 0
M  V30 2864 H 264.904 -3.00622 2.89711 0
M  V30 2865 H 266.294 -1.34723 6.58255 0
M  V30 2866 N 269.014 -1.53014 -0.377408 0
M  V30 2867 C 270.263 -1.67845 -1.11853 0
M  V30 2868 C 270.576 -0.430625 -1.90801 0
M  V30 2869 O 271.782 -0.459261 -2.67587 0
M  V30 2870 C 270.238 -2.96668 -2.03756 0
M  V30 2871 C 269.846 -4.28671 -1.30175 0
M  V30 2872 C 271.59 -3.20865 -2.77932 0
M  V30 2873 C 269.497 -5.48591 -2.20911 0
M  V30 2874 H 268.427 -0.625343 -0.421263 0
M  V30 2875 H 271.078 -1.79514 -0.380409 0
M  V30 2876 H 269.46 -2.78773 -2.8125 0
M  V30 2877 H 270.634 -4.57157 -0.578259 0
M  V30 2878 H 268.949 -4.10825 -0.679108 0
M  V30 2879 H 271.546 -4.07642 -3.46024 0
M  V30 2880 H 271.889 -2.36424 -3.4265 0
M  V30 2881 H 272.422 -3.39379 -2.07525 0
M  V30 2882 H 269.161 -6.35474 -1.6079 0
M  V30 2883 H 268.681 -5.244 -2.91144 0
M  V30 2884 H 270.36 -5.8292 -2.80736 0
M  V30 2885 N 270.492 0.636531 -1.44174 0
M  V30 2886 C 271.717 1.42847 -1.50364 0
M  V30 2887 C 272.142 1.87665 -0.127867 0
M  V30 2888 O 271.5 1.58408 0.88185 0
M  V30 2889 C 271.548 2.62854 -2.4686 0
M  V30 2890 O 270.652 3.62501 -1.9664 0
M  V30 2891 H 269.993 0.427642 -0.507955 0
M  V30 2892 H 272.523 0.777422 -1.89255 0
M  V30 2893 H 272.533 3.10465 -2.64718 0
M  V30 2894 H 271.208 2.29578 -3.46795 0
M  V30 2895 H 269.785 3.21735 -1.88523 0
M  V30 2896 N 271.97 1.30982 0.876444 0
M  V30 2897 C 272.933 1.18054 1.96459 0
M  V30 2898 C 273.933 0.109399 1.60427 0
M  V30 2899 O 275.123 0.358173 1.70478 0
M  V30 2900 C 272.255 0.810616 3.31122 0
M  V30 2901 H 273.448 2.14735 2.09354 0
M  V30 2902 H 271.001 1.145 1.06392 0
M  V30 2903 H 271.736 -0.155322 3.23928 0
M  V30 2904 H 271.521 1.58481 3.58645 0
M  V30 2905 H 273.011 0.743876 4.10921 0
M  V30 2906 N 273.449 -1.08991 1.13837 0
M  V30 2907 C 274.697 -1.80899 0.901098 0
M  V30 2908 C 275.018 -1.86356 -0.574134 0
M  V30 2909 O 274.288 -1.35235 -1.41733 0
M  V30 2910 H 272.868 -0.669966 0.330386 0
M  V30 2911 H 275.53 -1.318 1.43578 0
M  V30 2912 H 274.626 -2.83929 1.29578 0
M  V30 2913 N 274.927 -0.932562 -1.27047 0
M  V30 2914 C 275.89 -0.440064 -2.24936 0
M  V30 2915 C 276.89 0.444071 -1.54547 0
M  V30 2916 O 278.08 0.244465 -1.72476 0
M  V30 2917 C 275.212 0.36678 -3.38921 0
M  V30 2918 H 276.405 -1.305 -2.70018 0
M  V30 2919 H 273.958 -0.713707 -1.39054 0
M  V30 2920 H 274.693 1.25033 -2.99228 0
M  V30 2921 H 274.478 -0.267204 -3.91188 0
M  V30 2922 H 275.968 0.701567 -4.11665 0
M  V30 2923 N 276.405 1.4127 -0.698611 0
M  V30 2924 C 277.337 2.292 0.00399731 0
M  V30 2925 C 278.35 1.44944 0.741279 0
M  V30 2926 O 279.539 1.68416 0.591477 0
M  V30 2927 C 276.639 3.22875 1.02979 0
M  V30 2928 C 275.812 4.35904 0.36151 0
M  V30 2929 C 274.871 5.10134 1.29033 0
M  V30 2930 O 273.897 5.63809 0.781562 0
M  V30 2931 N 275.099 5.17885 2.6225 0
M  V30 2932 H 277.864 2.9014 -0.750921 0
M  V30 2933 H 275.425 1.52455 -0.544882 0
M  V30 2934 H 277.417 3.69404 1.65296 0
M  V30 2935 H 275.987 2.63221 1.68622 0
M  V30 2936 H 275.207 3.91719 -0.441584 0
M  V30 2937 H 276.495 5.08696 -0.103055 0
M  V30 2938 H 275.893 4.7573 3.061 0
M  V30 2939 H 274.45 5.6798 3.19754 0
M  V30 2940 N 277.883 0.443576 1.51229 0
M  V30 2941 C 279.299 0.0962001 1.5931 0
M  V30 2942 C 279.499 -1.39501 1.45402 0
M  V30 2943 O 278.555 -2.16557 1.29843 0
M  V30 2944 C 279.868 0.621875 2.94199 0
M  V30 2945 C 281.416 0.582865 3.07525 0
M  V30 2946 C 281.891 1.08562 4.44948 0
M  V30 2947 N 283.382 1.04387 4.51284 0
M  V30 2948 C 284.117 1.40368 5.55954 0
M  V30 2949 N 283.613 1.83664 6.68011 0
M  V30 2950 N 285.406 1.32145 5.46346 0
M  V30 2951 H 277.557 1.41376 1.58514 0
M  V30 2952 H 279.82 0.582965 0.747567 0
M  V30 2953 H 279.526 1.66546 3.09767 0
M  V30 2954 H 279.4 0.0502125 3.77167 0
M  V30 2955 H 281.787 -0.451749 2.91622 0
M  V30 2956 H 281.868 1.191 2.26382 0
M  V30 2957 H 281.512 2.11873 4.61598 0
M  V30 2958 H 281.442 0.453956 5.2464 0
M  V30 2959 H 283.933 0.725986 3.70861 0
M  V30 2960 H 284.246 2.0934 7.43906 0
M  V30 2961 H 282.591 1.87596 6.69203 0
M  V30 2962 H 285.782 0.981808 4.57688 0
M  V30 2963 H 285.955 1.60514 6.27805 0
M  V30 2964 N 279.361 -1.56624 0.175154 0
M  V30 2965 C 280.607 -1.9729 -0.469506 0
M  V30 2966 C 280.94 -1.06128 -1.62636 0
M  V30 2967 O 280.215 -0.109183 -1.94193 0
M  V30 2968 C 280.498 -3.47375 -0.948804 0
M  V30 2969 C 280.351 -4.49317 0.208491 0
M  V30 2970 C 281.67 -4.00652 -1.82116 0
M  V30 2971 H 278.789 -0.717317 -0.16919 0
M  V30 2972 H 281.431 -1.88184 0.262062 0
M  V30 2973 H 279.581 -3.55267 -1.57219 0
M  V30 2974 H 281.253 -4.53482 0.845682 0
M  V30 2975 H 279.496 -4.25121 0.863395 0
M  V30 2976 H 280.167 -5.51741 -0.169059 0
M  V30 2977 H 282.643 -3.95416 -1.2956 0
M  V30 2978 H 281.519 -5.06075 -2.12554 0
M  V30 2979 H 281.78 -3.44699 -2.7683 0
M  V30 2980 N 280.839 0.0985539 -1.57292 0
M  V30 2981 C 282.085 0.803867 -1.86188 0
M  V30 2982 C 282.418 1.78549 -0.763794 0
M  V30 2983 O 281.693 1.93153 0.22855 0
M  V30 2984 C 281.976 1.53568 -3.25713 0
M  V30 2985 C 281.829 0.572277 -4.46145 0
M  V30 2986 C 283.148 2.48708 -3.63087 0
M  V30 2987 H 280.267 0.290781 -0.677211 0
M  V30 2988 H 282.909 0.0675783 -1.8988 0
M  V30 2989 H 281.059 2.16332 -3.22696 0
M  V30 2990 H 282.731 -0.0480894 -4.61275 0
M  V30 2991 H 280.974 -0.114618 -4.33649 0
M  V30 2992 H 281.645 1.12139 -5.40489 0
M  V30 2993 H 284.121 1.96039 -3.67026 0
M  V30 2994 H 282.997 2.96932 -4.61652 0
M  V30 2995 H 283.258 3.32309 -2.91588 0
M  V30 2996 N 282.317 1.53212 0.369288 0
M  V30 2997 C 283.566 1.68436 1.10961 0
M  V30 2998 C 283.879 0.440738 1.9057 0
M  V30 2999 O 285.085 0.473446 2.6734 0
M  V30 3000 C 283.541 2.97744 2.0218 0
M  V30 3001 C 283.149 4.29355 1.279 0
M  V30 3002 C 284.893 3.22334 2.76226 0
M  V30 3003 C 282.8 5.49755 2.17999 0
M  V30 3004 H 281.73 0.627568 0.41794 0
M  V30 3005 H 284.381 1.79713 0.370884 0
M  V30 3006 H 282.763 2.8026 2.79768 0
M  V30 3007 H 283.937 4.57458 0.554007 0
M  V30 3008 H 282.252 4.11179 0.657311 0
M  V30 3009 H 284.849 4.09471 3.43857 0
M  V30 3010 H 285.192 2.38238 3.41392 0
M  V30 3011 H 285.725 3.40475 2.05723 0
M  V30 3012 H 282.464 6.36318 1.57417 0
M  V30 3013 H 281.984 5.25937 2.88359 0
M  V30 3014 H 283.663 5.84401 2.77641 0
M  V30 3015 N 283.795 -0.628877 1.44509 0
M  V30 3016 C 285.02 -1.42048 1.5112 0
M  V30 3017 C 285.445 -1.87594 0.137818 0
M  V30 3018 O 284.803 -1.58873 -0.873437 0
M  V30 3019 C 284.851 -2.61541 2.48251 0
M  V30 3020 O 283.955 -3.61453 1.98559 0
M  V30 3021 H 283.296 -0.424942 0.510216 0
M  V30 3022 H 285.826 -0.767374 1.89664 0
M  V30 3023 H 285.836 -3.09057 2.66361 0
M  V30 3024 H 284.511 -2.27736 3.48007 0
M  V30 3025 H 283.088 -3.20731 1.90227 0
M  V30 3026 N 285.273 -1.31445 -0.869486 0
M  V30 3027 C 286.236 -1.19094 -1.9583 0
M  V30 3028 C 287.236 -0.117906 -1.60367 0
M  V30 3029 O 288.426 -0.367208 -1.70286 0
M  V30 3030 C 285.558 -0.828165 -3.30688 0
M  V30 3031 H 286.751 -2.15842 -2.08212 0
M  V30 3032 H 284.304 -1.15063 -1.05784 0
M  V30 3033 H 285.039 0.138142 -3.24006 0
M  V30 3034 H 284.824 -1.6038 -3.578 0
M  V30 3035 H 286.314 -0.765658 -4.10521 0
M  V30 3036 N 286.751 1.08385 -1.14413 0
M  V30 3037 C 288.162 1.62258 -0.923535 0
M  V30 3038 C 288.513 1.88691 0.537595 0
M  V30 3039 O 287.638 1.64454 1.40655 0
M  V30 3040 C 288.233 2.94781 -1.67002 0
M  V30 3041 C 286.792 3.45437 -1.495 0
M  V30 3042 C 285.939 2.19668 -1.69238 0
M  V30 3043 H 288.89 0.916086 -1.2959 0
M  V30 3044 H 288.911 3.63229 -1.13334 0
M  V30 3045 H 288.423 2.7551 -2.73342 0
M  V30 3046 H 286.524 3.6981 -0.455097 0
M  V30 3047 H 286.637 4.22173 -2.2651 0
M  V30 3048 H 285.001 2.28849 -1.11804 0
M  V30 3049 H 285.784 2.02905 -2.7692 0
M  V30 3050 N 288.23 0.939286 1.26551 0
M  V30 3051 C 289.455 0.602008 1.98471 0
M  V30 3052 C 289.88 -0.815624 1.69497 0
M  V30 3053 O 289.238 -1.54912 0.941905 0
M  V30 3054 C 289.286 0.848407 3.50477 0
M  V30 3055 O 288.39 -0.0804009 4.12322 0
M  V30 3056 H 287.731 0.23049 0.622712 0
M  V30 3057 H 290.261 1.2617 1.61066 0
M  V30 3058 H 290.271 0.768553 4.00696 0
M  V30 3059 H 288.946 1.88171 3.70897 0
M  V30 3060 H 287.523 0.0503508 3.72866 0
M  V30 3061 N 289.708 -1.40897 0.706093 0
M  V30 3062 C 291.119 -1.84023 0.315052 0
M  V30 3063 C 291.47 -1.5906 -1.14866 0
M  V30 3064 O 290.595 -1.06651 -1.88293 0
M  V30 3065 C 291.19 -3.34055 0.565038 0
M  V30 3066 C 289.749 -3.7571 0.227806 0
M  V30 3067 C 288.896 -2.64204 0.842122 0
M  V30 3068 H 291.847 -1.303 0.905963 0
M  V30 3069 H 291.868 -3.80107 -0.172843 0
M  V30 3070 H 291.38 -3.52192 1.63042 0
M  V30 3071 H 289.481 -3.63172 -0.832895 0
M  V30 3072 H 289.594 -4.74103 0.690174 0
M  V30 3073 H 287.958 -2.53255 0.270893 0
M  V30 3074 H 288.741 -2.85155 1.91158 0
M  V30 3075 N 291.186 -0.45159 -1.50991 0
M  V30 3076 C 292.463 0.170707 -1.94854 0
M  V30 3077 C 292.843 1.58788 -1.39103 0
M  V30 3078 O 292.191 2.20913 -0.583921 0
M  V30 3079 C 292.401 0.133929 -3.48743 0
M  V30 3080 C 293.749 0.33248 -4.23296 0
M  V30 3081 O 294.773 0.211403 -3.55572 0
M  V30 3082 O 293.632 0.57486 -5.43468 0
M  V30 3083 H 290.726 0.122264 -0.817912 0
M  V30 3084 H 293.272 -0.510594 -1.61836 0
M  V30 3085 H 292.044 -0.856283 -3.81816 0
M  V30 3086 H 291.667 0.857529 -3.88242 0
M  V30 3087 N 292.664 1.56529 -0.183458 0
M  V30 3088 C 293.627 2.17324 0.728223 0
M  V30 3089 C 294.627 1.12453 1.14939 0
M  V30 3090 O 295.817 1.37902 1.06437 0
M  V30 3091 C 292.949 2.76591 1.99274 0
M  V30 3092 H 294.142 2.99241 0.198772 0
M  V30 3093 H 291.695 1.5616 0.0661391 0
M  V30 3094 H 292.43 1.98441 2.56499 0
M  V30 3095 H 292.215 3.5335 1.69959 0
M  V30 3096 H 293.705 3.23311 2.6431 0
M  V30 3097 N 294.142 -0.090211 1.57342 0
M  V30 3098 C 295.553 -0.644173 1.75235 0
M  V30 3099 C 295.904 -1.78865 0.806335 0
M  V30 3100 O 295.029 -2.16395 -0.0140128 0
M  V30 3101 C 295.624 -1.17532 3.1776 0
M  V30 3102 C 294.183 -1.67531 3.37061 0
M  V30 3103 C 293.33 -0.58693 2.71017 0
M  V30 3104 H 296.281 0.135884 1.58117 0
M  V30 3105 H 296.302 -2.04455 3.20902 0
M  V30 3106 H 295.814 -0.342138 3.86589 0
M  V30 3107 H 293.915 -2.53234 2.73319 0
M  V30 3108 H 294.028 -1.76493 4.45406 0
M  V30 3109 H 292.392 -1.02756 2.33052 0
M  V30 3110 H 293.175 0.235758 3.4249 0
M  V30 3111 N 295.62 -1.53406 -0.361157 0
M  V30 3112 C 296.553 -1.74946 -1.46524 0
M  V30 3113 C 297.531 -0.59795 -1.51206 0
M  V30 3114 O 298.715 -0.831062 -1.69191 0
M  V30 3115 C 295.842 -1.83224 -2.84863 0
M  V30 3116 C 294.888 -3.05233 -2.97885 0
M  V30 3117 S 295.721 -4.6466 -2.66179 0
M  V30 3118 C 296.877 -4.75793 -4.06659 0
M  V30 3119 H 297.11 -2.68319 -1.28033 0
M  V30 3120 H 294.643 -1.44051 -0.555764 0
M  V30 3121 H 296.601 -1.88679 -3.64569 0
M  V30 3122 H 295.262 -0.908948 -3.00661 0
M  V30 3123 H 294.455 -3.07648 -3.9921 0
M  V30 3124 H 294.057 -2.97913 -2.26106 0
M  V30 3125 H 296.349 -4.5612 -5.0096 0
M  V30 3126 H 297.292 -5.7786 -4.09247 0
M  V30 3127 H 297.7 -4.04389 -3.93865 0
M  V30 3128 N 297.098 0.621204 -1.44841 0
M  V30 3129 C 298.345 1.38055 -1.48145 0
M  V30 3130 C 298.673 1.94143 -0.117867 0
M  V30 3131 O 297.928 1.74713 0.881694 0
M  V30 3132 C 298.227 2.55675 -2.4973 0
M  V30 3133 C 297.893 2.17817 -3.94799 0
M  V30 3134 C 296.555 2.07205 -4.34303 0
M  V30 3135 C 298.907 1.88065 -4.86087 0
M  V30 3136 C 296.235 1.65045 -5.63007 0
M  V30 3137 C 298.587 1.47394 -6.15189 0
M  V30 3138 C 297.251 1.35331 -6.53637 0
M  V30 3139 H 296.521 0.505181 -0.542101 0
M  V30 3140 H 299.168 0.703477 -1.78111 0
M  V30 3141 H 297.473 3.2866 -2.13284 0
M  V30 3142 H 299.17 3.13904 -2.4953 0
M  V30 3143 H 295.76 2.26998 -3.63552 0
M  V30 3144 H 299.944 1.95168 -4.56315 0
M  V30 3145 H 295.2 1.54317 -5.91605 0
M  V30 3146 H 299.374 1.23415 -6.85377 0
M  V30 3147 H 297.001 1.02435 -7.53267 0
M  V30 3148 N 298.576 1.31904 0.862503 0
M  V30 3149 C 299.822 1.22197 1.61851 0
M  V30 3150 C 300.155 -0.217641 1.92977 0
M  V30 3151 O 299.43 -1.15264 1.56666 0
M  V30 3152 C 299.713 2.07378 2.94391 0
M  V30 3153 C 299.566 3.59678 2.70096 0
M  V30 3154 C 300.885 1.92891 3.95577 0
M  V30 3155 H 298.004 0.445255 0.587296 0
M  V30 3156 H 300.646 1.6177 0.99651 0
M  V30 3157 H 298.796 1.73758 3.47477 0
M  V30 3158 H 300.468 4.03472 2.23625 0
M  V30 3159 H 298.711 3.82735 2.04197 0
M  V30 3160 H 299.382 4.14595 3.64438 0
M  V30 3161 H 301.858 2.22327 3.51724 0
M  V30 3162 H 300.734 2.54781 4.86187 0
M  V30 3163 H 300.995 0.894315 4.3296 0
M  V30 3164 N 300.054 -1.07777 1.14986 0
M  V30 3165 C 300.987 -2.14228 0.786243 0
M  V30 3166 C 301.965 -1.60888 -0.235347 0
M  V30 3167 O 303.149 -1.88099 -0.122909 0
M  V30 3168 C 300.276 -3.38281 0.168433 0
M  V30 3169 C 299.322 -4.10387 1.16123 0
M  V30 3170 S 300.155 -4.62371 2.70135 0
M  V30 3171 C 301.311 -5.89704 2.09762 0
M  V30 3172 H 301.544 -2.44741 1.68787 0
M  V30 3173 H 299.077 -1.19984 0.971756 0
M  V30 3174 H 301.035 -4.10098 -0.181588 0
M  V30 3175 H 299.696 -3.05953 -0.710725 0
M  V30 3176 H 298.889 -4.99431 0.677086 0
M  V30 3177 H 298.491 -3.44513 1.45556 0
M  V30 3178 H 300.783 -6.61648 1.45701 0
M  V30 3179 H 301.726 -6.42824 2.96955 0
M  V30 3180 H 302.134 -5.4302 1.54239 0
M  V30 3181 N 301.532 -0.945985 -1.26051 0
M  V30 3182 C 302.78 -0.594941 -1.93145 0
M  V30 3183 C 303.101 0.86953 -1.7454 0
M  V30 3184 O 302.371 1.61838 -1.10387 0
M  V30 3185 H 300.951 -0.217044 -0.714773 0
M  V30 3186 H 303.613 -1.20235 -1.53393 0
M  V30 3187 H 302.709 -0.816835 -3.01221 0
M  V30 3188 N 303.011 1.40521 -0.713556 0
M  V30 3189 C 304.257 2.01221 -0.252564 0
M  V30 3190 C 304.59 1.56444 1.1506 0
M  V30 3191 O 303.865 0.783597 1.78017 0
M  V30 3192 C 304.148 3.58582 -0.330332 0
M  V30 3193 C 304.001 4.13437 -1.77173 0
M  V30 3194 C 305.32 4.39079 0.299641 0
M  V30 3195 H 302.439 0.731077 -0.0932471 0
M  V30 3196 H 305.081 1.67026 -0.905673 0
M  V30 3197 H 303.231 3.87844 0.225737 0
M  V30 3198 H 304.903 3.9498 -2.38303 0
M  V30 3199 H 303.146 3.67801 -2.3001 0
M  V30 3200 H 303.817 5.22597 -1.77755 0
M  V30 3201 H 306.293 4.15735 -0.174139 0
M  V30 3202 H 305.169 5.4848 0.214771 0
M  V30 3203 H 305.43 4.19915 1.38288 0
M  V30 3204 N 304.489 0.459591 1.5075 0
M  V30 3205 C 305.437 -0.354678 2.2988 0
M  V30 3206 C 306.431 -1.00086 1.36672 0
M  V30 3207 O 307.637 -0.933277 1.53915 0
M  V30 3208 H 304.012 -0.13321 0.740107 0
M  V30 3209 H 305.983 0.333269 2.96533 0
M  V30 3210 C 304.732 -1.43073 3.169 0
M  V30 3211 H 304.055 -0.942882 3.88523 0
M  V30 3212 H 305.495 -1.97328 3.75284 0
M  V30 3213 C 303.954 -2.42633 2.33732 0
M  V30 3214 O 304.484 -3.47658 2.01238 0
M  V30 3215 N 302.69 -2.14066 1.9653 0
M  V30 3216 H 302.237 -1.28685 2.23155 0
M  V30 3217 H 302.195 -2.80917 1.41185 0
M  V30 3218 N 305.967 -1.56429 0.191757 0
M  V30 3219 C 306.877 -2.22541 -0.742481 0
M  V30 3220 C 307.893 -1.22342 -1.23727 0
M  V30 3221 O 309.069 -1.55069 -1.28513 0
M  V30 3222 C 306.134 -2.8692 -1.94623 0
M  V30 3223 C 305.195 -4.02378 -1.49633 0
M  V30 3224 C 304.428 -4.63678 -2.6427 0
M  V30 3225 O 304.651 -4.23895 -3.81666 0
M  V30 3226 O 303.585 -5.53202 -2.37174 0
M  V30 3227 H 307.411 -3.02977 -0.209462 0
M  V30 3228 H 304.996 -1.49353 -0.0373832 0
M  V30 3229 H 306.878 -3.27663 -2.64982 0
M  V30 3230 H 305.553 -2.09466 -2.46791 0
M  V30 3231 H 304.46 -3.66265 -0.761636 0
M  V30 3232 H 305.793 -4.81487 -1.02134 0
M  V30 3233 N 307.445 0.0818655 -1.57387 0
M  V30 3234 C 308.393 1.11712 -2.04018 0
M  V30 3235 C 309.387 1.40683 -0.94364 0
M  V30 3236 O 310.593 1.40209 -1.12878 0
M  V30 3237 H 306.968 0.377542 -0.650358 0
M  V30 3238 H 308.939 0.697614 -2.90131 0
M  V30 3239 C 307.688 2.42537 -2.49141 0
M  V30 3240 H 307.011 2.21092 -3.33104 0
M  V30 3241 H 308.451 3.13446 -2.85531 0
M  V30 3242 C 306.91 3.0778 -1.37014 0
M  V30 3243 O 307.44 3.95436 -0.706621 0
M  V30 3244 N 305.646 2.68242 -1.11779 0
M  V30 3245 H 305.193 1.97052 -1.65917 0
M  V30 3246 H 305.151 3.1222 -0.369594 0
M  V30 3247 N 308.923 1.53595 0.353017 0
M  V30 3248 C 310.2 1.61002 1.11075 0
M  V30 3249 C 310.58 0.425356 2.0677 0
M  V30 3250 O 309.928 -0.583267 2.2093 0
M  V30 3251 C 310.138 2.96631 1.83877 0
M  V30 3252 C 311.486 3.51653 2.37961 0
M  V30 3253 O 312.51 2.98743 1.93987 0
M  V30 3254 O 311.369 4.44177 3.18386 0
M  V30 3255 H 308.463 0.650825 0.510251 0
M  V30 3256 H 311.009 1.6594 0.35527 0
M  V30 3257 H 309.781 3.74293 1.14108 0
M  V30 3258 H 309.404 2.95242 2.66304 0
M  V30 3259 N 310.401 -0.613514 1.45168 0
M  V30 3260 C 311.631 -1.39743 1.52169 0
M  V30 3261 C 312.039 -1.88596 0.151086 0
M  V30 3262 O 311.382 -1.6251 -0.856521 0
M  V30 3263 C 311.444 -2.64035 2.43979 0
M  V30 3264 C 311.108 -2.36861 3.90827 0
M  V30 3265 C 312.105 -1.97591 4.80889 0
M  V30 3266 C 309.79 -2.49956 4.35692 0
M  V30 3267 C 311.784 -1.71768 6.1382 0
M  V30 3268 C 309.471 -2.23747 5.68665 0
M  V30 3269 C 310.469 -1.84714 6.57548 0
M  V30 3270 O 310.157 -1.58809 7.88058 0
M  V30 3271 H 309.889 -0.434382 0.517966 0
M  V30 3272 H 312.443 -0.75587 1.90986 0
M  V30 3273 H 310.673 -3.3089 2.00122 0
M  V30 3274 H 312.362 -3.26069 2.41731 0
M  V30 3275 H 313.128 -1.87015 4.47493 0
M  V30 3276 H 309.007 -2.79305 3.66756 0
M  V30 3277 H 312.551 -1.41227 6.83155 0
M  V30 3278 H 308.448 -2.33938 6.01617 0
M  V30 3279 H 309.216 -1.7291 8.00028 0
M  V30 3280 N 311.879 -1.3236 -0.855495 0
M  V30 3281 C 312.827 -1.2118 -1.9854 0
M  V30 3282 C 313.821 -0.116788 -1.68997 0
M  V30 3283 O 315.027 -0.279657 -1.77814 0
M  V30 3284 H 311.402 -0.375608 -0.651477 0
M  V30 3285 H 313.373 -2.16743 -2.05098 0
M  V30 3286 C 312.122 -0.950849 -3.34446 0
M  V30 3287 H 311.445 -1.78563 -3.57708 0
M  V30 3288 H 312.885 -0.912863 -4.14057 0
M  V30 3289 C 311.344 0.346404 -3.35114 0
M  V30 3290 O 311.874 1.35855 -3.7803 0
M  V30 3291 N 310.08 0.36808 -2.88259 0
M  V30 3292 H 309.627 -0.456102 -2.5353 0
M  V30 3293 H 309.585 1.23591 -2.89089 0
M  V30 3294 N 313.357 1.07166 -1.15556 0
M  V30 3295 C 314.768 1.6127 -0.940693 0
M  V30 3296 C 315.119 1.89251 0.517551 0
M  V30 3297 O 314.244 1.65937 1.38903 0
M  V30 3298 C 314.839 2.92993 -1.7012 0
M  V30 3299 C 313.398 3.43832 -1.53156 0
M  V30 3300 C 312.545 2.1786 -1.71558 0
M  V30 3301 H 315.496 0.90229 -1.30554 0
M  V30 3302 H 315.517 3.62007 -1.17181 0
M  V30 3303 H 315.029 2.72596 -2.76248 0
M  V30 3304 H 313.13 3.69307 -0.494294 0
M  V30 3305 H 313.243 4.19747 -2.30975 0
M  V30 3306 H 311.607 2.2765 -1.14225 0
M  V30 3307 H 312.39 1.99956 -2.79056 0
M  V30 3308 N 314.835 0.952656 1.25548 0
M  V30 3309 C 316.083 0.605176 1.92826 0
M  V30 3310 C 316.404 -0.860261 1.74999 0
M  V30 3311 O 315.674 -1.6125 1.11244 0
M  V30 3312 H 314.254 0.220832 0.713612 0
M  V30 3313 H 316.916 1.21047 1.52754 0
M  V30 3314 H 316.012 0.832798 3.00784 0
M  V30 3315 N 316.313 -1.40141 0.720998 0
M  V30 3316 C 317.538 -2.05618 0.271258 0
M  V30 3317 C 317.963 -1.53978 -1.08039 0
M  V30 3318 O 317.321 -0.677463 -1.68167 0
M  V30 3319 C 317.369 -3.59609 0.267197 0
M  V30 3320 O 316.473 -4.05526 -0.749814 0
M  V30 3321 H 315.814 -0.651904 0.126162 0
M  V30 3322 H 318.344 -1.79439 0.982997 0
M  V30 3323 H 318.354 -4.0786 0.106744 0
M  V30 3324 H 317.029 -3.96559 1.25354 0
M  V30 3325 H 315.606 -3.68722 -0.556644 0
M  V30 3326 N 317.792 -0.46758 -1.50504 0
M  V30 3327 C 318.725 0.374324 -2.25109 0
M  V30 3328 C 319.703 0.99921 -1.28275 0
M  V30 3329 O 320.887 1.03583 -1.57489 0
M  V30 3330 C 318.014 1.52419 -3.02467 0
M  V30 3331 C 317.06 1.01702 -4.14197 0
M  V30 3332 S 317.893 -0.0654477 -5.3546 0
M  V30 3333 C 319.049 1.08837 -6.16365 0
M  V30 3334 H 319.282 -0.258983 -2.9617 0
M  V30 3335 H 316.815 -0.252421 -1.52323 0
M  V30 3336 H 318.773 2.18322 -3.47628 0
M  V30 3337 H 317.434 2.129 -2.30938 0
M  V30 3338 H 316.627 1.87776 -4.67714 0
M  V30 3339 H 316.229 0.435757 -3.71453 0
M  V30 3340 H 318.521 2.00071 -6.47285 0
M  V30 3341 H 319.464 0.592538 -7.05616 0
M  V30 3342 H 319.872 1.34061 -5.4835 0
M  V30 3343 N 319.27 1.56325 -0.20005 0
M  V30 3344 C 320.218 2.20666 0.735482 0
M  V30 3345 C 321.212 1.17934 1.21605 0
M  V30 3346 O 322.418 1.36068 1.17837 0
M  V30 3347 H 318.793 0.70725 0.255542 0
M  V30 3348 H 320.764 2.9792 0.169166 0
M  V30 3349 C 319.513 2.88391 1.94232 0
M  V30 3350 H 318.836 3.67185 1.58161 0
M  V30 3351 H 320.276 3.3684 2.57517 0
M  V30 3352 C 318.735 1.89692 2.78421 0
M  V30 3353 O 319.265 1.40032 3.76502 0
M  V30 3354 N 317.471 1.57813 2.44015 0
M  V30 3355 H 317.018 1.9839 1.64314 0
M  V30 3356 H 316.976 0.920325 3.00628 0
M  V30 3357 N 320.748 -0.0735177 1.57428 0
M  V30 3358 C 321.997 -0.771809 1.86349 0
M  V30 3359 C 322.31 -1.78828 0.792452 0
M  V30 3360 O 323.516 -2.53602 0.96945 0
M  V30 3361 C 321.972 -1.42358 3.30548 0
M  V30 3362 C 321.58 -0.445761 4.45777 0
M  V30 3363 C 323.324 -2.10434 3.6867 0
M  V30 3364 C 321.231 -1.10335 5.81016 0
M  V30 3365 H 320.161 -0.291999 0.695164 0
M  V30 3366 H 322.812 -0.0250749 1.83483 0
M  V30 3367 H 321.194 -2.21852 3.28021 0
M  V30 3368 H 322.368 0.319239 4.59693 0
M  V30 3369 H 320.683 0.130457 4.16196 0
M  V30 3370 H 323.28 -2.60405 4.67004 0
M  V30 3371 H 323.623 -2.90298 2.98383 0
M  V30 3372 H 324.156 -1.37773 3.7318 0
M  V30 3373 H 320.895 -0.345061 6.54591 0
M  V30 3374 H 320.415 -1.83925 5.70904 0
M  V30 3375 H 322.094 -1.62367 6.26295 0
M  V30 3376 N 322.226 -1.5378 -0.344866 0
M  V30 3377 C 323.472 -1.71216 -1.08687 0
M  V30 3378 C 323.805 -0.473281 -1.88345 0
M  V30 3379 O 323.08 0.52968 -1.87149 0
M  V30 3380 C 323.363 -2.97486 -2.02914 0
M  V30 3381 C 323.216 -4.31579 -1.26727 0
M  V30 3382 C 324.535 -3.19422 -3.0275 0
M  V30 3383 H 321.654 -0.62301 -0.393735 0
M  V30 3384 H 324.296 -1.8645 -0.365563 0
M  V30 3385 H 322.446 -2.84629 -2.64421 0
M  V30 3386 H 324.118 -4.56284 -0.67845 0
M  V30 3387 H 322.361 -4.30049 -0.569273 0
M  V30 3388 H 323.032 -5.16106 -1.95803 0
M  V30 3389 H 325.508 -3.316 -2.51357 0
M  V30 3390 H 324.384 -4.09169 -3.65885 0
M  V30 3391 H 324.645 -2.35656 -3.74057 0
M  V30 3392 N 323.704 0.605807 -1.45491 0
M  V30 3393 C 324.929 1.39625 -1.53361 0
M  V30 3394 C 325.354 1.87351 -0.167645 0
M  V30 3395 O 324.712 1.60243 0.848051 0
M  V30 3396 C 324.76 2.57559 -2.5238 0
M  V30 3397 O 323.864 3.58248 -2.04285 0
M  V30 3398 H 323.205 0.416771 -0.516912 0
M  V30 3399 H 325.735 0.737103 -1.90861 0
M  V30 3400 H 325.745 3.0478 -2.71244 0
M  V30 3401 H 324.42 2.22171 -3.51586 0
M  V30 3402 H 322.997 3.17664 -1.95305 0
M  V30 3403 N 325.182 1.32811 0.848464 0
M  V30 3404 C 326.13 1.22231 1.97895 0
M  V30 3405 C 327.124 0.125749 1.68933 0
M  V30 3406 O 328.33 0.289083 1.77663 0
M  V30 3407 H 324.705 0.379058 0.649476 0
M  V30 3408 H 326.676 2.17828 2.03945 0
M  V30 3409 C 325.425 0.968572 3.33937 0
M  V30 3410 H 324.748 1.80458 3.56756 0
M  V30 3411 H 326.188 0.934808 4.13567 0
M  V30 3412 C 324.647 -0.328628 3.35293 0
M  V30 3413 O 325.177 -1.33848 3.78745 0
M  V30 3414 N 323.383 -0.352788 2.88451 0
M  V30 3415 H 322.93 0.469541 2.53285 0
M  V30 3416 H 322.888 -1.22057 2.89741 0
M  V30 3417 N 326.66 -1.06551 1.16123 0
M  V30 3418 C 327.623 -2.12132 0.867906 0
M  V30 3419 C 328.623 -1.60224 -0.135944 0
M  V30 3420 O 329.813 -1.73943 0.0946422 0
M  V30 3421 C 326.945 -3.396 0.297419 0
M  V30 3422 H 328.138 -2.39586 1.80385 0
M  V30 3423 H 325.691 -1.22574 0.969812 0
M  V30 3424 H 326.426 -3.17794 -0.64633 0
M  V30 3425 H 326.211 -3.78581 1.02073 0
M  V30 3426 H 327.701 -4.17455 0.110052 0
M  V30 3427 N 328.138 -0.959301 -1.25041 0
M  V30 3428 C 329.363 -0.633507 -1.97488 0
M  V30 3429 C 329.788 0.788555 -1.70773 0
M  V30 3430 O 329.146 1.53394 -0.966431 0
M  V30 3431 C 329.194 -0.904057 -3.49083 0
M  V30 3432 O 328.298 0.0147939 -4.12397 0
M  V30 3433 H 327.639 -0.240368 -0.618966 0
M  V30 3434 H 330.169 -1.28717 -1.59038 0
M  V30 3435 H 330.179 -0.832203 -3.99423 0
M  V30 3436 H 328.854 -1.94048 -3.67856 0
M  V30 3437 H 327.431 -0.109664 -3.72739 0
M  V30 3438 N 329.616 1.39756 -0.72842 0
M  V30 3439 C 330.856 2.025 -0.278078 0
M  V30 3440 C 331.22 1.5654 1.11173 0
M  V30 3441 O 332.421 2.11435 1.65978 0
M  V30 3442 C 330.692 3.55489 -0.369139 0
M  V30 3443 S 332.251 4.388 0.00232983 0
M  V30 3444 H 329.069 0.702534 -0.109391 0
M  V30 3445 H 331.671 1.70672 -0.95348 0
M  V30 3446 H 330.375 3.86429 -1.38204 0
M  V30 3447 H 329.906 3.92061 0.324308 0
M  V30 3448 H 331.921 4.80954 1.22055 0
M  V30 3449 N 331.094 0.475555 1.50254 0
M  V30 3450 C 332.322 -0.0754493 2.06762 0
M  V30 3451 C 332.737 -1.33111 1.33891 0
M  V30 3452 O 332.094 -1.77846 0.40952 0
M  V30 3453 C 332.145 -0.359008 3.59713 0
M  V30 3454 O 331.866 0.846851 4.29837 0
M  V30 3455 C 333.367 -0.956484 4.32858 0
M  V30 3456 H 330.587 0.00907525 0.670939 0
M  V30 3457 H 333.131 0.665618 1.93364 0
M  V30 3458 H 331.286 -1.05001 3.72899 0
M  V30 3459 H 331.7 0.594162 5.21124 0
M  V30 3460 H 333.174 -1.10463 5.40834 0
M  V30 3461 H 333.651 -1.94775 3.93649 0
M  V30 3462 H 334.257 -0.303723 4.24214 0
M  V30 3463 N 332.573 -1.56217 0.208337 0
M  V30 3464 C 333.801 -2.02337 -0.43215 0
M  V30 3465 C 334.216 -1.08834 -1.54275 0
M  V30 3466 O 333.573 -0.0955462 -1.8225 0
M  V30 3467 C 333.624 -3.48072 -0.976138 0
M  V30 3468 O 333.345 -4.38007 0.0901621 0
M  V30 3469 C 334.846 -4.09773 -1.69119 0
M  V30 3470 H 332.066 -0.662385 -0.10718 0
M  V30 3471 H 334.61 -2.01966 0.320923 0
M  V30 3472 H 332.765 -3.49099 -1.67954 0
M  V30 3473 H 333.179 -5.23543 -0.316701 0
M  V30 3474 H 334.653 -5.13556 -2.02397 0
M  V30 3475 H 335.13 -3.53999 -2.59964 0
M  V30 3476 H 335.736 -4.12556 -1.03332 0
M  V30 3477 N 334.051 0.0651679 -1.57465 0
M  V30 3478 C 334.999 1.09542 -2.05191 0
M  V30 3479 C 335.993 1.39675 -0.958509 0
M  V30 3480 O 337.199 1.39003 -1.14359 0
M  V30 3481 H 333.574 0.370623 -0.654326 0
M  V30 3482 H 335.545 0.666802 -2.90854 0
M  V30 3483 C 334.294 2.39881 -2.51699 0
M  V30 3484 H 333.617 2.17547 -3.3543 0
M  V30 3485 H 335.057 3.104 -2.88839 0
M  V30 3486 C 333.516 3.0631 -1.40271 0
M  V30 3487 O 334.046 3.94664 -0.748523 0
M  V30 3488 N 332.252 2.67041 -1.14618 0
M  V30 3489 H 331.799 1.95281 -1.67997 0
M  V30 3490 H 331.757 3.1181 -0.402688 0
M  V30 3491 N 335.529 1.53961 0.336706 0
M  V30 3492 C 336.769 1.73254 1.08454 0
M  V30 3493 C 337.133 0.488937 1.8567 0
M  V30 3494 O 338.334 0.559001 2.62923 0
M  V30 3495 C 336.605 2.96519 1.99528 0
M  V30 3496 S 338.164 3.36655 2.81441 0
M  V30 3497 H 334.982 0.609353 0.366347 0
M  V30 3498 H 337.584 1.92117 0.362124 0
M  V30 3499 H 336.288 3.85193 1.41614 0
M  V30 3500 H 335.819 2.80142 2.76196 0
M  V30 3501 H 337.834 2.90925 4.01967 0
M  V30 3502 N 337.007 -0.598083 1.45811 0
M  V30 3503 C 337.937 -1.71873 1.58057 0
M  V30 3504 C 338.918 -1.64533 0.431615 0
M  V30 3505 O 340.103 -1.82787 0.65595 0
M  V30 3506 C 337.233 -3.10495 1.55597 0
M  V30 3507 C 336.187 -3.32654 2.69305 0
M  V30 3508 C 335.513 -4.71646 2.51902 0
M  V30 3509 C 336.813 -3.21981 4.11248 0
M  V30 3510 H 338.507 -1.61881 2.51863 0
M  V30 3511 H 336.053 -0.777372 1.21214 0
M  V30 3512 H 338.006 -3.88699 1.6276 0
M  V30 3513 H 336.73 -3.2135 0.583255 0
M  V30 3514 H 335.389 -2.56843 2.61586 0
M  V30 3515 H 335.037 -4.79246 1.52748 0
M  V30 3516 H 334.737 -4.87426 3.2816 0
M  V30 3517 H 336.261 -5.52038 2.60933 0
M  V30 3518 H 337.675 -3.90049 4.20161 0
M  V30 3519 H 336.072 -3.49289 4.87972 0
M  V30 3520 H 337.142 -2.1928 4.32486 0
M  V30 3521 N 338.485 -1.33259 -0.841409 0
M  V30 3522 C 339.448 -1.23221 -1.9326 0
M  V30 3523 C 340.448 -0.151895 -1.60081 0
M  V30 3524 O 341.638 -0.403246 -1.69468 0
M  V30 3525 C 338.77 -0.898123 -3.28856 0
M  V30 3526 H 339.963 -2.2021 -2.03587 0
M  V30 3527 H 337.516 -1.17281 -1.03319 0
M  V30 3528 H 338.251 0.0693841 -3.24226 0
M  V30 3529 H 338.036 -1.67934 -3.54317 0
M  V30 3530 H 339.526 -0.852563 -4.08805 0
M  V30 3531 N 339.963 1.05934 -1.16686 0
M  V30 3532 C 341.374 1.60263 -0.957745 0
M  V30 3533 C 341.725 1.89789 0.49745 0
M  V30 3534 O 340.85 1.67401 1.37135 0
M  V30 3535 C 341.445 2.91172 -1.73218 0
M  V30 3536 C 340.004 3.42188 -1.56794 0
M  V30 3537 C 339.151 2.16028 -1.73859 0
M  V30 3538 H 342.102 0.888392 -1.31504 0
M  V30 3539 H 342.123 3.60744 -1.21014 0
M  V30 3540 H 341.635 2.6965 -2.79124 0
M  V30 3541 H 339.736 3.68762 -0.533437 0
M  V30 3542 H 339.849 4.17273 -2.35414 0
M  V30 3543 H 338.213 2.26426 -1.16633 0
M  V30 3544 H 338.996 1.96985 -2.81161 0
M  V30 3545 N 341.441 0.965919 1.2453 0
M  V30 3546 C 342.371 0.513476 2.27784 0
M  V30 3547 C 343.352 -0.445974 1.6415 0
M  V30 3548 O 344.537 -0.342485 1.91156 0
M  V30 3549 C 341.667 -0.198839 3.4673 0
M  V30 3550 C 340.621 0.676456 4.2262 0
M  V30 3551 C 339.947 -0.167248 5.34438 0
M  V30 3552 C 341.247 1.96017 4.84123 0
M  V30 3553 H 342.941 1.3765 2.65881 0
M  V30 3554 H 340.487 0.663321 1.27813 0
M  V30 3555 H 342.44 -0.526567 4.18097 0
M  V30 3556 H 341.164 -1.0962 3.07654 0
M  V30 3557 H 339.823 0.98743 3.53052 0
M  V30 3558 H 339.471 -1.0647 4.91603 0
M  V30 3559 H 339.171 0.415181 5.86131 0
M  V30 3560 H 340.695 -0.489688 6.08633 0
M  V30 3561 H 342.109 1.69814 5.47573 0
M  V30 3562 H 340.506 2.48918 5.4604 0
M  V30 3563 H 341.576 2.65622 4.05676 0
M  V30 3564 N 342.919 -1.39368 0.735821 0
M  V30 3565 C 343.882 -2.2896 0.104874 0
M  V30 3566 C 344.882 -1.46347 -0.666274 0
M  V30 3567 O 346.072 -1.67014 -0.49517 0
M  V30 3568 C 343.204 -3.29857 -0.860656 0
M  V30 3569 H 344.397 -2.86259 0.894205 0
M  V30 3570 H 341.95 -1.48029 0.501704 0
M  V30 3571 H 342.685 -2.77615 -1.67631 0
M  V30 3572 H 342.47 -3.9087 -0.310327 0
M  V30 3573 H 343.96 -3.96893 -1.29867 0
M  V30 3574 N 344.397 -0.483516 -1.5 0
M  V30 3575 C 345.344 0.304164 -2.28787 0
M  V30 3576 C 346.314 0.976114 -1.34392 0
M  V30 3577 O 347.499 0.986156 -1.63339 0
M  V30 3578 C 344.639 1.37298 -3.16612 0
M  V30 3579 C 343.752 0.714561 -4.26049 0
M  V30 3580 C 342.887 1.76232 -5.01114 0
M  V30 3581 C 341.926 1.08483 -6.0241 0
M  V30 3582 N 341.063 2.076 -6.70706 0
M  V30 3583 H 345.903 -0.373981 -2.95644 0
M  V30 3584 H 343.44 -0.196275 -1.45785 0
M  V30 3585 H 345.398 2.00445 -3.65893 0
M  V30 3586 H 344.028 2.02012 -2.51776 0
M  V30 3587 H 343.08 -0.0297798 -3.80388 0
M  V30 3588 H 344.392 0.180383 -4.98474 0
M  V30 3589 H 343.546 2.46929 -5.54176 0
M  V30 3590 H 342.285 2.33033 -4.28424 0
M  V30 3591 H 341.29 0.363545 -5.48597 0
M  V30 3592 H 342.515 0.523551 -6.77079 0
M  V30 3593 H 340.461 2.63394 -6.00799 0
M  V30 3594 H 340.378 1.59201 -7.39047 0
M  V30 3595 H 341.646 2.77639 -7.2838 0
M  V30 3596 N 345.875 1.56104 -0.216619 0
M  V30 3597 C 347.121 1.98466 0.417033 0
M  V30 3598 C 347.454 1.10403 1.59765 0
M  V30 3599 O 346.729 0.160632 1.93836 0
M  V30 3600 C 347.012 3.49769 0.85637 0
M  V30 3601 C 346.865 4.48606 -0.327546 0
M  V30 3602 C 348.184 4.05339 1.7143 0
M  V30 3603 H 345.303 0.721551 0.150112 0
M  V30 3604 H 347.945 1.87423 -0.311864 0
M  V30 3605 H 346.095 3.5931 1.47745 0
M  V30 3606 H 347.767 4.5108 -0.965618 0
M  V30 3607 H 346.01 4.22682 -0.975805 0
M  V30 3608 H 346.681 5.51995 0.0227149 0
M  V30 3609 H 349.157 3.98712 1.19031 0
M  V30 3610 H 348.033 5.11533 1.99061 0
M  V30 3611 H 348.294 3.51918 2.67593 0
M  V30 3612 N 347.353 -0.0568162 1.57498 0
M  V30 3613 C 348.602 -0.752001 1.87157 0
M  V30 3614 C 348.915 -1.77978 0.811375 0
M  V30 3615 O 350.121 -2.52559 0.996293 0
M  V30 3616 C 348.577 -1.38844 3.3204 0
M  V30 3617 C 348.185 -0.398456 4.46225 0
M  V30 3618 C 349.929 -2.06512 3.70882 0
M  V30 3619 C 347.836 -1.04166 5.82154 0
M  V30 3620 H 346.766 -0.28461 0.698222 0
M  V30 3621 H 349.417 -0.00561272 1.83499 0
M  V30 3622 H 347.799 -2.1836 3.30356 0
M  V30 3623 H 348.973 0.367977 4.59328 0
M  V30 3624 H 347.288 0.174592 4.16034 0
M  V30 3625 H 349.885 -2.55437 4.6974 0
M  V30 3626 H 350.228 -2.87117 3.01445 0
M  V30 3627 H 350.761 -1.33808 3.7462 0
M  V30 3628 H 347.5 -0.275614 6.5492 0
M  V30 3629 H 347.02 -1.7786 5.72823 0
M  V30 3630 H 348.699 -1.55715 6.27982 0
M  V30 3631 N 348.832 -1.54138 -0.328536 0
M  V30 3632 C 349.782 -1.79557 -1.4051 0
M  V30 3633 C 350.766 -0.651373 -1.47126 0
M  V30 3634 O 351.958 -0.911226 -1.51742 0
M  V30 3635 C 349.087 -2.02196 -2.77438 0
M  V30 3636 C 348.173 -3.22724 -2.75155 0
M  V30 3637 N 348.564 -4.43881 -2.42494 0
M  V30 3638 C 346.862 -3.24196 -3.06289 0
M  V30 3639 C 347.563 -5.25797 -2.48822 0
M  V30 3640 N 346.539 -4.62862 -2.8506 0
M  V30 3641 H 350.341 -2.70814 -1.1418 0
M  V30 3642 H 347.855 -1.53265 -0.536991 0
M  V30 3643 H 349.852 -2.18546 -3.55026 0
M  V30 3644 H 348.512 -1.12191 -3.04702 0
M  V30 3645 H 349.523 -4.70969 -2.15428 0
M  V30 3646 H 346.2 -2.44208 -3.38627 0
M  V30 3647 H 347.59 -6.32535 -2.26603 0
M  V30 3648 N 350.31 0.590341 -1.46126 0
M  V30 3649 C 351.22 1.72793 -1.58681 0
M  V30 3650 C 352.236 1.67516 -0.470566 0
M  V30 3651 O 353.412 1.87562 -0.733642 0
M  V30 3652 C 350.477 3.09287 -1.5666 0
M  V30 3653 C 349.538 3.25886 -2.79458 0
M  V30 3654 C 348.771 4.55869 -2.77524 0
M  V30 3655 O 348.994 5.3928 -1.85832 0
M  V30 3656 O 347.928 4.75552 -3.68964 0
M  V30 3657 H 351.754 1.65149 -2.54872 0
M  V30 3658 H 349.339 0.756486 -1.28832 0
M  V30 3659 H 351.221 3.90577 -1.58202 0
M  V30 3660 H 349.896 3.17385 -0.636271 0
M  V30 3661 H 348.803 2.44119 -2.83472 0
M  V30 3662 H 350.136 3.22675 -3.71674 0
M  V30 3663 N 351.788 1.33704 0.83433 0
M  V30 3664 C 353.204 1.13137 1.12571 0
M  V30 3665 C 353.404 -0.0747261 2.01361 0
M  V30 3666 O 352.46 -0.753647 2.4099 0
M  V30 3667 C 353.773 2.42105 1.78342 0
M  V30 3668 C 355.321 2.48054 1.90888 0
M  V30 3669 C 355.796 3.76995 2.60075 0
M  V30 3670 N 357.287 3.78092 2.67584 0
M  V30 3671 C 358.022 4.74574 3.21818 0
M  V30 3672 N 357.518 5.81434 3.76705 0
M  V30 3673 N 359.311 4.62044 3.20112 0
M  V30 3674 H 351.462 2.11 0.243489 0
M  V30 3675 H 353.725 0.932532 0.17055 0
M  V30 3676 H 353.431 3.30391 1.20561 0
M  V30 3677 H 353.305 2.54594 2.7832 0
M  V30 3678 H 355.692 1.60215 2.47821 0
M  V30 3679 H 355.773 2.39502 0.898459 0
M  V30 3680 H 355.417 4.65219 2.03799 0
M  V30 3681 H 355.347 3.82825 3.61597 0
M  V30 3682 H 357.838 3.00865 2.28667 0
M  V30 3683 H 358.151 6.51084 4.16305 0
M  V30 3684 H 356.496 5.85163 3.7498 0
M  V30 3685 H 359.687 3.77716 2.76493 0
M  V30 3686 H 359.86 5.37406 3.62076 0
M  V30 3687 N 353.266 -1.05314 1.17247 0
M  V30 3688 C 354.513 -1.78293 0.960091 0
M  V30 3689 C 354.841 -1.87658 -0.51136 0
M  V30 3690 O 354.096 -1.3718 -1.39571 0
M  V30 3691 C 354.395 -3.2229 1.54479 0
M  V30 3692 C 354.061 -3.32987 3.04024 0
M  V30 3693 C 352.723 -3.35613 3.44844 0
M  V30 3694 C 355.075 -3.34102 4.00031 0
M  V30 3695 C 352.403 -3.36982 4.8027 0
M  V30 3696 C 354.755 -3.3701 5.35357 0
M  V30 3697 C 353.419 -3.37923 5.75642 0
M  V30 3698 H 352.689 -0.652422 0.351322 0
M  V30 3699 H 355.336 -1.23782 1.46117 0
M  V30 3700 H 353.641 -3.7972 0.965391 0
M  V30 3701 H 355.338 -3.77376 1.35603 0
M  V30 3702 H 351.928 -3.31655 2.71483 0
M  V30 3703 H 356.112 -3.31276 3.69554 0
M  V30 3704 H 351.368 -3.35999 5.10798 0
M  V30 3705 H 355.542 -3.36822 6.09528 0
M  V30 3706 H 353.169 -3.38738 6.80559 0
M  V30 3707 N 354.744 -0.972509 -1.24016 0
M  V30 3708 C 355.992 -0.635776 -1.91839 0
M  V30 3709 C 356.313 0.832312 -1.76345 0
M  V30 3710 O 355.583 1.5946 -1.13795 0
M  V30 3711 H 354.163 -0.232157 -0.710009 0
M  V30 3712 H 356.825 -1.23462 -1.50809 0
M  V30 3713 H 355.921 -0.880545 -2.99421 0
M  V30 3714 N 356.222 1.38976 -0.743202 0
M  V30 3715 C 357.471 1.99581 -0.291592 0
M  V30 3716 C 357.784 1.59656 1.13001 0
M  V30 3717 O 358.99 2.13157 1.68156 0
M  V30 3718 C 357.446 3.56813 -0.470391 0
M  V30 3719 C 357.054 4.05695 -1.90041 0
M  V30 3720 C 358.798 4.24423 -0.0809709 0
M  V30 3721 C 356.705 5.5553 -2.02832 0
M  V30 3722 H 355.635 0.746615 -0.105272 0
M  V30 3723 H 358.286 1.58872 -0.918258 0
M  V30 3724 H 356.668 3.95359 0.225299 0
M  V30 3725 H 357.842 3.78464 -2.62872 0
M  V30 3726 H 356.157 3.50775 -2.24379 0
M  V30 3727 H 358.754 5.34474 -0.155445 0
M  V30 3728 H 359.097 4.04962 0.96497 0
M  V30 3729 H 359.63 3.9108 -0.728124 0
M  V30 3730 H 356.369 5.79881 -3.05643 0
M  V30 3731 H 355.889 5.84537 -1.34448 0
M  V30 3732 H 357.568 6.21069 -1.81335 0
M  V30 3733 N 357.7 0.491464 1.49741 0
M  V30 3734 C 358.946 -0.0565092 2.02721 0
M  V30 3735 C 359.279 -1.37522 1.37118 0
M  V30 3736 O 358.554 -1.87866 0.503645 0
M  V30 3737 C 358.837 -0.219051 3.59433 0
M  V30 3738 C 358.69 1.12211 4.35579 0
M  V30 3739 C 360.009 -0.964157 4.29409 0
M  V30 3740 H 357.128 -0.0190627 0.736753 0
M  V30 3741 H 359.77 0.641021 1.7886 0
M  V30 3742 H 357.92 -0.813165 3.79895 0
M  V30 3743 H 359.592 1.75437 4.26637 0
M  V30 3744 H 357.835 1.71377 3.98513 0
M  V30 3745 H 358.506 0.961794 5.43556 0
M  V30 3746 H 360.982 -0.460378 4.13545 0
M  V30 3747 H 359.858 -1.04671 5.38828 0
M  V30 3748 H 360.119 -2.00563 3.93988 0
M  V30 3749 N 359.178 -1.55987 0.224894 0
M  V30 3750 C 360.088 -2.24066 -0.69511 0
M  V30 3751 C 361.104 -1.24939 -1.21104 0
M  V30 3752 O 362.28 -1.5776 -1.25195 0
M  V30 3753 C 359.345 -2.90983 -1.88493 0
M  V30 3754 C 358.406 -4.05462 -1.41064 0
M  V30 3755 C 357.639 -4.69179 -2.54375 0
M  V30 3756 O 357.862 -4.31895 -3.72589 0
M  V30 3757 O 356.796 -5.58108 -2.25386 0
M  V30 3758 H 360.622 -3.03353 -0.145149 0
M  V30 3759 H 358.207 -1.49399 -0.00569476 0
M  V30 3760 H 360.089 -3.33209 -2.57972 0
M  V30 3761 H 358.764 -2.14653 -2.42293 0
M  V30 3762 H 357.671 -3.67798 -0.683774 0
M  V30 3763 H 359.004 -4.83545 -0.918985 0
M  V30 3764 N 360.656 0.0484629 -1.57525 0
M  V30 3765 C 361.904 0.741657 -1.88 0
M  V30 3766 C 362.225 1.76918 -0.820054 0
M  V30 3767 O 361.495 1.95335 0.148661 0
M  V30 3768 H 360.075 0.276908 -0.69378 0
M  V30 3769 H 362.737 0.019013 -1.94891 0
M  V30 3770 H 361.833 1.24336 -2.86264 0
M  V30 3771 N 362.134 1.5431 0.320358 0
M  V30 3772 C 363.064 1.86912 1.3995 0
M  V30 3773 C 364.045 0.726211 1.53819 0
M  V30 3774 O 365.23 0.980233 1.67646 0
M  V30 3775 C 362.36 2.09932 2.7667 0
M  V30 3776 C 361.314 3.25776 2.77586 0
M  V30 3777 C 360.64 3.34173 4.17412 0
M  V30 3778 C 361.94 4.6335 2.41048 0
M  V30 3779 H 363.634 2.77292 1.12914 0
M  V30 3780 H 361.18 1.33421 0.541738 0
M  V30 3781 H 363.133 2.31324 3.52232 0
M  V30 3782 H 361.857 1.16304 3.0519 0
M  V30 3783 H 360.516 3.04276 2.04479 0
M  V30 3784 H 360.164 2.38098 4.43078 0
M  V30 3785 H 359.864 4.12033 4.18931 0
M  V30 3786 H 361.388 3.57803 4.94782 0
M  V30 3787 H 362.802 4.84602 3.06324 0
M  V30 3788 H 361.199 5.43782 2.53813 0
M  V30 3789 H 362.269 4.65381 1.36193 0
M  V30 3790 N 363.613 -0.582584 1.46437 0
M  V30 3791 C 364.546 -1.70633 1.51524 0
M  V30 3792 C 365.524 -1.58349 0.369351 0
M  V30 3793 O 366.708 -1.79563 0.573516 0
M  V30 3794 C 363.835 -3.08687 1.39392 0
M  V30 3795 C 362.881 -3.3949 2.58164 0
M  V30 3796 S 363.714 -3.31548 4.20519 0
M  V30 3797 C 364.87 -4.72139 4.10896 0
M  V30 3798 H 365.103 -1.66058 2.46601 0
M  V30 3799 H 362.636 -0.761337 1.34324 0
M  V30 3800 H 364.594 -3.8833 1.33079 0
M  V30 3801 H 363.255 -3.10751 0.457436 0
M  V30 3802 H 362.448 -4.40071 2.45669 0
M  V30 3803 H 362.05 -2.67415 2.61468 0
M  V30 3804 H 364.342 -5.62527 3.77584 0
M  V30 3805 H 365.285 -4.89692 5.11476 0
M  V30 3806 H 365.693 -4.48995 3.42146 0
M  V30 3807 N 365.091 -1.34144 -0.827227 0
M  V30 3808 C 366.319 -1.29325 -1.61501 0
M  V30 3809 C 366.734 0.13354 -1.88327 0
M  V30 3810 O 366.091 1.0793 -1.47164 0
M  V30 3811 C 366.142 -2.07746 -2.95844 0
M  V30 3812 O 365.863 -3.4486 -2.70191 0
M  V30 3813 C 367.364 -2.10273 -3.90256 0
M  V30 3814 H 364.584 -0.445069 -0.50215 0
M  V30 3815 H 367.128 -1.76693 -1.02955 0
M  V30 3816 H 365.283 -1.6403 -3.5096 0
M  V30 3817 H 365.697 -3.85345 -3.55822 0
M  V30 3818 H 367.171 -2.69575 -4.81698 0
M  V30 3819 H 367.648 -1.096 -4.25305 0
M  V30 3820 H 368.254 -2.54059 -3.41078 0
M  V30 3821 N 366.569 1.04691 -1.17803 0
M  V30 3822 C 367.797 1.81446 -0.99423 0
M  V30 3823 C 368.212 1.83174 0.457459 0
M  V30 3824 O 367.569 1.26265 1.31771 0
M  V30 3825 C 367.62 3.27334 -1.5341 0
M  V30 3826 O 367.341 3.25798 -2.92895 0
M  V30 3827 C 368.842 4.20759 -1.39559 0
M  V30 3828 H 366.062 0.571599 -0.351447 0
M  V30 3829 H 368.606 1.31982 -1.56208 0
M  V30 3830 H 366.761 3.74052 -1.00815 0
M  V30 3831 H 367.175 4.17144 -3.17949 0
M  V30 3832 H 368.649 5.21084 -1.82141 0
M  V30 3833 H 369.126 4.37856 -0.343394 0
M  V30 3834 H 369.732 3.79901 -1.91195 0
M  V30 3835 N 368.047 0.979072 1.23499 0
M  V30 3836 C 369.293 0.648178 1.92163 0
M  V30 3837 C 369.626 -0.816049 1.76222 0
M  V30 3838 O 368.901 -1.58849 1.12237 0
M  V30 3839 C 369.184 1.03773 3.44824 0
M  V30 3840 C 369.037 2.55948 3.69879 0
M  V30 3841 C 370.356 0.580653 4.36253 0
M  V30 3842 H 367.475 0.236952 0.69787 0
M  V30 3843 H 370.117 1.22012 1.45647 0
M  V30 3844 H 368.267 0.551058 3.84572 0
M  V30 3845 H 369.939 3.12179 3.3962 0
M  V30 3846 H 368.182 2.98641 3.14636 0
M  V30 3847 H 368.853 2.78255 4.76737 0
M  V30 3848 H 371.329 0.998465 4.03943 0
M  V30 3849 H 370.205 0.881663 5.41773 0
M  V30 3850 H 370.466 -0.519052 4.39042 0
M  V30 3851 N 369.525 -1.3858 0.750561 0
M  V30 3852 C 370.475 -2.27795 0.0965949 0
M  V30 3853 C 371.459 -1.45048 -0.696411 0
M  V30 3854 O 372.651 -1.67812 -0.562863 0
M  V30 3855 C 369.78 -3.33894 -0.798085 0
M  V30 3856 C 368.866 -4.241 0.0016067 0
M  V30 3857 N 369.257 -4.95067 1.03647 0
M  V30 3858 C 367.555 -4.45429 -0.225674 0
M  V30 3859 C 368.256 -5.61489 1.52004 0
M  V30 3860 N 367.232 -5.37135 0.835874 0
M  V30 3861 H 371.034 -2.80125 0.889228 0
M  V30 3862 H 368.548 -1.51446 0.586323 0
M  V30 3863 H 370.545 -3.96693 -1.28219 0
M  V30 3864 H 369.205 -2.83123 -1.5897 0
M  V30 3865 H 370.216 -4.98104 1.41819 0
M  V30 3866 H 366.893 -4.05571 -0.990872 0
M  V30 3867 H 368.283 -6.28264 2.38188 0
M  V30 3868 N 371.003 -0.499398 -1.49478 0
M  V30 3869 C 372.228 0.044722 -2.07352 0
M  V30 3870 C 372.653 1.30207 -1.35749 0
M  V30 3871 O 372.011 1.76516 -0.413732 0
M  V30 3872 C 372.059 0.283013 -3.59488 0
M  V30 3873 O 371.163 1.35804 -3.89398 0
M  V30 3874 H 370.504 -0.0255147 -0.66351 0
M  V30 3875 H 373.034 -0.698561 -1.92305 0
M  V30 3876 H 373.044 0.515007 -4.04737 0
M  V30 3877 H 371.719 -0.635636 -4.11014 0
M  V30 3878 H 370.296 1.11113 -3.55961 0
M  V30 3879 N 372.481 1.55866 -0.233164 0
M  V30 3880 C 373.711 2.02704 0.399325 0
M  V30 3881 C 374.119 1.11204 1.53069 0
M  V30 3882 O 373.462 0.116182 1.83332 0
M  V30 3883 C 373.524 3.45844 0.981429 0
M  V30 3884 C 373.188 4.56997 -0.0159561 0
M  V30 3885 C 374.185 5.13384 -0.820552 0
M  V30 3886 C 371.87 5.0211 -0.138072 0
M  V30 3887 C 373.864 6.13365 -1.73386 0
M  V30 3888 C 371.551 6.01926 -1.0549 0
M  V30 3889 C 372.549 6.57431 -1.85132 0
M  V30 3890 O 372.237 7.55302 -2.75272 0
M  V30 3891 H 371.969 0.668459 0.100692 0
M  V30 3892 H 374.523 2.02387 -0.35052 0
M  V30 3893 H 372.753 3.43267 1.78058 0
M  V30 3894 H 374.442 3.76262 1.52255 0
M  V30 3895 H 375.208 4.79372 -0.736721 0
M  V30 3896 H 371.087 4.5858 0.471737 0
M  V30 3897 H 374.631 6.56614 -2.35592 0
M  V30 3898 H 370.528 6.35359 -1.1397 0
M  V30 3899 H 371.296 7.72867 -2.69477 0
M  V30 3900 N 373.959 -0.0401083 1.57549 0
M  V30 3901 C 375.187 -0.745196 1.93014 0
M  V30 3902 C 375.602 -1.6948 0.831984 0
M  V30 3903 O 374.959 -1.81482 -0.192463 0
M  V30 3904 C 375.01 -1.51176 3.28372 0
M  V30 3905 O 374.731 -0.600284 4.33968 0
M  V30 3906 C 376.232 -2.315 3.78051 0
M  V30 3907 H 373.452 -0.210088 0.637263 0
M  V30 3908 H 375.996 -0.000924689 2.045 0
M  V30 3909 H 374.151 -2.20801 3.18317 0
M  V30 3910 H 374.565 -1.13669 5.12035 0
M  V30 3911 H 376.039 -2.80697 4.75303 0
M  V30 3912 H 376.516 -3.12436 3.08675 0
M  V30 3913 H 377.122 -1.66971 3.91153 0
M  V30 3914 N 375.437 -1.54477 -0.31217 0
M  V30 3915 C 376.4 -1.83923 -1.36766 0
M  V30 3916 C 377.4 -0.711563 -1.44199 0
M  V30 3917 O 378.59 -0.979866 -1.44029 0
M  V30 3918 C 375.722 -2.0095 -2.75376 0
M  V30 3919 H 376.915 -2.78239 -1.11906 0
M  V30 3920 H 374.468 -1.46369 -0.548257 0
M  V30 3921 H 375.203 -1.08883 -3.05475 0
M  V30 3922 H 374.988 -2.83018 -2.71373 0
M  V30 3923 H 376.478 -2.2514 -3.51713 0
M  V30 3924 N 376.915 0.57481 -1.46744 0
M  V30 3925 C 378.143 1.35856 -1.56047 0
M  V30 3926 C 378.558 1.87691 -0.204365 0
M  V30 3927 O 377.915 1.64049 0.79963 0
M  V30 3928 C 377.966 2.54066 -2.57163 0
M  V30 3929 O 377.687 2.04377 -3.87507 0
M  V30 3930 C 379.188 3.46514 -2.76483 0
M  V30 3931 H 376.408 0.414754 -0.527466 0
M  V30 3932 H 378.952 0.698035 -1.92218 0
M  V30 3933 H 377.107 3.16092 -2.23974 0
M  V30 3934 H 377.521 2.81419 -4.4261 0
M  V30 3935 H 378.995 4.25919 -3.51137 0
M  V30 3936 H 379.472 3.98951 -1.83671 0
M  V30 3937 H 380.078 2.90318 -3.10799 0
M  V30 3938 N 378.394 1.34581 0.820102 0
M  V30 3939 C 379.326 1.22236 1.93884 0
M  V30 3940 C 380.339 0.148776 1.62119 0
M  V30 3941 O 381.528 0.400877 1.7394 0
M  V30 3942 C 378.628 0.856542 3.27897 0
M  V30 3943 C 377.801 2.02569 3.87666 0
M  V30 3944 C 376.86 1.63782 5.00062 0
M  V30 3945 O 375.886 2.35477 5.18208 0
M  V30 3946 N 377.088 0.553611 5.77854 0
M  V30 3947 H 379.853 2.18615 2.05006 0
M  V30 3948 H 377.414 1.27573 0.99683 0
M  V30 3949 H 379.406 0.578806 4.0054 0
M  V30 3950 H 377.976 -0.0171518 3.12595 0
M  V30 3951 H 377.196 2.468 3.07382 0
M  V30 3952 H 378.484 2.80752 4.24329 0
M  V30 3953 H 377.882 -0.0423528 5.65684 0
M  V30 3954 H 376.439 0.335614 6.50935 0
M  V30 3955 N 379.872 -1.04064 1.18357 0
M  V30 3956 C 380.819 -2.12077 0.910603 0
M  V30 3957 C 381.789 -1.65421 -0.15 0
M  V30 3958 O 382.974 -1.90797 -0.0103614 0
M  V30 3959 C 380.114 -3.42252 0.442472 0
M  V30 3960 C 379.227 -4.0252 1.5685 0
M  V30 3961 C 378.362 -5.20657 1.05309 0
M  V30 3962 C 377.401 -5.72955 2.1538 0
M  V30 3963 N 376.538 -6.8238 1.65233 0
M  V30 3964 H 381.378 -2.34764 1.83548 0
M  V30 3965 H 378.915 -1.15157 0.915279 0
M  V30 3966 H 380.873 -4.16921 0.152534 0
M  V30 3967 H 379.503 -3.19712 -0.445428 0
M  V30 3968 H 378.555 -3.25178 1.97391 0
M  V30 3969 H 379.867 -4.37362 2.39824 0
M  V30 3970 H 379.021 -6.0244 0.717677 0
M  V30 3971 H 377.76 -4.87318 0.19293 0
M  V30 3972 H 376.765 -4.89793 2.49766 0
M  V30 3973 H 377.99 -6.08337 3.01832 0
M  V30 3974 H 375.936 -6.50917 0.815064 0
M  V30 3975 H 375.853 -7.16286 2.41805 0
M  V30 3976 H 377.121 -7.67788 1.34619 0
M  V30 3977 N 381.35 -0.985608 -1.22978 0
M  V30 3978 C 382.578 -0.675582 -1.95559 0
M  V30 3979 C 382.993 0.758413 -1.72897 0
M  V30 3980 O 382.35 1.51094 -1.02357 0
M  V30 3981 C 382.401 -0.96293 -3.48439 0
M  V30 3982 O 382.122 -2.34057 -3.70336 0
M  V30 3983 C 383.623 -0.669585 -4.38214 0
M  V30 3984 H 380.843 -0.250523 -0.622478 0
M  V30 3985 H 383.387 -1.3184 -1.56328 0
M  V30 3986 H 381.542 -0.366033 -3.85667 0
M  V30 3987 H 381.956 -2.43424 -4.64591 0
M  V30 3988 H 383.43 -0.920967 -5.44263 0
M  V30 3989 H 383.907 0.396383 -4.37408 0
M  V30 3990 H 384.513 -1.2472 -4.06602 0
M  V30 3991 N 382.828 1.3818 -0.7579 0
M  V30 3992 C 384.074 2.00316 -0.316453 0
M  V30 3993 C 384.407 1.60026 1.10025 0
M  V30 3994 O 383.682 0.839835 1.75434 0
M  V30 3995 C 383.965 3.57349 -0.444245 0
M  V30 3996 C 383.818 4.07591 -1.90236 0
M  V30 3997 C 385.137 4.3981 0.1598 0
M  V30 3998 H 382.256 0.727741 -0.116459 0
M  V30 3999 H 384.898 1.6406 -0.958352 0
M  V30 4000 H 383.048 3.88365 0.102233 0
M  V30 4001 H 384.72 3.87199 -2.50748 0
M  V30 4002 H 382.963 3.60297 -2.41595 0
M  V30 4003 H 383.634 5.16677 -1.94291 0
M  V30 4004 H 386.11 4.14971 -0.306314 0
M  V30 4005 H 384.986 5.48885 0.0401675 0
M  V30 4006 H 385.247 4.24102 1.24859 0
M  V30 4007 N 384.306 0.507319 1.49211 0
M  V30 4008 C 385.583 -0.0982702 1.95353 0
M  V30 4009 C 385.963 -1.53516 1.449 0
M  V30 4010 O 385.311 -2.18594 0.66551 0
M  V30 4011 C 385.521 -0.00440283 3.49 0
M  V30 4012 C 386.869 -0.175147 4.24239 0
M  V30 4013 O 387.893 -0.0792891 3.56112 0
M  V30 4014 O 386.752 -0.37276 5.45227 0
M  V30 4015 H 383.846 -0.0918236 0.821887 0
M  V30 4016 H 386.392 0.570307 1.5983 0
M  V30 4017 H 385.164 0.997402 3.78375 0
M  V30 4018 H 384.787 -0.712845 3.91158 0
M  V30 4019 N 385.784 -1.5574 0.241426 0
M  V30 4020 C 387.032 -1.98417 -0.384075 0
M  V30 4021 C 387.353 -1.13078 -1.58866 0
M  V30 4022 O 386.623 -0.212312 -1.94746 0
M  V30 4023 H 385.203 -0.732813 -0.144894 0
M  V30 4024 H 387.865 -1.9193 0.338943 0
M  V30 4025 H 386.961 -3.04219 -0.696939 0
M  V30 4026 N 387.262 0.0317525 -1.57568 0
M  V30 4027 C 388.673 0.578692 -1.77505 0
M  V30 4028 C 389.024 1.75749 -0.872164 0
M  V30 4029 O 388.149 2.16298 -0.0663106 0
M  V30 4030 C 388.744 1.05658 -3.21904 0
M  V30 4031 C 387.303 1.54906 -3.43047 0
M  V30 4032 C 386.45 0.485939 -2.73009 0
M  V30 4033 H 389.401 -0.194475 -1.57504 0
M  V30 4034 H 389.422 1.92404 -3.28269 0
M  V30 4035 H 388.934 0.198422 -3.87592 0
M  V30 4036 H 387.035 2.42915 -2.82529 0
M  V30 4037 H 387.148 1.59841 -4.5165 0
M  V30 4038 H 385.512 0.940354 -2.36705 0
M  V30 4039 H 386.295 -0.362709 -3.41379 0
M  V30 4040 N 388.74 1.54641 0.303973 0
M  V30 4041 C 389.965 1.78092 1.06292 0
M  V30 4042 C 390.39 0.537342 1.80262 0
M  V30 4043 O 389.748 -0.511993 1.7392 0
M  V30 4044 C 389.796 2.98612 2.02147 0
M  V30 4045 O 388.9 2.71528 3.10397 0
M  V30 4046 H 388.241 0.589548 0.305497 0
M  V30 4047 H 390.771 2.01716 0.3423 0
M  V30 4048 H 390.781 3.265 2.44667 0
M  V30 4049 H 389.456 3.88785 1.47714 0
M  V30 4050 H 388.033 2.54648 2.72413 0
M  V30 4051 N 390.218 -0.567019 1.47046 0
M  V30 4052 C 391.634 -0.891975 1.32348 0
M  V30 4053 C 391.834 -1.99154 0.306616 0
M  V30 4054 O 390.89 -2.50883 -0.28532 0
M  V30 4055 C 392.203 -1.29449 2.7141 0
M  V30 4056 C 393.751 -1.40646 2.79621 0
M  V30 4057 C 394.226 -1.84257 4.19301 0
M  V30 4058 N 395.717 -1.91424 4.21795 0
M  V30 4059 C 396.452 -2.26476 5.26779 0
M  V30 4060 N 395.948 -2.60211 6.42077 0
M  V30 4061 N 397.741 -2.27166 5.14152 0
M  V30 4062 H 389.892 0.159074 2.11803 0
M  V30 4063 H 392.155 0.00849752 0.947962 0
M  V30 4064 H 391.861 -0.560448 3.47206 0
M  V30 4065 H 391.735 -2.25273 3.02542 0
M  V30 4066 H 394.122 -2.13133 2.04104 0
M  V30 4067 H 394.203 -0.430339 2.52154 0
M  V30 4068 H 393.847 -1.12343 4.95319 0
M  V30 4069 H 393.777 -2.82855 4.44185 0
M  V30 4070 H 396.268 -1.6778 3.38612 0
M  V30 4071 H 396.581 -2.85956 7.17948 0
M  V30 4072 H 394.926 -2.57813 6.45413 0
M  V30 4073 H 398.117 -2.00244 4.23107 0
M  V30 4074 H 398.29 -2.54154 5.96079 0
M  V30 4075 N 391.696 -1.35014 -0.812953 0
M  V30 4076 C 392.643 -1.27412 -1.92444 0
M  V30 4077 C 393.613 -0.14733 -1.65445 0
M  V30 4078 O 394.798 -0.329974 -1.87925 0
M  V30 4079 C 391.938 -1.04558 -3.28879 0
M  V30 4080 C 391.051 -2.26101 -3.68106 0
M  V30 4081 C 390.186 -1.96449 -4.9354 0
M  V30 4082 C 389.225 -3.14081 -5.25376 0
M  V30 4083 N 388.362 -2.84246 -6.41988 0
M  V30 4084 H 393.202 -2.22463 -1.98278 0
M  V30 4085 H 390.739 -1.10593 -0.969933 0
M  V30 4086 H 392.697 -0.893413 -4.07522 0
M  V30 4087 H 391.327 -0.131719 -3.22531 0
M  V30 4088 H 390.379 -2.52204 -2.84775 0
M  V30 4089 H 391.691 -3.13959 -3.87597 0
M  V30 4090 H 390.845 -1.78026 -5.79993 0
M  V30 4091 H 389.584 -1.05867 -4.76071 0
M  V30 4092 H 388.589 -3.33089 -4.37415 0
M  V30 4093 H 389.814 -4.05455 -5.44778 0
M  V30 4094 H 387.76 -1.96252 -6.25956 0
M  V30 4095 H 387.677 -3.65637 -6.61699 0
M  V30 4096 H 388.945 -2.6935 -7.31485 0
M  V30 4097 N 393.175 1.03435 -1.18907 0
M  V30 4098 C 394.138 2.09756 -0.923844 0
M  V30 4099 C 395.138 1.60528 0.093416 0
M  V30 4100 O 396.328 1.73631 -0.140727 0
M  V30 4101 C 393.46 3.38692 -0.387354 0
M  V30 4102 H 394.653 2.34719 -1.86674 0
M  V30 4103 H 392.206 1.19959 -1.00197 0
M  V30 4104 H 392.941 3.19396 0.561845 0
M  V30 4105 H 392.726 3.75742 -1.12074 0
M  V30 4106 H 394.216 4.17016 -0.220694 0
M  V30 4107 N 394.653 0.992116 1.22453 0
M  V30 4108 C 395.899 0.678177 1.91761 0
M  V30 4109 C 396.254 -0.781141 1.75829 0
M  V30 4110 O 395.547 -1.55747 1.11595 0
M  V30 4111 C 395.741 1.01832 3.42586 0
M  V30 4112 C 395.57 2.50916 3.73191 0
M  V30 4113 C 394.34 3.17308 3.93248 0
M  V30 4114 C 396.538 3.49032 3.77732 0
M  V30 4115 N 394.52 4.55876 4.11157 0
M  V30 4116 C 395.891 4.73055 4.00773 0
M  V30 4117 C 397.946 3.43349 3.60577 0
M  V30 4118 C 396.649 5.92089 4.0844 0
M  V30 4119 C 398.675 4.61759 3.69503 0
M  V30 4120 C 398.037 5.84582 3.92993 0
M  V30 4121 H 394.136 0.299425 0.722405 0
M  V30 4122 H 396.72 1.27197 1.47408 0
M  V30 4123 H 394.891 0.453118 3.85748 0
M  V30 4124 H 396.623 0.660454 3.99274 0
M  V30 4125 H 393.378 2.67778 3.9063 0
M  V30 4126 H 393.802 5.27748 4.24042 0
M  V30 4127 H 398.444 2.49408 3.41402 0
M  V30 4128 H 396.162 6.86435 4.26418 0
M  V30 4129 H 399.748 4.58951 3.57569 0
M  V30 4130 H 398.628 6.74676 3.99728 0
M  V30 4131 N 396.131 -1.37776 0.765217 0
M  V30 4132 C 397.547 -1.53297 0.444108 0
M  V30 4133 C 397.747 -1.72515 -1.04119 0
M  V30 4134 O 396.803 -1.74278 -1.82711 0
M  V30 4135 C 398.116 -2.73328 1.25349 0
M  V30 4136 C 399.664 -2.87185 1.24473 0
M  V30 4137 C 400.139 -4.10191 2.03733 0
M  V30 4138 N 401.63 -4.17291 2.01053 0
M  V30 4139 C 402.365 -5.11488 2.59166 0
M  V30 4140 N 401.861 -6.11285 3.26041 0
M  V30 4141 N 403.654 -5.03924 2.49032 0
M  V30 4142 H 395.805 -1.23552 1.72768 0
M  V30 4143 H 398.068 -0.601103 0.733062 0
M  V30 4144 H 397.774 -2.6557 2.30577 0
M  V30 4145 H 397.648 -3.66834 0.87823 0
M  V30 4146 H 400.035 -2.94418 0.20047 0
M  V30 4147 H 400.116 -1.94657 1.65959 0
M  V30 4148 H 399.76 -4.0372 3.08176 0
M  V30 4149 H 399.69 -5.01821 1.59633 0
M  V30 4150 H 402.181 -3.45825 1.5236 0
M  V30 4151 H 402.494 -6.79678 3.67774 0
M  V30 4152 H 400.839 -6.11583 3.30138 0
M  V30 4153 H 404.03 -4.24902 1.96407 0
M  V30 4154 H 404.203 -5.77152 2.94617 0
M  V30 4155 N 397.609 -0.515225 -1.4894 0
M  V30 4156 C 398.886 0.0879088 -1.95402 0
M  V30 4157 C 399.266 1.52745 -1.45712 0
M  V30 4158 O 398.614 2.18238 -0.677093 0
M  V30 4159 C 398.824 -0.0141055 -3.48997 0
M  V30 4160 C 400.172 0.152646 -4.24326 0
M  V30 4161 O 401.196 0.0604025 -3.56149 0
M  V30 4162 O 400.055 0.34384 -5.45417 0
M  V30 4163 H 397.149 0.0874636 -0.822362 0
M  V30 4164 H 399.695 -0.578775 -1.59525 0
M  V30 4165 H 398.467 -1.01745 -3.77841 0
M  V30 4166 H 398.09 0.692091 -3.9153 0
M  V30 4167 N 399.087 1.5561 -0.249682 0
M  V30 4168 C 400.335 1.98618 0.373548 0
M  V30 4169 C 400.656 1.13919 1.58264 0
M  V30 4170 O 399.926 0.222637 1.94631 0
M  V30 4171 H 398.506 0.733571 0.141006 0
M  V30 4172 H 401.168 1.91748 -0.349117 0
M  V30 4173 H 400.264 3.04584 0.680796 0
M  V30 4174 N 400.565 -0.0233959 1.57583 0
M  V30 4175 C 401.981 -0.379134 1.55031 0
M  V30 4176 C 402.181 -1.76255 0.976548 0
M  V30 4177 O 401.237 -2.45266 0.600078 0
M  V30 4178 C 402.55 -0.275792 2.99433 0
M  V30 4179 C 404.098 -0.352458 3.11009 0
M  V30 4180 C 404.573 -0.278501 4.57152 0
M  V30 4181 N 406.064 -0.337123 4.61972 0
M  V30 4182 C 406.799 -0.302876 5.726 0
M  V30 4183 N 406.295 -0.220589 6.92449 0
M  V30 4184 N 408.088 -0.353023 5.6099 0
M  V30 4185 H 400.239 0.881869 1.93227 0
M  V30 4186 H 402.502 0.335867 0.886509 0
M  V30 4187 H 402.208 0.675108 3.4516 0
M  V30 4188 H 402.082 -1.06721 3.61788 0
M  V30 4189 H 404.469 -1.29379 2.65226 0
M  V30 4190 H 404.55 0.468409 2.51475 0
M  V30 4191 H 404.194 0.659189 5.03604 0
M  V30 4192 H 404.124 -1.11755 5.14605 0
M  V30 4193 H 406.615 -0.403002 3.75745 0
M  V30 4194 H 406.928 -0.199713 7.72542 0
M  V30 4195 H 405.273 -0.186555 6.9475 0
M  V30 4196 H 408.464 -0.415339 4.66254 0
M  V30 4197 H 408.637 -0.322866 6.47195 0
M  V30 4198 N 402.043 -1.548 -0.295768 0
M  V30 4199 C 403.291 -1.73985 -1.02828 0
M  V30 4200 C 403.612 -0.531406 -1.87619 0
M  V30 4201 O 402.882 0.454221 -1.90561 0
M  V30 4202 H 401.462 -0.641556 -0.382642 0
M  V30 4203 H 404.124 -1.92163 -0.325489 0
M  V30 4204 H 403.22 -2.63129 -1.67838 0
M  V30 4205 N 403.521 0.559213 -1.47345 0
M  V30 4206 C 404.484 1.64854 -1.59235 0
M  V30 4207 C 405.484 1.53851 -0.467607 0
M  V30 4208 O 406.674 1.58045 -0.732617 0
M  V30 4209 C 403.806 3.04388 -1.53496 0
M  V30 4210 H 404.999 1.55662 -2.56339 0
M  V30 4211 H 402.552 0.778973 -1.35505 0
M  V30 4212 H 403.287 3.19115 -0.577604 0
M  V30 4213 H 403.072 3.13783 -2.35123 0
M  V30 4214 H 404.562 3.83642 -1.6495 0
M  V30 4215 N 404.999 1.35443 0.805782 0
M  V30 4216 C 405.949 1.24972 1.90699 0
M  V30 4217 C 406.933 0.144806 1.60247 0
M  V30 4218 O 408.125 0.376102 1.72958 0
M  V30 4219 C 405.254 1.02475 3.27649 0
M  V30 4220 C 404.34 2.17361 3.64164 0
M  V30 4221 N 404.731 3.42591 3.72109 0
M  V30 4222 C 403.029 2.08765 3.94123 0
M  V30 4223 C 403.73 4.18144 4.04389 0
M  V30 4224 N 402.706 3.4691 4.18515 0
M  V30 4225 H 406.508 2.19852 1.95044 0
M  V30 4226 H 404.022 1.27928 1.00041 0
M  V30 4227 H 406.019 0.930617 4.06381 0
M  V30 4228 H 404.679 0.0848009 3.24589 0
M  V30 4229 H 405.69 3.76932 3.55166 0
M  V30 4230 H 402.367 1.22629 3.99084 0
M  V30 4231 H 403.757 5.26367 4.17597 0
M  V30 4232 N 406.477 -1.02803 1.19454 0
M  V30 4233 C 407.409 -2.11181 0.890807 0
M  V30 4234 C 408.422 -1.6238 -0.116829 0
M  V30 4235 O 409.611 -1.78144 0.112694 0
M  V30 4236 C 406.711 -3.37461 0.311942 0
M  V30 4237 C 405.884 -4.15446 1.36834 0
M  V30 4238 C 404.943 -5.20039 0.802864 0
M  V30 4239 O 403.969 -5.49602 1.48077 0
M  V30 4240 N 405.171 -5.79165 -0.393417 0
M  V30 4241 H 407.936 -2.37827 1.82369 0
M  V30 4242 H 405.497 -1.19101 1.09666 0
M  V30 4243 H 407.489 -4.0462 -0.0802225 0
M  V30 4244 H 406.059 -3.08156 -0.52524 0
M  V30 4245 H 405.279 -3.43423 1.93531 0
M  V30 4246 H 406.567 -4.64335 2.08015 0
M  V30 4247 H 405.965 -5.57466 -0.961658 0
M  V30 4248 H 404.522 -6.47729 -0.727351 0
M  V30 4249 N 407.956 -0.998596 -1.21925 0
M  V30 4250 C 408.904 -0.546641 -2.26085 0
M  V30 4251 C 409.898 0.405576 -1.64473 0
M  V30 4252 O 411.104 0.277471 -1.77849 0
M  V30 4253 H 407.479 -0.158403 -0.735127 0
M  V30 4254 H 409.45 -1.43645 -2.61551 0
M  V30 4255 C 408.199 0.117388 -3.47502 0
M  V30 4256 H 407.522 -0.606277 -3.95176 0
M  V30 4257 H 408.962 0.396993 -4.22137 0
M  V30 4258 C 407.421 1.35455 -3.0847 0
M  V30 4259 O 407.951 2.44944 -3.18379 0
M  V30 4260 N 406.157 1.23191 -2.63196 0
M  V30 4261 H 405.704 0.341006 -2.55333 0
M  V30 4262 H 405.662 2.06071 -2.37449 0
M  V30 4263 N 409.434 1.37368 -0.772513 0
M  V30 4264 C 410.683 1.98918 -0.333861 0
M  V30 4265 C 410.996 1.62017 1.09589 0
M  V30 4266 O 412.202 2.16676 1.63596 0
M  V30 4267 C 410.658 3.55735 -0.545971 0
M  V30 4268 C 410.266 4.01573 -1.98603 0
M  V30 4269 C 412.01 4.24156 -0.170979 0
M  V30 4270 C 409.917 5.51102 -2.1457 0
M  V30 4271 H 408.847 0.744214 -0.121085 0
M  V30 4272 H 411.498 1.56888 -0.95175 0
M  V30 4273 H 409.88 3.95748 0.141387 0
M  V30 4274 H 411.054 3.72803 -2.7084 0
M  V30 4275 H 409.369 3.45937 -2.31769 0
M  V30 4276 H 411.966 5.34024 -0.26878 0
M  V30 4277 H 412.309 4.06917 0.878855 0
M  V30 4278 H 412.842 3.89447 -0.810914 0
M  V30 4279 H 409.581 5.73268 -3.17875 0
M  V30 4280 H 409.101 5.81554 -1.46817 0
M  V30 4281 H 410.78 6.17083 -1.94468 0
M  V30 4282 N 410.912 0.523116 1.48665 0
M  V30 4283 C 412.161 -0.01544 2.01694 0
M  V30 4284 C 412.474 -1.35975 1.40606 0
M  V30 4285 O 413.68 -1.98627 1.85093 0
M  V30 4286 C 412.136 -0.0779303 3.59816 0
M  V30 4287 C 411.744 1.26107 4.29885 0
M  V30 4288 C 413.488 -0.565678 4.20714 0
M  V30 4289 C 411.395 1.15954 5.79921 0
M  V30 4290 H 410.325 -0.00954163 0.75394 0
M  V30 4291 H 412.976 0.665865 1.70993 0
M  V30 4292 H 411.358 -0.824165 3.87329 0
M  V30 4293 H 412.532 2.02233 4.14051 0
M  V30 4294 H 410.847 1.68401 3.80828 0
M  V30 4295 H 413.444 -0.6595 5.30617 0
M  V30 4296 H 413.787 -1.56984 3.85567 0
M  V30 4297 H 414.32 0.12467 3.97605 0
M  V30 4298 H 411.059 2.13864 6.19631 0
M  V30 4299 H 410.579 0.439529 5.98187 0
M  V30 4300 H 412.258 0.847361 6.41427 0
M  V30 4301 N 412.39 -1.55475 0.257931 0
M  V30 4302 C 413.801 -1.8511 -0.243135 0
M  V30 4303 C 414.152 -1.17986 -1.5676 0
M  V30 4304 O 413.277 -0.462102 -2.11409 0
M  V30 4305 C 413.872 -3.35826 -0.447929 0
M  V30 4306 C 412.431 -3.65647 -0.893245 0
M  V30 4307 C 411.578 -2.7729 0.0232965 0
M  V30 4308 H 414.529 -1.51261 0.480199 0
M  V30 4309 H 414.55 -3.58002 -1.28898 0
M  V30 4310 H 414.062 -3.84652 0.516196 0
M  V30 4311 H 412.163 -3.22308 -1.86945 0
M  V30 4312 H 412.276 -4.73312 -0.742469 0
M  V30 4313 H 410.64 -2.49942 -0.490021 0
M  V30 4314 H 411.423 -3.28926 0.982994 0
M  V30 4315 N 413.868 0.0150385 -1.57593 0
M  V30 4316 C 414.831 0.995996 -2.06428 0
M  V30 4317 C 415.831 1.2818 -0.970903 0
M  V30 4318 O 417.021 1.22949 -1.23406 0
M  V30 4319 C 414.153 2.32506 -2.49307 0
M  V30 4320 H 415.346 0.573873 -2.94358 0
M  V30 4321 H 412.899 0.262186 -1.54085 0
M  V30 4322 H 413.634 2.79438 -1.64575 0
M  V30 4323 H 413.419 2.13087 -3.29145 0
M  V30 4324 H 414.909 3.02906 -2.87468 0
M  V30 4325 N 415.346 1.54954 0.287554 0
M  V30 4326 C 416.571 1.79209 1.04397 0
M  V30 4327 C 416.996 0.556431 1.79682 0
M  V30 4328 O 416.354 -0.493518 1.74454 0
M  V30 4329 C 416.402 3.00739 1.98969 0
M  V30 4330 O 415.506 2.74805 3.075 0
M  V30 4331 H 414.847 0.592755 0.299227 0
M  V30 4332 H 417.377 2.02068 0.320886 0
M  V30 4333 H 417.387 3.29077 2.4119 0
M  V30 4334 H 416.062 3.90329 1.43582 0
M  V30 4335 H 414.639 2.57523 2.69697 0
M  V30 4336 N 416.824 -0.551391 1.4764 0
M  V30 4337 C 418.052 -1.33357 1.58189 0
M  V30 4338 C 418.467 -1.87342 0.234199 0
M  V30 4339 O 417.824 -1.65301 -0.77343 0
M  V30 4340 C 417.875 -2.49942 2.61173 0
M  V30 4341 O 417.596 -1.98187 3.90709 0
M  V30 4342 C 419.097 -3.42072 2.8196 0
M  V30 4343 H 416.317 -0.40631 0.533998 0
M  V30 4344 H 418.861 -0.667367 1.93304 0
M  V30 4345 H 417.016 -3.12489 2.28975 0
M  V30 4346 H 417.43 -2.74342 4.47031 0
M  V30 4347 H 418.904 -4.20278 3.57869 0
M  V30 4348 H 419.381 -3.95978 1.89995 0
M  V30 4349 H 419.987 -2.85336 3.15378 0
M  V30 4350 N 418.302 -1.35869 -0.798587 0
M  V30 4351 C 419.55 -1.29332 -1.55298 0
M  V30 4352 C 419.871 0.129729 -1.94568 0
M  V30 4353 O 419.141 1.06796 -1.6423 0
M  V30 4354 H 417.721 -0.475737 -0.57592 0
M  V30 4355 H 420.383 -1.70062 -0.952093 0
M  V30 4356 H 419.479 -1.91458 -2.46476 0
M  V30 4357 N 419.78 1.02168 -1.19998 0
M  V30 4358 C 420.743 2.08765 -0.94604 0
M  V30 4359 C 421.743 1.60618 0.0763846 0
M  V30 4360 O 422.933 1.73472 -0.159135 0
M  V30 4361 C 420.065 3.38262 -0.423255 0
M  V30 4362 H 421.258 2.32726 -1.89153 0
M  V30 4363 H 418.811 1.1889 -1.01464 0
M  V30 4364 H 419.546 3.19974 0.527938 0
M  V30 4365 H 419.331 3.74532 -1.16053 0
M  V30 4366 H 420.821 4.16759 -0.264911 0
M  V30 4367 N 421.258 1.00505 1.21394 0
M  V30 4368 C 422.221 0.570459 2.21987 0
M  V30 4369 C 423.221 -0.353211 1.56873 0
M  V30 4370 O 424.411 -0.14349 1.73608 0
M  V30 4371 C 421.543 -0.168555 3.40483 0
M  V30 4372 H 422.736 1.46021 2.6195 0
M  V30 4373 H 420.289 0.793565 1.34656 0
M  V30 4374 H 421.024 -1.07374 3.06009 0
M  V30 4375 H 420.809 0.494823 3.88965 0
M  V30 4376 H 422.299 -0.460362 4.15055 0
M  V30 4377 N 422.737 -1.36956 0.779787 0
M  V30 4378 C 423.684 -2.30175 0.169697 0
M  V30 4379 C 424.654 -1.51501 -0.68094 0
M  V30 4380 O 425.839 -1.80042 -0.631629 0
M  V30 4381 C 422.979 -3.37985 -0.697131 0
M  V30 4382 C 422.092 -4.31661 0.170992 0
M  V30 4383 C 421.227 -5.2655 -0.701298 0
M  V30 4384 C 420.266 -6.11867 0.168869 0
M  V30 4385 N 419.403 -6.98973 -0.661855 0
M  V30 4386 H 424.243 -2.81767 0.970135 0
M  V30 4387 H 421.78 -1.38699 0.489994 0
M  V30 4388 H 423.738 -3.99128 -1.2146 0
M  V30 4389 H 422.368 -2.87739 -1.46309 0
M  V30 4390 H 421.42 -3.71756 0.80634 0
M  V30 4391 H 422.732 -4.91644 0.841875 0
M  V30 4392 H 421.886 -5.92937 -1.28494 0
M  V30 4393 H 420.625 -4.66998 -1.40584 0
M  V30 4394 H 419.63 -5.44452 0.764986 0
M  V30 4395 H 420.855 -6.73493 0.870863 0
M  V30 4396 H 418.801 -6.41941 -1.35086 0
M  V30 4397 H 418.718 -7.55984 -0.0484447 0
M  V30 4398 H 419.986 -7.6974 -1.22963 0
M  V30 4399 N 424.215 -0.530993 -1.48385 0
M  V30 4400 C 425.178 0.220497 -2.28137 0
M  V30 4401 C 426.178 0.866851 -1.35434 0
M  V30 4402 O 427.368 0.726746 -1.58316 0
M  V30 4403 C 424.5 1.31921 -3.1434 0
M  V30 4404 H 425.693 -0.479714 -2.96038 0
M  V30 4405 H 423.246 -0.286968 -1.53643 0
M  V30 4406 H 423.981 2.05264 -2.51072 0
M  V30 4407 H 423.766 0.86085 -3.82533 0
M  V30 4408 H 425.256 1.84776 -3.74497 0
M  V30 4409 N 425.693 1.55336 -0.266172 0
M  V30 4410 C 426.939 1.99692 0.353681 0
M  V30 4411 C 427.272 1.1543 1.56172 0
M  V30 4412 O 426.547 0.222218 1.93226 0
M  V30 4413 C 426.83 3.52316 0.74466 0
M  V30 4414 C 426.683 4.47337 -0.470101 0
M  V30 4415 C 428.002 4.10588 1.58447 0
M  V30 4416 H 425.121 0.725961 0.12708 0
M  V30 4417 H 427.763 1.86336 -0.371333 0
M  V30 4418 H 425.913 3.63829 1.36239 0
M  V30 4419 H 427.585 4.4778 -1.10864 0
M  V30 4420 H 425.828 4.19364 -1.10978 0
M  V30 4421 H 426.499 5.51788 -0.15291 0
M  V30 4422 H 428.975 4.02297 1.06286 0
M  V30 4423 H 427.851 5.17607 1.82686 0
M  V30 4424 H 428.112 3.60253 2.56262 0
M  V30 4425 N 427.171 -0.0066808 1.57599 0
M  V30 4426 C 428.399 -0.704087 1.94551 0
M  V30 4427 C 428.814 -1.67677 0.867746 0
M  V30 4428 O 428.171 -1.8185 -0.153925 0
M  V30 4429 C 428.222 -1.44177 3.31505 0
M  V30 4430 O 427.943 -0.508097 4.35144 0
M  V30 4431 C 429.444 -2.23429 3.82876 0
M  V30 4432 H 426.664 -0.196523 0.641576 0
M  V30 4433 H 429.208 0.042453 2.04456 0
M  V30 4434 H 427.363 -2.13999 3.22929 0
M  V30 4435 H 427.777 -1.02782 5.14331 0
M  V30 4436 H 429.251 -2.70552 4.8115 0
M  V30 4437 H 429.728 -3.05818 3.15233 0
M  V30 4438 H 430.334 -1.58636 3.94607 0
M  V30 4439 N 428.649 -1.55105 -0.279332 0
M  V30 4440 C 429.596 -1.8755 -1.34513 0
M  V30 4441 C 430.566 -0.726384 -1.49375 0
M  V30 4442 O 431.751 -0.977063 -1.63884 0
M  V30 4443 C 428.891 -2.14738 -2.70151 0
M  V30 4444 C 428.004 -3.42285 -2.63562 0
M  V30 4445 C 427.139 -3.59206 -3.91337 0
M  V30 4446 C 426.178 -4.80467 -3.79233 0
M  V30 4447 N 425.315 -4.94079 -4.98829 0
M  V30 4448 H 430.155 -2.78456 -1.06143 0
M  V30 4449 H 427.692 -1.37867 -0.512936 0
M  V30 4450 H 429.65 -2.28501 -3.49061 0
M  V30 4451 H 428.28 -1.27075 -2.96735 0
M  V30 4452 H 427.332 -3.37029 -1.76397 0
M  V30 4453 H 428.644 -4.31328 -2.50515 0
M  V30 4454 H 427.798 -3.72751 -4.78687 0
M  V30 4455 H 426.537 -2.68337 -4.07243 0
M  V30 4456 H 425.542 -4.66932 -2.90266 0
M  V30 4457 H 426.767 -5.72765 -3.64852 0
M  V30 4458 H 424.713 -4.06139 -5.15158 0
M  V30 4459 H 424.63 -5.77156 -4.8829 0
M  V30 4460 H 425.898 -5.12003 -5.8777 0
M  V30 4461 N 430.127 0.543554 -1.4793 0
M  V30 4462 C 431.373 1.30201 -1.55485 0
M  V30 4463 C 431.706 1.92925 -0.222201 0
M  V30 4464 O 430.981 1.78586 0.77053 0
M  V30 4465 C 431.264 2.40174 -2.68307 0
M  V30 4466 C 431.117 1.8223 -4.11233 0
M  V30 4467 C 432.436 3.42024 -2.76961 0
M  V30 4468 H 429.555 0.472036 -0.565996 0
M  V30 4469 H 432.197 0.606914 -1.80046 0
M  V30 4470 H 430.347 2.99463 -2.47495 0
M  V30 4471 H 432.019 1.27096 -4.43446 0
M  V30 4472 H 430.262 1.12832 -4.18869 0
M  V30 4473 H 430.933 2.61793 -4.85972 0
M  V30 4474 H 433.409 2.92672 -2.95774 0
M  V30 4475 H 432.285 4.16383 -3.57654 0
M  V30 4476 H 432.546 4.0173 -1.84568 0
M  V30 4477 N 431.605 1.3629 0.791371 0
M  V30 4478 C 432.854 1.29742 1.54434 0
M  V30 4479 C 433.167 -0.121729 1.95221 0
M  V30 4480 O 434.373 -0.309579 2.69729 0
M  V30 4481 C 432.829 2.27623 2.78776 0
M  V30 4482 C 432.437 3.74963 2.45166 0
M  V30 4483 C 434.181 2.30047 3.56761 0
M  V30 4484 C 432.088 4.64626 3.65891 0
M  V30 4485 H 431.018 0.482113 0.579727 0
M  V30 4486 H 433.669 1.61642 0.868565 0
M  V30 4487 H 432.051 1.88714 3.48142 0
M  V30 4488 H 433.225 4.22596 1.83709 0
M  V30 4489 H 431.54 3.75295 1.80396 0
M  V30 4490 H 434.137 2.94247 4.46456 0
M  V30 4491 H 434.48 1.30846 3.95203 0
M  V30 4492 H 435.013 2.67563 2.94372 0
M  V30 4493 H 431.752 5.64883 3.32547 0
M  V30 4494 H 431.272 4.2171 4.26521 0
M  V30 4495 H 432.951 4.80801 4.32943 0
M  V30 4496 N 433.083 -1.0153 1.20538 0
M  V30 4497 C 434.494 -1.56598 1.01657 0
M  V30 4498 C 434.845 -1.91505 -0.426668 0
M  V30 4499 O 433.97 -1.72375 -1.30827 0
M  V30 4500 C 434.565 -2.84542 1.83905 0
M  V30 4501 C 433.124 -3.36133 1.69386 0
M  V30 4502 C 432.271 -2.09427 1.81757 0
M  V30 4503 H 435.222 -0.838974 1.34711 0
M  V30 4504 H 435.243 -3.56004 1.34319 0
M  V30 4505 H 434.755 -2.59105 2.8894 0
M  V30 4506 H 432.856 -3.66528 0.669933 0
M  V30 4507 H 432.969 -4.08248 2.50739 0
M  V30 4508 H 431.333 -2.21941 1.24957 0
M  V30 4509 H 432.116 -1.86414 2.88279 0
M  V30 4510 N 434.561 -1.01147 -1.20859 0
M  V30 4511 C 435.471 -0.58686 -2.27141 0
M  V30 4512 C 436.487 0.373198 -1.69951 0
M  V30 4513 O 437.663 0.235423 -2.00019 0
M  V30 4514 C 434.728 0.0733602 -3.46622 0
M  V30 4515 C 433.789 -0.931995 -4.19061 0
M  V30 4516 C 433.022 -0.303186 -5.32838 0
M  V30 4517 O 433.245 0.898395 -5.63281 0
M  V30 4518 O 432.179 -1.01735 -5.9324 0
M  V30 4519 H 436.005 -1.47155 -2.65667 0
M  V30 4520 H 433.59 -0.780689 -1.2738 0
M  V30 4521 H 435.472 0.442333 -4.19072 0
M  V30 4522 H 434.147 0.932329 -3.09983 0
M  V30 4523 H 433.054 -1.35224 -3.48805 0
M  V30 4524 H 434.387 -1.76076 -4.59628 0
M  V30 4525 N 436.039 1.36541 -0.78704 0
M  V30 4526 C 436.969 2.32659 -0.197992 0
M  V30 4527 C 437.95 1.56533 0.665697 0
M  V30 4528 O 439.135 1.84698 0.60001 0
M  V30 4529 C 436.265 3.40778 0.669901 0
M  V30 4530 C 435.219 4.27897 -0.0937039 0
M  V30 4531 C 434.545 5.27163 0.894629 0
M  V30 4532 C 435.845 5.06334 -1.28154 0
M  V30 4533 H 437.539 2.82171 -1.00099 0
M  V30 4534 H 435.085 1.35665 -0.482793 0
M  V30 4535 H 437.038 4.07008 1.09191 0
M  V30 4536 H 435.762 2.89827 1.50558 0
M  V30 4537 H 434.421 3.6322 -0.49666 0
M  V30 4538 H 434.069 4.72486 1.72527 0
M  V30 4539 H 433.769 5.86317 0.388149 0
M  V30 4540 H 435.293 5.96266 1.31525 0
M  V30 4541 H 436.707 5.65617 -0.93541 0
M  V30 4542 H 435.104 5.74888 -1.72115 0
M  V30 4543 H 436.174 4.38114 -2.07807 0
M  V30 4544 N 437.518 0.538854 1.48102 0
M  V30 4545 C 438.465 -0.219042 2.29758 0
M  V30 4546 C 439.435 -0.925562 1.37922 0
M  V30 4547 O 440.62 -0.924855 1.66886 0
M  V30 4548 C 437.76 -1.25452 3.2149 0
M  V30 4549 C 436.873 -0.555943 4.28408 0
M  V30 4550 C 436.008 -1.57512 5.0731 0
M  V30 4551 C 435.047 -0.860498 6.06021 0
M  V30 4552 N 434.184 -1.82564 6.77949 0
M  V30 4553 H 439.024 0.483449 2.94052 0
M  V30 4554 H 436.561 0.250247 1.44956 0
M  V30 4555 H 438.519 -1.86727 3.7308 0
M  V30 4556 H 437.149 -1.92528 2.591 0
M  V30 4557 H 436.201 0.170938 3.80016 0
M  V30 4558 H 437.513 0.00474616 4.988 0
M  V30 4559 H 436.667 -2.26191 5.62959 0
M  V30 4560 H 435.406 -2.16972 4.36778 0
M  V30 4561 H 434.411 -0.159686 5.49568 0
M  V30 4562 H 435.636 -0.271897 6.78555 0
M  V30 4563 H 433.582 -2.40915 6.10161 0
M  V30 4564 H 433.499 -1.31662 7.44447 0
M  V30 4565 H 434.767 -2.50414 7.38182 0
M  V30 4566 N 438.996 -1.55193 0.274407 0
M  V30 4567 C 440.244 -1.99187 -0.341902 0
M  V30 4568 C 440.565 -1.16422 -1.56431 0
M  V30 4569 O 439.835 -0.253573 -1.94252 0
M  V30 4570 H 438.415 -0.735721 -0.129317 0
M  V30 4571 H 441.077 -1.91168 0.379578 0
M  V30 4572 H 440.173 -3.05629 -0.632253 0
M  V30 4573 N 440.474 -0.00167713 -1.576 0
M  V30 4574 C 441.421 0.989195 -2.08527 0
M  V30 4575 C 442.391 1.34031 -0.981065 0
M  V30 4576 O 443.576 1.43839 -1.2536 0
M  V30 4577 C 440.716 2.27537 -2.59463 0
M  V30 4578 C 439.829 1.98314 -3.83791 0
M  V30 4579 C 438.964 3.21025 -4.23222 0
M  V30 4580 C 438.003 2.87495 -5.40382 0
M  V30 4581 N 437.14 4.02749 -5.75098 0
M  V30 4582 H 441.98 0.547973 -2.92919 0
M  V30 4583 H 439.517 0.258917 -1.44803 0
M  V30 4584 H 441.475 3.02729 -2.87073 0
M  V30 4585 H 440.105 2.69325 -1.77943 0
M  V30 4586 H 439.157 1.13482 -3.63078 0
M  V30 4587 H 440.469 1.69601 -4.69081 0
M  V30 4588 H 439.623 4.04561 -4.52123 0
M  V30 4589 H 438.362 3.52877 -3.36644 0
M  V30 4590 H 437.367 2.02367 -5.11202 0
M  V30 4591 H 438.592 2.56889 -6.28637 0
M  V30 4592 H 436.538 4.34494 -4.91478 0
M  V30 4593 H 436.455 3.77566 -6.54966 0
M  V30 4594 H 437.723 4.87068 -6.08592 0
M  V30 4595 N 441.952 1.55251 0.271103 0
M  V30 4596 C 442.882 1.9127 1.33933 0
M  V30 4597 C 443.863 0.77478 1.5143 0
M  V30 4598 O 445.048 1.03307 1.64442 0
M  V30 4599 C 442.178 2.18627 2.69851 0
M  V30 4600 C 441.132 3.34442 2.67081 0
M  V30 4601 C 440.458 3.47284 4.06569 0
M  V30 4602 C 441.758 4.70784 2.26185 0
M  V30 4603 H 443.452 2.80744 1.04035 0
M  V30 4604 H 440.998 1.35077 0.499017 0
M  V30 4605 H 442.951 2.42413 3.44694 0
M  V30 4606 H 441.675 1.25955 3.01335 0
M  V30 4607 H 440.334 3.10627 1.94695 0
M  V30 4608 H 439.982 2.52074 4.35279 0
M  V30 4609 H 439.682 4.25152 4.0561 0
M  V30 4610 H 441.206 3.73363 4.83148 0
M  V30 4611 H 442.62 4.94102 2.90751 0
M  V30 4612 H 441.017 5.51582 2.36384 0
M  V30 4613 H 442.087 4.69478 1.21319 0
M  V30 4614 N 443.43 -0.535701 1.48216 0
M  V30 4615 C 444.658 -1.31671 1.59594 0
M  V30 4616 C 445.073 -1.87083 0.254056 0
M  V30 4617 O 444.43 -1.66112 -0.755854 0
M  V30 4618 C 444.481 -2.47158 2.63809 0
M  V30 4619 O 444.202 -1.94032 3.92789 0
M  V30 4620 C 445.703 -3.39062 2.85573 0
M  V30 4621 H 442.923 -0.400623 0.538277 0
M  V30 4622 H 445.467 -0.646827 1.94001 0
M  V30 4623 H 443.622 -3.10043 2.32276 0
M  V30 4624 H 444.036 -2.69585 4.49916 0
M  V30 4625 H 445.51 -4.16459 3.62306 0
M  V30 4626 H 445.987 -3.93941 1.94184 0
M  V30 4627 H 446.593 -2.81975 3.18387 0
M  V30 4628 N 444.908 -1.36708 -0.784132 0
M  V30 4629 C 446.156 -1.30972 -1.53918 0
M  V30 4630 C 446.477 0.109086 -1.94695 0
M  V30 4631 O 445.747 1.05048 -1.65353 0
M  V30 4632 H 444.327 -0.481819 -0.570841 0
M  V30 4633 H 446.989 -1.71063 -0.934002 0
M  V30 4634 H 446.085 -1.94061 -2.44431 0
M  V30 4635 N 446.386 1.0089 -1.21074 0
M  V30 4636 C 447.319 2.09279 -0.909806 0
M  V30 4637 C 448.297 1.61986 0.141145 0
M  V30 4638 O 449.481 1.88495 0.0130332 0
M  V30 4639 C 446.608 3.36723 -0.365374 0
M  V30 4640 C 445.654 4.02919 -1.39852 0
M  V30 4641 S 446.487 4.45835 -2.96633 0
M  V30 4642 C 447.643 5.76471 -2.43786 0
M  V30 4643 H 447.876 2.34484 -1.82769 0
M  V30 4644 H 445.409 1.14115 -1.04006 0
M  V30 4645 H 447.367 4.10459 -0.0578203 0
M  V30 4646 H 446.028 3.09577 0.531136 0
M  V30 4647 H 445.221 4.94634 -0.967117 0
M  V30 4648 H 444.823 3.35441 -1.65395 0
M  V30 4649 H 447.115 6.52027 -1.84029 0
M  V30 4650 H 448.058 6.24418 -3.33928 0
M  V30 4651 H 448.466 5.33104 -1.85636 0
M  V30 4652 N 447.864 1.01787 1.20321 0
M  V30 4653 C 448.827 0.593972 2.2137 0
M  V30 4654 C 449.827 -0.336553 1.57239 0
M  V30 4655 O 451.017 -0.125069 1.7375 0
M  V30 4656 C 448.149 -0.132433 3.40643 0
M  V30 4657 H 449.342 1.48791 2.60387 0
M  V30 4658 H 446.895 0.807803 1.33807 0
M  V30 4659 H 447.63 -1.04123 3.0713 0
M  V30 4660 H 447.415 0.53605 3.88418 0
M  V30 4661 H 448.905 -0.416314 4.1552 0
M  V30 4662 N 449.342 -1.36122 0.79427 0
M  V30 4663 C 450.589 -1.99111 0.368905 0
M  V30 4664 C 450.917 -1.63032 -1.0607 0
M  V30 4665 O 450.172 -0.879303 -1.74833 0
M  V30 4666 C 450.471 -3.5409 0.48527 0
M  V30 4667 C 450.137 -4.10003 1.87638 0
M  V30 4668 C 448.799 -4.24986 2.257 0
M  V30 4669 C 451.151 -4.40423 2.78706 0
M  V30 4670 C 448.479 -4.67701 3.54221 0
M  V30 4671 C 450.831 -4.84573 4.0666 0
M  V30 4672 C 449.495 -4.97761 4.44737 0
M  V30 4673 H 448.765 -0.7286 0.134992 0
M  V30 4674 H 451.412 -1.62534 1.01267 0
M  V30 4675 H 449.717 -3.91052 -0.241984 0
M  V30 4676 H 451.414 -4.00766 0.137109 0
M  V30 4677 H 448.004 -3.98784 1.57064 0
M  V30 4678 H 452.188 -4.28412 2.50553 0
M  V30 4679 H 447.444 -4.761 3.83587 0
M  V30 4680 H 451.618 -5.07074 4.77336 0
M  V30 4681 H 449.245 -5.30618 5.44379 0
M  V30 4682 N 450.82 -0.546701 -1.47814 0
M  V30 4683 C 452.236 -0.205717 -1.58269 0
M  V30 4684 C 452.436 1.29153 -1.54667 0
M  V30 4685 O 451.492 2.07098 -1.44453 0
M  V30 4686 C 452.805 -0.823065 -2.89216 0
M  V30 4687 C 454.353 -0.793328 -3.02779 0
M  V30 4688 C 454.828 -1.38955 -4.36412 0
M  V30 4689 N 456.319 -1.35227 -4.43021 0
M  V30 4690 C 457.054 -1.78333 -5.44963 0
M  V30 4691 N 456.55 -2.29246 -6.53772 0
M  V30 4692 N 458.343 -1.69467 -5.35945 0
M  V30 4693 H 450.494 -1.5196 -1.48398 0
M  V30 4694 H 452.757 -0.633078 -0.705632 0
M  V30 4695 H 452.463 -1.8749 -2.97558 0
M  V30 4696 H 452.337 -0.309915 -3.75925 0
M  V30 4697 H 454.724 0.249784 -2.94041 0
M  V30 4698 H 454.805 -1.34412 -2.17639 0
M  V30 4699 H 454.449 -2.43168 -4.45906 0
M  V30 4700 H 454.379 -0.814291 -5.20266 0
M  V30 4701 H 456.87 -0.979739 -3.64979 0
M  V30 4702 H 457.183 -2.60089 -7.27718 0
M  V30 4703 H 455.528 -2.3325 -6.5469 0
M  V30 4704 H 458.719 -1.29477 -4.49837 0
M  V30 4705 H 458.892 -2.03381 -6.15256 0
M  V30 4706 N 452.299 1.55045 -0.282633 0
M  V30 4707 C 453.545 2.00056 0.332481 0
M  V30 4708 C 453.878 1.1708 1.54939 0
M  V30 4709 O 453.153 0.2427 1.9298 0
M  V30 4710 C 453.436 3.53086 0.70725 0
M  V30 4711 C 453.289 4.46813 -0.517521 0
M  V30 4712 C 454.608 4.12245 1.54084 0
M  V30 4713 H 451.727 0.727268 0.119373 0
M  V30 4714 H 454.369 1.85932 -0.391076 0
M  V30 4715 H 452.519 3.65253 1.32372 0
M  V30 4716 H 454.191 4.46579 -1.15607 0
M  V30 4717 H 452.434 4.18163 -1.1542 0
M  V30 4718 H 453.105 5.51595 -0.211426 0
M  V30 4719 H 455.581 4.03401 1.02013 0
M  V30 4720 H 454.457 5.19515 1.77186 0
M  V30 4721 H 454.718 3.62951 2.52427 0
M  V30 4722 N 453.777 0.010035 1.57597 0
M  V30 4723 C 455.188 -0.531426 1.78977 0
M  V30 4724 C 455.539 -1.73375 0.918454 0
M  V30 4725 O 454.664 -2.16047 0.123635 0
M  V30 4726 C 455.259 -0.97086 3.24592 0
M  V30 4727 C 453.818 -1.45756 3.47033 0
M  V30 4728 C 452.965 -0.413384 2.74201 0
M  V30 4729 H 455.916 0.236166 1.56933 0
M  V30 4730 H 455.937 -1.83633 3.33255 0
M  V30 4731 H 455.449 -0.0955893 3.87982 0
M  V30 4732 H 453.55 -2.35339 2.88871 0
M  V30 4733 H 453.663 -1.4781 4.55729 0
M  V30 4734 H 452.027 -0.877266 2.39115 0
M  V30 4735 H 452.81 0.453092 3.40297 0
M  V30 4736 N 455.255 -1.55392 -0.262866 0
M  V30 4737 C 456.483 -1.80513 -1.01108 0
M  V30 4738 C 456.898 -0.583533 -1.79556 0
M  V30 4739 O 456.255 0.447585 -1.76926 0
M  V30 4740 C 456.306 -3.03648 -1.96164 0
M  V30 4741 O 456.027 -4.2109 -1.20893 0
M  V30 4742 C 457.528 -3.41448 -2.82715 0
M  V30 4743 H 454.748 -0.601079 -0.298236 0
M  V30 4744 H 457.292 -2.02425 -0.290582 0
M  V30 4745 H 455.447 -2.83832 -2.63663 0
M  V30 4746 H 455.861 -4.90771 -1.85051 0
M  V30 4747 H 457.335 -4.30751 -3.45192 0
M  V30 4748 H 457.812 -2.61308 -3.53008 0
M  V30 4749 H 458.418 -3.63559 -2.20693 0
M  V30 4750 N 456.733 0.527833 -1.48498 0
M  V30 4751 C 458.144 1.10975 -1.50138 0
M  V30 4752 C 458.495 1.943 -0.272378 0
M  V30 4753 O 457.62 2.07319 0.620301 0
M  V30 4754 C 458.215 2.01927 -2.72049 0
M  V30 4755 C 456.774 2.55332 -2.76554 0
M  V30 4756 C 455.921 1.32341 -2.43683 0
M  V30 4757 H 458.872 0.312986 -1.55583 0
M  V30 4758 H 458.893 2.86244 -2.50689 0
M  V30 4759 H 458.405 1.41254 -3.61481 0
M  V30 4760 H 456.506 3.19721 -1.91336 0
M  V30 4761 H 456.619 2.94319 -3.78038 0
M  V30 4762 H 454.983 1.63989 -1.94884 0
M  V30 4763 H 455.766 0.734165 -3.35358 0
M  V30 4764 N 458.211 1.37122 0.776871 0
M  V30 4765 C 459.488 1.22586 1.52421 0
M  V30 4766 C 459.868 -0.182726 2.10308 0
M  V30 4767 O 459.216 -1.18979 1.9508 0
M  V30 4768 C 459.426 2.31782 2.60918 0
M  V30 4769 C 460.774 2.69071 3.2846 0
M  V30 4770 O 461.798 2.3092 2.71209 0
M  V30 4771 O 460.657 3.3478 4.31954 0
M  V30 4772 H 457.751 0.478045 0.674835 0
M  V30 4773 H 460.297 1.48888 0.814275 0
M  V30 4774 H 459.069 3.26131 2.16227 0
M  V30 4775 H 458.692 2.06916 3.39517 0
M  V30 4776 N 459.689 -1.00246 1.21608 0
M  V30 4777 C 460.935 -1.74319 1.03638 0
M  V30 4778 C 461.268 -1.89408 -0.428749 0
M  V30 4779 O 460.543 -1.43026 -1.3181 0
M  V30 4780 C 460.826 -3.15431 1.73711 0
M  V30 4781 C 460.679 -3.08049 3.27759 0
M  V30 4782 C 461.998 -4.14407 1.48173 0
M  V30 4783 H 459.117 -0.632741 0.377899 0
M  V30 4784 H 461.759 -1.16853 1.49818 0
M  V30 4785 H 459.909 -3.64493 1.34452 0
M  V30 4786 H 461.581 -2.66681 3.76403 0
M  V30 4787 H 459.824 -2.45088 3.57931 0
M  V30 4788 H 460.495 -4.07862 3.71958 0
M  V30 4789 H 462.971 -3.74061 1.82258 0
M  V30 4790 H 461.847 -5.11279 1.99713 0
M  V30 4791 H 462.108 -4.40174 0.412273 0
M  V30 4792 N 461.167 -1.02423 -1.1978 0
M  V30 4793 C 462.392 -0.7373 -1.93852 0
M  V30 4794 C 462.817 0.696923 -1.74713 0
M  V30 4795 O 462.175 1.48056 -1.04638 0
M  V30 4796 C 462.223 -1.08783 -3.438 0
M  V30 4797 O 461.327 -0.20383 -4.11896 0
M  V30 4798 H 460.668 -0.27284 -0.605355 0
M  V30 4799 H 463.198 -1.36966 -1.51992 0
M  V30 4800 H 463.208 -1.04276 -3.9445 0
M  V30 4801 H 461.883 -2.13274 -3.57053 0
M  V30 4802 H 460.46 -0.307091 -3.71633 0
M  V30 4803 N 462.645 1.35699 -0.801477 0
M  V30 4804 C 463.891 1.99208 -0.380022 0
M  V30 4805 C 464.224 1.63445 1.04878 0
M  V30 4806 O 463.499 0.895223 1.72673 0
M  V30 4807 C 463.782 3.55755 -0.557708 0
M  V30 4808 C 463.635 4.01332 -2.03107 0
M  V30 4809 C 464.954 4.40096 0.0197968 0
M  V30 4810 H 462.073 0.723667 -0.139552 0
M  V30 4811 H 464.715 1.60928 -1.01006 0
M  V30 4812 H 462.865 3.88494 -0.0213741 0
M  V30 4813 H 464.537 3.79026 -2.62939 0
M  V30 4814 H 462.78 3.52429 -2.52936 0
M  V30 4815 H 463.451 5.10234 -2.1063 0
M  V30 4816 H 465.927 4.13786 -0.438179 0
M  V30 4817 H 464.803 5.48735 -0.134477 0
M  V30 4818 H 465.064 4.2786 1.11303 0
M  V30 4819 N 464.123 0.554532 1.47522 0
M  V30 4820 C 465.369 0.0295227 2.02779 0
M  V30 4821 C 465.702 -1.31582 1.42828 0
M  V30 4822 O 464.977 -1.85561 0.582872 0
M  V30 4823 C 465.26 -0.0664057 3.60039 0
M  V30 4824 C 465.113 1.30585 4.30427 0
M  V30 4825 C 466.432 -0.781162 4.33112 0
M  V30 4826 H 463.551 0.0122027 0.736899 0
M  V30 4827 H 466.193 0.716305 1.7598 0
M  V30 4828 H 464.343 -0.651307 3.83002 0
M  V30 4829 H 466.015 1.93374 4.18813 0
M  V30 4830 H 464.258 1.88125 3.90886 0
M  V30 4831 H 464.929 1.19147 5.38988 0
M  V30 4832 H 467.405 -0.284565 4.15126 0
M  V30 4833 H 466.281 -0.817237 5.42782 0
M  V30 4834 H 466.542 -1.83672 4.0214 0
M  V30 4835 N 465.601 -1.54893 0.290851 0
M  V30 4836 C 466.878 -1.91991 -0.373989 0
M  V30 4837 C 467.258 -1.21694 -1.72493 0
M  V30 4838 O 466.606 -0.34917 -2.25816 0
M  V30 4839 C 466.816 -3.45419 -0.498703 0
M  V30 4840 C 468.164 -4.1748 -0.774298 0
M  V30 4841 O 469.188 -3.51398 -0.582908 0
M  V30 4842 O 468.047 -5.3445 -1.14129 0
M  V30 4843 H 465.141 -0.800593 -0.207315 0
M  V30 4844 H 467.687 -1.66297 0.338164 0
M  V30 4845 H 466.459 -3.88688 0.451392 0
M  V30 4846 H 466.082 -3.77117 -1.25972 0
M  V30 4847 N 467.08 -0.0183926 -1.57589 0
M  V30 4848 C 468.01 0.965596 -2.12599 0
M  V30 4849 C 468.991 1.34641 -1.0395 0
M  V30 4850 O 470.176 1.42693 -1.31729 0
M  V30 4851 C 467.306 2.25149 -2.64434 0
M  V30 4852 C 466.26 2.01175 -3.77773 0
M  V30 4853 C 465.586 3.35937 -4.15994 0
M  V30 4854 C 466.886 1.35953 -5.04296 0
M  V30 4855 H 468.58 0.507504 -2.95067 0
M  V30 4856 H 466.126 0.242671 -1.41941 0
M  V30 4857 H 468.079 2.94357 -3.01549 0
M  V30 4858 H 466.803 2.73105 -1.79112 0
M  V30 4859 H 465.462 1.34388 -3.4108 0
M  V30 4860 H 465.11 3.81631 -3.27669 0
M  V30 4861 H 464.81 3.20705 -4.92364 0
M  V30 4862 H 466.334 4.0643 -4.55683 0
M  V30 4863 H 467.748 1.95144 -5.39065 0
M  V30 4864 H 466.145 1.31152 -5.85593 0
M  V30 4865 H 467.215 0.331071 -4.83768 0
M  V30 4866 N 468.558 1.5553 0.254621 0
M  V30 4867 C 469.786 1.81046 1.00149 0
M  V30 4868 C 470.201 0.593047 1.79244 0
M  V30 4869 O 469.558 -0.438196 1.77161 0
M  V30 4870 C 469.609 3.04684 1.94551 0
M  V30 4871 O 469.33 4.21725 1.18658 0
M  V30 4872 C 470.831 3.42943 2.80901 0
M  V30 4873 H 468.051 0.602653 0.295044 0
M  V30 4874 H 470.595 2.02576 0.279842 0
M  V30 4875 H 468.75 2.85226 2.62154 0
M  V30 4876 H 469.164 4.91746 1.82445 0
M  V30 4877 H 470.638 4.32576 3.42902 0
M  V30 4878 H 471.115 2.63176 3.51617 0
M  V30 4879 H 471.721 3.64724 2.18762 0
M  V30 4880 N 470.036 -0.519951 1.48776 0
M  V30 4881 C 471.276 -1.2856 1.58908 0
M  V30 4882 C 471.64 -1.90212 0.261418 0
M  V30 4883 O 472.841 -2.67746 0.237791 0
M  V30 4884 C 471.112 -2.33836 2.70288 0
M  V30 4885 S 472.671 -3.19992 3.0025 0
M  V30 4886 H 469.489 -0.43717 0.560717 0
M  V30 4887 H 472.091 -0.591205 1.86346 0
M  V30 4888 H 470.795 -1.87041 3.653 0
M  V30 4889 H 470.326 -3.07969 2.44783 0
M  V30 4890 H 472.341 -4.34122 2.40317 0
M  V30 4891 N 471.514 -1.37532 -0.769588 0
M  V30 4892 C 472.93 -1.18379 -1.07045 0
M  V30 4893 C 473.13 -0.0214312 -2.01489 0
M  V30 4894 O 472.186 0.637809 -2.44312 0
M  V30 4895 C 473.499 -2.50338 -1.66588 0
M  V30 4896 C 475.047 -2.56879 -1.78835 0
M  V30 4897 C 475.522 -3.88974 -2.41792 0
M  V30 4898 N 477.013 -3.90428 -2.4924 0
M  V30 4899 C 477.748 -4.89388 -2.98809 0
M  V30 4900 N 477.244 -5.98745 -3.48535 0
M  V30 4901 N 479.037 -4.76791 -2.97703 0
M  V30 4902 H 471.188 -2.11921 -0.142541 0
M  V30 4903 H 473.451 -0.939608 -0.125863 0
M  V30 4904 H 473.157 -3.35767 -1.0466 0
M  V30 4905 H 473.031 -2.67583 -2.65856 0
M  V30 4906 H 475.418 -1.71856 -2.39895 0
M  V30 4907 H 475.499 -2.43516 -0.783166 0
M  V30 4908 H 475.143 -4.74412 -1.81371 0
M  V30 4909 H 475.073 -3.99641 -3.4292 0
M  V30 4910 H 477.564 -3.11433 -2.14052 0
M  V30 4911 H 477.877 -6.70205 -3.84767 0
M  V30 4912 H 476.222 -6.02387 -3.46634 0
M  V30 4913 H 479.413 -3.90478 -2.58157 0
M  V30 4914 H 479.586 -5.54069 -3.36024 0
M  V30 4915 N 472.992 0.995999 -1.22138 0
M  V30 4916 C 473.922 2.10387 -1.01289 0
M  V30 4917 C 474.903 1.69975 0.0651454 0
M  V30 4918 O 476.088 1.9396 -0.0964628 0
M  V30 4919 C 473.218 3.42312 -0.586517 0
M  V30 4920 C 472.172 3.96558 -1.61014 0
M  V30 4921 C 471.498 5.24494 -1.0397 0
M  V30 4922 C 472.798 4.27595 -2.99933 0
M  V30 4923 H 474.492 2.28086 -1.93951 0
M  V30 4924 H 472.038 1.09607 -0.933928 0
M  V30 4925 H 473.991 4.19223 -0.427793 0
M  V30 4926 H 472.715 3.24431 0.375761 0
M  V30 4927 H 471.374 3.21776 -1.75658 0
M  V30 4928 H 471.022 5.02953 -0.0688703 0
M  V30 4929 H 470.722 5.61755 -1.72352 0
M  V30 4930 H 472.246 6.04042 -0.892494 0
M  V30 4931 H 473.66 4.95315 -2.8868 0
M  V30 4932 H 472.057 4.76021 -3.6541 0
M  V30 4933 H 473.127 3.35498 -3.50099 0
M  V30 4934 N 474.47 1.03057 1.19235 0
M  V30 4935 C 475.433 0.617418 2.20727 0
M  V30 4936 C 476.433 -0.319856 1.57587 0
M  V30 4937 O 477.623 -0.106633 1.73873 0
M  V30 4938 C 474.755 -0.096296 3.40764 0
M  V30 4939 H 475.948 1.51544 2.58794 0
M  V30 4940 H 473.501 0.821949 1.32942 0
M  V30 4941 H 474.236 -1.00859 3.08217 0
M  V30 4942 H 474.021 0.577217 3.87828 0
M  V30 4943 H 475.511 -0.372219 4.15938 0
M  V30 4944 N 475.948 -1.35272 0.808662 0
M  V30 4945 C 476.88 -2.28507 0.178149 0
M  V30 4946 C 477.893 -1.50377 -0.623754 0
M  V30 4947 O 479.082 -1.72583 -0.455774 0
M  V30 4948 C 476.182 -3.30038 -0.769959 0
M  V30 4949 C 475.355 -4.37398 -0.0139749 0
M  V30 4950 C 474.414 -5.18775 -0.880875 0
M  V30 4951 O 473.44 -5.68236 -0.331059 0
M  V30 4952 N 474.642 -5.37087 -2.20267 0
M  V30 4953 H 477.407 -2.83255 0.979106 0
M  V30 4954 H 474.968 -1.47643 0.664308 0
M  V30 4955 H 476.96 -3.81371 -1.35418 0
M  V30 4956 H 475.53 -2.75789 -1.47171 0
M  V30 4957 H 474.75 -3.86971 0.751468 0
M  V30 4958 H 476.038 -5.06268 0.506965 0
M  V30 4959 H 475.436 -4.9855 -2.67328 0
M  V30 4960 H 473.993 -5.91593 -2.73608 0
M  V30 4961 N 477.426 -0.562348 -1.47226 0
M  V30 4962 C 478.837 -0.130325 -1.86245 0
M  V30 4963 C 479.188 1.30128 -1.46838 0
M  V30 4964 O 478.313 1.97974 -0.873805 0
M  V30 4965 C 478.908 -0.229738 -3.3802 0
M  V30 4966 C 477.467 0.14728 -3.76112 0
M  V30 4967 C 476.614 -0.574971 -2.71274 0
M  V30 4968 H 479.565 -0.771773 -1.3867 0
M  V30 4969 H 479.586 0.550316 -3.76499 0
M  V30 4970 H 479.098 -1.27178 -3.66671 0
M  V30 4971 H 477.199 1.19023 -3.53078 0
M  V30 4972 H 477.312 -0.214858 -4.78618 0
M  V30 4973 H 475.676 -0.0174756 -2.54694 0
M  V30 4974 H 476.459 -1.61827 -3.02766 0
M  V30 4975 N 478.904 1.54736 -0.299062 0
M  V30 4976 C 479.867 2.22127 0.565012 0
M  V30 4977 C 480.867 1.20669 1.06281 0
M  V30 4978 O 482.057 1.45417 0.959145 0
M  V30 4979 C 479.189 2.90611 1.78208 0
M  V30 4980 H 480.382 2.99891 -0.0237448 0
M  V30 4981 H 477.935 1.5622 -0.0498788 0
M  V30 4982 H 478.67 2.16921 2.41072 0
M  V30 4983 H 478.455 3.64984 1.43281 0
M  V30 4984 H 479.945 3.42026 2.396 0
M  V30 4985 N 480.382 0.0267497 1.57577 0
M  V30 4986 C 481.793 -0.512413 1.79531 0
M  V30 4987 C 482.144 -1.72391 0.936791 0
M  V30 4988 O 481.269 -2.15903 0.146543 0
M  V30 4989 C 481.864 -0.936378 3.25603 0
M  V30 4990 C 480.423 -1.42067 3.4856 0
M  V30 4991 C 479.57 -0.384278 2.74624 0
M  V30 4992 H 482.521 0.252797 1.56674 0
M  V30 4993 H 482.542 -1.80088 3.35184 0
M  V30 4994 H 482.054 -0.0544332 3.88062 0
M  V30 4995 H 480.155 -2.32262 2.9135 0
M  V30 4996 H 480.268 -1.42968 4.57271 0
M  V30 4997 H 478.632 -0.851855 2.40032 0
M  V30 4998 H 479.415 0.489159 3.39797 0
M  V30 4999 N 481.861 -1.55662 -0.24637 0
M  V30 5000 C 483.091 -1.81312 -0.990438 0
M  V30 5001 C 483.499 -0.600234 -1.79426 0
M  V30 5002 O 482.842 0.440537 -1.78339 0
M  V30 5003 C 482.904 -3.0032 -1.97607 0
M  V30 5004 C 482.568 -4.36322 -1.35912 0
M  V30 5005 C 483.565 -5.14295 -0.761348 0
M  V30 5006 C 481.25 -4.83019 -1.37833 0
M  V30 5007 C 483.244 -6.37114 -0.190998 0
M  V30 5008 C 480.931 -6.05786 -0.804128 0
M  V30 5009 C 481.929 -6.82672 -0.211489 0
M  V30 5010 O 481.617 -8.03121 0.353845 0
M  V30 5011 H 481.349 -0.607233 -0.297058 0
M  V30 5012 H 483.903 -2.0356 -0.274351 0
M  V30 5013 H 482.133 -2.73829 -2.73047 0
M  V30 5014 H 483.822 -3.13057 -2.58361 0
M  V30 5015 H 484.588 -4.79337 -0.739013 0
M  V30 5016 H 480.467 -4.23165 -1.829 0
M  V30 5017 H 484.011 -6.97069 0.272206 0
M  V30 5018 H 479.908 -6.40222 -0.823792 0
M  V30 5019 H 480.676 -8.18131 0.245761 0
M  V30 5020 N 483.339 0.512053 -1.4905 0
M  V30 5021 C 484.564 1.2959 -1.6193 0
M  V30 5022 C 484.989 1.85906 -0.286454 0
M  V30 5023 O 484.347 1.65312 0.744426 0
M  V30 5024 C 484.395 2.40987 -2.68249 0
M  V30 5025 O 483.499 3.44531 -2.26654 0
M  V30 5026 H 482.84 0.383053 -0.542371 0
M  V30 5027 H 485.37 0.614231 -1.95162 0
M  V30 5028 H 485.38 2.86913 -2.90078 0
M  V30 5029 H 484.055 1.99361 -3.65004 0
M  V30 5030 H 482.632 3.046 -2.15112 0
M  V30 5031 N 484.817 1.37938 0.762283 0
M  V30 5032 C 485.78 1.34279 1.85747 0
M  V30 5033 C 486.78 0.244969 1.58923 0
M  V30 5034 O 487.97 0.501365 1.66829 0
M  V30 5035 C 485.102 1.08833 3.23061 0
M  V30 5036 H 486.295 2.31705 1.90401 0
M  V30 5037 H 483.848 1.23105 0.963057 0
M  V30 5038 H 484.583 0.119767 3.24079 0
M  V30 5039 H 484.368 1.88306 3.43923 0
M  V30 5040 H 485.858 1.08946 4.03138 0
M  V30 5041 N 486.295 -0.989507 1.22664 0
M  V30 5042 C 487.544 -1.72375 1.04737 0
M  V30 5043 C 487.857 -1.91096 -0.417316 0
M  V30 5044 O 489.063 -2.6188 -0.716334 0
M  V30 5045 C 487.519 -3.10161 1.82561 0
M  V30 5046 C 487.127 -2.99358 3.333 0
M  V30 5047 C 488.871 -3.87607 1.73093 0
M  V30 5048 C 486.778 -4.32319 4.03552 0
M  V30 5049 H 485.708 -0.646326 0.388302 0
M  V30 5050 H 488.359 -1.10437 1.46546 0
M  V30 5051 H 486.741 -3.728 1.33552 0
M  V30 5052 H 487.915 -2.45863 3.89728 0
M  V30 5053 H 486.23 -2.35392 3.43481 0
M  V30 5054 H 488.827 -4.86025 2.22899 0
M  V30 5055 H 489.17 -4.10509 0.691976 0
M  V30 5056 H 489.703 -3.31652 2.19663 0
M  V30 5057 H 486.442 -4.14616 5.07714 0
M  V30 5058 H 485.962 -4.85714 3.51911 0
M  V30 5059 H 487.641 -5.01051 4.09337 0
M  V30 5060 N 487.773 -1.03688 -1.18687 0
M  V30 5061 C 488.72 -0.624624 -2.22187 0
M  V30 5062 C 489.69 0.365636 -1.62026 0
M  V30 5063 O 490.875 0.260481 -1.89014 0
M  V30 5064 C 488.015 0.0101738 -3.45099 0
M  V30 5065 C 487.128 -1.02709 -4.19613 0
M  V30 5066 C 486.263 -0.361213 -5.2997 0
M  V30 5067 C 485.302 -1.38384 -5.96252 0
M  V30 5068 N 484.439 -0.743196 -6.98155 0
M  V30 5069 H 489.279 -1.51176 -2.56807 0
M  V30 5070 H 486.816 -0.75636 -1.26165 0
M  V30 5071 H 488.774 0.395528 -4.15321 0
M  V30 5072 H 487.404 0.860848 -3.1111 0
M  V30 5073 H 486.456 -1.53043 -3.48256 0
M  V30 5074 H 487.768 -1.80398 -4.65036 0
M  V30 5075 H 486.922 0.0785537 -6.06649 0
M  V30 5076 H 485.661 0.447799 -4.8564 0
M  V30 5077 H 484.666 -1.83378 -5.18317 0
M  V30 5078 H 485.891 -2.19448 -6.42666 0
M  V30 5079 H 483.837 0.0455789 -6.55984 0
M  V30 5080 H 483.754 -1.45784 -7.41811 0
M  V30 5081 H 485.022 -0.327698 -7.78811 0
M  V30 5082 N 489.251 1.34841 -0.815825 0
M  V30 5083 C 490.161 2.33425 -0.234462 0
M  V30 5084 C 491.177 1.62295 0.627413 0
M  V30 5085 O 492.353 1.94109 0.536987 0
M  V30 5086 C 489.418 3.41471 0.599849 0
M  V30 5087 C 488.479 4.28362 -0.283596 0
M  V30 5088 C 487.712 5.31248 0.51099 0
M  V30 5089 O 487.935 5.43056 1.7449 0
M  V30 5090 O 486.869 6.01812 -0.10297 0
M  V30 5091 H 490.695 2.84962 -1.05024 0
M  V30 5092 H 488.28 1.37774 -0.577809 0
M  V30 5093 H 490.162 4.07464 1.07475 0
M  V30 5094 H 488.837 2.9219 1.39308 0
M  V30 5095 H 487.744 3.65318 -0.805836 0
M  V30 5096 H 489.077 4.81066 -1.041 0
M  V30 5097 N 490.729 0.570148 1.46925 0
M  V30 5098 C 491.692 -0.159933 2.28641 0
M  V30 5099 C 492.692 -0.830638 1.37685 0
M  V30 5100 O 493.882 -0.684516 1.60187 0
M  V30 5101 C 491.014 -1.2354 3.17727 0
M  V30 5102 H 492.207 0.558035 2.94662 0
M  V30 5103 H 489.76 0.327603 1.52828 0
M  V30 5104 H 490.495 -1.98535 2.56426 0
M  V30 5105 H 490.28 -0.759125 3.84681 0
M  V30 5106 H 491.77 -1.74782 3.79264 0
M  V30 5107 N 492.207 -1.54576 0.307264 0
M  V30 5108 C 493.453 -2.0056 -0.300612 0
M  V30 5109 C 493.786 -1.1953 -1.53057 0
M  V30 5110 O 493.061 -0.27337 -1.92569 0
M  V30 5111 C 493.344 -3.54167 -0.650987 0
M  V30 5112 C 493.197 -4.45933 0.588539 0
M  V30 5113 C 494.516 -4.14645 -1.47506 0
M  V30 5114 H 491.635 -0.729075 -0.107788 0
M  V30 5115 H 494.277 -1.85286 0.420606 0
M  V30 5116 H 492.427 -3.67313 -1.26544 0
M  V30 5117 H 494.099 -4.44683 1.22697 0
M  V30 5118 H 492.342 -4.16274 1.22058 0
M  V30 5119 H 493.013 -5.51189 0.299153 0
M  V30 5120 H 495.489 -4.04973 -0.955821 0
M  V30 5121 H 494.365 -5.22269 -1.68899 0
M  V30 5122 H 494.626 -3.66921 -2.4662 0
M  V30 5123 N 493.685 -0.035106 -1.57561 0
M  V30 5124 C 494.632 0.94474 -2.10578 0
M  V30 5125 C 495.602 1.3192 -1.00927 0
M  V30 5126 O 496.787 1.41147 -1.28382 0
M  V30 5127 C 493.927 2.21982 -2.64231 0
M  V30 5128 C 493.04 1.90128 -3.87911 0
M  V30 5129 C 492.175 3.11975 -4.29936 0
M  V30 5130 C 491.214 2.75968 -5.46359 0
M  V30 5131 N 490.351 3.90459 -5.83512 0
M  V30 5132 H 495.191 0.485717 -2.94015 0
M  V30 5133 H 492.728 0.228143 -1.4532 0
M  V30 5134 H 494.686 2.96572 -2.9343 0
M  V30 5135 H 493.316 2.6549 -1.83616 0
M  V30 5136 H 492.368 1.05755 -3.65404 0
M  V30 5137 H 493.68 1.59613 -4.72573 0
M  V30 5138 H 492.834 3.9488 -4.60603 0
M  V30 5139 H 491.573 3.45657 -3.44053 0
M  V30 5140 H 490.578 1.91478 -5.1538 0
M  V30 5141 H 491.803 2.43497 -6.33945 0
M  V30 5142 H 489.749 4.23971 -5.00584 0
M  V30 5143 H 489.666 3.63588 -6.62827 0
M  V30 5144 H 490.934 4.7405 -6.18787 0
M  V30 5145 N 495.163 1.55791 0.238111 0
M  V30 5146 C 496.126 1.90239 1.27835 0
M  V30 5147 C 497.126 0.779552 1.4064 0
M  V30 5148 O 498.316 1.04747 1.3919 0
M  V30 5149 C 495.448 2.13859 2.65475 0
M  V30 5150 H 496.641 2.83262 0.985034 0
M  V30 5151 H 494.194 1.48818 0.477799 0
M  V30 5152 H 494.929 1.23334 2.99932 0
M  V30 5153 H 494.714 2.95643 2.57561 0
M  V30 5154 H 496.204 2.41664 3.40571 0
M  V30 5155 N 496.642 -0.504142 1.49319 0
M  V30 5156 C 497.605 -1.5883 1.65244 0
M  V30 5157 C 498.605 -1.52009 0.524386 0
M  V30 5158 O 499.795 -1.55218 0.79077 0
M  V30 5159 C 496.927 -2.98481 1.64687 0
M  V30 5160 H 498.12 -1.4604 2.61939 0
M  V30 5161 H 495.673 -0.728144 1.38303 0
M  V30 5162 H 496.408 -3.16751 0.695644 0
M  V30 5163 H 496.193 -3.0484 2.46607 0
M  V30 5164 H 497.683 -3.77256 1.79075 0
M  V30 5165 N 498.12 -1.38341 -0.754957 0
M  V30 5166 C 499.083 -1.35262 -1.85032 0
M  V30 5167 C 500.083 -0.253393 -1.58791 0
M  V30 5168 O 501.273 -0.510205 -1.66561 0
M  V30 5169 C 498.405 -1.10544 -3.22479 0
M  V30 5170 H 499.598 -2.32712 -1.8917 0
M  V30 5171 H 497.151 -1.23614 -0.956515 0
M  V30 5172 H 497.886 -0.136952 -3.24011 0
M  V30 5173 H 497.671 -1.90127 -3.4292 0
M  V30 5174 H 499.161 -1.11082 -4.02555 0
M  V30 5175 N 499.598 0.982988 -1.23187 0
M  V30 5176 C 500.545 2.07491 -1.01075 0
M  V30 5177 C 501.515 1.65949 0.070905 0
M  V30 5178 O 502.7 1.90629 -0.0806822 0
M  V30 5179 C 499.84 3.39751 -0.605261 0
M  V30 5180 C 498.953 3.94578 -1.75876 0
M  V30 5181 C 498.088 5.15039 -1.3003 0
M  V30 5182 C 497.127 5.62027 -2.42472 0
M  V30 5183 N 496.264 6.73719 -1.97602 0
M  V30 5184 H 501.104 2.25739 -1.9454 0
M  V30 5185 H 498.641 1.10659 -0.969179 0
M  V30 5186 H 500.599 4.15719 -0.351279 0
M  V30 5187 H 499.229 3.21473 0.292382 0
M  V30 5188 H 498.281 3.1539 -2.12681 0
M  V30 5189 H 499.593 4.25422 -2.60418 0
M  V30 5190 H 498.747 5.9833 -1.00429 0
M  V30 5191 H 497.486 4.85843 -0.425216 0
M  V30 5192 H 496.491 4.77318 -2.7285 0
M  V30 5193 H 497.716 5.93244 -3.30512 0
M  V30 5194 H 495.662 6.46287 -1.1247 0
M  V30 5195 H 495.579 7.03934 -2.75705 0
M  V30 5196 H 496.847 7.6049 -1.71098 0
M  V30 5197 N 501.076 1.04316 1.18135 0
M  V30 5198 C 502.324 0.746542 1.87806 0
M  V30 5199 C 502.645 -0.728082 1.80898 0
M  V30 5200 O 501.915 -1.52554 1.22899 0
M  V30 5201 H 500.495 0.273157 0.695265 0
M  V30 5202 H 503.157 1.32044 1.43354 0
M  V30 5203 H 502.253 1.05362 2.93778 0
M  V30 5204 N 502.554 -1.34406 0.822964 0
M  V30 5205 C 503.965 -1.8069 0.469879 0
M  V30 5206 C 504.316 -1.68223 -1.00972 0
M  V30 5207 O 503.441 -1.22226 -1.78577 0
M  V30 5208 C 504.036 -3.28064 0.846118 0
M  V30 5209 C 502.595 -3.72428 0.545402 0
M  V30 5210 C 501.742 -2.56116 1.06301 0
M  V30 5211 H 504.693 -1.22153 1.01313 0
M  V30 5212 H 504.714 -3.80205 0.149922 0
M  V30 5213 H 504.226 -3.37107 1.92304 0
M  V30 5214 H 502.327 -3.68924 -0.522109 0
M  V30 5215 H 502.44 -4.66548 1.0895 0
M  V30 5216 H 500.804 -2.50048 0.484554 0
M  V30 5217 H 501.587 -2.67928 2.14638 0
M  V30 5218 N 504.032 -0.577932 -1.46621 0
M  V30 5219 C 504.965 0.206312 -2.27265 0
M  V30 5220 C 505.943 0.901306 -1.35334 0
M  V30 5221 O 507.127 0.916151 -1.64739 0
M  V30 5222 C 504.254 1.29563 -3.1294 0
M  V30 5223 C 503.3 0.706981 -4.206 0
M  V30 5224 S 504.133 -0.462459 -5.33499 0
M  V30 5225 C 505.289 0.628171 -6.2274 0
M  V30 5226 H 505.522 -0.477961 -2.93433 0
M  V30 5227 H 503.055 -0.364715 -1.50031 0
M  V30 5228 H 505.013 1.91935 -3.62865 0
M  V30 5229 H 503.674 1.95183 -2.46095 0
M  V30 5230 H 502.867 1.52565 -4.80354 0
M  V30 5231 H 502.469 0.159022 -3.73662 0
M  V30 5232 H 504.761 1.51506 -6.60342 0
M  V30 5233 H 505.704 0.0674961 -7.08068 0
M  V30 5234 H 506.112 0.930167 -5.56784 0
M  V30 5235 N 505.51 1.54411 -0.315457 0
M  V30 5236 C 506.473 2.22713 0.54142 0
M  V30 5237 C 507.473 1.2179 1.04995 0
M  V30 5238 O 508.663 1.46426 0.943667 0
M  V30 5239 C 505.795 2.92485 1.75116 0
M  V30 5240 H 506.988 2.99849 -0.0555508 0
M  V30 5241 H 504.541 1.56159 -0.0664453 0
M  V30 5242 H 505.276 2.19466 2.38758 0
M  V30 5243 H 505.061 3.66483 1.39401 0
M  V30 5244 H 506.551 3.44548 2.35959 0
M  V30 5245 N 506.988 0.0434614 1.5754 0
M  V30 5246 C 508.236 -0.630786 1.92004 0
M  V30 5247 C 508.557 -1.71836 0.921807 0
M  V30 5248 O 507.827 -1.9587 -0.034522 0
M  V30 5249 H 506.407 -0.235988 0.708745 0
M  V30 5250 H 509.069 0.0946462 1.9467 0
M  V30 5251 H 508.165 -1.07434 2.93026 0
M  V30 5252 N 508.466 -1.55915 -0.229846 0
M  V30 5253 C 509.715 -1.77742 -0.953455 0
M  V30 5254 C 510.028 -0.610524 -1.85828 0
M  V30 5255 O 511.234 -0.712219 -2.61992 0
M  V30 5256 C 509.69 -3.14738 -1.74551 0
M  V30 5257 C 509.298 -4.39126 -0.887242 0
M  V30 5258 C 511.042 -3.45895 -2.46084 0
M  V30 5259 C 508.949 -5.67149 -1.67617 0
M  V30 5260 H 507.879 -0.662648 -0.359741 0
M  V30 5261 H 510.53 -1.82322 -0.207576 0
M  V30 5262 H 508.912 -3.04311 -2.53399 0
M  V30 5263 H 510.086 -4.60588 -0.139892 0
M  V30 5264 H 508.401 -4.15427 -0.284443 0
M  V30 5265 H 510.998 -4.38767 -3.05594 0
M  V30 5266 H 511.341 -2.68007 -3.18556 0
M  V30 5267 H 511.874 -3.57614 -1.74233 0
M  V30 5268 H 508.613 -6.47906 -0.994881 0
M  V30 5269 H 508.133 -5.49763 -2.39836 0
M  V30 5270 H 509.812 -6.07025 -2.23898 0
M  V30 5271 N 509.944 0.496216 -1.49584 0
M  V30 5272 C 510.874 1.60576 -1.69521 0
M  V30 5273 C 511.855 1.61169 -0.543933 0
M  V30 5274 O 513.04 1.77834 -0.78031 0
M  V30 5275 C 510.17 2.99038 -1.76616 0
M  V30 5276 C 509.124 3.13312 -2.91581 0
M  V30 5277 C 508.45 4.53172 -2.83794 0
M  V30 5278 C 509.75 2.92886 -4.32452 0
M  V30 5279 H 511.444 1.44146 -2.62416 0
M  V30 5280 H 508.99 0.692024 -1.26282 0
M  V30 5281 H 510.943 3.76564 -1.8915 0
M  V30 5282 H 509.667 3.16568 -0.80324 0
M  V30 5283 H 508.326 2.38213 -2.78658 0
M  V30 5284 H 507.974 4.67585 -1.854 0
M  V30 5285 H 507.674 4.63662 -3.60958 0
M  V30 5286 H 509.198 5.32752 -2.98342 0
M  V30 5287 H 510.612 3.60178 -4.46032 0
M  V30 5288 H 509.009 3.14844 -5.10875 0
M  V30 5289 H 510.079 1.88966 -4.46565 0
M  V30 5290 N 511.423 1.38739 0.74761 0
M  V30 5291 C 512.386 1.36241 1.84312 0
M  V30 5292 C 513.386 0.261811 1.58654 0
M  V30 5293 O 514.576 0.519031 1.66288 0
M  V30 5294 C 511.708 1.12253 3.21888 0
M  V30 5295 H 512.901 2.33712 1.87933 0
M  V30 5296 H 510.454 1.2412 0.949946 0
M  V30 5297 H 511.189 0.154133 3.23934 0
M  V30 5298 H 510.974 1.91943 3.41907 0
M  V30 5299 H 512.464 1.13215 4.0196 0
M  V30 5300 N 512.901 -0.976442 1.23707 0
M  V30 5301 C 514.131 -1.75087 1.09673 0
M  V30 5302 C 514.539 -1.85852 -0.354344 0
M  V30 5303 O 513.882 -1.33985 -1.25673 0
M  V30 5304 C 513.944 -3.19272 1.65245 0
M  V30 5305 C 513.608 -3.32004 3.14042 0
M  V30 5306 C 514.605 -3.18017 4.11292 0
M  V30 5307 C 512.29 -3.56525 3.53829 0
M  V30 5308 C 514.284 -3.28363 5.46312 0
M  V30 5309 C 511.971 -3.6651 4.88993 0
M  V30 5310 C 512.969 -3.52439 5.85043 0
M  V30 5311 O 512.657 -3.62063 7.1775 0
M  V30 5312 H 512.389 -0.556164 0.384262 0
M  V30 5313 H 514.943 -1.23518 1.64111 0
M  V30 5314 H 513.173 -3.72107 1.05231 0
M  V30 5315 H 514.862 -3.7849 1.46629 0
M  V30 5316 H 515.628 -2.98966 3.81896 0
M  V30 5317 H 511.507 -3.66547 2.79579 0
M  V30 5318 H 515.051 -3.17297 6.21263 0
M  V30 5319 H 510.948 -3.85072 5.18063 0
M  V30 5320 H 511.716 -3.78833 7.25553 0
M  V30 5321 N 514.379 -1.04941 -1.1758 0
M  V30 5322 C 515.607 -0.778294 -1.91703 0
M  V30 5323 C 516.022 0.665697 -1.76675 0
M  V30 5324 O 515.379 1.45456 -1.10222 0
M  V30 5325 C 515.43 -1.14628 -3.42845 0
M  V30 5326 O 515.151 -2.53359 -3.57409 0
M  V30 5327 C 516.652 -0.900931 -4.34049 0
M  V30 5328 H 513.872 -0.283167 -0.608323 0
M  V30 5329 H 516.416 -1.39942 -1.49119 0
M  V30 5330 H 514.571 -0.569953 -3.83184 0
M  V30 5331 H 514.985 -2.67709 -4.51035 0
M  V30 5332 H 516.459 -1.20817 -5.38616 0
M  V30 5333 H 516.936 0.163966 -4.38894 0
M  V30 5334 H 517.542 -1.46097 -3.99419 0
M  V30 5335 N 515.857 1.33968 -0.830081 0
M  V30 5336 C 516.767 2.33164 -0.259207 0
M  V30 5337 C 517.783 1.62951 0.610164 0
M  V30 5338 O 518.959 1.94668 0.516369 0
M  V30 5339 C 516.024 3.42088 0.563598 0
M  V30 5340 C 515.085 4.28037 -0.329014 0
M  V30 5341 C 514.318 5.3176 0.454616 0
M  V30 5342 O 514.541 5.44876 1.6872 0
M  V30 5343 O 513.475 6.01669 -0.166794 0
M  V30 5344 H 517.301 2.83832 -1.08041 0
M  V30 5345 H 514.886 1.37154 -0.59239 0
M  V30 5346 H 516.768 4.08581 1.03147 0
M  V30 5347 H 515.443 2.93651 1.36201 0
M  V30 5348 H 514.35 3.64443 -0.844538 0
M  V30 5349 H 515.683 4.79934 -1.09196 0
M  V30 5350 N 517.335 0.585699 1.46312 0
M  V30 5351 C 518.612 0.00542031 1.95599 0
M  V30 5352 C 518.992 -1.45619 1.52834 0
M  V30 5353 O 518.34 -2.14759 0.780446 0
M  V30 5354 C 518.55 0.180601 3.48532 0
M  V30 5355 C 519.898 0.049979 4.24571 0
M  V30 5356 O 520.922 0.109589 3.56031 0
M  V30 5357 O 519.781 -0.0832226 5.46437 0
M  V30 5358 H 516.875 -0.0481281 0.825598 0
M  V30 5359 H 519.421 0.654227 1.56582 0
M  V30 5360 H 518.193 1.19657 3.72556 0
M  V30 5361 H 517.816 -0.504498 3.94386 0
M  V30 5362 N 518.813 -1.54241 0.323641 0
M  V30 5363 C 519.723 -2.28033 -0.551205 0
M  V30 5364 C 520.739 -1.32388 -1.12913 0
M  V30 5365 O 521.915 -1.65403 -1.14908 0
M  V30 5366 C 518.98 -3.02382 -1.69606 0
M  V30 5367 C 518.041 -4.13612 -1.14993 0
M  V30 5368 C 517.274 -4.84407 -2.24022 0
M  V30 5369 O 517.497 -4.54716 -3.44368 0
M  V30 5370 O 516.431 -5.71312 -1.89436 0
M  V30 5371 H 520.257 -3.03662 0.048066 0
M  V30 5372 H 517.842 -1.49133 0.0893289 0
M  V30 5373 H 519.724 -3.48941 -2.36259 0
M  V30 5374 H 518.399 -2.29628 -2.28151 0
M  V30 5375 H 517.306 -3.71402 -0.448484 0
M  V30 5376 H 518.639 -4.8841 -0.609608 0
M  V30 5377 N 520.291 -0.0518155 -1.57515 0
M  V30 5378 C 521.537 0.622745 -1.93002 0
M  V30 5379 C 521.87 1.70456 -0.930499 0
M  V30 5380 O 521.145 1.94452 0.0434086 0
M  V30 5381 C 521.428 1.21824 -3.38867 0
M  V30 5382 C 521.281 0.144434 -4.49568 0
M  V30 5383 C 522.6 2.12968 -3.8514 0
M  V30 5384 H 519.719 0.22491 -0.701844 0
M  V30 5385 H 522.361 -0.113711 -1.89659 0
M  V30 5386 H 520.511 1.8459 -3.41846 0
M  V30 5387 H 522.183 -0.48753 -4.58717 0
M  V30 5388 H 520.426 -0.527424 -4.30582 0
M  V30 5389 H 521.097 0.601127 -5.48717 0
M  V30 5390 H 523.573 1.60163 -3.8404 0
M  V30 5391 H 522.449 2.51578 -4.87852 0
M  V30 5392 H 522.71 3.03004 -3.21934 0
M  V30 5393 N 521.769 1.56035 0.221574 0
M  V30 5394 C 523.015 1.79312 0.947372 0
M  V30 5395 C 523.348 0.621453 1.83988 0
M  V30 5396 O 522.623 -0.379287 1.90766 0
M  V30 5397 C 522.906 3.1267 1.78633 0
M  V30 5398 C 522.759 4.40284 0.920312 0
M  V30 5399 C 524.078 3.4247 2.7641 0
M  V30 5400 H 521.197 0.652328 0.342982 0
M  V30 5401 H 523.839 1.88765 0.216244 0
M  V30 5402 H 521.989 3.04741 2.40967 0
M  V30 5403 H 523.661 4.60232 0.313718 0
M  V30 5404 H 521.904 4.33212 0.225734 0
M  V30 5405 H 522.575 5.30033 1.54171 0
M  V30 5406 H 525.051 3.50526 2.24211 0
M  V30 5407 H 523.927 4.3695 3.32213 0
M  V30 5408 H 524.188 2.64635 3.54148 0
M  V30 5409 N 523.247 -0.488276 1.49845 0
M  V30 5410 C 524.472 -1.26997 1.63971 0
M  V30 5411 C 524.897 -1.85427 0.315994 0
M  V30 5412 O 524.255 -1.66475 -0.718032 0
M  V30 5413 C 524.303 -2.36689 2.72049 0
M  V30 5414 O 523.407 -3.40882 2.32107 0
M  V30 5415 H 522.748 -0.374376 0.548396 0
M  V30 5416 H 525.278 -0.583104 1.96115 0
M  V30 5417 H 525.288 -2.82262 2.94605 0
M  V30 5418 H 523.963 -1.93529 3.68129 0
M  V30 5419 H 522.54 -3.01139 2.19931 0
M  V30 5420 N 524.725 -1.39134 -0.740242 0
M  V30 5421 C 525.953 -1.39334 -1.5295 0
M  V30 5422 C 526.368 0.0135008 -1.88795 0
M  V30 5423 O 525.725 0.983524 -1.5373 0
M  V30 5424 C 525.776 -2.2614 -2.82034 0
M  V30 5425 O 525.497 -3.61345 -2.47712 0
M  V30 5426 C 526.998 -2.34666 -3.76094 0
M  V30 5427 H 524.218 -0.476103 -0.472828 0
M  V30 5428 H 526.762 -1.82883 -0.9151 0
M  V30 5429 H 524.917 -1.86018 -3.39818 0
M  V30 5430 H 525.331 -4.07194 -3.30595 0
M  V30 5431 H 526.805 -2.99663 -4.63579 0
M  V30 5432 H 527.282 -1.36426 -4.17474 0
M  V30 5433 H 527.888 -2.75236 -3.2423 0
M  V30 5434 N 526.204 0.969867 -1.24223 0
M  V30 5435 C 527.481 1.68774 -0.988664 0
M  V30 5436 C 527.861 2.05342 0.489673 0
M  V30 5437 O 527.209 1.75486 1.46345 0
M  V30 5438 C 527.419 2.92135 -1.90941 0
M  V30 5439 C 528.767 3.64422 -2.17903 0
M  V30 5440 O 529.791 3.02188 -1.88576 0
M  V30 5441 O 528.65 4.76446 -2.67697 0
M  V30 5442 H 525.744 0.737736 -0.37373 0
M  V30 5443 H 528.29 1.02415 -1.35312 0
M  V30 5444 H 527.062 2.61788 -2.90831 0
M  V30 5445 H 526.685 3.66228 -1.54798 0
M  V30 5446 N 527.682 1.05563 1.17022 0
M  V30 5447 C 528.929 0.767937 1.87374 0
M  V30 5448 C 529.257 -0.705224 1.81265 0
M  V30 5449 O 528.512 -1.5318 1.21796 0
M  V30 5450 C 528.811 1.19849 3.36706 0
M  V30 5451 C 528.477 2.6745 3.63017 0
M  V30 5452 C 527.139 3.0777 3.69907 0
M  V30 5453 C 529.491 3.62811 3.74189 0
M  V30 5454 C 526.819 4.42307 3.85463 0
M  V30 5455 C 529.171 4.97087 3.91264 0
M  V30 5456 C 527.835 5.37055 3.96394 0
M  V30 5457 H 527.105 0.281008 0.68565 0
M  V30 5458 H 529.752 1.32339 1.38415 0
M  V30 5459 H 528.057 0.562096 3.87747 0
M  V30 5460 H 529.754 0.953038 3.8951 0
M  V30 5461 H 526.344 2.35228 3.58282 0
M  V30 5462 H 530.528 3.32798 3.68183 0
M  V30 5463 H 525.784 4.72769 3.87684 0
M  V30 5464 H 529.958 5.70869 3.9885 0
M  V30 5465 H 527.585 6.41308 4.082 0
M  V30 5466 N 529.16 -1.33526 0.837174 0
M  V30 5467 C 530.09 -2.31764 0.284206 0
M  V30 5468 C 531.071 -1.58896 -0.607142 0
M  V30 5469 O 532.256 -1.86798 -0.531047 0
M  V30 5470 C 529.386 -3.43029 -0.542962 0
M  V30 5471 C 528.34 -4.27255 0.252451 0
M  V30 5472 C 527.666 -5.3012 -0.69836 0
M  V30 5473 C 528.966 -5.01229 1.46858 0
M  V30 5474 H 530.66 -2.78262 1.10502 0
M  V30 5475 H 528.206 -1.3378 0.532812 0
M  V30 5476 H 530.159 -4.1078 -0.940096 0
M  V30 5477 H 528.883 -2.95216 -1.39697 0
M  V30 5478 H 527.542 -3.61127 0.631124 0
M  V30 5479 H 527.19 -4.78564 -1.54872 0
M  V30 5480 H 526.89 -5.87353 -0.170274 0
M  V30 5481 H 528.414 -6.00737 -1.09305 0
M  V30 5482 H 529.828 -5.61756 1.14469 0
M  V30 5483 H 528.225 -5.68104 1.93333 0
M  V30 5484 H 529.295 -4.301 2.23924 0
M  V30 5485 N 530.638 -0.59345 -1.46 0
M  V30 5486 C 531.886 -0.082988 -2.0193 0
M  V30 5487 C 532.207 1.28569 -1.46612 0
M  V30 5488 O 531.477 1.84629 -0.654909 0
M  V30 5489 H 530.057 -0.0276882 -0.746487 0
M  V30 5490 H 532.719 -0.771657 -1.78973 0
M  V30 5491 H 531.815 -0.022079 -3.12092 0
M  V30 5492 N 532.116 1.54067 -0.331816 0
M  V30 5493 C 533.393 1.92915 0.322955 0
M  V30 5494 C 533.773 1.26225 1.69205 0
M  V30 5495 O 533.121 0.408919 2.24811 0
M  V30 5496 C 533.331 3.46619 0.406946 0
M  V30 5497 C 534.679 4.19386 0.663339 0
M  V30 5498 O 535.703 3.5282 0.489536 0
M  V30 5499 O 534.562 5.37288 0.999193 0
M  V30 5500 H 531.656 0.805808 0.186016 0
M  V30 5501 H 534.202 1.65342 -0.382135 0
M  V30 5502 H 532.974 3.87354 -0.554287 0
M  V30 5503 H 532.597 3.80324 1.15929 0
M  V30 5504 N 533.594 0.0601682 1.57485 0
M  V30 5505 C 534.822 -0.620937 1.97363 0
M  V30 5506 C 535.237 -1.63846 0.938082 0
M  V30 5507 O 534.594 -1.82339 -0.0766578 0
M  V30 5508 C 534.645 -1.29987 3.37321 0
M  V30 5509 O 534.366 -0.323081 4.36907 0
M  V30 5510 C 535.867 -2.06989 3.92008 0
M  V30 5511 H 533.087 -0.169135 0.649334 0
M  V30 5512 H 535.631 0.129132 2.04092 0
M  V30 5513 H 533.786 -2.0011 3.31715 0
M  V30 5514 H 534.2 -0.808754 5.18227 0
M  V30 5515 H 535.674 -2.49901 4.92192 0
M  V30 5516 H 536.151 -2.92173 3.2792 0
M  V30 5517 H 536.757 -1.41757 4.0098 0
M  V30 5518 N 535.072 -1.5615 -0.213296 0
M  V30 5519 C 536.022 -1.89485 -1.26804 0
M  V30 5520 C 537.006 -0.758713 -1.41889 0
M  V30 5521 O 538.198 -1.02127 -1.44565 0
M  V30 5522 C 535.327 -2.22219 -2.61675 0
M  V30 5523 C 534.413 -3.42245 -2.50458 0
M  V30 5524 N 534.804 -4.60645 -2.089 0
M  V30 5525 C 533.102 -3.46023 -2.81397 0
M  V30 5526 C 533.803 -5.42805 -2.09135 0
M  V30 5527 N 532.779 -4.82732 -2.49941 0
M  V30 5528 H 536.581 -2.78537 -0.937771 0
M  V30 5529 H 534.095 -1.56826 -0.421824 0
M  V30 5530 H 536.092 -2.44278 -3.37837 0
M  V30 5531 H 534.752 -1.34484 -2.95541 0
M  V30 5532 H 535.763 -4.85651 -1.79899 0
M  V30 5533 H 532.44 -2.68654 -3.1958 0
M  V30 5534 H 533.83 -6.47601 -1.79059 0
M  V30 5535 N 536.55 0.480323 -1.50102 0
M  V30 5536 C 537.775 1.26126 -1.64642 0
M  V30 5537 C 538.2 1.85257 -0.325823 0
M  V30 5538 O 537.558 1.66854 0.709194 0
M  V30 5539 C 537.606 2.35243 -2.73301 0
M  V30 5540 O 536.71 3.39646 -2.33911 0
M  V30 5541 H 536.051 0.371463 -0.550374 0
M  V30 5542 H 538.581 0.572696 -1.96421 0
M  V30 5543 H 538.591 2.80695 -2.96098 0
M  V30 5544 H 537.266 1.91574 -3.6915 0
M  V30 5545 H 535.843 2.99969 -2.21525 0
M  V30 5546 N 538.028 1.39524 0.732853 0
M  V30 5547 C 539.253 1.40329 1.52717 0
M  V30 5548 C 539.678 0.000286574 1.881 0
M  V30 5549 O 539.036 -0.987262 1.52062 0
M  V30 5550 C 539.084 2.28464 2.78992 0
M  V30 5551 O 538.188 1.716 3.75003 0
M  V30 5552 H 537.529 0.47778 0.461109 0
M  V30 5553 H 540.059 1.83546 0.903996 0
M  V30 5554 H 540.069 2.43051 3.27705 0
M  V30 5555 H 538.744 3.30425 2.52572 0
M  V30 5556 H 537.321 1.66267 3.33781 0
M  V30 5557 N 539.506 -0.963266 1.24736 0
M  V30 5558 C 540.755 -1.70115 1.08369 0
M  V30 5559 C 541.068 -1.91939 -0.376688 0
M  V30 5560 O 542.274 -2.6334 -0.660624 0
M  V30 5561 C 540.73 -3.06218 1.89099 0
M  V30 5562 C 540.338 -2.92221 3.39574 0
M  V30 5563 C 542.082 -3.83848 1.81275 0
M  V30 5564 C 539.989 -4.23662 4.12631 0
M  V30 5565 H 538.919 -0.637944 0.401924 0
M  V30 5566 H 541.57 -1.07304 1.48856 0
M  V30 5567 H 539.952 -3.69884 1.41429 0
M  V30 5568 H 541.126 -2.37541 3.94856 0
M  V30 5569 H 539.441 -2.28054 3.48397 0
M  V30 5570 H 542.038 -4.81188 2.33158 0
M  V30 5571 H 542.381 -4.08949 0.778895 0
M  V30 5572 H 542.914 -3.26918 2.26649 0
M  V30 5573 H 539.653 -4.03753 5.16395 0
M  V30 5574 H 539.173 -4.78141 3.62135 0
M  V30 5575 H 540.852 -4.92256 4.19873 0
M  V30 5576 N 540.985 -1.06182 -1.16461 0
M  V30 5577 C 542.232 -0.777863 -1.86964 0
M  V30 5578 C 542.56 0.695602 -1.81636 0
M  V30 5579 O 541.815 1.52532 -1.22607 0
M  V30 5580 C 542.114 -1.21633 -3.36066 0
M  V30 5581 C 541.78 -2.69371 -3.61594 0
M  V30 5582 C 540.442 -3.09727 -3.6827 0
M  V30 5583 C 542.794 -3.64791 -3.7226 0
M  V30 5584 C 540.122 -4.44345 -3.83112 0
M  V30 5585 C 542.474 -4.99155 -3.88623 0
M  V30 5586 C 541.138 -5.39149 -3.93541 0
M  V30 5587 H 540.408 -0.28464 -0.68415 0
M  V30 5588 H 543.055 -1.33071 -1.37711 0
M  V30 5589 H 541.36 -0.582651 -3.87443 0
M  V30 5590 H 543.057 -0.973682 -3.88999 0
M  V30 5591 H 539.647 -2.37124 -3.57029 0
M  V30 5592 H 543.831 -3.34746 -3.66413 0
M  V30 5593 H 539.087 -4.74819 -3.85172 0
M  V30 5594 H 543.261 -5.72976 -3.95817 0
M  V30 5595 H 540.888 -6.43464 -4.04794 0
M  V30 5596 N 542.463 1.3308 -0.844243 0
M  V30 5597 C 543.74 1.92178 -0.364261 0
M  V30 5598 C 544.12 1.76961 1.15101 0
M  V30 5599 O 543.468 1.16128 1.9679 0
M  V30 5600 C 543.678 3.393 -0.817106 0
M  V30 5601 C 545.026 4.16444 -0.828236 0
M  V30 5602 O 546.05 3.47975 -0.761062 0
M  V30 5603 O 544.909 5.38685 -0.920926 0
M  V30 5604 H 542.003 0.820411 -0.10419 0
M  V30 5605 H 544.549 1.41918 -0.930453 0
M  V30 5606 H 543.321 3.44272 -1.85991 0
M  V30 5607 H 542.944 3.96947 -0.227785 0
M  V30 5608 N 543.941 0.601185 1.45683 0
M  V30 5609 C 544.904 -0.111398 2.28929 0
M  V30 5610 C 545.904 -0.801246 1.39416 0
M  V30 5611 O 547.094 -0.650383 1.61603 0
M  V30 5612 C 544.226 -1.16773 3.20276 0
M  V30 5613 H 545.419 0.620412 2.93413 0
M  V30 5614 H 542.972 0.359946 1.52099 0
M  V30 5615 H 543.707 -1.93051 2.60579 0
M  V30 5616 H 543.492 -0.677358 3.86205 0
M  V30 5617 H 544.982 -1.66698 3.82886 0
M  V30 5618 N 545.419 -1.53889 0.339982 0
M  V30 5619 C 546.366 -2.24902 -0.518452 0
M  V30 5620 C 547.336 -1.24593 -1.09844 0
M  V30 5621 O 548.521 -1.53317 -1.13572 0
M  V30 5622 C 545.661 -3.02262 -1.66529 0
M  V30 5623 C 544.774 -4.17418 -1.11295 0
M  V30 5624 C 543.909 -4.82273 -2.2268 0
M  V30 5625 C 542.948 -5.89503 -1.6478 0
M  V30 5626 N 542.085 -6.48153 -2.69893 0
M  V30 5627 H 546.925 -2.97853 0.0936579 0
M  V30 5628 H 544.462 -1.46986 0.0579924 0
M  V30 5629 H 546.42 -3.45371 -2.3404 0
M  V30 5630 H 545.05 -2.31614 -2.24844 0
M  V30 5631 H 544.102 -3.78976 -0.328886 0
M  V30 5632 H 545.414 -4.94554 -0.649414 0
M  V30 5633 H 544.568 -5.28435 -2.98063 0
M  V30 5634 H 543.307 -4.04552 -2.72376 0
M  V30 5635 H 542.312 -5.42728 -0.879004 0
M  V30 5636 H 543.537 -6.6913 -1.1594 0
M  V30 5637 H 541.483 -5.73298 -3.1885 0
M  V30 5638 H 541.4 -7.20752 -2.28151 0
M  V30 5639 H 542.668 -6.98968 -3.45056 0
M  V30 5640 N 546.897 -0.0685191 -1.57451 0
M  V30 5641 C 547.86 0.885173 -2.11417 0
M  V30 5642 C 548.86 1.22853 -1.03748 0
M  V30 5643 O 550.05 1.16235 -1.2975 0
M  V30 5644 C 547.182 2.18964 -2.61281 0
M  V30 5645 H 548.375 0.417034 -2.96986 0
M  V30 5646 H 545.928 0.18014 -1.55258 0
M  V30 5647 H 546.663 2.70321 -1.79156 0
M  V30 5648 H 546.448 1.9534 -3.39977 0
M  V30 5649 H 547.938 2.87242 -3.0312 0
M  V30 5650 N 548.375 1.56261 0.205012 0
M  V30 5651 C 549.623 1.79684 0.925096 0
M  V30 5652 C 549.944 0.63989 1.84202 0
M  V30 5653 O 549.214 -0.342345 1.92885 0
M  V30 5654 H 547.794 0.662774 0.344587 0
M  V30 5655 H 550.456 1.93734 0.212899 0
M  V30 5656 H 549.552 2.72467 1.52211 0
M  V30 5657 N 549.853 -0.472356 1.50355 0
M  V30 5658 C 551.102 -1.2213 1.60522 0
M  V30 5659 C 551.415 -1.9312 0.310466 0
M  V30 5660 O 552.621 -2.69936 0.291029 0
M  V30 5661 C 551.077 -2.21909 2.83345 0
M  V30 5662 C 550.685 -1.56727 4.19691 0
M  V30 5663 C 552.429 -2.97453 3.02856 0
M  V30 5664 C 550.336 -2.54785 5.33703 0
M  V30 5665 H 549.266 -0.459543 0.597776 0
M  V30 5666 H 551.917 -0.491922 1.76783 0
M  V30 5667 H 550.299 -2.98133 2.60639 0
M  V30 5668 H 551.473 -0.863007 4.52646 0
M  V30 5669 H 549.788 -0.934685 4.05774 0
M  V30 5670 H 552.385 -3.70838 3.85205 0
M  V30 5671 H 552.728 -3.56764 2.14534 0
M  V30 5672 H 553.261 -2.28342 3.25737 0
M  V30 5673 H 550 -2.00214 6.24175 0
M  V30 5674 H 549.52 -3.23367 5.05167 0
M  V30 5675 H 551.199 -3.16639 5.64224 0
M  V30 5676 N 551.331 -1.39911 -0.725443 0
M  V30 5677 C 552.294 -1.39156 -1.82121 0
M  V30 5678 C 553.294 -0.287018 -1.58218 0
M  V30 5679 O 554.484 -0.545421 -1.65441 0
M  V30 5680 C 551.616 -1.1736 -3.20062 0
M  V30 5681 H 552.809 -2.36672 -1.84191 0
M  V30 5682 H 550.362 -1.25615 -0.930079 0
M  V30 5683 H 551.097 -0.205648 -3.23647 0
M  V30 5684 H 550.882 -1.97358 -3.3881 0
M  V30 5685 H 552.372 -1.19596 -4.00108 0
M  V30 5686 N 552.809 0.956637 -1.25245 0
M  V30 5687 C 553.739 2.07058 -1.07931 0
M  V30 5688 C 554.72 1.70096 0.0110361 0
M  V30 5689 O 555.905 1.93555 -0.158121 0
M  V30 5690 C 553.035 3.40272 -0.695124 0
M  V30 5691 C 551.989 3.91235 -1.73549 0
M  V30 5692 C 551.315 5.20921 -1.20604 0
M  V30 5693 C 552.615 4.17837 -3.13385 0
M  V30 5694 H 554.309 2.218 -2.01109 0
M  V30 5695 H 551.855 1.06581 -0.968326 0
M  V30 5696 H 553.808 4.1765 -0.560949 0
M  V30 5697 H 552.532 3.25462 0.272355 0
M  V30 5698 H 551.191 3.16025 -1.85807 0
M  V30 5699 H 550.839 5.02479 -0.228846 0
M  V30 5700 H 550.539 5.55987 -1.90136 0
M  V30 5701 H 552.063 6.00897 -1.08421 0
M  V30 5702 H 553.477 4.8588 -3.04292 0
M  V30 5703 H 551.874 4.64154 -3.80369 0
M  V30 5704 H 552.944 3.2419 -3.60595 0
M  V30 5705 N 554.287 1.06798 1.15896 0
M  V30 5706 C 555.235 0.677525 2.22514 0
M  V30 5707 C 556.229 -0.308994 1.66558 0
M  V30 5708 O 557.435 -0.173308 1.79164 0
M  V30 5709 H 553.81 0.200994 0.724642 0
M  V30 5710 H 555.781 1.5865 2.52731 0
M  V30 5711 C 554.53 0.0854153 3.47595 0
M  V30 5712 H 553.853 0.835645 3.90969 0
M  V30 5713 H 555.293 -0.150199 4.23734 0
M  V30 5714 C 553.752 -1.1724 3.15843 0
M  V30 5715 O 554.282 -2.25965 3.32119 0
M  V30 5716 N 552.488 -1.07636 2.69931 0
M  V30 5717 H 552.035 -0.191559 2.56887 0
M  V30 5718 H 551.993 -1.91876 2.4906 0
M  V30 5719 N 555.766 -1.3263 0.851289 0
M  V30 5720 C 557.043 -1.91982 0.374448 0
M  V30 5721 C 557.423 -1.77568 -1.14161 0
M  V30 5722 O 556.771 -1.1717 -1.96172 0
M  V30 5723 C 556.981 -3.38862 0.835088 0
M  V30 5724 C 558.329 -4.15999 0.850309 0
M  V30 5725 O 559.353 -3.47566 0.779505 0
M  V30 5726 O 558.212 -5.38189 0.949481 0
M  V30 5727 H 555.306 -0.819846 0.10854 0
M  V30 5728 H 557.852 -1.41422 0.937966 0
M  V30 5729 H 556.624 -3.43281 1.87814 0
M  V30 5730 H 556.247 -3.96821 0.248833 0
M  V30 5731 N 557.244 -0.608902 -1.45362 0
M  V30 5732 C 558.192 0.121639 -2.32282 0
M  V30 5733 C 559.186 0.858301 -1.46046 0
M  V30 5734 O 560.392 0.773718 -1.62523 0
M  V30 5735 H 556.767 0.058086 -0.749753 0
M  V30 5736 H 558.738 -0.629866 -2.91677 0
M  V30 5737 C 557.487 1.1047 -3.29684 0
M  V30 5738 H 556.81 0.547278 -3.96036 0
M  V30 5739 H 558.25 1.58576 -3.9323 0
M  V30 5740 C 556.709 2.17891 -2.56954 0
M  V30 5741 O 557.239 3.25652 -2.35189 0
M  V30 5742 N 555.445 1.93211 -2.17066 0
M  V30 5743 H 554.992 1.05584 -2.34967 0
M  V30 5744 H 554.95 2.6529 -1.68727 0
M  V30 5745 N 558.722 1.53707 -0.348139 0
M  V30 5746 C 559.969 2.00988 0.246966 0
M  V30 5747 C 560.297 1.23586 1.50189 0
M  V30 5748 O 559.552 0.312817 1.93184 0
M  V30 5749 C 559.851 3.52292 0.602061 0
M  V30 5750 C 559.517 4.47453 -0.556509 0
M  V30 5751 C 558.179 4.73188 -0.874446 0
M  V30 5752 C 560.531 5.03851 -1.33354 0
M  V30 5753 C 557.859 5.52577 -1.9717 0
M  V30 5754 C 560.211 5.84437 -2.42108 0
M  V30 5755 C 558.875 6.08465 -2.74456 0
M  V30 5756 H 558.145 0.735469 0.0903712 0
M  V30 5757 H 560.792 1.85464 -0.477001 0
M  V30 5758 H 559.097 3.65672 1.40681 0
M  V30 5759 H 560.794 3.86337 1.07447 0
M  V30 5760 H 557.384 4.27558 -0.298652 0
M  V30 5761 H 561.568 4.8393 -1.10117 0
M  V30 5762 H 556.824 5.69418 -2.22651 0
M  V30 5763 H 560.998 6.27151 -3.02745 0
M  V30 5764 H 558.625 6.69768 -3.59604 0
M  V30 5765 N 560.2 0.0768682 1.57412 0
M  V30 5766 C 561.446 -0.591961 1.93968 0
M  V30 5767 C 561.779 -1.68954 0.9575 0
M  V30 5768 O 561.054 -1.94496 -0.0124675 0
M  V30 5769 C 561.337 -1.16418 3.40762 0
M  V30 5770 C 561.19 -0.0728933 4.49741 0
M  V30 5771 C 562.509 -2.06814 3.88479 0
M  V30 5772 H 559.628 -0.213716 0.705333 0
M  V30 5773 H 562.27 0.14387 1.89455 0
M  V30 5774 H 560.42 -1.79128 3.4474 0
M  V30 5775 H 562.092 0.560446 4.57883 0
M  V30 5776 H 560.335 0.595859 4.29688 0
M  V30 5777 H 561.006 -0.513755 5.49604 0
M  V30 5778 H 563.482 -1.54033 3.8654 0
M  V30 5779 H 562.358 -2.43785 4.91793 0
M  V30 5780 H 562.619 -2.97844 3.26713 0
M  V30 5781 N 561.678 -1.56367 -0.196722 0
M  V30 5782 C 562.625 -1.94417 -1.24382 0
M  V30 5783 C 563.595 -0.804543 -1.45315 0
M  V30 5784 O 564.78 -1.06256 -1.58475 0
M  V30 5785 C 561.92 -2.28757 -2.58388 0
M  V30 5786 C 561.033 -3.55775 -2.45047 0
M  V30 5787 C 560.168 -3.79445 -3.71746 0
M  V30 5788 C 559.207 -4.99894 -3.53231 0
M  V30 5789 N 558.344 -5.19826 -4.71938 0
M  V30 5790 H 563.184 -2.83691 -0.912338 0
M  V30 5791 H 560.721 -1.40392 -0.439135 0
M  V30 5792 H 562.679 -2.46682 -3.36457 0
M  V30 5793 H 561.309 -1.42625 -2.89582 0
M  V30 5794 H 560.361 -3.45905 -1.58284 0
M  V30 5795 H 561.673 -4.44 -2.27299 0
M  V30 5796 H 560.827 -3.97601 -4.58256 0
M  V30 5797 H 559.566 -2.89546 -3.92446 0
M  V30 5798 H 558.571 -4.81662 -2.65107 0
M  V30 5799 H 559.796 -5.913 -3.33978 0
M  V30 5800 H 557.742 -4.32875 -4.92905 0
M  V30 5801 H 557.659 -6.02228 -4.57009 0
M  V30 5802 H 558.927 -5.42439 -5.59803 0
M  V30 5803 N 563.156 0.464375 -1.50603 0
M  V30 5804 C 564.086 1.56944 -1.72889 0
M  V30 5805 C 565.067 1.59979 -0.577997 0
M  V30 5806 O 566.252 1.76138 -0.817855 0
M  V30 5807 C 563.382 2.95225 -1.8292 0
M  V30 5808 C 562.336 3.07056 -2.98162 0
M  V30 5809 C 561.662 4.47051 -2.93343 0
M  V30 5810 C 562.962 2.83648 -4.38567 0
M  V30 5811 H 564.656 1.38547 -2.65415 0
M  V30 5812 H 562.202 0.665082 -1.27721 0
M  V30 5813 H 564.155 3.72467 -1.97095 0
M  V30 5814 H 562.879 3.14793 -0.870209 0
M  V30 5815 H 561.538 2.32248 -2.83648 0
M  V30 5816 H 561.186 4.63547 -1.95276 0
M  V30 5817 H 560.886 4.55902 -3.70712 0
M  V30 5818 H 562.41 5.26304 -3.09575 0
M  V30 5819 H 563.824 3.50636 -4.53572 0
M  V30 5820 H 562.221 3.03937 -5.17438 0
M  V30 5821 H 563.291 1.79451 -4.50472 0
M  V30 5822 N 564.634 1.40294 0.718013 0
M  V30 5823 C 565.883 1.37746 1.4734 0
M  V30 5824 C 566.196 -0.0180754 1.95592 0
M  V30 5825 O 567.402 -0.166166 2.70991 0
M  V30 5826 C 565.858 2.4208 2.66318 0
M  V30 5827 C 565.466 3.87432 2.24945 0
M  V30 5828 C 567.21 2.48635 3.44065 0
M  V30 5829 C 565.117 4.83368 3.40748 0
M  V30 5830 H 564.047 0.512165 0.553356 0
M  V30 5831 H 566.698 1.66019 0.781661 0
M  V30 5832 H 565.08 2.06903 3.3765 0
M  V30 5833 H 566.254 4.3174 1.6105 0
M  V30 5834 H 564.569 3.8433 1.60249 0
M  V30 5835 H 567.166 3.17499 4.30231 0
M  V30 5836 H 567.509 1.51611 3.87711 0
M  V30 5837 H 568.042 2.82791 2.79775 0
M  V30 5838 H 564.781 5.81716 3.02136 0
M  V30 5839 H 564.301 4.43726 4.03568 0
M  V30 5840 H 565.98 5.03074 4.06848 0
M  V30 5841 N 566.112 -0.949982 1.2575 0
M  V30 5842 C 567.337 -1.73503 1.13628 0
M  V30 5843 C 567.762 -1.85601 -0.30559 0
M  V30 5844 O 567.12 -1.33984 -1.22139 0
M  V30 5845 C 567.168 -3.1243 1.80055 0
M  V30 5846 O 566.272 -3.97916 1.08336 0
M  V30 5847 H 565.613 -0.532665 0.396439 0
M  V30 5848 H 568.143 -1.19043 1.66403 0
M  V30 5849 H 568.153 -3.62866 1.86527 0
M  V30 5850 H 566.828 -3.02941 2.84956 0
M  V30 5851 H 565.405 -3.56375 1.09777 0
M  V30 5852 N 567.59 -1.07411 -1.15328 0
M  V30 5853 C 568.836 -0.808666 -1.86634 0
M  V30 5854 C 569.191 0.65816 -1.80793 0
M  V30 5855 O 568.484 1.47689 -1.22059 0
M  V30 5856 C 568.678 -1.25191 -3.34757 0
M  V30 5857 C 568.507 -2.76028 -3.55019 0
M  V30 5858 C 567.277 -3.43644 -3.70455 0
M  V30 5859 C 569.475 -3.74224 -3.5279 0
M  V30 5860 N 567.457 -4.83117 -3.78776 0
M  V30 5861 C 568.828 -4.9954 -3.67233 0
M  V30 5862 C 570.883 -3.67373 -3.36068 0
M  V30 5863 C 569.586 -6.18819 -3.66682 0
M  V30 5864 C 571.612 -4.86116 -3.36816 0
M  V30 5865 C 570.974 -6.10266 -3.51789 0
M  V30 5866 H 567.073 -0.348478 -0.700062 0
M  V30 5867 H 569.657 -1.37049 -1.38295 0
M  V30 5868 H 567.828 -0.717775 -3.8171 0
M  V30 5869 H 569.56 -0.933936 -3.93776 0
M  V30 5870 H 566.315 -2.94051 -3.71256 0
M  V30 5871 H 566.739 -5.55705 -3.86679 0
M  V30 5872 H 571.381 -2.72334 -3.2341 0
M  V30 5873 H 569.099 -7.14179 -3.78118 0
M  V30 5874 H 572.685 -4.82492 -3.25103 0
M  V30 5875 H 571.565 -7.00609 -3.52301 0
M  V30 5876 N 569.068 1.32177 -0.85831 0
M  V30 5877 C 570.298 2.01021 -0.476889 0
M  V30 5878 C 570.706 1.64653 0.931995 0
M  V30 5879 O 570.049 0.865713 1.62022 0
M  V30 5880 C 570.111 3.55413 -0.540528 0
M  V30 5881 C 569.775 4.1522 -1.90895 0
M  V30 5882 C 570.772 4.3318 -2.87491 0
M  V30 5883 C 568.457 4.51212 -2.20709 0
M  V30 5884 C 570.451 4.86306 -4.1205 0
M  V30 5885 C 568.138 5.04042 -3.45521 0
M  V30 5886 C 569.136 5.21538 -4.41007 0
M  V30 5887 O 568.824 5.73238 -5.63608 0
M  V30 5888 H 568.556 0.650059 -0.18547 0
M  V30 5889 H 571.11 1.69648 -1.15796 0
M  V30 5890 H 569.34 3.86196 0.19741 0
M  V30 5891 H 571.029 4.05526 -0.174191 0
M  V30 5892 H 571.795 4.05704 -2.65762 0
M  V30 5893 H 567.674 4.36878 -1.4717 0
M  V30 5894 H 571.218 4.99877 -4.86589 0
M  V30 5895 H 567.115 5.30952 -3.67098 0
M  V30 5896 H 567.883 5.91625 -5.65617 0
M  V30 5897 N 570.547 0.616602 1.45037 0
M  V30 5898 C 571.824 0.0469086 1.95544 0
M  V30 5899 C 572.204 -1.42345 1.55888 0
M  V30 5900 O 571.552 -2.13055 0.825824 0
M  V30 5901 C 571.762 0.254489 3.48071 0
M  V30 5902 C 573.11 0.140025 4.24369 0
M  V30 5903 O 574.134 0.185084 3.55719 0
M  V30 5904 O 572.993 0.0327034 5.4649 0
M  V30 5905 H 570.087 -0.0306051 0.826433 0
M  V30 5906 H 572.633 0.687293 1.55159 0
M  V30 5907 H 571.405 1.27532 3.69934 0
M  V30 5908 H 571.028 -0.42073 3.95368 0
M  V30 5909 N 572.025 -1.5352 0.356285 0
M  V30 5910 C 572.973 -2.26945 -0.50978 0
M  V30 5911 C 573.967 -1.29569 -1.09125 0
M  V30 5912 O 575.173 -1.47231 -1.03552 0
M  V30 5913 H 571.548 -0.729368 -0.183102 0
M  V30 5914 H 573.519 -2.98111 0.131374 0
M  V30 5915 C 572.268 -3.06466 -1.64237 0
M  V30 5916 H 571.591 -3.81233 -1.20423 0
M  V30 5917 H 573.031 -3.61035 -2.22327 0
M  V30 5918 C 571.49 -2.16737 -2.57928 0
M  V30 5919 O 572.02 -1.77195 -3.60507 0
M  V30 5920 N 570.226 -1.81558 -2.26903 0
M  V30 5921 H 569.773 -2.13913 -1.43524 0
M  V30 5922 H 569.731 -1.21806 -2.89846 0
M  V30 5923 N 573.503 -0.0852151 -1.57369 0
M  V30 5924 C 574.413 0.891712 -2.16992 0
M  V30 5925 C 575.429 1.3174 -1.13669 0
M  V30 5926 O 576.605 1.38735 -1.45995 0
M  V30 5927 C 573.67 2.13635 -2.73059 0
M  V30 5928 C 572.731 1.7658 -3.91303 0
M  V30 5929 C 571.964 2.95111 -4.44686 0
M  V30 5930 O 572.187 4.09539 -3.97032 0
M  V30 5931 O 571.121 2.74149 -5.35841 0
M  V30 5932 H 574.947 0.414477 -3.00858 0
M  V30 5933 H 572.532 0.138598 -1.48756 0
M  V30 5934 H 574.414 2.86595 -3.08935 0
M  V30 5935 H 573.089 2.6043 -1.92244 0
M  V30 5936 H 571.996 1.00831 -3.60255 0
M  V30 5937 H 573.329 1.34557 -4.7345 0
M  V30 5938 N 574.981 1.5647 0.188427 0
M  V30 5939 C 576.211 1.84863 0.922463 0
M  V30 5940 C 576.619 0.666413 1.77075 0
M  V30 5941 O 575.962 -0.374044 1.79852 0
M  V30 5942 C 576.024 3.07447 1.86324 0
M  V30 5943 C 575.688 4.41066 1.19625 0
M  V30 5944 C 576.685 5.16767 0.569946 0
M  V30 5945 C 574.37 4.87802 1.19811 0
M  V30 5946 C 576.364 6.37384 -0.045594 0
M  V30 5947 C 574.051 6.08353 0.57874 0
M  V30 5948 C 575.049 6.82987 -0.0420259 0
M  V30 5949 O 574.737 8.01254 -0.651675 0
M  V30 5950 H 574.469 0.61784 0.274316 0
M  V30 5951 H 577.023 2.04437 0.198613 0
M  V30 5952 H 575.253 2.83774 2.62696 0
M  V30 5953 H 576.942 3.2243 2.46564 0
M  V30 5954 H 577.708 4.81749 0.560601 0
M  V30 5955 H 573.587 4.29662 1.67069 0
M  V30 5956 H 577.131 6.95578 -0.530731 0
M  V30 5957 H 573.028 6.42838 0.58561 0
M  V30 5958 H 573.796 8.16655 -0.549236 0
M  V30 5959 N 576.459 -0.456382 1.50847 0
M  V30 5960 C 577.707 -1.20497 1.62249 0
M  V30 5961 C 578.028 -1.92156 0.331839 0
M  V30 5962 O 577.298 -1.84751 -0.651443 0
M  V30 5963 H 575.878 -0.447775 0.597918 0
M  V30 5964 H 578.54 -0.525099 1.87693 0
M  V30 5965 H 577.636 -1.94492 2.44089 0
M  V30 5966 N 577.937 -1.40673 -0.710563 0
M  V30 5967 C 579.167 -1.4234 -1.49742 0
M  V30 5968 C 579.575 -0.022821 -1.89186 0
M  V30 5969 O 578.918 0.964773 -1.56326 0
M  V30 5970 C 578.98 -2.25509 -2.79975 0
M  V30 5971 C 578.644 -3.73862 -2.62824 0
M  V30 5972 C 579.641 -4.66379 -2.29752 0
M  V30 5973 C 577.326 -4.17735 -2.78932 0
M  V30 5974 C 579.32 -6.00756 -2.13006 0
M  V30 5975 C 577.007 -5.5218 -2.61802 0
M  V30 5976 C 578.005 -6.43505 -2.28888 0
M  V30 5977 O 577.693 -7.75472 -2.11894 0
M  V30 5978 H 577.425 -0.487311 -0.468513 0
M  V30 5979 H 579.979 -1.8542 -0.883668 0
M  V30 5980 H 578.209 -1.77218 -3.43701 0
M  V30 5981 H 579.898 -2.19058 -3.41714 0
M  V30 5982 H 580.664 -4.33778 -2.16936 0
M  V30 5983 H 576.543 -3.46967 -3.03537 0
M  V30 5984 H 580.087 -6.72003 -1.87237 0
M  V30 5985 H 575.984 -5.84365 -2.74204 0
M  V30 5986 H 576.752 -7.86458 -2.26775 0
M  V30 5987 N 579.415 0.9433 -1.26252 0
M  V30 5988 C 580.64 1.72898 -1.14547 0
M  V30 5989 C 581.065 1.85761 0.295743 0
M  V30 5990 O 580.423 1.3463 1.21427 0
M  V30 5991 C 580.471 3.11471 -1.8171 0
M  V30 5992 O 579.575 3.97336 -1.10445 0
M  V30 5993 H 578.916 0.530555 -0.399259 0
M  V30 5994 H 581.446 1.18159 -1.67032 0
M  V30 5995 H 581.456 3.61872 -1.88449 0
M  V30 5996 H 580.131 3.01425 -2.86558 0
M  V30 5997 H 578.708 3.55788 -1.11666 0
M  V30 5998 N 580.893 1.08022 1.14757 0
M  V30 5999 C 581.843 0.676345 2.17737 0
M  V30 6000 C 582.827 -0.302018 1.5804 0
M  V30 6001 O 584.019 -0.11466 1.76628 0
M  V30 6002 C 581.148 0.082984 3.432 0
M  V30 6003 C 580.234 1.0869 4.09936 0
M  V30 6004 N 580.625 2.26891 4.52055 0
M  V30 6005 C 578.923 0.921768 4.36371 0
M  V30 6006 C 579.624 2.90636 5.0389 0
M  V30 6007 N 578.6 2.18266 4.97856 0
M  V30 6008 H 582.402 1.5765 2.4804 0
M  V30 6009 H 579.916 0.954374 1.31398 0
M  V30 6010 H 581.913 -0.224289 4.16296 0
M  V30 6011 H 580.573 -0.812206 3.14378 0
M  V30 6012 H 581.584 2.6457 4.45223 0
M  V30 6013 H 578.261 0.0800499 4.17423 0
M  V30 6014 H 579.651 3.9104 5.46386 0
M  V30 6015 N 582.371 -1.3172 0.865308 0
M  V30 6016 C 583.787 -1.4958 0.556596 0
M  V30 6017 C 583.987 -1.79763 -0.910353 0
M  V30 6018 O 583.043 -1.87351 -1.6928 0
M  V30 6019 C 584.356 -2.63277 1.45279 0
M  V30 6020 C 585.904 -2.77161 1.45433 0
M  V30 6021 C 586.379 -3.93949 2.33598 0
M  V30 6022 N 587.87 -4.01228 2.31453 0
M  V30 6023 C 588.605 -4.90855 2.96393 0
M  V30 6024 N 588.101 -5.85416 3.70486 0
M  V30 6025 N 589.894 -4.84063 2.85726 0
M  V30 6026 H 582.045 -1.10396 1.81456 0
M  V30 6027 H 584.308 -0.54507 0.775631 0
M  V30 6028 H 584.014 -2.47734 2.49641 0
M  V30 6029 H 583.888 -3.59309 1.14792 0
M  V30 6030 H 586.275 -2.9212 0.41831 0
M  V30 6031 H 586.356 -1.8181 1.79941 0
M  V30 6032 H 586 -3.79748 3.37274 0
M  V30 6033 H 585.93 -4.88598 1.96417 0
M  V30 6034 H 588.421 -3.3357 1.77593 0
M  V30 6035 H 588.734 -6.50525 4.17178 0
M  V30 6036 H 587.079 -5.85409 3.74594 0
M  V30 6037 H 590.27 -4.09163 2.27384 0
M  V30 6038 H 590.443 -5.53708 3.36617 0
M  V30 6039 N 583.85 -0.624285 -1.44708 0
M  V30 6040 C 585.096 -0.126237 -2.02407 0
M  V30 6041 C 585.428 1.24618 -1.48943 0
M  V30 6042 O 584.704 1.82569 -0.670742 0
M  V30 6043 C 584.986 -0.105449 -3.59946 0
M  V30 6044 C 584.84 -1.50972 -4.23707 0
M  V30 6045 C 586.159 0.573629 -4.36346 0
M  V30 6046 H 583.278 -0.0473472 -0.735478 0
M  V30 6047 H 585.92 -0.799452 -1.72362 0
M  V30 6048 H 584.07 0.46783 -3.85673 0
M  V30 6049 H 585.742 -2.13136 -4.0911 0
M  V30 6050 H 583.985 -2.0656 -3.81465 0
M  V30 6051 H 584.656 -1.44727 -5.32689 0
M  V30 6052 H 587.132 0.0861787 -4.16011 0
M  V30 6053 H 586.008 0.557338 -5.46063 0
M  V30 6054 H 586.269 1.64276 -4.10446 0
M  V30 6055 N 585.328 1.53329 -0.364422 0
M  V30 6056 C 586.574 2.01537 0.225969 0
M  V30 6057 C 586.907 1.25128 1.48515 0
M  V30 6058 O 586.182 0.344653 1.91422 0
M  V30 6059 C 586.465 3.56339 0.519092 0
M  V30 6060 C 586.318 4.43441 -0.753639 0
M  V30 6061 C 587.637 4.19833 1.32015 0
M  V30 6062 H 584.756 0.732573 0.0806548 0
M  V30 6063 H 587.398 1.83597 -0.489084 0
M  V30 6064 H 585.548 3.71756 1.12825 0
M  V30 6065 H 587.22 4.39823 -1.39116 0
M  V30 6066 H 585.463 4.11457 -1.37424 0
M  V30 6067 H 586.134 5.49699 -0.503517 0
M  V30 6068 H 588.61 4.08242 0.804859 0
M  V30 6069 H 587.486 5.28177 1.49399 0
M  V30 6070 H 587.747 3.75821 2.32832 0
M  V30 6071 N 586.806 0.0935595 1.57322 0
M  V30 6072 C 588.083 -0.612692 1.85756 0
M  V30 6073 C 588.463 -1.86439 0.99013 0
M  V30 6074 O 587.811 -2.28416 0.0621362 0
M  V30 6075 C 588.021 -0.929547 3.36393 0
M  V30 6076 C 589.369 -1.29366 4.04413 0
M  V30 6077 O 590.393 -1.02061 3.41265 0
M  V30 6078 O 589.252 -1.80498 5.15832 0
M  V30 6079 H 586.346 -0.306444 0.768128 0
M  V30 6080 H 588.892 0.126141 1.69231 0
M  V30 6081 H 587.664 -0.0414766 3.91278 0
M  V30 6082 H 587.287 -1.72441 3.5826 0
M  V30 6083 N 588.284 -1.56567 -0.180126 0
M  V30 6084 C 589.214 -1.98753 -1.22553 0
M  V30 6085 C 590.195 -0.86175 -1.46656 0
M  V30 6086 O 591.38 -1.12719 -1.58139 0
M  V30 6087 C 588.51 -2.33988 -2.56645 0
M  V30 6088 C 587.464 -3.49445 -2.47128 0
M  V30 6089 C 586.79 -3.70397 -3.8563 0
M  V30 6090 C 588.09 -4.83171 -1.98352 0
M  V30 6091 H 589.784 -2.86332 -0.874896 0
M  V30 6092 H 587.33 -1.37757 -0.419414 0
M  V30 6093 H 589.283 -2.62097 -3.29974 0
M  V30 6094 H 588.007 -1.43309 -2.93479 0
M  V30 6095 H 586.666 -3.2145 -1.76254 0
M  V30 6096 H 586.314 -2.77023 -4.19842 0
M  V30 6097 H 586.014 -4.48077 -3.80132 0
M  V30 6098 H 587.538 -4.00897 -4.60558 0
M  V30 6099 H 588.952 -5.10213 -2.61449 0
M  V30 6100 H 587.349 -5.64425 -2.03823 0
M  V30 6101 H 588.419 -4.75753 -0.937402 0
M  V30 6102 N 589.762 0.448376 -1.51087 0
M  V30 6103 C 590.692 1.55102 -1.74544 0
M  V30 6104 C 591.673 1.59357 -0.594932 0
M  V30 6105 O 592.858 1.75261 -0.836491 0
M  V30 6106 C 589.988 2.93268 -1.86041 0
M  V30 6107 C 588.942 3.03877 -3.01402 0
M  V30 6108 C 588.268 4.43914 -2.98068 0
M  V30 6109 C 589.568 2.7898 -4.41551 0
M  V30 6110 H 591.262 1.35724 -2.66869 0
M  V30 6111 H 588.808 0.651498 -1.28419 0
M  V30 6112 H 590.761 3.70356 -2.01034 0
M  V30 6113 H 589.485 3.13853 -0.903548 0
M  V30 6114 H 588.144 2.29227 -2.86096 0
M  V30 6115 H 587.792 4.6145 -2.00182 0
M  V30 6116 H 587.492 4.51944 -3.75527 0
M  V30 6117 H 589.016 5.22991 -3.1514 0
M  V30 6118 H 590.43 3.45805 -4.57265 0
M  V30 6119 H 588.827 2.98431 -5.20633 0
M  V30 6120 H 589.897 1.74663 -4.5235 0
M  V30 6121 N 591.24 1.41047 0.703093 0
M  V30 6122 C 592.656 1.23351 1.01275 0
M  V30 6123 C 592.856 0.11754 2.01157 0
M  V30 6124 O 591.912 -0.520518 2.47077 0
M  V30 6125 C 593.225 2.58001 1.54454 0
M  V30 6126 C 594.773 2.65119 1.66376 0
M  V30 6127 C 595.248 4.00067 2.22958 0
M  V30 6128 N 596.739 4.01875 2.30328 0
M  V30 6129 C 597.474 5.03087 2.75119 0
M  V30 6130 N 596.97 6.14692 3.19571 0
M  V30 6131 N 598.763 4.90451 2.74616 0
M  V30 6132 H 590.914 2.1236 0.0412686 0
M  V30 6133 H 593.177 0.944543 0.08089 0
M  V30 6134 H 592.883 3.40378 0.88521 0
M  V30 6135 H 592.757 2.79962 2.52786 0
M  V30 6136 H 595.144 1.83106 2.31422 0
M  V30 6137 H 595.225 2.46975 0.666089 0
M  V30 6138 H 594.869 4.82526 1.58529 0
M  V30 6139 H 594.799 4.15547 3.23462 0
M  V30 6140 H 597.29 3.21291 1.98949 0
M  V30 6141 H 597.603 6.87799 3.52352 0
M  V30 6142 H 595.948 6.18239 3.17498 0
M  V30 6143 H 599.139 4.0235 2.39233 0
M  V30 6144 H 599.312 5.6947 3.09206 0
M  V30 6145 N 592.718 -0.936591 1.26751 0
M  V30 6146 C 593.948 -1.71509 1.15188 0
M  V30 6147 C 594.356 -1.86885 -0.295037 0
M  V30 6148 O 593.699 -1.37915 -1.21347 0
M  V30 6149 C 593.761 -3.13853 1.75318 0
M  V30 6150 C 593.425 -3.21845 3.24445 0
M  V30 6151 C 594.422 -3.04771 4.21201 0
M  V30 6152 C 592.107 -3.45088 3.64992 0
M  V30 6153 C 594.101 -3.10816 5.56482 0
M  V30 6154 C 591.788 -3.50767 5.00405 0
M  V30 6155 C 592.786 -3.33648 5.9596 0
M  V30 6156 O 592.474 -3.39045 7.28906 0
M  V30 6157 H 592.206 -0.543658 0.401761 0
M  V30 6158 H 594.76 -1.18234 1.67958 0
M  V30 6159 H 592.99 -3.6857 1.17016 0
M  V30 6160 H 594.679 -3.73634 1.58596 0
M  V30 6161 H 595.445 -2.86665 3.91214 0
M  V30 6162 H 591.324 -3.57467 2.91098 0
M  V30 6163 H 594.868 -2.97372 6.31043 0
M  V30 6164 H 590.765 -3.68396 5.30052 0
M  V30 6165 H 591.533 -3.55558 7.37238 0
M  V30 6166 N 594.196 -1.08629 -1.14182 0
M  V30 6167 C 595.129 -0.662329 -2.18377 0
M  V30 6168 C 596.107 0.327054 -1.59277 0
M  V30 6169 O 597.291 0.230376 -1.87087 0
M  V30 6170 C 594.418 0.0254765 -3.3869 0
M  V30 6171 C 593.464 -0.924414 -4.16361 0
M  V30 6172 S 594.297 -2.43226 -4.77076 0
M  V30 6173 C 595.453 -1.75663 -6.00744 0
M  V30 6174 H 595.686 -1.54501 -2.54001 0
M  V30 6175 H 593.219 -0.901484 -1.2535 0
M  V30 6176 H 595.177 0.416032 -4.08386 0
M  V30 6177 H 593.838 0.884689 -3.01384 0
M  V30 6178 H 593.031 -0.390099 -5.02488 0
M  V30 6179 H 592.633 -1.25598 -3.5228 0
M  V30 6180 H 594.925 -1.07589 -6.68903 0
M  V30 6181 H 595.868 -2.59673 -6.58768 0
M  V30 6182 H 596.276 -1.22903 -5.50958 0
M  V30 6183 N 595.674 1.31259 -0.872281 0
M  V30 6184 C 596.921 1.96622 -0.484365 0
M  V30 6185 C 597.249 1.68939 0.963841 0
M  V30 6186 O 596.504 0.97974 1.6941 0
M  V30 6187 C 596.803 3.50659 -0.690889 0
M  V30 6188 C 596.469 3.98366 -2.11224 0
M  V30 6189 C 595.131 4.11104 -2.50094 0
M  V30 6190 C 597.483 4.23425 -3.0391 0
M  V30 6191 C 594.811 4.46254 -3.80887 0
M  V30 6192 C 597.163 4.60039 -4.3422 0
M  V30 6193 C 595.827 4.70984 -4.73001 0
M  V30 6194 H 595.097 0.71949 -0.177242 0
M  V30 6195 H 597.744 1.56353 -1.10571 0
M  V30 6196 H 596.049 3.91798 0.0135782 0
M  V30 6197 H 597.746 3.99284 -0.370534 0
M  V30 6198 H 594.336 3.88949 -1.80047 0
M  V30 6199 H 598.52 4.13075 -2.75104 0
M  V30 6200 H 593.776 4.52926 -4.10692 0
M  V30 6201 H 597.95 4.78381 -5.06088 0
M  V30 6202 H 595.577 4.97977 -5.7439 0
M  V30 6203 N 597.152 0.631951 1.44375 0
M  V30 6204 C 598.377 0.142146 2.06912 0
M  V30 6205 C 598.802 -1.17456 1.4692 0
M  V30 6206 O 598.16 -1.72074 0.570975 0
M  V30 6207 C 598.208 0.0417952 3.60576 0
M  V30 6208 O 597.312 -1.00194 4.00044 0
M  V30 6209 H 596.653 0.0851491 0.658518 0
M  V30 6210 H 599.183 0.868863 1.85235 0
M  V30 6211 H 599.193 -0.148517 4.0773 0
M  V30 6212 H 597.868 1.0031 4.03622 0
M  V30 6213 H 596.445 -0.786131 3.64519 0
M  V30 6214 N 598.631 -1.53133 0.372548 0
M  V30 6215 C 600.047 -1.59585 0.02178 0
M  V30 6216 C 600.247 -1.38736 -1.46132 0
M  V30 6217 O 599.303 -1.19599 -2.22379 0
M  V30 6218 C 600.616 -2.9678 0.483959 0
M  V30 6219 C 602.164 -3.09909 0.438775 0
M  V30 6220 C 602.639 -4.49527 0.876876 0
M  V30 6221 N 604.13 -4.55663 0.832214 0
M  V30 6222 C 604.865 -5.61896 1.14281 0
M  V30 6223 N 604.361 -6.75852 1.52303 0
M  V30 6224 N 606.154 -5.51916 1.06515 0
M  V30 6225 H 598.305 -1.64936 1.33827 0
M  V30 6226 H 600.568 -0.773947 0.547458 0
M  V30 6227 H 600.274 -3.17198 1.51915 0
M  V30 6228 H 600.148 -3.7699 -0.125784 0
M  V30 6229 H 602.535 -2.89197 -0.587294 0
M  V30 6230 H 602.616 -2.31691 1.0841 0
M  V30 6231 H 602.26 -4.70979 1.90109 0
M  V30 6232 H 602.19 -5.26186 0.208727 0
M  V30 6233 H 604.681 -3.73844 0.552195 0
M  V30 6234 H 604.994 -7.52862 1.7441 0
M  V30 6235 H 603.339 -6.77226 1.56175 0
M  V30 6236 H 606.53 -4.6177 0.767235 0
M  V30 6237 H 606.703 -6.34609 1.31053 0
M  V30 6238 N 600.109 -0.101901 -1.5727 0
M  V30 6239 C 601.386 0.602832 -1.86079 0
M  V30 6240 C 601.766 1.85912 -1 0
M  V30 6241 O 601.114 2.28379 -0.0742488 0
M  V30 6242 C 601.324 0.911694 -3.36881 0
M  V30 6243 C 602.672 1.2722 -4.05093 0
M  V30 6244 O 603.696 1.0025 -3.41802 0
M  V30 6245 O 602.555 1.7776 -5.16782 0
M  V30 6246 H 599.649 0.302366 -0.769743 0
M  V30 6247 H 602.195 -0.135113 -1.69161 0
M  V30 6248 H 600.967 0.0207256 -3.91295 0
M  V30 6249 H 600.59 1.70538 -3.59169 0
M  V30 6250 N 601.587 1.56661 0.17182 0
M  V30 6251 C 602.534 1.96371 1.21273 0
M  V30 6252 C 603.504 0.82756 1.44016 0
M  V30 6253 O 604.689 1.08764 1.56764 0
M  V30 6254 C 601.829 2.32838 2.54716 0
M  V30 6255 C 600.942 3.59628 2.39356 0
M  V30 6256 C 600.077 3.85311 3.65662 0
M  V30 6257 C 599.116 5.0545 3.45234 0
M  V30 6258 N 598.253 5.27268 4.63608 0
M  V30 6259 H 603.093 2.85106 0.86709 0
M  V30 6260 H 600.63 1.41073 0.416744 0
M  V30 6261 H 602.588 2.52004 3.3249 0
M  V30 6262 H 601.218 1.47214 2.87277 0
M  V30 6263 H 600.27 3.4838 1.52761 0
M  V30 6264 H 601.582 4.4756 2.20207 0
M  V30 6265 H 600.736 4.04841 4.51872 0
M  V30 6266 H 599.475 2.95753 3.8779 0
M  V30 6267 H 598.48 4.85819 2.5741 0
M  V30 6268 H 599.705 5.96538 3.24529 0
M  V30 6269 H 597.651 4.40662 4.85956 0
M  V30 6270 H 597.568 6.09422 4.4737 0
M  V30 6271 H 598.836 5.51277 5.51103 0
M  V30 6272 O 603.104 -0.316804 1.58362 0
M  V30 6273 H 603.795 -0.964883 1.67957 0
M  V30 END ATOM
M  V30 BEGIN BOND
M  V30 END BOND
M  V30 END CTAB
M  END
$$$$
