drugbank_target|C3T8E2 Multidrug resistance protein MdtK (DB00537)
 OpenBabel12092121043D

  0  0  0     0  0            999 V3000
M  V30 BEGIN CTAB
M  V30 COUNTS 7123 7196 0 0 0
M  V30 BEGIN ATOM
M  V30 1 H -0.908 1.98254 -0.117106 0
M  V30 2 N 0 1.576 0 0
M  V30 3 C 0.933 2.03868 1.02534 0
M  V30 4 C 1.911 0.928543 1.3348 0
M  V30 5 O 3.095 1.19667 1.45644 0
M  V30 6 C 0.222 2.43627 2.35294 0
M  V30 7 C -0.732 3.65373 2.2001 0
M  V30 8 S 0.101 5.13292 1.52614 0
M  V30 9 C 1.257 5.56322 2.86805 0
M  V30 10 H 1.49 2.90518 0.631377 0
M  V30 11 H -0.977 1.52953 0.210867 0
M  V30 12 H 0.981 2.67203 3.11629 0
M  V30 13 H -0.358 1.57376 2.7183 0
M  V30 14 H -1.165 3.90944 3.18086 0
M  V30 15 H -1.563 3.418 1.51819 0
M  V30 16 H 0.729 5.58782 3.83104 0
M  V30 17 H 1.672 6.56266 2.65933 0
M  V30 18 H 2.08 4.83886 2.90714 0
M  V30 19 N 1.4781 -0.272755 1.55222 0
M  V30 20 C 2.4101 -1.35946 1.8453 0
M  V30 21 C 3.4231 -1.45525 0.729818 0
M  V30 22 O 4.6121 -1.47337 1.00767 0
M  V30 23 C 1.7121 -2.74069 1.99347 0
M  V30 24 C 0.8851 -2.87079 3.30007 0
M  V30 25 C -0.0559 -4.05879 3.34886 0
M  V30 26 O -1.0299 -3.96626 4.08261 0
M  V30 27 N 0.1721 -5.17857 2.62307 0
M  V30 28 H 2.9371 -1.11149 2.78327 0
M  V30 29 H 0.4981 -0.462869 1.55142 0
M  V30 30 H 2.4901 -3.51838 1.99981 0
M  V30 31 H 1.0601 -2.91688 1.12415 0
M  V30 32 H 0.2801 -1.96193 3.41909 0
M  V30 33 H 1.5681 -2.92701 4.16177 0
M  V30 34 H 0.9661 -5.28261 2.02377 0
M  V30 35 H -0.4769 -5.93855 2.68663 0
M  V30 36 N 2.9562 -1.48159 -0.537278 0
M  V30 37 C 3.9032 -1.62138 -1.64256 0
M  V30 38 C 4.8732 -0.463668 -1.59497 0
M  V30 39 O 6.0582 -0.686241 -1.78032 0
M  V30 40 C 3.1982 -1.66028 -3.02537 0
M  V30 41 C 2.3112 -2.92855 -3.17585 0
M  V30 42 C 1.4462 -2.87952 -4.46382 0
M  V30 43 C 0.4852 -4.09516 -4.54932 0
M  V30 44 N -0.3778 -4.02733 -5.75109 0
M  V30 45 H 4.4622 -2.56529 -1.51647 0
M  V30 46 H 1.9992 -1.27224 -0.738414 0
M  V30 47 H 3.9572 -1.66265 -3.82638 0
M  V30 48 H 2.5872 -0.751331 -3.13934 0
M  V30 49 H 1.6392 -3.02395 -2.30784 0
M  V30 50 H 2.9512 -3.82822 -3.19764 0
M  V30 51 H 2.1052 -2.8655 -5.34765 0
M  V30 52 H 0.8442 -1.95702 -4.46712 0
M  V30 53 H -0.1508 -4.11201 -3.64957 0
M  V30 54 H 1.0742 -5.02917 -4.56346 0
M  V30 55 H -0.9798 -3.13299 -5.76351 0
M  V30 56 H -1.0628 -4.86397 -5.78752 0
M  V30 57 H 0.2052 -4.05379 -6.65799 0
M  V30 58 N 4.4343 0.785586 -1.36625 0
M  V30 59 C 5.6643 1.5722 -1.34036 0
M  V30 60 C 6.0723 1.89033 0.0795062 0
M  V30 61 O 5.4153 1.50881 1.04789 0
M  V30 62 C 5.4773 2.91759 -2.10041 0
M  V30 63 C 5.1413 2.82654 -3.59104 0
M  V30 64 C 6.1383 2.54634 -4.53274 0
M  V30 65 C 3.8233 3.01111 -4.02042 0
M  V30 66 C 5.8173 2.45177 -5.88359 0
M  V30 67 C 3.5043 2.91276 -5.37216 0
M  V30 68 C 4.5023 2.63348 -6.30188 0
M  V30 69 O 4.1903 2.53514 -7.6288 0
M  V30 70 H 3.9223 0.494177 -0.461265 0
M  V30 71 H 6.4763 0.982632 -1.8037 0
M  V30 72 H 4.7063 3.52781 -1.58375 0
M  V30 73 H 6.3953 3.53059 -2.00261 0
M  V30 74 H 7.1613 2.40073 -4.21414 0
M  V30 75 H 3.0403 3.21854 -3.30047 0
M  V30 76 H 6.5843 2.23299 -6.60896 0
M  V30 77 H 2.4813 3.054 -5.68684 0
M  V30 78 H 3.2493 2.68967 -7.73045 0
M  V30 79 N 5.9124 1.20967 1.01018 0
M  V30 80 C 7.1614 1.01796 1.74128 0
M  V30 81 C 7.4744 -0.449691 1.90361 0
M  V30 82 O 8.6804 -0.76068 2.60626 0
M  V30 83 C 7.1364 1.7727 3.13215 0
M  V30 84 C 6.7444 3.28171 3.04972 0
M  V30 85 C 8.4884 1.66489 3.90489 0
M  V30 86 C 6.3954 3.96156 4.39107 0
M  V30 87 H 5.3254 0.377276 0.652824 0
M  V30 88 H 7.9764 1.44651 1.12909 0
M  V30 89 H 6.3584 1.27205 3.75013 0
M  V30 90 H 7.5324 3.85499 2.52443 0
M  V30 91 H 5.8474 3.39437 2.41188 0
M  V30 92 H 8.4444 2.14617 4.89738 0
M  V30 93 H 8.7874 0.6222 4.11624 0
M  V30 94 H 9.3204 2.14003 3.35332 0
M  V30 95 H 6.0594 5.00604 4.23174 0
M  V30 96 H 5.5794 3.43617 4.91617 0
M  V30 97 H 7.2584 4.00774 5.07926 0
M  V30 98 N 7.3905 -1.2043 1.01659 0
M  V30 99 C 8.6155 -1.94318 0.724942 0
M  V30 100 C 9.0405 -1.74266 -0.708034 0
M  V30 101 O 8.3985 -1.03694 -1.48719 0
M  V30 102 C 8.4465 -3.44486 1.06591 0
M  V30 103 O 7.5505 -4.12017 0.177599 0
M  V30 104 H 6.8915 -0.60708 0.26898 0
M  V30 105 H 9.4215 -1.52861 1.35995 0
M  V30 106 H 9.4315 -3.95106 1.01762 0
M  V30 107 H 8.1065 -3.58404 2.10997 0
M  V30 108 H 6.6835 -3.71821 0.283421 0
M  V30 109 N 8.8686 -0.792821 -1.36206 0
M  V30 110 C 9.7786 -0.194808 -2.3379 0
M  V30 111 C 10.7946 0.654869 -1.61206 0
M  V30 112 O 11.9706 0.569856 -1.9317 0
M  V30 113 C 9.0356 0.657721 -3.40404 0
M  V30 114 C 8.0966 -0.210849 -4.28782 0
M  V30 115 C 7.3296 0.601086 -5.30304 0
M  V30 116 O 7.5526 1.83682 -5.40016 0
M  V30 117 O 6.4866 -0.000808277 -6.019 0
M  V30 118 H 10.3126 -1.00172 -2.86704 0
M  V30 119 H 7.8976 -0.554341 -1.38735 0
M  V30 120 H 9.7796 1.14375 -4.05581 0
M  V30 121 H 8.4546 1.44247 -2.89784 0
M  V30 122 H 7.3616 -0.743714 -3.66633 0
M  V30 123 H 8.6946 -0.959195 -4.82763 0
M  V30 124 N 10.3467 1.47872 -0.545128 0
M  V30 125 C 11.3097 2.28337 0.198717 0
M  V30 126 C 12.3097 1.36255 0.853888 0
M  V30 127 O 13.4997 1.59003 0.711606 0
M  V30 128 C 10.6317 3.15585 1.28915 0
M  V30 129 H 11.8247 2.95567 -0.507941 0
M  V30 130 H 9.3777 1.53362 -0.301616 0
M  V30 131 H 10.1127 2.53019 2.02859 0
M  V30 132 H 9.8977 3.83337 0.824309 0
M  V30 133 H 11.3877 3.76243 1.81194 0
M  V30 134 N 11.8248 0.280983 1.55075 0
M  V30 135 C 13.2408 -0.0729964 1.59433 0
M  V30 136 C 13.4408 -1.5411 1.29817 0
M  V30 137 O 12.4968 -2.29086 1.06187 0
M  V30 138 C 13.8098 0.306921 2.9913 0
M  V30 139 C 15.3578 0.254023 3.11968 0
M  V30 140 C 15.8328 0.608467 4.5394 0
M  V30 141 N 17.3238 0.560241 4.59799 0
M  V30 142 C 18.0588 0.80722 5.6769 0
M  V30 143 N 17.5548 1.11912 6.83701 0
M  V30 144 N 19.3478 0.735623 5.57266 0
M  V30 145 H 11.4988 1.238 1.7259 0
M  V30 146 H 13.7618 0.500547 0.805082 0
M  V30 147 H 13.4678 1.32816 3.25657 0
M  V30 148 H 13.3418 -0.349363 3.75579 0
M  V30 149 H 15.7288 -0.75794 2.852 0
M  V30 150 H 15.8098 0.944649 2.37718 0
M  V30 151 H 15.4538 1.61814 4.81434 0
M  V30 152 H 15.3838 -0.104013 5.26497 0
M  V30 153 H 17.8748 0.329288 3.76463 0
M  V30 154 H 18.1878 1.29409 7.61888 0
M  V30 155 H 16.5328 1.15695 6.85303 0
M  V30 156 H 19.7238 0.491752 4.6551 0
M  V30 157 H 19.8968 0.931482 6.4127 0
M  V30 158 N 13.3029 -1.57598 0.00835791 0
M  V30 159 C 14.2329 -2.1198 -0.979113 0
M  V30 160 C 15.2139 -1.03091 -1.35301 0
M  V30 161 O 16.3989 -1.30818 -1.43528 0
M  V30 162 C 13.5289 -2.62995 -2.26828 0
M  V30 163 C 12.4829 -3.76485 -2.03576 0
M  V30 164 C 11.8089 -4.13846 -3.38579 0
M  V30 165 C 13.1089 -5.0342 -1.39161 0
M  V30 166 H 14.8029 -2.94738 -0.526281 0
M  V30 167 H 12.3489 -1.41783 -0.251704 0
M  V30 168 H 14.3019 -2.99669 -2.96271 0
M  V30 169 H 13.0259 -1.7737 -2.7424 0
M  V30 170 H 11.6849 -3.40217 -1.36557 0
M  V30 171 H 11.3329 -3.25232 -3.83709 0
M  V30 172 H 11.0329 -4.90312 -3.23834 0
M  V30 173 H 12.5569 -4.53086 -4.09323 0
M  V30 174 H 13.9709 -5.37812 -1.98573 0
M  V30 175 H 12.3679 -5.84746 -1.34878 0
M  V30 176 H 13.4379 -4.83548 -0.361868 0
M  V30 177 N 14.781 0.264519 -1.55364 0
M  V30 178 C 15.711 1.33121 -1.91836 0
M  V30 179 C 16.692 1.51101 -0.781192 0
M  V30 180 O 17.877 1.64003 -1.04003 0
M  V30 181 C 15.007 2.68921 -2.19769 0
M  V30 182 C 13.961 2.65661 -3.35571 0
M  V30 183 C 13.287 4.05093 -3.49004 0
M  V30 184 C 14.587 2.24187 -4.71739 0
M  V30 185 H 16.281 1.02844 -2.81182 0
M  V30 186 H 13.827 0.493286 -1.35287 0
M  V30 187 H 15.78 3.43663 -2.43872 0
M  V30 188 H 14.504 3.00799 -1.27231 0
M  V30 189 H 13.163 1.93377 -3.1145 0
M  V30 190 H 12.811 4.34206 -2.53917 0
M  V30 191 H 12.511 4.03804 -4.26868 0
M  V30 192 H 14.035 4.81561 -3.75408 0
M  V30 193 H 15.449 2.88654 -4.9533 0
M  V30 194 H 13.846 2.34044 -5.52579 0
M  V30 195 H 14.916 1.19327 -4.69988 0
M  V30 196 N 16.2591 1.48442 0.529413 0
M  V30 197 C 17.1891 1.65902 1.64313 0
M  V30 198 C 18.1701 0.507897 1.6234 0
M  V30 199 O 19.3551 0.740503 1.79528 0
M  V30 200 C 16.4851 1.69911 3.02898 0
M  V30 201 C 15.4391 2.8453 3.19729 0
M  V30 202 C 14.7651 2.73629 4.59381 0
M  V30 203 C 16.0651 4.25821 3.02447 0
M  V30 204 H 17.7591 2.5914 1.49955 0
M  V30 205 H 15.3051 1.24709 0.719982 0
M  V30 206 H 17.2581 1.80715 3.80684 0
M  V30 207 H 15.9821 0.732524 3.18279 0
M  V30 208 H 14.6411 2.73283 2.44361 0
M  V30 209 H 14.2891 1.74938 4.71599 0
M  V30 210 H 13.9891 3.50541 4.71588 0
M  V30 211 H 15.5131 2.86401 5.39265 0
M  V30 212 H 16.9271 4.37898 3.70024 0
M  V30 213 H 15.3241 5.03735 3.26146 0
M  V30 214 H 16.3941 4.42244 1.98867 0
M  V30 215 N 17.7372 -0.778329 1.37039 0
M  V30 216 C 18.7002 -1.87301 1.32102 0
M  V30 217 C 19.7002 -1.59198 0.226405 0
M  V30 218 O 20.8902 -1.67403 0.481861 0
M  V30 219 C 18.0222 -3.24309 1.05055 0
M  V30 220 H 19.2152 -1.93093 2.29467 0
M  V30 221 H 16.7682 -0.977358 1.21973 0
M  V30 222 H 17.5032 -3.24196 0.0819373 0
M  V30 223 H 17.2882 -3.46098 1.84279 0
M  V30 224 H 18.7782 -4.04382 1.04234 0
M  V30 225 N 19.2153 -1.21501 -1.00376 0
M  V30 226 C 20.1453 -0.999478 -2.11028 0
M  V30 227 C 21.1263 0.0759671 -1.6993 0
M  V30 228 O 22.3113 -0.0841106 -1.94018 0
M  V30 229 C 19.4413 -0.564709 -3.42678 0
M  V30 230 C 18.3953 -1.58486 -3.97576 0
M  V30 231 C 17.7213 -1.00628 -5.25146 0
M  V30 232 C 19.0213 -2.97204 -4.29496 0
M  V30 233 H 20.7153 -1.92495 -2.29317 0
M  V30 234 H 18.2613 -0.92693 -1.102 0
M  V30 235 H 20.2143 -0.401091 -4.19487 0
M  V30 236 H 18.9383 0.396411 -3.24185 0
M  V30 237 H 17.5973 -1.73606 -3.22888 0
M  V30 238 H 17.2453 -0.0368439 -5.02987 0
M  V30 239 H 16.9453 -1.68771 -5.62841 0
M  V30 240 H 18.4693 -0.854015 -6.04598 0
M  V30 241 H 19.8833 -2.8552 -4.97143 0
M  V30 242 H 18.2803 -3.62372 -4.78338 0
M  V30 243 H 19.3503 -3.47956 -3.3772 0
M  V30 244 N 20.6934 1.19889 -1.02296 0
M  V30 245 C 21.6564 2.21116 -0.603351 0
M  V30 246 C 22.6564 1.5738 0.329884 0
M  V30 247 O 23.8464 1.73802 0.117702 0
M  V30 248 C 20.9784 3.40696 0.117992 0
M  V30 249 H 22.1714 2.59754 -1.49893 0
M  V30 250 H 19.7244 1.33463 -0.813468 0
M  V30 251 H 20.4594 3.07569 1.0282 0
M  V30 252 H 20.2444 3.88188 -0.552511 0
M  V30 253 H 21.7344 4.15692 0.398696 0
M  V30 254 N 22.1715 0.800033 1.35784 0
M  V30 255 C 23.4205 0.37387 1.98205 0
M  V30 256 C 23.7335 -1.06302 1.64193 0
M  V30 257 O 24.9395 -1.59198 2.19928 0
M  V30 258 C 23.3955 0.617532 3.54562 0
M  V30 259 C 23.0035 2.06654 3.9749 0
M  V30 260 C 24.7475 0.256401 4.23725 0
M  V30 261 C 22.6545 2.2563 5.46667 0
M  V30 262 H 21.5845 0.136055 0.741623 0
M  V30 263 H 24.2355 0.983166 1.54939 0
M  V30 264 H 22.6175 -0.0616248 3.95952 0
M  V30 265 H 23.7915 2.78296 3.67271 0
M  V30 266 H 22.1065 2.38691 3.41197 0
M  V30 267 H 24.7035 0.376318 5.33374 0
M  V30 268 H 25.0465 -0.796692 4.08606 0
M  V30 269 H 25.5795 0.889214 3.87734 0
M  V30 270 H 22.3185 3.2936 5.66747 0
M  V30 271 H 21.8385 1.58504 5.78478 0
M  V30 272 H 23.5175 2.06861 6.1304 0
M  V30 273 N 23.6496 -1.47581 0.552962 0
M  V30 274 C 25.0606 -1.86324 0.118463 0
M  V30 275 C 25.4116 -1.46006 -1.3106 0
M  V30 276 O 24.5366 -0.861182 -1.98526 0
M  V30 277 C 25.1316 -3.3816 0.20821 0
M  V30 278 C 23.6906 -3.7601 -0.171226 0
M  V30 279 C 22.8376 -2.71634 0.557686 0
M  V30 280 H 25.7886 -1.39159 0.762928 0
M  V30 281 H 25.8096 -3.76141 -0.574278 0
M  V30 282 H 25.3216 -3.67473 1.24841 0
M  V30 283 H 23.4226 -3.52313 -1.21269 0
M  V30 284 H 23.5356 -4.78745 0.184379 0
M  V30 285 H 21.8996 -2.547 0.00125792 0
M  V30 286 H 22.6826 -3.0379 1.59896 0
M  V30 287 N 25.1277 -0.289203 -1.54924 0
M  V30 288 C 26.3737 0.323998 -2.00195 0
M  V30 289 C 26.7067 1.54441 -1.17735 0
M  V30 290 O 25.9817 1.92875 -0.250878 0
M  V30 291 C 26.2647 0.692276 -3.53383 0
M  V30 292 C 26.1177 -0.536457 -4.46589 0
M  V30 293 C 27.4367 1.52335 -4.12895 0
M  V30 294 H 24.5557 0.116289 -0.727768 0
M  V30 295 H 27.1977 -0.398954 -1.85764 0
M  V30 296 H 25.3477 1.30822 -3.65811 0
M  V30 297 H 27.0197 -1.17499 -4.46085 0
M  V30 298 H 25.2627 -1.17192 -4.1767 0
M  V30 299 H 25.9337 -0.234806 -5.515 0
M  V30 300 H 28.4097 1.00302 -4.0383 0
M  V30 301 H 27.2857 1.74982 -5.20262 0
M  V30 302 H 27.5467 2.50886 -3.64018 0
M  V30 303 N 26.6058 1.57591 -0.0167156 0
M  V30 304 C 27.8548 1.90461 0.663877 0
M  V30 305 C 28.1678 0.893515 1.73999 0
M  V30 306 O 29.3738 1.11302 2.47637 0
M  V30 307 C 27.8298 3.38155 1.23204 0
M  V30 308 C 27.4378 4.47597 0.189866 0
M  V30 309 C 29.1818 3.80111 1.88986 0
M  V30 310 C 27.0888 5.86379 0.768964 0
M  V30 311 H 26.0188 0.710738 0.251729 0
M  V30 312 H 28.6698 1.83326 -0.0799926 0
M  V30 313 H 27.0518 3.40182 2.02712 0
M  V30 314 H 28.2258 4.57112 -0.581846 0
M  V30 315 H 26.5408 4.14766 -0.368475 0
M  V30 316 H 29.1378 4.81145 2.33247 0
M  V30 317 H 29.4808 3.14511 2.72743 0
M  V30 318 H 30.0138 3.80454 1.16187 0
M  V30 319 H 26.7528 6.55493 -0.0301957 0
M  V30 320 H 26.2728 5.80496 1.50945 0
M  V30 321 H 27.9518 6.34563 1.26251 0
M  V30 322 N 28.0839 -0.256276 1.55502 0
M  V30 323 C 29.0139 -1.32102 1.92539 0
M  V30 324 C 29.9949 -1.50684 0.789194 0
M  V30 325 O 31.1799 -1.63449 1.04872 0
M  V30 326 C 28.3099 -2.67752 2.21192 0
M  V30 327 C 27.2639 -2.63878 3.36975 0
M  V30 328 C 26.5899 -4.03236 3.51147 0
M  V30 329 C 27.8899 -2.21682 4.72921 0
M  V30 330 H 29.5839 -1.01351 2.81724 0
M  V30 331 H 27.1299 -0.486105 1.35547 0
M  V30 332 H 29.0829 -3.42365 2.45691 0
M  V30 333 H 27.8069 -3.0012 1.28824 0
M  V30 334 H 26.4659 -1.91722 3.12471 0
M  V30 335 H 26.1139 -4.32854 2.56216 0
M  V30 336 H 25.8139 -4.01535 4.29003 0
M  V30 337 H 27.3379 -4.79563 3.77957 0
M  V30 338 H 28.7519 -2.86023 4.96854 0
M  V30 339 H 27.1489 -2.3111 5.53812 0
M  V30 340 H 28.2189 -1.16833 4.70615 0
M  V30 341 N 29.562 -1.4872 -0.521534 0
M  V30 342 C 30.525 -1.63379 -1.60748 0
M  V30 343 C 31.525 -0.50661 -1.52611 0
M  V30 344 O 32.715 -0.772601 -1.5613 0
M  V30 345 C 29.847 -1.61192 -3.00383 0
M  V30 346 H 31.04 -2.60217 -1.49087 0
M  V30 347 H 28.593 -1.37444 -0.744235 0
M  V30 348 H 29.328 -0.65863 -3.17541 0
M  V30 349 H 29.113 -2.43032 -3.07698 0
M  V30 350 H 30.603 -1.7466 -3.7932 0
M  V30 351 N 31.0401 0.771051 -1.3745 0
M  V30 352 C 31.9721 1.89352 -1.29146 0
M  V30 353 C 32.9851 1.61477 -0.207124 0
M  V30 354 O 34.1741 1.72382 -0.463324 0
M  V30 355 C 31.2741 3.24596 -0.974195 0
M  V30 356 C 30.4471 3.80111 -2.16413 0
M  V30 357 C 29.5061 4.93832 -1.81703 0
M  V30 358 O 28.5321 5.09382 -2.54006 0
M  V30 359 N 29.7341 5.75483 -0.761573 0
M  V30 360 H 32.4991 1.96991 -2.25864 0
M  V30 361 H 30.0601 0.950191 -1.31084 0
M  V30 362 H 32.0521 3.98193 -0.722828 0
M  V30 363 H 30.6221 3.12454 -0.0955527 0
M  V30 364 H 29.8421 2.98284 -2.57721 0
M  V30 365 H 31.1301 4.13932 -2.95867 0
M  V30 366 H 30.5281 5.65469 -0.161609 0
M  V30 367 H 29.0851 6.49302 -0.570064 0
M  V30 368 N 32.5182 1.22032 0.997298 0
M  V30 369 C 33.7672 1.03637 1.73038 0
M  V30 370 C 34.0802 -0.429475 1.90827 0
M  V30 371 O 35.2862 -0.732995 2.61418 0
M  V30 372 C 33.7422 1.80582 3.11317 0
M  V30 373 C 33.3502 3.31387 3.01474 0
M  V30 374 C 35.0942 1.70621 3.88701 0
M  V30 375 C 33.0012 4.00791 4.3488 0
M  V30 376 H 31.9312 0.384179 0.648785 0
M  V30 377 H 34.5822 1.4584 1.11368 0
M  V30 378 H 32.9642 1.31175 3.73643 0
M  V30 379 H 34.1382 3.88155 2.4834 0
M  V30 380 H 32.4532 3.41976 2.37575 0
M  V30 381 H 35.0502 2.19799 4.87434 0
M  V30 382 H 35.3932 0.665823 4.10941 0
M  V30 383 H 35.9262 2.17547 3.33044 0
M  V30 384 H 32.6652 5.05064 4.1784 0
M  V30 385 H 32.1852 3.48811 4.87945 0
M  V30 386 H 33.8642 4.06139 5.03647 0
M  V30 387 N 33.9963 -1.19345 1.0293 0
M  V30 388 C 34.9593 -2.20793 0.615069 0
M  V30 389 C 35.9593 -1.57553 -0.321533 0
M  V30 390 O 37.1493 -1.73862 -0.108483 0
M  V30 391 C 34.2813 -3.40754 -0.0999222 0
M  V30 392 H 35.4743 -2.58955 1.51269 0
M  V30 393 H 33.0273 -1.3303 0.820534 0
M  V30 394 H 33.7623 -3.0811 -1.01187 0
M  V30 395 H 33.5473 -3.87889 0.57309 0
M  V30 396 H 35.0373 -4.15898 -0.376645 0
M  V30 397 N 35.4744 -0.807222 -1.35358 0
M  V30 398 C 36.4064 -0.175717 -2.28525 0
M  V30 399 C 37.4194 0.625354 -1.5031 0
M  V30 400 O 38.6084 0.457611 -1.72535 0
M  V30 401 C 35.7084 0.773471 -3.29956 0
M  V30 402 C 34.8814 0.0186296 -4.37396 0
M  V30 403 C 33.9404 0.886395 -5.18681 0
M  V30 404 O 32.9664 0.337106 -5.68201 0
M  V30 405 N 34.1684 2.20839 -5.36852 0
M  V30 406 H 36.9334 -0.976091 -2.83359 0
M  V30 407 H 34.4944 -0.662737 -1.47714 0
M  V30 408 H 36.4864 1.35824 -3.81227 0
M  V30 409 H 35.0564 1.47465 -2.75632 0
M  V30 410 H 34.2764 -0.747349 -3.87051 0
M  V30 411 H 35.5644 -0.501577 -5.06322 0
M  V30 412 H 34.9624 2.67858 -4.98265 0
M  V30 413 H 33.5194 2.74237 -5.91301 0
M  V30 414 N 36.9525 1.47285 -0.560781 0
M  V30 415 C 38.1805 2.06855 -0.0430262 0
M  V30 416 C 38.5955 1.41291 1.25229 0
M  V30 417 O 37.9525 0.510648 1.7521 0
M  V30 418 C 38.0035 3.61178 0.152518 0
M  V30 419 O 37.7245 4.24285 -1.0915 0
M  V30 420 C 39.2255 4.37624 0.707145 0
M  V30 421 H 36.4455 0.669319 -0.0474652 0
M  V30 422 H 38.9895 1.89237 -0.77521 0
M  V30 423 H 37.1445 3.78298 0.834843 0
M  V30 424 H 37.5585 5.16868 -0.891482 0
M  V30 425 H 39.0325 5.46271 0.793244 0
M  V30 426 H 39.5095 4.04152 1.71923 0
M  V30 427 H 40.1155 4.25257 0.0604027 0
M  V30 428 N 38.4306 0.297415 1.54768 0
M  V30 429 C 39.3936 -0.567375 2.22066 0
M  V30 430 C 40.3936 -1.06409 1.20556 0
M  V30 431 O 41.5836 -0.960691 1.45315 0
M  V30 432 C 38.7156 -1.78517 2.90421 0
M  V30 433 H 39.9086 0.0205534 2.99893 0
M  V30 434 H 37.4616 0.0482163 1.56226 0
M  V30 435 H 38.1966 -2.41303 2.16664 0
M  V30 436 H 37.9816 -1.43669 3.64831 0
M  V30 437 H 39.4716 -2.39964 3.41771 0
M  V30 438 N 39.9087 -1.5758 0.0250728 0
M  V30 439 C 40.8417 -2.05473 -0.992777 0
M  V30 440 C 41.8197 -0.949661 -1.31986 0
M  V30 441 O 43.0037 -1.21969 -1.43722 0
M  V30 442 C 40.1307 -2.4734 -2.31389 0
M  V30 443 C 39.1767 -3.68827 -2.1417 0
M  V30 444 S 40.0097 -5.15655 -1.44429 0
M  V30 445 C 41.1657 -5.60814 -2.77918 0
M  V30 446 H 41.3987 -2.91486 -0.585078 0
M  V30 447 H 38.9317 -1.53269 -0.186507 0
M  V30 448 H 40.8897 -2.72127 -3.07339 0
M  V30 449 H 39.5507 -1.6168 -2.69292 0
M  V30 450 H 38.7437 -3.95955 -3.11826 0
M  V30 451 H 38.3457 -3.44172 -1.46362 0
M  V30 452 H 40.6377 -5.64806 -3.74166 0
M  V30 453 H 41.5807 -6.60414 -2.55459 0
M  V30 454 H 41.9887 -4.8845 -2.82979 0
M  V30 455 N 41.3868 0.248026 -1.55636 0
M  V30 456 C 42.6348 0.974295 -1.77065 0
M  V30 457 C 42.9558 1.85897 -0.588849 0
M  V30 458 O 42.2258 1.91868 0.395407 0
M  V30 459 H 40.8058 0.362733 -0.653019 0
M  V30 460 H 43.4678 0.266244 -1.93073 0
M  V30 461 H 42.5638 1.59667 -2.68166 0
M  V30 462 N 42.8649 1.48995 0.513639 0
M  V30 463 C 44.1119 1.57843 1.26854 0
M  V30 464 C 44.4399 0.259501 1.92761 0
M  V30 465 O 43.6949 -0.75159 1.80692 0
M  V30 466 C 43.9939 2.67756 2.36731 0
M  V30 467 C 43.6599 4.09669 1.88368 0
M  V30 468 C 42.3219 4.48291 1.74896 0
M  V30 469 C 44.6739 4.98537 1.52021 0
M  V30 470 C 42.0019 5.73568 1.23438 0
M  V30 471 C 44.3539 6.24319 1.0202 0
M  V30 472 C 43.0179 6.61783 0.871778 0
M  V30 473 H 42.2879 0.577587 0.464192 0
M  V30 474 H 44.9349 1.82778 0.571366 0
M  V30 475 H 43.2399 2.36743 3.12185 0
M  V30 476 H 44.9369 2.71813 2.9482 0
M  V30 477 H 41.5269 3.79176 1.99808 0
M  V30 478 H 45.7109 4.69363 1.61281 0
M  V30 479 H 40.9669 6.01304 1.10648 0
M  V30 480 H 45.1409 6.92566 0.729722 0
M  V30 481 H 42.7679 7.5874 0.470852 0
M  V30 482 N 44.343 -0.763751 1.37857 0
M  V30 483 C 45.589 -1.52483 1.33704 0
M  V30 484 C 45.922 -1.94051 -0.0759612 0
M  V30 485 O 45.197 -1.64675 -1.03501 0
M  V30 486 C 45.48 -2.78441 2.28348 0
M  V30 487 C 45.333 -2.43075 3.78463 0
M  V30 488 C 46.652 -3.80415 2.21298 0
M  V30 489 H 43.771 -0.553169 0.487005 0
M  V30 490 H 46.413 -0.875562 1.68624 0
M  V30 491 H 44.563 -3.33842 1.987 0
M  V30 492 H 46.235 -1.93527 4.18742 0
M  V30 493 H 44.478 -1.75666 3.96641 0
M  V30 494 H 45.149 -3.33149 4.40132 0
M  V30 495 H 47.625 -3.34527 2.47449 0
M  V30 496 H 46.501 -4.66257 2.89647 0
M  V30 497 H 46.762 -4.25262 1.20849 0
M  V30 498 N 45.8211 -1.22559 -0.990812 0
M  V30 499 C 47.0981 -0.959875 -1.70428 0
M  V30 500 C 47.4781 0.524455 -2.04481 0
M  V30 501 O 46.8261 1.49302 -1.72977 0
M  V30 502 C 47.0361 -1.85955 -2.95333 0
M  V30 503 C 48.3841 -2.11687 -3.68068 0
M  V30 504 O 49.4081 -1.8342 -3.05345 0
M  V30 505 O 48.2671 -2.59572 -4.80921 0
M  V30 506 H 45.3611 -0.361154 -0.743974 0
M  V30 507 H 47.9071 -1.33554 -1.04697 0
M  V30 508 H 46.6791 -2.86346 -2.66687 0
M  V30 509 H 46.3021 -1.4856 -3.68803 0
M  V30 510 N 47.2992 1.18797 -1.03562 0
M  V30 511 C 48.5272 1.92599 -0.755869 0
M  V30 512 C 48.9422 1.75886 0.686271 0
M  V30 513 O 48.2992 1.08517 1.46732 0
M  V30 514 C 48.3502 3.44159 -1.10619 0
M  V30 515 O 48.0712 3.60341 -2.4917 0
M  V30 516 C 49.5722 4.3507 -0.850214 0
M  V30 517 H 46.7922 0.611587 -0.276048 0
M  V30 518 H 49.3362 1.50742 -1.38192 0
M  V30 519 H 47.4912 3.83823 -0.525194 0
M  V30 520 H 47.9052 4.54128 -2.62427 0
M  V30 521 H 49.3792 5.39989 -1.14523 0
M  V30 522 H 49.8562 4.38673 0.215176 0
M  V30 523 H 50.4622 4.01097 -1.41426 0
M  V30 524 N 48.7773 0.814389 1.34928 0
M  V30 525 C 50.0233 0.399013 1.98836 0
M  V30 526 C 50.3563 -1.03314 1.64438 0
M  V30 527 O 49.6313 -1.71811 0.911659 0
M  V30 528 C 49.9143 0.591629 3.55207 0
M  V30 529 C 49.7673 2.06928 3.99376 0
M  V30 530 C 51.0863 0.022199 4.40094 0
M  V30 531 H 48.2053 0.146451 0.722303 0
M  V30 532 H 50.8473 1.02537 1.59957 0
M  V30 533 H 48.9973 0.0584441 3.88456 0
M  V30 534 H 50.6693 2.66544 3.76499 0
M  V30 535 H 48.9123 2.56287 3.49999 0
M  V30 536 H 49.5833 2.1549 5.08201 0
M  V30 537 H 52.0593 0.477643 4.13349 0
M  V30 538 H 50.9353 0.186832 5.48582 0
M  V30 539 H 51.1963 -1.07215 4.28902 0
M  V30 540 N 50.2554 -1.46986 0.568584 0
M  V30 541 C 51.1884 -2.27129 -0.220779 0
M  V30 542 C 52.1664 -1.34757 -0.909905 0
M  V30 543 O 53.3504 -1.64152 -0.926622 0
M  V30 544 C 50.4774 -3.12108 -1.31553 0
M  V30 545 C 49.5234 -4.20141 -0.733748 0
M  V30 546 S 50.3564 -5.33783 0.428479 0
M  V30 547 C 51.5124 -6.22327 -0.667811 0
M  V30 548 H 51.7454 -2.93731 0.459267 0
M  V30 549 H 49.2784 -1.5026 0.355154 0
M  V30 550 H 51.2364 -3.61636 -1.94241 0
M  V30 551 H 49.8974 -2.44847 -1.96746 0
M  V30 552 H 49.0904 -4.79373 -1.5562 0
M  V30 553 H 48.6924 -3.73553 -0.182812 0
M  V30 554 H 50.9844 -6.59364 -1.55708 0
M  V30 555 H 51.9274 -7.0801 -0.11258 0
M  V30 556 H 52.3354 -5.5618 -0.965601 0
M  V30 557 N 51.7335 -0.305618 -1.54608 0
M  V30 558 C 52.6965 0.555591 -2.22364 0
M  V30 559 C 53.6965 1.05768 -1.21119 0
M  V30 560 O 54.8865 0.952972 -1.45822 0
M  V30 561 C 52.0185 1.76974 -2.91364 0
M  V30 562 H 53.2115 -0.0364572 -2.99878 0
M  V30 563 H 50.7645 -0.0565007 -1.56198 0
M  V30 564 H 51.4995 2.40151 -2.17941 0
M  V30 565 H 51.2845 1.41732 -3.65588 0
M  V30 566 H 52.7745 2.38148 -3.43038 0
M  V30 567 N 53.2116 1.57565 -0.0334293 0
M  V30 568 C 54.4596 1.91598 0.642999 0
M  V30 569 C 54.7806 0.910847 1.7242 0
M  V30 570 O 54.0506 -0.0469931 1.95844 0
M  V30 571 H 52.6306 0.707228 0.240496 0
M  V30 572 H 55.2926 1.94726 -0.0822488 0
M  V30 573 H 54.3886 2.92336 1.09298 0
M  V30 574 N 54.6897 -0.239769 1.55765 0
M  V30 575 C 55.9377 -0.964892 1.77579 0
M  V30 576 C 56.2587 -1.85582 0.598699 0
M  V30 577 O 55.5287 -1.92075 -0.385226 0
M  V30 578 H 54.1087 -0.359265 0.654933 0
M  V30 579 H 56.7707 -0.256001 1.93211 0
M  V30 580 H 55.8667 -1.58243 2.69009 0
M  V30 581 N 56.1678 -1.49265 -0.50573 0
M  V30 582 C 57.3978 -1.61979 -1.28243 0
M  V30 583 C 57.8058 -0.288576 -1.86986 0
M  V30 584 O 57.1488 0.735408 -1.68337 0
M  V30 585 C 57.2108 -2.62632 -2.45489 0
M  V30 586 C 56.8748 -4.071 -2.07651 0
M  V30 587 C 57.8718 -4.94049 -1.61901 0
M  V30 588 C 55.5568 -4.52801 -2.17431 0
M  V30 589 C 57.5508 -6.24736 -1.26428 0
M  V30 590 C 55.2378 -5.83503 -1.8157 0
M  V30 591 C 56.2358 -6.69294 -1.36142 0
M  V30 592 O 55.9238 -7.9756 -1.00764 0
M  V30 593 H 55.6558 -0.54834 -0.395347 0
M  V30 594 H 58.2098 -1.96002 -0.614204 0
M  V30 595 H 56.4398 -2.2378 -3.15372 0
M  V30 596 H 58.1288 -2.64925 -3.07522 0
M  V30 597 H 58.8948 -4.5997 -1.53795 0
M  V30 598 H 54.7738 -3.86196 -2.51742 0
M  V30 599 H 58.3178 -6.91652 -0.908992 0
M  V30 600 H 54.2148 -6.17112 -1.89324 0
M  V30 601 H 54.9828 -8.10529 -1.13952 0
M  V30 602 N 57.6459 0.756429 -1.3826 0
M  V30 603 C 58.8709 1.55077 -1.37717 0
M  V30 604 C 59.2959 1.88073 0.03164 0
M  V30 605 O 58.6539 1.50364 1.01293 0
M  V30 606 C 58.7019 2.8283 -2.23695 0
M  V30 607 O 57.8059 3.77862 -1.6521 0
M  V30 608 H 57.1469 0.469152 -0.469885 0
M  V30 609 H 59.6769 0.935019 -1.81985 0
M  V30 610 H 59.6869 3.31783 -2.37453 0
M  V30 611 H 58.3619 2.58144 -3.2609 0
M  V30 612 H 56.9389 3.36555 -1.60578 0
M  V30 613 N 59.124 1.23083 0.984299 0
M  V30 614 C 60.087 1.00979 2.05757 0
M  V30 615 C 61.087 -0.0269573 1.60777 0
M  V30 616 O 62.277 0.212403 1.729 0
M  V30 617 C 59.409 0.527072 3.36801 0
M  V30 618 H 60.602 1.9622 2.26799 0
M  V30 619 H 58.155 1.05072 1.15714 0
M  V30 620 H 58.89 -0.429294 3.21446 0
M  V30 621 H 58.675 1.27515 3.70786 0
M  V30 622 H 60.165 0.392942 4.15747 0
M  V30 623 N 60.6021 -1.18246 1.0419 0
M  V30 624 C 61.8301 -1.92195 0.766072 0
M  V30 625 C 62.2451 -1.76247 -0.676933 0
M  V30 626 O 61.6021 -1.09293 -1.46155 0
M  V30 627 C 61.6531 -3.43568 1.12442 0
M  V30 628 O 61.3741 -3.59015 2.51078 0
M  V30 629 C 62.8751 -4.34613 0.873275 0
M  V30 630 H 60.0951 -0.610114 0.279288 0
M  V30 631 H 62.6391 -1.50007 1.38989 0
M  V30 632 H 60.7941 -3.8354 0.545542 0
M  V30 633 H 61.2081 -4.5273 2.64831 0
M  V30 634 H 62.6821 -5.39374 1.17385 0
M  V30 635 H 63.1591 -4.38781 -0.191909 0
M  V30 636 H 63.7651 -4.00341 1.43551 0
M  V30 637 N 62.0802 -0.821533 -1.34494 0
M  V30 638 C 63.3572 -0.33159 -1.92769 0
M  V30 639 C 63.7372 1.18088 -1.74981 0
M  V30 640 O 63.0852 1.98733 -1.12772 0
M  V30 641 C 63.2952 -0.759398 -3.40638 0
M  V30 642 C 64.6432 -0.757433 -4.1779 0
M  V30 643 O 65.6672 -0.70189 -3.49216 0
M  V30 644 O 64.5262 -0.829361 -5.4017 0
M  V30 645 H 61.6202 -0.0902502 -0.822061 0
M  V30 646 H 64.1662 -0.906231 -1.43477 0
M  V30 647 H 62.9382 -1.8012 -3.47379 0
M  V30 648 H 62.5612 -0.160378 -3.97276 0
M  V30 649 N 63.5583 1.46682 -0.576371 0
M  V30 650 C 64.4913 2.27243 0.208731 0
M  V30 651 C 65.4693 1.35238 0.902746 0
M  V30 652 O 66.6533 1.64641 0.917904 0
M  V30 653 C 63.7803 3.12802 1.29896 0
M  V30 654 C 62.8263 4.20524 0.711457 0
M  V30 655 S 63.6593 5.33548 -0.456781 0
M  V30 656 C 64.8153 6.22673 0.634798 0
M  V30 657 H 65.0483 2.93484 -0.474838 0
M  V30 658 H 62.5813 1.50069 -0.363118 0
M  V30 659 H 64.5393 3.62661 1.92321 0
M  V30 660 H 63.2003 2.45887 1.95444 0
M  V30 661 H 62.3933 4.80191 1.53076 0
M  V30 662 H 61.9953 3.73645 0.162999 0
M  V30 663 H 64.2873 6.60181 1.52209 0
M  V30 664 H 65.2303 7.0806 0.0750311 0
M  V30 665 H 65.6383 5.56684 0.936092 0
M  V30 666 N 65.0364 0.313813 1.54444 0
M  V30 667 C 65.9994 -0.54379 2.22656 0
M  V30 668 C 66.9994 -1.05124 1.21678 0
M  V30 669 O 68.1894 -0.945225 1.46325 0
M  V30 670 C 65.3214 -1.75427 2.92298 0
M  V30 671 H 66.5144 0.0523599 2.99854 0
M  V30 672 H 64.0674 0.0647834 1.56166 0
M  V30 673 H 64.8024 -2.38991 2.19211 0
M  V30 674 H 64.5874 -1.39791 3.66334 0
M  V30 675 H 66.0774 -2.36325 3.44297 0
M  V30 676 N 66.5145 -1.57545 0.0417849 0
M  V30 677 C 67.4775 -2.09885 -0.92093 0
M  V30 678 C 68.4775 -1.01648 -1.24596 0
M  V30 679 O 69.6675 -1.27759 -1.1842 0
M  V30 680 C 66.7995 -2.57527 -2.23367 0
M  V30 681 H 67.9925 -2.96236 -0.467382 0
M  V30 682 H 65.5455 -1.5493 -0.206467 0
M  V30 683 H 66.2805 -1.74542 -2.73323 0
M  V30 684 H 66.0655 -3.36613 -2.01083 0
M  V30 685 H 67.5555 -2.98201 -2.92346 0
M  V30 686 N 67.9926 0.231505 -1.5589 0
M  V30 687 C 69.2386 0.95877 -1.78705 0
M  V30 688 C 69.5716 1.8438 -0.609725 0
M  V30 689 O 68.8466 1.90521 0.391426 0
M  V30 690 C 69.1296 1.8062 -3.11526 0
M  V30 691 C 68.9826 0.948328 -4.39689 0
M  V30 692 C 70.3016 2.78585 -3.40703 0
M  V30 693 H 67.4206 0.347129 -0.650131 0
M  V30 694 H 70.0626 0.228259 -1.88624 0
M  V30 695 H 68.2126 2.42902 -3.03201 0
M  V30 696 H 69.8846 0.343016 -4.60023 0
M  V30 697 H 68.1276 0.253314 -4.3306 0
M  V30 698 H 68.7986 1.57543 -5.29041 0
M  V30 699 H 71.2746 2.26439 -3.49091 0
M  V30 700 H 70.1506 3.34988 -4.34826 0
M  V30 701 H 70.4116 3.55825 -2.62375 0
M  V30 702 N 69.4707 1.49531 0.497807 0
M  V30 703 C 70.4337 1.65916 1.58128 0
M  V30 704 C 71.4337 0.530825 1.51786 0
M  V30 705 O 72.6237 0.797342 1.54881 0
M  V30 706 C 69.7557 1.65951 2.9778 0
M  V30 707 H 70.9487 2.62556 1.44929 0
M  V30 708 H 68.5017 1.38611 0.722275 0
M  V30 709 H 69.2367 0.709065 3.16453 0
M  V30 710 H 69.0217 2.47897 3.03792 0
M  V30 711 H 70.5117 1.80673 3.76493 0
M  V30 712 N 70.9488 -0.749086 1.3866 0
M  V30 713 C 72.1978 -1.50371 1.3443 0
M  V30 714 C 72.5108 -1.95503 -0.0616397 0
M  V30 715 O 73.7168 -2.70554 -0.226489 0
M  V30 716 C 72.1728 -2.71644 2.36088 0
M  V30 717 C 71.7808 -2.3352 3.82325 0
M  V30 718 C 73.5248 -3.49518 2.40909 0
M  V30 719 C 71.4318 -3.51431 4.75658 0
M  V30 720 H 70.3618 -0.564628 0.499712 0
M  V30 721 H 73.0128 -0.818449 1.64237 0
M  V30 722 H 71.3948 -3.42175 1.9933 0
M  V30 723 H 72.5688 -1.70627 4.28046 0
M  V30 724 H 70.8838 -1.6877 3.80665 0
M  V30 725 H 73.4808 -4.37197 3.07836 0
M  V30 726 H 73.8238 -3.90992 1.42937 0
M  V30 727 H 74.3568 -2.86005 2.76489 0
M  V30 728 H 71.0958 -3.15019 5.74842 0
M  V30 729 H 70.6158 -4.13352 4.34627 0
M  V30 730 H 72.2948 -4.17953 4.93887 0
M  V30 731 N 72.4269 -1.23603 -0.977757 0
M  V30 732 C 73.6749 -1.06759 -1.71601 0
M  V30 733 C 73.9959 0.395929 -1.90938 0
M  V30 734 O 73.2659 1.28356 -1.47992 0
M  V30 735 H 71.8459 -0.392062 -0.635843 0
M  V30 736 H 74.5079 -1.55362 -1.1768 0
M  V30 737 H 73.6039 -1.55763 -2.70452 0
M  V30 738 N 73.905 1.17692 -1.04816 0
M  V30 739 C 75.133 1.91786 -0.776254 0
M  V30 740 C 75.548 1.76604 0.667577 0
M  V30 741 O 74.905 1.10067 1.45573 0
M  V30 742 C 74.956 3.42967 -1.14263 0
M  V30 743 O 74.677 3.57678 -2.52978 0
M  V30 744 C 76.178 4.34144 -0.896311 0
M  V30 745 H 73.398 0.608624 -0.282519 0
M  V30 746 H 75.942 1.49268 -1.39783 0
M  V30 747 H 74.097 3.83245 -0.565874 0
M  V30 748 H 74.511 4.51319 -2.67229 0
M  V30 749 H 75.985 5.38744 -1.20244 0
M  V30 750 H 76.462 4.38876 0.168636 0
M  V30 751 H 77.068 3.99574 -1.45672 0
M  V30 752 N 75.3831 0.828654 1.34056 0
M  V30 753 C 76.6081 0.431637 2.02859 0
M  V30 754 C 77.0331 -0.956339 1.61975 0
M  V30 755 O 76.3911 -1.62338 0.807228 0
M  V30 756 C 76.4391 0.548323 3.56407 0
M  V30 757 O 75.5431 -0.429556 4.10157 0
M  V30 758 H 74.8841 0.176886 0.640006 0
M  V30 759 H 77.4141 1.12066 1.71179 0
M  V30 760 H 77.4241 0.426196 4.05768 0
M  V30 761 H 76.0991 1.5606 3.8551 0
M  V30 762 H 74.6761 -0.265836 3.71951 0
M  V30 763 N 76.8612 -1.46375 0.584142 0
M  V30 764 C 78.1102 -2.01585 0.0679741 0
M  V30 765 C 78.4232 -1.46109 -1.30045 0
M  V30 766 O 79.6292 -1.93148 -1.90804 0
M  V30 767 C 78.0852 -3.5983 0.0709207 0
M  V30 768 C 77.6932 -4.24303 1.43775 0
M  V30 769 C 79.4372 -4.22693 -0.391228 0
M  V30 770 C 77.3442 -5.74631 1.39834 0
M  V30 771 H 76.2742 -0.753689 0.0216421 0
M  V30 772 H 78.9252 -1.68093 0.736001 0
M  V30 773 H 77.3072 -3.90405 -0.663299 0
M  V30 774 H 78.4812 -4.05335 2.19181 0
M  V30 775 H 76.7962 -3.73539 1.84004 0
M  V30 776 H 79.3932 -5.3289 -0.439524 0
M  V30 777 H 79.7362 -3.91728 -1.40906 0
M  V30 778 H 80.2692 -3.96749 0.288974 0
M  V30 779 H 77.0082 -6.10258 2.39303 0
M  V30 780 H 76.5282 -5.95858 0.686505 0
M  V30 781 H 78.2072 -6.37375 1.11187 0
M  V30 782 N 78.3393 -0.321999 -1.54275 0
M  V30 783 C 79.5853 0.274234 -2.01543 0
M  V30 784 C 79.9403 1.499 -1.20614 0
M  V30 785 O 79.2333 1.89546 -0.279804 0
M  V30 786 C 79.4273 0.661769 -3.5122 0
M  V30 787 C 79.2563 -0.523892 -4.46638 0
M  V30 788 C 78.0263 -1.02251 -4.94846 0
M  V30 789 C 80.2243 -1.37558 -4.95563 0
M  V30 790 N 78.2063 -2.17274 -5.74165 0
M  V30 791 C 79.5773 -2.37301 -5.7279 0
M  V30 792 C 81.6323 -1.40353 -4.77709 0
M  V30 793 C 80.3353 -3.3964 -6.34064 0
M  V30 794 C 82.3613 -2.41562 -5.39817 0
M  V30 795 C 81.7233 -3.40031 -6.16894 0
M  V30 796 H 77.8223 0.0642367 -0.779357 0
M  V30 797 H 80.4063 -0.456683 -1.89268 0
M  V30 798 H 78.5773 1.36182 -3.63743 0
M  V30 799 H 80.3093 1.23934 -3.85256 0
M  V30 800 H 77.0643 -0.594046 -4.6986 0
M  V30 801 H 77.4883 -2.75289 -6.18502 0
M  V30 802 H 82.1303 -0.655907 -4.17681 0
M  V30 803 H 79.8483 -4.15309 -6.93213 0
M  V30 804 H 83.4343 -2.44524 -5.2792 0
M  V30 805 H 82.3143 -4.17063 -6.64099 0
M  V30 806 N 79.8174 1.5752 -0.0501392 0
M  V30 807 C 80.7474 2.14502 0.922566 0
M  V30 808 C 81.7284 1.06642 1.3252 0
M  V30 809 O 82.9134 1.34577 1.4001 0
M  V30 810 C 80.0434 2.68916 2.19776 0
M  V30 811 C 78.9974 3.8175 1.93523 0
M  V30 812 C 78.3234 4.22677 3.27487 0
M  V30 813 C 79.6234 5.06932 1.25765 0
M  V30 814 H 81.3174 2.9603 0.447952 0
M  V30 815 H 78.8634 1.42401 0.214024 0
M  V30 816 H 80.8164 3.07419 2.88222 0
M  V30 817 H 79.5404 1.84578 2.69441 0
M  V30 818 H 78.1994 3.43718 1.27489 0
M  V30 819 H 77.8474 3.35291 3.74952 0
M  V30 820 H 77.5474 4.98725 3.1072 0
M  V30 821 H 79.0714 4.63779 3.97166 0
M  V30 822 H 80.4854 5.42888 1.84244 0
M  V30 823 H 78.8824 5.88116 1.19328 0
M  V30 824 H 79.9524 4.84337 0.233536 0
M  V30 825 N 81.2955 -0.223234 1.56011 0
M  V30 826 C 82.7065 -0.790368 1.69145 0
M  V30 827 C 83.0575 -1.85055 0.651845 0
M  V30 828 O 82.1825 -2.15498 -0.197359 0
M  V30 829 C 82.7775 -1.4404 3.06656 0
M  V30 830 C 81.3365 -1.95494 3.2165 0
M  V30 831 C 80.4835 -0.814506 2.65068 0
M  V30 832 H 83.4345 0.00139011 1.587 0
M  V30 833 H 83.4555 -2.30916 3.0242 0
M  V30 834 H 82.9675 -0.668543 3.82298 0
M  V30 835 H 81.0685 -2.75487 2.50874 0
M  V30 836 H 81.1815 -2.13607 4.28846 0
M  V30 837 H 79.5455 -1.22137 2.23505 0
M  V30 838 H 80.3285 -0.0553515 3.43255 0
M  V30 839 N 82.7736 -1.49793 -0.48987 0
M  V30 840 C 83.7366 -1.66752 -1.57246 0
M  V30 841 C 84.7366 -0.538867 -1.51502 0
M  V30 842 O 85.9266 -0.805545 -1.54456 0
M  V30 843 C 83.0586 -1.67528 -2.96896 0
M  V30 844 H 84.2516 -2.63321 -1.43534 0
M  V30 845 H 81.8046 -1.38992 -0.714914 0
M  V30 846 H 82.5396 -0.725837 -3.16073 0
M  V30 847 H 82.3246 -2.49504 -3.02473 0
M  V30 848 H 83.8146 -1.82667 -3.7553 0
M  V30 849 N 84.2517 0.741722 -1.39055 0
M  V30 850 C 85.5007 1.49656 -1.35225 0
M  V30 851 C 85.8137 1.95533 0.0512708 0
M  V30 852 O 87.0197 2.7067 0.212138 0
M  V30 853 C 85.4757 2.70389 -2.37525 0
M  V30 854 C 85.0837 2.31489 -3.83558 0
M  V30 855 C 86.8277 3.48236 -2.42759 0
M  V30 856 C 84.7347 3.48903 -4.77515 0
M  V30 857 H 83.6647 0.56197 -0.502699 0
M  V30 858 H 86.3157 0.809727 -1.64668 0
M  V30 859 H 84.6977 3.41113 -2.01142 0
M  V30 860 H 85.8717 1.68354 -4.28945 0
M  V30 861 H 84.1867 1.66749 -3.81554 0
M  V30 862 H 86.7837 4.35558 -3.1015 0
M  V30 863 H 87.1267 3.90229 -1.45008 0
M  V30 864 H 87.6597 2.84535 -2.78002 0
M  V30 865 H 84.3987 3.11966 -5.76504 0
M  V30 866 H 83.9187 4.11041 -4.36813 0
M  V30 867 H 85.5977 4.15328 -4.96096 0
M  V30 868 N 85.7298 1.2412 0.971189 0
M  V30 869 C 86.6598 1.05508 2.08304 0
M  V30 870 C 87.6408 -0.0308864 1.70072 0
M  V30 871 O 88.8258 0.135521 1.93727 0
M  V30 872 C 85.9558 0.655365 3.4106 0
M  V30 873 C 84.9098 1.68971 3.93234 0
M  V30 874 C 84.2358 1.14516 5.22293 0
M  V30 875 C 85.5358 3.08487 4.21465 0
M  V30 876 H 87.2298 1.98507 2.24132 0
M  V30 877 H 84.7758 0.955821 1.07704 0
M  V30 878 H 86.7288 0.51217 4.18276 0
M  V30 879 H 85.4528 -0.31032 3.25122 0
M  V30 880 H 84.1118 1.82106 3.18171 0
M  V30 881 H 83.7598 0.170189 5.02712 0
M  V30 882 H 83.4598 1.83635 5.58168 0
M  V30 883 H 84.9838 1.01401 6.02121 0
M  V30 884 H 86.3978 2.98601 4.89398 0
M  V30 885 H 84.7948 3.74926 4.68562 0
M  V30 886 H 85.8648 3.56787 3.28376 0
M  V30 887 N 87.2079 -1.17134 1.05439 0
M  V30 888 C 88.4549 -1.87456 0.765942 0
M  V30 889 C 88.7829 -1.81189 -0.707153 0
M  V30 890 O 88.0379 -1.21633 -1.5331 0
M  V30 891 C 88.3369 -3.36833 1.19491 0
M  V30 892 C 88.0029 -3.63301 2.67063 0
M  V30 893 C 86.6649 -3.70234 3.07376 0
M  V30 894 C 89.0169 -3.74575 3.62413 0
M  V30 895 C 86.3449 -3.85933 4.41896 0
M  V30 896 C 88.6969 -3.91793 4.9667 0
M  V30 897 C 87.3609 -3.96966 5.36633 0
M  V30 898 H 86.6309 -0.685948 0.280278 0
M  V30 899 H 89.2779 -1.38556 1.32192 0
M  V30 900 H 87.5829 -3.87807 0.557969 0
M  V30 901 H 89.2799 -3.89611 0.948893 0
M  V30 902 H 85.8699 -3.58532 2.34846 0
M  V30 903 H 90.0539 -3.68537 3.32406 0
M  V30 904 H 85.3099 -3.88187 4.72357 0
M  V30 905 H 89.4839 -3.99458 5.70444 0
M  V30 906 H 87.1109 -4.08883 6.40874 0
M  V30 907 N 88.686 -0.835752 -1.33615 0
M  V30 908 C 89.934 -0.429109 -1.97492 0
M  V30 909 C 90.255 1.01433 -1.66543 0
M  V30 910 O 89.525 1.70611 -0.962744 0
M  V30 911 H 88.105 -0.155686 -0.730596 0
M  V30 912 H 90.767 -1.06802 -1.63031 0
M  V30 913 H 89.863 -0.55861 -3.0706 0
M  V30 914 N 90.1641 1.46063 -0.591896 0
M  V30 915 C 91.1141 2.27458 0.157172 0
M  V30 916 C 92.0981 1.3641 0.853301 0
M  V30 917 O 93.2901 1.60517 0.74588 0
M  V30 918 C 90.4191 3.22956 1.16423 0
M  V30 919 C 89.5051 4.2149 0.469742 0
M  V30 920 N 89.8961 5.03519 -0.479839 0
M  V30 921 C 88.1941 4.40161 0.719319 0
M  V30 922 C 88.8951 5.74904 -0.886591 0
M  V30 923 N 87.8711 5.43097 -0.233731 0
M  V30 924 H 91.6731 2.88272 -0.572392 0
M  V30 925 H 89.1871 1.57024 -0.414375 0
M  V30 926 H 91.1841 3.79986 1.71513 0
M  V30 927 H 89.8441 2.63701 1.89451 0
M  V30 928 H 90.8551 5.1078 -0.855823 0
M  V30 929 H 87.5321 3.92046 1.43548 0
M  V30 930 H 88.9221 6.50844 -1.66888 0
M  V30 931 N 91.6422 0.330177 1.54103 0
M  V30 932 C 92.8902 -0.269871 2.0029 0
M  V30 933 C 93.2112 -1.52133 1.21986 0
M  V30 934 O 92.4812 -1.93212 0.323438 0
M  V30 935 H 91.0612 -0.10271 0.739905 0
M  V30 936 H 93.7232 0.448249 1.89675 0
M  V30 937 H 92.8192 -0.52166 3.07709 0
M  V30 938 N 93.1203 -1.57491 0.0584922 0
M  V30 939 C 94.0503 -2.14988 -0.911178 0
M  V30 940 C 95.0313 -1.07343 -1.31952 0
M  V30 941 O 96.2163 -1.35318 -1.39294 0
M  V30 942 C 93.3463 -2.70078 -2.18347 0
M  V30 943 C 92.3003 -3.82771 -1.91495 0
M  V30 944 C 91.6263 -4.24408 -3.25241 0
M  V30 945 C 92.9263 -5.07592 -1.23075 0
M  V30 946 H 94.6203 -2.96263 -0.432246 0
M  V30 947 H 92.1663 -1.42512 -0.206469 0
M  V30 948 H 94.1193 -3.08943 -2.86587 0
M  V30 949 H 92.8433 -1.86005 -2.68458 0
M  V30 950 H 91.5023 -3.44389 -1.25664 0
M  V30 951 H 91.1503 -3.37275 -3.73168 0
M  V30 952 H 90.8503 -5.00366 -3.08071 0
M  V30 953 H 92.3743 -4.65879 -3.94701 0
M  V30 954 H 93.7883 -5.43857 -1.81362 0
M  V30 955 H 92.1853 -5.88741 -1.16207 0
M  V30 956 H 93.2553 -4.84454 -0.207847 0
M  V30 957 N 94.5984 0.214957 -1.56127 0
M  V30 958 C 95.5284 1.2695 -1.95974 0
M  V30 959 C 96.5094 1.48539 -0.828868 0
M  V30 960 O 97.6944 1.60611 -1.09168 0
M  V30 961 C 94.8244 2.61794 -2.28214 0
M  V30 962 C 93.7784 2.54851 -3.43853 0
M  V30 963 C 93.1044 3.93785 -3.61715 0
M  V30 964 C 94.4044 2.09065 -4.78632 0
M  V30 965 H 96.0984 0.93846 -2.84312 0
M  V30 966 H 93.6444 0.449996 -1.36788 0
M  V30 967 H 95.5974 3.35731 -2.54682 0
M  V30 968 H 94.3214 2.96599 -1.36736 0
M  V30 969 H 92.9804 1.8337 -3.17444 0
M  V30 970 H 92.6284 4.25908 -2.67602 0
M  V30 971 H 92.3284 3.90019 -4.39498 0
M  V30 972 H 93.8524 4.69374 -3.90539 0
M  V30 973 H 95.2664 2.7275 -5.04262 0
M  V30 974 H 93.6634 2.16346 -5.59745 0
M  V30 975 H 94.7334 1.04315 -4.73547 0
M  V30 976 N 96.0765 1.50051 0.48192 0
M  V30 977 C 97.0065 1.71046 1.58951 0
M  V30 978 C 97.9875 0.559288 1.60642 0
M  V30 979 O 99.1725 0.797243 1.77081 0
M  V30 980 C 96.3025 1.79462 2.97339 0
M  V30 981 C 95.2565 2.94558 3.10515 0
M  V30 982 C 94.5825 2.88105 4.50444 0
M  V30 983 C 95.8825 4.35227 2.88747 0
M  V30 984 H 97.5765 2.6378 1.41635 0
M  V30 985 H 95.1225 1.26936 0.679942 0
M  V30 986 H 97.0755 1.92734 3.74742 0
M  V30 987 H 95.7995 0.833412 3.15788 0
M  V30 988 H 94.4585 2.80918 2.35543 0
M  V30 989 H 94.1065 1.89853 4.65795 0
M  V30 990 H 93.8065 3.65366 4.60197 0
M  V30 991 H 95.3305 3.03412 5.29881 0
M  V30 992 H 96.7445 4.49449 3.55905 0
M  V30 993 H 95.1415 5.13856 3.09955 0
M  V30 994 H 96.2115 4.48347 1.84696 0
M  V30 995 N 97.5546 -0.734337 1.39446 0
M  V30 996 C 98.5176 -1.83004 1.37994 0
M  V30 997 C 99.5176 -1.58397 0.276938 0
M  V30 998 O 100.708 -1.65785 0.534875 0
M  V30 999 C 97.8396 -3.20802 1.1532 0
M  V30 1000 H 99.0326 -1.85694 2.35494 0
M  V30 1001 H 96.5856 -0.938059 1.25021 0
M  V30 1002 H 97.3206 -3.23772 0.185036 0
M  V30 1003 H 97.1056 -3.4006 1.95197 0
M  V30 1004 H 98.5956 -4.00862 1.17046 0
M  V30 1005 N 99.0327 -1.24633 -0.964593 0
M  V30 1006 C 99.9627 -1.06611 -2.07741 0
M  V30 1007 C 100.944 0.0218666 -1.70086 0
M  V30 1008 O 102.129 -0.145793 -1.93652 0
M  V30 1009 C 99.2587 -0.673444 -3.40708 0
M  V30 1010 C 98.2127 -1.71054 -3.92332 0
M  V30 1011 C 97.5387 -1.17285 -5.21678 0
M  V30 1012 C 98.8387 -3.10718 -4.19824 0
M  V30 1013 H 100.533 -1.99693 -2.23076 0
M  V30 1014 H 98.0787 -0.96152 -1.07195 0
M  V30 1015 H 100.032 -0.534345 -4.17998 0
M  V30 1016 H 98.7557 0.293073 -3.25282 0
M  V30 1017 H 97.4147 -1.83791 -3.17201 0
M  V30 1018 H 97.0627 -0.196847 -5.02615 0
M  V30 1019 H 96.7627 -1.86592 -5.57187 0
M  V30 1020 H 98.2867 -1.04593 -6.01575 0
M  V30 1021 H 99.7007 -3.01192 -4.87808 0
M  V30 1022 H 98.0977 -3.77406 -4.66567 0
M  V30 1023 H 99.1677 -3.58524 -3.26479 0
M  V30 1024 N 100.511 1.16574 -1.06058 0
M  V30 1025 C 101.739 1.90952 -0.796552 0
M  V30 1026 C 102.154 1.77302 0.648808 0
M  V30 1027 O 101.511 1.11605 1.44397 0
M  V30 1028 C 101.562 3.41736 -1.17894 0
M  V30 1029 O 101.283 3.54975 -2.56758 0
M  V30 1030 C 102.784 4.33169 -0.942308 0
M  V30 1031 H 100.004 0.605594 -0.288959 0
M  V30 1032 H 102.548 1.47777 -1.41358 0
M  V30 1033 H 100.703 3.82623 -0.606491 0
M  V30 1034 H 101.117 4.4846 -2.72 0
M  V30 1035 H 102.591 5.37439 -1.25952 0
M  V30 1036 H 103.068 4.3903 0.122078 0
M  V30 1037 H 103.674 3.98007 -1.49902 0
M  V30 1038 N 101.989 0.842826 1.3317 0
M  V30 1039 C 103.4 0.496651 1.79973 0
M  V30 1040 C 103.751 -0.984641 1.69703 0
M  V30 1041 O 102.876 -1.76743 1.24863 0
M  V30 1042 C 103.471 0.894727 3.26772 0
M  V30 1043 C 102.03 0.600629 3.71577 0
M  V30 1044 C 101.177 1.10091 2.5451 0
M  V30 1045 H 104.128 1.03116 1.20635 0
M  V30 1046 H 104.149 0.206347 3.7994 0
M  V30 1047 H 103.661 1.97287 3.34215 0
M  V30 1048 H 101.762 -0.467284 3.69658 0
M  V30 1049 H 101.875 1.15863 4.64879 0
M  V30 1050 H 100.239 0.52162 2.49301 0
M  V30 1051 H 101.022 2.18591 2.64713 0
M  V30 1052 N 103.467 -1.45747 0.599634 0
M  V30 1053 C 104.713 -2.02592 0.0918643 0
M  V30 1054 C 105.046 -1.46806 -1.27128 0
M  V30 1055 O 104.321 -0.639658 -1.83681 0
M  V30 1056 C 104.604 -3.60073 0.0443398 0
M  V30 1057 C 104.457 -4.26208 1.43759 0
M  V30 1058 C 105.776 -4.35309 -0.647608 0
M  V30 1059 H 102.895 -0.736175 0.034857 0
M  V30 1060 H 105.537 -1.73694 0.770081 0
M  V30 1061 H 103.687 -3.84823 -0.533224 0
M  V30 1062 H 105.359 -4.12668 2.06162 0
M  V30 1063 H 103.602 -3.84916 2.00056 0
M  V30 1064 H 104.273 -5.35069 1.35665 0
M  V30 1065 H 106.749 -4.15805 -0.156776 0
M  V30 1066 H 105.625 -5.45038 -0.649942 0
M  V30 1067 H 105.886 -4.07598 -1.71219 0
M  V30 1068 N 104.945 -0.338344 -1.53925 0
M  V30 1069 C 106.194 0.260732 -2.00008 0
M  V30 1070 C 106.507 1.52073 -1.23017 0
M  V30 1071 O 107.713 2.19672 -1.5955 0
M  V30 1072 C 106.169 0.51515 -3.56194 0
M  V30 1073 C 105.777 -0.728645 -4.42035 0
M  V30 1074 C 107.521 1.07337 -4.10706 0
M  V30 1075 C 105.428 -0.445315 -5.89721 0
M  V30 1076 H 104.358 0.101205 -0.747177 0
M  V30 1077 H 107.009 -0.452866 -1.77824 0
M  V30 1078 H 105.391 1.28932 -3.74423 0
M  V30 1079 H 106.565 -1.50352 -4.35581 0
M  V30 1080 H 104.88 -1.20813 -3.98489 0
M  V30 1081 H 107.477 1.30022 -5.18651 0
M  V30 1082 H 107.82 2.0273 -3.63602 0
M  V30 1083 H 108.353 0.360034 -3.96167 0
M  V30 1084 H 105.092 -1.36883 -6.41049 0
M  V30 1085 H 104.612 0.291569 -5.99091 0
M  V30 1086 H 106.291 -0.0606218 -6.46972 0
M  V30 1087 N 106.423 1.57458 -0.0668435 0
M  V30 1088 C 107.386 2.11323 0.887422 0
M  V30 1089 C 108.386 1.03618 1.22964 0
M  V30 1090 O 109.576 1.29626 1.16373 0
M  V30 1091 C 106.708 2.61048 2.19242 0
M  V30 1092 H 107.901 2.96942 0.420194 0
M  V30 1093 H 105.454 1.55239 0.181793 0
M  V30 1094 H 106.189 1.78868 2.70512 0
M  V30 1095 H 105.974 3.39769 1.95702 0
M  V30 1096 H 107.464 3.02814 2.87565 0
M  V30 1097 N 107.901 -0.206675 1.56239 0
M  V30 1098 C 108.833 -1.27997 1.9013 0
M  V30 1099 C 109.846 -1.42299 0.790883 0
M  V30 1100 O 111.035 -1.42931 1.06925 0
M  V30 1101 C 108.135 -2.65368 2.10792 0
M  V30 1102 C 107.308 -2.72824 3.41886 0
M  V30 1103 C 106.367 -3.9131 3.51799 0
M  V30 1104 O 105.393 -3.78953 4.24716 0
M  V30 1105 N 106.595 -5.06265 2.84035 0
M  V30 1106 H 109.36 -0.992444 2.82791 0
M  V30 1107 H 106.921 -0.396652 1.56966 0
M  V30 1108 H 108.913 -3.43039 2.14724 0
M  V30 1109 H 107.483 -2.86657 1.24685 0
M  V30 1110 H 106.703 -1.81515 3.49923 0
M  V30 1111 H 107.991 -2.74786 4.28217 0
M  V30 1112 H 107.389 -5.19203 2.246 0
M  V30 1113 H 105.946 -5.81925 2.93609 0
M  V30 1114 N 109.379 -1.50304 -0.473955 0
M  V30 1115 C 110.309 -1.71886 -1.58042 0
M  V30 1116 C 111.29 -0.567799 -1.60344 0
M  V30 1117 O 112.475 -0.806623 -1.76656 0
M  V30 1118 C 109.605 -1.81036 -2.96384 0
M  V30 1119 C 108.559 -2.962 -3.08949 0
M  V30 1120 C 107.885 -2.9049 -4.48909 0
M  V30 1121 C 109.185 -4.36752 -2.86434 0
M  V30 1122 H 110.879 -2.64527 -1.40234 0
M  V30 1123 H 108.425 -1.27295 -0.673201 0
M  V30 1124 H 110.378 -1.94719 -3.73714 0
M  V30 1125 H 109.102 -0.850147 -3.15341 0
M  V30 1126 H 107.761 -2.82164 -2.3405 0
M  V30 1127 H 107.409 -1.92321 -4.64781 0
M  V30 1128 H 107.109 -3.67802 -4.58253 0
M  V30 1129 H 108.633 -3.06218 -5.28264 0
M  V30 1130 H 110.047 -4.5133 -3.53517 0
M  V30 1131 H 108.444 -5.15493 -3.07225 0
M  V30 1132 H 109.514 -4.49321 -1.82316 0
M  V30 1133 N 110.857 0.726932 -1.39834 0
M  V30 1134 C 111.805 1.86235 -1.39353 0
M  V30 1135 C 112.799 1.67144 -0.275555 0
M  V30 1136 O 114.005 1.74387 -0.44601 0
M  V30 1137 H 110.38 0.613174 -0.43534 0
M  V30 1138 H 112.351 1.83756 -2.35109 0
M  V30 1139 C 111.1 3.23995 -1.26185 0
M  V30 1140 H 110.423 3.39285 -2.11484 0
M  V30 1141 H 111.863 4.03609 -1.29907 0
M  V30 1142 C 110.322 3.36888 0.0290018 0
M  V30 1143 O 110.852 3.89152 0.99619 0
M  V30 1144 N 109.058 2.90446 0.0947437 0
M  V30 1145 H 108.605 2.48102 -0.693035 0
M  V30 1146 H 108.563 2.99451 0.957932 0
M  V30 1147 N 112.336 1.25143 0.95797 0
M  V30 1148 C 113.584 1.09476 1.69881 0
M  V30 1149 C 113.905 -0.365502 1.91544 0
M  V30 1150 O 113.175 -1.25985 1.50015 0
M  V30 1151 H 111.755 0.402128 0.629525 0
M  V30 1152 H 114.417 1.57214 1.15194 0
M  V30 1153 H 113.513 1.60046 2.6794 0
M  V30 1154 N 113.814 -1.1601 1.06675 0
M  V30 1155 C 115.039 -1.91068 0.806706 0
M  V30 1156 C 115.464 -1.77112 -0.633485 0
M  V30 1157 O 114.822 -1.09908 -1.44187 0
M  V30 1158 C 114.87 -3.39655 1.21106 0
M  V30 1159 O 113.974 -4.10893 0.352189 0
M  V30 1160 H 113.315 -0.595125 0.294486 0
M  V30 1161 H 115.845 -1.46955 1.42356 0
M  V30 1162 H 115.855 -3.90434 1.18428 0
M  V30 1163 H 114.53 -3.49132 2.26008 0
M  V30 1164 H 113.107 -3.70285 0.440868 0
M  V30 1165 N 115.292 -0.849877 -1.32721 0
M  V30 1166 C 116.54 -0.450032 -1.97026 0
M  V30 1167 C 116.861 0.996604 -1.67609 0
M  V30 1168 O 116.131 1.6958 -0.980786 0
M  V30 1169 H 114.711 -0.163426 -0.728904 0
M  V30 1170 H 117.373 -1.08526 -1.6189 0
M  V30 1171 H 116.469 -0.591146 -3.0645 0
M  V30 1172 N 116.77 1.45427 -0.607355 0
M  V30 1173 C 118.186 1.57283 -0.270985 0
M  V30 1174 C 118.386 1.59875 1.22647 0
M  V30 1175 O 117.442 1.52893 2.00948 0
M  V30 1176 C 118.755 2.85566 -0.941952 0
M  V30 1177 C 120.303 2.9924 -0.917849 0
M  V30 1178 C 120.778 4.30293 -1.56882 0
M  V30 1179 N 122.269 4.37051 -1.5343 0
M  V30 1180 C 123.004 5.37123 -2.00715 0
M  V30 1181 N 122.5 6.43734 -2.56084 0
M  V30 1182 N 124.293 5.28479 -1.91484 0
M  V30 1183 H 116.444 1.41988 -1.57966 0
M  V30 1184 H 118.707 0.67885 -0.661715 0
M  V30 1185 H 118.413 2.8955 -1.99633 0
M  V30 1186 H 118.287 3.74322 -0.465096 0
M  V30 1187 H 120.674 2.94822 0.127984 0
M  V30 1188 H 120.755 2.11895 -1.43297 0
M  V30 1189 H 120.399 4.35469 -2.61398 0
M  V30 1190 H 120.329 5.16454 -1.02873 0
M  V30 1191 H 122.82 3.60615 -1.12982 0
M  V30 1192 H 123.133 7.16341 -2.89958 0
M  V30 1193 H 121.478 6.44485 -2.60122 0
M  V30 1194 H 124.669 4.44098 -1.47967 0
M  V30 1195 H 124.842 6.0632 -2.28648 0
M  V30 1196 N 118.248 0.346503 1.53744 0
M  V30 1197 C 119.664 -0.00530975 1.59599 0
M  V30 1198 C 119.864 -1.48465 1.36236 0
M  V30 1199 O 118.92 -2.24376 1.15808 0
M  V30 1200 C 120.233 0.433516 2.97559 0
M  V30 1201 C 121.781 0.386111 3.10609 0
M  V30 1202 C 122.256 0.800451 4.50951 0
M  V30 1203 N 123.747 0.754753 4.5701 0
M  V30 1204 C 124.482 1.04727 5.63755 0
M  V30 1205 N 123.978 1.4081 6.7834 0
M  V30 1206 N 125.771 0.971316 5.53644 0
M  V30 1207 H 117.922 1.31009 1.67184 0
M  V30 1208 H 120.185 0.534242 0.783128 0
M  V30 1209 H 119.891 1.46509 3.19731 0
M  V30 1210 H 119.765 -0.189753 3.76722 0
M  V30 1211 H 122.152 -0.636295 2.88158 0
M  V30 1212 H 122.233 1.04462 2.33498 0
M  V30 1213 H 121.877 1.82088 4.74137 0
M  V30 1214 H 121.807 0.119386 5.26465 0
M  V30 1215 H 124.298 0.488662 3.74727 0
M  V30 1216 H 124.611 1.61607 7.55714 0
M  V30 1217 H 122.956 1.44657 6.79779 0
M  V30 1218 H 126.147 0.688748 4.63005 0
M  V30 1219 H 126.32 1.20263 6.36742 0
M  V30 1220 N 119.726 -1.57421 0.075193 0
M  V30 1221 C 120.636 -2.1642 -0.905511 0
M  V30 1222 C 121.652 -1.12828 -1.32461 0
M  V30 1223 O 122.828 -1.45109 -1.39661 0
M  V30 1224 C 119.893 -2.71693 -2.15369 0
M  V30 1225 C 118.954 -3.90171 -1.79068 0
M  V30 1226 C 118.187 -4.42798 -2.97936 0
M  V30 1227 O 118.41 -3.94416 -4.12058 0
M  V30 1228 O 117.344 -5.34085 -2.77555 0
M  V30 1229 H 121.17 -3.00588 -0.433626 0
M  V30 1230 H 118.755 -1.48664 -0.148067 0
M  V30 1231 H 120.637 -3.07104 -2.88557 0
M  V30 1232 H 119.312 -1.90582 -2.61649 0
M  V30 1233 H 118.219 -3.59606 -1.03122 0
M  V30 1234 H 119.552 -4.72584 -1.37569 0
M  V30 1235 N 121.204 0.198386 -1.56346 0
M  V30 1236 C 122.62 0.549085 -1.49857 0
M  V30 1237 C 122.82 1.86016 -0.774611 0
M  V30 1238 O 121.876 2.50416 -0.323776 0
M  V30 1239 C 123.189 0.606868 -2.94512 0
M  V30 1240 C 124.737 0.695925 -3.05165 0
M  V30 1241 C 125.212 0.784848 -4.51225 0
M  V30 1242 N 126.703 0.848463 -4.55363 0
M  V30 1243 C 127.438 0.937378 -5.65686 0
M  V30 1244 N 126.934 0.9888 -6.85707 0
M  V30 1245 N 128.727 0.974312 -5.53592 0
M  V30 1246 H 120.878 -0.661655 -2.01831 0
M  V30 1247 H 123.141 -0.235261 -0.918344 0
M  V30 1248 H 122.847 -0.28732 -3.50524 0
M  V30 1249 H 122.721 1.46268 -3.47686 0
M  V30 1250 H 125.108 1.58055 -2.49204 0
M  V30 1251 H 125.189 -0.186022 -2.55123 0
M  V30 1252 H 124.833 -0.0954072 -5.0781 0
M  V30 1253 H 124.763 1.68255 -4.98997 0
M  V30 1254 H 127.254 0.818103 -3.68938 0
M  V30 1255 H 127.567 1.05707 -7.65536 0
M  V30 1256 H 125.912 0.957534 -6.88372 0
M  V30 1257 H 129.103 0.930954 -4.58749 0
M  V30 1258 H 129.276 1.04015 -6.39597 0
M  V30 1259 N 122.682 1.50554 0.465978 0
M  V30 1260 C 123.931 1.61038 1.21448 0
M  V30 1261 C 124.244 0.31865 1.92987 0
M  V30 1262 O 125.45 0.302469 2.6981 0
M  V30 1263 C 123.906 2.84283 2.20706 0
M  V30 1264 C 123.514 4.20352 1.54946 0
M  V30 1265 C 125.258 3.04115 2.96166 0
M  V30 1266 C 123.165 5.34778 2.5252 0
M  V30 1267 H 122.095 0.599718 0.457005 0
M  V30 1268 H 124.746 1.7699 0.484424 0
M  V30 1269 H 123.128 2.61901 2.97025 0
M  V30 1270 H 124.302 4.53008 0.843811 0
M  V30 1271 H 122.617 4.06167 0.917475 0
M  V30 1272 H 125.214 3.86774 3.69202 0
M  V30 1273 H 125.557 2.16045 3.55852 0
M  V30 1274 H 126.09 3.26702 2.26959 0
M  V30 1275 H 122.829 6.25018 1.97566 0
M  V30 1276 H 122.349 5.06534 3.21222 0
M  V30 1277 H 124.028 5.65561 3.14245 0
M  V30 1278 N 124.16 -0.719506 1.40217 0
M  V30 1279 C 125.123 -1.8153 1.39927 0
M  V30 1280 C 126.123 -1.58095 0.293723 0
M  V30 1281 O 127.313 -1.65209 0.552429 0
M  V30 1282 C 124.445 -3.19561 1.18716 0
M  V30 1283 H 125.638 -1.83186 2.37451 0
M  V30 1284 H 123.191 -0.924746 1.26008 0
M  V30 1285 H 123.926 -3.23557 0.219366 0
M  V30 1286 H 123.711 -3.3797 1.98793 0
M  V30 1287 H 125.201 -3.99598 1.21291 0
M  V30 1288 N 125.638 -1.25649 -0.95132 0
M  V30 1289 C 126.588 -1.03004 -2.03406 0
M  V30 1290 C 127.572 0.034187 -1.60864 0
M  V30 1291 O 128.764 -0.181549 -1.76066 0
M  V30 1292 C 125.893 -0.654255 -3.37008 0
M  V30 1293 C 124.979 -1.75542 -3.86065 0
M  V30 1294 N 125.37 -2.99113 -4.07879 0
M  V30 1295 C 123.668 -1.63669 -4.14884 0
M  V30 1296 C 124.369 -3.70611 -4.48356 0
M  V30 1297 N 123.345 -2.98247 -4.54477 0
M  V30 1298 H 127.147 -1.96813 -2.1827 0
M  V30 1299 H 124.661 -1.16017 -1.13639 0
M  V30 1300 H 126.658 -0.473206 -4.14206 0
M  V30 1301 H 125.318 0.276468 -3.23521 0
M  V30 1302 H 126.329 -3.35124 -3.94857 0
M  V30 1303 H 123.006 -0.775161 -4.10241 0
M  V30 1304 H 124.396 -4.76695 -4.73509 0
M  V30 1305 N 127.117 1.15442 -1.07289 0
M  V30 1306 C 128.049 2.19773 -0.650585 0
M  V30 1307 C 129.062 1.60076 0.296572 0
M  V30 1308 O 130.251 1.78293 0.0859905 0
M  V30 1309 C 127.351 3.38838 0.0650398 0
M  V30 1310 C 126.524 4.2808 -0.898141 0
M  V30 1311 C 125.583 5.2574 -0.219926 0
M  V30 1312 O 124.609 5.62654 -0.860773 0
M  V30 1313 N 125.811 5.71205 1.03466 0
M  V30 1314 H 128.576 2.56622 -1.54808 0
M  V30 1315 H 126.137 1.30551 -0.957494 0
M  V30 1316 H 128.129 4.01222 0.529415 0
M  V30 1317 H 126.699 3.00409 0.864466 0
M  V30 1318 H 125.919 3.62804 -1.54165 0
M  V30 1319 H 127.207 4.84577 -1.5512 0
M  V30 1320 H 126.605 5.43325 1.57526 0
M  V30 1321 H 125.162 6.35633 1.44272 0
M  V30 1322 N 128.595 0.856903 1.32268 0
M  V30 1323 C 129.841 0.462069 1.97466 0
M  V30 1324 C 130.174 -0.980298 1.67642 0
M  V30 1325 O 129.449 -1.68824 0.965858 0
M  V30 1326 C 129.732 0.704336 3.53145 0
M  V30 1327 C 129.585 2.19529 3.9259 0
M  V30 1328 C 130.904 0.1622 4.39801 0
M  V30 1329 H 128.023 0.169357 0.717278 0
M  V30 1330 H 130.665 1.07574 1.56614 0
M  V30 1331 H 128.815 0.181999 3.88073 0
M  V30 1332 H 130.487 2.78387 3.67829 0
M  V30 1333 H 128.73 2.67292 3.41668 0
M  V30 1334 H 129.401 2.31549 5.01088 0
M  V30 1335 H 131.877 0.608905 4.11621 0
M  V30 1336 H 130.753 0.361265 5.4771 0
M  V30 1337 H 131.014 -0.935158 4.32096 0
M  V30 1338 N 130.073 -1.45103 0.615059 0
M  V30 1339 C 131.489 -1.57137 0.279322 0
M  V30 1340 C 131.689 -1.60523 -1.21797 0
M  V30 1341 O 130.745 -1.53956 -2.00134 0
M  V30 1342 C 132.058 -2.85062 0.957083 0
M  V30 1343 C 133.606 -2.98749 0.933706 0
M  V30 1344 C 134.081 -4.29455 1.59162 0
M  V30 1345 N 135.572 -4.36231 1.55746 0
M  V30 1346 C 136.307 -5.36051 2.0356 0
M  V30 1347 N 135.803 -6.42367 2.59494 0
M  V30 1348 N 137.596 -5.27456 1.94284 0
M  V30 1349 H 129.747 -1.41148 1.58717 0
M  V30 1350 H 132.01 -0.675331 0.665306 0
M  V30 1351 H 131.716 -2.88488 2.01166 0
M  V30 1352 H 131.59 -3.7407 0.48494 0
M  V30 1353 H 133.977 -2.94886 -0.112347 0
M  V30 1354 H 134.058 -2.11132 1.44419 0
M  V30 1355 H 133.702 -4.34077 2.63704 0
M  V30 1356 H 133.632 -5.15901 1.0561 0
M  V30 1357 H 136.123 -3.60011 1.14893 0
M  V30 1358 H 136.436 -7.14793 2.93752 0
M  V30 1359 H 134.781 -6.43097 2.63537 0
M  V30 1360 H 137.972 -4.43308 1.5032 0
M  V30 1361 H 138.145 -6.05099 2.3186 0
M  V30 1362 N 131.551 -0.354651 -1.53558 0
M  V30 1363 C 132.483 0.5315 -2.22952 0
M  V30 1364 C 133.496 1.05503 -1.23988 0
M  V30 1365 O 134.685 0.963279 -1.50277 0
M  V30 1366 C 131.785 1.74538 -2.90499 0
M  V30 1367 C 130.958 1.35524 -4.15875 0
M  V30 1368 C 130.017 2.42999 -4.66731 0
M  V30 1369 O 129.043 2.05844 -5.30676 0
M  V30 1370 N 130.245 3.74423 -4.43608 0
M  V30 1371 H 133.01 -0.0628615 -2.99634 0
M  V30 1372 H 130.571 -0.179302 -1.60904 0
M  V30 1373 H 132.563 2.45892 -3.21433 0
M  V30 1374 H 131.133 2.24686 -2.17336 0
M  V30 1375 H 130.353 0.471998 -3.91364 0
M  V30 1376 H 131.641 1.07071 -4.97406 0
M  V30 1377 H 131.039 4.07391 -3.92491 0
M  V30 1378 H 129.596 4.41913 -4.7912 0
M  V30 1379 N 133.029 1.57378 -0.0835403 0
M  V30 1380 C 134.277 1.93547 0.581718 0
M  V30 1381 C 134.598 0.96524 1.69435 0
M  V30 1382 O 133.868 0.0153369 1.95894 0
M  V30 1383 H 132.448 0.714521 0.217874 0
M  V30 1384 H 135.11 1.94366 -0.144158 0
M  V30 1385 H 134.206 2.95665 0.999423 0
M  V30 1386 N 134.507 -0.190092 1.56449 0
M  V30 1387 C 135.754 -0.909705 1.80916 0
M  V30 1388 C 136.082 -1.83047 0.657583 0
M  V30 1389 O 135.337 -1.92428 -0.356356 0
M  V30 1390 C 135.636 -1.75382 3.1141 0
M  V30 1391 C 135.302 -0.983606 4.40041 0
M  V30 1392 C 133.964 -0.770967 4.74984 0
M  V30 1393 C 136.316 -0.442024 5.19322 0
M  V30 1394 C 133.644 -0.0053448 5.867 0
M  V30 1395 C 135.996 0.310412 6.31838 0
M  V30 1396 C 134.66 0.534023 6.6536 0
M  V30 1397 H 133.93 -0.332885 0.662019 0
M  V30 1398 H 136.577 -0.175762 1.90692 0
M  V30 1399 H 134.882 -2.55659 2.96893 0
M  V30 1400 H 136.579 -2.31331 3.27547 0
M  V30 1401 H 133.169 -1.15936 4.12622 0
M  V30 1402 H 137.353 -0.593693 4.92736 0
M  V30 1403 H 132.609 0.177825 6.11141 0
M  V30 1404 H 136.783 0.737419 6.92485 0
M  V30 1405 H 134.41 1.12918 7.51767 0
M  V30 1406 N 135.985 -1.50799 -0.457987 0
M  V30 1407 C 137.231 -1.63648 -1.20792 0
M  V30 1408 C 137.586 -0.338662 -1.89396 0
M  V30 1409 O 136.879 0.664291 -1.79716 0
M  V30 1410 C 137.073 -2.76358 -2.2663 0
M  V30 1411 C 136.902 -4.16974 -1.68411 0
M  V30 1412 C 135.672 -4.83199 -1.47807 0
M  V30 1413 C 137.87 -5.00774 -1.17176 0
M  V30 1414 N 135.852 -6.07991 -0.849692 0
M  V30 1415 C 137.223 -6.16397 -0.667403 0
M  V30 1416 C 139.278 -4.86452 -1.06155 0
M  V30 1417 C 137.981 -7.19272 -0.0636908 0
M  V30 1418 C 140.007 -5.89515 -0.471759 0
M  V30 1419 C 139.369 -7.04397 0.0221557 0
M  V30 1420 H 135.468 -0.652888 -0.43042 0
M  V30 1421 H 138.052 -1.87962 -0.507785 0
M  V30 1422 H 136.223 -2.53744 -2.94056 0
M  V30 1423 H 137.955 -2.78496 -2.93636 0
M  V30 1424 H 134.71 -4.40714 -1.73403 0
M  V30 1425 H 135.134 -6.74733 -0.553537 0
M  V30 1426 H 139.776 -3.97907 -1.42932 0
M  V30 1427 H 137.494 -8.07481 0.316253 0
M  V30 1428 H 141.08 -5.805 -0.388671 0
M  V30 1429 H 139.96 -7.82782 0.471375 0
M  V30 1430 N 137.463 0.71206 -1.40597 0
M  V30 1431 C 138.393 1.83889 -1.43899 0
M  V30 1432 C 139.374 1.67442 -0.299504 0
M  V30 1433 O 140.559 1.87421 -0.508624 0
M  V30 1434 C 137.689 3.21877 -1.30431 0
M  V30 1435 C 136.643 3.53002 -2.42019 0
M  V30 1436 C 135.969 4.90172 -2.13626 0
M  V30 1437 C 137.269 3.53643 -3.84362 0
M  V30 1438 H 138.963 1.81383 -2.38203 0
M  V30 1439 H 136.509 0.871237 -1.14654 0
M  V30 1440 H 138.462 4.00404 -1.31357 0
M  V30 1441 H 137.186 3.24968 -0.326049 0
M  V30 1442 H 135.845 2.76818 -2.40349 0
M  V30 1443 H 135.493 4.89869 -1.14182 0
M  V30 1444 H 135.193 5.11962 -2.88389 0
M  V30 1445 H 136.717 5.71028 -2.1624 0
M  V30 1446 H 138.131 4.22203 -3.87837 0
M  V30 1447 H 136.528 3.86961 -4.58673 0
M  V30 1448 H 137.598 2.52954 -4.13693 0
M  V30 1449 N 138.941 1.26152 0.944643 0
M  V30 1450 C 139.904 1.07474 2.0244 0
M  V30 1451 C 140.904 0.0242064 1.60782 0
M  V30 1452 O 142.094 0.267302 1.72137 0
M  V30 1453 C 139.226 0.633956 3.34953 0
M  V30 1454 H 140.419 2.03336 2.20442 0
M  V30 1455 H 137.972 1.087 1.12312 0
M  V30 1456 H 138.707 -0.326811 3.22649 0
M  V30 1457 H 138.492 1.39247 3.66542 0
M  V30 1458 H 139.982 0.52501 4.14287 0
M  V30 1459 N 140.419 -1.14872 1.07899 0
M  V30 1460 C 141.667 -1.85422 0.803941 0
M  V30 1461 C 141.988 -1.83051 -0.67211 0
M  V30 1462 O 141.258 -1.27532 -1.48703 0
M  V30 1463 H 139.838 -0.686537 0.294408 0
M  V30 1464 H 142.5 -1.39226 1.3639 0
M  V30 1465 H 141.596 -2.90399 1.14346 0
M  V30 1466 N 141.898 -0.863906 -1.31812 0
M  V30 1467 C 143.145 -0.471836 -1.96926 0
M  V30 1468 C 143.473 0.974578 -1.68322 0
M  V30 1469 O 142.728 1.7003 -0.968933 0
M  V30 1470 C 143.027 -0.668547 -3.51091 0
M  V30 1471 C 142.693 -2.08683 -3.99703 0
M  V30 1472 C 141.355 -2.47471 -4.12688 0
M  V30 1473 C 143.707 -3.01207 -4.25351 0
M  V30 1474 C 141.035 -3.78037 -4.4867 0
M  V30 1475 C 143.387 -4.31282 -4.62794 0
M  V30 1476 C 142.051 -4.69992 -4.73987 0
M  V30 1477 H 141.321 -0.172657 -0.720604 0
M  V30 1478 H 143.968 -1.09573 -1.57054 0
M  V30 1479 H 142.273 0.0385252 -3.91781 0
M  V30 1480 H 143.97 -0.345102 -3.99512 0
M  V30 1481 H 140.56 -1.77566 -3.90087 0
M  V30 1482 H 144.744 -2.72469 -4.14819 0
M  V30 1483 H 140 -4.078 -4.55532 0
M  V30 1484 H 144.174 -5.03031 -4.81594 0
M  V30 1485 H 141.801 -5.71207 -5.01624 0
M  V30 1486 N 143.376 1.44774 -0.622745 0
M  V30 1487 C 144.622 2.0242 -0.124083 0
M  V30 1488 C 144.955 1.4881 1.24777 0
M  V30 1489 O 144.23 0.668799 1.8264 0
M  V30 1490 C 144.513 3.59957 -0.101619 0
M  V30 1491 C 144.366 4.23867 -1.50521 0
M  V30 1492 C 145.685 4.36284 0.578272 0
M  V30 1493 H 142.804 0.735528 -0.0465645 0
M  V30 1494 H 145.446 1.72447 -0.797617 0
M  V30 1495 H 143.596 3.85623 0.471934 0
M  V30 1496 H 145.268 4.09336 -2.12701 0
M  V30 1497 H 143.511 3.81684 -2.06154 0
M  V30 1498 H 144.182 5.32843 -1.4416 0
M  V30 1499 H 146.658 4.16001 0.0906057 0
M  V30 1500 H 145.534 5.46004 0.563149 0
M  V30 1501 H 145.795 4.10271 1.64713 0
M  V30 1502 N 144.854 0.36279 1.53368 0
M  V30 1503 C 146.079 -0.231226 2.06107 0
M  V30 1504 C 146.504 -1.419 1.23474 0
M  V30 1505 O 145.862 -1.79524 0.253128 0
M  V30 1506 C 145.91 -0.605523 3.5548 0
M  V30 1507 O 145.014 -1.70312 3.7559 0
M  V30 1508 H 144.355 -0.034327 0.663112 0
M  V30 1509 H 146.885 0.522584 1.97814 0
M  V30 1510 H 146.895 -0.877314 3.98456 0
M  V30 1511 H 145.57 0.263004 4.15068 0
M  V30 1512 H 144.147 -1.4271 3.44512 0
M  V30 1513 N 146.332 -1.57332 0.0918853 0
M  V30 1514 C 147.578 -1.94524 -0.573425 0
M  V30 1515 C 147.911 -0.973578 -1.68033 0
M  V30 1516 O 147.186 -0.00609226 -1.94499 0
M  V30 1517 C 147.469 -3.41858 -1.13161 0
M  V30 1518 C 147.322 -4.4979 -0.0299747 0
M  V30 1519 C 148.641 -3.90435 -2.03098 0
M  V30 1520 H 145.76 -0.70734 -0.206975 0
M  V30 1521 H 148.402 -1.89309 0.161942 0
M  V30 1522 H 146.552 -3.46433 -1.7583 0
M  V30 1523 H 148.224 -4.57327 0.604112 0
M  V30 1524 H 146.467 -4.291 0.636833 0
M  V30 1525 H 147.138 -5.50069 -0.461287 0
M  V30 1526 H 149.614 -3.87992 -1.50338 0
M  V30 1527 H 148.49 -4.94097 -2.39081 0
M  V30 1528 H 148.751 -3.29541 -2.94712 0
M  V30 1529 N 147.81 0.181792 -1.56548 0
M  V30 1530 C 148.74 1.22765 -1.98623 0
M  V30 1531 C 149.721 1.46747 -0.860189 0
M  V30 1532 O 150.906 1.58259 -1.12551 0
M  V30 1533 C 148.036 2.56894 -2.33715 0
M  V30 1534 C 146.99 2.475 -3.49182 0
M  V30 1535 C 146.316 3.86023 -3.69986 0
M  V30 1536 C 147.616 1.98866 -4.82959 0
M  V30 1537 H 149.31 0.877942 -2.86239 0
M  V30 1538 H 146.856 0.42088 -1.37712 0
M  V30 1539 H 148.809 3.30253 -2.61746 0
M  V30 1540 H 147.533 2.93632 -1.42997 0
M  V30 1541 H 146.192 1.76596 -3.21262 0
M  V30 1542 H 145.84 4.20136 -2.76576 0
M  V30 1543 H 145.54 3.80609 -4.47672 0
M  V30 1544 H 147.064 4.60984 -4.00407 0
M  V30 1545 H 148.478 2.61992 -5.09934 0
M  V30 1546 H 146.875 2.04424 -5.64208 0
M  V30 1547 H 147.945 0.942465 -4.75653 0
M  V30 1548 N 149.288 1.51039 0.449983 0
M  V30 1549 C 150.537 1.62317 1.19733 0
M  V30 1550 C 150.85 0.339101 1.92638 0
M  V30 1551 O 152.056 0.331069 2.69474 0
M  V30 1552 C 150.512 2.86608 2.17678 0
M  V30 1553 C 150.12 4.21972 1.50479 0
M  V30 1554 C 151.864 3.07239 2.92924 0
M  V30 1555 C 149.771 5.37426 2.46834 0
M  V30 1556 H 148.701 0.604532 0.450619 0
M  V30 1557 H 151.352 1.77494 0.465625 0
M  V30 1558 H 149.734 2.65037 2.94231 0
M  V30 1559 H 150.908 4.53878 0.795716 0
M  V30 1560 H 149.223 4.07117 0.874344 0
M  V30 1561 H 151.82 3.90668 3.65079 0
M  V30 1562 H 152.163 2.19807 3.5354 0
M  V30 1563 H 152.696 3.29091 2.23481 0
M  V30 1564 H 149.435 6.27079 1.90926 0
M  V30 1565 H 148.955 5.09912 3.15832 0
M  V30 1566 H 150.634 5.68862 3.08228 0
M  V30 1567 N 150.766 -0.704594 1.40972 0
M  V30 1568 C 151.699 -1.82861 1.36518 0
M  V30 1569 C 152.677 -1.6091 0.23382 0
M  V30 1570 O 153.861 -1.83778 0.419271 0
M  V30 1571 C 150.988 -3.1939 1.12729 0
M  V30 1572 C 150.034 -3.60148 2.28463 0
M  V30 1573 S 150.867 -3.65994 3.90907 0
M  V30 1574 C 152.023 -5.05264 3.69403 0
M  V30 1575 H 152.256 -1.86361 2.3164 0
M  V30 1576 H 149.789 -0.872439 1.27389 0
M  V30 1577 H 151.747 -3.98211 0.996893 0
M  V30 1578 H 150.408 -3.1351 0.192427 0
M  V30 1579 H 149.601 -4.59309 2.07489 0
M  V30 1580 H 149.203 -2.88612 2.37863 0
M  V30 1581 H 151.495 -5.92504 3.28551 0
M  V30 1582 H 152.438 -5.31278 4.68134 0
M  V30 1583 H 152.846 -4.76377 3.02862 0
M  V30 1584 N 152.244 -1.26651 -0.937939 0
M  V30 1585 C 153.174 -1.10993 -2.05433 0
M  V30 1586 C 154.155 -0.0142161 -1.70094 0
M  V30 1587 O 155.34 -0.186837 -1.93299 0
M  V30 1588 C 152.47 -0.745561 -3.39203 0
M  V30 1589 C 151.424 -1.79337 -3.88616 0
M  V30 1590 C 150.75 -1.28324 -5.19073 0
M  V30 1591 C 152.05 -3.19553 -4.13138 0
M  V30 1592 H 153.744 -2.0438 -2.1879 0
M  V30 1593 H 151.29 -0.984041 -1.05131 0
M  V30 1594 H 153.243 -0.622888 -4.16771 0
M  V30 1595 H 151.967 0.22401 -3.25831 0
M  V30 1596 H 150.626 -1.90477 -3.13231 0
M  V30 1597 H 150.274 -0.303414 -5.02084 0
M  V30 1598 H 149.974 -1.98369 -5.53103 0
M  V30 1599 H 151.498 -1.1733 -5.99221 0
M  V30 1600 H 152.912 -3.11471 -4.81309 0
M  V30 1601 H 151.309 -3.87218 -4.58457 0
M  V30 1602 H 152.379 -3.65368 -3.18801 0
M  V30 1603 N 153.722 1.14298 -1.08507 0
M  V30 1604 C 154.968 1.85633 -0.816581 0
M  V30 1605 C 155.301 1.82784 0.656021 0
M  V30 1606 O 154.576 1.25926 1.48233 0
M  V30 1607 C 154.859 3.34223 -1.34041 0
M  V30 1608 C 154.712 3.45639 -2.87843 0
M  V30 1609 C 156.031 4.29356 -0.9665 0
M  V30 1610 H 153.15 0.67402 -0.298104 0
M  V30 1611 H 155.792 1.34214 -1.34487 0
M  V30 1612 H 153.942 3.78144 -0.89104 0
M  V30 1613 H 155.614 3.10498 -3.41158 0
M  V30 1614 H 153.857 2.86817 -3.25451 0
M  V30 1615 H 154.528 4.50089 -3.19569 0
M  V30 1616 H 157.004 3.93457 -1.35391 0
M  V30 1617 H 155.88 5.3178 -1.3602 0
M  V30 1618 H 156.141 4.41919 0.126362 0
M  V30 1619 N 155.201 0.870884 1.31352 0
M  V30 1620 C 156.131 0.343096 2.30966 0
M  V30 1621 C 157.112 -0.566507 1.60389 0
M  V30 1622 O 158.297 -0.483336 1.88089 0
M  V30 1623 C 155.427 -0.455487 3.443 0
M  V30 1624 C 154.381 0.361103 4.26474 0
M  V30 1625 C 153.707 -0.563221 5.31725 0
M  V30 1626 C 155.007 1.59566 4.97329 0
M  V30 1627 H 156.701 1.17548 2.75359 0
M  V30 1628 H 154.247 0.566686 1.32381 0
M  V30 1629 H 156.2 -0.83525 4.13039 0
M  V30 1630 H 154.924 -1.32139 2.98675 0
M  V30 1631 H 153.583 0.722825 3.59403 0
M  V30 1632 H 153.231 -1.42643 4.82351 0
M  V30 1633 H 152.931 -0.0207409 5.87596 0
M  V30 1634 H 154.455 -0.939808 6.03324 0
M  V30 1635 H 155.869 1.28728 5.58661 0
M  V30 1636 H 154.266 2.07728 5.63 0
M  V30 1637 H 155.336 2.34798 4.24262 0
M  V30 1638 N 156.679 -1.44442 0.630414 0
M  V30 1639 C 157.925 -2.02894 0.143332 0
M  V30 1640 C 158.28 -1.48697 -1.22094 0
M  V30 1641 O 157.573 -0.661171 -1.79831 0
M  V30 1642 C 157.767 -3.57332 0.0697835 0
M  V30 1643 C 157.596 -4.26512 1.42539 0
M  V30 1644 C 156.366 -4.63516 2.01198 0
M  V30 1645 C 158.564 -4.57004 2.35907 0
M  V30 1646 N 156.546 -5.17661 3.30001 0
M  V30 1647 C 157.917 -5.12223 3.49324 0
M  V30 1648 C 159.972 -4.38955 2.34995 0
M  V30 1649 C 158.675 -5.51295 4.62024 0
M  V30 1650 C 160.701 -4.79075 3.46758 0
M  V30 1651 C 160.063 -5.34407 4.58899 0
M  V30 1652 H 156.162 -0.776041 0.0963523 0
M  V30 1653 H 158.746 -1.75945 0.833752 0
M  V30 1654 H 156.917 -3.83894 -0.589915 0
M  V30 1655 H 158.649 -4.02451 -0.42606 0
M  V30 1656 H 155.404 -4.47811 1.54151 0
M  V30 1657 H 155.828 -5.4921 3.95851 0
M  V30 1658 H 160.47 -3.95469 1.49545 0
M  V30 1659 H 158.188 -5.93736 5.48182 0
M  V30 1660 H 161.774 -4.66824 3.47227 0
M  V30 1661 H 160.654 -5.64878 5.4395 0
M  V30 1662 N 158.157 -0.370918 -1.53173 0
M  V30 1663 C 159.105 0.488101 -2.27421 0
M  V30 1664 C 160.099 1.07884 -1.30604 0
M  V30 1665 O 161.305 1.02143 -1.48212 0
M  V30 1666 H 157.68 0.176134 -0.731082 0
M  V30 1667 H 159.651 -0.159815 -2.97972 0
M  V30 1668 C 158.4 1.61306 -3.08019 0
M  V30 1669 H 157.723 1.1678 -3.82364 0
M  V30 1670 H 159.163 2.18872 -3.63141 0
M  V30 1671 C 157.622 2.55848 -2.19188 0
M  V30 1672 O 158.152 3.58799 -1.80626 0
M  V30 1673 N 156.358 2.2516 -1.83715 0
M  V30 1674 H 155.905 1.41476 -2.15273 0
M  V30 1675 H 155.863 2.8867 -1.24567 0
M  V30 1676 N 159.635 1.57281 -0.100228 0
M  V30 1677 C 160.598 2.13158 0.842398 0
M  V30 1678 C 161.598 1.06202 1.20738 0
M  V30 1679 O 162.788 1.32066 1.13597 0
M  V30 1680 C 159.92 2.65639 2.13655 0
M  V30 1681 H 161.113 2.97766 0.357114 0
M  V30 1682 H 158.666 1.5559 0.148823 0
M  V30 1683 H 159.401 1.84566 2.66657 0
M  V30 1684 H 159.186 3.43844 1.88451 0
M  V30 1685 H 160.676 3.08846 2.81077 0
M  V30 1686 N 161.113 -0.173488 1.56642 0
M  V30 1687 C 162.361 -0.888706 1.81512 0
M  V30 1688 C 162.682 -1.82875 0.676872 0
M  V30 1689 O 161.952 -1.93536 -0.303414 0
M  V30 1690 H 160.532 -0.331164 0.669582 0
M  V30 1691 H 163.194 -0.173823 1.94123 0
M  V30 1692 H 162.29 -1.46691 2.75478 0
M  V30 1693 N 162.591 -1.51276 -0.441967 0
M  V30 1694 C 163.821 -1.67273 -1.21257 0
M  V30 1695 C 164.229 -0.367624 -1.85594 0
M  V30 1696 O 163.572 0.663349 -1.71305 0
M  V30 1697 C 163.634 -2.72807 -2.34129 0
M  V30 1698 C 163.298 -4.1554 -1.90198 0
M  V30 1699 C 164.295 -5.00471 -1.40801 0
M  V30 1700 C 161.98 -4.61616 -1.9803 0
M  V30 1701 C 163.974 -6.29536 -0.998174 0
M  V30 1702 C 161.661 -5.90679 -1.56658 0
M  V30 1703 C 162.659 -6.74466 -1.07633 0
M  V30 1704 O 162.347 -8.01116 -0.668459 0
M  V30 1705 H 162.079 -0.564614 -0.371734 0
M  V30 1706 H 164.633 -1.9843 -0.530521 0
M  V30 1707 H 162.863 -2.36954 -3.05597 0
M  V30 1708 H 164.552 -2.77729 -2.96009 0
M  V30 1709 H 165.318 -4.66079 -1.34148 0
M  V30 1710 H 161.197 -3.96526 -2.35135 0
M  V30 1711 H 164.741 -6.94885 -0.61482 0
M  V30 1712 H 160.638 -6.24586 -1.62979 0
M  V30 1713 H 161.406 -8.14633 -0.794722 0
M  V30 1714 N 164.069 0.697108 -1.41344 0
M  V30 1715 C 165.318 1.45279 -1.39918 0
M  V30 1716 C 165.631 1.95597 -0.0109624 0
M  V30 1717 O 166.837 2.71208 0.125919 0
M  V30 1718 C 165.293 2.62695 -2.46007 0
M  V30 1719 C 164.901 2.19169 -3.90729 0
M  V30 1720 C 166.645 3.40336 -2.53715 0
M  V30 1721 C 164.552 3.33535 -4.88373 0
M  V30 1722 H 163.482 0.545692 -0.520323 0
M  V30 1723 H 166.133 0.756929 -1.67161 0
M  V30 1724 H 164.515 3.34541 -2.11892 0
M  V30 1725 H 165.689 1.54623 -4.34083 0
M  V30 1726 H 164.004 1.54525 -3.86666 0
M  V30 1727 H 166.601 4.2547 -3.2385 0
M  V30 1728 H 166.944 3.85418 -1.5735 0
M  V30 1729 H 167.477 2.75546 -2.86913 0
M  V30 1730 H 164.216 2.93468 -5.86137 0
M  V30 1731 H 163.736 3.96936 -4.49668 0
M  V30 1732 H 165.415 3.99335 -5.09059 0
M  V30 1733 N 165.547 1.27147 0.931209 0
M  V30 1734 C 166.796 1.12664 1.67302 0
M  V30 1735 C 167.109 -0.327718 1.92835 0
M  V30 1736 O 168.315 -0.593392 2.64936 0
M  V30 1737 C 166.771 1.9683 3.01307 0
M  V30 1738 C 166.379 3.46901 2.83485 0
M  V30 1739 C 168.123 1.90985 3.79111 0
M  V30 1740 C 166.03 4.23279 4.13024 0
M  V30 1741 H 164.96 0.41803 0.627509 0
M  V30 1742 H 167.611 1.51539 1.03481 0
M  V30 1743 H 165.993 1.50797 3.66164 0
M  V30 1744 H 167.167 4.00773 2.27415 0
M  V30 1745 H 165.482 3.54088 2.19113 0
M  V30 1746 H 168.079 2.45328 4.75098 0
M  V30 1747 H 168.422 0.882718 4.06834 0
M  V30 1748 H 168.955 2.34895 3.21044 0
M  V30 1749 H 165.694 5.26503 3.90481 0
M  V30 1750 H 165.214 3.74186 4.6877 0
M  V30 1751 H 166.893 4.32265 4.81411 0
M  V30 1752 N 167.025 -1.13721 1.09112 0
M  V30 1753 C 168.441 -1.36914 0.820174 0
M  V30 1754 C 168.641 -1.93356 -0.567079 0
M  V30 1755 O 167.697 -2.15093 -1.32255 0
M  V30 1756 C 169.01 -2.3235 1.90877 0
M  V30 1757 C 170.558 -2.45973 1.93562 0
M  V30 1758 C 171.033 -3.44714 3.01556 0
M  V30 1759 N 172.524 -3.52263 3.00775 0
M  V30 1760 C 173.259 -4.28536 3.80978 0
M  V30 1761 N 172.755 -5.07991 4.71081 0
M  V30 1762 N 174.548 -4.23804 3.69251 0
M  V30 1763 H 166.699 -0.754348 1.98553 0
M  V30 1764 H 168.962 -0.3944 0.862063 0
M  V30 1765 H 168.668 -1.98027 2.90651 0
M  V30 1766 H 168.542 -3.32332 1.78424 0
M  V30 1767 H 170.929 -2.79584 0.944286 0
M  V30 1768 H 171.01 -1.45926 2.10093 0
M  V30 1769 H 170.654 -3.11835 4.00901 0
M  V30 1770 H 170.584 -4.44558 2.82269 0
M  V30 1771 H 173.075 -2.95567 2.35475 0
M  V30 1772 H 173.388 -5.63487 5.28869 0
M  V30 1773 H 171.733 -5.07235 4.75119 0
M  V30 1774 H 174.924 -3.60806 2.98222 0
M  V30 1775 H 175.097 -4.82995 4.31995 0
M  V30 1776 N 168.503 -0.877838 -1.30888 0
M  V30 1777 C 169.728 -0.506629 -2.01117 0
M  V30 1778 C 170.153 0.895564 -1.65412 0
M  V30 1779 O 169.511 1.5923 -0.866922 0
M  V30 1780 C 169.559 -0.680223 -3.54126 0
M  V30 1781 O 168.663 0.277033 -4.11468 0
M  V30 1782 H 168.004 -0.200518 -0.633 0
M  V30 1783 H 170.534 -1.18342 -1.66902 0
M  V30 1784 H 170.544 -0.5765 -4.03907 0
M  V30 1785 H 169.219 -1.70261 -3.79452 0
M  V30 1786 H 167.796 0.127606 -3.72682 0
M  V30 1787 N 169.982 1.44106 -0.638065 0
M  V30 1788 C 170.915 2.27924 0.112161 0
M  V30 1789 C 171.893 1.38945 0.844574 0
M  V30 1790 O 173.077 1.68386 0.847248 0
M  V30 1791 C 170.204 3.18029 1.16512 0
M  V30 1792 C 169.25 4.23163 0.532458 0
M  V30 1793 S 170.083 5.31131 -0.682666 0
M  V30 1794 C 171.239 6.24805 0.37013 0
M  V30 1795 H 171.472 2.91205 -0.598887 0
M  V30 1796 H 169.005 1.48394 -0.426441 0
M  V30 1797 H 170.963 3.70492 1.76766 0
M  V30 1798 H 169.624 2.53955 1.8484 0
M  V30 1799 H 168.817 4.86252 1.32571 0
M  V30 1800 H 168.419 3.74 0.00437644 0
M  V30 1801 H 170.711 6.66042 1.24071 0
M  V30 1802 H 171.654 7.07741 -0.225349 0
M  V30 1803 H 172.062 5.60154 0.699141 0
M  V30 1804 N 171.46 0.379036 1.52974 0
M  V30 1805 C 172.37 -0.468639 2.29872 0
M  V30 1806 C 173.386 -1.08067 1.36373 0
M  V30 1807 O 174.562 -1.08871 1.69438 0
M  V30 1808 C 171.627 -1.58594 3.083 0
M  V30 1809 C 170.688 -1.00007 4.17489 0
M  V30 1810 C 169.921 -2.06413 4.92168 0
M  V30 1811 O 170.144 -3.27751 4.66835 0
M  V30 1812 O 169.078 -1.68717 5.7777 0
M  V30 1813 H 172.904 0.157508 3.03291 0
M  V30 1814 H 170.489 0.143035 1.48714 0
M  V30 1815 H 172.371 -2.23525 3.57232 0
M  V30 1816 H 171.046 -2.19724 2.37703 0
M  V30 1817 H 169.953 -0.314299 3.72777 0
M  V30 1818 H 171.286 -0.433135 4.90291 0
M  V30 1819 N 172.938 -1.57226 0.108567 0
M  V30 1820 C 173.886 -2.16002 -0.862885 0
M  V30 1821 C 174.88 -1.10644 -1.28274 0
M  V30 1822 O 176.086 -1.28966 -1.2557 0
M  V30 1823 H 172.461 -0.691148 -0.296342 0
M  V30 1824 H 174.432 -2.96427 -0.342575 0
M  V30 1825 C 173.181 -2.76576 -2.10716 0
M  V30 1826 H 172.504 -3.5734 -1.793 0
M  V30 1827 H 173.944 -3.21253 -2.76717 0
M  V30 1828 C 172.403 -1.73137 -2.89007 0
M  V30 1829 O 172.933 -1.17842 -3.84026 0
M  V30 1830 N 171.139 -1.43317 -2.52801 0
M  V30 1831 H 170.686 -1.88473 -1.75601 0
M  V30 1832 H 170.644 -0.743485 -3.05483 0
M  V30 1833 N 174.416 0.165178 -1.56732 0
M  V30 1834 C 175.665 0.879143 -1.81532 0
M  V30 1835 C 175.978 1.83144 -0.686842 0
M  V30 1836 O 177.184 2.58823 -0.819944 0
M  V30 1837 C 175.64 1.61388 -3.21686 0
M  V30 1838 C 175.248 0.704904 -4.4242 0
M  V30 1839 C 176.992 2.3157 -3.55774 0
M  V30 1840 C 174.899 1.44022 -5.73595 0
M  V30 1841 H 173.829 0.332033 -0.676957 0
M  V30 1842 H 176.48 0.132008 -1.83025 0
M  V30 1843 H 174.862 2.40599 -3.14529 0
M  V30 1844 H 176.036 -0.0506815 -4.60772 0
M  V30 1845 H 174.351 0.112419 -4.16248 0
M  V30 1846 H 176.948 2.8719 -4.51028 0
M  V30 1847 H 177.291 3.07201 -2.8095 0
M  V30 1848 H 177.824 1.59297 -3.64513 0
M  V30 1849 H 174.563 0.72612 -6.51466 0
M  V30 1850 H 174.083 2.16898 -5.5921 0
M  V30 1851 H 175.762 1.98606 -6.15764 0
M  V30 1852 N 175.894 1.51508 0.433938 0
M  V30 1853 C 177.171 1.54888 1.19453 0
M  V30 1854 C 177.551 0.315154 2.08734 0
M  V30 1855 O 176.899 -0.699558 2.17528 0
M  V30 1856 C 177.109 2.86467 1.99342 0
M  V30 1857 C 178.457 3.38545 2.56267 0
M  V30 1858 O 179.481 2.88041 2.0955 0
M  V30 1859 O 178.34 4.26675 3.41483 0
M  V30 1860 H 175.434 0.622863 0.544032 0
M  V30 1861 H 177.98 1.63823 0.442732 0
M  V30 1862 H 176.752 3.67718 1.33788 0
M  V30 1863 H 176.375 2.8071 2.8158 0
M  V30 1864 N 177.372 -0.689602 1.41712 0
M  V30 1865 C 178.783 -1.26973 1.36875 0
M  V30 1866 C 179.134 -1.96124 0.054748 0
M  V30 1867 O 178.259 -1.99141 -0.84687 0
M  V30 1868 C 178.854 -2.30912 2.47922 0
M  V30 1869 C 177.413 -2.84486 2.46464 0
M  V30 1870 C 176.56 -1.58603 2.27465 0
M  V30 1871 H 179.511 -0.48396 1.51141 0
M  V30 1872 H 179.532 -3.12331 2.17323 0
M  V30 1873 H 179.044 -1.80554 3.43543 0
M  V30 1874 H 177.145 -3.39005 1.54617 0
M  V30 1875 H 177.258 -3.34511 3.42986 0
M  V30 1876 H 175.622 -1.84632 1.75451 0
M  V30 1877 H 176.405 -1.10233 3.25121 0
M  V30 1878 N 178.85 -1.27639 -0.924453 0
M  V30 1879 C 179.813 -1.10681 -2.00705 0
M  V30 1880 C 180.813 -0.0497823 -1.60723 0
M  V30 1881 O 182.003 -0.294654 -1.7169 0
M  V30 1882 C 179.135 -0.687164 -3.33902 0
M  V30 1883 H 180.328 -2.06817 -2.17179 0
M  V30 1884 H 177.881 -1.10473 -1.10569 0
M  V30 1885 H 178.616 0.275439 -3.23128 0
M  V30 1886 H 178.401 -1.45061 -3.6428 0
M  V30 1887 H 179.891 -0.590853 -4.13399 0
M  V30 1888 N 180.328 1.1314 -1.09713 0
M  V30 1889 C 181.258 2.20748 -0.761102 0
M  V30 1890 C 182.239 1.68061 0.262566 0
M  V30 1891 O 183.424 1.93765 0.129977 0
M  V30 1892 C 180.554 3.46812 -0.184054 0
M  V30 1893 C 179.508 4.12606 -1.13757 0
M  V30 1894 C 178.834 5.33031 -0.422083 0
M  V30 1895 C 180.134 4.59603 -2.48118 0
M  V30 1896 H 181.828 2.49113 -1.66082 0
M  V30 1897 H 179.374 1.19734 -0.799987 0
M  V30 1898 H 181.327 4.21353 0.0631215 0
M  V30 1899 H 180.051 3.17851 0.750868 0
M  V30 1900 H 178.71 3.40036 -1.37007 0
M  V30 1901 H 178.358 5.00335 0.517072 0
M  V30 1902 H 178.058 5.77999 -1.05788 0
M  V30 1903 H 179.582 6.10325 -0.183277 0
M  V30 1904 H 180.996 5.25552 -2.29059 0
M  V30 1905 H 179.393 5.15321 -3.07514 0
M  V30 1906 H 180.463 3.73971 -3.08665 0
M  V30 1907 N 181.806 0.884767 1.30421 0
M  V30 1908 C 182.769 0.356277 2.26414 0
M  V30 1909 C 183.769 -0.501124 1.52792 0
M  V30 1910 O 184.959 -0.30831 1.7145 0
M  V30 1911 C 182.091 -0.492316 3.37326 0
M  V30 1912 H 183.284 1.20389 2.74675 0
M  V30 1913 H 180.837 0.661607 1.41607 0
M  V30 1914 H 181.572 -1.36052 2.94381 0
M  V30 1915 H 181.357 0.121832 3.91911 0
M  V30 1916 H 182.847 -0.853871 4.08777 0
M  V30 1917 N 183.284 -1.43765 0.645699 0
M  V30 1918 C 184.561 -1.9541 0.0862963 0
M  V30 1919 C 184.941 -1.58725 -1.39175 0
M  V30 1920 O 184.289 -0.868581 -2.11348 0
M  V30 1921 C 184.499 -3.47488 0.324565 0
M  V30 1922 C 185.847 -4.24001 0.225497 0
M  V30 1923 O 186.871 -3.55274 0.256715 0
M  V30 1924 O 185.73 -5.46313 0.142801 0
M  V30 1925 H 182.824 -0.826882 -0.0139483 0
M  V30 1926 H 185.37 -1.53743 0.718415 0
M  V30 1927 H 184.142 -3.67289 1.3496 0
M  V30 1928 H 183.765 -3.96135 -0.340987 0
M  V30 1929 N 184.763 -0.387143 -1.52771 0
M  V30 1930 C 185.71 0.449048 -2.26389 0
M  V30 1931 C 186.68 1.05961 -1.27912 0
M  V30 1932 O 187.865 1.08804 -1.56737 0
M  V30 1933 C 185.005 1.57155 -3.0724 0
M  V30 1934 C 184.118 0.984066 -4.20643 0
M  V30 1935 C 183.253 2.07745 -4.88892 0
M  V30 1936 C 182.292 1.46574 -5.94292 0
M  V30 1937 N 181.429 2.49834 -6.56146 0
M  V30 1938 H 186.269 -0.185205 -2.97424 0
M  V30 1939 H 183.806 -0.103164 -1.46738 0
M  V30 1940 H 185.764 2.23309 -3.52405 0
M  V30 1941 H 184.394 2.17615 -2.38419 0
M  V30 1942 H 183.446 0.212193 -3.79808 0
M  V30 1943 H 184.758 0.497029 -4.96318 0
M  V30 1944 H 183.912 2.81673 -5.3735 0
M  V30 1945 H 182.651 2.59807 -4.12737 0
M  V30 1946 H 181.656 0.711696 -5.45174 0
M  V30 1947 H 182.881 0.953088 -6.72379 0
M  V30 1948 H 180.827 3.0107 -5.82832 0
M  V30 1949 H 180.744 2.05879 -7.27427 0
M  V30 1950 H 182.012 3.23399 -7.09249 0
M  V30 1951 N 186.241 1.57166 -0.116904 0
M  V30 1952 C 187.204 2.14039 0.819742 0
M  V30 1953 C 188.204 1.07477 1.19605 0
M  V30 1954 O 189.394 1.33263 1.1219 0
M  V30 1955 C 186.526 2.67891 2.10826 0
M  V30 1956 H 187.719 2.98128 0.325511 0
M  V30 1957 H 185.272 1.55739 0.132312 0
M  V30 1958 H 186.007 1.87384 2.64685 0
M  V30 1959 H 185.792 3.45823 1.84793 0
M  V30 1960 H 187.282 3.11809 2.77785 0
M  V30 1961 N 187.719 -0.156864 1.56817 0
M  V30 1962 C 188.965 -0.872416 1.83076 0
M  V30 1963 C 189.298 -1.81261 0.697001 0
M  V30 1964 O 188.573 -1.92171 -0.30008 0
M  V30 1965 C 188.856 -1.65551 3.19789 0
M  V30 1966 C 188.709 -0.737467 4.43713 0
M  V30 1967 C 190.028 -2.62012 3.53606 0
M  V30 1968 H 187.147 -0.315715 0.665953 0
M  V30 1969 H 189.789 -0.138004 1.89498 0
M  V30 1970 H 187.939 -2.28159 3.14445 0
M  V30 1971 H 189.611 -0.123143 4.61136 0
M  V30 1972 H 187.854 -0.0464067 4.33775 0
M  V30 1973 H 188.525 -1.32122 5.35955 0
M  V30 1974 H 191.001 -2.09525 3.59497 0
M  V30 1975 H 189.877 -3.13861 4.50314 0
M  V30 1976 H 190.138 -3.42902 2.79053 0
M  V30 1977 N 189.197 -1.51736 -0.425897 0
M  V30 1978 C 190.445 -1.64644 -1.17204 0
M  V30 1979 C 190.766 -0.370486 -1.91448 0
M  V30 1980 O 190.036 0.614088 -1.86026 0
M  V30 1981 H 188.616 -0.606819 -0.435638 0
M  V30 1982 H 191.278 -1.88713 -0.487177 0
M  V30 1983 H 190.374 -2.47958 -1.89534 0
M  V30 1984 N 190.675 0.682077 -1.42076 0
M  V30 1985 C 191.905 1.46844 -1.45329 0
M  V30 1986 C 192.313 1.89102 -0.0609328 0
M  V30 1987 O 191.656 1.58238 0.933082 0
M  V30 1988 C 191.718 2.75375 -2.31104 0
M  V30 1989 C 191.382 2.55238 -3.79081 0
M  V30 1990 C 192.379 2.20309 -4.70914 0
M  V30 1991 C 190.064 2.70459 -4.2327 0
M  V30 1992 C 192.058 2.00859 -6.04925 0
M  V30 1993 C 189.745 2.50624 -5.57343 0
M  V30 1994 C 190.743 2.15876 -6.47986 0
M  V30 1995 O 190.431 1.96227 -7.79583 0
M  V30 1996 H 190.163 0.4586 -0.496651 0
M  V30 1997 H 192.717 0.846131 -1.87162 0
M  V30 1998 H 190.947 3.40061 -1.84107 0
M  V30 1999 H 192.636 3.37231 -2.25898 0
M  V30 2000 H 193.402 2.08153 -4.38061 0
M  V30 2001 H 189.281 2.96485 -3.53012 0
M  V30 2002 H 192.825 1.7366 -6.75639 0
M  V30 2003 H 188.722 2.62375 -5.89771 0
M  V30 2004 H 189.49 2.10883 -7.90867 0
M  V30 2005 N 192.153 1.28127 0.917671 0
M  V30 2006 C 193.083 1.14248 2.03641 0
M  V30 2007 C 194.064 0.0412748 1.7005 0
M  V30 2008 O 195.249 0.217566 1.92977 0
M  V30 2009 C 192.379 0.799431 3.37974 0
M  V30 2010 C 191.333 1.85497 3.85713 0
M  V30 2011 C 190.659 1.36565 5.16966 0
M  V30 2012 C 191.959 3.26085 4.08002 0
M  V30 2013 H 193.653 2.07835 2.15511 0
M  V30 2014 H 191.199 1.00064 1.03553 0
M  V30 2015 H 193.152 0.689114 4.15727 0
M  V30 2016 H 191.876 -0.172145 3.26146 0
M  V30 2017 H 190.535 1.95437 3.10161 0
M  V30 2018 H 190.183 0.383253 5.01538 0
M  V30 2019 H 189.883 2.07143 5.49878 0
M  V30 2020 H 191.407 1.26848 5.97279 0
M  V30 2021 H 192.821 3.19089 4.76293 0
M  V30 2022 H 191.218 3.94462 4.52238 0
M  V30 2023 H 192.288 3.70394 3.12948 0
M  V30 2024 N 193.631 -1.12557 1.10312 0
M  V30 2025 C 195.047 -1.36036 0.834649 0
M  V30 2026 C 195.247 -1.93946 -0.546539 0
M  V30 2027 O 194.303 -2.16484 -1.29966 0
M  V30 2028 C 195.616 -2.30312 1.9333 0
M  V30 2029 C 197.164 -2.43906 1.9616 0
M  V30 2030 C 197.639 -3.41496 3.05195 0
M  V30 2031 N 199.13 -3.49053 3.04494 0
M  V30 2032 C 199.865 -4.24471 3.85502 0
M  V30 2033 N 199.361 -5.02966 4.76442 0
M  V30 2034 N 201.154 -4.19864 3.73725 0
M  V30 2035 H 193.305 -0.733246 1.99342 0
M  V30 2036 H 195.568 -0.385234 0.866198 0
M  V30 2037 H 195.274 -1.94933 2.92735 0
M  V30 2038 H 195.148 -3.30421 1.81939 0
M  V30 2039 H 197.535 -2.78567 0.973886 0
M  V30 2040 H 197.616 -1.4369 2.11629 0
M  V30 2041 H 197.26 -3.07565 4.04186 0
M  V30 2042 H 197.19 -4.41539 2.86968 0
M  V30 2043 H 199.681 -2.93053 2.38596 0
M  V30 2044 H 199.994 -5.57846 5.34815 0
M  V30 2045 H 198.339 -5.02167 4.80472 0
M  V30 2046 H 201.53 -3.57623 3.02032 0
M  V30 2047 H 201.703 -4.78386 4.37093 0
M  V30 2048 N 195.109 -0.891671 -1.2995 0
M  V30 2049 C 196.072 -0.36828 -2.26222 0
M  V30 2050 C 197.072 0.493014 -1.53056 0
M  V30 2051 O 198.262 0.299213 -1.71611 0
M  V30 2052 C 195.394 0.47442 -3.37583 0
M  V30 2053 H 196.587 -1.21844 -2.74033 0
M  V30 2054 H 194.14 -0.669107 -1.41254 0
M  V30 2055 H 194.875 1.34489 -2.95099 0
M  V30 2056 H 194.66 -0.142615 -3.91841 0
M  V30 2057 H 196.15 0.83218 -4.09224 0
M  V30 2058 N 196.587 1.43421 -0.653314 0
M  V30 2059 C 197.517 2.33487 0.0246656 0
M  V30 2060 C 198.498 1.49475 0.811863 0
M  V30 2061 O 199.683 1.78139 0.773322 0
M  V30 2062 C 196.813 3.32841 0.99166 0
M  V30 2063 C 195.767 4.26842 0.314568 0
M  V30 2064 C 195.093 5.16236 1.39302 0
M  V30 2065 C 196.393 5.16243 -0.793095 0
M  V30 2066 H 198.087 2.90427 -0.727481 0
M  V30 2067 H 195.633 1.39649 -0.351287 0
M  V30 2068 H 197.586 3.94747 1.47487 0
M  V30 2069 H 196.31 2.74158 1.77497 0
M  V30 2070 H 194.969 3.663 -0.148199 0
M  V30 2071 H 194.617 4.53891 2.16776 0
M  V30 2072 H 194.317 5.79948 0.945223 0
M  V30 2073 H 195.841 5.81015 1.87759 0
M  V30 2074 H 197.255 5.71958 -0.392039 0
M  V30 2075 H 195.652 5.88676 -1.16536 0
M  V30 2076 H 196.722 4.55927 -1.65103 0
M  V30 2077 N 198.065 0.39524 1.52563 0
M  V30 2078 C 198.995 -0.428384 2.29537 0
M  V30 2079 C 199.976 -1.05831 1.33169 0
M  V30 2080 O 201.161 -1.06995 1.62067 0
M  V30 2081 C 198.291 -1.55274 3.10656 0
M  V30 2082 C 197.245 -1.04855 4.14957 0
M  V30 2083 C 196.571 -2.26543 4.84337 0
M  V30 2084 C 197.871 -0.112324 5.22179 0
M  V30 2085 H 199.565 0.213867 2.98635 0
M  V30 2086 H 197.111 0.104298 1.43622 0
M  V30 2087 H 199.064 -2.1358 3.63265 0
M  V30 2088 H 197.788 -2.22266 2.39302 0
M  V30 2089 H 196.447 -0.487985 3.63338 0
M  V30 2090 H 196.095 -2.92059 4.09525 0
M  V30 2091 H 195.795 -1.93466 5.54837 0
M  V30 2092 H 197.319 -2.85481 5.39753 0
M  V30 2093 H 198.733 -0.603752 5.70112 0
M  V30 2094 H 197.13 0.128968 5.99961 0
M  V30 2095 H 198.2 0.837052 4.77621 0
M  V30 2096 N 199.544 -1.57102 0.125237 0
M  V30 2097 C 200.79 -1.96488 -0.525753 0
M  V30 2098 C 201.145 -1.00786 -1.6389 0
M  V30 2099 O 200.438 -0.038979 -1.9156 0
M  V30 2100 C 200.632 -3.40096 -1.09862 0
M  V30 2101 C 200.461 -4.4968 -0.0425004 0
M  V30 2102 C 199.231 -5.03781 0.391463 0
M  V30 2103 C 201.429 -5.08936 0.740829 0
M  V30 2104 N 199.411 -5.96948 1.4327 0
M  V30 2105 C 200.782 -5.98105 1.6331 0
M  V30 2106 C 202.837 -4.91576 0.791029 0
M  V30 2107 C 201.54 -6.71774 2.57122 0
M  V30 2108 C 203.566 -5.6593 1.71688 0
M  V30 2109 C 202.928 -6.5479 2.59672 0
M  V30 2110 H 199.027 -0.765072 -0.161831 0
M  V30 2111 H 201.611 -1.93511 0.214801 0
M  V30 2112 H 199.782 -3.43707 -1.80887 0
M  V30 2113 H 201.514 -3.66591 -1.71444 0
M  V30 2114 H 198.269 -4.736 -0.00213584 0
M  V30 2115 H 198.693 -6.48236 1.95243 0
M  V30 2116 H 203.335 -4.22615 0.124915 0
M  V30 2117 H 201.053 -7.39977 3.24744 0
M  V30 2118 H 204.639 -5.54501 1.76125 0
M  V30 2119 H 203.519 -7.11316 3.30149 0
M  V30 2120 N 201.022 0.148545 -1.56898 0
M  V30 2121 C 202.27 0.859717 -1.82902 0
M  V30 2122 C 202.591 1.81775 -0.70588 0
M  V30 2123 O 201.861 1.93994 0.272586 0
M  V30 2124 H 200.441 0.320469 -0.674766 0
M  V30 2125 H 203.103 0.142918 -1.94375 0
M  V30 2126 H 202.199 1.4229 -2.77777 0
M  V30 2127 N 202.5 1.5196 0.417844 0
M  V30 2128 C 203.463 1.74065 1.49111 0
M  V30 2129 C 204.463 0.610537 1.48758 0
M  V30 2130 O 205.653 0.87832 1.50437 0
M  V30 2131 C 202.785 1.81502 2.88565 0
M  V30 2132 H 203.978 2.69869 1.30807 0
M  V30 2133 H 201.531 1.42244 0.647785 0
M  V30 2134 H 202.266 0.875813 3.1225 0
M  V30 2135 H 202.051 2.63651 2.90225 0
M  V30 2136 H 203.541 2.00376 3.66387 0
M  V30 2137 N 203.978 -0.674533 1.42435 0
M  V30 2138 C 205.389 -1.25514 1.38214 0
M  V30 2139 C 205.74 -1.96055 0.0755464 0
M  V30 2140 O 204.865 -2.00028 -0.8257 0
M  V30 2141 C 205.46 -2.28269 2.50357 0
M  V30 2142 C 204.019 -2.81856 2.49467 0
M  V30 2143 C 203.166 -1.56182 2.29134 0
M  V30 2144 H 206.117 -0.467902 1.51646 0
M  V30 2145 H 206.138 -3.10009 2.20624 0
M  V30 2146 H 205.65 -1.769 3.45439 0
M  V30 2147 H 203.751 -3.37346 1.58204 0
M  V30 2148 H 203.864 -3.30854 3.46515 0
M  V30 2149 H 202.228 -1.82761 1.774 0
M  V30 2150 H 203.011 -1.06778 3.26272 0
M  V30 2151 N 205.456 -1.28612 -0.910864 0
M  V30 2152 C 206.704 -1.15705 -1.65701 0
M  V30 2153 C 207.025 0.29416 -1.92769 0
M  V30 2154 O 206.295 1.20331 -1.54588 0
M  V30 2155 H 204.875 -0.425216 -0.614167 0
M  V30 2156 H 207.537 -1.61381 -1.0928 0
M  V30 2157 H 206.633 -1.6988 -2.61815 0
M  V30 2158 N 206.934 1.1197 -1.10907 0
M  V30 2159 C 208.164 1.8713 -0.875553 0
M  V30 2160 C 208.572 1.8016 0.577843 0
M  V30 2161 O 207.915 1.17699 1.41042 0
M  V30 2162 C 207.977 3.37005 -1.2517 0
M  V30 2163 C 207.641 3.67748 -2.71313 0
M  V30 2164 C 208.638 3.65698 -3.69542 0
M  V30 2165 C 206.323 3.96928 -3.07821 0
M  V30 2166 C 208.317 3.92395 -5.023 0
M  V30 2167 C 206.004 4.23284 -4.40765 0
M  V30 2168 C 207.002 4.21005 -5.37814 0
M  V30 2169 O 206.69 4.46704 -6.68364 0
M  V30 2170 H 206.422 0.598786 -0.313737 0
M  V30 2171 H 208.976 1.42568 -1.47863 0
M  V30 2172 H 207.206 3.82146 -0.591741 0
M  V30 2173 H 208.895 3.93519 -0.994877 0
M  V30 2174 H 209.661 3.43211 -3.42682 0
M  V30 2175 H 205.54 3.97841 -2.32902 0
M  V30 2176 H 209.084 3.90531 -5.78041 0
M  V30 2177 H 204.981 4.45246 -4.67361 0
M  V30 2178 H 205.749 4.64299 -6.74069 0
M  V30 2179 N 208.412 0.89855 1.29475 0
M  V30 2180 C 209.342 0.39201 2.30186 0
M  V30 2181 C 210.323 -0.532359 1.61555 0
M  V30 2182 O 211.508 -0.443331 1.89072 0
M  V30 2183 C 208.638 -0.382353 3.45189 0
M  V30 2184 C 207.592 0.451483 4.25612 0
M  V30 2185 C 206.918 -0.450307 5.328 0
M  V30 2186 C 208.218 1.70079 4.93832 0
M  V30 2187 H 209.912 1.23362 2.72804 0
M  V30 2188 H 207.458 0.594638 1.31149 0
M  V30 2189 H 209.411 -0.747451 4.14718 0
M  V30 2190 H 208.135 -1.25774 3.01411 0
M  V30 2191 H 206.794 0.798897 3.57789 0
M  V30 2192 H 206.442 -1.32379 4.85268 0
M  V30 2193 H 206.142 0.103902 5.87508 0
M  V30 2194 H 207.666 -0.811623 6.05182 0
M  V30 2195 H 209.08 1.40549 5.55805 0
M  V30 2196 H 207.477 2.19623 5.58467 0
M  V30 2197 H 208.547 2.43744 4.19186 0
M  V30 2198 N 209.89 -1.43072 0.660911 0
M  V30 2199 C 211.137 -2.01721 0.177445 0
M  V30 2200 C 211.465 -1.5218 -1.21126 0
M  V30 2201 O 210.72 -0.708659 -1.82419 0
M  V30 2202 C 211.019 -3.57103 0.145563 0
M  V30 2203 C 210.685 -4.26021 1.47705 0
M  V30 2204 C 209.347 -4.44563 1.84165 0
M  V30 2205 C 211.699 -4.64983 2.35458 0
M  V30 2206 C 209.027 -4.99334 3.0803 0
M  V30 2207 C 211.379 -5.21127 3.58622 0
M  V30 2208 C 210.043 -5.37884 3.95268 0
M  V30 2209 H 209.313 -0.73815 0.0649317 0
M  V30 2210 H 211.96 -1.71446 0.853144 0
M  V30 2211 H 210.265 -3.86965 -0.61361 0
M  V30 2212 H 211.962 -4.00248 -0.2455 0
M  V30 2213 H 208.552 -4.11939 1.18339 0
M  V30 2214 H 212.736 -4.50343 2.08579 0
M  V30 2215 H 207.992 -5.10493 3.36462 0
M  V30 2216 H 212.166 -5.50262 4.26831 0
M  V30 2217 H 209.793 -5.80089 4.91325 0
M  V30 2218 N 211.368 -0.403325 -1.52352 0
M  V30 2219 C 212.615 0.174347 -2.01748 0
M  V30 2220 C 212.943 1.45636 -1.2892 0
M  V30 2221 O 212.198 1.9193 -0.382258 0
M  V30 2222 C 212.497 0.474665 -3.54234 0
M  V30 2223 C 212.163 -0.717458 -4.45155 0
M  V30 2224 C 210.825 -1.04447 -4.69728 0
M  V30 2225 C 213.177 -1.51432 -4.98716 0
M  V30 2226 C 210.505 -2.16963 -5.45109 0
M  V30 2227 C 212.857 -2.6302 -5.75329 0
M  V30 2228 C 211.521 -2.96213 -5.98175 0
M  V30 2229 H 210.791 0.0637981 -0.738248 0
M  V30 2230 H 213.438 -0.543553 -1.83624 0
M  V30 2231 H 211.743 1.27406 -3.70506 0
M  V30 2232 H 213.44 0.934496 -3.89959 0
M  V30 2233 H 210.03 -0.452596 -4.26204 0
M  V30 2234 H 214.214 -1.27491 -4.79645 0
M  V30 2235 H 209.47 -2.43034 -5.61021 0
M  V30 2236 H 213.644 -3.25158 -6.15829 0
M  V30 2237 H 211.271 -3.83516 -6.56368 0
M  V30 2238 N 212.846 1.57033 -0.133567 0
M  V30 2239 C 213.778 2.13176 0.841944 0
M  V30 2240 C 214.791 1.07794 1.22001 0
M  V30 2241 O 215.98 1.35117 1.16643 0
M  V30 2242 C 213.08 2.62847 2.13926 0
M  V30 2243 C 212.253 3.92486 1.93064 0
M  V30 2244 C 211.312 4.27605 3.0666 0
M  V30 2245 O 210.338 4.96168 2.78937 0
M  V30 2246 N 211.54 3.861 4.33483 0
M  V30 2247 H 214.305 2.97503 0.362192 0
M  V30 2248 H 211.866 1.61821 0.05042 0
M  V30 2249 H 213.858 2.83363 2.88942 0
M  V30 2250 H 212.428 1.83319 2.53205 0
M  V30 2251 H 211.648 3.80732 1.02159 0
M  V30 2252 H 212.936 4.77225 1.76447 0
M  V30 2253 H 212.334 3.30828 4.58878 0
M  V30 2254 H 210.891 4.11694 5.05323 0
M  V30 2255 N 214.325 -0.140222 1.56975 0
M  V30 2256 C 215.571 -0.852949 1.83991 0
M  V30 2257 C 215.904 -1.80512 0.716187 0
M  V30 2258 O 215.179 -1.92479 -0.279681 0
M  V30 2259 C 215.462 -1.6215 3.21527 0
M  V30 2260 C 215.315 -0.690363 4.4447 0
M  V30 2261 C 216.634 -2.58247 3.56366 0
M  V30 2262 H 213.753 -0.308634 0.669264 0
M  V30 2263 H 216.395 -0.117898 1.89634 0
M  V30 2264 H 214.545 -2.24812 3.16847 0
M  V30 2265 H 216.217 -0.0742264 4.6124 0
M  V30 2266 H 214.46 -0.000396433 4.338 0
M  V30 2267 H 215.131 -1.2643 5.37326 0
M  V30 2268 H 217.607 -2.05701 3.61699 0
M  V30 2269 H 216.483 -3.09067 4.53617 0
M  V30 2270 H 216.744 -3.39923 2.82674 0
M  V30 2271 N 215.803 -1.52179 -0.40978 0
M  V30 2272 C 216.766 -1.74853 -1.48186 0
M  V30 2273 C 217.766 -0.618417 -1.48433 0
M  V30 2274 O 218.956 -0.886286 -1.49969 0
M  V30 2275 C 216.088 -1.8303 -2.87598 0
M  V30 2276 H 217.281 -2.70559 -1.29374 0
M  V30 2277 H 214.834 -1.42586 -0.640233 0
M  V30 2278 H 215.569 -0.89236 -3.11781 0
M  V30 2279 H 215.354 -2.65187 -2.88822 0
M  V30 2280 H 216.844 -2.02316 -3.65319 0
M  V30 2281 N 217.281 0.66697 -1.42791 0
M  V30 2282 C 218.697 0.981027 -1.25889 0
M  V30 2283 C 218.897 2.00793 -0.168695 0
M  V30 2284 O 217.953 2.48321 0.45747 0
M  V30 2285 C 219.266 1.47838 -2.61848 0
M  V30 2286 C 220.814 1.59575 -2.69267 0
M  V30 2287 C 221.289 2.12704 -4.05612 0
M  V30 2288 N 222.78 2.20026 -4.07606 0
M  V30 2289 C 223.515 2.62227 -5.09926 0
M  V30 2290 N 223.011 3.03824 -6.22626 0
M  V30 2291 N 224.804 2.62045 -4.97281 0
M  V30 2292 H 216.955 -0.0127891 -2.12396 0
M  V30 2293 H 219.218 0.0568258 -0.946295 0
M  V30 2294 H 218.924 0.798299 -3.4252 0
M  V30 2295 H 218.798 2.45579 -2.86305 0
M  V30 2296 H 221.185 2.26687 -1.88936 0
M  V30 2297 H 221.266 0.60302 -2.48591 0
M  V30 2298 H 220.91 1.46198 -4.86404 0
M  V30 2299 H 220.84 3.12782 -4.23645 0
M  V30 2300 H 223.331 1.90708 -3.2625 0
M  V30 2301 H 223.644 3.34734 -6.96544 0
M  V30 2302 H 221.989 3.01662 -6.26119 0
M  V30 2303 H 225.18 2.28916 -4.08308 0
M  V30 2304 H 225.353 2.94613 -5.77154 0
M  V30 2305 N 218.759 1.29093 0.90403 0
M  V30 2306 C 219.707 1.13727 2.02901 0
M  V30 2307 C 220.701 0.0539853 1.69314 0
M  V30 2308 O 221.907 0.213469 1.7873 0
M  V30 2309 H 218.282 0.35117 0.664969 0
M  V30 2310 H 220.253 2.08982 2.13001 0
M  V30 2311 C 219.002 0.826066 3.37745 0
M  V30 2312 H 218.325 1.65164 3.64089 0
M  V30 2313 H 219.765 0.758559 4.17159 0
M  V30 2314 C 218.224 -0.470541 3.33598 0
M  V30 2315 O 218.754 -1.49792 3.72727 0
M  V30 2316 N 216.96 -0.474812 2.86695 0
M  V30 2317 H 216.507 0.361692 2.55048 0
M  V30 2318 H 216.465 -1.34236 2.84303 0
M  V30 2319 N 220.237 -1.11381 1.11499 0
M  V30 2320 C 221.169 -2.17207 0.731704 0
M  V30 2321 C 222.182 -1.61066 -0.236957 0
M  V30 2322 O 223.371 -1.78489 -0.0197591 0
M  V30 2323 C 220.471 -3.38846 0.0607624 0
M  V30 2324 C 219.644 -4.24451 1.0564 0
M  V30 2325 C 218.703 -5.24562 0.4149 0
M  V30 2326 O 217.729 -5.59071 1.069 0
M  V30 2327 N 218.931 -5.74651 -0.821943 0
M  V30 2328 H 221.696 -2.50699 1.64225 0
M  V30 2329 H 219.257 -1.26908 1.00529 0
M  V30 2330 H 221.249 -4.02911 -0.380139 0
M  V30 2331 H 219.819 -3.03411 -0.752376 0
M  V30 2332 H 219.039 -3.56833 1.67524 0
M  V30 2333 H 220.327 -4.78486 1.72998 0
M  V30 2334 H 219.725 -5.48797 -1.37252 0
M  V30 2335 H 218.282 -6.40549 -1.20582 0
M  V30 2336 N 221.715 -0.905404 -1.28997 0
M  V30 2337 C 222.955 -0.541232 -1.97104 0
M  V30 2338 C 223.319 0.896841 -1.69767 0
M  V30 2339 O 224.52 1.36817 -2.31375 0
M  V30 2340 C 222.791 -0.832134 -3.47578 0
M  V30 2341 S 224.35 -0.573127 -4.35041 0
M  V30 2342 H 221.168 -0.200576 -0.682122 0
M  V30 2343 H 223.77 -1.16906 -1.56694 0
M  V30 2344 H 222.474 -1.87687 -3.64968 0
M  V30 2345 H 222.005 -0.192636 -3.92928 0
M  V30 2346 H 224.02 0.579297 -4.92807 0
M  V30 2347 N 223.193 1.4272 -0.668489 0
M  V30 2348 C 224.103 2.34596 0.0139753 0
M  V30 2349 C 225.119 1.5474 0.795703 0
M  V30 2350 O 226.295 1.87334 0.739466 0
M  V30 2351 C 223.36 3.33202 0.957982 0
M  V30 2352 C 222.421 4.28957 0.17149 0
M  V30 2353 C 221.654 5.22853 1.07053 0
M  V30 2354 O 221.877 5.21531 2.31001 0
M  V30 2355 O 220.811 5.9952 0.534727 0
M  V30 2356 H 224.637 2.9448 -0.742661 0
M  V30 2357 H 222.222 1.43117 -0.428705 0
M  V30 2358 H 224.104 3.93796 1.50008 0
M  V30 2359 H 222.779 2.758 1.69458 0
M  V30 2360 H 221.686 3.71796 -0.414558 0
M  V30 2361 H 223.019 4.89383 -0.52586 0
M  V30 2362 N 224.671 0.411399 1.52136 0
M  V30 2363 C 225.919 -0.163322 2.01439 0
M  V30 2364 C 226.24 -1.45453 1.29879 0
M  V30 2365 O 225.51 -1.91225 0.4254 0
M  V30 2366 H 224.09 -0.0633447 0.744309 0
M  V30 2367 H 226.752 0.548161 1.87033 0
M  V30 2368 H 225.848 -0.357817 3.10042 0
M  V30 2369 N 226.149 -1.5696 0.141893 0
M  V30 2370 C 227.079 -2.19516 -0.795936 0
M  V30 2371 C 228.06 -1.14187 -1.26077 0
M  V30 2372 O 229.245 -1.42511 -1.31925 0
M  V30 2373 C 226.375 -2.81272 -2.03723 0
M  V30 2374 C 225.329 -3.92384 -1.70936 0
M  V30 2375 C 224.655 -4.41052 -3.02287 0
M  V30 2376 C 225.955 -5.13403 -0.959954 0
M  V30 2377 H 227.649 -2.98138 -0.274596 0
M  V30 2378 H 225.195 -1.43406 -0.130636 0
M  V30 2379 H 227.148 -3.237 -2.69808 0
M  V30 2380 H 225.872 -1.99973 -2.58221 0
M  V30 2381 H 224.531 -3.50566 -1.07232 0
M  V30 2382 H 224.179 -3.56582 -3.54765 0
M  V30 2383 H 223.879 -5.15993 -2.81114 0
M  V30 2384 H 225.403 -4.86146 -3.69451 0
M  V30 2385 H 226.817 -5.52706 -1.52279 0
M  V30 2386 H 225.214 -5.94073 -0.848357 0
M  V30 2387 H 226.284 -4.84875 0.0492434 0
M  V30 2388 N 227.627 0.131896 -1.57047 0
M  V30 2389 C 228.59 1.14638 -1.98471 0
M  V30 2390 C 229.59 1.35029 -0.873148 0
M  V30 2391 O 230.78 1.31764 -1.13946 0
M  V30 2392 C 227.912 2.50358 -2.31373 0
M  V30 2393 H 229.105 0.79064 -2.8929 0
M  V30 2394 H 226.658 0.375761 -1.51716 0
M  V30 2395 H 227.393 2.90876 -1.43393 0
M  V30 2396 H 227.178 2.36915 -3.12432 0
M  V30 2397 H 228.668 3.23395 -2.64207 0
M  V30 2398 N 229.106 1.52395 0.401703 0
M  V30 2399 C 230.053 1.76268 1.48991 0
M  V30 2400 C 231.023 0.605386 1.54675 0
M  V30 2401 O 232.208 0.843742 1.7113 0
M  V30 2402 C 229.348 1.92592 2.86361 0
M  V30 2403 C 228.461 3.20259 2.89928 0
M  V30 2404 C 227.596 3.26972 4.18644 0
M  V30 2405 C 226.635 4.48812 4.16214 0
M  V30 2406 N 225.772 4.52877 5.36514 0
M  V30 2407 H 230.612 2.6914 1.27935 0
M  V30 2408 H 228.149 1.33355 0.620871 0
M  V30 2409 H 230.107 2.0004 3.66115 0
M  V30 2410 H 228.737 1.03093 3.05895 0
M  V30 2411 H 227.789 3.21945 2.02621 0
M  V30 2412 H 229.101 4.10056 2.83999 0
M  V30 2413 H 228.255 3.33533 5.06794 0
M  V30 2414 H 226.994 2.35126 4.27278 0
M  V30 2415 H 225.999 4.4239 3.26453 0
M  V30 2416 H 227.224 5.41961 4.09213 0
M  V30 2417 H 225.17 3.63917 5.45802 0
M  V30 2418 H 225.087 5.36529 5.32609 0
M  V30 2419 H 226.355 4.63676 6.26597 0
M  V30 2420 N 230.584 -0.659388 1.43143 0
M  V30 2421 C 231.812 -1.44723 1.47861 0
M  V30 2422 C 232.227 -1.88563 0.0945886 0
M  V30 2423 O 231.584 -1.59108 -0.893915 0
M  V30 2424 C 231.635 -2.68627 2.41913 0
M  V30 2425 O 231.356 -2.26623 3.74932 0
M  V30 2426 C 232.857 -3.62045 2.55809 0
M  V30 2427 H 230.077 -0.444801 0.502387 0
M  V30 2428 H 232.621 -0.808916 1.87821 0
M  V30 2429 H 230.776 -3.28613 2.05164 0
M  V30 2430 H 231.19 -3.06745 4.2545 0
M  V30 2431 H 232.664 -4.45666 3.25708 0
M  V30 2432 H 233.141 -4.08981 1.60099 0
M  V30 2433 H 233.747 -3.07944 2.93344 0
M  V30 2434 N 232.062 -1.29571 -0.897171 0
M  V30 2435 C 233.009 -1.14916 -2.00158 0
M  V30 2436 C 233.979 -0.0418149 -1.66047 0
M  V30 2437 O 235.164 -0.209793 -1.89643 0
M  V30 2438 C 232.304 -0.834307 -3.34863 0
M  V30 2439 C 231.417 -2.02234 -3.8174 0
M  V30 2440 C 230.552 -1.64664 -5.05034 0
M  V30 2441 C 229.591 -2.80033 -5.44286 0
M  V30 2442 N 228.728 -2.42843 -6.58765 0
M  V30 2443 H 233.568 -2.09403 -2.12025 0
M  V30 2444 H 231.105 -1.042 -1.0383 0
M  V30 2445 H 233.063 -0.632436 -4.12379 0
M  V30 2446 H 231.693 0.0736656 -3.22716 0
M  V30 2447 H 230.745 -2.33583 -3.00238 0
M  V30 2448 H 232.057 -2.88673 -4.06779 0
M  V30 2449 H 231.211 -1.4078 -5.9014 0
M  V30 2450 H 229.95 -0.753766 -4.8184 0
M  V30 2451 H 228.955 -3.04596 -4.57713 0
M  V30 2452 H 230.18 -3.69989 -5.6946 0
M  V30 2453 H 228.126 -1.56046 -6.3717 0
M  V30 2454 H 228.043 -3.22815 -6.83613 0
M  V30 2455 H 229.311 -2.22285 -7.47134 0
M  V30 2456 N 233.54 1.10788 -1.12088 0
M  V30 2457 C 234.951 1.64181 -0.88891 0
M  V30 2458 C 235.302 1.87508 0.577498 0
M  V30 2459 O 234.427 1.61434 1.44112 0
M  V30 2460 C 235.022 2.98257 -1.60712 0
M  V30 2461 C 233.581 3.4853 -1.42139 0
M  V30 2462 C 232.728 2.23208 -1.6454 0
M  V30 2463 H 235.679 0.943368 -1.27618 0
M  V30 2464 H 235.7 3.65552 -1.05604 0
M  V30 2465 H 235.212 2.81246 -2.67436 0
M  V30 2466 H 233.313 3.70692 -0.376552 0
M  V30 2467 H 233.426 4.26882 -2.17505 0
M  V30 2468 H 231.79 2.31169 -1.06925 0
M  V30 2469 H 232.573 2.08733 -2.72554 0
M  V30 2470 N 235.018 0.912232 1.28515 0
M  V30 2471 C 236.266 0.543523 1.94654 0
M  V30 2472 C 236.587 -0.9155 1.72173 0
M  V30 2473 O 235.857 -1.64708 1.06058 0
M  V30 2474 H 234.437 0.198017 0.720277 0
M  V30 2475 H 237.099 1.16126 1.56527 0
M  V30 2476 H 236.195 0.736684 3.03281 0
M  V30 2477 N 236.496 -1.42363 0.676048 0
M  V30 2478 C 237.429 -2.28141 -0.0516916 0
M  V30 2479 C 238.407 -1.41135 -0.807439 0
M  V30 2480 O 239.591 -1.70573 -0.802305 0
M  V30 2481 C 236.718 -3.21007 -1.08039 0
M  V30 2482 C 235.764 -4.24426 -0.420076 0
M  V30 2483 S 236.597 -5.29134 0.823246 0
M  V30 2484 C 237.753 -6.25566 -0.204344 0
M  V30 2485 H 237.986 -2.89515 0.675884 0
M  V30 2486 H 235.519 -1.47211 0.465635 0
M  V30 2487 H 237.477 -3.75048 -1.66881 0
M  V30 2488 H 236.138 -2.58766 -1.78042 0
M  V30 2489 H 235.331 -4.89596 -1.19633 0
M  V30 2490 H 234.933 -3.7388 0.0947845 0
M  V30 2491 H 237.225 -6.69098 -1.06369 0
M  V30 2492 H 238.168 -7.06895 0.412915 0
M  V30 2493 H 238.576 -5.61811 -0.55038 0
M  V30 2494 N 237.974 -0.419461 -1.51915 0
M  V30 2495 C 239.22 0.153166 -2.02221 0
M  V30 2496 C 239.553 1.43907 -1.30401 0
M  V30 2497 O 238.828 1.90055 -0.413438 0
M  V30 2498 C 239.111 0.390291 -3.57979 0
M  V30 2499 C 238.964 -0.913014 -4.40436 0
M  V30 2500 C 240.283 1.16794 -4.2432 0
M  V30 2501 H 237.402 0.0541924 -0.735005 0
M  V30 2502 H 240.044 -0.554955 -1.81715 0
M  V30 2503 H 238.194 0.993491 -3.75582 0
M  V30 2504 H 239.866 -1.54882 -4.34522 0
M  V30 2505 H 238.109 -1.52168 -4.06236 0
M  V30 2506 H 238.78 -0.701361 -5.47526 0
M  V30 2507 H 241.256 0.657161 -4.10878 0
M  V30 2508 H 240.132 1.3026 -5.3322 0
M  V30 2509 H 240.393 2.19132 -3.83971 0
M  V30 2510 N 239.452 1.56882 -0.150215 0
M  V30 2511 C 240.385 2.12712 0.826358 0
M  V30 2512 C 241.363 1.05154 1.24022 0
M  V30 2513 O 242.547 1.33004 1.33575 0
M  V30 2514 C 239.674 2.64945 2.11002 0
M  V30 2515 C 238.72 3.8468 1.84183 0
M  V30 2516 S 239.553 5.25502 1.02995 0
M  V30 2517 C 240.709 5.81125 2.32474 0
M  V30 2518 H 240.942 2.95214 0.351598 0
M  V30 2519 H 238.475 1.54267 0.0641211 0
M  V30 2520 H 240.433 2.95689 2.84742 0
M  V30 2521 H 239.094 1.82568 2.55593 0
M  V30 2522 H 238.287 4.19482 2.79375 0
M  V30 2523 H 237.889 3.54714 1.1855 0
M  V30 2524 H 240.181 5.92753 3.281 0
M  V30 2525 H 241.124 6.78625 2.02171 0
M  V30 2526 H 241.532 5.09392 2.43269 0
M  V30 2527 N 240.93 -0.123565 1.57115 0
M  V30 2528 C 242.178 -0.83051 1.84247 0
M  V30 2529 C 242.499 -1.80629 0.73471 0
M  V30 2530 O 241.769 -1.94403 -0.241688 0
M  V30 2531 H 240.349 -0.309694 0.679778 0
M  V30 2532 H 243.011 -0.111976 1.94578 0
M  V30 2533 H 242.107 -1.37852 2.80006 0
M  V30 2534 N 242.408 -1.52605 -0.393616 0
M  V30 2535 C 243.655 -1.67424 -1.1391 0
M  V30 2536 C 243.983 -0.411859 -1.90089 0
M  V30 2537 O 243.238 0.605626 -1.86093 0
M  V30 2538 C 243.537 -2.85721 -2.14705 0
M  V30 2539 C 243.203 -4.23342 -1.55218 0
M  V30 2540 C 241.865 -4.60771 -1.3872 0
M  V30 2541 C 244.217 -5.09041 -1.11924 0
M  V30 2542 C 241.545 -5.81563 -0.774689 0
M  V30 2543 C 243.897 -6.30452 -0.520853 0
M  V30 2544 C 242.561 -6.66617 -0.343134 0
M  V30 2545 H 241.831 -0.612648 -0.416826 0
M  V30 2546 H 244.478 -1.8674 -0.424315 0
M  V30 2547 H 242.783 -2.60803 -2.92385 0
M  V30 2548 H 244.48 -2.94382 -2.72288 0
M  V30 2549 H 241.07 -3.93855 -1.69045 0
M  V30 2550 H 245.254 -4.80695 -1.23473 0
M  V30 2551 H 240.51 -6.08196 -0.625154 0
M  V30 2552 H 244.684 -6.96175 -0.177065 0
M  V30 2553 H 242.311 -7.60083 0.133571 0
M  V30 2554 N 243.887 0.651787 -1.4349 0
M  V30 2555 C 245.136 1.40754 -1.44469 0
M  V30 2556 C 245.449 1.95463 -0.0731845 0
M  V30 2557 O 246.655 2.71471 0.0395721 0
M  V30 2558 C 245.111 2.54735 -2.5424 0
M  V30 2559 C 244.719 2.06628 -3.97504 0
M  V30 2560 C 246.463 3.32092 -2.64414 0
M  V30 2561 C 244.37 3.17829 -4.98737 0
M  V30 2562 H 243.3 0.528862 -0.53742 0
M  V30 2563 H 245.951 0.703365 -1.69485 0
M  V30 2564 H 244.333 3.2763 -2.22428 0
M  V30 2565 H 245.507 1.40734 -4.38783 0
M  V30 2566 H 243.822 1.42146 -3.91387 0
M  V30 2567 H 246.419 4.14952 -3.37223 0
M  V30 2568 H 246.762 3.80217 -1.69532 0
M  V30 2569 H 247.295 2.66279 -2.95534 0
M  V30 2570 H 244.034 2.74671 -5.95177 0
M  V30 2571 H 243.554 3.82429 -4.62069 0
M  V30 2572 H 245.233 3.82937 -5.21505 0
M  V30 2573 N 245.365 1.30045 0.890287 0
M  V30 2574 C 246.613 1.18327 1.63839 0
M  V30 2575 C 246.934 -0.263455 1.93212 0
M  V30 2576 O 246.204 -1.17856 1.56482 0
M  V30 2577 H 244.784 0.434933 0.607324 0
M  V30 2578 H 247.446 1.631 1.06698 0
M  V30 2579 H 246.542 1.74024 2.59079 0
M  V30 2580 N 246.843 -1.10192 1.12674 0
M  V30 2581 C 247.773 -2.18652 0.819362 0
M  V30 2582 C 248.754 -1.68698 -0.217915 0
M  V30 2583 O 249.939 -1.94041 -0.0785581 0
M  V30 2584 C 247.069 -3.46202 0.27594 0
M  V30 2585 C 246.023 -4.09444 1.24656 0
M  V30 2586 C 245.349 -5.31725 0.563258 0
M  V30 2587 C 246.649 -4.52863 2.60217 0
M  V30 2588 H 248.343 -2.44622 1.72628 0
M  V30 2589 H 245.889 -1.17571 0.831451 0
M  V30 2590 H 247.842 -4.21372 0.0486149 0
M  V30 2591 H 246.566 -3.1973 -0.666331 0
M  V30 2592 H 245.225 -3.36284 1.45974 0
M  V30 2593 H 244.873 -5.0153 -0.384235 0
M  V30 2594 H 244.573 -5.74991 1.21075 0
M  V30 2595 H 246.097 -6.09624 0.34503 0
M  V30 2596 H 247.511 -5.19294 2.42913 0
M  V30 2597 H 245.908 -5.06986 3.21068 0
M  V30 2598 H 246.978 -3.65656 3.18471 0
M  V30 2599 N 248.321 -0.919034 -1.28029 0
M  V30 2600 C 249.251 -0.428581 -2.29533 0
M  V30 2601 C 250.232 0.50659 -1.62381 0
M  V30 2602 O 251.417 0.413195 -1.89753 0
M  V30 2603 C 248.547 0.327388 -3.45753 0
M  V30 2604 C 247.501 -0.519137 -4.2484 0
M  V30 2605 C 246.827 0.365486 -5.33449 0
M  V30 2606 C 248.127 -1.77914 -4.91064 0
M  V30 2607 H 249.821 -1.27687 -2.70807 0
M  V30 2608 H 247.367 -0.615428 -1.30186 0
M  V30 2609 H 249.32 0.681378 -4.15855 0
M  V30 2610 H 248.044 1.20963 -3.03374 0
M  V30 2611 H 246.703 -0.855717 -3.56473 0
M  V30 2612 H 246.351 1.24642 -4.87312 0
M  V30 2613 H 246.051 -0.197356 -5.87268 0
M  V30 2614 H 247.575 0.715241 -6.06396 0
M  V30 2615 H 248.989 -1.49374 -5.53498 0
M  V30 2616 H 247.386 -2.2848 -5.54903 0
M  V30 2617 H 248.456 -2.50382 -4.15255 0
M  V30 2618 N 249.799 1.42003 -0.683588 0
M  V30 2619 C 251.045 2.01712 -0.209825 0
M  V30 2620 C 251.378 1.53968 1.18353 0
M  V30 2621 O 250.653 0.745661 1.79639 0
M  V30 2622 C 250.936 3.59202 -0.254197 0
M  V30 2623 C 250.789 4.17102 -1.68363 0
M  V30 2624 C 252.108 4.38344 0.392709 0
M  V30 2625 H 249.227 0.732891 -0.0777189 0
M  V30 2626 H 251.869 1.68909 -0.87004 0
M  V30 2627 H 250.019 3.87278 0.307954 0
M  V30 2628 H 251.691 3.99946 -2.29871 0
M  V30 2629 H 249.934 3.72597 -2.22157 0
M  V30 2630 H 250.605 5.26249 -1.6663 0
M  V30 2631 H 253.081 4.16011 -0.0859162 0
M  V30 2632 H 251.957 5.47901 0.331063 0
M  V30 2633 H 252.218 4.16887 1.47164 0
M  V30 2634 N 251.277 0.427512 1.51691 0
M  V30 2635 C 252.225 -0.403359 2.29076 0
M  V30 2636 C 253.219 -1.02962 1.34518 0
M  V30 2637 O 254.425 -0.965715 1.51901 0
M  V30 2638 H 250.8 -0.148879 0.737115 0
M  V30 2639 H 252.771 0.270295 2.97173 0
M  V30 2640 C 251.52 -1.49763 3.13794 0
M  V30 2641 H 250.843 -1.02508 3.86435 0
M  V30 2642 H 252.283 -2.05244 3.71014 0
M  V30 2643 C 250.742 -2.47536 2.28533 0
M  V30 2644 O 251.272 -3.51848 1.93819 0
M  V30 2645 N 249.478 -2.18187 1.91945 0
M  V30 2646 H 249.025 -1.33389 2.20375 0
M  V30 2647 H 248.983 -2.83848 1.35195 0
M  V30 2648 N 252.755 -1.56801 0.158532 0
M  V30 2649 C 254.004 -1.95665 -0.489702 0
M  V30 2650 C 254.317 -1.04654 -1.65248 0
M  V30 2651 O 255.523 -1.33146 -2.3661 0
M  V30 2652 C 253.979 -3.47874 -0.922582 0
M  V30 2653 C 253.587 -4.47489 0.213893 0
M  V30 2654 C 255.331 -3.95583 -1.53996 0
M  V30 2655 C 253.238 -5.90921 -0.237903 0
M  V30 2656 H 252.168 -0.730516 -0.186716 0
M  V30 2657 H 254.819 -1.81861 0.244722 0
M  V30 2658 H 253.201 -3.57051 -1.71261 0
M  V30 2659 H 254.375 -4.50017 0.991036 0
M  V30 2660 H 252.69 -4.09764 0.740407 0
M  V30 2661 H 255.287 -5.0019 -1.8898 0
M  V30 2662 H 255.63 -3.37789 -2.43319 0
M  V30 2663 H 256.163 -3.8937 -0.814611 0
M  V30 2664 H 252.902 -6.52559 0.620236 0
M  V30 2665 H 252.422 -5.91729 -0.980676 0
M  V30 2666 H 254.101 -6.43352 -0.686067 0
M  V30 2667 N 254.233 0.115231 -1.57178 0
M  V30 2668 C 255.644 0.67197 -1.74188 0
M  V30 2669 C 255.995 1.80125 -0.777777 0
M  V30 2670 O 255.12 2.16346 0.0484376 0
M  V30 2671 C 255.715 1.22573 -3.1585 0
M  V30 2672 C 254.274 1.72872 -3.34353 0
M  V30 2673 C 253.421 0.629972 -2.70049 0
M  V30 2674 H 256.372 -0.110712 -1.58313 0
M  V30 2675 H 256.393 2.09535 -3.17609 0
M  V30 2676 H 255.905 0.403598 -3.85996 0
M  V30 2677 H 254.006 2.5755 -2.69256 0
M  V30 2678 H 254.119 1.83557 -4.42542 0
M  V30 2679 H 252.483 1.0645 -2.31388 0
M  V30 2680 H 253.266 -0.181241 -3.42821 0
M  V30 2681 N 255.711 1.52812 0.385517 0
M  V30 2682 C 256.957 1.68275 1.13188 0
M  V30 2683 C 257.29 0.423179 1.89533 0
M  V30 2684 O 256.565 -0.579113 1.85679 0
M  V30 2685 C 256.848 2.92001 2.1073 0
M  V30 2686 C 256.701 4.28067 1.38125 0
M  V30 2687 C 258.02 3.11283 3.11113 0
M  V30 2688 H 255.139 0.612352 0.410115 0
M  V30 2689 H 257.781 1.85415 0.414869 0
M  V30 2690 H 255.931 2.77519 2.71874 0
M  V30 2691 H 257.603 4.54324 0.799187 0
M  V30 2692 H 255.846 4.28388 0.683092 0
M  V30 2693 H 256.517 5.10733 2.09417 0
M  V30 2694 H 258.993 3.2482 2.6006 0
M  V30 2695 H 257.869 3.99325 3.76605 0
M  V30 2696 H 258.13 2.25656 3.80173 0
M  V30 2697 N 257.189 -0.644168 1.43834 0
M  V30 2698 C 258.137 -1.77793 1.49974 0
M  V30 2699 C 259.131 -1.65253 0.372536 0
M  V30 2700 O 260.337 -1.7149 0.546924 0
M  V30 2701 H 256.712 -0.58675 0.47035 0
M  V30 2702 H 258.683 -1.69736 2.45423 0
M  V30 2703 C 257.432 -3.16087 1.4486 0
M  V30 2704 H 256.755 -3.26378 2.30905 0
M  V30 2705 H 258.195 -3.95349 1.53217 0
M  V30 2706 C 256.654 -3.36484 0.167463 0
M  V30 2707 O 257.184 -3.94298 -0.767609 0
M  V30 2708 N 255.39 -2.90504 0.0747556 0
M  V30 2709 H 254.937 -2.4364 0.836507 0
M  V30 2710 H 254.895 -3.04527 -0.781714 0
M  V30 2711 N 258.668 -1.30515 -0.883378 0
M  V30 2712 C 259.898 -1.22182 -1.66599 0
M  V30 2713 C 260.306 0.217507 -1.87946 0
M  V30 2714 O 259.649 1.1554 -1.42815 0
M  V30 2715 C 259.711 -1.88146 -3.06335 0
M  V30 2716 C 259.375 -3.37476 -3.08154 0
M  V30 2717 C 260.372 -4.33443 -2.87094 0
M  V30 2718 C 258.057 -3.7895 -3.29701 0
M  V30 2719 C 260.051 -5.68858 -2.8754 0
M  V30 2720 C 257.738 -5.14482 -3.29776 0
M  V30 2721 C 258.736 -6.09246 -3.0872 0
M  V30 2722 O 258.424 -7.42302 -3.08615 0
M  V30 2723 H 258.156 -0.423898 -0.52658 0
M  V30 2724 H 260.71 -1.72703 -1.11188 0
M  V30 2725 H 258.94 -1.32157 -3.63416 0
M  V30 2726 H 260.629 -1.7391 -3.66756 0
M  V30 2727 H 261.395 -4.02733 -2.70243 0
M  V30 2728 H 257.274 -3.05631 -3.45124 0
M  V30 2729 H 260.818 -6.428 -2.71024 0
M  V30 2730 H 256.715 -5.44832 -3.46163 0
M  V30 2731 H 257.483 -7.5131 -3.24769 0
M  V30 2732 N 260.146 1.09593 -1.13257 0
M  V30 2733 C 261.395 1.81105 -0.887917 0
M  V30 2734 C 261.708 1.86563 0.587672 0
M  V30 2735 O 262.914 2.54367 0.949204 0
M  V30 2736 C 261.37 3.25338 -1.53895 0
M  V30 2737 C 260.978 3.28151 -3.04994 0
M  V30 2738 C 262.722 4.01617 -1.37492 0
M  V30 2739 C 260.629 4.66897 -3.6299 0
M  V30 2740 H 259.559 0.678661 -0.328534 0
M  V30 2741 H 262.21 1.23183 -1.36008 0
M  V30 2742 H 260.592 3.8331 -0.994446 0
M  V30 2743 H 261.766 2.79953 -3.66009 0
M  V30 2744 H 260.081 2.65361 -3.20893 0
M  V30 2745 H 262.678 5.04119 -1.78235 0
M  V30 2746 H 263.021 4.15072 -0.31957 0
M  V30 2747 H 263.554 3.50082 -1.88912 0
M  V30 2748 H 260.293 4.58643 -4.68323 0
M  V30 2749 H 259.813 5.15426 -3.06752 0
M  V30 2750 H 261.492 5.3587 -3.62563 0
M  V30 2751 N 261.624 0.925811 1.2754 0
M  V30 2752 C 262.871 0.565255 1.94451 0
M  V30 2753 C 263.199 -0.89316 1.7278 0
M  V30 2754 O 262.454 -1.65213 1.04895 0
M  V30 2755 C 262.753 0.835296 3.47502 0
M  V30 2756 C 262.419 2.27515 3.89291 0
M  V30 2757 C 261.081 2.66879 4.00411 0
M  V30 2758 C 263.433 3.21158 4.10496 0
M  V30 2759 C 260.761 3.99014 4.30122 0
M  V30 2760 C 263.113 4.52871 4.4169 0
M  V30 2761 C 261.777 4.92072 4.51023 0
M  V30 2762 H 261.047 0.206841 0.711546 0
M  V30 2763 H 263.694 1.16942 1.51647 0
M  V30 2764 H 261.999 0.148442 3.91519 0
M  V30 2765 H 263.696 0.535322 3.97411 0
M  V30 2766 H 260.286 1.95976 3.81171 0
M  V30 2767 H 264.47 2.9195 4.01346 0
M  V30 2768 H 259.726 4.2907 4.35556 0
M  V30 2769 H 263.9 5.25436 4.57045 0
M  V30 2770 H 261.527 5.9449 4.738 0
M  V30 2771 N 263.102 -1.41638 0.69111 0
M  V30 2772 C 264.351 -2.00526 0.217318 0
M  V30 2773 C 264.664 -1.55353 -1.18848 0
M  V30 2774 O 265.87 -2.06769 -1.75951 0
M  V30 2775 C 264.326 -3.58313 0.337639 0
M  V30 2776 C 263.934 -4.12469 1.74852 0
M  V30 2777 C 265.678 -4.24431 -0.0766066 0
M  V30 2778 C 263.585 -5.62675 1.82074 0
M  V30 2779 H 262.515 -0.750008 0.0774893 0
M  V30 2780 H 265.166 -1.6217 0.858661 0
M  V30 2781 H 263.548 -3.9425 -0.371879 0
M  V30 2782 H 264.722 -3.8796 2.48644 0
M  V30 2783 H 263.037 -3.58861 2.11205 0
M  V30 2784 H 265.634 -5.34683 -0.0430284 0
M  V30 2785 H 265.977 -4.01101 -1.1146 0
M  V30 2786 H 266.51 -3.93512 0.582476 0
M  V30 2787 H 263.249 -5.90826 2.83911 0
M  V30 2788 H 262.769 -5.89124 1.12661 0
M  V30 2789 H 264.448 -6.27371 1.58159 0
M  V30 2790 N 264.58 -0.43555 -1.51462 0
M  V30 2791 C 265.81 0.130053 -2.0619 0
M  V30 2792 C 266.218 1.37164 -1.30317 0
M  V30 2793 O 265.561 1.80225 -0.355598 0
M  V30 2794 C 265.623 0.519418 -3.55728 0
M  V30 2795 C 265.287 -0.615119 -4.52841 0
M  V30 2796 C 266.284 -1.48671 -4.9819 0
M  V30 2797 C 263.969 -0.795341 -4.95963 0
M  V30 2798 C 265.963 -2.52324 -5.8533 0
M  V30 2799 C 263.65 -1.83514 -5.82894 0
M  V30 2800 C 264.648 -2.69748 -6.27475 0
M  V30 2801 O 264.336 -3.71944 -7.1268 0
M  V30 2802 H 264.068 0.0121612 -0.675891 0
M  V30 2803 H 266.622 -0.6129 -1.96043 0
M  V30 2804 H 264.852 1.31505 -3.63653 0
M  V30 2805 H 266.541 1.01597 -3.92979 0
M  V30 2806 H 267.307 -1.359 -4.65571 0
M  V30 2807 H 263.186 -0.133713 -4.60806 0
M  V30 2808 H 266.73 -3.19665 -6.20048 0
M  V30 2809 H 262.627 -1.96306 -6.14926 0
M  V30 2810 H 263.395 -3.68503 -7.30854 0
M  V30 2811 N 266.058 1.56714 -0.166846 0
M  V30 2812 C 267.306 1.96358 0.478305 0
M  V30 2813 C 267.627 1.0537 1.6408 0
M  V30 2814 O 266.897 0.119154 1.95537 0
M  V30 2815 H 265.477 0.725065 0.179692 0
M  V30 2816 H 268.139 1.93329 -0.246985 0
M  V30 2817 H 267.235 3.00547 0.841292 0
M  V30 2818 N 267.536 -0.106894 1.57237 0
M  V30 2819 C 268.486 -1.1366 1.9765 0
M  V30 2820 C 269.47 -1.36416 0.853203 0
M  V30 2821 O 270.662 -1.37305 1.11697 0
M  V30 2822 C 267.791 -2.46 2.39455 0
M  V30 2823 C 266.877 -2.26668 3.58445 0
M  V30 2824 N 267.268 -1.77176 4.73754 0
M  V30 2825 C 265.566 -2.57279 3.64312 0
M  V30 2826 C 266.267 -1.71836 5.5574 0
M  V30 2827 N 265.243 -2.16623 4.98573 0
M  V30 2828 H 269.045 -0.74669 2.84256 0
M  V30 2829 H 266.559 -0.314483 1.59326 0
M  V30 2830 H 268.556 -3.2049 2.6663 0
M  V30 2831 H 267.216 -2.85738 1.54219 0
M  V30 2832 H 268.227 -1.46545 4.96734 0
M  V30 2833 H 264.904 -3.00622 2.89711 0
M  V30 2834 H 266.294 -1.34723 6.58255 0
M  V30 2835 N 269.014 -1.53014 -0.377408 0
M  V30 2836 C 270.261 -1.68623 -1.12128 0
M  V30 2837 C 270.589 -0.431997 -1.89642 0
M  V30 2838 O 269.844 0.585855 -1.86725 0
M  V30 2839 C 270.143 -2.87982 -2.11663 0
M  V30 2840 C 269.809 -4.24964 -1.50719 0
M  V30 2841 C 268.471 -4.62217 -1.33825 0
M  V30 2842 C 270.823 -5.10199 -1.06519 0
M  V30 2843 C 268.151 -5.82352 -0.712963 0
M  V30 2844 C 270.503 -6.30969 -0.453955 0
M  V30 2845 C 269.167 -6.66944 -0.272411 0
M  V30 2846 H 268.437 -0.617034 -0.410305 0
M  V30 2847 H 271.084 -1.8718 -0.404484 0
M  V30 2848 H 269.389 -2.63889 -2.89603 0
M  V30 2849 H 271.086 -2.97253 -2.6915 0
M  V30 2850 H 267.676 -3.95626 -1.64858 0
M  V30 2851 H 271.86 -4.81978 -1.18368 0
M  V30 2852 H 267.116 -6.08824 -0.560611 0
M  V30 2853 H 271.29 -6.96324 -0.103217 0
M  V30 2854 H 268.917 -7.59898 0.214181 0
M  V30 2855 N 270.492 0.636531 -1.44174 0
M  V30 2856 C 271.74 1.39343 -1.46383 0
M  V30 2857 C 272.061 1.94766 -0.0955715 0
M  V30 2858 O 271.331 1.75452 0.871395 0
M  V30 2859 H 269.911 0.517199 -0.538994 0
M  V30 2860 H 272.573 0.74957 -1.7991 0
M  V30 2861 H 271.669 2.22746 -2.18611 0
M  V30 2862 N 271.97 1.30982 0.876444 0
M  V30 2863 C 272.903 1.12414 1.98591 0
M  V30 2864 C 273.881 0.0294078 1.62573 0
M  V30 2865 O 275.065 0.184598 1.87594 0
M  V30 2866 C 272.192 0.716276 3.3104 0
M  V30 2867 C 271.238 1.81311 3.86042 0
M  V30 2868 S 272.071 3.41727 4.1229 0
M  V30 2869 C 273.227 3.02863 5.47745 0
M  V30 2870 H 273.46 2.06338 2.14037 0
M  V30 2871 H 270.993 1.15393 1.02586 0
M  V30 2872 H 272.951 0.487697 4.07593 0
M  V30 2873 H 271.612 -0.203749 3.13438 0
M  V30 2874 H 270.805 1.48021 4.81774 0
M  V30 2875 H 270.407 1.99641 3.16259 0
M  V30 2876 H 272.699 2.51353 6.29148 0
M  V30 2877 H 273.642 3.97533 5.8598 0
M  V30 2878 H 274.05 2.40487 5.10711 0
M  V30 2879 N 273.449 -1.08991 1.13837 0
M  V30 2880 C 274.86 -1.62746 0.914917 0
M  V30 2881 C 275.211 -1.88403 -0.547594 0
M  V30 2882 O 274.336 -1.63706 -1.41525 0
M  V30 2883 C 274.931 -2.95662 1.65437 0
M  V30 2884 C 273.49 -3.46225 1.47666 0
M  V30 2885 C 272.637 -2.20562 1.6807 0
M  V30 2886 H 275.588 -0.922946 1.29102 0
M  V30 2887 H 275.609 -3.63825 1.11407 0
M  V30 2888 H 275.121 -2.76956 2.71877 0
M  V30 2889 H 273.222 -3.70046 0.435478 0
M  V30 2890 H 273.335 -4.23368 2.24268 0
M  V30 2891 H 271.699 -2.29439 1.10589 0
M  V30 2892 H 272.482 -2.0437 2.7584 0
M  V30 2893 N 274.927 -0.932562 -1.27047 0
M  V30 2894 C 275.837 -0.441219 -2.30414 0
M  V30 2895 C 276.853 0.480525 -1.67233 0
M  V30 2896 O 278.029 0.362151 -1.98117 0
M  V30 2897 C 275.094 0.293651 -3.45454 0
M  V30 2898 C 274.155 -0.663601 -4.2414 0
M  V30 2899 C 273.388 0.0362932 -5.33688 0
M  V30 2900 O 273.611 1.2548 -5.56427 0
M  V30 2901 O 272.545 -0.638015 -5.98509 0
M  V30 2902 H 276.371 -1.29962 -2.74488 0
M  V30 2903 H 273.956 -0.6981 -1.32087 0
M  V30 2904 H 275.838 0.707951 -4.15411 0
M  V30 2905 H 274.513 1.12758 -3.03426 0
M  V30 2906 H 273.42 -1.12768 -3.56699 0
M  V30 2907 H 274.753 -1.46489 -4.69896 0
M  V30 2908 N 276.405 1.4127 -0.698611 0
M  V30 2909 C 277.335 2.33447 -0.049629 0
M  V30 2910 C 278.316 1.51982 0.763898 0
M  V30 2911 O 279.501 1.80509 0.716257 0
M  V30 2912 C 276.631 3.35828 0.885267 0
M  V30 2913 C 275.585 4.27627 0.178613 0
M  V30 2914 C 274.911 5.20406 1.22807 0
M  V30 2915 C 276.211 5.13459 -0.956933 0
M  V30 2916 H 277.905 2.87966 -0.81951 0
M  V30 2917 H 275.451 1.38461 -0.395538 0
M  V30 2918 H 277.404 3.9924 1.34854 0
M  V30 2919 H 276.128 2.79666 1.68685 0
M  V30 2920 H 274.787 3.65643 -0.26466 0
M  V30 2921 H 274.435 4.60558 2.02226 0
M  V30 2922 H 274.135 5.82661 0.760239 0
M  V30 2923 H 275.659 5.86695 1.69179 0
M  V30 2924 H 277.073 5.70421 -0.573805 0
M  V30 2925 H 275.47 5.8467 -1.35205 0
M  V30 2926 H 276.54 4.50443 -1.79524 0
M  V30 2927 N 277.883 0.443576 1.51229 0
M  V30 2928 C 279.131 -0.120557 2.0174 0
M  V30 2929 C 279.452 -1.42665 1.32935 0
M  V30 2930 O 278.722 -1.9028 0.465866 0
M  V30 2931 H 277.302 -0.0475426 0.745486 0
M  V30 2932 H 279.964 0.587711 1.85828 0
M  V30 2933 H 279.06 -0.291972 3.10731 0
M  V30 2934 N 279.361 -1.56624 0.175154 0
M  V30 2935 C 280.609 -1.96609 -0.467885 0
M  V30 2936 C 280.93 -1.06238 -1.63519 0
M  V30 2937 O 280.2 -0.129523 -1.95471 0
M  V30 2938 H 278.78 -0.726008 -0.175845 0
M  V30 2939 H 281.442 -1.93195 0.257234 0
M  V30 2940 H 280.538 -3.00989 -0.825342 0
M  V30 2941 N 280.839 0.0985539 -1.57292 0
M  V30 2942 C 282.085 0.803867 -1.86188 0
M  V30 2943 C 282.418 1.78549 -0.763794 0
M  V30 2944 O 281.693 1.93153 0.22855 0
M  V30 2945 C 281.976 1.53568 -3.25713 0
M  V30 2946 C 281.829 0.572277 -4.46145 0
M  V30 2947 C 283.148 2.48708 -3.63087 0
M  V30 2948 H 280.267 0.290781 -0.677211 0
M  V30 2949 H 282.909 0.0675783 -1.8988 0
M  V30 2950 H 281.059 2.16332 -3.22696 0
M  V30 2951 H 282.731 -0.0480894 -4.61275 0
M  V30 2952 H 280.974 -0.114618 -4.33649 0
M  V30 2953 H 281.645 1.12139 -5.40489 0
M  V30 2954 H 284.121 1.96039 -3.67026 0
M  V30 2955 H 282.997 2.96932 -4.61652 0
M  V30 2956 H 283.258 3.32309 -2.91588 0
M  V30 2957 N 282.317 1.53212 0.369288 0
M  V30 2958 C 283.565 1.68881 1.11012 0
M  V30 2959 C 283.886 0.441285 1.89941 0
M  V30 2960 O 283.156 -0.544623 1.88177 0
M  V30 2961 H 281.736 0.622569 0.412816 0
M  V30 2962 H 284.398 1.90391 0.416802 0
M  V30 2963 H 283.494 2.54822 1.80201 0
M  V30 2964 N 283.795 -0.628877 1.44509 0
M  V30 2965 C 285.035 -1.39993 1.48934 0
M  V30 2966 C 285.399 -1.91627 0.119604 0
M  V30 2967 O 286.6 -2.68772 0.0385283 0
M  V30 2968 C 284.871 -2.53241 2.52198 0
M  V30 2969 S 286.43 -3.41383 2.75687 0
M  V30 2970 H 283.248 -0.477558 0.526744 0
M  V30 2971 H 285.85 -0.727804 1.81448 0
M  V30 2972 H 284.554 -2.13622 3.50419 0
M  V30 2973 H 284.085 -3.25278 2.21264 0
M  V30 2974 H 286.1 -4.50752 2.07453 0
M  V30 2975 N 285.273 -1.31445 -0.869486 0
M  V30 2976 C 286.521 -1.20918 -1.61936 0
M  V30 2977 C 286.842 0.232683 -1.93607 0
M  V30 2978 O 286.112 1.15352 -1.58338 0
M  V30 2979 H 284.692 -0.44454 -0.600328 0
M  V30 2980 H 287.354 -1.64776 -1.0409 0
M  V30 2981 H 286.45 -1.78124 -2.56278 0
M  V30 2982 N 286.751 1.08385 -1.14413 0
M  V30 2983 C 287.997 1.81044 -0.913834 0
M  V30 2984 C 288.33 1.86004 0.558209 0
M  V30 2985 O 287.605 1.33606 1.4135 0
M  V30 2986 C 287.888 3.26648 -1.51569 0
M  V30 2987 C 287.741 3.29895 -3.0576 0
M  V30 2988 C 289.06 4.23629 -1.19273 0
M  V30 2989 H 286.179 0.65727 -0.333414 0
M  V30 2990 H 288.821 1.26896 -1.41412 0
M  V30 2991 H 286.971 3.72889 -1.09023 0
M  V30 2992 H 288.643 2.91977 -3.57137 0
M  V30 2993 H 286.886 2.69163 -3.40197 0
M  V30 2994 H 287.557 4.32516 -3.42977 0
M  V30 2995 H 290.033 3.85727 -1.56057 0
M  V30 2996 H 288.909 5.23822 -1.64017 0
M  V30 2997 H 289.17 4.41968 -0.108068 0
M  V30 2998 N 288.23 0.939286 1.26551 0
M  V30 2999 C 289.193 0.451987 2.24699 0
M  V30 3000 C 290.193 -0.435869 1.5478 0
M  V30 3001 O 291.383 -0.235314 1.72603 0
M  V30 3002 C 288.515 -0.348801 3.39111 0
M  V30 3003 H 289.708 1.3193 2.69322 0
M  V30 3004 H 287.261 0.721072 1.38673 0
M  V30 3005 H 287.996 -1.23444 2.99887 0
M  V30 3006 H 287.781 0.287945 3.91041 0
M  V30 3007 H 289.271 -0.679726 4.12031 0
M  V30 3008 N 289.708 -1.40897 0.706093 0
M  V30 3009 C 290.936 -2.05373 0.250887 0
M  V30 3010 C 291.351 -1.53172 -1.10381 0
M  V30 3011 O 290.708 -0.684305 -1.69185 0
M  V30 3012 C 290.759 -3.6088 0.211571 0
M  V30 3013 O 290.48 -4.11153 1.51276 0
M  V30 3014 C 291.981 -4.42517 -0.263346 0
M  V30 3015 H 289.201 -0.66115 0.114552 0
M  V30 3016 H 291.745 -1.80479 0.961635 0
M  V30 3017 H 289.9 -3.84777 -0.450073 0
M  V30 3018 H 290.314 -5.05279 1.40689 0
M  V30 3019 H 291.788 -5.51479 -0.239718 0
M  V30 3020 H 292.265 -4.19396 -1.30397 0
M  V30 3021 H 292.871 -4.23708 0.367677 0
M  V30 3022 N 291.186 -0.45159 -1.50991 0
M  V30 3023 C 292.149 0.341117 -2.26647 0
M  V30 3024 C 293.149 0.937422 -1.30649 0
M  V30 3025 O 294.339 0.809644 -1.54241 0
M  V30 3026 C 291.471 1.48398 -3.06905 0
M  V30 3027 H 292.664 -0.322117 -2.98165 0
M  V30 3028 H 290.217 -0.205122 -1.54948 0
M  V30 3029 H 290.952 2.18284 -2.39838 0
M  V30 3030 H 290.737 1.06241 -3.77432 0
M  V30 3031 H 292.227 2.04367 -3.64176 0
M  V30 3032 N 292.664 1.56529 -0.183458 0
M  V30 3033 C 293.627 2.17324 0.728223 0
M  V30 3034 C 294.627 1.12453 1.14939 0
M  V30 3035 O 295.817 1.37902 1.06437 0
M  V30 3036 C 292.949 2.76591 1.99274 0
M  V30 3037 H 294.142 2.99241 0.198772 0
M  V30 3038 H 291.695 1.5616 0.0661391 0
M  V30 3039 H 292.43 1.98441 2.56499 0
M  V30 3040 H 292.215 3.5335 1.69959 0
M  V30 3041 H 293.705 3.23311 2.6431 0
M  V30 3042 N 294.142 -0.090211 1.57342 0
M  V30 3043 C 295.388 -0.793982 1.86611 0
M  V30 3044 C 295.721 -1.78142 0.773252 0
M  V30 3045 O 294.996 -1.93271 -0.218304 0
M  V30 3046 C 295.279 -1.51839 3.26523 0
M  V30 3047 C 295.132 -0.548609 4.46442 0
M  V30 3048 C 296.451 -2.46779 3.64401 0
M  V30 3049 H 293.57 -0.287186 0.678744 0
M  V30 3050 H 296.212 -0.0575076 1.89913 0
M  V30 3051 H 294.362 -2.14617 3.23839 0
M  V30 3052 H 296.034 0.0725513 4.61243 0
M  V30 3053 H 294.277 0.137614 4.33582 0
M  V30 3054 H 294.948 -1.09271 5.41076 0
M  V30 3055 H 297.424 -1.94089 3.68061 0
M  V30 3056 H 296.3 -2.94479 4.63221 0
M  V30 3057 H 296.561 -3.30758 2.93346 0
M  V30 3058 N 295.62 -1.53406 -0.361157 0
M  V30 3059 C 296.85 -1.73465 -1.1222 0
M  V30 3060 C 297.258 -0.465486 -1.83384 0
M  V30 3061 O 296.601 0.571611 -1.7458 0
M  V30 3062 C 296.663 -2.84834 -2.19339 0
M  V30 3063 C 296.327 -4.25038 -1.67903 0
M  V30 3064 C 297.324 -5.07231 -1.14074 0
M  V30 3065 C 295.009 -4.71464 -1.73282 0
M  V30 3066 C 297.003 -6.33942 -0.663068 0
M  V30 3067 C 294.69 -5.98153 -1.25127 0
M  V30 3068 C 295.688 -6.79223 -0.717296 0
M  V30 3069 O 295.376 -8.03533 -0.242865 0
M  V30 3070 H 295.108 -0.583526 -0.341283 0
M  V30 3071 H 297.662 -2.00964 -0.424591 0
M  V30 3072 H 295.892 -2.5282 -2.92607 0
M  V30 3073 H 297.581 -2.9303 -2.80871 0
M  V30 3074 H 298.347 -4.72534 -1.09254 0
M  V30 3075 H 294.226 -4.08432 -2.13786 0
M  V30 3076 H 297.77 -6.97167 -0.245612 0
M  V30 3077 H 293.667 -6.32347 -1.29642 0
M  V30 3078 H 294.435 -8.177 -0.361786 0
M  V30 3079 N 297.098 0.621204 -1.44841 0
M  V30 3080 C 298.344 1.38073 -1.49357 0
M  V30 3081 C 298.699 1.91973 -0.128115 0
M  V30 3082 O 297.992 1.71311 0.858087 0
M  V30 3083 C 298.186 2.55675 -2.4973 0
M  V30 3084 C 298.015 2.13289 -3.95901 0
M  V30 3085 C 296.785 2.001 -4.63991 0
M  V30 3086 C 298.983 1.7159 -4.84831 0
M  V30 3087 N 296.965 1.51381 -5.94943 0
M  V30 3088 C 298.336 1.34188 -6.05304 0
M  V30 3089 C 300.391 1.59059 -4.7181 0
M  V30 3090 C 299.094 0.855085 -7.14199 0
M  V30 3091 C 301.12 1.11784 -5.8074 0
M  V30 3092 C 300.482 0.753385 -7.0036 0
M  V30 3093 H 296.581 0.499675 -0.601539 0
M  V30 3094 H 299.165 0.711609 -1.8123 0
M  V30 3095 H 297.336 3.20201 -2.19832 0
M  V30 3096 H 299.068 3.22509 -2.4448 0
M  V30 3097 H 295.823 2.20863 -4.18947 0
M  V30 3098 H 296.247 1.29293 -6.64539 0
M  V30 3099 H 300.889 1.85865 -3.79755 0
M  V30 3100 H 298.607 0.574552 -8.06055 0
M  V30 3101 H 302.193 1.02533 -5.72694 0
M  V30 3102 H 301.073 0.393183 -7.83214 0
M  V30 3103 N 298.576 1.31904 0.862503 0
M  V30 3104 C 299.822 1.22197 1.61851 0
M  V30 3105 C 300.155 -0.217641 1.92977 0
M  V30 3106 O 299.43 -1.15264 1.56666 0
M  V30 3107 C 299.713 2.07378 2.94391 0
M  V30 3108 C 299.566 3.59678 2.70096 0
M  V30 3109 C 300.885 1.92891 3.95577 0
M  V30 3110 H 298.004 0.445255 0.587296 0
M  V30 3111 H 300.646 1.6177 0.99651 0
M  V30 3112 H 298.796 1.73758 3.47477 0
M  V30 3113 H 300.468 4.03472 2.23625 0
M  V30 3114 H 298.711 3.82735 2.04197 0
M  V30 3115 H 299.382 4.14595 3.64438 0
M  V30 3116 H 301.858 2.22327 3.51724 0
M  V30 3117 H 300.734 2.54781 4.86187 0
M  V30 3118 H 300.995 0.894315 4.3296 0
M  V30 3119 N 300.054 -1.07777 1.14986 0
M  V30 3120 C 300.987 -2.14228 0.786243 0
M  V30 3121 C 301.965 -1.60888 -0.235347 0
M  V30 3122 O 303.149 -1.88099 -0.122909 0
M  V30 3123 C 300.276 -3.38281 0.168433 0
M  V30 3124 C 299.322 -4.10387 1.16123 0
M  V30 3125 S 300.155 -4.62371 2.70135 0
M  V30 3126 C 301.311 -5.89704 2.09762 0
M  V30 3127 H 301.544 -2.44741 1.68787 0
M  V30 3128 H 299.077 -1.19984 0.971756 0
M  V30 3129 H 301.035 -4.10098 -0.181588 0
M  V30 3130 H 299.696 -3.05953 -0.710725 0
M  V30 3131 H 298.889 -4.99431 0.677086 0
M  V30 3132 H 298.491 -3.44513 1.45556 0
M  V30 3133 H 300.783 -6.61648 1.45701 0
M  V30 3134 H 301.726 -6.42824 2.96955 0
M  V30 3135 H 302.134 -5.4302 1.54239 0
M  V30 3136 N 301.532 -0.945985 -1.26051 0
M  V30 3137 C 302.779 -0.596118 -1.93527 0
M  V30 3138 C 303.107 0.865559 -1.74179 0
M  V30 3139 O 302.362 1.63524 -1.0751 0
M  V30 3140 C 302.661 -0.890475 -3.46129 0
M  V30 3141 C 302.327 -2.3368 -3.85622 0
M  V30 3142 C 300.989 -2.73216 -3.96114 0
M  V30 3143 C 303.341 -3.27648 -4.05334 0
M  V30 3144 C 300.669 -4.05806 -4.2372 0
M  V30 3145 C 303.021 -4.59841 -4.3443 0
M  V30 3146 C 301.685 -4.99185 -4.43137 0
M  V30 3147 H 300.955 -0.218135 -0.708165 0
M  V30 3148 H 303.602 -1.1934 -1.49768 0
M  V30 3149 H 301.907 -0.210711 -3.91233 0
M  V30 3150 H 303.604 -0.598478 -3.96509 0
M  V30 3151 H 300.194 -2.02015 -3.78005 0
M  V30 3152 H 304.378 -2.98298 -3.96651 0
M  V30 3153 H 299.634 -4.35945 -4.28675 0
M  V30 3154 H 303.808 -5.32641 -4.48628 0
M  V30 3155 H 301.435 -6.01952 -4.64282 0
M  V30 3156 N 303.011 1.40521 -0.713556 0
M  V30 3157 C 303.941 2.33381 -0.0743864 0
M  V30 3158 C 304.922 1.52784 0.747735 0
M  V30 3159 O 306.107 1.81258 0.697071 0
M  V30 3160 C 303.237 3.36748 0.849598 0
M  V30 3161 C 302.191 4.27793 0.133247 0
M  V30 3162 C 301.517 5.21679 1.17281 0
M  V30 3163 C 302.817 5.12415 -1.01134 0
M  V30 3164 H 304.511 2.87081 -0.850007 0
M  V30 3165 H 302.057 1.38034 -0.410201 0
M  V30 3166 H 304.01 4.00648 1.30612 0
M  V30 3167 H 302.734 2.81439 1.65709 0
M  V30 3168 H 301.393 3.65342 -0.303426 0
M  V30 3169 H 301.041 4.62677 1.9733 0
M  V30 3170 H 300.741 5.83435 0.698397 0
M  V30 3171 H 302.265 5.88456 1.62947 0
M  V30 3172 H 303.679 5.69781 -0.634274 0
M  V30 3173 H 302.076 5.83203 -1.41399 0
M  V30 3174 H 303.146 4.48514 -1.84292 0
M  V30 3175 N 304.489 0.459591 1.5075 0
M  V30 3176 C 305.452 -0.329093 2.26825 0
M  V30 3177 C 306.452 -0.930481 1.31144 0
M  V30 3178 O 307.642 -0.801453 1.54669 0
M  V30 3179 C 304.774 -1.46768 3.07688 0
M  V30 3180 H 305.967 0.337924 2.9799 0
M  V30 3181 H 303.52 0.213336 1.54837 0
M  V30 3182 H 304.255 -2.17009 2.40993 0
M  V30 3183 H 304.04 -1.04238 3.77991 0
M  V30 3184 H 305.53 -2.02433 3.65254 0
M  V30 3185 N 305.967 -1.56429 0.191757 0
M  V30 3186 C 306.9 -2.14829 -0.76967 0
M  V30 3187 C 307.878 -1.08405 -1.2119 0
M  V30 3188 O 309.062 -1.36498 -1.30002 0
M  V30 3189 C 306.189 -2.70446 -2.03903 0
M  V30 3190 C 305.235 -3.89428 -1.7392 0
M  V30 3191 S 306.068 -5.28048 -0.890265 0
M  V30 3192 C 307.224 -5.87085 -2.16984 0
M  V30 3193 H 307.457 -2.96042 -0.273204 0
M  V30 3194 H 304.99 -1.54383 -0.0231975 0
M  V30 3195 H 306.948 -3.03134 -2.76803 0
M  V30 3196 H 305.609 -1.89281 -2.50662 0
M  V30 3197 H 304.802 -4.26742 -2.68155 0
M  V30 3198 H 304.404 -3.57732 -1.09103 0
M  V30 3199 H 306.696 -6.01244 -3.12269 0
M  V30 3200 H 307.639 -6.83747 -1.84108 0
M  V30 3201 H 308.047 -5.15663 -2.29678 0
M  V30 3202 N 307.445 0.0818655 -1.57387 0
M  V30 3203 C 308.691 0.784074 -1.8703 0
M  V30 3204 C 309.024 1.77729 -0.782689 0
M  V30 3205 O 308.299 1.93384 0.208051 0
M  V30 3206 C 308.582 1.50105 -3.27323 0
M  V30 3207 C 308.435 0.524925 -4.46727 0
M  V30 3208 C 309.754 2.44843 -3.65705 0
M  V30 3209 H 306.873 0.283582 -0.680257 0
M  V30 3210 H 309.515 0.0474352 -1.89941 0
M  V30 3211 H 307.665 2.12897 -3.24972 0
M  V30 3212 H 309.337 -0.0970111 -4.61198 0
M  V30 3213 H 307.58 -0.160606 -4.33503 0
M  V30 3214 H 308.251 1.064 -5.41648 0
M  V30 3215 H 310.727 1.92135 -3.69085 0
M  V30 3216 H 309.603 2.92018 -4.64776 0
M  V30 3217 H 309.864 3.29197 -2.95096 0
M  V30 3218 N 308.923 1.53595 0.353017 0
M  V30 3219 C 310.148 1.7462 1.11904 0
M  V30 3220 C 310.573 0.479721 1.8188 0
M  V30 3221 O 309.931 -0.567066 1.72204 0
M  V30 3222 C 309.979 2.92029 2.11545 0
M  V30 3223 O 309.083 2.61516 3.18878 0
M  V30 3224 H 308.424 0.579531 0.324099 0
M  V30 3225 H 310.954 2.00525 0.406301 0
M  V30 3226 H 310.964 3.18551 2.5493 0
M  V30 3227 H 309.639 3.83888 1.60008 0
M  V30 3228 H 308.216 2.45852 2.80377 0
M  V30 3229 N 310.401 -0.613514 1.45168 0
M  V30 3230 C 311.631 -1.39743 1.52169 0
M  V30 3231 C 312.039 -1.88596 0.151086 0
M  V30 3232 O 311.382 -1.6251 -0.856521 0
M  V30 3233 C 311.444 -2.64035 2.43979 0
M  V30 3234 C 311.108 -2.36861 3.90827 0
M  V30 3235 C 312.105 -1.97591 4.80889 0
M  V30 3236 C 309.79 -2.49956 4.35692 0
M  V30 3237 C 311.784 -1.71768 6.1382 0
M  V30 3238 C 309.471 -2.23747 5.68665 0
M  V30 3239 C 310.469 -1.84714 6.57548 0
M  V30 3240 O 310.157 -1.58809 7.88058 0
M  V30 3241 H 309.889 -0.434382 0.517966 0
M  V30 3242 H 312.443 -0.75587 1.90986 0
M  V30 3243 H 310.673 -3.3089 2.00122 0
M  V30 3244 H 312.362 -3.26069 2.41731 0
M  V30 3245 H 313.128 -1.87015 4.47493 0
M  V30 3246 H 309.007 -2.79305 3.66756 0
M  V30 3247 H 312.551 -1.41227 6.83155 0
M  V30 3248 H 308.448 -2.33938 6.01617 0
M  V30 3249 H 309.216 -1.7291 8.00028 0
M  V30 3250 N 311.879 -1.3236 -0.855495 0
M  V30 3251 C 313.128 -1.22226 -1.60448 0
M  V30 3252 C 313.441 0.214733 -1.94418 0
M  V30 3253 O 314.647 0.437917 -2.67945 0
M  V30 3254 C 313.103 -2.14063 -2.89318 0
M  V30 3255 C 312.711 -3.62839 -2.62777 0
M  V30 3256 C 314.455 -2.12764 -3.67331 0
M  V30 3257 C 312.362 -4.4664 -3.87643 0
M  V30 3258 H 311.292 -0.453904 -0.602069 0
M  V30 3259 H 313.943 -1.57314 -0.944698 0
M  V30 3260 H 312.325 -1.71889 -3.5675 0
M  V30 3261 H 313.499 -4.1335 -2.03662 0
M  V30 3262 H 311.814 -3.66261 -1.98096 0
M  V30 3263 H 314.411 -2.72611 -4.59987 0
M  V30 3264 H 314.754 -1.11841 -4.00995 0
M  V30 3265 H 315.287 -2.53214 -3.06802 0
M  V30 3266 H 312.026 -5.48373 -3.5912 0
M  V30 3267 H 311.546 -4.0088 -4.46156 0
M  V30 3268 H 313.225 -4.59597 -4.55389 0
M  V30 3269 N 313.357 1.07166 -1.15556 0
M  V30 3270 C 314.304 2.14417 -0.854055 0
M  V30 3271 C 315.274 1.64965 0.193806 0
M  V30 3272 O 316.459 1.90703 0.0609443 0
M  V30 3273 C 313.599 3.43304 -0.351574 0
M  V30 3274 C 312.712 4.06537 -1.46123 0
M  V30 3275 C 311.847 5.23266 -0.914677 0
M  V30 3276 C 310.886 5.78464 -2.00114 0
M  V30 3277 N 310.023 6.86521 -1.47083 0
M  V30 3278 H 314.863 2.39548 -1.77259 0
M  V30 3279 H 312.4 1.17543 -0.884425 0
M  V30 3280 H 314.358 4.17179 -0.0419409 0
M  V30 3281 H 312.988 3.18419 0.530037 0
M  V30 3282 H 312.04 3.30297 -1.88701 0
M  V30 3283 H 313.352 4.43567 -2.28144 0
M  V30 3284 H 312.506 6.04131 -0.557698 0
M  V30 3285 H 311.245 4.87658 -0.0636583 0
M  V30 3286 H 310.25 4.96243 -2.36692 0
M  V30 3287 H 311.475 6.16126 -2.85597 0
M  V30 3288 H 309.421 6.52849 -0.642198 0
M  V30 3289 H 309.338 7.22446 -2.22729 0
M  V30 3290 H 310.606 7.71087 -1.14215 0
M  V30 3291 N 314.835 0.952656 1.25548 0
M  V30 3292 C 316.251 0.656769 1.4546 0
M  V30 3293 C 316.451 -0.78633 1.85524 0
M  V30 3294 O 315.507 -1.56183 1.98402 0
M  V30 3295 C 316.82 1.62801 2.52817 0
M  V30 3296 C 318.368 1.63897 2.66659 0
M  V30 3297 C 318.843 2.5978 3.77198 0
M  V30 3298 N 320.334 2.58133 3.84606 0
M  V30 3299 C 321.069 3.29003 4.69621 0
M  V30 3300 N 320.565 4.09339 5.58939 0
M  V30 3301 N 322.358 3.179 4.63569 0
M  V30 3302 H 314.509 1.88526 0.978344 0
M  V30 3303 H 316.772 0.810815 0.491206 0
M  V30 3304 H 316.478 2.65869 2.30232 0
M  V30 3305 H 316.352 1.38898 3.50695 0
M  V30 3306 H 318.739 0.615481 2.8861 0
M  V30 3307 H 318.82 1.91858 1.69187 0
M  V30 3308 H 318.464 3.62254 3.55997 0
M  V30 3309 H 318.394 2.29105 4.7415 0
M  V30 3310 H 320.885 1.99809 3.20757 0
M  V30 3311 H 321.198 4.6034 6.20731 0
M  V30 3312 H 319.543 4.13438 5.58654 0
M  V30 3313 H 322.734 2.54612 3.92798 0
M  V30 3314 H 322.907 3.73398 5.29602 0
M  V30 3315 N 316.313 -1.40141 0.720998 0
M  V30 3316 C 317.276 -2.29058 0.0805834 0
M  V30 3317 C 318.276 -1.45632 -0.681758 0
M  V30 3318 O 319.466 -1.6648 -0.512856 0
M  V30 3319 C 316.598 -3.28925 -0.895593 0
M  V30 3320 H 317.791 -2.87191 0.863793 0
M  V30 3321 H 315.344 -1.48553 0.485975 0
M  V30 3322 H 316.079 -2.75822 -1.70566 0
M  V30 3323 H 315.864 -3.90519 -0.351766 0
M  V30 3324 H 317.354 -3.95494 -1.34069 0
M  V30 3325 N 317.792 -0.46758 -1.50504 0
M  V30 3326 C 319.208 -0.121533 -1.59137 0
M  V30 3327 C 319.408 1.3717 -1.47603 0
M  V30 3328 O 318.464 2.14464 -1.33272 0
M  V30 3329 C 319.777 -0.6686 -2.93173 0
M  V30 3330 C 321.325 -0.631716 -3.06559 0
M  V30 3331 C 321.8 -1.15627 -4.43164 0
M  V30 3332 N 323.291 -1.11553 -4.49567 0
M  V30 3333 C 324.026 -1.49195 -5.5365 0
M  V30 3334 N 323.522 -1.94269 -6.65005 0
M  V30 3335 N 325.315 -1.4082 -5.44175 0
M  V30 3336 H 317.466 -1.4388 -1.56245 0
M  V30 3337 H 319.729 -0.594784 -0.738198 0
M  V30 3338 H 319.435 -1.71453 -3.07078 0
M  V30 3339 H 319.309 -0.11021 -3.77039 0
M  V30 3340 H 321.696 0.405297 -2.92304 0
M  V30 3341 H 321.777 -1.22687 -2.24458 0
M  V30 3342 H 321.421 -2.1919 -4.58168 0
M  V30 3343 H 321.351 -0.537365 -5.23851 0
M  V30 3344 H 323.842 -0.784895 -3.69659 0
M  V30 3345 H 324.155 -2.21148 -7.40482 0
M  V30 3346 H 322.5 -1.98219 -6.66134 0
M  V30 3347 H 325.691 -1.0545 -4.56068 0
M  V30 3348 H 325.864 -1.70481 -6.25172 0
M  V30 3349 N 319.27 1.56325 -0.20005 0
M  V30 3350 C 320.495 2.02548 0.44597 0
M  V30 3351 C 320.92 1.07922 1.5406 0
M  V30 3352 O 320.278 0.0635775 1.81188 0
M  V30 3353 C 320.326 3.47175 0.974761 0
M  V30 3354 O 319.43 3.55671 2.08739 0
M  V30 3355 H 318.771 0.655862 0.103638 0
M  V30 3356 H 321.301 2.02201 -0.312381 0
M  V30 3357 H 321.311 3.87067 1.2901 0
M  V30 3358 H 319.986 4.15538 0.17347 0
M  V30 3359 H 318.563 3.27657 1.78032 0
M  V30 3360 N 320.748 -0.0735177 1.57428 0
M  V30 3361 C 321.681 -1.11932 1.98863 0
M  V30 3362 C 322.659 -1.37666 0.865266 0
M  V30 3363 O 323.843 -1.51068 1.12742 0
M  V30 3364 C 320.97 -2.46403 2.32386 0
M  V30 3365 C 320.016 -2.36815 3.54713 0
M  V30 3366 S 320.849 -1.76392 5.05614 0
M  V30 3367 C 322.005 -3.12444 5.42337 0
M  V30 3368 H 322.238 -0.766212 2.87257 0
M  V30 3369 H 319.771 -0.281987 1.51803 0
M  V30 3370 H 321.729 -3.23755 2.52375 0
M  V30 3371 H 320.39 -2.78876 1.44524 0
M  V30 3372 H 319.583 -3.35977 3.7568 0
M  V30 3373 H 319.185 -1.67598 3.34345 0
M  V30 3374 H 321.477 -4.08753 5.40303 0
M  V30 3375 H 322.42 -2.96258 6.43146 0
M  V30 3376 H 322.828 -3.1297 4.69798 0
M  V30 3377 N 322.226 -1.5378 -0.344866 0
M  V30 3378 C 323.642 -1.44015 -0.687888 0
M  V30 3379 C 323.842 -0.595834 -1.92489 0
M  V30 3380 O 322.898 -0.0863064 -2.52352 0
M  V30 3381 C 324.211 -2.87481 -0.881758 0
M  V30 3382 C 325.759 -2.97247 -0.980459 0
M  V30 3383 C 326.234 -4.41819 -1.20665 0
M  V30 3384 N 327.725 -4.45339 -1.27389 0
M  V30 3385 C 328.46 -5.54333 -1.46639 0
M  V30 3386 N 327.956 -6.73335 -1.63071 0
M  V30 3387 N 329.749 -5.41944 -1.49176 0
M  V30 3388 H 321.9 -2.07169 0.468475 0
M  V30 3389 H 324.163 -0.93643 0.147655 0
M  V30 3390 H 323.869 -3.51672 -0.0443444 0
M  V30 3391 H 323.743 -3.32352 -1.78388 0
M  V30 3392 H 326.13 -2.33197 -1.8084 0
M  V30 3393 H 326.211 -2.5574 -0.0552713 0
M  V30 3394 H 325.855 -5.06449 -0.383652 0
M  V30 3395 H 325.785 -4.80917 -2.14539 0
M  V30 3396 H 328.276 -3.59585 -1.1622 0
M  V30 3397 H 328.589 -7.52165 -1.77391 0
M  V30 3398 H 326.934 -6.76282 -1.60209 0
M  V30 3399 H 330.125 -4.47932 -1.3592 0
M  V30 3400 H 330.298 -6.26946 -1.63837 0
M  V30 3401 N 323.704 0.605807 -1.45491 0
M  V30 3402 C 324.981 1.36522 -1.40075 0
M  V30 3403 C 325.361 2.10976 -0.0722744 0
M  V30 3404 O 324.709 2.08007 0.945808 0
M  V30 3405 C 324.919 2.31056 -2.61561 0
M  V30 3406 C 326.267 2.93608 -3.06724 0
M  V30 3407 O 327.291 2.41376 -2.61946 0
M  V30 3408 O 326.15 3.88421 -3.84437 0
M  V30 3409 H 323.244 0.612248 -0.555951 0
M  V30 3410 H 325.79 0.628747 -1.57623 0
M  V30 3411 H 324.562 1.75311 -3.49831 0
M  V30 3412 H 324.185 3.12081 -2.46356 0
M  V30 3413 N 325.182 1.32811 0.848464 0
M  V30 3414 C 326.431 1.23075 1.59798 0
M  V30 3415 C 326.744 -0.204419 1.94529 0
M  V30 3416 O 327.95 -0.423701 2.68173 0
M  V30 3417 C 326.406 2.15594 2.88179 0
M  V30 3418 C 326.014 3.64228 2.60849 0
M  V30 3419 C 327.758 2.14709 3.66197 0
M  V30 3420 C 325.665 4.48689 3.85269 0
M  V30 3421 H 324.595 0.457091 0.599653 0
M  V30 3422 H 327.246 1.57813 0.936342 0
M  V30 3423 H 325.628 1.73778 3.55833 0
M  V30 3424 H 326.802 4.14424 2.01467 0
M  V30 3425 H 325.117 3.67306 1.96151 0
M  V30 3426 H 327.714 2.75046 4.58534 0
M  V30 3427 H 328.057 1.13966 4.00397 0
M  V30 3428 H 328.59 2.54837 3.05455 0
M  V30 3429 H 325.329 5.5027 3.56207 0
M  V30 3430 H 324.849 4.03241 4.44024 0
M  V30 3431 H 326.528 4.62006 4.52946 0
M  V30 3432 N 326.66 -1.06551 1.16123 0
M  V30 3433 C 328.076 -1.3142 0.905585 0
M  V30 3434 C 328.276 -1.96571 -0.442964 0
M  V30 3435 O 327.332 -2.23068 -1.18308 0
M  V30 3436 C 328.645 -2.19741 2.05267 0
M  V30 3437 C 330.193 -2.33165 2.08813 0
M  V30 3438 C 330.668 -3.24838 3.22868 0
M  V30 3439 N 332.159 -3.32421 3.22568 0
M  V30 3440 C 332.894 -4.0344 4.0746 0
M  V30 3441 N 332.39 -4.77003 5.02434 0
M  V30 3442 N 334.183 -3.99464 3.95456 0
M  V30 3443 H 326.334 -0.626548 2.02949 0
M  V30 3444 H 328.597 -0.338777 0.8854 0
M  V30 3445 H 328.303 -1.79142 3.02657 0
M  V30 3446 H 328.177 -3.20313 1.99198 0
M  V30 3447 H 330.564 -2.73013 1.12018 0
M  V30 3448 H 330.645 -1.3227 2.18948 0
M  V30 3449 H 330.289 -2.85708 4.19921 0
M  V30 3450 H 330.219 -4.25707 3.0997 0
M  V30 3451 H 332.71 -2.79994 2.53795 0
M  V30 3452 H 333.023 -5.28712 5.63634 0
M  V30 3453 H 331.368 -4.75992 5.06415 0
M  V30 3454 H 334.559 -3.4111 3.20564 0
M  V30 3455 H 334.732 -4.54544 4.61837 0
M  V30 3456 N 328.138 -0.959301 -1.25041 0
M  V30 3457 C 329.086 -0.474437 -2.2771 0
M  V30 3458 C 330.08 0.457697 -1.631 0
M  V30 3459 O 331.286 0.333912 -1.76876 0
M  V30 3460 H 327.661 -0.134936 -0.739795 0
M  V30 3461 H 329.632 -1.35251 -2.65988 0
M  V30 3462 C 328.381 0.227884 -3.46952 0
M  V30 3463 H 327.704 -0.480248 -3.96905 0
M  V30 3464 H 329.144 0.531091 -4.20661 0
M  V30 3465 C 327.603 1.452 -3.04004 0
M  V30 3466 O 328.133 2.54949 -3.10426 0
M  V30 3467 N 326.339 1.31502 -2.59144 0
M  V30 3468 H 325.886 0.422065 -2.54119 0
M  V30 3469 H 325.844 2.13521 -2.30773 0
M  V30 3470 N 329.616 1.39756 -0.72842 0
M  V30 3471 C 330.526 2.34444 -0.0855374 0
M  V30 3472 C 331.542 1.57976 0.729356 0
M  V30 3473 O 332.718 1.90301 0.659346 0
M  V30 3474 C 329.783 3.36965 0.815798 0
M  V30 3475 C 328.844 4.29299 -0.0105996 0
M  V30 3476 C 328.077 5.26923 0.84781 0
M  V30 3477 O 328.3 5.30859 2.08673 0
M  V30 3478 O 327.234 6.01249 0.279969 0
M  V30 3479 H 331.06 2.91065 -0.866892 0
M  V30 3480 H 328.645 1.4117 -0.48902 0
M  V30 3481 H 330.527 3.99804 1.33171 0
M  V30 3482 H 329.202 2.82739 1.57608 0
M  V30 3483 H 328.109 3.69703 -0.571877 0
M  V30 3484 H 329.442 4.86712 -0.73295 0
M  V30 3485 N 331.094 0.475555 1.50254 0
M  V30 3486 C 332.041 -0.316293 2.28622 0
M  V30 3487 C 333.011 -0.983227 1.33873 0
M  V30 3488 O 334.196 -0.994805 1.62814 0
M  V30 3489 C 331.336 -1.38975 3.1588 0
M  V30 3490 C 330.449 -0.737146 4.25664 0
M  V30 3491 C 329.584 -1.78887 5.00173 0
M  V30 3492 C 328.623 -1.11676 6.01826 0
M  V30 3493 N 327.76 -2.11154 6.69596 0
M  V30 3494 H 332.6 0.358297 2.95838 0
M  V30 3495 H 330.137 0.188541 1.45887 0
M  V30 3496 H 332.095 -2.02383 3.64825 0
M  V30 3497 H 330.725 -2.03344 2.50701 0
M  V30 3498 H 329.777 0.0096065 3.80399 0
M  V30 3499 H 331.089 -0.206816 4.98371 0
M  V30 3500 H 330.243 -2.49865 5.52859 0
M  V30 3501 H 328.982 -2.35302 4.27182 0
M  V30 3502 H 327.987 -0.392633 5.48396 0
M  V30 3503 H 329.212 -0.55945 6.76792 0
M  V30 3504 H 327.158 -2.66577 5.99394 0
M  V30 3505 H 327.075 -1.63118 7.38193 0
M  V30 3506 H 328.343 -2.81497 7.26897 0
M  V30 3507 N 332.573 -1.56217 0.208337 0
M  V30 3508 C 333.821 -1.97558 -0.426076 0
M  V30 3509 C 334.142 -1.09683 -1.61229 0
M  V30 3510 O 333.412 -0.170956 -1.95153 0
M  V30 3511 H 331.992 -0.729575 -0.160405 0
M  V30 3512 H 334.654 -1.92606 0.298155 0
M  V30 3513 H 333.75 -3.02672 -0.761312 0
M  V30 3514 N 334.051 0.0651679 -1.57465 0
M  V30 3515 C 335.279 0.775808 -1.91804 0
M  V30 3516 C 335.694 1.70782 -0.804916 0
M  V30 3517 O 335.051 1.81153 0.221311 0
M  V30 3518 C 335.102 1.56381 -3.25925 0
M  V30 3519 O 334.823 0.669248 -4.32958 0
M  V30 3520 C 336.324 2.37485 -3.7432 0
M  V30 3521 H 333.544 0.2202 -0.63384 0
M  V30 3522 H 336.088 0.0334587 -2.04473 0
M  V30 3523 H 334.243 2.25837 -3.14764 0
M  V30 3524 H 334.657 1.21801 -5.10162 0
M  V30 3525 H 336.131 2.88223 -4.70778 0
M  V30 3526 H 336.608 3.17307 -3.03666 0
M  V30 3527 H 337.214 1.73173 -3.88447 0
M  V30 3528 N 335.529 1.53961 0.336706 0
M  V30 3529 C 336.492 1.81724 1.39675 0
M  V30 3530 C 337.492 0.688532 1.45313 0
M  V30 3531 O 338.682 0.956829 1.45569 0
M  V30 3532 C 335.814 1.96543 2.78538 0
M  V30 3533 H 337.007 2.76424 1.16318 0
M  V30 3534 H 334.56 1.45478 0.571474 0
M  V30 3535 H 335.295 1.0401 3.07168 0
M  V30 3536 H 335.08 2.78665 2.75841 0
M  V30 3537 H 336.57 2.19516 3.5525 0
M  V30 3538 N 337.007 -0.598083 1.45811 0
M  V30 3539 C 337.954 -1.7082 1.55207 0
M  V30 3540 C 338.924 -1.61278 0.39732 0
M  V30 3541 O 340.109 -1.80717 0.612038 0
M  V30 3542 C 337.249 -3.09144 1.53376 0
M  V30 3543 C 336.362 -3.29423 2.79472 0
M  V30 3544 C 335.497 -4.57907 2.69248 0
M  V30 3545 C 334.536 -4.71476 3.90354 0
M  V30 3546 N 333.673 -5.9127 3.78608 0
M  V30 3547 H 338.513 -1.62125 2.50039 0
M  V30 3548 H 336.05 -0.790389 1.24062 0
M  V30 3549 H 338.008 -3.89186 1.50301 0
M  V30 3550 H 336.638 -3.16773 0.620876 0
M  V30 3551 H 335.69 -2.43091 2.92594 0
M  V30 3552 H 337.002 -3.3532 3.69272 0
M  V30 3553 H 336.156 -5.46157 2.64192 0
M  V30 3554 H 334.895 -4.54423 1.77063 0
M  V30 3555 H 333.9 -3.81648 3.95759 0
M  V30 3556 H 335.125 -4.76751 4.83617 0
M  V30 3557 H 333.071 -5.88813 2.89199 0
M  V30 3558 H 332.988 -5.98369 4.6205 0
M  V30 3559 H 334.256 -6.81992 3.77501 0
M  V30 3560 N 338.485 -1.33259 -0.841409 0
M  V30 3561 C 339.896 -1.22066 -1.41269 0
M  V30 3562 C 340.247 0.161479 -1.95534 0
M  V30 3563 O 339.372 1.06094 -1.88608 0
M  V30 3564 C 339.967 -2.20996 -2.568 0
M  V30 3565 C 338.526 -2.13649 -3.09888 0
M  V30 3566 C 337.673 -2.08623 -1.82679 0
M  V30 3567 H 340.624 -1.44895 -0.647395 0
M  V30 3568 H 340.645 -1.81621 -3.34356 0
M  V30 3569 H 340.157 -3.2158 -2.17274 0
M  V30 3570 H 338.258 -1.16359 -3.53965 0
M  V30 3571 H 338.371 -3.04079 -3.70234 0
M  V30 3572 H 336.735 -1.54061 -2.02824 0
M  V30 3573 H 337.518 -3.1101 -1.45353 0
M  V30 3574 N 339.963 1.05934 -1.16686 0
M  V30 3575 C 341.24 1.75643 -0.860747 0
M  V30 3576 C 341.62 2.01144 0.640641 0
M  V30 3577 O 340.968 1.64147 1.58959 0
M  V30 3578 C 341.178 3.05493 -1.68745 0
M  V30 3579 C 342.526 3.79581 -1.90271 0
M  V30 3580 O 343.55 3.15344 -1.65641 0
M  V30 3581 O 342.409 4.9499 -2.31618 0
M  V30 3582 H 339.503 0.763426 -0.317977 0
M  V30 3583 H 342.049 1.1217 -1.27342 0
M  V30 3584 H 340.821 2.8264 -2.70611 0
M  V30 3585 H 340.444 3.76702 -1.27206 0
M  V30 3586 N 341.441 0.965919 1.2453 0
M  V30 3587 C 342.852 0.665929 1.7442 0
M  V30 3588 C 343.203 -0.818407 1.78316 0
M  V30 3589 O 342.328 -1.64037 1.41141 0
M  V30 3590 C 342.923 1.20211 3.16757 0
M  V30 3591 C 341.482 0.952059 3.6416 0
M  V30 3592 C 340.629 1.33848 2.42858 0
M  V30 3593 H 343.58 1.14144 1.10258 0
M  V30 3594 H 343.601 0.567544 3.76244 0
M  V30 3595 H 343.113 2.28244 3.13889 0
M  V30 3596 H 341.214 -0.112821 3.72429 0
M  V30 3597 H 341.327 1.59645 4.51719 0
M  V30 3598 H 339.691 0.756864 2.43195 0
M  V30 3599 H 340.474 2.42827 2.42673 0
M  V30 3600 N 342.919 -1.39368 0.735821 0
M  V30 3601 C 343.882 -2.2896 0.104874 0
M  V30 3602 C 344.882 -1.46347 -0.666274 0
M  V30 3603 O 346.072 -1.67014 -0.49517 0
M  V30 3604 C 343.204 -3.29857 -0.860656 0
M  V30 3605 H 344.397 -2.86259 0.894205 0
M  V30 3606 H 341.95 -1.48029 0.501704 0
M  V30 3607 H 342.685 -2.77615 -1.67631 0
M  V30 3608 H 342.47 -3.9087 -0.310327 0
M  V30 3609 H 343.96 -3.96893 -1.29867 0
M  V30 3610 N 344.397 -0.483516 -1.5 0
M  V30 3611 C 345.643 0.0672592 -2.02688 0
M  V30 3612 C 345.976 1.38247 -1.36387 0
M  V30 3613 O 345.251 1.88131 -0.493675 0
M  V30 3614 C 345.534 0.238109 -3.59312 0
M  V30 3615 C 345.387 -1.099 -4.36168 0
M  V30 3616 C 346.706 0.986916 -4.28892 0
M  V30 3617 H 343.825 0.0229696 -0.736642 0
M  V30 3618 H 346.467 -0.631527 -1.79197 0
M  V30 3619 H 344.617 0.8333 -3.79458 0
M  V30 3620 H 346.289 -1.73172 -4.27562 0
M  V30 3621 H 344.532 -1.69261 -3.99416 0
M  V30 3622 H 345.203 -0.932954 -5.44059 0
M  V30 3623 H 347.679 0.482302 -4.13295 0
M  V30 3624 H 346.555 1.07527 -5.38265 0
M  V30 3625 H 346.816 2.0265 -3.92919 0
M  V30 3626 N 345.875 1.56104 -0.216619 0
M  V30 3627 C 346.808 2.16026 0.735395 0
M  V30 3628 C 347.786 1.1032 1.1945 0
M  V30 3629 O 348.97 1.38549 1.27814 0
M  V30 3630 C 346.097 2.73656 1.99575 0
M  V30 3631 C 345.143 3.92146 1.67702 0
M  V30 3632 S 345.976 5.29397 0.806145 0
M  V30 3633 C 347.132 5.90463 2.07617 0
M  V30 3634 H 347.365 2.96439 0.226072 0
M  V30 3635 H 344.898 1.544 -0.00136639 0
M  V30 3636 H 346.856 3.075 2.71945 0
M  V30 3637 H 345.517 1.93245 2.47619 0
M  V30 3638 H 344.71 4.30954 2.61332 0
M  V30 3639 H 344.312 3.59423 1.03398 0
M  V30 3640 H 346.604 6.06136 3.02664 0
M  V30 3641 H 347.547 6.86589 1.73207 0
M  V30 3642 H 347.955 5.19252 2.21445 0
M  V30 3643 N 347.353 -0.0568162 1.57498 0
M  V30 3644 C 348.3 -1.06591 2.04712 0
M  V30 3645 C 349.27 -1.3758 0.930644 0
M  V30 3646 O 350.455 -1.48392 1.19935 0
M  V30 3647 C 347.595 -2.3701 2.50839 0
M  V30 3648 C 346.708 -2.12421 3.76167 0
M  V30 3649 C 345.843 -3.36511 4.11015 0
M  V30 3650 C 344.882 -3.07353 5.2934 0
M  V30 3651 N 344.019 -4.23816 5.59754 0
M  V30 3652 H 348.859 -0.65631 2.90683 0
M  V30 3653 H 346.396 -0.312481 1.43743 0
M  V30 3654 H 348.354 -3.13175 2.7564 0
M  V30 3655 H 346.984 -2.75744 1.67825 0
M  V30 3656 H 346.036 -1.2688 3.58616 0
M  V30 3657 H 347.348 -1.86894 4.62463 0
M  V30 3658 H 346.502 -4.21062 4.36797 0
M  V30 3659 H 345.241 -3.65128 3.23315 0
M  V30 3660 H 344.246 -2.212 5.03339 0
M  V30 3661 H 345.471 -2.80043 6.1867 0
M  V30 3662 H 343.417 -4.52436 4.75014 0
M  V30 3663 H 343.334 -4.01614 6.40501 0
M  V30 3664 H 344.602 -5.0932 5.90096 0
M  V30 3665 N 348.832 -1.54138 -0.328536 0
M  V30 3666 C 350.248 -1.44736 -0.672574 0
M  V30 3667 C 350.448 -0.616217 -1.91846 0
M  V30 3668 O 349.504 -0.113067 -2.52247 0
M  V30 3669 C 350.817 -2.884 -0.851217 0
M  V30 3670 C 352.365 -2.98271 -0.948877 0
M  V30 3671 C 352.84 -4.43074 -1.15973 0
M  V30 3672 N 354.331 -4.46665 -1.22658 0
M  V30 3673 C 355.066 -5.55857 -1.40751 0
M  V30 3674 N 354.562 -6.75026 -1.5592 0
M  V30 3675 N 356.355 -5.43495 -1.4342 0
M  V30 3676 H 348.506 -2.06661 0.490421 0
M  V30 3677 H 350.769 -0.934812 0.157579 0
M  V30 3678 H 350.475 -3.51699 -0.00704236 0
M  V30 3679 H 350.349 -3.34225 -1.74853 0
M  V30 3680 H 352.736 -2.35102 -1.78356 0
M  V30 3681 H 352.817 -2.55785 -0.0281435 0
M  V30 3682 H 352.461 -5.06827 -0.329915 0
M  V30 3683 H 352.391 -4.83165 -2.09426 0
M  V30 3684 H 354.882 -3.60797 -1.124 0
M  V30 3685 H 355.195 -7.54004 -1.69404 0
M  V30 3686 H 353.54 -6.77944 -1.53027 0
M  V30 3687 H 356.731 -4.49349 -1.31162 0
M  V30 3688 H 356.904 -6.28649 -1.57178 0
M  V30 3689 N 350.31 0.590341 -1.46126 0
M  V30 3690 C 351.24 1.71032 -1.58966 0
M  V30 3691 C 352.221 1.64302 -0.440335 0
M  V30 3692 O 353.406 1.82436 -0.665634 0
M  V30 3693 C 350.536 3.09665 -1.57241 0
M  V30 3694 C 349.49 3.31221 -2.71066 0
M  V30 3695 C 348.816 4.70303 -2.54399 0
M  V30 3696 C 350.116 3.19796 -4.1295 0
M  V30 3697 H 351.81 1.60543 -2.52718 0
M  V30 3698 H 349.356 0.770933 -1.21625 0
M  V30 3699 H 351.309 3.87831 -1.64819 0
M  V30 3700 H 350.033 3.21036 -0.600289 0
M  V30 3701 H 348.692 2.55452 -2.62944 0
M  V30 3702 H 348.34 4.78429 -1.55288 0
M  V30 3703 H 348.04 4.85679 -3.30741 0
M  V30 3704 H 349.564 5.50647 -2.63857 0
M  V30 3705 H 350.978 3.87815 -4.22223 0
M  V30 3706 H 349.375 3.46696 -4.89818 0
M  V30 3707 H 350.445 2.16983 -4.33643 0
M  V30 3708 N 351.788 1.33704 0.83433 0
M  V30 3709 C 353.037 1.24763 1.58484 0
M  V30 3710 C 353.35 -0.183775 1.94735 0
M  V30 3711 O 354.556 -0.395234 2.68608 0
M  V30 3712 C 353.012 2.18638 2.85876 0
M  V30 3713 C 352.62 3.66974 2.56971 0
M  V30 3714 C 354.364 2.18581 3.63899 0
M  V30 3715 C 352.271 4.5275 3.80488 0
M  V30 3716 H 351.201 0.463425 0.594772 0
M  V30 3717 H 353.852 1.58797 0.919551 0
M  V30 3718 H 352.234 1.77542 3.5397 0
M  V30 3719 H 353.408 4.16538 1.9706 0
M  V30 3720 H 351.723 3.69366 1.92244 0
M  V30 3721 H 354.32 2.79894 4.55591 0
M  V30 3722 H 354.663 1.18207 3.99165 0
M  V30 3723 H 355.196 2.58062 3.02735 0
M  V30 3724 H 351.935 5.54017 3.5035 0
M  V30 3725 H 351.455 4.07927 4.39722 0
M  V30 3726 H 353.134 4.66784 4.4802 0
M  V30 3727 N 353.266 -1.05314 1.17247 0
M  V30 3728 C 354.198 -2.13023 0.845812 0
M  V30 3729 C 355.211 -1.62096 -0.151246 0
M  V30 3730 O 356.4 -1.78343 0.0748818 0
M  V30 3731 C 353.5 -3.38047 0.240292 0
M  V30 3732 C 352.673 -4.18255 1.27991 0
M  V30 3733 C 351.732 -5.21625 0.692375 0
M  V30 3734 O 350.758 -5.52619 1.36385 0
M  V30 3735 N 351.96 -5.78201 -0.516178 0
M  V30 3736 H 354.725 -2.41642 1.77283 0
M  V30 3737 H 352.286 -1.21401 1.07115 0
M  V30 3738 H 354.278 -4.04359 -0.16603 0
M  V30 3739 H 352.848 -3.06972 -0.590487 0
M  V30 3740 H 352.068 -3.47451 1.86203 0
M  V30 3741 H 353.356 -4.68643 1.98119 0
M  V30 3742 H 352.754 -5.55301 -1.07969 0
M  V30 3743 H 351.311 -6.4604 -0.86458 0
M  V30 3744 N 354.744 -0.972509 -1.24016 0
M  V30 3745 C 355.674 -0.525548 -2.27509 0
M  V30 3746 C 356.655 0.437262 -1.64384 0
M  V30 3747 O 357.84 0.332343 -1.91335 0
M  V30 3748 C 354.97 0.180448 -3.46831 0
M  V30 3749 C 353.924 -0.698859 -4.22256 0
M  V30 3750 C 353.25 0.138903 -5.3452 0
M  V30 3751 C 354.55 -1.98582 -4.83076 0
M  V30 3752 H 356.244 -1.39058 -2.65148 0
M  V30 3753 H 353.79 -0.67009 -1.27459 0
M  V30 3754 H 355.743 0.504387 -4.18371 0
M  V30 3755 H 354.467 1.07987 -3.08231 0
M  V30 3756 H 353.126 -1.00614 -3.52523 0
M  V30 3757 H 352.774 1.03862 -4.9216 0
M  V30 3758 H 352.474 -0.446259 -5.85903 0
M  V30 3759 H 353.998 0.457404 -6.08884 0
M  V30 3760 H 355.412 -1.72715 -5.46665 0
M  V30 3761 H 353.809 -2.5181 -5.44713 0
M  V30 3762 H 354.879 -2.67769 -4.04262 0
M  V30 3763 N 356.222 1.38976 -0.743202 0
M  V30 3764 C 357.47 1.99948 -0.29417 0
M  V30 3765 C 357.791 1.59279 1.12495 0
M  V30 3766 O 357.061 0.844808 1.76748 0
M  V30 3767 H 355.641 0.739473 -0.105774 0
M  V30 3768 H 358.303 1.699 -0.954986 0
M  V30 3769 H 357.399 3.10142 -0.349056 0
M  V30 3770 N 357.7 0.491464 1.49741 0
M  V30 3771 C 358.63 -0.28154 2.31796 0
M  V30 3772 C 359.611 -0.971473 1.3963 0
M  V30 3773 O 360.796 -0.964719 1.68543 0
M  V30 3774 C 357.926 -1.35203 3.19902 0
M  V30 3775 C 356.88 -0.782529 4.20786 0
M  V30 3776 C 356.206 -1.95283 4.97764 0
M  V30 3777 C 357.506 0.21999 5.21837 0
M  V30 3778 H 359.2 0.403355 2.96671 0
M  V30 3779 H 356.746 0.195425 1.42668 0
M  V30 3780 H 358.699 -1.90045 3.76113 0
M  V30 3781 H 357.423 -2.06598 2.52953 0
M  V30 3782 H 356.082 -0.255928 3.65706 0
M  V30 3783 H 355.73 -2.65423 4.2727 0
M  V30 3784 H 355.43 -1.57789 5.66018 0
M  V30 3785 H 356.954 -2.50577 5.56816 0
M  V30 3786 H 358.368 -0.23996 5.72798 0
M  V30 3787 H 356.765 0.51026 5.97927 0
M  V30 3788 H 357.835 1.13911 4.7133 0
M  V30 3789 N 359.178 -1.55987 0.224894 0
M  V30 3790 C 360.589 -1.84553 -0.282345 0
M  V30 3791 C 360.94 -1.14634 -1.59227 0
M  V30 3792 O 360.065 -0.417155 -2.12341 0
M  V30 3793 C 360.66 -3.348 -0.519062 0
M  V30 3794 C 359.219 -3.63671 -0.970604 0
M  V30 3795 C 358.366 -2.77277 -0.0355261 0
M  V30 3796 H 361.317 -1.52245 0.448006 0
M  V30 3797 H 361.338 -3.55187 -1.36463 0
M  V30 3798 H 360.85 -3.8566 0.43449 0
M  V30 3799 H 358.951 -3.1827 -1.9374 0
M  V30 3800 H 359.064 -4.71631 -0.842698 0
M  V30 3801 H 357.428 -2.48846 -0.542927 0
M  V30 3802 H 358.211 -3.30937 0.913003 0
M  V30 3803 N 360.656 0.0484629 -1.57525 0
M  V30 3804 C 361.905 0.742065 -1.87553 0
M  V30 3805 C 362.218 1.77545 -0.820802 0
M  V30 3806 O 363.424 2.52027 -1.00967 0
M  V30 3807 C 361.88 1.37081 -3.32771 0
M  V30 3808 C 361.488 0.374786 -4.4643 0
M  V30 3809 C 363.232 2.04542 -3.71972 0
M  V30 3810 C 361.139 1.01077 -5.82698 0
M  V30 3811 H 360.069 0.280903 -0.699721 0
M  V30 3812 H 362.72 -0.00411877 -1.835 0
M  V30 3813 H 361.102 2.16605 -3.31509 0
M  V30 3814 H 362.276 -0.392331 -4.59127 0
M  V30 3815 H 360.591 -0.196653 -4.15935 0
M  V30 3816 H 363.188 2.52943 -4.71088 0
M  V30 3817 H 363.531 2.85515 -3.02964 0
M  V30 3818 H 364.064 1.31819 -3.75325 0
M  V30 3819 H 360.803 0.240878 -6.55057 0
M  V30 3820 H 360.323 1.74819 -5.73758 0
M  V30 3821 H 362.002 1.52383 -6.28799 0
M  V30 3822 N 362.134 1.5431 0.320358 0
M  V30 3823 C 363.097 1.83195 1.3774 0
M  V30 3824 C 364.097 0.703906 1.44575 0
M  V30 3825 O 365.287 0.972214 1.44546 0
M  V30 3826 C 362.419 1.99487 2.76438 0
M  V30 3827 H 363.612 2.77642 1.1338 0
M  V30 3828 H 361.165 1.46076 0.556012 0
M  V30 3829 H 361.9 1.07262 3.06048 0
M  V30 3830 H 361.685 2.81575 2.7287 0
M  V30 3831 H 363.175 2.23271 3.52902 0
M  V30 3832 N 363.613 -0.582584 1.46437 0
M  V30 3833 C 364.543 -1.70187 1.59871 0
M  V30 3834 C 365.524 -1.64066 0.449042 0
M  V30 3835 O 366.709 -1.82081 0.6753 0
M  V30 3836 C 363.839 -3.08827 1.58881 0
M  V30 3837 C 362.793 -3.29779 2.72819 0
M  V30 3838 C 362.119 -4.68947 2.5689 0
M  V30 3839 C 363.419 -3.17601 4.1464 0
M  V30 3840 H 365.113 -1.592 2.53566 0
M  V30 3841 H 362.659 -0.764472 1.22032 0
M  V30 3842 H 364.612 -3.86951 1.66873 0
M  V30 3843 H 363.336 -3.20713 0.617306 0
M  V30 3844 H 361.995 -2.54054 2.64296 0
M  V30 3845 H 361.643 -4.77599 1.57823 0
M  V30 3846 H 361.343 -4.83919 3.33312 0
M  V30 3847 H 362.867 -5.4924 2.66773 0
M  V30 3848 H 364.281 -3.8557 4.24274 0
M  V30 3849 H 362.678 -3.44094 4.9165 0
M  V30 3850 H 363.748 -2.14681 4.34788 0
M  V30 3851 N 365.091 -1.34144 -0.827227 0
M  V30 3852 C 366.054 -1.25264 -1.91942 0
M  V30 3853 C 367.054 -0.168866 -1.59911 0
M  V30 3854 O 368.244 -0.421198 -1.69031 0
M  V30 3855 C 365.376 -0.932952 -3.27885 0
M  V30 3856 H 366.569 -2.22357 -2.0124 0
M  V30 3857 H 364.122 -1.1837 -1.0207 0
M  V30 3858 H 364.857 0.0349917 -3.24281 0
M  V30 3859 H 364.642 -1.71682 -3.52516 0
M  V30 3860 H 366.132 -0.895874 -4.07877 0
M  V30 3861 N 366.569 1.04691 -1.17803 0
M  V30 3862 C 367.499 2.14494 -0.92275 0
M  V30 3863 C 368.48 1.69546 0.137179 0
M  V30 3864 O 369.665 1.94195 -0.0141108 0
M  V30 3865 C 366.795 3.44491 -0.440803 0
M  V30 3866 C 365.749 4.03031 -1.4405 0
M  V30 3867 C 365.075 5.28432 -0.81631 0
M  V30 3868 C 366.375 4.39932 -2.81527 0
M  V30 3869 H 368.069 2.36107 -1.84103 0
M  V30 3870 H 365.615 1.1347 -0.886599 0
M  V30 3871 H 367.568 4.2066 -0.249602 0
M  V30 3872 H 366.292 3.22546 0.513025 0
M  V30 3873 H 364.951 3.28937 -1.61853 0
M  V30 3874 H 364.599 5.02792 0.144511 0
M  V30 3875 H 364.299 5.68559 -1.48371 0
M  V30 3876 H 365.823 6.07284 -0.635496 0
M  V30 3877 H 367.237 5.07113 -2.67412 0
M  V30 3878 H 365.634 4.9109 -3.44892 0
M  V30 3879 H 366.704 3.50045 -3.35554 0
M  V30 3880 N 368.047 0.979072 1.23499 0
M  V30 3881 C 369.294 0.647219 1.91878 0
M  V30 3882 C 369.622 -0.819074 1.76413 0
M  V30 3883 O 368.877 -1.60616 1.11808 0
M  V30 3884 C 369.176 0.981932 3.43646 0
M  V30 3885 C 368.842 2.43822 3.79291 0
M  V30 3886 C 367.504 2.83622 3.88731 0
M  V30 3887 C 369.856 3.3828 3.96505 0
M  V30 3888 C 367.184 4.16897 4.12812 0
M  V30 3889 C 369.536 4.71197 4.22085 0
M  V30 3890 C 368.2 5.10758 4.29747 0
M  V30 3891 H 367.47 0.236834 0.702133 0
M  V30 3892 H 370.117 1.23268 1.46551 0
M  V30 3893 H 368.422 0.314365 3.90537 0
M  V30 3894 H 370.119 0.703395 3.94783 0
M  V30 3895 H 366.709 2.11966 3.72516 0
M  V30 3896 H 370.893 3.0871 3.88603 0
M  V30 3897 H 366.149 4.47157 4.16966 0
M  V30 3898 H 370.323 5.44348 4.34348 0
M  V30 3899 H 367.95 6.1405 4.48159 0
M  V30 3900 N 369.525 -1.3858 0.750561 0
M  V30 3901 C 370.772 -2.00184 0.305373 0
M  V30 3902 C 371.1 -1.59575 -1.11203 0
M  V30 3903 O 370.355 -0.823236 -1.77542 0
M  V30 3904 C 370.654 -3.55455 0.372373 0
M  V30 3905 C 370.32 -4.15765 1.745 0
M  V30 3906 C 368.982 -4.31951 2.12065 0
M  V30 3907 C 371.334 -4.49067 2.64553 0
M  V30 3908 C 368.662 -4.78734 3.39162 0
M  V30 3909 C 371.014 -4.97265 3.91038 0
M  V30 3910 C 369.678 -5.11658 4.28676 0
M  V30 3911 H 368.948 -0.732526 0.111744 0
M  V30 3912 H 371.595 -1.65673 0.960451 0
M  V30 3913 H 369.9 -3.90084 -0.366272 0
M  V30 3914 H 371.597 -4.00999 0.00953918 0
M  V30 3915 H 368.187 -4.03579 1.44297 0
M  V30 3916 H 372.371 -4.36166 2.36796 0
M  V30 3917 H 367.627 -4.88062 3.68246 0
M  V30 3918 H 371.801 -5.22003 4.60962 0
M  V30 3919 H 369.428 -5.47668 5.27222 0
M  V30 3920 N 371.003 -0.499398 -1.49478 0
M  V30 3921 C 371.913 0.284489 -2.32869 0
M  V30 3922 C 372.929 0.968885 -1.44529 0
M  V30 3923 O 374.105 0.95062 -1.77553 0
M  V30 3924 C 371.17 1.33594 -3.19928 0
M  V30 3925 C 370.231 0.665149 -4.24116 0
M  V30 3926 C 369.464 1.6665 -5.07014 0
M  V30 3927 O 369.687 2.89618 -4.91404 0
M  V30 3928 O 368.621 1.22271 -5.8935 0
M  V30 3929 H 372.447 -0.39802 -3.01081 0
M  V30 3930 H 370.032 -0.260758 -1.47107 0
M  V30 3931 H 371.914 1.94431 -3.73864 0
M  V30 3932 H 370.589 2.0014 -2.54412 0
M  V30 3933 H 369.496 0.0170769 -3.74096 0
M  V30 3934 H 370.829 0.0421555 -4.92182 0
M  V30 3935 N 372.481 1.55866 -0.233164 0
M  V30 3936 C 373.727 1.98897 0.395959 0
M  V30 3937 C 374.06 1.12091 1.58585 0
M  V30 3938 O 373.335 0.181182 1.93654 0
M  V30 3939 C 373.618 3.50658 0.819224 0
M  V30 3940 C 373.471 4.48233 -0.375109 0
M  V30 3941 C 374.79 4.07135 1.67121 0
M  V30 3942 H 371.909 0.723102 0.142451 0
M  V30 3943 H 374.551 1.87082 -0.331725 0
M  V30 3944 H 372.701 3.60857 1.43925 0
M  V30 3945 H 374.373 4.50031 -1.01341 0
M  V30 3946 H 372.616 4.21624 -1.02058 0
M  V30 3947 H 373.287 5.51988 -0.0358328 0
M  V30 3948 H 375.763 3.99952 1.14795 0
M  V30 3949 H 374.639 5.13615 1.93625 0
M  V30 3950 H 374.9 3.54736 2.63846 0
M  V30 3951 N 373.959 -0.0401083 1.57549 0
M  V30 3952 C 375.187 -0.745196 1.93014 0
M  V30 3953 C 375.602 -1.6948 0.831984 0
M  V30 3954 O 374.959 -1.81482 -0.192463 0
M  V30 3955 C 375.01 -1.51176 3.28372 0
M  V30 3956 O 374.731 -0.600284 4.33968 0
M  V30 3957 C 376.232 -2.315 3.78051 0
M  V30 3958 H 373.452 -0.210088 0.637263 0
M  V30 3959 H 375.996 -0.000924689 2.045 0
M  V30 3960 H 374.151 -2.20801 3.18317 0
M  V30 3961 H 374.565 -1.13669 5.12035 0
M  V30 3962 H 376.039 -2.80697 4.75303 0
M  V30 3963 H 376.516 -3.12436 3.08675 0
M  V30 3964 H 377.122 -1.66971 3.91153 0
M  V30 3965 N 375.437 -1.54477 -0.31217 0
M  V30 3966 C 376.367 -1.87652 -1.38957 0
M  V30 3967 C 377.348 -0.734358 -1.53431 0
M  V30 3968 O 378.533 -0.98911 -1.67123 0
M  V30 3969 C 375.663 -2.11396 -2.75552 0
M  V30 3970 C 374.617 -3.27243 -2.75855 0
M  V30 3971 C 373.943 -3.36382 -4.15633 0
M  V30 3972 C 375.243 -4.64622 -2.38587 0
M  V30 3973 H 376.937 -2.77887 -1.11442 0
M  V30 3974 H 374.483 -1.33707 -0.534655 0
M  V30 3975 H 376.436 -2.33189 -3.51 0
M  V30 3976 H 375.16 -1.17921 -3.04569 0
M  V30 3977 H 373.819 -3.05356 -2.02863 0
M  V30 3978 H 373.467 -2.40445 -4.41809 0
M  V30 3979 H 373.167 -4.14249 -4.1674 0
M  V30 3980 H 374.691 -3.60422 -4.92877 0
M  V30 3981 H 376.105 -4.86219 -3.03749 0
M  V30 3982 H 374.502 -5.45121 -2.50925 0
M  V30 3983 H 375.572 -4.66097 -1.33723 0
M  V30 3984 N 376.915 0.57481 -1.46744 0
M  V30 3985 C 378.162 1.33272 -1.52462 0
M  V30 3986 C 378.49 1.93669 -0.179572 0
M  V30 3987 O 377.745 1.7743 0.825664 0
M  V30 3988 C 378.044 2.476 -2.57738 0
M  V30 3989 C 377.71 2.05146 -4.01529 0
M  V30 3990 C 376.372 1.93284 -4.40676 0
M  V30 3991 C 378.724 1.72506 -4.91824 0
M  V30 3992 C 376.052 1.47049 -5.67973 0
M  V30 3993 C 378.404 1.27748 -6.19567 0
M  V30 3994 C 377.068 1.14468 -6.57612 0
M  V30 3995 H 376.338 0.487678 -0.557899 0
M  V30 3996 H 378.985 0.646456 -1.80259 0
M  V30 3997 H 377.29 3.21708 -2.23632 0
M  V30 3998 H 378.987 3.05807 -2.5939 0
M  V30 3999 H 375.577 2.15316 -3.7059 0
M  V30 4000 H 379.761 1.80552 -4.62293 0
M  V30 4001 H 375.017 1.35417 -5.96215 0
M  V30 4002 H 379.191 1.01547 -6.88957 0
M  V30 4003 H 376.818 0.78419 -7.56145 0
M  V30 4004 N 378.394 1.34581 0.820102 0
M  V30 4005 C 379.357 1.2628 1.91275 0
M  V30 4006 C 380.357 0.177344 1.59819 0
M  V30 4007 O 381.547 0.430156 1.68806 0
M  V30 4008 C 378.679 0.950327 3.27386 0
M  V30 4009 H 379.872 2.23421 2.00057 0
M  V30 4010 H 377.425 1.1891 1.0144 0
M  V30 4011 H 378.16 -0.0177938 3.24295 0
M  V30 4012 H 377.945 1.73549 3.51601 0
M  V30 4013 H 379.435 0.917492 4.07396 0
M  V30 4014 N 379.872 -1.04064 1.18357 0
M  V30 4015 C 381.118 -1.77528 0.980397 0
M  V30 4016 C 381.451 -1.87948 -0.48879 0
M  V30 4017 O 380.726 -1.3876 -1.36293 0
M  V30 4018 C 381.009 -3.20797 1.63588 0
M  V30 4019 C 380.862 -3.1832 3.17793 0
M  V30 4020 C 382.181 -4.18911 1.34914 0
M  V30 4021 H 379.3 -0.644443 0.357578 0
M  V30 4022 H 381.942 -1.2156 1.46024 0
M  V30 4023 H 380.092 -3.68586 1.22788 0
M  V30 4024 H 381.764 -2.78521 3.67728 0
M  V30 4025 H 380.007 -2.56351 3.49952 0
M  V30 4026 H 380.678 -4.19489 3.58794 0
M  V30 4027 H 383.154 -3.7967 1.70265 0
M  V30 4028 H 382.03 -5.17374 1.83346 0
M  V30 4029 H 382.291 -4.41262 0.272027 0
M  V30 4030 N 381.35 -0.985608 -1.22978 0
M  V30 4031 C 382.596 -0.65836 -1.91816 0
M  V30 4032 C 382.929 0.806692 -1.76653 0
M  V30 4033 O 382.204 1.58252 -1.13078 0
M  V30 4034 C 382.487 -1.056 -3.44268 0
M  V30 4035 C 382.34 -2.57906 -3.68516 0
M  V30 4036 C 383.659 -0.603781 -4.35939 0
M  V30 4037 H 380.778 -0.24065 -0.696604 0
M  V30 4038 H 383.42 -1.22783 -1.44998 0
M  V30 4039 H 381.57 -0.571445 -3.84274 0
M  V30 4040 H 383.242 -3.13976 -3.3796 0
M  V30 4041 H 381.485 -3.00305 -3.13048 0
M  V30 4042 H 382.156 -2.80779 -4.75255 0
M  V30 4043 H 384.632 -1.01987 -4.03408 0
M  V30 4044 H 383.508 -0.910383 -5.41298 0
M  V30 4045 H 383.769 0.495761 -4.39312 0
M  V30 4046 N 382.828 1.3818 -0.7579 0
M  V30 4047 C 383.791 2.28764 -0.141286 0
M  V30 4048 C 384.791 1.47388 0.642907 0
M  V30 4049 O 385.981 1.67781 0.468536 0
M  V30 4050 C 383.113 3.31184 0.808069 0
M  V30 4051 H 384.306 2.848 -0.939633 0
M  V30 4052 H 381.859 1.47212 -0.525191 0
M  V30 4053 H 382.594 2.80247 1.63193 0
M  V30 4054 H 382.379 3.91314 0.248104 0
M  V30 4055 H 383.869 3.98909 1.23536 0
M  V30 4056 N 384.306 0.507319 1.49211 0
M  V30 4057 C 385.236 -0.256939 2.32082 0
M  V30 4058 C 386.217 -0.956609 1.40652 0
M  V30 4059 O 387.402 -0.946788 1.69557 0
M  V30 4060 C 384.532 -1.31802 3.21318 0
M  V30 4061 C 383.486 -0.737855 4.21592 0
M  V30 4062 C 382.812 -1.89992 4.99807 0
M  V30 4063 C 384.112 0.275325 5.21574 0
M  V30 4064 H 385.806 0.434798 2.96226 0
M  V30 4065 H 383.352 0.210546 1.42452 0
M  V30 4066 H 385.305 -1.86045 3.78107 0
M  V30 4067 H 384.029 -2.03903 2.5513 0
M  V30 4068 H 382.688 -0.217126 3.65956 0
M  V30 4069 H 382.336 -2.60877 4.30061 0
M  V30 4070 H 382.036 -1.51777 5.6766 0
M  V30 4071 H 383.56 -2.44657 5.59442 0
M  V30 4072 H 384.974 -0.179193 5.7302 0
M  V30 4073 H 383.371 0.573649 5.97352 0
M  V30 4074 H 384.441 1.18903 4.70096 0
M  V30 4075 N 385.784 -1.5574 0.241426 0
M  V30 4076 C 386.714 -2.24133 -0.654722 0
M  V30 4077 C 387.695 -1.21974 -1.1856 0
M  V30 4078 O 388.88 -1.50612 -1.22595 0
M  V30 4079 C 386.01 -2.93659 -1.85423 0
M  V30 4080 C 384.964 -4.0246 -1.45636 0
M  V30 4081 C 384.29 -4.59383 -2.73626 0
M  V30 4082 C 385.59 -5.18468 -0.631506 0
M  V30 4083 H 387.284 -2.99281 -0.0844353 0
M  V30 4084 H 384.83 -1.43947 -0.0391707 0
M  V30 4085 H 386.783 -3.40203 -2.48676 0
M  V30 4086 H 385.507 -2.15991 -2.44981 0
M  V30 4087 H 384.166 -3.56676 -0.847202 0
M  V30 4088 H 383.814 -3.78422 -3.3137 0
M  V30 4089 H 383.514 -5.32826 -2.4773 0
M  V30 4090 H 385.038 -5.08658 -3.37786 0
M  V30 4091 H 386.452 -5.61272 -1.1682 0
M  V30 4092 H 384.849 -5.98266 -0.468831 0
M  V30 4093 H 385.919 -4.8358 0.357506 0
M  V30 4094 N 387.262 0.0317525 -1.57568 0
M  V30 4095 C 388.508 0.724175 -1.8943 0
M  V30 4096 C 388.841 1.75149 -0.838836 0
M  V30 4097 O 388.116 1.93948 0.146422 0
M  V30 4098 C 388.399 1.39615 -3.31933 0
M  V30 4099 C 388.252 0.382537 -4.4817 0
M  V30 4100 C 389.571 2.33084 -3.73309 0
M  V30 4101 H 386.69 0.261797 -0.688935 0
M  V30 4102 H 389.332 -0.013017 -1.89996 0
M  V30 4103 H 387.482 2.02451 -3.31581 0
M  V30 4104 H 389.154 -0.243689 -4.60656 0
M  V30 4105 H 387.397 -0.29844 -4.32772 0
M  V30 4106 H 388.068 0.891145 -5.44759 0
M  V30 4107 H 390.544 1.80295 -3.7501 0
M  V30 4108 H 389.42 2.77084 -4.73831 0
M  V30 4109 H 389.681 3.19643 -3.05419 0
M  V30 4110 N 388.74 1.54641 0.303973 0
M  V30 4111 C 389.965 1.78092 1.06292 0
M  V30 4112 C 390.39 0.537342 1.80262 0
M  V30 4113 O 389.748 -0.511993 1.7392 0
M  V30 4114 C 389.796 2.98612 2.02147 0
M  V30 4115 O 388.9 2.71528 3.10397 0
M  V30 4116 H 388.241 0.589548 0.305497 0
M  V30 4117 H 390.771 2.01716 0.3423 0
M  V30 4118 H 390.781 3.265 2.44667 0
M  V30 4119 H 389.456 3.88785 1.47714 0
M  V30 4120 H 388.033 2.54648 2.72413 0
M  V30 4121 N 390.218 -0.567019 1.47046 0
M  V30 4122 C 391.629 -1.14916 1.47143 0
M  V30 4123 C 391.98 -1.94954 0.220767 0
M  V30 4124 O 391.105 -2.05602 -0.67505 0
M  V30 4125 C 391.7 -2.09069 2.666 0
M  V30 4126 C 390.259 -2.62575 2.69687 0
M  V30 4127 C 389.406 -1.38755 2.40088 0
M  V30 4128 H 392.357 -0.354126 1.54699 0
M  V30 4129 H 392.378 -2.92789 2.43011 0
M  V30 4130 H 391.89 -1.50789 3.57609 0
M  V30 4131 H 389.991 -3.24681 1.82792 0
M  V30 4132 H 390.104 -3.04239 3.70102 0
M  V30 4133 H 388.468 -1.69098 1.90468 0
M  V30 4134 H 389.251 -0.822822 3.33293 0
M  V30 4135 N 391.696 -1.35014 -0.812953 0
M  V30 4136 C 392.626 -1.30069 -1.93919 0
M  V30 4137 C 393.607 -0.176275 -1.69184 0
M  V30 4138 O 394.792 -0.370227 -1.90638 0
M  V30 4139 C 391.922 -1.06547 -3.30552 0
M  V30 4140 C 390.876 -2.15561 -3.69753 0
M  V30 4141 C 390.202 -1.77214 -5.04479 0
M  V30 4142 C 391.502 -3.57476 -3.808 0
M  V30 4143 H 393.196 -2.24303 -1.98314 0
M  V30 4144 H 390.742 -1.07977 -0.952736 0
M  V30 4145 H 392.695 -1.01729 -4.08937 0
M  V30 4146 H 391.419 -0.0875719 -3.26483 0
M  V30 4147 H 390.078 -2.19466 -2.9365 0
M  V30 4148 H 389.726 -0.780589 -4.96906 0
M  V30 4149 H 389.426 -2.50184 -5.31678 0
M  V30 4150 H 390.95 -1.7391 -5.8531 0
M  V30 4151 H 392.364 -3.55929 -4.4943 0
M  V30 4152 H 390.761 -4.29152 -4.19462 0
M  V30 4153 H 391.831 -3.94091 -2.82525 0
M  V30 4154 N 393.175 1.03435 -1.18907 0
M  V30 4155 C 394.423 1.76394 -0.986382 0
M  V30 4156 C 394.744 1.88883 0.484567 0
M  V30 4157 O 394.014 1.41843 1.3512 0
M  V30 4158 H 392.594 0.65344 -0.361975 0
M  V30 4159 H 395.256 1.248 -1.49703 0
M  V30 4160 H 394.352 2.77424 -1.42978 0
M  V30 4161 N 394.653 0.992116 1.22453 0
M  V30 4162 C 395.902 0.662992 1.90492 0
M  V30 4163 C 396.215 -0.808407 1.78113 0
M  V30 4164 O 397.421 -1.24908 2.41061 0
M  V30 4165 C 395.877 1.1353 3.41524 0
M  V30 4166 C 395.485 2.63187 3.62542 0
M  V30 4167 C 397.229 0.880465 4.15269 0
M  V30 4168 C 395.136 3.04024 5.0727 0
M  V30 4169 H 394.066 0.244278 0.713333 0
M  V30 4170 H 396.717 1.20157 1.38688 0
M  V30 4171 H 395.099 0.52485 3.92506 0
M  V30 4172 H 396.273 3.2957 3.22056 0
M  V30 4173 H 394.588 2.86543 3.02129 0
M  V30 4174 H 397.185 1.16128 5.21937 0
M  V30 4175 H 397.528 -0.183408 4.15896 0
M  V30 4176 H 398.061 1.45307 3.70312 0
M  V30 4177 H 394.8 4.09584 5.11782 0
M  V30 4178 H 394.32 2.42343 5.48662 0
M  V30 4179 H 395.999 2.95282 5.75689 0
M  V30 4180 N 396.131 -1.37776 0.765217 0
M  V30 4181 C 397.377 -2.00145 0.327072 0
M  V30 4182 C 397.71 -1.60607 -1.09175 0
M  V30 4183 O 396.985 -0.849127 -1.74986 0
M  V30 4184 C 397.268 -3.57109 0.46319 0
M  V30 4185 C 397.121 -4.06576 1.92395 0
M  V30 4186 C 398.44 -4.39888 -0.136473 0
M  V30 4187 H 395.559 -0.727113 0.120316 0
M  V30 4188 H 398.201 -1.63549 0.967039 0
M  V30 4189 H 396.351 -3.88414 -0.0816358 0
M  V30 4190 H 398.023 -3.85864 2.52798 0
M  V30 4191 H 396.266 -3.59011 2.43503 0
M  V30 4192 H 396.937 -5.15639 1.97028 0
M  V30 4193 H 399.413 -4.14803 0.328317 0
M  V30 4194 H 398.289 -5.48899 -0.0110582 0
M  V30 4195 H 398.55 -4.24758 -1.22608 0
M  V30 4196 N 397.609 -0.515225 -1.4894 0
M  V30 4197 C 398.886 0.0879088 -1.95402 0
M  V30 4198 C 399.266 1.52745 -1.45712 0
M  V30 4199 O 398.614 2.18238 -0.677093 0
M  V30 4200 C 398.824 -0.0141055 -3.48997 0
M  V30 4201 C 400.172 0.152646 -4.24326 0
M  V30 4202 O 401.196 0.0604025 -3.56149 0
M  V30 4203 O 400.055 0.34384 -5.45417 0
M  V30 4204 H 397.149 0.0874636 -0.822362 0
M  V30 4205 H 399.695 -0.578775 -1.59525 0
M  V30 4206 H 398.467 -1.01745 -3.77841 0
M  V30 4207 H 398.09 0.692091 -3.9153 0
M  V30 4208 N 399.087 1.5561 -0.249682 0
M  V30 4209 C 400.333 1.99306 0.374841 0
M  V30 4210 C 400.666 1.13767 1.57387 0
M  V30 4211 O 399.941 0.201711 1.93451 0
M  V30 4212 C 400.224 3.51507 0.781986 0
M  V30 4213 C 400.077 4.4781 -0.422629 0
M  V30 4214 C 401.396 4.08884 1.62793 0
M  V30 4215 H 398.515 0.724572 0.134773 0
M  V30 4216 H 401.157 1.86719 -0.351549 0
M  V30 4217 H 399.307 3.62363 1.4009 0
M  V30 4218 H 400.979 4.48931 -1.06108 0
M  V30 4219 H 399.222 4.20518 -1.06524 0
M  V30 4220 H 399.893 5.51919 -0.0943766 0
M  V30 4221 H 402.369 4.01147 1.10547 0
M  V30 4222 H 401.245 5.1564 1.88166 0
M  V30 4223 H 401.506 3.57515 2.60068 0
M  V30 4224 N 400.565 -0.0233959 1.57583 0
M  V30 4225 C 401.528 -1.00693 2.05897 0
M  V30 4226 C 402.528 -1.28693 0.964092 0
M  V30 4227 O 403.718 -1.23602 1.22753 0
M  V30 4228 C 400.85 -2.33825 2.4807 0
M  V30 4229 H 402.043 -0.589476 2.9405 0
M  V30 4230 H 399.596 -0.270354 1.53944 0
M  V30 4231 H 400.331 -2.80307 1.6309 0
M  V30 4232 H 400.116 -2.1483 3.2801 0
M  V30 4233 H 401.606 -3.04426 2.85857 0
M  V30 4234 N 402.043 -1.548 -0.295768 0
M  V30 4235 C 403.291 -1.73985 -1.02828 0
M  V30 4236 C 403.612 -0.531406 -1.87619 0
M  V30 4237 O 402.882 0.454221 -1.90561 0
M  V30 4238 H 401.462 -0.641556 -0.382642 0
M  V30 4239 H 404.124 -1.92163 -0.325489 0
M  V30 4240 H 403.22 -2.63129 -1.67838 0
M  V30 4241 N 403.521 0.559213 -1.47345 0
M  V30 4242 C 404.471 1.66192 -1.5609 0
M  V30 4243 C 405.455 1.55323 -0.419957 0
M  V30 4244 O 406.647 1.63839 -0.669762 0
M  V30 4245 C 403.776 3.0497 -1.57634 0
M  V30 4246 C 402.862 3.2105 -2.77106 0
M  V30 4247 N 403.253 3.07203 -4.01821 0
M  V30 4248 C 401.551 3.52046 -2.73825 0
M  V30 4249 C 402.252 3.25919 -4.81821 0
M  V30 4250 N 401.228 3.52161 -4.14106 0
M  V30 4251 H 405.03 1.54052 -2.5029 0
M  V30 4252 H 402.544 0.763914 -1.43311 0
M  V30 4253 H 404.541 3.84142 -1.61989 0
M  V30 4254 H 403.201 3.18224 -0.645281 0
M  V30 4255 H 404.212 2.84572 -4.32711 0
M  V30 4256 H 400.889 3.71839 -1.89848 0
M  V30 4257 H 402.279 3.20198 -5.90697 0
M  V30 4258 N 404.999 1.35443 0.805782 0
M  V30 4259 C 405.931 1.24285 1.92577 0
M  V30 4260 C 406.944 0.165962 1.61952 0
M  V30 4261 O 408.133 0.419303 1.73505 0
M  V30 4262 C 405.233 0.891272 3.2697 0
M  V30 4263 C 404.406 2.06669 3.85495 0
M  V30 4264 C 403.465 1.69077 4.98297 0
M  V30 4265 O 402.491 2.4096 5.15681 0
M  V30 4266 N 403.693 0.614869 5.77234 0
M  V30 4267 H 406.458 2.20777 2.02676 0
M  V30 4268 H 404.019 1.28623 0.983243 0
M  V30 4269 H 406.011 0.621256 3.99903 0
M  V30 4270 H 404.581 0.016004 3.12596 0
M  V30 4271 H 403.801 2.50046 3.04747 0
M  V30 4272 H 405.089 2.85237 4.21328 0
M  V30 4273 H 404.487 0.017648 5.65697 0
M  V30 4274 H 403.044 0.404636 6.50543 0
M  V30 4275 N 406.477 -1.02803 1.19454 0
M  V30 4276 C 407.726 -1.7562 0.991996 0
M  V30 4277 C 408.039 -1.89672 -0.477901 0
M  V30 4278 O 409.245 -2.59468 -0.799287 0
M  V30 4279 C 407.701 -3.15812 1.72601 0
M  V30 4280 C 407.309 -3.0981 3.23607 0
M  V30 4281 C 409.053 -3.92918 1.60674 0
M  V30 4282 C 406.96 -4.44939 3.89594 0
M  V30 4283 H 405.89 -0.658352 0.367543 0
M  V30 4284 H 408.541 -1.15044 1.42959 0
M  V30 4285 H 406.923 -3.7686 1.21624 0
M  V30 4286 H 408.097 -2.58138 3.81709 0
M  V30 4287 H 406.412 -2.46201 3.35819 0
M  V30 4288 H 409.009 -4.9287 2.07323 0
M  V30 4289 H 409.352 -4.12502 0.561025 0
M  V30 4290 H 409.885 -3.38472 2.09001 0
M  V30 4291 H 406.624 -4.30559 4.94267 0
M  V30 4292 H 406.144 -4.96664 3.36281 0
M  V30 4293 H 407.823 -5.1382 3.93189 0
M  V30 4294 N 407.956 -0.998596 -1.21925 0
M  V30 4295 C 408.919 -0.558679 -2.22287 0
M  V30 4296 C 409.919 0.361525 -1.56683 0
M  V30 4297 O 411.109 0.152695 -1.73529 0
M  V30 4298 C 408.241 0.18661 -3.40389 0
M  V30 4299 H 409.434 -1.4463 -2.62721 0
M  V30 4300 H 406.987 -0.786413 -1.35075 0
M  V30 4301 H 407.722 1.08996 -3.05435 0
M  V30 4302 H 407.507 -0.474188 -3.89222 0
M  V30 4303 H 408.997 0.482367 -4.14805 0
M  V30 4304 N 409.434 1.37368 -0.772513 0
M  V30 4305 C 410.364 2.32856 -0.173304 0
M  V30 4306 C 411.345 1.55818 0.682262 0
M  V30 4307 O 412.53 1.84052 0.619566 0
M  V30 4308 C 409.66 3.40048 0.706007 0
M  V30 4309 C 408.614 4.27973 -0.0483144 0
M  V30 4310 C 407.94 5.26184 0.950491 0
M  V30 4311 C 409.24 5.07665 -1.22776 0
M  V30 4312 H 410.934 2.83217 -0.971002 0
M  V30 4313 H 408.48 1.3617 -0.468377 0
M  V30 4314 H 410.433 4.05827 1.13501 0
M  V30 4315 H 409.157 2.88214 1.53623 0
M  V30 4316 H 407.816 3.63726 -0.458107 0
M  V30 4317 H 407.464 4.7063 1.77529 0
M  V30 4318 H 407.164 5.85872 0.450314 0
M  V30 4319 H 408.688 5.94838 1.37842 0
M  V30 4320 H 410.102 5.66578 -0.875366 0
M  V30 4321 H 408.499 5.76681 -1.66007 0
M  V30 4322 H 409.569 4.40294 -2.03149 0
M  V30 4323 N 410.912 0.523116 1.48665 0
M  V30 4324 C 411.86 -0.256859 2.31177 0
M  V30 4325 C 412.854 -0.94199 1.40794 0
M  V30 4326 O 414.06 -0.867157 1.57735 0
M  V30 4327 H 410.435 -0.1017 0.745091 0
M  V30 4328 H 412.406 0.458739 2.94853 0
M  V30 4329 C 411.155 -1.29503 3.22683 0
M  V30 4330 H 410.478 -0.777248 3.92172 0
M  V30 4331 H 411.918 -1.81233 3.83315 0
M  V30 4332 C 410.377 -2.32501 2.43813 0
M  V30 4333 O 410.907 -3.3881 2.15803 0
M  V30 4334 N 409.113 -2.05538 2.05432 0
M  V30 4335 H 408.66 -1.19104 2.28412 0
M  V30 4336 H 408.618 -2.74676 1.52973 0
M  V30 4337 N 412.39 -1.55475 0.257931 0
M  V30 4338 C 413.637 -1.99207 -0.363728 0
M  V30 4339 C 413.965 -1.1462 -1.57139 0
M  V30 4340 O 413.22 -0.199653 -1.94679 0
M  V30 4341 C 413.519 -3.48183 -0.806433 0
M  V30 4342 C 413.185 -4.49936 0.294684 0
M  V30 4343 C 411.847 -4.77481 0.597076 0
M  V30 4344 C 414.199 -5.10769 1.03751 0
M  V30 4345 C 411.527 -5.63132 1.64618 0
M  V30 4346 C 413.879 -5.97558 2.07622 0
M  V30 4347 C 412.543 -6.23432 2.38514 0
M  V30 4348 H 411.813 -0.728949 -0.133097 0
M  V30 4349 H 414.46 -1.8793 0.368059 0
M  V30 4350 H 412.765 -3.56848 -1.61761 0
M  V30 4351 H 414.462 -3.79415 -1.29789 0
M  V30 4352 H 411.052 -4.28572 0.0488649 0
M  V30 4353 H 415.236 -4.89527 0.817149 0
M  V30 4354 H 410.492 -5.8143 1.89074 0
M  V30 4355 H 414.666 -6.43735 2.65666 0
M  V30 4356 H 412.293 -6.89594 3.19943 0
M  V30 4357 N 413.868 0.0150385 -1.57593 0
M  V30 4358 C 415.093 0.718067 -1.94573 0
M  V30 4359 C 415.518 1.6734 -0.859005 0
M  V30 4360 O 414.876 1.80362 0.184147 0
M  V30 4361 C 414.924 1.43918 -3.30636 0
M  V30 4362 O 414.028 2.55299 -3.23876 0
M  V30 4363 H 413.369 0.192125 -0.635597 0
M  V30 4364 H 415.899 -0.0336708 -2.04572 0
M  V30 4365 H 415.909 1.80598 -3.65853 0
M  V30 4366 H 414.584 0.738619 -4.09289 0
M  V30 4367 H 413.161 2.21058 -3.00312 0
M  V30 4368 N 415.346 1.54954 0.287554 0
M  V30 4369 C 416.571 1.79209 1.04397 0
M  V30 4370 C 416.996 0.556431 1.79682 0
M  V30 4371 O 416.354 -0.493518 1.74454 0
M  V30 4372 C 416.402 3.00739 1.98969 0
M  V30 4373 O 415.506 2.74805 3.075 0
M  V30 4374 H 414.847 0.592755 0.299227 0
M  V30 4375 H 417.377 2.02068 0.320886 0
M  V30 4376 H 417.387 3.29077 2.4119 0
M  V30 4377 H 416.062 3.90329 1.43582 0
M  V30 4378 H 414.639 2.57523 2.69697 0
M  V30 4379 N 416.824 -0.551391 1.4764 0
M  V30 4380 C 417.754 -1.66757 1.63445 0
M  V30 4381 C 418.735 -1.63077 0.483742 0
M  V30 4382 O 419.92 -1.80607 0.71377 0
M  V30 4383 C 417.05 -3.05387 1.65396 0
M  V30 4384 C 416.004 -3.23918 2.79752 0
M  V30 4385 C 415.33 -4.63393 2.66779 0
M  V30 4386 C 416.63 -3.08735 4.21284 0
M  V30 4387 H 418.324 -1.53786 2.56886 0
M  V30 4388 H 415.87 -0.738415 1.23626 0
M  V30 4389 H 417.823 -3.83325 1.75043 0
M  V30 4390 H 416.547 -3.19332 0.685195 0
M  V30 4391 H 415.206 -2.48391 2.69625 0
M  V30 4392 H 414.854 -4.74144 1.67918 0
M  V30 4393 H 414.554 -4.7674 3.43501 0
M  V30 4394 H 416.078 -5.43458 2.78364 0
M  V30 4395 H 417.492 -3.76484 4.32357 0
M  V30 4396 H 415.889 -3.33588 4.98838 0
M  V30 4397 H 416.959 -2.0541 4.39243 0
M  V30 4398 N 418.302 -1.35869 -0.798587 0
M  V30 4399 C 419.235 -1.23801 -1.91699 0
M  V30 4400 C 420.213 -0.124143 -1.62125 0
M  V30 4401 O 421.397 -0.293656 -1.86199 0
M  V30 4402 C 418.524 -0.908063 -3.263 0
M  V30 4403 C 417.57 -2.0351 -3.74815 0
M  V30 4404 S 418.403 -3.65183 -3.91665 0
M  V30 4405 C 419.559 -3.34283 -5.29156 0
M  V30 4406 H 419.792 -2.18466 -2.01643 0
M  V30 4407 H 417.325 -1.21178 -0.956833 0
M  V30 4408 H 419.283 -0.724506 -4.04056 0
M  V30 4409 H 417.944 0.0206584 -3.14093 0
M  V30 4410 H 417.137 -1.75858 -4.72324 0
M  V30 4411 H 416.739 -2.1774 -3.04081 0
M  V30 4412 H 419.031 -2.87607 -6.13424 0
M  V30 4413 H 419.974 -4.31022 -5.61806 0
M  V30 4414 H 420.382 -2.69854 -4.95822 0
M  V30 4415 N 419.78 1.02168 -1.19998 0
M  V30 4416 C 421.027 1.75685 -1.00702 0
M  V30 4417 C 421.355 1.88947 0.461426 0
M  V30 4418 O 420.61 1.40832 1.35885 0
M  V30 4419 C 420.909 3.18081 -1.62969 0
M  V30 4420 C 420.575 3.24809 -3.12746 0
M  V30 4421 C 419.237 3.26352 -3.53621 0
M  V30 4422 C 421.589 3.23379 -4.08749 0
M  V30 4423 C 418.917 3.2413 -4.89036 0
M  V30 4424 C 421.269 3.22698 -5.44104 0
M  V30 4425 C 419.933 3.22542 -5.84399 0
M  V30 4426 H 419.203 0.642877 -0.368496 0
M  V30 4427 H 421.85 1.19865 -1.49348 0
M  V30 4428 H 420.155 3.77027 -1.06573 0
M  V30 4429 H 421.852 3.73648 -1.45561 0
M  V30 4430 H 418.442 3.2434 -2.80181 0
M  V30 4431 H 422.626 3.21361 -3.78207 0
M  V30 4432 H 417.882 3.22338 -5.19527 0
M  V30 4433 H 422.056 3.20543 -6.18244 0
M  V30 4434 H 419.683 3.20575 -6.89301 0
M  V30 4435 N 421.258 1.00505 1.21394 0
M  V30 4436 C 422.504 0.688793 1.90745 0
M  V30 4437 C 422.837 -0.778486 1.77914 0
M  V30 4438 O 422.112 -1.56433 1.15581 0
M  V30 4439 C 422.395 1.11063 3.42545 0
M  V30 4440 C 422.248 2.63737 3.64367 0
M  V30 4441 C 423.567 0.673059 4.34923 0
M  V30 4442 H 420.686 0.251702 0.692687 0
M  V30 4443 H 423.328 1.25074 1.43026 0
M  V30 4444 H 421.478 0.632508 3.83317 0
M  V30 4445 H 423.15 3.19313 3.32922 0
M  V30 4446 H 421.393 3.05248 3.08231 0
M  V30 4447 H 422.064 2.88305 4.70727 0
M  V30 4448 H 424.54 1.08392 4.01734 0
M  V30 4449 H 423.416 0.996383 5.39781 0
M  V30 4450 H 423.677 -0.425808 4.40045 0
M  V30 4451 N 422.737 -1.36956 0.779787 0
M  V30 4452 C 423.667 -2.32761 0.185651 0
M  V30 4453 C 424.648 -1.56177 -0.673989 0
M  V30 4454 O 425.833 -1.84378 -0.609797 0
M  V30 4455 C 422.963 -3.40418 -0.687964 0
M  V30 4456 C 421.917 -4.27941 0.0710102 0
M  V30 4457 C 421.243 -5.26681 -0.922573 0
M  V30 4458 C 422.543 -5.07006 1.25467 0
M  V30 4459 H 424.237 -2.82698 0.986008 0
M  V30 4460 H 421.783 -1.3592 0.475592 0
M  V30 4461 H 423.736 -4.06423 -1.11348 0
M  V30 4462 H 422.46 -2.89025 -1.52093 0
M  V30 4463 H 421.119 -3.63478 0.47739 0
M  V30 4464 H 420.767 -4.71565 -1.7503 0
M  V30 4465 H 420.467 -5.86103 -0.419237 0
M  V30 4466 H 421.991 -5.9556 -1.34686 0
M  V30 4467 H 423.405 -5.66105 0.905401 0
M  V30 4468 H 421.802 -5.75793 1.69063 0
M  V30 4469 H 422.872 -4.3921 2.05481 0
M  V30 4470 N 424.215 -0.530993 -1.48385 0
M  V30 4471 C 425.626 -0.0907905 -1.86479 0
M  V30 4472 C 425.977 1.33213 -1.44044 0
M  V30 4473 O 425.102 1.99783 -0.831615 0
M  V30 4474 C 425.697 -0.157987 -3.38431 0
M  V30 4475 C 424.256 0.227026 -3.75715 0
M  V30 4476 C 423.403 -0.5173 -2.72432 0
M  V30 4477 H 426.354 -0.742186 -1.40276 0
M  V30 4478 H 426.375 0.630053 -3.75247 0
M  V30 4479 H 425.887 -1.19372 -3.69286 0
M  V30 4480 H 423.988 1.26486 -3.50474 0
M  V30 4481 H 424.101 -0.113288 -4.78966 0
M  V30 4482 H 422.465 0.0365527 -2.54674 0
M  V30 4483 H 423.248 -1.55368 -3.0613 0
M  V30 4484 N 425.693 1.55336 -0.266172 0
M  V30 4485 C 426.626 2.18256 0.666296 0
M  V30 4486 C 427.604 1.14064 1.1588 0
M  V30 4487 O 428.788 1.42546 1.23341 0
M  V30 4488 C 425.915 2.79867 1.90768 0
M  V30 4489 C 424.961 3.97283 1.55141 0
M  V30 4490 S 425.794 5.31694 0.637313 0
M  V30 4491 C 426.95 5.96769 1.88727 0
M  V30 4492 H 427.183 2.97008 0.131647 0
M  V30 4493 H 424.716 1.54317 -0.0504869 0
M  V30 4494 H 426.674 3.15996 2.62025 0
M  V30 4495 H 425.335 2.01025 2.41346 0
M  V30 4496 H 424.528 4.3905 2.4749 0
M  V30 4497 H 424.13 3.6253 0.919113 0
M  V30 4498 H 426.422 6.15458 2.83227 0
M  V30 4499 H 427.365 6.91752 1.51276 0
M  V30 4500 H 427.773 5.26034 2.04814 0
M  V30 4501 N 427.171 -0.0066808 1.57599 0
M  V30 4502 C 428.396 -0.707738 1.94951 0
M  V30 4503 C 428.821 -1.66882 0.867868 0
M  V30 4504 O 428.179 -1.80457 -0.17458 0
M  V30 4505 C 428.227 -1.42162 3.31394 0
M  V30 4506 O 427.331 -2.53578 3.25226 0
M  V30 4507 H 426.672 -0.188752 0.636607 0
M  V30 4508 H 429.202 0.0445193 2.04552 0
M  V30 4509 H 429.212 -1.78655 3.66806 0
M  V30 4510 H 427.887 -0.716903 4.09675 0
M  V30 4511 H 426.464 -2.19463 3.01481 0
M  V30 4512 N 428.649 -1.55105 -0.279332 0
M  V30 4513 C 429.579 -1.90557 -1.34945 0
M  V30 4514 C 430.56 -0.766738 -1.51839 0
M  V30 4515 O 431.745 -1.02434 -1.64988 0
M  V30 4516 C 428.875 -2.17193 -2.71006 0
M  V30 4517 C 427.829 -3.33021 -2.68851 0
M  V30 4518 C 427.155 -3.45123 -4.08405 0
M  V30 4519 C 428.455 -4.69578 -2.28678 0
M  V30 4520 H 430.149 -2.80188 -1.05522 0
M  V30 4521 H 427.695 -1.34811 -0.506173 0
M  V30 4522 H 429.648 -2.40581 -3.45975 0
M  V30 4523 H 428.372 -1.24355 -3.01999 0
M  V30 4524 H 427.031 -3.0959 -1.9634 0
M  V30 4525 H 426.679 -2.49762 -4.3661 0
M  V30 4526 H 426.379 -4.22995 -4.07859 0
M  V30 4527 H 427.903 -3.70796 -4.85121 0
M  V30 4528 H 429.317 -4.92553 -2.93368 0
M  V30 4529 H 427.714 -5.5032 -2.39306 0
M  V30 4530 H 428.784 -4.68828 -1.23807 0
M  V30 4531 N 430.127 0.543554 -1.4793 0
M  V30 4532 C 431.09 1.63156 -1.60975 0
M  V30 4533 C 432.09 1.53346 -0.483899 0
M  V30 4534 O 433.28 1.5726 -0.749339 0
M  V30 4535 C 430.412 3.02743 -1.56716 0
M  V30 4536 H 431.605 1.52934 -2.57975 0
M  V30 4537 H 429.158 0.764557 -1.36324 0
M  V30 4538 H 429.893 3.18484 -0.611418 0
M  V30 4539 H 429.678 3.11272 -2.38438 0
M  V30 4540 H 431.168 3.81871 -1.6901 0
M  V30 4541 N 431.605 1.3629 0.791371 0
M  V30 4542 C 432.568 1.30309 1.88553 0
M  V30 4543 C 433.568 0.211204 1.59407 0
M  V30 4544 O 434.758 0.465865 1.67855 0
M  V30 4545 C 431.89 1.01956 3.25297 0
M  V30 4546 H 433.083 2.27614 1.95273 0
M  V30 4547 H 430.636 1.21035 0.988953 0
M  V30 4548 H 431.371 0.050998 3.2426 0
M  V30 4549 H 431.156 1.80968 3.4784 0
M  V30 4550 H 432.646 1.0037 4.05359 0
M  V30 4551 N 433.083 -1.0153 1.20538 0
M  V30 4552 C 434.046 -2.0826 0.957098 0
M  V30 4553 C 435.046 -1.60657 -0.0678655 0
M  V30 4554 O 436.236 -1.73385 0.168332 0
M  V30 4555 C 433.368 -3.38033 0.441188 0
M  V30 4556 H 434.561 -2.31719 1.90384 0
M  V30 4557 H 432.114 -1.1835 1.02093 0
M  V30 4558 H 432.849 -3.20249 -0.510961 0
M  V30 4559 H 432.634 -3.73911 1.18038 0
M  V30 4560 H 434.124 -4.16613 0.287009 0
M  V30 4561 N 434.561 -1.01147 -1.20859 0
M  V30 4562 C 435.807 -0.698899 -1.90377 0
M  V30 4563 C 436.14 0.76904 -1.78324 0
M  V30 4564 O 435.415 1.55817 -1.16409 0
M  V30 4565 C 435.698 -1.12878 -3.41951 0
M  V30 4566 C 435.551 -2.65665 -3.62963 0
M  V30 4567 C 436.87 -0.696114 -4.3456 0
M  V30 4568 H 433.989 -0.255372 -0.691342 0
M  V30 4569 H 436.631 -1.25831 -1.42361 0
M  V30 4570 H 434.781 -0.652827 -3.82976 0
M  V30 4571 H 436.453 -3.21074 -3.31224 0
M  V30 4572 H 434.696 -3.06878 -3.06608 0
M  V30 4573 H 435.367 -2.90797 -4.69192 0
M  V30 4574 H 437.843 -1.10521 -4.01154 0
M  V30 4575 H 436.719 -1.025 -5.39245 0
M  V30 4576 H 436.98 0.402465 -4.40264 0
M  V30 4577 N 436.039 1.36541 -0.78704 0
M  V30 4578 C 437.267 2.03561 -0.370199 0
M  V30 4579 C 437.682 1.59347 1.01263 0
M  V30 4580 O 437.039 0.781781 1.64907 0
M  V30 4581 C 437.09 3.59033 -0.421614 0
M  V30 4582 O 436.811 4.01634 -1.7499 0
M  V30 4583 C 438.312 4.433 0.00489763 0
M  V30 4584 H 435.532 0.653346 -0.152904 0
M  V30 4585 H 438.076 1.74566 -1.06522 0
M  V30 4586 H 436.231 3.86746 0.224971 0
M  V30 4587 H 436.645 4.96217 -1.69909 0
M  V30 4588 H 438.119 5.51939 -0.0822184 0
M  V30 4589 H 438.596 4.26285 1.05723 0
M  V30 4590 H 439.202 4.20843 -0.614085 0
M  V30 4591 N 437.518 0.538854 1.48102 0
M  V30 4592 C 438.767 0.0059532 2.01699 0
M  V30 4593 C 439.08 -1.34476 1.42041 0
M  V30 4594 O 440.286 -1.96653 1.87189 0
M  V30 4595 C 438.742 -0.0397627 3.59878 0
M  V30 4596 C 438.35 1.30659 4.28523 0
M  V30 4597 C 440.094 -0.521024 4.2129 0
M  V30 4598 C 438.001 1.22098 5.78659 0
M  V30 4599 H 436.931 -0.00154456 0.753998 0
M  V30 4600 H 439.582 0.683963 1.70277 0
M  V30 4601 H 437.964 -0.783037 3.88181 0
M  V30 4602 H 439.138 2.06613 4.11883 0
M  V30 4603 H 437.453 1.7243 3.79021 0
M  V30 4604 H 440.05 -0.603184 5.31287 0
M  V30 4605 H 440.393 -1.52885 3.8721 0
M  V30 4606 H 440.926 0.166834 3.9745 0
M  V30 4607 H 437.665 2.20424 6.17328 0
M  V30 4608 H 437.185 0.50295 5.97688 0
M  V30 4609 H 438.864 0.915345 6.40492 0
M  V30 4610 N 438.996 -1.55193 0.274407 0
M  V30 4611 C 440.412 -1.59401 -0.0797543 0
M  V30 4612 C 440.612 -1.29162 -1.54659 0
M  V30 4613 O 439.668 -1.05215 -2.29534 0
M  V30 4614 C 440.981 -2.99257 0.294238 0
M  V30 4615 C 442.529 -3.12072 0.240796 0
M  V30 4616 C 443.004 -4.54194 0.589218 0
M  V30 4617 N 444.495 -4.60033 0.540744 0
M  V30 4618 C 445.23 -5.68027 0.783147 0
M  V30 4619 N 444.726 -6.8417 1.09013 0
M  V30 4620 N 446.519 -5.57572 0.711993 0
M  V30 4621 H 438.67 -1.73113 1.23067 0
M  V30 4622 H 440.933 -0.807197 0.497129 0
M  V30 4623 H 440.639 -3.26217 1.31435 0
M  V30 4624 H 440.513 -3.75427 -0.365281 0
M  V30 4625 H 442.9 -2.84877 -0.770024 0
M  V30 4626 H 442.981 -2.38117 0.934563 0
M  V30 4627 H 442.625 -4.82115 1.59772 0
M  V30 4628 H 442.555 -5.26448 -0.126331 0
M  V30 4629 H 445.046 -3.76599 0.313327 0
M  V30 4630 H 445.359 -7.6243 1.26178 0
M  V30 4631 H 443.704 -6.85787 1.12789 0
M  V30 4632 H 446.895 -4.65714 0.472014 0
M  V30 4633 H 447.068 -6.41659 0.90429 0
M  V30 4634 N 440.474 -0.00167713 -1.576 0
M  V30 4635 C 441.72 0.683832 -1.90923 0
M  V30 4636 C 442.053 1.7333 -0.875799 0
M  V30 4637 O 441.328 1.94215 0.10525 0
M  V30 4638 C 441.611 1.32543 -3.3482 0
M  V30 4639 C 441.464 0.287387 -4.48881 0
M  V30 4640 C 442.783 2.25114 -3.78169 0
M  V30 4641 H 439.902 0.247125 -0.694333 0
M  V30 4642 H 442.544 -0.0533149 -1.89925 0
M  V30 4643 H 440.694 1.95372 -3.35801 0
M  V30 4644 H 442.366 -0.341346 -4.60035 0
M  V30 4645 H 440.609 -0.39017 -4.32042 0
M  V30 4646 H 441.28 0.775393 -5.46527 0
M  V30 4647 H 443.756 1.723 -3.7875 0
M  V30 4648 H 442.632 2.66971 -4.79602 0
M  V30 4649 H 442.893 3.13092 -3.12131 0
M  V30 4650 N 441.952 1.55251 0.271103 0
M  V30 4651 C 443.2 1.75599 1.00047 0
M  V30 4652 C 443.521 0.561188 1.8675 0
M  V30 4653 O 442.791 -0.423846 1.9126 0
M  V30 4654 H 441.371 0.647562 0.372387 0
M  V30 4655 H 444.033 1.92656 0.294876 0
M  V30 4656 H 443.129 2.65766 1.6363 0
M  V30 4657 N 443.43 -0.535701 1.48216 0
M  V30 4658 C 444.66 -1.3148 1.59363 0
M  V30 4659 C 445.068 -1.8753 0.250844 0
M  V30 4660 O 444.411 -1.66821 -0.769174 0
M  V30 4661 C 444.473 -2.50731 2.57632 0
M  V30 4662 C 444.137 -2.15811 4.02833 0
M  V30 4663 C 445.134 -1.71822 4.90686 0
M  V30 4664 C 442.819 -2.26509 4.48329 0
M  V30 4665 C 444.813 -1.3899 6.22062 0
M  V30 4666 C 442.5 -1.93289 5.79726 0
M  V30 4667 C 443.498 -1.49599 6.66415 0
M  V30 4668 O 443.186 -1.16812 7.95368 0
M  V30 4669 H 442.918 -0.406315 0.540263 0
M  V30 4670 H 445.472 -0.653569 1.94725 0
M  V30 4671 H 443.702 -3.19817 2.1738 0
M  V30 4672 H 445.391 -3.12797 2.58675 0
M  V30 4673 H 446.157 -1.63031 4.56778 0
M  V30 4674 H 442.036 -2.59471 3.81045 0
M  V30 4675 H 445.58 -1.04816 6.89681 0
M  V30 4676 H 441.477 -2.01718 6.13172 0
M  V30 4677 H 442.245 -1.30259 8.08069 0
M  V30 4678 N 444.908 -1.36708 -0.784132 0
M  V30 4679 C 446.324 -1.17237 -1.08294 0
M  V30 4680 C 446.524 -5.93947e-05 -2.015 0
M  V30 4681 O 445.58 0.663686 -2.43622 0
M  V30 4682 C 446.893 -2.48557 -1.69233 0
M  V30 4683 C 448.441 -2.54968 -1.8155 0
M  V30 4684 C 448.916 -3.86388 -2.45904 0
M  V30 4685 N 450.407 -3.87762 -2.53367 0
M  V30 4686 C 451.142 -4.86191 -3.03983 0
M  V30 4687 N 450.638 -5.95015 -3.54866 0
M  V30 4688 N 452.431 -4.73606 -3.02743 0
M  V30 4689 H 444.582 -2.11758 -0.16501 0
M  V30 4690 H 446.845 -0.93822 -0.135822 0
M  V30 4691 H 446.551 -3.34638 -1.08215 0
M  V30 4692 H 446.425 -2.64748 -2.68679 0
M  V30 4693 H 448.812 -1.69302 -2.41704 0
M  V30 4694 H 448.893 -2.42672 -0.80895 0
M  V30 4695 H 448.537 -4.72462 -1.86392 0
M  V30 4696 H 448.467 -3.95982 -3.4714 0
M  V30 4697 H 450.958 -3.09145 -2.17343 0
M  V30 4698 H 451.271 -6.66086 -3.91854 0
M  V30 4699 H 449.616 -5.98676 -3.53003 0
M  V30 4700 H 452.807 -3.87717 -2.62284 0
M  V30 4701 H 452.98 -5.50473 -3.41881 0
M  V30 4702 N 446.386 1.0089 -1.21074 0
M  V30 4703 C 447.316 2.1145 -0.990523 0
M  V30 4704 C 448.297 1.69897 0.0831699 0
M  V30 4705 O 449.482 1.94052 -0.0758853 0
M  V30 4706 C 446.612 3.42914 -0.550177 0
M  V30 4707 C 445.566 3.98244 -1.56799 0
M  V30 4708 C 444.892 5.25568 -0.984013 0
M  V30 4709 C 446.192 4.30752 -2.95381 0
M  V30 4710 H 447.886 2.3013 -1.91521 0
M  V30 4711 H 445.432 1.10592 -0.92225 0
M  V30 4712 H 447.385 4.19653 -0.383305 0
M  V30 4713 H 446.109 3.24014 0.41015 0
M  V30 4714 H 444.768 3.23621 -1.72236 0
M  V30 4715 H 444.416 5.02998 -0.0155216 0
M  V30 4716 H 444.116 5.63551 -1.66384 0
M  V30 4717 H 445.64 6.04955 -0.828378 0
M  V30 4718 H 447.054 4.98349 -2.8341 0
M  V30 4719 H 445.451 4.79869 -3.60341 0
M  V30 4720 H 446.521 3.39192 -3.46521 0
M  V30 4721 N 447.864 1.01787 1.20321 0
M  V30 4722 C 449.112 0.706538 1.89347 0
M  V30 4723 C 449.433 -0.766289 1.79313 0
M  V30 4724 O 448.703 -1.55126 1.19635 0
M  V30 4725 H 447.283 0.258348 0.700903 0
M  V30 4726 H 449.945 1.28974 1.46122 0
M  V30 4727 H 449.041 0.991066 2.95946 0
M  V30 4728 N 449.342 -1.36122 0.79427 0
M  V30 4729 C 450.274 -2.28683 0.153903 0
M  V30 4730 C 451.287 -1.49707 -0.639669 0
M  V30 4731 O 452.476 -1.7209 -0.474054 0
M  V30 4732 C 449.576 -3.29202 -0.804921 0
M  V30 4733 C 448.749 -4.37358 -0.060366 0
M  V30 4734 C 447.808 -5.17811 -0.935849 0
M  V30 4735 O 446.834 -5.67853 -0.391309 0
M  V30 4736 N 448.036 -5.34721 -2.25951 0
M  V30 4737 H 450.801 -2.84278 0.949008 0
M  V30 4738 H 448.362 -1.4834 0.648611 0
M  V30 4739 H 450.354 -3.79914 -1.39455 0
M  V30 4740 H 448.924 -2.74212 -1.50088 0
M  V30 4741 H 448.144 -3.87746 0.710382 0
M  V30 4742 H 449.432 -5.06777 0.45324 0
M  V30 4743 H 448.83 -4.95687 -2.72601 0
M  V30 4744 H 447.387 -5.88657 -2.79867 0
M  V30 4745 N 450.82 -0.546701 -1.47814 0
M  V30 4746 C 452.068 -0.0187037 -2.02091 0
M  V30 4747 C 452.389 1.33168 -1.42447 0
M  V30 4748 O 451.659 1.86619 -0.595839 0
M  V30 4749 H 450.239 -0.00392531 -0.74699 0
M  V30 4750 H 452.901 -0.714327 -1.81338 0
M  V30 4751 H 451.997 0.0772219 -3.12004 0
M  V30 4752 N 452.299 1.55045 -0.282633 0
M  V30 4753 C 453.524 2.04628 0.337977 0
M  V30 4754 C 453.949 1.15937 1.48123 0
M  V30 4755 O 453.307 0.159532 1.80597 0
M  V30 4756 C 453.355 3.51854 0.78936 0
M  V30 4757 O 452.459 3.66236 1.89592 0
M  V30 4758 H 451.8 0.660434 0.0687261 0
M  V30 4759 H 454.33 2.00261 -0.419124 0
M  V30 4760 H 454.34 3.93361 1.08311 0
M  V30 4761 H 453.015 4.15873 -0.0470419 0
M  V30 4762 H 451.592 3.36633 1.60413 0
M  V30 4763 N 453.777 0.010035 1.57597 0
M  V30 4764 C 455.005 -0.683413 1.95287 0
M  V30 4765 C 455.42 -1.66747 0.885481 0
M  V30 4766 O 454.777 -1.82003 -0.134629 0
M  V30 4767 C 454.828 -1.40652 3.33015 0
M  V30 4768 O 454.549 -0.461916 4.35658 0
M  V30 4769 C 456.05 -2.19356 3.85225 0
M  V30 4770 H 453.27 -0.189708 0.643624 0
M  V30 4771 H 455.814 0.0641359 2.04399 0
M  V30 4772 H 453.969 -2.10562 3.2518 0
M  V30 4773 H 454.383 -0.973215 5.15392 0
M  V30 4774 H 455.857 -2.65433 4.83993 0
M  V30 4775 H 456.334 -3.02457 3.18459 0
M  V30 4776 H 456.94 -1.54442 3.96267 0
M  V30 4777 N 455.255 -1.55392 -0.262866 0
M  V30 4778 C 456.185 -1.91978 -1.32917 0
M  V30 4779 C 457.166 -0.7828 -1.51017 0
M  V30 4780 O 458.351 -1.04178 -1.63892 0
M  V30 4781 C 455.481 -2.20055 -2.68687 0
M  V30 4782 C 454.435 -3.35854 -2.65304 0
M  V30 4783 C 453.761 -3.49435 -4.04721 0
M  V30 4784 C 455.061 -4.71977 -2.23685 0
M  V30 4785 H 456.755 -2.81292 -1.02544 0
M  V30 4786 H 454.301 -1.3534 -0.491846 0
M  V30 4787 H 456.254 -2.44237 -3.43404 0
M  V30 4788 H 454.978 -1.27551 -3.00663 0
M  V30 4789 H 453.637 -3.11655 -1.93045 0
M  V30 4790 H 453.285 -2.54379 -4.33936 0
M  V30 4791 H 452.985 -4.27297 -4.0335 0
M  V30 4792 H 454.509 -3.7592 -4.81161 0
M  V30 4793 H 455.923 -4.95637 -2.88127 0
M  V30 4794 H 454.32 -5.52828 -2.33456 0
M  V30 4795 H 455.39 -4.70115 -1.18827 0
M  V30 4796 N 456.733 0.527833 -1.48498 0
M  V30 4797 C 458.01 1.28905 -1.47115 0
M  V30 4798 C 458.39 2.10297 -0.184007 0
M  V30 4799 O 457.738 2.12728 0.834218 0
M  V30 4800 C 457.948 2.16866 -2.73441 0
M  V30 4801 C 459.296 2.76936 -3.21857 0
M  V30 4802 O 460.32 2.27152 -2.74373 0
M  V30 4803 O 459.179 3.67496 -4.04486 0
M  V30 4804 H 456.273 0.581918 -0.587623 0
M  V30 4805 H 458.819 0.544311 -1.60734 0
M  V30 4806 H 457.591 1.56521 -3.58632 0
M  V30 4807 H 457.214 2.98583 -2.62553 0
M  V30 4808 N 458.211 1.37122 0.776871 0
M  V30 4809 C 459.174 1.32301 1.8716 0
M  V30 4810 C 460.174 0.228099 1.59174 0
M  V30 4811 O 461.364 0.483642 1.67352 0
M  V30 4812 C 458.496 1.054 3.24197 0
M  V30 4813 H 459.689 2.29673 1.92848 0
M  V30 4814 H 457.242 1.22077 0.97606 0
M  V30 4815 H 457.977 0.0853872 3.24188 0
M  V30 4816 H 457.762 1.84648 3.45901 0
M  V30 4817 H 459.252 1.04664 4.04271 0
M  V30 4818 N 459.689 -1.00246 1.21608 0
M  V30 4819 C 460.621 -2.09244 0.935401 0
M  V30 4820 C 461.634 -1.62592 -0.0823594 0
M  V30 4821 O 462.823 -1.77865 0.150456 0
M  V30 4822 C 459.923 -3.36724 0.383453 0
M  V30 4823 C 459.096 -4.1245 1.45615 0
M  V30 4824 C 458.155 -5.18219 0.912991 0
M  V30 4825 O 457.181 -5.46337 1.59701 0
M  V30 4826 N 458.383 -5.7987 -0.270478 0
M  V30 4827 H 461.148 -2.33905 1.87373 0
M  V30 4828 H 458.709 -1.16748 1.12167 0
M  V30 4829 H 460.701 -4.047 0.00562157 0
M  V30 4830 H 459.271 -3.09201 -0.459758 0
M  V30 4831 H 458.491 -3.39241 2.00772 0
M  V30 4832 H 459.779 -4.59819 2.17817 0
M  V30 4833 H 459.177 -5.59381 -0.843195 0
M  V30 4834 H 457.734 -6.49126 -0.589794 0
M  V30 4835 N 461.167 -1.02423 -1.1978 0
M  V30 4836 C 462.395 -0.737456 -1.93311 0
M  V30 4837 C 462.81 0.703023 -1.75223 0
M  V30 4838 O 462.167 1.47761 -1.07112 0
M  V30 4839 C 462.218 -1.0733 -3.45199 0
M  V30 4840 O 461.939 -2.4572 -3.62702 0
M  V30 4841 C 463.44 -0.80866 -4.35862 0
M  V30 4842 H 460.66 -0.2702 -0.614193 0
M  V30 4843 H 463.204 -1.36747 -1.52054 0
M  V30 4844 H 461.359 -0.488545 -3.84307 0
M  V30 4845 H 461.773 -2.58081 -4.56612 0
M  V30 4846 H 463.247 -1.09365 -5.41057 0
M  V30 4847 H 463.724 0.257025 -4.38447 0
M  V30 4848 H 464.33 -1.37592 -4.02428 0
M  V30 4849 N 462.645 1.35699 -0.801477 0
M  V30 4850 C 463.608 2.28199 -0.213994 0
M  V30 4851 C 464.608 1.49359 0.595691 0
M  V30 4852 O 465.798 1.69186 0.414921 0
M  V30 4853 C 462.93 3.33587 0.702297 0
M  V30 4854 H 464.123 2.81666 -1.02976 0
M  V30 4855 H 461.676 1.45467 -0.571759 0
M  V30 4856 H 462.411 2.85297 1.54195 0
M  V30 4857 H 462.196 3.91906 0.123484 0
M  V30 4858 H 463.686 4.02638 1.10783 0
M  V30 4859 N 464.123 0.554532 1.47522 0
M  V30 4860 C 465.086 -0.184174 2.28459 0
M  V30 4861 C 466.086 -0.845195 1.36796 0
M  V30 4862 O 467.276 -0.701467 1.59452 0
M  V30 4863 C 464.408 -1.26903 3.16399 0
M  V30 4864 H 465.601 0.526751 2.95238 0
M  V30 4865 H 463.154 0.311375 1.53167 0
M  V30 4866 H 463.889 -2.01244 2.54306 0
M  V30 4867 H 463.674 -0.799883 3.83854 0
M  V30 4868 H 465.164 -1.78794 3.77389 0
M  V30 4869 N 465.601 -1.54893 0.290851 0
M  V30 4870 C 467.017 -1.59476 -0.0628432 0
M  V30 4871 C 467.217 -1.30795 -1.5328 0
M  V30 4872 O 466.273 -1.07644 -2.28406 0
M  V30 4873 C 467.586 -2.98928 0.325962 0
M  V30 4874 C 469.134 -3.11799 0.273882 0
M  V30 4875 C 469.609 -4.53544 0.637359 0
M  V30 4876 N 471.1 -4.59433 0.589507 0
M  V30 4877 C 471.835 -5.67164 0.84335 0
M  V30 4878 N 471.331 -6.82975 1.16263 0
M  V30 4879 N 473.124 -5.56786 0.771091 0
M  V30 4880 H 465.275 -1.71798 1.24896 0
M  V30 4881 H 467.538 -0.801879 0.505663 0
M  V30 4882 H 467.244 -3.24805 1.34887 0
M  V30 4883 H 467.118 -3.75793 -0.325441 0
M  V30 4884 H 469.505 -2.85677 -0.739765 0
M  V30 4885 H 469.586 -2.37112 0.959766 0
M  V30 4886 H 469.23 -4.80394 1.64877 0
M  V30 4887 H 469.16 -5.26553 -0.0704866 0
M  V30 4888 H 471.651 -3.76245 0.353252 0
M  V30 4889 H 471.964 -7.61048 1.34257 0
M  V30 4890 H 470.309 -6.84552 1.20057 0
M  V30 4891 H 473.5 -4.65187 0.521383 0
M  V30 4892 H 473.673 -6.40664 0.972295 0
M  V30 4893 N 467.08 -0.0183926 -1.57589 0
M  V30 4894 C 468.308 0.673046 -1.95647 0
M  V30 4895 C 468.723 1.66275 -0.894312 0
M  V30 4896 O 468.08 1.82072 0.124975 0
M  V30 4897 C 468.131 1.38884 -3.33756 0
M  V30 4898 O 467.852 0.438806 -4.35897 0
M  V30 4899 C 469.353 2.1731 -3.86383 0
M  V30 4900 H 466.573 0.186292 -0.644621 0
M  V30 4901 H 469.117 -0.0749748 -2.04363 0
M  V30 4902 H 467.272 2.08835 -3.26293 0
M  V30 4903 H 467.686 0.945869 -5.15901 0
M  V30 4904 H 469.16 2.62863 -4.85394 0
M  V30 4905 H 469.637 3.00764 -3.20059 0
M  V30 4906 H 470.243 1.52339 -3.97081 0
M  V30 4907 N 468.558 1.5553 0.254621 0
M  V30 4908 C 469.806 1.7665 0.981793 0
M  V30 4909 C 470.127 0.580963 1.86145 0
M  V30 4910 O 469.397 -0.403537 1.91699 0
M  V30 4911 H 467.977 0.651475 0.365498 0
M  V30 4912 H 470.639 1.92958 0.274426 0
M  V30 4913 H 469.735 2.67486 1.60802 0
M  V30 4914 N 470.036 -0.519951 1.48776 0
M  V30 4915 C 470.966 -1.63253 1.66945 0
M  V30 4916 C 471.947 -1.62014 0.518224 0
M  V30 4917 O 473.132 -1.79053 0.751919 0
M  V30 4918 C 470.262 -3.0181 1.71836 0
M  V30 4919 C 469.216 -3.17911 2.8656 0
M  V30 4920 C 468.542 -4.5763 2.76548 0
M  V30 4921 C 469.842 -2.99729 4.27738 0
M  V30 4922 H 471.536 -1.48302 2.6009 0
M  V30 4923 H 469.082 -0.712026 1.25165 0
M  V30 4924 H 471.035 -3.79525 1.83135 0
M  V30 4925 H 469.759 -3.17806 0.752775 0
M  V30 4926 H 468.418 -2.42616 2.74833 0
M  V30 4927 H 468.066 -4.70476 1.77937 0
M  V30 4928 H 467.766 -4.69346 3.53536 0
M  V30 4929 H 469.29 -5.37431 2.89828 0
M  V30 4930 H 470.704 -3.67228 4.40246 0
M  V30 4931 H 469.101 -3.22932 5.05801 0
M  V30 4932 H 470.171 -1.96047 4.43502 0
M  V30 4933 N 471.514 -1.37532 -0.769588 0
M  V30 4934 C 472.447 -1.27839 -1.8903 0
M  V30 4935 C 473.425 -0.158504 -1.61826 0
M  V30 4936 O 474.609 -0.333086 -1.85534 0
M  V30 4937 C 471.736 -0.977072 -3.24301 0
M  V30 4938 C 470.782 -2.11414 -3.70414 0
M  V30 4939 S 471.615 -3.73409 -3.83831 0
M  V30 4940 C 472.771 -3.45432 -5.21946 0
M  V30 4941 H 473.004 -2.22694 -1.96963 0
M  V30 4942 H 470.537 -1.2318 -0.930914 0
M  V30 4943 H 472.495 -0.810049 -4.02428 0
M  V30 4944 H 471.156 -0.0459701 -3.14066 0
M  V30 4945 H 470.349 -1.85837 -4.68488 0
M  V30 4946 H 469.951 -2.24141 -2.99394 0
M  V30 4947 H 472.243 -3.00554 -6.07185 0
M  V30 4948 H 473.186 -4.42841 -5.52537 0
M  V30 4949 H 473.594 -2.80311 -4.89986 0
M  V30 4950 N 472.992 0.995999 -1.22138 0
M  V30 4951 C 474.238 1.73767 -1.04561 0
M  V30 4952 C 474.571 1.89633 0.418698 0
M  V30 4953 O 473.846 1.43723 1.3105 0
M  V30 4954 C 474.129 3.14505 -1.75382 0
M  V30 4955 C 473.982 3.06306 -3.29388 0
M  V30 4956 C 475.301 4.13615 -1.50369 0
M  V30 4957 H 472.42 0.630728 -0.38125 0
M  V30 4958 H 475.062 1.16057 -1.50435 0
M  V30 4959 H 473.212 3.63775 -1.36383 0
M  V30 4960 H 474.884 2.64681 -3.77812 0
M  V30 4961 H 473.127 2.43186 -3.59226 0
M  V30 4962 H 473.798 4.05884 -3.74116 0
M  V30 4963 H 476.274 3.73089 -1.84239 0
M  V30 4964 H 475.15 5.10212 -2.02421 0
M  V30 4965 H 475.411 4.39949 -0.435611 0
M  V30 4966 N 474.47 1.03057 1.19235 0
M  V30 4967 C 475.718 0.726581 1.88587 0
M  V30 4968 C 476.039 -0.747227 1.80115 0
M  V30 4969 O 475.309 -1.53849 1.21274 0
M  V30 4970 H 473.889 0.265768 0.698124 0
M  V30 4971 H 476.551 1.30516 1.44746 0
M  V30 4972 H 475.647 1.0224 2.94879 0
M  V30 4973 N 475.948 -1.35272 0.808662 0
M  V30 4974 C 477.194 -1.99003 0.390581 0
M  V30 4975 C 477.527 -1.63999 -1.0401 0
M  V30 4976 O 476.802 -0.904368 -1.72196 0
M  V30 4977 C 477.085 -3.55454 0.576566 0
M  V30 4978 C 476.938 -4.00249 2.05233 0
M  V30 4979 C 478.257 -4.401 0.00354277 0
M  V30 4980 H 475.376 -0.722917 0.143388 0
M  V30 4981 H 478.018 -1.6039 1.01858 0
M  V30 4982 H 476.168 -3.88477 0.0419766 0
M  V30 4983 H 477.84 -3.77626 2.64946 0
M  V30 4984 H 476.083 -3.51082 2.54801 0
M  V30 4985 H 476.754 -5.0911 2.13333 0
M  V30 4986 H 479.23 -4.13548 0.460117 0
M  V30 4987 H 478.106 -5.48656 0.163575 0
M  V30 4988 H 478.367 -4.28444 -1.09032 0
M  V30 4989 N 477.426 -0.562348 -1.47226 0
M  V30 4990 C 478.666 -0.0426374 -2.04356 0
M  V30 4991 C 479.03 1.28487 -1.42671 0
M  V30 4992 O 480.231 1.89259 -1.90878 0
M  V30 4993 C 478.502 0.0433826 -3.57374 0
M  V30 4994 S 480.061 0.508472 -4.35844 0
M  V30 4995 H 476.879 -0.0276234 -0.710463 0
M  V30 4996 H 479.481 -0.750245 -1.80531 0
M  V30 4997 H 478.185 -0.927072 -3.99792 0
M  V30 4998 H 477.716 0.774387 -3.85703 0
M  V30 4999 H 479.731 1.76719 -4.63665 0
M  V30 5000 N 478.904 1.54736 -0.299062 0
M  V30 5001 C 479.837 2.1962 0.619851 0
M  V30 5002 C 480.815 1.16496 1.13434 0
M  V30 5003 O 481.999 1.4513 1.2029 0
M  V30 5004 C 479.126 2.8385 1.84788 0
M  V30 5005 C 478.172 4.00484 1.46679 0
M  V30 5006 S 479.005 5.32926 0.524389 0
M  V30 5007 C 480.161 6.00638 1.76026 0
M  V30 5008 H 480.394 2.97221 0.0686177 0
M  V30 5009 H 477.927 1.54176 -0.0832085 0
M  V30 5010 H 479.885 3.21483 2.55263 0
M  V30 5011 H 478.546 2.06099 2.37028 0
M  V30 5012 H 477.739 4.44201 2.38121 0
M  V30 5013 H 477.341 3.64398 0.842008 0
M  V30 5014 H 479.633 6.21327 2.70109 0
M  V30 5015 H 480.576 6.94805 1.36569 0
M  V30 5016 H 480.984 5.3026 1.93609 0
M  V30 5017 N 480.382 0.0267497 1.57577 0
M  V30 5018 C 481.345 -0.940916 2.08996 0
M  V30 5019 C 482.345 -1.25561 1.00455 0
M  V30 5020 O 483.535 -1.19634 1.26623 0
M  V30 5021 C 480.667 -2.25814 2.55384 0
M  V30 5022 H 481.86 -0.495628 2.95776 0
M  V30 5023 H 479.413 -0.221241 1.54726 0
M  V30 5024 H 480.148 -2.74976 1.71926 0
M  V30 5025 H 479.933 -2.04285 3.34679 0
M  V30 5026 H 481.423 -2.95178 2.95398 0
M  V30 5027 N 481.861 -1.55662 -0.24637 0
M  V30 5028 C 483.089 -1.81575 -0.991876 0
M  V30 5029 C 483.504 -0.602545 -1.78927 0
M  V30 5030 O 482.861 0.428795 -1.77391 0
M  V30 5031 C 482.912 -3.05711 -1.92933 0
M  V30 5032 O 482.633 -4.22348 -1.1642 0
M  V30 5033 C 484.134 -3.44428 -2.79078 0
M  V30 5034 H 481.354 -0.604209 -0.291844 0
M  V30 5035 H 483.898 -2.02722 -0.269095 0
M  V30 5036 H 482.053 -2.86612 -2.60638 0
M  V30 5037 H 482.467 -4.92706 -1.79835 0
M  V30 5038 H 483.941 -4.34388 -3.40603 0
M  V30 5039 H 484.418 -2.65037 -3.50217 0
M  V30 5040 H 485.024 -3.65879 -2.16824 0
M  V30 5041 N 483.339 0.512053 -1.4905 0
M  V30 5042 C 484.269 1.62365 -1.67809 0
M  V30 5043 C 485.25 1.61737 -0.526809 0
M  V30 5044 O 486.435 1.78651 -0.761404 0
M  V30 5045 C 483.565 3.00895 -1.73435 0
M  V30 5046 C 482.519 3.16387 -2.88242 0
M  V30 5047 C 481.845 4.56157 -2.78971 0
M  V30 5048 C 483.145 2.97457 -4.29321 0
M  V30 5049 H 484.839 1.46921 -2.60873 0
M  V30 5050 H 482.385 0.705379 -1.2554 0
M  V30 5051 H 484.338 3.78549 -1.85145 0
M  V30 5052 H 483.062 3.17403 -0.769619 0
M  V30 5053 H 481.721 2.41155 -2.76116 0
M  V30 5054 H 481.369 4.69525 -1.8043 0
M  V30 5055 H 481.069 4.67465 -3.5602 0
M  V30 5056 H 482.593 5.35886 -2.92675 0
M  V30 5057 H 484.007 3.64888 -4.42187 0
M  V30 5058 H 482.404 3.20245 -5.07507 0
M  V30 5059 H 483.474 1.93692 -4.44535 0
M  V30 5060 N 484.817 1.37938 0.762283 0
M  V30 5061 C 486.045 1.36883 1.55147 0
M  V30 5062 C 486.46 -0.0435348 1.8875 0
M  V30 5063 O 485.817 -1.00786 1.52146 0
M  V30 5064 C 485.868 2.21624 2.85596 0
M  V30 5065 O 485.589 3.57358 2.5343 0
M  V30 5066 C 487.09 2.28653 3.7978 0
M  V30 5067 H 484.31 0.468521 0.480343 0
M  V30 5068 H 486.854 1.81404 0.944079 0
M  V30 5069 H 485.009 1.80588 3.42734 0
M  V30 5070 H 485.423 4.01883 3.37032 0
M  V30 5071 H 486.897 2.9225 4.68288 0
M  V30 5072 H 487.374 1.29767 4.19592 0
M  V30 5073 H 487.98 2.70043 3.28568 0
M  V30 5074 N 486.295 -0.989507 1.22664 0
M  V30 5075 C 487.258 -2.06183 1.00106 0
M  V30 5076 C 488.258 -1.60765 -0.0337726 0
M  V30 5077 O 489.448 -1.72989 0.205072 0
M  V30 5078 C 486.58 -3.37021 0.51279 0
M  V30 5079 H 487.773 -2.27629 1.95256 0
M  V30 5080 H 485.326 -1.16158 1.0458 0
M  V30 5081 H 486.061 -3.21261 -0.442917 0
M  V30 5082 H 485.846 -3.71323 1.25942 0
M  V30 5083 H 487.336 -4.1591 0.375315 0
M  V30 5084 N 487.773 -1.03688 -1.18687 0
M  V30 5085 C 489.022 -0.733235 -1.879 0
M  V30 5086 C 489.335 0.741745 -1.8099 0
M  V30 5087 O 490.541 1.15875 -2.4553 0
M  V30 5088 C 488.997 -1.26127 -3.37076 0
M  V30 5089 C 488.605 -2.76461 -3.52524 0
M  V30 5090 C 490.349 -1.03398 -4.11715 0
M  V30 5091 C 488.256 -3.22642 -4.95637 0
M  V30 5092 H 487.186 -0.270584 -0.703776 0
M  V30 5093 H 489.837 -1.25222 -1.34133 0
M  V30 5094 H 488.219 -0.670165 -3.90288 0
M  V30 5095 H 489.393 -3.41296 -3.09602 0
M  V30 5096 H 487.708 -2.97559 -2.91286 0
M  V30 5097 H 490.305 -1.3542 -5.17267 0
M  V30 5098 H 490.648 0.0289246 -4.1629 0
M  V30 5099 H 491.181 -1.5895 -3.64664 0
M  V30 5100 H 487.92 -4.28296 -4.96228 0
M  V30 5101 H 487.44 -2.62539 -5.39289 0
M  V30 5102 H 489.119 -3.16444 -5.64333 0
M  V30 5103 N 489.251 1.34841 -0.815825 0
M  V30 5104 C 490.498 1.98499 -0.400535 0
M  V30 5105 C 490.826 1.64699 1.03463 0
M  V30 5106 O 490.081 0.907006 1.73412 0
M  V30 5107 C 490.38 3.53273 -0.541541 0
M  V30 5108 C 490.046 4.06966 -1.94138 0
M  V30 5109 C 488.708 4.21341 -2.32433 0
M  V30 5110 C 491.06 4.35933 -2.85677 0
M  V30 5111 C 488.388 4.62007 -3.61617 0
M  V30 5112 C 490.74 4.78042 -4.14317 0
M  V30 5113 C 489.404 4.90622 -4.52599 0
M  V30 5114 H 488.674 0.72636 -0.146566 0
M  V30 5115 H 491.321 1.60902 -1.0384 0
M  V30 5116 H 489.626 3.91387 0.179741 0
M  V30 5117 H 491.323 4.00497 -0.20085 0
M  V30 5118 H 487.913 3.96235 -1.63388 0
M  V30 5119 H 492.097 4.24372 -2.57337 0
M  V30 5120 H 487.353 4.69937 -3.91113 0
M  V30 5121 H 491.527 4.99415 -4.85342 0
M  V30 5122 H 489.154 5.2189 -5.52752 0
M  V30 5123 N 490.729 0.570148 1.46925 0
M  V30 5124 C 491.957 0.0561966 2.06824 0
M  V30 5125 C 492.372 -1.24326 1.42086 0
M  V30 5126 O 491.729 -1.74882 0.521794 0
M  V30 5127 C 491.78 -0.129517 3.61268 0
M  V30 5128 O 491.501 1.1185 4.23581 0
M  V30 5129 C 493.002 -0.679266 4.38065 0
M  V30 5130 H 490.222 0.0517261 0.669003 0
M  V30 5131 H 492.766 0.787243 1.8874 0
M  V30 5132 H 490.921 -0.810739 3.78822 0
M  V30 5133 H 491.335 0.924375 5.1629 0
M  V30 5134 H 492.809 -0.758445 5.46765 0
M  V30 5135 H 493.286 -1.69346 4.05239 0
M  V30 5136 H 493.892 -0.0333237 4.25287 0
M  V30 5137 N 492.207 -1.54576 0.307264 0
M  V30 5138 C 493.453 -2.0056 -0.300612 0
M  V30 5139 C 493.786 -1.1953 -1.53057 0
M  V30 5140 O 493.061 -0.27337 -1.92569 0
M  V30 5141 C 493.344 -3.54167 -0.650987 0
M  V30 5142 C 493.197 -4.45933 0.588539 0
M  V30 5143 C 494.516 -4.14645 -1.47506 0
M  V30 5144 H 491.635 -0.729075 -0.107788 0
M  V30 5145 H 494.277 -1.85286 0.420606 0
M  V30 5146 H 492.427 -3.67313 -1.26544 0
M  V30 5147 H 494.099 -4.44683 1.22697 0
M  V30 5148 H 492.342 -4.16274 1.22058 0
M  V30 5149 H 493.013 -5.51189 0.299153 0
M  V30 5150 H 495.489 -4.04973 -0.955821 0
M  V30 5151 H 494.365 -5.22269 -1.68899 0
M  V30 5152 H 494.626 -3.66921 -2.4662 0
M  V30 5153 N 493.685 -0.035106 -1.57561 0
M  V30 5154 C 494.91 0.655802 -1.96759 0
M  V30 5155 C 495.335 1.64523 -0.911809 0
M  V30 5156 O 494.693 1.80857 0.126673 0
M  V30 5157 C 494.741 1.33326 -3.35047 0
M  V30 5158 O 493.845 2.44866 -3.31835 0
M  V30 5159 H 493.186 0.171807 -0.641388 0
M  V30 5160 H 495.716 -0.0987369 -2.04362 0
M  V30 5161 H 495.726 1.68867 -3.71413 0
M  V30 5162 H 494.401 0.608033 -4.11431 0
M  V30 5163 H 492.978 2.11392 -3.07193 0
M  V30 5164 N 495.163 1.55791 0.238111 0
M  V30 5165 C 496.093 1.94068 1.29846 0
M  V30 5166 C 497.074 0.806726 1.49753 0
M  V30 5167 O 498.259 1.06772 1.62214 0
M  V30 5168 C 495.389 2.24302 2.65153 0
M  V30 5169 C 494.343 3.40032 2.59927 0
M  V30 5170 C 493.669 3.55829 3.99111 0
M  V30 5171 C 494.969 4.75476 2.16148 0
M  V30 5172 H 496.663 2.82887 0.980563 0
M  V30 5173 H 494.209 1.36105 0.470253 0
M  V30 5174 H 496.162 2.4967 3.39475 0
M  V30 5175 H 494.886 1.32318 2.98596 0
M  V30 5176 H 493.545 3.14687 1.88063 0
M  V30 5177 H 493.193 2.6125 4.29834 0
M  V30 5178 H 492.893 4.3366 3.96501 0
M  V30 5179 H 494.417 3.83528 4.7512 0
M  V30 5180 H 495.831 5.00158 2.80205 0
M  V30 5181 H 494.228 5.56472 2.24631 0
M  V30 5182 H 495.298 4.71946 1.11333 0
M  V30 5183 N 496.642 -0.504142 1.49319 0
M  V30 5184 C 498.058 -0.835039 1.36012 0
M  V30 5185 C 498.258 -1.97674 0.390808 0
M  V30 5186 O 497.314 -2.51867 -0.178655 0
M  V30 5187 C 498.627 -1.17821 2.76656 0
M  V30 5188 C 500.175 -1.2866 2.85334 0
M  V30 5189 C 500.65 -1.66307 4.26739 0
M  V30 5190 N 502.141 -1.73362 4.29534 0
M  V30 5191 C 502.876 -2.0393 5.35911 0
M  V30 5192 N 502.372 -2.32744 6.52535 0
M  V30 5193 N 504.165 -2.05155 5.23324 0
M  V30 5194 H 496.316 0.248764 2.10938 0
M  V30 5195 H 498.579 0.0486962 0.946748 0
M  V30 5196 H 498.285 -0.412682 3.4927 0
M  V30 5197 H 498.159 -2.12239 3.11825 0
M  V30 5198 H 500.546 -2.04285 2.1296 0
M  V30 5199 H 500.627 -0.323004 2.53752 0
M  V30 5200 H 500.271 -0.91234 4.99639 0
M  V30 5201 H 500.201 -2.63761 4.55782 0
M  V30 5202 H 502.692 -1.53268 3.45424 0
M  V30 5203 H 503.005 -2.55248 7.2943 0
M  V30 5204 H 501.35 -2.30207 6.55767 0
M  V30 5205 H 504.541 -1.82119 4.3122 0
M  V30 5206 H 504.714 -2.28644 6.06322 0
M  V30 5207 N 498.12 -1.38341 -0.754957 0
M  V30 5208 C 499.03 -1.3769 -1.89944 0
M  V30 5209 C 500.046 -0.274194 -1.71826 0
M  V30 5210 O 501.222 -0.512391 -1.94773 0
M  V30 5211 C 498.287 -1.19938 -3.25293 0
M  V30 5212 C 497.348 -2.40001 -3.55946 0
M  V30 5213 C 496.581 -2.23087 -4.84838 0
M  V30 5214 O 496.804 -1.22386 -5.57116 0
M  V30 5215 O 495.738 -3.11646 -5.14937 0
M  V30 5216 H 499.564 -2.3412 -1.93446 0
M  V30 5217 H 497.149 -1.19246 -0.900044 0
M  V30 5218 H 499.031 -1.12093 -4.06218 0
M  V30 5219 H 497.706 -0.265919 -3.22606 0
M  V30 5220 H 496.613 -2.53421 -2.75188 0
M  V30 5221 H 497.946 -3.31973 -3.63394 0
M  V30 5222 N 499.598 0.982988 -1.23187 0
M  V30 5223 C 500.53 2.07729 -0.968572 0
M  V30 5224 C 501.543 1.62702 0.0564821 0
M  V30 5225 O 502.732 1.77603 -0.178733 0
M  V30 5226 C 499.832 3.36071 -0.436974 0
M  V30 5227 C 499.005 4.10081 -1.52159 0
M  V30 5228 C 498.064 5.16701 -0.99532 0
M  V30 5229 O 497.09 5.43727 -1.68373 0
M  V30 5230 N 498.292 5.80226 0.178192 0
M  V30 5231 H 501.057 2.30894 -1.9107 0
M  V30 5232 H 498.618 1.14949 -1.1401 0
M  V30 5233 H 500.61 4.04639 -0.0700051 0
M  V30 5234 H 499.18 3.09893 0.410509 0
M  V30 5235 H 498.4 3.36004 -2.06144 0
M  V30 5236 H 499.688 4.56295 -2.25105 0
M  V30 5237 H 499.086 5.60651 0.754096 0
M  V30 5238 H 497.643 6.49982 0.486449 0
M  V30 5239 N 501.076 1.04316 1.18135 0
M  V30 5240 C 502.325 0.74319 1.87509 0
M  V30 5241 C 502.638 -0.732136 1.81381 0
M  V30 5242 O 503.844 -1.14572 2.46141 0
M  V30 5243 C 502.3 1.27913 3.36402 0
M  V30 5244 C 501.908 2.78326 3.51053 0
M  V30 5245 C 503.652 1.0558 4.11161 0
M  V30 5246 C 501.559 3.25266 4.93919 0
M  V30 5247 H 500.489 0.274313 0.702331 0
M  V30 5248 H 503.14 1.25931 1.33467 0
M  V30 5249 H 501.522 0.690853 3.89927 0
M  V30 5250 H 502.696 3.42933 3.07788 0
M  V30 5251 H 501.011 2.991 2.89704 0
M  V30 5252 H 503.608 1.38161 5.16542 0
M  V30 5253 H 503.951 -0.00684729 4.16299 0
M  V30 5254 H 504.484 1.60882 3.63816 0
M  V30 5255 H 501.223 4.30922 4.9395 0
M  V30 5256 H 500.743 2.65396 5.3789 0
M  V30 5257 H 502.422 3.19433 5.62647 0
M  V30 5258 N 502.554 -1.34406 0.822964 0
M  V30 5259 C 503.517 -2.2783 0.250271 0
M  V30 5260 C 504.517 -1.50288 -0.571854 0
M  V30 5261 O 505.707 -1.69825 -0.387952 0
M  V30 5262 C 502.839 -3.34663 -0.649137 0
M  V30 5263 H 504.032 -2.79992 1.07444 0
M  V30 5264 H 501.585 -1.44539 0.594829 0
M  V30 5265 H 502.32 -2.87714 -1.49637 0
M  V30 5266 H 502.105 -3.92052 -0.0611199 0
M  V30 5267 H 503.595 -4.04349 -1.04363 0
M  V30 5268 N 504.032 -0.577932 -1.46621 0
M  V30 5269 C 504.962 0.145917 -2.33044 0
M  V30 5270 C 505.943 0.888412 -1.45056 0
M  V30 5271 O 507.128 0.864812 -1.73881 0
M  V30 5272 C 504.258 1.16322 -3.27241 0
M  V30 5273 C 503.212 0.535868 -4.24632 0
M  V30 5274 C 502.538 1.65929 -5.08303 0
M  V30 5275 C 503.838 -0.523861 -5.19666 0
M  V30 5276 H 505.532 -0.575636 -2.93814 0
M  V30 5277 H 503.078 -0.278272 -1.41286 0
M  V30 5278 H 505.031 1.67793 -3.86553 0
M  V30 5279 H 503.755 1.91498 -2.64567 0
M  V30 5280 H 502.414 0.0422759 -3.66576 0
M  V30 5281 H 502.062 2.40061 -4.42018 0
M  V30 5282 H 501.762 1.2452 -5.74255 0
M  V30 5283 H 503.286 2.17686 -5.70478 0
M  V30 5284 H 504.7 -0.0944059 -5.73222 0
M  V30 5285 H 503.097 -0.858 -5.93935 0
M  V30 5286 H 504.167 -1.41197 -4.63887 0
M  V30 5287 N 505.51 1.54411 -0.315457 0
M  V30 5288 C 506.44 2.27002 0.547039 0
M  V30 5289 C 507.421 1.27492 1.12605 0
M  V30 5290 O 508.606 1.5629 1.15269 0
M  V30 5291 C 505.736 3.02171 1.71201 0
M  V30 5292 C 504.69 4.0895 1.26268 0
M  V30 5293 C 504.016 4.71915 2.51396 0
M  V30 5294 C 505.316 5.20891 0.383419 0
M  V30 5295 H 507.01 2.99343 -0.0584517 0
M  V30 5296 H 504.556 1.4397 -0.0295527 0
M  V30 5297 H 506.509 3.51681 2.32161 0
M  V30 5298 H 505.233 2.27433 2.34397 0
M  V30 5299 H 503.892 3.60312 0.676062 0
M  V30 5300 H 503.54 3.93801 3.12937 0
M  V30 5301 H 503.24 5.44039 2.22026 0
M  V30 5302 H 504.764 5.24195 3.13133 0
M  V30 5303 H 506.178 5.66206 0.899082 0
M  V30 5304 H 504.575 5.99821 0.182857 0
M  V30 5305 H 505.645 4.81324 -0.587821 0
M  V30 5306 N 506.988 0.0434614 1.5754 0
M  V30 5307 C 508.218 -0.640905 1.96408 0
M  V30 5308 C 508.626 -1.65365 0.919297 0
M  V30 5309 O 507.969 -1.83395 -0.105795 0
M  V30 5310 C 508.031 -1.39141 3.31482 0
M  V30 5311 C 507.695 -0.535375 4.53853 0
M  V30 5312 C 508.692 0.195335 5.19533 0
M  V30 5313 C 506.377 -0.468564 5.0011 0
M  V30 5314 C 508.371 0.981377 6.298 0
M  V30 5315 C 506.058 0.321171 6.10255 0
M  V30 5316 C 507.056 1.04484 6.74961 0
M  V30 5317 O 506.744 1.8216 7.8299 0
M  V30 5318 H 506.476 -0.180584 0.651433 0
M  V30 5319 H 509.03 0.103848 2.05137 0
M  V30 5320 H 507.26 -2.18162 3.19284 0
M  V30 5321 H 508.949 -1.96526 3.55151 0
M  V30 5322 H 509.715 0.15314 4.84758 0
M  V30 5323 H 505.594 -1.02142 4.49542 0
M  V30 5324 H 509.138 1.54674 6.80237 0
M  V30 5325 H 505.035 0.365032 6.44467 0
M  V30 5326 H 505.803 1.74289 7.99728 0
M  V30 5327 N 508.466 -1.55915 -0.229846 0
M  V30 5328 C 509.414 -1.9258 -1.30444 0
M  V30 5329 C 510.408 -0.806839 -1.48951 0
M  V30 5330 O 511.614 -0.991606 -1.50224 0
M  V30 5331 H 507.989 -0.611878 -0.437161 0
M  V30 5332 H 509.96 -2.82264 -0.96797 0
M  V30 5333 C 508.709 -2.25171 -2.6494 0
M  V30 5334 H 508.032 -3.10782 -2.51504 0
M  V30 5335 H 509.472 -2.54716 -3.38963 0
M  V30 5336 C 507.931 -1.07394 -3.19324 0
M  V30 5337 O 508.461 -0.330759 -4.00336 0
M  V30 5338 N 506.667 -0.859984 -2.77584 0
M  V30 5339 H 506.214 -1.46605 -2.11813 0
M  V30 5340 H 506.172 -0.0736671 -3.14314 0
M  V30 5341 N 509.944 0.496216 -1.49584 0
M  V30 5342 C 511.221 1.25755 -1.49816 0
M  V30 5343 C 511.601 2.09859 -0.228572 0
M  V30 5344 O 510.949 2.14449 0.788908 0
M  V30 5345 C 511.159 2.11017 -2.7798 0
M  V30 5346 C 512.507 2.70047 -3.27658 0
M  V30 5347 O 513.531 2.21281 -2.79129 0
M  V30 5348 O 512.39 3.58834 -4.1219 0
M  V30 5349 H 509.484 0.569322 -0.599834 0
M  V30 5350 H 512.03 0.510094 -1.61852 0
M  V30 5351 H 510.802 1.48879 -3.61871 0
M  V30 5352 H 510.425 2.92947 -2.68827 0
M  V30 5353 N 511.423 1.38739 0.74761 0
M  V30 5354 C 512.371 1.36573 1.88283 0
M  V30 5355 C 513.365 0.250712 1.67534 0
M  V30 5356 O 514.571 0.420073 1.7503 0
M  V30 5357 H 510.946 0.42619 0.619569 0
M  V30 5358 H 512.917 2.32356 1.87226 0
M  V30 5359 C 511.666 1.21361 3.25832 0
M  V30 5360 H 510.989 2.06424 3.42388 0
M  V30 5361 H 512.429 1.23901 4.05493 0
M  V30 5362 C 510.888 -0.0790099 3.36807 0
M  V30 5363 O 511.418 -1.05385 3.8763 0
M  V30 5364 N 509.624 -0.13785 2.90273 0
M  V30 5365 H 509.171 0.656128 2.49104 0
M  V30 5366 H 509.129 -1.00228 2.97996 0
M  V30 5367 N 512.901 -0.976442 1.23707 0
M  V30 5368 C 514.312 -1.53284 1.06587 0
M  V30 5369 C 514.663 -1.92765 -0.365526 0
M  V30 5370 O 513.788 -1.7645 -1.25277 0
M  V30 5371 C 514.383 -2.78548 1.92864 0
M  V30 5372 C 512.942 -3.30574 1.79994 0
M  V30 5373 C 512.089 -2.03538 1.88328 0
M  V30 5374 H 515.04 -0.795692 1.37311 0
M  V30 5375 H 515.061 -3.5155 1.45577 0
M  V30 5376 H 514.573 -2.49782 2.97037 0
M  V30 5377 H 512.674 -3.64211 0.786202 0
M  V30 5378 H 512.787 -4.00065 2.636 0
M  V30 5379 H 511.151 -2.17853 1.31954 0
M  V30 5380 H 511.934 -1.77149 2.94063 0
M  V30 5381 N 514.379 -1.04941 -1.1758 0
M  V30 5382 C 515.289 -0.658826 -2.25159 0
M  V30 5383 C 516.305 0.318941 -1.71052 0
M  V30 5384 O 517.481 0.171669 -2.00667 0
M  V30 5385 C 514.546 -0.0369522 -3.4668 0
M  V30 5386 C 513.607 -1.06484 -4.15884 0
M  V30 5387 C 512.84 -0.472551 -5.31604 0
M  V30 5388 O 513.063 0.718736 -5.65854 0
M  V30 5389 O 511.997 -1.20557 -5.89703 0
M  V30 5390 H 515.823 -1.55533 -2.60851 0
M  V30 5391 H 513.408 -0.820819 -1.24832 0
M  V30 5392 H 515.29 0.308784 -4.20267 0
M  V30 5393 H 513.965 0.833238 -3.12792 0
M  V30 5394 H 512.872 -1.46253 -3.44327 0
M  V30 5395 H 514.205 -1.9061 -4.53794 0
M  V30 5396 N 515.857 1.33968 -0.830081 0
M  V30 5397 C 517.103 1.98357 -0.422191 0
M  V30 5398 C 517.436 1.65633 1.01387 0
M  V30 5399 O 516.711 0.931648 1.70735 0
M  V30 5400 C 516.994 3.54492 -0.633043 0
M  V30 5401 C 516.847 3.96934 -2.11574 0
M  V30 5402 C 518.166 4.40039 -0.0735584 0
M  V30 5403 H 515.285 0.720544 -0.154871 0
M  V30 5404 H 517.927 1.58749 -1.04397 0
M  V30 5405 H 516.077 3.88361 -0.103775 0
M  V30 5406 H 517.749 3.73363 -2.7092 0
M  V30 5407 H 515.992 3.46984 -2.60354 0
M  V30 5408 H 516.663 5.05651 -2.21406 0
M  V30 5409 H 519.139 4.12764 -0.52585 0
M  V30 5410 H 518.015 5.48327 -0.250841 0
M  V30 5411 H 518.276 4.30124 1.02202 0
M  V30 5412 N 517.335 0.585699 1.46312 0
M  V30 5413 C 518.581 0.0725284 2.0267 0
M  V30 5414 C 518.914 -1.28523 1.45586 0
M  V30 5415 O 518.189 -1.84283 0.622101 0
M  V30 5416 C 518.472 0.0099788 3.60099 0
M  V30 5417 C 518.325 1.39685 4.27561 0
M  V30 5418 C 519.644 -0.689117 4.34671 0
M  V30 5419 H 516.763 0.0278307 0.736474 0
M  V30 5420 H 519.405 0.753472 1.74421 0
M  V30 5421 H 517.555 -0.56992 3.84297 0
M  V30 5422 H 519.227 2.02215 4.14617 0
M  V30 5423 H 517.47 1.96374 3.86807 0
M  V30 5424 H 518.141 1.30553 5.36339 0
M  V30 5425 H 520.617 -0.196446 4.15636 0
M  V30 5426 H 519.493 -0.701921 5.44393 0
M  V30 5427 H 519.754 -1.75101 4.05946 0
M  V30 5428 N 518.813 -1.54241 0.323641 0
M  V30 5429 C 520.041 -2.04985 -0.280871 0
M  V30 5430 C 520.456 -1.19978 -1.45777 0
M  V30 5431 O 519.813 -0.230471 -1.81039 0
M  V30 5432 C 519.864 -3.54353 -0.715258 0
M  V30 5433 O 519.585 -4.36132 0.414817 0
M  V30 5434 C 521.086 -4.21189 -1.38257 0
M  V30 5435 H 518.306 -0.66851 -0.0577502 0
M  V30 5436 H 520.85 -1.99029 0.469852 0
M  V30 5437 H 519.005 -3.60596 -1.41596 0
M  V30 5438 H 519.419 -5.2445 0.0725227 0
M  V30 5439 H 520.893 -5.27154 -1.63745 0
M  V30 5440 H 521.37 -3.72307 -2.32989 0
M  V30 5441 H 521.976 -4.19085 -0.724447 0
M  V30 5442 N 520.291 -0.0518155 -1.57515 0
M  V30 5443 C 521.221 0.920283 -2.146 0
M  V30 5444 C 522.202 1.32406 -1.06783 0
M  V30 5445 O 523.387 1.39866 -1.34726 0
M  V30 5446 C 520.517 2.1949 -2.6915 0
M  V30 5447 C 519.471 1.93116 -3.81956 0
M  V30 5448 C 518.797 3.27037 -4.23026 0
M  V30 5449 C 520.097 1.25225 -5.07066 0
M  V30 5450 H 521.791 0.444801 -2.96077 0
M  V30 5451 H 519.337 0.212508 -1.42423 0
M  V30 5452 H 521.29 2.87894 -3.07725 0
M  V30 5453 H 520.014 2.69244 -1.84865 0
M  V30 5454 H 518.673 1.27123 -3.43854 0
M  V30 5455 H 518.321 3.74595 -3.3569 0
M  V30 5456 H 518.021 3.10189 -4.99056 0
M  V30 5457 H 519.545 3.96673 -4.64202 0
M  V30 5458 H 520.959 1.83666 -5.43083 0
M  V30 5459 H 519.356 1.18702 -5.88243 0
M  V30 5460 H 520.426 0.228382 -4.84362 0
M  V30 5461 N 521.769 1.56035 0.221574 0
M  V30 5462 C 522.732 1.91584 1.2581 0
M  V30 5463 C 523.732 0.794425 1.39805 0
M  V30 5464 O 524.922 1.06217 1.38071 0
M  V30 5465 C 522.054 2.16663 2.63192 0
M  V30 5466 H 523.247 2.8429 0.954935 0
M  V30 5467 H 520.8 1.49316 0.461988 0
M  V30 5468 H 521.535 1.26508 2.98607 0
M  V30 5469 H 521.32 2.98358 2.5441 0
M  V30 5470 H 522.81 2.45262 3.37988 0
M  V30 5471 N 523.247 -0.488276 1.49845 0
M  V30 5472 C 524.21 -1.57069 1.66919 0
M  V30 5473 C 525.21 -1.51445 0.540479 0
M  V30 5474 O 526.4 -1.5437 0.807188 0
M  V30 5475 C 523.532 -2.96718 1.67844 0
M  V30 5476 H 524.725 -1.43254 2.63474 0
M  V30 5477 H 522.278 -0.713435 1.39068 0
M  V30 5478 H 523.013 -3.15996 0.7292 0
M  V30 5479 H 522.798 -3.02208 2.49826 0
M  V30 5480 H 524.288 -3.75335 1.83066 0
M  V30 5481 N 524.725 -1.39134 -0.740242 0
M  V30 5482 C 525.675 -1.33928 -1.84519 0
M  V30 5483 C 526.659 -0.221097 -1.59374 0
M  V30 5484 O 527.851 -0.458195 -1.70967 0
M  V30 5485 C 524.98 -1.17991 -3.22387 0
M  V30 5486 C 524.066 -2.34488 -3.53378 0
M  V30 5487 N 524.457 -3.59954 -3.5534 0
M  V30 5488 C 522.755 -2.27331 -3.83714 0
M  V30 5489 C 523.456 -4.36962 -3.83978 0
M  V30 5490 N 522.432 -3.66482 -4.01487 0
M  V30 5491 H 526.234 -2.28907 -1.84333 0
M  V30 5492 H 523.748 -1.32555 -0.938237 0
M  V30 5493 H 525.745 -1.12345 -4.01478 0
M  V30 5494 H 524.405 -0.23957 -3.23815 0
M  V30 5495 H 525.416 -3.93448 -3.36778 0
M  V30 5496 H 522.093 -1.41531 -3.92779 0
M  V30 5497 H 523.483 -5.45692 -3.92008 0
M  V30 5498 N 526.204 0.969867 -1.24223 0
M  V30 5499 C 527.134 2.08191 -1.05729 0
M  V30 5500 C 528.115 1.70075 0.0290765 0
M  V30 5501 O 529.3 1.93712 -0.137583 0
M  V30 5502 C 526.43 3.40991 -0.658995 0
M  V30 5503 C 525.384 3.93054 -1.69389 0
M  V30 5504 C 524.71 5.22171 -1.15072 0
M  V30 5505 C 526.01 4.21137 -3.08935 0
M  V30 5506 H 527.704 2.23921 -1.98746 0
M  V30 5507 H 525.25 1.07602 -0.956967 0
M  V30 5508 H 527.203 4.18221 -0.51662 0
M  V30 5509 H 525.927 3.25155 0.30686 0
M  V30 5510 H 524.586 3.17977 -1.82444 0
M  V30 5511 H 524.234 5.02694 -0.175539 0
M  V30 5512 H 523.934 5.57973 -1.84229 0
M  V30 5513 H 525.458 6.02013 -1.02042 0
M  V30 5514 H 526.872 4.8908 -2.99121 0
M  V30 5515 H 525.269 4.68163 -3.75425 0
M  V30 5516 H 526.339 3.27996 -3.57137 0
M  V30 5517 N 527.682 1.05563 1.17022 0
M  V30 5518 C 528.615 0.604197 2.20056 0
M  V30 5519 C 529.593 -0.369169 1.58354 0
M  V30 5520 O 530.777 -0.279898 1.8641 0
M  V30 5521 C 527.904 -0.115265 3.38504 0
M  V30 5522 C 526.95 0.813698 4.18666 0
M  V30 5523 S 527.783 2.30492 4.83357 0
M  V30 5524 C 528.939 1.59674 6.0519 0
M  V30 5525 H 529.172 1.47713 2.58008 0
M  V30 5526 H 526.705 0.867932 1.27696 0
M  V30 5527 H 528.663 -0.524162 4.0714 0
M  V30 5528 H 527.324 -0.964284 2.98932 0
M  V30 5529 H 526.517 0.256736 5.03346 0
M  V30 5530 H 526.119 1.16213 3.55486 0
M  V30 5531 H 528.411 0.898164 6.7152 0
M  V30 5532 H 529.354 2.42115 6.65422 0
M  V30 5533 H 529.762 1.08252 5.54023 0
M  V30 5534 N 529.16 -1.33526 0.837174 0
M  V30 5535 C 530.09 -2.31764 0.284206 0
M  V30 5536 C 531.071 -1.58896 -0.607142 0
M  V30 5537 O 532.256 -1.86798 -0.531047 0
M  V30 5538 C 529.386 -3.43029 -0.542962 0
M  V30 5539 C 528.34 -4.27255 0.252451 0
M  V30 5540 C 527.666 -5.3012 -0.69836 0
M  V30 5541 C 528.966 -5.01229 1.46858 0
M  V30 5542 H 530.66 -2.78262 1.10502 0
M  V30 5543 H 528.206 -1.3378 0.532812 0
M  V30 5544 H 530.159 -4.1078 -0.940096 0
M  V30 5545 H 528.883 -2.95216 -1.39697 0
M  V30 5546 H 527.542 -3.61127 0.631124 0
M  V30 5547 H 527.19 -4.78564 -1.54872 0
M  V30 5548 H 526.89 -5.87353 -0.170274 0
M  V30 5549 H 528.414 -6.00737 -1.09305 0
M  V30 5550 H 529.828 -5.61756 1.14469 0
M  V30 5551 H 528.225 -5.68104 1.93333 0
M  V30 5552 H 529.295 -4.301 2.23924 0
M  V30 5553 N 530.638 -0.59345 -1.46 0
M  V30 5554 C 531.568 0.121192 -2.33185 0
M  V30 5555 C 532.549 0.872977 -1.4599 0
M  V30 5556 O 533.734 0.846321 -1.74789 0
M  V30 5557 C 530.864 1.12844 -3.28456 0
M  V30 5558 C 529.818 0.4908 -4.25177 0
M  V30 5559 C 529.144 1.60529 -5.10034 0
M  V30 5560 C 530.444 -0.578949 -5.19081 0
M  V30 5561 H 532.138 -0.606767 -2.93187 0
M  V30 5562 H 529.684 -0.293242 -1.40983 0
M  V30 5563 H 531.637 1.63684 -3.88311 0
M  V30 5564 H 530.361 1.88681 -2.66584 0
M  V30 5565 H 529.02 0.00339328 -3.666 0
M  V30 5566 H 528.668 2.35359 -4.44539 0
M  V30 5567 H 528.368 1.18422 -5.75543 0
M  V30 5568 H 529.892 2.11623 -5.72755 0
M  V30 5569 H 531.306 -0.155199 -5.7309 0
M  V30 5570 H 529.703 -0.920947 -5.92991 0
M  V30 5571 H 530.773 -1.46109 -4.62364 0
M  V30 5572 N 532.116 1.54067 -0.331816 0
M  V30 5573 C 533.079 2.23275 0.517768 0
M  V30 5574 C 534.079 1.22897 1.03697 0
M  V30 5575 O 535.269 1.47419 0.928084 0
M  V30 5576 C 532.401 2.94326 1.72004 0
M  V30 5577 H 533.594 2.99773 -0.0873507 0
M  V30 5578 H 531.147 1.56079 -0.0830042 0
M  V30 5579 H 531.882 2.21986 2.36417 0
M  V30 5580 H 531.667 3.67941 1.35507 0
M  V30 5581 H 533.157 3.47031 2.32291 0
M  V30 5582 N 533.594 0.0601682 1.57485 0
M  V30 5583 C 534.557 -0.896373 2.10945 0
M  V30 5584 C 535.557 -1.23402 1.03095 0
M  V30 5585 O 536.747 -1.16921 1.29132 0
M  V30 5586 C 533.879 -2.20346 2.60116 0
M  V30 5587 H 535.072 -0.432778 2.96761 0
M  V30 5588 H 532.625 -0.188372 1.55161 0
M  V30 5589 H 533.36 -2.71268 1.7772 0
M  V30 5590 H 533.145 -1.9714 3.38937 0
M  V30 5591 H 534.635 -2.88846 3.01592 0
M  V30 5592 N 535.072 -1.5615 -0.213296 0
M  V30 5593 C 536.318 -1.79812 -0.937849 0
M  V30 5594 C 536.651 -0.631201 -1.83656 0
M  V30 5595 O 535.926 0.369165 -1.90964 0
M  V30 5596 C 536.209 -3.13613 -1.76972 0
M  V30 5597 C 536.062 -4.40766 -0.89695 0
M  V30 5598 C 537.381 -3.43931 -2.7459 0
M  V30 5599 H 534.5 -0.654138 -0.339518 0
M  V30 5600 H 537.142 -1.88877 -0.20623 0
M  V30 5601 H 535.292 -3.06015 -2.39347 0
M  V30 5602 H 536.964 -4.60392 -0.289306 0
M  V30 5603 H 535.207 -4.33326 -0.202756 0
M  V30 5604 H 535.878 -5.30843 -1.51358 0
M  V30 5605 H 538.354 -3.5171 -2.22349 0
M  V30 5606 H 537.23 -4.38706 -3.29891 0
M  V30 5607 H 537.491 -2.6651 -3.52739 0
M  V30 5608 N 536.55 0.480323 -1.50102 0
M  V30 5609 C 537.78 1.25475 -1.64133 0
M  V30 5610 C 538.188 1.8647 -0.320272 0
M  V30 5611 O 537.531 1.69561 0.70673 0
M  V30 5612 C 537.593 2.40996 -2.6676 0
M  V30 5613 C 537.257 2.00711 -4.10565 0
M  V30 5614 C 538.254 1.53492 -4.96725 0
M  V30 5615 C 535.939 2.09714 -4.56427 0
M  V30 5616 C 537.933 1.15806 -6.26792 0
M  V30 5617 C 535.62 1.7164 -5.86501 0
M  V30 5618 C 536.618 1.24763 -6.71508 0
M  V30 5619 O 536.306 0.872122 -7.99155 0
M  V30 5620 H 536.038 0.385983 -0.554971 0
M  V30 5621 H 538.592 0.580848 -1.97016 0
M  V30 5622 H 536.822 3.11528 -2.291 0
M  V30 5623 H 538.511 3.02981 -2.70106 0
M  V30 5624 H 539.277 1.45966 -4.62514 0
M  V30 5625 H 535.156 2.4515 -3.90413 0
M  V30 5626 H 538.7 0.791465 -6.93096 0
M  V30 5627 H 534.597 1.78822 -6.20236 0
M  V30 5628 H 535.365 1.00178 -8.12346 0
M  V30 5629 N 538.028 1.39524 0.732853 0
M  V30 5630 C 538.96 1.34318 1.85718 0
M  V30 5631 C 539.973 0.251576 1.60844 0
M  V30 5632 O 541.162 0.510685 1.71039 0
M  V30 5633 C 538.262 1.06334 3.21786 0
M  V30 5634 C 537.435 2.26813 3.73998 0
M  V30 5635 C 536.494 1.95253 4.88634 0
M  V30 5636 O 535.52 2.67957 5.02183 0
M  V30 5637 N 536.722 0.919984 5.73164 0
M  V30 5638 H 539.487 2.3121 1.90688 0
M  V30 5639 H 537.048 1.33654 0.91368 0
M  V30 5640 H 539.04 0.832363 3.96048 0
M  V30 5641 H 537.61 0.181682 3.12072 0
M  V30 5642 H 536.83 2.65849 2.91064 0
M  V30 5643 H 538.118 3.0717 4.05616 0
M  V30 5644 H 537.516 0.317487 5.64808 0
M  V30 5645 H 536.073 0.748905 6.47483 0
M  V30 5646 N 539.506 -0.963266 1.24736 0
M  V30 5647 C 540.755 -1.70115 1.08369 0
M  V30 5648 C 541.068 -1.91939 -0.376688 0
M  V30 5649 O 542.274 -2.6334 -0.660624 0
M  V30 5650 C 540.73 -3.06218 1.89099 0
M  V30 5651 C 540.338 -2.92221 3.39574 0
M  V30 5652 C 542.082 -3.83848 1.81275 0
M  V30 5653 C 539.989 -4.23662 4.12631 0
M  V30 5654 H 538.919 -0.637944 0.401924 0
M  V30 5655 H 541.57 -1.07304 1.48856 0
M  V30 5656 H 539.952 -3.69884 1.41429 0
M  V30 5657 H 541.126 -2.37541 3.94856 0
M  V30 5658 H 539.441 -2.28054 3.48397 0
M  V30 5659 H 542.038 -4.81188 2.33158 0
M  V30 5660 H 542.381 -4.08949 0.778895 0
M  V30 5661 H 542.914 -3.26918 2.26649 0
M  V30 5662 H 539.653 -4.03753 5.16395 0
M  V30 5663 H 539.173 -4.78141 3.62135 0
M  V30 5664 H 540.852 -4.92256 4.19873 0
M  V30 5665 N 540.985 -1.06182 -1.16461 0
M  V30 5666 C 542.21 -0.798599 -1.91408 0
M  V30 5667 C 542.635 0.640987 -1.76842 0
M  V30 5668 O 541.993 1.44652 -1.09296 0
M  V30 5669 C 542.041 -1.19665 -3.40165 0
M  V30 5670 O 541.145 -0.334768 -4.11039 0
M  V30 5671 H 540.486 -0.291961 -0.596368 0
M  V30 5672 H 543.016 -1.41732 -1.47557 0
M  V30 5673 H 543.026 -1.16772 -3.90933 0
M  V30 5674 H 541.701 -2.24526 -3.50087 0
M  V30 5675 H 540.278 -0.425168 -3.70468 0
M  V30 5676 N 542.463 1.3308 -0.844243 0
M  V30 5677 C 543.74 1.92178 -0.364261 0
M  V30 5678 C 544.12 1.76961 1.15101 0
M  V30 5679 O 543.468 1.16128 1.9679 0
M  V30 5680 C 543.678 3.393 -0.817106 0
M  V30 5681 C 545.026 4.16444 -0.828236 0
M  V30 5682 O 546.05 3.47975 -0.761062 0
M  V30 5683 O 544.909 5.38685 -0.920926 0
M  V30 5684 H 542.003 0.820411 -0.10419 0
M  V30 5685 H 544.549 1.41918 -0.930453 0
M  V30 5686 H 543.321 3.44272 -1.85991 0
M  V30 5687 H 542.944 3.96947 -0.227785 0
M  V30 5688 N 543.941 0.601185 1.45683 0
M  V30 5689 C 545.166 0.0982245 2.07167 0
M  V30 5690 C 545.591 -1.20546 1.44396 0
M  V30 5691 O 544.949 -1.73247 0.534347 0
M  V30 5692 C 544.997 -0.0346976 3.60583 0
M  V30 5693 O 544.101 -1.08657 3.97828 0
M  V30 5694 H 543.442 0.0711618 0.660176 0
M  V30 5695 H 545.972 0.829376 1.87036 0
M  V30 5696 H 545.982 -0.234969 4.07323 0
M  V30 5697 H 544.657 0.917265 4.05659 0
M  V30 5698 H 543.234 -0.863275 3.6277 0
M  V30 5699 N 545.419 -1.53889 0.339982 0
M  V30 5700 C 546.668 -2.00035 -0.258604 0
M  V30 5701 C 546.981 -1.23179 -1.51942 0
M  V30 5702 O 548.187 -1.59784 -2.19503 0
M  V30 5703 C 546.643 -3.56249 -0.511359 0
M  V30 5704 C 546.251 -4.41957 0.733349 0
M  V30 5705 C 547.995 -4.1082 -1.069 0
M  V30 5706 C 545.902 -5.89673 0.451591 0
M  V30 5707 H 544.832 -0.747284 -0.10041 0
M  V30 5708 H 547.483 -1.77776 0.454758 0
M  V30 5709 H 545.865 -3.7456 -1.28533 0
M  V30 5710 H 547.039 -4.35421 1.50815 0
M  V30 5711 H 545.354 -3.9836 1.21237 0
M  V30 5712 H 547.951 -5.18789 -1.2947 0
M  V30 5713 H 548.294 -3.63817 -2.02343 0
M  V30 5714 H 548.827 -3.96205 -0.355817 0
M  V30 5715 H 545.566 -6.40903 1.37565 0
M  V30 5716 H 545.086 -5.99122 -0.285193 0
M  V30 5717 H 546.765 -6.46965 0.0675067 0
M  V30 5718 N 546.897 -0.0685191 -1.57451 0
M  V30 5719 C 547.829 0.929372 -2.09512 0
M  V30 5720 C 548.842 1.26354 -1.02657 0
M  V30 5721 O 550.031 1.2213 -1.30179 0
M  V30 5722 C 547.131 2.24612 -2.53777 0
M  V30 5723 C 546.304 2.09128 -3.84167 0
M  V30 5724 C 545.363 3.24079 -4.14559 0
M  V30 5725 O 544.389 2.99215 -4.8421 0
M  V30 5726 N 545.591 4.49077 -3.67845 0
M  V30 5727 H 548.356 0.484901 -2.95751 0
M  V30 5728 H 545.917 0.11729 -1.61475 0
M  V30 5729 H 547.909 3.00412 -2.71172 0
M  V30 5730 H 546.479 2.60569 -1.72692 0
M  V30 5731 H 545.699 1.17815 -3.76182 0
M  V30 5732 H 546.987 1.9603 -4.69521 0
M  V30 5733 H 546.385 4.72165 -3.11571 0
M  V30 5734 H 544.942 5.21915 -3.90446 0
M  V30 5735 N 548.375 1.56261 0.205012 0
M  V30 5736 C 549.621 1.80306 0.9283 0
M  V30 5737 C 549.954 0.640932 1.83319 0
M  V30 5738 O 549.229 -0.359032 1.91158 0
M  V30 5739 C 549.512 3.14547 1.75306 0
M  V30 5740 C 549.365 4.41236 0.873562 0
M  V30 5741 C 550.684 3.45382 2.72762 0
M  V30 5742 H 547.803 0.655929 0.336044 0
M  V30 5743 H 550.445 1.88984 0.196211 0
M  V30 5744 H 548.595 3.0728 2.37721 0
M  V30 5745 H 550.267 4.60539 0.264887 0
M  V30 5746 H 548.51 4.33427 0.179773 0
M  V30 5747 H 549.181 5.31639 1.48541 0
M  V30 5748 H 551.657 3.52884 2.20481 0
M  V30 5749 H 550.533 4.40449 3.2756 0
M  V30 5750 H 550.794 2.68377 3.51321 0
M  V30 5751 N 549.853 -0.472356 1.50355 0
M  V30 5752 C 551.102 -1.2213 1.60522 0
M  V30 5753 C 551.415 -1.9312 0.310466 0
M  V30 5754 O 552.621 -2.69936 0.291029 0
M  V30 5755 C 551.077 -2.21909 2.83345 0
M  V30 5756 C 550.685 -1.56727 4.19691 0
M  V30 5757 C 552.429 -2.97453 3.02856 0
M  V30 5758 C 550.336 -2.54785 5.33703 0
M  V30 5759 H 549.266 -0.459543 0.597776 0
M  V30 5760 H 551.917 -0.491922 1.76783 0
M  V30 5761 H 550.299 -2.98133 2.60639 0
M  V30 5762 H 551.473 -0.863007 4.52646 0
M  V30 5763 H 549.788 -0.934685 4.05774 0
M  V30 5764 H 552.385 -3.70838 3.85205 0
M  V30 5765 H 552.728 -3.56764 2.14534 0
M  V30 5766 H 553.261 -2.28342 3.25737 0
M  V30 5767 H 550 -2.00214 6.24175 0
M  V30 5768 H 549.52 -3.23367 5.05167 0
M  V30 5769 H 551.199 -3.16639 5.64224 0
M  V30 5770 N 551.331 -1.39911 -0.725443 0
M  V30 5771 C 552.579 -1.37382 -1.48224 0
M  V30 5772 C 552.9 0.0264107 -1.94982 0
M  V30 5773 O 552.17 0.979408 -1.6966 0
M  V30 5774 H 550.75 -0.505596 -0.549892 0
M  V30 5775 H 553.412 -1.7487 -0.860608 0
M  V30 5776 H 552.508 -2.04254 -2.3598 0
M  V30 5777 N 552.809 0.956637 -1.25245 0
M  V30 5778 C 554.034 1.74104 -1.12706 0
M  V30 5779 C 554.459 1.85436 0.315429 0
M  V30 5780 O 553.817 1.33334 1.22848 0
M  V30 5781 C 553.865 3.1338 -1.78396 0
M  V30 5782 O 552.969 3.98485 -1.06224 0
M  V30 5783 H 552.31 0.53476 -0.393609 0
M  V30 5784 H 554.84 1.19924 -1.65769 0
M  V30 5785 H 554.85 3.6385 -1.846 0
M  V30 5786 H 553.525 3.04448 -2.83345 0
M  V30 5787 H 552.102 3.56952 -1.07886 0
M  V30 5788 N 554.287 1.06798 1.15896 0
M  V30 5789 C 555.535 0.786211 1.8618 0
M  V30 5790 C 555.856 -0.689547 1.82401 0
M  V30 5791 O 555.126 -1.49913 1.26107 0
M  V30 5792 H 553.706 0.287843 0.689315 0
M  V30 5793 H 556.368 1.35055 1.40521 0
M  V30 5794 H 555.464 1.1157 2.91477 0
M  V30 5795 N 555.766 -1.3263 0.851289 0
M  V30 5796 C 557.015 -1.96633 0.449267 0
M  V30 5797 C 557.328 -1.68131 -0.999562 0
M  V30 5798 O 558.534 -2.25845 -1.50685 0
M  V30 5799 C 556.99 -3.51946 0.752446 0
M  V30 5800 C 556.598 -3.89311 2.21678 0
M  V30 5801 C 558.342 -4.22437 0.417983 0
M  V30 5802 C 556.249 -5.37655 2.46336 0
M  V30 5803 H 555.179 -0.735888 0.164269 0
M  V30 5804 H 557.83 -1.51073 1.0416 0
M  V30 5805 H 556.212 -3.95899 0.0895858 0
M  V30 5806 H 557.386 -3.56378 2.92115 0
M  V30 5807 H 555.701 -3.31836 2.51543 0
M  V30 5808 H 558.298 -5.31549 0.579674 0
M  V30 5809 H 558.641 -4.11349 -0.640115 0
M  V30 5810 H 559.174 -3.84057 1.03659 0
M  V30 5811 H 555.913 -5.5376 3.50757 0
M  V30 5812 H 555.433 -5.72005 1.80473 0
M  V30 5813 H 557.112 -6.04695 2.30115 0
M  V30 5814 N 557.244 -0.608902 -1.45362 0
M  V30 5815 C 558.174 0.0964526 -2.33301 0
M  V30 5816 C 559.155 0.857444 -1.46908 0
M  V30 5817 O 560.34 0.827735 -1.75676 0
M  V30 5818 C 557.47 1.09354 -3.29635 0
M  V30 5819 C 556.424 0.445676 -4.25673 0
M  V30 5820 C 555.75 1.5511 -5.11708 0
M  V30 5821 C 557.05 -0.633972 -5.18438 0
M  V30 5822 H 558.744 -0.637829 -2.92527 0
M  V30 5823 H 556.29 -0.308178 -1.40664 0
M  V30 5824 H 558.243 1.59556 -3.90025 0
M  V30 5825 H 556.967 1.85843 -2.6857 0
M  V30 5826 H 555.626 -0.0354897 -3.66583 0
M  V30 5827 H 555.274 2.30631 -4.4701 0
M  V30 5828 H 554.974 1.12311 -5.76767 0
M  V30 5829 H 556.498 2.05537 -5.74967 0
M  V30 5830 H 557.912 -0.215974 -5.72893 0
M  V30 5831 H 556.309 -0.983789 -5.91981 0
M  V30 5832 H 557.379 -1.51005 -4.60788 0
M  V30 5833 N 558.722 1.53707 -0.348139 0
M  V30 5834 C 560.138 1.596 0.00361134 0
M  V30 5835 C 560.338 1.36394 1.4832 0
M  V30 5836 O 559.394 1.16046 2.24253 0
M  V30 5837 C 560.707 2.97512 -0.436682 0
M  V30 5838 C 562.255 3.10568 -0.389416 0
M  V30 5839 C 562.73 4.50866 -0.805249 0
M  V30 5840 N 564.221 4.56929 -0.759616 0
M  V30 5841 C 564.956 5.63643 -1.05327 0
M  V30 5842 N 564.452 6.78189 -1.41531 0
M  V30 5843 N 566.245 5.5354 -0.977207 0
M  V30 5844 H 558.396 1.67044 -1.31187 0
M  V30 5845 H 560.659 0.782559 -0.535075 0
M  V30 5846 H 560.365 3.19575 -1.46849 0
M  V30 5847 H 560.239 3.76742 0.185744 0
M  V30 5848 H 562.626 2.88226 0.633228 0
M  V30 5849 H 562.707 2.33387 -1.04711 0
M  V30 5850 H 562.351 4.73943 -1.82593 0
M  V30 5851 H 562.281 5.26452 -0.124989 0
M  V30 5852 H 564.772 3.74675 -0.49265 0
M  V30 5853 H 565.085 7.55541 -1.62411 0
M  V30 5854 H 563.43 6.79624 -1.45381 0
M  V30 5855 H 566.621 4.62932 -0.693675 0
M  V30 5856 H 566.794 6.36614 -1.2094 0
M  V30 5857 N 560.2 0.0768682 1.57412 0
M  V30 5858 C 561.448 -0.589918 1.93299 0
M  V30 5859 C 561.769 -1.69842 0.958049 0
M  V30 5860 O 561.039 -1.95899 0.00703261 0
M  V30 5861 H 559.619 -0.220901 0.713591 0
M  V30 5862 H 562.281 0.135917 1.94425 0
M  V30 5863 H 561.377 -1.01195 2.95239 0
M  V30 5864 N 561.678 -1.56367 -0.196722 0
M  V30 5865 C 562.908 -1.84371 -0.932254 0
M  V30 5866 C 563.316 -0.657013 -1.77426 0
M  V30 5867 O 562.659 0.383576 -1.79651 0
M  V30 5868 C 562.721 -3.06454 -1.87952 0
M  V30 5869 C 562.385 -4.40425 -1.21962 0
M  V30 5870 C 563.382 -5.16457 -0.597343 0
M  V30 5871 C 561.067 -4.8716 -1.22396 0
M  V30 5872 C 563.061 -6.37399 0.0117913 0
M  V30 5873 C 560.748 -6.08038 -0.610995 0
M  V30 5874 C 561.746 -6.83 0.00580487 0
M  V30 5875 O 561.434 -8.01589 0.609173 0
M  V30 5876 H 561.166 -0.616377 -0.277589 0
M  V30 5877 H 563.72 -2.04329 -0.209452 0
M  V30 5878 H 561.95 -2.82377 -2.64197 0
M  V30 5879 H 563.639 -3.21118 -2.48271 0
M  V30 5880 H 564.405 -4.81445 -0.586142 0
M  V30 5881 H 560.284 -4.2877 -1.69345 0
M  V30 5882 H 563.828 -6.9585 0.493836 0
M  V30 5883 H 559.725 -6.42519 -0.619693 0
M  V30 5884 H 560.493 -8.16935 0.505919 0
M  V30 5885 N 563.156 0.464375 -1.50603 0
M  V30 5886 C 564.103 1.56152 -1.69956 0
M  V30 5887 C 565.073 1.57046 -0.54091 0
M  V30 5888 O 566.258 1.74473 -0.772258 0
M  V30 5889 C 563.398 2.94079 -1.80586 0
M  V30 5890 C 562.511 3.02923 -3.07996 0
M  V30 5891 C 561.646 4.31806 -3.09382 0
M  V30 5892 C 560.685 4.34417 -4.31218 0
M  V30 5893 N 559.822 5.54782 -4.30304 0
M  V30 5894 H 564.662 1.38955 -2.6362 0
M  V30 5895 H 562.199 0.675482 -1.30674 0
M  V30 5896 H 564.157 3.74073 -1.8473 0
M  V30 5897 H 562.787 3.09896 -0.903556 0
M  V30 5898 H 561.839 2.1576 -3.13292 0
M  V30 5899 H 563.151 3.00712 -3.97962 0
M  V30 5900 H 562.305 5.20153 -3.12292 0
M  V30 5901 H 561.044 4.36636 -2.17257 0
M  V30 5902 H 560.049 3.44467 -4.28512 0
M  V30 5903 H 561.274 4.31273 -5.24576 0
M  V30 5904 H 559.22 5.60384 -3.41037 0
M  V30 5905 H 559.137 5.54339 -5.14047 0
M  V30 5906 H 560.405 6.45235 -4.3737 0
M  V30 5907 N 564.634 1.40294 0.718013 0
M  V30 5908 C 565.911 1.2894 1.47084 0
M  V30 5909 C 566.291 -0.0933625 2.10893 0
M  V30 5910 O 565.639 -1.10598 1.99951 0
M  V30 5911 C 565.849 2.4264 2.50852 0
M  V30 5912 C 567.197 2.8276 3.16752 0
M  V30 5913 O 568.221 2.42215 2.61171 0
M  V30 5914 O 567.08 3.528 4.17366 0
M  V30 5915 H 564.174 0.506236 0.653952 0
M  V30 5916 H 566.72 1.52208 0.750394 0
M  V30 5917 H 565.492 3.35009 2.022 0
M  V30 5918 H 565.115 2.21129 3.30435 0
M  V30 5919 N 566.112 -0.949982 1.2575 0
M  V30 5920 C 567.34 -1.72972 1.13527 0
M  V30 5921 C 567.755 -1.8623 -0.310453 0
M  V30 5922 O 567.112 -1.36336 -1.2132 0
M  V30 5923 C 567.163 -3.14108 1.78936 0
M  V30 5924 O 566.884 -3.01493 3.17858 0
M  V30 5925 C 568.385 -4.08338 1.72554 0
M  V30 5926 H 565.605 -0.541864 0.395758 0
M  V30 5927 H 568.149 -1.19151 1.66202 0
M  V30 5928 H 566.304 -3.64858 1.30221 0
M  V30 5929 H 566.718 -3.90559 3.50092 0
M  V30 5930 H 568.192 -5.04963 2.22973 0
M  V30 5931 H 568.669 -4.33742 0.690251 0
M  V30 5932 H 569.275 -3.63506 2.2078 0
M  V30 5933 N 567.59 -1.07411 -1.15328 0
M  V30 5934 C 569.006 -0.799759 -1.38116 0
M  V30 5935 C 569.206 0.59572 -1.92493 0
M  V30 5936 O 568.262 1.35433 -2.13106 0
M  V30 5937 C 569.575 -1.87407 -2.35158 0
M  V30 5938 C 571.123 -1.89889 -2.48819 0
M  V30 5939 C 571.598 -2.96406 -3.49153 0
M  V30 5940 N 573.089 -2.95512 -3.56689 0
M  V30 5941 C 573.824 -3.74575 -4.34144 0
M  V30 5942 N 573.32 -4.63488 -5.14928 0
M  V30 5943 N 575.113 -3.62919 -4.29239 0
M  V30 5944 H 567.264 -1.97411 -0.78374 0
M  V30 5945 H 569.527 -0.856113 -0.407154 0
M  V30 5946 H 569.233 -2.8768 -2.0232 0
M  V30 5947 H 569.107 -1.73471 -3.34944 0
M  V30 5948 H 571.494 -0.902677 -2.80955 0
M  V30 5949 H 571.575 -2.07904 -1.49029 0
M  V30 5950 H 571.219 -3.96227 -3.17752 0
M  V30 5951 H 571.149 -2.75638 -4.48699 0
M  V30 5952 H 573.64 -2.31061 -2.99031 0
M  V30 5953 H 573.953 -5.20445 -5.71276 0
M  V30 5954 H 572.298 -4.67537 -5.14232 0
M  V30 5955 H 575.489 -2.92833 -3.65194 0
M  V30 5956 H 575.662 -4.24777 -4.89355 0
M  V30 5957 N 569.068 1.32177 -0.85831 0
M  V30 5958 C 570.293 2.01847 -0.476718 0
M  V30 5959 C 570.718 1.64065 0.920021 0
M  V30 5960 O 570.076 0.843189 1.60499 0
M  V30 5961 C 570.124 3.55097 -0.627578 0
M  V30 5962 O 569.228 4.11012 0.338086 0
M  V30 5963 H 568.569 0.635907 -0.191099 0
M  V30 5964 H 571.099 1.68641 -1.15851 0
M  V30 5965 H 571.109 4.04718 -0.516476 0
M  V30 5966 H 569.784 3.81938 -1.64609 0
M  V30 5967 H 568.361 3.72451 0.182917 0
M  V30 5968 N 570.547 0.616602 1.45037 0
M  V30 5969 C 571.796 0.112861 2.01384 0
M  V30 5970 C 572.109 -1.26758 1.48969 0
M  V30 5971 O 573.315 -1.86454 1.9735 0
M  V30 5972 C 571.771 0.151057 3.59583 0
M  V30 5973 C 571.379 1.53191 4.20995 0
M  V30 5974 C 573.123 -0.296974 4.2346 0
M  V30 5975 C 571.03 1.526 5.71373 0
M  V30 5976 H 569.96 0.0384254 0.75302 0
M  V30 5977 H 572.611 0.773262 1.66412 0
M  V30 5978 H 570.993 -0.57617 3.91786 0
M  V30 5979 H 572.167 2.28156 4.00352 0
M  V30 5980 H 570.482 1.92279 3.69348 0
M  V30 5981 H 573.079 -0.320712 5.33737 0
M  V30 5982 H 573.422 -1.32145 3.9477 0
M  V30 5983 H 573.955 0.377279 3.96007 0
M  V30 5984 H 570.694 2.52837 6.04776 0
M  V30 5985 H 570.214 0.819064 5.94181 0
M  V30 5986 H 571.893 1.25357 6.3474 0
M  V30 5987 N 572.025 -1.5352 0.356285 0
M  V30 5988 C 573.272 -2.01117 -0.236303 0
M  V30 5989 C 573.6 -1.24381 -1.49531 0
M  V30 5990 O 572.855 -0.323057 -1.93015 0
M  V30 5991 C 573.154 -3.52607 -0.583369 0
M  V30 5992 C 572.82 -4.47151 0.58023 0
M  V30 5993 C 571.482 -4.72718 0.899528 0
M  V30 5994 C 573.834 -5.03137 1.36024 0
M  V30 5995 C 571.162 -5.51523 2.00098 0
M  V30 5996 C 573.514 -5.83145 2.45204 0
M  V30 5997 C 572.178 -6.07001 2.77679 0
M  V30 5998 H 571.448 -0.735938 -0.0864695 0
M  V30 5999 H 574.095 -1.85209 0.48683 0
M  V30 6000 H 572.4 -3.66413 -1.38739 0
M  V30 6001 H 574.097 -3.86901 -1.05397 0
M  V30 6002 H 570.687 -4.27394 0.321322 0
M  V30 6003 H 574.871 -4.83339 1.12682 0
M  V30 6004 H 570.127 -5.68229 2.25668 0
M  V30 6005 H 574.301 -6.25537 3.06067 0
M  V30 6006 H 571.928 -6.67851 3.63151 0
M  V30 6007 N 573.503 -0.0852151 -1.57369 0
M  V30 6008 C 574.733 0.588605 -1.98038 0
M  V30 6009 C 575.141 1.62869 -0.962817 0
M  V30 6010 O 574.484 1.83611 0.057134 0
M  V30 6011 C 574.546 1.30303 -3.35054 0
M  V30 6012 C 574.21 0.414855 -4.55113 0
M  V30 6013 C 575.207 -0.333011 -5.18832 0
M  V30 6014 C 572.892 0.335804 -5.01176 0
M  V30 6015 C 574.886 -1.14801 -6.26976 0
M  V30 6016 C 572.573 -0.482857 -6.09189 0
M  V30 6017 C 573.571 -1.22342 -6.71953 0
M  V30 6018 O 573.259 -2.02855 -7.77885 0
M  V30 6019 H 572.991 0.163249 -0.655992 0
M  V30 6020 H 575.545 -0.1582 -2.0479 0
M  V30 6021 H 573.775 2.0962 -3.24956 0
M  V30 6022 H 575.464 1.87041 -3.60237 0
M  V30 6023 H 576.23 -0.281611 -4.84182 0
M  V30 6024 H 572.109 0.901869 -4.52092 0
M  V30 6025 H 575.653 -1.72654 -6.75897 0
M  V30 6026 H 571.55 -0.535773 -6.43273 0
M  V30 6027 H 572.318 -1.95432 -7.94826 0
M  V30 6028 N 574.981 1.5647 0.188427 0
M  V30 6029 C 576.23 1.80207 0.905995 0
M  V30 6030 C 576.543 0.659579 1.84144 0
M  V30 6031 O 577.749 0.781431 2.60011 0
M  V30 6032 C 576.205 3.19255 1.66145 0
M  V30 6033 C 575.813 4.41324 0.770504 0
M  V30 6034 C 577.557 3.52298 2.36826 0
M  V30 6035 C 575.464 5.71394 1.52521 0
M  V30 6036 H 574.394 0.671953 0.342045 0
M  V30 6037 H 577.045 1.82808 0.159164 0
M  V30 6038 H 575.427 3.10922 2.45242 0
M  V30 6039 H 576.601 4.60797 0.0177261 0
M  V30 6040 H 574.916 4.16035 0.174199 0
M  V30 6041 H 577.513 4.46715 2.93854 0
M  V30 6042 H 577.856 2.76359 3.11338 0
M  V30 6043 H 578.389 3.62108 1.6469 0
M  V30 6044 H 575.128 6.50316 0.82275 0
M  V30 6045 H 574.648 5.55928 2.25175 0
M  V30 6046 H 576.327 6.12747 2.07725 0
M  V30 6047 N 576.459 -0.456382 1.50847 0
M  V30 6048 C 577.687 -1.23026 1.66349 0
M  V30 6049 C 578.102 -1.85473 0.352868 0
M  V30 6050 O 577.459 -1.69885 -0.666739 0
M  V30 6051 C 577.51 -2.32827 2.76539 0
M  V30 6052 O 577.231 -1.72938 4.02522 0
M  V30 6053 C 578.732 -3.23448 3.03144 0
M  V30 6054 H 575.952 -0.371527 0.558756 0
M  V30 6055 H 578.496 -0.543082 1.97157 0
M  V30 6056 H 576.651 -2.97294 2.48384 0
M  V30 6057 H 577.065 -2.45357 4.63573 0
M  V30 6058 H 578.539 -3.96669 3.83872 0
M  V30 6059 H 579.016 -3.83094 2.14793 0
M  V30 6060 H 579.622 -2.64702 3.32886 0
M  V30 6061 N 577.937 -1.40673 -0.710563 0
M  V30 6062 C 579.184 -1.39222 -1.47049 0
M  V30 6063 C 579.512 0.0037691 -1.945 0
M  V30 6064 O 578.767 0.989224 -1.68857 0
M  V30 6065 C 579.066 -2.33253 -2.70791 0
M  V30 6066 C 578.732 -3.80406 -2.42079 0
M  V30 6067 C 577.394 -4.20496 -2.33959 0
M  V30 6068 C 579.746 -4.73375 -2.18094 0
M  V30 6069 C 577.074 -5.51584 -1.99929 0
M  V30 6070 C 579.426 -6.04768 -1.85576 0
M  V30 6071 C 578.09 -6.43895 -1.75941 0
M  V30 6072 H 577.36 -0.509449 -0.538092 0
M  V30 6073 H 580.007 -1.73363 -0.81348 0
M  V30 6074 H 578.312 -1.92314 -3.41354 0
M  V30 6075 H 580.009 -2.29412 -3.28894 0
M  V30 6076 H 576.599 -3.48645 -2.49288 0
M  V30 6077 H 580.783 -4.43217 -2.23321 0
M  V30 6078 H 576.039 -5.80797 -1.91011 0
M  V30 6079 H 580.213 -6.76318 -1.66033 0
M  V30 6080 H 577.84 -7.45387 -1.4934 0
M  V30 6081 N 579.415 0.9433 -1.26252 0
M  V30 6082 C 580.643 1.72367 -1.14443 0
M  V30 6083 C 581.058 1.86392 0.300572 0
M  V30 6084 O 580.415 1.36978 1.20596 0
M  V30 6085 C 580.466 3.13155 -1.806 0
M  V30 6086 O 580.187 2.99803 -3.19452 0
M  V30 6087 C 581.688 4.07417 -1.74717 0
M  V30 6088 H 578.908 0.539758 -0.398626 0
M  V30 6089 H 581.452 1.18268 -1.66832 0
M  V30 6090 H 579.607 3.64162 -1.32154 0
M  V30 6091 H 580.021 3.88697 -3.52158 0
M  V30 6092 H 581.495 5.03773 -2.25647 0
M  V30 6093 H 581.972 4.3337 -0.713244 0
M  V30 6094 H 582.578 3.6233 -2.22704 0
M  V30 6095 N 580.893 1.08022 1.14757 0
M  V30 6096 C 581.856 0.71048 2.1791 0
M  V30 6097 C 582.856 -0.252731 1.58801 0
M  V30 6098 O 584.046 -0.0327915 1.74169 0
M  V30 6099 C 581.178 0.0483203 3.40866 0
M  V30 6100 H 582.371 1.62384 2.52134 0
M  V30 6101 H 579.924 0.877595 1.29337 0
M  V30 6102 H 580.659 -0.876959 3.12218 0
M  V30 6103 H 580.444 0.741189 3.85031 0
M  V30 6104 H 581.934 -0.195471 4.17142 0
M  V30 6105 N 582.371 -1.3172 0.865308 0
M  V30 6106 C 583.601 -2.00765 0.487543 0
M  V30 6107 C 584.009 -1.65145 -0.92325 0
M  V30 6108 O 583.352 -0.874294 -1.61561 0
M  V30 6109 C 583.414 -3.55122 0.559369 0
M  V30 6110 C 583.078 -4.14202 1.93095 0
M  V30 6111 C 584.075 -4.3165 2.89784 0
M  V30 6112 C 581.76 -4.50036 2.23099 0
M  V30 6113 C 583.754 -4.84114 4.14623 0
M  V30 6114 C 581.441 -5.02203 3.48189 0
M  V30 6115 C 582.439 -5.19192 4.43767 0
M  V30 6116 O 582.127 -5.70241 5.6664 0
M  V30 6117 H 581.859 -0.649066 0.188915 0
M  V30 6118 H 584.413 -1.69032 1.16694 0
M  V30 6119 H 582.643 -3.86295 -0.176926 0
M  V30 6120 H 584.332 -4.05428 0.195694 0
M  V30 6121 H 585.098 -4.04288 2.6791 0
M  V30 6122 H 580.977 -4.36091 1.49485 0
M  V30 6123 H 584.521 -4.9729 4.89233 0
M  V30 6124 H 580.418 -5.28997 3.69908 0
M  V30 6125 H 581.186 -5.88617 5.68746 0
M  V30 6126 N 583.85 -0.624285 -1.44708 0
M  V30 6127 C 585.096 -0.13473 -2.02953 0
M  V30 6128 C 585.451 1.22724 -1.48178 0
M  V30 6129 O 584.744 1.80109 -0.653542 0
M  V30 6130 C 584.938 -0.0546353 -3.57358 0
M  V30 6131 C 584.767 -1.40729 -4.27113 0
M  V30 6132 C 583.537 -1.99231 -4.64365 0
M  V30 6133 C 585.735 -2.33968 -4.58 0
M  V30 6134 N 583.716 -3.27803 -5.19055 0
M  V30 6135 C 585.088 -3.47149 -5.137 0
M  V30 6136 C 587.143 -2.33132 -4.39948 0
M  V30 6137 C 585.846 -4.59682 -5.53249 0
M  V30 6138 C 587.872 -3.44724 -4.8054 0
M  V30 6139 C 587.234 -4.56629 -5.36348 0
M  V30 6140 H 583.332 -0.0930617 -0.776443 0
M  V30 6141 H 585.917 -0.826286 -1.76297 0
M  V30 6142 H 584.088 0.606183 -3.8364 0
M  V30 6143 H 585.82 0.443116 -4.02267 0
M  V30 6144 H 582.575 -1.52251 -4.4846 0
M  V30 6145 H 582.999 -3.93519 -5.50883 0
M  V30 6146 H 587.641 -1.47868 -3.961 0
M  V30 6147 H 585.359 -5.4566 -5.96054 0
M  V30 6148 H 588.945 -3.45245 -4.68291 0
M  V30 6149 H 587.825 -5.41551 -5.67179 0
M  V30 6150 N 585.328 1.53329 -0.364422 0
M  V30 6151 C 586.574 2.01537 0.225969 0
M  V30 6152 C 586.907 1.25128 1.48515 0
M  V30 6153 O 586.182 0.344653 1.91422 0
M  V30 6154 C 586.465 3.56339 0.519092 0
M  V30 6155 C 586.318 4.43441 -0.753639 0
M  V30 6156 C 587.637 4.19833 1.32015 0
M  V30 6157 H 584.756 0.732573 0.0806548 0
M  V30 6158 H 587.398 1.83597 -0.489084 0
M  V30 6159 H 585.548 3.71756 1.12825 0
M  V30 6160 H 587.22 4.39823 -1.39116 0
M  V30 6161 H 585.463 4.11457 -1.37424 0
M  V30 6162 H 586.134 5.49699 -0.503517 0
M  V30 6163 H 588.61 4.08242 0.804859 0
M  V30 6164 H 587.486 5.28177 1.49399 0
M  V30 6165 H 587.747 3.75821 2.32832 0
M  V30 6166 N 586.806 0.0935595 1.57322 0
M  V30 6167 C 587.736 -0.863062 2.16964 0
M  V30 6168 C 588.717 -1.29528 1.10256 0
M  V30 6169 O 589.902 -1.36245 1.38387 0
M  V30 6170 C 587.032 -2.12276 2.74875 0
M  V30 6171 C 585.986 -1.82921 3.86942 0
M  V30 6172 C 585.312 -3.15707 4.31548 0
M  V30 6173 C 586.612 -1.11737 5.10208 0
M  V30 6174 H 588.306 -0.366145 2.97153 0
M  V30 6175 H 585.852 -0.174673 1.42937 0
M  V30 6176 H 587.805 -2.79634 3.1525 0
M  V30 6177 H 586.529 -2.64248 1.91938 0
M  V30 6178 H 585.188 -1.17961 3.47103 0
M  V30 6179 H 584.836 -3.65563 3.45504 0
M  V30 6180 H 584.536 -2.96849 5.07104 0
M  V30 6181 H 586.06 -3.84226 4.74555 0
M  V30 6182 H 587.474 -1.69203 5.47762 0
M  V30 6183 H 585.871 -1.03064 5.91183 0
M  V30 6184 H 586.941 -0.0998818 4.84797 0
M  V30 6185 N 588.284 -1.56567 -0.180126 0
M  V30 6186 C 589.532 -1.81133 -0.896392 0
M  V30 6187 C 589.853 -0.669114 -1.83161 0
M  V30 6188 O 589.123 0.311616 -1.93406 0
M  V30 6189 H 587.703 -0.668172 -0.333999 0
M  V30 6190 H 590.365 -1.94048 -0.182051 0
M  V30 6191 H 589.461 -2.74854 -1.47857 0
M  V30 6192 N 589.762 0.448376 -1.51087 0
M  V30 6193 C 590.692 1.55102 -1.74544 0
M  V30 6194 C 591.673 1.59357 -0.594932 0
M  V30 6195 O 592.858 1.75261 -0.836491 0
M  V30 6196 C 589.988 2.93268 -1.86041 0
M  V30 6197 C 588.942 3.03877 -3.01402 0
M  V30 6198 C 588.268 4.43914 -2.98068 0
M  V30 6199 C 589.568 2.7898 -4.41551 0
M  V30 6200 H 591.262 1.35724 -2.66869 0
M  V30 6201 H 588.808 0.651498 -1.28419 0
M  V30 6202 H 590.761 3.70356 -2.01034 0
M  V30 6203 H 589.485 3.13853 -0.903548 0
M  V30 6204 H 588.144 2.29227 -2.86096 0
M  V30 6205 H 587.792 4.6145 -2.00182 0
M  V30 6206 H 587.492 4.51944 -3.75527 0
M  V30 6207 H 589.016 5.22991 -3.1514 0
M  V30 6208 H 590.43 3.45805 -4.57265 0
M  V30 6209 H 588.827 2.98431 -5.20633 0
M  V30 6210 H 589.897 1.74663 -4.5235 0
M  V30 6211 N 591.24 1.41047 0.703093 0
M  V30 6212 C 592.651 1.35657 1.28274 0
M  V30 6213 C 593.002 0.0360309 1.96167 0
M  V30 6214 O 592.127 -0.865833 1.98324 0
M  V30 6215 C 592.722 2.45707 2.33267 0
M  V30 6216 C 591.281 2.43738 2.86825 0
M  V30 6217 C 590.428 2.25941 1.60767 0
M  V30 6218 H 593.379 1.50672 0.49836 0
M  V30 6219 H 593.4 2.14333 3.14391 0
M  V30 6220 H 592.912 3.41805 1.83824 0
M  V30 6221 H 591.013 1.51375 3.40465 0
M  V30 6222 H 591.126 3.39779 3.37768 0
M  V30 6223 H 589.49 1.73681 1.86298 0
M  V30 6224 H 590.273 3.24054 1.1333 0
M  V30 6225 N 592.718 -0.936591 1.26751 0
M  V30 6226 C 593.943 -1.72288 1.15462 0
M  V30 6227 C 594.368 -1.85915 -0.285887 0
M  V30 6228 O 593.726 -1.35272 -1.20711 0
M  V30 6229 C 593.774 -3.10503 1.83359 0
M  V30 6230 O 592.878 -3.96745 1.1255 0
M  V30 6231 H 592.219 -0.52843 0.402067 0
M  V30 6232 H 594.749 -1.17271 1.67656 0
M  V30 6233 H 594.759 -3.60867 1.90365 0
M  V30 6234 H 593.434 -2.99901 2.88153 0
M  V30 6235 H 592.011 -3.55191 1.13551 0
M  V30 6236 N 594.196 -1.08629 -1.14182 0
M  V30 6237 C 595.444 -0.815731 -1.84906 0
M  V30 6238 C 595.765 0.660441 -1.83475 0
M  V30 6239 O 595.035 1.47888 -1.28476 0
M  V30 6240 H 593.615 -0.298773 -0.684648 0
M  V30 6241 H 596.277 -1.37274 -1.38354 0
M  V30 6242 H 595.373 -1.16193 -2.89665 0
M  V30 6243 N 595.674 1.31259 -0.872281 0
M  V30 6244 C 596.904 2.00504 -0.498183 0
M  V30 6245 C 597.312 1.65632 0.914479 0
M  V30 6246 O 596.655 0.882849 1.61095 0
M  V30 6247 C 596.717 3.5482 -0.578194 0
M  V30 6248 C 596.381 4.13172 -1.95289 0
M  V30 6249 C 597.378 4.30107 -2.92069 0
M  V30 6250 C 595.063 4.48846 -2.25483 0
M  V30 6251 C 597.057 4.81908 -4.17185 0
M  V30 6252 C 594.744 5.00349 -3.50847 0
M  V30 6253 C 595.742 5.16831 -4.46514 0
M  V30 6254 O 595.43 5.67228 -5.69656 0
M  V30 6255 H 595.162 0.648055 -0.192354 0
M  V30 6256 H 597.716 1.6841 -1.17589 0
M  V30 6257 H 595.946 3.86383 0.156438 0
M  V30 6258 H 597.635 4.05318 -0.217192 0
M  V30 6259 H 598.401 4.02862 -2.7005 0
M  V30 6260 H 594.28 4.35292 -1.51795 0
M  V30 6261 H 597.824 4.94688 -4.91863 0
M  V30 6262 H 593.721 5.27028 -3.72708 0
M  V30 6263 H 594.489 5.85592 -5.7186 0
M  V30 6264 N 597.152 0.631951 1.44375 0
M  V30 6265 C 598.401 0.134214 2.01253 0
M  V30 6266 C 598.714 -1.25171 1.50305 0
M  V30 6267 O 599.92 -1.8435 1.99317 0
M  V30 6268 C 598.376 0.189187 3.59402 0
M  V30 6269 C 597.984 1.57647 4.19346 0
M  V30 6270 C 599.728 -0.252044 4.23751 0
M  V30 6271 C 597.635 1.58651 5.69722 0
M  V30 6272 H 596.565 0.0464101 0.75257 0
M  V30 6273 H 599.216 0.790868 1.65582 0
M  V30 6274 H 597.598 -0.534584 3.92375 0
M  V30 6275 H 598.772 2.32389 3.97909 0
M  V30 6276 H 597.087 1.96186 3.67288 0
M  V30 6277 H 599.684 -0.264084 5.34047 0
M  V30 6278 H 600.027 -1.27951 3.96149 0
M  V30 6279 H 600.56 0.41926 3.95584 0
M  V30 6280 H 597.299 2.59237 6.0206 0
M  V30 6281 H 596.819 0.882039 5.93279 0
M  V30 6282 H 598.498 1.32082 6.33375 0
M  V30 6283 N 598.631 -1.53133 0.372548 0
M  V30 6284 C 599.561 -2.28876 -0.462412 0
M  V30 6285 C 600.542 -1.31583 -1.07796 0
M  V30 6286 O 601.727 -1.60461 -1.09389 0
M  V30 6287 C 598.857 -3.08317 -1.59868 0
M  V30 6288 C 597.811 -4.13355 -1.11003 0
M  V30 6289 C 597.137 -4.8092 -2.33708 0
M  V30 6290 C 598.437 -5.21955 -0.18983 0
M  V30 6291 H 600.131 -2.9892 0.169511 0
M  V30 6292 H 597.677 -1.43761 0.0829658 0
M  V30 6293 H 599.63 -3.60055 -2.18949 0
M  V30 6294 H 598.354 -2.35976 -2.25794 0
M  V30 6295 H 597.013 -3.62573 -0.541869 0
M  V30 6296 H 596.661 -4.05144 -2.98106 0
M  V30 6297 H 596.361 -5.51904 -2.01682 0
M  V30 6298 H 597.885 -5.35455 -2.93462 0
M  V30 6299 H 599.299 -5.69153 -0.688319 0
M  V30 6300 H 597.696 -6.00087 0.0398887 0
M  V30 6301 H 598.766 -4.78811 0.766057 0
M  V30 6302 N 600.109 -0.101901 -1.5727 0
M  V30 6303 C 601.072 0.840129 -2.13247 0
M  V30 6304 C 602.072 1.20625 -1.06331 0
M  V30 6305 O 603.262 1.13456 -1.32186 0
M  V30 6306 C 600.394 2.13372 -2.65867 0
M  V30 6307 H 601.587 0.353945 -2.97804 0
M  V30 6308 H 599.14 0.147167 -1.55606 0
M  V30 6309 H 599.875 2.66461 -1.84849 0
M  V30 6310 H 599.66 1.88085 -3.44044 0
M  V30 6311 H 601.15 2.80748 -3.09145 0
M  V30 6312 N 601.587 1.56661 0.17182 0
M  V30 6313 C 602.517 1.99401 1.21498 0
M  V30 6314 C 603.498 0.869516 1.46197 0
M  V30 6315 O 604.683 1.13556 1.57539 0
M  V30 6316 C 601.813 2.35346 2.55401 0
M  V30 6317 C 600.767 3.5075 2.45272 0
M  V30 6318 C 600.093 3.72437 3.8366 0
M  V30 6319 C 601.393 4.84216 1.95787 0
M  V30 6320 H 603.087 2.86792 0.859699 0
M  V30 6321 H 600.633 1.37977 0.412103 0
M  V30 6322 H 602.586 2.63843 3.2858 0
M  V30 6323 H 601.31 1.44864 2.92715 0
M  V30 6324 H 599.969 3.2238 1.74547 0
M  V30 6325 H 599.617 2.79246 4.18367 0
M  V30 6326 H 599.317 4.50087 3.77751 0
M  V30 6327 H 600.841 4.03334 4.58426 0
M  V30 6328 H 602.255 5.11592 2.5874 0
M  V30 6329 H 600.652 5.65498 2.00827 0
M  V30 6330 H 601.722 4.76243 0.912159 0
M  V30 6331 N 603.065 -0.440357 1.51323 0
M  V30 6332 C 604.293 -1.21255 1.67645 0
M  V30 6333 C 604.708 -1.85088 0.37252 0
M  V30 6334 O 604.065 -1.70582 -0.648683 0
M  V30 6335 C 604.116 -2.29881 2.78993 0
M  V30 6336 O 603.837 -1.68659 4.04334 0
M  V30 6337 C 605.338 -3.20214 3.06558 0
M  V30 6338 H 602.558 -0.36558 0.562666 0
M  V30 6339 H 605.102 -0.52214 1.97722 0
M  V30 6340 H 603.257 -2.94643 2.51524 0
M  V30 6341 H 603.671 -2.40426 4.6615 0
M  V30 6342 H 605.145 -3.92575 3.88058 0
M  V30 6343 H 605.622 -3.80794 2.18844 0
M  V30 6344 H 606.228 -2.61156 3.35675 0
M  V30 6345 N 604.543 -1.41418 -0.695603 0
M  V30 6346 C 605.82 -1.31264 -1.45014 0
M  V30 6347 C 606.2 0.0597994 -2.11015 0
M  V30 6348 O 605.548 1.07403 -2.01685 0
M  V30 6349 C 605.758 -2.466 -2.4696 0
M  V30 6350 C 607.106 -2.87763 -3.12214 0
M  V30 6351 O 608.13 -2.46339 -2.57285 0
M  V30 6352 O 606.989 -3.59395 -4.11701 0
M  V30 6353 H 604.083 -0.516576 -0.645816 0
M  V30 6354 H 606.629 -1.53382 -0.726084 0
M  V30 6355 H 605.401 -3.38183 -1.96845 0
M  V30 6356 H 605.024 -2.26358 -3.26876 0
M  V30 6357 N 606.021 0.929856 -1.27246 0
M  V30 6358 C 606.951 2.04722 -1.12299 0
M  V30 6359 C 607.932 1.70082 -0.0250464 0
M  V30 6360 O 609.117 1.93176 -0.199141 0
M  V30 6361 C 606.247 3.38721 -0.767145 0
M  V30 6362 C 605.201 3.87466 -1.81808 0
M  V30 6363 C 604.527 5.18246 -1.31626 0
M  V30 6364 C 605.827 4.11095 -3.22177 0
M  V30 6365 H 607.521 2.17485 -2.05769 0
M  V30 6366 H 605.067 1.04503 -0.990715 0
M  V30 6367 H 607.02 4.16366 -0.649413 0
M  V30 6368 H 605.744 3.25967 0.203259 0
M  V30 6369 H 604.403 3.12012 -1.92468 0
M  V30 6370 H 604.051 5.01881 -0.335378 0
M  V30 6371 H 603.751 5.51829 -2.01887 0
M  V30 6372 H 605.275 5.98462 -1.21143 0
M  V30 6373 H 606.689 4.79316 -3.1453 0
M  V30 6374 H 605.086 4.55982 -3.90129 0
M  V30 6375 H 606.156 3.16468 -3.67391 0
M  V30 6376 N 607.499 1.09233 1.13605 0
M  V30 6377 C 608.745 0.828385 1.8511 0
M  V30 6378 C 609.078 -0.64437 1.83198 0
M  V30 6379 O 608.353 -1.47428 1.26867 0
M  V30 6380 C 608.636 1.36167 3.33363 0
M  V30 6381 C 608.489 2.90038 3.438 0
M  V30 6382 C 609.808 0.993819 4.28732 0
M  V30 6383 H 606.927 0.30239 0.672108 0
M  V30 6384 H 609.569 1.35339 1.33355 0
M  V30 6385 H 607.719 0.9151 3.77569 0
M  V30 6386 H 609.391 3.43128 3.08319 0
M  V30 6387 H 607.634 3.27271 2.84739 0
M  V30 6388 H 608.305 3.22428 4.48045 0
M  V30 6389 H 610.781 1.37893 3.92587 0
M  V30 6390 H 609.657 1.39403 5.30903 0
M  V30 6391 H 609.918 -0.0982206 4.41991 0
M  V30 6392 N 608.977 -1.30795 0.87923 0
M  V30 6393 C 610.223 -1.96653 0.495519 0
M  V30 6394 C 610.556 -1.69282 -0.951703 0
M  V30 6395 O 609.831 -0.994374 -1.6716 0
M  V30 6396 C 610.114 -3.51898 0.764174 0
M  V30 6397 C 609.967 -3.88808 2.2616 0
M  V30 6398 C 611.286 -4.39462 0.236825 0
M  V30 6399 H 608.405 -0.7143 0.181507 0
M  V30 6400 H 611.047 -1.54765 1.10217 0
M  V30 6401 H 609.197 -3.87709 0.247841 0
M  V30 6402 H 610.869 -3.63051 2.8459 0
M  V30 6403 H 609.112 -3.37082 2.73053 0
M  V30 6404 H 609.783 -4.97086 2.4002 0
M  V30 6405 H 612.259 -4.10528 0.678683 0
M  V30 6406 H 611.135 -5.47018 0.454176 0
M  V30 6407 H 611.396 -4.33621 -0.861683 0
M  V30 6408 N 610.455 -0.639598 -1.44038 0
M  V30 6409 C 611.365 0.0612377 -2.3452 0
M  V30 6410 C 612.381 0.826717 -1.53106 0
M  V30 6411 O 613.557 0.777059 -1.85806 0
M  V30 6412 C 610.622 1.02492 -3.31204 0
M  V30 6413 C 609.683 0.25788 -4.28525 0
M  V30 6414 C 608.916 1.17566 -5.2059 0
M  V30 6415 O 609.139 2.41461 -5.16771 0
M  V30 6416 O 608.073 0.655407 -5.98321 0
M  V30 6417 H 611.899 -0.68318 -2.95916 0
M  V30 6418 H 609.484 -0.399784 -1.43952 0
M  V30 6419 H 611.366 1.57911 -3.90694 0
M  V30 6420 H 610.041 1.7498 -2.7233 0
M  V30 6421 H 608.948 -0.339566 -3.72556 0
M  V30 6422 H 610.281 -0.427154 -4.90343 0
M  V30 6423 N 611.933 1.52934 -0.380664 0
M  V30 6424 C 613.344 1.86457 0.0952684 0
M  V30 6425 C 613.695 1.3007 1.46889 0
M  V30 6426 O 612.82 0.628636 2.07068 0
M  V30 6427 C 613.415 3.38323 0.179648 0
M  V30 6428 C 611.974 3.71589 0.599858 0
M  V30 6429 C 611.121 2.76228 -0.243572 0
M  V30 6430 H 614.072 1.46966 -0.59888 0
M  V30 6431 H 614.093 3.67113 1.00042 0
M  V30 6432 H 613.605 3.79333 -0.820228 0
M  V30 6433 H 611.706 3.36144 1.60742 0
M  V30 6434 H 611.819 4.77715 0.364003 0
M  V30 6435 H 610.183 2.53045 0.289855 0
M  V30 6436 H 610.966 3.20074 -1.24127 0
M  V30 6437 N 613.412 0.11024 1.57214 0
M  V30 6438 C 614.345 -0.880224 2.1054 0
M  V30 6439 C 615.323 -1.26658 1.01964 0
M  V30 6440 O 616.507 -1.36917 1.29561 0
M  V30 6441 C 613.634 -2.17676 2.59489 0
M  V30 6442 C 612.68 -1.93914 3.79868 0
M  V30 6443 S 613.513 -1.16336 5.2271 0
M  V30 6444 C 614.669 -2.47188 5.75021 0
M  V30 6445 H 614.902 -0.426614 2.94223 0
M  V30 6446 H 612.435 -0.10336 1.54054 0
M  V30 6447 H 614.393 -2.92175 2.88347 0
M  V30 6448 H 613.054 -2.60156 1.76005 0
M  V30 6449 H 612.247 -2.8996 4.12236 0
M  V30 6450 H 611.849 -1.27539 3.51582 0
M  V30 6451 H 614.141 -3.43079 5.84211 0
M  V30 6452 H 615.084 -2.19377 6.7326 0
M  V30 6453 H 615.492 -2.56154 5.03036 0
M  V30 6454 N 614.89 -1.56749 -0.16351 0
M  V30 6455 C 616.138 -1.82074 -0.87713 0
M  V30 6456 C 616.459 -0.688503 -1.82441 0
M  V30 6457 O 615.729 0.291085 -1.93725 0
M  V30 6458 H 614.309 -0.671677 -0.326893 0
M  V30 6459 H 616.971 -1.9423 -0.161459 0
M  V30 6460 H 616.067 -2.76407 -1.44934 0
M  V30 6461 N 616.368 0.432326 -1.51554 0
M  V30 6462 C 617.779 1.01202 -1.56892 0
M  V30 6463 C 618.13 1.92175 -0.395394 0
M  V30 6464 O 617.255 2.10844 0.487198 0
M  V30 6465 C 617.85 1.84217 -2.8434 0
M  V30 6466 C 616.409 2.37228 -2.92233 0
M  V30 6467 C 615.556 1.16576 -2.51606 0
M  V30 6468 H 618.507 0.213407 -1.57259 0
M  V30 6469 H 618.528 2.69721 -2.68385 0
M  V30 6470 H 618.04 1.17979 -3.69733 0
M  V30 6471 H 616.141 3.06905 -2.11282 0
M  V30 6472 H 616.254 2.69682 -3.95991 0
M  V30 6473 H 614.618 1.51263 -2.04919 0
M  V30 6474 H 615.401 0.519404 -3.39348 0
M  V30 6475 N 617.846 1.41785 0.688094 0
M  V30 6476 C 618.809 1.43936 1.78368 0
M  V30 6477 C 619.809 0.328866 1.57401 0
M  V30 6478 O 620.999 0.589093 1.63937 0
M  V30 6479 C 618.131 1.25804 3.16838 0
M  V30 6480 H 619.324 2.41472 1.77852 0
M  V30 6481 H 616.877 1.28037 0.896448 0
M  V30 6482 H 617.612 0.291386 3.22988 0
M  V30 6483 H 617.397 2.06272 3.33458 0
M  V30 6484 H 618.887 1.30162 3.96797 0
M  V30 6485 N 619.324 -0.923095 1.27737 0
M  V30 6486 C 620.572 -1.66797 1.14119 0
M  V30 6487 C 620.893 -1.92479 -0.312541 0
M  V30 6488 O 620.163 -1.53432 -1.218 0
M  V30 6489 H 618.743 -0.618196 0.419336 0
M  V30 6490 H 621.405 -1.10815 1.60331 0
M  V30 6491 H 620.501 -2.63424 1.67374 0
M  V30 6492 N 620.802 -1.09834 -1.13024 0
M  V30 6493 C 622.049 -0.83695 -1.84395 0
M  V30 6494 C 622.377 0.637463 -1.83757 0
M  V30 6495 O 621.632 1.48554 -1.27398 0
M  V30 6496 C 621.931 -1.32263 -3.32026 0
M  V30 6497 C 621.597 -2.80739 -3.52841 0
M  V30 6498 C 620.259 -3.21286 -3.5823 0
M  V30 6499 C 622.611 -3.76449 -3.60466 0
M  V30 6500 C 619.939 -4.56308 -3.68781 0
M  V30 6501 C 622.291 -5.11266 -3.72546 0
M  V30 6502 C 620.955 -5.51397 -3.76189 0
M  V30 6503 H 620.225 -0.306262 -0.674748 0
M  V30 6504 H 622.872 -1.37385 -1.33408 0
M  V30 6505 H 621.177 -0.705618 -3.85394 0
M  V30 6506 H 622.874 -1.09695 -3.85705 0
M  V30 6507 H 619.464 -2.48363 -3.49305 0
M  V30 6508 H 623.648 -3.46234 -3.55578 0
M  V30 6509 H 618.904 -4.86832 -3.69871 0
M  V30 6510 H 623.078 -5.85279 -3.77388 0
M  V30 6511 H 620.705 -6.56017 -3.84117 0
M  V30 6512 N 622.28 1.30327 -0.886154 0
M  V30 6513 C 623.526 1.96764 -0.515312 0
M  V30 6514 C 623.881 1.68675 0.925552 0
M  V30 6515 O 623.174 0.981693 1.6454 0
M  V30 6516 C 623.368 3.49906 -0.728042 0
M  V30 6517 C 623.197 3.92881 -2.18803 0
M  V30 6518 C 621.967 4.18424 -2.83284 0
M  V30 6519 C 624.165 4.05617 -3.16195 0
M  V30 6520 N 622.147 4.47867 -4.19867 0
M  V30 6521 C 623.518 4.38957 -4.37855 0
M  V30 6522 C 625.573 3.88047 -3.11968 0
M  V30 6523 C 624.276 4.56559 -5.55829 0
M  V30 6524 C 626.302 4.06851 -4.29215 0
M  V30 6525 C 625.664 4.40538 -5.49641 0
M  V30 6526 H 621.763 0.74493 -0.237916 0
M  V30 6527 H 624.347 1.57536 -1.14414 0
M  V30 6528 H 622.518 3.88187 -0.128696 0
M  V30 6529 H 624.25 4.03401 -0.323983 0
M  V30 6530 H 621.005 4.1167 -2.34146 0
M  V30 6531 H 621.429 4.66721 -4.90408 0
M  V30 6532 H 626.071 3.61078 -2.19961 0
M  V30 6533 H 623.789 4.8237 -6.4834 0
M  V30 6534 H 627.375 3.94724 -4.27416 0
M  V30 6535 H 626.255 4.54789 -6.38856 0
M  V30 6536 N 623.758 0.647228 1.43697 0
M  V30 6537 C 625.007 0.155552 2.01099 0
M  V30 6538 C 625.32 -1.23569 1.51624 0
M  V30 6539 O 626.526 -1.82226 2.01261 0
M  V30 6540 C 624.982 0.227296 3.59182 0
M  V30 6541 C 624.59 1.62086 4.17651 0
M  V30 6542 C 626.334 -0.207085 4.23995 0
M  V30 6543 C 624.241 1.64685 5.68008 0
M  V30 6544 H 623.171 0.0543895 0.752036 0
M  V30 6545 H 625.822 0.808386 1.64734 0
M  V30 6546 H 624.204 -0.492937 3.9292 0
M  V30 6547 H 625.378 2.36597 3.95422 0
M  V30 6548 H 623.693 2.0007 3.65186 0
M  V30 6549 H 626.29 -0.207426 5.34298 0
M  V30 6550 H 626.633 -1.23742 3.97484 0
M  V30 6551 H 627.166 0.461193 3.95118 0
M  V30 6552 H 623.905 2.65608 5.99277 0
M  V30 6553 H 623.425 0.944914 5.9231 0
M  V30 6554 H 625.104 1.38792 6.31938 0
M  V30 6555 N 625.236 -1.5273 0.388769 0
M  V30 6556 C 626.484 -2.01174 -0.193208 0
M  V30 6557 C 626.805 -1.27705 -1.47365 0
M  V30 6558 O 626.075 -0.396966 -1.91836 0
M  V30 6559 H 624.655 -0.743287 -0.0743871 0
M  V30 6560 H 627.317 -1.87826 0.520336 0
M  V30 6561 H 626.413 -3.09477 -0.403803 0
M  V30 6562 N 626.714 -0.118576 -1.57153 0
M  V30 6563 C 627.961 0.539526 -1.9518 0
M  V30 6564 C 628.289 1.66714 -1.00184 0
M  V30 6565 O 627.544 1.95683 -0.0256482 0
M  V30 6566 C 627.843 1.11303 -3.39627 0
M  V30 6567 C 627.509 0.106809 -4.50773 0
M  V30 6568 C 626.171 -0.169876 -4.809 0
M  V30 6569 C 628.523 -0.57895 -5.17975 0
M  V30 6570 C 625.851 -1.13861 -5.75545 0
M  V30 6571 C 628.203 -1.53631 -6.13661 0
M  V30 6572 C 626.867 -1.82099 -6.42181 0
M  V30 6573 H 626.137 0.197427 -0.714215 0
M  V30 6574 H 628.784 -0.199391 -1.90459 0
M  V30 6575 H 627.089 1.92869 -3.4104 0
M  V30 6576 H 628.786 1.63032 -3.66363 0
M  V30 6577 H 625.376 0.332645 -4.27307 0
M  V30 6578 H 629.56 -0.378359 -4.94856 0
M  V30 6579 H 624.816 -1.36592 -5.95947 0
M  V30 6580 H 628.99 -2.07337 -6.64819 0
M  V30 6581 H 626.617 -2.57319 -7.15326 0
M  V30 6582 N 628.193 1.56834 0.155195 0
M  V30 6583 C 629.442 1.82088 0.867567 0
M  V30 6584 C 629.755 0.69849 1.82703 0
M  V30 6585 O 630.961 0.836407 2.58295 0
M  V30 6586 C 629.417 3.22707 1.59336 0
M  V30 6587 C 629.025 4.42859 0.676719 0
M  V30 6588 C 630.769 3.57242 2.293 0
M  V30 6589 C 628.676 5.74501 1.40367 0
M  V30 6590 H 627.606 0.679057 0.327715 0
M  V30 6591 H 630.257 1.83105 0.120351 0
M  V30 6592 H 628.639 3.16054 2.38591 0
M  V30 6593 H 629.813 4.60731 -0.0800196 0
M  V30 6594 H 628.128 4.16311 0.0859129 0
M  V30 6595 H 630.725 4.52847 2.84312 0
M  V30 6596 H 631.068 2.82901 3.05406 0
M  V30 6597 H 631.601 3.6552 1.56972 0
M  V30 6598 H 628.34 6.51915 0.684623 0
M  V30 6599 H 627.86 5.60579 2.13332 0
M  V30 6600 H 629.539 6.17016 1.94681 0
M  V30 6601 N 629.671 -0.424282 1.51781 0
M  V30 6602 C 630.92 -1.16961 1.64326 0
M  V30 6603 C 631.233 -1.92035 0.371749 0
M  V30 6604 O 632.439 -2.68873 0.37676 0
M  V30 6605 C 630.895 -2.12782 2.90262 0
M  V30 6606 C 630.503 -1.43295 4.24465 0
M  V30 6607 C 632.247 -2.87667 3.12166 0
M  V30 6608 C 630.154 -2.37676 5.41538 0
M  V30 6609 H 629.084 -0.440293 0.612093 0
M  V30 6610 H 631.735 -0.435431 1.78259 0
M  V30 6611 H 630.117 -2.8969 2.69992 0
M  V30 6612 H 631.291 -0.718564 4.55163 0
M  V30 6613 H 629.606 -0.805118 4.08542 0
M  V30 6614 H 632.203 -3.58395 3.96808 0
M  V30 6615 H 632.546 -3.49758 2.25776 0
M  V30 6616 H 633.079 -2.17863 3.32837 0
M  V30 6617 H 629.818 -1.80255 6.30229 0
M  V30 6618 H 629.338 -3.07132 5.15199 0
M  V30 6619 H 631.017 -2.98529 5.74012 0
M  V30 6620 N 631.149 -1.42148 -0.680565 0
M  V30 6621 C 632.397 -1.42029 -1.43779 0
M  V30 6622 C 632.718 -0.0356347 -1.94967 0
M  V30 6623 O 631.988 0.924936 -1.7269 0
M  V30 6624 H 630.568 -0.522835 -0.533529 0
M  V30 6625 H 633.23 -1.7752 -0.804538 0
M  V30 6626 H 632.326 -2.11658 -2.29363 0
M  V30 6627 N 632.627 0.916307 -1.28225 0
M  V30 6628 C 633.557 2.0352 -1.14464 0
M  V30 6629 C 634.538 1.70045 -0.0430844 0
M  V30 6630 O 635.723 1.92954 -0.219619 0
M  V30 6631 C 632.853 3.37889 -0.803027 0
M  V30 6632 C 631.807 3.85516 -1.85908 0
M  V30 6633 C 631.133 5.1682 -1.37116 0
M  V30 6634 C 632.433 4.07655 -3.26519 0
M  V30 6635 H 634.127 2.1529 -2.08064 0
M  V30 6636 H 631.673 1.03446 -1.00174 0
M  V30 6637 H 633.626 4.15654 -0.693537 0
M  V30 6638 H 632.35 3.26164 0.168674 0
M  V30 6639 H 631.009 3.09953 -1.95767 0
M  V30 6640 H 630.657 5.01497 -0.38859 0
M  V30 6641 H 630.357 5.49657 -2.07728 0
M  V30 6642 H 631.881 5.97143 -1.27484 0
M  V30 6643 H 633.295 4.75953 -3.19596 0
M  V30 6644 H 631.692 4.51818 -3.94943 0
M  V30 6645 H 632.762 3.12553 -3.70727 0
M  V30 6646 N 634.105 1.10431 1.1244 0
M  V30 6647 C 635.333 0.868872 1.87772 0
M  V30 6648 C 635.748 -0.580645 1.7965 0
M  V30 6649 O 635.105 -1.40031 1.17036 0
M  V30 6650 C 635.156 1.30855 3.36986 0
M  V30 6651 O 634.877 2.70123 3.44914 0
M  V30 6652 C 636.378 1.107 4.29256 0
M  V30 6653 H 633.598 0.311868 0.59412 0
M  V30 6654 H 636.142 1.46897 1.42273 0
M  V30 6655 H 634.297 0.752126 3.80029 0
M  V30 6656 H 634.711 2.88923 4.37748 0
M  V30 6657 H 636.185 1.46378 5.32238 0
M  V30 6658 H 636.662 0.0456228 4.39176 0
M  V30 6659 H 637.268 1.64988 3.91994 0
M  V30 6660 N 635.583 -1.29855 0.893053 0
M  V30 6661 C 636.808 -2.00512 0.530066 0
M  V30 6662 C 637.233 -1.66446 -0.876199 0
M  V30 6663 O 636.591 -0.885446 -1.58207 0
M  V30 6664 C 636.639 -3.53308 0.721505 0
M  V30 6665 O 635.743 -4.11764 -0.228994 0
M  V30 6666 H 635.084 -0.630617 0.207891 0
M  V30 6667 H 637.614 -1.6551 1.20282 0
M  V30 6668 H 637.624 -4.03206 0.623599 0
M  V30 6669 H 636.299 -3.77439 1.74678 0
M  V30 6670 H 634.876 -3.72805 -0.0841034 0
M  V30 6671 N 637.061 -0.65484 -1.43351 0
M  V30 6672 C 638.024 0.0263562 -2.29185 0
M  V30 6673 C 639.024 0.748951 -1.42293 0
M  V30 6674 O 640.214 0.589957 -1.63906 0
M  V30 6675 C 637.346 1.04806 -3.2439 0
M  V30 6676 H 638.539 -0.728883 -2.90908 0
M  V30 6677 H 636.092 -0.416149 -1.50658 0
M  V30 6678 H 636.827 1.83247 -2.67565 0
M  V30 6679 H 636.612 0.533554 -3.88453 0
M  V30 6680 H 638.102 1.52372 -3.88809 0
M  V30 6681 N 638.539 1.52521 -0.396863 0
M  V30 6682 C 639.502 2.2527 0.422604 0
M  V30 6683 C 640.502 1.27184 0.983913 0
M  V30 6684 O 641.692 1.51222 0.864723 0
M  V30 6685 C 638.824 3.01356 1.59365 0
M  V30 6686 H 640.017 2.99133 -0.214416 0
M  V30 6687 H 637.57 1.55587 -0.149128 0
M  V30 6688 H 638.305 2.31813 2.26789 0
M  V30 6689 H 638.09 3.73357 1.19779 0
M  V30 6690 H 639.58 3.56571 2.17363 0
M  V30 6691 N 640.017 0.126909 1.57088 0
M  V30 6692 C 641.266 -0.529024 1.94639 0
M  V30 6693 C 641.579 -1.67323 1.01304 0
M  V30 6694 O 642.785 -2.39245 1.28352 0
M  V30 6695 C 641.241 -0.992483 3.45945 0
M  V30 6696 C 640.849 0.123691 4.47829 0
M  V30 6697 C 642.593 -1.61934 3.924 0
M  V30 6698 C 640.5 -0.356911 5.90322 0
M  V30 6699 H 639.43 -0.201397 0.726605 0
M  V30 6700 H 642.081 0.208032 1.82317 0
M  V30 6701 H 640.463 -1.7842 3.53528 0
M  V30 6702 H 641.637 0.900168 4.51922 0
M  V30 6703 H 639.952 0.657699 4.11173 0
M  V30 6704 H 642.549 -1.9902 4.96281 0
M  V30 6705 H 642.892 -2.50075 3.32819 0
M  V30 6706 H 643.425 -0.892894 3.8765 0
M  V30 6707 H 640.164 0.488636 6.53676 0
M  V30 6708 H 639.684 -1.0997 5.89633 0
M  V30 6709 H 641.363 -0.815547 6.41839 0
M  V30 6710 N 641.495 -1.56914 -0.146875 0
M  V30 6711 C 642.428 -1.93425 -1.21087 0
M  V30 6712 C 643.406 -0.800106 -1.41552 0
M  V30 6713 O 644.59 -1.05572 -1.56162 0
M  V30 6714 C 641.717 -2.20639 -2.56975 0
M  V30 6715 C 640.763 -3.43279 -2.53104 0
M  V30 6716 S 641.596 -4.96836 -1.99786 0
M  V30 6717 C 642.752 -5.27172 -3.37403 0
M  V30 6718 H 642.985 -2.8337 -0.899378 0
M  V30 6719 H 640.518 -1.50322 -0.352494 0
M  V30 6720 H 642.476 -2.36998 -3.35175 0
M  V30 6721 H 641.137 -1.31357 -2.85314 0
M  V30 6722 H 640.33 -3.59599 -3.53136 0
M  V30 6723 H 639.932 -3.26163 -1.83012 0
M  V30 6724 H 642.224 -5.20647 -4.33513 0
M  V30 6725 H 643.167 -6.28626 -3.25937 0
M  V30 6726 H 643.575 -4.54687 -3.34544 0
M  V30 6727 N 642.974 0.416227 -1.52004 0
M  V30 6728 C 643.907 1.52736 -1.6955 0
M  V30 6729 C 644.885 1.53264 -0.54305 0
M  V30 6730 O 646.069 1.72077 -0.769527 0
M  V30 6731 C 643.196 2.91283 -1.72835 0
M  V30 6732 C 642.242 3.08695 -2.94295 0
M  V30 6733 S 643.075 2.82758 -4.54762 0
M  V30 6734 C 644.231 4.23548 -4.60823 0
M  V30 6735 H 644.464 1.37623 -2.63528 0
M  V30 6736 H 641.997 0.607335 -1.41954 0
M  V30 6737 H 643.955 3.71134 -1.75413 0
M  V30 6738 H 642.616 3.03742 -0.799966 0
M  V30 6739 H 641.809 4.10042 -2.93056 0
M  V30 6740 H 641.411 2.36699 -2.89568 0
M  V30 6741 H 643.703 5.17078 -4.37763 0
M  V30 6742 H 644.646 4.29813 -5.62731 0
M  V30 6743 H 645.054 4.08188 -3.89927 0
M  V30 6744 N 644.452 1.42507 0.673017 0
M  V30 6745 C 645.385 1.40557 1.79774 0
M  V30 6746 C 646.363 0.269606 1.60349 0
M  V30 6747 O 647.547 0.460105 1.82798 0
M  V30 6748 C 644.674 1.19815 3.168 0
M  V30 6749 C 643.72 2.36429 3.5497 0
M  V30 6750 S 644.553 3.98963 3.57196 0
M  V30 6751 C 645.709 3.80567 4.9691 0
M  V30 6752 H 645.942 2.35734 1.81154 0
M  V30 6753 H 643.475 1.293 0.843846 0
M  V30 6754 H 645.433 1.08535 3.95892 0
M  V30 6755 H 644.094 0.262215 3.13004 0
M  V30 6756 H 643.287 2.17669 4.54573 0
M  V30 6757 H 642.889 2.44233 2.83242 0
M  V30 6758 H 645.181 3.41668 5.85038 0
M  V30 6759 H 646.124 4.79852 5.20718 0
M  V30 6760 H 646.532 3.13399 4.69512 0
M  V30 6761 N 645.93 -0.909495 1.28709 0
M  V30 6762 C 646.86 -2.0291 1.15542 0
M  V30 6763 C 647.841 -1.7002 0.0521017 0
M  V30 6764 O 649.026 -1.92835 0.229849 0
M  V30 6765 C 646.156 -3.37458 0.820935 0
M  V30 6766 C 645.11 -3.84524 1.87949 0
M  V30 6767 C 644.436 -5.16086 1.39854 0
M  V30 6768 C 645.736 -4.05918 3.28676 0
M  V30 6769 H 647.43 -2.14183 2.09203 0
M  V30 6770 H 644.976 -1.02913 1.00722 0
M  V30 6771 H 646.929 -4.1528 0.715571 0
M  V30 6772 H 645.653 -3.26249 -0.151374 0
M  V30 6773 H 644.312 -3.08911 1.97408 0
M  V30 6774 H 643.96 -5.01284 0.41518 0
M  V30 6775 H 643.66 -5.48547 2.1064 0
M  V30 6776 H 645.184 -5.96459 1.30649 0
M  V30 6777 H 646.598 -4.74252 3.22115 0
M  V30 6778 H 644.995 -4.49717 3.97334 0
M  V30 6779 H 646.065 -3.10583 3.72379 0
M  V30 6780 N 647.408 -1.11026 -1.11852 0
M  V30 6781 C 648.824 -0.843294 -1.35502 0
M  V30 6782 C 649.024 0.534179 -1.9429 0
M  V30 6783 O 648.08 1.28585 -2.17307 0
M  V30 6784 C 649.393 -1.94793 -2.29077 0
M  V30 6785 C 650.941 -1.97709 -2.42652 0
M  V30 6786 C 651.416 -3.07364 -3.39546 0
M  V30 6787 N 652.907 -3.0671 -3.47107 0
M  V30 6788 C 653.642 -3.88197 -4.22008 0
M  V30 6789 N 653.138 -4.79635 -4.99922 0
M  V30 6790 N 654.931 -3.76391 -4.17476 0
M  V30 6791 H 647.082 -1.99805 -0.720538 0
M  V30 6792 H 649.345 -0.868633 -0.379711 0
M  V30 6793 H 649.051 -2.93971 -1.93065 0
M  V30 6794 H 648.925 -1.84039 -3.29256 0
M  V30 6795 H 651.312 -0.991604 -2.77941 0
M  V30 6796 H 651.393 -2.1254 -1.4234 0
M  V30 6797 H 651.037 -4.06136 -3.04985 0
M  V30 6798 H 650.967 -2.89774 -4.39703 0
M  V30 6799 H 653.458 -2.40457 -2.91528 0
M  V30 6800 H 653.771 -5.38357 -5.54429 0
M  V30 6801 H 652.116 -4.8366 -4.99097 0
M  V30 6802 H 655.307 -3.04303 -3.55693 0
M  V30 6803 H 655.48 -4.40131 -4.75593 0
M  V30 6804 N 648.886 1.2938 -0.899927 0
M  V30 6805 C 649.819 2.25911 -0.322386 0
M  V30 6806 C 650.797 1.52447 0.565567 0
M  V30 6807 O 651.981 1.81404 0.512324 0
M  V30 6808 C 649.108 3.3436 0.540455 0
M  V30 6809 C 648.154 4.25579 -0.280211 0
M  V30 6810 S 648.987 5.08526 -1.67814 0
M  V30 6811 C 650.143 6.20476 -0.822224 0
M  V30 6812 H 650.376 2.7455 -1.1406 0
M  V30 6813 H 647.909 1.37606 -0.700285 0
M  V30 6814 H 649.867 3.97303 1.0325 0
M  V30 6815 H 648.528 2.84416 1.33291 0
M  V30 6816 H 647.721 5.02574 0.378915 0
M  V30 6817 H 647.323 3.67287 -0.705405 0
M  V30 6818 H 649.615 6.77485 -0.0457138 0
M  V30 6819 H 650.558 6.90606 -1.56426 0
M  V30 6820 H 650.966 5.63243 -0.37651 0
M  V30 6821 N 650.364 0.662433 1.43002 0
M  V30 6822 C 651.78 0.330835 1.56133 0
M  V30 6823 C 651.98 -1.16454 1.64441 0
M  V30 6824 O 651.036 -1.94964 1.60453 0
M  V30 6825 C 652.349 1.05029 2.81761 0
M  V30 6826 C 653.897 1.03142 2.95518 0
M  V30 6827 C 654.372 1.73196 4.2399 0
M  V30 6828 N 655.863 1.70004 4.30875 0
M  V30 6829 C 656.598 2.21074 5.29069 0
M  V30 6830 N 656.094 2.80473 6.33488 0
M  V30 6831 N 657.887 2.1152 5.20784 0
M  V30 6832 H 650.038 1.63272 1.35853 0
M  V30 6833 H 652.301 0.687149 0.653092 0
M  V30 6834 H 652.007 2.10542 2.81718 0
M  V30 6835 H 651.881 0.607664 3.72273 0
M  V30 6836 H 654.268 -0.0153339 2.95096 0
M  V30 6837 H 654.349 1.51282 2.0627 0
M  V30 6838 H 653.993 2.77833 4.25172 0
M  V30 6839 H 653.923 1.22515 5.1215 0
M  V30 6840 H 656.414 1.26667 3.56039 0
M  V30 6841 H 656.727 3.17094 7.04749 0
M  V30 6842 H 655.072 2.84538 6.34085 0
M  V30 6843 H 658.263 1.64814 4.38126 0
M  V30 6844 H 658.436 2.51629 5.97149 0
M  V30 6845 N 651.842 -1.52309 0.404946 0
M  V30 6846 C 653.089 -2.01767 -0.1722 0
M  V30 6847 C 653.417 -1.29075 -1.45498 0
M  V30 6848 O 652.672 -0.3843 -1.9189 0
M  V30 6849 C 652.971 -3.54284 -0.470895 0
M  V30 6850 C 652.637 -4.45079 0.722194 0
M  V30 6851 C 651.299 -4.69617 1.04946 0
M  V30 6852 C 653.651 -4.98555 1.51962 0
M  V30 6853 C 650.979 -5.44878 2.17543 0
M  V30 6854 C 653.331 -5.75049 2.63632 0
M  V30 6855 C 651.995 -5.9786 2.9685 0
M  V30 6856 H 651.265 -0.738316 -0.0630125 0
M  V30 6857 H 653.912 -1.83566 0.545506 0
M  V30 6858 H 652.217 -3.70642 -1.27012 0
M  V30 6859 H 653.914 -3.90058 -0.930346 0
M  V30 6860 H 650.504 -4.26155 0.457131 0
M  V30 6861 H 654.688 -4.79509 1.28002 0
M  V30 6862 H 649.944 -5.60762 2.43631 0
M  V30 6863 H 654.118 -6.15483 3.25813 0
M  V30 6864 H 651.745 -6.5596 3.84215 0
M  V30 6865 N 653.32 -0.135238 -1.57019 0
M  V30 6866 C 654.25 0.805235 -2.19176 0
M  V30 6867 C 655.231 1.2656 -1.13651 0
M  V30 6868 O 656.416 1.32528 -1.4195 0
M  V30 6869 C 653.546 2.04914 -2.80406 0
M  V30 6870 C 652.5 1.72598 -3.91655 0
M  V30 6871 C 651.826 3.04154 -4.39766 0
M  V30 6872 C 653.126 0.981709 -5.12991 0
M  V30 6873 H 654.82 0.287232 -2.98019 0
M  V30 6874 H 652.366 0.136714 -1.4335 0
M  V30 6875 H 654.319 2.71178 -3.22553 0
M  V30 6876 H 653.043 2.59067 -1.98877 0
M  V30 6877 H 651.702 1.08717 -3.50109 0
M  V30 6878 H 651.35 3.56274 -3.55075 0
M  V30 6879 H 651.05 2.83299 -5.14796 0
M  V30 6880 H 652.574 3.71509 -4.84576 0
M  V30 6881 H 653.988 1.5462 -5.52056 0
M  V30 6882 H 652.385 0.873533 -5.93708 0
M  V30 6883 H 653.455 -0.0286887 -4.84892 0
M  V30 6884 N 654.798 1.5699 0.138552 0
M  V30 6885 C 655.73 1.95515 1.1961 0
M  V30 6886 C 656.743 0.852002 1.38726 0
M  V30 6887 O 657.932 1.13038 1.38147 0
M  V30 6888 C 655.032 2.2213 2.55952 0
M  V30 6889 C 654.205 3.53424 2.57702 0
M  V30 6890 C 653.264 3.6848 3.75645 0
M  V30 6891 O 652.29 4.4079 3.60129 0
M  V30 6892 N 653.492 3.05777 4.93438 0
M  V30 6893 H 656.257 2.86838 0.868557 0
M  V30 6894 H 653.818 1.58542 0.328033 0
M  V30 6895 H 655.81 2.29435 3.33379 0
M  V30 6896 H 654.38 1.3703 2.80965 0
M  V30 6897 H 653.6 3.57484 1.6613 0
M  V30 6898 H 654.888 4.39759 2.55909 0
M  V30 6899 H 654.286 2.46961 5.08947 0
M  V30 6900 H 652.843 3.18631 5.6861 0
M  V30 6901 N 656.276 -0.40816 1.52223 0
M  V30 6902 C 657.692 -0.74685 1.41047 0
M  V30 6903 C 657.892 -1.94788 0.51573 0
M  V30 6904 O 656.948 -2.52494 -0.0181156 0
M  V30 6905 C 658.261 -0.999878 2.83589 0
M  V30 6906 C 659.809 -1.10253 2.92939 0
M  V30 6907 C 660.284 -1.38832 4.36451 0
M  V30 6908 N 661.775 -1.45694 4.3969 0
M  V30 6909 C 662.51 -1.69435 5.47795 0
M  V30 6910 N 662.006 -1.90774 6.66016 0
M  V30 6911 N 663.799 -1.71458 5.35312 0
M  V30 6912 H 655.95 0.382409 2.08929 0
M  V30 6913 H 658.213 0.108807 0.941735 0
M  V30 6914 H 657.919 -0.189723 3.51188 0
M  V30 6915 H 657.793 -1.91978 3.24691 0
M  V30 6916 H 660.18 -1.90328 2.2552 0
M  V30 6917 H 660.261 -0.160973 2.55293 0
M  V30 6918 H 659.905 -0.592741 5.04429 0
M  V30 6919 H 659.835 -2.34241 4.71634 0
M  V30 6920 H 662.326 -1.3099 3.54472 0
M  V30 6921 H 662.639 -2.08342 7.44186 0
M  V30 6922 H 660.984 -1.88037 6.69079 0
M  V30 6923 H 664.175 -1.54326 4.41929 0
M  V30 6924 H 664.348 -1.89621 6.19635 0
M  V30 6925 N 657.755 -1.42862 -0.66545 0
M  V30 6926 C 658.685 -1.49867 -1.79059 0
M  V30 6927 C 659.666 -0.354394 -1.66367 0
M  V30 6928 O 660.851 -0.569969 -1.85647 0
M  V30 6929 C 657.981 -1.40943 -3.17415 0
M  V30 6930 C 656.935 -2.53495 -3.44854 0
M  V30 6931 C 656.261 -2.29626 -4.82883 0
M  V30 6932 C 657.561 -3.95781 -3.40815 0
M  V30 6933 H 659.255 -2.44037 -1.73453 0
M  V30 6934 H 656.801 -1.17456 -0.833071 0
M  V30 6935 H 658.754 -1.4445 -3.95869 0
M  V30 6936 H 657.478 -0.432716 -3.23721 0
M  V30 6937 H 656.137 -2.4932 -2.68766 0
M  V30 6938 H 655.785 -1.30226 -4.8585 0
M  V30 6939 H 655.485 -3.05065 -5.02204 0
M  V30 6940 H 657.009 -2.34897 -5.63609 0
M  V30 6941 H 658.423 -4.01508 -4.09224 0
M  V30 6942 H 656.82 -4.71148 -3.71672 0
M  V30 6943 H 657.89 -4.21786 -2.39216 0
M  V30 6944 N 659.233 0.902656 -1.29189 0
M  V30 6945 C 660.644 1.46809 -1.15343 0
M  V30 6946 C 660.995 1.94568 0.252517 0
M  V30 6947 O 660.12 1.83454 1.14777 0
M  V30 6948 C 660.715 2.66829 -2.08776 0
M  V30 6949 C 659.274 3.19518 -1.98961 0
M  V30 6950 C 658.421 1.92212 -1.99874 0
M  V30 6951 H 661.372 0.714282 -1.41717 0
M  V30 6952 H 661.393 3.42465 -1.65826 0
M  V30 6953 H 660.905 2.32039 -3.11094 0
M  V30 6954 H 659.006 3.59008 -0.99721 0
M  V30 6955 H 659.119 3.84016 -2.86477 0
M  V30 6956 H 657.483 2.0979 -1.44431 0
M  V30 6957 H 658.266 1.59702 -3.03891 0
M  V30 6958 N 660.711 1.11618 1.11262 0
M  V30 6959 C 661.936 0.889013 1.8738 0
M  V30 6960 C 662.361 -0.555884 1.79698 0
M  V30 6961 O 661.719 -1.39272 1.16073 0
M  V30 6962 C 661.767 1.35759 3.34069 0
M  V30 6963 O 660.871 0.530499 4.08974 0
M  V30 6964 H 660.212 0.320082 0.581759 0
M  V30 6965 H 662.742 1.48611 1.40627 0
M  V30 6966 H 662.752 1.35291 3.84916 0
M  V30 6967 H 661.427 2.40973 3.38976 0
M  V30 6968 H 660.004 0.601439 3.68018 0
M  V30 6969 N 662.189 -1.289 0.906776 0
M  V30 6970 C 663.152 -2.25777 0.394656 0
M  V30 6971 C 664.152 -1.53621 -0.475119 0
M  V30 6972 O 665.342 -1.71949 -0.279165 0
M  V30 6973 C 662.474 -3.38113 -0.43499 0
M  V30 6974 H 663.667 -2.72592 1.25033 0
M  V30 6975 H 661.22 -1.40463 0.685547 0
M  V30 6976 H 661.955 -2.96648 -1.31036 0
M  V30 6977 H 661.74 -3.91647 0.188334 0
M  V30 6978 H 663.23 -4.10168 -0.784365 0
M  V30 6979 N 663.667 -0.670007 -1.42649 0
M  V30 6980 C 664.916 -0.187526 -2.00826 0
M  V30 6981 C 665.229 1.21142 -1.53571 0
M  V30 6982 O 666.435 1.79001 -2.04134 0
M  V30 6983 C 664.891 -0.284409 -3.58774 0
M  V30 6984 C 664.499 -1.6871 -4.15019 0
M  V30 6985 C 666.243 0.139605 -4.2427 0
M  V30 6986 C 664.15 -1.73701 -5.65316 0
M  V30 6987 H 663.08 -0.0663468 -0.751075 0
M  V30 6988 H 665.731 -0.834492 -1.63427 0
M  V30 6989 H 664.113 0.430364 -3.93655 0
M  V30 6990 H 665.287 -2.42857 -3.91608 0
M  V30 6991 H 663.602 -2.05855 -3.61957 0
M  V30 6992 H 666.199 0.122398 -5.3456 0
M  V30 6993 H 666.542 1.17403 -3.99402 0
M  V30 6994 H 667.075 -0.523995 -3.94334 0
M  V30 6995 H 663.814 -2.75109 -5.94975 0
M  V30 6996 H 663.334 -1.03903 -5.90732 0
M  V30 6997 H 665.013 -1.48829 -6.2965 0
M  V30 6998 N 665.145 1.52092 -0.413018 0
M  V30 6999 C 666.394 2.01041 0.16287 0
M  V30 7000 C 666.707 1.30288 1.45892 0
M  V30 7001 O 667.913 1.70075 2.11629 0
M  V30 7002 C 666.369 3.58283 0.340806 0
M  V30 7003 C 665.977 4.37955 -0.943377 0
M  V30 7004 C 667.721 4.15452 0.871774 0
M  V30 7005 C 665.628 5.86847 -0.732417 0
M  V30 7006 H 664.558 0.751224 0.0646414 0
M  V30 7007 H 667.209 1.75404 -0.539059 0
M  V30 7008 H 665.591 3.80266 1.10516 0
M  V30 7009 H 666.765 4.2773 -1.71418 0
M  V30 7010 H 665.08 3.92122 -1.40105 0
M  V30 7011 H 667.677 5.24375 1.0457 0
M  V30 7012 H 668.02 3.73057 1.84755 0
M  V30 7013 H 668.553 3.97452 0.166377 0
M  V30 7014 H 665.292 6.33609 -1.67986 0
M  V30 7015 H 664.812 5.998 -0.000980058 0
M  V30 7016 H 666.491 6.45906 -0.376105 0
M  V30 7017 N 666.623 0.143563 1.56945 0
M  V30 7018 C 667.553 -0.7936 2.196 0
M  V30 7019 C 668.534 -1.25955 1.14321 0
M  V30 7020 O 669.719 -1.31773 1.42651 0
M  V30 7021 C 666.849 -2.03424 2.81489 0
M  V30 7022 C 665.803 -1.70519 3.92565 0
M  V30 7023 C 665.129 -3.01817 4.41373 0
M  V30 7024 C 666.429 -0.95449 5.13504 0
M  V30 7025 H 668.123 -0.271423 2.98167 0
M  V30 7026 H 665.669 -0.12911 1.4342 0
M  V30 7027 H 667.622 -2.69463 3.23987 0
M  V30 7028 H 666.346 -2.58008 2.00248 0
M  V30 7029 H 665.005 -1.06859 3.5068 0
M  V30 7030 H 664.653 -3.54386 3.56959 0
M  V30 7031 H 664.353 -2.80565 5.16292 0
M  V30 7032 H 665.877 -3.68934 4.86539 0
M  V30 7033 H 667.291 -1.5169 5.52868 0
M  V30 7034 H 665.688 -0.842035 5.94163 0
M  V30 7035 H 666.758 0.0544033 4.84869 0
M  V30 7036 N 668.101 -1.57061 -0.130224 0
M  V30 7037 C 669.033 -1.96147 -1.18571 0
M  V30 7038 C 670.046 -0.859347 -1.38272 0
M  V30 7039 O 671.235 -1.13769 -1.37545 0
M  V30 7040 C 668.335 -2.23484 -2.54771 0
M  V30 7041 C 667.508 -3.54786 -2.55824 0
M  V30 7042 C 666.567 -3.70467 -3.73686 0
M  V30 7043 O 665.593 -4.42693 -3.57787 0
M  V30 7044 N 666.795 -3.08389 -4.91809 0
M  V30 7045 H 669.56 -2.87295 -0.853333 0
M  V30 7046 H 667.121 -1.58714 -0.319621 0
M  V30 7047 H 669.113 -2.312 -3.32158 0
M  V30 7048 H 667.683 -1.38518 -2.80235 0
M  V30 7049 H 666.903 -3.5836 -1.64232 0
M  V30 7050 H 668.191 -4.4111 -2.53573 0
M  V30 7051 H 667.589 -2.49656 -5.0763 0
M  V30 7052 H 666.146 -3.21642 -5.66912 0
M  V30 7053 N 669.579 0.400081 -1.52437 0
M  V30 7054 C 670.995 0.739359 -1.41441 0
M  V30 7055 C 671.195 1.94512 -0.526053 0
M  V30 7056 O 670.251 2.525 0.00472502 0
M  V30 7057 C 671.564 0.984824 -2.84116 0
M  V30 7058 C 673.112 1.08698 -2.93519 0
M  V30 7059 C 673.587 1.36515 -4.37181 0
M  V30 7060 N 675.078 1.43361 -4.40457 0
M  V30 7061 C 675.813 1.66528 -5.48686 0
M  V30 7062 N 675.309 1.87239 -6.67018 0
M  V30 7063 N 677.102 1.68617 -5.36213 0
M  V30 7064 H 669.253 -0.393484 -2.08723 0
M  V30 7065 H 671.516 -0.1138 -0.941145 0
M  V30 7066 H 671.222 0.171096 -3.51284 0
M  V30 7067 H 671.096 1.90253 -3.25705 0
M  V30 7068 H 673.483 1.89129 -2.26526 0
M  V30 7069 H 673.564 0.147432 -2.55375 0
M  V30 7070 H 673.208 0.565982 -5.04737 0
M  V30 7071 H 673.138 2.31737 -4.7287 0
M  V30 7072 H 675.629 1.29108 -3.55161 0
M  V30 7073 H 675.942 2.04392 -7.45281 0
M  V30 7074 H 674.287 1.84486 -6.70067 0
M  V30 7075 H 677.478 1.5198 -4.42741 0
M  V30 7076 H 677.651 1.86332 -6.20632 0
M  V30 7077 N 671.057 1.43213 0.657864 0
M  V30 7078 C 672.02 1.47687 1.75275 0
M  V30 7079 C 673.02 0.362179 1.56668 0
M  V30 7080 O 674.21 0.623734 1.62651 0
M  V30 7081 C 671.342 1.32497 3.14098 0
M  V30 7082 H 672.535 2.4519 1.7269 0
M  V30 7083 H 670.088 1.2991 0.869087 0
M  V30 7084 H 670.823 0.359831 3.22298 0
M  V30 7085 H 670.608 2.13299 3.29008 0
M  V30 7086 H 672.098 1.38549 3.93946 0
M  V30 7087 N 672.536 -0.895792 1.29666 0
M  V30 7088 C 673.761 -1.68528 1.20885 0
M  V30 7089 C 674.186 -1.8673 -0.226595 0
M  V30 7090 O 673.544 -1.39044 -1.16347 0
M  V30 7091 C 673.592 -3.04512 1.93144 0
M  V30 7092 O 672.696 -3.92963 1.25115 0
M  V30 7093 H 672.037 -0.515371 0.418675 0
M  V30 7094 H 674.567 -1.11878 1.71302 0
M  V30 7095 H 674.577 -3.54628 2.0175 0
M  V30 7096 H 673.252 -2.90582 2.97548 0
M  V30 7097 H 671.829 -3.51399 1.24794 0
M  V30 7098 N 674.014 -1.12206 -1.10668 0
M  V30 7099 C 675.43 -0.857619 -1.346 0
M  V30 7100 C 675.63 0.513542 -1.94846 0
M  V30 7101 O 674.686 1.26273 -2.18658 0
M  V30 7102 C 675.999 -1.97212 -2.26998 0
M  V30 7103 C 677.547 -2.00272 -2.40542 0
M  V30 7104 C 678.022 -3.10948 -3.36267 0
M  V30 7105 N 679.513 -3.10375 -3.43834 0
M  V30 7106 C 680.248 -3.92651 -4.17867 0
M  V30 7107 N 679.744 -4.84911 -4.94807 0
M  V30 7108 N 681.537 -3.80798 -4.1346 0
M  V30 7109 H 673.688 -2.00558 -0.699306 0
M  V30 7110 H 675.951 -0.872612 -0.370477 0
M  V30 7111 H 675.657 -2.96002 -1.89936 0
M  V30 7112 H 675.531 -1.87521 -3.27286 0
M  V30 7113 H 677.918 -1.02103 -2.76874 0
M  V30 7114 H 677.999 -2.14037 -1.40077 0
M  V30 7115 H 677.643 -4.09348 -3.00661 0
M  V30 7116 H 677.573 -2.94421 -4.36605 0
M  V30 7117 H 680.064 -2.43536 -2.88961 0
M  V30 7118 H 680.377 -5.44207 -5.48688 0
M  V30 7119 H 678.722 -4.88926 -4.93939 0
M  V30 7120 H 681.913 -3.08058 -3.52445 0
M  V30 7121 H 682.086 -4.4515 -4.70898 0
M  V30 7122 O 675.531 1.23095 -1.04546 0
M  V30 7123 H 676.222 1.79876 -0.718642 0
M  V30 END ATOM
M  V30 BEGIN BOND
M  V30 END BOND
M  V30 END CTAB
M  END
$$$$
