drugbank_target|P11509 Cytochrome P450 2A6 (DB04665; DB07609; DB07617; DB07621; DB07623)
 OpenBabel12092120303D

  0  0  0     0  0            999 V3000
M  V30 BEGIN CTAB
M  V30 COUNTS 7981 8074 0 0 0
M  V30 BEGIN ATOM
M  V30 1 H -0.908 1.98254 -0.117106 0
M  V30 2 N 0 1.576 0 0
M  V30 3 C 0.933 2.03868 1.02534 0
M  V30 4 C 1.911 0.928543 1.3348 0
M  V30 5 O 3.095 1.19667 1.45644 0
M  V30 6 C 0.222 2.43627 2.35294 0
M  V30 7 C -0.732 3.65373 2.2001 0
M  V30 8 S 0.101 5.13292 1.52614 0
M  V30 9 C 1.257 5.56322 2.86805 0
M  V30 10 H 1.49 2.90518 0.631377 0
M  V30 11 H -0.977 1.52953 0.210867 0
M  V30 12 H 0.981 2.67203 3.11629 0
M  V30 13 H -0.358 1.57376 2.7183 0
M  V30 14 H -1.165 3.90944 3.18086 0
M  V30 15 H -1.563 3.418 1.51819 0
M  V30 16 H 0.729 5.58782 3.83104 0
M  V30 17 H 1.672 6.56266 2.65933 0
M  V30 18 H 2.08 4.83886 2.90714 0
M  V30 19 N 1.4781 -0.272755 1.55222 0
M  V30 20 C 2.4081 -1.34136 1.91127 0
M  V30 21 C 3.3891 -1.51513 0.773168 0
M  V30 22 O 4.5741 -1.64552 1.03132 0
M  V30 23 C 1.7041 -2.70083 2.1834 0
M  V30 24 C 0.6581 -2.67437 3.34158 0
M  V30 25 C -0.0159 -4.06938 3.46851 0
M  V30 26 C 1.2841 -2.26686 4.70543 0
M  V30 27 H 2.9781 -1.04333 2.80633 0
M  V30 28 H 0.5241 -0.500454 1.35024 0
M  V30 29 H 2.4771 -3.44952 2.42046 0
M  V30 30 H 1.2011 -3.01469 1.25634 0
M  V30 31 H -0.1399 -1.95026 3.1042 0
M  V30 32 H -0.4919 -4.35547 2.51611 0
M  V30 33 H -0.7919 -4.06062 4.2472 0
M  V30 34 H 0.7321 -4.83545 3.72849 0
M  V30 35 H 2.1461 -2.91277 4.93792 0
M  V30 36 H 0.5431 -2.36971 5.5133 0
M  V30 37 H 1.6131 -1.21818 4.69349 0
M  V30 38 N 2.9562 -1.48159 -0.537278 0
M  V30 39 C 3.9192 -1.61665 -1.62472 0
M  V30 40 C 4.9192 -0.490395 -1.5314 0
M  V30 41 O 6.1092 -0.755998 -1.5694 0
M  V30 42 C 3.2412 -1.57997 -3.02076 0
M  V30 43 H 4.4342 -2.58621 -1.51839 0
M  V30 44 H 1.9872 -1.36647 -0.758771 0
M  V30 45 H 2.7222 -0.624913 -3.18222 0
M  V30 46 H 2.5072 -2.39755 -3.10258 0
M  V30 47 H 3.9972 -1.70627 -3.81151 0
M  V30 48 N 4.4343 0.785586 -1.36625 0
M  V30 49 C 5.6593 1.57963 -1.34397 0
M  V30 50 C 6.0843 1.87964 0.071526 0
M  V30 51 O 5.4423 1.48182 1.0446 0
M  V30 52 C 5.4903 2.87511 -2.17646 0
M  V30 53 O 4.5943 3.81281 -1.57158 0
M  V30 54 H 3.9353 0.479014 -0.459828 0
M  V30 55 H 6.4653 0.973411 -1.79961 0
M  V30 56 H 6.4753 3.36745 -2.30362 0
M  V30 57 H 5.1503 2.65002 -3.20541 0
M  V30 58 H 3.7273 3.39885 -1.53403 0
M  V30 59 N 5.9124 1.20967 1.01018 0
M  V30 60 C 7.1604 1.02172 1.74371 0
M  V30 61 C 7.4814 -0.446414 1.89821 0
M  V30 62 O 6.7514 -1.32234 1.44537 0
M  V30 63 H 5.3314 0.375066 0.646014 0
M  V30 64 H 7.9934 1.52187 1.21758 0
M  V30 65 H 7.0894 1.48538 2.74487 0
M  V30 66 N 7.3905 -1.2043 1.01659 0
M  V30 67 C 8.3235 -2.21924 0.531521 0
M  V30 68 C 9.3015 -1.57054 -0.421032 0
M  V30 69 O 10.4855 -1.85389 -0.341035 0
M  V30 70 C 7.6125 -3.37942 -0.226496 0
M  V30 71 C 6.6585 -4.21115 0.67561 0
M  V30 72 S 7.4915 -4.90674 2.14475 0
M  V30 73 C 8.6475 -6.10113 1.3969 0
M  V30 74 H 8.8805 -2.62725 1.3915 0
M  V30 75 H 6.4135 -1.30481 0.825479 0
M  V30 76 H 8.3715 -4.05196 -0.657738 0
M  V30 77 H 7.0325 -2.956 -1.06205 0
M  V30 78 H 6.2255 -5.03918 0.091108 0
M  V30 79 H 5.8275 -3.59115 1.04463 0
M  V30 80 H 8.1195 -6.7411 0.676897 0
M  V30 81 H 9.0625 -6.73022 2.20107 0
M  V30 82 H 9.4705 -5.57283 0.899786 0
M  V30 83 N 8.8686 -0.792821 -1.36206 0
M  V30 84 C 9.7986 -0.207853 -2.32573 0
M  V30 85 C 10.7796 0.659055 -1.56813 0
M  V30 86 O 11.9646 0.592176 -1.84951 0
M  V30 87 C 9.0946 0.655449 -3.41059 0
M  V30 88 C 8.0486 -0.111842 -4.27854 0
M  V30 89 C 7.3746 0.872274 -5.27537 0
M  V30 90 C 8.6746 -1.30299 -5.05786 0
M  V30 91 H 10.3686 -1.01294 -2.81744 0
M  V30 92 H 7.9146 -0.48854 -1.3546 0
M  V30 93 H 9.8676 1.07464 -4.07467 0
M  V30 94 H 8.5916 1.49328 -2.90463 0
M  V30 95 H 7.2506 -0.512053 -3.63006 0
M  V30 96 H 6.8986 1.70523 -4.73214 0
M  V30 97 H 6.5986 0.363291 -5.86476 0
M  V30 98 H 8.1226 1.28996 -5.96818 0
M  V30 99 H 9.5366 -0.959379 -5.65216 0
M  V30 100 H 7.9336 -1.7455 -5.74154 0
M  V30 101 H 9.0036 -2.09663 -4.37229 0
M  V30 102 N 10.3467 1.47872 -0.545128 0
M  V30 103 C 11.2767 2.32661 0.197793 0
M  V30 104 C 12.2577 1.43041 0.920504 0
M  V30 105 O 13.4427 1.71912 0.90333 0
M  V30 106 C 10.5727 3.24569 1.23582 0
M  V30 107 C 9.5267 4.23333 0.630323 0
M  V30 108 C 8.8527 5.0448 1.77211 0
M  V30 109 C 10.1527 5.20704 -0.407974 0
M  V30 110 H 11.8467 2.95024 -0.510045 0
M  V30 111 H 9.3927 1.4187 -0.246731 0
M  V30 112 H 11.3457 3.8272 1.76362 0
M  V30 113 H 10.0697 2.60236 1.97344 0
M  V30 114 H 8.7287 3.6639 0.123922 0
M  V30 115 H 8.3767 4.36561 2.49847 0
M  V30 116 H 8.0767 5.71339 1.37281 0
M  V30 117 H 9.6007 5.65487 2.3034 0
M  V30 118 H 11.0147 5.7329 0.033305 0
M  V30 119 H 9.4117 5.95699 -0.725486 0
M  V30 120 H 10.4817 4.66917 -1.30828 0
M  V30 121 N 11.8248 0.280983 1.55075 0
M  V30 122 C 13.0708 -0.33461 2.00021 0
M  V30 123 C 13.4038 -1.55063 1.16915 0
M  V30 124 O 12.6788 -1.93006 0.240646 0
M  V30 125 C 12.9618 -0.711007 3.53011 0
M  V30 126 C 12.8148 0.512766 4.46868 0
M  V30 127 C 14.1338 -1.54522 4.12081 0
M  V30 128 H 11.2528 -0.120147 0.727141 0
M  V30 129 H 13.8948 0.389097 1.85973 0
M  V30 130 H 12.0448 -1.32761 3.65112 0
M  V30 131 H 13.7168 1.15131 4.46702 0
M  V30 132 H 11.9598 1.14975 4.18286 0
M  V30 133 H 12.6308 0.205556 5.51617 0
M  V30 134 H 15.1068 -1.02442 4.03293 0
M  V30 135 H 13.9828 -1.77739 5.19327 0
M  V30 136 H 14.2438 -2.52813 3.62682 0
M  V30 137 N 13.3029 -1.57598 0.00835791 0
M  V30 138 C 14.2659 -2.07884 -0.965242 0
M  V30 139 C 15.2659 -0.989825 -1.26725 0
M  V30 140 O 16.4559 -1.25218 -1.21104 0
M  V30 141 C 13.5879 -2.52731 -2.28779 0
M  V30 142 H 14.7809 -2.95178 -0.530112 0
M  V30 143 H 12.3339 -1.54458 -0.239283 0
M  V30 144 H 13.0689 -1.68705 -2.76964 0
M  V30 145 H 12.8539 -3.32272 -2.08177 0
M  V30 146 H 14.3439 -2.91933 -2.98605 0
M  V30 147 N 14.781 0.264519 -1.55364 0
M  V30 148 C 15.711 1.33121 -1.91836 0
M  V30 149 C 16.692 1.51101 -0.781192 0
M  V30 150 O 17.877 1.64003 -1.04003 0
M  V30 151 C 15.007 2.68921 -2.19769 0
M  V30 152 C 13.961 2.65661 -3.35571 0
M  V30 153 C 13.287 4.05093 -3.49004 0
M  V30 154 C 14.587 2.24187 -4.71739 0
M  V30 155 H 16.281 1.02844 -2.81182 0
M  V30 156 H 13.827 0.493286 -1.35287 0
M  V30 157 H 15.78 3.43663 -2.43872 0
M  V30 158 H 14.504 3.00799 -1.27231 0
M  V30 159 H 13.163 1.93377 -3.1145 0
M  V30 160 H 12.811 4.34206 -2.53917 0
M  V30 161 H 12.511 4.03804 -4.26868 0
M  V30 162 H 14.035 4.81561 -3.75408 0
M  V30 163 H 15.449 2.88654 -4.9533 0
M  V30 164 H 13.846 2.34044 -5.52579 0
M  V30 165 H 14.916 1.19327 -4.69988 0
M  V30 166 N 16.2591 1.48442 0.529413 0
M  V30 167 C 17.1891 1.65902 1.64313 0
M  V30 168 C 18.1701 0.507897 1.6234 0
M  V30 169 O 19.3551 0.740503 1.79528 0
M  V30 170 C 16.4851 1.69911 3.02898 0
M  V30 171 C 15.4391 2.8453 3.19729 0
M  V30 172 C 14.7651 2.73629 4.59381 0
M  V30 173 C 16.0651 4.25821 3.02447 0
M  V30 174 H 17.7591 2.5914 1.49955 0
M  V30 175 H 15.3051 1.24709 0.719982 0
M  V30 176 H 17.2581 1.80715 3.80684 0
M  V30 177 H 15.9821 0.732524 3.18279 0
M  V30 178 H 14.6411 2.73283 2.44361 0
M  V30 179 H 14.2891 1.74938 4.71599 0
M  V30 180 H 13.9891 3.50541 4.71588 0
M  V30 181 H 15.5131 2.86401 5.39265 0
M  V30 182 H 16.9271 4.37898 3.70024 0
M  V30 183 H 15.3241 5.03735 3.26146 0
M  V30 184 H 16.3941 4.42244 1.98867 0
M  V30 185 N 17.7372 -0.778329 1.37039 0
M  V30 186 C 18.9832 -1.53892 1.32079 0
M  V30 187 C 19.3162 -1.9396 -0.0965386 0
M  V30 188 O 18.5912 -1.63568 -1.05242 0
M  V30 189 C 18.8742 -2.80847 2.25382 0
M  V30 190 C 18.7272 -2.47076 3.75864 0
M  V30 191 C 20.0462 -3.82741 2.1725 0
M  V30 192 H 17.1652 -0.558303 0.48111 0
M  V30 193 H 19.8072 -0.893397 1.67685 0
M  V30 194 H 17.9572 -3.35931 1.95148 0
M  V30 195 H 19.6292 -1.97957 4.16666 0
M  V30 196 H 17.8722 -1.79863 3.94755 0
M  V30 197 H 18.5432 -3.37798 4.36574 0
M  V30 198 H 21.0192 -3.37133 2.43887 0
M  V30 199 H 19.8952 -4.69303 2.84686 0
M  V30 200 H 20.1562 -4.2652 1.16331 0
M  V30 201 N 19.2153 -1.21501 -1.00376 0
M  V30 202 C 20.4553 -1.04444 -1.75701 0
M  V30 203 C 20.8193 0.414644 -1.87469 0
M  V30 204 O 22.0203 0.705763 -2.59369 0
M  V30 205 C 20.2913 -1.72389 -3.13077 0
M  V30 206 S 21.8503 -1.70604 -4.04277 0
M  V30 207 H 18.6683 -0.374249 -0.604532 0
M  V30 208 H 21.2703 -1.54267 -1.20091 0
M  V30 209 H 19.9743 -2.77734 -3.02146 0
M  V30 210 H 19.5053 -1.22751 -3.73759 0
M  V30 211 H 21.5203 -0.748012 -4.9053 0
M  V30 212 N 20.6934 1.19889 -1.02296 0
M  V30 213 C 21.6234 2.25141 -0.619174 0
M  V30 214 C 22.6044 1.66051 0.368915 0
M  V30 215 O 23.7894 1.92546 0.252941 0
M  V30 216 C 20.9194 3.4728 0.0368783 0
M  V30 217 C 19.8734 4.19005 -0.872865 0
M  V30 218 C 19.1994 5.34637 -0.0822402 0
M  V30 219 C 20.4994 4.74452 -2.18387 0
M  V30 220 H 22.1934 2.59171 -1.49903 0
M  V30 221 H 19.7394 1.24579 -0.722222 0
M  V30 222 H 21.6924 4.20098 0.330958 0
M  V30 223 H 20.4164 3.12433 0.95149 0
M  V30 224 H 19.0754 3.48061 -1.15105 0
M  V30 225 H 18.7234 4.96034 0.83422 0
M  V30 226 H 18.4234 5.83557 -0.688149 0
M  V30 227 H 19.9474 6.10255 0.205238 0
M  V30 228 H 21.3614 5.39055 -1.95172 0
M  V30 229 H 19.7584 5.33834 -2.74119 0
M  V30 230 H 20.8284 3.92844 -2.84257 0
M  V30 231 N 22.1715 0.800033 1.35784 0
M  V30 232 C 23.3995 0.389606 2.03199 0
M  V30 233 C 23.8145 -0.997375 1.60306 0
M  V30 234 O 23.1715 -1.64154 0.797481 0
M  V30 235 C 23.2225 0.455855 3.58614 0
M  V30 236 O 22.9435 1.78815 3.99946 0
M  V30 237 C 24.4445 0.0374032 4.43284 0
M  V30 238 H 21.6645 0.159132 0.651857 0
M  V30 239 H 24.2085 1.08183 1.73541 0
M  V30 240 H 22.3635 -0.188057 3.86943 0
M  V30 241 H 22.7775 1.74636 4.94573 0
M  V30 242 H 24.2515 0.134882 5.51835 0
M  V30 243 H 24.7285 -1.01651 4.27275 0
M  V30 244 H 25.3345 0.654215 4.20238 0
M  V30 245 N 23.6496 -1.47581 0.552962 0
M  V30 246 C 24.8956 -2.02782 0.0273648 0
M  V30 247 C 25.2286 -1.42687 -1.31734 0
M  V30 248 O 24.5036 -0.580897 -1.85623 0
M  V30 249 C 24.7866 -3.60031 -0.0702371 0
M  V30 250 C 24.6396 -4.30566 1.30126 0
M  V30 251 C 25.9586 -4.33028 -0.785771 0
M  V30 252 H 23.0776 -0.736912 0.0114185 0
M  V30 253 H 25.7196 -1.76056 0.714432 0
M  V30 254 H 23.8696 -3.82932 -0.655382 0
M  V30 255 H 25.5416 -4.19018 1.92929 0
M  V30 256 H 23.7846 -3.91086 1.87709 0
M  V30 257 H 24.4556 -5.39114 1.18573 0
M  V30 258 H 26.9316 -4.15095 -0.288982 0
M  V30 259 H 25.8076 -5.42695 -0.823013 0
M  V30 260 H 26.0686 -4.01945 -1.841 0
M  V30 261 N 25.1277 -0.289203 -1.54924 0
M  V30 262 C 26.0607 0.633823 -2.19221 0
M  V30 263 C 27.0387 1.14174 -1.15772 0
M  V30 264 O 28.2227 1.21211 -1.44361 0
M  V30 265 C 25.3497 1.86592 -2.82668 0
M  V30 266 C 24.3957 1.49227 -3.99542 0
M  V30 267 S 25.2287 0.558312 -5.32582 0
M  V30 268 C 26.3847 1.79847 -5.99505 0
M  V30 269 H 26.6177 0.0875416 -2.97171 0
M  V30 270 H 24.1507 -0.0733899 -1.54225 0
M  V30 271 H 26.1087 2.57305 -3.19851 0
M  V30 272 H 24.7697 2.38335 -2.04585 0
M  V30 273 H 23.9627 2.40945 -4.42676 0
M  V30 274 H 23.5647 0.865193 -3.63855 0
M  V30 275 H 25.8567 2.7406 -6.19595 0
M  V30 276 H 26.7997 1.4099 -6.93922 0
M  V30 277 H 27.2077 1.96982 -5.29016 0
M  V30 278 N 26.6058 1.57591 -0.0167156 0
M  V30 279 C 27.8518 1.91567 0.665582 0
M  V30 280 C 28.1848 0.892298 1.72487 0
M  V30 281 O 27.4598 -0.0867127 1.94307 0
M  V30 282 C 27.7428 3.36069 1.29342 0
M  V30 283 C 27.5958 4.49135 0.244541 0
M  V30 284 C 28.9148 3.803 2.21495 0
M  V30 285 H 26.0338 0.69666 0.240488 0
M  V30 286 H 28.6758 1.89866 -0.0714356 0
M  V30 287 H 26.8258 3.3765 1.92158 0
M  V30 288 H 28.4978 4.59689 -0.385228 0
M  V30 289 H 26.7408 4.3165 -0.431379 0
M  V30 290 H 27.4118 5.47242 0.723207 0
M  V30 291 H 29.8878 3.80377 1.68678 0
M  V30 292 H 28.7638 4.82127 2.62382 0
M  V30 293 H 29.0248 3.15104 3.101 0
M  V30 294 N 28.0839 -0.256276 1.55502 0
M  V30 295 C 29.0139 -1.32102 1.92539 0
M  V30 296 C 29.9949 -1.50684 0.789194 0
M  V30 297 O 31.1799 -1.63449 1.04872 0
M  V30 298 C 28.3099 -2.67752 2.21192 0
M  V30 299 C 27.2639 -2.63878 3.36975 0
M  V30 300 C 26.5899 -4.03236 3.51147 0
M  V30 301 C 27.8899 -2.21682 4.72921 0
M  V30 302 H 29.5839 -1.01351 2.81724 0
M  V30 303 H 27.1299 -0.486105 1.35547 0
M  V30 304 H 29.0829 -3.42365 2.45691 0
M  V30 305 H 27.8069 -3.0012 1.28824 0
M  V30 306 H 26.4659 -1.91722 3.12471 0
M  V30 307 H 26.1139 -4.32854 2.56216 0
M  V30 308 H 25.8139 -4.01535 4.29003 0
M  V30 309 H 27.3379 -4.79563 3.77957 0
M  V30 310 H 28.7519 -2.86023 4.96854 0
M  V30 311 H 27.1489 -2.3111 5.53812 0
M  V30 312 H 28.2189 -1.16833 4.70615 0
M  V30 313 N 29.562 -1.4872 -0.521534 0
M  V30 314 C 30.495 -1.58451 -1.64221 0
M  V30 315 C 31.473 -0.434513 -1.56687 0
M  V30 316 O 32.657 -0.647275 -1.77038 0
M  V30 317 C 29.784 -1.52037 -3.02659 0
M  V30 318 C 28.83 -2.71981 -3.28525 0
M  V30 319 S 29.663 -4.33869 -3.13876 0
M  V30 320 C 30.819 -4.30067 -4.54745 0
M  V30 321 H 31.052 -2.53256 -1.55719 0
M  V30 322 H 28.585 -1.37358 -0.705143 0
M  V30 323 H 30.543 -1.49023 -3.82495 0
M  V30 324 H 29.204 -0.585541 -3.08594 0
M  V30 325 H 28.397 -2.63656 -4.29536 0
M  V30 326 H 27.999 -2.72302 -2.56374 0
M  V30 327 H 30.291 -4.00521 -5.46433 0
M  V30 328 H 31.234 -5.31287 -4.68123 0
M  V30 329 H 31.642 -3.60419 -4.34463 0
M  V30 330 N 31.0401 0.771051 -1.3745 0
M  V30 331 C 32.2651 1.56529 -1.36065 0
M  V30 332 C 32.6901 1.88029 0.0515859 0
M  V30 333 O 32.0481 1.49282 1.02882 0
M  V30 334 C 32.0961 2.85187 -2.20683 0
M  V30 335 O 31.2001 3.79593 -1.61193 0
M  V30 336 H 30.5411 0.47411 -0.464883 0
M  V30 337 H 33.0711 0.954269 -1.80983 0
M  V30 338 H 33.0811 3.34283 -2.33921 0
M  V30 339 H 31.7561 2.61588 -3.23334 0
M  V30 340 H 30.3331 3.38239 -1.56999 0
M  V30 341 N 32.5182 1.22032 0.997298 0
M  V30 342 C 33.7642 1.04376 1.73878 0
M  V30 343 C 34.0972 -0.420716 1.89588 0
M  V30 344 O 33.3722 -1.31202 1.43583 0
M  V30 345 C 33.6552 1.75047 3.14691 0
M  V30 346 C 33.5082 3.29062 3.06656 0
M  V30 347 C 34.8272 1.49928 4.13775 0
M  V30 348 H 31.9462 0.380578 0.631133 0
M  V30 349 H 34.5882 1.50312 1.16217 0
M  V30 350 H 32.7382 1.35996 3.63919 0
M  V30 351 H 34.4102 3.7753 2.65083 0
M  V30 352 H 32.6532 3.58967 2.43568 0
M  V30 353 H 33.3242 3.73683 4.06282 0
M  V30 354 H 35.8002 1.83842 3.73285 0
M  V30 355 H 34.6762 2.01878 5.10428 0
M  V30 356 H 34.9372 0.430929 4.39995 0
M  V30 357 N 33.9963 -1.19345 1.0293 0
M  V30 358 C 35.2423 -1.89585 0.736824 0
M  V30 359 C 35.5973 -1.78148 -0.726703 0
M  V30 360 O 34.8903 -1.16332 -1.52242 0
M  V30 361 C 35.0843 -3.39292 1.12319 0
M  V30 362 C 34.9133 -3.65298 2.62273 0
M  V30 363 C 33.6833 -3.83304 3.29251 0
M  V30 364 C 35.8813 -3.6682 3.60482 0
M  V30 365 N 33.8633 -3.96944 4.68304 0
M  V30 366 C 35.2343 -3.86037 4.85155 0
M  V30 367 C 37.2893 -3.49848 3.54275 0
M  V30 368 C 35.9923 -3.9004 6.04369 0
M  V30 369 C 38.0183 -3.55129 4.72903 0
M  V30 370 C 37.3803 -3.74831 5.9639 0
M  V30 371 H 33.4793 -0.712856 0.321497 0
M  V30 372 H 36.0633 -1.43427 1.31669 0
M  V30 373 H 34.2343 -3.84172 0.571524 0
M  V30 374 H 35.9663 -3.97055 0.78292 0
M  V30 375 H 32.7213 -3.82211 2.79663 0
M  V30 376 H 33.1453 -4.07613 5.40538 0
M  V30 377 H 37.7873 -3.33572 2.59788 0
M  V30 378 H 35.5053 -4.05108 6.99223 0
M  V30 379 H 39.0913 -3.43287 4.69729 0
M  V30 380 H 37.9713 -3.78792 6.86649 0
M  V30 381 N 35.4744 -0.807222 -1.35358 0
M  V30 382 C 36.4064 -0.175717 -2.28525 0
M  V30 383 C 37.4194 0.625354 -1.5031 0
M  V30 384 O 38.6084 0.457611 -1.72535 0
M  V30 385 C 35.7084 0.773471 -3.29956 0
M  V30 386 C 34.8814 0.0186296 -4.37396 0
M  V30 387 C 33.9404 0.886395 -5.18681 0
M  V30 388 O 32.9664 0.337106 -5.68201 0
M  V30 389 N 34.1684 2.20839 -5.36852 0
M  V30 390 H 36.9334 -0.976091 -2.83359 0
M  V30 391 H 34.4944 -0.662737 -1.47714 0
M  V30 392 H 36.4864 1.35824 -3.81227 0
M  V30 393 H 35.0564 1.47465 -2.75632 0
M  V30 394 H 34.2764 -0.747349 -3.87051 0
M  V30 395 H 35.5644 -0.501577 -5.06322 0
M  V30 396 H 34.9624 2.67858 -4.98265 0
M  V30 397 H 33.5194 2.74237 -5.91301 0
M  V30 398 N 36.9525 1.47285 -0.560781 0
M  V30 399 C 37.8845 2.28118 0.222438 0
M  V30 400 C 38.8975 1.37219 0.876056 0
M  V30 401 O 40.0865 1.62011 0.749307 0
M  V30 402 C 37.1865 3.1159 1.33285 0
M  V30 403 C 36.3595 4.30473 0.77534 0
M  V30 404 C 35.4185 4.95513 1.77069 0
M  V30 405 O 34.4445 5.53792 1.31539 0
M  V30 406 N 35.6465 4.90531 3.10418 0
M  V30 407 H 38.4115 2.95976 -0.470958 0
M  V30 408 H 35.9725 1.56955 -0.39709 0
M  V30 409 H 37.9645 3.51967 1.99752 0
M  V30 410 H 36.5345 2.45951 1.92943 0
M  V30 411 H 35.7545 3.94144 -0.0662113 0
M  V30 412 H 37.0425 5.07362 0.382272 0
M  V30 413 H 36.4405 4.44389 3.5005 0
M  V30 414 H 34.9975 5.34917 3.72434 0
M  V30 415 N 38.4306 0.297415 1.54768 0
M  V30 416 C 39.8466 -0.0560823 1.59501 0
M  V30 417 C 40.0466 -1.52725 1.31444 0
M  V30 418 O 39.1026 -2.27947 1.08611 0
M  V30 419 C 40.4156 0.338631 2.98787 0
M  V30 420 C 41.9636 0.287097 3.11681 0
M  V30 421 C 42.4386 0.656579 4.53269 0
M  V30 422 N 43.9296 0.608977 4.59179 0
M  V30 423 C 44.6646 0.867385 5.66802 0
M  V30 424 N 44.1606 1.19157 6.82476 0
M  V30 425 N 45.9536 0.794687 5.56454 0
M  V30 426 H 38.1046 1.25624 1.71267 0
M  V30 427 H 40.3676 0.509057 0.799728 0
M  V30 428 H 40.0736 1.36263 3.2423 0
M  V30 429 H 39.9476 -0.309508 3.75928 0
M  V30 430 H 42.3346 -0.727649 2.85988 0
M  V30 431 H 42.4156 0.969809 2.36703 0
M  V30 432 H 42.0596 1.66912 4.7969 0
M  V30 433 H 41.9896 -0.0481649 5.26578 0
M  V30 434 H 44.4806 0.369198 3.76092 0
M  V30 435 H 44.7936 1.37482 7.60473 0
M  V30 436 H 43.1386 1.22958 6.84037 0
M  V30 437 H 46.3296 0.541098 4.64962 0
M  V30 438 H 46.5026 0.999445 6.40246 0
M  V30 439 N 39.9087 -1.5758 0.0250728 0
M  V30 440 C 40.8557 -2.09973 -0.958129 0
M  V30 441 C 41.8257 -1.00085 -1.3256 0
M  V30 442 O 43.0107 -1.27481 -1.41962 0
M  V30 443 C 40.1507 -2.62812 -2.2366 0
M  V30 444 C 39.2637 -3.86693 -1.92594 0
M  V30 445 C 38.3987 -4.27941 -3.14707 0
M  V30 446 C 37.4377 -5.44591 -2.79442 0
M  V30 447 N 36.5747 -5.81014 -3.94167 0
M  V30 448 H 41.4147 -2.937 -0.504428 0
M  V30 449 H 38.9517 -1.45172 -0.237392 0
M  V30 450 H 40.9097 -2.91536 -2.98434 0
M  V30 451 H 39.5397 -1.81922 -2.66654 0
M  V30 452 H 38.5917 -3.64723 -1.0808 0
M  V30 453 H 39.9037 -4.71547 -1.62619 0
M  V30 454 H 39.0577 -4.58079 -3.97804 0
M  V30 455 H 37.7967 -3.41845 -3.4784 0
M  V30 456 H 36.8017 -5.1415 -1.94755 0
M  V30 457 H 38.0267 -6.32382 -2.47528 0
M  V30 458 H 35.9727 -4.97874 -4.2715 0
M  V30 459 H 35.8897 -6.60498 -3.67801 0
M  V30 460 H 37.1577 -6.15756 -4.7798 0
M  V30 461 N 41.3868 0.248026 -1.55636 0
M  V30 462 C 42.6118 0.998028 -1.81808 0
M  V30 463 C 43.0368 1.78207 -0.601979 0
M  V30 464 O 42.3948 1.75653 0.448961 0
M  V30 465 C 42.4428 1.9125 -3.05705 0
M  V30 466 O 41.5468 3.00406 -2.82542 0
M  V30 467 H 40.8878 0.284045 -0.600179 0
M  V30 468 H 43.4178 0.269357 -2.02819 0
M  V30 469 H 43.4278 2.32737 -3.35108 0
M  V30 470 H 42.1028 1.33602 -3.93857 0
M  V30 471 H 40.6798 2.63056 -2.64303 0
M  V30 472 N 42.8649 1.48995 0.513639 0
M  V30 473 C 43.8119 1.6473 1.61656 0
M  V30 474 C 44.7819 0.488984 1.58739 0
M  V30 475 O 45.9669 0.714478 1.76918 0
M  V30 476 C 43.1069 1.7082 2.99858 0
M  V30 477 C 42.2199 2.9787 3.12885 0
M  V30 478 C 41.3549 2.95017 4.41744 0
M  V30 479 C 40.3939 4.16702 4.48359 0
M  V30 480 N 39.5309 4.11832 5.68629 0
M  V30 481 H 44.3709 2.58909 1.47547 0
M  V30 482 H 41.9079 1.28382 0.71808 0
M  V30 483 H 43.8659 1.72331 3.79944 0
M  V30 484 H 42.4959 0.801181 3.12699 0
M  V30 485 H 41.5479 3.06029 2.25944 0
M  V30 486 H 42.8599 3.8786 3.13633 0
M  V30 487 H 42.0139 2.95021 5.30139 0
M  V30 488 H 40.7529 2.02784 4.43542 0
M  V30 489 H 39.7579 4.16955 3.58369 0
M  V30 490 H 40.9829 5.10113 4.48287 0
M  V30 491 H 38.9289 3.22428 5.71293 0
M  V30 492 H 38.8459 4.95543 5.7094 0
M  V30 493 H 40.1139 4.1592 6.59266 0
M  V30 494 N 44.343 -0.763751 1.37857 0
M  V30 495 C 45.591 -1.51957 1.33243 0
M  V30 496 C 45.912 -1.94835 -0.0801709 0
M  V30 497 O 45.182 -1.66894 -1.02582 0
M  V30 498 H 43.762 -0.563626 0.49024 0
M  V30 499 H 46.424 -0.908504 1.7243 0
M  V30 500 H 45.52 -2.41523 1.97669 0
M  V30 501 N 45.8211 -1.22559 -0.990812 0
M  V30 502 C 46.7681 -0.997519 -2.0813 0
M  V30 503 C 47.7381 0.0814702 -1.659 0
M  V30 504 O 48.9231 -0.0685424 -1.90677 0
M  V30 505 C 46.0631 -0.583615 -3.40129 0
M  V30 506 C 45.1761 -1.7336 -3.9569 0
M  V30 507 C 44.3111 -1.26748 -5.15857 0
M  V30 508 C 43.3501 -2.38888 -5.63559 0
M  V30 509 N 42.4871 -1.93308 -6.74964 0
M  V30 510 H 47.3271 -1.93099 -2.26973 0
M  V30 511 H 44.8641 -0.962114 -1.11273 0
M  V30 512 H 46.8221 -0.324801 -4.15934 0
M  V30 513 H 45.4521 0.312845 -3.2128 0
M  V30 514 H 44.5041 -2.10669 -3.16738 0
M  V30 515 H 45.8161 -2.57704 -4.27071 0
M  V30 516 H 44.9701 -0.966173 -5.98957 0
M  V30 517 H 43.7091 -0.394272 -4.86104 0
M  V30 518 H 42.7141 -2.69805 -4.79046 0
M  V30 519 H 43.9391 -3.26728 -5.95336 0
M  V30 520 H 41.8851 -1.08352 -6.4699 0
M  V30 521 H 41.8021 -2.71217 -7.05675 0
M  V30 522 H 43.0701 -1.66252 -7.61564 0
M  V30 523 N 47.2992 1.18797 -1.03562 0
M  V30 524 C 48.2292 2.24472 -0.643019 0
M  V30 525 C 49.2102 1.66433 0.351283 0
M  V30 526 O 50.3952 1.92803 0.232505 0
M  V30 527 C 47.5252 3.473 4.24935e-05 0
M  V30 528 C 46.4792 4.18055 -0.917257 0
M  V30 529 C 45.8052 5.34519 -0.138941 0
M  V30 530 C 47.1052 4.72109 -2.23407 0
M  V30 531 H 48.7992 2.57566 -1.52643 0
M  V30 532 H 46.3452 1.23806 -0.735394 0
M  V30 533 H 48.2982 4.20426 0.286383 0
M  V30 534 H 47.0222 3.13424 0.918299 0
M  V30 535 H 45.6812 3.46821 -1.1879 0
M  V30 536 H 45.3292 4.96891 0.781562 0
M  V30 537 H 45.0292 5.82794 -0.750005 0
M  V30 538 H 46.5532 6.10438 0.1405 0
M  V30 539 H 47.9672 5.36955 -2.00879 0
M  V30 540 H 46.3642 5.30897 -2.79765 0
M  V30 541 H 47.4342 3.89807 -2.88407 0
M  V30 542 N 48.7773 0.814389 1.34928 0
M  V30 543 C 50.1883 0.458364 1.80986 0
M  V30 544 C 50.5393 -1.02042 1.67577 0
M  V30 545 O 49.6643 -1.79352 1.21086 0
M  V30 546 C 50.2593 0.825212 3.28597 0
M  V30 547 C 48.8183 0.521677 3.72767 0
M  V30 548 C 47.9653 1.04668 2.56788 0
M  V30 549 H 50.9163 1.00533 1.22795 0
M  V30 550 H 50.9373 0.12571 3.80292 0
M  V30 551 H 50.4493 1.90154 3.38324 0
M  V30 552 H 48.5503 -0.545589 3.68584 0
M  V30 553 H 48.6633 1.05977 4.67232 0
M  V30 554 H 47.0273 0.468622 2.50352 0
M  V30 555 H 47.8103 2.12927 2.6929 0
M  V30 556 N 50.2554 -1.46986 0.568584 0
M  V30 557 C 51.6664 -1.86188 0.138219 0
M  V30 558 C 52.0174 -1.47388 -1.29504 0
M  V30 559 O 51.1424 -0.88219 -1.97602 0
M  V30 560 C 51.7374 -3.3792 0.244065 0
M  V30 561 C 50.2964 -3.76171 -0.131335 0
M  V30 562 C 49.4434 -2.71027 0.586465 0
M  V30 563 H 52.3944 -1.38342 0.777645 0
M  V30 564 H 52.4154 -3.76729 -0.534351 0
M  V30 565 H 51.9274 -3.66128 1.28731 0
M  V30 566 H 50.0284 -3.5358 -1.17526 0
M  V30 567 H 50.1414 -4.78523 0.235146 0
M  V30 568 H 48.5054 -2.54684 0.0282722 0
M  V30 569 H 49.2884 -3.02077 1.63109 0
M  V30 570 N 51.7335 -0.305618 -1.54608 0
M  V30 571 C 52.9815 0.301701 -1.99835 0
M  V30 572 C 53.3025 1.54054 -1.19551 0
M  V30 573 O 52.5725 1.93702 -0.292658 0
M  V30 574 H 51.1525 0.114468 -0.738178 0
M  V30 575 H 53.8145 -0.418016 -1.90364 0
M  V30 576 H 52.9105 0.570548 -3.06841 0
M  V30 577 N 53.2116 1.57565 -0.0334293 0
M  V30 578 C 54.6226 1.79746 0.504798 0
M  V30 579 C 54.9736 0.944091 1.71992 0
M  V30 580 O 54.0986 0.155694 2.15839 0
M  V30 581 C 54.6936 3.25997 0.922567 0
M  V30 582 C 53.2526 3.49159 1.40588 0
M  V30 583 C 52.3996 2.74785 0.372633 0
M  V30 584 H 55.3506 1.56565 -0.259436 0
M  V30 585 H 55.3716 3.35945 1.78666 0
M  V30 586 H 54.8836 3.88081 0.0379825 0
M  V30 587 H 52.9846 2.92332 2.31025 0
M  V30 588 H 53.0976 4.57873 1.41028 0
M  V30 589 H 51.4616 2.40391 0.841672 0
M  V30 590 H 52.2446 3.39587 -0.503559 0
M  V30 591 N 54.6897 -0.239769 1.55765 0
M  V30 592 C 55.9177 -0.98417 1.81994 0
M  V30 593 C 56.3327 -1.7867 0.610124 0
M  V30 594 O 55.6897 -1.77571 -0.421271 0
M  V30 595 C 55.7407 -1.91635 3.06526 0
M  V30 596 O 55.4617 -1.14629 4.22838 0
M  V30 597 C 56.9627 -2.77616 3.45607 0
M  V30 598 H 54.1827 -0.28928 0.605441 0
M  V30 599 H 56.7267 -0.260499 2.02834 0
M  V30 600 H 54.8817 -2.5942 2.87715 0
M  V30 601 H 55.2957 -1.77745 4.93464 0
M  V30 602 H 56.7697 -3.38759 4.35828 0
M  V30 603 H 57.2467 -3.4909 2.6652 0
M  V30 604 H 57.8527 -2.15271 3.66795 0
M  V30 605 N 56.1678 -1.49265 -0.50573 0
M  V30 606 C 57.5788 -1.51769 -1.08734 0
M  V30 607 C 57.9298 -0.301192 -1.93874 0
M  V30 608 O 57.0548 0.589456 -2.08217 0
M  V30 609 C 57.6498 -2.75017 -1.97867 0
M  V30 610 C 56.2088 -2.80314 -2.51199 0
M  V30 611 C 55.3558 -2.4562 -1.28709 0
M  V30 612 H 58.3068 -1.56031 -0.289855 0
M  V30 613 H 58.3278 -2.5491 -2.82491 0
M  V30 614 H 57.8398 -3.63539 -1.35873 0
M  V30 615 H 55.9408 -1.96061 -3.16845 0
M  V30 616 H 56.0538 -3.82366 -2.88675 0
M  V30 617 H 54.4178 -1.97297 -1.61078 0
M  V30 618 H 55.2008 -3.36411 -0.6843 0
M  V30 619 N 57.6459 0.756429 -1.3826 0
M  V30 620 C 58.5759 1.88374 -1.37976 0
M  V30 621 C 59.5569 1.68311 -0.246082 0
M  V30 622 O 60.7419 1.88944 -0.44874 0
M  V30 623 C 57.8719 3.25864 -1.20125 0
M  V30 624 C 56.8259 3.60523 -2.30666 0
M  V30 625 C 56.1519 4.9672 -1.97923 0
M  V30 626 C 57.4519 3.65692 -3.72916 0
M  V30 627 H 59.1459 1.88869 -2.32312 0
M  V30 628 H 56.6919 0.907272 -1.11824 0
M  V30 629 H 58.6449 4.0438 -1.18552 0
M  V30 630 H 57.3689 3.25841 -0.222498 0
M  V30 631 H 56.0279 2.84324 -2.3142 0
M  V30 632 H 55.6759 4.93253 -0.985393 0
M  V30 633 H 55.3759 5.20878 -2.71955 0
M  V30 634 H 56.8999 5.77618 -1.97964 0
M  V30 635 H 58.3139 4.34328 -3.74208 0
M  V30 636 H 56.7109 4.01358 -4.4613 0
M  V30 637 H 57.7809 2.65987 -4.05436 0
M  V30 638 N 59.124 1.23083 0.984299 0
M  V30 639 C 60.535 1.05609 1.5396 0
M  V30 640 C 60.886 -0.377793 1.92528 0
M  V30 641 O 60.011 -1.26398 1.75649 0
M  V30 642 C 60.606 1.91087 2.7977 0
M  V30 643 C 59.165 1.77885 3.31713 0
M  V30 644 C 58.312 1.87028 2.04733 0
M  V30 645 H 61.263 1.36802 0.804419 0
M  V30 646 H 61.284 1.43336 3.5247 0
M  V30 647 H 60.796 2.9544 2.51668 0
M  V30 648 H 58.897 0.762995 3.64704 0
M  V30 649 H 59.01 2.61047 4.01735 0
M  V30 650 H 57.374 1.30565 2.18689 0
M  V30 651 H 58.157 2.92929 1.79017 0
M  V30 652 N 60.6021 -1.18246 1.0419 0
M  V30 653 C 61.8491 -1.88257 0.746017 0
M  V30 654 C 62.1771 -1.80429 -0.726331 0
M  V30 655 O 61.4321 -1.2 -1.54591 0
M  V30 656 C 61.7311 -3.38082 1.15911 0
M  V30 657 C 61.3971 -3.66114 2.63195 0
M  V30 658 C 60.0591 -3.73474 3.03432 0
M  V30 659 C 62.4111 -3.78398 3.5842 0
M  V30 660 C 59.7391 -3.90599 4.37778 0
M  V30 661 C 62.0911 -3.97039 4.92487 0
M  V30 662 C 60.7551 -4.02635 5.32392 0
M  V30 663 H 60.0251 -0.688883 0.272987 0
M  V30 664 H 62.6721 -1.3995 1.30715 0
M  V30 665 H 60.9771 -3.88377 0.516806 0
M  V30 666 H 62.6741 -3.90596 0.907516 0
M  V30 667 H 59.2641 -3.61003 2.3103 0
M  V30 668 H 63.4481 -3.72042 3.28479 0
M  V30 669 H 58.7041 -3.93175 4.68213 0
M  V30 670 H 62.8781 -4.05486 5.66175 0
M  V30 671 H 60.5051 -4.15657 6.36501 0
M  V30 672 N 62.0802 -0.821533 -1.34494 0
M  V30 673 C 63.3292 -0.405355 -1.97585 0
M  V30 674 C 63.6422 1.03677 -1.65863 0
M  V30 675 O 64.8482 1.55679 -2.22433 0
M  V30 676 C 63.3042 -0.673861 -3.53535 0
M  V30 677 C 62.9122 -2.12951 -3.94152 0
M  V30 678 C 64.6562 -0.32378 -4.23263 0
M  V30 679 C 62.5632 -2.34298 -5.43009 0
M  V30 680 H 61.4932 -0.147836 -0.739365 0
M  V30 681 H 64.1442 -1.00769 -1.53355 0
M  V30 682 H 62.5262 -0.00137554 -3.96 0
M  V30 683 H 63.7002 -2.84104 -3.62797 0
M  V30 684 H 62.0152 -2.44089 -3.37356 0
M  V30 685 H 64.6122 -0.461126 -5.32708 0
M  V30 686 H 64.9552 0.731586 -4.09821 0
M  V30 687 H 65.4882 -0.950786 -3.8627 0
M  V30 688 H 62.2272 -3.38335 -5.61435 0
M  V30 689 H 61.7472 -1.67687 -5.75883 0
M  V30 690 H 63.4262 -2.16588 -6.09671 0
M  V30 691 N 63.5583 1.46682 -0.576371 0
M  V30 692 C 64.8063 2.02013 -0.0594163 0
M  V30 693 C 65.1273 1.45101 1.30271 0
M  V30 694 O 64.3973 0.633317 1.8538 0
M  V30 695 H 62.9773 0.746759 -0.0189745 0
M  V30 696 H 65.6393 1.79862 -0.750717 0
M  V30 697 H 64.7353 3.12097 0.014345 0
M  V30 698 N 65.0364 0.313813 1.54444 0
M  V30 699 C 65.9844 -0.572171 2.25453 0
M  V30 700 C 66.9784 -1.12657 1.2651 0
M  V30 701 O 68.1844 -1.07573 1.44319 0
M  V30 702 H 64.5594 -0.203146 0.724041 0
M  V30 703 H 66.5304 0.0491145 2.9836 0
M  V30 704 C 65.2794 -1.72626 3.0182 0
M  V30 705 H 64.6024 -1.30891 3.77767 0
M  V30 706 H 66.0424 -2.32199 3.54767 0
M  V30 707 C 64.5014 -2.63806 2.09542 0
M  V30 708 O 65.0314 -3.65256 1.67185 0
M  V30 709 N 63.2374 -2.31824 1.75232 0
M  V30 710 H 62.7844 -1.49368 2.09873 0
M  V30 711 H 62.7424 -2.93095 1.13767 0
M  V30 712 N 66.5145 -1.57545 0.0417849 0
M  V30 713 C 67.7445 -1.96339 -0.642995 0
M  V30 714 C 68.1525 -0.917536 -1.65463 0
M  V30 715 O 67.4955 0.107747 -1.83384 0
M  V30 716 C 67.5575 -3.31333 -1.39494 0
M  V30 717 C 67.2215 -4.53796 -0.540204 0
M  V30 718 C 68.2185 -5.19553 0.189806 0
M  V30 719 C 65.9035 -5.0006 -0.473886 0
M  V30 720 C 67.8975 -6.29904 0.974674 0
M  V30 721 C 65.5845 -6.10289 0.314677 0
M  V30 722 C 66.5825 -6.75072 1.03765 0
M  V30 723 O 66.2705 -7.83183 1.81327 0
M  V30 724 H 66.0025 -0.651241 -0.181277 0
M  V30 725 H 68.5565 -2.05148 0.101665 0
M  V30 726 H 66.7865 -3.19052 -2.18502 0
M  V30 727 H 68.4755 -3.54942 -1.96904 0
M  V30 728 H 69.2415 -4.84774 0.147981 0
M  V30 729 H 65.1205 -4.49433 -1.0262 0
M  V30 730 H 68.6645 -6.80401 1.5395 0
M  V30 731 H 64.5615 -6.44506 0.358174 0
M  V30 732 H 65.3295 -7.99913 1.73438 0
M  V30 733 N 67.9926 0.231505 -1.5589 0
M  V30 734 C 68.9226 1.29022 -1.94617 0
M  V30 735 C 69.9036 1.4941 -0.813067 0
M  V30 736 O 71.0886 1.6176 -1.07459 0
M  V30 737 C 68.2186 2.64199 -2.25424 0
M  V30 738 C 67.1726 2.58484 -3.41131 0
M  V30 739 C 66.4986 3.97599 -3.57518 0
M  V30 740 C 67.7986 2.1413 -4.76388 0
M  V30 741 H 69.4926 0.968563 -2.83301 0
M  V30 742 H 67.0386 0.464479 -1.36303 0
M  V30 743 H 68.9916 3.38413 -2.51107 0
M  V30 744 H 67.7156 2.98032 -1.33583 0
M  V30 745 H 66.3746 1.86727 -3.15481 0
M  V30 746 H 66.0226 4.28723 -2.6307 0
M  V30 747 H 65.7226 3.94659 -4.35337 0
M  V30 748 H 67.2466 4.7349 -3.85538 0
M  V30 749 H 68.6606 2.78083 -5.01341 0
M  V30 750 H 67.0576 2.2227 -5.57419 0
M  V30 751 H 68.1276 1.09331 -4.72414 0
M  V30 752 N 69.4707 1.49531 0.497807 0
M  V30 753 C 70.4027 1.62559 1.61578 0
M  V30 754 C 71.4157 0.508134 1.54667 0
M  V30 755 O 72.6047 0.780309 1.60541 0
M  V30 756 C 69.7047 1.56925 3.00379 0
M  V30 757 C 68.8777 2.84257 3.3244 0
M  V30 758 C 67.9367 2.71632 4.50669 0
M  V30 759 O 66.9627 3.4557 4.52294 0
M  V30 760 N 68.1647 1.83391 5.5077 0
M  V30 761 H 70.9297 2.58981 1.50828 0
M  V30 762 H 68.4907 1.4666 0.685743 0
M  V30 763 H 70.4827 1.46129 3.77397 0
M  V30 764 H 69.0527 0.683483 3.05037 0
M  V30 765 H 68.2727 3.09381 2.44289 0
M  V30 766 H 69.5607 3.68666 3.5066 0
M  V30 767 H 68.9587 1.22583 5.52259 0
M  V30 768 H 67.5157 1.78515 6.26878 0
M  V30 769 N 70.9488 -0.749086 1.3866 0
M  V30 770 C 71.8788 -1.8764 1.38973 0
M  V30 771 C 72.8598 -1.68178 0.255004 0
M  V30 772 O 74.0448 -1.88704 0.458754 0
M  V30 773 C 71.1748 -3.25222 1.21851 0
M  V30 774 C 70.1288 -3.59295 2.32575 0
M  V30 775 C 69.4548 -4.95663 2.00555 0
M  V30 776 C 70.7548 -3.63709 3.7485 0
M  V30 777 H 72.4488 -1.87635 2.3331 0
M  V30 778 H 69.9948 -0.901329 1.12303 0
M  V30 779 H 71.9478 -4.03746 1.20695 0
M  V30 780 H 70.6718 -3.25719 0.239775 0
M  V30 781 H 69.3308 -2.83093 2.32925 0
M  V30 782 H 68.9788 -4.92724 1.01154 0
M  V30 783 H 68.6788 -5.19429 2.74714 0
M  V30 784 H 70.2028 -5.7656 2.01024 0
M  V30 785 H 71.6168 -4.32338 3.76506 0
M  V30 786 H 70.0138 -3.98986 4.48252 0
M  V30 787 H 71.0838 -2.63834 4.06841 0
M  V30 788 N 72.4269 -1.23603 -0.977757 0
M  V30 789 C 73.3749 -1.01704 -2.09187 0
M  V30 790 C 74.3689 0.0448214 -1.69341 0
M  V30 791 O 75.5749 -0.108902 -1.7967 0
M  V30 792 H 71.9499 -0.311803 -0.684312 0
M  V30 793 H 73.9209 -1.96207 -2.24823 0
M  V30 794 C 72.6699 -0.627746 -3.41986 0
M  V30 795 H 71.9929 -1.43656 -3.73099 0
M  V30 796 H 73.4329 -0.514053 -4.20872 0
M  V30 797 C 71.8919 0.664238 -3.30287 0
M  V30 798 O 72.4219 1.71268 -3.6336 0
M  V30 799 N 70.6279 0.641156 -2.83439 0
M  V30 800 H 70.1749 -0.212376 -2.56723 0
M  V30 801 H 70.1329 1.50583 -2.75993 0
M  V30 802 N 73.905 1.17692 -1.04816 0
M  V30 803 C 75.133 1.91786 -0.776254 0
M  V30 804 C 75.548 1.76604 0.667577 0
M  V30 805 O 74.905 1.10067 1.45573 0
M  V30 806 C 74.956 3.42967 -1.14263 0
M  V30 807 O 74.677 3.57678 -2.52978 0
M  V30 808 C 76.178 4.34144 -0.896311 0
M  V30 809 H 73.398 0.608624 -0.282519 0
M  V30 810 H 75.942 1.49268 -1.39783 0
M  V30 811 H 74.097 3.83245 -0.565874 0
M  V30 812 H 74.511 4.51319 -2.67229 0
M  V30 813 H 75.985 5.38744 -1.20244 0
M  V30 814 H 76.462 4.38876 0.168636 0
M  V30 815 H 77.068 3.99574 -1.45672 0
M  V30 816 N 75.3831 0.828654 1.34056 0
M  V30 817 C 76.2931 0.256725 2.33191 0
M  V30 818 C 77.3091 -0.611898 1.62886 0
M  V30 819 O 78.4851 -0.51844 1.94613 0
M  V30 820 C 75.5501 -0.567238 3.42028 0
M  V30 821 C 74.6111 0.324458 4.28072 0
M  V30 822 C 73.8441 -0.460274 5.31712 0
M  V30 823 O 74.0671 -1.693 5.44696 0
M  V30 824 O 73.0011 0.160391 6.01686 0
M  V30 825 H 76.8271 1.07739 2.83947 0
M  V30 826 H 74.4121 0.59093 1.37217 0
M  V30 827 H 76.2941 -1.03582 4.08471 0
M  V30 828 H 74.9691 -1.36513 2.93506 0
M  V30 829 H 73.8761 0.840659 3.64532 0
M  V30 830 H 75.2091 1.08685 4.8005 0
M  V30 831 N 76.8612 -1.46375 0.584142 0
M  V30 832 C 77.7932 -2.28443 -0.186119 0
M  V30 833 C 78.8062 -1.38596 -0.854115 0
M  V30 834 O 79.9952 -1.63183 -0.723438 0
M  V30 835 C 77.0952 -3.13671 -1.28311 0
M  V30 836 C 76.2682 -4.31652 -0.706758 0
M  V30 837 C 75.3272 -4.98267 -1.69163 0
M  V30 838 O 74.3532 -5.55815 -1.22712 0
M  V30 839 N 75.5552 -4.95408 -3.02575 0
M  V30 840 H 78.3202 -2.9519 0.517986 0
M  V30 841 H 75.8812 -1.56303 0.42201 0
M  V30 842 H 77.8732 -3.55101 -1.94128 0
M  V30 843 H 76.4432 -2.48989 -1.89005 0
M  V30 844 H 75.6632 -3.93989 0.128908 0
M  V30 845 H 76.9512 -5.07906 -0.301506 0
M  V30 846 H 76.3492 -4.49902 -3.42936 0
M  V30 847 H 74.9062 -5.40774 -3.63877 0
M  V30 848 N 78.3393 -0.321999 -1.54275 0
M  V30 849 C 79.2723 0.58718 -2.20516 0
M  V30 850 C 80.2503 1.11693 -1.18167 0
M  V30 851 O 81.4343 1.18122 -1.46899 0
M  V30 852 C 78.5613 1.80554 -2.86562 0
M  V30 853 C 77.6073 1.40718 -4.02617 0
M  V30 854 S 78.4403 0.445218 -5.33646 0
M  V30 855 C 79.5963 1.6709 -6.03185 0
M  V30 856 H 79.8293 0.0244875 -2.9729 0
M  V30 857 H 77.3623 -0.106087 -1.54035 0
M  V30 858 H 79.3203 2.50462 -3.25237 0
M  V30 859 H 77.9813 2.33942 -2.09595 0
M  V30 860 H 77.1743 2.31501 -4.47687 0
M  V30 861 H 76.7763 0.78782 -3.65608 0
M  V30 862 H 79.0683 2.60856 -6.25268 0
M  V30 863 H 80.0113 1.26239 -6.96756 0
M  V30 864 H 80.4193 1.85716 -5.33076 0
M  V30 865 N 79.8174 1.5752 -0.0501392 0
M  V30 866 C 81.0474 1.96678 0.632573 0
M  V30 867 C 81.4554 0.926298 1.64974 0
M  V30 868 O 80.7984 -0.09802 1.83438 0
M  V30 869 C 80.8604 3.32068 1.37735 0
M  V30 870 C 80.5244 4.54076 0.516131 0
M  V30 871 C 81.5214 5.19445 -0.217357 0
M  V30 872 C 79.2064 5.00304 0.44736 0
M  V30 873 C 81.2004 6.29378 -1.00807 0
M  V30 874 C 78.8874 6.10114 -0.347038 0
M  V30 875 C 79.8854 6.74512 -1.07344 0
M  V30 876 O 79.5734 7.82211 -1.85477 0
M  V30 877 H 79.3054 0.652193 0.177821 0
M  V30 878 H 81.8594 2.05091 -0.112543 0
M  V30 879 H 80.0894 3.20206 2.16807 0
M  V30 880 H 81.7784 3.55981 1.95019 0
M  V30 881 H 82.5444 4.84689 -0.173688 0
M  V30 882 H 78.4234 4.49971 1.00235 0
M  V30 883 H 81.9674 6.79575 -1.57556 0
M  V30 884 H 77.8644 6.44307 -0.392349 0
M  V30 885 H 78.6324 7.98982 -1.77678 0
M  V30 886 N 81.2955 -0.223234 1.56011 0
M  V30 887 C 82.2435 -1.29627 1.93131 0
M  V30 888 C 83.2375 -1.48608 0.813146 0
M  V30 889 O 84.4435 -1.49802 0.997966 0
M  V30 890 H 80.8185 -0.434563 0.613726 0
M  V30 891 H 82.7895 -0.955995 2.82672 0
M  V30 892 C 81.5385 -2.63983 2.26292 0
M  V30 893 H 80.8615 -2.50185 3.11846 0
M  V30 894 H 82.3015 -3.3788 2.56151 0
M  V30 895 C 80.7605 -3.18866 1.08747 0
M  V30 896 O 81.2905 -4.00192 0.347727 0
M  V30 897 N 79.4965 -2.77217 0.871743 0
M  V30 898 H 79.0435 -2.1119 1.47501 0
M  V30 899 H 79.0015 -3.1428 0.0869905 0
M  V30 900 N 82.7736 -1.49793 -0.48987 0
M  V30 901 C 83.9986 -1.63836 -1.27172 0
M  V30 902 C 84.4236 -0.31402 -1.8546 0
M  V30 903 O 83.7816 0.719803 -1.66399 0
M  V30 904 C 83.8296 -2.71797 -2.36978 0
M  V30 905 O 82.9336 -2.31744 -3.41128 0
M  V30 906 H 82.2746 -0.547997 -0.37496 0
M  V30 907 H 84.8046 -1.96053 -0.585191 0
M  V30 908 H 84.8146 -2.94305 -2.82575 0
M  V30 909 H 83.4896 -3.67923 -1.93921 0
M  V30 910 H 82.0666 -2.1961 -3.01373 0
M  V30 911 N 84.2517 0.741722 -1.39055 0
M  V30 912 C 85.1817 1.869 -1.39966 0
M  V30 913 C 86.1627 1.6804 -0.26392 0
M  V30 914 O 87.3477 1.88458 -0.468755 0
M  V30 915 C 84.4777 3.24572 -1.23574 0
M  V30 916 C 83.4317 3.58056 -2.34477 0
M  V30 917 C 82.7577 4.94593 -2.0318 0
M  V30 918 C 84.0577 3.61716 -3.76774 0
M  V30 919 H 85.7517 1.86395 -2.34302 0
M  V30 920 H 83.2977 0.895361 -1.1278 0
M  V30 921 H 85.2507 4.031 -1.22834 0
M  V30 922 H 83.9747 3.25587 -0.257045 0
M  V30 923 H 82.6337 2.81854 -2.34423 0
M  V30 924 H 82.2817 4.92181 -1.03765 0
M  V30 925 H 81.9817 5.17964 -2.77465 0
M  V30 926 H 83.5057 5.75486 -2.04079 0
M  V30 927 H 84.9197 4.30335 -3.78794 0
M  V30 928 H 83.3167 3.96603 -4.50362 0
M  V30 929 H 84.3867 2.61672 -4.08235 0
M  V30 930 N 85.7298 1.2412 0.971189 0
M  V30 931 C 86.6628 0.97373 2.06382 0
M  V30 932 C 87.6408 -0.0912662 1.62344 0
M  V30 933 O 88.8248 0.0449365 1.88446 0
M  V30 934 C 85.9518 0.468746 3.35441 0
M  V30 935 C 84.9978 1.52176 3.98428 0
M  V30 936 S 85.8308 3.10203 4.36503 0
M  V30 937 C 86.9868 2.61398 5.68702 0
M  V30 938 H 87.2198 1.89893 2.28753 0
M  V30 939 H 84.7528 1.07466 1.10862 0
M  V30 940 H 86.7108 0.184012 4.10087 0
M  V30 941 H 85.3718 -0.435688 3.11064 0
M  V30 942 H 84.5648 1.11876 4.91426 0
M  V30 943 H 84.1668 1.75632 3.30196 0
M  V30 944 H 86.4588 2.03992 6.4606 0
M  V30 945 H 87.4018 3.52972 6.13854 0
M  V30 946 H 87.8098 2.01941 5.27143 0
M  V30 947 N 87.2079 -1.17134 1.05439 0
M  V30 948 C 88.1549 -2.21235 0.657539 0
M  V30 949 C 89.1249 -1.62551 -0.341543 0
M  V30 950 O 90.3099 -1.89379 -0.232393 0
M  V30 951 C 87.4499 -3.45076 0.0410575 0
M  V30 952 C 86.5629 -4.18042 1.08927 0
M  V30 953 C 85.6979 -5.29376 0.439848 0
M  V30 954 C 84.7369 -5.94132 1.4722 0
M  V30 955 N 83.8739 -6.96975 0.846756 0
M  V30 956 H 88.7139 -2.54534 1.54972 0
M  V30 957 H 86.2509 -1.25028 0.775006 0
M  V30 958 H 88.2089 -4.15862 -0.33383 0
M  V30 959 H 86.8389 -3.12353 -0.814568 0
M  V30 960 H 85.8909 -3.45945 1.58196 0
M  V30 961 H 87.2029 -4.62306 1.87282 0
M  V30 962 H 86.3569 -6.06699 0.0115125 0
M  V30 963 H 85.0959 -4.86251 -0.375656 0
M  V30 964 H 84.1009 -5.15538 1.91052 0
M  V30 965 H 85.3259 -6.39337 2.28965 0
M  V30 966 H 83.2719 -6.5598 0.0518075 0
M  V30 967 H 83.1889 -7.39565 1.5678 0
M  V30 968 H 84.4569 -7.78239 0.443277 0
M  V30 969 N 88.686 -0.835752 -1.33615 0
M  V30 970 C 89.935 -0.426289 -1.97144 0
M  V30 971 C 90.248 1.01912 -1.66953 0
M  V30 972 O 91.454 1.53311 -2.24072 0
M  V30 973 C 89.91 -0.711321 -3.52801 0
M  V30 974 C 89.518 -2.1712 -3.91871 0
M  V30 975 C 91.262 -0.368654 -4.22896 0
M  V30 976 C 89.169 -2.40044 -5.40493 0
M  V30 977 H 88.099 -0.15567 -0.737755 0
M  V30 978 H 90.75 -1.0239 -1.52278 0
M  V30 979 H 89.132 -0.0433766 -3.95976 0
M  V30 980 H 90.306 -2.87936 -3.59763 0
M  V30 981 H 88.621 -2.47654 -3.34749 0
M  V30 982 H 91.218 -0.517601 -5.32189 0
M  V30 983 H 91.561 0.688078 -4.10574 0
M  V30 984 H 92.094 -0.991702 -3.8524 0
M  V30 985 H 88.833 -3.44271 -5.57815 0
M  V30 986 H 88.353 -1.73785 -5.74072 0
M  V30 987 H 90.032 -2.23042 -6.0734 0
M  V30 988 N 90.1641 1.46063 -0.591896 0
M  V30 989 C 91.3891 2.07226 -0.0850314 0
M  V30 990 C 91.8141 1.43625 1.21463 0
M  V30 991 O 91.1721 0.523305 1.73583 0
M  V30 992 C 91.2201 3.60554 0.0576567 0
M  V30 993 O 90.3241 3.97128 1.11188 0
M  V30 994 H 89.6651 0.660615 -0.0669568 0
M  V30 995 H 92.1951 1.8756 -0.81745 0
M  V30 996 H 92.2051 4.07165 0.2609 0
M  V30 997 H 90.8801 4.06235 -0.891416 0
M  V30 998 H 89.4571 3.62213 0.886356 0
M  V30 999 N 91.6422 0.330177 1.54103 0
M  V30 1000 C 92.5522 -0.541534 2.28264 0
M  V30 1001 C 93.5682 -1.12351 1.32866 0
M  V30 1002 O 94.7442 -1.14206 1.65888 0
M  V30 1003 C 91.8092 -1.68322 3.03098 0
M  V30 1004 C 90.8702 -1.13238 4.14096 0
M  V30 1005 C 90.1032 -2.21966 4.85352 0
M  V30 1006 O 90.3262 -3.42437 4.56172 0
M  V30 1007 O 89.2602 -1.87013 5.7211 0
M  V30 1008 H 93.0862 0.060938 3.03639 0
M  V30 1009 H 90.6712 0.09565 1.49093 0
M  V30 1010 H 92.5532 -2.34777 3.49939 0
M  V30 1011 H 91.2282 -2.27176 2.30593 0
M  V30 1012 H 90.1352 -0.432736 3.71589 0
M  V30 1013 H 91.4682 -0.588898 4.88664 0
M  V30 1014 N 93.1203 -1.57491 0.0584922 0
M  V30 1015 C 94.5363 -1.56792 -0.298091 0
M  V30 1016 C 94.7363 -1.06679 -1.70944 0
M  V30 1017 O 93.7923 -0.726672 -2.41818 0
M  V30 1018 C 95.1053 -3.00461 -0.119879 0
M  V30 1019 C 96.6533 -3.1242 -0.190428 0
M  V30 1020 C 97.1283 -4.57982 -0.0406567 0
M  V30 1021 N 98.6193 -4.63099 -0.0966958 0
M  V30 1022 C 99.3543 -5.734 -0.00502943 0
M  V30 1023 N 98.8503 -6.9266 0.139402 0
M  V30 1024 N 100.643 -5.62067 -0.0611391 0
M  V30 1025 H 92.7943 -1.88386 0.98105 0
M  V30 1026 H 95.0573 -0.867865 0.381463 0
M  V30 1027 H 94.7633 -3.41187 0.85349 0
M  V30 1028 H 94.6373 -3.66843 -0.877833 0
M  V30 1029 H 97.0243 -2.71589 -1.15427 0
M  V30 1030 H 97.1053 -2.48702 0.598405 0
M  V30 1031 H 96.7493 -4.995 0.919897 0
M  V30 1032 H 96.6793 -5.19715 -0.848727 0
M  V30 1033 H 99.1703 -3.77331 -0.207277 0
M  V30 1034 H 99.4833 -7.72536 0.201855 0
M  V30 1035 H 97.8283 -6.94781 0.174586 0
M  V30 1036 H 101.019 -4.67782 -0.172583 0
M  V30 1037 H 101.192 -6.47999 0.0137562 0
M  V30 1038 N 94.5984 0.214957 -1.56127 0
M  V30 1039 C 95.8284 0.953707 -1.8327 0
M  V30 1040 C 96.2364 1.78181 -0.636262 0
M  V30 1041 O 95.5794 1.79191 0.404516 0
M  V30 1042 C 95.6414 1.91516 -3.0424 0
M  V30 1043 C 95.3054 1.27094 -4.38972 0
M  V30 1044 C 96.3024 0.657575 -5.15725 0
M  V30 1045 C 93.9874 1.28073 -4.85698 0
M  V30 1046 C 95.9814 0.0625968 -6.37369 0
M  V30 1047 C 93.6684 0.681914 -6.07283 0
M  V30 1048 C 94.6664 0.0739046 -6.8296 0
M  V30 1049 O 94.3544 -0.515582 -8.02245 0
M  V30 1050 H 94.0864 0.284764 -0.613095 0
M  V30 1051 H 96.6404 0.233283 -2.04071 0
M  V30 1052 H 94.8704 2.67475 -2.79274 0
M  V30 1053 H 96.5594 2.52001 -3.18198 0
M  V30 1054 H 97.3254 0.642288 -4.80728 0
M  V30 1055 H 93.2044 1.74337 -4.26764 0
M  V30 1056 H 96.7484 -0.412593 -6.96379 0
M  V30 1057 H 92.6454 0.694636 -6.41752 0
M  V30 1058 H 93.4134 -0.410544 -8.1747 0
M  V30 1059 N 96.0765 1.50051 0.48192 0
M  V30 1060 C 97.3245 1.60181 1.23234 0
M  V30 1061 C 97.6455 0.299176 1.92691 0
M  V30 1062 O 96.9155 -0.682708 1.83619 0
M  V30 1063 H 95.4955 0.590232 0.457859 0
M  V30 1064 H 98.1575 1.86775 0.556881 0
M  V30 1065 H 97.2535 2.40753 1.98607 0
M  V30 1066 N 97.5546 -0.734337 1.39446 0
M  V30 1067 C 98.9656 -1.31264 1.32766 0
M  V30 1068 C 99.3166 -1.96198 -0.00767497 0
M  V30 1069 O 98.4416 -1.96346 -0.909796 0
M  V30 1070 C 99.0366 -2.38682 2.4045 0
M  V30 1071 C 97.5956 -2.92184 2.37288 0
M  V30 1072 C 96.7426 -1.6576 2.22304 0
M  V30 1073 H 99.6936 -0.531799 1.49525 0
M  V30 1074 H 99.7146 -3.19087 2.07276 0
M  V30 1075 H 99.2266 -1.91392 3.37625 0
M  V30 1076 H 97.3276 -3.43752 1.43754 0
M  V30 1077 H 97.4406 -3.45253 3.3217 0
M  V30 1078 H 95.8046 -1.9012 1.69489 0
M  V30 1079 H 96.5876 -1.20521 3.21449 0
M  V30 1080 N 99.0327 -1.24633 -0.964593 0
M  V30 1081 C 100.279 -1.08949 -1.71049 0
M  V30 1082 C 100.612 0.370302 -1.90637 0
M  V30 1083 O 99.8867 1.27349 -1.47011 0
M  V30 1084 C 100.17 -1.83329 -3.0994 0
M  V30 1085 C 100.023 -3.37077 -2.97824 0
M  V30 1086 C 101.342 -1.60846 -4.09654 0
M  V30 1087 H 98.4607 -0.397178 -0.620821 0
M  V30 1088 H 101.103 -1.5334 -1.12191 0
M  V30 1089 H 99.2527 -1.45597 -3.60186 0
M  V30 1090 H 100.925 -3.84425 -2.5498 0
M  V30 1091 H 99.1677 -3.65298 -2.33965 0
M  V30 1092 H 99.8387 -3.84324 -3.96231 0
M  V30 1093 H 102.315 -1.93674 -3.68279 0
M  V30 1094 H 101.191 -2.1534 -5.04896 0
M  V30 1095 H 101.452 -0.547434 -4.38698 0
M  V30 1096 N 100.511 1.16574 -1.06058 0
M  V30 1097 C 101.758 1.87047 -0.775873 0
M  V30 1098 C 102.086 1.81562 0.697534 0
M  V30 1099 O 101.341 1.22445 1.52662 0
M  V30 1100 C 101.64 3.36195 -1.21275 0
M  V30 1101 C 101.306 3.6188 -2.68986 0
M  V30 1102 C 99.9678 3.68599 -3.09335 0
M  V30 1103 C 102.32 3.72648 -3.64394 0
M  V30 1104 C 99.6478 3.83584 -4.43937 0
M  V30 1105 C 102 3.89154 -4.98741 0
M  V30 1106 C 100.664 3.94114 -5.3873 0
M  V30 1107 H 99.9338 0.684452 -0.283912 0
M  V30 1108 H 102.581 1.37853 -1.32925 0
M  V30 1109 H 100.886 3.87505 -0.578528 0
M  V30 1110 H 102.583 3.89103 -0.969542 0
M  V30 1111 H 99.1728 3.57281 -2.36744 0
M  V30 1112 H 103.357 3.66769 -3.34356 0
M  V30 1113 H 98.6128 3.85677 -4.74409 0
M  V30 1114 H 102.787 3.96427 -5.72554 0
M  V30 1115 H 100.414 4.05478 -6.43033 0
M  V30 1116 N 101.989 0.842826 1.3317 0
M  V30 1117 C 103.217 0.454055 2.01856 0
M  V30 1118 C 103.632 -0.94587 1.63397 0
M  V30 1119 O 102.989 -1.61534 0.849302 0
M  V30 1120 C 103.04 0.569715 3.56982 0
M  V30 1121 O 102.761 1.91448 3.94055 0
M  V30 1122 C 104.262 0.178412 4.42941 0
M  V30 1123 H 101.482 0.17979 0.646465 0
M  V30 1124 H 104.026 1.1365 1.70012 0
M  V30 1125 H 102.181 -0.0648587 3.87346 0
M  V30 1126 H 102.595 1.90282 4.88767 0
M  V30 1127 H 104.069 0.310376 5.51127 0
M  V30 1128 H 104.546 -0.880056 4.30293 0
M  V30 1129 H 105.152 0.787579 4.17944 0
M  V30 1130 N 103.467 -1.45747 0.599634 0
M  V30 1131 C 104.716 -2.01502 0.0893511 0
M  V30 1132 C 105.029 -1.4748 -1.28488 0
M  V30 1133 O 106.235 -1.95161 -1.88745 0
M  V30 1134 C 104.691 -3.59735 0.109082 0
M  V30 1135 C 104.299 -4.22754 1.48267 0
M  V30 1136 C 106.043 -4.23085 -0.346374 0
M  V30 1137 C 103.95 -5.73115 1.45921 0
M  V30 1138 H 102.88 -0.753417 0.0296347 0
M  V30 1139 H 105.531 -1.67303 0.753788 0
M  V30 1140 H 103.913 -3.91087 -0.621854 0
M  V30 1141 H 105.087 -4.02987 2.23468 0
M  V30 1142 H 103.402 -3.71567 1.87955 0
M  V30 1143 H 105.999 -5.33327 -0.38298 0
M  V30 1144 H 106.342 -3.93201 -1.36743 0
M  V30 1145 H 106.875 -3.9642 0.331038 0
M  V30 1146 H 103.614 -6.07685 2.45762 0
M  V30 1147 H 103.134 -5.95097 0.749665 0
M  V30 1148 H 104.813 -6.3616 1.17941 0
M  V30 1149 N 104.945 -0.338344 -1.53925 0
M  V30 1150 C 105.895 0.536712 -2.21593 0
M  V30 1151 C 106.879 1.07015 -1.20153 0
M  V30 1152 O 108.071 1.00471 -1.45721 0
M  V30 1153 C 105.2 1.68977 -2.98834 0
M  V30 1154 C 104.286 1.17052 -4.07627 0
M  V30 1155 N 104.677 0.372085 -5.0443 0
M  V30 1156 C 102.975 1.44789 -4.21844 0
M  V30 1157 C 103.676 0.0909171 -5.81629 0
M  V30 1158 N 102.652 0.681131 -5.39316 0
M  V30 1159 H 106.454 -0.0804298 -2.9379 0
M  V30 1160 H 103.968 -0.144943 -1.61752 0
M  V30 1161 H 105.965 2.32857 -3.45808 0
M  V30 1162 H 104.625 2.31024 -2.28162 0
M  V30 1163 H 105.636 0.0136217 -5.17898 0
M  V30 1164 H 102.313 2.07313 -3.62391 0
M  V30 1165 H 103.703 -0.552817 -6.69622 0
M  V30 1166 N 106.423 1.57458 -0.0668435 0
M  V30 1167 C 107.353 2.15468 0.899764 0
M  V30 1168 C 108.334 1.08042 1.31381 0
M  V30 1169 O 109.519 1.36054 1.38574 0
M  V30 1170 C 106.649 2.71232 2.16911 0
M  V30 1171 C 105.603 3.83781 1.89463 0
M  V30 1172 C 104.929 4.26127 3.22986 0
M  V30 1173 C 106.229 5.08238 1.20381 0
M  V30 1174 H 107.923 2.96488 0.416529 0
M  V30 1175 H 105.469 1.4262 0.198908 0
M  V30 1176 H 107.422 3.10458 2.84945 0
M  V30 1177 H 106.146 1.87426 2.67468 0
M  V30 1178 H 104.805 3.45051 1.23836 0
M  V30 1179 H 104.453 3.39249 3.71374 0
M  V30 1180 H 104.153 5.01993 3.05413 0
M  V30 1181 H 105.677 4.67966 3.92225 0
M  V30 1182 H 107.091 5.44811 1.78475 0
M  V30 1183 H 105.488 5.89349 1.13083 0
M  V30 1184 H 106.558 4.84558 0.182153 0
M  V30 1185 N 107.901 -0.206675 1.56239 0
M  V30 1186 C 109.149 -0.927007 1.79586 0
M  V30 1187 C 109.47 -1.8427 0.637929 0
M  V30 1188 O 108.74 -1.92849 -0.344398 0
M  V30 1189 H 107.32 -0.345292 0.662407 0
M  V30 1190 H 109.982 -0.21496 1.93711 0
M  V30 1191 H 109.078 -1.52501 2.72305 0
M  V30 1192 N 109.379 -1.50304 -0.473955 0
M  V30 1193 C 110.79 -1.54042 -1.0549 0
M  V30 1194 C 111.141 -0.342248 -1.93192 0
M  V30 1195 O 110.266 0.545157 -2.09421 0
M  V30 1196 C 110.861 -2.79152 -1.91989 0
M  V30 1197 C 109.42 -2.8558 -2.45196 0
M  V30 1198 C 108.567 -2.48295 -1.2347 0
M  V30 1199 H 111.518 -1.5661 -0.256693 0
M  V30 1200 H 111.539 -2.60845 -2.7702 0
M  V30 1201 H 111.051 -3.66339 -1.28131 0
M  V30 1202 H 109.152 -2.02738 -3.12615 0
M  V30 1203 H 109.265 -3.88403 -2.80499 0
M  V30 1204 H 107.629 -2.00669 -1.56856 0
M  V30 1205 H 108.412 -3.37787 -0.612789 0
M  V30 1206 N 110.857 0.726932 -1.39834 0
M  V30 1207 C 112.273 1.03354 -1.21615 0
M  V30 1208 C 112.473 2.01327 -0.08338 0
M  V30 1209 O 111.529 2.46158 0.56238 0
M  V30 1210 C 112.842 1.58811 -2.55342 0
M  V30 1211 C 114.39 1.70851 -2.62257 0
M  V30 1212 C 114.865 2.29716 -3.96225 0
M  V30 1213 N 116.356 2.37116 -3.97907 0
M  V30 1214 C 117.091 2.83619 -4.98345 0
M  V30 1215 N 116.587 3.29958 -6.09179 0
M  V30 1216 N 118.38 2.82901 -4.8572 0
M  V30 1217 H 110.531 0.0773069 -2.12259 0
M  V30 1218 H 112.794 0.0969102 -0.943034 0
M  V30 1219 H 112.5 0.942855 -3.38826 0
M  V30 1220 H 112.374 2.57502 -2.75632 0
M  V30 1221 H 114.761 2.34497 -1.79152 0
M  V30 1222 H 114.842 0.707913 -2.45809 0
M  V30 1223 H 114.486 1.66696 -4.79765 0
M  V30 1224 H 114.416 3.30469 -4.09997 0
M  V30 1225 H 116.907 2.04374 -3.17868 0
M  V30 1226 H 117.22 3.63976 -6.8172 0
M  V30 1227 H 115.565 3.27946 -6.12761 0
M  V30 1228 H 118.756 2.46027 -3.98231 0
M  V30 1229 H 118.929 3.18827 -5.6414 0
M  V30 1230 N 112.336 1.25143 0.95797 0
M  V30 1231 C 113.752 1.01892 1.22842 0
M  V30 1232 C 113.952 -0.266311 1.99732 0
M  V30 1233 O 113.008 -0.979913 2.3271 0
M  V30 1234 C 114.321 2.24004 2.00606 0
M  V30 1235 C 115.869 2.28731 2.13662 0
M  V30 1236 C 116.344 3.5049 2.94823 0
M  V30 1237 N 117.835 3.50866 3.02403 0
M  V30 1238 C 118.57 4.4174 3.65586 0
M  V30 1239 N 118.066 5.42882 4.30408 0
M  V30 1240 N 119.859 4.29429 3.62694 0
M  V30 1241 H 112.01 2.07718 0.443493 0
M  V30 1242 H 114.273 0.912031 0.258657 0
M  V30 1243 H 113.979 3.17395 1.51503 0
M  V30 1244 H 113.853 2.26907 3.01319 0
M  V30 1245 H 116.24 1.35865 2.61963 0
M  V30 1246 H 116.321 2.29848 1.12265 0
M  V30 1247 H 115.965 4.43676 2.47213 0
M  V30 1248 H 115.895 3.46617 3.96439 0
M  V30 1249 H 118.386 2.777 2.56302 0
M  V30 1250 H 118.699 6.0844 4.76467 0
M  V30 1251 H 117.044 5.46758 4.29047 0
M  V30 1252 H 120.235 3.49643 3.11236 0
M  V30 1253 H 120.408 5.00448 4.1165 0
M  V30 1254 N 113.814 -1.1601 1.06675 0
M  V30 1255 C 115.06 -1.86909 0.786945 0
M  V30 1256 C 115.393 -1.81717 -0.685018 0
M  V30 1257 O 114.668 -1.23551 -1.50218 0
M  V30 1258 C 114.951 -3.36313 1.28707 0
M  V30 1259 C 114.804 -3.50175 2.82308 0
M  V30 1260 C 116.123 -4.3084 0.898071 0
M  V30 1261 H 113.242 -0.678677 0.287343 0
M  V30 1262 H 115.884 -1.36336 1.32334 0
M  V30 1263 H 114.034 -3.79513 0.830768 0
M  V30 1264 H 115.706 -3.15886 3.36175 0
M  V30 1265 H 113.949 -2.91959 3.20847 0
M  V30 1266 H 114.62 -4.55116 3.12368 0
M  V30 1267 H 117.096 -3.95561 1.29114 0
M  V30 1268 H 115.972 -5.33876 1.27543 0
M  V30 1269 H 116.233 -4.41662 -0.196651 0
M  V30 1270 N 115.292 -0.849877 -1.32721 0
M  V30 1271 C 116.538 -0.451591 -1.97708 0
M  V30 1272 C 116.871 0.989175 -1.6712 0
M  V30 1273 O 116.146 1.69334 -0.956891 0
M  V30 1274 C 116.429 -0.685598 -3.53513 0
M  V30 1275 C 116.282 -2.17444 -3.93749 0
M  V30 1276 C 117.601 -0.138874 -4.39881 0
M  V30 1277 H 114.72 -0.16555 -0.718166 0
M  V30 1278 H 117.362 -1.06742 -1.57182 0
M  V30 1279 H 115.512 -0.161416 -3.88165 0
M  V30 1280 H 117.184 -2.76433 -3.693 0
M  V30 1281 H 115.427 -2.65476 -3.43081 0
M  V30 1282 H 116.098 -2.28888 -5.02309 0
M  V30 1283 H 118.574 -0.587068 -4.11938 0
M  V30 1284 H 117.45 -0.332213 -5.47894 0
M  V30 1285 H 117.711 0.95806 -4.31594 0
M  V30 1286 N 116.77 1.45427 -0.607355 0
M  V30 1287 C 118.016 2.0254 -0.102607 0
M  V30 1288 C 118.349 1.47478 1.26348 0
M  V30 1289 O 117.624 0.64939 1.83339 0
M  V30 1290 C 117.907 3.60044 -0.0634347 0
M  V30 1291 C 117.76 4.2544 -1.46017 0
M  V30 1292 C 119.079 4.35646 0.624514 0
M  V30 1293 H 116.198 0.73598 -0.0387607 0
M  V30 1294 H 118.84 1.73284 -0.779282 0
M  V30 1295 H 116.99 3.85101 0.512808 0
M  V30 1296 H 118.662 4.11569 -2.08347 0
M  V30 1297 H 116.905 3.83849 -2.02094 0
M  V30 1298 H 117.576 5.34342 -1.385 0
M  V30 1299 H 120.052 4.15882 0.134723 0
M  V30 1300 H 118.928 5.45376 0.621028 0
M  V30 1301 H 119.189 4.08501 1.69055 0
M  V30 1302 N 118.248 0.346503 1.53744 0
M  V30 1303 C 119.178 -0.501193 2.28058 0
M  V30 1304 C 120.159 -1.10014 1.29734 0
M  V30 1305 O 121.344 -1.12097 1.58581 0
M  V30 1306 C 118.474 -1.65078 3.05559 0
M  V30 1307 C 117.428 -1.18003 4.11411 0
M  V30 1308 C 116.754 -2.41837 4.76884 0
M  V30 1309 C 118.054 -0.278394 5.21558 0
M  V30 1310 H 119.748 0.11875 2.99164 0
M  V30 1311 H 117.294 0.0585531 1.43881 0
M  V30 1312 H 119.247 -2.25028 3.56287 0
M  V30 1313 H 117.971 -2.29767 2.32109 0
M  V30 1314 H 116.63 -0.603331 3.61601 0
M  V30 1315 H 116.278 -3.0494 4.00026 0
M  V30 1316 H 115.978 -2.1102 5.48402 0
M  V30 1317 H 117.502 -3.02508 5.30397 0
M  V30 1318 H 118.916 -0.784823 5.67903 0
M  V30 1319 H 117.313 -0.0619707 6.00068 0
M  V30 1320 H 118.383 0.684677 4.80042 0
M  V30 1321 N 119.726 -1.57421 0.075193 0
M  V30 1322 C 120.966 -1.95495 -0.596757 0
M  V30 1323 C 121.33 -0.954886 -1.66571 0
M  V30 1324 O 122.531 -1.22341 -2.39345 0
M  V30 1325 C 120.802 -3.382 -1.15566 0
M  V30 1326 S 122.361 -3.98254 -1.84226 0
M  V30 1327 H 119.179 -0.683649 -0.195307 0
M  V30 1328 H 121.781 -1.94925 0.149859 0
M  V30 1329 H 120.485 -4.08766 -0.36588 0
M  V30 1330 H 120.016 -3.42321 -1.93856 0
M  V30 1331 H 122.031 -3.85435 -3.12497 0
M  V30 1332 N 121.204 0.198386 -1.56346 0
M  V30 1333 C 122.452 0.91747 -1.80075 0
M  V30 1334 C 122.773 1.83929 -0.647692 0
M  V30 1335 O 122.043 1.93029 0.334166 0
M  V30 1336 H 120.623 0.341774 -0.664228 0
M  V30 1337 H 123.285 0.204684 -1.93822 0
M  V30 1338 H 122.381 1.51055 -2.7311 0
M  V30 1339 N 122.682 1.50554 0.465978 0
M  V30 1340 C 123.632 1.66177 1.56106 0
M  V30 1341 C 124.616 0.516265 1.52393 0
M  V30 1342 O 125.808 0.770906 1.5933 0
M  V30 1343 C 122.937 1.76396 2.94515 0
M  V30 1344 C 122.023 2.9664 3.03093 0
M  V30 1345 N 122.414 4.20245 2.81474 0
M  V30 1346 C 120.712 2.95304 3.34233 0
M  V30 1347 C 121.413 5.01259 2.95151 0
M  V30 1348 N 120.389 4.35318 3.25576 0
M  V30 1349 H 124.191 2.59434 1.38099 0
M  V30 1350 H 121.705 1.47808 0.6728 0
M  V30 1351 H 123.702 1.85694 3.73261 0
M  V30 1352 H 122.362 0.843017 3.13565 0
M  V30 1353 H 123.373 4.4966 2.56956 0
M  V30 1354 H 120.05 2.12729 3.59239 0
M  V30 1355 H 121.44 6.09564 2.82632 0
M  V30 1356 N 124.16 -0.719506 1.40217 0
M  V30 1357 C 125.437 -1.47221 1.28784 0
M  V30 1358 C 125.817 -2.10883 -0.0956067 0
M  V30 1359 O 125.165 -1.99833 -1.10811 0
M  V30 1360 C 125.375 -2.5111 2.42373 0
M  V30 1361 C 126.723 -3.17053 2.82423 0
M  V30 1362 O 127.747 -2.61429 2.41937 0
M  V30 1363 O 126.606 -4.17742 3.52355 0
M  V30 1364 H 123.7 -0.654491 0.50554 0
M  V30 1365 H 126.246 -0.752014 1.52128 0
M  V30 1366 H 125.018 -2.02556 3.34793 0
M  V30 1367 H 124.641 -3.3067 2.20778 0
M  V30 1368 N 125.638 -1.25649 -0.95132 0
M  V30 1369 C 126.601 -1.06399 -2.03007 0
M  V30 1370 C 127.601 -0.0156794 -1.60792 0
M  V30 1371 O 128.791 -0.25817 -1.72276 0
M  V30 1372 C 125.923 -0.616184 -3.35285 0
M  V30 1373 H 127.116 -2.02164 -2.21517 0
M  V30 1374 H 124.669 -1.08103 -1.12887 0
M  V30 1375 H 125.404 0.343917 -3.22471 0
M  V30 1376 H 125.189 -1.37301 -3.67275 0
M  V30 1377 H 126.679 -0.503032 -4.14559 0
M  V30 1378 N 127.117 1.15442 -1.07289 0
M  V30 1379 C 128.363 1.86489 -0.796846 0
M  V30 1380 C 128.696 1.82078 0.675371 0
M  V30 1381 O 127.971 1.24346 1.4956 0
M  V30 1382 C 128.254 3.35626 -1.30489 0
M  V30 1383 C 128.107 3.48673 -2.84161 0
M  V30 1384 C 129.426 4.30357 -0.920907 0
M  V30 1385 H 126.545 0.677144 -0.290939 0
M  V30 1386 H 129.187 1.35633 -1.33056 0
M  V30 1387 H 127.337 3.79068 -0.850883 0
M  V30 1388 H 129.009 3.14099 -3.37846 0
M  V30 1389 H 127.252 2.90253 -3.22391 0
M  V30 1390 H 127.923 4.53453 -3.14777 0
M  V30 1391 H 130.399 3.94871 -1.3121 0
M  V30 1392 H 129.275 5.33193 -1.30372 0
M  V30 1393 H 129.536 4.4176 0.173226 0
M  V30 1394 N 128.595 0.856903 1.32268 0
M  V30 1395 C 130.011 0.547061 1.49931 0
M  V30 1396 C 130.211 -0.921781 1.7918 0
M  V30 1397 O 129.267 -1.70469 1.8627 0
M  V30 1398 C 130.58 1.43599 2.64196 0
M  V30 1399 C 132.128 1.43665 2.78081 0
M  V30 1400 C 132.603 2.31085 3.95428 0
M  V30 1401 N 134.094 2.28893 4.02694 0
M  V30 1402 C 134.829 2.93262 4.92732 0
M  V30 1403 N 134.325 3.66751 5.87763 0
M  V30 1404 N 136.118 2.82638 4.85873 0
M  V30 1405 H 128.269 1.8075 1.11549 0
M  V30 1406 H 130.532 0.772144 0.549997 0
M  V30 1407 H 130.238 2.48058 2.49319 0
M  V30 1408 H 130.112 1.12502 3.60032 0
M  V30 1409 H 132.499 0.399701 2.92381 0
M  V30 1410 H 132.58 1.7878 1.82952 0
M  V30 1411 H 132.224 3.34849 3.81888 0
M  V30 1412 H 132.154 1.93302 4.89839 0
M  V30 1413 H 134.645 1.75466 3.34694 0
M  V30 1414 H 134.958 4.13027 6.53168 0
M  V30 1415 H 133.303 3.70859 5.87783 0
M  V30 1416 H 136.494 2.24774 4.10602 0
M  V30 1417 H 136.667 3.33084 5.55841 0
M  V30 1418 N 130.073 -1.45103 0.615059 0
M  V30 1419 C 130.983 -2.34382 -0.101034 0
M  V30 1420 C 131.999 -1.51681 -0.852585 0
M  V30 1421 O 133.175 -1.8446 -0.808484 0
M  V30 1422 C 130.24 -3.29417 -1.08099 0
M  V30 1423 C 129.301 -4.28025 -0.330577 0
M  V30 1424 C 128.534 -5.1852 -1.26385 0
M  V30 1425 O 128.757 -5.12598 -2.50198 0
M  V30 1426 O 127.691 -5.97122 -0.756866 0
M  V30 1427 H 131.517 -2.97033 0.632855 0
M  V30 1428 H 129.102 -1.4461 0.375293 0
M  V30 1429 H 130.984 -3.87958 -1.6452 0
M  V30 1430 H 129.659 -2.69321 -1.79577 0
M  V30 1431 H 128.566 -3.73078 0.276283 0
M  V30 1432 H 129.899 -4.90997 0.343866 0
M  V30 1433 N 131.551 -0.354651 -1.53558 0
M  V30 1434 C 132.514 0.484566 -2.24019 0
M  V30 1435 C 133.514 1.01861 -1.24422 0
M  V30 1436 O 134.704 0.906097 -1.4878 0
M  V30 1437 C 131.836 1.67615 -2.96847 0
M  V30 1438 H 133.029 -0.131843 -2.9961 0
M  V30 1439 H 130.582 -0.106165 -1.55939 0
M  V30 1440 H 131.317 2.33095 -2.25471 0
M  V30 1441 H 131.102 1.30029 -3.69912 0
M  V30 1442 H 132.592 2.27114 -3.50441 0
M  V30 1443 N 133.029 1.57378 -0.0835403 0
M  V30 1444 C 133.959 2.1641 0.87686 0
M  V30 1445 C 134.94 1.09429 1.30228 0
M  V30 1446 O 136.125 1.37516 1.37124 0
M  V30 1447 C 133.255 2.73517 2.14022 0
M  V30 1448 C 132.209 3.85769 1.85381 0
M  V30 1449 C 131.535 4.29529 3.18448 0
M  V30 1450 C 132.835 5.09486 1.14984 0
M  V30 1451 H 134.529 2.96914 0.385059 0
M  V30 1452 H 132.075 1.42823 0.18377 0
M  V30 1453 H 134.028 3.13463 2.81636 0
M  V30 1454 H 132.752 1.90252 2.65465 0
M  V30 1455 H 131.411 3.46345 1.20169 0
M  V30 1456 H 131.059 3.43169 3.67755 0
M  V30 1457 H 130.759 5.05204 3.00071 0
M  V30 1458 H 132.283 4.72099 3.8724 0
M  V30 1459 H 133.697 5.46674 1.72687 0
M  V30 1460 H 132.094 5.90515 1.06826 0
M  V30 1461 H 133.164 4.84724 0.130749 0
M  V30 1462 N 134.507 -0.190092 1.56449 0
M  V30 1463 C 135.753 -0.911052 1.81184 0
M  V30 1464 C 136.086 -1.82699 0.658396 0
M  V30 1465 O 135.361 -1.91491 -0.340775 0
M  V30 1466 C 135.644 -1.72297 3.16205 0
M  V30 1467 C 135.497 -0.831419 4.42049 0
M  V30 1468 C 136.816 -2.69454 3.47969 0
M  V30 1469 H 133.935 -0.32977 0.659106 0
M  V30 1470 H 136.577 -0.178169 1.89163 0
M  V30 1471 H 134.727 -2.34778 3.09534 0
M  V30 1472 H 136.399 -0.220929 4.60771 0
M  V30 1473 H 134.642 -0.138406 4.33579 0
M  V30 1474 H 135.313 -1.43461 5.33032 0
M  V30 1475 H 137.789 -2.17104 3.54972 0
M  V30 1476 H 136.665 -3.23342 4.43555 0
M  V30 1477 H 136.926 -3.48744 2.71717 0
M  V30 1478 N 135.985 -1.50799 -0.457987 0
M  V30 1479 C 137.262 -1.52968 -1.21902 0
M  V30 1480 C 137.642 -0.281906 -2.09209 0
M  V30 1481 O 136.99 0.734076 -2.16388 0
M  V30 1482 C 137.2 -2.8326 -2.03875 0
M  V30 1483 C 138.548 -3.34425 -2.6162 0
M  V30 1484 O 139.572 -2.8467 -2.14106 0
M  V30 1485 O 138.431 -4.21188 -3.48228 0
M  V30 1486 H 135.525 -0.614129 -0.553873 0
M  V30 1487 H 138.071 -1.63098 -0.468739 0
M  V30 1488 H 136.843 -3.65543 -1.39621 0
M  V30 1489 H 136.466 -2.76195 -2.8601 0
M  V30 1490 N 137.463 0.71206 -1.40597 0
M  V30 1491 C 138.395 1.83704 -1.37061 0
M  V30 1492 C 139.408 1.60453 -0.275426 0
M  V30 1493 O 140.597 1.70262 -0.53602 0
M  V30 1494 C 137.697 3.20172 -1.11099 0
M  V30 1495 C 136.87 3.7059 -2.3234 0
M  V30 1496 C 135.929 4.85681 -2.02485 0
M  V30 1497 O 134.955 4.9815 -2.75382 0
M  V30 1498 N 136.157 5.71735 -1.00497 0
M  V30 1499 H 138.922 1.87235 -2.34016 0
M  V30 1500 H 136.483 0.893739 -1.34996 0
M  V30 1501 H 138.475 3.94768 -0.891064 0
M  V30 1502 H 137.045 3.11767 -0.227989 0
M  V30 1503 H 136.265 2.87085 -2.7014 0
M  V30 1504 H 137.553 4.01011 -3.13157 0
M  V30 1505 H 136.951 5.64275 -0.401298 0
M  V30 1506 H 135.508 6.463 -0.844942 0
M  V30 1507 N 138.941 1.26152 0.944643 0
M  V30 1508 C 139.904 1.07474 2.0244 0
M  V30 1509 C 140.904 0.0242064 1.60782 0
M  V30 1510 O 142.094 0.267302 1.72137 0
M  V30 1511 C 139.226 0.633956 3.34953 0
M  V30 1512 H 140.419 2.03336 2.20442 0
M  V30 1513 H 137.972 1.087 1.12312 0
M  V30 1514 H 138.707 -0.326811 3.22649 0
M  V30 1515 H 138.492 1.39247 3.66542 0
M  V30 1516 H 139.982 0.52501 4.14287 0
M  V30 1517 N 140.419 -1.14872 1.07899 0
M  V30 1518 C 141.329 -2.2341 0.715915 0
M  V30 1519 C 142.345 -1.71808 -0.275306 0
M  V30 1520 O 143.521 -2.01039 -0.120545 0
M  V30 1521 C 140.586 -3.46474 0.125168 0
M  V30 1522 C 139.647 -4.13039 1.17034 0
M  V30 1523 C 138.88 -5.30229 0.607688 0
M  V30 1524 O 139.103 -5.675 -0.574497 0
M  V30 1525 O 138.037 -5.86444 1.35526 0
M  V30 1526 H 141.863 -2.56808 1.62121 0
M  V30 1527 H 139.448 -1.22702 0.852322 0
M  V30 1528 H 141.33 -4.20917 -0.201729 0
M  V30 1529 H 140.005 -3.14811 -0.753364 0
M  V30 1530 H 138.912 -3.40493 1.54968 0
M  V30 1531 H 140.245 -4.48796 2.02097 0
M  V30 1532 N 141.898 -0.863906 -1.31812 0
M  V30 1533 C 142.808 -0.318461 -2.32428 0
M  V30 1534 C 143.824 0.568496 -1.64451 0
M  V30 1535 O 145 0.46666 -1.95919 0
M  V30 1536 C 142.065 0.476355 -3.43412 0
M  V30 1537 C 141.126 -0.43784 -4.27061 0
M  V30 1538 C 140.359 0.319138 -5.32745 0
M  V30 1539 O 140.582 1.54799 -5.48993 0
M  V30 1540 O 139.516 -0.319861 -6.01049 0
M  V30 1541 H 143.342 -1.15229 -2.80991 0
M  V30 1542 H 140.927 -0.627103 -1.35602 0
M  V30 1543 H 142.809 0.927156 -4.11074 0
M  V30 1544 H 141.484 1.28683 -2.97022 0
M  V30 1545 H 140.391 -0.937013 -3.62175 0
M  V30 1546 H 141.724 -1.21375 -4.77 0
M  V30 1547 N 143.376 1.44774 -0.622745 0
M  V30 1548 C 144.623 2.02121 -0.1239 0
M  V30 1549 C 144.951 1.48915 1.25118 0
M  V30 1550 O 144.206 0.660045 1.84233 0
M  V30 1551 C 144.505 3.57364 -0.0508323 0
M  V30 1552 C 144.171 4.29787 -1.36358 0
M  V30 1553 C 142.833 4.4929 -1.72314 0
M  V30 1554 C 145.185 4.71062 -2.23048 0
M  V30 1555 C 142.513 5.07325 -2.94682 0
M  V30 1556 C 144.865 5.30452 -3.44679 0
M  V30 1557 C 143.529 5.48175 -3.80868 0
M  V30 1558 H 142.799 0.739612 -0.0453381 0
M  V30 1559 H 145.446 1.73648 -0.807389 0
M  V30 1560 H 143.751 3.85202 0.715991 0
M  V30 1561 H 145.448 3.99456 0.351533 0
M  V30 1562 H 142.038 4.14932 -1.07375 0
M  V30 1563 H 146.222 4.55715 -1.96565 0
M  V30 1564 H 141.478 5.19235 -3.22809 0
M  V30 1565 H 145.652 5.61385 -4.12092 0
M  V30 1566 H 143.279 5.92912 -4.75773 0
M  V30 1567 N 144.854 0.36279 1.53368 0
M  V30 1568 C 146.079 -0.231226 2.06107 0
M  V30 1569 C 146.504 -1.419 1.23474 0
M  V30 1570 O 145.862 -1.79524 0.253128 0
M  V30 1571 C 145.91 -0.605523 3.5548 0
M  V30 1572 O 145.014 -1.70312 3.7559 0
M  V30 1573 H 144.355 -0.034327 0.663112 0
M  V30 1574 H 146.885 0.522584 1.97814 0
M  V30 1575 H 146.895 -0.877314 3.98456 0
M  V30 1576 H 145.57 0.263004 4.15068 0
M  V30 1577 H 144.147 -1.4271 3.44512 0
M  V30 1578 N 146.332 -1.57332 0.0918853 0
M  V30 1579 C 147.58 -1.93853 -0.571446 0
M  V30 1580 C 147.901 -0.974212 -1.6892 0
M  V30 1581 O 147.171 -0.0257254 -1.95883 0
M  V30 1582 H 145.751 -0.715666 -0.214082 0
M  V30 1583 H 148.413 -1.94287 0.154464 0
M  V30 1584 H 147.509 -2.96191 -0.983729 0
M  V30 1585 N 147.81 0.181792 -1.56548 0
M  V30 1586 C 149.226 0.53316 -1.50431 0
M  V30 1587 C 149.426 1.85184 -0.794297 0
M  V30 1588 O 148.482 2.50058 -0.350318 0
M  V30 1589 C 149.795 0.575597 -2.9514 0
M  V30 1590 C 151.343 0.663519 -3.05886 0
M  V30 1591 C 151.818 0.736946 -4.52032 0
M  V30 1592 N 153.309 0.800118 -4.56237 0
M  V30 1593 C 154.044 0.877327 -5.66649 0
M  V30 1594 N 153.54 0.916016 -6.86718 0
M  V30 1595 N 155.333 0.915542 -5.54594 0
M  V30 1596 H 147.484 -0.683025 -2.01118 0
M  V30 1597 H 149.747 -0.244988 -0.915797 0
M  V30 1598 H 149.453 -0.324482 -3.502 0
M  V30 1599 H 149.327 1.42572 -3.49218 0
M  V30 1600 H 151.714 1.55403 -2.50867 0
M  V30 1601 H 151.795 -0.21307 -2.54911 0
M  V30 1602 H 151.439 -0.149262 -5.07681 0
M  V30 1603 H 151.369 1.62953 -5.00753 0
M  V30 1604 H 153.86 0.778926 -3.69785 0
M  V30 1605 H 154.173 0.975813 -7.66614 0
M  V30 1606 H 152.518 0.884469 -6.89349 0
M  V30 1607 H 155.709 0.882245 -4.59711 0
M  V30 1608 H 155.882 0.972253 -6.40665 0
M  V30 1609 N 149.288 1.51039 0.449983 0
M  V30 1610 C 150.536 1.62759 1.19808 0
M  V30 1611 C 150.857 0.339981 1.92013 0
M  V30 1612 O 150.127 -0.643606 1.85026 0
M  V30 1613 H 148.707 0.599811 0.445237 0
M  V30 1614 H 151.369 1.87914 0.517138 0
M  V30 1615 H 150.465 2.44911 1.93455 0
M  V30 1616 N 150.766 -0.704594 1.40972 0
M  V30 1617 C 151.676 -1.84856 1.44448 0
M  V30 1618 C 152.692 -1.70726 0.335961 0
M  V30 1619 O 153.868 -1.92799 0.582276 0
M  V30 1620 C 150.933 -3.20758 1.31587 0
M  V30 1621 C 149.994 -3.47063 2.52677 0
M  V30 1622 C 149.227 -4.76481 2.4042 0
M  V30 1623 O 149.45 -5.52341 1.42391 0
M  V30 1624 O 148.384 -5.03367 3.30007 0
M  V30 1625 H 152.21 -1.8488 2.40942 0
M  V30 1626 H 149.795 -0.85647 1.22413 0
M  V30 1627 H 151.677 -4.01913 1.26665 0
M  V30 1628 H 150.352 -3.21438 0.382049 0
M  V30 1629 H 149.259 -2.65873 2.63177 0
M  V30 1630 H 150.592 -3.5119 3.44858 0
M  V30 1631 N 152.244 -1.26651 -0.937939 0
M  V30 1632 C 153.176 -1.04283 -2.04102 0
M  V30 1633 C 154.189 -0.00221014 -1.628 0
M  V30 1634 O 155.378 -0.242645 -1.76843 0
M  V30 1635 C 152.478 -0.557846 -3.34277 0
M  V30 1636 C 151.651 -1.66843 -4.04329 0
M  V30 1637 C 150.71 -1.18095 -5.12777 0
M  V30 1638 O 149.736 -1.87865 -5.37304 0
M  V30 1639 N 150.938 -0.0311006 -5.80492 0
M  V30 1640 H 153.703 -1.9927 -2.23856 0
M  V30 1641 H 151.264 -1.1808 -1.10764 0
M  V30 1642 H 153.256 -0.215836 -4.04124 0
M  V30 1643 H 151.826 0.298523 -3.11171 0
M  V30 1644 H 151.046 -2.18123 -3.28353 0
M  V30 1645 H 152.334 -2.41408 -4.47883 0
M  V30 1646 H 151.732 0.551486 -5.63005 0
M  V30 1647 H 150.289 0.251809 -6.51313 0
M  V30 1648 N 153.722 1.14298 -1.08507 0
M  V30 1649 C 154.685 2.17607 -0.719711 0
M  V30 1650 C 155.685 1.58907 0.245997 0
M  V30 1651 O 156.875 1.74181 0.0254081 0
M  V30 1652 C 154.007 3.40842 -0.0627695 0
M  V30 1653 H 155.2 2.51443 -1.63452 0
M  V30 1654 H 152.753 1.28963 -0.88307 0
M  V30 1655 H 153.488 3.12587 0.863716 0
M  V30 1656 H 153.273 3.84713 -0.757504 0
M  V30 1657 H 154.763 4.17221 0.177786 0
M  V30 1658 N 155.201 0.870884 1.31352 0
M  V30 1659 C 156.429 0.49677 2.00848 0
M  V30 1660 C 156.844 -0.910998 1.65367 0
M  V30 1661 O 156.201 -1.59696 0.883374 0
M  V30 1662 C 156.252 0.645308 3.55694 0
M  V30 1663 O 155.973 1.99764 3.89905 0
M  V30 1664 C 157.474 0.272326 4.42463 0
M  V30 1665 H 154.694 0.193462 0.642506 0
M  V30 1666 H 157.238 1.1723 1.67563 0
M  V30 1667 H 155.393 0.0173176 3.87396 0
M  V30 1668 H 155.807 2.00607 4.84621 0
M  V30 1669 H 157.281 0.427208 5.50344 0
M  V30 1670 H 157.758 -0.788587 4.32062 0
M  V30 1671 H 158.364 0.876054 4.1618 0
M  V30 1672 N 156.679 -1.44442 0.630414 0
M  V30 1673 C 157.926 -2.02052 0.134617 0
M  V30 1674 C 158.254 -1.49576 -1.24327 0
M  V30 1675 O 157.509 -0.669806 -1.83881 0
M  V30 1676 C 157.808 -3.57332 0.0697835 0
M  V30 1677 C 157.474 -4.29058 1.38635 0
M  V30 1678 C 156.136 -4.4837 1.74694 0
M  V30 1679 C 158.488 -4.69872 2.25543 0
M  V30 1680 C 155.816 -5.05756 2.97369 0
M  V30 1681 C 158.168 -5.28616 3.47487 0
M  V30 1682 C 156.832 -5.46147 3.8377 0
M  V30 1683 H 156.102 -0.739361 0.0492598 0
M  V30 1684 H 158.749 -1.73217 0.816586 0
M  V30 1685 H 157.054 -3.85577 -0.695553 0
M  V30 1686 H 158.751 -3.99637 -0.330344 0
M  V30 1687 H 155.341 -4.14357 1.09574 0
M  V30 1688 H 159.525 -4.54666 1.98979 0
M  V30 1689 H 154.781 -5.17515 3.25558 0
M  V30 1690 H 158.955 -5.59192 4.15063 0
M  V30 1691 H 156.582 -5.9038 4.7891 0
M  V30 1692 N 158.157 -0.370918 -1.53173 0
M  V30 1693 C 159.434 0.273754 -1.93675 0
M  V30 1694 C 159.814 1.65938 -1.3049 0
M  V30 1695 O 159.162 2.23698 -0.465999 0
M  V30 1696 C 159.372 0.318602 -3.47543 0
M  V30 1697 C 160.72 0.556392 -4.20939 0
M  V30 1698 O 161.744 0.399587 -3.53952 0
M  V30 1699 O 160.603 0.862133 -5.39657 0
M  V30 1700 H 157.697 0.165448 -0.810281 0
M  V30 1701 H 160.243 -0.42409 -1.64315 0
M  V30 1702 H 159.015 -0.652687 -3.85818 0
M  V30 1703 H 158.638 1.06212 -3.83151 0
M  V30 1704 N 159.635 1.57281 -0.100228 0
M  V30 1705 C 160.881 1.95626 0.556946 0
M  V30 1706 C 161.236 0.981655 1.65473 0
M  V30 1707 O 160.529 0.00849847 1.91598 0
M  V30 1708 C 160.723 3.38305 1.15259 0
M  V30 1709 C 160.552 4.49555 0.114035 0
M  V30 1710 C 159.322 5.0434 -0.311266 0
M  V30 1711 C 161.52 5.10051 -0.659768 0
M  V30 1712 N 159.502 5.99152 -1.33755 0
M  V30 1713 C 160.873 6.00628 -1.53774 0
M  V30 1714 C 162.928 4.92772 -0.712723 0
M  V30 1715 C 161.631 6.7578 -2.46403 0
M  V30 1716 C 163.657 5.6859 -1.62663 0
M  V30 1717 C 163.019 6.58838 -2.49222 0
M  V30 1718 H 159.118 0.7624 0.173982 0
M  V30 1719 H 161.702 1.93829 -0.183988 0
M  V30 1720 H 159.873 3.40786 1.86332 0
M  V30 1721 H 161.605 3.63817 1.77254 0
M  V30 1722 H 158.36 4.73537 0.0774812 0
M  V30 1723 H 158.784 6.5126 -1.84905 0
M  V30 1724 H 163.426 4.22761 -0.0576648 0
M  V30 1725 H 161.144 7.4505 -3.12931 0
M  V30 1726 H 164.73 5.57233 -1.67281 0
M  V30 1727 H 163.61 7.16479 -3.18791 0
M  V30 1728 N 161.113 -0.173488 1.56642 0
M  V30 1729 C 162.359 -0.891784 1.8214 0
M  V30 1730 C 162.692 -1.8199 0.677736 0
M  V30 1731 O 161.967 -1.91842 -0.320446 0
M  V30 1732 C 162.25 -1.68933 3.18015 0
M  V30 1733 C 162.103 -0.784487 4.42906 0
M  V30 1734 C 163.422 -2.65748 3.50808 0
M  V30 1735 H 160.541 -0.322761 0.662567 0
M  V30 1736 H 163.183 -0.158095 1.89341 0
M  V30 1737 H 161.333 -2.31482 3.12007 0
M  V30 1738 H 163.005 -0.172046 4.60979 0
M  V30 1739 H 161.248 -0.0924117 4.33702 0
M  V30 1740 H 161.919 -1.37799 5.34524 0
M  V30 1741 H 164.395 -2.13327 3.57255 0
M  V30 1742 H 163.271 -3.18619 4.4696 0
M  V30 1743 H 163.532 -3.45842 2.75401 0
M  V30 1744 N 162.591 -1.51276 -0.441967 0
M  V30 1745 C 163.838 -1.63715 -1.19179 0
M  V30 1746 C 164.166 -0.351175 -1.91303 0
M  V30 1747 O 163.421 0.664524 -1.84072 0
M  V30 1748 C 163.72 -2.78746 -2.23686 0
M  V30 1749 C 163.386 -4.18189 -1.68607 0
M  V30 1750 C 162.048 -4.56125 -1.53308 0
M  V30 1751 C 164.4 -5.05222 -1.28062 0
M  V30 1752 C 161.728 -5.78804 -0.959317 0
M  V30 1753 C 164.08 -6.28476 -0.721162 0
M  V30 1754 C 162.744 -6.65188 -0.55504 0
M  V30 1755 H 162.014 -0.599076 -0.436106 0
M  V30 1756 H 164.661 -1.85296 -0.48351 0
M  V30 1757 H 162.966 -2.51369 -3.00535 0
M  V30 1758 H 164.663 -2.8557 -2.81515 0
M  V30 1759 H 161.253 -3.88277 -1.8149 0
M  V30 1760 H 165.437 -4.76524 -1.38704 0
M  V30 1761 H 160.693 -6.05899 -0.81833 0
M  V30 1762 H 164.867 -6.95259 -0.398458 0
M  V30 1763 H 162.494 -7.60123 -0.108311 0
M  V30 1764 N 164.069 0.697108 -1.41344 0
M  V30 1765 C 165.016 1.81106 -1.43071 0
M  V30 1766 C 165.986 1.63632 -0.285275 0
M  V30 1767 O 167.171 1.84504 -0.486091 0
M  V30 1768 C 164.311 3.18975 -1.31715 0
M  V30 1769 C 163.424 3.47892 -2.56115 0
M  V30 1770 C 162.559 4.75367 -2.37064 0
M  V30 1771 C 161.598 4.97247 -3.56948 0
M  V30 1772 N 160.735 6.15947 -3.36977 0
M  V30 1773 H 165.575 1.78965 -2.38276 0
M  V30 1774 H 163.112 0.873975 -1.18322 0
M  V30 1775 H 165.07 3.98615 -1.23133 0
M  V30 1776 H 163.7 3.20297 -0.401183 0
M  V30 1777 H 162.752 2.62669 -2.75153 0
M  V30 1778 H 164.064 3.59962 -3.45295 0
M  V30 1779 H 163.218 5.63059 -2.25941 0
M  V30 1780 H 161.957 4.65541 -1.45338 0
M  V30 1781 H 160.962 4.08004 -3.68527 0
M  V30 1782 H 162.187 5.08934 -4.49626 0
M  V30 1783 H 160.133 6.07336 -2.47949 0
M  V30 1784 H 160.05 6.28777 -4.19732 0
M  V30 1785 H 161.318 7.06377 -3.29623 0
M  V30 1786 N 165.547 1.27147 0.931209 0
M  V30 1787 C 166.795 1.13055 1.6752 0
M  V30 1788 C 167.116 -0.324791 1.92276 0
M  V30 1789 O 166.386 -1.22775 1.52654 0
M  V30 1790 H 164.966 0.415391 0.620854 0
M  V30 1791 H 167.628 1.59623 1.11833 0
M  V30 1792 H 166.724 1.65694 2.64485 0
M  V30 1793 N 167.025 -1.13721 1.09112 0
M  V30 1794 C 168.255 -1.88499 0.845671 0
M  V30 1795 C 168.663 -1.79218 -0.606432 0
M  V30 1796 O 168.006 -1.1544 -1.42896 0
M  V30 1797 C 168.068 -3.38954 1.19793 0
M  V30 1798 C 167.732 -3.72018 2.65428 0
M  V30 1799 C 168.729 -3.7153 3.63677 0
M  V30 1800 C 166.414 -4.01775 3.01467 0
M  V30 1801 C 168.408 -4.00336 4.95994 0
M  V30 1802 C 166.095 -4.30243 4.33975 0
M  V30 1803 C 167.093 -4.29508 5.31048 0
M  V30 1804 O 166.781 -4.5728 6.61173 0
M  V30 1805 H 166.513 -0.603702 0.304171 0
M  V30 1806 H 169.067 -1.44903 1.45576 0
M  V30 1807 H 167.297 -3.83039 0.530871 0
M  V30 1808 H 168.986 -3.95052 0.932146 0
M  V30 1809 H 169.752 -3.4862 3.37179 0
M  V30 1810 H 165.631 -4.01496 2.26544 0
M  V30 1811 H 169.175 -3.99678 5.71755 0
M  V30 1812 H 165.072 -4.52625 4.60219 0
M  V30 1813 H 165.84 -4.74964 6.66597 0
M  V30 1814 N 168.503 -0.877838 -1.30888 0
M  V30 1815 C 169.751 -0.491723 -1.96027 0
M  V30 1816 C 170.072 0.960827 -1.69685 0
M  V30 1817 O 169.342 1.67462 -1.01654 0
M  V30 1818 H 167.922 -0.17885 -0.725273 0
M  V30 1819 H 170.584 -1.11935 -1.59551 0
M  V30 1820 H 169.68 -0.656016 -3.05128 0
M  V30 1821 N 169.982 1.44106 -0.638065 0
M  V30 1822 C 171.228 2.02277 -0.145546 0
M  V30 1823 C 171.561 1.50125 1.23191 0
M  V30 1824 O 170.836 0.688133 1.8192 0
M  V30 1825 C 171.119 3.59829 -0.139791 0
M  V30 1826 C 170.972 4.22247 -1.55008 0
M  V30 1827 C 172.291 4.36873 0.531966 0
M  V30 1828 H 169.41 0.734992 -0.0543632 0
M  V30 1829 H 172.052 1.71592 -0.815863 0
M  V30 1830 H 170.202 3.86102 0.431007 0
M  V30 1831 H 171.874 4.07057 -2.1703 0
M  V30 1832 H 170.117 3.79476 -2.10191 0
M  V30 1833 H 170.788 5.31284 -1.49804 0
M  V30 1834 H 173.264 4.16074 0.0464781 0
M  V30 1835 H 172.14 5.4657 0.505206 0
M  V30 1836 H 172.401 4.11995 1.60352 0
M  V30 1837 N 171.46 0.379036 1.52974 0
M  V30 1838 C 172.706 -0.206727 2.01744 0
M  V30 1839 C 173.039 -1.47314 1.26539 0
M  V30 1840 O 172.314 -1.91084 0.362903 0
M  V30 1841 C 172.597 -0.485066 3.56818 0
M  V30 1842 C 172.45 0.795919 4.42702 0
M  V30 1843 C 173.769 -1.28003 4.21074 0
M  V30 1844 H 170.888 -0.0736607 0.73331 0
M  V30 1845 H 173.53 0.506581 1.83122 0
M  V30 1846 H 171.68 -1.09272 3.72816 0
M  V30 1847 H 173.352 1.43307 4.38476 0
M  V30 1848 H 171.595 1.41344 4.10127 0
M  V30 1849 H 172.266 0.555947 5.49193 0
M  V30 1850 H 174.742 -0.765867 4.08991 0
M  V30 1851 H 173.618 -1.44352 5.29579 0
M  V30 1852 H 173.879 -2.29236 3.78026 0
M  V30 1853 N 172.938 -1.57226 0.108567 0
M  V30 1854 C 174.185 -1.94833 -0.551943 0
M  V30 1855 C 174.513 -0.991204 -1.67348 0
M  V30 1856 O 173.768 -0.0131878 -1.95696 0
M  V30 1857 C 174.067 -3.38911 -1.13463 0
M  V30 1858 C 173.733 -4.50696 -0.135509 0
M  V30 1859 C 172.395 -4.80998 0.139252 0
M  V30 1860 C 174.747 -5.18333 0.545957 0
M  V30 1861 C 172.075 -5.76259 1.10194 0
M  V30 1862 C 174.427 -6.14627 1.49721 0
M  V30 1863 C 173.091 -6.43327 1.78006 0
M  V30 1864 H 172.361 -0.712944 -0.20197 0
M  V30 1865 H 175.008 -1.90582 0.18726 0
M  V30 1866 H 173.313 -3.39805 -1.95037 0
M  V30 1867 H 175.01 -3.65317 -1.65362 0
M  V30 1868 H 171.6 -4.27087 -0.359846 0
M  V30 1869 H 175.784 -4.95087 0.346842 0
M  V30 1870 H 171.04 -5.96804 1.32795 0
M  V30 1871 H 175.214 -6.66126 2.03099 0
M  V30 1872 H 172.841 -7.1695 2.52759 0
M  V30 1873 N 174.416 0.165178 -1.56732 0
M  V30 1874 C 175.641 0.900253 -1.86843 0
M  V30 1875 C 176.066 1.74766 -0.695596 0
M  V30 1876 O 175.424 1.77786 0.35522 0
M  V30 1877 C 175.472 1.74777 -3.15413 0
M  V30 1878 O 174.576 2.85007 -2.98068 0
M  V30 1879 H 173.917 0.251832 -0.614391 0
M  V30 1880 H 176.447 0.161468 -2.03962 0
M  V30 1881 H 176.457 2.14646 -3.46974 0
M  V30 1882 H 175.132 1.12537 -4.00385 0
M  V30 1883 H 173.709 2.48676 -2.77875 0
M  V30 1884 N 175.894 1.51508 0.433938 0
M  V30 1885 C 176.842 1.73646 1.54757 0
M  V30 1886 C 177.836 0.602854 1.5831 0
M  V30 1887 O 179.042 0.784318 1.62014 0
M  V30 1888 H 175.417 0.548718 0.51421 0
M  V30 1889 H 177.388 2.66991 1.33261 0
M  V30 1890 C 176.137 1.88172 2.92381 0
M  V30 1891 H 175.46 2.74808 2.90381 0
M  V30 1892 H 176.9 2.07672 3.6966 0
M  V30 1893 C 175.359 0.64239 3.30719 0
M  V30 1894 O 175.889 -0.201362 4.01195 0
M  V30 1895 N 174.095 0.485489 2.86516 0
M  V30 1896 H 173.642 1.17318 2.29334 0
M  V30 1897 H 173.6 -0.342482 3.12529 0
M  V30 1898 N 177.372 -0.689602 1.41712 0
M  V30 1899 C 178.62 -1.4468 1.4111 0
M  V30 1900 C 178.941 -1.94986 0.0232196 0
M  V30 1901 O 178.211 -1.72097 -0.935913 0
M  V30 1902 H 176.791 -0.536847 0.519427 0
M  V30 1903 H 179.453 -0.815825 1.77004 0
M  V30 1904 H 178.549 -2.30706 2.10193 0
M  V30 1905 N 178.85 -1.27639 -0.924453 0
M  V30 1906 C 179.76 -1.12466 -2.05885 0
M  V30 1907 C 180.776 -0.053869 -1.73917 0
M  V30 1908 O 181.952 -0.261012 -1.99702 0
M  V30 1909 C 179.017 -0.776768 -3.37886 0
M  V30 1910 C 178.078 -1.92878 -3.83532 0
M  V30 1911 C 177.311 -1.59739 -5.09234 0
M  V30 1912 O 177.534 -0.506782 -5.68144 0
M  V30 1913 O 176.468 -2.43761 -5.50331 0
M  V30 1914 H 180.294 -2.07671 -2.21599 0
M  V30 1915 H 177.879 -1.06857 -1.04413 0
M  V30 1916 H 179.761 -0.596229 -4.17161 0
M  V30 1917 H 178.436 0.145732 -3.23372 0
M  V30 1918 H 177.343 -2.1644 -3.0513 0
M  V30 1919 H 178.676 -2.8316 -4.02593 0
M  V30 1920 N 180.328 1.1314 -1.09713 0
M  V30 1921 C 181.744 1.36477 -0.827423 0
M  V30 1922 C 181.944 1.93654 0.556817 0
M  V30 1923 O 181 2.15791 1.31112 0
M  V30 1924 C 182.313 2.31334 -1.92106 0
M  V30 1925 C 183.861 2.44943 -1.94864 0
M  V30 1926 C 184.336 3.4311 -3.0338 0
M  V30 1927 N 185.827 3.50662 -3.02639 0
M  V30 1928 C 186.562 4.2651 -3.83246 0
M  V30 1929 N 186.058 5.05485 -4.73768 0
M  V30 1930 N 187.851 4.2184 -3.71493 0
M  V30 1931 H 180.002 0.743807 -1.9895 0
M  V30 1932 H 182.265 0.389823 -0.864143 0
M  V30 1933 H 181.971 1.96483 -2.91698 0
M  V30 1934 H 181.845 3.31381 -1.80184 0
M  V30 1935 H 184.232 2.79079 -0.959099 0
M  V30 1936 H 184.313 1.4481 -2.10864 0
M  V30 1937 H 183.957 3.09704 -4.02549 0
M  V30 1938 H 183.887 4.43055 -2.84622 0
M  V30 1939 H 186.378 2.94315 -2.37039 0
M  V30 1940 H 186.691 5.60675 -5.3185 0
M  V30 1941 H 185.036 5.04708 -4.77802 0
M  V30 1942 H 188.227 3.5922 -3.00131 0
M  V30 1943 H 188.4 4.80697 -4.3455 0
M  V30 1944 N 181.806 0.884767 1.30421 0
M  V30 1945 C 182.769 0.356277 2.26414 0
M  V30 1946 C 183.769 -0.501124 1.52792 0
M  V30 1947 O 184.959 -0.30831 1.7145 0
M  V30 1948 C 182.091 -0.492316 3.37326 0
M  V30 1949 H 183.284 1.20389 2.74675 0
M  V30 1950 H 180.837 0.661607 1.41607 0
M  V30 1951 H 181.572 -1.36052 2.94381 0
M  V30 1952 H 181.357 0.121832 3.91911 0
M  V30 1953 H 182.847 -0.853871 4.08777 0
M  V30 1954 N 183.284 -1.43765 0.645699 0
M  V30 1955 C 184.231 -2.30745 -0.0504648 0
M  V30 1956 C 185.201 -1.4432 -0.822241 0
M  V30 1957 O 186.386 -1.73202 -0.800358 0
M  V30 1958 C 183.526 -3.29802 -1.0161 0
M  V30 1959 C 182.639 -4.31326 -0.241219 0
M  V30 1960 C 181.774 -5.17469 -1.19998 0
M  V30 1961 C 180.813 -6.10691 -0.415094 0
M  V30 1962 N 179.95 -6.89483 -1.32506 0
M  V30 1963 H 184.79 -2.8973 0.697155 0
M  V30 1964 H 182.327 -1.42738 0.355563 0
M  V30 1965 H 184.285 -3.85734 -1.58949 0
M  V30 1966 H 182.915 -2.72483 -1.73069 0
M  V30 1967 H 181.967 -3.77749 0.448334 0
M  V30 1968 H 183.279 -4.9743 0.369437 0
M  V30 1969 H 182.433 -5.7799 -1.84424 0
M  V30 1970 H 181.172 -4.51473 -1.84455 0
M  V30 1971 H 180.177 -5.49265 0.242565 0
M  V30 1972 H 181.402 -6.78727 0.224966 0
M  V30 1973 H 179.348 -6.26142 -1.95657 0
M  V30 1974 H 179.265 -7.52081 -0.768783 0
M  V30 1975 H 180.533 -7.54516 -1.9577 0
M  V30 1976 N 184.763 -0.387143 -1.52771 0
M  V30 1977 C 185.695 0.484089 -2.2403 0
M  V30 1978 C 186.708 1.02849 -1.26198 0
M  V30 1979 O 187.897 0.931186 -1.52286 0
M  V30 1980 C 184.997 1.68337 -2.94136 0
M  V30 1981 C 184.17 1.26672 -4.18656 0
M  V30 1982 C 183.229 2.33045 -4.7178 0
M  V30 1983 O 182.255 1.94541 -5.34923 0
M  V30 1984 N 183.457 3.64929 -4.5145 0
M  V30 1985 H 186.222 -0.126404 -2.99433 0
M  V30 1986 H 183.783 -0.213392 -1.60488 0
M  V30 1987 H 185.775 2.39019 -3.26577 0
M  V30 1988 H 184.345 2.20025 -2.22053 0
M  V30 1989 H 183.565 0.388878 -3.92277 0
M  V30 1990 H 184.853 0.964964 -4.99566 0
M  V30 1991 H 184.251 3.98974 -4.01044 0
M  V30 1992 H 182.808 4.31651 -4.88386 0
M  V30 1993 N 186.241 1.57166 -0.116904 0
M  V30 1994 C 187.171 2.18222 0.830759 0
M  V30 1995 C 188.152 1.12167 1.27877 0
M  V30 1996 O 189.337 1.40394 1.34176 0
M  V30 1997 C 186.467 2.77996 2.08172 0
M  V30 1998 C 185.421 3.89614 1.77157 0
M  V30 1999 C 184.747 4.36187 3.09265 0
M  V30 2000 C 186.047 5.1181 1.04151 0
M  V30 2001 H 187.741 2.97664 0.321992 0
M  V30 2002 H 185.287 1.4318 0.153434 0
M  V30 2003 H 187.24 3.19366 2.74924 0
M  V30 2004 H 185.964 1.9584 2.6137 0
M  V30 2005 H 184.623 3.48816 1.12796 0
M  V30 2006 H 184.271 3.50893 3.60393 0
M  V30 2007 H 183.971 5.11455 2.89288 0
M  V30 2008 H 185.495 4.80207 3.77139 0
M  V30 2009 H 186.909 5.50214 1.61052 0
M  V30 2010 H 185.306 5.92648 0.942762 0
M  V30 2011 H 186.376 4.84892 0.0279022 0
M  V30 2012 N 187.719 -0.156864 1.56817 0
M  V30 2013 C 189.135 -0.50916 1.5126 0
M  V30 2014 C 189.335 -1.83897 0.823658 0
M  V30 2015 O 188.391 -2.49469 0.390055 0
M  V30 2016 C 189.704 -0.52857 2.96018 0
M  V30 2017 C 191.252 -0.614771 3.06903 0
M  V30 2018 C 191.727 -0.664938 4.53147 0
M  V30 2019 N 193.218 -0.727433 4.57452 0
M  V30 2020 C 193.953 -0.787067 5.67973 0
M  V30 2021 N 193.449 -0.806649 6.88088 0
M  V30 2022 N 195.242 -0.827195 5.5598 0
M  V30 2023 H 187.393 0.714935 2.00006 0
M  V30 2024 H 189.656 0.259526 0.911784 0
M  V30 2025 H 189.362 0.380154 3.49639 0
M  V30 2026 H 189.236 -1.36998 3.51442 0
M  V30 2027 H 191.623 -1.51392 2.53307 0
M  V30 2028 H 191.704 0.253597 2.5454 0
M  V30 2029 H 191.348 0.230011 5.07379 0
M  V30 2030 H 191.278 -1.54966 5.03282 0
M  V30 2031 H 193.769 -0.719998 3.70978 0
M  V30 2032 H 194.082 -0.853727 7.6807 0
M  V30 2033 H 192.427 -0.774687 6.90669 0
M  V30 2034 H 195.618 -0.808998 4.61056 0
M  V30 2035 H 195.791 -0.870206 6.4213 0
M  V30 2036 N 189.197 -1.51736 -0.425897 0
M  V30 2037 C 190.613 -1.40166 -0.76326 0
M  V30 2038 C 190.813 -0.492962 -1.95377 0
M  V30 2039 O 189.869 0.0475815 -2.52455 0
M  V30 2040 C 191.182 -2.82403 -1.03291 0
M  V30 2041 C 192.73 -2.91632 -1.13665 0
M  V30 2042 C 193.205 -4.34801 -1.43916 0
M  V30 2043 N 194.696 -4.3796 -1.50816 0
M  V30 2044 C 195.431 -5.4578 -1.75817 0
M  V30 2045 N 194.927 -6.63744 -1.98534 0
M  V30 2046 N 196.72 -5.33274 -1.77694 0
M  V30 2047 H 188.871 -2.09361 0.358 0
M  V30 2048 H 191.134 -0.942941 0.0978094 0
M  V30 2049 H 190.84 -3.50943 -0.230696 0
M  V30 2050 H 190.714 -3.22428 -1.95754 0
M  V30 2051 H 193.101 -2.23284 -1.92947 0
M  V30 2052 H 193.182 -2.55088 -0.190756 0
M  V30 2053 H 192.826 -5.03703 -0.65157 0
M  V30 2054 H 192.756 -4.68868 -2.39729 0
M  V30 2055 H 195.247 -3.52919 -1.35118 0
M  V30 2056 H 195.56 -7.41704 -2.17013 0
M  V30 2057 H 193.905 -6.66839 -1.95832 0
M  V30 2058 H 197.096 -4.40098 -1.59473 0
M  V30 2059 H 197.269 -6.1738 -1.9684 0
M  V30 2060 N 190.675 0.682077 -1.42076 0
M  V30 2061 C 191.922 1.44215 -1.42156 0
M  V30 2062 C 192.25 1.94468 -0.0354186 0
M  V30 2063 O 191.505 1.70816 0.955002 0
M  V30 2064 C 191.804 2.66036 -2.38662 0
M  V30 2065 C 191.47 2.34366 -3.85206 0
M  V30 2066 C 190.132 2.25439 -4.25124 0
M  V30 2067 C 192.484 2.08513 -4.77673 0
M  V30 2068 C 189.812 1.88775 -5.55501 0
M  V30 2069 C 192.164 1.73354 -6.08384 0
M  V30 2070 C 190.828 1.62933 -6.47309 0
M  V30 2071 H 190.098 0.527718 -0.520187 0
M  V30 2072 H 192.745 0.778387 -1.74967 0
M  V30 2073 H 191.05 3.3741 -1.99152 0
M  V30 2074 H 192.747 3.24205 -2.35991 0
M  V30 2075 H 189.337 2.42213 -3.53597 0
M  V30 2076 H 193.521 2.14346 -4.47626 0
M  V30 2077 H 188.777 1.7927 -5.84527 0
M  V30 2078 H 192.951 1.52373 -6.79526 0
M  V30 2079 H 190.578 1.34292 -7.48244 0
M  V30 2080 N 192.153 1.28127 0.917671 0
M  V30 2081 C 193.378 1.18007 1.70555 0
M  V30 2082 C 193.803 -0.258257 1.86319 0
M  V30 2083 O 193.161 -1.1869 1.37049 0
M  V30 2084 C 193.209 1.87948 3.07746 0
M  V30 2085 O 192.313 1.18427 3.9503 0
M  V30 2086 H 191.654 0.409867 0.522403 0
M  V30 2087 H 194.184 1.69379 1.1477 0
M  V30 2088 H 194.194 1.95701 3.58001 0
M  V30 2089 H 192.869 2.92573 2.95591 0
M  V30 2090 H 191.446 1.18811 3.53466 0
M  V30 2091 N 193.631 -1.12557 1.10312 0
M  V30 2092 C 194.88 -1.83395 0.839588 0
M  V30 2093 C 195.193 -1.84939 -0.636929 0
M  V30 2094 O 196.399 -2.51761 -1.01631 0
M  V30 2095 C 194.855 -3.29303 1.45215 0
M  V30 2096 C 194.463 -3.36122 2.96186 0
M  V30 2097 C 196.207 -4.05121 1.26796 0
M  V30 2098 C 194.114 -4.76357 3.50483 0
M  V30 2099 H 193.044 -0.687133 0.310425 0
M  V30 2100 H 195.695 -1.26746 1.32694 0
M  V30 2101 H 194.077 -3.85812 0.892469 0
M  V30 2102 H 195.251 -2.89559 3.58458 0
M  V30 2103 H 193.566 -2.73776 3.13745 0
M  V30 2104 H 196.163 -5.08668 1.64806 0
M  V30 2105 H 196.506 -4.15773 0.209409 0
M  V30 2106 H 197.039 -3.54967 1.79563 0
M  V30 2107 H 193.778 -4.70899 4.55998 0
M  V30 2108 H 193.298 -5.23377 2.92978 0
M  V30 2109 H 194.977 -5.45294 3.48228 0
M  V30 2110 N 195.109 -0.891671 -1.2995 0
M  V30 2111 C 196.072 -0.36828 -2.26222 0
M  V30 2112 C 197.072 0.493014 -1.53056 0
M  V30 2113 O 198.262 0.299213 -1.71611 0
M  V30 2114 C 195.394 0.47442 -3.37583 0
M  V30 2115 H 196.587 -1.21844 -2.74033 0
M  V30 2116 H 194.14 -0.669107 -1.41254 0
M  V30 2117 H 194.875 1.34489 -2.95099 0
M  V30 2118 H 194.66 -0.142615 -3.91841 0
M  V30 2119 H 196.15 0.83218 -4.09224 0
M  V30 2120 N 196.587 1.43421 -0.653314 0
M  V30 2121 C 197.815 2.06163 -0.174491 0
M  V30 2122 C 198.23 1.48969 1.1599 0
M  V30 2123 O 197.587 0.621042 1.71608 0
M  V30 2124 C 197.638 3.61417 -0.0774865 0
M  V30 2125 O 197.359 4.16485 -1.35912 0
M  V30 2126 C 198.86 4.41235 0.427402 0
M  V30 2127 H 196.08 0.664946 -0.0899353 0
M  V30 2128 H 198.624 1.83924 -0.893988 0
M  V30 2129 H 196.779 3.82841 0.59257 0
M  V30 2130 H 197.193 5.10153 -1.21839 0
M  V30 2131 H 198.667 5.5021 0.44423 0
M  V30 2132 H 199.144 4.14268 1.45873 0
M  V30 2133 H 199.75 4.2478 -0.210167 0
M  V30 2134 N 198.065 0.39524 1.52563 0
M  V30 2135 C 198.995 -0.428384 2.29537 0
M  V30 2136 C 199.976 -1.05831 1.33169 0
M  V30 2137 O 201.161 -1.06995 1.62067 0
M  V30 2138 C 198.291 -1.55274 3.10656 0
M  V30 2139 C 197.245 -1.04855 4.14957 0
M  V30 2140 C 196.571 -2.26543 4.84337 0
M  V30 2141 C 197.871 -0.112324 5.22179 0
M  V30 2142 H 199.565 0.213867 2.98635 0
M  V30 2143 H 197.111 0.104298 1.43622 0
M  V30 2144 H 199.064 -2.1358 3.63265 0
M  V30 2145 H 197.788 -2.22266 2.39302 0
M  V30 2146 H 196.447 -0.487985 3.63338 0
M  V30 2147 H 196.095 -2.92059 4.09525 0
M  V30 2148 H 195.795 -1.93466 5.54837 0
M  V30 2149 H 197.319 -2.85481 5.39753 0
M  V30 2150 H 198.733 -0.603752 5.70112 0
M  V30 2151 H 197.13 0.128968 5.99961 0
M  V30 2152 H 198.2 0.837052 4.77621 0
M  V30 2153 N 199.544 -1.57102 0.125237 0
M  V30 2154 C 200.96 -1.57915 -0.231322 0
M  V30 2155 C 201.16 -1.13833 -1.66266 0
M  V30 2156 O 200.216 -0.828581 -2.38518 0
M  V30 2157 C 201.529 -3.00699 0.00766489 0
M  V30 2158 C 203.077 -3.12947 -0.0577483 0
M  V30 2159 C 203.552 -4.57742 0.153626 0
M  V30 2160 N 205.043 -4.63092 0.0998073 0
M  V30 2161 C 205.778 -5.72905 0.238174 0
M  V30 2162 N 205.274 -6.91445 0.433057 0
M  V30 2163 N 207.067 -5.6182 0.177308 0
M  V30 2164 H 199.218 -1.84055 1.06007 0
M  V30 2165 H 201.481 -0.850905 0.417929 0
M  V30 2166 H 201.187 -3.3726 0.997431 0
M  V30 2167 H 201.061 -3.70236 -0.721452 0
M  V30 2168 H 203.448 -2.7624 -1.03804 0
M  V30 2169 H 203.529 -2.4594 0.70335 0
M  V30 2170 H 203.173 -4.95149 1.13092 0
M  V30 2171 H 203.103 -5.22848 -0.627534 0
M  V30 2172 H 205.594 -3.77871 -0.047051 0
M  V30 2173 H 205.907 -7.70985 0.529332 0
M  V30 2174 H 204.252 -6.93415 0.469109 0
M  V30 2175 H 207.443 -4.68093 0.0259748 0
M  V30 2176 H 207.616 -6.47357 0.288582 0
M  V30 2177 N 201.022 0.148545 -1.56898 0
M  V30 2178 C 202.299 0.890019 -1.74178 0
M  V30 2179 C 202.679 1.99407 -0.692839 0
M  V30 2180 O 202.027 2.26671 0.288505 0
M  V30 2181 C 202.237 1.43389 -3.18183 0
M  V30 2182 C 203.585 1.89791 -3.79822 0
M  V30 2183 O 204.609 1.53134 -3.21603 0
M  V30 2184 O 203.468 2.57387 -4.82093 0
M  V30 2185 H 200.562 0.420496 -0.712118 0
M  V30 2186 H 203.108 0.134591 -1.69165 0
M  V30 2187 H 201.88 0.640383 -3.86024 0
M  V30 2188 H 201.503 2.25287 -3.27615 0
M  V30 2189 N 202.5 1.5196 0.417844 0
M  V30 2190 C 203.747 1.65591 1.16559 0
M  V30 2191 C 204.075 0.381565 1.90721 0
M  V30 2192 O 203.33 -0.635156 1.85106 0
M  V30 2193 C 203.629 2.82269 2.19223 0
M  V30 2194 C 203.295 4.20819 1.61933 0
M  V30 2195 C 201.957 4.58506 1.46033 0
M  V30 2196 C 204.309 5.07196 1.20008 0
M  V30 2197 C 201.637 5.80257 0.867113 0
M  V30 2198 C 203.989 6.29544 0.621086 0
M  V30 2199 C 202.653 6.65987 0.449144 0
M  V30 2200 H 201.923 0.605939 0.42652 0
M  V30 2201 H 204.57 1.86041 0.45397 0
M  V30 2202 H 202.875 2.56118 2.96498 0
M  V30 2203 H 204.572 2.90012 2.76936 0
M  V30 2204 H 201.162 3.91116 1.7529 0
M  V30 2205 H 205.346 4.7867 1.31105 0
M  V30 2206 H 200.602 6.07124 0.721833 0
M  V30 2207 H 204.776 6.95805 0.287798 0
M  V30 2208 H 202.403 7.60199 -0.012632 0
M  V30 2209 N 203.978 -0.674533 1.42435 0
M  V30 2210 C 205.226 -1.43175 1.42637 0
M  V30 2211 C 205.547 -1.94951 0.0438992 0
M  V30 2212 O 204.817 -1.7308 -0.917607 0
M  V30 2213 H 203.397 -0.531307 0.525092 0
M  V30 2214 H 206.059 -0.797006 1.77859 0
M  V30 2215 H 205.155 -2.28463 2.12629 0
M  V30 2216 N 205.456 -1.28612 -0.910864 0
M  V30 2217 C 206.702 -1.16106 -1.66274 0
M  V30 2218 C 207.035 0.289113 -1.92036 0
M  V30 2219 O 206.31 1.21 -1.52281 0
M  V30 2220 C 206.593 -1.96309 -3.01885 0
M  V30 2221 C 206.446 -3.49405 -2.8326 0
M  V30 2222 C 207.765 -1.78076 -4.02463 0
M  V30 2223 H 204.884 -0.423152 -0.603417 0
M  V30 2224 H 207.526 -1.57961 -1.05586 0
M  V30 2225 H 205.676 -1.60742 -3.53687 0
M  V30 2226 H 207.348 -3.94894 -2.38446 0
M  V30 2227 H 205.591 -3.74893 -2.18261 0
M  V30 2228 H 206.262 -4.00784 -3.79574 0
M  V30 2229 H 208.738 -2.0912 -3.59733 0
M  V30 2230 H 207.614 -2.36561 -4.95308 0
M  V30 2231 H 207.875 -0.733008 -4.35981 0
M  V30 2232 N 206.934 1.1197 -1.10907 0
M  V30 2233 C 208.182 1.83225 -0.852819 0
M  V30 2234 C 208.503 1.84769 0.623341 0
M  V30 2235 O 207.773 1.3143 1.45269 0
M  V30 2236 H 206.353 0.67849 -0.312507 0
M  V30 2237 H 209.015 1.3556 -1.40033 0
M  V30 2238 H 208.111 2.87265 -1.22005 0
M  V30 2239 N 208.412 0.89855 1.29475 0
M  V30 2240 C 209.359 0.373819 2.27753 0
M  V30 2241 C 210.329 -0.543444 1.56958 0
M  V30 2242 O 211.514 -0.468934 1.84948 0
M  V30 2243 C 208.654 -0.393648 3.42848 0
M  V30 2244 C 207.767 0.554379 4.28428 0
M  V30 2245 C 206.902 -0.230026 5.30702 0
M  V30 2246 C 205.941 0.712599 6.07938 0
M  V30 2247 N 205.078 -0.0373283 7.0209 0
M  V30 2248 H 209.918 1.21699 2.72017 0
M  V30 2249 H 207.455 0.611456 1.33789 0
M  V30 2250 H 209.413 -0.85466 4.08352 0
M  V30 2251 H 208.043 -1.20128 2.99615 0
M  V30 2252 H 207.095 1.13391 3.63107 0
M  V30 2253 H 208.407 1.27597 4.82204 0
M  V30 2254 H 207.561 -0.752288 6.02018 0
M  V30 2255 H 206.3 -0.984758 4.77654 0
M  V30 2256 H 205.305 1.24637 5.35486 0
M  V30 2257 H 206.53 1.46664 6.63074 0
M  V30 2258 H 204.476 -0.774348 6.51414 0
M  V30 2259 H 204.393 0.624374 7.53417 0
M  V30 2260 H 205.661 -0.539891 7.77628 0
M  V30 2261 N 209.89 -1.43072 0.660911 0
M  V30 2262 C 211.306 -1.56169 0.329173 0
M  V30 2263 C 211.506 -1.64317 -1.16629 0
M  V30 2264 O 210.562 -1.60245 -1.95135 0
M  V30 2265 C 211.875 -2.81873 1.04729 0
M  V30 2266 C 213.423 -2.95627 1.02828 0
M  V30 2267 C 213.898 -4.24174 1.72744 0
M  V30 2268 N 215.389 -4.31055 1.69545 0
M  V30 2269 C 216.124 -5.29304 2.20511 0
M  V30 2270 N 215.62 -6.33786 2.79799 0
M  V30 2271 N 217.413 -5.21008 2.10966 0
M  V30 2272 H 209.564 -1.36027 1.63127 0
M  V30 2273 H 211.827 -0.653823 0.686454 0
M  V30 2274 H 211.533 -2.81942 2.10242 0
M  V30 2275 H 211.407 -3.72338 0.603702 0
M  V30 2276 H 213.794 -2.95094 -0.0184742 0
M  V30 2277 H 213.875 -2.06431 1.51063 0
M  V30 2278 H 213.519 -4.25467 2.7738 0
M  V30 2279 H 213.449 -5.1228 1.2197 0
M  V30 2280 H 215.94 -3.56174 1.26288 0
M  V30 2281 H 216.253 -7.05086 3.16344 0
M  V30 2282 H 214.598 -6.34387 2.83863 0
M  V30 2283 H 217.789 -4.38301 1.64347 0
M  V30 2284 H 217.962 -5.97416 2.50993 0
M  V30 2285 N 211.368 -0.403325 -1.52352 0
M  V30 2286 C 212.616 0.174003 -2.0135 0
M  V30 2287 C 212.937 1.46139 -1.29106 0
M  V30 2288 O 212.207 1.91448 -0.415253 0
M  V30 2289 H 210.787 0.0672911 -0.743963 0
M  V30 2290 H 213.449 -0.538235 -1.87321 0
M  V30 2291 H 212.545 0.374254 -3.09848 0
M  V30 2292 N 212.846 1.57033 -0.133567 0
M  V30 2293 C 214.095 1.94861 0.520768 0
M  V30 2294 C 214.408 1.02012 1.66892 0
M  V30 2295 O 215.614 1.29365 2.38699 0
M  V30 2296 C 214.07 3.46362 0.977809 0
M  V30 2297 C 213.678 4.47773 -0.142674 0
M  V30 2298 C 215.422 3.93083 1.60269 0
M  V30 2299 C 213.329 5.90468 0.331883 0
M  V30 2300 H 212.259 0.727453 0.198315 0
M  V30 2301 H 214.91 1.82227 -0.215759 0
M  V30 2302 H 213.292 3.54282 1.7692 0
M  V30 2303 H 214.466 4.51536 -0.919317 0
M  V30 2304 H 212.781 4.10891 -0.675124 0
M  V30 2305 H 215.378 4.97121 1.96914 0
M  V30 2306 H 215.721 3.33876 2.48662 0
M  V30 2307 H 216.254 3.88025 0.876453 0
M  V30 2308 H 212.993 6.53463 -0.516341 0
M  V30 2309 H 212.513 5.90094 1.07469 0
M  V30 2310 H 214.192 6.42179 0.788332 0
M  V30 2311 N 214.325 -0.140222 1.56975 0
M  V30 2312 C 215.235 -1.19223 2.02047 0
M  V30 2313 C 216.251 -1.46612 0.937062 0
M  V30 2314 O 217.427 -1.58148 1.24704 0
M  V30 2315 C 214.492 -2.50414 2.39778 0
M  V30 2316 C 213.553 -2.30612 3.621 0
M  V30 2317 C 212.786 -3.55547 3.98023 0
M  V30 2318 O 213.009 -4.62004 3.34528 0
M  V30 2319 O 211.943 -3.47808 4.91237 0
M  V30 2320 H 215.769 -0.839559 2.91865 0
M  V30 2321 H 213.354 -0.349453 1.45256 0
M  V30 2322 H 215.236 -3.27747 2.64877 0
M  V30 2323 H 213.911 -2.85198 1.53114 0
M  V30 2324 H 212.818 -1.51207 3.4218 0
M  V30 2325 H 214.151 -2.00741 4.49404 0
M  V30 2326 N 215.803 -1.52179 -0.40978 0
M  V30 2327 C 216.713 -1.78364 -1.52392 0
M  V30 2328 C 217.729 -0.669183 -1.60617 0
M  V30 2329 O 218.905 -0.954518 -1.77344 0
M  V30 2330 C 215.97 -1.92822 -2.88133 0
M  V30 2331 C 215.031 -3.16725 -2.898 0
M  V30 2332 C 214.264 -3.30483 -4.19067 0
M  V30 2333 O 214.487 -2.49522 -5.12928 0
M  V30 2334 O 213.421 -4.2363 -4.27576 0
M  V30 2335 H 217.247 -2.72931 -1.33201 0
M  V30 2336 H 214.832 -1.37016 -0.59557 0
M  V30 2337 H 216.714 -2.04157 -3.68643 0
M  V30 2338 H 215.389 -1.01444 -3.07393 0
M  V30 2339 H 214.296 -3.10848 -2.08146 0
M  V30 2340 H 215.629 -4.07881 -2.75489 0
M  V30 2341 N 217.281 0.66697 -1.42791 0
M  V30 2342 C 218.697 0.981027 -1.25889 0
M  V30 2343 C 218.897 2.00793 -0.168695 0
M  V30 2344 O 217.953 2.48321 0.45747 0
M  V30 2345 C 219.266 1.47838 -2.61848 0
M  V30 2346 C 220.814 1.59575 -2.69267 0
M  V30 2347 C 221.289 2.12704 -4.05612 0
M  V30 2348 N 222.78 2.20026 -4.07606 0
M  V30 2349 C 223.515 2.62227 -5.09926 0
M  V30 2350 N 223.011 3.03824 -6.22626 0
M  V30 2351 N 224.804 2.62045 -4.97281 0
M  V30 2352 H 216.955 -0.0127891 -2.12396 0
M  V30 2353 H 219.218 0.0568258 -0.946295 0
M  V30 2354 H 218.924 0.798299 -3.4252 0
M  V30 2355 H 218.798 2.45579 -2.86305 0
M  V30 2356 H 221.185 2.26687 -1.88936 0
M  V30 2357 H 221.266 0.60302 -2.48591 0
M  V30 2358 H 220.91 1.46198 -4.86404 0
M  V30 2359 H 220.84 3.12782 -4.23645 0
M  V30 2360 H 223.331 1.90708 -3.2625 0
M  V30 2361 H 223.644 3.34734 -6.96544 0
M  V30 2362 H 221.989 3.01662 -6.26119 0
M  V30 2363 H 225.18 2.28916 -4.08308 0
M  V30 2364 H 225.353 2.94613 -5.77154 0
M  V30 2365 N 218.759 1.29093 0.90403 0
M  V30 2366 C 220.008 1.16187 1.64874 0
M  V30 2367 C 220.321 -0.286742 1.93487 0
M  V30 2368 O 221.527 -0.537062 2.66135 0
M  V30 2369 C 219.983 2.03177 2.97064 0
M  V30 2370 C 219.591 3.52836 2.76062 0
M  V30 2371 C 221.335 1.98984 3.74974 0
M  V30 2372 C 219.242 4.31945 4.03952 0
M  V30 2373 H 218.172 0.431246 0.618501 0
M  V30 2374 H 220.823 1.53699 1.00243 0
M  V30 2375 H 219.205 1.5853 3.62883 0
M  V30 2376 H 220.379 4.05507 2.18863 0
M  V30 2377 H 218.694 3.58656 2.11553 0
M  V30 2378 H 221.291 2.55351 4.69787 0
M  V30 2379 H 221.634 0.968815 4.0487 0
M  V30 2380 H 222.167 2.41652 3.15989 0
M  V30 2381 H 218.906 5.34667 3.79225 0
M  V30 2382 H 218.426 3.84045 4.60727 0
M  V30 2383 H 220.105 4.42379 4.72133 0
M  V30 2384 N 220.237 -1.11381 1.11499 0
M  V30 2385 C 221.169 -2.17207 0.731704 0
M  V30 2386 C 222.182 -1.61066 -0.236957 0
M  V30 2387 O 223.371 -1.78489 -0.0197591 0
M  V30 2388 C 220.471 -3.38846 0.0607624 0
M  V30 2389 C 219.644 -4.24451 1.0564 0
M  V30 2390 C 218.703 -5.24562 0.4149 0
M  V30 2391 O 217.729 -5.59071 1.069 0
M  V30 2392 N 218.931 -5.74651 -0.821943 0
M  V30 2393 H 221.696 -2.50699 1.64225 0
M  V30 2394 H 219.257 -1.26908 1.00529 0
M  V30 2395 H 221.249 -4.02911 -0.380139 0
M  V30 2396 H 219.819 -3.03411 -0.752376 0
M  V30 2397 H 219.039 -3.56833 1.67524 0
M  V30 2398 H 220.327 -4.78486 1.72998 0
M  V30 2399 H 219.725 -5.48797 -1.37252 0
M  V30 2400 H 218.282 -6.40549 -1.20582 0
M  V30 2401 N 221.715 -0.905404 -1.28997 0
M  V30 2402 C 222.625 -0.392246 -2.31298 0
M  V30 2403 C 223.641 0.515889 -1.66176 0
M  V30 2404 O 224.817 0.404093 -1.97304 0
M  V30 2405 C 221.882 0.36686 -3.44754 0
M  V30 2406 C 220.943 -0.573485 -4.25452 0
M  V30 2407 C 220.176 0.149488 -5.33491 0
M  V30 2408 O 220.399 1.37255 -5.5364 0
M  V30 2409 O 219.333 -0.510919 -5.99728 0
M  V30 2410 H 223.159 -1.2411 -2.77183 0
M  V30 2411 H 220.744 -0.669926 -1.33538 0
M  V30 2412 H 222.626 0.795907 -4.13816 0
M  V30 2413 H 221.301 1.19169 -3.00966 0
M  V30 2414 H 220.208 -1.05176 -3.59011 0
M  V30 2415 H 221.541 -1.36489 -4.72897 0
M  V30 2416 N 223.193 1.4272 -0.668489 0
M  V30 2417 C 224.103 2.34596 0.0139753 0
M  V30 2418 C 225.119 1.5474 0.795703 0
M  V30 2419 O 226.295 1.87334 0.739466 0
M  V30 2420 C 223.36 3.33202 0.957982 0
M  V30 2421 C 222.421 4.28957 0.17149 0
M  V30 2422 C 221.654 5.22853 1.07053 0
M  V30 2423 O 221.877 5.21531 2.31001 0
M  V30 2424 O 220.811 5.9952 0.534727 0
M  V30 2425 H 224.637 2.9448 -0.742661 0
M  V30 2426 H 222.222 1.43117 -0.428705 0
M  V30 2427 H 224.104 3.93796 1.50008 0
M  V30 2428 H 222.779 2.758 1.69458 0
M  V30 2429 H 221.686 3.71796 -0.414558 0
M  V30 2430 H 223.019 4.89383 -0.52586 0
M  V30 2431 N 224.671 0.411399 1.52136 0
M  V30 2432 C 225.634 -0.401089 2.25663 0
M  V30 2433 C 226.634 -0.971732 1.28117 0
M  V30 2434 O 227.824 -0.850254 1.52041 0
M  V30 2435 C 224.956 -1.56483 3.02863 0
M  V30 2436 H 226.149 0.24295 2.98914 0
M  V30 2437 H 223.702 0.163968 1.55438 0
M  V30 2438 H 224.437 -2.24567 2.33967 0
M  V30 2439 H 224.222 -1.16211 3.74483 0
M  V30 2440 H 225.712 -2.13951 3.58629 0
M  V30 2441 N 226.149 -1.5696 0.141893 0
M  V30 2442 C 227.397 -1.95573 -0.509484 0
M  V30 2443 C 227.718 -1.02746 -1.65736 0
M  V30 2444 O 226.988 -0.0880311 -1.95702 0
M  V30 2445 H 225.568 -0.722115 -0.191205 0
M  V30 2446 H 228.23 -1.93697 0.216196 0
M  V30 2447 H 227.326 -2.99171 -0.889 0
M  V30 2448 N 227.627 0.131896 -1.57047 0
M  V30 2449 C 228.874 0.841932 -1.84168 0
M  V30 2450 C 229.202 1.8048 -0.725066 0
M  V30 2451 O 228.457 1.93618 0.284692 0
M  V30 2452 C 228.756 1.63703 -3.17704 0
M  V30 2453 C 228.422 0.81961 -4.43388 0
M  V30 2454 C 227.084 0.594148 -4.77518 0
M  V30 2455 C 229.436 0.248977 -5.20605 0
M  V30 2456 C 226.764 -0.212409 -5.86315 0
M  V30 2457 C 229.116 -0.544701 -6.30251 0
M  V30 2458 C 227.78 -0.780599 -6.6292 0
M  V30 2459 H 227.05 0.308085 -0.673917 0
M  V30 2460 H 229.697 0.104867 -1.91213 0
M  V30 2461 H 228.002 2.44464 -3.06177 0
M  V30 2462 H 229.699 2.19015 -3.35907 0
M  V30 2463 H 226.289 1.00542 -4.16641 0
M  V30 2464 H 230.473 0.410408 -4.946 0
M  V30 2465 H 225.729 -0.404524 -6.1006 0
M  V30 2466 H 229.903 -0.993922 -6.89271 0
M  V30 2467 H 227.53 -1.40742 -7.47058 0
M  V30 2468 N 229.106 1.52395 0.401703 0
M  V30 2469 C 230.036 1.79231 1.49661 0
M  V30 2470 C 231.017 0.643654 1.57452 0
M  V30 2471 O 232.202 0.889989 1.72606 0
M  V30 2472 C 229.332 1.94971 2.87409 0
M  V30 2473 C 228.286 3.10604 2.94465 0
M  V30 2474 C 227.612 3.11577 4.34538 0
M  V30 2475 C 228.912 4.49921 2.6527 0
M  V30 2476 H 230.606 2.70917 1.27454 0
M  V30 2477 H 228.152 1.30362 0.6117 0
M  V30 2478 H 230.105 2.12328 3.63999 0
M  V30 2479 H 228.829 0.999632 3.10926 0
M  V30 2480 H 227.488 2.93009 2.20321 0
M  V30 2481 H 227.136 2.14277 4.55076 0
M  V30 2482 H 226.836 3.89247 4.40183 0
M  V30 2483 H 228.36 3.31073 5.13053 0
M  V30 2484 H 229.774 4.67683 3.31581 0
M  V30 2485 H 228.171 5.29564 2.82281 0
M  V30 2486 H 229.241 4.57507 1.60671 0
M  V30 2487 N 230.584 -0.659388 1.43143 0
M  V30 2488 C 231.833 -1.41518 1.43721 0
M  V30 2489 C 232.146 -1.95499 0.0628176 0
M  V30 2490 O 233.352 -2.71446 -0.0539683 0
M  V30 2491 C 231.808 -2.5608 2.52885 0
M  V30 2492 C 231.416 -2.08733 3.96402 0
M  V30 2493 C 233.16 -3.3349 2.62649 0
M  V30 2494 C 231.067 -3.20469 4.97045 0
M  V30 2495 H 229.997 -0.531705 0.534608 0
M  V30 2496 H 232.648 -0.712343 1.69109 0
M  V30 2497 H 231.03 -3.28805 2.20688 0
M  V30 2498 H 232.204 -1.43059 4.3803 0
M  V30 2499 H 230.519 -1.44219 3.90627 0
M  V30 2500 H 233.116 -4.16734 3.35017 0
M  V30 2501 H 233.459 -3.8111 1.67513 0
M  V30 2502 H 233.992 -2.67842 2.94118 0
M  V30 2503 H 230.731 -2.77824 5.93712 0
M  V30 2504 H 230.251 -3.84874 4.60034 0
M  V30 2505 H 231.93 -3.85698 5.19467 0
M  V30 2506 N 232.062 -1.29571 -0.897171 0
M  V30 2507 C 233.339 -1.08365 -1.62839 0
M  V30 2508 C 233.719 0.371331 -2.07808 0
M  V30 2509 O 233.067 1.3606 -1.83576 0
M  V30 2510 C 233.277 -2.0735 -2.80726 0
M  V30 2511 C 234.625 -2.38406 -3.51351 0
M  V30 2512 O 235.649 -2.05564 -2.90898 0
M  V30 2513 O 234.508 -2.9453 -4.60341 0
M  V30 2514 H 231.602 -0.415345 -0.715134 0
M  V30 2515 H 234.148 -1.40952 -0.945018 0
M  V30 2516 H 232.92 -3.05339 -2.44711 0
M  V30 2517 H 232.543 -1.75507 -3.56767 0
M  V30 2518 N 233.54 1.10788 -1.12088 0
M  V30 2519 C 234.503 2.15207 -0.788577 0
M  V30 2520 C 235.503 1.59609 0.195317 0
M  V30 2521 O 236.693 1.74174 -0.0300193 0
M  V30 2522 C 233.825 3.4047 -0.171174 0
M  V30 2523 H 235.018 2.46116 -1.71368 0
M  V30 2524 H 232.571 1.26089 -0.923652 0
M  V30 2525 H 233.306 3.15176 0.763832 0
M  V30 2526 H 233.091 3.82109 -0.879514 0
M  V30 2527 H 234.581 4.17576 0.04496 0
M  V30 2528 N 235.018 0.912232 1.28515 0
M  V30 2529 C 235.948 0.416403 2.29757 0
M  V30 2530 C 236.929 -0.515194 1.6211 0
M  V30 2531 O 238.114 -0.423253 1.89532 0
M  V30 2532 C 235.244 -0.34572 3.45575 0
M  V30 2533 C 234.198 0.496599 4.25109 0
M  V30 2534 C 233.524 -0.393771 5.33248 0
M  V30 2535 C 234.824 1.75307 4.92001 0
M  V30 2536 H 236.518 1.26249 2.7148 0
M  V30 2537 H 234.064 0.608515 1.30511 0
M  V30 2538 H 236.017 -0.703422 4.15488 0
M  V30 2539 H 234.741 -1.2257 3.02728 0
M  V30 2540 H 233.4 0.8368 3.56922 0
M  V30 2541 H 233.048 -1.27225 4.86644 0
M  V30 2542 H 232.748 0.166209 5.87365 0
M  V30 2543 H 234.272 -0.747389 6.06009 0
M  V30 2544 H 235.686 1.46437 5.54283 0
M  V30 2545 H 234.083 2.25534 5.56106 0
M  V30 2546 H 235.153 2.48176 4.16577 0
M  V30 2547 N 236.496 -1.42363 0.676048 0
M  V30 2548 C 237.912 -1.55811 0.345718 0
M  V30 2549 C 238.112 -1.65544 -1.14879 0
M  V30 2550 O 237.168 -1.62306 -1.93424 0
M  V30 2551 C 238.481 -2.80746 1.07713 0
M  V30 2552 C 240.029 -2.9452 1.05958 0
M  V30 2553 C 240.504 -4.22318 1.77233 0
M  V30 2554 N 241.995 -4.29233 1.74108 0
M  V30 2555 C 242.73 -5.26935 2.26113 0
M  V30 2556 N 242.226 -6.30783 2.86505 0
M  V30 2557 N 244.019 -5.18741 2.1648 0
M  V30 2558 H 236.17 -1.34289 1.6456 0
M  V30 2559 H 238.433 -0.646506 0.69335 0
M  V30 2560 H 238.139 -2.79696 2.13221 0
M  V30 2561 H 238.013 -3.71676 0.64316 0
M  V30 2562 H 240.4 -2.95097 0.0128255 0
M  V30 2563 H 240.481 -2.04817 1.53244 0
M  V30 2564 H 240.125 -4.22502 2.81877 0
M  V30 2565 H 240.055 -5.10958 1.27396 0
M  V30 2566 H 242.546 -3.54814 1.30059 0
M  V30 2567 H 242.859 -7.01691 3.23805 0
M  V30 2568 H 241.204 -6.31341 2.90575 0
M  V30 2569 H 244.395 -4.36533 1.68987 0
M  V30 2570 H 244.568 -5.94721 2.57316 0
M  V30 2571 N 237.974 -0.419461 -1.51915 0
M  V30 2572 C 239.222 0.152637 -2.01523 0
M  V30 2573 C 239.543 1.44762 -1.30649 0
M  V30 2574 O 238.813 1.90997 -0.435535 0
M  V30 2575 H 237.393 0.0593966 -0.744635 0
M  V30 2576 H 240.055 -0.558073 -1.86739 0
M  V30 2577 H 239.151 0.341369 -3.10227 0
M  V30 2578 N 239.452 1.56882 -0.150215 0
M  V30 2579 C 240.68 2.00593 0.506948 0
M  V30 2580 C 241.095 1.03033 1.58208 0
M  V30 2581 O 240.452 0.0278396 1.82479 0
M  V30 2582 C 240.503 3.44209 1.10465 0
M  V30 2583 O 240.224 4.3804 0.0724636 0
M  V30 2584 C 241.725 4.03214 1.84211 0
M  V30 2585 H 238.945 0.65795 0.13169 0
M  V30 2586 H 241.489 2.03018 -0.245743 0
M  V30 2587 H 239.644 3.42625 1.80795 0
M  V30 2588 H 240.058 5.22007 0.510793 0
M  V30 2589 H 241.532 5.0569 2.21318 0
M  V30 2590 H 242.009 3.44107 2.72923 0
M  V30 2591 H 242.615 4.08437 1.18572 0
M  V30 2592 N 240.93 -0.123565 1.57115 0
M  V30 2593 C 242.178 -0.83051 1.84247 0
M  V30 2594 C 242.499 -1.80629 0.73471 0
M  V30 2595 O 241.769 -1.94403 -0.241688 0
M  V30 2596 H 240.349 -0.309694 0.679778 0
M  V30 2597 H 243.011 -0.111976 1.94578 0
M  V30 2598 H 242.107 -1.37852 2.80006 0
M  V30 2599 N 242.408 -1.52605 -0.393616 0
M  V30 2600 C 243.656 -1.67093 -1.13685 0
M  V30 2601 C 243.977 -0.411011 -1.90619 0
M  V30 2602 O 243.247 0.574491 -1.87287 0
M  V30 2603 H 241.827 -0.615923 -0.422668 0
M  V30 2604 H 244.489 -1.89704 -0.447039 0
M  V30 2605 H 243.585 -2.51922 -1.84232 0
M  V30 2606 N 243.887 0.651787 -1.4349 0
M  V30 2607 C 244.85 1.74647 -1.48429 0
M  V30 2608 C 245.85 1.56513 -0.368817 0
M  V30 2609 O 247.04 1.62385 -0.630623 0
M  V30 2610 C 244.172 3.13533 -1.33827 0
M  V30 2611 H 245.365 1.71649 -2.4592 0
M  V30 2612 H 242.918 0.863573 -1.30277 0
M  V30 2613 H 243.653 3.22142 -0.37349 0
M  V30 2614 H 243.438 3.28101 -2.14691 0
M  V30 2615 H 244.928 3.93356 -1.40218 0
M  V30 2616 N 245.365 1.30045 0.890287 0
M  V30 2617 C 246.313 1.15873 2.01683 0
M  V30 2618 C 247.307 0.0719403 1.69247 0
M  V30 2619 O 248.513 0.232414 1.78493 0
M  V30 2620 H 244.888 0.358203 0.661207 0
M  V30 2621 H 246.859 2.11229 2.10772 0
M  V30 2622 C 245.608 0.861842 3.36849 0
M  V30 2623 H 244.931 1.69016 3.62317 0
M  V30 2624 H 246.371 0.802762 4.16331 0
M  V30 2625 C 244.83 -0.435132 3.34078 0
M  V30 2626 O 245.36 -1.4583 3.74295 0
M  V30 2627 N 243.566 -0.444377 2.87182 0
M  V30 2628 H 243.113 0.388723 2.5465 0
M  V30 2629 H 243.071 -1.31213 2.85711 0
M  V30 2630 N 246.843 -1.10192 1.12674 0
M  V30 2631 C 248.092 -1.81573 0.8783 0
M  V30 2632 C 248.405 -1.86249 -0.597557 0
M  V30 2633 O 249.611 -2.5386 -0.962681 0
M  V30 2634 C 248.067 -3.26149 1.52167 0
M  V30 2635 C 247.675 -3.29763 3.03249 0
M  V30 2636 C 249.419 -4.0234 1.3536 0
M  V30 2637 C 247.326 -4.68815 3.60508 0
M  V30 2638 H 246.256 -0.680394 0.324931 0
M  V30 2639 H 248.907 -1.23902 1.35353 0
M  V30 2640 H 247.289 -3.83832 0.974104 0
M  V30 2641 H 248.463 -2.8189 3.6452 0
M  V30 2642 H 246.778 -2.67059 3.19481 0
M  V30 2643 H 249.375 -5.05058 1.75559 0
M  V30 2644 H 249.718 -4.15235 0.297554 0
M  V30 2645 H 250.251 -3.51079 1.87052 0
M  V30 2646 H 246.99 -4.61121 4.65884 0
M  V30 2647 H 246.51 -5.17045 3.04014 0
M  V30 2648 H 248.189 -5.37785 3.59717 0
M  V30 2649 N 248.321 -0.919034 -1.28029 0
M  V30 2650 C 249.598 -0.473668 -1.89778 0
M  V30 2651 C 249.978 1.04783 -1.83259 0
M  V30 2652 O 249.326 1.8982 -1.27202 0
M  V30 2653 C 249.536 -1.00998 -3.34066 0
M  V30 2654 C 250.884 -1.06525 -4.1102 0
M  V30 2655 O 251.908 -0.958996 -3.43048 0
M  V30 2656 O 250.767 -1.22776 -5.3253 0
M  V30 2657 H 247.861 -0.15098 -0.813101 0
M  V30 2658 H 250.407 -1.01016 -1.36359 0
M  V30 2659 H 249.179 -2.05392 -3.33061 0
M  V30 2660 H 248.802 -0.454626 -3.94992 0
M  V30 2661 N 249.799 1.42003 -0.683588 0
M  V30 2662 C 251.21 1.84501 -0.285736 0
M  V30 2663 C 251.561 1.57213 1.17382 0
M  V30 2664 O 250.686 1.03642 1.89966 0
M  V30 2665 C 251.281 3.34912 -0.511821 0
M  V30 2666 C 249.84 3.76025 -0.168005 0
M  V30 2667 C 248.987 2.6551 -0.799983 0
M  V30 2668 H 251.938 1.31724 -0.885119 0
M  V30 2669 H 251.959 3.79784 0.233292 0
M  V30 2670 H 251.471 3.54741 -1.57418 0
M  V30 2671 H 249.572 3.61801 0.890567 0
M  V30 2672 H 249.685 4.75141 -0.614661 0
M  V30 2673 H 248.049 2.53654 -0.230568 0
M  V30 2674 H 248.832 2.8816 -1.86597 0
M  V30 2675 N 251.277 0.427512 1.51691 0
M  V30 2676 C 252.505 -0.141191 2.06418 0
M  V30 2677 C 252.92 -1.37303 1.29589 0
M  V30 2678 O 252.277 -1.79059 0.352732 0
M  V30 2679 C 252.328 -0.473266 3.58389 0
M  V30 2680 O 252.049 0.709673 4.32314 0
M  V30 2681 C 253.55 -1.09371 4.29596 0
M  V30 2682 H 250.77 -0.0122747 0.670888 0
M  V30 2683 H 253.314 0.603764 1.95384 0
M  V30 2684 H 251.469 -1.16812 3.69369 0
M  V30 2685 H 251.883 0.42807 5.2275 0
M  V30 2686 H 253.357 -1.27613 5.37046 0
M  V30 2687 H 253.834 -2.072 3.87253 0
M  V30 2688 H 254.44 -0.43853 4.23033 0
M  V30 2689 N 252.755 -1.56801 0.158532 0
M  V30 2690 C 254.002 -1.9649 -0.489679 0
M  V30 2691 C 254.33 -1.04394 -1.6411 0
M  V30 2692 O 253.585 -0.0754401 -1.95555 0
M  V30 2693 C 253.884 -3.4235 -1.02623 0
M  V30 2694 C 253.55 -4.50899 0.00794526 0
M  V30 2695 C 252.212 -4.80312 0.292207 0
M  V30 2696 C 254.564 -5.16333 0.710584 0
M  V30 2697 C 251.892 -5.72461 1.28472 0
M  V30 2698 C 254.244 -6.09553 1.69199 0
M  V30 2699 C 252.908 -6.37339 1.98383 0
M  V30 2700 H 252.178 -0.719009 -0.179186 0
M  V30 2701 H 254.825 -1.8989 0.247798 0
M  V30 2702 H 253.13 -3.45838 -1.84128 0
M  V30 2703 H 254.827 -3.70393 -1.53656 0
M  V30 2704 H 251.417 -4.28015 -0.22379 0
M  V30 2705 H 255.601 -4.93732 0.504174 0
M  V30 2706 H 250.857 -5.92278 1.51714 0
M  V30 2707 H 255.031 -6.59327 2.24189 0
M  V30 2708 H 252.658 -7.08546 2.7544 0
M  V30 2709 N 254.233 0.115231 -1.57178 0
M  V30 2710 C 255.48 0.822351 -1.8505 0
M  V30 2711 C 255.808 1.79701 -0.744168 0
M  V30 2712 O 255.063 1.93909 0.26414 0
M  V30 2713 C 255.362 1.60324 -3.19423 0
M  V30 2714 C 255.028 0.772536 -4.44233 0
M  V30 2715 C 253.69 0.543468 -4.78121 0
M  V30 2716 C 256.042 0.193746 -5.2084 0
M  V30 2717 C 253.37 -0.274583 -5.86057 0
M  V30 2718 C 255.722 -0.611517 -6.29637 0
M  V30 2719 C 254.386 -0.850867 -6.62055 0
M  V30 2720 H 253.656 0.30092 -0.677147 0
M  V30 2721 H 256.303 0.0845802 -1.91313 0
M  V30 2722 H 254.608 2.41203 -3.08753 0
M  V30 2723 H 256.305 2.1544 -3.38211 0
M  V30 2724 H 252.895 0.96117 -4.17683 0
M  V30 2725 H 257.079 0.357926 -4.95008 0
M  V30 2726 H 252.335 -0.469206 -6.09597 0
M  V30 2727 H 256.509 -1.06697 -6.88178 0
M  V30 2728 H 254.136 -1.48657 -7.45523 0
M  V30 2729 N 255.711 1.52812 0.385517 0
M  V30 2730 C 256.641 1.80808 1.47752 0
M  V30 2731 C 257.622 0.660318 1.5676 0
M  V30 2732 O 258.807 0.908246 1.71652 0
M  V30 2733 C 255.937 1.98008 2.85324 0
M  V30 2734 C 254.891 3.13709 2.91154 0
M  V30 2735 C 254.217 3.16169 4.31209 0
M  V30 2736 C 255.517 4.52709 2.60483 0
M  V30 2737 H 257.211 2.72253 1.24573 0
M  V30 2738 H 254.757 1.31003 0.597839 0
M  V30 2739 H 256.71 2.16176 3.61726 0
M  V30 2740 H 255.434 1.03255 3.09848 0
M  V30 2741 H 254.093 2.95329 2.17201 0
M  V30 2742 H 253.741 2.19092 4.52778 0
M  V30 2743 H 253.441 3.93894 4.36029 0
M  V30 2744 H 254.965 3.36496 5.09512 0
M  V30 2745 H 256.379 4.71173 3.26602 0
M  V30 2746 H 254.776 5.32528 2.76648 0
M  V30 2747 H 255.846 4.59186 1.55809 0
M  V30 2748 N 257.189 -0.644168 1.43834 0
M  V30 2749 C 258.414 -1.43642 1.49605 0
M  V30 2750 C 258.839 -1.8773 0.117913 0
M  V30 2751 O 258.197 -1.57938 -0.890239 0
M  V30 2752 C 258.245 -2.6416 2.45463 0
M  V30 2753 O 257.349 -3.63538 1.94714 0
M  V30 2754 H 256.69 -0.430329 0.50568 0
M  V30 2755 H 259.22 -0.787448 1.8884 0
M  V30 2756 H 259.23 -3.11864 2.63068 0
M  V30 2757 H 257.905 -2.31414 3.45572 0
M  V30 2758 H 256.482 -3.2273 1.86814 0
M  V30 2759 N 258.668 -1.30515 -0.883378 0
M  V30 2760 C 260.084 -1.08881 -1.16692 0
M  V30 2761 C 260.284 0.149409 -2.00945 0
M  V30 2762 O 259.34 0.84257 -2.38027 0
M  V30 2763 C 260.653 -2.35319 -1.87204 0
M  V30 2764 C 262.201 -2.40799 -1.99962 0
M  V30 2765 C 262.676 -3.67083 -2.73887 0
M  V30 2766 N 264.167 -3.679 -2.81432 0
M  V30 2767 C 264.902 -4.62303 -3.3921 0
M  V30 2768 N 264.398 -5.67052 -3.98025 0
M  V30 2769 N 266.191 -4.49845 -3.3704 0
M  V30 2770 H 258.342 -2.09951 -0.321633 0
M  V30 2771 H 260.605 -0.92556 -0.205043 0
M  V30 2772 H 260.311 -3.25689 -1.3274 0
M  V30 2773 H 260.185 -2.44089 -2.87577 0
M  V30 2774 H 262.572 -1.50907 -2.53597 0
M  V30 2775 H 262.653 -2.36003 -0.98673 0
M  V30 2776 H 262.297 -4.57334 -2.20925 0
M  V30 2777 H 262.227 -3.69141 -3.75556 0
M  V30 2778 H 264.718 -2.92171 -2.39676 0
M  V30 2779 H 265.031 -6.35184 -4.40183 0
M  V30 2780 H 263.376 -5.70842 -3.96439 0
M  V30 2781 H 266.567 -3.67194 -2.90321 0
M  V30 2782 H 266.74 -5.23597 -3.81772 0
M  V30 2783 N 260.146 1.09593 -1.13257 0
M  V30 2784 C 261.374 1.855 -0.916378 0
M  V30 2785 C 261.789 1.81069 0.534738 0
M  V30 2786 O 261.146 1.20562 1.37007 0
M  V30 2787 C 261.197 3.33546 -1.39388 0
M  V30 2788 O 260.918 3.37927 -2.78813 0
M  V30 2789 C 262.419 4.26299 -1.21588 0
M  V30 2790 H 259.639 0.585991 -0.326887 0
M  V30 2791 H 262.183 1.38488 -1.5047 0
M  V30 2792 H 260.338 3.77992 -0.848597 0
M  V30 2793 H 260.752 4.30254 -2.9997 0
M  V30 2794 H 262.226 5.28341 -1.59876 0
M  V30 2795 H 262.703 4.38918 -0.157376 0
M  V30 2796 H 263.309 3.87668 -1.7491 0
M  V30 2797 N 261.624 0.925811 1.2754 0
M  V30 2798 C 262.87 0.566092 1.94739 0
M  V30 2799 C 263.203 -0.890057 1.72603 0
M  V30 2800 O 262.478 -1.63467 1.05399 0
M  V30 2801 C 262.761 0.89054 3.48915 0
M  V30 2802 C 262.614 2.4003 3.80402 0
M  V30 2803 C 263.933 0.395101 4.38323 0
M  V30 2804 H 261.052 0.20714 0.707292 0
M  V30 2805 H 263.694 1.15725 1.50691 0
M  V30 2806 H 261.844 0.387452 3.86563 0
M  V30 2807 H 263.516 2.97494 3.52555 0
M  V30 2808 H 261.759 2.85028 3.2702 0
M  V30 2809 H 262.43 2.57785 4.8811 0
M  V30 2810 H 264.906 0.826241 4.07814 0
M  V30 2811 H 263.782 0.651086 5.45025 0
M  V30 2812 H 264.043 -0.704798 4.36446 0
M  V30 2813 N 263.102 -1.41638 0.69111 0
M  V30 2814 C 264.327 -2.06148 0.227583 0
M  V30 2815 C 264.752 -1.51652 -1.11281 0
M  V30 2816 O 264.11 -0.64164 -1.69566 0
M  V30 2817 C 264.158 -3.60095 0.190858 0
M  V30 2818 O 263.262 -4.03845 -0.835664 0
M  V30 2819 H 262.603 -0.654434 0.112306 0
M  V30 2820 H 265.133 -1.81484 0.944714 0
M  V30 2821 H 265.143 -4.07995 0.020207 0
M  V30 2822 H 263.818 -3.99129 1.16915 0
M  V30 2823 H 262.395 -3.67458 -0.63473 0
M  V30 2824 N 264.58 -0.43555 -1.51462 0
M  V30 2825 C 265.528 0.391205 -2.29287 0
M  V30 2826 C 266.522 1.02247 -1.35062 0
M  V30 2827 O 267.728 0.957646 -1.52411 0
M  V30 2828 H 264.103 0.144968 -0.737895 0
M  V30 2829 H 266.074 -0.286051 -2.97026 0
M  V30 2830 C 264.823 1.48096 -3.14583 0
M  V30 2831 H 264.146 1.00457 -3.86973 0
M  V30 2832 H 265.586 2.03273 -3.72097 0
M  V30 2833 C 264.045 2.46321 -2.29843 0
M  V30 2834 O 264.575 3.50815 -1.95682 0
M  V30 2835 N 262.781 2.17166 -1.931 0
M  V30 2836 H 262.328 1.32218 -2.21079 0
M  V30 2837 H 262.286 2.83127 -1.36698 0
M  V30 2838 N 266.058 1.56714 -0.166846 0
M  V30 2839 C 267.304 1.97039 0.479962 0
M  V30 2840 C 267.637 1.05264 1.63197 0
M  V30 2841 O 266.912 0.0988833 1.94248 0
M  V30 2842 C 267.195 3.46867 0.967212 0
M  V30 2843 C 267.048 4.49421 -0.18466 0
M  V30 2844 C 268.367 3.9968 1.84238 0
M  V30 2845 H 265.486 0.71641 0.172992 0
M  V30 2846 H 268.128 1.8832 -0.252079 0
M  V30 2847 H 266.278 3.54428 1.59101 0
M  V30 2848 H 267.95 4.53924 -0.821621 0
M  V30 2849 H 266.193 4.25573 -0.840837 0
M  V30 2850 H 266.864 5.51644 0.198317 0
M  V30 2851 H 269.34 3.94723 1.31655 0
M  V30 2852 H 268.216 5.04941 2.15234 0
M  V30 2853 H 268.477 3.43226 2.78654 0
M  V30 2854 N 267.536 -0.106894 1.57237 0
M  V30 2855 C 268.785 -0.811163 1.8467 0
M  V30 2856 C 269.098 -1.80469 0.754342 0
M  V30 2857 O 270.304 -2.55601 0.915439 0
M  V30 2858 C 268.76 -1.49337 3.27454 0
M  V30 2859 C 268.368 -0.540217 4.44731 0
M  V30 2860 C 270.112 -2.18206 3.64124 0
M  V30 2861 C 268.019 -1.22634 5.78545 0
M  V30 2862 H 266.949 -0.306679 0.688813 0
M  V30 2863 H 269.6 -0.0639887 1.83388 0
M  V30 2864 H 267.982 -2.2876 3.23241 0
M  V30 2865 H 269.156 0.221659 4.60267 0
M  V30 2866 H 267.471 0.042146 4.16379 0
M  V30 2867 H 270.068 -2.70253 4.61376 0
M  V30 2868 H 270.411 -2.96562 2.92158 0
M  V30 2869 H 270.944 -1.45658 3.70174 0
M  V30 2870 H 267.683 -0.483832 6.53712 0
M  V30 2871 H 267.203 -1.95993 5.66874 0
M  V30 2872 H 268.882 -1.75615 6.2271 0
M  V30 2873 N 269.014 -1.53014 -0.377408 0
M  V30 2874 C 270.239 -1.72818 -1.14668 0
M  V30 2875 C 270.664 -0.450725 -1.8262 0
M  V30 2876 O 270.022 0.59439 -1.7128 0
M  V30 2877 C 270.07 -2.88627 -2.16164 0
M  V30 2878 O 269.174 -2.56409 -3.22998 0
M  V30 2879 H 268.515 -0.574301 -0.333278 0
M  V30 2880 H 271.045 -1.99853 -0.438152 0
M  V30 2881 H 271.055 -3.14455 -2.59966 0
M  V30 2882 H 269.73 -3.81294 -1.66095 0
M  V30 2883 H 268.307 -2.4136 -2.84253 0
M  V30 2884 N 270.492 0.636531 -1.44174 0
M  V30 2885 C 271.717 1.42847 -1.50364 0
M  V30 2886 C 272.142 1.87665 -0.127867 0
M  V30 2887 O 271.5 1.58408 0.88185 0
M  V30 2888 C 271.548 2.62854 -2.4686 0
M  V30 2889 O 270.652 3.62501 -1.9664 0
M  V30 2890 H 269.993 0.427642 -0.507955 0
M  V30 2891 H 272.523 0.777422 -1.89255 0
M  V30 2892 H 272.533 3.10465 -2.64718 0
M  V30 2893 H 271.208 2.29578 -3.46795 0
M  V30 2894 H 269.785 3.21735 -1.88523 0
M  V30 2895 N 271.97 1.30982 0.876444 0
M  V30 2896 C 273.219 1.19658 1.62373 0
M  V30 2897 C 273.532 -0.245636 1.94052 0
M  V30 2898 O 274.738 -0.48049 2.67214 0
M  V30 2899 C 273.194 2.09433 2.92687 0
M  V30 2900 C 272.802 3.58613 2.68516 0
M  V30 2901 C 274.546 2.06893 3.70669 0
M  V30 2902 C 272.453 4.40416 3.94699 0
M  V30 2903 H 271.383 0.444268 0.609214 0
M  V30 2904 H 274.034 1.55791 0.969605 0
M  V30 2905 H 272.416 1.66191 3.59439 0
M  V30 2906 H 273.59 4.10058 2.10212 0
M  V30 2907 H 271.905 3.63063 2.03898 0
M  V30 2908 H 274.502 2.65258 4.64265 0
M  V30 2909 H 274.845 1.05448 4.02724 0
M  V30 2910 H 275.378 2.48301 3.10792 0
M  V30 2911 H 272.117 5.42591 3.67798 0
M  V30 2912 H 271.637 3.93731 4.52477 0
M  V30 2913 H 273.316 4.52294 4.62644 0
M  V30 2914 N 273.449 -1.08991 1.13837 0
M  V30 2915 C 274.695 -1.81526 0.90422 0
M  V30 2916 C 275.028 -1.85706 -0.568066 0
M  V30 2917 O 274.303 -1.32855 -1.42056 0
M  V30 2918 C 274.586 -3.27447 1.49835 0
M  V30 2919 C 274.439 -3.31512 3.04006 0
M  V30 2920 C 275.758 -4.24256 1.17025 0
M  V30 2921 H 272.877 -0.659029 0.329923 0
M  V30 2922 H 275.519 -1.27644 1.40737 0
M  V30 2923 H 273.669 -3.73462 1.07044 0
M  V30 2924 H 275.341 -2.93867 3.55584 0
M  V30 2925 H 273.584 -2.70963 3.38765 0
M  V30 2926 H 274.255 -4.34329 3.40679 0
M  V30 2927 H 276.731 -3.86549 1.54009 0
M  V30 2928 H 275.607 -5.24684 1.61237 0
M  V30 2929 H 275.868 -4.42019 0.0846274 0
M  V30 2930 N 274.927 -0.932562 -1.27047 0
M  V30 2931 C 276.174 -0.575559 -1.94148 0
M  V30 2932 C 276.502 0.883984 -1.73251 0
M  V30 2933 O 275.757 1.64655 -1.0577 0
M  V30 2934 C 276.056 -0.853713 -3.47054 0
M  V30 2935 C 275.722 -2.29577 -3.88079 0
M  V30 2936 C 274.384 -2.68999 -3.9899 0
M  V30 2937 C 276.736 -3.23331 -4.08787 0
M  V30 2938 C 274.064 -4.01289 -4.28 0
M  V30 2939 C 276.416 -4.55207 -4.39282 0
M  V30 2940 C 275.08 -4.94457 -4.48407 0
M  V30 2941 H 274.35 -0.210612 -0.710439 0
M  V30 2942 H 276.997 -1.17744 -1.51025 0
M  V30 2943 H 275.302 -0.169204 -3.91434 0
M  V30 2944 H 276.999 -0.55639 -3.97121 0
M  V30 2945 H 273.589 -1.97994 -3.80127 0
M  V30 2946 H 277.773 -2.94074 -3.99793 0
M  V30 2947 H 273.029 -4.31374 -4.33275 0
M  V30 2948 H 277.203 -5.27852 -4.54252 0
M  V30 2949 H 274.83 -5.96994 -4.7064 0
M  V30 2950 N 276.405 1.4127 -0.698611 0
M  V30 2951 C 277.653 2.00782 -0.230409 0
M  V30 2952 C 277.974 1.5562 1.17505 0
M  V30 2953 O 277.244 0.78815 1.79346 0
M  V30 2954 H 275.824 0.742464 -0.0821944 0
M  V30 2955 H 278.486 1.72852 -0.90045 0
M  V30 2956 H 277.582 3.11095 -0.25021 0
M  V30 2957 N 277.883 0.443576 1.51229 0
M  V30 2958 C 279.16 -0.181038 1.9476 0
M  V30 2959 C 279.54 -1.59523 1.38259 0
M  V30 2960 O 278.888 -2.2122 0.572198 0
M  V30 2961 C 279.098 -0.152422 3.48667 0
M  V30 2962 C 280.446 -0.354923 4.23114 0
M  V30 2963 O 281.47 -0.230257 3.55455 0
M  V30 2964 O 280.329 -0.603674 5.43156 0
M  V30 2965 H 277.423 -0.1266 0.817252 0
M  V30 2966 H 279.969 0.502004 1.62105 0
M  V30 2967 H 278.741 0.836022 3.82265 0
M  V30 2968 H 278.364 -0.878107 3.87782 0
M  V30 2969 N 279.361 -1.56624 0.175154 0
M  V30 2970 C 280.777 -1.58571 -0.180966 0
M  V30 2971 C 280.977 -1.19065 -1.6256 0
M  V30 2972 O 280.033 -0.904044 -2.35761 0
M  V30 2973 C 281.346 -3.00522 0.103326 0
M  V30 2974 C 282.894 -3.12972 0.0418426 0
M  V30 2975 C 283.369 -4.57022 0.299175 0
M  V30 2976 N 284.86 -4.62541 0.247086 0
M  V30 2977 C 285.595 -5.71857 0.420318 0
M  V30 2978 N 285.091 -6.89717 0.652816 0
M  V30 2979 N 286.884 -5.60972 0.355957 0
M  V30 2980 H 279.035 -1.80589 1.11809 0
M  V30 2981 H 281.298 -0.837178 0.444788 0
M  V30 2982 H 281.004 -3.33916 1.10422 0
M  V30 2983 H 280.878 -3.72344 -0.603299 0
M  V30 2984 H 283.265 -2.79403 -0.949636 0
M  V30 2985 H 283.346 -2.43578 0.781238 0
M  V30 2986 H 282.99 -4.913 1.28788 0
M  V30 2987 H 282.92 -5.24579 -0.460876 0
M  V30 2988 H 285.411 -3.77829 0.0731895 0
M  V30 2989 H 285.724 -7.68911 0.774347 0
M  V30 2990 H 284.069 -6.91572 0.689476 0
M  V30 2991 H 287.26 -4.67773 0.174882 0
M  V30 2992 H 287.433 -6.46111 0.494388 0
M  V30 2993 N 280.839 0.0985539 -1.57292 0
M  V30 2994 C 282.086 0.802678 -1.85912 0
M  V30 2995 C 282.414 1.78901 -0.763186 0
M  V30 2996 O 281.669 1.94178 0.243559 0
M  V30 2997 C 281.968 1.56927 -3.21105 0
M  V30 2998 C 281.634 0.725376 -4.45027 0
M  V30 2999 C 280.296 0.492726 -4.78671 0
M  V30 3000 C 282.648 0.138493 -5.21016 0
M  V30 3001 C 279.976 -0.336727 -5.85733 0
M  V30 3002 C 282.328 -0.678264 -6.28953 0
M  V30 3003 C 280.992 -0.921039 -6.61115 0
M  V30 3004 H 280.262 0.293721 -0.680301 0
M  V30 3005 H 282.909 0.0642841 -1.91392 0
M  V30 3006 H 281.214 2.37914 -3.11294 0
M  V30 3007 H 282.911 2.11841 -3.40477 0
M  V30 3008 H 279.501 0.916815 -4.18679 0
M  V30 3009 H 283.685 0.305404 -4.95359 0
M  V30 3010 H 278.941 -0.533836 -6.09065 0
M  V30 3011 H 283.115 -1.1399 -6.87007 0
M  V30 3012 H 280.742 -1.56556 -7.43905 0
M  V30 3013 N 282.317 1.53212 0.369288 0
M  V30 3014 C 283.594 1.59815 1.12776 0
M  V30 3015 C 283.974 0.403402 2.0721 0
M  V30 3016 O 283.322 -0.606667 2.20299 0
M  V30 3017 C 283.532 2.94664 1.87013 0
M  V30 3018 C 284.88 3.49109 2.41677 0
M  V30 3019 O 285.904 2.96669 1.97144 0
M  V30 3020 O 284.763 4.40775 3.23079 0
M  V30 3021 H 281.857 0.645376 0.517125 0
M  V30 3022 H 284.403 1.65553 0.37285 0
M  V30 3023 H 283.175 3.73061 1.18071 0
M  V30 3024 H 282.798 2.92401 2.69421 0
M  V30 3025 N 283.795 -0.628877 1.44509 0
M  V30 3026 C 285.025 -1.41349 1.50678 0
M  V30 3027 C 285.433 -1.88745 0.131075 0
M  V30 3028 O 284.776 -1.61592 -0.87371 0
M  V30 3029 C 284.838 -2.66608 2.41165 0
M  V30 3030 C 284.502 -2.40993 3.88293 0
M  V30 3031 C 285.499 -2.0268 4.78766 0
M  V30 3032 C 283.184 -2.54563 4.33016 0
M  V30 3033 C 285.178 -1.78269 6.11963 0
M  V30 3034 C 282.865 -2.29766 5.6626 0
M  V30 3035 C 283.863 -1.91678 6.55552 0
M  V30 3036 O 283.551 -1.67158 7.86329 0
M  V30 3037 H 283.283 -0.439851 0.51333 0
M  V30 3038 H 285.837 -0.776084 1.90174 0
M  V30 3039 H 284.067 -3.32994 1.96601 0
M  V30 3040 H 285.756 -3.28615 2.38259 0
M  V30 3041 H 286.522 -1.91751 4.45485 0
M  V30 3042 H 282.401 -2.83179 3.63773 0
M  V30 3043 H 285.945 -1.48465 6.81619 0
M  V30 3044 H 281.842 -2.40306 5.99102 0
M  V30 3045 H 282.61 -1.81386 7.98149 0
M  V30 3046 N 285.273 -1.31445 -0.869486 0
M  V30 3047 C 286.22 -1.19135 -1.97675 0
M  V30 3048 C 287.19 -0.0770266 -1.65921 0
M  V30 3049 O 288.375 -0.249972 -1.89155 0
M  V30 3050 C 285.515 -0.905149 -3.33018 0
M  V30 3051 C 284.628 -2.10285 -3.77365 0
M  V30 3052 C 283.763 -1.75339 -5.01427 0
M  V30 3053 C 282.802 -2.91515 -5.38224 0
M  V30 3054 N 281.939 -2.56762 -6.53466 0
M  V30 3055 H 286.779 -2.13853 -2.07535 0
M  V30 3056 H 284.316 -1.06379 -1.01597 0
M  V30 3057 H 286.274 -0.719765 -4.10944 0
M  V30 3058 H 284.904 0.00519624 -3.228 0
M  V30 3059 H 283.956 -2.39899 -2.95216 0
M  V30 3060 H 285.268 -2.97237 -4.00564 0
M  V30 3061 H 284.422 -1.53266 -5.87022 0
M  V30 3062 H 283.161 -0.855801 -4.80133 0
M  V30 3063 H 282.166 -3.14237 -4.51149 0
M  V30 3064 H 283.391 -3.81985 -5.61484 0
M  V30 3065 H 281.337 -1.69526 -6.33717 0
M  V30 3066 H 281.254 -3.37243 -6.76612 0
M  V30 3067 H 282.522 -2.38083 -7.42251 0
M  V30 3068 N 286.751 1.08385 -1.14413 0
M  V30 3069 C 288.028 1.77429 -0.823297 0
M  V30 3070 C 288.408 1.9974 0.683163 0
M  V30 3071 O 287.756 1.60739 1.62405 0
M  V30 3072 C 287.966 3.09004 -1.62227 0
M  V30 3073 C 289.314 3.83532 -1.82177 0
M  V30 3074 O 290.338 3.18786 -1.58915 0
M  V30 3075 O 289.197 4.99792 -2.21067 0
M  V30 3076 H 286.291 0.769999 -0.301712 0
M  V30 3077 H 288.837 1.14846 -1.24934 0
M  V30 3078 H 287.609 2.88316 -2.64555 0
M  V30 3079 H 287.232 3.79316 -1.19187 0
M  V30 3080 N 288.23 0.939286 1.26551 0
M  V30 3081 C 289.177 0.446088 2.26448 0
M  V30 3082 C 290.147 -0.493234 1.58608 0
M  V30 3083 O 291.332 -0.409857 1.86346 0
M  V30 3084 C 288.472 -0.284375 3.43926 0
M  V30 3085 C 287.585 0.690399 4.26448 0
M  V30 3086 C 286.72 -0.0610712 5.31165 0
M  V30 3087 C 285.759 0.905649 6.05363 0
M  V30 3088 N 284.896 0.186055 7.01853 0
M  V30 3089 H 289.736 1.30291 2.68008 0
M  V30 3090 H 287.273 0.65371 1.31776 0
M  V30 3091 H 289.231 -0.724313 4.10864 0
M  V30 3092 H 287.861 -1.10535 3.03285 0
M  V30 3093 H 286.913 1.24885 3.59316 0
M  V30 3094 H 288.225 1.42873 4.779 0
M  V30 3095 H 287.379 -0.56038 6.04106 0
M  V30 3096 H 286.118 -0.832297 4.80546 0
M  V30 3097 H 285.123 1.4161 5.3125 0
M  V30 3098 H 286.348 1.67685 6.58072 0
M  V30 3099 H 284.294 -0.566714 6.53548 0
M  V30 3100 H 284.211 0.863752 7.51049 0
M  V30 3101 H 285.479 -0.292221 7.78952 0
M  V30 3102 N 289.708 -1.40897 0.706093 0
M  V30 3103 C 290.618 -2.3455 0.0482286 0
M  V30 3104 C 291.634 -1.56796 -0.754396 0
M  V30 3105 O 292.81 -1.89228 -0.689538 0
M  V30 3106 C 289.875 -3.35625 -0.869303 0
M  V30 3107 C 288.936 -4.29261 -0.0576994 0
M  V30 3108 C 288.169 -5.25508 -0.931531 0
M  V30 3109 O 288.392 -5.27472 -2.17092 0
M  V30 3110 O 287.326 -6.00727 -0.375587 0
M  V30 3111 H 291.152 -2.92407 0.820476 0
M  V30 3112 H 288.737 -1.4193 0.4665 0
M  V30 3113 H 290.619 -3.97635 -1.39514 0
M  V30 3114 H 289.294 -2.80196 -1.62086 0
M  V30 3115 H 288.201 -3.70566 0.512988 0
M  V30 3116 H 289.534 -4.87817 0.655426 0
M  V30 3117 N 291.186 -0.45159 -1.50991 0
M  V30 3118 C 292.433 0.110074 -2.02201 0
M  V30 3119 C 292.761 1.4146 -1.33489 0
M  V30 3120 O 292.016 1.90617 -0.443125 0
M  V30 3121 C 292.315 0.361728 -3.55565 0
M  V30 3122 C 291.981 -0.858717 -4.42648 0
M  V30 3123 C 290.643 -1.19338 -4.66167 0
M  V30 3124 C 292.995 -1.67221 -4.93646 0
M  V30 3125 C 290.323 -2.34195 -5.37931 0
M  V30 3126 C 292.675 -2.8119 -5.6667 0
M  V30 3127 C 291.339 -3.15094 -5.88449 0
M  V30 3128 H 290.609 0.040279 -0.739904 0
M  V30 3129 H 293.256 -0.601696 -1.81802 0
M  V30 3130 H 291.561 1.15554 -3.74372 0
M  V30 3131 H 293.258 0.80996 -3.92735 0
M  V30 3132 H 289.848 -0.58796 -4.24548 0
M  V30 3133 H 294.032 -1.42686 -4.75347 0
M  V30 3134 H 289.288 -2.6076 -5.53005 0
M  V30 3135 H 293.462 -3.44585 -6.05173 0
M  V30 3136 H 291.089 -4.04204 -6.43835 0
M  V30 3137 N 292.664 1.56529 -0.183458 0
M  V30 3138 C 293.594 2.21549 0.737456 0
M  V30 3139 C 294.575 1.17489 1.23005 0
M  V30 3140 O 295.76 1.45959 1.281 0
M  V30 3141 C 292.89 2.86575 1.96194 0
M  V30 3142 C 291.844 3.96778 1.60473 0
M  V30 3143 C 291.17 4.48911 2.90487 0
M  V30 3144 C 292.47 5.15767 0.823497 0
M  V30 3145 H 294.164 2.98761 0.195453 0
M  V30 3146 H 291.71 1.43702 0.0925686 0
M  V30 3147 H 293.663 3.30739 2.61131 0
M  V30 3148 H 292.387 2.06749 2.52828 0
M  V30 3149 H 291.046 3.53286 0.978997 0
M  V30 3150 H 290.694 3.65862 3.45186 0
M  V30 3151 H 290.394 5.23265 2.67335 0
M  V30 3152 H 291.918 4.95771 3.56432 0
M  V30 3153 H 293.332 5.56549 1.37571 0
M  V30 3154 H 291.729 5.96114 0.690551 0
M  V30 3155 H 292.799 4.84574 -0.177782 0
M  V30 3156 N 294.142 -0.090211 1.57342 0
M  V30 3157 C 295.367 -0.810082 1.90925 0
M  V30 3158 C 295.792 -1.71248 0.778187 0
M  V30 3159 O 295.15 -1.79278 -0.269991 0
M  V30 3160 C 295.198 -1.59529 3.23393 0
M  V30 3161 O 294.302 -2.70461 3.11327 0
M  V30 3162 H 293.643 -0.222231 0.625707 0
M  V30 3163 H 296.173 -0.0639716 2.045 0
M  V30 3164 H 296.183 -1.97847 3.5682 0
M  V30 3165 H 294.858 -0.933055 4.05299 0
M  V30 3166 H 293.435 -2.35135 2.89423 0
M  V30 3167 N 295.62 -1.53406 -0.361157 0
M  V30 3168 C 296.55 -1.83136 -1.44857 0
M  V30 3169 C 297.531 -0.685174 -1.5569 0
M  V30 3170 O 298.716 -0.93544 -1.70186 0
M  V30 3171 C 295.846 -2.02522 -2.82138 0
M  V30 3172 C 294.8 -3.18302 -2.86126 0
M  V30 3173 C 294.126 -3.22989 -4.26125 0
M  V30 3174 C 295.426 -4.56796 -2.53248 0
M  V30 3175 H 297.12 -2.74201 -1.20226 0
M  V30 3176 H 294.666 -1.31938 -0.576922 0
M  V30 3177 H 296.619 -2.21904 -3.58241 0
M  V30 3178 H 295.343 -1.08172 -3.08166 0
M  V30 3179 H 294.002 -2.98747 -2.12475 0
M  V30 3180 H 293.65 -2.26267 -4.49235 0
M  V30 3181 H 293.35 -4.00781 -4.29708 0
M  V30 3182 H 294.874 -3.44559 -5.04094 0
M  V30 3183 H 296.288 -4.7631 -3.19064 0
M  V30 3184 H 294.685 -5.36862 -2.68141 0
M  V30 3185 H 295.755 -4.61606 -1.48484 0
M  V30 3186 N 297.098 0.621204 -1.44841 0
M  V30 3187 C 298.028 1.74366 -1.55303 0
M  V30 3188 C 299.009 1.65199 -0.405385 0
M  V30 3189 O 300.194 1.83807 -0.626787 0
M  V30 3190 C 297.324 3.12931 -1.50637 0
M  V30 3191 C 296.278 3.36896 -2.63979 0
M  V30 3192 C 295.604 4.75594 -2.44366 0
M  V30 3193 C 296.904 3.28483 -4.06074 0
M  V30 3194 H 298.598 1.65867 -2.49256 0
M  V30 3195 H 296.144 0.796558 -1.19962 0
M  V30 3196 H 298.097 3.9124 -1.56555 0
M  V30 3197 H 296.821 3.22237 -0.532057 0
M  V30 3198 H 295.48 2.60972 -2.57467 0
M  V30 3199 H 295.128 4.81616 -1.45105 0
M  V30 3200 H 294.828 4.92586 -3.20364 0
M  V30 3201 H 296.352 5.5612 -2.52117 0
M  V30 3202 H 297.766 3.96684 -4.13902 0
M  V30 3203 H 296.163 3.57008 -4.82354 0
M  V30 3204 H 297.233 2.26133 -4.28943 0
M  V30 3205 N 298.576 1.31904 0.862503 0
M  V30 3206 C 299.992 1.10724 1.14945 0
M  V30 3207 C 300.192 -0.117421 2.01158 0
M  V30 3208 O 299.248 -0.804595 2.39338 0
M  V30 3209 C 300.561 2.38267 1.83437 0
M  V30 3210 C 302.109 2.43949 1.96106 0
M  V30 3211 C 302.584 3.71394 2.68013 0
M  V30 3212 N 304.075 3.72331 2.75543 0
M  V30 3213 C 304.81 4.67641 3.31812 0
M  V30 3214 N 304.306 5.73313 3.88953 0
M  V30 3215 N 306.099 4.5515 3.29841 0
M  V30 3216 H 298.25 2.10436 0.288191 0
M  V30 3217 H 300.513 0.928705 0.190292 0
M  V30 3218 H 300.219 3.27759 1.27542 0
M  V30 3219 H 300.093 2.48633 2.83657 0
M  V30 3220 H 302.48 1.54922 2.51164 0
M  V30 3221 H 302.561 2.37543 0.949059 0
M  V30 3222 H 302.205 4.60791 2.13621 0
M  V30 3223 H 302.135 3.75069 3.69636 0
M  V30 3224 H 304.626 2.95947 2.34997 0
M  V30 3225 H 304.939 6.42107 4.30022 0
M  V30 3226 H 303.284 5.77077 3.87308 0
M  V30 3227 H 306.475 3.71766 2.84443 0
M  V30 3228 H 306.648 5.29604 3.73394 0
M  V30 3229 N 300.054 -1.07777 1.14986 0
M  V30 3230 C 300.987 -2.14228 0.786243 0
M  V30 3231 C 301.965 -1.60888 -0.235347 0
M  V30 3232 O 303.149 -1.88099 -0.122909 0
M  V30 3233 C 300.276 -3.38281 0.168433 0
M  V30 3234 C 299.322 -4.10387 1.16123 0
M  V30 3235 S 300.155 -4.62371 2.70135 0
M  V30 3236 C 301.311 -5.89704 2.09762 0
M  V30 3237 H 301.544 -2.44741 1.68787 0
M  V30 3238 H 299.077 -1.19984 0.971756 0
M  V30 3239 H 301.035 -4.10098 -0.181588 0
M  V30 3240 H 299.696 -3.05953 -0.710725 0
M  V30 3241 H 298.889 -4.99431 0.677086 0
M  V30 3242 H 298.491 -3.44513 1.45556 0
M  V30 3243 H 300.783 -6.61648 1.45701 0
M  V30 3244 H 301.726 -6.42824 2.96955 0
M  V30 3245 H 302.134 -5.4302 1.54239 0
M  V30 3246 N 301.532 -0.945985 -1.26051 0
M  V30 3247 C 302.465 -0.403619 -2.24602 0
M  V30 3248 C 303.443 0.510241 -1.54387 0
M  V30 3249 O 304.627 0.446593 -1.83133 0
M  V30 3250 C 301.754 0.419564 -3.36091 0
M  V30 3251 C 300.8 -0.433454 -4.24292 0
M  V30 3252 S 301.633 -1.86037 -5.02146 0
M  V30 3253 C 302.789 -1.04538 -6.17108 0
M  V30 3254 H 303.022 -1.23883 -2.7026 0
M  V30 3255 H 300.555 -0.749438 -1.34992 0
M  V30 3256 H 302.513 0.888595 -4.00767 0
M  V30 3257 H 301.174 1.22951 -2.89036 0
M  V30 3258 H 300.367 0.197486 -5.03613 0
M  V30 3259 H 299.969 -0.837357 -3.64506 0
M  V30 3260 H 302.261 -0.289923 -6.76879 0
M  V30 3261 H 303.204 -1.81222 -6.84518 0
M  V30 3262 H 303.612 -0.579319 -5.61519 0
M  V30 3263 N 303.011 1.40521 -0.713556 0
M  V30 3264 C 303.941 2.33381 -0.0743864 0
M  V30 3265 C 304.922 1.52784 0.747735 0
M  V30 3266 O 306.107 1.81258 0.697071 0
M  V30 3267 C 303.237 3.36748 0.849598 0
M  V30 3268 C 302.191 4.27793 0.133247 0
M  V30 3269 C 301.517 5.21679 1.17281 0
M  V30 3270 C 302.817 5.12415 -1.01134 0
M  V30 3271 H 304.511 2.87081 -0.850007 0
M  V30 3272 H 302.057 1.38034 -0.410201 0
M  V30 3273 H 304.01 4.00648 1.30612 0
M  V30 3274 H 302.734 2.81439 1.65709 0
M  V30 3275 H 301.393 3.65342 -0.303426 0
M  V30 3276 H 301.041 4.62677 1.9733 0
M  V30 3277 H 300.741 5.83435 0.698397 0
M  V30 3278 H 302.265 5.88456 1.62947 0
M  V30 3279 H 303.679 5.69781 -0.634274 0
M  V30 3280 H 302.076 5.83203 -1.41399 0
M  V30 3281 H 303.146 4.48514 -1.84292 0
M  V30 3282 N 304.489 0.459591 1.5075 0
M  V30 3283 C 305.737 -0.0991532 2.01857 0
M  V30 3284 C 306.058 -1.41247 1.34441 0
M  V30 3285 O 305.328 -1.89775 0.486022 0
M  V30 3286 H 303.908 -0.039633 0.745948 0
M  V30 3287 H 306.57 0.607387 1.85194 0
M  V30 3288 H 305.666 -0.258998 3.11023 0
M  V30 3289 N 305.967 -1.56429 0.191757 0
M  V30 3290 C 307.216 -1.9666 -0.448088 0
M  V30 3291 C 307.529 -1.08136 -1.62991 0
M  V30 3292 O 308.735 -1.38135 -2.33733 0
M  V30 3293 C 307.191 -3.49753 -0.848585 0
M  V30 3294 C 306.799 -4.46935 0.308764 0
M  V30 3295 C 308.543 -3.9876 -1.4557 0
M  V30 3296 C 306.45 -5.91293 -0.112506 0
M  V30 3297 H 305.38 -0.734312 -0.171179 0
M  V30 3298 H 308.031 -1.81301 0.283242 0
M  V30 3299 H 306.413 -3.60604 -1.63649 0
M  V30 3300 H 307.587 -4.47813 1.08627 0
M  V30 3301 H 305.902 -4.08102 0.827158 0
M  V30 3302 H 308.499 -5.04086 -1.78328 0
M  V30 3303 H 308.842 -3.42875 -2.36099 0
M  V30 3304 H 309.375 -3.9101 -0.731836 0
M  V30 3305 H 306.114 -6.51097 0.758514 0
M  V30 3306 H 305.634 -5.93676 -0.854941 0
M  V30 3307 H 307.313 -6.44663 -0.549448 0
M  V30 3308 N 307.445 0.0818655 -1.57387 0
M  V30 3309 C 308.692 0.782914 -1.86753 0
M  V30 3310 C 309.02 1.78082 -0.782118 0
M  V30 3311 O 308.275 1.94426 0.22295 0
M  V30 3312 C 308.574 1.53513 -3.22752 0
M  V30 3313 C 308.24 0.678134 -4.45771 0
M  V30 3314 C 306.902 0.441929 -4.79166 0
M  V30 3315 C 309.254 0.0832243 -5.21134 0
M  V30 3316 C 306.582 -0.398833 -5.85343 0
M  V30 3317 C 308.934 -0.744935 -6.28199 0
M  V30 3318 C 307.598 -0.991107 -6.60101 0
M  V30 3319 H 306.868 0.286489 -0.683378 0
M  V30 3320 H 309.515 0.0439808 -1.91449 0
M  V30 3321 H 307.82 2.34599 -3.138 0
M  V30 3322 H 309.517 2.08218 -3.42705 0
M  V30 3323 H 306.107 0.872357 -4.19628 0
M  V30 3324 H 310.291 0.252847 -4.95655 0
M  V30 3325 H 305.547 -0.598405 -6.08465 0
M  V30 3326 H 309.721 -1.21271 -6.8576 0
M  V30 3327 H 307.348 -1.64437 -7.42202 0
M  V30 3328 N 308.923 1.53595 0.353017 0
M  V30 3329 C 309.855 1.77219 1.45348 0
M  V30 3330 C 310.868 0.65324 1.49119 0
M  V30 3331 O 312.057 0.929775 1.52373 0
M  V30 3332 C 309.157 1.84841 2.84055 0
M  V30 3333 C 308.33 3.14649 3.03833 0
M  V30 3334 C 307.389 3.13351 4.22727 0
M  V30 3335 O 306.415 3.87107 4.17297 0
M  V30 3336 N 307.617 2.35052 5.30783 0
M  V30 3337 H 310.382 2.72178 1.25457 0
M  V30 3338 H 307.943 1.52528 0.542833 0
M  V30 3339 H 309.935 1.81435 3.61751 0
M  V30 3340 H 308.505 0.971114 2.97133 0
M  V30 3341 H 307.725 3.31256 2.13689 0
M  V30 3342 H 309.013 4.00411 3.13925 0
M  V30 3343 H 308.411 1.74663 5.38061 0
M  V30 3344 H 306.968 2.37453 6.07009 0
M  V30 3345 N 310.401 -0.613514 1.45168 0
M  V30 3346 C 311.648 -1.37268 1.48875 0
M  V30 3347 C 311.976 -1.94077 0.128161 0
M  V30 3348 O 311.231 -1.75178 -0.872416 0
M  V30 3349 C 311.53 -2.54347 2.51083 0
M  V30 3350 C 311.196 -2.1572 3.95949 0
M  V30 3351 C 309.858 -2.04899 4.35396 0
M  V30 3352 C 312.21 -1.85485 4.87078 0
M  V30 3353 C 309.538 -1.62057 5.63875 0
M  V30 3354 C 311.89 -1.4413 6.15962 0
M  V30 3355 C 310.554 -1.31863 6.54346 0
M  V30 3356 H 309.824 -0.502299 0.544773 0
M  V30 3357 H 312.471 -0.694021 1.78481 0
M  V30 3358 H 310.776 -3.27524 2.15024 0
M  V30 3359 H 312.473 -3.12577 2.51191 0
M  V30 3360 H 309.063 -2.25066 3.64751 0
M  V30 3361 H 313.247 -1.92745 4.57343 0
M  V30 3362 H 308.503 -1.51177 5.92415 0
M  V30 3363 H 312.677 -1.19778 6.86022 0
M  V30 3364 H 310.304 -0.984392 7.538 0
M  V30 3365 N 311.879 -1.3236 -0.855495 0
M  V30 3366 C 313.107 -1.2587 -1.64208 0
M  V30 3367 C 313.522 0.173457 -1.88002 0
M  V30 3368 O 312.879 1.11027 -1.44842 0
M  V30 3369 C 312.93 -2.01424 -3.00184 0
M  V30 3370 O 312.651 -3.39051 -2.77445 0
M  V30 3371 C 314.152 -2.01948 -3.94629 0
M  V30 3372 H 311.372 -0.434318 -0.511477 0
M  V30 3373 H 313.916 -1.74469 -1.0668 0
M  V30 3374 H 312.071 -1.56549 -3.5436 0
M  V30 3375 H 312.485 -3.77711 -3.63916 0
M  V30 3376 H 313.959 -2.59297 -4.87308 0
M  V30 3377 H 314.436 -1.00554 -4.27534 0
M  V30 3378 H 315.042 -2.46767 -3.4639 0
M  V30 3379 N 313.357 1.07166 -1.15556 0
M  V30 3380 C 314.582 1.84053 -0.955988 0
M  V30 3381 C 315.007 1.81586 0.490739 0
M  V30 3382 O 314.365 1.21018 1.34997 0
M  V30 3383 C 314.413 3.28957 -1.47714 0
M  V30 3384 O 313.517 4.06795 -0.677593 0
M  V30 3385 H 312.858 0.569842 -0.340847 0
M  V30 3386 H 315.388 1.35178 -1.53584 0
M  V30 3387 H 315.398 3.79788 -1.4908 0
M  V30 3388 H 314.073 3.30068 -2.53037 0
M  V30 3389 H 312.65 3.6561 -0.733721 0
M  V30 3390 N 314.835 0.952656 1.25548 0
M  V30 3391 C 316.063 0.623496 1.97282 0
M  V30 3392 C 316.478 -0.803987 1.70826 0
M  V30 3393 O 315.835 -1.53755 0.983147 0
M  V30 3394 C 315.886 0.870209 3.5087 0
M  V30 3395 O 315.607 2.24156 3.76412 0
M  V30 3396 C 317.108 0.553164 4.39835 0
M  V30 3397 H 314.328 0.233931 0.628902 0
M  V30 3398 H 316.872 1.27649 1.59768 0
M  V30 3399 H 315.027 0.263652 3.86502 0
M  V30 3400 H 315.441 2.31021 4.70882 0
M  V30 3401 H 316.915 0.776342 5.46513 0
M  V30 3402 H 317.392 -0.512215 4.36203 0
M  V30 3403 H 317.998 1.13896 4.09766 0
M  V30 3404 N 316.313 -1.40141 0.720998 0
M  V30 3405 C 317.538 -2.05618 0.271258 0
M  V30 3406 C 317.963 -1.53978 -1.08039 0
M  V30 3407 O 317.321 -0.677463 -1.68167 0
M  V30 3408 C 317.369 -3.59609 0.267197 0
M  V30 3409 O 316.473 -4.05526 -0.749814 0
M  V30 3410 H 315.814 -0.651904 0.126162 0
M  V30 3411 H 318.344 -1.79439 0.982997 0
M  V30 3412 H 318.354 -4.0786 0.106744 0
M  V30 3413 H 317.029 -3.96559 1.25354 0
M  V30 3414 H 315.606 -3.68722 -0.556644 0
M  V30 3415 N 317.792 -0.46758 -1.50504 0
M  V30 3416 C 319.02 0.0864133 -2.06719 0
M  V30 3417 C 319.435 1.33819 -1.33184 0
M  V30 3418 O 318.792 1.78061 -0.400083 0
M  V30 3419 C 318.843 0.378079 -3.59517 0
M  V30 3420 O 318.564 -0.824044 -4.3028 0
M  V30 3421 C 320.065 0.979426 -4.32345 0
M  V30 3422 H 317.285 -0.00551697 -0.670977 0
M  V30 3423 H 319.829 -0.655354 -1.93715 0
M  V30 3424 H 317.984 1.06977 -3.72337 0
M  V30 3425 H 318.398 -0.566518 -5.21432 0
M  V30 3426 H 319.872 1.1333 -5.40241 0
M  V30 3427 H 320.349 1.9686 -3.9261 0
M  V30 3428 H 320.955 0.326216 -4.24047 0
M  V30 3429 N 319.27 1.56325 -0.20005 0
M  V30 3430 C 320.518 1.97329 0.436547 0
M  V30 3431 C 320.839 1.08826 1.61808 0
M  V30 3432 O 320.109 0.160604 1.95241 0
M  V30 3433 H 318.689 0.728714 0.164272 0
M  V30 3434 H 321.351 1.92761 -0.287937 0
M  V30 3435 H 320.447 3.02264 0.777353 0
M  V30 3436 N 320.748 -0.0735177 1.57428 0
M  V30 3437 C 321.68 -1.11423 2.00294 0
M  V30 3438 C 322.693 -1.35084 0.908637 0
M  V30 3439 O 323.882 -1.33355 1.18654 0
M  V30 3440 C 320.982 -2.46548 2.32523 0
M  V30 3441 C 320.155 -2.42867 3.63778 0
M  V30 3442 C 319.214 -3.60087 3.83697 0
M  V30 3443 O 318.24 -3.41595 4.55304 0
M  V30 3444 N 319.442 -4.80372 3.25919 0
M  V30 3445 H 322.207 -0.749206 2.90184 0
M  V30 3446 H 319.768 -0.262195 1.59763 0
M  V30 3447 H 321.76 -3.23607 2.43024 0
M  V30 3448 H 320.33 -2.75059 1.48531 0
M  V30 3449 H 319.55 -1.51206 3.64047 0
M  V30 3450 H 320.838 -2.37506 4.49965 0
M  V30 3451 H 320.236 -4.983 2.67795 0
M  V30 3452 H 318.793 -5.54948 3.41871 0
M  V30 3453 N 322.226 -1.5378 -0.344866 0
M  V30 3454 C 323.156 -1.84662 -1.42906 0
M  V30 3455 C 324.137 -0.701648 -1.54955 0
M  V30 3456 O 325.322 -0.953438 -1.69184 0
M  V30 3457 C 322.452 -2.05503 -2.79974 0
M  V30 3458 C 321.406 -3.21318 -2.82734 0
M  V30 3459 C 320.732 -3.2749 -4.22675 0
M  V30 3460 C 322.032 -4.59456 -2.48389 0
M  V30 3461 H 323.726 -2.75461 -1.17311 0
M  V30 3462 H 321.272 -1.32542 -0.562896 0
M  V30 3463 H 323.225 -2.25691 -3.55867 0
M  V30 3464 H 321.949 -1.11434 -3.07002 0
M  V30 3465 H 320.608 -3.00984 -2.09294 0
M  V30 3466 H 320.256 -2.31019 -4.4681 0
M  V30 3467 H 319.956 -4.05316 -4.25433 0
M  V30 3468 H 321.48 -3.49887 -5.00412 0
M  V30 3469 H 322.894 -4.79667 -3.13995 0
M  V30 3470 H 321.291 -5.39675 -2.62432 0
M  V30 3471 H 322.361 -4.63155 -1.4358 0
M  V30 3472 N 323.704 0.605807 -1.45491 0
M  V30 3473 C 324.934 1.38934 -1.52908 0
M  V30 3474 C 325.342 1.88513 -0.161086 0
M  V30 3475 O 324.685 1.62962 0.847891 0
M  V30 3476 C 324.747 2.62737 -2.45376 0
M  V30 3477 C 324.411 2.34785 -3.92078 0
M  V30 3478 C 325.408 1.95038 -4.8193 0
M  V30 3479 C 323.093 2.47642 -4.37011 0
M  V30 3480 C 325.087 1.68511 -6.14722 0
M  V30 3481 C 322.774 2.20728 -5.69844 0
M  V30 3482 C 323.772 1.81225 -6.58519 0
M  V30 3483 O 323.46 1.54627 -7.88889 0
M  V30 3484 H 323.192 0.431629 -0.520262 0
M  V30 3485 H 325.746 0.74573 -1.91384 0
M  V30 3486 H 323.976 3.29824 -2.01874 0
M  V30 3487 H 325.665 3.24783 -2.43456 0
M  V30 3488 H 326.431 1.84639 -4.48479 0
M  V30 3489 H 322.31 2.77356 -3.68232 0
M  V30 3490 H 325.854 1.37602 -6.83894 0
M  V30 3491 H 321.751 2.30744 -6.02849 0
M  V30 3492 H 322.519 1.68665 -8.00933 0
M  V30 3493 N 325.182 1.32811 0.848464 0
M  V30 3494 C 326.092 1.24278 1.98978 0
M  V30 3495 C 327.108 0.155176 1.73307 0
M  V30 3496 O 328.284 0.376999 1.9784 0
M  V30 3497 C 325.349 0.972444 3.32783 0
M  V30 3498 C 324.41 2.14911 3.71634 0
M  V30 3499 C 323.643 1.89157 4.99054 0
M  V30 3500 O 323.866 0.837165 5.64223 0
M  V30 3501 O 322.8 2.75433 5.35183 0
M  V30 3502 H 326.626 2.20238 2.09115 0
M  V30 3503 H 324.211 1.12762 0.980052 0
M  V30 3504 H 326.093 0.838432 4.12975 0
M  V30 3505 H 324.768 0.043051 3.23671 0
M  V30 3506 H 323.675 2.33862 2.91992 0
M  V30 3507 H 325.008 3.06151 3.85399 0
M  V30 3508 N 326.66 -1.06551 1.16123 0
M  V30 3509 C 327.593 -2.13382 0.80892 0
M  V30 3510 C 328.571 -1.61128 -0.21827 0
M  V30 3511 O 329.755 -1.88219 -0.102952 0
M  V30 3512 C 326.882 -3.38083 0.204303 0
M  V30 3513 C 325.928 -4.09133 1.20469 0
M  V30 3514 S 326.761 -4.5948 2.75024 0
M  V30 3515 C 327.917 -5.87446 2.16005 0
M  V30 3516 H 328.15 -2.42937 1.71373 0
M  V30 3517 H 325.683 -1.18947 0.984428 0
M  V30 3518 H 327.641 -4.10268 -0.138081 0
M  V30 3519 H 326.302 -3.0669 -0.678234 0
M  V30 3520 H 325.495 -4.98685 0.730019 0
M  V30 3521 H 325.097 -3.4295 1.49202 0
M  V30 3522 H 327.389 -6.60065 1.5271 0
M  V30 3523 H 328.332 -6.39639 3.03756 0
M  V30 3524 H 328.74 -5.41354 1.59989 0
M  V30 3525 N 328.138 -0.959301 -1.25041 0
M  V30 3526 C 329.385 -0.616611 -1.92884 0
M  V30 3527 C 329.713 0.847036 -1.75087 0
M  V30 3528 O 328.968 1.62374 -1.09239 0
M  V30 3529 C 329.267 -0.927136 -3.45165 0
M  V30 3530 C 328.933 -2.37757 -3.83122 0
M  V30 3531 C 327.595 -2.77402 -3.93194 0
M  V30 3532 C 329.947 -3.31929 -4.01836 0
M  V30 3533 C 327.275 -4.10277 -4.19392 0
M  V30 3534 C 329.627 -4.64423 -4.29528 0
M  V30 3535 C 328.291 -5.03857 -4.37818 0
M  V30 3536 H 327.561 -0.225634 -0.705812 0
M  V30 3537 H 330.208 -1.20921 -1.48493 0
M  V30 3538 H 328.513 -0.252195 -3.90987 0
M  V30 3539 H 330.21 -0.6405 -3.95852 0
M  V30 3540 H 326.8 -2.06013 -3.75841 0
M  V30 3541 H 330.984 -3.02488 -3.93465 0
M  V30 3542 H 326.24 -4.40467 -4.24027 0
M  V30 3543 H 330.414 -5.37369 -4.42953 0
M  V30 3544 H 328.041 -6.06843 -4.57871 0
M  V30 3545 N 329.616 1.39756 -0.72842 0
M  V30 3546 C 330.841 2.05472 -0.282159 0
M  V30 3547 C 331.266 1.54549 1.07221 0
M  V30 3548 O 330.624 0.686372 1.67805 0
M  V30 3549 C 330.672 3.59462 -0.286264 0
M  V30 3550 O 329.776 4.05918 0.728298 0
M  V30 3551 H 329.117 0.651226 -0.129618 0
M  V30 3552 H 331.647 1.78915 -0.992499 0
M  V30 3553 H 331.657 4.07798 -0.128373 0
M  V30 3554 H 330.332 3.95889 -1.27456 0
M  V30 3555 H 328.909 3.69012 0.537081 0
M  V30 3556 N 331.094 0.475555 1.50254 0
M  V30 3557 C 332.319 -0.0777042 2.07254 0
M  V30 3558 C 332.744 -1.3235 1.3366 0
M  V30 3559 O 332.102 -1.77152 0.385597 0
M  V30 3560 C 332.15 -0.340169 3.58992 0
M  V30 3561 O 331.254 -1.41982 3.87188 0
M  V30 3562 H 330.595 0.0149556 0.663832 0
M  V30 3563 H 333.125 0.667878 1.93392 0
M  V30 3564 H 333.135 -0.579332 4.03866 0
M  V30 3565 H 331.81 0.570167 4.11973 0
M  V30 3566 H 330.387 -1.16762 3.54148 0
M  V30 3567 N 332.573 -1.56217 0.208337 0
M  V30 3568 C 333.819 -1.98242 -0.427552 0
M  V30 3569 C 334.152 -1.09554 -1.60348 0
M  V30 3570 O 333.427 -0.15035 -1.93918 0
M  V30 3571 C 333.71 -3.4931 -0.874907 0
M  V30 3572 C 333.563 -4.48773 0.303751 0
M  V30 3573 C 334.882 -4.04424 -1.73577 0
M  V30 3574 H 332.001 -0.720744 -0.153936 0
M  V30 3575 H 334.643 -1.87586 0.30192 0
M  V30 3576 H 332.793 -3.58522 -1.49648 0
M  V30 3577 H 334.465 -4.51586 0.941682 0
M  V30 3578 H 332.708 -4.23194 0.953375 0
M  V30 3579 H 333.379 -5.51976 -0.0519883 0
M  V30 3580 H 335.855 -3.98075 -1.21143 0
M  V30 3581 H 334.731 -5.1047 -2.01771 0
M  V30 3582 H 334.992 -3.50494 -2.69456 0
M  V30 3583 N 334.051 0.0651679 -1.57465 0
M  V30 3584 C 334.984 1.10876 -1.99453 0
M  V30 3585 C 335.962 1.37205 -0.872555 0
M  V30 3586 O 337.146 1.50468 -1.13542 0
M  V30 3587 C 334.273 2.45167 -2.3369 0
M  V30 3588 C 333.319 2.3493 -3.55964 0
M  V30 3589 S 334.152 1.73708 -5.06543 0
M  V30 3590 C 335.308 3.09563 -5.43987 0
M  V30 3591 H 335.541 0.750967 -2.87659 0
M  V30 3592 H 333.074 0.273933 -1.51951 0
M  V30 3593 H 335.032 3.22412 -2.54088 0
M  V30 3594 H 333.693 2.78105 -1.46001 0
M  V30 3595 H 332.886 3.3398 -3.77457 0
M  V30 3596 H 332.488 1.65823 -3.3523 0
M  V30 3597 H 334.78 4.05882 -5.42463 0
M  V30 3598 H 335.723 2.92843 -6.44708 0
M  V30 3599 H 336.131 3.10474 -4.71451 0
M  V30 3600 N 335.529 1.53961 0.336706 0
M  V30 3601 C 336.476 1.82428 1.41381 0
M  V30 3602 C 337.446 0.670444 1.51968 0
M  V30 3603 O 338.631 0.915565 1.67398 0
M  V30 3604 C 335.771 2.04564 2.77934 0
M  V30 3605 C 334.884 3.32267 2.76084 0
M  V30 3606 C 334.019 3.44434 4.04399 0
M  V30 3607 C 333.058 4.66061 3.96804 0
M  V30 3608 N 332.195 4.75224 5.16823 0
M  V30 3609 H 337.035 2.74324 1.16405 0
M  V30 3610 H 334.572 1.35869 0.563752 0
M  V30 3611 H 336.53 2.15388 3.57301 0
M  V30 3612 H 335.16 1.15974 3.01247 0
M  V30 3613 H 334.212 3.3025 1.88784 0
M  V30 3614 H 335.524 4.21733 2.66351 0
M  V30 3615 H 334.678 3.54728 4.92192 0
M  V30 3616 H 333.417 2.53037 4.16921 0
M  V30 3617 H 332.422 4.55838 3.07396 0
M  V30 3618 H 333.647 5.58829 3.85858 0
M  V30 3619 H 331.593 3.86739 5.29876 0
M  V30 3620 H 331.51 5.58636 5.09374 0
M  V30 3621 H 332.778 4.89835 6.06367 0
M  V30 3622 N 337.007 -0.598083 1.45811 0
M  V30 3623 C 337.957 -1.70272 1.51629 0
M  V30 3624 C 338.941 -1.56382 0.378629 0
M  V30 3625 O 340.133 -1.65557 0.626087 0
M  V30 3626 C 337.262 -3.09042 1.49493 0
M  V30 3627 C 336.348 -3.28284 2.68496 0
M  V30 3628 N 336.739 -3.17748 3.93535 0
M  V30 3629 C 335.037 -3.59182 2.64394 0
M  V30 3630 C 335.738 -3.38579 4.7301 0
M  V30 3631 N 334.714 -3.63016 4.04624 0
M  V30 3632 H 338.516 -1.60634 2.46118 0
M  V30 3633 H 336.03 -0.801642 1.41235 0
M  V30 3634 H 338.027 -3.88302 1.51747 0
M  V30 3635 H 336.687 -3.19823 0.560683 0
M  V30 3636 H 337.698 -2.95944 4.25014 0
M  V30 3637 H 334.375 -3.76742 1.79922 0
M  V30 3638 H 335.765 -3.35747 5.82 0
M  V30 3639 N 338.485 -1.33259 -0.841409 0
M  V30 3640 C 339.415 -1.25926 -1.96634 0
M  V30 3641 C 340.396 -0.140349 -1.6952 0
M  V30 3642 O 341.581 -0.329707 -1.91381 0
M  V30 3643 C 338.711 -0.99512 -3.32738 0
M  V30 3644 C 337.665 -2.0767 -3.74242 0
M  V30 3645 C 336.991 -1.66474 -5.08125 0
M  V30 3646 C 338.291 -3.49318 -3.88297 0
M  V30 3647 H 339.985 -2.20046 -2.03027 0
M  V30 3648 H 337.531 -1.05931 -0.975425 0
M  V30 3649 H 339.484 -0.930323 -4.11002 0
M  V30 3650 H 338.208 -0.0183004 -3.26595 0
M  V30 3651 H 336.867 -2.13187 -2.98239 0
M  V30 3652 H 336.515 -0.675012 -4.9845 0
M  V30 3653 H 336.215 -2.3885 -5.36865 0
M  V30 3654 H 337.739 -1.61455 -5.88867 0
M  V30 3655 H 339.153 -3.46316 -4.56879 0
M  V30 3656 H 337.55 -4.20158 -4.28471 0
M  V30 3657 H 338.62 -3.8801 -2.9082 0
M  V30 3658 N 339.963 1.05934 -1.16686 0
M  V30 3659 C 341.374 1.60263 -0.957745 0
M  V30 3660 C 341.725 1.89789 0.49745 0
M  V30 3661 O 340.85 1.67401 1.37135 0
M  V30 3662 C 341.445 2.91172 -1.73218 0
M  V30 3663 C 340.004 3.42188 -1.56794 0
M  V30 3664 C 339.151 2.16028 -1.73859 0
M  V30 3665 H 342.102 0.888392 -1.31504 0
M  V30 3666 H 342.123 3.60744 -1.21014 0
M  V30 3667 H 341.635 2.6965 -2.79124 0
M  V30 3668 H 339.736 3.68762 -0.533437 0
M  V30 3669 H 339.849 4.17273 -2.35414 0
M  V30 3670 H 338.213 2.26426 -1.16633 0
M  V30 3671 H 338.996 1.96985 -2.81161 0
M  V30 3672 N 341.441 0.965919 1.2453 0
M  V30 3673 C 342.689 0.625593 1.92174 0
M  V30 3674 C 343.01 -0.841652 1.75901 0
M  V30 3675 O 342.28 -1.60061 1.12948 0
M  V30 3676 H 340.86 0.228388 0.71123 0
M  V30 3677 H 343.522 1.2266 1.51461 0
M  V30 3678 H 342.618 0.864653 2.99884 0
M  V30 3679 N 342.919 -1.39368 0.735821 0
M  V30 3680 C 344.33 -1.83313 0.354015 0
M  V30 3681 C 344.681 -1.61461 -1.11466 0
M  V30 3682 O 343.806 -1.10621 -1.85989 0
M  V30 3683 C 344.401 -3.32781 0.635769 0
M  V30 3684 C 342.96 -3.75142 0.307448 0
M  V30 3685 C 342.107 -2.62358 0.897974 0
M  V30 3686 H 345.058 -1.28349 0.933398 0
M  V30 3687 H 345.079 -3.80388 -0.0921773 0
M  V30 3688 H 344.591 -3.48654 1.70476 0
M  V30 3689 H 342.692 -3.64857 -0.755674 0
M  V30 3690 H 342.805 -4.72532 0.790583 0
M  V30 3691 H 341.169 -2.52624 0.324551 0
M  V30 3692 H 341.952 -2.81036 1.97164 0
M  V30 3693 N 344.397 -0.483516 -1.5 0
M  V30 3694 C 345.329 0.340634 -2.26655 0
M  V30 3695 C 346.342 0.946152 -1.32483 0
M  V30 3696 O 347.531 0.832453 -1.579 0
M  V30 3697 C 344.631 1.4929 -3.04246 0
M  V30 3698 C 343.804 0.997903 -4.25865 0
M  V30 3699 C 342.863 2.02569 -4.85646 0
M  V30 3700 O 341.889 1.60128 -5.46212 0
M  V30 3701 N 343.091 3.3548 -4.73744 0
M  V30 3702 H 345.856 -0.316577 -2.98023 0
M  V30 3703 H 343.417 -0.315024 -1.58806 0
M  V30 3704 H 345.409 2.17766 -3.41116 0
M  V30 3705 H 343.979 2.05458 -2.35597 0
M  V30 3706 H 343.199 0.138617 -3.93956 0
M  V30 3707 H 344.487 0.645305 -5.04691 0
M  V30 3708 H 343.885 3.72661 -4.25605 0
M  V30 3709 H 342.442 3.99718 -5.14848 0
M  V30 3710 N 345.875 1.56104 -0.216619 0
M  V30 3711 C 346.807 2.17339 0.72776 0
M  V30 3712 C 347.82 1.14109 1.16116 0
M  V30 3713 O 349.009 1.4111 1.09317 0
M  V30 3714 C 346.109 2.73818 1.99693 0
M  V30 3715 C 345.282 4.02168 1.71988 0
M  V30 3716 C 344.341 4.43259 2.83562 0
M  V30 3717 O 343.367 5.10257 2.52244 0
M  V30 3718 N 344.569 4.08535 4.12407 0
M  V30 3719 H 347.334 2.99005 0.203983 0
M  V30 3720 H 344.895 1.61861 -0.0354289 0
M  V30 3721 H 346.887 2.9828 2.73516 0
M  V30 3722 H 345.457 1.96483 2.43132 0
M  V30 3723 H 344.677 3.85612 0.818337 0
M  V30 3724 H 345.965 4.85907 1.50903 0
M  V30 3725 H 345.363 3.54687 4.40696 0
M  V30 3726 H 343.92 4.37901 4.8279 0
M  V30 3727 N 347.353 -0.0568162 1.57498 0
M  V30 3728 C 348.285 -1.09292 2.01464 0
M  V30 3729 C 349.298 -1.34112 0.922913 0
M  V30 3730 O 350.487 -1.32089 1.20062 0
M  V30 3731 C 347.587 -2.44068 2.35125 0
M  V30 3732 C 346.76 -2.38995 3.66333 0
M  V30 3733 C 345.819 -3.55997 3.87495 0
M  V30 3734 O 344.845 -3.36746 4.58901 0
M  V30 3735 N 346.047 -4.76888 3.30996 0
M  V30 3736 H 348.812 -0.718386 2.90963 0
M  V30 3737 H 346.373 -0.245235 1.60032 0
M  V30 3738 H 348.365 -3.21011 2.46443 0
M  V30 3739 H 346.935 -2.73468 1.5144 0
M  V30 3740 H 346.155 -1.47336 3.65631 0
M  V30 3741 H 347.443 -2.3272 4.52458 0
M  V30 3742 H 346.841 -4.95431 2.73065 0
M  V30 3743 H 345.398 -5.51291 3.47738 0
M  V30 3744 N 348.832 -1.54138 -0.328536 0
M  V30 3745 C 349.795 -1.82462 -1.38709 0
M  V30 3746 C 350.795 -0.696229 -1.44946 0
M  V30 3747 O 351.985 -0.964535 -1.4506 0
M  V30 3748 C 349.117 -1.98018 -2.77492 0
M  V30 3749 H 350.31 -2.77037 -1.14851 0
M  V30 3750 H 347.863 -1.45779 -0.563751 0
M  V30 3751 H 348.598 -1.05637 -3.06613 0
M  V30 3752 H 348.383 -2.80124 -2.74359 0
M  V30 3753 H 349.873 -2.21396 -3.54081 0
M  V30 3754 N 350.31 0.590341 -1.46126 0
M  V30 3755 C 351.557 1.34882 -1.5104 0
M  V30 3756 C 351.885 1.93849 -0.159021 0
M  V30 3757 O 351.14 1.76544 0.844436 0
M  V30 3758 C 351.439 2.5032 -2.55097 0
M  V30 3759 C 351.105 2.09394 -3.99331 0
M  V30 3760 C 349.767 1.97947 -4.38601 0
M  V30 3761 C 352.119 1.77712 -4.89967 0
M  V30 3762 C 349.447 1.53065 -5.66381 0
M  V30 3763 C 351.799 1.34312 -6.18177 0
M  V30 3764 C 350.463 1.21436 -6.56361 0
M  V30 3765 H 349.733 0.493568 -0.552695 0
M  V30 3766 H 352.38 0.665539 -1.79563 0
M  V30 3767 H 350.685 3.24062 -2.20207 0
M  V30 3768 H 352.382 3.08541 -2.56132 0
M  V30 3769 H 348.972 2.19235 -3.68285 0
M  V30 3770 H 353.156 1.85445 -4.60352 0
M  V30 3771 H 348.412 1.41733 -5.94745 0
M  V30 3772 H 352.586 1.08849 -6.87841 0
M  V30 3773 H 350.213 0.864345 -7.5527 0
M  V30 3774 N 351.788 1.33704 0.83433 0
M  V30 3775 C 352.72 1.20172 1.9517 0
M  V30 3776 C 353.733 0.131572 1.62267 0
M  V30 3777 O 354.922 0.382406 1.74356 0
M  V30 3778 C 352.022 0.821716 3.28787 0
M  V30 3779 C 351.195 1.98446 3.89792 0
M  V30 3780 C 350.254 1.58469 5.01771 0
M  V30 3781 O 349.28 2.29968 5.20676 0
M  V30 3782 N 350.482 0.492291 5.78409 0
M  V30 3783 H 353.247 2.16429 2.07313 0
M  V30 3784 H 350.808 1.26509 1.0103 0
M  V30 3785 H 352.8 0.536291 4.01131 0
M  V30 3786 H 351.37 -0.0503058 3.1256 0
M  V30 3787 H 350.59 2.43526 3.09982 0
M  V30 3788 H 351.878 2.76236 4.27283 0
M  V30 3789 H 351.276 -0.102349 5.65607 0
M  V30 3790 H 349.833 0.266555 6.51255 0
M  V30 3791 N 353.266 -1.05314 1.17247 0
M  V30 3792 C 354.196 -2.1498 0.911362 0
M  V30 3793 C 355.177 -1.69471 -0.146169 0
M  V30 3794 O 356.362 -1.942 0.003812 0
M  V30 3795 C 353.492 -3.4472 0.422528 0
M  V30 3796 C 352.446 -4.03789 1.4191 0
M  V30 3797 C 351.772 -5.28858 0.788274 0
M  V30 3798 C 353.072 -4.41418 2.7919 0
M  V30 3799 H 354.766 -2.3708 1.82848 0
M  V30 3800 H 352.312 -1.13938 0.880569 0
M  V30 3801 H 354.265 -4.20787 0.227289 0
M  V30 3802 H 352.989 -3.22269 -0.530123 0
M  V30 3803 H 351.648 -3.2979 1.60106 0
M  V30 3804 H 351.296 -5.02709 -0.171173 0
M  V30 3805 H 350.996 -5.69338 1.45353 0
M  V30 3806 H 352.52 -6.07612 0.603282 0
M  V30 3807 H 353.934 -5.08524 2.64719 0
M  V30 3808 H 352.331 -4.92913 3.42282 0
M  V30 3809 H 353.401 -3.51819 3.33693 0
M  V30 3810 N 354.744 -0.972509 -1.24016 0
M  V30 3811 C 355.674 -0.525548 -2.27509 0
M  V30 3812 C 356.655 0.437262 -1.64384 0
M  V30 3813 O 357.84 0.332343 -1.91335 0
M  V30 3814 C 354.97 0.180448 -3.46831 0
M  V30 3815 C 353.924 -0.698859 -4.22256 0
M  V30 3816 C 353.25 0.138903 -5.3452 0
M  V30 3817 C 354.55 -1.98582 -4.83076 0
M  V30 3818 H 356.244 -1.39058 -2.65148 0
M  V30 3819 H 353.79 -0.67009 -1.27459 0
M  V30 3820 H 355.743 0.504387 -4.18371 0
M  V30 3821 H 354.467 1.07987 -3.08231 0
M  V30 3822 H 353.126 -1.00614 -3.52523 0
M  V30 3823 H 352.774 1.03862 -4.9216 0
M  V30 3824 H 352.474 -0.446259 -5.85903 0
M  V30 3825 H 353.998 0.457404 -6.08884 0
M  V30 3826 H 355.412 -1.72715 -5.46665 0
M  V30 3827 H 353.809 -2.5181 -5.44713 0
M  V30 3828 H 354.879 -2.67769 -4.04262 0
M  V30 3829 N 356.222 1.38976 -0.743202 0
M  V30 3830 C 357.154 2.29096 -0.0689228 0
M  V30 3831 C 358.167 1.47229 0.694791 0
M  V30 3832 O 359.356 1.70212 0.537597 0
M  V30 3833 C 356.456 3.25988 0.926548 0
M  V30 3834 C 355.629 4.36833 0.222647 0
M  V30 3835 C 354.688 5.13981 1.12739 0
M  V30 3836 O 353.714 5.6601 0.601795 0
M  V30 3837 N 354.916 5.25966 2.45641 0
M  V30 3838 H 357.681 2.87604 -0.842846 0
M  V30 3839 H 355.242 1.50645 -0.593109 0
M  V30 3840 H 357.234 3.74476 1.5346 0
M  V30 3841 H 355.804 2.68453 1.60162 0
M  V30 3842 H 355.024 3.90116 -0.565983 0
M  V30 3843 H 356.312 5.0811 -0.264841 0
M  V30 3844 H 355.71 4.85228 2.9081 0
M  V30 3845 H 354.267 5.77865 3.01522 0
M  V30 3846 N 357.7 0.491464 1.49741 0
M  V30 3847 C 358.948 -0.0563141 2.02022 0
M  V30 3848 C 359.269 -1.38363 1.37407 0
M  V30 3849 O 358.539 -1.88702 0.526166 0
M  V30 3850 H 357.119 -0.0238014 0.746621 0
M  V30 3851 H 359.781 0.646533 1.83864 0
M  V30 3852 H 358.877 -0.192967 3.11503 0
M  V30 3853 N 359.178 -1.55987 0.224894 0
M  V30 3854 C 360.108 -2.23426 -0.678457 0
M  V30 3855 C 361.089 -1.20709 -1.19847 0
M  V30 3856 O 362.274 -1.49304 -1.24186 0
M  V30 3857 C 359.404 -2.91676 -1.88527 0
M  V30 3858 C 358.358 -4.00893 -1.49896 0
M  V30 3859 C 357.684 -4.56455 -2.78483 0
M  V30 3860 C 358.984 -5.17769 -0.686461 0
M  V30 3861 H 360.678 -2.99175 -0.116173 0
M  V30 3862 H 358.224 -1.43897 -0.054436 0
M  V30 3863 H 360.177 -3.37547 -2.5227 0
M  V30 3864 H 358.901 -2.1338 -2.47258 0
M  V30 3865 H 357.56 -3.55758 -0.884985 0
M  V30 3866 H 357.208 -3.74886 -3.35365 0
M  V30 3867 H 356.908 -5.30169 -2.53368 0
M  V30 3868 H 358.432 -5.05047 -3.43162 0
M  V30 3869 H 359.846 -5.60001 -1.22767 0
M  V30 3870 H 358.243 -5.97735 -0.532259 0
M  V30 3871 H 359.313 -4.83932 0.306196 0
M  V30 3872 N 360.656 0.0484629 -1.57525 0
M  V30 3873 C 361.566 1.07241 -2.08654 0
M  V30 3874 C 362.582 1.409 -1.02095 0
M  V30 3875 O 363.758 1.50609 -1.33712 0
M  V30 3876 C 360.823 2.36008 -2.5397 0
M  V30 3877 C 359.884 2.09108 -3.7493 0
M  V30 3878 C 359.117 3.31736 -4.18075 0
M  V30 3879 O 359.34 4.41714 -3.60895 0
M  V30 3880 O 358.274 3.18576 -5.10679 0
M  V30 3881 H 362.1 0.667965 -2.96263 0
M  V30 3882 H 359.685 0.26417 -1.47046 0
M  V30 3883 H 361.567 3.11747 -2.83535 0
M  V30 3884 H 360.242 2.75786 -1.69481 0
M  V30 3885 H 359.149 1.31 -3.50414 0
M  V30 3886 H 360.482 1.74198 -4.60343 0
M  V30 3887 N 362.134 1.5431 0.320358 0
M  V30 3888 C 363.411 1.63322 1.07635 0
M  V30 3889 C 363.791 0.46912 2.05821 0
M  V30 3890 O 363.139 -0.536274 2.22118 0
M  V30 3891 C 363.349 3.00465 1.77544 0
M  V30 3892 C 364.697 3.56621 2.30449 0
M  V30 3893 O 365.721 3.02791 1.87606 0
M  V30 3894 O 364.58 4.5083 3.08892 0
M  V30 3895 H 361.674 0.661502 0.496331 0
M  V30 3896 H 364.22 1.66656 0.319992 0
M  V30 3897 H 362.992 3.76629 1.06143 0
M  V30 3898 H 362.615 3.00824 2.59982 0
M  V30 3899 N 363.613 -0.582584 1.46437 0
M  V30 3900 C 364.86 -1.34079 1.51753 0
M  V30 3901 C 365.188 -1.93762 0.169299 0
M  V30 3902 O 364.443 -1.76989 -0.835062 0
M  V30 3903 C 364.742 -2.48964 2.56421 0
M  V30 3904 C 364.408 -2.07273 4.00436 0
M  V30 3905 C 363.07 -1.95618 4.39644 0
M  V30 3906 C 365.422 -1.75111 4.90903 0
M  V30 3907 C 362.75 -1.5006 5.67185 0
M  V30 3908 C 365.102 -1.31032 6.18881 0
M  V30 3909 C 363.766 -1.17954 6.56996 0
M  V30 3910 H 363.036 -0.49063 0.555304 0
M  V30 3911 H 365.683 -0.656007 1.79913 0
M  V30 3912 H 363.988 -3.22889 2.21923 0
M  V30 3913 H 365.685 -3.07178 2.57765 0
M  V30 3914 H 362.275 -2.17279 3.69443 0
M  V30 3915 H 366.459 -1.83001 4.61329 0
M  V30 3916 H 361.715 -1.38577 5.95488 0
M  V30 3917 H 365.889 -1.052 6.88408 0
M  V30 3918 H 363.516 -0.824279 7.55718 0
M  V30 3919 N 365.091 -1.34144 -0.827227 0
M  V30 3920 C 366.34 -1.25602 -1.5782 0
M  V30 3921 C 366.653 0.173445 -1.94829 0
M  V30 3922 O 367.859 0.380984 -2.68814 0
M  V30 3923 C 366.315 -2.20151 -2.84713 0
M  V30 3924 C 365.923 -3.68331 -2.55021 0
M  V30 3925 C 367.667 -2.20508 -3.62735 0
M  V30 3926 C 365.574 -4.54762 -3.78082 0
M  V30 3927 H 364.504 -0.466573 -0.592306 0
M  V30 3928 H 367.155 -1.59283 -0.911116 0
M  V30 3929 H 365.537 -1.79417 -3.53023 0
M  V30 3930 H 366.711 -4.17577 -1.94849 0
M  V30 3931 H 365.026 -3.7038 -1.90283 0
M  V30 3932 H 367.623 -2.82306 -4.54101 0
M  V30 3933 H 367.966 -1.20322 -3.98533 0
M  V30 3934 H 368.499 -2.59664 -3.01362 0
M  V30 3935 H 365.238 -5.55867 -3.47407 0
M  V30 3936 H 364.758 -4.10254 -4.37552 0
M  V30 3937 H 366.437 -4.69153 -4.45538 0
M  V30 3938 N 366.569 1.04691 -1.17803 0
M  V30 3939 C 367.532 2.10724 -0.901545 0
M  V30 3940 C 368.532 1.6042 0.110437 0
M  V30 3941 O 369.722 1.7377 -0.122303 0
M  V30 3942 C 366.854 3.39084 -0.351409 0
M  V30 3943 H 368.047 2.36686 -1.84174 0
M  V30 3944 H 365.6 1.21015 -0.98919 0
M  V30 3945 H 366.335 3.18782 0.59569 0
M  V30 3946 H 366.12 3.76909 -1.08083 0
M  V30 3947 H 367.61 4.17227 -0.176451 0
M  V30 3948 N 368.047 0.979072 1.23499 0
M  V30 3949 C 368.994 0.517904 2.24914 0
M  V30 3950 C 369.964 -0.442525 1.60097 0
M  V30 3951 O 371.149 -0.350365 1.87556 0
M  V30 3952 C 368.289 -0.174813 3.44657 0
M  V30 3953 C 367.402 0.825721 4.24035 0
M  V30 3954 C 366.537 0.107946 5.3109 0
M  V30 3955 C 365.576 1.09778 6.02175 0
M  V30 3956 N 364.713 0.40925 7.00906 0
M  V30 3957 H 369.553 1.38751 2.63727 0
M  V30 3958 H 367.09 0.695303 1.2963 0
M  V30 3959 H 369.048 -0.593233 4.12961 0
M  V30 3960 H 367.678 -1.0083 3.06648 0
M  V30 3961 H 366.73 1.36253 3.55161 0
M  V30 3962 H 368.042 1.58005 4.73113 0
M  V30 3963 H 367.196 -0.367904 6.05583 0
M  V30 3964 H 365.935 -0.678994 4.8295 0
M  V30 3965 H 364.94 1.5844 5.26476 0
M  V30 3966 H 366.165 1.88536 6.52404 0
M  V30 3967 H 364.111 -0.358506 6.5502 0
M  V30 3968 H 364.028 1.10226 7.47921 0
M  V30 3969 H 365.296 -0.0442557 7.79487 0
M  V30 3970 N 369.525 -1.3858 0.750561 0
M  V30 3971 C 370.472 -2.30483 0.120835 0
M  V30 3972 C 371.442 -1.50022 -0.712923 0
M  V30 3973 O 372.627 -1.78662 -0.669676 0
M  V30 3974 C 369.767 -3.36431 -0.768666 0
M  V30 3975 C 368.88 -4.31927 0.0793922 0
M  V30 3976 C 368.015 -5.24944 -0.81283 0
M  V30 3977 C 367.054 -6.12088 0.0390447 0
M  V30 3978 N 366.191 -6.97412 -0.809969 0
M  V30 3979 H 371.031 -2.83761 0.91015 0
M  V30 3980 H 368.568 -1.39707 0.460463 0
M  V30 3981 H 370.526 -3.96462 -1.29898 0
M  V30 3982 H 369.156 -2.8457 -1.5238 0
M  V30 3983 H 368.208 -3.73382 0.727303 0
M  V30 3984 H 369.52 -4.93319 0.737401 0
M  V30 3985 H 368.674 -5.90078 -1.41042 0
M  V30 3986 H 367.413 -4.63911 -1.50458 0
M  V30 3987 H 366.418 -5.45952 0.649328 0
M  V30 3988 H 367.643 -6.75189 0.727809 0
M  V30 3989 H 365.589 -6.38931 -1.48672 0
M  V30 3990 H 365.506 -7.55712 -0.208789 0
M  V30 3991 H 366.774 -7.66959 -1.39263 0
M  V30 3992 N 371.003 -0.499398 -1.49478 0
M  V30 3993 C 372.249 0.0457576 -2.02748 0
M  V30 3994 C 372.582 1.36793 -1.37846 0
M  V30 3995 O 371.857 1.87596 -0.513601 0
M  V30 3996 C 372.14 0.199986 -3.59544 0
M  V30 3997 C 371.993 -1.1452 -4.34977 0
M  V30 3998 C 373.312 0.94137 -4.29914 0
M  V30 3999 H 370.431 0.0151552 -0.736844 0
M  V30 4000 H 373.073 -0.650498 -1.78518 0
M  V30 4001 H 371.223 0.793007 -3.8032 0
M  V30 4002 H 372.895 -1.77697 -4.25701 0
M  V30 4003 H 371.138 -1.73488 -3.97598 0
M  V30 4004 H 371.809 -0.990607 -5.43039 0
M  V30 4005 H 374.285 0.43844 -4.13784 0
M  V30 4006 H 373.161 1.01812 -5.39375 0
M  V30 4007 H 373.422 1.98471 -3.95046 0
M  V30 4008 N 372.481 1.55866 -0.233164 0
M  V30 4009 C 373.391 2.24431 0.683217 0
M  V30 4010 C 374.407 1.2558 1.2044 0
M  V30 4011 O 375.583 1.58422 1.24356 0
M  V30 4012 C 372.648 2.91979 1.86947 0
M  V30 4013 C 371.709 4.06204 1.38912 0
M  V30 4014 C 370.942 4.70522 2.51883 0
M  V30 4015 O 371.165 4.33865 3.70293 0
M  V30 4016 O 370.099 5.59296 2.22423 0
M  V30 4017 H 373.925 3.03426 0.129059 0
M  V30 4018 H 371.51 1.494 -0.0022283 0
M  V30 4019 H 373.392 3.34573 2.56201 0
M  V30 4020 H 372.067 2.15935 2.41151 0
M  V30 4021 H 370.974 3.68155 0.664259 0
M  V30 4022 H 372.307 4.84025 0.893328 0
M  V30 4023 N 373.959 -0.0401083 1.57549 0
M  V30 4024 C 374.909 -1.05175 2.02292 0
M  V30 4025 C 375.893 -1.32674 0.910294 0
M  V30 4026 O 377.085 -1.32444 1.17421 0
M  V30 4027 C 374.214 -2.35622 2.49674 0
M  V30 4028 C 373.3 -2.11261 3.67736 0
M  V30 4029 N 373.691 -1.56923 4.80842 0
M  V30 4030 C 371.989 -2.41596 3.74897 0
M  V30 4031 C 372.69 -1.48111 5.62528 0
M  V30 4032 N 371.666 -1.95282 5.07312 0
M  V30 4033 H 375.468 -0.625455 2.87168 0
M  V30 4034 H 372.982 -0.246624 1.60516 0
M  V30 4035 H 374.979 -3.08893 2.79983 0
M  V30 4036 H 373.639 -2.7894 1.662 0
M  V30 4037 H 374.65 -1.25345 5.02503 0
M  V30 4038 H 371.327 -2.88064 3.02201 0
M  V30 4039 H 372.717 -1.06683 6.63377 0
M  V30 4040 N 375.437 -1.54477 -0.31217 0
M  V30 4041 C 376.385 -1.85395 -1.40469 0
M  V30 4042 C 377.379 -0.726749 -1.53019 0
M  V30 4043 O 378.585 -0.910582 -1.55269 0
M  V30 4044 H 374.96 -0.587845 -0.46898 0
M  V30 4045 H 376.931 -2.76736 -1.11623 0
M  V30 4046 C 375.68 -2.10811 -2.76503 0
M  V30 4047 H 375.003 -2.97014 -2.67625 0
M  V30 4048 H 376.443 -2.3639 -3.51988 0
M  V30 4049 C 374.902 -0.903165 -3.24568 0
M  V30 4050 O 375.432 -0.118085 -4.01526 0
M  V30 4051 N 373.638 -0.711634 -2.81752 0
M  V30 4052 H 373.185 -1.35171 -2.19286 0
M  V30 4053 H 373.143 0.0930473 -3.14262 0
M  V30 4054 N 376.915 0.57481 -1.46744 0
M  V30 4055 C 377.847 1.69804 -1.53946 0
M  V30 4056 C 378.86 1.57098 -0.427106 0
M  V30 4057 O 380.049 1.64378 -0.695863 0
M  V30 4058 C 377.149 3.08125 -1.4111 0
M  V30 4059 C 376.322 3.46757 -2.66605 0
M  V30 4060 C 375.381 4.6417 -2.47855 0
M  V30 4061 O 374.407 4.69634 -3.21609 0
M  V30 4062 N 375.609 5.59553 -1.54534 0
M  V30 4063 H 378.374 1.64077 -2.50796 0
M  V30 4064 H 375.935 0.761 -1.429 0
M  V30 4065 H 377.927 3.84478 -1.26328 0
M  V30 4066 H 376.497 3.08175 -0.524109 0
M  V30 4067 H 375.717 2.6003 -2.96274 0
M  V30 4068 H 377.005 3.69337 -3.49954 0
M  V30 4069 H 376.403 5.57881 -0.937304 0
M  V30 4070 H 374.96 6.35304 -1.45711 0
M  V30 4071 N 378.394 1.34581 0.820102 0
M  V30 4072 C 379.81 1.14325 1.11364 0
M  V30 4073 C 380.01 -0.0533648 2.01429 0
M  V30 4074 O 379.066 -0.728044 2.41776 0
M  V30 4075 C 380.379 2.43983 1.75764 0
M  V30 4076 C 381.927 2.50065 1.88246 0
M  V30 4077 C 382.402 3.79732 2.56061 0
M  V30 4078 N 383.893 3.80908 2.63558 0
M  V30 4079 C 384.628 4.77961 3.16766 0
M  V30 4080 N 384.124 5.85397 3.70517 0
M  V30 4081 N 385.917 4.65413 3.15194 0
M  V30 4082 H 378.068 2.11246 0.221096 0
M  V30 4083 H 380.331 0.934289 0.160649 0
M  V30 4084 H 380.037 3.31651 1.1705 0
M  V30 4085 H 379.911 2.57531 2.75604 0
M  V30 4086 H 382.298 1.62834 2.46108 0
M  V30 4087 H 382.379 2.40442 0.873006 0
M  V30 4088 H 382.023 4.67354 1.98853 0
M  V30 4089 H 381.953 3.86639 3.57516 0
M  V30 4090 H 384.444 3.03274 2.25463 0
M  V30 4091 H 384.757 6.55463 4.09376 0
M  V30 4092 H 383.102 5.89107 3.68752 0
M  V30 4093 H 386.293 3.80627 2.72471 0
M  V30 4094 H 386.466 5.41216 3.56356 0
M  V30 4095 N 379.872 -1.04064 1.18357 0
M  V30 4096 C 381.1 -1.80916 1.00384 0
M  V30 4097 C 381.515 -1.83414 -0.447738 0
M  V30 4098 O 380.872 -1.26962 -1.31099 0
M  V30 4099 C 380.923 -3.26516 1.55144 0
M  V30 4100 O 380.644 -3.2424 2.94618 0
M  V30 4101 C 382.145 -4.20013 1.41789 0
M  V30 4102 H 379.365 -0.569728 0.354474 0
M  V30 4103 H 381.909 -1.31151 1.56906 0
M  V30 4104 H 380.064 -3.73512 1.02798 0
M  V30 4105 H 380.478 -4.15452 3.20156 0
M  V30 4106 H 381.952 -5.20111 1.84901 0
M  V30 4107 H 382.429 -4.37667 0.36661 0
M  V30 4108 H 383.035 -3.78881 1.93207 0
M  V30 4109 N 381.35 -0.985608 -1.22978 0
M  V30 4110 C 382.28 -0.549649 -2.26939 0
M  V30 4111 C 383.261 0.419803 -1.64838 0
M  V30 4112 O 384.446 0.31203 -1.91677 0
M  V30 4113 C 381.576 0.143652 -3.47003 0
M  V30 4114 C 380.53 -0.743606 -4.21491 0
M  V30 4115 C 379.856 0.0822027 -5.34637 0
M  V30 4116 C 381.156 -2.03694 -4.80943 0
M  V30 4117 H 382.85 -1.41862 -2.63658 0
M  V30 4118 H 380.396 -0.683571 -1.26741 0
M  V30 4119 H 382.349 0.459985 -4.18882 0
M  V30 4120 H 381.073 1.04711 -3.09359 0
M  V30 4121 H 379.732 -1.04347 -3.51436 0
M  V30 4122 H 379.38 0.986359 -4.93234 0
M  V30 4123 H 379.08 -0.508377 -5.85397 0
M  V30 4124 H 380.604 0.392797 -6.09335 0
M  V30 4125 H 382.018 -1.78504 -5.44802 0
M  V30 4126 H 380.415 -2.57573 -5.42011 0
M  V30 4127 H 381.485 -2.72042 -4.01399 0
M  V30 4128 N 382.828 1.3818 -0.7579 0
M  V30 4129 C 384.105 1.94106 -0.241306 0
M  V30 4130 C 384.485 1.69282 1.26122 0
M  V30 4131 O 383.833 1.03378 2.03777 0
M  V30 4132 C 384.043 3.43809 -0.59967 0
M  V30 4133 C 385.391 4.20868 -0.561717 0
M  V30 4134 O 386.415 3.5211 -0.538222 0
M  V30 4135 O 385.274 5.43451 -0.576478 0
M  V30 4136 H 382.368 0.825376 -0.0518042 0
M  V30 4137 H 384.914 1.47548 -0.838315 0
M  V30 4138 H 383.686 3.55403 -1.6372 0
M  V30 4139 H 383.309 3.97592 0.0251197 0
M  V30 4140 N 384.306 0.507319 1.49211 0
M  V30 4141 C 385.717 0.0611118 1.866 0
M  V30 4142 C 386.068 -1.35488 1.41907 0
M  V30 4143 O 385.193 -2.0108 0.799726 0
M  V30 4144 C 385.788 0.104125 3.3864 0
M  V30 4145 C 384.347 -0.28677 3.75306 0
M  V30 4146 C 383.494 0.473893 2.73221 0
M  V30 4147 H 386.445 0.719775 1.41439 0
M  V30 4148 H 386.466 -0.689672 3.74198 0
M  V30 4149 H 385.978 1.13482 3.71138 0
M  V30 4150 H 384.079 -1.32046 3.48417 0
M  V30 4151 H 384.192 0.0370745 4.79086 0
M  V30 4152 H 382.556 -0.0770644 2.54583 0
M  V30 4153 H 383.339 1.50478 3.08563 0
M  V30 4154 N 385.784 -1.5574 0.241426 0
M  V30 4155 C 386.732 -2.22538 -0.676718 0
M  V30 4156 C 387.726 -1.21117 -1.18436 0
M  V30 4157 O 388.932 -1.39144 -1.14188 0
M  V30 4158 H 385.307 -0.713776 -0.236701 0
M  V30 4159 H 387.278 -2.98264 -0.0901187 0
M  V30 4160 C 386.027 -2.93439 -1.86518 0
M  V30 4161 H 385.35 -3.7125 -1.4837 0
M  V30 4162 H 386.79 -3.43549 -2.48495 0
M  V30 4163 C 385.249 -1.97008 -2.73294 0
M  V30 4164 O 385.779 -1.49965 -3.72657 0
M  V30 4165 N 383.985 -1.64227 -2.39745 0
M  V30 4166 H 383.532 -2.02677 -1.58996 0
M  V30 4167 H 383.49 -0.999708 -2.98083 0
M  V30 4168 N 387.262 0.0317525 -1.57568 0
M  V30 4169 C 388.487 0.738664 -1.938 0
M  V30 4170 C 388.912 1.68242 -0.841208 0
M  V30 4171 O 388.27 1.80157 0.203267 0
M  V30 4172 C 388.318 1.47417 -3.29091 0
M  V30 4173 O 387.422 2.5872 -3.2115 0
M  V30 4174 H 386.763 0.198856 -0.633524 0
M  V30 4175 H 389.293 -0.0119713 -2.04596 0
M  V30 4176 H 389.303 1.84468 -3.63917 0
M  V30 4177 H 387.978 0.781988 -4.08482 0
M  V30 4178 H 386.555 2.24231 -2.97951 0
M  V30 4179 N 388.74 1.54641 0.303973 0
M  V30 4180 C 390.151 1.64811 0.877163 0
M  V30 4181 C 390.502 0.554838 1.88191 0
M  V30 4182 O 389.627 -0.309033 2.14182 0
M  V30 4183 C 390.222 2.9876 1.59775 0
M  V30 4184 C 388.781 3.11061 2.11938 0
M  V30 4185 C 387.928 2.60479 0.951097 0
M  V30 4186 H 390.879 1.58493 0.0810486 0
M  V30 4187 H 390.9 2.90017 2.46314 0
M  V30 4188 H 390.412 3.7831 0.866226 0
M  V30 4189 H 388.513 2.36225 2.88146 0
M  V30 4190 H 388.626 4.17171 2.35595 0
M  V30 4191 H 386.99 2.16859 1.33583 0
M  V30 4192 H 387.773 3.42504 0.233581 0
M  V30 4193 N 390.218 -0.567019 1.47046 0
M  V30 4194 C 391.634 -0.891975 1.32348 0
M  V30 4195 C 391.834 -1.99154 0.306616 0
M  V30 4196 O 390.89 -2.50883 -0.28532 0
M  V30 4197 C 392.203 -1.29449 2.7141 0
M  V30 4198 C 393.751 -1.40646 2.79621 0
M  V30 4199 C 394.226 -1.84257 4.19301 0
M  V30 4200 N 395.717 -1.91424 4.21795 0
M  V30 4201 C 396.452 -2.26476 5.26779 0
M  V30 4202 N 395.948 -2.60211 6.42077 0
M  V30 4203 N 397.741 -2.27166 5.14152 0
M  V30 4204 H 389.892 0.159074 2.11803 0
M  V30 4205 H 392.155 0.00849752 0.947962 0
M  V30 4206 H 391.861 -0.560448 3.47206 0
M  V30 4207 H 391.735 -2.25273 3.02542 0
M  V30 4208 H 394.122 -2.13133 2.04104 0
M  V30 4209 H 394.203 -0.430339 2.52154 0
M  V30 4210 H 393.847 -1.12343 4.95319 0
M  V30 4211 H 393.777 -2.82855 4.44185 0
M  V30 4212 H 396.268 -1.6778 3.38612 0
M  V30 4213 H 396.581 -2.85956 7.17948 0
M  V30 4214 H 394.926 -2.57813 6.45413 0
M  V30 4215 H 398.117 -2.00244 4.23107 0
M  V30 4216 H 398.29 -2.54154 5.96079 0
M  V30 4217 N 391.696 -1.35014 -0.812953 0
M  V30 4218 C 392.973 -1.18502 -1.55617 0
M  V30 4219 C 393.353 0.238421 -2.09749 0
M  V30 4220 O 392.701 1.2411 -1.91857 0
M  V30 4221 C 392.911 -2.24783 -2.66971 0
M  V30 4222 C 394.259 -2.60268 -3.35478 0
M  V30 4223 O 395.283 -2.23648 -2.77236 0
M  V30 4224 O 394.142 -3.2321 -4.40678 0
M  V30 4225 H 391.236 -0.459984 -0.687272 0
M  V30 4226 H 393.782 -1.46677 -0.853464 0
M  V30 4227 H 392.554 -3.20284 -2.24798 0
M  V30 4228 H 392.177 -1.97841 -3.44884 0
M  V30 4229 N 393.175 1.03435 -1.18907 0
M  V30 4230 C 394.422 1.76743 -0.988334 0
M  V30 4231 C 394.75 1.88447 0.481441 0
M  V30 4232 O 394.005 1.39383 1.37371 0
M  V30 4233 C 394.304 3.19792 -1.59586 0
M  V30 4234 C 393.97 3.28108 -3.09283 0
M  V30 4235 C 392.632 3.30084 -3.5014 0
M  V30 4236 C 394.984 3.27696 -4.05296 0
M  V30 4237 C 392.312 3.29299 -4.85571 0
M  V30 4238 C 394.664 3.28451 -5.4065 0
M  V30 4239 C 393.328 3.28723 -5.80946 0
M  V30 4240 H 392.598 0.64675 -0.361657 0
M  V30 4241 H 395.245 1.21442 -1.48068 0
M  V30 4242 H 393.55 3.78136 -1.02568 0
M  V30 4243 H 395.247 3.75171 -1.41589 0
M  V30 4244 H 391.837 3.27294 -2.76725 0
M  V30 4245 H 396.021 3.25354 -3.74778 0
M  V30 4246 H 391.277 3.2783 -5.16079 0
M  V30 4247 H 395.451 3.27082 -6.14809 0
M  V30 4248 H 393.078 3.27868 -6.85862 0
M  V30 4249 N 394.653 0.992116 1.22453 0
M  V30 4250 C 395.902 0.662992 1.90492 0
M  V30 4251 C 396.215 -0.808407 1.78113 0
M  V30 4252 O 397.421 -1.24908 2.41061 0
M  V30 4253 C 395.877 1.1353 3.41524 0
M  V30 4254 C 395.485 2.63187 3.62542 0
M  V30 4255 C 397.229 0.880465 4.15269 0
M  V30 4256 C 395.136 3.04024 5.0727 0
M  V30 4257 H 394.066 0.244278 0.713333 0
M  V30 4258 H 396.717 1.20157 1.38688 0
M  V30 4259 H 395.099 0.52485 3.92506 0
M  V30 4260 H 396.273 3.2957 3.22056 0
M  V30 4261 H 394.588 2.86543 3.02129 0
M  V30 4262 H 397.185 1.16128 5.21937 0
M  V30 4263 H 397.528 -0.183408 4.15896 0
M  V30 4264 H 398.061 1.45307 3.70312 0
M  V30 4265 H 394.8 4.09584 5.11782 0
M  V30 4266 H 394.32 2.42343 5.48662 0
M  V30 4267 H 395.999 2.95282 5.75689 0
M  V30 4268 N 396.131 -1.37776 0.765217 0
M  V30 4269 C 397.408 -1.93975 0.251596 0
M  V30 4270 C 397.788 -1.69949 -1.25222 0
M  V30 4271 O 397.136 -1.04457 -2.03226 0
M  V30 4272 C 397.346 -3.43487 0.617895 0
M  V30 4273 C 398.694 -4.20564 0.584029 0
M  V30 4274 O 399.718 -3.5182 0.556888 0
M  V30 4275 O 398.577 -5.43138 0.605291 0
M  V30 4276 H 395.671 -0.82509 0.0561806 0
M  V30 4277 H 398.217 -1.47101 0.846128 0
M  V30 4278 H 396.989 -3.5453 1.65602 0
M  V30 4279 H 396.612 -3.976 -0.00403411 0
M  V30 4280 N 397.609 -0.515225 -1.4894 0
M  V30 4281 C 398.834 0.022727 -2.07388 0
M  V30 4282 C 399.259 1.2876 -1.37122 0
M  V30 4283 O 398.617 1.76067 -0.432431 0
M  V30 4284 C 398.665 0.244869 -3.59768 0
M  V30 4285 O 397.769 1.31667 -3.90817 0
M  V30 4286 H 397.11 -0.0325506 -0.663202 0
M  V30 4287 H 399.64 -0.718918 -1.91553 0
M  V30 4288 H 399.65 0.47205 -4.0526 0
M  V30 4289 H 398.325 -0.679194 -4.10317 0
M  V30 4290 H 396.902 1.07331 -3.5712 0
M  V30 4291 N 399.087 1.5561 -0.249682 0
M  V30 4292 C 400.334 1.99011 0.374287 0
M  V30 4293 C 400.662 1.13785 1.57744 0
M  V30 4294 O 399.917 0.189326 1.94782 0
M  V30 4295 C 400.216 3.4775 0.824887 0
M  V30 4296 C 399.882 4.50086 -0.270819 0
M  V30 4297 C 398.544 4.77791 -0.571746 0
M  V30 4298 C 400.896 5.11312 -1.01041 0
M  V30 4299 C 398.224 5.63997 -1.61629 0
M  V30 4300 C 400.576 5.98651 -2.0445 0
M  V30 4301 C 399.24 6.24688 -2.35204 0
M  V30 4302 H 398.51 0.728233 0.136961 0
M  V30 4303 H 401.157 1.88122 -0.358087 0
M  V30 4304 H 399.462 3.55985 1.63651 0
M  V30 4305 H 401.159 3.78721 1.31799 0
M  V30 4306 H 397.749 4.28592 -0.026136 0
M  V30 4307 H 401.933 4.89953 -0.791177 0
M  V30 4308 H 397.189 5.82425 -1.85988 0
M  V30 4309 H 401.363 6.45135 -2.62248 0
M  V30 4310 H 398.99 6.91281 -3.16282 0
M  V30 4311 N 400.565 -0.0233959 1.57583 0
M  V30 4312 C 401.495 -1.02162 2.09965 0
M  V30 4313 C 402.476 -1.3735 1.00344 0
M  V30 4314 O 403.661 -1.46135 1.27899 0
M  V30 4315 C 400.791 -2.32081 2.58371 0
M  V30 4316 C 399.745 -2.1112 3.72307 0
M  V30 4317 C 399.071 -3.46848 4.06941 0
M  V30 4318 C 400.371 -1.49276 5.00514 0
M  V30 4319 H 402.065 -0.585557 2.93618 0
M  V30 4320 H 399.611 -0.280218 1.41247 0
M  V30 4321 H 401.564 -3.02249 2.93639 0
M  V30 4322 H 400.288 -2.77758 1.71808 0
M  V30 4323 H 398.947 -1.43384 3.37397 0
M  V30 4324 H 398.595 -3.90184 3.17436 0
M  V30 4325 H 398.295 -3.33646 4.83688 0
M  V30 4326 H 399.819 -4.18369 4.44747 0
M  V30 4327 H 401.233 -2.09368 5.33702 0
M  V30 4328 H 399.63 -1.46632 5.8191 0
M  V30 4329 H 400.7 -0.459217 4.82721 0
M  V30 4330 N 402.043 -1.548 -0.295768 0
M  V30 4331 C 403.292 -1.73538 -1.02798 0
M  V30 4332 C 403.605 -0.531159 -1.8825 0
M  V30 4333 O 404.811 -0.600458 -2.64777 0
M  V30 4334 C 403.267 -3.07051 -1.87744 0
M  V30 4335 C 402.875 -4.34968 -1.07269 0
M  V30 4336 C 404.619 -3.35146 -2.60533 0
M  V30 4337 C 402.526 -5.5953 -1.91521 0
M  V30 4338 H 401.456 -0.646794 -0.387522 0
M  V30 4339 H 404.107 -1.81278 -0.284718 0
M  V30 4340 H 402.489 -2.93289 -2.66078 0
M  V30 4341 H 403.663 -4.5958 -0.335117 0
M  V30 4342 H 401.978 -4.13847 -0.460384 0
M  V30 4343 H 404.575 -4.2541 -3.23929 0
M  V30 4344 H 404.918 -2.54255 -3.29636 0
M  V30 4345 H 405.451 -3.49902 -1.89244 0
M  V30 4346 H 402.19 -6.43103 -1.26878 0
M  V30 4347 H 401.71 -5.39096 -2.62937 0
M  V30 4348 H 403.389 -5.96982 -2.49442 0
M  V30 4349 N 403.521 0.559213 -1.47345 0
M  V30 4350 C 404.937 0.884943 -1.32819 0
M  V30 4351 C 405.137 1.98988 -0.317173 0
M  V30 4352 O 404.193 2.51031 0.272011 0
M  V30 4353 C 405.506 1.28007 -2.72093 0
M  V30 4354 C 407.054 1.39161 -2.80363 0
M  V30 4355 C 407.529 1.82031 -4.20272 0
M  V30 4356 N 409.02 1.89185 -4.22804 0
M  V30 4357 C 409.755 2.2368 -5.27973 0
M  V30 4358 N 409.251 2.56802 -6.43447 0
M  V30 4359 N 411.044 2.24436 -5.15349 0
M  V30 4360 H 403.195 -0.170304 -2.11716 0
M  V30 4361 H 405.458 -0.0135247 -0.947904 0
M  V30 4362 H 405.164 0.542027 -3.47498 0
M  V30 4363 H 405.038 2.23665 -3.03733 0
M  V30 4364 H 407.425 2.12048 -2.05231 0
M  V30 4365 H 407.506 0.41696 -2.52379 0
M  V30 4366 H 407.15 1.09715 -4.95908 0
M  V30 4367 H 407.08 2.80495 -4.45679 0
M  V30 4368 H 409.571 1.65982 -3.39497 0
M  V30 4369 H 409.884 2.82144 -7.19454 0
M  V30 4370 H 408.229 2.54387 -6.46771 0
M  V30 4371 H 411.42 1.97998 -4.24163 0
M  V30 4372 H 411.593 2.50989 -5.97418 0
M  V30 4373 N 404.999 1.35443 0.805782 0
M  V30 4374 C 405.932 1.22783 1.92353 0
M  V30 4375 C 406.91 0.115543 1.62189 0
M  V30 4376 O 408.094 0.283778 1.86352 0
M  V30 4377 C 405.221 0.890746 3.26777 0
M  V30 4378 C 404.267 2.01519 3.75889 0
M  V30 4379 S 405.1 3.63101 3.93596 0
M  V30 4380 C 406.256 3.31472 5.30921 0
M  V30 4381 H 406.489 2.17394 2.02798 0
M  V30 4382 H 404.022 1.20669 0.963245 0
M  V30 4383 H 405.98 0.703068 4.04434 0
M  V30 4384 H 404.641 -0.0373152 3.14078 0
M  V30 4385 H 403.834 1.7335 4.7325 0
M  V30 4386 H 403.436 2.16124 3.05231 0
M  V30 4387 H 405.728 2.8435 6.1494 0
M  V30 4388 H 406.671 4.28036 5.64084 0
M  V30 4389 H 407.079 2.67221 4.97246 0
M  V30 4390 N 406.477 -1.02803 1.19454 0
M  V30 4391 C 407.409 -2.11181 0.890807 0
M  V30 4392 C 408.422 -1.6238 -0.116829 0
M  V30 4393 O 409.611 -1.78144 0.112694 0
M  V30 4394 C 406.711 -3.37461 0.311942 0
M  V30 4395 C 405.884 -4.15446 1.36834 0
M  V30 4396 C 404.943 -5.20039 0.802864 0
M  V30 4397 O 403.969 -5.49602 1.48077 0
M  V30 4398 N 405.171 -5.79165 -0.393417 0
M  V30 4399 H 407.936 -2.37827 1.82369 0
M  V30 4400 H 405.497 -1.19101 1.09666 0
M  V30 4401 H 407.489 -4.0462 -0.0802225 0
M  V30 4402 H 406.059 -3.08156 -0.52524 0
M  V30 4403 H 405.279 -3.43423 1.93531 0
M  V30 4404 H 406.567 -4.64335 2.08015 0
M  V30 4405 H 405.965 -5.57466 -0.961658 0
M  V30 4406 H 404.522 -6.47729 -0.727351 0
M  V30 4407 N 407.956 -0.998596 -1.21925 0
M  V30 4408 C 408.866 -0.562736 -2.27751 0
M  V30 4409 C 409.882 0.391203 -1.69545 0
M  V30 4410 O 411.058 0.256625 -1.99758 0
M  V30 4411 C 408.123 0.11012 -3.46525 0
M  V30 4412 C 407.184 -0.887495 -4.20026 0
M  V30 4413 C 406.417 -0.246654 -5.3313 0
M  V30 4414 O 406.64 0.958088 -5.62296 0
M  V30 4415 O 405.574 -0.954374 -5.94286 0
M  V30 4416 H 409.4 -1.44329 -2.67213 0
M  V30 4417 H 406.985 -0.767135 -1.28201 0
M  V30 4418 H 408.867 0.486756 -4.18579 0
M  V30 4419 H 407.542 0.965154 -3.08976 0
M  V30 4420 H 406.449 -1.31517 -3.5022 0
M  V30 4421 H 407.782 -1.71191 -4.6147 0
M  V30 4422 N 409.434 1.37368 -0.772513 0
M  V30 4423 C 410.344 2.34053 -0.160081 0
M  V30 4424 C 411.36 1.60216 0.678728 0
M  V30 4425 O 412.536 1.92303 0.59847 0
M  V30 4426 C 409.601 3.3939 0.708182 0
M  V30 4427 C 408.662 4.29048 -0.147172 0
M  V30 4428 C 407.895 5.29354 0.679744 0
M  V30 4429 O 408.118 5.3723 1.91678 0
M  V30 4430 O 407.052 6.01835 0.0885444 0
M  V30 4431 H 410.878 2.88159 -0.959053 0
M  V30 4432 H 408.463 1.39543 -0.533685 0
M  V30 4433 H 410.345 4.03839 1.20384 0
M  V30 4434 H 409.02 2.8761 1.48533 0
M  V30 4435 H 407.927 3.67697 -0.689205 0
M  V30 4436 H 409.26 4.84134 -0.887423 0
M  V30 4437 N 410.912 0.523116 1.48665 0
M  V30 4438 C 411.822 -0.247406 2.33292 0
M  V30 4439 C 412.838 -0.945769 1.46052 0
M  V30 4440 O 414.014 -0.922253 1.79043 0
M  V30 4441 C 411.079 -1.28487 3.22012 0
M  V30 4442 C 410.14 -0.597592 4.2512 0
M  V30 4443 C 409.373 -1.58563 5.09601 0
M  V30 4444 O 409.596 -2.81763 4.95949 0
M  V30 4445 O 408.53 -1.12879 5.91221 0
M  V30 4446 H 412.356 0.445869 3.00409 0
M  V30 4447 H 409.941 0.284128 1.46673 0
M  V30 4448 H 411.823 -1.88459 3.7691 0
M  V30 4449 H 410.498 -1.96068 2.57564 0
M  V30 4450 H 409.405 0.0424407 3.74076 0
M  V30 4451 H 410.738 0.0361517 4.92187 0
M  V30 4452 N 412.39 -1.55475 0.257931 0
M  V30 4453 C 413.337 -2.21837 -0.636939 0
M  V30 4454 C 414.307 -1.18596 -1.16294 0
M  V30 4455 O 415.492 -1.47081 -1.21539 0
M  V30 4456 C 412.632 -2.9301 -1.82317 0
M  V30 4457 C 411.745 -4.10931 -1.33265 0
M  V30 4458 C 410.88 -4.69791 -2.47931 0
M  V30 4459 C 409.919 -5.7994 -1.95796 0
M  V30 4460 N 409.056 -6.32935 -3.0387 0
M  V30 4461 H 413.896 -2.9793 -0.0643591 0
M  V30 4462 H 411.433 -1.47086 -0.0200031 0
M  V30 4463 H 413.391 -3.3248 -2.52018 0
M  V30 4464 H 412.021 -2.1937 -2.36805 0
M  V30 4465 H 411.073 -3.76699 -0.52931 0
M  V30 4466 H 412.385 -4.90417 -0.910654 0
M  V30 4467 H 411.539 -5.11892 -3.25656 0
M  V30 4468 H 410.278 -3.89545 -2.93438 0
M  V30 4469 H 409.283 -5.37305 -1.16546 0
M  V30 4470 H 410.508 -6.62043 -1.51246 0
M  V30 4471 H 408.454 -5.55591 -3.48791 0
M  V30 4472 H 408.371 -7.07645 -2.66035 0
M  V30 4473 H 409.639 -6.79695 -3.81621 0
M  V30 4474 N 413.868 0.0150385 -1.57593 0
M  V30 4475 C 414.816 1.02958 -2.08572 0
M  V30 4476 C 415.81 1.36554 -1.00246 0
M  V30 4477 O 417.016 1.35295 -1.18724 0
M  V30 4478 H 413.391 0.349619 -0.665786 0
M  V30 4479 H 415.362 0.573932 -2.92829 0
M  V30 4480 C 414.111 2.31752 -2.59203 0
M  V30 4481 H 413.434 2.06765 -3.42182 0
M  V30 4482 H 414.874 3.01053 -2.98568 0
M  V30 4483 C 413.333 3.01692 -1.49945 0
M  V30 4484 O 413.863 3.92083 -0.873704 0
M  V30 4485 N 412.069 2.6326 -1.23056 0
M  V30 4486 H 411.616 1.89838 -1.74125 0
M  V30 4487 H 411.574 3.10372 -0.501685 0
M  V30 4488 N 415.346 1.54954 0.287554 0
M  V30 4489 C 416.757 1.65732 0.859634 0
M  V30 4490 C 417.108 0.574767 1.87592 0
M  V30 4491 O 416.233 -0.286299 2.14498 0
M  V30 4492 C 416.828 3.00438 1.56597 0
M  V30 4493 C 415.387 3.13292 2.08627 0
M  V30 4494 C 414.534 2.61473 0.923416 0
M  V30 4495 H 417.485 1.5857 0.0642338 0
M  V30 4496 H 417.506 2.92613 2.43224 0
M  V30 4497 H 417.018 3.79207 0.826053 0
M  V30 4498 H 415.119 2.39268 2.85625 0
M  V30 4499 H 415.232 4.19647 2.31157 0
M  V30 4500 H 413.596 2.18264 1.31275 0
M  V30 4501 H 414.379 3.42733 0.197241 0
M  V30 4502 N 416.824 -0.551391 1.4764 0
M  V30 4503 C 417.772 -1.67896 1.60978 0
M  V30 4504 C 418.766 -1.62549 0.476877 0
M  V30 4505 O 419.972 -1.67664 0.654878 0
M  V30 4506 H 416.347 -0.555649 0.506713 0
M  V30 4507 H 418.318 -1.53784 2.55721 0
M  V30 4508 C 417.067 -3.06234 1.64669 0
M  V30 4509 H 416.39 -3.11033 2.51194 0
M  V30 4510 H 417.83 -3.84804 1.7805 0
M  V30 4511 C 416.289 -3.34737 0.381115 0
M  V30 4512 O 416.819 -3.98381 -0.515297 0
M  V30 4513 N 415.025 -2.8944 0.259354 0
M  V30 4514 H 414.572 -2.37827 0.98976 0
M  V30 4515 H 414.53 -3.08882 -0.586464 0
M  V30 4516 N 418.302 -1.35869 -0.798587 0
M  V30 4517 C 419.53 -1.32722 -1.58722 0
M  V30 4518 C 419.945 0.0935631 -1.88568 0
M  V30 4519 O 419.302 1.04784 -1.49421 0
M  V30 4520 C 419.353 -2.13974 -2.91371 0
M  V30 4521 O 419.074 -3.50514 -2.62815 0
M  V30 4522 C 420.575 -2.18504 -3.85708 0
M  V30 4523 H 417.795 -0.45562 -0.492596 0
M  V30 4524 H 420.339 -1.78837 -0.991843 0
M  V30 4525 H 418.494 -1.71438 -3.47402 0
M  V30 4526 H 418.908 -3.92806 -3.47568 0
M  V30 4527 H 420.382 -2.79732 -4.75872 0
M  V30 4528 H 420.859 -1.18597 -4.22885 0
M  V30 4529 H 421.465 -2.61236 -3.35612 0
M  V30 4530 N 419.78 1.02168 -1.19998 0
M  V30 4531 C 420.69 2.14069 -0.959774 0
M  V30 4532 C 421.706 1.73804 0.082655 0
M  V30 4533 O 422.882 2.01133 -0.103633 0
M  V30 4534 C 419.947 3.42936 -0.509459 0
M  V30 4535 C 419.008 3.97474 -1.62213 0
M  V30 4536 C 418.241 5.2019 -1.19321 0
M  V30 4537 O 418.464 5.70369 -0.0597726 0
M  V30 4538 O 417.398 5.67749 -1.99863 0
M  V30 4539 H 421.224 2.37199 -1.89658 0
M  V30 4540 H 418.809 1.12469 -0.983411 0
M  V30 4541 H 420.691 4.20551 -0.267322 0
M  V30 4542 H 419.366 3.21234 0.398821 0
M  V30 4543 H 418.273 3.21161 -1.9185 0
M  V30 4544 H 419.606 4.23555 -2.50723 0
M  V30 4545 N 421.258 1.00505 1.21394 0
M  V30 4546 C 422.505 0.687774 1.90462 0
M  V30 4547 C 422.833 -0.78147 1.7811 0
M  V30 4548 O 422.088 -1.58208 1.1519 0
M  V30 4549 C 422.387 1.0546 3.41486 0
M  V30 4550 C 422.053 2.51812 3.74034 0
M  V30 4551 C 420.715 2.91804 3.82628 0
M  V30 4552 C 423.067 3.46614 3.8924 0
M  V30 4553 C 420.395 4.2556 4.03876 0
M  V30 4554 C 422.747 4.80044 4.11995 0
M  V30 4555 C 421.411 5.19759 4.18816 0
M  V30 4556 H 420.681 0.251674 0.696951 0
M  V30 4557 H 423.328 1.26349 1.43903 0
M  V30 4558 H 421.633 0.397133 3.89782 0
M  V30 4559 H 423.33 0.786976 3.93202 0
M  V30 4560 H 419.92 2.1982 3.67936 0
M  V30 4561 H 424.104 3.16883 3.81967 0
M  V30 4562 H 419.36 4.55901 4.07387 0
M  V30 4563 H 423.534 5.53439 4.22704 0
M  V30 4564 H 421.161 6.23418 4.35033 0
M  V30 4565 N 422.737 -1.36956 0.779787 0
M  V30 4566 C 423.967 -2.03459 0.358877 0
M  V30 4567 C 424.375 -1.58939 -1.02641 0
M  V30 4568 O 423.718 -0.769777 -1.66794 0
M  V30 4569 C 423.78 -3.5796 0.332393 0
M  V30 4570 C 423.444 -4.25644 1.66362 0
M  V30 4571 C 424.441 -4.49205 2.61746 0
M  V30 4572 C 422.126 -4.63313 1.94027 0
M  V30 4573 C 424.12 -5.09503 3.82996 0
M  V30 4574 C 421.807 -5.2333 3.15546 0
M  V30 4575 C 422.805 -5.46363 4.0985 0
M  V30 4576 O 422.493 -6.05122 5.29228 0
M  V30 4577 H 422.225 -0.659767 0.147254 0
M  V30 4578 H 424.779 -1.76111 1.05708 0
M  V30 4579 H 423.009 -3.84388 -0.422237 0
M  V30 4580 H 424.698 -4.05852 -0.0625389 0
M  V30 4581 H 425.464 -4.20508 2.41657 0
M  V30 4582 H 421.343 -4.44715 1.21448 0
M  V30 4583 H 424.887 -5.27397 4.56617 0
M  V30 4584 H 420.784 -5.51451 3.35517 0
M  V30 4585 H 421.552 -6.23595 5.30161 0
M  V30 4586 N 424.215 -0.530993 -1.48385 0
M  V30 4587 C 425.145 0.219985 -2.32461 0
M  V30 4588 C 426.126 0.934111 -1.42156 0
M  V30 4589 O 427.311 0.919694 -1.71042 0
M  V30 4590 C 424.441 1.26674 -3.23375 0
M  V30 4591 C 423.395 0.67069 -4.22712 0
M  V30 4592 C 422.721 1.82017 -5.02766 0
M  V30 4593 C 424.021 -0.358268 -5.2107 0
M  V30 4594 H 425.715 -0.48187 -2.95497 0
M  V30 4595 H 423.261 -0.233182 -1.42099 0
M  V30 4596 H 425.214 1.80006 -3.81019 0
M  V30 4597 H 423.938 1.99818 -2.58341 0
M  V30 4598 H 422.597 0.158878 -3.66256 0
M  V30 4599 H 422.245 2.54002 -4.34157 0
M  V30 4600 H 421.945 1.42727 -5.70003 0
M  V30 4601 H 423.469 2.35725 -5.63264 0
M  V30 4602 H 424.883 0.0880081 -5.73232 0
M  V30 4603 H 423.28 -0.66861 -5.96364 0
M  V30 4604 H 424.35 -1.26367 -4.68145 0
M  V30 4605 N 425.693 1.55336 -0.266172 0
M  V30 4606 C 426.64 2.22172 0.625165 0
M  V30 4607 C 427.61 1.19211 1.15663 0
M  V30 4608 O 428.795 1.47723 1.20758 0
M  V30 4609 C 425.935 2.93972 1.8076 0
M  V30 4610 C 425.048 4.11632 1.31084 0
M  V30 4611 C 424.183 4.71099 2.45436 0
M  V30 4612 C 423.222 5.8097 1.92718 0
M  V30 4613 N 422.359 6.34538 3.00509 0
M  V30 4614 H 427.199 2.9796 0.0485582 0
M  V30 4615 H 424.736 1.47095 0.0122024 0
M  V30 4616 H 426.694 3.33811 2.50251 0
M  V30 4617 H 425.324 2.20623 2.35638 0
M  V30 4618 H 424.376 3.76975 0.509326 0
M  V30 4619 H 425.688 4.90893 0.884633 0
M  V30 4620 H 424.842 5.13612 3.22936 0
M  V30 4621 H 423.581 3.91096 2.91368 0
M  V30 4622 H 422.586 5.37916 1.13695 0
M  V30 4623 H 423.811 6.62836 1.47733 0
M  V30 4624 H 421.757 5.57433 3.45839 0
M  V30 4625 H 421.674 7.09046 2.62279 0
M  V30 4626 H 422.942 6.81709 3.78011 0
M  V30 4627 N 427.171 -0.0066808 1.57599 0
M  V30 4628 C 428.119 -1.01851 2.09115 0
M  V30 4629 C 429.113 -1.36021 1.00969 0
M  V30 4630 O 430.319 -1.34663 1.19439 0
M  V30 4631 H 426.694 -0.346083 0.667631 0
M  V30 4632 H 428.665 -0.558394 2.93129 0
M  V30 4633 C 427.414 -2.30374 2.60429 0
M  V30 4634 H 426.737 -2.04947 3.43273 0
M  V30 4635 H 428.177 -2.99466 3.00161 0
M  V30 4636 C 426.636 -3.00893 1.51542 0
M  V30 4637 O 427.166 -3.91614 0.894484 0
M  V30 4638 N 425.372 -2.62603 1.2445 0
M  V30 4639 H 424.919 -1.88911 1.75129 0
M  V30 4640 H 424.877 -3.10101 0.518137 0
M  V30 4641 N 428.649 -1.55105 -0.279332 0
M  V30 4642 C 429.579 -1.90557 -1.34945 0
M  V30 4643 C 430.56 -0.766738 -1.51839 0
M  V30 4644 O 431.745 -1.02434 -1.64988 0
M  V30 4645 C 428.875 -2.17193 -2.71006 0
M  V30 4646 C 427.829 -3.33021 -2.68851 0
M  V30 4647 C 427.155 -3.45123 -4.08405 0
M  V30 4648 C 428.455 -4.69578 -2.28678 0
M  V30 4649 H 430.149 -2.80188 -1.05522 0
M  V30 4650 H 427.695 -1.34811 -0.506173 0
M  V30 4651 H 429.648 -2.40581 -3.45975 0
M  V30 4652 H 428.372 -1.24355 -3.01999 0
M  V30 4653 H 427.031 -3.0959 -1.9634 0
M  V30 4654 H 426.679 -2.49762 -4.3661 0
M  V30 4655 H 426.379 -4.22995 -4.07859 0
M  V30 4656 H 427.903 -3.70796 -4.85121 0
M  V30 4657 H 429.317 -4.92553 -2.93368 0
M  V30 4658 H 427.714 -5.5032 -2.39306 0
M  V30 4659 H 428.784 -4.68828 -1.23807 0
M  V30 4660 N 430.127 0.543554 -1.4793 0
M  V30 4661 C 431.373 1.30201 -1.55485 0
M  V30 4662 C 431.706 1.92925 -0.222201 0
M  V30 4663 O 430.981 1.78586 0.77053 0
M  V30 4664 C 431.264 2.40174 -2.68307 0
M  V30 4665 C 431.117 1.8223 -4.11233 0
M  V30 4666 C 432.436 3.42024 -2.76961 0
M  V30 4667 H 429.555 0.472036 -0.565996 0
M  V30 4668 H 432.197 0.606914 -1.80046 0
M  V30 4669 H 430.347 2.99463 -2.47495 0
M  V30 4670 H 432.019 1.27096 -4.43446 0
M  V30 4671 H 430.262 1.12832 -4.18869 0
M  V30 4672 H 430.933 2.61793 -4.85972 0
M  V30 4673 H 433.409 2.92672 -2.95774 0
M  V30 4674 H 432.285 4.16383 -3.57654 0
M  V30 4675 H 432.546 4.0173 -1.84568 0
M  V30 4676 N 431.605 1.3629 0.791371 0
M  V30 4677 C 432.538 1.24816 1.9104 0
M  V30 4678 C 433.516 0.132739 1.62057 0
M  V30 4679 O 434.7 0.303527 1.8604 0
M  V30 4680 C 431.827 0.925355 3.25814 0
M  V30 4681 C 430.873 2.05495 3.7373 0
M  V30 4682 S 431.706 3.67255 3.89723 0
M  V30 4683 C 432.862 3.37084 5.27376 0
M  V30 4684 H 433.095 2.19533 2.00481 0
M  V30 4685 H 430.628 1.21684 0.950393 0
M  V30 4686 H 432.586 0.745924 4.03666 0
M  V30 4687 H 431.247 -0.00400098 3.141 0
M  V30 4688 H 430.44 1.7836 4.71385 0
M  V30 4689 H 430.042 2.1935 3.02922 0
M  V30 4690 H 432.334 2.90856 6.1189 0
M  V30 4691 H 433.277 4.33995 5.59512 0
M  V30 4692 H 433.685 2.7248 4.94383 0
M  V30 4693 N 433.083 -1.0153 1.20538 0
M  V30 4694 C 434.311 -1.78746 1.04199 0
M  V30 4695 C 434.726 -1.84323 -0.408733 0
M  V30 4696 O 434.083 -1.29714 -1.28377 0
M  V30 4697 C 434.134 -3.23152 1.62035 0
M  V30 4698 O 433.855 -3.17918 3.0143 0
M  V30 4699 C 435.356 -4.16911 1.50666 0
M  V30 4700 H 432.576 -0.56208 0.366479 0
M  V30 4701 H 435.12 -1.27794 1.59653 0
M  V30 4702 H 433.275 -3.71248 1.10697 0
M  V30 4703 H 433.689 -4.08567 3.28897 0
M  V30 4704 H 435.163 -5.16072 1.95892 0
M  V30 4705 H 435.64 -4.36791 0.459363 0
M  V30 4706 H 436.246 -3.74698 2.01201 0
M  V30 4707 N 434.561 -1.01147 -1.20859 0
M  V30 4708 C 435.789 -0.716911 -1.94082 0
M  V30 4709 C 436.204 0.721568 -1.74467 0
M  V30 4710 O 435.561 1.48889 -1.05539 0
M  V30 4711 C 435.612 -1.03662 -3.46318 0
M  V30 4712 O 435.333 -2.4186 -3.65288 0
M  V30 4713 C 436.834 -0.762386 -4.36695 0
M  V30 4714 H 434.054 -0.26367 -0.617024 0
M  V30 4715 H 436.598 -1.35127 -1.53496 0
M  V30 4716 H 434.753 -0.447757 -3.84804 0
M  V30 4717 H 435.167 -2.53224 -4.59323 0
M  V30 4718 H 436.641 -1.03621 -5.42187 0
M  V30 4719 H 437.118 0.303514 -4.3815 0
M  V30 4720 H 437.724 -1.33316 -4.03865 0
M  V30 4721 N 436.039 1.36541 -0.78704 0
M  V30 4722 C 436.969 2.32659 -0.197992 0
M  V30 4723 C 437.95 1.56533 0.665697 0
M  V30 4724 O 439.135 1.84698 0.60001 0
M  V30 4725 C 436.265 3.40778 0.669901 0
M  V30 4726 C 435.219 4.27897 -0.0937039 0
M  V30 4727 C 434.545 5.27163 0.894629 0
M  V30 4728 C 435.845 5.06334 -1.28154 0
M  V30 4729 H 437.539 2.82171 -1.00099 0
M  V30 4730 H 435.085 1.35665 -0.482793 0
M  V30 4731 H 437.038 4.07008 1.09191 0
M  V30 4732 H 435.762 2.89827 1.50558 0
M  V30 4733 H 434.421 3.6322 -0.49666 0
M  V30 4734 H 434.069 4.72486 1.72527 0
M  V30 4735 H 433.769 5.86317 0.388149 0
M  V30 4736 H 435.293 5.96266 1.31525 0
M  V30 4737 H 436.707 5.65617 -0.93541 0
M  V30 4738 H 435.104 5.74888 -1.72115 0
M  V30 4739 H 436.174 4.38114 -2.07807 0
M  V30 4740 N 437.518 0.538854 1.48102 0
M  V30 4741 C 438.466 -0.232325 2.31437 0
M  V30 4742 C 439.46 -0.927004 1.41785 0
M  V30 4743 O 440.666 -0.850378 1.58646 0
M  V30 4744 H 437.041 -0.0937916 0.746128 0
M  V30 4745 H 439.012 0.489986 2.9435 0
M  V30 4746 C 437.761 -1.26074 3.24038 0
M  V30 4747 H 437.084 -0.735609 3.92974 0
M  V30 4748 H 438.524 -1.77157 3.85216 0
M  V30 4749 C 436.983 -2.29902 2.46265 0
M  V30 4750 O 437.513 -3.36502 2.19384 0
M  V30 4751 N 435.719 -2.03348 2.07601 0
M  V30 4752 H 435.266 -1.16675 2.29662 0
M  V30 4753 H 435.224 -2.73038 1.55877 0
M  V30 4754 N 438.996 -1.55193 0.274407 0
M  V30 4755 C 439.926 -2.25471 -0.607032 0
M  V30 4756 C 440.907 -1.24461 -1.15946 0
M  V30 4757 O 442.092 -1.53179 -1.19373 0
M  V30 4758 C 439.222 -2.97526 -1.79153 0
M  V30 4759 C 438.176 -4.05459 -1.37067 0
M  V30 4760 C 437.502 -4.65084 -2.6382 0
M  V30 4761 C 438.802 -5.19691 -0.521389 0
M  V30 4762 H 440.496 -2.99393 -0.0209343 0
M  V30 4763 H 438.042 -1.43997 -0.00862866 0
M  V30 4764 H 439.995 -3.45402 -2.41404 0
M  V30 4765 H 438.719 -2.21138 -2.40344 0
M  V30 4766 H 437.378 -3.58393 -0.771355 0
M  V30 4767 H 437.026 -3.85365 -3.23268 0
M  V30 4768 H 436.726 -5.37961 -2.36372 0
M  V30 4769 H 438.25 -5.15708 -3.26921 0
M  V30 4770 H 439.664 -5.63623 -1.04889 0
M  V30 4771 H 438.061 -5.99126 -0.341825 0
M  V30 4772 H 439.131 -4.82713 0.46 0
M  V30 4773 N 440.474 -0.00167713 -1.576 0
M  V30 4774 C 441.721 0.68282 -1.90641 0
M  V30 4775 C 442.049 1.73686 -0.875415 0
M  V30 4776 O 441.304 1.95334 0.119575 0
M  V30 4777 C 441.603 1.36189 -3.30435 0
M  V30 4778 C 441.269 0.440887 -4.48739 0
M  V30 4779 C 439.931 0.187312 -4.80835 0
M  V30 4780 C 442.283 -0.193134 -5.20842 0
M  V30 4781 C 439.611 -0.70855 -5.82406 0
M  V30 4782 C 441.963 -1.07688 -6.23367 0
M  V30 4783 C 440.627 -1.33962 -6.53919 0
M  V30 4784 H 439.897 0.249862 -0.697603 0
M  V30 4785 H 442.544 -0.0575642 -1.91413 0
M  V30 4786 H 440.849 2.17636 -3.25794 0
M  V30 4787 H 442.546 1.89759 -3.5326 0
M  V30 4788 H 439.136 0.648694 -4.23663 0
M  V30 4789 H 443.32 -0.0102445 -4.96299 0
M  V30 4790 H 438.576 -0.920097 -6.04437 0
M  V30 4791 H 442.75 -1.57451 -6.78367 0
M  V30 4792 H 440.377 -2.03549 -7.32442 0
M  V30 4793 N 441.952 1.55251 0.271103 0
M  V30 4794 C 443.201 1.75151 1.00025 0
M  V30 4795 C 443.514 0.561041 1.87381 0
M  V30 4796 O 444.72 0.642506 2.63788 0
M  V30 4797 C 443.176 3.09999 1.82835 0
M  V30 4798 C 442.784 4.3662 1.00336 0
M  V30 4799 C 444.528 3.39249 2.55168 0
M  V30 4800 C 442.435 5.62506 1.82595 0
M  V30 4801 H 441.365 0.652877 0.377183 0
M  V30 4802 H 444.016 1.81708 0.255843 0
M  V30 4803 H 442.398 2.97485 2.61378 0
M  V30 4804 H 443.572 4.60055 0.261959 0
M  V30 4805 H 441.887 4.14527 0.394486 0
M  V30 4806 H 444.484 4.3051 3.1712 0
M  V30 4807 H 444.827 2.59467 3.2555 0
M  V30 4808 H 445.36 3.52869 1.83653 0
M  V30 4809 H 442.099 6.45041 1.16631 0
M  V30 4810 H 441.619 5.43211 2.54327 0
M  V30 4811 H 443.298 6.00875 2.39913 0
M  V30 4812 N 443.43 -0.535701 1.48216 0
M  V30 4813 C 444.678 -1.28928 1.55634 0
M  V30 4814 C 444.999 -1.93645 0.229514 0
M  V30 4815 O 444.269 -1.81038 -0.74846 0
M  V30 4816 H 442.849 -0.47884 0.573342 0
M  V30 4817 H 445.511 -0.623853 1.84646 0
M  V30 4818 H 444.607 -2.07157 2.33436 0
M  V30 4819 N 444.908 -1.36708 -0.784132 0
M  V30 4820 C 446.156 -1.30972 -1.53918 0
M  V30 4821 C 446.477 0.109086 -1.94695 0
M  V30 4822 O 445.747 1.05048 -1.65353 0
M  V30 4823 H 444.327 -0.481819 -0.570841 0
M  V30 4824 H 446.989 -1.71063 -0.934002 0
M  V30 4825 H 446.085 -1.94061 -2.44431 0
M  V30 4826 N 446.386 1.0089 -1.21074 0
M  V30 4827 C 447.614 1.78191 -1.05145 0
M  V30 4828 C 448.029 1.84537 0.398952 0
M  V30 4829 O 447.386 1.30393 1.27687 0
M  V30 4830 C 447.437 3.22288 -1.63746 0
M  V30 4831 O 447.158 3.16315 -3.03111 0
M  V30 4832 C 448.659 4.16106 -1.52875 0
M  V30 4833 H 445.879 0.560129 -0.369454 0
M  V30 4834 H 448.423 1.26945 -1.60328 0
M  V30 4835 H 446.578 3.70655 -1.12664 0
M  V30 4836 H 446.992 4.06817 -3.31059 0
M  V30 4837 H 448.466 5.15026 -1.98626 0
M  V30 4838 H 448.943 4.36541 -0.482521 0
M  V30 4839 H 449.549 3.73625 -2.03185 0
M  V30 4840 N 447.864 1.01787 1.20321 0
M  V30 4841 C 448.774 0.598898 2.26827 0
M  V30 4842 C 449.79 -0.36418 1.70146 0
M  V30 4843 O 450.966 -0.224812 2.00141 0
M  V30 4844 C 448.031 -0.0549769 3.46656 0
M  V30 4845 C 447.092 0.954205 4.18561 0
M  V30 4846 C 446.325 0.331439 5.3267 0
M  V30 4847 O 446.548 -0.86851 5.63749 0
M  V30 4848 O 445.482 1.0488 5.92692 0
M  V30 4849 H 449.308 1.48562 2.64883 0
M  V30 4850 H 446.893 0.787434 1.26964 0
M  V30 4851 H 448.775 -0.420102 4.19301 0
M  V30 4852 H 447.45 -0.915876 3.10473 0
M  V30 4853 H 446.357 1.37072 3.48083 0
M  V30 4854 H 447.69 1.78511 4.58688 0
M  V30 4855 N 449.342 -1.36122 0.79427 0
M  V30 4856 C 450.57 -2.03362 0.380989 0
M  V30 4857 C 450.985 -1.59881 -1.00416 0
M  V30 4858 O 450.342 -0.790515 -1.6449 0
M  V30 4859 C 450.393 -3.58804 0.440649 0
M  V30 4860 O 450.114 -4.007 1.77118 0
M  V30 4861 C 451.615 -4.43296 0.0186117 0
M  V30 4862 H 448.835 -0.652526 0.156367 0
M  V30 4863 H 451.379 -1.73998 1.07447 0
M  V30 4864 H 449.534 -3.8686 -0.204458 0
M  V30 4865 H 449.948 -4.95309 1.72538 0
M  V30 4866 H 451.422 -5.51887 0.111488 0
M  V30 4867 H 451.899 -4.2684 -1.03461 0
M  V30 4868 H 452.505 -4.20512 0.636395 0
M  V30 4869 N 450.82 -0.546701 -1.47814 0
M  V30 4870 C 452.066 -0.0187684 -2.02791 0
M  V30 4871 C 452.399 1.32338 -1.42128 0
M  V30 4872 O 451.674 1.85867 -0.573023 0
M  V30 4873 C 451.957 0.0854985 -3.59998 0
M  V30 4874 C 451.81 -1.283 -4.31114 0
M  V30 4875 C 453.129 0.80412 -4.32691 0
M  V30 4876 H 450.248 -0.0082946 -0.736953 0
M  V30 4877 H 452.89 -0.706962 -1.76358 0
M  V30 4878 H 451.04 0.671609 -3.82651 0
M  V30 4879 H 452.712 -1.91151 -4.19832 0
M  V30 4880 H 450.955 -1.86049 -3.91878 0
M  V30 4881 H 451.626 -1.16287 -5.39612 0
M  V30 4882 H 454.102 0.306576 -4.14969 0
M  V30 4883 H 452.978 0.846011 -5.42341 0
M  V30 4884 H 453.239 1.85802 -4.01161 0
M  V30 4885 N 452.299 1.55045 -0.282633 0
M  V30 4886 C 453.524 2.04628 0.337977 0
M  V30 4887 C 453.949 1.15937 1.48123 0
M  V30 4888 O 453.307 0.159532 1.80597 0
M  V30 4889 C 453.355 3.51854 0.78936 0
M  V30 4890 O 452.459 3.66236 1.89592 0
M  V30 4891 H 451.8 0.660434 0.0687261 0
M  V30 4892 H 454.33 2.00261 -0.419124 0
M  V30 4893 H 454.34 3.93361 1.08311 0
M  V30 4894 H 453.015 4.15873 -0.0470419 0
M  V30 4895 H 451.592 3.36633 1.60413 0
M  V30 4896 N 453.777 0.010035 1.57597 0
M  V30 4897 C 455.005 -0.683413 1.95287 0
M  V30 4898 C 455.42 -1.66747 0.885481 0
M  V30 4899 O 454.777 -1.82003 -0.134629 0
M  V30 4900 C 454.828 -1.40652 3.33015 0
M  V30 4901 O 454.549 -0.461916 4.35658 0
M  V30 4902 C 456.05 -2.19356 3.85225 0
M  V30 4903 H 453.27 -0.189708 0.643624 0
M  V30 4904 H 455.814 0.0641359 2.04399 0
M  V30 4905 H 453.969 -2.10562 3.2518 0
M  V30 4906 H 454.383 -0.973215 5.15392 0
M  V30 4907 H 455.857 -2.65433 4.83993 0
M  V30 4908 H 456.334 -3.02457 3.18459 0
M  V30 4909 H 456.94 -1.54442 3.96267 0
M  V30 4910 N 455.255 -1.55392 -0.262866 0
M  V30 4911 C 456.483 -1.80513 -1.01108 0
M  V30 4912 C 456.898 -0.583533 -1.79556 0
M  V30 4913 O 456.255 0.447585 -1.76926 0
M  V30 4914 C 456.306 -3.03648 -1.96164 0
M  V30 4915 O 456.027 -4.2109 -1.20893 0
M  V30 4916 C 457.528 -3.41448 -2.82715 0
M  V30 4917 H 454.748 -0.601079 -0.298236 0
M  V30 4918 H 457.292 -2.02425 -0.290582 0
M  V30 4919 H 455.447 -2.83832 -2.63663 0
M  V30 4920 H 455.861 -4.90771 -1.85051 0
M  V30 4921 H 457.335 -4.30751 -3.45192 0
M  V30 4922 H 457.812 -2.61308 -3.53008 0
M  V30 4923 H 458.418 -3.63559 -2.20693 0
M  V30 4924 N 456.733 0.527833 -1.48498 0
M  V30 4925 C 457.663 1.64136 -1.66077 0
M  V30 4926 C 458.644 1.62286 -0.509625 0
M  V30 4927 O 459.829 1.79449 -0.742413 0
M  V30 4928 C 456.959 3.02717 -1.70234 0
M  V30 4929 C 455.913 3.19426 -2.8487 0
M  V30 4930 C 455.239 4.5909 -2.74118 0
M  V30 4931 C 456.539 3.01993 -4.26142 0
M  V30 4932 H 458.233 1.4968 -2.593 0
M  V30 4933 H 455.779 0.718654 -1.24785 0
M  V30 4934 H 457.732 3.80491 -1.8112 0
M  V30 4935 H 456.456 3.18201 -0.735911 0
M  V30 4936 H 455.115 2.4407 -2.73542 0
M  V30 4937 H 454.763 4.71413 -1.7544 0
M  V30 4938 H 454.463 4.71214 -3.51042 0
M  V30 4939 H 455.987 5.3896 -2.86974 0
M  V30 4940 H 457.401 3.69558 -4.38292 0
M  V30 4941 H 455.798 3.2561 -5.04082 0
M  V30 4942 H 456.868 1.98396 -4.42456 0
M  V30 4943 N 458.211 1.37122 0.776871 0
M  V30 4944 C 459.627 1.1781 1.07671 0
M  V30 4945 C 459.827 0.0107454 2.01497 0
M  V30 4946 O 458.883 -0.650756 2.4397 0
M  V30 4947 C 460.196 2.49451 1.67913 0
M  V30 4948 C 461.744 2.55927 1.80195 0
M  V30 4949 C 462.219 3.87686 2.43851 0
M  V30 4950 N 463.71 3.891 2.51307 0
M  V30 4951 C 464.445 4.87797 3.014 0
M  V30 4952 N 463.941 5.96888 3.51705 0
M  V30 4953 N 465.734 4.75205 3.00227 0
M  V30 4954 H 457.885 2.11843 0.153778 0
M  V30 4955 H 460.148 0.938927 0.130844 0
M  V30 4956 H 459.854 3.35207 1.06439 0
M  V30 4957 H 459.728 2.66169 2.67271 0
M  V30 4958 H 462.115 1.70582 2.40803 0
M  V30 4959 H 462.196 2.43097 0.796069 0
M  V30 4960 H 461.84 4.73444 1.83884 0
M  V30 4961 H 461.77 3.97817 3.45035 0
M  V30 4962 H 464.261 3.10293 2.157 0
M  V30 4963 H 464.574 6.68155 3.88316 0
M  V30 4964 H 462.919 6.0054 3.49824 0
M  V30 4965 H 466.11 3.89103 2.60224 0
M  V30 4966 H 466.283 5.52279 3.38957 0
M  V30 4967 N 459.689 -1.00246 1.21608 0
M  V30 4968 C 460.919 -1.77373 1.05935 0
M  V30 4969 C 461.327 -1.85059 -0.393686 0
M  V30 4970 O 460.67 -1.31289 -1.28487 0
M  V30 4971 C 460.732 -3.22705 1.58435 0
M  V30 4972 C 460.396 -3.38591 3.06929 0
M  V30 4973 C 461.393 -3.2667 4.04454 0
M  V30 4974 C 459.078 -3.6395 3.46187 0
M  V30 4975 C 461.072 -3.39877 5.39224 0
M  V30 4976 C 458.759 -3.768 4.81108 0
M  V30 4977 C 459.757 -3.6477 5.77436 0
M  V30 4978 O 459.445 -3.77206 7.09909 0
M  V30 4979 H 459.177 -0.56419 0.372378 0
M  V30 4980 H 461.731 -1.26971 1.61454 0
M  V30 4981 H 459.961 -3.74255 0.973147 0
M  V30 4982 H 461.65 -3.81515 1.38568 0
M  V30 4983 H 462.416 -3.06999 3.75468 0
M  V30 4984 H 458.295 -3.72395 2.71741 0
M  V30 4985 H 461.839 -3.30404 6.14393 0
M  V30 4986 H 457.736 -3.95975 5.09779 0
M  V30 4987 H 458.504 -3.94138 7.17355 0
M  V30 4988 N 461.167 -1.02423 -1.1978 0
M  V30 4989 C 462.415 -0.716569 -1.8897 0
M  V30 4990 C 462.736 0.756769 -1.79716 0
M  V30 4991 O 462.006 1.5449 -1.20456 0
M  V30 4992 H 460.586 -0.262062 -0.699523 0
M  V30 4993 H 463.248 -1.29747 -1.45436 0
M  V30 4994 H 462.344 -1.00675 -2.95417 0
M  V30 4995 N 462.645 1.35699 -0.801477 0
M  V30 4996 C 463.892 1.98913 -0.379459 0
M  V30 4997 C 464.22 1.63592 1.05204 0
M  V30 4998 O 463.475 0.888563 1.74365 0
M  V30 4999 C 463.774 3.53828 -0.504041 0
M  V30 5000 C 463.44 4.09002 -1.8981 0
M  V30 5001 C 462.102 4.23783 -2.27951 0
M  V30 5002 C 464.454 4.38939 -2.81038 0
M  V30 5003 C 461.782 4.65816 -3.56696 0
M  V30 5004 C 464.134 4.82409 -4.09224 0
M  V30 5005 C 462.798 4.95395 -4.4737 0
M  V30 5006 H 462.068 0.727874 -0.138854 0
M  V30 5007 H 464.715 1.61994 -1.02128 0
M  V30 5008 H 463.02 3.91175 0.221242 0
M  V30 5009 H 464.717 4.00687 -0.158361 0
M  V30 5010 H 461.307 3.97946 -1.59176 0
M  V30 5011 H 465.491 4.27077 -2.52821 0
M  V30 5012 H 460.747 4.74059 -3.86106 0
M  V30 5013 H 464.921 5.04535 -4.80018 0
M  V30 5014 H 462.548 5.27724 -5.47185 0
M  V30 5015 N 464.123 0.554532 1.47522 0
M  V30 5016 C 465.053 -0.182974 2.32782 0
M  V30 5017 C 466.034 -0.911377 1.43624 0
M  V30 5018 O 467.219 -0.892366 1.72483 0
M  V30 5019 C 464.349 -1.21513 3.25349 0
M  V30 5020 C 463.303 -0.603355 4.23726 0
M  V30 5021 C 462.629 -1.73995 5.05598 0
M  V30 5022 C 463.929 0.441121 5.20434 0
M  V30 5023 H 465.623 0.52882 2.94693 0
M  V30 5024 H 463.169 0.255759 1.41711 0
M  V30 5025 H 465.122 -1.73922 3.83835 0
M  V30 5026 H 463.846 -1.95683 2.61487 0
M  V30 5027 H 462.505 -0.10059 3.66462 0
M  V30 5028 H 462.153 -2.47063 4.38143 0
M  V30 5029 H 461.853 -1.3364 5.72201 0
M  V30 5030 H 463.377 -2.26735 5.66942 0
M  V30 5031 H 464.791 0.00319931 5.733 0
M  V30 5032 H 463.188 0.763402 5.95224 0
M  V30 5033 H 464.258 1.33799 4.66075 0
M  V30 5034 N 465.601 -1.54893 0.290851 0
M  V30 5035 C 466.531 -2.26103 -0.583084 0
M  V30 5036 C 467.512 -1.25684 -1.14619 0
M  V30 5037 O 468.697 -1.54436 -1.17741 0
M  V30 5038 C 465.827 -2.99409 -1.75987 0
M  V30 5039 C 464.781 -4.0689 -1.32758 0
M  V30 5040 C 464.107 -4.67856 -2.58872 0
M  V30 5041 C 465.407 -5.20215 -0.46624 0
M  V30 5042 H 467.101 -2.99398 0.0108214 0
M  V30 5043 H 464.647 -1.43998 0.00664468 0
M  V30 5044 H 466.6 -3.47943 -2.37727 0
M  V30 5045 H 465.324 -2.23675 -2.37985 0
M  V30 5046 H 463.983 -3.59191 -0.733299 0
M  V30 5047 H 463.631 -3.88772 -3.19163 0
M  V30 5048 H 463.331 -5.40438 -2.30653 0
M  V30 5049 H 464.855 -5.19147 -3.21433 0
M  V30 5050 H 466.269 -5.64704 -0.989047 0
M  V30 5051 H 464.666 -5.99455 -0.27826 0
M  V30 5052 H 465.736 -4.82198 0.511173 0
M  V30 5053 N 467.08 -0.0183926 -1.57589 0
M  V30 5054 C 468.01 0.965596 -2.12599 0
M  V30 5055 C 468.991 1.34641 -1.0395 0
M  V30 5056 O 470.176 1.42693 -1.31729 0
M  V30 5057 C 467.306 2.25149 -2.64434 0
M  V30 5058 C 466.26 2.01175 -3.77773 0
M  V30 5059 C 465.586 3.35937 -4.15994 0
M  V30 5060 C 466.886 1.35953 -5.04296 0
M  V30 5061 H 468.58 0.507504 -2.95067 0
M  V30 5062 H 466.126 0.242671 -1.41941 0
M  V30 5063 H 468.079 2.94357 -3.01549 0
M  V30 5064 H 466.803 2.73105 -1.79112 0
M  V30 5065 H 465.462 1.34388 -3.4108 0
M  V30 5066 H 465.11 3.81631 -3.27669 0
M  V30 5067 H 464.81 3.20705 -4.92364 0
M  V30 5068 H 466.334 4.0643 -4.55683 0
M  V30 5069 H 467.748 1.95144 -5.39065 0
M  V30 5070 H 466.145 1.31152 -5.85593 0
M  V30 5071 H 467.215 0.331071 -4.83768 0
M  V30 5072 N 468.558 1.5553 0.254621 0
M  V30 5073 C 469.491 1.84624 1.34124 0
M  V30 5074 C 470.469 0.700693 1.46728 0
M  V30 5075 O 471.653 0.94564 1.63064 0
M  V30 5076 C 468.78 2.02412 2.71564 0
M  V30 5077 C 467.826 3.25028 2.7615 0
M  V30 5078 S 468.659 4.81893 2.33538 0
M  V30 5079 C 469.815 5.02677 3.72917 0
M  V30 5080 H 470.048 2.76501 1.09245 0
M  V30 5081 H 467.581 1.47537 0.455211 0
M  V30 5082 H 469.539 2.13345 3.50705 0
M  V30 5083 H 468.2 1.11391 2.93685 0
M  V30 5084 H 467.393 3.34418 3.77069 0
M  V30 5085 H 466.995 3.12781 2.05046 0
M  V30 5086 H 469.287 4.89546 4.68349 0
M  V30 5087 H 470.23 6.0468 3.68467 0
M  V30 5088 H 470.638 4.30561 3.65072 0
M  V30 5089 N 470.036 -0.519951 1.48776 0
M  V30 5090 C 470.983 -1.62352 1.64044 0
M  V30 5091 C 471.953 -1.58945 0.482251 0
M  V30 5092 O 473.138 -1.77219 0.706971 0
M  V30 5093 C 470.278 -3.00579 1.69547 0
M  V30 5094 C 469.391 -3.14145 2.96541 0
M  V30 5095 C 468.526 -4.42991 2.93142 0
M  V30 5096 C 467.565 -4.50122 4.14797 0
M  V30 5097 N 466.702 -5.7037 4.09418 0
M  V30 5098 H 471.542 -1.48643 2.58281 0
M  V30 5099 H 469.079 -0.723516 1.28077 0
M  V30 5100 H 471.037 -3.80671 1.70719 0
M  V30 5101 H 469.667 -3.13036 0.787918 0
M  V30 5102 H 468.719 -2.27239 3.05068 0
M  V30 5103 H 470.031 -3.15275 3.86527 0
M  V30 5104 H 469.185 -5.31385 2.92772 0
M  V30 5105 H 467.924 -4.44398 2.00902 0
M  V30 5106 H 466.929 -3.60133 4.15433 0
M  V30 5107 H 468.154 -4.50445 5.08208 0
M  V30 5108 H 466.1 -5.72655 3.20004 0
M  V30 5109 H 466.017 -5.73036 4.93119 0
M  V30 5110 H 467.285 -6.61023 4.13121 0
M  V30 5111 N 471.514 -1.37532 -0.769588 0
M  V30 5112 C 472.464 -1.29984 -1.87318 0
M  V30 5113 C 473.448 -0.187242 -1.59807 0
M  V30 5114 O 474.64 -0.421827 -1.719 0
M  V30 5115 C 471.769 -1.11126 -3.24817 0
M  V30 5116 C 470.855 -2.26939 -3.58273 0
M  V30 5117 N 471.246 -3.52336 -3.62895 0
M  V30 5118 C 469.544 -2.19141 -3.8845 0
M  V30 5119 C 470.245 -4.28719 -3.9316 0
M  V30 5120 N 469.221 -3.57884 -4.0917 0
M  V30 5121 H 473.023 -2.24946 -1.89147 0
M  V30 5122 H 470.537 -1.30535 -0.966143 0
M  V30 5123 H 472.534 -1.03803 -4.0377 0
M  V30 5124 H 471.194 -0.17083 -3.2425 0
M  V30 5125 H 472.205 -3.86216 -3.45048 0
M  V30 5126 H 468.882 -1.33167 -3.95693 0
M  V30 5127 H 470.272 -5.37254 -4.03494 0
M  V30 5128 N 472.992 0.995999 -1.22138 0
M  V30 5129 C 474.403 1.54961 -1.04135 0
M  V30 5130 C 474.754 1.92159 0.396147 0
M  V30 5131 O 473.879 1.74435 1.28069 0
M  V30 5132 C 474.474 2.81581 -1.88408 0
M  V30 5133 C 473.033 3.33396 -1.74712 0
M  V30 5134 C 472.18 2.06509 -1.85066 0
M  V30 5135 H 475.131 0.817436 -1.36028 0
M  V30 5136 H 475.152 3.53822 -1.39966 0
M  V30 5137 H 474.664 2.54476 -2.93025 0
M  V30 5138 H 472.765 3.65416 -0.728159 0
M  V30 5139 H 472.878 4.04208 -2.57202 0
M  V30 5140 H 471.242 2.19925 -1.28472 0
M  V30 5141 H 472.025 1.81804 -2.91208 0
M  V30 5142 N 474.47 1.03057 1.19235 0
M  V30 5143 C 475.38 0.622922 2.26179 0
M  V30 5144 C 476.396 -0.346113 1.70523 0
M  V30 5145 O 477.572 -0.203572 2.00369 0
M  V30 5146 C 474.637 -0.0182063 3.46695 0
M  V30 5147 C 473.698 0.998546 4.17526 0
M  V30 5148 C 472.931 0.387917 5.32288 0
M  V30 5149 O 473.154 -0.808668 5.64639 0
M  V30 5150 O 472.088 1.1116 5.91546 0
M  V30 5151 H 475.914 1.51363 2.63292 0
M  V30 5152 H 473.499 0.800856 1.26122 0
M  V30 5153 H 475.381 -0.375606 4.19723 0
M  V30 5154 H 474.056 -0.882895 3.11427 0
M  V30 5155 H 472.963 1.40756 3.4661 0
M  V30 5156 H 474.296 1.83366 4.56769 0
M  V30 5157 N 475.948 -1.35272 0.808662 0
M  V30 5158 C 477.194 -1.99003 0.390581 0
M  V30 5159 C 477.527 -1.63999 -1.0401 0
M  V30 5160 O 476.802 -0.904368 -1.72196 0
M  V30 5161 C 477.085 -3.55454 0.576566 0
M  V30 5162 C 476.938 -4.00249 2.05233 0
M  V30 5163 C 478.257 -4.401 0.00354277 0
M  V30 5164 H 475.376 -0.722917 0.143388 0
M  V30 5165 H 478.018 -1.6039 1.01858 0
M  V30 5166 H 476.168 -3.88477 0.0419766 0
M  V30 5167 H 477.84 -3.77626 2.64946 0
M  V30 5168 H 476.083 -3.51082 2.54801 0
M  V30 5169 H 476.754 -5.0911 2.13333 0
M  V30 5170 H 479.23 -4.13548 0.460117 0
M  V30 5171 H 478.106 -5.48656 0.163575 0
M  V30 5172 H 478.367 -4.28444 -1.09032 0
M  V30 5173 N 477.426 -0.562348 -1.47226 0
M  V30 5174 C 478.336 0.185466 -2.33866 0
M  V30 5175 C 479.352 0.906713 -1.48508 0
M  V30 5176 O 480.528 0.874458 -1.81425 0
M  V30 5177 C 477.593 1.19904 -3.25306 0
M  V30 5178 C 476.654 0.484669 -4.26555 0
M  V30 5179 C 475.887 1.44996 -5.13626 0
M  V30 5180 O 476.11 2.68515 -5.03245 0
M  V30 5181 O 475.044 0.971642 -5.94006 0
M  V30 5182 H 478.87 -0.525361 -2.99121 0
M  V30 5183 H 476.455 -0.322916 -1.45868 0
M  V30 5184 H 478.337 1.78399 -3.81774 0
M  V30 5185 H 477.012 1.8917 -2.62672 0
M  V30 5186 H 475.919 -0.141605 -3.73832 0
M  V30 5187 H 477.252 -0.166634 -4.91918 0
M  V30 5188 N 478.904 1.54736 -0.299062 0
M  V30 5189 C 479.867 2.22127 0.565012 0
M  V30 5190 C 480.867 1.20669 1.06281 0
M  V30 5191 O 482.057 1.45417 0.959145 0
M  V30 5192 C 479.189 2.90611 1.78208 0
M  V30 5193 H 480.382 2.99891 -0.0237448 0
M  V30 5194 H 477.935 1.5622 -0.0498788 0
M  V30 5195 H 478.67 2.16921 2.41072 0
M  V30 5196 H 478.455 3.64984 1.43281 0
M  V30 5197 H 479.945 3.42026 2.396 0
M  V30 5198 N 480.382 0.0267497 1.57577 0
M  V30 5199 C 481.329 -0.955894 2.10075 0
M  V30 5200 C 482.299 -1.32453 1.00226 0
M  V30 5201 O 483.484 -1.41826 1.27632 0
M  V30 5202 C 480.624 -2.2338 2.6305 0
M  V30 5203 C 479.737 -1.92183 3.86898 0
M  V30 5204 C 478.872 -3.14251 4.28275 0
M  V30 5205 C 477.911 -2.78862 5.44888 0
M  V30 5206 N 477.048 -3.93548 5.81433 0
M  V30 5207 H 481.888 -0.501303 2.93753 0
M  V30 5208 H 479.425 -0.235847 1.45197 0
M  V30 5209 H 481.383 -2.98124 2.91853 0
M  V30 5210 H 480.013 -2.6646 1.82205 0
M  V30 5211 H 479.065 -1.07692 3.64838 0
M  V30 5212 H 480.377 -1.62117 4.7172 0
M  V30 5213 H 479.531 -3.97317 4.58502 0
M  V30 5214 H 478.27 -3.47476 3.42215 0
M  V30 5215 H 477.275 -1.94208 5.14357 0
M  V30 5216 H 478.5 -2.46855 6.32645 0
M  V30 5217 H 476.446 -4.2662 4.98328 0
M  V30 5218 H 476.363 -3.67098 6.6089 0
M  V30 5219 H 477.631 -4.77325 6.16264 0
M  V30 5220 N 481.861 -1.55662 -0.24637 0
M  V30 5221 C 483.107 -1.77782 -0.975779 0
M  V30 5222 C 483.44 -0.592103 -1.84953 0
M  V30 5223 O 482.715 0.409588 -1.90138 0
M  V30 5224 C 482.998 -3.09788 -1.83584 0
M  V30 5225 C 482.851 -4.38764 -0.990241 0
M  V30 5226 C 484.17 -3.38029 -2.81823 0
M  V30 5227 H 481.289 -0.646789 -0.353317 0
M  V30 5228 H 483.931 -1.88398 -0.246248 0
M  V30 5229 H 482.081 -3.00869 -2.45784 0
M  V30 5230 H 483.753 -4.59675 -0.386897 0
M  V30 5231 H 481.996 -4.32798 -0.294626 0
M  V30 5232 H 482.667 -5.27514 -1.62584 0
M  V30 5233 H 485.143 -3.46915 -2.2976 0
M  V30 5234 H 484.019 -4.3161 -3.39122 0
M  V30 5235 H 484.28 -2.58968 -3.58313 0
M  V30 5236 N 483.339 0.512053 -1.4905 0
M  V30 5237 C 484.289 1.61142 -1.61298 0
M  V30 5238 C 485.273 1.53908 -0.46916 0
M  V30 5239 O 486.465 1.61625 -0.721547 0
M  V30 5240 C 483.594 2.998 -1.67256 0
M  V30 5241 C 482.68 3.12072 -2.87179 0
M  V30 5242 N 483.071 2.94263 -4.11391 0
M  V30 5243 C 481.369 3.43156 -2.84886 0
M  V30 5244 C 482.07 3.10426 -4.91946 0
M  V30 5245 N 481.046 3.38808 -4.251 0
M  V30 5246 H 484.848 1.46011 -2.55065 0
M  V30 5247 H 482.362 0.717934 -1.45669 0
M  V30 5248 H 484.359 3.78794 -1.74128 0
M  V30 5249 H 483.019 3.1601 -0.746195 0
M  V30 5250 H 484.03 2.70661 -4.41546 0
M  V30 5251 H 480.707 3.65611 -2.01581 0
M  V30 5252 H 482.097 3.01243 -6.00585 0
M  V30 5253 N 484.817 1.37938 0.762283 0
M  V30 5254 C 485.727 1.36681 1.90671 0
M  V30 5255 C 486.743 0.265078 1.71969 0
M  V30 5256 O 487.919 0.502055 1.95042 0
M  V30 5257 C 484.984 1.18211 3.25925 0
M  V30 5258 C 484.045 2.3811 3.57214 0
M  V30 5259 C 483.278 2.20512 4.86014 0
M  V30 5260 O 483.501 1.19429 5.57757 0
M  V30 5261 O 482.435 3.08911 5.16583 0
M  V30 5262 H 486.261 2.33091 1.94685 0
M  V30 5263 H 483.846 1.18767 0.906356 0
M  V30 5264 H 485.728 1.09937 4.06807 0
M  V30 5265 H 484.403 0.248807 3.22742 0
M  V30 5266 H 483.31 2.51958 2.76529 0
M  V30 5267 H 484.643 3.30041 3.65149 0
M  V30 5268 N 486.295 -0.989507 1.22664 0
M  V30 5269 C 487.205 -2.11449 1.01619 0
M  V30 5270 C 488.221 -1.73962 -0.036545 0
M  V30 5271 O 489.397 -2.00788 0.156924 0
M  V30 5272 C 486.462 -3.41465 0.600204 0
M  V30 5273 C 485.523 -3.93033 1.72695 0
M  V30 5274 C 484.756 -5.16844 1.33071 0
M  V30 5275 O 484.979 -5.7001 0.210975 0
M  V30 5276 O 483.913 -5.6225 2.14845 0
M  V30 5277 H 487.739 -2.32088 1.9588 0
M  V30 5278 H 485.324 -1.09823 1.01289 0
M  V30 5279 H 487.206 -4.19695 0.37873 0
M  V30 5280 H 485.881 -3.22178 -0.313511 0
M  V30 5281 H 484.788 -3.15961 2.00298 0
M  V30 5282 H 486.121 -4.16758 2.61865 0
M  V30 5283 N 487.773 -1.03688 -1.18687 0
M  V30 5284 C 489.022 -0.733235 -1.879 0
M  V30 5285 C 489.335 0.741745 -1.8099 0
M  V30 5286 O 490.541 1.15875 -2.4553 0
M  V30 5287 C 488.997 -1.26127 -3.37076 0
M  V30 5288 C 488.605 -2.76461 -3.52524 0
M  V30 5289 C 490.349 -1.03398 -4.11715 0
M  V30 5290 C 488.256 -3.22642 -4.95637 0
M  V30 5291 H 487.186 -0.270584 -0.703776 0
M  V30 5292 H 489.837 -1.25222 -1.34133 0
M  V30 5293 H 488.219 -0.670165 -3.90288 0
M  V30 5294 H 489.393 -3.41296 -3.09602 0
M  V30 5295 H 487.708 -2.97559 -2.91286 0
M  V30 5296 H 490.305 -1.3542 -5.17267 0
M  V30 5297 H 490.648 0.0289246 -4.1629 0
M  V30 5298 H 491.181 -1.5895 -3.64664 0
M  V30 5299 H 487.92 -4.28296 -4.96228 0
M  V30 5300 H 487.44 -2.62539 -5.39289 0
M  V30 5301 H 489.119 -3.16444 -5.64333 0
M  V30 5302 N 489.251 1.34841 -0.815825 0
M  V30 5303 C 490.528 1.92908 -0.323416 0
M  V30 5304 C 490.908 1.74479 1.18828 0
M  V30 5305 O 490.256 1.11928 1.99209 0
M  V30 5306 C 490.466 3.40957 -0.744952 0
M  V30 5307 C 491.814 4.18107 -0.739716 0
M  V30 5308 O 492.838 3.49511 -0.68708 0
M  V30 5309 O 491.697 5.40517 -0.806456 0
M  V30 5310 H 488.791 0.822436 -0.0867646 0
M  V30 5311 H 491.337 1.4386 -0.90014 0
M  V30 5312 H 490.109 3.4814 -1.78646 0
M  V30 5313 H 489.732 3.97341 -0.143535 0
M  V30 5314 N 490.729 0.570148 1.46925 0
M  V30 5315 C 492.145 0.23087 1.57921 0
M  V30 5316 C 492.345 -1.26676 1.56702 0
M  V30 5317 O 491.401 -2.04774 1.47729 0
M  V30 5318 C 492.714 0.868973 2.8787 0
M  V30 5319 C 494.262 0.841397 3.01479 0
M  V30 5320 C 494.737 1.45881 4.34146 0
M  V30 5321 N 496.228 1.42258 4.40814 0
M  V30 5322 C 496.963 1.8698 5.42057 0
M  V30 5323 N 496.459 2.39618 6.50042 0
M  V30 5324 N 498.252 1.77972 5.33181 0
M  V30 5325 H 490.403 1.54301 1.45962 0
M  V30 5326 H 492.666 0.644224 0.69547 0
M  V30 5327 H 492.372 1.922 2.94537 0
M  V30 5328 H 492.246 0.369682 3.75384 0
M  V30 5329 H 494.633 -0.202973 2.94401 0
M  V30 5330 H 494.714 1.37858 2.15474 0
M  V30 5331 H 494.358 2.50231 4.4198 0
M  V30 5332 H 494.288 0.896958 5.18905 0
M  V30 5333 H 496.779 1.03768 3.63374 0
M  V30 5334 H 497.092 2.71633 7.23488 0
M  V30 5335 H 495.437 2.43636 6.50897 0
M  V30 5336 H 498.628 1.36617 4.4772 0
M  V30 5337 H 498.801 2.13143 6.11943 0
M  V30 5338 N 492.207 -1.54576 0.307264 0
M  V30 5339 C 493.453 -2.0056 -0.300612 0
M  V30 5340 C 493.786 -1.1953 -1.53057 0
M  V30 5341 O 493.061 -0.27337 -1.92569 0
M  V30 5342 C 493.344 -3.54167 -0.650987 0
M  V30 5343 C 493.197 -4.45933 0.588539 0
M  V30 5344 C 494.516 -4.14645 -1.47506 0
M  V30 5345 H 491.635 -0.729075 -0.107788 0
M  V30 5346 H 494.277 -1.85286 0.420606 0
M  V30 5347 H 492.427 -3.67313 -1.26544 0
M  V30 5348 H 494.099 -4.44683 1.22697 0
M  V30 5349 H 492.342 -4.16274 1.22058 0
M  V30 5350 H 493.013 -5.51189 0.299153 0
M  V30 5351 H 495.489 -4.04973 -0.955821 0
M  V30 5352 H 494.365 -5.22269 -1.68899 0
M  V30 5353 H 494.626 -3.66921 -2.4662 0
M  V30 5354 N 493.685 -0.035106 -1.57561 0
M  V30 5355 C 494.934 0.641604 -1.91223 0
M  V30 5356 C 495.247 1.72944 -0.913761 0
M  V30 5357 O 496.453 2.46321 -1.14185 0
M  V30 5358 C 494.909 1.19249 -3.3957 0
M  V30 5359 C 494.517 0.137616 -4.47789 0
M  V30 5360 C 496.261 1.84537 -3.82291 0
M  V30 5361 C 494.168 0.700478 -5.87237 0
M  V30 5362 H 493.098 0.243417 -0.713627 0
M  V30 5363 H 495.749 -0.101382 -1.8322 0
M  V30 5364 H 494.131 1.98728 -3.42525 0
M  V30 5365 H 495.305 -0.635153 -4.56402 0
M  V30 5366 H 493.62 -0.416855 -4.14308 0
M  V30 5367 H 496.217 2.27616 -4.83834 0
M  V30 5368 H 496.56 2.69054 -3.17672 0
M  V30 5369 H 497.093 1.11739 -3.81784 0
M  V30 5370 H 493.832 -0.106693 -6.55413 0
M  V30 5371 H 493.352 1.4416 -5.82218 0
M  V30 5372 H 495.031 1.18837 -6.35993 0
M  V30 5373 N 495.163 1.55791 0.238111 0
M  V30 5374 C 496.411 1.77681 0.963001 0
M  V30 5375 C 496.732 0.600674 1.85518 0
M  V30 5376 O 496.002 -0.383182 1.92116 0
M  V30 5377 H 494.582 0.655315 0.358568 0
M  V30 5378 H 497.244 1.93239 0.253945 0
M  V30 5379 H 496.34 2.69177 1.57956 0
M  V30 5380 N 496.642 -0.504142 1.49319 0
M  V30 5381 C 497.589 -1.60603 1.65756 0
M  V30 5382 C 498.559 -1.58425 0.499082 0
M  V30 5383 O 499.744 -1.76459 0.725728 0
M  V30 5384 C 496.884 -2.98764 1.72726 0
M  V30 5385 C 495.997 -3.10982 2.99857 0
M  V30 5386 C 495.132 -4.39857 2.97824 0
M  V30 5387 C 494.171 -4.45697 4.19548 0
M  V30 5388 N 493.308 -5.65995 4.15444 0
M  V30 5389 H 498.148 -1.45895 2.59843 0
M  V30 5390 H 495.685 -0.709891 1.28837 0
M  V30 5391 H 497.643 -3.78839 1.74747 0
M  V30 5392 H 496.273 -3.12183 0.821075 0
M  V30 5393 H 495.325 -2.23991 3.07461 0
M  V30 5394 H 496.637 -3.11157 3.89849 0
M  V30 5395 H 495.791 -5.2825 2.98391 0
M  V30 5396 H 494.53 -4.42242 2.05604 0
M  V30 5397 H 493.535 -3.55707 4.19229 0
M  V30 5398 H 494.76 -4.4503 5.12957 0
M  V30 5399 H 492.706 -5.69229 3.26059 0
M  V30 5400 H 492.623 -5.67773 4.99169 0
M  V30 5401 H 493.891 -6.56604 4.20109 0
M  V30 5402 N 498.12 -1.38341 -0.754957 0
M  V30 5403 C 499.068 -1.35573 -1.89005 0
M  V30 5404 C 500.062 -0.241824 -1.67665 0
M  V30 5405 O 501.268 -0.410785 -1.7525 0
M  V30 5406 H 497.643 -0.422898 -0.621821 0
M  V30 5407 H 499.614 -2.31359 -1.88455 0
M  V30 5408 C 498.363 -1.19631 -3.26471 0
M  V30 5409 H 497.686 -2.04605 -3.43477 0
M  V30 5410 H 499.126 -1.21748 -4.06144 0
M  V30 5411 C 497.585 0.0968705 -3.36761 0
M  V30 5412 O 498.115 1.07439 -3.87066 0
M  V30 5413 N 496.321 0.153242 -2.90196 0
M  V30 5414 H 495.868 -0.642908 -2.49448 0
M  V30 5415 H 495.826 1.01807 -2.9746 0
M  V30 5416 N 499.598 0.982988 -1.23187 0
M  V30 5417 C 501.014 1.2487 -0.993967 0
M  V30 5418 C 501.214 1.99155 0.306498 0
M  V30 5419 O 500.27 2.30688 1.0266 0
M  V30 5420 C 501.583 2.05078 -2.19917 0
M  V30 5421 C 503.131 2.18227 -2.2438 0
M  V30 5422 C 503.606 3.01825 -3.44479 0
M  V30 5423 N 505.097 3.09411 -3.44702 0
M  V30 5424 C 505.832 3.74412 -4.34285 0
M  V30 5425 N 505.328 4.41259 -5.341 0
M  V30 5426 N 507.121 3.71273 -4.22035 0
M  V30 5427 H 499.272 0.485253 -2.06783 0
M  V30 5428 H 501.535 0.276979 -0.906635 0
M  V30 5429 H 501.241 1.57867 -3.14279 0
M  V30 5430 H 501.115 3.05829 -2.2079 0
M  V30 5431 H 503.502 2.64648 -1.30559 0
M  V30 5432 H 503.583 1.16873 -2.2754 0
M  V30 5433 H 503.227 2.56102 -4.38605 0
M  V30 5434 H 503.157 4.03342 -3.38559 0
M  V30 5435 H 505.648 2.61845 -2.7248 0
M  V30 5436 H 505.961 4.88629 -5.98717 0
M  V30 5437 H 504.306 4.39975 -5.38002 0
M  V30 5438 H 507.497 3.18217 -3.43301 0
M  V30 5439 H 507.67 4.21649 -4.92053 0
M  V30 5440 N 501.076 1.04316 1.18135 0
M  V30 5441 C 502.008 0.594444 2.21357 0
M  V30 5442 C 503.021 -0.337215 1.59269 0
M  V30 5443 O 504.21 -0.131337 1.78016 0
M  V30 5444 C 501.31 -0.151251 3.38562 0
M  V30 5445 C 500.483 0.788907 4.30227 0
M  V30 5446 C 499.542 0.0860572 5.2613 0
M  V30 5447 O 498.568 0.717302 5.64662 0
M  V30 5448 N 499.77 -1.17969 5.68387 0
M  V30 5449 H 502.535 1.48227 2.60478 0
M  V30 5450 H 500.096 0.92396 1.32946 0
M  V30 5451 H 502.088 -0.631352 3.99745 0
M  V30 5452 H 500.658 -0.940639 2.98112 0
M  V30 5453 H 499.878 1.44882 3.6661 0
M  V30 5454 H 501.166 1.42738 4.88368 0
M  V30 5455 H 500.564 -1.71302 5.3914 0
M  V30 5456 H 499.121 -1.60402 6.31755 0
M  V30 5457 N 502.554 -1.34406 0.822964 0
M  V30 5458 C 503.965 -1.8069 0.469879 0
M  V30 5459 C 504.316 -1.68223 -1.00972 0
M  V30 5460 O 503.441 -1.22226 -1.78577 0
M  V30 5461 C 504.036 -3.28064 0.846118 0
M  V30 5462 C 502.595 -3.72428 0.545402 0
M  V30 5463 C 501.742 -2.56116 1.06301 0
M  V30 5464 H 504.693 -1.22153 1.01313 0
M  V30 5465 H 504.714 -3.80205 0.149922 0
M  V30 5466 H 504.226 -3.37107 1.92304 0
M  V30 5467 H 502.327 -3.68924 -0.522109 0
M  V30 5468 H 502.44 -4.66548 1.0895 0
M  V30 5469 H 500.804 -2.50048 0.484554 0
M  V30 5470 H 501.587 -2.67928 2.14638 0
M  V30 5471 N 504.032 -0.577932 -1.46621 0
M  V30 5472 C 504.979 0.158048 -2.30258 0
M  V30 5473 C 505.949 0.888669 -1.40328 0
M  V30 5474 O 507.134 0.880283 -1.6928 0
M  V30 5475 C 504.274 1.16884 -3.24703 0
M  V30 5476 C 503.387 0.442163 -4.29731 0
M  V30 5477 C 502.522 1.44007 -5.11308 0
M  V30 5478 C 501.561 0.69952 -6.0809 0
M  V30 5479 N 500.698 1.64525 -6.82551 0
M  V30 5480 H 505.538 -0.561242 -2.92667 0
M  V30 5481 H 503.075 -0.288591 -1.44241 0
M  V30 5482 H 505.033 1.7677 -3.779 0
M  V30 5483 H 503.663 1.85591 -2.64113 0
M  V30 5484 H 502.715 -0.271632 -3.79429 0
M  V30 5485 H 504.027 -0.136992 -4.98612 0
M  V30 5486 H 503.181 2.11186 -5.68758 0
M  V30 5487 H 501.92 2.05315 -4.42377 0
M  V30 5488 H 500.925 0.0139217 -5.49798 0
M  V30 5489 H 502.15 0.091894 -6.79038 0
M  V30 5490 H 500.096 2.24653 -6.16334 0
M  V30 5491 H 500.013 1.11878 -7.47676 0
M  V30 5492 H 501.281 2.30754 -7.44562 0
M  V30 5493 N 505.51 1.54411 -0.315457 0
M  V30 5494 C 506.757 2.00419 0.289543 0
M  V30 5495 C 507.085 1.20373 1.52776 0
M  V30 5496 O 506.34 0.271769 1.93804 0
M  V30 5497 C 506.639 3.50936 0.676652 0
M  V30 5498 C 506.305 4.48532 -0.461472 0
M  V30 5499 C 504.967 4.74936 -0.773879 0
M  V30 5500 C 507.319 5.06567 -1.22637 0
M  V30 5501 C 504.647 5.56634 -1.85405 0
M  V30 5502 C 506.999 5.89441 -2.29657 0
M  V30 5503 C 505.663 6.1415 -2.61488 0
M  V30 5504 H 504.933 0.733386 0.105951 0
M  V30 5505 H 507.58 1.86434 -0.437554 0
M  V30 5506 H 505.885 3.62606 1.48405 0
M  V30 5507 H 507.582 3.83971 1.15618 0
M  V30 5508 H 504.172 4.28096 -0.207893 0
M  V30 5509 H 508.356 4.86157 -0.998271 0
M  V30 5510 H 503.612 5.74012 -2.10523 0
M  V30 5511 H 507.786 6.33432 -2.89374 0
M  V30 5512 H 505.413 6.77245 -3.45317 0
M  V30 5513 N 506.988 0.0434614 1.5754 0
M  V30 5514 C 507.898 -0.94893 2.14552 0
M  V30 5515 C 508.914 -1.34707 1.10136 0
M  V30 5516 O 510.09 -1.42557 1.42266 0
M  V30 5517 C 507.155 -2.208 2.67298 0
M  V30 5518 C 506.216 -1.86893 3.86484 0
M  V30 5519 C 505.449 -3.06797 4.36705 0
M  V30 5520 O 505.672 -4.19921 3.86034 0
M  V30 5521 O 504.606 -2.8826 5.28384 0
M  V30 5522 H 508.432 -0.494099 2.99654 0
M  V30 5523 H 506.017 -0.177989 1.48336 0
M  V30 5524 H 507.899 -2.94686 3.01228 0
M  V30 5525 H 506.574 -2.65436 1.85272 0
M  V30 5526 H 505.481 -1.10347 3.57455 0
M  V30 5527 H 506.814 -1.47062 4.69716 0
M  V30 5528 N 508.466 -1.55915 -0.229846 0
M  V30 5529 C 509.743 -1.6932 -0.979295 0
M  V30 5530 C 510.123 -0.588321 -2.02736 0
M  V30 5531 O 509.471 0.40586 -2.24867 0
M  V30 5532 C 509.681 -3.10305 -1.59724 0
M  V30 5533 C 511.029 -3.6945 -2.09264 0
M  V30 5534 O 512.053 -3.13214 -1.69633 0
M  V30 5535 O 510.912 -4.68072 -2.82082 0
M  V30 5536 H 508.006 -0.689314 -0.456919 0
M  V30 5537 H 510.552 -1.68238 -0.222283 0
M  V30 5538 H 509.324 -3.82177 -0.840039 0
M  V30 5539 H 508.947 -3.1547 -2.42001 0
M  V30 5540 N 509.944 0.496216 -1.49584 0
M  V30 5541 C 511.36 0.827814 -1.36453 0
M  V30 5542 C 511.56 1.97464 -0.401285 0
M  V30 5543 O 510.616 2.51958 0.165296 0
M  V30 5544 C 511.929 1.16352 -2.77277 0
M  V30 5545 C 513.477 1.27145 -2.86013 0
M  V30 5546 C 513.952 1.64042 -4.27615 0
M  V30 5547 N 515.443 1.71082 -4.30448 0
M  V30 5548 C 516.178 2.01085 -5.36984 0
M  V30 5549 N 515.674 2.2928 -6.5376 0
M  V30 5550 N 517.467 2.02376 -5.24405 0
M  V30 5551 H 509.618 -0.259947 -2.10803 0
M  V30 5552 H 511.881 -0.0537163 -0.946477 0
M  V30 5553 H 511.587 0.394153 -3.49484 0
M  V30 5554 H 511.461 2.10582 -3.12946 0
M  V30 5555 H 513.848 2.03152 -2.1404 0
M  V30 5556 H 513.929 0.309542 -2.5392 0
M  V30 5557 H 513.573 0.88583 -5.00115 0
M  V30 5558 H 513.503 2.6134 -4.57175 0
M  V30 5559 H 515.994 1.51434 -3.46232 0
M  V30 5560 H 516.307 2.51376 -7.30774 0
M  V30 5561 H 514.652 2.26726 -6.56978 0
M  V30 5562 H 517.843 1.79829 -4.32179 0
M  V30 5563 H 518.016 2.25425 -6.07526 0
M  V30 5564 N 511.423 1.38739 0.74761 0
M  V30 5565 C 512.386 1.36241 1.84312 0
M  V30 5566 C 513.386 0.261811 1.58654 0
M  V30 5567 O 514.576 0.519031 1.66288 0
M  V30 5568 C 511.708 1.12253 3.21888 0
M  V30 5569 H 512.901 2.33712 1.87933 0
M  V30 5570 H 510.454 1.2412 0.949946 0
M  V30 5571 H 511.189 0.154133 3.23934 0
M  V30 5572 H 510.974 1.91943 3.41907 0
M  V30 5573 H 512.464 1.13215 4.0196 0
M  V30 5574 N 512.901 -0.976442 1.23707 0
M  V30 5575 C 513.848 -2.06952 1.02174 0
M  V30 5576 C 514.818 -1.65984 -0.0621034 0
M  V30 5577 O 516.003 -1.90584 0.0907906 0
M  V30 5578 C 513.143 -3.39425 0.62327 0
M  V30 5579 C 512.256 -3.9364 1.77966 0
M  V30 5580 C 511.391 -5.14343 1.3276 0
M  V30 5581 C 510.43 -5.60733 2.45449 0
M  V30 5582 N 509.567 -6.72662 2.01172 0
M  V30 5583 H 514.407 -2.24704 1.95734 0
M  V30 5584 H 511.944 -1.10143 0.975034 0
M  V30 5585 H 513.902 -4.15526 0.37332 0
M  V30 5586 H 512.532 -3.21624 -0.275329 0
M  V30 5587 H 511.584 -3.14258 2.14351 0
M  V30 5588 H 512.896 -4.24035 2.62671 0
M  V30 5589 H 512.05 -5.97789 1.03601 0
M  V30 5590 H 510.789 -4.8561 0.450975 0
M  V30 5591 H 509.794 -4.75865 2.75378 0
M  V30 5592 H 511.019 -5.91483 3.33654 0
M  V30 5593 H 508.965 -6.45681 1.15895 0
M  V30 5594 H 508.882 -7.02462 2.79434 0
M  V30 5595 H 510.15 -7.59572 1.75129 0
M  V30 5596 N 514.379 -1.04941 -1.1758 0
M  V30 5597 C 515.312 -0.592518 -2.20373 0
M  V30 5598 C 516.29 0.377561 -1.58156 0
M  V30 5599 O 517.474 0.28978 -1.86259 0
M  V30 5600 C 514.601 0.133215 -3.38438 0
M  V30 5601 C 513.647 -0.791484 -4.19092 0
M  V30 5602 S 514.48 -2.27925 -4.84572 0
M  V30 5603 C 515.636 -1.56462 -6.06028 0
M  V30 5604 H 515.869 -1.46342 -2.58788 0
M  V30 5605 H 513.402 -0.861148 -1.28155 0
M  V30 5606 H 515.36 0.545746 -4.06856 0
M  V30 5607 H 514.021 0.980124 -2.98416 0
M  V30 5608 H 513.214 -0.230039 -5.03475 0
M  V30 5609 H 512.816 -1.14326 -3.56098 0
M  V30 5610 H 515.108 -0.862539 -6.71987 0
M  V30 5611 H 516.051 -2.38583 -6.66696 0
M  V30 5612 H 516.459 -1.05313 -5.5459 0
M  V30 5613 N 515.857 1.33968 -0.830081 0
M  V30 5614 C 517.268 1.80439 -0.479455 0
M  V30 5615 C 517.619 1.68756 1.00079 0
M  V30 5616 O 516.744 1.23171 1.77927 0
M  V30 5617 C 517.339 3.27611 -0.863505 0
M  V30 5618 C 515.898 3.72133 -0.565145 0
M  V30 5619 C 515.045 2.55549 -1.07657 0
M  V30 5620 H 517.996 1.21614 -1.0196 0
M  V30 5621 H 518.017 3.8012 -0.170083 0
M  V30 5622 H 517.529 3.36082 -1.94089 0
M  V30 5623 H 515.63 3.69196 0.502536 0
M  V30 5624 H 515.743 4.65963 -1.11422 0
M  V30 5625 H 514.107 2.49788 -0.497807 0
M  V30 5626 H 514.89 2.66786 -2.16055 0
M  V30 5627 N 517.335 0.585699 1.46312 0
M  V30 5628 C 518.565 0.0780166 2.06453 0
M  V30 5629 C 518.973 -1.2336 1.43454 0
M  V30 5630 O 518.316 -1.75734 0.535086 0
M  V30 5631 C 518.378 -0.158951 3.59148 0
M  V30 5632 C 518.042 1.06752 4.44357 0
M  V30 5633 C 519.039 1.98031 4.80708 0
M  V30 5634 C 516.724 1.2902 4.85447 0
M  V30 5635 C 518.718 3.09924 5.5698 0
M  V30 5636 C 516.405 2.41218 5.61478 0
M  V30 5637 C 517.403 3.31499 5.97158 0
M  V30 5638 O 517.091 4.41747 6.71651 0
M  V30 5639 H 516.823 0.0558894 0.673686 0
M  V30 5640 H 519.377 0.806994 1.88883 0
M  V30 5641 H 517.607 -0.942575 3.75037 0
M  V30 5642 H 519.296 -0.615513 4.01206 0
M  V30 5643 H 520.062 1.82043 4.49539 0
M  V30 5644 H 515.941 0.596567 4.57124 0
M  V30 5645 H 519.485 3.80415 5.84748 0
M  V30 5646 H 515.382 2.57167 5.9206 0
M  V30 5647 H 516.15 4.40152 6.90079 0
M  V30 5648 N 518.813 -1.54241 0.323641 0
M  V30 5649 C 519.746 -2.20579 -0.584833 0
M  V30 5650 C 520.724 -1.18286 -1.11567 0
M  V30 5651 O 521.908 -1.47025 -1.17966 0
M  V30 5652 C 519.035 -2.86754 -1.80249 0
M  V30 5653 C 518.081 -4.02767 -1.4029 0
M  V30 5654 S 518.914 -5.33693 -0.439539 0
M  V30 5655 C 520.07 -6.03362 -1.66448 0
M  V30 5656 H 520.303 -2.97292 -0.0213238 0
M  V30 5657 H 517.836 -1.54024 0.107726 0
M  V30 5658 H 519.794 -3.25503 -2.50116 0
M  V30 5659 H 518.455 -2.09844 -2.33719 0
M  V30 5660 H 517.648 -4.47933 -2.31024 0
M  V30 5661 H 517.25 -3.65692 -0.783928 0
M  V30 5662 H 519.542 -6.25546 -2.6019 0
M  V30 5663 H 520.485 -6.9689 -1.25498 0
M  V30 5664 H 520.893 -5.33273 -1.85149 0
M  V30 5665 N 520.291 -0.0518155 -1.57515 0
M  V30 5666 C 521.201 0.937539 -2.15052 0
M  V30 5667 C 522.217 1.34121 -1.10849 0
M  V30 5668 O 523.393 1.418 -1.4302 0
M  V30 5669 C 520.458 2.19379 -2.68466 0
M  V30 5670 C 519.519 1.84841 -3.87469 0
M  V30 5671 C 518.752 3.04477 -4.38326 0
M  V30 5672 O 518.975 4.17868 -3.88256 0
M  V30 5673 O 517.909 2.85453 -5.29906 0
M  V30 5674 H 521.735 0.478201 -2.99912 0
M  V30 5675 H 519.32 0.17012 -1.48428 0
M  V30 5676 H 521.202 2.93084 -3.02787 0
M  V30 5677 H 519.877 2.64449 -1.86677 0
M  V30 5678 H 518.784 1.08449 -3.58036 0
M  V30 5679 H 520.117 1.44569 -4.7049 0
M  V30 5680 N 521.769 1.56035 0.221574 0
M  V30 5681 C 522.732 1.91584 1.2581 0
M  V30 5682 C 523.732 0.794425 1.39805 0
M  V30 5683 O 524.922 1.06217 1.38071 0
M  V30 5684 C 522.054 2.16663 2.63192 0
M  V30 5685 H 523.247 2.8429 0.954935 0
M  V30 5686 H 520.8 1.49316 0.461988 0
M  V30 5687 H 521.535 1.26508 2.98607 0
M  V30 5688 H 521.32 2.98358 2.5441 0
M  V30 5689 H 522.81 2.45262 3.37988 0
M  V30 5690 N 523.247 -0.488276 1.49845 0
M  V30 5691 C 524.493 -1.24341 1.6021 0
M  V30 5692 C 524.826 -1.91967 0.293651 0
M  V30 5693 O 524.101 -1.81323 -0.703718 0
M  V30 5694 C 524.384 -2.3005 2.77036 0
M  V30 5695 C 524.237 -1.66842 4.17713 0
M  V30 5696 C 525.556 -3.31509 2.89464 0
M  V30 5697 H 522.675 -0.450704 0.583125 0
M  V30 5698 H 525.317 -0.539673 1.82174 0
M  V30 5699 H 523.467 -2.90071 2.58439 0
M  V30 5700 H 525.139 -1.1055 4.47858 0
M  V30 5701 H 523.382 -0.972079 4.22768 0
M  V30 5702 H 524.053 -2.43576 4.95353 0
M  V30 5703 H 526.529 -2.81493 3.06433 0
M  V30 5704 H 525.405 -4.02822 3.72861 0
M  V30 5705 H 525.666 -3.94603 1.99351 0
M  V30 5706 N 524.725 -1.39134 -0.740242 0
M  V30 5707 C 525.974 -1.35384 -1.49512 0
M  V30 5708 C 526.287 0.04919 -1.95538 0
M  V30 5709 O 527.493 0.209257 -2.70692 0
M  V30 5710 C 525.949 -2.37812 -2.70136 0
M  V30 5711 C 525.557 -3.83804 -2.31081 0
M  V30 5712 C 527.301 -2.4313 -3.47977 0
M  V30 5713 C 525.208 -4.77886 -3.48395 0
M  V30 5714 H 524.138 -0.503297 -0.561434 0
M  V30 5715 H 526.789 -1.64754 -0.807974 0
M  V30 5716 H 525.171 -2.01505 -3.40899 0
M  V30 5717 H 526.345 -4.29123 -1.67898 0
M  V30 5718 H 524.66 -3.81732 -1.66343 0
M  V30 5719 H 527.257 -3.10614 -4.35228 0
M  V30 5720 H 527.6 -1.45423 -3.90074 0
M  V30 5721 H 528.133 -2.78304 -2.84239 0
M  V30 5722 H 524.872 -5.76836 -3.11353 0
M  V30 5723 H 524.392 -4.3725 -4.10576 0
M  V30 5724 H 526.071 -4.96538 -4.148 0
M  V30 5725 N 526.204 0.969867 -1.24223 0
M  V30 5726 C 527.154 2.04913 -0.999732 0
M  V30 5727 C 528.138 1.60795 0.0580636 0
M  V30 5728 O 529.33 1.76317 -0.155392 0
M  V30 5729 C 526.459 3.37942 -0.604154 0
M  V30 5730 C 525.545 3.88628 -1.69791 0
M  V30 5731 N 525.936 4.12274 -2.93025 0
M  V30 5732 C 524.234 4.17268 -1.57492 0
M  V30 5733 C 524.935 4.53808 -3.63914 0
M  V30 5734 N 523.911 4.58855 -2.91468 0
M  V30 5735 H 527.713 2.21168 -1.93551 0
M  V30 5736 H 525.227 1.15349 -1.14317 0
M  V30 5737 H 527.224 4.14863 -0.411665 0
M  V30 5738 H 525.884 3.23075 0.324465 0
M  V30 5739 H 526.895 3.99789 -3.29225 0
M  V30 5740 H 523.572 4.11346 -0.714175 0
M  V30 5741 H 524.962 4.80534 -4.69614 0
M  V30 5742 N 527.682 1.05563 1.17022 0
M  V30 5743 C 528.592 0.670758 2.24807 0
M  V30 5744 C 529.608 -0.309865 1.71219 0
M  V30 5745 O 530.784 -0.161025 2.00755 0
M  V30 5746 C 527.849 0.055337 3.46656 0
M  V30 5747 C 526.91 1.08688 4.15314 0
M  V30 5748 C 526.143 0.500736 5.31346 0
M  V30 5749 O 526.366 -0.688718 5.66227 0
M  V30 5750 O 525.3 1.23683 5.89055 0
M  V30 5751 H 529.126 1.56914 2.60023 0
M  V30 5752 H 526.711 0.827428 1.24395 0
M  V30 5753 H 528.593 -0.286492 4.20425 0
M  V30 5754 H 527.268 -0.816638 3.13229 0
M  V30 5755 H 526.175 1.48077 3.43546 0
M  V30 5756 H 527.508 1.93014 4.52777 0
M  V30 5757 N 529.16 -1.33526 0.837174 0
M  V30 5758 C 530.409 -1.97098 0.428387 0
M  V30 5759 C 530.722 -1.67062 -1.01734 0
M  V30 5760 O 531.928 -2.24235 -1.53072 0
M  V30 5761 C 530.384 -3.52725 0.715075 0
M  V30 5762 C 529.992 -3.9164 2.17537 0
M  V30 5763 C 531.736 -4.22857 0.373154 0
M  V30 5764 C 529.643 -5.40237 2.40619 0
M  V30 5765 H 528.573 -0.737589 0.156455 0
M  V30 5766 H 531.224 -1.52169 1.02552 0
M  V30 5767 H 529.606 -3.95971 0.0475904 0
M  V30 5768 H 530.78 -3.59456 2.88319 0
M  V30 5769 H 529.095 -3.34485 2.4801 0
M  V30 5770 H 531.692 -5.32133 0.523264 0
M  V30 5771 H 532.035 -4.10647 -0.683708 0
M  V30 5772 H 532.568 -3.85135 0.995801 0
M  V30 5773 H 529.307 -5.57449 3.44864 0
M  V30 5774 H 528.827 -5.73887 1.74396 0
M  V30 5775 H 530.506 -6.07102 2.23688 0
M  V30 5776 N 530.638 -0.59345 -1.46 0
M  V30 5777 C 531.57 0.171569 -2.28557 0
M  V30 5778 C 532.583 0.845273 -1.39137 0
M  V30 5779 O 533.772 0.713033 -1.6364 0
M  V30 5780 C 530.872 1.26311 -3.14482 0
M  V30 5781 C 530.045 0.679258 -4.32094 0
M  V30 5782 C 529.104 1.65987 -4.99334 0
M  V30 5783 O 528.13 1.19171 -5.56585 0
M  V30 5784 N 529.332 2.99414 -4.97324 0
M  V30 5785 H 532.097 -0.536771 -2.94854 0
M  V30 5786 H 529.658 -0.431954 -1.56031 0
M  V30 5787 H 531.65 1.91863 -3.5633 0
M  V30 5788 H 530.22 1.87416 -2.50188 0
M  V30 5789 H 529.44 -0.153992 -3.93899 0
M  V30 5790 H 530.728 0.26916 -5.08088 0
M  V30 5791 H 530.126 3.40064 -4.52076 0
M  V30 5792 H 528.683 3.60426 -5.4308 0
M  V30 5793 N 532.116 1.54067 -0.331816 0
M  V30 5794 C 533.532 1.59587 0.0205388 0
M  V30 5795 C 533.732 1.34813 1.49759 0
M  V30 5796 O 532.788 1.13661 2.25471 0
M  V30 5797 C 534.101 2.97959 -0.405103 0
M  V30 5798 C 535.649 3.10964 -0.356454 0
M  V30 5799 C 536.124 4.51694 -0.757384 0
M  V30 5800 N 537.615 4.57709 -0.71111 0
M  V30 5801 C 538.35 5.64729 -0.993427 0
M  V30 5802 N 537.846 6.79652 -1.3433 0
M  V30 5803 N 539.639 5.54546 -0.918442 0
M  V30 5804 H 531.79 1.68426 -1.29407 0
M  V30 5805 H 534.053 0.78819 -0.526745 0
M  V30 5806 H 533.759 3.21115 -1.43451 0
M  V30 5807 H 533.633 3.76524 0.225692 0
M  V30 5808 H 536.02 2.87538 0.663763 0
M  V30 5809 H 536.101 2.34484 -1.02229 0
M  V30 5810 H 535.745 4.75853 -1.77555 0
M  V30 5811 H 535.675 5.26555 -0.0691444 0
M  V30 5812 H 538.166 3.75176 -0.452883 0
M  V30 5813 H 538.479 7.57221 -1.54388 0
M  V30 5814 H 536.824 6.81128 -1.38164 0
M  V30 5815 H 540.015 4.63641 -0.644536 0
M  V30 5816 H 540.188 6.37861 -1.14181 0
M  V30 5817 N 533.594 0.0601682 1.57485 0
M  V30 5818 C 534.841 -0.611594 1.93043 0
M  V30 5819 C 535.169 -1.70317 0.939274 0
M  V30 5820 O 534.424 -1.95644 -0.046996 0
M  V30 5821 C 534.723 -1.23831 3.35262 0
M  V30 5822 C 534.389 -0.274037 4.50066 0
M  V30 5823 C 533.051 -0.00872394 4.81199 0
M  V30 5824 C 535.403 0.386308 5.19766 0
M  V30 5825 C 532.731 0.924218 5.79375 0
M  V30 5826 C 535.083 1.3075 6.1894 0
M  V30 5827 C 533.747 1.58139 6.48497 0
M  V30 5828 H 533.017 -0.223798 0.706396 0
M  V30 5829 H 535.664 0.128566 1.91068 0
M  V30 5830 H 533.969 -2.05394 3.33647 0
M  V30 5831 H 535.666 -1.76517 3.60059 0
M  V30 5832 H 532.256 -0.491008 4.25778 0
M  V30 5833 H 536.44 0.194436 4.95919 0
M  V30 5834 H 531.696 1.1438 6.00606 0
M  V30 5835 H 535.87 1.82519 6.72056 0
M  V30 5836 H 533.497 2.30593 7.24383 0
M  V30 5837 N 535.072 -1.5615 -0.213296 0
M  V30 5838 C 536.32 -1.79191 -0.934612 0
M  V30 5839 C 536.641 -0.630112 -1.84539 0
M  V30 5840 O 535.911 0.35257 -1.92701 0
M  V30 5841 H 534.491 -0.660937 -0.348097 0
M  V30 5842 H 537.153 -1.93618 -0.22317 0
M  V30 5843 H 536.249 -2.71656 -1.53654 0
M  V30 5844 N 536.55 0.480323 -1.50102 0
M  V30 5845 C 537.827 1.24159 -1.51142 0
M  V30 5846 C 538.207 2.09605 -0.250818 0
M  V30 5847 O 537.555 2.15274 0.766118 0
M  V30 5848 C 537.765 2.08057 -2.80202 0
M  V30 5849 C 539.113 2.66556 -3.30504 0
M  V30 5850 O 540.137 2.18308 -2.81461 0
M  V30 5851 O 538.996 3.54442 -4.15973 0
M  V30 5852 H 536.09 0.562928 -0.605839 0
M  V30 5853 H 538.636 0.492899 -1.62384 0
M  V30 5854 H 537.408 1.45032 -3.6343 0
M  V30 5855 H 537.031 2.90079 -2.71919 0
M  V30 5856 N 538.028 1.39524 0.732853 0
M  V30 5857 C 539.274 1.37068 1.49467 0
M  V30 5858 C 539.607 -0.0327166 1.94172 0
M  V30 5859 O 538.882 -0.998071 1.66939 0
M  V30 5860 C 539.165 2.34494 2.73285 0
M  V30 5861 C 539.018 3.83784 2.34585 0
M  V30 5862 C 540.337 2.29717 3.75391 0
M  V30 5863 H 537.456 0.499206 0.542183 0
M  V30 5864 H 540.098 1.70532 0.837783 0
M  V30 5865 H 538.248 2.06087 3.29333 0
M  V30 5866 H 539.92 4.22949 1.84151 0
M  V30 5867 H 538.163 4.00455 1.66787 0
M  V30 5868 H 538.834 4.47444 3.23262 0
M  V30 5869 H 541.31 2.54839 3.28932 0
M  V30 5870 H 540.186 2.99962 4.59689 0
M  V30 5871 H 540.447 1.30291 4.22465 0
M  V30 5872 N 539.506 -0.963266 1.24736 0
M  V30 5873 C 540.755 -1.70115 1.08369 0
M  V30 5874 C 541.068 -1.91939 -0.376688 0
M  V30 5875 O 542.274 -2.6334 -0.660624 0
M  V30 5876 C 540.73 -3.06218 1.89099 0
M  V30 5877 C 540.338 -2.92221 3.39574 0
M  V30 5878 C 542.082 -3.83848 1.81275 0
M  V30 5879 C 539.989 -4.23662 4.12631 0
M  V30 5880 H 538.919 -0.637944 0.401924 0
M  V30 5881 H 541.57 -1.07304 1.48856 0
M  V30 5882 H 539.952 -3.69884 1.41429 0
M  V30 5883 H 541.126 -2.37541 3.94856 0
M  V30 5884 H 539.441 -2.28054 3.48397 0
M  V30 5885 H 542.038 -4.81188 2.33158 0
M  V30 5886 H 542.381 -4.08949 0.778895 0
M  V30 5887 H 542.914 -3.26918 2.26649 0
M  V30 5888 H 539.653 -4.03753 5.16395 0
M  V30 5889 H 539.173 -4.78141 3.62135 0
M  V30 5890 H 540.852 -4.92256 4.19873 0
M  V30 5891 N 540.985 -1.06182 -1.16461 0
M  V30 5892 C 542.396 -0.802426 -1.68576 0
M  V30 5893 C 542.747 0.67412 -1.84255 0
M  V30 5894 O 541.872 1.52303 -1.5373 0
M  V30 5895 C 542.467 -1.45002 -3.06202 0
M  V30 5896 C 541.026 -1.23843 -3.55443 0
M  V30 5897 C 540.173 -1.52724 -2.31454 0
M  V30 5898 H 543.124 -1.22545 -1.00839 0
M  V30 5899 H 543.145 -0.864731 -3.70544 0
M  V30 5900 H 542.657 -2.52466 -2.94759 0
M  V30 5901 H 540.758 -0.183487 -3.72148 0
M  V30 5902 H 540.871 -1.95036 -4.37604 0
M  V30 5903 H 539.235 -0.947726 -2.36411 0
M  V30 5904 H 540.018 -2.61343 -2.22609 0
M  V30 5905 N 542.463 1.3308 -0.844243 0
M  V30 5906 C 543.396 2.27075 -0.226279 0
M  V30 5907 C 544.374 1.49911 0.629716 0
M  V30 5908 O 545.558 1.79068 0.588803 0
M  V30 5909 C 542.685 3.31767 0.681782 0
M  V30 5910 C 541.731 4.26384 -0.0994565 0
M  V30 5911 S 542.564 5.15186 -1.46094 0
M  V30 5912 C 543.72 6.23405 -0.558319 0
M  V30 5913 H 543.953 2.79141 -1.02312 0
M  V30 5914 H 541.486 1.40452 -0.641292 0
M  V30 5915 H 543.444 3.92566 1.20008 0
M  V30 5916 H 542.105 2.78507 1.45234 0
M  V30 5917 H 541.298 5.00514 0.591733 0
M  V30 5918 H 540.9 3.69949 -0.548991 0
M  V30 5919 H 543.192 6.77069 0.241672 0
M  V30 5920 H 544.135 6.96619 -1.26995 0
M  V30 5921 H 544.543 5.64333 -0.13728 0
M  V30 5922 N 543.941 0.601185 1.45683 0
M  V30 5923 C 545.166 0.0982245 2.07167 0
M  V30 5924 C 545.591 -1.20546 1.44396 0
M  V30 5925 O 544.949 -1.73247 0.534347 0
M  V30 5926 C 544.997 -0.0346976 3.60583 0
M  V30 5927 O 544.101 -1.08657 3.97828 0
M  V30 5928 H 543.442 0.0711618 0.660176 0
M  V30 5929 H 545.972 0.829376 1.87036 0
M  V30 5930 H 545.982 -0.234969 4.07323 0
M  V30 5931 H 544.657 0.917265 4.05659 0
M  V30 5932 H 543.234 -0.863275 3.6277 0
M  V30 5933 N 545.419 -1.53889 0.339982 0
M  V30 5934 C 546.349 -2.27843 -0.510856 0
M  V30 5935 C 547.33 -1.29267 -1.10563 0
M  V30 5936 O 548.515 -1.58104 -1.12768 0
M  V30 5937 C 545.645 -3.04857 -1.66372 0
M  V30 5938 C 544.599 -4.10907 -1.19746 0
M  V30 5939 C 543.925 -4.75855 -2.43857 0
M  V30 5940 C 545.225 -5.21435 -0.300501 0
M  V30 5941 H 546.919 -2.99212 0.106067 0
M  V30 5942 H 544.465 -1.43904 0.0524533 0
M  V30 5943 H 546.418 -3.5533 -2.26537 0
M  V30 5944 H 545.142 -2.31133 -2.30749 0
M  V30 5945 H 543.801 -3.61342 -0.618654 0
M  V30 5946 H 543.449 -3.9873 -3.06633 0
M  V30 5947 H 543.149 -5.47502 -2.13343 0
M  V30 5948 H 544.673 -5.2911 -3.04754 0
M  V30 5949 H 546.087 -5.67565 -0.80889 0
M  V30 5950 H 544.484 -6.00036 -0.0874076 0
M  V30 5951 H 545.554 -4.80328 0.664321 0
M  V30 5952 N 546.897 -0.0685191 -1.57451 0
M  V30 5953 C 547.86 0.885173 -2.11417 0
M  V30 5954 C 548.86 1.22853 -1.03748 0
M  V30 5955 O 550.05 1.16235 -1.2975 0
M  V30 5956 C 547.182 2.18964 -2.61281 0
M  V30 5957 H 548.375 0.417034 -2.96986 0
M  V30 5958 H 545.928 0.18014 -1.55258 0
M  V30 5959 H 546.663 2.70321 -1.79156 0
M  V30 5960 H 546.448 1.9534 -3.39977 0
M  V30 5961 H 547.938 2.87242 -3.0312 0
M  V30 5962 N 548.375 1.56261 0.205012 0
M  V30 5963 C 549.791 1.49623 0.555433 0
M  V30 5964 C 549.991 0.766719 1.86343 0
M  V30 5965 O 549.047 0.313158 2.50551 0
M  V30 5966 C 550.36 2.94253 0.619347 0
M  V30 5967 C 551.908 3.04868 0.708855 0
M  V30 5968 C 552.383 4.50888 0.803969 0
M  V30 5969 N 553.874 4.54999 0.867758 0
M  V30 5970 C 554.609 5.65284 0.96135 0
M  V30 5971 N 554.105 6.85282 1.01786 0
M  V30 5972 N 555.898 5.53174 0.997771 0
M  V30 5973 H 548.049 2.0211 -0.653094 0
M  V30 5974 H 550.312 0.919333 -0.231366 0
M  V30 5975 H 550.018 3.50643 -0.272458 0
M  V30 5976 H 549.892 3.47063 1.47741 0
M  V30 5977 H 552.279 2.48532 1.5911 0
M  V30 5978 H 552.36 2.55199 -0.175205 0
M  V30 5979 H 552.004 5.07846 -0.0738798 0
M  V30 5980 H 551.934 4.98279 1.70369 0
M  V30 5981 H 554.425 3.68588 0.833735 0
M  V30 5982 H 554.738 7.65081 1.08951 0
M  V30 5983 H 553.083 6.8796 0.986706 0
M  V30 5984 H 556.274 4.5835 0.950392 0
M  V30 5985 H 556.447 6.39151 1.06725 0
M  V30 5986 N 549.853 -0.472356 1.50355 0
M  V30 5987 C 551.269 -0.806001 1.37753 0
M  V30 5988 C 551.469 -1.968 0.432649 0
M  V30 5989 O 550.525 -2.52189 -0.12519 0
M  V30 5990 C 551.838 -1.11926 2.79093 0
M  V30 5991 C 553.386 -1.22579 2.87999 0
M  V30 5992 C 553.861 -1.57218 4.3017 0
M  V30 5993 N 555.352 -1.64212 4.33115 0
M  V30 5994 C 556.087 -1.92517 5.40116 0
M  V30 5995 N 555.583 -2.1885 6.57325 0
M  V30 5996 N 557.376 -1.94008 5.27558 0
M  V30 5997 H 549.527 0.293451 2.10363 0
M  V30 5998 H 551.79 0.0687672 0.945503 0
M  V30 5999 H 551.496 -0.338504 3.50067 0
M  V30 6000 H 551.37 -2.05577 3.16256 0
M  V30 6001 H 553.757 -1.99722 2.17245 0
M  V30 6002 H 553.838 -0.269107 2.54381 0
M  V30 6003 H 553.482 -0.806154 5.01461 0
M  V30 6004 H 553.412 -2.54034 4.61275 0
M  V30 6005 H 555.903 -1.45906 3.48597 0
M  V30 6006 H 556.216 -2.39718 7.3468 0
M  V30 6007 H 554.561 -2.16245 6.60502 0
M  V30 6008 H 557.752 -1.72931 4.34986 0
M  V30 6009 H 557.925 -2.15731 6.11035 0
M  V30 6010 N 551.331 -1.39911 -0.725443 0
M  V30 6011 C 552.577 -1.37858 -1.48738 0
M  V30 6012 C 552.91 0.0224187 -1.94187 0
M  V30 6013 O 552.185 0.989204 -1.67466 0
M  V30 6014 C 552.468 -2.3594 -2.72038 0
M  V30 6015 C 552.321 -3.85023 -2.32546 0
M  V30 6016 C 553.64 -2.31704 -3.74167 0
M  V30 6017 H 550.759 -0.502074 -0.539528 0
M  V30 6018 H 553.401 -1.70974 -0.828728 0
M  V30 6019 H 551.551 -2.0783 -3.28236 0
M  V30 6020 H 553.223 -4.2392 -1.81905 0
M  V30 6021 H 551.466 -4.01334 -1.64661 0
M  V30 6022 H 552.137 -4.49152 -3.20884 0
M  V30 6023 H 554.613 -2.5658 -3.27576 0
M  V30 6024 H 553.489 -3.02395 -4.58092 0
M  V30 6025 H 553.75 -1.3253 -4.21768 0
M  V30 6026 N 552.809 0.956637 -1.25245 0
M  V30 6027 C 553.756 2.053 -1.05454 0
M  V30 6028 C 554.726 1.66062 0.0356889 0
M  V30 6029 O 555.911 1.90415 -0.121099 0
M  V30 6030 C 553.051 3.38391 -0.677191 0
M  V30 6031 C 552.164 3.90758 -1.84206 0
M  V30 6032 C 551.299 5.12165 -1.40926 0
M  V30 6033 C 550.338 5.56757 -2.54338 0
M  V30 6034 N 549.475 6.69376 -2.11848 0
M  V30 6035 H 554.315 2.21562 -1.99284 0
M  V30 6036 H 551.852 1.08578 -0.992434 0
M  V30 6037 H 553.81 4.1488 -0.43938 0
M  V30 6038 H 552.44 3.22021 0.224127 0
M  V30 6039 H 551.492 3.10808 -2.19323 0
M  V30 6040 H 552.804 4.19802 -2.69383 0
M  V30 6041 H 551.958 5.96065 -1.13098 0
M  V30 6042 H 550.697 4.84832 -0.528175 0
M  V30 6043 H 549.702 4.71423 -2.82913 0
M  V30 6044 H 550.927 5.861 -3.43022 0
M  V30 6045 H 548.873 6.43756 -1.26153 0
M  V30 6046 H 548.79 6.97927 -2.90574 0
M  V30 6047 H 550.058 7.5669 -1.87191 0
M  V30 6048 N 554.287 1.06798 1.15896 0
M  V30 6049 C 555.234 0.683314 2.20453 0
M  V30 6050 C 556.204 -0.32255 1.62938 0
M  V30 6051 O 557.389 -0.210276 1.89638 0
M  V30 6052 C 554.529 0.0813266 3.45004 0
M  V30 6053 C 553.642 1.13799 4.16742 0
M  V30 6054 C 552.777 0.501598 5.28826 0
M  V30 6055 C 551.816 1.54144 5.92373 0
M  V30 6056 N 550.953 0.928038 6.9594 0
M  V30 6057 H 555.793 1.57932 2.52708 0
M  V30 6058 H 553.33 0.789544 1.24115 0
M  V30 6059 H 555.288 -0.285274 4.16224 0
M  V30 6060 H 553.918 -0.77806 3.13283 0
M  V30 6061 H 552.97 1.62223 3.44075 0
M  V30 6062 H 554.282 1.92664 4.60089 0
M  V30 6063 H 553.436 0.0823162 6.06644 0
M  V30 6064 H 552.175 -0.318883 4.86656 0
M  V30 6065 H 551.18 1.97056 5.13273 0
M  V30 6066 H 552.405 2.3641 6.36621 0
M  V30 6067 H 550.351 0.12836 6.55874 0
M  V30 6068 H 550.268 1.65401 7.37685 0
M  V30 6069 H 551.536 0.534071 7.77668 0
M  V30 6070 N 555.766 -1.3263 0.851289 0
M  V30 6071 C 557.043 -1.91982 0.374448 0
M  V30 6072 C 557.423 -1.77568 -1.14161 0
M  V30 6073 O 556.771 -1.1717 -1.96172 0
M  V30 6074 C 556.981 -3.38862 0.835088 0
M  V30 6075 C 558.329 -4.15999 0.850309 0
M  V30 6076 O 559.353 -3.47566 0.779505 0
M  V30 6077 O 558.212 -5.38189 0.949481 0
M  V30 6078 H 555.306 -0.819846 0.10854 0
M  V30 6079 H 557.852 -1.41422 0.937966 0
M  V30 6080 H 556.624 -3.43281 1.87814 0
M  V30 6081 H 556.247 -3.96821 0.248833 0
M  V30 6082 N 557.244 -0.608902 -1.45362 0
M  V30 6083 C 558.472 -0.111013 -2.06602 0
M  V30 6084 C 558.887 1.20516 -1.45332 0
M  V30 6085 O 558.244 1.73437 -0.567978 0
M  V30 6086 C 558.295 0.033688 -3.61484 0
M  V30 6087 O 558.016 -1.23041 -4.20467 0
M  V30 6088 C 559.517 0.562882 -4.39712 0
M  V30 6089 H 556.737 -0.0694453 -0.667397 0
M  V30 6090 H 559.281 -0.837008 -1.86586 0
M  V30 6091 H 557.436 0.710016 -3.80838 0
M  V30 6092 H 557.85 -1.06094 -5.13658 0
M  V30 6093 H 559.324 0.613213 -5.48583 0
M  V30 6094 H 559.801 1.58543 -4.09586 0
M  V30 6095 H 560.407 -0.0794454 -4.25226 0
M  V30 6096 N 558.722 1.53707 -0.348139 0
M  V30 6097 C 559.669 2.25173 0.506518 0
M  V30 6098 C 560.639 1.25174 1.09182 0
M  V30 6099 O 561.824 1.53917 1.12757 0
M  V30 6100 C 558.964 3.03141 1.64923 0
M  V30 6101 C 558.077 4.18002 1.0908 0
M  V30 6102 C 557.212 4.83447 2.20119 0
M  V30 6103 C 556.251 5.90369 1.61651 0
M  V30 6104 N 555.388 6.49575 2.66451 0
M  V30 6105 H 560.228 2.97799 -0.109452 0
M  V30 6106 H 557.765 1.46953 -0.0657866 0
M  V30 6107 H 559.723 3.46607 2.32205 0
M  V30 6108 H 558.353 2.32803 2.23612 0
M  V30 6109 H 557.405 3.79145 0.308783 0
M  V30 6110 H 558.717 4.94892 0.623178 0
M  V30 6111 H 557.871 5.30008 2.95257 0
M  V30 6112 H 556.61 4.05991 2.70227 0
M  V30 6113 H 555.615 5.43186 0.850209 0
M  V30 6114 H 556.84 6.69735 1.1239 0
M  V30 6115 H 554.786 5.74981 3.15805 0
M  V30 6116 H 554.703 7.21952 2.24325 0
M  V30 6117 H 555.971 7.00789 3.41344 0
M  V30 6118 N 560.2 0.0768682 1.57412 0
M  V30 6119 C 561.447 -0.591085 1.93681 0
M  V30 6120 C 561.775 -1.69311 0.957286 0
M  V30 6121 O 561.03 -1.95682 -0.0262428 0
M  V30 6122 C 561.329 -1.20268 3.36557 0
M  V30 6123 C 560.995 -0.226286 4.50332 0
M  V30 6124 C 559.657 0.0423142 4.81181 0
M  V30 6125 C 562.009 0.441415 5.19327 0
M  V30 6126 C 559.337 0.985616 5.78362 0
M  V30 6127 C 561.689 1.37307 6.17519 0
M  V30 6128 C 560.353 1.65009 6.46783 0
M  V30 6129 H 559.623 -0.216293 0.70873 0
M  V30 6130 H 562.27 0.148824 1.90921 0
M  V30 6131 H 560.575 -2.01844 3.35807 0
M  V30 6132 H 562.272 -1.72688 3.61911 0
M  V30 6133 H 558.862 -0.445821 4.26275 0
M  V30 6134 H 563.046 0.247023 4.95685 0
M  V30 6135 H 558.302 1.20743 5.99359 0
M  V30 6136 H 562.476 1.89637 6.70083 0
M  V30 6137 H 560.103 2.38263 7.21897 0
M  V30 6138 N 561.678 -1.56367 -0.196722 0
M  V30 6139 C 563.094 -1.49916 -0.54749 0
M  V30 6140 C 563.294 -0.77659 -1.85934 0
M  V30 6141 O 562.35 -0.32644 -2.50381 0
M  V30 6142 C 563.663 -2.94577 -0.603734 0
M  V30 6143 C 565.211 -3.05239 -0.692677 0
M  V30 6144 C 565.686 -4.51308 -0.780046 0
M  V30 6145 N 567.177 -4.55453 -0.843616 0
M  V30 6146 C 567.912 -5.65786 -0.931358 0
M  V30 6147 N 567.408 -6.85812 -0.981503 0
M  V30 6148 N 569.201 -5.53695 -0.968421 0
M  V30 6149 H 561.352 -2.01761 0.663803 0
M  V30 6150 H 563.615 -0.918094 0.236238 0
M  V30 6151 H 563.321 -3.50494 0.29105 0
M  V30 6152 H 563.195 -3.47841 -1.45898 0
M  V30 6153 H 565.582 -2.49372 -1.57789 0
M  V30 6154 H 565.663 -2.55103 0.188736 0
M  V30 6155 H 565.307 -5.078 0.100811 0
M  V30 6156 H 565.237 -4.99176 -1.67724 0
M  V30 6157 H 567.728 -3.69025 -0.814176 0
M  V30 6158 H 568.041 -7.65648 -1.04892 0
M  V30 6159 H 566.386 -6.88474 -0.950208 0
M  V30 6160 H 569.577 -4.58848 -0.926072 0
M  V30 6161 H 569.75 -6.39708 -1.03334 0
M  V30 6162 N 563.156 0.464375 -1.50603 0
M  V30 6163 C 564.433 1.22549 -1.5245 0
M  V30 6164 C 564.813 2.09327 -0.273035 0
M  V30 6165 O 564.161 2.16074 0.743242 0
M  V30 6166 C 564.371 2.05074 -2.82393 0
M  V30 6167 C 565.719 2.63036 -3.33313 0
M  V30 6168 O 566.743 2.1531 -2.8376 0
M  V30 6169 O 565.602 3.5001 -4.19709 0
M  V30 6170 H 562.696 0.556471 -0.611775 0
M  V30 6171 H 565.242 0.475648 -1.62898 0
M  V30 6172 H 564.014 1.41169 -3.64948 0
M  V30 6173 H 563.637 2.87179 -2.7498 0
M  V30 6174 N 564.634 1.40294 0.718013 0
M  V30 6175 C 565.881 1.3844 1.47786 0
M  V30 6176 C 566.209 -0.0140838 1.94495 0
M  V30 6177 O 565.464 -0.998165 1.68331 0
M  V30 6178 C 565.763 2.31814 2.72024 0
M  V30 6179 C 565.429 3.79117 2.44093 0
M  V30 6180 C 564.091 4.19249 2.36185 0
M  V30 6181 C 566.443 4.72212 2.20602 0
M  V30 6182 C 563.771 5.50516 2.02851 0
M  V30 6183 C 566.123 6.03775 1.88781 0
M  V30 6184 C 564.787 6.42953 1.79354 0
M  V30 6185 H 564.057 0.506588 0.540786 0
M  V30 6186 H 566.704 1.72929 0.822663 0
M  V30 6187 H 565.009 1.90501 3.42369 0
M  V30 6188 H 566.706 2.27664 3.30106 0
M  V30 6189 H 563.296 3.47318 2.51133 0
M  V30 6190 H 567.48 4.42026 2.25669 0
M  V30 6191 H 562.736 5.79776 1.94088 0
M  V30 6192 H 566.91 6.75428 1.69617 0
M  V30 6193 H 564.537 7.44584 1.53291 0
M  V30 6194 N 566.112 -0.949982 1.2575 0
M  V30 6195 C 567.359 -1.69515 1.10774 0
M  V30 6196 C 567.687 -1.91316 -0.350479 0
M  V30 6197 O 566.942 -1.48515 -1.27443 0
M  V30 6198 C 567.241 -3.08039 1.81237 0
M  V30 6199 C 566.907 -3.06023 3.31151 0
M  V30 6200 C 565.569 -3.0518 3.72047 0
M  V30 6201 C 567.921 -2.98998 4.26907 0
M  V30 6202 C 565.249 -2.95067 5.07102 0
M  V30 6203 C 567.601 -2.90426 5.61992 0
M  V30 6204 C 566.265 -2.87922 6.0221 0
M  V30 6205 H 565.535 -0.6203 0.405351 0
M  V30 6206 H 568.182 -1.10953 1.56082 0
M  V30 6207 H 566.487 -3.70172 1.28373 0
M  V30 6208 H 568.184 -3.64526 1.67098 0
M  V30 6209 H 564.774 -3.07453 2.98614 0
M  V30 6210 H 568.958 -2.98764 3.963 0
M  V30 6211 H 564.214 -2.915 5.37436 0
M  V30 6212 H 568.388 -2.83952 6.35881 0
M  V30 6213 H 566.015 -2.79841 7.06819 0
M  V30 6214 N 567.59 -1.07411 -1.15328 0
M  V30 6215 C 568.52 -0.716472 -2.22236 0
M  V30 6216 C 569.501 0.296373 -1.67498 0
M  V30 6217 O 570.686 0.168989 -1.93463 0
M  V30 6218 C 567.816 -0.114142 -3.47112 0
M  V30 6219 C 566.77 -1.05421 -4.14814 0
M  V30 6220 C 566.096 -0.314604 -5.33774 0
M  V30 6221 C 567.396 -2.38808 -4.64508 0
M  V30 6222 H 569.09 -1.61029 -2.52408 0
M  V30 6223 H 566.636 -0.775702 -1.21321 0
M  V30 6224 H 568.589 0.148001 -4.2114 0
M  V30 6225 H 567.313 0.814755 -3.16274 0
M  V30 6226 H 565.972 -1.30128 -3.42728 0
M  V30 6227 H 565.62 0.617772 -4.99192 0
M  V30 6228 H 565.32 -0.941209 -5.80013 0
M  V30 6229 H 566.844 -0.0602747 -6.1057 0
M  V30 6230 H 568.258 -2.18424 -5.3006 0
M  V30 6231 H 566.655 -2.97069 -5.21412 0
M  V30 6232 H 567.725 -3.01067 -3.80114 0
M  V30 6233 N 569.068 1.32177 -0.85831 0
M  V30 6234 C 570.479 1.79381 -0.517621 0
M  V30 6235 C 570.83 1.70841 0.964769 0
M  V30 6236 O 569.955 1.26917 1.75274 0
M  V30 6237 C 570.55 3.25706 -0.932801 0
M  V30 6238 C 569.109 3.70851 -0.643953 0
M  V30 6239 C 568.256 2.53208 -1.13054 0
M  V30 6240 H 571.207 1.19424 -1.04516 0
M  V30 6241 H 571.228 3.79673 -0.250674 0
M  V30 6242 H 570.74 3.31889 -2.01174 0
M  V30 6243 H 568.841 3.70178 0.424112 0
M  V30 6244 H 568.954 4.63495 -1.21281 0
M  V30 6245 H 567.318 2.48676 -0.550679 0
M  V30 6246 H 568.101 2.62143 -2.21666 0
M  V30 6247 N 570.547 0.616602 1.45037 0
M  V30 6248 C 571.494 -0.0969439 2.30596 0
M  V30 6249 C 572.464 -0.851151 1.42635 0
M  V30 6250 O 573.649 -0.835092 1.71554 0
M  V30 6251 C 570.789 -1.08234 3.27688 0
M  V30 6252 C 569.902 -0.328072 4.30752 0
M  V30 6253 C 569.037 -1.30399 5.14946 0
M  V30 6254 C 568.076 -0.538049 6.09731 0
M  V30 6255 N 567.213 -1.46371 6.86673 0
M  V30 6256 H 572.053 0.63864 2.91076 0
M  V30 6257 H 569.59 0.326733 1.43425 0
M  V30 6258 H 571.548 -1.66688 3.82454 0
M  V30 6259 H 570.178 -1.78523 2.68941 0
M  V30 6260 H 569.23 0.372136 3.78575 0
M  V30 6261 H 570.542 0.269142 4.98073 0
M  V30 6262 H 569.696 -1.96032 5.74157 0
M  V30 6263 H 568.435 -1.93514 4.47665 0
M  V30 6264 H 567.44 0.131852 5.49642 0
M  V30 6265 H 568.665 0.0881732 6.79043 0
M  V30 6266 H 566.611 -2.08233 6.22073 0
M  V30 6267 H 566.528 -0.920152 7.50379 0
M  V30 6268 H 567.796 -2.10932 7.50418 0
M  V30 6269 N 572.025 -1.5352 0.356285 0
M  V30 6270 C 573.273 -2.00719 -0.235837 0
M  V30 6271 C 573.594 -1.24551 -1.5004 0
M  V30 6272 O 572.864 -0.356185 -1.92635 0
M  V30 6273 H 571.444 -0.741542 -0.0901366 0
M  V30 6274 H 574.106 -1.88887 0.480378 0
M  V30 6275 H 573.202 -3.08551 -0.469357 0
M  V30 6276 N 573.503 -0.0852151 -1.57369 0
M  V30 6277 C 574.731 0.58946 -1.98325 0
M  V30 6278 C 575.146 1.62333 -0.96403 0
M  V30 6279 O 574.503 1.82438 0.0476395 0
M  V30 6280 C 574.554 1.24604 -3.39347 0
M  V30 6281 O 574.275 0.253532 -4.37366 0
M  V30 6282 C 575.776 2.00726 -3.95252 0
M  V30 6283 H 572.996 0.158783 -0.651942 0
M  V30 6284 H 575.54 -0.161584 -2.03861 0
M  V30 6285 H 573.695 1.94808 -3.34856 0
M  V30 6286 H 574.109 0.726207 -5.19448 0
M  V30 6287 H 575.583 2.42039 -4.96106 0
M  V30 6288 H 576.06 2.86919 -3.32527 0
M  V30 6289 H 576.666 1.3536 -4.03185 0
M  V30 6290 N 574.981 1.5647 0.188427 0
M  V30 6291 C 575.891 1.98285 1.2538 0
M  V30 6292 C 576.907 0.891535 1.49424 0
M  V30 6293 O 578.083 1.19782 1.61908 0
M  V30 6294 C 575.148 2.31965 2.57669 0
M  V30 6295 C 574.209 3.54838 2.41638 0
M  V30 6296 C 573.442 3.86901 3.67618 0
M  V30 6297 O 573.665 3.20163 4.72072 0
M  V30 6298 O 572.599 4.80309 3.62749 0
M  V30 6299 H 576.425 2.89145 0.928912 0
M  V30 6300 H 574.01 1.44112 0.393955 0
M  V30 6301 H 575.892 2.54673 3.35737 0
M  V30 6302 H 574.567 1.44271 2.89771 0
M  V30 6303 H 573.474 3.37369 1.61658 0
M  V30 6304 H 574.807 4.43019 2.14465 0
M  V30 6305 N 576.459 -0.456382 1.50847 0
M  V30 6306 C 577.705 -1.20914 1.62811 0
M  V30 6307 C 578.038 -1.91301 0.334304 0
M  V30 6308 O 577.313 -1.82775 -0.665098 0
M  V30 6309 C 577.596 -2.24122 2.81853 0
M  V30 6310 C 577.449 -1.57944 4.21158 0
M  V30 6311 C 578.768 -3.25295 2.96431 0
M  V30 6312 H 575.887 -0.438233 0.592554 0
M  V30 6313 H 578.529 -0.50091 1.83278 0
M  V30 6314 H 576.679 -2.84524 2.64534 0
M  V30 6315 H 578.351 -1.01025 4.50102 0
M  V30 6316 H 576.594 -0.882185 4.24735 0
M  V30 6317 H 577.265 -2.33014 5.00408 0
M  V30 6318 H 579.741 -2.7493 3.12335 0
M  V30 6319 H 578.617 -3.94822 3.81322 0
M  V30 6320 H 578.878 -3.90286 2.07676 0
M  V30 6321 N 577.937 -1.40673 -0.710563 0
M  V30 6322 C 579.184 -1.39222 -1.47049 0
M  V30 6323 C 579.512 0.0037691 -1.945 0
M  V30 6324 O 578.767 0.989224 -1.68857 0
M  V30 6325 C 579.066 -2.33253 -2.70791 0
M  V30 6326 C 578.732 -3.80406 -2.42079 0
M  V30 6327 C 577.394 -4.20496 -2.33959 0
M  V30 6328 C 579.746 -4.73375 -2.18094 0
M  V30 6329 C 577.074 -5.51584 -1.99929 0
M  V30 6330 C 579.426 -6.04768 -1.85576 0
M  V30 6331 C 578.09 -6.43895 -1.75941 0
M  V30 6332 H 577.36 -0.509449 -0.538092 0
M  V30 6333 H 580.007 -1.73363 -0.81348 0
M  V30 6334 H 578.312 -1.92314 -3.41354 0
M  V30 6335 H 580.009 -2.29412 -3.28894 0
M  V30 6336 H 576.599 -3.48645 -2.49288 0
M  V30 6337 H 580.783 -4.43217 -2.23321 0
M  V30 6338 H 576.039 -5.80797 -1.91011 0
M  V30 6339 H 580.213 -6.76318 -1.66033 0
M  V30 6340 H 577.84 -7.45387 -1.4934 0
M  V30 6341 N 579.415 0.9433 -1.26252 0
M  V30 6342 C 580.826 1.50404 -1.10614 0
M  V30 6343 C 581.177 1.93666 0.31429 0
M  V30 6344 O 580.302 1.79709 1.20555 0
M  V30 6345 C 580.897 2.73336 -2.00182 0
M  V30 6346 C 579.456 3.25686 -1.88695 0
M  V30 6347 C 578.603 1.98474 -1.93658 0
M  V30 6348 H 581.554 0.759006 -1.39373 0
M  V30 6349 H 581.575 3.47567 -1.54847 0
M  V30 6350 H 581.087 2.41818 -3.03555 0
M  V30 6351 H 579.188 3.61998 -0.882489 0
M  V30 6352 H 579.301 3.92935 -2.74115 0
M  V30 6353 H 577.665 2.14278 -1.37684 0
M  V30 6354 H 578.448 1.6929 -2.98657 0
M  V30 6355 N 580.893 1.08022 1.14757 0
M  V30 6356 C 581.826 0.650738 2.18725 0
M  V30 6357 C 582.804 -0.335496 1.59101 0
M  V30 6358 O 583.988 -0.240295 1.86962 0
M  V30 6359 C 581.115 -0.0434377 3.38672 0
M  V30 6360 C 580.161 0.90232 4.16846 0
M  V30 6361 S 580.994 2.40693 4.78359 0
M  V30 6362 C 582.15 1.72475 6.01667 0
M  V30 6363 H 582.383 1.53152 2.54817 0
M  V30 6364 H 579.916 0.894823 1.25826 0
M  V30 6365 H 581.874 -0.437684 4.0816 0
M  V30 6366 H 580.535 -0.900659 3.0091 0
M  V30 6367 H 579.728 0.363445 5.02688 0
M  V30 6368 H 579.33 1.23728 3.52941 0
M  V30 6369 H 581.622 1.0404 6.69464 0
M  V30 6370 H 582.565 2.56175 6.60136 0
M  V30 6371 H 582.973 1.19979 5.51602 0
M  V30 6372 N 582.371 -1.3172 0.865308 0
M  V30 6373 C 583.301 -2.31109 0.333302 0
M  V30 6374 C 584.282 -1.60148 -0.573301 0
M  V30 6375 O 585.467 -1.87882 -0.491305 0
M  V30 6376 C 582.597 -3.44104 -0.470078 0
M  V30 6377 C 581.551 -4.26623 0.343021 0
M  V30 6378 C 580.877 -5.31482 -0.585756 0
M  V30 6379 C 582.177 -4.98001 1.57456 0
M  V30 6380 H 583.871 -2.75855 1.1638 0
M  V30 6381 H 581.417 -1.3262 0.561069 0
M  V30 6382 H 583.37 -4.12682 -0.852752 0
M  V30 6383 H 582.094 -2.98112 -1.33404 0
M  V30 6384 H 580.753 -3.59707 0.707583 0
M  V30 6385 H 580.401 -4.81741 -1.44686 0
M  V30 6386 H 580.101 -5.87582 -0.0456494 0
M  V30 6387 H 581.625 -6.0292 -0.965375 0
M  V30 6388 H 583.039 -5.59201 1.26359 0
M  V30 6389 H 581.436 -5.63876 2.05339 0
M  V30 6390 H 582.506 -4.25253 2.32997 0
M  V30 6391 N 583.85 -0.624285 -1.44708 0
M  V30 6392 C 585.098 -0.125802 -2.01708 0
M  V30 6393 C 585.418 1.2543 -1.49306 0
M  V30 6394 O 584.689 1.83198 -0.693924 0
M  V30 6395 H 583.269 -0.0435161 -0.745731 0
M  V30 6396 H 585.931 -0.809446 -1.77296 0
M  V30 6397 H 585.027 -0.0882734 -3.11975 0
M  V30 6398 N 585.328 1.53329 -0.364422 0
M  V30 6399 C 586.553 2.06132 0.229033 0
M  V30 6400 C 586.978 1.23625 1.41769 0
M  V30 6401 O 586.336 0.255038 1.79497 0
M  V30 6402 C 586.384 3.55544 0.60174 0
M  V30 6403 O 585.488 3.75771 1.69912 0
M  V30 6404 H 584.829 0.663148 0.0336213 0
M  V30 6405 H 587.359 1.97758 -0.524689 0
M  V30 6406 H 587.369 3.98549 0.873073 0
M  V30 6407 H 586.044 4.15039 -0.267421 0
M  V30 6408 H 584.621 3.44663 1.42343 0
M  V30 6409 N 586.806 0.0935595 1.57322 0
M  V30 6410 C 588.052 -0.571355 1.94585 0
M  V30 6411 C 588.385 -1.67929 0.975366 0
M  V30 6412 O 587.66 -1.94498 0.00816206 0
M  V30 6413 C 587.943 -1.12797 3.41978 0
M  V30 6414 C 587.796 -0.0251881 4.49793 0
M  V30 6415 C 589.115 -2.02682 3.90651 0
M  V30 6416 H 586.234 -0.206223 0.70756 0
M  V30 6417 H 588.876 0.163956 1.89291 0
M  V30 6418 H 587.026 -1.75461 3.4662 0
M  V30 6419 H 588.698 0.608979 4.57263 0
M  V30 6420 H 586.941 0.641399 4.29032 0
M  V30 6421 H 587.612 -0.455433 5.50118 0
M  V30 6422 H 590.088 -1.49925 3.88152 0
M  V30 6423 H 588.964 -2.38555 4.94351 0
M  V30 6424 H 589.225 -2.94362 3.29854 0
M  V30 6425 N 588.284 -1.56567 -0.180126 0
M  V30 6426 C 589.214 -1.98753 -1.22553 0
M  V30 6427 C 590.195 -0.86175 -1.46656 0
M  V30 6428 O 591.38 -1.12719 -1.58139 0
M  V30 6429 C 588.51 -2.33988 -2.56645 0
M  V30 6430 C 587.464 -3.49445 -2.47128 0
M  V30 6431 C 586.79 -3.70397 -3.8563 0
M  V30 6432 C 588.09 -4.83171 -1.98352 0
M  V30 6433 H 589.784 -2.86332 -0.874896 0
M  V30 6434 H 587.33 -1.37757 -0.419414 0
M  V30 6435 H 589.283 -2.62097 -3.29974 0
M  V30 6436 H 588.007 -1.43309 -2.93479 0
M  V30 6437 H 586.666 -3.2145 -1.76254 0
M  V30 6438 H 586.314 -2.77023 -4.19842 0
M  V30 6439 H 586.014 -4.48077 -3.80132 0
M  V30 6440 H 587.538 -4.00897 -4.60558 0
M  V30 6441 H 588.952 -5.10213 -2.61449 0
M  V30 6442 H 587.349 -5.64425 -2.03823 0
M  V30 6443 H 588.419 -4.75753 -0.937402 0
M  V30 6444 N 589.762 0.448376 -1.51087 0
M  V30 6445 C 591.178 0.783984 -1.39017 0
M  V30 6446 C 591.378 1.96087 -0.463904 0
M  V30 6447 O 590.434 2.52357 0.0850534 0
M  V30 6448 C 591.747 1.07471 -2.80839 0
M  V30 6449 C 593.295 1.17981 -2.89913 0
M  V30 6450 C 593.77 1.50354 -4.32617 0
M  V30 6451 N 595.261 1.57301 -4.35673 0
M  V30 6452 C 595.996 1.839 -5.4311 0
M  V30 6453 N 595.492 2.08365 -6.60724 0
M  V30 6454 N 597.285 1.8559 -5.30578 0
M  V30 6455 H 589.436 -0.326881 -2.0987 0
M  V30 6456 H 591.699 -0.0838006 -0.944289 0
M  V30 6457 H 591.405 0.282768 -3.50561 0
M  V30 6458 H 591.279 2.00519 -3.19487 0
M  V30 6459 H 593.666 1.9624 -2.20395 0
M  V30 6460 H 593.747 0.228603 -2.54776 0
M  V30 6461 H 593.391 0.726273 -5.0268 0
M  V30 6462 H 593.321 2.46663 -4.65258 0
M  V30 6463 H 595.812 1.40342 -3.50874 0
M  V30 6464 H 596.125 2.27999 -7.38401 0
M  V30 6465 H 594.47 2.0571 -6.63859 0
M  V30 6466 H 597.661 1.65989 -4.37682 0
M  V30 6467 H 597.834 2.05983 -6.1439 0
M  V30 6468 N 591.24 1.41047 0.703093 0
M  V30 6469 C 592.517 1.30493 1.45708 0
M  V30 6470 C 592.897 -0.0709892 2.10981 0
M  V30 6471 O 592.245 -1.08471 2.01113 0
M  V30 6472 C 592.455 2.45287 2.48265 0
M  V30 6473 C 593.803 2.86104 3.13735 0
M  V30 6474 O 594.827 2.44971 2.58587 0
M  V30 6475 O 593.686 3.57206 4.13601 0
M  V30 6476 H 590.78 0.513144 0.648546 0
M  V30 6477 H 593.326 1.52995 0.734208 0
M  V30 6478 H 592.098 3.37135 1.98635 0
M  V30 6479 H 591.721 2.24622 3.28071 0
M  V30 6480 N 592.718 -0.936591 1.26751 0
M  V30 6481 C 594.129 -1.49816 1.1141 0
M  V30 6482 C 594.48 -1.9383 -0.304015 0
M  V30 6483 O 593.605 -1.80346 -1.196 0
M  V30 6484 C 594.2 -2.72271 2.01629 0
M  V30 6485 C 592.759 -3.2468 1.9042 0
M  V30 6486 C 591.906 -1.97444 1.94708 0
M  V30 6487 H 594.857 -0.751604 1.39773 0
M  V30 6488 H 594.878 -3.46741 1.56688 0
M  V30 6489 H 594.39 -2.40205 3.04833 0
M  V30 6490 H 592.491 -3.61525 0.901674 0
M  V30 6491 H 592.604 -3.91476 2.76195 0
M  V30 6492 H 590.968 -2.13545 1.38818 0
M  V30 6493 H 591.751 -1.67703 2.9955 0
M  V30 6494 N 594.196 -1.08629 -1.14182 0
M  V30 6495 C 595.421 -0.83902 -1.89671 0
M  V30 6496 C 595.846 0.603332 -1.78161 0
M  V30 6497 O 595.204 1.42301 -1.12339 0
M  V30 6498 C 595.252 -1.26854 -3.37551 0
M  V30 6499 O 594.356 -0.42188 -4.10236 0
M  V30 6500 H 593.697 -0.304545 -0.590041 0
M  V30 6501 H 596.227 -1.4483 -1.44518 0
M  V30 6502 H 596.237 -1.25038 -3.88368 0
M  V30 6503 H 594.912 -2.31901 -3.45246 0
M  V30 6504 H 593.489 -0.503654 -3.69483 0
M  V30 6505 N 595.674 1.31259 -0.872281 0
M  V30 6506 C 596.921 1.96622 -0.484365 0
M  V30 6507 C 597.249 1.68939 0.963841 0
M  V30 6508 O 596.504 0.97974 1.6941 0
M  V30 6509 C 596.803 3.50659 -0.690889 0
M  V30 6510 C 596.469 3.98366 -2.11224 0
M  V30 6511 C 595.131 4.11104 -2.50094 0
M  V30 6512 C 597.483 4.23425 -3.0391 0
M  V30 6513 C 594.811 4.46254 -3.80887 0
M  V30 6514 C 597.163 4.60039 -4.3422 0
M  V30 6515 C 595.827 4.70984 -4.73001 0
M  V30 6516 H 595.097 0.71949 -0.177242 0
M  V30 6517 H 597.744 1.56353 -1.10571 0
M  V30 6518 H 596.049 3.91798 0.0135782 0
M  V30 6519 H 597.746 3.99284 -0.370534 0
M  V30 6520 H 594.336 3.88949 -1.80047 0
M  V30 6521 H 598.52 4.13075 -2.75104 0
M  V30 6522 H 593.776 4.52926 -4.10692 0
M  V30 6523 H 597.95 4.78381 -5.06088 0
M  V30 6524 H 595.577 4.97977 -5.7439 0
M  V30 6525 N 597.152 0.631951 1.44375 0
M  V30 6526 C 598.399 0.136767 2.02038 0
M  V30 6527 C 598.727 -1.24168 1.49709 0
M  V30 6528 O 597.982 -1.83809 0.671763 0
M  V30 6529 C 598.281 0.0735861 3.57324 0
M  V30 6530 C 597.947 1.39092 4.28911 0
M  V30 6531 C 596.609 1.75171 4.48184 0
M  V30 6532 C 598.961 2.26042 4.69632 0
M  V30 6533 C 596.289 2.97907 5.05439 0
M  V30 6534 C 598.641 3.4805 5.28246 0
M  V30 6535 C 597.305 3.84351 5.45738 0
M  V30 6536 H 596.575 0.0500466 0.739308 0
M  V30 6537 H 599.222 0.818429 1.7313 0
M  V30 6538 H 597.527 -0.691449 3.8565 0
M  V30 6539 H 599.224 -0.326091 3.99672 0
M  V30 6540 H 595.814 1.10015 4.1424 0
M  V30 6541 H 599.998 1.99463 4.54454 0
M  V30 6542 H 595.254 3.26108 5.17169 0
M  V30 6543 H 599.428 4.15658 5.5875 0
M  V30 6544 H 597.055 4.79538 5.8987 0
M  V30 6545 N 598.631 -1.53133 0.372548 0
M  V30 6546 C 599.856 -2.0625 -0.218098 0
M  V30 6547 C 600.281 -1.24375 -1.41111 0
M  V30 6548 O 599.639 -0.264554 -1.79359 0
M  V30 6549 C 599.687 -3.55858 -0.582876 0
M  V30 6550 O 598.791 -3.76667 -1.67917 0
M  V30 6551 H 598.132 -0.663317 -0.030104 0
M  V30 6552 H 600.662 -1.97477 0.535169 0
M  V30 6553 H 600.672 -3.99007 -0.851925 0
M  V30 6554 H 599.347 -4.14892 0.289428 0
M  V30 6555 H 597.924 -3.45413 -1.40513 0
M  V30 6556 N 600.109 -0.101901 -1.5727 0
M  V30 6557 C 601.057 0.872034 -2.15635 0
M  V30 6558 C 602.051 1.28742 -1.10099 0
M  V30 6559 O 603.257 1.26116 -1.28432 0
M  V30 6560 H 599.632 0.299269 -0.689886 0
M  V30 6561 H 601.603 0.355137 -2.96279 0
M  V30 6562 C 600.352 2.11886 -2.7568 0
M  V30 6563 H 599.675 1.80813 -3.56576 0
M  V30 6564 H 601.115 2.78077 -3.20077 0
M  V30 6565 C 599.574 2.89739 -1.7191 0
M  V30 6566 O 600.104 3.84522 -1.16213 0
M  V30 6567 N 598.31 2.53407 -1.42245 0
M  V30 6568 H 597.857 1.76398 -1.87727 0
M  V30 6569 H 597.815 3.05795 -0.730529 0
M  V30 6570 N 601.587 1.56661 0.17182 0
M  V30 6571 C 602.998 1.71652 0.734329 0
M  V30 6572 C 603.349 0.712335 1.82812 0
M  V30 6573 O 602.474 -0.126401 2.16031 0
M  V30 6574 C 603.069 3.11226 1.3388 0
M  V30 6575 C 601.628 3.27904 1.84813 0
M  V30 6576 C 600.775 2.67603 0.726917 0
M  V30 6577 H 603.726 1.5861 -0.0535665 0
M  V30 6578 H 603.747 3.09849 2.20849 0
M  V30 6579 H 603.259 3.8429 0.54249 0
M  V30 6580 H 601.36 2.59796 2.6709 0
M  V30 6581 H 601.473 4.35637 1.99392 0
M  V30 6582 H 599.837 2.274 1.14723 0
M  V30 6583 H 600.62 3.43252 -0.0575334 0
M  V30 6584 N 603.065 -0.440357 1.51323 0
M  V30 6585 C 603.997 -1.55254 1.68609 0
M  V30 6586 C 605.01 -1.52614 0.566812 0
M  V30 6587 O 606.199 -1.57445 0.841032 0
M  V30 6588 C 603.299 -2.94169 1.68279 0
M  V30 6589 C 602.472 -3.21346 2.96742 0
M  V30 6590 C 601.531 -4.3997 2.8864 0
M  V30 6591 O 600.557 -4.38771 3.62586 0
M  V30 6592 N 601.759 -5.43367 2.04285 0
M  V30 6593 H 604.524 -1.40831 2.6455 0
M  V30 6594 H 602.085 -0.629251 1.49171 0
M  V30 6595 H 604.077 -3.71543 1.60431 0
M  V30 6596 H 602.647 -3.02205 0.799441 0
M  V30 6597 H 601.867 -2.32299 3.18482 0
M  V30 6598 H 603.155 -3.3633 3.81785 0
M  V30 6599 H 602.553 -5.47176 1.43578 0
M  V30 6600 H 601.11 -6.19605 2.02318 0
M  V30 6601 N 604.543 -1.41418 -0.695603 0
M  V30 6602 C 605.82 -1.31264 -1.45014 0
M  V30 6603 C 606.2 0.0597994 -2.11015 0
M  V30 6604 O 605.548 1.07403 -2.01685 0
M  V30 6605 C 605.758 -2.466 -2.4696 0
M  V30 6606 C 607.106 -2.87763 -3.12214 0
M  V30 6607 O 608.13 -2.46339 -2.57285 0
M  V30 6608 O 606.989 -3.59395 -4.11701 0
M  V30 6609 H 604.083 -0.516576 -0.645816 0
M  V30 6610 H 606.629 -1.53382 -0.726084 0
M  V30 6611 H 605.401 -3.38183 -1.96845 0
M  V30 6612 H 605.024 -2.26358 -3.26876 0
M  V30 6613 N 606.021 0.929856 -1.27246 0
M  V30 6614 C 607.268 1.67731 -1.13457 0
M  V30 6615 C 607.596 1.9185 0.319998 0
M  V30 6616 O 606.851 1.50524 1.25064 0
M  V30 6617 C 607.15 3.05116 -1.86115 0
M  V30 6618 C 606.816 3.00715 -3.35978 0
M  V30 6619 C 605.478 2.99222 -3.76855 0
M  V30 6620 C 607.83 2.92168 -4.3161 0
M  V30 6621 C 605.158 2.86962 -5.11732 0
M  V30 6622 C 607.51 2.81449 -5.66542 0
M  V30 6623 C 606.174 2.78305 -6.06715 0
M  V30 6624 H 605.444 0.613772 -0.415168 0
M  V30 6625 H 608.091 1.08456 -1.57827 0
M  V30 6626 H 606.396 3.68083 -1.34246 0
M  V30 6627 H 608.093 3.61822 -1.72876 0
M  V30 6628 H 604.683 3.02664 -3.03468 0
M  V30 6629 H 608.867 2.92421 -4.01003 0
M  V30 6630 H 604.123 2.82913 -5.42006 0
M  V30 6631 H 608.297 2.738 -6.40317 0
M  V30 6632 H 605.924 2.68561 -7.11181 0
M  V30 6633 N 607.499 1.09233 1.13605 0
M  V30 6634 C 608.447 0.724572 2.21027 0
M  V30 6635 C 609.441 -0.273595 1.67176 0
M  V30 6636 O 610.647 -0.135266 1.79491 0
M  V30 6637 H 607.022 0.216319 0.720215 0
M  V30 6638 H 608.993 1.63975 2.49309 0
M  V30 6639 C 607.742 0.159126 3.47336 0
M  V30 6640 H 607.065 0.918387 3.89109 0
M  V30 6641 H 608.505 -0.0602851 4.23957 0
M  V30 6642 C 606.964 -1.10514 3.18258 0
M  V30 6643 O 607.494 -2.18869 3.36837 0
M  V30 6644 N 605.7 -1.01886 2.72154 0
M  V30 6645 H 605.247 -0.137027 2.57235 0
M  V30 6646 H 605.205 -1.8655 2.53074 0
M  V30 6647 N 608.977 -1.30795 0.87923 0
M  V30 6648 C 610.388 -1.78535 0.546093 0
M  V30 6649 C 610.739 -1.72354 -0.937467 0
M  V30 6650 O 609.864 -1.2969 -1.73233 0
M  V30 6651 C 610.459 -3.24181 0.9845 0
M  V30 6652 C 609.018 -3.69779 0.702871 0
M  V30 6653 C 608.165 -2.51377 1.17068 0
M  V30 6654 H 611.116 -1.17746 1.06403 0
M  V30 6655 H 611.137 -3.79227 0.311045 0
M  V30 6656 H 610.649 -3.28647 2.06429 0
M  V30 6657 H 608.75 -3.70806 -0.365166 0
M  V30 6658 H 608.863 -4.61507 1.28639 0
M  V30 6659 H 607.227 -2.47768 0.590172 0
M  V30 6660 H 608.01 -2.58584 2.25808 0
M  V30 6661 N 610.455 -0.639598 -1.44038 0
M  V30 6662 C 611.387 0.0987684 -2.28987 0
M  V30 6663 C 612.4 0.80058 -1.41755 0
M  V30 6664 O 613.589 0.660611 -1.65826 0
M  V30 6665 C 610.689 1.16242 -3.18341 0
M  V30 6666 C 609.862 0.541447 -4.34036 0
M  V30 6667 C 608.921 1.50017 -5.04362 0
M  V30 6668 O 607.947 1.01403 -5.60095 0
M  V30 6669 N 609.149 2.83441 -5.06598 0
M  V30 6670 H 611.914 -0.630305 -2.92997 0
M  V30 6671 H 609.475 -0.481376 -1.54578 0
M  V30 6672 H 611.467 1.80429 -3.62253 0
M  V30 6673 H 610.037 1.79362 -2.56024 0
M  V30 6674 H 609.257 -0.27923 -3.9321 0
M  V30 6675 H 610.545 0.107379 -5.08687 0
M  V30 6676 H 609.943 3.2551 -4.62666 0
M  V30 6677 H 608.5 3.42966 -5.54272 0
M  V30 6678 N 611.933 1.52934 -0.380664 0
M  V30 6679 C 612.883 2.22989 0.475399 0
M  V30 6680 C 613.867 1.23058 1.03661 0
M  V30 6681 O 615.059 1.48436 0.964146 0
M  V30 6682 C 612.188 3.0338 1.60671 0
M  V30 6683 C 611.274 4.107 1.05766 0
M  V30 6684 N 611.665 5.05264 0.232837 0
M  V30 6685 C 609.963 4.25676 1.33101 0
M  V30 6686 C 610.664 5.81658 -0.0695134 0
M  V30 6687 N 609.64 5.40989 0.532144 0
M  V30 6688 H 613.442 2.93456 -0.161418 0
M  V30 6689 H 610.956 1.61291 -0.189495 0
M  V30 6690 H 612.953 3.52098 2.23232 0
M  V30 6691 H 611.613 2.34446 2.24644 0
M  V30 6692 H 612.624 5.17739 -0.129204 0
M  V30 6693 H 609.301 3.6797 1.97241 0
M  V30 6694 H 610.691 6.67843 -0.737269 0
M  V30 6695 N 613.412 0.11024 1.57214 0
M  V30 6696 C 614.659 -0.54987 1.94891 0
M  V30 6697 C 614.987 -1.67243 0.992984 0
M  V30 6698 O 614.242 -1.95694 0.0152703 0
M  V30 6699 C 614.541 -1.13102 3.39032 0
M  V30 6700 C 614.207 -0.130713 4.5071 0
M  V30 6701 C 612.869 0.14437 4.80983 0
M  V30 6702 C 615.221 0.551472 5.18274 0
M  V30 6703 C 612.549 1.10807 5.76141 0
M  V30 6704 C 614.901 1.50375 6.14467 0
M  V30 6705 C 613.565 1.78691 6.43138 0
M  V30 6706 H 612.835 -0.201212 0.713158 0
M  V30 6707 H 615.482 0.189288 1.90562 0
M  V30 6708 H 613.787 -1.94675 3.40013 0
M  V30 6709 H 615.484 -1.64973 3.65493 0
M  V30 6710 H 612.074 -0.355301 4.27125 0
M  V30 6711 H 616.258 0.35211 4.95049 0
M  V30 6712 H 611.514 1.3343 5.96663 0
M  V30 6713 H 615.688 2.03808 6.65909 0
M  V30 6714 H 613.315 2.53522 7.1668 0
M  V30 6715 N 614.89 -1.56749 -0.16351 0
M  V30 6716 C 615.82 -2.00042 -1.20438 0
M  V30 6717 C 616.801 -0.877256 -1.45733 0
M  V30 6718 O 617.986 -1.1439 -1.56935 0
M  V30 6719 C 615.116 -2.36697 -2.54149 0
M  V30 6720 C 614.07 -3.52046 -2.43408 0
M  V30 6721 C 613.396 -3.74466 -3.81679 0
M  V30 6722 C 614.696 -4.85247 -1.93216 0
M  V30 6723 H 616.39 -2.87244 -0.844477 0
M  V30 6724 H 613.936 -1.38194 -0.40478 0
M  V30 6725 H 615.889 -2.65582 -3.27176 0
M  V30 6726 H 614.613 -1.46414 -2.91943 0
M  V30 6727 H 613.272 -3.23301 -1.72834 0
M  V30 6728 H 612.92 -2.81461 -4.1688 0
M  V30 6729 H 612.62 -4.52084 -3.75359 0
M  V30 6730 H 614.144 -4.0576 -4.5628 0
M  V30 6731 H 615.558 -5.12957 -2.56023 0
M  V30 6732 H 613.955 -5.66556 -1.97825 0
M  V30 6733 H 615.025 -4.7672 -0.88689 0
M  V30 6734 N 616.368 0.432326 -1.51554 0
M  V30 6735 C 617.316 1.54572 -1.73811 0
M  V30 6736 C 618.31 1.58246 -0.604539 0
M  V30 6737 O 619.516 1.6193 -0.786041 0
M  V30 6738 H 615.891 0.513626 -0.549265 0
M  V30 6739 H 617.862 1.32977 -2.67132 0
M  V30 6740 C 616.611 2.92181 -1.88483 0
M  V30 6741 H 615.934 2.90088 -2.75116 0
M  V30 6742 H 617.374 3.69439 -2.08065 0
M  V30 6743 C 615.833 3.3065 -0.645909 0
M  V30 6744 O 616.363 4.01216 0.197093 0
M  V30 6745 N 614.569 2.86464 -0.488538 0
M  V30 6746 H 614.116 2.29209 -1.17562 0
M  V30 6747 H 614.074 3.12565 0.339156 0
M  V30 6748 N 617.846 1.41785 0.688094 0
M  V30 6749 C 618.756 1.46596 1.83158 0
M  V30 6750 C 619.772 0.355862 1.70322 0
M  V30 6751 O 620.948 0.604737 1.92106 0
M  V30 6752 C 618.013 1.35322 3.192 0
M  V30 6753 C 617.074 2.56711 3.4409 0
M  V30 6754 C 616.307 2.45965 4.73642 0
M  V30 6755 O 616.53 1.48827 5.50642 0
M  V30 6756 O 615.464 3.35859 4.99482 0
M  V30 6757 H 619.29 2.43083 1.82056 0
M  V30 6758 H 616.875 1.23404 0.842126 0
M  V30 6759 H 618.757 1.31347 4.00407 0
M  V30 6760 H 617.432 0.419536 3.2097 0
M  V30 6761 H 616.339 2.66262 2.62784 0
M  V30 6762 H 617.672 3.48933 3.47141 0
M  V30 6763 N 619.324 -0.923095 1.27737 0
M  V30 6764 C 620.271 -2.02432 1.1086 0
M  V30 6765 C 621.241 -1.66098 0.00835195 0
M  V30 6766 O 622.426 -1.90027 0.171542 0
M  V30 6767 C 619.566 -3.36476 0.766671 0
M  V30 6768 C 618.679 -3.85737 1.94501 0
M  V30 6769 C 617.814 -5.08249 1.54455 0
M  V30 6770 C 616.853 -5.49818 2.6901 0
M  V30 6771 N 615.99 -6.63524 2.29521 0
M  V30 6772 H 620.83 -2.16201 2.05089 0
M  V30 6773 H 618.367 -1.05909 1.02087 0
M  V30 6774 H 620.325 -4.13569 0.549223 0
M  V30 6775 H 618.955 -3.22502 -0.13867 0
M  V30 6776 H 618.007 -3.04883 2.27487 0
M  V30 6777 H 619.319 -4.12513 2.80419 0
M  V30 6778 H 618.473 -5.92857 1.28862 0
M  V30 6779 H 617.212 -4.83261 0.656534 0
M  V30 6780 H 616.217 -4.63757 2.95313 0
M  V30 6781 H 617.442 -5.76799 3.5844 0
M  V30 6782 H 615.388 -6.40185 1.43177 0
M  V30 6783 H 615.305 -6.89978 3.08977 0
M  V30 6784 H 616.573 -7.51461 2.07187 0
M  V30 6785 N 620.802 -1.09834 -1.13024 0
M  V30 6786 C 622.05 -0.835297 -1.8403 0
M  V30 6787 C 622.371 0.640944 -1.84165 0
M  V30 6788 O 621.641 1.46517 -1.30037 0
M  V30 6789 H 620.221 -0.306018 -0.681441 0
M  V30 6790 H 622.883 -1.38734 -1.36891 0
M  V30 6791 H 621.979 -1.19258 -2.88416 0
M  V30 6792 N 622.28 1.30327 -0.886154 0
M  V30 6793 C 623.212 2.27079 -0.311072 0
M  V30 6794 C 624.225 1.53758 0.53502 0
M  V30 6795 O 625.414 1.74947 0.354378 0
M  V30 6796 C 622.514 3.33965 0.576228 0
M  V30 6797 C 621.687 4.36735 -0.241064 0
M  V30 6798 C 620.746 5.23028 0.576916 0
M  V30 6799 O 619.772 5.692 -0.000802231 0
M  V30 6800 N 620.974 5.49016 1.88579 0
M  V30 6801 H 623.739 2.77065 -1.14259 0
M  V30 6802 H 621.3 1.43519 -0.749258 0
M  V30 6803 H 623.292 3.88618 1.12953 0
M  V30 6804 H 621.862 2.839 1.30842 0
M  V30 6805 H 621.082 3.81932 -0.975805 0
M  V30 6806 H 622.37 5.02451 -0.801272 0
M  V30 6807 H 621.768 5.13288 2.37806 0
M  V30 6808 H 620.325 6.06539 2.38651 0
M  V30 6809 N 623.758 0.647228 1.43697 0
M  V30 6810 C 625.005 0.158188 2.01881 0
M  V30 6811 C 625.333 -1.22573 1.51017 0
M  V30 6812 O 624.588 -1.83086 0.69122 0
M  V30 6813 C 624.887 0.111481 3.57226 0
M  V30 6814 C 624.553 1.43633 4.27411 0
M  V30 6815 C 623.215 1.79915 4.463 0
M  V30 6816 C 625.567 2.31011 4.67208 0
M  V30 6817 C 622.895 3.03251 5.02251 0
M  V30 6818 C 625.247 3.53633 5.24525 0
M  V30 6819 C 623.911 3.90118 5.41631 0
M  V30 6820 H 623.181 0.0578851 0.738736 0
M  V30 6821 H 625.828 0.836746 1.72252 0
M  V30 6822 H 624.133 -0.650507 3.86362 0
M  V30 6823 H 625.83 -0.283682 3.99995 0
M  V30 6824 H 622.42 1.14403 4.1305 0
M  V30 6825 H 626.604 2.04272 4.52313 0
M  V30 6826 H 621.86 3.31575 5.13681 0
M  V30 6827 H 626.034 4.21561 5.5431 0
M  V30 6828 H 623.661 4.85768 5.84751 0
M  V30 6829 N 625.236 -1.5273 0.388769 0
M  V30 6830 C 626.183 -2.26437 -0.446639 0
M  V30 6831 C 627.153 -1.28025 -1.05824 0
M  V30 6832 O 628.338 -1.56852 -1.08637 0
M  V30 6833 C 625.478 -3.07407 -1.56828 0
M  V30 6834 C 624.591 -4.20747 -0.979589 0
M  V30 6835 C 623.726 -4.89113 -2.07224 0
M  V30 6836 C 622.765 -5.94447 -1.45942 0
M  V30 6837 N 621.902 -6.56411 -2.49135 0
M  V30 6838 H 626.742 -2.97404 0.18837 0
M  V30 6839 H 624.279 -1.46727 0.104725 0
M  V30 6840 H 626.237 -3.52642 -2.22934 0
M  V30 6841 H 624.867 -2.3865 -2.17361 0
M  V30 6842 H 623.919 -3.7983 -0.208151 0
M  V30 6843 H 625.231 -4.9637 -0.491747 0
M  V30 6844 H 624.385 -5.3765 -2.81101 0
M  V30 6845 H 623.124 -4.13013 -2.59368 0
M  V30 6846 H 622.129 -5.4525 -0.705894 0
M  V30 6847 H 623.354 -6.7248 -0.945932 0
M  V30 6848 H 621.3 -5.83152 -3.00449 0
M  V30 6849 H 621.217 -7.27645 -2.05105 0
M  V30 6850 H 622.485 -7.09592 -3.22644 0
M  V30 6851 N 626.714 -0.118576 -1.57153 0
M  V30 6852 C 627.661 0.831789 -2.1529 0
M  V30 6853 C 628.631 1.26385 -1.07778 0
M  V30 6854 O 629.816 1.34144 -1.35684 0
M  V30 6855 C 626.956 2.07664 -2.75626 0
M  V30 6856 C 626.069 1.69298 -3.97444 0
M  V30 6857 C 625.204 2.88747 -4.45868 0
M  V30 6858 C 624.243 2.46619 -5.60219 0
M  V30 6859 N 623.38 3.5898 -6.03389 0
M  V30 6860 H 628.22 0.329183 -2.96176 0
M  V30 6861 H 625.757 0.150792 -1.46325 0
M  V30 6862 H 627.715 2.80601 -3.08738 0
M  V30 6863 H 626.345 2.55384 -1.97431 0
M  V30 6864 H 625.397 0.862374 -3.70496 0
M  V30 6865 H 626.709 1.34338 -4.80369 0
M  V30 6866 H 625.863 3.69909 -4.80887 0
M  V30 6867 H 624.602 3.26933 -3.61892 0
M  V30 6868 H 623.607 1.63889 -5.24805 0
M  V30 6869 H 624.832 2.0955 -6.45961 0
M  V30 6870 H 622.778 3.9684 -5.22354 0
M  V30 6871 H 622.695 3.27942 -6.81168 0
M  V30 6872 H 623.963 4.40583 -6.43045 0
M  V30 6873 N 628.193 1.56834 0.155195 0
M  V30 6874 C 629.418 1.87412 0.888337 0
M  V30 6875 C 629.843 0.70671 1.74319 0
M  V30 6876 O 629.201 -0.343892 1.78009 0
M  V30 6877 C 629.249 3.1652 1.72765 0
M  V30 6878 O 628.353 2.99877 2.83103 0
M  V30 6879 H 627.694 0.615983 0.247914 0
M  V30 6880 H 630.224 2.04061 0.148478 0
M  V30 6881 H 630.234 3.48334 2.12433 0
M  V30 6882 H 628.909 4.01094 1.09985 0
M  V30 6883 H 627.486 2.79453 2.46902 0
M  V30 6884 N 629.671 -0.424282 1.51781 0
M  V30 6885 C 630.948 -1.18464 1.55646 0
M  V30 6886 C 631.328 -2.08529 0.328438 0
M  V30 6887 O 630.676 -2.17969 -0.685693 0
M  V30 6888 C 630.886 -1.97514 2.87731 0
M  V30 6889 C 632.234 -2.54106 3.40169 0
M  V30 6890 O 633.258 -2.07711 2.89369 0
M  V30 6891 O 632.117 -3.38759 4.28841 0
M  V30 6892 H 629.211 -0.540055 0.626314 0
M  V30 6893 H 631.757 -0.432291 1.64102 0
M  V30 6894 H 630.529 -1.31444 3.68562 0
M  V30 6895 H 630.152 -2.79787 2.82498 0
M  V30 6896 N 631.149 -1.42148 -0.680565 0
M  V30 6897 C 632.112 -1.4488 -1.77602 0
M  V30 6898 C 633.112 -0.337209 -1.57224 0
M  V30 6899 O 634.302 -0.597778 -1.63622 0
M  V30 6900 C 631.434 -1.27483 -3.16166 0
M  V30 6901 H 632.627 -2.42412 -1.76568 0
M  V30 6902 H 630.18 -1.28511 -0.889645 0
M  V30 6903 H 630.915 -0.30851 -3.22829 0
M  V30 6904 H 630.7 -2.08037 -3.3236 0
M  V30 6905 H 632.19 -1.32265 -3.96101 0
M  V30 6906 N 632.627 0.916307 -1.28225 0
M  V30 6907 C 633.874 1.66518 -1.1523 0
M  V30 6908 C 634.202 1.92178 0.299632 0
M  V30 6909 O 633.457 1.51842 1.2346 0
M  V30 6910 C 633.756 3.03125 -1.8934 0
M  V30 6911 C 633.422 2.97135 -3.39148 0
M  V30 6912 C 632.084 2.95208 -3.80007 0
M  V30 6913 C 634.436 2.87574 -4.34685 0
M  V30 6914 C 631.764 2.81518 -5.14747 0
M  V30 6915 C 634.116 2.75424 -5.69495 0
M  V30 6916 C 632.78 2.71854 -6.09632 0
M  V30 6917 H 632.05 0.609334 -0.421655 0
M  V30 6918 H 634.697 1.06776 -1.58969 0
M  V30 6919 H 633.002 3.66639 -1.38143 0
M  V30 6920 H 634.699 3.59968 -1.76704 0
M  V30 6921 H 631.289 2.99428 -3.06661 0
M  V30 6922 H 635.473 2.88152 -4.04082 0
M  V30 6923 H 630.729 2.77148 -5.44976 0
M  V30 6924 H 634.903 2.66993 -6.43185 0
M  V30 6925 H 632.53 2.61003 -7.1399 0
M  V30 6926 N 634.105 1.10431 1.1244 0
M  V30 6927 C 635.351 0.847972 1.84221 0
M  V30 6928 C 635.684 -0.624903 1.83871 0
M  V30 6929 O 634.959 -1.46074 1.28423 0
M  V30 6930 C 635.242 1.39695 3.319 0
M  V30 6931 C 635.095 2.93668 3.40704 0
M  V30 6932 C 636.414 1.03924 4.27654 0
M  V30 6933 H 633.533 0.309502 0.668863 0
M  V30 6934 H 636.175 1.36745 1.31912 0
M  V30 6935 H 634.325 0.955095 3.76577 0
M  V30 6936 H 635.997 3.46379 3.04662 0
M  V30 6937 H 634.24 3.30272 2.81252 0
M  V30 6938 H 634.911 3.27162 4.446 0
M  V30 6939 H 637.387 1.42049 3.91102 0
M  V30 6940 H 636.263 1.45027 5.29394 0
M  V30 6941 H 636.524 -0.051336 4.4207 0
M  V30 6942 N 635.583 -1.29855 0.893053 0
M  V30 6943 C 636.994 -1.77946 0.564998 0
M  V30 6944 C 637.345 -1.73339 -0.919134 0
M  V30 6945 O 636.47 -1.3152 -1.71847 0
M  V30 6946 C 637.065 -3.23118 1.01883 0
M  V30 6947 C 635.624 -3.69013 0.742051 0
M  V30 6948 C 634.771 -2.50121 1.19727 0
M  V30 6949 H 637.722 -1.16611 1.07646 0
M  V30 6950 H 637.743 -3.78875 0.351249 0
M  V30 6951 H 637.255 -3.26439 2.09903 0
M  V30 6952 H 635.356 -3.71173 -0.325816 0
M  V30 6953 H 635.469 -4.60117 1.33527 0
M  V30 6954 H 633.833 -2.47128 0.616418 0
M  V30 6955 H 634.616 -2.56174 2.28538 0
M  V30 6956 N 637.061 -0.65484 -1.43351 0
M  V30 6957 C 638.308 -0.168892 -2.01794 0
M  V30 6958 C 638.636 1.2177 -1.51665 0
M  V30 6959 O 637.891 1.82717 -0.70092 0
M  V30 6960 C 638.19 -0.130424 -3.57162 0
M  V30 6961 C 637.856 -1.45898 -4.26643 0
M  V30 6962 C 636.518 -1.82279 -4.4534 0
M  V30 6963 C 638.87 -2.33485 -4.65976 0
M  V30 6964 C 636.198 -3.0591 -5.00635 0
M  V30 6965 C 638.55 -3.5641 -5.22642 0
M  V30 6966 C 637.214 -3.92985 -5.39555 0
M  V30 6967 H 636.484 -0.061802 -0.738418 0
M  V30 6968 H 639.131 -0.845869 -1.71806 0
M  V30 6969 H 637.436 0.630008 -3.86702 0
M  V30 6970 H 639.133 0.262465 -4.0014 0
M  V30 6971 H 635.723 -1.16591 -4.12437 0
M  V30 6972 H 639.907 -2.06668 -4.51223 0
M  V30 6973 H 635.163 -3.34295 -5.11915 0
M  V30 6974 H 639.337 -4.24495 -5.52066 0
M  V30 6975 H 636.964 -4.88862 -5.82167 0
M  V30 6976 N 638.539 1.52521 -0.396863 0
M  V30 6977 C 639.764 2.06571 0.185258 0
M  V30 6978 C 640.189 1.26605 1.39115 0
M  V30 6979 O 639.547 0.293055 1.78916 0
M  V30 6980 C 639.595 3.5674 0.526189 0
M  V30 6981 O 638.699 3.7929 1.61903 0
M  V30 6982 H 638.04 0.663712 0.0195474 0
M  V30 6983 H 640.57 1.966 -0.566519 0
M  V30 6984 H 640.58 4.00311 0.788338 0
M  V30 6985 H 639.255 4.14379 -0.355397 0
M  V30 6986 H 637.832 3.47605 1.35 0
M  V30 6987 N 640.017 0.126909 1.57088 0
M  V30 6988 C 641.266 -0.529024 1.94639 0
M  V30 6989 C 641.579 -1.67323 1.01304 0
M  V30 6990 O 642.785 -2.39245 1.28352 0
M  V30 6991 C 641.241 -0.992483 3.45945 0
M  V30 6992 C 640.849 0.123691 4.47829 0
M  V30 6993 C 642.593 -1.61934 3.924 0
M  V30 6994 C 640.5 -0.356911 5.90322 0
M  V30 6995 H 639.43 -0.201397 0.726605 0
M  V30 6996 H 642.081 0.208032 1.82317 0
M  V30 6997 H 640.463 -1.7842 3.53528 0
M  V30 6998 H 641.637 0.900168 4.51922 0
M  V30 6999 H 639.952 0.657699 4.11173 0
M  V30 7000 H 642.549 -1.9902 4.96281 0
M  V30 7001 H 642.892 -2.50075 3.32819 0
M  V30 7002 H 643.425 -0.892894 3.8765 0
M  V30 7003 H 640.164 0.488636 6.53676 0
M  V30 7004 H 639.684 -1.0997 5.89633 0
M  V30 7005 H 641.363 -0.815547 6.41839 0
M  V30 7006 N 641.495 -1.56914 -0.146875 0
M  V30 7007 C 642.743 -1.82994 -0.85777 0
M  V30 7008 C 643.064 -0.707814 -1.817 0
M  V30 7009 O 642.334 0.270521 -1.94023 0
M  V30 7010 H 640.914 -0.675106 -0.319751 0
M  V30 7011 H 643.576 -1.9439 -0.140849 0
M  V30 7012 H 642.672 -2.77928 -1.41994 0
M  V30 7013 N 642.974 0.416227 -1.52004 0
M  V30 7014 C 643.921 1.50666 -1.74838 0
M  V30 7015 C 644.891 1.55245 -0.590599 0
M  V30 7016 O 646.076 1.71928 -0.827374 0
M  V30 7017 C 643.216 2.88185 -1.89851 0
M  V30 7018 C 642.329 2.92971 -3.17478 0
M  V30 7019 C 641.464 4.21745 -3.22962 0
M  V30 7020 C 640.503 4.20478 -4.4482 0
M  V30 7021 N 639.64 5.40811 -4.47736 0
M  V30 7022 H 644.48 1.30498 -2.67907 0
M  V30 7023 H 642.017 0.633568 -1.32757 0
M  V30 7024 H 643.975 3.68007 -1.96537 0
M  V30 7025 H 642.605 3.06865 -1.00169 0
M  V30 7026 H 641.657 2.05684 -3.19997 0
M  V30 7027 H 642.969 2.87899 -4.07328 0
M  V30 7028 H 642.123 5.09954 -3.28682 0
M  V30 7029 H 640.862 4.29503 -2.31038 0
M  V30 7030 H 639.867 3.30659 -4.39254 0
M  V30 7031 H 641.092 4.14366 -5.38031 0
M  V30 7032 H 639.038 5.4925 -3.58692 0
M  V30 7033 H 638.955 5.37705 -5.31422 0
M  V30 7034 H 640.223 6.30993 -4.57676 0
M  V30 7035 N 644.452 1.42507 0.673017 0
M  V30 7036 C 645.868 1.25472 0.986355 0
M  V30 7037 C 646.068 0.160181 2.00862 0
M  V30 7038 O 645.124 -0.467993 2.48125 0
M  V30 7039 C 646.437 2.61219 1.48947 0
M  V30 7040 C 647.985 2.68589 1.60715 0
M  V30 7041 C 648.46 4.04707 2.14422 0
M  V30 7042 N 649.951 4.0667 2.21752 0
M  V30 7043 C 650.686 5.0881 2.64386 0
M  V30 7044 N 650.182 6.21332 3.0646 0
M  V30 7045 N 651.975 4.96166 2.64151 0
M  V30 7046 H 644.126 2.124 -0.00378532 0
M  V30 7047 H 646.389 0.946046 0.0608367 0
M  V30 7048 H 646.095 3.42179 0.812812 0
M  V30 7049 H 645.969 2.85261 2.46791 0
M  V30 7050 H 648.356 1.87974 2.27486 0
M  V30 7051 H 648.437 2.48333 0.613552 0
M  V30 7052 H 648.081 4.8578 1.48258 0
M  V30 7053 H 648.011 4.22315 3.14575 0
M  V30 7054 H 650.502 3.25438 1.92089 0
M  V30 7055 H 650.815 6.95118 3.37684 0
M  V30 7056 H 649.16 6.24835 3.04313 0
M  V30 7057 H 652.351 4.07334 2.30644 0
M  V30 7058 H 652.524 5.759 2.97057 0
M  V30 7059 N 645.93 -0.909495 1.28709 0
M  V30 7060 C 646.878 -2.03381 1.12866 0
M  V30 7061 C 647.872 -1.69335 0.0468074 0
M  V30 7062 O 649.078 -1.78819 0.205891 0
M  V30 7063 H 645.453 -0.666452 0.348348 0
M  V30 7064 H 647.424 -2.13885 2.08077 0
M  V30 7065 C 646.173 -3.38092 0.811742 0
M  V30 7066 H 645.496 -3.64786 1.63619 0
M  V30 7067 H 646.936 -4.17477 0.740869 0
M  V30 7068 C 645.395 -3.33395 -0.484679 0
M  V30 7069 O 645.925 -3.72089 -1.5137 0
M  V30 7070 N 644.131 -2.86491 -0.486961 0
M  V30 7071 H 643.678 -2.55199 0.350877 0
M  V30 7072 H 643.636 -2.83731 -1.3544 0
M  V30 7073 N 647.408 -1.11026 -1.11852 0
M  V30 7074 C 648.648 -0.866348 -1.85132 0
M  V30 7075 C 649.012 0.597236 -1.82475 0
M  V30 7076 O 650.213 0.957744 -2.51159 0
M  V30 7077 C 648.484 -1.40721 -3.28531 0
M  V30 7078 S 650.043 -1.29964 -4.19112 0
M  V30 7079 H 646.861 -0.312899 -0.638447 0
M  V30 7080 H 649.463 -1.41691 -1.34699 0
M  V30 7081 H 648.167 -2.46631 -3.28027 0
M  V30 7082 H 647.698 -0.85349 -3.8403 0
M  V30 7083 H 649.713 -0.261333 -4.95511 0
M  V30 7084 N 648.886 1.2938 -0.899927 0
M  V30 7085 C 650.133 1.9555 -0.525963 0
M  V30 7086 C 650.461 1.70945 0.927789 0
M  V30 7087 O 649.716 1.01545 1.67293 0
M  V30 7088 C 650.015 3.49114 -0.765113 0
M  V30 7089 C 649.681 3.93796 -2.19626 0
M  V30 7090 C 648.343 4.05707 -2.58758 0
M  V30 7091 C 650.695 4.16883 -3.12823 0
M  V30 7092 C 648.023 4.38074 -3.90267 0
M  V30 7093 C 650.375 4.50725 -4.4388 0
M  V30 7094 C 649.039 4.60845 -4.82885 0
M  V30 7095 H 648.309 0.715569 -0.192463 0
M  V30 7096 H 650.956 1.53972 -1.13863 0
M  V30 7097 H 649.261 3.91738 -0.069531 0
M  V30 7098 H 650.958 3.98409 -0.455144 0
M  V30 7099 H 647.548 3.85042 -1.88256 0
M  V30 7100 H 651.732 4.07147 -2.83804 0
M  V30 7101 H 646.988 4.44112 -4.20207 0
M  V30 7102 H 651.162 4.67538 -5.16121 0
M  V30 7103 H 648.789 4.85681 -5.84823 0
M  V30 7104 N 650.364 0.662433 1.43002 0
M  V30 7105 C 651.612 0.179237 2.01304 0
M  V30 7106 C 651.933 -1.21428 1.52579 0
M  V30 7107 O 651.203 -1.81294 0.742252 0
M  V30 7108 H 649.783 0.0632725 0.744316 0
M  V30 7109 H 652.445 0.856169 1.75088 0
M  V30 7110 H 651.541 0.170957 3.11631 0
M  V30 7111 N 651.842 -1.52309 0.404946 0
M  V30 7112 C 652.752 -2.30634 -0.429555 0
M  V30 7113 C 653.768 -1.38187 -1.05737 0
M  V30 7114 O 654.944 -1.71261 -1.05979 0
M  V30 7115 C 652.009 -3.10947 -1.53339 0
M  V30 7116 C 651.07 -4.19126 -0.929065 0
M  V30 7117 C 650.303 -4.95601 -1.9803 0
M  V30 7118 O 650.526 -4.72331 -3.1978 0
M  V30 7119 O 649.46 -5.80551 -1.58886 0
M  V30 7120 H 653.286 -3.0298 0.208963 0
M  V30 7121 H 650.871 -1.4845 0.168255 0
M  V30 7122 H 652.753 -3.60974 -2.1743 0
M  V30 7123 H 651.428 -2.41399 -2.15658 0
M  V30 7124 H 650.335 -3.73257 -0.250982 0
M  V30 7125 H 651.668 -4.90955 -0.349855 0
M  V30 7126 N 653.32 -0.135238 -1.57019 0
M  V30 7127 C 654.568 0.51777 -1.95355 0
M  V30 7128 C 654.889 1.6617 -1.02042 0
M  V30 7129 O 654.159 1.95738 -0.0797343 0
M  V30 7130 H 652.739 0.194264 -0.721298 0
M  V30 7131 H 655.401 -0.207983 -1.93787 0
M  V30 7132 H 654.497 0.901675 -2.98791 0
M  V30 7133 N 654.798 1.5699 0.138552 0
M  V30 7134 C 655.728 2.01933 1.17241 0
M  V30 7135 C 656.709 0.90033 1.44319 0
M  V30 7136 O 657.894 1.16872 1.55095 0
M  V30 7137 C 655.024 2.40711 2.50351 0
M  V30 7138 C 653.978 3.55874 2.37776 0
M  V30 7139 C 653.304 3.80491 3.75674 0
M  V30 7140 C 654.604 4.8826 1.85472 0
M  V30 7141 H 656.298 2.88551 0.798672 0
M  V30 7142 H 653.844 1.3882 0.382743 0
M  V30 7143 H 655.797 2.70754 3.22909 0
M  V30 7144 H 654.521 1.5104 2.89576 0
M  V30 7145 H 653.18 3.2601 1.67669 0
M  V30 7146 H 652.828 2.88057 4.12349 0
M  V30 7147 H 652.528 4.57998 3.68119 0
M  V30 7148 H 654.052 4.12967 4.49767 0
M  V30 7149 H 655.466 5.16965 2.4783 0
M  V30 7150 H 653.863 5.69631 1.88787 0
M  V30 7151 H 654.933 4.78071 0.810935 0
M  V30 7152 N 656.276 -0.40816 1.52223 0
M  V30 7153 C 657.239 -1.48 1.7501 0
M  V30 7154 C 658.239 -1.48367 0.619996 0
M  V30 7155 O 659.429 -1.49874 0.887881 0
M  V30 7156 C 656.561 -2.87403 1.83336 0
M  V30 7157 H 657.754 -1.29086 2.70697 0
M  V30 7158 H 655.307 -0.638715 1.42654 0
M  V30 7159 H 656.042 -3.11686 0.895677 0
M  V30 7160 H 655.827 -2.8854 2.65494 0
M  V30 7161 H 657.317 -3.65103 2.02705 0
M  V30 7162 N 657.755 -1.42862 -0.66545 0
M  V30 7163 C 659.171 -1.25993 -0.979687 0
M  V30 7164 C 659.371 -0.170831 -2.00775 0
M  V30 7165 O 658.427 0.454827 -2.4837 0
M  V30 7166 C 659.74 -2.62005 -1.47559 0
M  V30 7167 C 661.288 -2.69437 -1.59288 0
M  V30 7168 C 661.763 -4.05838 -2.12272 0
M  V30 7169 N 663.254 -4.0784 -2.19592 0
M  V30 7170 C 663.989 -5.10205 -2.61684 0
M  V30 7171 N 663.485 -6.22949 -3.03161 0
M  V30 7172 N 665.278 -4.9756 -2.61516 0
M  V30 7173 H 657.429 -2.12395 0.0150493 0
M  V30 7174 H 659.692 -0.946355 -0.0558187 0
M  V30 7175 H 659.398 -3.42605 -0.794654 0
M  V30 7176 H 659.272 -2.86566 -2.45275 0
M  V30 7177 H 661.659 -1.89178 -2.26486 0
M  V30 7178 H 661.74 -2.48655 -0.600374 0
M  V30 7179 H 661.384 -4.86559 -1.4568 0
M  V30 7180 H 661.314 -4.23977 -3.12331 0
M  V30 7181 H 663.805 -3.26452 -1.90361 0
M  V30 7182 H 664.118 -6.96899 -3.33993 0
M  V30 7183 H 662.463 -6.2644 -3.00995 0
M  V30 7184 H 665.654 -4.08551 -2.28481 0
M  V30 7185 H 665.827 -5.77468 -2.93999 0
M  V30 7186 N 659.233 0.902656 -1.29189 0
M  V30 7187 C 660.166 2.00816 -1.0839 0
M  V30 7188 C 661.144 1.626 0.00335266 0
M  V30 7189 O 662.328 1.87928 -0.146765 0
M  V30 7190 C 659.455 3.32415 -0.649435 0
M  V30 7191 C 658.501 3.89617 -1.73496 0
M  V30 7192 S 659.334 4.19091 -3.33351 0
M  V30 7193 C 660.49 5.53736 -2.91766 0
M  V30 7194 H 660.723 2.18151 -2.01984 0
M  V30 7195 H 658.256 1.0489 -1.13303 0
M  V30 7196 H 660.214 4.08492 -0.405479 0
M  V30 7197 H 658.875 3.12964 0.266857 0
M  V30 7198 H 658.068 4.84658 -1.38284 0
M  V30 7199 H 657.67 3.20217 -1.93229 0
M  V30 7200 H 659.962 6.34085 -2.38627 0
M  V30 7201 H 660.905 5.93871 -3.85647 0
M  V30 7202 H 661.313 5.15453 -2.30149 0
M  V30 7203 N 660.711 1.11618 1.11262 0
M  V30 7204 C 661.621 0.78898 2.20935 0
M  V30 7205 C 662.637 -0.21867 1.7262 0
M  V30 7206 O 663.813 -0.0543826 2.01327 0
M  V30 7207 C 660.878 0.239014 3.45875 0
M  V30 7208 C 659.939 1.3055 4.08968 0
M  V30 7209 C 659.172 0.781687 5.27944 0
M  V30 7210 O 659.395 -0.387605 5.69082 0
M  V30 7211 O 658.329 1.54734 5.81671 0
M  V30 7212 H 662.155 1.70477 2.51339 0
M  V30 7213 H 659.74 0.892203 1.19834 0
M  V30 7214 H 661.622 -0.0632312 4.21353 0
M  V30 7215 H 660.297 -0.649454 3.17118 0
M  V30 7216 H 659.204 1.66079 3.35214 0
M  V30 7217 H 660.537 2.16743 4.41909 0
M  V30 7218 N 662.189 -1.289 0.906776 0
M  V30 7219 C 663.119 -2.29932 0.406659 0
M  V30 7220 C 664.1 -1.6189 -0.522061 0
M  V30 7221 O 665.285 -1.8935 -0.431283 0
M  V30 7222 C 662.415 -3.45425 -0.360366 0
M  V30 7223 C 661.369 -4.25316 0.478574 0
M  V30 7224 C 660.695 -5.33076 -0.416373 0
M  V30 7225 C 661.995 -4.92739 1.7322 0
M  V30 7226 H 663.689 -2.72013 1.25097 0
M  V30 7227 H 661.235 -1.30768 0.602977 0
M  V30 7228 H 663.188 -4.15186 -0.721029 0
M  V30 7229 H 661.912 -3.02206 -1.23852 0
M  V30 7230 H 660.571 -3.57273 0.821662 0
M  V30 7231 H 660.219 -4.86101 -1.29287 0
M  V30 7232 H 659.919 -5.8743 0.141309 0
M  V30 7233 H 661.443 -6.05686 -0.773072 0
M  V30 7234 H 662.857 -5.54898 1.44086 0
M  V30 7235 H 661.254 -5.57057 2.23175 0
M  V30 7236 H 662.324 -4.17625 2.46408 0
M  V30 7237 N 663.667 -0.670007 -1.42649 0
M  V30 7238 C 664.914 -0.190286 -2.01604 0
M  V30 7239 C 665.242 1.20155 -1.52948 0
M  V30 7240 O 664.497 1.81964 -0.72026 0
M  V30 7241 C 664.796 -0.168298 -3.57004 0
M  V30 7242 C 664.462 -1.50415 -4.25072 0
M  V30 7243 C 663.124 -1.86992 -4.43382 0
M  V30 7244 C 665.476 -2.38414 -4.63474 0
M  V30 7245 C 662.804 -3.11203 -4.97363 0
M  V30 7246 C 665.156 -3.61933 -5.18833 0
M  V30 7247 C 663.82 -3.98685 -5.35356 0
M  V30 7248 H 663.09 -0.0696305 -0.737721 0
M  V30 7249 H 665.737 -0.864044 -1.70899 0
M  V30 7250 H 664.042 0.588958 -3.87348 0
M  V30 7251 H 665.739 0.22001 -4.00396 0
M  V30 7252 H 662.329 -1.20959 -4.11177 0
M  V30 7253 H 666.513 -2.11442 -4.49006 0
M  V30 7254 H 661.769 -3.39705 -5.08341 0
M  V30 7255 H 665.943 -4.30326 -5.47533 0
M  V30 7256 H 663.57 -4.95009 -5.76949 0
M  V30 7257 N 665.145 1.52092 -0.413018 0
M  V30 7258 C 666.075 2.30021 0.401567 0
M  V30 7259 C 667.056 1.34395 1.04269 0
M  V30 7260 O 668.241 1.63304 1.05097 0
M  V30 7261 C 665.371 3.12447 1.51638 0
M  V30 7262 C 664.325 4.16153 1.00005 0
M  V30 7263 C 663.651 4.86948 2.20875 0
M  V30 7264 C 664.951 5.22275 0.0513757 0
M  V30 7265 H 666.645 2.98365 -0.248704 0
M  V30 7266 H 664.191 1.4349 -0.121052 0
M  V30 7267 H 666.144 3.65733 2.09326 0
M  V30 7268 H 664.868 2.41879 2.19458 0
M  V30 7269 H 663.527 3.63882 0.445549 0
M  V30 7270 H 663.175 4.12905 2.8726 0
M  V30 7271 H 662.875 5.57057 1.86978 0
M  V30 7272 H 664.399 5.43048 2.79162 0
M  V30 7273 H 665.813 5.70778 0.537176 0
M  V30 7274 H 664.21 5.9977 -0.198977 0
M  V30 7275 H 665.28 4.76611 -0.892736 0
M  V30 7276 N 666.623 0.143563 1.56945 0
M  V30 7277 C 667.87 -0.508407 1.96014 0
M  V30 7278 C 668.198 -1.65099 1.02824 0
M  V30 7279 O 667.453 -1.95618 0.0567764 0
M  V30 7280 C 667.752 -1.05885 3.41355 0
M  V30 7281 C 667.418 -0.0350809 4.50886 0
M  V30 7282 C 666.08 0.246362 4.80569 0
M  V30 7283 C 668.432 0.661282 5.16988 0
M  V30 7284 C 665.76 1.23003 5.73661 0
M  V30 7285 C 668.112 1.63375 6.11139 0
M  V30 7286 C 666.776 1.92292 6.39203 0
M  V30 7287 H 666.046 -0.186039 0.717266 0
M  V30 7288 H 668.693 0.229667 1.90118 0
M  V30 7289 H 666.998 -1.87419 3.44066 0
M  V30 7290 H 668.695 -1.57183 3.6891 0
M  V30 7291 H 665.285 -0.264622 4.27782 0
M  V30 7292 H 669.469 0.457038 4.94191 0
M  V30 7293 H 664.725 1.46056 5.93698 0
M  V30 7294 H 668.899 2.17887 6.61436 0
M  V30 7295 H 666.526 2.68666 7.11142 0
M  V30 7296 N 668.101 -1.57061 -0.130224 0
M  V30 7297 C 669.348 -1.84257 -0.839972 0
M  V30 7298 C 669.676 -0.726986 -1.80403 0
M  V30 7299 O 668.931 0.282632 -1.93648 0
M  V30 7300 C 669.23 -3.17878 -1.63365 0
M  V30 7301 C 668.896 -4.43475 -0.814891 0
M  V30 7302 C 667.558 -4.77581 -0.589066 0
M  V30 7303 C 669.91 -5.20631 -0.243437 0
M  V30 7304 C 667.238 -5.86292 0.218648 0
M  V30 7305 C 669.59 -6.30192 0.551408 0
M  V30 7306 C 668.254 -6.62837 0.787653 0
M  V30 7307 H 667.524 -0.674245 -0.307367 0
M  V30 7308 H 670.171 -1.91224 -0.102832 0
M  V30 7309 H 668.476 -3.06437 -2.44138 0
M  V30 7310 H 670.173 -3.3614 -2.18658 0
M  V30 7311 H 666.763 -4.16747 -1.00098 0
M  V30 7312 H 670.947 -4.94644 -0.405145 0
M  V30 7313 H 666.203 -6.10017 0.411016 0
M  V30 7314 H 670.377 -6.89165 1.00126 0
M  V30 7315 H 668.004 -7.46908 1.41537 0
M  V30 7316 N 669.579 0.400081 -1.52437 0
M  V30 7317 C 670.807 1.16768 -1.70801 0
M  V30 7318 C 671.222 1.84036 -0.421462 0
M  V30 7319 O 670.579 1.72242 0.603228 0
M  V30 7320 C 670.63 2.22403 -2.8499 0
M  V30 7321 O 670.351 1.57879 -4.08663 0
M  V30 7322 C 671.852 3.11974 -3.1494 0
M  V30 7323 H 669.072 0.350533 -0.57216 0
M  V30 7324 H 671.616 0.469534 -1.99037 0
M  V30 7325 H 669.771 2.87871 -2.59247 0
M  V30 7326 H 670.185 2.27982 -4.7236 0
M  V30 7327 H 671.659 3.82148 -3.9833 0
M  V30 7328 H 672.136 3.74858 -2.28863 0
M  V30 7329 H 672.742 2.52165 -3.42481 0
M  V30 7330 N 671.057 1.43213 0.657864 0
M  V30 7331 C 672.285 1.48015 1.44566 0
M  V30 7332 C 672.7 0.0965951 1.88553 0
M  V30 7333 O 672.057 -0.892221 1.59203 0
M  V30 7334 C 672.108 2.42199 2.68369 0
M  V30 7335 O 671.829 3.75173 2.26223 0
M  V30 7336 C 673.33 2.56195 3.61772 0
M  V30 7337 H 670.55 0.502861 0.444266 0
M  V30 7338 H 673.094 1.87907 0.806917 0
M  V30 7339 H 671.249 2.05514 3.28394 0
M  V30 7340 H 671.663 4.25776 3.06293 0
M  V30 7341 H 673.137 3.26182 4.4532 0
M  V30 7342 H 673.614 1.60534 4.0881 0
M  V30 7343 H 674.22 2.93671 3.07632 0
M  V30 7344 N 672.536 -0.895792 1.29666 0
M  V30 7345 C 673.782 -1.64908 1.18039 0
M  V30 7346 C 674.115 -1.9236 -0.266682 0
M  V30 7347 O 673.39 -1.53682 -1.19214 0
M  V30 7348 C 673.673 -2.99574 1.99819 0
M  V30 7349 C 673.526 -2.79163 3.52687 0
M  V30 7350 C 674.845 -4.00358 1.82761 0
M  V30 7351 H 671.964 -0.598437 0.430165 0
M  V30 7352 H 674.606 -1.03736 1.59182 0
M  V30 7353 H 672.756 -3.51786 1.64859 0
M  V30 7354 H 674.428 -2.33821 3.9765 0
M  V30 7355 H 672.671 -2.13871 3.77414 0
M  V30 7356 H 673.342 -3.74871 4.05186 0
M  V30 7357 H 675.818 -3.57268 2.13304 0
M  V30 7358 H 674.694 -4.92514 2.42325 0
M  V30 7359 H 674.955 -4.35096 0.783839 0
M  V30 7360 N 674.014 -1.12206 -1.10668 0
M  V30 7361 C 674.947 -0.731468 -2.16159 0
M  V30 7362 C 675.925 0.276216 -1.60237 0
M  V30 7363 O 677.109 0.17074 -1.87725 0
M  V30 7364 C 674.236 -0.0822882 -3.386 0
M  V30 7365 C 673.282 -1.05641 -4.1321 0
M  V30 7366 S 674.115 -2.58281 -4.69096 0
M  V30 7367 C 675.271 -1.94686 -5.94851 0
M  V30 7368 H 675.504 -1.62504 -2.48957 0
M  V30 7369 H 673.037 -0.940906 -1.22419 0
M  V30 7370 H 674.995 0.285896 -4.09503 0
M  V30 7371 H 673.656 0.788358 -3.04046 0
M  V30 7372 H 672.849 -0.549764 -5.00993 0
M  V30 7373 H 672.451 -1.36741 -3.48106 0
M  V30 7374 H 674.743 -1.28815 -6.65141 0
M  V30 7375 H 675.686 -2.80499 -6.50174 0
M  V30 7376 H 676.094 -1.40369 -5.46769 0
M  V30 7377 N 675.492 1.28418 -0.913599 0
M  V30 7378 C 676.424 2.26368 -0.359169 0
M  V30 7379 C 677.437 1.54858 0.502285 0
M  V30 7380 O 678.626 1.75659 0.31719 0
M  V30 7381 C 675.726 3.35112 0.50526 0
M  V30 7382 C 674.899 4.36126 -0.333648 0
M  V30 7383 C 673.958 5.24134 0.465845 0
M  V30 7384 O 672.984 5.6907 -0.121538 0
M  V30 7385 N 674.186 5.52892 1.76891 0
M  V30 7386 H 676.951 2.74579 -1.2011 0
M  V30 7387 H 674.512 1.41898 -0.779532 0
M  V30 7388 H 676.504 3.90926 1.04684 0
M  V30 7389 H 675.074 2.86611 1.2479 0
M  V30 7390 H 674.294 3.79776 -1.0566 0
M  V30 7391 H 675.582 5.00638 -0.907669 0
M  V30 7392 H 674.98 5.18217 2.26865 0
M  V30 7393 H 673.537 6.11464 2.25732 0
M  V30 7394 N 676.97 0.677563 1.42291 0
M  V30 7395 C 677.918 -0.0106755 2.32598 0
M  V30 7396 C 678.912 -0.787643 1.49975 0
M  V30 7397 O 680.118 -0.695295 1.66029 0
M  V30 7398 H 676.493 -0.0222482 0.751671 0
M  V30 7399 H 678.464 0.768312 2.88339 0
M  V30 7400 C 677.213 -0.946142 3.3458 0
M  V30 7401 H 676.536 -0.357701 3.98197 0
M  V30 7402 H 677.976 -1.39634 4.00348 0
M  V30 7403 C 676.435 -2.05383 2.67057 0
M  V30 7404 O 676.965 -3.1406 2.50458 0
M  V30 7405 N 675.171 -1.82635 2.26038 0
M  V30 7406 H 674.718 -0.942534 2.39737 0
M  V30 7407 H 674.676 -2.56937 1.81192 0
M  V30 7408 N 678.448 -1.51871 0.421078 0
M  V30 7409 C 679.695 -2.01938 -0.15079 0
M  V30 7410 C 680.023 -1.30611 -1.44121 0
M  V30 7411 O 679.278 -0.404631 -1.91471 0
M  V30 7412 C 679.577 -3.54764 -0.433292 0
M  V30 7413 C 679.243 -4.44288 0.76936 0
M  V30 7414 C 677.905 -4.68477 1.09921 0
M  V30 7415 C 680.257 -4.96915 1.57242 0
M  V30 7416 C 677.585 -5.4254 2.2331 0
M  V30 7417 C 679.937 -5.7222 2.69716 0
M  V30 7418 C 678.601 -5.94678 3.03174 0
M  V30 7419 H 677.871 -0.738943 -0.0551781 0
M  V30 7420 H 680.518 -1.82977 0.564945 0
M  V30 7421 H 678.823 -3.71968 -1.23074 0
M  V30 7422 H 680.52 -3.91023 -0.888922 0
M  V30 7423 H 677.11 -4.25646 0.502305 0
M  V30 7424 H 681.294 -4.78125 1.3308 0
M  V30 7425 H 676.55 -5.58146 2.49565 0
M  V30 7426 H 680.724 -6.11992 3.32323 0
M  V30 7427 H 678.351 -6.51848 3.9115 0
M  V30 7428 N 679.926 -0.151884 -1.56866 0
M  V30 7429 C 681.342 0.204486 -1.58285 0
M  V30 7430 C 681.542 1.6431 -1.16639 0
M  V30 7431 O 680.598 2.37077 -0.868946 0
M  V30 7432 C 681.911 -0.0587019 -3.00643 0
M  V30 7433 C 683.459 0.00462303 -3.13 0
M  V30 7434 C 683.934 -0.231297 -4.57416 0
M  V30 7435 N 685.425 -0.178394 -4.62856 0
M  V30 7436 C 686.16 -0.335379 -5.72418 0
M  V30 7437 N 685.656 -0.550355 -6.90611 0
M  V30 7438 N 687.449 -0.272641 -5.61438 0
M  V30 7439 H 679.6 -1.09116 -1.82229 0
M  V30 7440 H 681.863 -0.432311 -0.843689 0
M  V30 7441 H 681.569 -1.05453 -3.35518 0
M  V30 7442 H 681.443 0.658508 -3.71407 0
M  V30 7443 H 683.83 0.991009 -2.77962 0
M  V30 7444 H 683.911 -0.744992 -2.44711 0
M  V30 7445 H 683.555 -1.2148 -4.93158 0
M  V30 7446 H 683.485 0.5387 -5.23837 0
M  V30 7447 H 685.976 -0.0170923 -3.77896 0
M  V30 7448 H 686.289 -0.660116 -7.69976 0
M  V30 7449 H 684.634 -0.586736 -6.92519 0
M  V30 7450 H 687.825 -0.105421 -4.67981 0
M  V30 7451 H 687.998 -0.398418 -6.46774 0
M  V30 7452 N 681.404 1.57128 0.121893 0
M  V30 7453 C 682.334 2.03165 1.15092 0
M  V30 7454 C 683.315 0.915587 1.43356 0
M  V30 7455 O 684.5 1.1851 1.53847 0
M  V30 7456 C 681.63 2.43352 2.47784 0
M  V30 7457 C 680.584 3.58376 2.33989 0
M  V30 7458 C 679.91 3.84454 3.71617 0
M  V30 7459 C 681.21 4.90199 1.80283 0
M  V30 7460 H 682.904 2.89382 0.768023 0
M  V30 7461 H 680.45 1.39218 0.367998 0
M  V30 7462 H 682.403 2.74163 3.20019 0
M  V30 7463 H 681.127 1.54103 2.87958 0
M  V30 7464 H 679.786 3.2777 1.64202 0
M  V30 7465 H 679.434 2.92414 4.09271 0
M  V30 7466 H 679.134 4.61877 3.6324 0
M  V30 7467 H 680.658 4.17714 4.45362 0
M  V30 7468 H 682.072 5.19565 2.42333 0
M  V30 7469 H 680.469 5.71601 1.82735 0
M  V30 7470 H 681.539 4.78904 0.760184 0
M  V30 7471 N 682.882 -0.391992 1.52647 0
M  V30 7472 C 683.829 -1.47866 1.77213 0
M  V30 7473 C 684.799 -1.54286 0.615223 0
M  V30 7474 O 685.984 -1.7059 0.854622 0
M  V30 7475 C 683.124 -2.85129 1.94411 0
M  V30 7476 C 682.237 -2.87883 3.22098 0
M  V30 7477 C 681.372 -4.16553 3.29631 0
M  V30 7478 C 680.411 -4.13348 4.51453 0
M  V30 7479 N 679.548 -5.33619 4.56284 0
M  V30 7480 H 684.388 -1.26219 2.6995 0
M  V30 7481 H 681.925 -0.612367 1.33748 0
M  V30 7482 H 683.883 -3.64833 2.02367 0
M  V30 7483 H 682.513 -3.05232 1.05038 0
M  V30 7484 H 681.565 -2.00567 3.23229 0
M  V30 7485 H 682.877 -2.81382 4.11856 0
M  V30 7486 H 682.031 -5.0466 3.36753 0
M  V30 7487 H 680.77 -4.25773 2.37842 0
M  V30 7488 H 679.775 -3.23629 4.44459 0
M  V30 7489 H 681 -4.05754 5.44555 0
M  V30 7490 H 678.946 -5.43474 3.67385 0
M  V30 7491 H 678.863 -5.29182 5.3991 0
M  V30 7492 H 680.131 -6.23632 4.67657 0
M  V30 7493 N 684.36 -1.4356 -0.65026 0
M  V30 7494 C 685.585 -1.48995 -1.44275 0
M  V30 7495 C 686.01 -0.109954 -1.87778 0
M  V30 7496 O 685.368 0.896926 -1.57559 0
M  V30 7497 C 685.416 -2.44341 -2.65198 0
M  V30 7498 O 684.52 -1.93172 -3.6436 0
M  V30 7499 H 683.861 -0.503852 -0.432469 0
M  V30 7500 H 686.391 -1.88504 -0.795446 0
M  V30 7501 H 686.401 -2.61743 -3.12977 0
M  V30 7502 H 685.076 -3.44588 -2.32877 0
M  V30 7503 H 683.653 -1.85445 -3.23519 0
M  V30 7504 N 685.838 0.888903 -1.30139 0
M  V30 7505 C 687.063 1.67884 -1.21777 0
M  V30 7506 C 687.488 1.86848 0.216689 0
M  V30 7507 O 686.846 1.39659 1.15608 0
M  V30 7508 C 686.894 3.03483 -1.94757 0
M  V30 7509 O 685.998 3.92294 -1.27198 0
M  V30 7510 H 685.339 0.513144 -0.421402 0
M  V30 7511 H 687.869 1.10968 -1.71893 0
M  V30 7512 H 687.879 3.53553 -2.03627 0
M  V30 7513 H 686.554 2.89 -2.99085 0
M  V30 7514 H 685.131 3.50732 -1.26655 0
M  V30 7515 N 687.317 1.12792 1.10072 0
M  V30 7516 C 688.249 0.757003 2.16338 0
M  V30 7517 C 689.262 -0.218144 1.61332 0
M  V30 7518 O 690.451 0.0010727 1.785 0
M  V30 7519 C 687.551 0.100303 3.38752 0
M  V30 7520 C 686.724 1.10586 4.2319 0
M  V30 7521 C 685.783 0.47609 5.24042 0
M  V30 7522 O 684.809 1.13418 5.57786 0
M  V30 7523 N 686.011 -0.754823 5.75572 0
M  V30 7524 H 688.776 1.6714 2.48766 0
M  V30 7525 H 686.337 1.02003 1.25726 0
M  V30 7526 H 688.329 -0.333092 4.03327 0
M  V30 7527 H 686.899 -0.716915 3.04268 0
M  V30 7528 H 686.119 1.71677 3.54853 0
M  V30 7529 H 687.407 1.78571 4.76435 0
M  V30 7530 H 686.805 -1.30838 5.50362 0
M  V30 7531 H 685.362 -1.13098 6.41913 0
M  V30 7532 N 688.795 -1.27931 0.920396 0
M  V30 7533 C 690.02 -1.99343 0.572478 0
M  V30 7534 C 690.445 -1.68267 -0.840696 0
M  V30 7535 O 689.803 -0.918805 -1.56294 0
M  V30 7536 C 689.851 -3.51698 0.796284 0
M  V30 7537 O 688.955 -4.12157 -0.141602 0
M  V30 7538 H 688.296 -0.626065 0.221221 0
M  V30 7539 H 690.826 -1.62921 1.23765 0
M  V30 7540 H 690.836 -4.01793 0.708984 0
M  V30 7541 H 689.511 -3.73649 1.82644 0
M  V30 7542 H 688.088 -3.729 -0.005007 0
M  V30 7543 N 690.273 -0.685099 -1.4193 0
M  V30 7544 C 691.684 -0.287699 -1.8447 0
M  V30 7545 C 692.035 1.17215 -1.57338 0
M  V30 7546 O 691.16 1.89856 -1.03845 0
M  V30 7547 C 691.755 -0.515385 -3.34857 0
M  V30 7548 C 690.314 -0.172006 -3.76007 0
M  V30 7549 C 689.461 -0.802808 -2.65425 0
M  V30 7550 H 692.412 -0.88652 -1.3163 0
M  V30 7551 H 692.433 0.229251 -3.79809 0
M  V30 7552 H 691.945 -1.57796 -3.54573 0
M  V30 7553 H 690.046 0.886716 -3.61895 0
M  V30 7554 H 690.159 -0.619717 -4.75075 0
M  V30 7555 H 688.523 -0.233267 -2.5363 0
M  V30 7556 H 689.306 -1.86904 -2.87961 0
M  V30 7557 N 691.751 1.51645 -0.429126 0
M  V30 7558 C 692.698 2.27542 0.386446 0
M  V30 7559 C 693.668 1.30786 1.02393 0
M  V30 7560 O 694.853 1.59678 1.0444 0
M  V30 7561 C 691.993 3.11457 1.48623 0
M  V30 7562 C 691.106 4.23196 0.867691 0
M  V30 7563 C 690.241 4.94435 1.94183 0
M  V30 7564 C 689.28 5.98108 1.30129 0
M  V30 7565 N 688.417 6.62786 2.31644 0
M  V30 7566 H 693.257 2.968 -0.267155 0
M  V30 7567 H 690.794 1.46397 -0.143591 0
M  V30 7568 H 692.752 3.58429 2.13506 0
M  V30 7569 H 691.382 2.44329 2.10957 0
M  V30 7570 H 690.434 3.80248 0.107373 0
M  V30 7571 H 691.746 4.97499 0.35997 0
M  V30 7572 H 690.9 5.44914 2.66747 0
M  V30 7573 H 689.639 4.19744 2.48326 0
M  V30 7574 H 688.644 5.4693 0.561082 0
M  V30 7575 H 689.869 6.74751 0.767303 0
M  V30 7576 H 687.815 5.90913 2.84883 0
M  V30 7577 H 687.732 7.32828 1.85741 0
M  V30 7578 H 689 7.17897 3.03717 0
M  V30 7579 N 693.229 0.160201 1.56784 0
M  V30 7580 C 694.506 -0.533355 1.88188 0
M  V30 7581 C 694.886 -1.82072 1.06831 0
M  V30 7582 O 694.234 -2.27946 0.158959 0
M  V30 7583 C 694.444 -0.786034 3.40033 0
M  V30 7584 C 695.792 -1.12097 4.09536 0
M  V30 7585 O 696.816 -0.874949 3.45287 0
M  V30 7586 O 695.675 -1.58457 5.23023 0
M  V30 7587 H 692.769 -0.273589 0.780434 0
M  V30 7588 H 695.315 0.197803 1.68543 0
M  V30 7589 H 694.087 0.124515 3.91102 0
M  V30 7590 H 693.71 -1.57091 3.65251 0
M  V30 7591 N 694.707 -1.5719 -0.113559 0
M  V30 7592 C 695.956 -1.84325 -0.818984 0
M  V30 7593 C 696.269 -0.746685 -1.80787 0
M  V30 7594 O 697.475 -0.904596 -2.55987 0
M  V30 7595 C 695.931 -3.26818 -1.50724 0
M  V30 7596 C 695.539 -4.44498 -0.559065 0
M  V30 7597 C 697.283 -3.63196 -2.19748 0
M  V30 7598 C 695.19 -5.7802 -1.25086 0
M  V30 7599 H 694.12 -0.687507 -0.309596 0
M  V30 7600 H 696.771 -1.8336 -0.0717621 0
M  V30 7601 H 695.153 -3.22269 -2.30128 0
M  V30 7602 H 696.327 -4.60356 0.202146 0
M  V30 7603 H 694.642 -4.16393 0.024495 0
M  V30 7604 H 697.239 -4.60226 -2.72206 0
M  V30 7605 H 697.582 -2.90899 -2.97798 0
M  V30 7606 H 698.115 -3.69553 -1.47226 0
M  V30 7607 H 694.854 -6.53501 -0.511539 0
M  V30 7608 H 694.374 -5.66038 -1.98395 0
M  V30 7609 H 696.053 -6.2196 -1.78253 0
M  V30 7610 N 696.185 0.383891 -1.52853 0
M  V30 7611 C 697.462 1.14296 -1.58732 0
M  V30 7612 C 697.842 2.07585 -0.383611 0
M  V30 7613 O 697.19 2.1971 0.627661 0
M  V30 7614 C 697.4 1.89816 -2.92867 0
M  V30 7615 C 698.748 2.44998 -3.46787 0
M  V30 7616 O 699.772 1.99966 -2.94774 0
M  V30 7617 O 698.631 3.2727 -4.37672 0
M  V30 7618 H 695.725 0.52326 -0.640413 0
M  V30 7619 H 698.271 0.388631 -1.6519 0
M  V30 7620 H 697.043 1.21626 -3.71918 0
M  V30 7621 H 696.666 2.72199 -2.89816 0
M  V30 7622 N 697.663 1.43903 0.642637 0
M  V30 7623 C 698.909 1.46296 1.40447 0
M  V30 7624 C 699.242 0.0908361 1.93987 0
M  V30 7625 O 698.517 -0.889884 1.72949 0
M  V30 7626 C 698.8 2.51399 2.57819 0
M  V30 7627 C 698.653 3.97926 2.09702 0
M  V30 7628 C 699.972 2.53125 3.60022 0
M  V30 7629 H 697.091 0.532676 0.509338 0
M  V30 7630 H 699.733 1.75515 0.727635 0
M  V30 7631 H 697.883 2.26614 3.1556 0
M  V30 7632 H 699.555 4.33804 1.5688 0
M  V30 7633 H 697.798 4.10252 1.40982 0
M  V30 7634 H 698.469 4.67096 2.94152 0
M  V30 7635 H 700.945 2.75242 3.12059 0
M  V30 7636 H 699.821 3.28589 4.39682 0
M  V30 7637 H 700.082 1.56895 4.13324 0
M  V30 7638 N 699.141 -0.881989 1.30609 0
M  V30 7639 C 700.366 -1.67236 1.22665 0
M  V30 7640 C 700.791 -1.8696 -0.206777 0
M  V30 7641 O 700.149 -1.4027 -1.14865 0
M  V30 7642 C 700.197 -3.02446 1.96363 0
M  V30 7643 O 699.301 -3.91614 1.29276 0
M  V30 7644 H 698.642 -0.510902 0.424117 0
M  V30 7645 H 701.172 -1.10055 1.72479 0
M  V30 7646 H 701.182 -3.52468 2.055 0
M  V30 7647 H 699.857 -2.8741 3.00613 0
M  V30 7648 H 698.434 -3.50055 1.28514 0
M  V30 7649 N 700.619 -1.13374 -1.09472 0
M  V30 7650 C 702.03 -0.90801 -1.63132 0
M  V30 7651 C 702.381 0.555576 -1.8817 0
M  V30 7652 O 701.506 1.42218 -1.63104 0
M  V30 7653 C 702.101 -1.64182 -2.96361 0
M  V30 7654 C 700.66 -1.46197 -3.46848 0
M  V30 7655 C 699.807 -1.67134 -2.21273 0
M  V30 7656 H 702.758 -1.2871 -0.928411 0
M  V30 7657 H 702.779 -1.09863 -3.64294 0
M  V30 7658 H 702.291 -2.707 -2.78106 0
M  V30 7659 H 700.392 -0.419788 -3.70228 0
M  V30 7660 H 700.505 -2.22472 -4.24315 0
M  V30 7661 H 698.869 -1.09616 -2.29905 0
M  V30 7662 H 699.652 -2.74971 -2.05538 0
M  V30 7663 N 702.098 1.27442 -0.927168 0
M  V30 7664 C 703.045 2.26863 -0.424459 0
M  V30 7665 C 704.015 1.5813 0.508346 0
M  V30 7666 O 705.2 1.85946 0.42762 0
M  V30 7667 C 702.34 3.43639 0.31718 0
M  V30 7668 C 701.453 4.27087 -0.649675 0
M  V30 7669 C 700.588 5.31082 0.111753 0
M  V30 7670 C 699.627 6.062 -0.847843 0
M  V30 7671 N 698.764 7.01999 -0.119074 0
M  V30 7672 H 703.604 2.69239 -1.27728 0
M  V30 7673 H 701.141 1.32394 -0.641106 0
M  V30 7674 H 703.099 4.10155 0.763486 0
M  V30 7675 H 701.729 3.02217 1.13424 0
M  V30 7676 H 700.781 3.60491 -1.21451 0
M  V30 7677 H 702.093 4.79242 -1.38307 0
M  V30 7678 H 701.247 6.03544 0.618 0
M  V30 7679 H 699.986 4.7973 0.878114 0
M  V30 7680 H 698.991 5.32577 -1.36534 0
M  V30 7681 H 700.216 6.59642 -1.61398 0
M  V30 7682 H 698.162 6.52977 0.629051 0
M  V30 7683 H 698.079 7.5184 -0.792046 0
M  V30 7684 H 699.347 7.78638 0.366537 0
M  V30 7685 N 703.576 0.692616 1.41565 0
M  V30 7686 C 704.526 0.00231847 2.28 0
M  V30 7687 C 705.51 -0.755793 1.42044 0
M  V30 7688 O 706.702 -0.631772 1.65341 0
M  V30 7689 C 703.831 -0.935468 3.30309 0
M  V30 7690 C 702.917 -0.173761 4.23744 0
M  V30 7691 N 703.308 0.830872 4.98929 0
M  V30 7692 C 701.606 -0.409666 4.44115 0
M  V30 7693 C 702.307 1.28656 5.67294 0
M  V30 7694 N 701.283 0.613053 5.40132 0
M  V30 7695 H 705.085 0.772635 2.83562 0
M  V30 7696 H 702.599 0.523198 1.53741 0
M  V30 7697 H 704.596 -1.44513 3.91052 0
M  V30 7698 H 703.256 -1.70542 2.76307 0
M  V30 7699 H 704.267 1.21101 5.03542 0
M  V30 7700 H 700.944 -1.15773 4.01127 0
M  V30 7701 H 702.334 2.12006 6.37576 0
M  V30 7702 N 705.054 -1.51416 0.437162 0
M  V30 7703 C 706.3 -2.02386 -0.129555 0
M  V30 7704 C 706.633 -1.32071 -1.42376 0
M  V30 7705 O 705.908 -0.43559 -1.8956 0
M  V30 7706 C 706.191 -3.5841 -0.348487 0
M  V30 7707 C 706.044 -4.39341 0.964352 0
M  V30 7708 C 707.363 -4.25654 -1.11834 0
M  V30 7709 H 704.482 -0.735587 -0.0456109 0
M  V30 7710 H 707.124 -1.81055 0.576124 0
M  V30 7711 H 705.274 -3.76716 -0.949592 0
M  V30 7712 H 706.946 -4.32685 1.59942 0
M  V30 7713 H 705.189 -4.04432 1.56898 0
M  V30 7714 H 705.86 -5.4667 0.765212 0
M  V30 7715 H 708.336 -4.11617 -0.609165 0
M  V30 7716 H 707.212 -5.34704 -1.24029 0
M  V30 7717 H 707.473 -3.86502 -2.14636 0
M  V30 7718 N 706.532 -0.168513 -1.56696 0
M  V30 7719 C 707.78 0.476216 -1.96409 0
M  V30 7720 C 708.101 1.63968 -1.05544 0
M  V30 7721 O 707.371 1.95525 -0.121235 0
M  V30 7722 H 705.951 0.178921 -0.725256 0
M  V30 7723 H 708.613 -0.249042 -1.93302 0
M  V30 7724 H 707.709 0.838094 -3.00637 0
M  V30 7725 N 708.01 1.57248 0.105221 0
M  V30 7726 C 709.257 1.8557 0.810552 0
M  V30 7727 C 709.585 0.755595 1.79223 0
M  V30 7728 O 708.84 -0.251788 1.94073 0
M  V30 7729 C 709.139 3.20437 1.58287 0
M  V30 7730 C 708.805 4.44716 0.744235 0
M  V30 7731 C 707.467 4.78458 0.513013 0
M  V30 7732 C 709.819 5.20953 0.160578 0
M  V30 7733 C 707.147 5.8587 -0.311894 0
M  V30 7734 C 709.499 6.29235 -0.651596 0
M  V30 7735 C 708.163 6.615 -0.893005 0
M  V30 7736 H 707.433 0.67905 0.296602 0
M  V30 7737 H 710.08 1.91363 0.0723968 0
M  V30 7738 H 708.385 3.10283 2.39232 0
M  V30 7739 H 710.082 3.39576 2.13282 0
M  V30 7740 H 706.672 4.18287 0.934555 0
M  V30 7741 H 710.856 4.95226 0.3264 0
M  V30 7742 H 706.112 6.09286 -0.508012 0
M  V30 7743 H 710.286 6.87484 -1.11077 0
M  V30 7744 H 707.913 7.44562 -1.53401 0
M  V30 7745 N 709.488 -0.375779 1.53054 0
M  V30 7746 C 710.451 -1.44254 1.7811 0
M  V30 7747 C 711.451 -1.47018 0.651328 0
M  V30 7748 O 712.641 -1.47957 0.919472 0
M  V30 7749 C 709.773 -2.8345 1.89391 0
M  V30 7750 H 710.966 -1.23316 2.73374 0
M  V30 7751 H 708.519 -0.608312 1.43977 0
M  V30 7752 H 709.254 -3.09716 0.961589 0
M  V30 7753 H 709.039 -2.82844 2.71555 0
M  V30 7754 H 710.529 -3.60722 2.10404 0
M  V30 7755 N 710.966 -1.44241 -0.634997 0
M  V30 7756 C 712.194 -1.50296 -1.42193 0
M  V30 7757 C 712.609 -0.12658 -1.88375 0
M  V30 7758 O 711.966 0.86678 -1.60603 0
M  V30 7759 C 712.017 -2.46437 -2.64482 0
M  V30 7760 O 711.738 -3.78724 -2.20226 0
M  V30 7761 C 713.239 -2.61918 -3.57651 0
M  V30 7762 H 710.459 -0.509865 -0.43621 0
M  V30 7763 H 713.003 -1.89167 -0.776921 0
M  V30 7764 H 711.158 -2.10712 -3.25083 0
M  V30 7765 H 711.572 -4.30595 -2.9948 0
M  V30 7766 H 713.046 -3.33225 -4.40074 0
M  V30 7767 H 713.523 -1.67017 -4.06204 0
M  V30 7768 H 714.129 -2.98528 -3.02921 0
M  V30 7769 N 712.444 0.87505 -1.31075 0
M  V30 7770 C 713.693 1.62245 -1.19831 0
M  V30 7771 C 714.006 1.94078 0.24357 0
M  V30 7772 O 715.212 2.67265 0.477646 0
M  V30 7773 C 713.668 2.92464 -2.09744 0
M  V30 7774 C 713.276 2.68134 -3.58898 0
M  V30 7775 C 715.02 3.70449 -2.07287 0
M  V30 7776 C 712.927 3.9423 -4.40836 0
M  V30 7777 H 711.857 0.608741 -0.444916 0
M  V30 7778 H 714.508 0.967947 -1.55894 0
M  V30 7779 H 712.89 3.59262 -1.66574 0
M  V30 7780 H 714.064 2.09776 -4.10281 0
M  V30 7781 H 712.379 2.03511 -3.6328 0
M  V30 7782 H 714.976 4.63983 -2.65752 0
M  V30 7783 H 715.319 4.02611 -1.05876 0
M  V30 7784 H 715.852 3.10528 -2.48631 0
M  V30 7785 H 712.591 3.67221 -5.42982 0
M  V30 7786 H 712.111 4.52058 -3.94213 0
M  V30 7787 H 713.79 4.62162 -4.52786 0
M  V30 7788 N 713.922 1.13953 1.08869 0
M  V30 7789 C 715.333 0.916649 1.62648 0
M  V30 7790 C 715.684 -0.545589 1.88462 0
M  V30 7791 O 714.809 -1.41351 1.63856 0
M  V30 7792 C 715.404 1.65751 2.95486 0
M  V30 7793 C 713.963 1.48034 3.46068 0
M  V30 7794 C 713.11 1.68305 2.20383 0
M  V30 7795 H 716.061 1.292 0.921572 0
M  V30 7796 H 716.082 1.11794 3.63707 0
M  V30 7797 H 715.594 2.72171 2.76667 0
M  V30 7798 H 713.695 0.439416 3.7 0
M  V30 7799 H 713.808 2.24719 4.23129 0
M  V30 7800 H 712.172 1.10833 2.29321 0
M  V30 7801 H 712.955 2.76057 2.04077 0
M  V30 7802 N 715.4 -1.26948 0.933913 0
M  V30 7803 C 716.816 -1.46419 0.635103 0
M  V30 7804 C 717.016 -1.84336 -0.813785 0
M  V30 7805 O 716.072 -1.96061 -1.59111 0
M  V30 7806 C 717.385 -2.55206 1.5903 0
M  V30 7807 C 718.933 -2.69062 1.5992 0
M  V30 7808 C 719.408 -3.81013 2.54152 0
M  V30 7809 N 720.899 -3.88395 2.52395 0
M  V30 7810 C 721.634 -4.74454 3.21996 0
M  V30 7811 N 721.13 -5.64954 4.00997 0
M  V30 7812 N 722.923 -4.68237 3.10983 0
M  V30 7813 H 715.074 -1.00622 1.87053 0
M  V30 7814 H 717.337 -0.503189 0.803433 0
M  V30 7815 H 717.043 -2.34153 2.62422 0
M  V30 7816 H 716.917 -3.52719 1.33677 0
M  V30 7817 H 719.304 -2.89492 0.572569 0
M  V30 7818 H 719.385 -1.72016 1.89325 0
M  V30 7819 H 719.029 -3.61336 3.5693 0
M  V30 7820 H 718.959 -4.77499 2.22041 0
M  V30 7821 H 721.45 -3.23687 1.95025 0
M  V30 7822 H 721.763 -6.27496 4.51074 0
M  V30 7823 H 720.108 -5.6473 4.05099 0
M  V30 7824 H 723.299 -3.96535 2.48753 0
M  V30 7825 H 723.472 -5.35087 3.65494 0
M  V30 7826 N 716.879 -0.700114 -1.41195 0
M  V30 7827 C 717.827 -0.0263301 -2.32585 0
M  V30 7828 C 718.821 0.763683 -1.51209 0
M  V30 7829 O 720.027 0.668793 -1.67114 0
M  V30 7830 H 716.402 0.0102869 -0.75193 0
M  V30 7831 H 718.373 -0.814087 -2.8708 0
M  V30 7832 C 717.122 0.892793 -3.36042 0
M  V30 7833 H 716.445 0.294306 -3.98715 0
M  V30 7834 H 717.885 1.33247 -4.02518 0
M  V30 7835 C 716.344 2.01109 -2.7029 0
M  V30 7836 O 716.874 3.10035 -2.55423 0
M  V30 7837 N 715.08 1.79015 -2.28915 0
M  V30 7838 H 714.627 0.904275 -2.41207 0
M  V30 7839 H 714.585 2.54022 -1.85257 0
M  V30 7840 N 718.357 1.51182 -0.445186 0
M  V30 7841 C 719.587 2.06269 0.116922 0
M  V30 7842 C 719.995 1.31188 1.36332 0
M  V30 7843 O 719.338 0.367067 1.79995 0
M  V30 7844 C 719.4 3.56051 0.496757 0
M  V30 7845 C 719.064 4.52441 -0.64394 0
M  V30 7846 C 720.061 4.97233 -1.5184 0
M  V30 7847 C 717.746 4.95447 -0.826905 0
M  V30 7848 C 719.74 5.83712 -2.56046 0
M  V30 7849 C 717.427 5.81714 -1.87222 0
M  V30 7850 C 718.425 6.25745 -2.73738 0
M  V30 7851 O 718.113 7.10298 -3.76474 0
M  V30 7852 H 717.845 0.675954 0.00785733 0
M  V30 7853 H 720.399 1.95648 -0.625371 0
M  V30 7854 H 718.629 3.64483 1.29187 0
M  V30 7855 H 720.318 3.93618 0.990928 0
M  V30 7856 H 721.084 4.64696 -1.38862 0
M  V30 7857 H 716.963 4.60712 -0.163052 0
M  V30 7858 H 720.507 6.18 -3.23607 0
M  V30 7859 H 716.404 6.13664 -2.00218 0
M  V30 7860 H 717.172 7.28493 -3.73149 0
M  V30 7861 N 719.835 0.176821 1.56605 0
M  V30 7862 C 721.063 -0.472828 2.01425 0
M  V30 7863 C 721.478 -1.56436 1.05703 0
M  V30 7864 O 720.835 -1.82405 0.058808 0
M  V30 7865 C 720.886 -1.04607 3.46034 0
M  V30 7866 O 720.607 0.00189608 4.381 0
M  V30 7867 C 722.108 -1.7734 4.06282 0
M  V30 7868 H 719.328 -0.120503 0.660091 0
M  V30 7869 H 721.872 0.280166 2.02572 0
M  V30 7870 H 720.027 -1.74953 3.45645 0
M  V30 7871 H 720.441 -0.422118 5.22799 0
M  V30 7872 H 721.915 -2.12703 5.09374 0
M  V30 7873 H 722.392 -2.67043 3.4869 0
M  V30 7874 H 722.998 -1.11623 4.10391 0
M  V30 7875 N 721.313 -1.57302 -0.09688 0
M  V30 7876 C 722.246 -1.97179 -1.14872 0
M  V30 7877 C 723.224 -0.844734 -1.38935 0
M  V30 7878 O 724.408 -1.10487 -1.52725 0
M  V30 7879 C 721.535 -2.28703 -2.49826 0
M  V30 7880 C 720.581 -3.51158 -2.42054 0
M  V30 7881 S 721.414 -5.0294 -1.83879 0
M  V30 7882 C 722.57 -5.37639 -3.2046 0
M  V30 7883 H 722.803 -2.86088 -0.808771 0
M  V30 7884 H 720.336 -1.51368 -0.304492 0
M  V30 7885 H 722.294 -2.47541 -3.27466 0
M  V30 7886 H 720.955 -1.40368 -2.8099 0
M  V30 7887 H 720.148 -3.70651 -3.41517 0
M  V30 7888 H 719.75 -3.31821 -1.72543 0
M  V30 7889 H 722.042 -5.34175 -4.16729 0
M  V30 7890 H 722.985 -6.38677 -3.05773 0
M  V30 7891 H 723.393 -4.651 -3.19909 0
M  V30 7892 N 722.791 0.367657 -1.53252 0
M  V30 7893 C 724.016 1.13566 -1.73544 0
M  V30 7894 C 724.441 1.82329 -0.462344 0
M  V30 7895 O 723.799 1.71655 0.583472 0
M  V30 7896 C 723.847 2.14322 -2.89997 0
M  V30 7897 O 722.951 3.21359 -2.58461 0
M  V30 7898 H 722.292 0.329614 -0.576412 0
M  V30 7899 H 724.822 0.425417 -2.00128 0
M  V30 7900 H 724.832 2.57958 -3.16104 0
M  V30 7901 H 723.507 1.63664 -3.82344 0
M  V30 7902 H 722.084 2.8271 -2.43165 0
M  V30 7903 N 724.269 1.44576 0.627338 0
M  V30 7904 C 725.516 1.47558 1.38682 0
M  V30 7905 C 725.844 0.109636 1.94191 0
M  V30 7906 O 725.099 -0.889092 1.74338 0
M  V30 7907 C 725.398 2.48644 2.56731 0
M  V30 7908 C 725.064 3.93873 2.19489 0
M  V30 7909 C 723.726 4.33421 2.09045 0
M  V30 7910 C 726.078 4.85286 1.90124 0
M  V30 7911 C 723.406 5.62303 1.6743 0
M  V30 7912 C 725.758 6.14559 1.50001 0
M  V30 7913 C 724.422 6.53058 1.38101 0
M  V30 7914 H 723.692 0.539955 0.507474 0
M  V30 7915 H 726.339 1.77811 0.711021 0
M  V30 7916 H 724.644 2.11889 3.29561 0
M  V30 7917 H 726.341 2.48197 3.14959 0
M  V30 7918 H 722.931 3.62587 2.28537 0
M  V30 7919 H 727.115 4.55483 1.971 0
M  V30 7920 H 722.371 5.90945 1.56823 0
M  V30 7921 H 726.545 6.84848 1.26319 0
M  V30 7922 H 724.172 7.52826 1.05628 0
M  V30 7923 N 725.747 -0.868086 1.31537 0
M  V30 7924 C 726.677 -1.99131 1.21939 0
M  V30 7925 C 727.658 -1.69768 0.106166 0
M  V30 7926 O 728.843 -1.92006 0.291081 0
M  V30 7927 C 725.973 -3.34676 0.927879 0
M  V30 7928 C 724.927 -3.7835 2.00088 0
M  V30 7929 C 724.253 -5.11375 1.56203 0
M  V30 7930 C 725.553 -3.95256 3.41424 0
M  V30 7931 H 727.247 -2.07419 2.15911 0
M  V30 7932 H 724.793 -0.996569 1.03945 0
M  V30 7933 H 726.746 -4.12793 0.847327 0
M  V30 7934 H 725.47 -3.26565 -0.0475042 0
M  V30 7935 H 724.129 -3.02474 2.07135 0
M  V30 7936 H 723.777 -4.99709 0.57445 0
M  V30 7937 H 723.477 -5.41568 2.27985 0
M  V30 7938 H 725.001 -5.92001 1.49558 0
M  V30 7939 H 726.415 -4.63764 3.3704 0
M  V30 7940 H 724.812 -4.36849 4.1144 0
M  V30 7941 H 725.882 -2.98579 3.82072 0
M  V30 7942 N 727.225 -1.14528 -1.08264 0
M  V30 7943 C 728.636 -0.925261 -1.6216 0
M  V30 7944 C 728.987 0.535587 -1.88748 0
M  V30 7945 O 728.112 1.4048 -1.64604 0
M  V30 7946 C 728.707 -1.67316 -2.94603 0
M  V30 7947 C 727.266 -1.49868 -3.45278 0
M  V30 7948 C 726.413 -1.69471 -2.19487 0
M  V30 7949 H 729.364 -1.29687 -0.914707 0
M  V30 7950 H 729.385 -1.13721 -3.63109 0
M  V30 7951 H 728.897 -2.73635 -2.75219 0
M  V30 7952 H 726.998 -0.459032 -3.69762 0
M  V30 7953 H 727.111 -2.2696 -4.21931 0
M  V30 7954 H 725.475 -1.12048 -2.2873 0
M  V30 7955 H 726.258 -2.77136 -2.0261 0
M  V30 7956 N 728.703 1.26451 -0.940633 0
M  V30 7957 C 730.119 1.4608 -0.642859 0
M  V30 7958 C 730.319 1.84765 0.803998 0
M  V30 7959 O 729.375 1.96902 1.58069 0
M  V30 7960 C 730.688 2.54359 -1.60381 0
M  V30 7961 C 732.236 2.6821 -1.61345 0
M  V30 7962 C 732.711 3.79659 -2.56169 0
M  V30 7963 N 734.202 3.87051 -2.54452 0
M  V30 7964 C 734.937 4.72739 -3.24507 0
M  V30 7965 N 734.433 5.6282 -4.03987 0
M  V30 7966 N 736.226 4.66581 -3.13462 0
M  V30 7967 H 728.377 0.996289 -1.87584 0
M  V30 7968 H 730.64 0.498921 -0.80609 0
M  V30 7969 H 730.346 2.32758 -2.6366 0
M  V30 7970 H 730.22 3.52005 -1.35545 0
M  V30 7971 H 732.607 2.89184 -0.587913 0
M  V30 7972 H 732.688 1.7101 -1.90235 0
M  V30 7973 H 732.332 3.59438 -3.58841 0
M  V30 7974 H 732.262 4.76315 -2.2457 0
M  V30 7975 H 734.753 3.22649 -1.96739 0
M  V30 7976 H 735.066 6.25095 -4.54396 0
M  V30 7977 H 733.411 5.62574 -4.08088 0
M  V30 7978 H 736.602 3.9521 -2.50852 0
M  V30 7979 H 736.775 5.33141 -3.68327 0
M  V30 7980 O 730.22 0.846016 1.37567 0
M  V30 7981 H 730.911 0.436618 1.88715 0
M  V30 END ATOM
M  V30 BEGIN BOND
M  V30 END BOND
M  V30 END CTAB
M  END
$$$$
