drugbank_target|Q01344 Interleukin-5 receptor subunit alpha (DB12023)
 OpenBabel12092120333D

  0  0  0     0  0            999 V3000
M  V30 BEGIN CTAB
M  V30 COUNTS 6711 6796 0 0 0
M  V30 BEGIN ATOM
M  V30 1 H -0.908 1.98254 -0.117106 0
M  V30 2 N 0 1.576 0 0
M  V30 3 C 0.933 2.03868 1.02534 0
M  V30 4 C 1.911 0.928543 1.3348 0
M  V30 5 O 3.095 1.19667 1.45644 0
M  V30 6 C 0.222 2.43627 2.35294 0
M  V30 7 C -0.732 3.65373 2.2001 0
M  V30 8 S 0.101 5.13292 1.52614 0
M  V30 9 C 1.257 5.56322 2.86805 0
M  V30 10 H 1.49 2.90518 0.631377 0
M  V30 11 H -0.977 1.52953 0.210867 0
M  V30 12 H 0.981 2.67203 3.11629 0
M  V30 13 H -0.358 1.57376 2.7183 0
M  V30 14 H -1.165 3.90944 3.18086 0
M  V30 15 H -1.563 3.418 1.51819 0
M  V30 16 H 0.729 5.58782 3.83104 0
M  V30 17 H 1.672 6.56266 2.65933 0
M  V30 18 H 2.08 4.83886 2.90714 0
M  V30 19 N 1.4781 -0.272755 1.55222 0
M  V30 20 C 2.7271 -1.00211 1.75045 0
M  V30 21 C 3.0401 -1.87441 0.559046 0
M  V30 22 O 4.2461 -2.63856 0.639698 0
M  V30 23 C 2.7021 -1.83165 3.09804 0
M  V30 24 C 2.3101 -1.008 4.36513 0
M  V30 25 C 4.0541 -2.55529 3.38977 0
M  V30 26 C 1.9611 -1.83194 5.62311 0
M  V30 27 H 0.8911 -0.377878 0.652476 0
M  V30 28 H 3.5421 -0.257776 1.8168 0
M  V30 29 H 1.9241 -2.61694 2.97207 0
M  V30 30 H 3.0981 -0.266855 4.60027 0
M  V30 31 H 1.4131 -0.398897 4.14485 0
M  V30 32 H 4.0101 -3.17578 4.30172 0
M  V30 33 H 4.3531 -3.25825 2.59121 0
M  V30 34 H 4.8861 -1.84029 3.52673 0
M  V30 35 H 1.6251 -1.17318 6.44916 0
M  V30 36 H 1.1451 -2.54905 5.4294 0
M  V30 37 H 2.8241 -2.40552 6.00619 0
M  V30 38 N 2.9562 -1.48159 -0.537278 0
M  V30 39 C 4.2052 -1.5506 -1.28993 0
M  V30 40 C 4.5182 -0.226211 -1.94288 0
M  V30 41 O 5.7242 -0.173395 -2.70946 0
M  V30 42 C 4.1802 -2.73429 -2.34018 0
M  V30 43 C 3.7882 -4.1248 -1.74825 0
M  V30 44 C 5.5322 -2.89638 -3.10339 0
M  V30 45 C 3.4392 -5.22121 -2.77747 0
M  V30 46 H 2.3692 -0.577231 -0.485098 0
M  V30 47 H 5.0202 -1.74478 -0.568317 0
M  V30 48 H 3.4022 -2.47431 -3.09182 0
M  V30 49 H 4.5762 -4.48466 -1.05899 0
M  V30 50 H 2.8912 -4.01327 -1.11022 0
M  V30 51 H 5.4882 -3.68718 -3.87235 0
M  V30 52 H 5.8312 -1.9882 -3.65754 0
M  V30 53 H 6.3642 -3.15502 -2.42288 0
M  V30 54 H 3.1032 -6.1488 -2.27161 0
M  V30 55 H 2.6232 -4.90631 -3.45024 0
M  V30 56 H 4.3022 -5.49924 -3.4087 0
M  V30 57 N 4.4343 0.785586 -1.36625 0
M  V30 58 C 5.6803 1.54591 -1.31261 0
M  V30 59 C 6.0133 1.93906 0.106823 0
M  V30 60 O 5.2883 1.63007 1.06108 0
M  V30 61 C 5.5713 2.82038 -2.23889 0
M  V30 62 C 5.4243 2.49066 -3.74548 0
M  V30 63 C 6.7433 3.83887 -2.15217 0
M  V30 64 H 3.8623 0.560846 -0.478143 0
M  V30 65 H 6.5043 0.902278 -1.67209 0
M  V30 66 H 4.6543 3.36961 -1.93363 0
M  V30 67 H 6.3263 2.00164 -4.15611 0
M  V30 68 H 4.5693 1.81954 -3.93796 0
M  V30 69 H 5.2403 3.40109 -4.34776 0
M  V30 70 H 7.7163 3.38421 -2.42096 0
M  V30 71 H 6.5923 4.70806 -2.82193 0
M  V30 72 H 6.8533 4.27131 -1.14068 0
M  V30 73 N 5.9124 1.20967 1.01018 0
M  V30 74 C 6.8754 0.965918 2.07853 0
M  V30 75 C 7.8754 -0.0610545 1.60684 0
M  V30 76 O 9.0654 0.175681 1.73312 0
M  V30 77 C 6.1974 0.455513 3.37843 0
M  V30 78 H 7.3904 1.91365 2.3091 0
M  V30 79 H 4.9434 1.02594 1.17916 0
M  V30 80 H 5.6784 -0.497381 3.20463 0
M  V30 81 H 5.4634 1.19622 3.73407 0
M  V30 82 H 6.9534 0.304667 4.16487 0
M  V30 83 N 7.3905 -1.2043 1.01659 0
M  V30 84 C 8.3405 -2.21076 0.557623 0
M  V30 85 C 9.3245 -1.56176 -0.387029 0
M  V30 86 O 10.5165 -1.7575 -0.209996 0
M  V30 87 C 7.6455 -3.43146 -0.102707 0
M  V30 88 C 6.7315 -4.15213 0.863652 0
M  V30 89 N 7.1225 -4.63662 2.02117 0
M  V30 90 C 5.4205 -4.40716 0.684472 0
M  V30 91 C 6.1215 -5.18868 2.62966 0
M  V30 92 N 5.0975 -5.0893 1.91027 0
M  V30 93 H 8.8995 -2.56201 1.44008 0
M  V30 94 H 6.4135 -1.36366 0.881931 0
M  V30 95 H 8.4105 -4.14475 -0.449054 0
M  V30 96 H 7.0705 -3.09526 -0.981003 0
M  V30 97 H 8.0815 -4.58877 2.40109 0
M  V30 98 H 4.7585 -4.17245 -0.14577 0
M  V30 99 H 6.1485 -5.6673 3.60924 0
M  V30 100 N 8.8686 -0.792821 -1.36206 0
M  V30 101 C 10.1146 -0.36733 -1.99446 0
M  V30 102 C 10.4476 1.05917 -1.62774 0
M  V30 103 O 9.7226 1.7324 -0.88421 0
M  V30 104 C 10.0056 -0.535044 -3.56103 0
M  V30 105 C 9.8586 -2.00548 -4.02617 0
M  V30 106 C 11.1776 0.0478191 -4.40074 0
M  V30 107 H 8.2966 -0.134941 -0.724541 0
M  V30 108 H 10.9386 -0.999794 -1.61568 0
M  V30 109 H 9.0886 0.00336329 -3.885 0
M  V30 110 H 10.7606 -2.60521 -3.80692 0
M  V30 111 H 9.0036 -2.50686 -3.54032 0
M  V30 112 H 9.6746 -2.07377 -5.11565 0
M  V30 113 H 12.1506 -0.411822 -4.14057 0
M  V30 114 H 11.0266 -0.0995336 -5.4881 0
M  V30 115 H 11.2876 1.14025 -4.27142 0
M  V30 116 N 10.3467 1.47872 -0.545128 0
M  V30 117 C 11.2767 2.32661 0.197793 0
M  V30 118 C 12.2577 1.43041 0.920504 0
M  V30 119 O 13.4427 1.71912 0.90333 0
M  V30 120 C 10.5727 3.24569 1.23582 0
M  V30 121 C 9.5267 4.23333 0.630323 0
M  V30 122 C 8.8527 5.0448 1.77211 0
M  V30 123 C 10.1527 5.20704 -0.407974 0
M  V30 124 H 11.8467 2.95024 -0.510045 0
M  V30 125 H 9.3927 1.4187 -0.246731 0
M  V30 126 H 11.3457 3.8272 1.76362 0
M  V30 127 H 10.0697 2.60236 1.97344 0
M  V30 128 H 8.7287 3.6639 0.123922 0
M  V30 129 H 8.3767 4.36561 2.49847 0
M  V30 130 H 8.0767 5.71339 1.37281 0
M  V30 131 H 9.6007 5.65487 2.3034 0
M  V30 132 H 11.0147 5.7329 0.033305 0
M  V30 133 H 9.4117 5.95699 -0.725486 0
M  V30 134 H 10.4817 4.66917 -1.30828 0
M  V30 135 N 11.8248 0.280983 1.55075 0
M  V30 136 C 12.7548 -0.597469 2.25727 0
M  V30 137 C 13.7358 -1.15417 1.24952 0
M  V30 138 O 14.9208 -1.18722 1.53684 0
M  V30 139 C 12.0508 -1.7789 2.98283 0
M  V30 140 C 11.0048 -1.35347 4.06036 0
M  V30 141 C 10.3308 -2.61846 4.66198 0
M  V30 142 C 11.6308 -0.499354 5.19907 0
M  V30 143 H 13.3248 -0.00824265 2.99399 0
M  V30 144 H 10.8708 -0.0025244 1.44 0
M  V30 145 H 12.8238 -2.39937 3.46422 0
M  V30 146 H 11.5478 -2.39405 2.22155 0
M  V30 147 H 10.2068 -0.756156 3.58717 0
M  V30 148 H 9.8548 -3.21632 3.86732 0
M  V30 149 H 9.5548 -2.3409 5.38958 0
M  V30 150 H 11.0788 -3.24732 5.1709 0
M  V30 151 H 12.4928 -1.02498 5.64063 0
M  V30 152 H 10.8898 -0.316424 5.99265 0
M  V30 153 H 11.9598 0.480459 4.82514 0
M  V30 154 N 13.3029 -1.57598 0.00835791 0
M  V30 155 C 14.5519 -1.90107 -0.673968 0
M  V30 156 C 14.8649 -0.884275 -1.7447 0
M  V30 157 O 16.0709 -1.09987 -2.48224 0
M  V30 158 C 14.5269 -3.37497 -1.24995 0
M  V30 159 C 14.1349 -4.47491 -0.2136 0
M  V30 160 C 15.8789 -3.79104 -1.90999 0
M  V30 161 C 13.7859 -5.85963 -0.80005 0
M  V30 162 H 12.7159 -0.709393 -0.255495 0
M  V30 163 H 15.3669 -1.83365 0.0702693 0
M  V30 164 H 13.7489 -3.39102 -2.04513 0
M  V30 165 H 14.9229 -4.57414 0.557596 0
M  V30 166 H 13.2379 -4.14956 0.346474 0
M  V30 167 H 15.8349 -4.79901 -2.35795 0
M  V30 168 H 16.1779 -3.1306 -2.74407 0
M  V30 169 H 16.7109 -3.79833 -1.18203 0
M  V30 170 H 13.4499 -6.555 -0.00456708 0
M  V30 171 H 12.9699 -5.79687 -1.54021 0
M  V30 172 H 14.6489 -6.33884 -1.29615 0
M  V30 173 N 14.781 0.264519 -1.55364 0
M  V30 174 C 15.711 1.33121 -1.91836 0
M  V30 175 C 16.692 1.51101 -0.781192 0
M  V30 176 O 17.877 1.64003 -1.04003 0
M  V30 177 C 15.007 2.68921 -2.19769 0
M  V30 178 C 13.961 2.65661 -3.35571 0
M  V30 179 C 13.287 4.05093 -3.49004 0
M  V30 180 C 14.587 2.24187 -4.71739 0
M  V30 181 H 16.281 1.02844 -2.81182 0
M  V30 182 H 13.827 0.493286 -1.35287 0
M  V30 183 H 15.78 3.43663 -2.43872 0
M  V30 184 H 14.504 3.00799 -1.27231 0
M  V30 185 H 13.163 1.93377 -3.1145 0
M  V30 186 H 12.811 4.34206 -2.53917 0
M  V30 187 H 12.511 4.03804 -4.26868 0
M  V30 188 H 14.035 4.81561 -3.75408 0
M  V30 189 H 15.449 2.88654 -4.9533 0
M  V30 190 H 13.846 2.34044 -5.52579 0
M  V30 191 H 14.916 1.19327 -4.69988 0
M  V30 192 N 16.2591 1.48442 0.529413 0
M  V30 193 C 17.1891 1.65902 1.64313 0
M  V30 194 C 18.1701 0.507897 1.6234 0
M  V30 195 O 19.3551 0.740503 1.79528 0
M  V30 196 C 16.4851 1.69911 3.02898 0
M  V30 197 C 15.4391 2.8453 3.19729 0
M  V30 198 C 14.7651 2.73629 4.59381 0
M  V30 199 C 16.0651 4.25821 3.02447 0
M  V30 200 H 17.7591 2.5914 1.49955 0
M  V30 201 H 15.3051 1.24709 0.719982 0
M  V30 202 H 17.2581 1.80715 3.80684 0
M  V30 203 H 15.9821 0.732524 3.18279 0
M  V30 204 H 14.6411 2.73283 2.44361 0
M  V30 205 H 14.2891 1.74938 4.71599 0
M  V30 206 H 13.9891 3.50541 4.71588 0
M  V30 207 H 15.5131 2.86401 5.39265 0
M  V30 208 H 16.9271 4.37898 3.70024 0
M  V30 209 H 15.3241 5.03735 3.26146 0
M  V30 210 H 16.3941 4.42244 1.98867 0
M  V30 211 N 17.7372 -0.778329 1.37039 0
M  V30 212 C 18.9852 -1.53361 1.31623 0
M  V30 213 C 19.3062 -1.94739 -0.100831 0
M  V30 214 O 18.5762 -1.65797 -1.04347 0
M  V30 215 H 17.1562 -0.568794 0.484234 0
M  V30 216 H 19.8182 -0.926742 1.71457 0
M  V30 217 H 18.9142 -2.43606 1.95096 0
M  V30 218 N 19.2153 -1.21501 -1.00376 0
M  V30 219 C 20.1783 -0.976927 -2.07337 0
M  V30 220 C 21.1783 0.0525322 -1.60714 0
M  V30 221 O 22.3683 -0.184869 -1.73216 0
M  V30 222 C 19.5003 -0.473423 -3.37597 0
M  V30 223 H 20.6933 -1.92587 -2.29892 0
M  V30 224 H 18.2463 -1.03217 -1.17371 0
M  V30 225 H 18.9813 0.480379 -3.20722 0
M  V30 226 H 18.7663 -1.216 -3.72768 0
M  V30 227 H 20.2563 -0.32675 -4.1632 0
M  V30 228 N 20.6934 1.19889 -1.02296 0
M  V30 229 C 21.9214 1.9339 -0.735399 0
M  V30 230 C 22.3364 1.75148 0.704887 0
M  V30 231 O 21.6934 1.06954 1.47875 0
M  V30 232 C 21.7444 3.45313 -1.06962 0
M  V30 233 O 21.4654 3.62964 -2.45334 0
M  V30 234 C 22.9664 4.35948 -0.804021 0
M  V30 235 H 20.1864 0.61448 -0.269546 0
M  V30 236 H 22.7304 1.522 -1.36585 0
M  V30 237 H 20.8854 3.84359 -0.484455 0
M  V30 238 H 21.2994 4.56886 -2.57595 0
M  V30 239 H 22.7734 5.41174 -1.0879 0
M  V30 240 H 23.2504 4.3842 0.261691 0
M  V30 241 H 23.8564 4.02574 -1.37164 0
M  V30 242 N 22.1715 0.800033 1.35784 0
M  V30 243 C 23.0815 0.207204 2.33683 0
M  V30 244 C 24.0975 -0.64631 1.61551 0
M  V30 245 O 25.2735 -0.559604 1.93469 0
M  V30 246 C 22.3385 -0.639659 3.40748 0
M  V30 247 C 21.3995 0.233585 4.28664 0
M  V30 248 C 20.6325 -0.572954 5.30616 0
M  V30 249 O 20.8555 -1.80816 5.40982 0
M  V30 250 O 19.7895 0.0327285 6.01891 0
M  V30 251 H 23.6155 1.01692 2.86169 0
M  V30 252 H 21.2005 0.561691 1.38439 0
M  V30 253 H 23.0825 -1.12223 4.06182 0
M  V30 254 H 21.7575 -1.42708 2.90544 0
M  V30 255 H 20.6645 0.763147 3.66233 0
M  V30 256 H 21.9975 0.984784 4.82248 0
M  V30 257 N 23.6496 -1.47581 0.552962 0
M  V30 258 C 24.8986 -2.01684 0.0251995 0
M  V30 259 C 25.2116 -1.43317 -1.33115 0
M  V30 260 O 26.4176 -1.89057 -1.94858 0
M  V30 261 C 24.8736 -3.599 -0.00542052 0
M  V30 262 C 24.4816 -4.27257 1.34742 0
M  V30 263 C 26.2256 -4.21768 -0.4808 0
M  V30 264 C 24.1326 -5.77467 1.27614 0
M  V30 265 H 23.0626 -0.753979 0.00565033 0
M  V30 266 H 25.7136 -1.69616 0.70018 0
M  V30 267 H 24.0956 -3.88911 -0.745961 0
M  V30 268 H 25.2696 -4.09893 2.10534 0
M  V30 269 H 23.5846 -3.77358 1.76039 0
M  V30 270 H 26.1816 -5.31838 -0.55246 0
M  V30 271 H 26.5246 -3.88651 -1.49184 0
M  V30 272 H 27.0576 -3.97273 0.204752 0
M  V30 273 H 23.7966 -6.15196 2.26304 0
M  V30 274 H 23.3166 -5.9718 0.55996 0
M  V30 275 H 24.9956 -6.3959 0.976421 0
M  V30 276 N 25.1277 -0.289203 -1.54924 0
M  V30 277 C 26.0577 0.58549 -2.2604 0
M  V30 278 C 27.0387 1.14753 -1.25562 0
M  V30 279 O 28.2237 1.17906 -1.54311 0
M  V30 280 C 25.3537 1.76305 -2.99222 0
M  V30 281 C 24.3077 1.33191 -4.06748 0
M  V30 282 C 23.6337 2.5937 -4.6758 0
M  V30 283 C 24.9337 0.471775 -5.20165 0
M  V30 284 H 26.6277 -0.00763532 -2.99399 0
M  V30 285 H 24.1737 -0.00511229 -1.43999 0
M  V30 286 H 26.1267 2.38097 -3.47689 0
M  V30 287 H 24.8507 2.38223 -2.23422 0
M  V30 288 H 23.5097 0.737121 -3.59113 0
M  V30 289 H 23.1577 3.19576 -3.88433 0
M  V30 290 H 22.8577 2.31228 -5.40192 0
M  V30 291 H 24.3817 3.21985 -5.18804 0
M  V30 292 H 25.7957 0.995056 -5.64599 0
M  V30 293 H 24.1927 0.284639 -5.99425 0
M  V30 294 H 25.2627 -0.506041 -4.82252 0
M  V30 295 N 26.6058 1.57591 -0.0167156 0
M  V30 296 C 27.5378 2.06343 0.997753 0
M  V30 297 C 28.5508 0.984469 1.29661 0
M  V30 298 O 29.7398 1.26093 1.26344 0
M  V30 299 C 26.8398 2.46255 2.32834 0
M  V30 300 C 26.0128 3.77083 2.21646 0
M  V30 301 C 25.0718 4.0368 3.37534 0
M  V30 302 O 24.0978 4.7411 3.14973 0
M  V30 303 N 25.2998 3.52881 4.60929 0
M  V30 304 H 28.0648 2.93997 0.581875 0
M  V30 305 H 25.6258 1.61002 0.170316 0
M  V30 306 H 27.6178 2.61149 3.09166 0
M  V30 307 H 26.1878 1.64032 2.66106 0
M  V30 308 H 25.4078 3.72106 1.30119 0
M  V30 309 H 26.6958 4.62822 2.11361 0
M  V30 310 H 26.0938 2.95878 4.82154 0
M  V30 311 H 24.6508 3.73076 5.34469 0
M  V30 312 N 28.0839 -0.256276 1.55502 0
M  V30 313 C 29.0469 -1.30047 1.88734 0
M  V30 314 C 30.0469 -1.4154 0.763086 0
M  V30 315 O 31.2369 -1.40403 1.03115 0
M  V30 316 C 28.3689 -2.67953 2.10747 0
M  V30 317 H 29.5619 -1.01802 2.82093 0
M  V30 318 H 27.1149 -0.495134 1.4825 0
M  V30 319 H 27.8499 -3.01351 1.19825 0
M  V30 320 H 27.6349 -2.60993 2.92617 0
M  V30 321 H 29.1249 -3.43368 2.37673 0
M  V30 322 N 29.562 -1.4872 -0.521534 0
M  V30 323 C 30.839 -1.4766 -1.2828 0
M  V30 324 C 31.219 -0.19292 -2.10217 0
M  V30 325 O 30.567 0.825193 -2.13079 0
M  V30 326 C 30.777 -2.74358 -2.15705 0
M  V30 327 C 32.125 -3.23028 -2.75569 0
M  V30 328 O 33.149 -2.75333 -2.25987 0
M  V30 329 O 32.008 -4.0604 -3.65778 0
M  V30 330 H 29.102 -0.590085 -0.579421 0
M  V30 331 H 31.648 -1.60963 -0.537492 0
M  V30 332 H 30.42 -3.59292 -1.54999 0
M  V30 333 H 30.043 -2.63816 -2.97467 0
M  V30 334 N 31.0401 0.771051 -1.3745 0
M  V30 335 C 31.9701 1.89827 -1.3597 0
M  V30 336 C 32.9511 1.68562 -0.228216 0
M  V30 337 O 34.1361 1.8941 -0.428675 0
M  V30 338 C 31.2661 3.2712 -1.16662 0
M  V30 339 C 30.2201 3.6295 -2.2683 0
M  V30 340 C 29.5461 4.98791 -1.92644 0
M  V30 341 C 30.8461 3.69627 -3.69017 0
M  V30 342 H 32.5401 1.91323 -2.30295 0
M  V30 343 H 30.0861 0.919082 -1.10855 0
M  V30 344 H 32.0391 4.05615 -1.14256 0
M  V30 345 H 30.7631 3.26059 -0.187926 0
M  V30 346 H 29.4221 2.86763 -2.28392 0
M  V30 347 H 29.0701 4.94271 -0.933021 0
M  V30 348 H 28.7701 5.23733 -2.66416 0
M  V30 349 H 30.2941 5.79685 -1.91826 0
M  V30 350 H 31.7081 4.38273 -3.69581 0
M  V30 351 H 30.1051 4.06067 -4.41848 0
M  V30 352 H 31.1751 2.70273 -4.02592 0
M  V30 353 N 32.5182 1.22032 0.997298 0
M  V30 354 C 33.4482 1.01065 2.10495 0
M  V30 355 C 34.4292 -0.0669542 1.69968 0
M  V30 356 O 35.6142 0.0943987 1.9397 0
M  V30 357 C 32.7442 0.582874 3.42374 0
M  V30 358 C 31.6982 1.60592 3.96729 0
M  V30 359 C 31.0242 1.03412 5.24605 0
M  V30 360 C 32.3242 2.99478 4.27914 0
M  V30 361 H 34.0182 1.93708 2.28292 0
M  V30 362 H 31.5642 0.932761 1.09707 0
M  V30 363 H 33.5172 0.423332 4.19268 0
M  V30 364 H 32.2412 -0.379213 3.24391 0
M  V30 365 H 30.9002 1.75316 3.21963 0
M  V30 366 H 30.5482 0.063518 5.0296 0
M  V30 367 H 30.2482 1.71754 5.61938 0
M  V30 368 H 31.7722 0.886066 6.04137 0
M  V30 369 H 33.1862 2.88153 4.95622 0
M  V30 370 H 31.5832 3.64903 4.76409 0
M  V30 371 H 32.6532 3.49742 3.3587 0
M  V30 372 N 33.9963 -1.19345 1.0293 0
M  V30 373 C 35.4073 -1.70725 0.755633 0
M  V30 374 C 35.7583 -1.82326 -0.724676 0
M  V30 375 O 34.8833 -1.49471 -1.56484 0
M  V30 376 C 35.4783 -3.10084 1.36503 0
M  V30 377 C 34.0373 -3.58723 1.13994 0
M  V30 378 C 33.1843 -2.35577 1.46283 0
M  V30 379 H 36.1353 -1.0418 1.19718 0
M  V30 380 H 36.1563 -3.72787 0.762217 0
M  V30 381 H 35.6683 -3.01609 2.44241 0
M  V30 382 H 33.7693 -3.72512 0.0807901 0
M  V30 383 H 33.8823 -4.42816 1.82894 0
M  V30 384 H 32.2463 -2.38935 0.88217 0
M  V30 385 H 33.0293 -2.29731 2.55105 0
M  V30 386 N 35.4744 -0.807222 -1.35358 0
M  V30 387 C 36.7514 -0.311126 -1.9311 0
M  V30 388 C 37.1314 1.19937 -1.73719 0
M  V30 389 O 36.4794 1.99918 -1.10657 0
M  V30 390 C 36.6894 -0.723226 -3.41424 0
M  V30 391 C 38.0374 -0.713078 -4.18569 0
M  V30 392 O 39.0614 -0.664811 -3.49941 0
M  V30 393 O 37.9204 -0.772022 -5.41019 0
M  V30 394 H 35.0144 -0.081526 -0.822972 0
M  V30 395 H 37.5604 -0.890962 -1.4443 0
M  V30 396 H 36.3324 -1.76426 -3.4927 0
M  V30 397 H 35.9554 -0.118232 -3.97424 0
M  V30 398 N 36.9525 1.47285 -0.560781 0
M  V30 399 C 37.8625 2.33846 0.187954 0
M  V30 400 C 38.8785 1.48412 0.908293 0
M  V30 401 O 40.0545 1.81332 0.876388 0
M  V30 402 C 37.1195 3.25178 1.2025 0
M  V30 403 C 36.1805 4.26504 0.489208 0
M  V30 404 C 35.4135 5.13472 1.45542 0
M  V30 405 O 35.6365 5.02959 2.6905 0
M  V30 406 O 34.5705 5.93902 0.977963 0
M  V30 407 H 38.3965 2.99177 -0.522177 0
M  V30 408 H 35.9815 1.45903 -0.321364 0
M  V30 409 H 37.8635 3.81584 1.78805 0
M  V30 410 H 36.5385 2.6247 1.89449 0
M  V30 411 H 35.4455 3.73847 -0.137627 0
M  V30 412 H 36.7785 4.91935 -0.161399 0
M  V30 413 N 38.4306 0.297415 1.54768 0
M  V30 414 C 39.3776 -0.580276 2.23386 0
M  V30 415 C 40.3476 -1.13238 1.21517 0
M  V30 416 O 41.5326 -1.17757 1.50126 0
M  V30 417 C 38.6726 -1.74801 2.97555 0
M  V30 418 C 37.7856 -1.22764 4.1419 0
M  V30 419 C 36.9206 -2.35895 4.75949 0
M  V30 420 C 35.9596 -1.80974 5.84735 0
M  V30 421 N 35.0966 -2.87664 6.40464 0
M  V30 422 H 39.9366 0.0114833 2.97998 0
M  V30 423 H 37.4736 0.0174361 1.4709 0
M  V30 424 H 39.4316 -2.43475 3.38786 0
M  V30 425 H 38.0616 -2.31145 2.25326 0
M  V30 426 H 37.1136 -0.433271 3.77924 0
M  V30 427 H 38.4256 -0.785551 4.92575 0
M  V30 428 H 37.5796 -3.12523 5.20014 0
M  V30 429 H 36.3186 -2.83429 3.96887 0
M  V30 430 H 35.3236 -1.02834 5.40097 0
M  V30 431 H 36.5486 -1.34348 6.65678 0
M  V30 432 H 34.4946 -3.34538 5.64287 0
M  V30 433 H 34.4116 -2.4794 7.14186 0
M  V30 434 H 35.6796 -3.642 6.89187 0
M  V30 435 N 39.9087 -1.5758 0.0250728 0
M  V30 436 C 41.1577 -1.90811 -0.653767 0
M  V30 437 C 41.4707 -0.90273 -1.73523 0
M  V30 438 O 42.6767 -1.12614 -2.47043 0
M  V30 439 C 41.1327 -3.38804 -1.21409 0
M  V30 440 C 40.7407 -4.47692 -0.166126 0
M  V30 441 C 42.4847 -3.81108 -1.86967 0
M  V30 442 C 40.3917 -5.86779 -0.737856 0
M  V30 443 H 39.3217 -0.712063 -0.247956 0
M  V30 444 H 41.9727 -1.83281 0.0897137 0
M  V30 445 H 40.3547 -3.41252 -2.00905 0
M  V30 446 H 41.5287 -4.56797 0.606079 0
M  V30 447 H 39.8437 -4.14565 0.390466 0
M  V30 448 H 42.4407 -4.82375 -2.30692 0
M  V30 449 H 42.7837 -3.15953 -2.71071 0
M  V30 450 H 43.3167 -3.81065 -1.14167 0
M  V30 451 H 40.0557 -6.55468 0.0649577 0
M  V30 452 H 39.5757 -5.81288 -1.47864 0
M  V30 453 H 41.2547 -6.35223 -1.22884 0
M  V30 454 N 41.3868 0.248026 -1.55636 0
M  V30 455 C 42.6118 0.998028 -1.81808 0
M  V30 456 C 43.0368 1.78207 -0.601979 0
M  V30 457 O 42.3948 1.75653 0.448961 0
M  V30 458 C 42.4428 1.9125 -3.05705 0
M  V30 459 O 41.5468 3.00406 -2.82542 0
M  V30 460 H 40.8878 0.284045 -0.600179 0
M  V30 461 H 43.4178 0.269357 -2.02819 0
M  V30 462 H 43.4278 2.32737 -3.35108 0
M  V30 463 H 42.1028 1.33602 -3.93857 0
M  V30 464 H 40.6798 2.63056 -2.64303 0
M  V30 465 N 42.8649 1.48995 0.513639 0
M  V30 466 C 43.7949 1.67636 1.62544 0
M  V30 467 C 44.7759 0.525087 1.61793 0
M  V30 468 O 45.9609 0.759502 1.78732 0
M  V30 469 C 43.0909 1.73114 3.01079 0
M  V30 470 C 42.0449 2.87905 3.16693 0
M  V30 471 C 41.3709 2.78486 4.56453 0
M  V30 472 C 42.6709 4.29005 2.97913 0
M  V30 473 H 44.3649 2.60716 1.47198 0
M  V30 474 H 41.9109 1.25465 0.706714 0
M  V30 475 H 43.8639 1.84742 3.78746 0
M  V30 476 H 42.5879 0.766241 3.17484 0
M  V30 477 H 41.2469 2.75859 2.41448 0
M  V30 478 H 40.8949 1.7993 4.69717 0
M  V30 479 H 40.5949 3.55523 4.67843 0
M  V30 480 H 42.1189 2.92104 5.36197 0
M  V30 481 H 43.5329 4.41798 3.65359 0
M  V30 482 H 41.9299 5.07166 3.20785 0
M  V30 483 H 42.9999 4.44329 1.94165 0
M  V30 484 N 44.343 -0.763751 1.37857 0
M  V30 485 C 45.273 -1.89103 1.36975 0
M  V30 486 C 46.254 -1.68439 0.237152 0
M  V30 487 O 47.439 -1.8918 0.438713 0
M  V30 488 C 44.569 -3.26496 1.18395 0
M  V30 489 C 43.523 -3.61741 2.28751 0
M  V30 490 C 42.849 -4.97762 1.95286 0
M  V30 491 C 44.149 -3.67665 3.70972 0
M  V30 492 H 45.843 -1.90099 2.31307 0
M  V30 493 H 43.389 -0.91319 1.11341 0
M  V30 494 H 45.342 -4.05003 1.16406 0
M  V30 495 H 44.066 -3.25955 0.205215 0
M  V30 496 H 42.725 -2.85547 2.29909 0
M  V30 497 H 42.373 -4.93769 0.959221 0
M  V30 498 H 42.073 -5.22313 2.69189 0
M  V30 499 H 43.597 -5.7866 1.94898 0
M  V30 500 H 45.011 -4.36307 3.719 0
M  V30 501 H 43.408 -4.03718 4.43995 0
M  V30 502 H 44.478 -2.68134 4.0402 0
M  V30 503 N 45.8211 -1.22559 -0.990812 0
M  V30 504 C 47.2321 -1.04791 -1.54518 0
M  V30 505 C 47.5831 0.387998 -1.92325 0
M  V30 506 O 46.7081 1.27328 -1.74976 0
M  V30 507 C 47.3031 -1.896 -2.80779 0
M  V30 508 C 45.8621 -1.76124 -3.32652 0
M  V30 509 C 45.0091 -1.8594 -2.05722 0
M  V30 510 H 47.9601 -1.36374 -0.811662 0
M  V30 511 H 47.9811 -1.41464 -3.53225 0
M  V30 512 H 47.4931 -2.94101 -2.53231 0
M  V30 513 H 45.5941 -0.743643 -3.65104 0
M  V30 514 H 45.7071 -2.58913 -4.03114 0
M  V30 515 H 44.0711 -1.29403 -2.19379 0
M  V30 516 H 44.8541 -2.91976 -1.80568 0
M  V30 517 N 47.2992 1.18797 -1.03562 0
M  V30 518 C 48.7102 1.70322 -0.764676 0
M  V30 519 C 49.0612 1.82708 0.714996 0
M  V30 520 O 48.1862 1.50299 1.55689 0
M  V30 521 C 48.7812 3.09356 -1.38145 0
M  V30 522 C 47.3402 3.58114 -1.15895 0
M  V30 523 C 46.4872 2.34798 -1.4753 0
M  V30 524 H 49.4382 1.03543 -1.20268 0
M  V30 525 H 49.4592 3.72378 -0.781977 0
M  V30 526 H 48.9712 3.00309 -2.45837 0
M  V30 527 H 47.0722 3.72464 -0.100544 0
M  V30 528 H 47.1852 4.4184 -1.8524 0
M  V30 529 H 45.5492 2.38464 -0.894829 0
M  V30 530 H 46.3322 2.28375 -2.56319 0
M  V30 531 N 48.7773 0.814389 1.34928 0
M  V30 532 C 50.0233 0.399013 1.98836 0
M  V30 533 C 50.3563 -1.03314 1.64438 0
M  V30 534 O 49.6313 -1.71811 0.911659 0
M  V30 535 C 49.9143 0.591629 3.55207 0
M  V30 536 C 49.7673 2.06928 3.99376 0
M  V30 537 C 51.0863 0.022199 4.40094 0
M  V30 538 H 48.2053 0.146451 0.722303 0
M  V30 539 H 50.8473 1.02537 1.59957 0
M  V30 540 H 48.9973 0.0584441 3.88456 0
M  V30 541 H 50.6693 2.66544 3.76499 0
M  V30 542 H 48.9123 2.56287 3.49999 0
M  V30 543 H 49.5833 2.1549 5.08201 0
M  V30 544 H 52.0593 0.477643 4.13349 0
M  V30 545 H 50.9353 0.186832 5.48582 0
M  V30 546 H 51.1963 -1.07215 4.28902 0
M  V30 547 N 50.2554 -1.46986 0.568584 0
M  V30 548 C 51.2034 -2.31858 -0.185649 0
M  V30 549 C 52.1974 -1.43624 -0.898249 0
M  V30 550 O 53.4034 -1.60327 -0.818242 0
M  V30 551 H 49.7784 -0.747866 -0.0787399 0
M  V30 552 H 51.7494 -2.93303 0.549191 0
M  V30 553 C 50.4984 -3.26513 -1.19519 0
M  V30 554 H 49.8214 -3.94377 -0.656285 0
M  V30 555 H 51.2614 -3.88707 -1.6936 0
M  V30 556 C 49.7204 -2.50847 -2.24894 0
M  V30 557 O 50.2504 -2.26119 -3.32014 0
M  V30 558 N 48.4564 -2.11656 -1.99124 0
M  V30 559 H 48.0034 -2.31966 -1.12024 0
M  V30 560 H 47.9614 -1.61347 -2.69842 0
M  V30 561 N 51.7335 -0.305618 -1.54608 0
M  V30 562 C 52.9805 0.302298 -2.00231 0
M  V30 563 C 53.3085 1.5354 -1.19398 0
M  V30 564 O 52.5635 1.93973 -0.259423 0
M  V30 565 C 52.8625 0.698983 -3.50498 0
M  V30 566 C 52.5285 -0.432903 -4.48817 0
M  V30 567 C 51.1905 -0.743622 -4.75419 0
M  V30 568 C 53.5425 -1.19409 -5.07337 0
M  V30 569 C 50.8705 -1.81857 -5.57804 0
M  V30 570 C 53.2225 -2.25899 -5.90891 0
M  V30 571 C 51.8865 -2.57572 -6.15803 0
M  V30 572 H 51.1565 0.110619 -0.732697 0
M  V30 573 H 53.8035 -0.425674 -1.86709 0
M  V30 574 H 52.1085 1.50711 -3.61654 0
M  V30 575 H 53.8055 1.1806 -3.83227 0
M  V30 576 H 50.3955 -0.18063 -4.28219 0
M  V30 577 H 54.5795 -0.967295 -4.86782 0
M  V30 578 H 49.8355 -2.06864 -5.75341 0
M  V30 579 H 54.0095 -2.85335 -6.35261 0
M  V30 580 H 51.6365 -3.40998 -6.7943 0
M  V30 581 N 53.2116 1.57565 -0.0334293 0
M  V30 582 C 54.4396 1.9628 0.654347 0
M  V30 583 C 54.8546 0.910138 1.65414 0
M  V30 584 O 54.2116 -0.107595 1.82183 0
M  V30 585 C 54.2626 3.35067 1.35693 0
M  V30 586 O 53.9836 4.36296 0.397191 0
M  V30 587 C 55.4846 3.88439 2.13613 0
M  V30 588 H 52.7046 0.646369 0.180132 0
M  V30 589 H 55.2486 2.04282 -0.0944721 0
M  V30 590 H 53.4036 3.2827 2.05712 0
M  V30 591 H 53.8176 5.1678 0.896597 0
M  V30 592 H 55.2916 4.8788 2.58219 0
M  V30 593 H 55.7686 3.22914 2.97696 0
M  V30 594 H 56.3746 3.98516 1.48543 0
M  V30 595 N 54.6897 -0.239769 1.55765 0
M  V30 596 C 55.9387 -0.964754 1.77131 0
M  V30 597 C 56.2517 -1.86213 0.59868 0
M  V30 598 O 57.4577 -2.6244 0.695522 0
M  V30 599 C 55.9137 -1.76552 3.1362 0
M  V30 600 C 55.5217 -0.915185 4.38553 0
M  V30 601 C 57.2657 -2.48281 3.44321 0
M  V30 602 C 55.1727 -1.71225 5.66071 0
M  V30 603 H 54.1027 -0.363953 0.660344 0
M  V30 604 H 56.7537 -0.219181 1.82186 0
M  V30 605 H 55.1357 -2.55331 3.02691 0
M  V30 606 H 56.3097 -0.169217 4.60489 0
M  V30 607 H 54.6247 -0.310889 4.15238 0
M  V30 608 H 57.2217 -3.08382 4.36812 0
M  V30 609 H 57.5647 -3.20256 2.65973 0
M  V30 610 H 58.0977 -1.76507 3.56497 0
M  V30 611 H 54.8367 -1.03612 6.4726 0
M  V30 612 H 54.3567 -2.43331 5.48224 0
M  V30 613 H 56.0357 -2.27758 6.05587 0
M  V30 614 N 56.1678 -1.49265 -0.50573 0
M  V30 615 C 57.1148 -1.65585 -1.6078 0
M  V30 616 C 58.0848 -0.497396 -1.58478 0
M  V30 617 O 59.2698 -0.72385 -1.76536 0
M  V30 618 C 56.4098 -1.72408 -2.98948 0
M  V30 619 C 55.5228 -2.99525 -3.11301 0
M  V30 620 C 54.6578 -2.97356 -4.40174 0
M  V30 621 C 53.6968 -4.19074 -4.46143 0
M  V30 622 N 52.8338 -4.14841 -5.66437 0
M  V30 623 H 57.6738 -2.59688 -1.46172 0
M  V30 624 H 55.2108 -1.28761 -0.711261 0
M  V30 625 H 57.1688 -1.74344 -3.79025 0
M  V30 626 H 55.7988 -0.817753 -3.1227 0
M  V30 627 H 54.8508 -3.07222 -2.24318 0
M  V30 628 H 56.1628 -3.89518 -3.11572 0
M  V30 629 H 55.3168 -2.97829 -5.28567 0
M  V30 630 H 54.0558 -2.05133 -4.42461 0
M  V30 631 H 53.0608 -4.1885 -3.56153 0
M  V30 632 H 54.2858 -5.12483 -4.45575 0
M  V30 633 H 52.2318 -3.25453 -5.69575 0
M  V30 634 H 52.1488 -4.98564 -5.68304 0
M  V30 635 H 53.4168 -4.1941 -6.57051 0
M  V30 636 N 57.6459 0.756429 -1.3826 0
M  V30 637 C 58.8919 1.51772 -1.34511 0
M  V30 638 C 59.2249 1.94089 0.0656691 0
M  V30 639 O 58.4999 1.65221 1.02626 0
M  V30 640 C 58.7829 2.77226 -2.29821 0
M  V30 641 C 58.6359 2.41065 -3.79747 0
M  V30 642 C 59.9549 3.79236 -2.23312 0
M  V30 643 H 57.0739 0.550578 -0.489931 0
M  V30 644 H 59.7159 0.866607 -1.69086 0
M  V30 645 H 57.8659 3.32784 -2.00467 0
M  V30 646 H 59.5379 1.91303 -4.19763 0
M  V30 647 H 57.7809 1.7356 -3.97567 0
M  V30 648 H 58.4519 3.3081 -4.41892 0
M  V30 649 H 60.9279 3.3321 -2.49219 0
M  V30 650 H 59.8039 4.64714 -2.92116 0
M  V30 651 H 60.0649 4.24615 -1.23102 0
M  V30 652 N 59.124 1.23083 0.984299 0
M  V30 653 C 60.352 1.08714 1.76037 0
M  V30 654 C 60.767 -0.361691 1.85303 0
M  V30 655 O 60.124 -1.25034 1.32939 0
M  V30 656 C 60.175 1.70206 3.18923 0
M  V30 657 O 59.896 3.09423 3.10144 0
M  V30 658 C 61.397 1.61227 4.12941 0
M  V30 659 H 58.617 0.380664 0.552572 0
M  V30 660 H 61.161 1.62853 1.23689 0
M  V30 661 H 59.316 1.20109 3.6831 0
M  V30 662 H 59.73 3.39188 4.00065 0
M  V30 663 H 61.204 2.08962 5.10919 0
M  V30 664 H 61.681 0.570375 4.35481 0
M  V30 665 H 62.287 2.10671 3.69456 0
M  V30 666 N 60.6021 -1.18246 1.0419 0
M  V30 667 C 61.8501 -1.87886 0.744543 0
M  V30 668 C 62.1711 -1.8082 -0.730006 0
M  V30 669 O 61.4411 -1.22736 -1.52685 0
M  V30 670 H 60.0211 -0.695556 0.272417 0
M  V30 671 H 62.6831 -1.43494 1.31892 0
M  V30 672 H 61.7791 -2.9389 1.05049 0
M  V30 673 N 62.0802 -0.821533 -1.34494 0
M  V30 674 C 63.0102 -0.257138 -2.3208 0
M  V30 675 C 63.9912 0.625645 -1.58176 0
M  V30 676 O 65.1762 0.552811 -1.86166 0
M  V30 677 C 62.3062 0.582958 -3.42372 0
M  V30 678 C 61.2602 -0.202571 -4.2752 0
M  V30 679 C 60.5862 0.760179 -5.29269 0
M  V30 680 C 61.8862 -1.40998 -5.02908 0
M  V30 681 H 63.5802 -1.07247 -2.79532 0
M  V30 682 H 61.1262 -0.517163 -1.34393 0
M  V30 683 H 63.0792 0.987972 -4.09655 0
M  V30 684 H 61.8032 1.43133 -2.93565 0
M  V30 685 H 60.4622 -0.588936 -3.61838 0
M  V30 686 H 60.1102 1.60447 -4.76724 0
M  V30 687 H 59.8102 0.238809 -5.87115 0
M  V30 688 H 61.3342 1.16308 -5.9942 0
M  V30 689 H 62.7482 -1.07905 -5.63054 0
M  V30 690 H 61.1452 -1.86689 -5.70322 0
M  V30 691 H 62.2152 -2.1889 -4.32684 0
M  V30 692 N 63.5583 1.46682 -0.576371 0
M  V30 693 C 64.5213 2.28707 0.150239 0
M  V30 694 C 65.5213 1.38035 0.824794 0
M  V30 695 O 66.7113 1.60476 0.677719 0
M  V30 696 C 63.8433 3.18248 1.22192 0
M  V30 697 H 65.0363 2.94423 -0.570521 0
M  V30 698 H 62.5893 1.52688 -0.334078 0
M  V30 699 H 63.3243 2.57265 1.97447 0
M  V30 700 H 63.1093 3.85 0.742812 0
M  V30 701 H 64.5993 3.80001 1.73172 0
M  V30 702 N 65.0364 0.313813 1.54444 0
M  V30 703 C 65.9684 -0.590425 2.21465 0
M  V30 704 C 66.9814 -1.08753 1.21147 0
M  V30 705 O 68.1704 -1.00278 1.4767 0
M  V30 706 C 65.2704 -1.82179 2.85769 0
M  V30 707 C 64.4434 -1.46502 4.12136 0
M  V30 708 C 63.5024 -2.55288 4.60124 0
M  V30 709 O 62.5284 -2.19842 5.25032 0
M  V30 710 N 63.7304 -3.86053 4.33525 0
M  V30 711 H 66.4954 -0.0166033 2.99695 0
M  V30 712 H 64.0564 0.136578 1.61323 0
M  V30 713 H 66.0484 -2.54328 3.14801 0
M  V30 714 H 64.6184 -2.30369 2.11303 0
M  V30 715 H 63.8384 -0.575595 3.89975 0
M  V30 716 H 65.1264 -1.20221 4.94393 0
M  V30 717 H 64.5244 -4.17654 3.81552 0
M  V30 718 H 63.0814 -4.54461 4.67235 0
M  V30 719 N 66.5145 -1.57545 0.0417849 0
M  V30 720 C 67.7605 -1.92601 -0.635021 0
M  V30 721 C 68.0935 -0.919627 -1.71045 0
M  V30 722 O 67.3685 0.0557892 -1.9442 0
M  V30 723 C 67.6515 -3.38085 -1.23979 0
M  V30 724 C 67.5045 -4.49467 -0.173057 0
M  V30 725 C 68.8235 -3.83776 -2.15416 0
M  V30 726 H 65.9425 -0.700397 -0.229374 0
M  V30 727 H 68.5845 -1.89728 0.101633 0
M  V30 728 H 66.7345 -3.40664 -1.86762 0
M  V30 729 H 68.4065 -4.59018 0.458312 0
M  V30 730 H 66.6495 -4.30909 0.499996 0
M  V30 731 H 67.3205 -5.48323 -0.636054 0
M  V30 732 H 69.7965 -3.83013 -1.62605 0
M  V30 733 H 68.6725 -4.8624 -2.54679 0
M  V30 734 H 68.9335 -3.19998 -3.05047 0
M  V30 735 N 67.9926 0.231505 -1.5589 0
M  V30 736 C 68.9226 1.29022 -1.94617 0
M  V30 737 C 69.9036 1.4941 -0.813067 0
M  V30 738 O 71.0886 1.6176 -1.07459 0
M  V30 739 C 68.2186 2.64199 -2.25424 0
M  V30 740 C 67.1726 2.58484 -3.41131 0
M  V30 741 C 66.4986 3.97599 -3.57518 0
M  V30 742 C 67.7986 2.1413 -4.76388 0
M  V30 743 H 69.4926 0.968563 -2.83301 0
M  V30 744 H 67.0386 0.464479 -1.36303 0
M  V30 745 H 68.9916 3.38413 -2.51107 0
M  V30 746 H 67.7156 2.98032 -1.33583 0
M  V30 747 H 66.3746 1.86727 -3.15481 0
M  V30 748 H 66.0226 4.28723 -2.6307 0
M  V30 749 H 65.7226 3.94659 -4.35337 0
M  V30 750 H 67.2466 4.7349 -3.85538 0
M  V30 751 H 68.6606 2.78083 -5.01341 0
M  V30 752 H 67.0576 2.2227 -5.57419 0
M  V30 753 H 68.1276 1.09331 -4.72414 0
M  V30 754 N 69.4707 1.49531 0.497807 0
M  V30 755 C 70.4007 1.6935 1.60757 0
M  V30 756 C 71.3817 0.542218 1.61227 0
M  V30 757 O 72.5667 0.778417 1.77917 0
M  V30 758 C 69.6967 1.76298 2.99226 0
M  V30 759 C 68.6507 2.91248 3.13622 0
M  V30 760 C 67.9767 2.83312 4.53474 0
M  V30 761 C 69.2767 4.3214 2.93346 0
M  V30 762 H 70.9707 2.62263 1.44425 0
M  V30 763 H 68.5167 1.26208 0.693367 0
M  V30 764 H 70.4697 1.88749 3.76765 0
M  V30 765 H 69.1937 0.799871 3.16654 0
M  V30 766 H 67.8527 2.78404 2.38509 0
M  V30 767 H 67.5007 1.84902 4.67782 0
M  V30 768 H 67.2007 3.60465 4.64046 0
M  V30 769 H 68.7247 2.97775 5.33069 0
M  V30 770 H 70.1387 4.45649 3.60652 0
M  V30 771 H 68.5357 5.1054 3.15387 0
M  V30 772 H 69.6057 4.46363 1.89441 0
M  V30 773 N 70.9488 -0.749086 1.3866 0
M  V30 774 C 71.8808 -1.87273 1.32142 0
M  V30 775 C 72.8938 -1.61127 0.232787 0
M  V30 776 O 74.0828 -1.71623 0.49069 0
M  V30 777 C 71.1828 -3.23005 1.02571 0
M  V30 778 C 70.3558 -3.7662 2.22433 0
M  V30 779 C 69.4148 -4.90879 1.89537 0
M  V30 780 O 68.4408 -5.05276 2.62078 0
M  V30 781 N 69.6428 -5.74198 0.853031 0
M  V30 782 H 72.4078 -1.93373 2.28969 0
M  V30 783 H 69.9688 -0.929216 1.32579 0
M  V30 784 H 71.9608 -3.96992 0.786085 0
M  V30 785 H 70.5308 -3.12262 0.145249 0
M  V30 786 H 69.7508 -2.94147 2.62434 0
M  V30 787 H 71.0388 -4.09173 3.02415 0
M  V30 788 H 70.4368 -5.6514 0.25155 0
M  V30 789 H 68.9938 -6.48313 0.67329 0
M  V30 790 N 72.4269 -1.23603 -0.977757 0
M  V30 791 C 73.6729 -1.08136 -1.72274 0
M  V30 792 C 74.0279 0.377453 -1.88661 0
M  V30 793 O 73.3209 1.27552 -1.42972 0
M  V30 794 C 73.5149 -1.7433 -3.11999 0
M  V30 795 C 73.3439 -3.26498 -3.0924 0
M  V30 796 C 72.1139 -3.9567 -3.14282 0
M  V30 797 C 74.3119 -4.2323 -2.92201 0
M  V30 798 N 72.2939 -5.34799 -3.01436 0
M  V30 799 C 73.6649 -5.49289 -2.87544 0
M  V30 800 C 75.7199 -4.13931 -2.76705 0
M  V30 801 C 74.4229 -6.67116 -2.68978 0
M  V30 802 C 76.4489 -5.31424 -2.59504 0
M  V30 803 C 75.8109 -6.5641 -2.55548 0
M  V30 804 H 71.9099 -0.450247 -0.639376 0
M  V30 805 H 74.4939 -1.5637 -1.16002 0
M  V30 806 H 72.6649 -1.28624 -3.66484 0
M  V30 807 H 74.3969 -1.51815 -3.75146 0
M  V30 808 H 71.1519 -3.46767 -3.22567 0
M  V30 809 H 71.5759 -6.07748 -2.98281 0
M  V30 810 H 76.2179 -3.1807 -2.78552 0
M  V30 811 H 73.9359 -7.63109 -2.65876 0
M  V30 812 H 77.5219 -5.26072 -2.48474 0
M  V30 813 H 76.4019 -7.45795 -2.42405 0
M  V30 814 N 73.905 1.17692 -1.04816 0
M  V30 815 C 74.852 2.21581 -0.645797 0
M  V30 816 C 75.822 1.62367 0.350159 0
M  V30 817 O 77.007 1.89254 0.242433 0
M  V30 818 C 74.147 3.45092 -0.0227568 0
M  V30 819 C 73.26 4.18613 -1.06709 0
M  V30 820 C 72.395 5.29602 -0.411767 0
M  V30 821 C 71.434 5.94904 -1.44067 0
M  V30 822 N 70.571 6.97414 -0.809781 0
M  V30 823 H 75.411 2.55353 -1.5362 0
M  V30 824 H 72.948 1.25438 -0.768364 0
M  V30 825 H 74.906 4.15679 0.35588 0
M  V30 826 H 73.536 3.11917 0.831122 0
M  V30 827 H 72.588 3.46779 -1.5636 0
M  V30 828 H 73.9 4.63293 -1.84827 0
M  V30 829 H 73.054 6.06696 0.0206623 0
M  V30 830 H 71.793 4.86045 0.401438 0
M  V30 831 H 70.798 5.16544 -1.88316 0
M  V30 832 H 72.023 6.40542 -2.25571 0
M  V30 833 H 69.969 6.55998 -0.0170186 0
M  V30 834 H 69.886 7.40386 -1.52856 0
M  V30 835 H 71.154 7.78463 -0.401999 0
M  V30 836 N 75.3831 0.828654 1.34056 0
M  V30 837 C 76.7941 0.477534 1.8049 0
M  V30 838 C 77.1451 -1.00258 1.6865 0
M  V30 839 O 76.2701 -1.78057 1.22982 0
M  V30 840 C 76.8651 0.860018 3.27703 0
M  V30 841 C 75.4241 0.561185 3.72193 0
M  V30 842 C 74.5711 1.07385 2.55663 0
M  V30 843 H 77.5221 1.0183 1.21722 0
M  V30 844 H 77.5431 0.166038 3.80138 0
M  V30 845 H 77.0551 1.93731 3.36288 0
M  V30 846 H 75.1561 -0.506465 3.69142 0
M  V30 847 H 75.2691 1.10926 4.66082 0
M  V30 848 H 73.6331 0.495149 2.49841 0
M  V30 849 H 74.4161 2.15771 2.67016 0
M  V30 850 N 76.8612 -1.46375 0.584142 0
M  V30 851 C 77.8092 -2.32042 -0.161047 0
M  V30 852 C 78.8032 -1.44569 -0.882966 0
M  V30 853 O 80.0092 -1.61186 -0.801191 0
M  V30 854 H 76.3842 -0.748659 -0.0708033 0
M  V30 855 H 78.3552 -2.92704 0.580269 0
M  V30 856 C 77.1042 -3.27762 -1.1605 0
M  V30 857 H 76.4272 -3.95051 -0.614419 0
M  V30 858 H 77.8672 -3.90481 -1.65228 0
M  V30 859 C 76.3262 -2.53218 -2.22221 0
M  V30 860 O 76.8562 -2.29628 -3.29597 0
M  V30 861 N 75.0622 -2.13756 -1.96868 0
M  V30 862 H 74.6092 -2.33142 -1.09557 0
M  V30 863 H 74.5672 -1.642 -2.68115 0
M  V30 864 N 78.3393 -0.321999 -1.54275 0
M  V30 865 C 79.7503 0.166384 -1.85957 0
M  V30 866 C 80.1013 1.51747 -1.24367 0
M  V30 867 O 79.2263 2.09317 -0.549124 0
M  V30 868 C 79.8213 0.308681 -3.37391 0
M  V30 869 C 78.3803 0.741286 -3.69028 0
M  V30 870 C 77.5273 -0.137937 -2.76957 0
M  V30 871 H 80.4783 -0.542335 -1.49146 0
M  V30 872 H 80.4993 1.13984 -3.63026 0
M  V30 873 H 80.0113 -0.674809 -3.82188 0
M  V30 874 H 78.1123 1.73458 -3.29762 0
M  V30 875 H 78.2253 0.546118 -4.75977 0
M  V30 876 H 76.5893 0.386251 -2.51754 0
M  V30 877 H 77.3723 -1.11816 -3.2458 0
M  V30 878 N 79.8174 1.5752 -0.0501392 0
M  V30 879 C 81.0944 1.83996 0.663685 0
M  V30 880 C 81.4744 0.938339 1.89099 0
M  V30 881 O 80.8224 -0.00087759 2.285 0
M  V30 882 C 81.0324 3.33702 1.02196 0
M  V30 883 C 82.3804 4.00691 1.40469 0
M  V30 884 O 83.4044 3.38321 1.11433 0
M  V30 885 O 82.2634 5.10658 1.94654 0
M  V30 886 H 79.3574 0.759385 0.32751 0
M  V30 887 H 81.9034 1.69514 -0.0794238 0
M  V30 888 H 80.6754 3.91015 0.149364 0
M  V30 889 H 80.2984 3.53368 1.82255 0
M  V30 890 N 81.2955 -0.223234 1.56011 0
M  V30 891 C 82.2275 -1.30006 1.88762 0
M  V30 892 C 83.2405 -1.43129 0.775746 0
M  V30 893 O 84.4295 -1.44057 1.05403 0
M  V30 894 C 81.5295 -2.67589 2.07965 0
M  V30 895 C 80.7025 -2.76434 3.38973 0
M  V30 896 C 79.7615 -3.95019 3.47629 0
M  V30 897 O 78.7875 -3.83436 4.20672 0
M  V30 898 N 79.9895 -5.09249 2.78649 0
M  V30 899 H 82.7545 -1.02238 2.81722 0
M  V30 900 H 80.3155 -0.413278 1.56536 0
M  V30 901 H 82.3075 -3.45297 2.11073 0
M  V30 902 H 80.8775 -2.87964 1.21638 0
M  V30 903 H 80.0975 -1.85216 3.47978 0
M  V30 904 H 81.3855 -2.79313 4.25278 0
M  V30 905 H 80.7835 -5.21556 2.19081 0
M  V30 906 H 79.3405 -5.85007 2.8742 0
M  V30 907 N 82.7736 -1.49793 -0.48987 0
M  V30 908 C 83.6836 -1.70036 -1.61632 0
M  V30 909 C 84.6996 -0.583102 -1.63939 0
M  V30 910 O 85.8756 -0.859169 -1.82154 0
M  V30 911 C 82.9406 -1.77277 -2.97949 0
M  V30 912 C 82.0016 -3.00918 -3.06181 0
M  V30 913 C 81.2346 -3.07804 -4.35996 0
M  V30 914 O 81.4576 -2.21982 -5.25433 0
M  V30 915 O 80.3916 -4.00369 -4.49431 0
M  V30 916 H 84.2176 -2.65486 -1.47482 0
M  V30 917 H 81.8026 -1.33666 -0.667362 0
M  V30 918 H 83.6846 -1.84329 -3.78947 0
M  V30 919 H 82.3596 -0.850076 -3.12339 0
M  V30 920 H 81.2666 -2.99377 -2.2433 0
M  V30 921 H 82.5996 -3.92704 -2.96723 0
M  V30 922 N 84.2517 0.741722 -1.39055 0
M  V30 923 C 85.1837 1.8657 -1.33133 0
M  V30 924 C 86.1967 1.61001 -0.241329 0
M  V30 925 O 87.3857 1.7136 -0.499784 0
M  V30 926 C 84.4857 3.22457 -1.04283 0
M  V30 927 C 83.6587 3.75435 -2.24427 0
M  V30 928 C 82.7177 4.89867 -1.92138 0
M  V30 929 O 81.7437 5.03879 -2.64754 0
M  V30 930 N 82.9457 5.73738 -0.88347 0
M  V30 931 H 85.7107 1.92156 -2.29991 0
M  V30 932 H 83.2717 0.922172 -1.3307 0
M  V30 933 H 85.2637 3.9657 -0.807128 0
M  V30 934 H 83.8337 3.12181 -0.161807 0
M  V30 935 H 83.0537 2.92751 -2.6399 0
M  V30 936 H 84.3417 4.07563 -3.04581 0
M  V30 937 H 83.7397 5.64999 -0.281517 0
M  V30 938 H 82.2967 6.47947 -0.707662 0
M  V30 939 N 85.7298 1.2412 0.971189 0
M  V30 940 C 87.1458 1.00584 1.23916 0
M  V30 941 C 87.3458 -0.287481 1.99439 0
M  V30 942 O 86.4018 -1.00454 2.31658 0
M  V30 943 C 87.7148 2.21864 2.0297 0
M  V30 944 C 89.2628 2.26452 2.16076 0
M  V30 945 C 89.7378 3.47343 2.98524 0
M  V30 946 N 91.2288 3.47639 3.06107 0
M  V30 947 C 91.9638 4.37837 3.70251 0
M  V30 948 N 91.4598 5.38286 4.36142 0
M  V30 949 N 93.2528 4.25558 3.67228 0
M  V30 950 H 85.4038 2.07236 0.465499 0
M  V30 951 H 87.6668 0.909236 0.268315 0
M  V30 952 H 87.3728 3.15771 1.54861 0
M  V30 953 H 87.2468 2.23698 3.03709 0
M  V30 954 H 89.6338 1.33078 2.6339 0
M  V30 955 H 89.7148 2.28645 1.14696 0
M  V30 956 H 89.3588 4.41029 2.51905 0
M  V30 957 H 89.2888 3.42393 4.00093 0
M  V30 958 H 91.7798 2.74966 2.59233 0
M  V30 959 H 92.0928 6.03352 4.82894 0
M  V30 960 H 90.4378 5.42176 4.34822 0
M  V30 961 H 93.6288 3.46322 3.14927 0
M  V30 962 H 93.8018 4.96054 4.16935 0
M  V30 963 N 87.2079 -1.17134 1.05439 0
M  V30 964 C 88.1559 -2.23289 0.651511 0
M  V30 965 C 89.1499 -1.66186 -0.328411 0
M  V30 966 O 90.3559 -1.78949 -0.194206 0
M  V30 967 H 86.7309 -0.726938 0.192523 0
M  V30 968 H 88.7019 -2.54565 1.55689 0
M  V30 969 C 87.4509 -3.47671 0.0448436 0
M  V30 970 H 86.7739 -3.91918 0.78996 0
M  V30 971 H 88.2139 -4.2353 -0.19964 0
M  V30 972 C 86.6729 -3.14453 -1.20918 0
M  V30 973 O 87.2029 -3.29459 -2.29825 0
M  V30 974 N 85.4089 -2.68657 -1.10779 0
M  V30 975 H 84.9559 -2.56646 -0.221526 0
M  V30 976 H 84.9139 -2.46804 -1.9477 0
M  V30 977 N 88.686 -0.835752 -1.33615 0
M  V30 978 C 89.932 -0.430596 -1.98176 0
M  V30 979 C 90.265 1.00684 -1.66061 0
M  V30 980 O 89.54 1.70339 -0.938877 0
M  V30 981 C 89.823 -0.648065 -3.5422 0
M  V30 982 C 89.676 -2.13255 -3.96033 0
M  V30 983 C 90.995 -0.0922113 -4.40003 0
M  V30 984 H 88.114 -0.157924 -0.719881 0
M  V30 985 H 90.756 -1.05069 -1.58305 0
M  V30 986 H 88.906 -0.120237 -3.88314 0
M  V30 987 H 90.578 -2.725 -3.72211 0
M  V30 988 H 88.821 -2.61823 -3.45878 0
M  V30 989 H 89.492 -2.23547 -5.04708 0
M  V30 990 H 91.968 -0.543343 -4.12537 0
M  V30 991 H 90.844 -0.274083 -5.48215 0
M  V30 992 H 91.105 1.00378 -4.30554 0
M  V30 993 N 90.1641 1.46063 -0.591896 0
M  V30 994 C 91.1121 2.32124 0.148739 0
M  V30 995 C 92.1061 1.45035 0.875286 0
M  V30 996 O 93.3121 1.61609 0.792632 0
M  V30 997 H 89.6871 0.749024 0.066832 0
M  V30 998 H 91.6581 2.92392 -0.595783 0
M  V30 999 C 90.4071 3.28373 1.1431 0
M  V30 1000 H 89.7301 3.95371 0.59346 0
M  V30 1001 H 91.1701 3.91352 1.63155 0
M  V30 1002 C 89.6291 2.54393 2.20875 0
M  V30 1003 O 90.1591 2.31373 3.28374 0
M  V30 1004 N 88.3651 2.14797 1.95731 0
M  V30 1005 H 87.9121 2.33719 1.08319 0
M  V30 1006 H 87.8701 1.65619 2.67241 0
M  V30 1007 N 91.6422 0.330177 1.54103 0
M  V30 1008 C 92.5722 -0.525353 2.27513 0
M  V30 1009 C 93.5532 -1.11383 1.2856 0
M  V30 1010 O 94.7382 -1.13773 1.57383 0
M  V30 1011 C 91.8682 -1.6831 3.03791 0
M  V30 1012 C 90.8222 -1.2236 4.10137 0
M  V30 1013 C 90.1482 -2.46882 4.74293 0
M  V30 1014 C 91.4482 -0.333697 5.21233 0
M  V30 1015 H 93.1422 0.087013 2.99274 0
M  V30 1016 H 90.6882 0.0432893 1.43935 0
M  V30 1017 H 92.6412 -2.28795 3.5388 0
M  V30 1018 H 91.3652 -2.32216 2.29659 0
M  V30 1019 H 90.0242 -0.64165 3.60941 0
M  V30 1020 H 89.6722 -3.09165 3.96769 0
M  V30 1021 H 89.3722 -2.16825 5.46133 0
M  V30 1022 H 90.8962 -3.08117 5.27159 0
M  V30 1023 H 92.3102 -0.845013 5.67038 0
M  V30 1024 H 90.7072 -0.125612 5.99969 0
M  V30 1025 H 91.7772 0.633724 4.80741 0
M  V30 1026 N 93.1203 -1.57491 0.0584922 0
M  V30 1027 C 94.0303 -2.15448 -0.928414 0
M  V30 1028 C 95.0463 -1.11416 -1.3365 0
M  V30 1029 O 96.2223 -1.4362 -1.41193 0
M  V30 1030 C 93.2873 -2.69393 -2.18239 0
M  V30 1031 C 92.3483 -3.88249 -1.83196 0
M  V30 1032 C 91.5813 -4.39613 -3.02616 0
M  V30 1033 O 91.8043 -3.90023 -4.16219 0
M  V30 1034 O 90.7383 -5.31111 -2.83204 0
M  V30 1035 H 94.5643 -3.00112 -0.465483 0
M  V30 1036 H 92.1493 -1.48499 -0.163826 0
M  V30 1037 H 94.0313 -3.04026 -2.91798 0
M  V30 1038 H 92.7063 -1.87796 -2.63656 0
M  V30 1039 H 91.6133 -3.58492 -1.06931 0
M  V30 1040 H 92.9463 -4.71098 -1.42573 0
M  V30 1041 N 94.5984 0.214957 -1.56127 0
M  V30 1042 C 95.8284 0.953707 -1.8327 0
M  V30 1043 C 96.2364 1.78181 -0.636262 0
M  V30 1044 O 95.5794 1.79191 0.404516 0
M  V30 1045 C 95.6414 1.91516 -3.0424 0
M  V30 1046 C 95.3054 1.27094 -4.38972 0
M  V30 1047 C 96.3024 0.657575 -5.15725 0
M  V30 1048 C 93.9874 1.28073 -4.85698 0
M  V30 1049 C 95.9814 0.0625968 -6.37369 0
M  V30 1050 C 93.6684 0.681914 -6.07283 0
M  V30 1051 C 94.6664 0.0739046 -6.8296 0
M  V30 1052 O 94.3544 -0.515582 -8.02245 0
M  V30 1053 H 94.0864 0.284764 -0.613095 0
M  V30 1054 H 96.6404 0.233283 -2.04071 0
M  V30 1055 H 94.8704 2.67475 -2.79274 0
M  V30 1056 H 96.5594 2.52001 -3.18198 0
M  V30 1057 H 97.3254 0.642288 -4.80728 0
M  V30 1058 H 93.2044 1.74337 -4.26764 0
M  V30 1059 H 96.7484 -0.412593 -6.96379 0
M  V30 1060 H 92.6454 0.694636 -6.41752 0
M  V30 1061 H 93.4134 -0.410544 -8.1747 0
M  V30 1062 N 96.0765 1.50051 0.48192 0
M  V30 1063 C 97.0085 1.64263 1.59844 0
M  V30 1064 C 98.0215 0.52451 1.54119 0
M  V30 1065 O 99.2105 0.797293 1.59704 0
M  V30 1066 C 96.3105 1.60102 2.98698 0
M  V30 1067 C 95.4835 2.87767 3.29407 0
M  V30 1068 C 94.5425 2.76397 4.47762 0
M  V30 1069 O 93.5685 3.50348 4.48603 0
M  V30 1070 N 94.7705 1.89222 5.48794 0
M  V30 1071 H 97.5355 2.60566 1.48073 0
M  V30 1072 H 95.0965 1.47379 0.670149 0
M  V30 1073 H 97.0885 1.50123 3.75826 0
M  V30 1074 H 95.6585 0.715798 3.04294 0
M  V30 1075 H 94.8785 3.11954 2.40994 0
M  V30 1076 H 96.1665 3.72365 3.4673 0
M  V30 1077 H 95.5645 1.28434 5.50928 0
M  V30 1078 H 94.1215 1.85154 6.24949 0
M  V30 1079 N 97.5546 -0.734337 1.39446 0
M  V30 1080 C 98.8006 -1.49613 1.36908 0
M  V30 1081 C 99.1336 -1.94169 -0.0347829 0
M  V30 1082 O 98.4086 -1.66833 -0.999847 0
M  V30 1083 C 98.6916 -2.73534 2.34203 0
M  V30 1084 C 98.5446 -2.34993 3.83534 0
M  V30 1085 C 99.8636 -3.75635 2.29317 0
M  V30 1086 H 96.9826 -0.542714 0.498629 0
M  V30 1087 H 99.6246 -0.839597 1.70443 0
M  V30 1088 H 97.7746 -3.29553 2.05736 0
M  V30 1089 H 99.4466 -1.84601 4.22753 0
M  V30 1090 H 97.6896 -1.67213 4.00278 0
M  V30 1091 H 98.3606 -3.23738 4.47099 0
M  V30 1092 H 100.837 -3.29203 2.54489 0
M  V30 1093 H 99.7126 -4.60008 2.99472 0
M  V30 1094 H 99.9736 -4.22603 1.29842 0
M  V30 1095 N 99.0327 -1.24633 -0.964593 0
M  V30 1096 C 99.9797 -1.04144 -2.05968 0
M  V30 1097 C 100.95 0.046262 -1.66036 0
M  V30 1098 O 102.135 -0.108972 -1.90489 0
M  V30 1099 C 99.2747 -0.65563 -3.38815 0
M  V30 1100 C 98.3877 -1.81714 -3.91923 0
M  V30 1101 C 97.5227 -1.37662 -5.13052 0
M  V30 1102 C 96.5617 -2.50788 -5.58365 0
M  V30 1103 N 95.6987 -2.07582 -6.70712 0
M  V30 1104 H 100.539 -1.9787 -2.22827 0
M  V30 1105 H 98.0757 -0.9855 -1.09208 0
M  V30 1106 H 100.034 -0.412954 -4.15151 0
M  V30 1107 H 98.6637 0.244627 -3.21872 0
M  V30 1108 H 97.7157 -2.1734 -3.12198 0
M  V30 1109 H 99.0277 -2.66705 -4.21509 0
M  V30 1110 H 98.1817 -1.093 -5.96773 0
M  V30 1111 H 96.9207 -0.497293 -4.85158 0
M  V30 1112 H 95.9257 -2.79906 -4.73215 0
M  V30 1113 H 97.1507 -3.39283 -5.88272 0
M  V30 1114 H 95.0967 -1.22051 -6.44546 0
M  V30 1115 H 95.0137 -2.86125 -6.99763 0
M  V30 1116 H 96.2817 -1.82369 -7.57867 0
M  V30 1117 N 100.511 1.16574 -1.06058 0
M  V30 1118 C 101.76 1.86385 -0.770944 0
M  V30 1119 C 102.073 1.82448 0.705129 0
M  V30 1120 O 103.279 2.47815 1.10905 0
M  V30 1121 C 101.735 3.34466 -1.32893 0
M  V30 1122 C 101.343 3.46883 -2.83507 0
M  V30 1123 C 103.087 4.09548 -1.11672 0
M  V30 1124 C 100.994 4.89036 -3.32562 0
M  V30 1125 H 99.9238 0.698181 -0.284709 0
M  V30 1126 H 102.575 1.31583 -1.27899 0
M  V30 1127 H 100.957 3.88859 -0.748662 0
M  V30 1128 H 102.131 3.02663 -3.47465 0
M  V30 1129 H 100.446 2.85232 -3.03368 0
M  V30 1130 H 103.043 5.14434 -1.45814 0
M  V30 1131 H 103.386 4.16264 -0.0549535 0
M  V30 1132 H 103.919 3.61387 -1.66265 0
M  V30 1133 H 100.658 4.87499 -4.38207 0
M  V30 1134 H 100.178 5.3389 -2.73351 0
M  V30 1135 H 101.857 5.57843 -3.2775 0
M  V30 1136 N 101.989 0.842826 1.3317 0
M  V30 1137 C 102.937 0.267495 2.31057 0
M  V30 1138 C 103.931 -0.602682 1.58316 0
M  V30 1139 O 105.137 -0.491803 1.73151 0
M  V30 1140 H 101.512 0.0677813 0.748939 0
M  V30 1141 H 103.483 1.10754 2.77085 0
M  V30 1142 C 102.232 -0.539331 3.43492 0
M  V30 1143 H 101.555 0.12095 3.99617 0
M  V30 1144 H 102.995 -0.90767 4.14171 0
M  V30 1145 C 101.454 -1.71981 2.89697 0
M  V30 1146 O 101.984 -2.81862 2.86211 0
M  V30 1147 N 100.19 -1.54299 2.46252 0
M  V30 1148 H 99.7369 -0.649143 2.49287 0
M  V30 1149 H 99.6949 -2.33431 2.10612 0
M  V30 1150 N 103.467 -1.45747 0.599634 0
M  V30 1151 C 104.43 -2.28917 -0.113835 0
M  V30 1152 C 105.43 -1.3933 -0.802729 0
M  V30 1153 O 106.62 -1.61534 -0.652103 0
M  V30 1154 C 103.752 -3.20152 -1.17114 0
M  V30 1155 H 104.945 -2.93478 0.617289 0
M  V30 1156 H 102.498 -1.52137 0.358327 0
M  V30 1157 H 103.233 -2.60374 -1.93329 0
M  V30 1158 H 103.018 -3.86133 -0.681468 0
M  V30 1159 H 104.508 -3.82708 -1.67105 0
M  V30 1160 N 104.945 -0.338344 -1.53925 0
M  V30 1161 C 106.356 0.146651 -1.86123 0
M  V30 1162 C 106.707 1.5042 -1.2597 0
M  V30 1163 O 105.832 2.08723 -0.571294 0
M  V30 1164 C 106.427 0.272879 -3.37699 0
M  V30 1165 C 104.986 0.702103 -3.69794 0
M  V30 1166 C 104.133 -0.167304 -2.76795 0
M  V30 1167 H 107.084 -0.558123 -1.48562 0
M  V30 1168 H 107.105 1.10128 -3.64214 0
M  V30 1169 H 106.617 -0.715307 -3.81451 0
M  V30 1170 H 104.718 1.6995 -3.31584 0
M  V30 1171 H 104.831 0.495604 -4.7653 0
M  V30 1172 H 103.195 0.359527 -2.5215 0
M  V30 1173 H 103.978 -1.15253 -3.23375 0
M  V30 1174 N 106.423 1.57458 -0.0668435 0
M  V30 1175 C 107.37 2.12439 0.902122 0
M  V30 1176 C 108.34 1.03565 1.2986 0
M  V30 1177 O 109.525 1.312 1.38532 0
M  V30 1178 C 106.665 2.6865 2.16614 0
M  V30 1179 C 105.778 3.91663 1.82274 0
M  V30 1180 C 104.913 4.36134 3.0325 0
M  V30 1181 C 103.952 5.51808 2.64904 0
M  V30 1182 N 103.089 5.9126 3.78624 0
M  V30 1183 H 107.929 2.94934 0.426382 0
M  V30 1184 H 105.466 1.4575 0.198819 0
M  V30 1185 H 107.424 2.99346 2.90599 0
M  V30 1186 H 106.054 1.88928 2.61737 0
M  V30 1187 H 105.106 3.6746 0.983719 0
M  V30 1188 H 106.418 4.75693 1.50059 0
M  V30 1189 H 105.572 4.68465 3.85519 0
M  V30 1190 H 104.311 3.50948 3.38655 0
M  V30 1191 H 103.316 5.19133 1.81055 0
M  V30 1192 H 104.541 6.38722 2.30675 0
M  V30 1193 H 102.487 5.09024 4.138 0
M  V30 1194 H 102.404 6.70018 3.5016 0
M  V30 1195 H 103.672 6.28212 4.61486 0
M  V30 1196 N 107.901 -0.206675 1.56239 0
M  V30 1197 C 108.811 -1.27686 1.96808 0
M  V30 1198 C 109.827 -1.50455 0.874035 0
M  V30 1199 O 111.003 -1.63295 1.17884 0
M  V30 1200 C 108.068 -2.60358 2.28942 0
M  V30 1201 C 107.129 -2.45762 3.51994 0
M  V30 1202 C 106.362 -3.72108 3.82585 0
M  V30 1203 O 106.585 -4.75776 3.14631 0
M  V30 1204 O 105.519 -3.6833 4.76043 0
M  V30 1205 H 109.345 -0.962593 2.88041 0
M  V30 1206 H 106.93 -0.410746 1.43643 0
M  V30 1207 H 108.812 -3.38687 2.50737 0
M  V30 1208 H 107.487 -2.91435 1.4088 0
M  V30 1209 H 106.394 -1.65584 3.35459 0
M  V30 1210 H 107.727 -2.19621 4.40486 0
M  V30 1211 N 109.379 -1.50304 -0.473955 0
M  V30 1212 C 110.656 -1.51667 -1.23518 0
M  V30 1213 C 111.036 -0.259701 -2.09496 0
M  V30 1214 O 110.384 0.756986 -2.15597 0
M  V30 1215 C 110.594 -2.81082 -2.06868 0
M  V30 1216 C 111.942 -3.31631 -2.65153 0
M  V30 1217 O 112.966 -2.82384 -2.17113 0
M  V30 1218 O 111.825 -4.17471 -3.52675 0
M  V30 1219 H 108.919 -0.60822 -0.560355 0
M  V30 1220 H 111.465 -1.62592 -0.486011 0
M  V30 1221 H 110.237 -3.64041 -1.4349 0
M  V30 1222 H 109.86 -2.73146 -2.88924 0
M  V30 1223 N 110.857 0.726932 -1.39834 0
M  V30 1224 C 112.134 1.47902 -1.28001 0
M  V30 1225 C 112.514 2.1083 0.106789 0
M  V30 1226 O 111.862 1.99242 1.11869 0
M  V30 1227 C 112.072 2.52392 -2.41038 0
M  V30 1228 C 113.42 3.18546 -2.80737 0
M  V30 1229 O 114.444 2.62708 -2.40547 0
M  V30 1230 O 113.303 4.19604 -3.50135 0
M  V30 1231 H 110.397 0.657163 -0.502062 0
M  V30 1232 H 112.943 0.760071 -1.51727 0
M  V30 1233 H 111.715 2.04329 -3.33715 0
M  V30 1234 H 111.338 3.31837 -2.19021 0
M  V30 1235 N 112.336 1.25143 0.95797 0
M  V30 1236 C 113.566 1.12261 1.73439 0
M  V30 1237 C 113.974 -0.326715 1.86358 0
M  V30 1238 O 113.317 -1.2367 1.35836 0
M  V30 1239 C 113.379 1.69966 3.16784 0
M  V30 1240 C 113.043 3.18936 3.27305 0
M  V30 1241 C 114.04 4.15968 3.11877 0
M  V30 1242 C 111.725 3.59083 3.51234 0
M  V30 1243 C 113.719 5.51126 3.20217 0
M  V30 1244 C 111.406 4.9438 3.5921 0
M  V30 1245 C 112.404 5.90211 3.43716 0
M  V30 1246 O 112.092 7.23046 3.51368 0
M  V30 1247 H 111.824 0.392476 0.550399 0
M  V30 1248 H 114.378 1.65927 1.21068 0
M  V30 1249 H 112.608 1.10744 3.70503 0
M  V30 1250 H 114.297 1.52232 3.76272 0
M  V30 1251 H 115.063 3.86292 2.93264 0
M  V30 1252 H 110.942 2.84989 3.62356 0
M  V30 1253 H 114.486 6.25905 3.0804 0
M  V30 1254 H 110.383 5.23723 3.77339 0
M  V30 1255 H 111.151 7.31097 3.6802 0
M  V30 1256 N 113.814 -1.1601 1.06675 0
M  V30 1257 C 114.724 -2.24156 0.692179 0
M  V30 1258 C 115.74 -1.71507 -0.293513 0
M  V30 1259 O 116.916 -2.009 -0.141861 0
M  V30 1260 C 113.981 -3.46587 0.0884131 0
M  V30 1261 C 113.042 -4.14257 1.12646 0
M  V30 1262 C 112.275 -5.30844 0.551416 0
M  V30 1263 O 112.498 -5.66858 -0.634656 0
M  V30 1264 O 111.432 -5.87848 1.29298 0
M  V30 1265 H 115.258 -2.58513 1.59388 0
M  V30 1266 H 112.843 -1.23599 0.83926 0
M  V30 1267 H 114.725 -4.20679 -0.246361 0
M  V30 1268 H 113.4 -3.13994 -0.786712 0
M  V30 1269 H 112.307 -3.42118 1.51348 0
M  V30 1270 H 113.64 -4.50914 1.97325 0
M  V30 1271 N 115.292 -0.849877 -1.32721 0
M  V30 1272 C 116.52 -0.464754 -2.01613 0
M  V30 1273 C 116.935 0.937191 -1.63897 0
M  V30 1274 O 116.292 1.61081 -0.857856 0
M  V30 1275 C 116.343 -0.588638 -3.56675 0
M  V30 1276 O 116.064 -1.93535 -3.93034 0
M  V30 1277 C 117.565 -0.2019 -4.4284 0
M  V30 1278 H 114.785 -0.183215 -0.645502 0
M  V30 1279 H 117.329 -1.1455 -1.69407 0
M  V30 1280 H 115.484 0.0443159 -3.87375 0
M  V30 1281 H 115.898 -1.92871 -4.87751 0
M  V30 1282 H 117.372 -0.339599 -5.50954 0
M  V30 1283 H 117.849 0.857224 -4.30753 0
M  V30 1284 H 118.455 -0.809733 -4.17521 0
M  V30 1285 N 116.77 1.45427 -0.607355 0
M  V30 1286 C 118.186 1.57283 -0.270985 0
M  V30 1287 C 118.386 1.59875 1.22647 0
M  V30 1288 O 117.442 1.52893 2.00948 0
M  V30 1289 C 118.755 2.85566 -0.941952 0
M  V30 1290 C 120.303 2.9924 -0.917849 0
M  V30 1291 C 120.778 4.30293 -1.56882 0
M  V30 1292 N 122.269 4.37051 -1.5343 0
M  V30 1293 C 123.004 5.37123 -2.00715 0
M  V30 1294 N 122.5 6.43734 -2.56084 0
M  V30 1295 N 124.293 5.28479 -1.91484 0
M  V30 1296 H 116.444 1.41988 -1.57966 0
M  V30 1297 H 118.707 0.67885 -0.661715 0
M  V30 1298 H 118.413 2.8955 -1.99633 0
M  V30 1299 H 118.287 3.74322 -0.465096 0
M  V30 1300 H 120.674 2.94822 0.127984 0
M  V30 1301 H 120.755 2.11895 -1.43297 0
M  V30 1302 H 120.399 4.35469 -2.61398 0
M  V30 1303 H 120.329 5.16454 -1.02873 0
M  V30 1304 H 122.82 3.60615 -1.12982 0
M  V30 1305 H 123.133 7.16341 -2.89958 0
M  V30 1306 H 121.478 6.44485 -2.60122 0
M  V30 1307 H 124.669 4.44098 -1.47967 0
M  V30 1308 H 124.842 6.0632 -2.28648 0
M  V30 1309 N 118.248 0.346503 1.53744 0
M  V30 1310 C 119.497 -0.250122 2.00143 0
M  V30 1311 C 119.81 -1.51418 1.23822 0
M  V30 1312 O 121.016 -2.18823 1.60713 0
M  V30 1313 C 119.472 -0.496252 3.56462 0
M  V30 1314 C 119.08 0.752077 4.41642 0
M  V30 1315 C 120.824 -1.05157 4.11269 0
M  V30 1316 C 118.731 0.476583 5.89477 0
M  V30 1317 H 117.661 -0.0972409 0.747703 0
M  V30 1318 H 120.312 0.46229 1.77581 0
M  V30 1319 H 118.694 -1.26944 3.75102 0
M  V30 1320 H 119.868 1.5266 4.34778 0
M  V30 1321 H 118.183 1.22925 3.97842 0
M  V30 1322 H 120.78 -1.27269 5.19333 0
M  V30 1323 H 121.123 -2.00799 3.64672 0
M  V30 1324 H 121.656 -0.339019 3.96353 0
M  V30 1325 H 118.395 1.4028 6.40314 0
M  V30 1326 H 117.915 -0.259794 5.99237 0
M  V30 1327 H 119.594 0.0949315 6.4693 0
M  V30 1328 N 119.726 -1.57421 0.075193 0
M  V30 1329 C 120.954 -1.97946 -0.602076 0
M  V30 1330 C 121.369 -0.953674 -1.62943 0
M  V30 1331 O 120.726 0.0592551 -1.82404 0
M  V30 1332 C 120.777 -3.38546 -1.26762 0
M  V30 1333 O 120.498 -4.37195 -0.281376 0
M  V30 1334 C 121.999 -3.93966 -2.03239 0
M  V30 1335 H 119.219 -0.650918 -0.162931 0
M  V30 1336 H 121.763 -2.03959 0.148601 0
M  V30 1337 H 119.918 -3.33609 -1.96936 0
M  V30 1338 H 120.332 -5.18975 -0.759267 0
M  V30 1339 H 121.806 -4.94555 -2.45193 0
M  V30 1340 H 122.283 -3.30693 -2.8903 0
M  V30 1341 H 122.889 -4.02315 -1.37924 0
M  V30 1342 N 121.204 0.198386 -1.56346 0
M  V30 1343 C 122.114 1.2664 -1.97483 0
M  V30 1344 C 123.13 1.49989 -0.882002 0
M  V30 1345 O 124.306 1.62668 -1.18748 0
M  V30 1346 C 121.371 2.59141 -2.30319 0
M  V30 1347 C 120.432 2.43892 -3.53292 0
M  V30 1348 C 119.665 3.70074 -3.84553 0
M  V30 1349 O 119.888 4.74101 -3.1715 0
M  V30 1350 O 118.822 3.658 -4.7799 0
M  V30 1351 H 122.648 0.947304 -2.88548 0
M  V30 1352 H 120.233 0.403123 -1.43859 0
M  V30 1353 H 122.115 3.37352 -2.5253 0
M  V30 1354 H 120.79 2.90684 -1.42423 0
M  V30 1355 H 119.697 1.63803 -3.36332 0
M  V30 1356 H 121.03 2.17282 -4.41644 0
M  V30 1357 N 122.682 1.50554 0.465978 0
M  V30 1358 C 123.907 1.65838 1.24549 0
M  V30 1359 C 124.332 0.343486 1.84937 0
M  V30 1360 O 123.69 -0.69324 1.67523 0
M  V30 1361 C 123.738 2.75533 2.32624 0
M  V30 1362 O 122.842 2.37142 3.37398 0
M  V30 1363 H 122.183 0.553893 0.366194 0
M  V30 1364 H 124.713 1.96959 0.553927 0
M  V30 1365 H 124.723 2.98763 2.77857 0
M  V30 1366 H 123.398 3.70962 1.88043 0
M  V30 1367 H 121.975 2.24377 2.97841 0
M  V30 1368 N 124.16 -0.719506 1.40217 0
M  V30 1369 C 125.107 -1.83359 1.40172 0
M  V30 1370 C 126.077 -1.64065 0.259206 0
M  V30 1371 O 127.262 -1.85254 0.456677 0
M  V30 1372 C 124.402 -3.2103 1.26624 0
M  V30 1373 C 123.515 -3.51923 2.50548 0
M  V30 1374 C 122.65 -4.79079 2.29471 0
M  V30 1375 C 121.689 -5.02863 3.48992 0
M  V30 1376 N 120.826 -6.2123 3.27135 0
M  V30 1377 H 125.666 -1.82733 2.35399 0
M  V30 1378 H 123.203 -0.892688 1.16917 0
M  V30 1379 H 125.161 -4.00524 1.16776 0
M  V30 1380 H 123.791 -3.20895 0.350176 0
M  V30 1381 H 122.843 -2.67014 2.70939 0
M  V30 1382 H 124.155 -3.6541 3.39525 0
M  V30 1383 H 123.309 -5.66582 2.16955 0
M  V30 1384 H 122.048 -4.67794 1.37913 0
M  V30 1385 H 121.053 -4.13816 3.6199 0
M  V30 1386 H 122.278 -5.16023 4.41472 0
M  V30 1387 H 120.224 -6.11204 2.38256 0
M  V30 1388 H 120.141 -6.35375 4.09675 0
M  V30 1389 H 121.409 -7.11532 3.18344 0
M  V30 1390 N 125.638 -1.25649 -0.95132 0
M  V30 1391 C 126.878 -1.11802 -1.71113 0
M  V30 1392 C 127.242 0.334758 -1.89059 0
M  V30 1393 O 128.443 0.595121 -2.62129 0
M  V30 1394 C 126.714 -1.85512 -3.05483 0
M  V30 1395 S 128.273 -1.87597 -3.96677 0
M  V30 1396 H 125.091 -0.399552 -0.588115 0
M  V30 1397 H 127.693 -1.59222 -1.1344 0
M  V30 1398 H 126.397 -2.90299 -2.90094 0
M  V30 1399 H 125.928 -1.38493 -3.68216 0
M  V30 1400 H 127.943 -0.955389 -4.86916 0
M  V30 1401 N 127.117 1.15442 -1.07289 0
M  V30 1402 C 128.363 1.86489 -0.796846 0
M  V30 1403 C 128.696 1.82078 0.675371 0
M  V30 1404 O 127.971 1.24346 1.4956 0
M  V30 1405 C 128.254 3.35626 -1.30489 0
M  V30 1406 C 128.107 3.48673 -2.84161 0
M  V30 1407 C 129.426 4.30357 -0.920907 0
M  V30 1408 H 126.545 0.677144 -0.290939 0
M  V30 1409 H 129.187 1.35633 -1.33056 0
M  V30 1410 H 127.337 3.79068 -0.850883 0
M  V30 1411 H 129.009 3.14099 -3.37846 0
M  V30 1412 H 127.252 2.90253 -3.22391 0
M  V30 1413 H 127.923 4.53453 -3.14777 0
M  V30 1414 H 130.399 3.94871 -1.3121 0
M  V30 1415 H 129.275 5.33193 -1.30372 0
M  V30 1416 H 129.536 4.4176 0.173226 0
M  V30 1417 N 128.595 0.856903 1.32268 0
M  V30 1418 C 129.823 0.475439 2.01363 0
M  V30 1419 C 130.238 -0.928486 1.64392 0
M  V30 1420 O 129.595 -1.60624 0.866387 0
M  V30 1421 C 129.646 0.607545 3.56358 0
M  V30 1422 O 129.367 1.95617 3.92002 0
M  V30 1423 C 130.868 0.225382 4.42727 0
M  V30 1424 H 128.088 0.186636 0.644521 0
M  V30 1425 H 130.632 1.15446 1.68797 0
M  V30 1426 H 128.787 -0.0237719 3.87393 0
M  V30 1427 H 129.201 1.95455 4.86721 0
M  V30 1428 H 130.675 0.368813 5.50767 0
M  V30 1429 H 131.152 -0.834369 4.31202 0
M  V30 1430 H 131.758 0.831864 4.17085 0
M  V30 1431 N 130.073 -1.45103 0.615059 0
M  V30 1432 C 131.322 -2.01396 0.110718 0
M  V30 1433 C 131.635 -1.48834 -1.26916 0
M  V30 1434 O 132.841 -1.97152 -1.86664 0
M  V30 1435 C 131.297 -3.59599 0.14723 0
M  V30 1436 C 130.905 -4.21158 1.52743 0
M  V30 1437 C 132.649 -4.23428 -0.30148 0
M  V30 1438 C 130.556 -5.71535 1.51992 0
M  V30 1439 H 129.486 -0.753061 0.0376241 0
M  V30 1440 H 132.137 -1.66494 0.77149 0
M  V30 1441 H 130.519 -3.91724 -0.580339 0
M  V30 1442 H 131.693 -4.00594 2.2773 0
M  V30 1443 H 130.008 -3.69552 1.91886 0
M  V30 1444 H 132.605 -5.33703 -0.326392 0
M  V30 1445 H 132.948 -3.94629 -1.32565 0
M  V30 1446 H 133.481 -3.96047 0.373065 0
M  V30 1447 H 130.22 -6.05044 2.52193 0
M  V30 1448 H 129.74 -5.94268 0.81274 0
M  V30 1449 H 131.419 -6.34873 1.24681 0
M  V30 1450 N 131.551 -0.354651 -1.53558 0
M  V30 1451 C 132.481 0.489091 -2.2832 0
M  V30 1452 C 133.462 1.09324 -1.30316 0
M  V30 1453 O 134.647 1.11255 -1.59173 0
M  V30 1454 C 131.777 1.63456 -3.0643 0
M  V30 1455 C 130.731 1.1582 -4.12031 0
M  V30 1456 C 130.057 2.39305 -4.7816 0
M  V30 1457 C 131.357 0.250731 -5.21698 0
M  V30 1458 H 133.051 -0.134614 -2.99097 0
M  V30 1459 H 130.597 -0.0661826 -1.43848 0
M  V30 1460 H 132.55 2.23136 -3.57475 0
M  V30 1461 H 131.274 2.28533 -2.33325 0
M  V30 1462 H 129.933 0.584146 -3.61916 0
M  V30 1463 H 129.581 3.02814 -4.01637 0
M  V30 1464 H 129.281 2.08109 -5.49513 0
M  V30 1465 H 130.805 2.99691 -5.31994 0
M  V30 1466 H 132.219 0.754695 -5.68311 0
M  V30 1467 H 130.616 0.0301468 -6.00092 0
M  V30 1468 H 131.686 -0.710125 -4.79672 0
M  V30 1469 N 133.029 1.57378 -0.0835403 0
M  V30 1470 C 133.979 2.09916 0.889905 0
M  V30 1471 C 134.963 1.01151 1.25129 0
M  V30 1472 O 136.155 1.27443 1.2283 0
M  V30 1473 C 133.284 2.67379 2.15322 0
M  V30 1474 C 132.37 3.83167 1.81779 0
M  V30 1475 N 132.761 4.91665 1.18739 0
M  V30 1476 C 131.059 3.92685 2.11459 0
M  V30 1477 C 131.76 5.72409 1.0355 0
M  V30 1478 N 130.736 5.21062 1.54906 0
M  V30 1479 H 134.538 2.91188 0.398378 0
M  V30 1480 H 132.052 1.61956 0.120013 0
M  V30 1481 H 134.049 3.0334 2.8599 0
M  V30 1482 H 132.709 1.87558 2.65051 0
M  V30 1483 H 133.72 5.10784 0.855604 0
M  V30 1484 H 130.397 3.23856 2.63483 0
M  V30 1485 H 131.787 6.69699 0.543425 0
M  V30 1486 N 134.507 -0.190092 1.56449 0
M  V30 1487 C 135.454 -1.23557 1.94942 0
M  V30 1488 C 136.424 -1.44972 0.810696 0
M  V30 1489 O 137.609 -1.58023 1.06927 0
M  V30 1490 C 134.749 -2.57416 2.2985 0
M  V30 1491 C 133.862 -2.43537 3.5681 0
M  V30 1492 C 132.997 -3.70134 3.81017 0
M  V30 1493 C 132.036 -3.51109 5.01387 0
M  V30 1494 N 131.173 -4.6973 5.21822 0
M  V30 1495 H 136.013 -0.900304 2.84075 0
M  V30 1496 H 133.55 -0.43318 1.40577 0
M  V30 1497 H 135.508 -3.35409 2.48106 0
M  V30 1498 H 134.138 -2.88975 1.43852 0
M  V30 1499 H 133.19 -1.56816 3.46573 0
M  V30 1500 H 134.502 -2.25415 4.4496 0
M  V30 1501 H 133.656 -4.56566 3.9954 0
M  V30 1502 H 132.395 -3.91215 2.91207 0
M  V30 1503 H 131.4 -2.63063 4.82782 0
M  V30 1504 H 132.625 -3.31468 5.9271 0
M  V30 1505 H 130.571 -4.91065 4.34961 0
M  V30 1506 H 130.488 -4.54452 6.0416 0
M  V30 1507 H 131.756 -5.57499 5.44808 0
M  V30 1508 N 135.985 -1.50799 -0.457987 0
M  V30 1509 C 137.233 -1.62121 -1.2067 0
M  V30 1510 C 137.554 -0.329793 -1.92191 0
M  V30 1511 O 136.824 0.653409 -1.84682 0
M  V30 1512 H 135.404 -0.597441 -0.448411 0
M  V30 1513 H 138.066 -1.87637 -0.527096 0
M  V30 1514 H 137.162 -2.43882 -1.94751 0
M  V30 1515 N 137.463 0.71206 -1.40597 0
M  V30 1516 C 138.71 1.47197 -1.39065 0
M  V30 1517 C 139.038 1.94499 0.00583891 0
M  V30 1518 O 138.293 1.68752 0.99102 0
M  V30 1519 C 138.592 2.71039 -2.32965 0
M  V30 1520 C 138.258 2.42484 -3.80148 0
M  V30 1521 C 136.92 2.34406 -4.20247 0
M  V30 1522 C 139.272 2.18598 -4.73143 0
M  V30 1523 C 136.6 2.00516 -5.51371 0
M  V30 1524 C 138.952 1.8622 -6.0457 0
M  V30 1525 C 137.616 1.76626 -6.43708 0
M  V30 1526 H 136.886 0.538634 -0.508876 0
M  V30 1527 H 139.533 0.815325 -1.73276 0
M  V30 1528 H 137.838 3.41558 -1.91951 0
M  V30 1529 H 139.535 3.29138 -2.29061 0
M  V30 1530 H 136.125 2.49659 -3.4838 0
M  V30 1531 H 140.309 2.23793 -4.42979 0
M  V30 1532 H 135.565 1.91628 -5.80593 0
M  V30 1533 H 139.739 1.66752 -6.76141 0
M  V30 1534 H 137.366 1.50133 -7.45228 0
M  V30 1535 N 138.941 1.26152 0.944643 0
M  V30 1536 C 140.166 1.14363 1.7302 0
M  V30 1537 C 140.591 -0.29772 1.85729 0
M  V30 1538 O 139.949 -1.2157 1.34501 0
M  V30 1539 C 139.997 1.81378 3.11664 0
M  V30 1540 O 139.101 1.10022 3.97453 0
M  V30 1541 H 138.442 0.398694 0.53098 0
M  V30 1542 H 140.972 1.66906 1.18337 0
M  V30 1543 H 140.982 1.88064 3.62072 0
M  V30 1544 H 139.657 2.86237 3.0173 0
M  V30 1545 H 138.234 1.11287 3.55907 0
M  V30 1546 N 140.419 -1.14872 1.07899 0
M  V30 1547 C 141.382 -2.17986 0.708161 0
M  V30 1548 C 142.382 -1.58775 -0.25442 0
M  V30 1549 O 143.572 -1.74166 -0.034645 0
M  V30 1550 C 140.704 -3.40871 0.0446929 0
M  V30 1551 H 141.897 -2.52306 1.62116 0
M  V30 1552 H 139.45 -1.2943 0.876218 0
M  V30 1553 H 140.185 -3.12124 -0.880281 0
M  V30 1554 H 139.97 -3.8511 0.737091 0
M  V30 1555 H 141.46 -4.17121 -0.19991 0
M  V30 1556 N 141.898 -0.863906 -1.31812 0
M  V30 1557 C 143.123 -0.48527 -2.01643 0
M  V30 1558 C 143.548 0.913058 -1.64453 0
M  V30 1559 O 142.906 1.6014 -0.849985 0
M  V30 1560 C 142.954 -0.642625 -3.54828 0
M  V30 1561 O 142.058 0.320659 -4.11151 0
M  V30 1562 H 141.399 -0.193793 -0.635091 0
M  V30 1563 H 143.929 -1.16565 -1.68148 0
M  V30 1564 H 143.939 -0.533628 -4.04495 0
M  V30 1565 H 142.614 -1.66227 -3.81237 0
M  V30 1566 H 141.191 0.167126 -3.72525 0
M  V30 1567 N 143.376 1.44774 -0.622745 0
M  V30 1568 C 144.622 2.0242 -0.124083 0
M  V30 1569 C 144.955 1.4881 1.24777 0
M  V30 1570 O 144.23 0.668799 1.8264 0
M  V30 1571 C 144.513 3.59957 -0.101619 0
M  V30 1572 C 144.366 4.23867 -1.50521 0
M  V30 1573 C 145.685 4.36284 0.578272 0
M  V30 1574 H 142.804 0.735528 -0.0465645 0
M  V30 1575 H 145.446 1.72447 -0.797617 0
M  V30 1576 H 143.596 3.85623 0.471934 0
M  V30 1577 H 145.268 4.09336 -2.12701 0
M  V30 1578 H 143.511 3.81684 -2.06154 0
M  V30 1579 H 144.182 5.32843 -1.4416 0
M  V30 1580 H 146.658 4.16001 0.0906057 0
M  V30 1581 H 145.534 5.46004 0.563149 0
M  V30 1582 H 145.795 4.10271 1.64713 0
M  V30 1583 N 144.854 0.36279 1.53368 0
M  V30 1584 C 146.27 0.0116182 1.59596 0
M  V30 1585 C 146.47 -1.47012 1.37803 0
M  V30 1586 O 145.526 -2.23136 1.18181 0
M  V30 1587 C 146.839 0.465052 2.97082 0
M  V30 1588 C 148.387 0.419033 3.10182 0
M  V30 1589 C 148.862 0.848235 4.50077 0
M  V30 1590 N 150.353 0.803183 4.56183 0
M  V30 1591 C 151.088 1.107 5.62613 0
M  V30 1592 N 150.584 1.47996 6.76808 0
M  V30 1593 N 152.377 1.02998 5.52583 0
M  V30 1594 H 144.528 1.32775 1.65785 0
M  V30 1595 H 146.791 0.542518 0.777417 0
M  V30 1596 H 146.497 1.49892 3.18159 0
M  V30 1597 H 146.371 -0.149786 3.76902 0
M  V30 1598 H 148.758 -0.605696 2.88817 0
M  V30 1599 H 148.839 1.06933 2.32377 0
M  V30 1600 H 148.483 1.87107 4.7218 0
M  V30 1601 H 148.413 0.175218 5.26308 0
M  V30 1602 H 150.904 0.52838 3.74188 0
M  V30 1603 H 151.217 1.69613 7.53957 0
M  V30 1604 H 149.562 1.51859 6.78206 0
M  V30 1605 H 152.753 0.737817 4.62249 0
M  V30 1606 H 152.926 1.2701 6.35431 0
M  V30 1607 N 146.332 -1.57332 0.0918853 0
M  V30 1608 C 147.56 -1.98574 -0.581048 0
M  V30 1609 C 147.975 -0.970903 -1.61923 0
M  V30 1610 O 147.332 0.0399054 -1.82456 0
M  V30 1611 C 147.383 -3.39872 -1.23164 0
M  V30 1612 O 147.104 -4.37469 -0.234989 0
M  V30 1613 C 148.605 -3.96099 -1.99049 0
M  V30 1614 H 145.825 -0.65261 -0.156018 0
M  V30 1615 H 148.369 -2.0379 0.170225 0
M  V30 1616 H 146.524 -3.35679 -1.93386 0
M  V30 1617 H 146.938 -5.19751 -0.70418 0
M  V30 1618 H 148.412 -4.97127 -2.39934 0
M  V30 1619 H 148.889 -3.3374 -2.85507 0
M  V30 1620 H 149.495 -4.03755 -1.3365 0
M  V30 1621 N 147.81 0.181792 -1.56548 0
M  V30 1622 C 149.059 0.898348 -1.8059 0
M  V30 1623 C 149.372 1.83862 -0.667379 0
M  V30 1624 O 150.578 2.59678 -0.792446 0
M  V30 1625 C 149.034 1.64791 -3.19956 0
M  V30 1626 C 148.642 0.751789 -4.41647 0
M  V30 1627 C 150.386 2.35331 -3.53298 0
M  V30 1628 C 148.293 1.50098 -5.72035 0
M  V30 1629 H 147.223 0.339194 -0.673397 0
M  V30 1630 H 149.874 0.151413 -1.82874 0
M  V30 1631 H 148.256 2.43921 -3.11959 0
M  V30 1632 H 149.43 -0.0018076 -4.608 0
M  V30 1633 H 147.745 0.156562 -4.16106 0
M  V30 1634 H 150.342 2.91958 -4.47956 0
M  V30 1635 H 150.685 3.10164 -2.77676 0
M  V30 1636 H 151.218 1.63154 -3.62803 0
M  V30 1637 H 147.957 0.795175 -6.50659 0
M  V30 1638 H 147.477 2.22817 -5.56878 0
M  V30 1639 H 149.156 2.05125 -6.13622 0
M  V30 1640 N 149.288 1.51039 0.449983 0
M  V30 1641 C 150.218 1.74379 1.55288 0
M  V30 1642 C 151.199 0.593236 1.5942 0
M  V30 1643 O 152.384 0.834625 1.7535 0
M  V30 1644 C 149.514 1.85728 2.93466 0
M  V30 1645 C 148.468 3.01078 3.04197 0
M  V30 1646 C 147.794 2.97595 4.44231 0
M  V30 1647 C 149.094 4.41254 2.7945 0
M  V30 1648 H 150.788 2.66725 1.36008 0
M  V30 1649 H 148.334 1.2835 0.652864 0
M  V30 1650 H 150.287 2.0064 3.70569 0
M  V30 1651 H 149.011 0.900207 3.13949 0
M  V30 1652 H 147.67 2.85851 2.29531 0
M  V30 1653 H 147.318 1.99691 4.61663 0
M  V30 1654 H 147.018 3.75046 4.52343 0
M  V30 1655 H 148.542 3.14583 5.23326 0
M  V30 1656 H 149.956 4.56897 3.46292 0
M  V30 1657 H 148.353 5.20315 2.98985 0
M  V30 1658 H 149.423 4.52164 1.75144 0
M  V30 1659 N 150.766 -0.704594 1.40972 0
M  V30 1660 C 151.698 -1.82974 1.38033 0
M  V30 1661 C 152.711 -1.60305 0.283931 0
M  V30 1662 O 153.9 -1.69975 0.545042 0
M  V30 1663 C 151 -3.19578 1.12795 0
M  V30 1664 C 150.173 -3.69352 2.34302 0
M  V30 1665 C 149.232 -4.84601 2.05058 0
M  V30 1666 O 148.258 -4.96682 2.7802 0
M  V30 1667 N 149.46 -5.71194 1.03528 0
M  V30 1668 H 152.225 -1.85991 2.35005 0
M  V30 1669 H 149.786 -0.886567 1.35468 0
M  V30 1670 H 151.778 -3.9429 0.911987 0
M  V30 1671 H 150.348 -3.11642 0.24452 0
M  V30 1672 H 149.568 -2.85649 2.71659 0
M  V30 1673 H 150.856 -3.99345 3.1528 0
M  V30 1674 H 150.254 -5.64054 0.431217 0
M  V30 1675 H 148.811 -6.45843 0.879205 0
M  V30 1676 N 152.244 -1.26651 -0.937939 0
M  V30 1677 C 153.192 -1.08308 -2.05845 0
M  V30 1678 C 154.186 -0.0090757 -1.69398 0
M  V30 1679 O 155.392 -0.166007 -1.79233 0
M  V30 1680 H 151.767 -0.333416 -0.674046 0
M  V30 1681 H 153.738 -2.03261 -2.18467 0
M  V30 1682 C 152.487 -0.736229 -3.39816 0
M  V30 1683 H 151.81 -1.55453 -3.6834 0
M  V30 1684 H 153.25 -0.64769 -4.19024 0
M  V30 1685 C 151.709 0.558824 -3.32233 0
M  V30 1686 O 152.239 1.59621 -3.68624 0
M  V30 1687 N 150.445 0.550657 -2.85335 0
M  V30 1688 H 149.992 -0.293943 -2.55917 0
M  V30 1689 H 149.95 1.41726 -2.80644 0
M  V30 1690 N 153.722 1.14298 -1.08507 0
M  V30 1691 C 154.999 1.81544 -0.728088 0
M  V30 1692 C 155.379 1.95838 0.78808 0
M  V30 1693 O 154.727 1.51904 1.70697 0
M  V30 1694 C 154.937 3.17169 -1.45619 0
M  V30 1695 C 156.285 3.9265 -1.61591 0
M  V30 1696 O 157.309 3.26762 -1.41793 0
M  V30 1697 O 156.168 5.10807 -1.94263 0
M  V30 1698 H 153.262 0.78491 -0.260471 0
M  V30 1699 H 155.808 1.21307 -1.18671 0
M  V30 1700 H 154.58 3.01934 -2.489 0
M  V30 1701 H 154.203 3.851 -0.989124 0
M  V30 1702 N 155.201 0.870884 1.31352 0
M  V30 1703 C 156.151 0.298889 2.26032 0
M  V30 1704 C 157.135 -0.564595 1.50669 0
M  V30 1705 O 158.327 -0.411323 1.72154 0
M  V30 1706 C 155.456 -0.497842 3.39671 0
M  V30 1707 C 154.542 0.378937 4.22404 0
M  V30 1708 N 154.933 1.47284 4.83881 0
M  V30 1709 C 153.231 0.171535 4.4567 0
M  V30 1710 C 153.932 2.01359 5.45738 0
M  V30 1711 N 152.908 1.31047 5.27568 0
M  V30 1712 H 156.71 1.13494 2.71102 0
M  V30 1713 H 154.224 0.718745 1.45629 0
M  V30 1714 H 156.221 -0.924155 4.06528 0
M  V30 1715 H 154.881 -1.33149 2.96144 0
M  V30 1716 H 155.892 1.85575 4.8351 0
M  V30 1717 H 152.569 -0.626091 4.12779 0
M  V30 1718 H 153.959 2.93143 6.0458 0
M  V30 1719 N 156.679 -1.44442 0.630414 0
M  V30 1720 C 157.904 -2.06927 0.139944 0
M  V30 1721 C 158.329 -1.46795 -1.17613 0
M  V30 1722 O 157.687 -0.569144 -1.72135 0
M  V30 1723 C 157.735 -3.6058 0.0379581 0
M  V30 1724 O 156.839 -3.99937 -1.0062 0
M  V30 1725 H 156.18 -0.658608 0.0844483 0
M  V30 1726 H 158.71 -1.85327 0.866891 0
M  V30 1727 H 158.72 -4.07714 -0.152856 0
M  V30 1728 H 157.395 -4.03728 0.998809 0
M  V30 1729 H 155.972 -3.64436 -0.79001 0
M  V30 1730 N 158.157 -0.370918 -1.53173 0
M  V30 1731 C 159.087 0.464847 -2.28826 0
M  V30 1732 C 160.068 1.07936 -1.31468 0
M  V30 1733 O 161.253 1.0956 -1.60344 0
M  V30 1734 C 158.383 1.60196 -3.08147 0
M  V30 1735 C 157.337 1.11443 -4.13237 0
M  V30 1736 C 156.663 2.3422 -4.80672 0
M  V30 1737 C 157.963 0.195384 -5.21934 0
M  V30 1738 H 159.657 -0.166329 -2.98938 0
M  V30 1739 H 157.203 -0.0814359 -1.4377 0
M  V30 1740 H 159.156 2.19332 -3.59822 0
M  V30 1741 H 157.88 2.26045 -2.35735 0
M  V30 1742 H 156.539 0.545727 -3.62515 0
M  V30 1743 H 156.187 2.98537 -4.04827 0
M  V30 1744 H 155.887 2.02269 -5.51689 0
M  V30 1745 H 157.411 2.94032 -5.35143 0
M  V30 1746 H 158.825 0.694375 -5.69079 0
M  V30 1747 H 157.222 -0.0335027 -6.00091 0
M  V30 1748 H 158.292 -0.760961 -4.78892 0
M  V30 1749 N 159.635 1.57281 -0.100228 0
M  V30 1750 C 160.565 2.17328 0.853857 0
M  V30 1751 C 161.546 1.10804 1.2906 0
M  V30 1752 O 162.731 1.38963 1.35657 0
M  V30 1753 C 159.861 2.75772 2.11109 0
M  V30 1754 C 158.815 3.87713 1.81279 0
M  V30 1755 C 158.141 4.32882 3.13874 0
M  V30 1756 C 159.441 5.10677 1.09574 0
M  V30 1757 H 161.135 2.97305 0.353545 0
M  V30 1758 H 158.681 1.43009 0.168612 0
M  V30 1759 H 160.634 3.16433 2.78296 0
M  V30 1760 H 159.358 1.93057 2.63432 0
M  V30 1761 H 158.017 3.476 1.16489 0
M  V30 1762 H 157.665 3.47051 3.64095 0
M  V30 1763 H 157.365 5.08358 2.94696 0
M  V30 1764 H 158.889 4.7618 3.82211 0
M  V30 1765 H 160.303 5.48474 1.66879 0
M  V30 1766 H 158.7 5.91615 1.00557 0
M  V30 1767 H 159.77 4.84835 0.0793299 0
M  V30 1768 N 161.113 -0.173488 1.56642 0
M  V30 1769 C 162.076 -1.19859 1.95362 0
M  V30 1770 C 163.076 -1.37296 0.83704 0
M  V30 1771 O 164.266 -1.34739 1.10413 0
M  V30 1772 C 161.398 -2.56405 2.24654 0
M  V30 1773 H 162.591 -0.867062 2.87092 0
M  V30 1774 H 160.144 -0.415853 1.50666 0
M  V30 1775 H 160.879 -2.94576 1.35631 0
M  V30 1776 H 160.664 -2.45115 3.06041 0
M  V30 1777 H 162.154 -3.30287 2.5554 0
M  V30 1778 N 162.591 -1.51276 -0.441967 0
M  V30 1779 C 163.816 -1.67799 -1.21895 0
M  V30 1780 C 164.241 -0.372864 -1.84367 0
M  V30 1781 O 163.599 0.666501 -1.68604 0
M  V30 1782 C 163.647 -2.79199 -2.28211 0
M  V30 1783 O 162.751 -2.42479 -3.33583 0
M  V30 1784 H 162.092 -0.559649 -0.357336 0
M  V30 1785 H 164.622 -1.97815 -0.522522 0
M  V30 1786 H 164.632 -3.03146 -2.73069 0
M  V30 1787 H 163.307 -3.73906 -1.82118 0
M  V30 1788 H 161.884 -2.29087 -2.94234 0
M  V30 1789 N 164.069 0.697108 -1.41344 0
M  V30 1790 C 165.294 1.49096 -1.44171 0
M  V30 1791 C 165.719 1.88038 -0.0481568 0
M  V30 1792 O 165.077 1.54525 0.948243 0
M  V30 1793 C 165.125 2.73088 -2.3549 0
M  V30 1794 O 164.229 3.70514 -1.81088 0
M  V30 1795 H 163.57 0.448801 -0.489361 0
M  V30 1796 H 166.1 0.856992 -1.85787 0
M  V30 1797 H 166.11 3.21413 -2.51312 0
M  V30 1798 H 164.785 2.44081 -3.36745 0
M  V30 1799 H 163.362 3.29441 -1.74708 0
M  V30 1800 N 165.547 1.27147 0.931209 0
M  V30 1801 C 166.793 1.14455 1.68141 0
M  V30 1802 C 167.148 -0.307172 1.89932 0
M  V30 1803 O 166.441 -1.22158 1.47607 0
M  V30 1804 C 166.635 1.8579 3.05314 0
M  V30 1805 C 166.464 3.3775 2.96909 0
M  V30 1806 C 165.234 4.07062 2.99381 0
M  V30 1807 C 167.432 4.33783 2.76291 0
M  V30 1808 N 165.414 5.45618 2.8138 0
M  V30 1809 C 166.785 5.59582 2.6696 0
M  V30 1810 C 168.84 4.23915 2.61152 0
M  V30 1811 C 167.543 6.76639 2.44033 0
M  V30 1812 C 169.569 5.40689 2.39602 0
M  V30 1813 C 168.931 6.65443 2.3101 0
M  V30 1814 H 165.03 0.473667 0.622225 0
M  V30 1815 H 167.614 1.60568 1.10118 0
M  V30 1816 H 165.785 1.42138 3.61457 0
M  V30 1817 H 167.517 1.65634 3.69253 0
M  V30 1818 H 164.272 3.585 3.09475 0
M  V30 1819 H 164.696 6.184 2.75519 0
M  V30 1820 H 169.338 3.28189 2.66555 0
M  V30 1821 H 167.056 7.72451 2.3737 0
M  V30 1822 H 170.642 5.34932 2.28778 0
M  V30 1823 H 169.522 7.54277 2.14558 0
M  V30 1824 N 167.025 -1.13721 1.09112 0
M  V30 1825 C 167.988 -2.17222 0.731241 0
M  V30 1826 C 168.988 -1.59035 -0.237566 0
M  V30 1827 O 170.178 -1.74192 -0.0161704 0
M  V30 1828 C 167.31 -3.40804 0.0808443 0
M  V30 1829 H 168.503 -2.50573 1.64783 0
M  V30 1830 H 166.056 -1.28493 0.889897 0
M  V30 1831 H 166.791 -3.1304 -0.847127 0
M  V30 1832 H 166.576 -3.84306 0.777896 0
M  V30 1833 H 168.066 -4.1731 -0.155657 0
M  V30 1834 N 168.503 -0.877838 -1.30888 0
M  V30 1835 C 169.728 -0.506629 -2.01117 0
M  V30 1836 C 170.153 0.895564 -1.65412 0
M  V30 1837 O 169.511 1.5923 -0.866922 0
M  V30 1838 C 169.559 -0.680223 -3.54126 0
M  V30 1839 O 168.663 0.277033 -4.11468 0
M  V30 1840 H 168.004 -0.200518 -0.633 0
M  V30 1841 H 170.534 -1.18342 -1.66902 0
M  V30 1842 H 170.544 -0.5765 -4.03907 0
M  V30 1843 H 169.219 -1.70261 -3.79452 0
M  V30 1844 H 167.796 0.127606 -3.72682 0
M  V30 1845 N 169.982 1.44106 -0.638065 0
M  V30 1846 C 170.945 2.29138 0.0531013 0
M  V30 1847 C 171.945 1.41409 0.765506 0
M  V30 1848 O 173.135 1.63206 0.609046 0
M  V30 1849 C 170.267 3.23144 1.08584 0
M  V30 1850 H 171.46 2.91739 -0.694883 0
M  V30 1851 H 169.013 1.51134 -0.398538 0
M  V30 1852 H 169.748 2.65408 1.86357 0
M  V30 1853 H 169.533 3.87804 0.578852 0
M  V30 1854 H 171.023 3.87004 1.56899 0
M  V30 1855 N 171.46 0.379036 1.52974 0
M  V30 1856 C 172.37 -0.468639 2.29872 0
M  V30 1857 C 173.386 -1.08067 1.36373 0
M  V30 1858 O 174.562 -1.08871 1.69438 0
M  V30 1859 C 171.627 -1.58594 3.083 0
M  V30 1860 C 170.688 -1.00007 4.17489 0
M  V30 1861 C 169.921 -2.06413 4.92168 0
M  V30 1862 O 170.144 -3.27751 4.66835 0
M  V30 1863 O 169.078 -1.68717 5.7777 0
M  V30 1864 H 172.904 0.157508 3.03291 0
M  V30 1865 H 170.489 0.143035 1.48714 0
M  V30 1866 H 172.371 -2.23525 3.57232 0
M  V30 1867 H 171.046 -2.19724 2.37703 0
M  V30 1868 H 169.953 -0.314299 3.72777 0
M  V30 1869 H 171.286 -0.433135 4.90291 0
M  V30 1870 N 172.938 -1.57226 0.108567 0
M  V30 1871 C 173.868 -2.17778 -0.84232 0
M  V30 1872 C 174.849 -1.11487 -1.2847 0
M  V30 1873 O 176.034 -1.39681 -1.34918 0
M  V30 1874 C 173.164 -2.76888 -2.09644 0
M  V30 1875 C 172.118 -3.88669 -1.79221 0
M  V30 1876 C 171.444 -4.34541 -3.11574 0
M  V30 1877 C 172.744 -5.11251 -1.06864 0
M  V30 1878 H 174.438 -2.97489 -0.337774 0
M  V30 1879 H 171.984 -1.43097 -0.161025 0
M  V30 1880 H 173.937 -3.17904 -2.76614 0
M  V30 1881 H 172.661 -1.94451 -2.62405 0
M  V30 1882 H 171.32 -3.48213 -1.14644 0
M  V30 1883 H 170.968 -3.48977 -3.62249 0
M  V30 1884 H 170.668 -5.09914 -2.91996 0
M  V30 1885 H 172.192 -4.782 -3.7968 0
M  V30 1886 H 173.606 -5.49352 -1.63968 0
M  V30 1887 H 172.003 -5.9214 -0.974178 0
M  V30 1888 H 173.073 -4.8487 -0.0536168 0
M  V30 1889 N 174.416 0.165178 -1.56732 0
M  V30 1890 C 175.366 1.20917 -1.93295 0
M  V30 1891 C 176.35 1.39488 -0.801985 0
M  V30 1892 O 177.542 1.41356 -1.06525 0
M  V30 1893 C 174.671 2.54718 -2.3016 0
M  V30 1894 C 173.757 2.39815 -3.49785 0
M  V30 1895 N 174.148 1.94637 -4.66851 0
M  V30 1896 C 172.446 2.70623 -3.54513 0
M  V30 1897 C 173.147 1.92344 -5.4898 0
M  V30 1898 N 172.123 2.34978 -4.9019 0
M  V30 1899 H 175.925 0.851675 -2.81289 0
M  V30 1900 H 173.439 0.373399 -1.58049 0
M  V30 1901 H 175.436 3.30165 -2.54552 0
M  V30 1902 H 174.096 2.91265 -1.43508 0
M  V30 1903 H 175.107 1.6488 -4.90953 0
M  V30 1904 H 171.784 3.11167 -2.78354 0
M  V30 1905 H 173.174 1.5906 -6.52801 0
M  V30 1906 N 175.894 1.51508 0.433938 0
M  V30 1907 C 176.857 1.72473 1.50949 0
M  V30 1908 C 177.857 0.594725 1.49398 0
M  V30 1909 O 179.047 0.862315 1.5136 0
M  V30 1910 C 176.179 1.78431 2.90474 0
M  V30 1911 H 177.372 2.68467 1.33662 0
M  V30 1912 H 174.925 1.41549 0.662836 0
M  V30 1913 H 175.66 0.842645 3.13161 0
M  V30 1914 H 175.445 2.60558 2.93005 0
M  V30 1915 H 176.935 1.96479 3.68491 0
M  V30 1916 N 177.372 -0.689602 1.41712 0
M  V30 1917 C 178.783 -1.26973 1.36875 0
M  V30 1918 C 179.134 -1.96124 0.054748 0
M  V30 1919 O 178.259 -1.99141 -0.84687 0
M  V30 1920 C 178.854 -2.30912 2.47922 0
M  V30 1921 C 177.413 -2.84486 2.46464 0
M  V30 1922 C 176.56 -1.58603 2.27465 0
M  V30 1923 H 179.511 -0.48396 1.51141 0
M  V30 1924 H 179.532 -3.12331 2.17323 0
M  V30 1925 H 179.044 -1.80554 3.43543 0
M  V30 1926 H 177.145 -3.39005 1.54617 0
M  V30 1927 H 177.258 -3.34511 3.42986 0
M  V30 1928 H 175.622 -1.84632 1.75451 0
M  V30 1929 H 176.405 -1.10233 3.25121 0
M  V30 1930 N 178.85 -1.27639 -0.924453 0
M  V30 1931 C 180.261 -1.12834 -1.48746 0
M  V30 1932 C 180.612 0.285505 -1.94112 0
M  V30 1933 O 179.737 1.17874 -1.81479 0
M  V30 1934 C 180.332 -2.04217 -2.70334 0
M  V30 1935 C 178.891 -1.93509 -3.22848 0
M  V30 1936 C 178.038 -1.96583 -1.95577 0
M  V30 1937 H 180.989 -1.40484 -0.738233 0
M  V30 1938 H 181.01 -1.59989 -3.4523 0
M  V30 1939 H 180.522 -3.07111 -2.37285 0
M  V30 1940 H 178.623 -0.936131 -3.60649 0
M  V30 1941 H 178.736 -2.79917 -3.88823 0
M  V30 1942 H 177.1 -1.4085 -2.12211 0
M  V30 1943 H 177.883 -3.01137 -1.64837 0
M  V30 1944 N 180.328 1.1314 -1.09713 0
M  V30 1945 C 181.576 1.84119 -0.833338 0
M  V30 1946 C 181.897 1.84097 0.642904 0
M  V30 1947 O 181.167 1.29881 1.46655 0
M  V30 1948 H 179.747 0.681766 -0.305293 0
M  V30 1949 H 182.409 1.37038 -1.38588 0
M  V30 1950 H 181.505 2.88543 -1.18951 0
M  V30 1951 N 181.806 0.884767 1.30421 0
M  V30 1952 C 183.031 0.517288 2.00845 0
M  V30 1953 C 183.456 -0.886779 1.65885 0
M  V30 1954 O 182.814 -1.58768 0.875354 0
M  V30 1955 C 182.862 0.698994 3.5376 0
M  V30 1956 O 181.966 -0.255208 4.1161 0
M  V30 1957 H 181.307 0.203872 0.631927 0
M  V30 1958 H 183.837 1.19225 1.66272 0
M  V30 1959 H 183.847 0.597912 4.03595 0
M  V30 1960 H 182.522 1.72271 3.78544 0
M  V30 1961 H 181.099 -0.10784 3.72744 0
M  V30 1962 N 183.284 -1.43765 0.645699 0
M  V30 1963 C 184.695 -1.85193 0.236719 0
M  V30 1964 C 185.046 -1.54045 -1.21509 0
M  V30 1965 O 184.171 -0.985694 -1.92647 0
M  V30 1966 C 184.766 -3.36151 0.422845 0
M  V30 1967 C 183.325 -3.76338 0.0682492 0
M  V30 1968 C 182.472 -2.67538 0.729306 0
M  V30 1969 H 185.423 -1.34025 0.849883 0
M  V30 1970 H 185.444 -3.79032 -0.333904 0
M  V30 1971 H 184.956 -3.5879 1.47958 0
M  V30 1972 H 183.057 -3.59312 -0.986179 0
M  V30 1973 H 183.17 -4.76603 0.488469 0
M  V30 1974 H 181.534 -2.54176 0.163235 0
M  V30 1975 H 182.317 -2.93006 1.78892 0
M  V30 1976 N 184.763 -0.387143 -1.52771 0
M  V30 1977 C 186.011 0.195349 -2.01154 0
M  V30 1978 C 186.332 1.475 -1.27549 0
M  V30 1979 O 185.602 1.91878 -0.394924 0
M  V30 1980 H 184.182 0.075178 -0.743207 0
M  V30 1981 H 186.844 -0.518337 -1.87881 0
M  V30 1982 H 185.94 0.407096 -3.09434 0
M  V30 1983 N 186.241 1.57166 -0.116904 0
M  V30 1984 C 187.469 1.99473 0.549383 0
M  V30 1985 C 187.884 0.996541 1.60357 0
M  V30 1986 O 187.241 -0.0108731 1.82497 0
M  V30 1987 C 187.292 3.41788 1.17741 0
M  V30 1988 O 187.013 4.37788 0.165362 0
M  V30 1989 C 188.514 3.99216 1.92722 0
M  V30 1990 H 185.734 0.655009 0.145616 0
M  V30 1991 H 188.278 2.03494 -0.202625 0
M  V30 1992 H 186.433 3.38713 1.88021 0
M  V30 1993 H 186.847 5.20806 0.621403 0
M  V30 1994 H 188.321 5.00882 2.31995 0
M  V30 1995 H 188.798 3.3824 2.80161 0
M  V30 1996 H 189.404 4.0583 1.27209 0
M  V30 1997 N 187.719 -0.156864 1.56817 0
M  V30 1998 C 188.944 -0.890331 1.87318 0
M  V30 1999 C 189.369 -1.74394 0.704855 0
M  V30 2000 O 188.727 -1.77972 -0.345786 0
M  V30 2001 C 188.775 -1.73102 3.16336 0
M  V30 2002 O 187.879 -2.83422 2.99576 0
M  V30 2003 H 187.22 -0.24857 0.615718 0
M  V30 2004 H 189.75 -0.150649 2.04045 0
M  V30 2005 H 189.76 -2.12803 3.48107 0
M  V30 2006 H 188.435 -1.10412 4.00976 0
M  V30 2007 H 187.012 -2.47199 2.7919 0
M  V30 2008 N 189.197 -1.51736 -0.425897 0
M  V30 2009 C 190.446 -1.64201 -1.17136 0
M  V30 2010 C 190.759 -0.369705 -1.92074 0
M  V30 2011 O 191.965 -0.373898 -2.68913 0
M  V30 2012 C 190.421 -2.90035 -2.13091 0
M  V30 2013 C 190.029 -4.24312 -1.43747 0
M  V30 2014 C 191.773 -3.1186 -2.87999 0
M  V30 2015 C 189.68 -5.41285 -2.38253 0
M  V30 2016 H 188.61 -0.611624 -0.440944 0
M  V30 2017 H 191.261 -1.78212 -0.437328 0
M  V30 2018 H 189.643 -2.69684 -2.89977 0
M  V30 2019 H 190.817 -4.55086 -0.723408 0
M  V30 2020 H 189.132 -4.08456 -0.809465 0
M  V30 2021 H 191.729 -3.96427 -3.58817 0
M  V30 2022 H 192.072 -2.25403 -3.49999 0
M  V30 2023 H 192.605 -3.32605 -2.18217 0
M  V30 2024 H 189.344 -6.30037 -1.80925 0
M  V30 2025 H 188.864 -5.14872 -3.0768 0
M  V30 2026 H 190.543 -5.73694 -2.99139 0
M  V30 2027 N 190.675 0.682077 -1.42076 0
M  V30 2028 C 191.921 1.44428 -1.42367 0
M  V30 2029 C 192.254 1.94164 -0.0373056 0
M  V30 2030 O 191.529 1.70429 0.937239 0
M  V30 2031 C 191.812 2.64654 -2.44194 0
M  V30 2032 C 191.665 2.20596 -3.91991 0
M  V30 2033 C 192.984 3.66865 -2.431 0
M  V30 2034 H 190.103 0.523834 -0.518428 0
M  V30 2035 H 192.745 0.77576 -1.73442 0
M  V30 2036 H 190.895 3.2169 -2.17826 0
M  V30 2037 H 192.567 1.68783 -4.29313 0
M  V30 2038 H 190.81 1.52242 -4.06208 0
M  V30 2039 H 191.481 3.06921 -4.58807 0
M  V30 2040 H 193.957 3.19531 -2.66532 0
M  V30 2041 H 192.833 4.48577 -3.16339 0
M  V30 2042 H 193.094 4.17493 -1.45437 0
M  V30 2043 N 192.153 1.28127 0.917671 0
M  V30 2044 C 193.101 1.11569 2.04096 0
M  V30 2045 C 194.095 0.0360242 1.69362 0
M  V30 2046 O 195.301 0.194501 1.78946 0
M  V30 2047 H 191.676 0.344097 0.668656 0
M  V30 2048 H 193.647 2.06711 2.15205 0
M  V30 2049 C 192.396 0.790197 3.38602 0
M  V30 2050 H 191.719 1.61293 3.6582 0
M  V30 2051 H 193.159 0.714271 4.1794 0
M  V30 2052 C 191.618 -0.505897 3.3308 0
M  V30 2053 O 192.148 -1.53736 3.71117 0
M  V30 2054 N 190.354 -0.505193 2.86175 0
M  V30 2055 H 189.901 0.334621 2.55417 0
M  V30 2056 H 189.859 -1.37243 2.82863 0
M  V30 2057 N 193.631 -1.12557 1.10312 0
M  V30 2058 C 194.561 -2.20341 0.772798 0
M  V30 2059 C 195.542 -1.68198 -0.25365 0
M  V30 2060 O 196.727 -1.93831 -0.119699 0
M  V30 2061 C 193.857 -3.46709 0.202443 0
M  V30 2062 C 192.811 -4.11996 1.15943 0
M  V30 2063 C 192.137 -5.328 0.450345 0
M  V30 2064 C 193.437 -4.5828 2.50552 0
M  V30 2065 H 195.131 -2.48229 1.674 0
M  V30 2066 H 192.677 -1.19308 0.806326 0
M  V30 2067 H 194.63 -4.2138 -0.0407752 0
M  V30 2068 H 193.354 -3.18245 -0.734001 0
M  V30 2069 H 192.013 -3.39305 1.38808 0
M  V30 2070 H 191.661 -5.00602 -0.490531 0
M  V30 2071 H 191.361 -5.7743 1.08851 0
M  V30 2072 H 192.885 -6.10219 0.215642 0
M  V30 2073 H 194.299 -5.2433 2.31843 0
M  V30 2074 H 192.696 -5.13683 3.10242 0
M  V30 2075 H 193.766 -3.72329 3.10643 0
M  V30 2076 N 195.109 -0.891671 -1.2995 0
M  V30 2077 C 196.337 -0.52866 -2.00032 0
M  V30 2078 C 196.752 0.884574 -1.66795 0
M  V30 2079 O 196.109 1.5827 -0.908669 0
M  V30 2080 C 196.16 -0.701814 -3.54622 0
M  V30 2081 O 195.881 -2.05942 -3.86678 0
M  V30 2082 C 197.382 -0.342683 -4.41973 0
M  V30 2083 H 194.602 -0.203659 -0.639347 0
M  V30 2084 H 197.146 -1.19881 -1.65677 0
M  V30 2085 H 195.301 -0.0789468 -3.8732 0
M  V30 2086 H 195.715 -2.08291 -4.81368 0
M  V30 2087 H 197.189 -0.514709 -5.49595 0
M  V30 2088 H 197.666 0.71975 -4.33262 0
M  V30 2089 H 198.272 -0.942154 -4.14733 0
M  V30 2090 N 196.587 1.43421 -0.653314 0
M  V30 2091 C 197.827 2.03689 -0.170346 0
M  V30 2092 C 198.191 1.50427 1.19314 0
M  V30 2093 O 199.392 2.0234 1.76952 0
M  V30 2094 C 197.663 3.56946 -0.180183 0
M  V30 2095 S 199.222 4.38171 0.234925 0
M  V30 2096 H 196.04 0.707345 -0.0719976 0
M  V30 2097 H 198.642 1.75486 -0.86167 0
M  V30 2098 H 197.346 3.93212 -1.17526 0
M  V30 2099 H 196.877 3.89791 0.531675 0
M  V30 2100 H 198.892 4.73808 1.47378 0
M  V30 2101 N 198.065 0.39524 1.52563 0
M  V30 2102 C 199.293 -0.184943 2.06072 0
M  V30 2103 C 199.708 -1.40021 1.26647 0
M  V30 2104 O 199.065 -1.79767 0.314672 0
M  V30 2105 C 199.116 -0.549179 3.57304 0
M  V30 2106 O 198.837 0.617813 4.33722 0
M  V30 2107 C 200.338 -1.18459 4.2718 0
M  V30 2108 H 197.558 -0.0265025 0.670476 0
M  V30 2109 H 200.102 0.562184 1.96621 0
M  V30 2110 H 198.257 -1.2462 3.66809 0
M  V30 2111 H 198.671 0.317091 5.23541 0
M  V30 2112 H 200.145 -1.38976 5.34219 0
M  V30 2113 H 200.622 -2.15368 3.82771 0
M  V30 2114 H 201.228 -0.528163 4.22008 0
M  V30 2115 N 199.544 -1.57102 0.125237 0
M  V30 2116 C 200.772 -1.99761 -0.538797 0
M  V30 2117 C 201.187 -1.00503 -1.59827 0
M  V30 2118 O 200.544 0.00119474 -1.825 0
M  V30 2119 C 200.595 -3.42408 -1.15927 0
M  V30 2120 O 200.316 -4.37869 -0.142143 0
M  V30 2121 C 201.817 -4.00232 -1.90602 0
M  V30 2122 H 199.037 -0.655772 -0.14214 0
M  V30 2123 H 201.581 -2.03383 0.213413 0
M  V30 2124 H 199.736 -3.39706 -1.86223 0
M  V30 2125 H 200.15 -5.21128 -0.593775 0
M  V30 2126 H 201.624 -5.02105 -2.29335 0
M  V30 2127 H 202.101 -3.39721 -2.78363 0
M  V30 2128 H 202.707 -4.06499 -1.25055 0
M  V30 2129 N 201.022 0.148545 -1.56898 0
M  V30 2130 C 201.97 1.20265 -1.99096 0
M  V30 2131 C 202.964 1.44559 -0.883123 0
M  V30 2132 O 204.17 1.4487 -1.0683 0
M  V30 2133 H 200.545 0.404786 -0.63376 0
M  V30 2134 H 202.516 0.82004 -2.86911 0
M  V30 2135 C 201.265 2.52886 -2.3863 0
M  V30 2136 H 200.588 2.35021 -3.23427 0
M  V30 2137 H 202.028 3.25274 -2.7198 0
M  V30 2138 C 200.487 3.13315 -1.23837 0
M  V30 2139 O 201.017 3.98077 -0.538268 0
M  V30 2140 N 199.223 2.72742 -1.00301 0
M  V30 2141 H 198.77 2.03912 -1.5741 0
M  V30 2142 H 198.728 3.13507 -0.236838 0
M  V30 2143 N 202.5 1.5196 0.417844 0
M  V30 2144 C 203.728 1.69426 1.18753 0
M  V30 2145 C 204.143 0.399955 1.84515 0
M  V30 2146 O 203.5 -0.623288 1.71527 0
M  V30 2147 C 203.551 2.82375 2.25714 0
M  V30 2148 O 203.272 4.06793 1.62638 0
M  V30 2149 C 204.773 3.11277 3.15628 0
M  V30 2150 H 201.993 0.568031 0.357186 0
M  V30 2151 H 204.537 1.98475 0.49273 0
M  V30 2152 H 202.692 2.5587 2.90877 0
M  V30 2153 H 203.106 4.69667 2.3348 0
M  V30 2154 H 204.58 3.93843 3.86771 0
M  V30 2155 H 205.057 2.24473 3.77503 0
M  V30 2156 H 205.663 3.39515 2.56144 0
M  V30 2157 N 203.978 -0.674533 1.42435 0
M  V30 2158 C 205.206 -1.46283 1.46317 0
M  V30 2159 C 205.621 -1.88653 0.0745836 0
M  V30 2160 O 204.978 -1.58151 -0.91074 0
M  V30 2161 C 205.029 -2.71178 2.3905 0
M  V30 2162 O 204.75 -2.30586 3.72507 0
M  V30 2163 C 206.251 -3.64738 2.51955 0
M  V30 2164 H 203.471 -0.450104 0.497642 0
M  V30 2165 H 206.015 -0.828792 1.86953 0
M  V30 2166 H 204.17 -3.3077 2.01667 0
M  V30 2167 H 204.584 -3.11241 4.22172 0
M  V30 2168 H 206.058 -4.49096 3.20962 0
M  V30 2169 H 206.535 -4.10656 1.55752 0
M  V30 2170 H 207.141 -3.11038 2.90061 0
M  V30 2171 N 205.456 -1.28612 -0.910864 0
M  V30 2172 C 206.366 -1.14643 -2.0468 0
M  V30 2173 C 207.382 -0.0723121 -1.7385 0
M  V30 2174 O 208.558 -0.282178 -1.99413 0
M  V30 2175 C 205.623 -0.812561 -3.37044 0
M  V30 2176 C 204.684 -1.96935 -3.81465 0
M  V30 2177 C 203.917 -1.65131 -5.07511 0
M  V30 2178 O 204.14 -0.567013 -5.67575 0
M  V30 2179 O 203.074 -2.49585 -5.47714 0
M  V30 2180 H 206.9 -2.1001 -2.19384 0
M  V30 2181 H 204.485 -1.07958 -1.03274 0
M  V30 2182 H 206.367 -0.640441 -4.16505 0
M  V30 2183 H 205.042 0.111426 -3.23508 0
M  V30 2184 H 203.949 -2.19664 -3.02818 0
M  V30 2185 H 205.282 -2.87414 -3.99567 0
M  V30 2186 N 206.934 1.1197 -1.10907 0
M  V30 2187 C 208.211 1.79959 -0.766432 0
M  V30 2188 C 208.591 1.97466 0.746363 0
M  V30 2189 O 207.939 1.55491 1.67436 0
M  V30 2190 C 208.149 3.14009 -1.52314 0
M  V30 2191 C 209.497 3.89134 -1.69883 0
M  V30 2192 O 210.521 3.2368 -1.48692 0
M  V30 2193 O 209.38 5.06572 -2.05054 0
M  V30 2194 H 206.474 0.779208 -0.277062 0
M  V30 2195 H 209.02 1.18762 -1.21217 0
M  V30 2196 H 207.792 2.96587 -2.55249 0
M  V30 2197 H 207.415 3.82915 -1.07059 0
M  V30 2198 N 208.412 0.89855 1.29475 0
M  V30 2199 C 209.36 0.365253 2.29714 0
M  V30 2200 C 210.354 -0.534993 1.6073 0
M  V30 2201 O 211.56 -0.417921 1.75081 0
M  V30 2202 H 207.935 0.0994853 0.74539 0
M  V30 2203 H 209.906 1.22406 2.72138 0
M  V30 2204 C 208.655 -0.393159 3.4547 0
M  V30 2205 H 207.978 0.290332 3.98744 0
M  V30 2206 H 209.418 -0.731189 4.17648 0
M  V30 2207 C 207.877 -1.59539 2.9673 0
M  V30 2208 O 208.407 -2.69469 2.97908 0
M  V30 2209 N 206.613 -1.43716 2.52575 0
M  V30 2210 H 206.16 -0.542828 2.51816 0
M  V30 2211 H 206.118 -2.24288 2.20323 0
M  V30 2212 N 209.89 -1.43072 0.660911 0
M  V30 2213 C 211.12 -2.05769 0.185153 0
M  V30 2214 C 211.528 -1.49668 -1.15742 0
M  V30 2215 O 210.871 -0.625649 -1.72717 0
M  V30 2216 C 210.933 -3.59489 0.0278237 0
M  V30 2217 C 210.597 -4.38212 1.2969 0
M  V30 2218 C 211.594 -4.69772 2.22734 0
M  V30 2219 C 209.279 -4.7809 1.54063 0
M  V30 2220 C 211.273 -5.40129 3.38437 0
M  V30 2221 C 208.96 -5.4819 2.70058 0
M  V30 2222 C 209.958 -5.79132 3.62071 0
M  V30 2223 O 209.646 -6.47798 4.76039 0
M  V30 2224 H 209.378 -0.669873 0.0908086 0
M  V30 2225 H 211.932 -1.84436 0.90402 0
M  V30 2226 H 210.162 -3.79426 -0.746489 0
M  V30 2227 H 211.851 -4.03862 -0.406275 0
M  V30 2228 H 212.617 -4.39476 2.05149 0
M  V30 2229 H 208.496 -4.53408 0.833215 0
M  V30 2230 H 212.04 -5.64198 4.10277 0
M  V30 2231 H 207.937 -5.77902 2.87574 0
M  V30 2232 H 208.705 -6.66283 4.75404 0
M  V30 2233 N 211.368 -0.403325 -1.52352 0
M  V30 2234 C 212.593 0.176499 -2.06648 0
M  V30 2235 C 213.018 1.38577 -1.27193 0
M  V30 2236 O 212.376 1.7879 -0.300637 0
M  V30 2237 C 212.424 0.511061 -3.5696 0
M  V30 2238 O 211.528 1.60294 -3.79973 0
M  V30 2239 H 210.869 0.0167337 -0.663789 0
M  V30 2240 H 213.399 -0.574848 -1.96359 0
M  V30 2241 H 213.409 0.771362 -4.00642 0
M  V30 2242 H 212.084 -0.37296 -4.14224 0
M  V30 2243 H 210.661 1.33526 -3.48174 0
M  V30 2244 N 212.846 1.57033 -0.133567 0
M  V30 2245 C 214.262 1.58035 0.222944 0
M  V30 2246 C 214.462 1.14713 1.6566 0
M  V30 2247 O 213.518 0.841218 2.38075 0
M  V30 2248 C 214.831 3.00691 -0.0236116 0
M  V30 2249 C 216.379 3.12973 0.0411512 0
M  V30 2250 C 216.854 4.57654 -0.177899 0
M  V30 2251 N 218.345 4.63033 -0.124365 0
M  V30 2252 C 219.08 5.72771 -0.268553 0
M  V30 2253 N 218.576 6.91206 -0.46972 0
M  V30 2254 N 220.369 5.61718 -0.2071 0
M  V30 2255 H 212.52 1.8349 -1.06981 0
M  V30 2256 H 214.783 0.848677 -0.422436 0
M  V30 2257 H 214.489 3.36726 -1.0153 0
M  V30 2258 H 214.363 3.70614 0.701808 0
M  V30 2259 H 216.75 2.76787 1.02338 0
M  V30 2260 H 216.831 2.45564 -0.716383 0
M  V30 2261 H 216.475 4.94542 -1.15717 0
M  V30 2262 H 216.405 5.23173 0.599797 0
M  V30 2263 H 218.896 3.7789 0.027011 0
M  V30 2264 H 219.209 7.70693 -0.570212 0
M  V30 2265 H 217.554 6.93156 -0.505876 0
M  V30 2266 H 220.745 4.68072 -0.0507986 0
M  V30 2267 H 220.918 6.47195 -0.322909 0
M  V30 2268 N 214.325 -0.140222 1.56975 0
M  V30 2269 C 215.255 -1.17456 2.01808 0
M  V30 2270 C 216.236 -1.44415 0.898794 0
M  V30 2271 O 217.421 -1.5522 1.16707 0
M  V30 2272 C 214.551 -2.50607 2.40444 0
M  V30 2273 C 213.505 -2.38155 3.55621 0
M  V30 2274 C 212.831 -3.76078 3.80091 0
M  V30 2275 C 214.131 -1.85991 4.88062 0
M  V30 2276 H 215.825 -0.801743 2.88466 0
M  V30 2277 H 213.371 -0.38422 1.38779 0
M  V30 2278 H 215.324 -3.23197 2.7041 0
M  V30 2279 H 214.048 -2.89737 1.50732 0
M  V30 2280 H 212.707 -1.68016 3.25832 0
M  V30 2281 H 212.355 -4.12656 2.87618 0
M  V30 2282 H 212.055 -3.68606 4.57606 0
M  V30 2283 H 213.579 -4.50206 4.12488 0
M  V30 2284 H 214.993 -2.4838 5.16701 0
M  V30 2285 H 213.39 -1.89393 5.6943 0
M  V30 2286 H 214.46 -0.816023 4.77984 0
M  V30 2287 N 215.803 -1.52179 -0.40978 0
M  V30 2288 C 217.219 -1.40968 -0.74835 0
M  V30 2289 C 217.419 -0.513657 -1.94843 0
M  V30 2290 O 216.475 0.0208026 -2.52491 0
M  V30 2291 C 217.788 -2.83483 -1.0029 0
M  V30 2292 C 219.336 -2.92821 -1.10565 0
M  V30 2293 C 219.811 -4.36303 -1.39296 0
M  V30 2294 N 221.302 -4.39535 -1.46162 0
M  V30 2295 C 222.037 -5.47614 -1.70018 0
M  V30 2296 N 221.533 -6.65812 -1.91483 0
M  V30 2297 N 223.326 -5.35129 -1.72027 0
M  V30 2298 H 215.477 -2.0897 0.380186 0
M  V30 2299 H 217.74 -0.94185 0.107805 0
M  V30 2300 H 217.446 -3.51168 -0.193461 0
M  V30 2301 H 217.32 -3.24487 -1.92323 0
M  V30 2302 H 219.707 -2.25318 -1.90568 0
M  V30 2303 H 219.788 -2.55276 -0.16369 0
M  V30 2304 H 219.432 -5.04366 -0.598109 0
M  V30 2305 H 219.362 -4.71385 -2.34743 0
M  V30 2306 H 221.853 -3.54332 -1.31367 0
M  V30 2307 H 222.166 -7.43964 -2.09134 0
M  V30 2308 H 220.511 -6.68879 -1.88749 0
M  V30 2309 H 223.702 -4.41764 -1.54796 0
M  V30 2310 H 223.875 -6.19433 -1.9028 0
M  V30 2311 N 217.281 0.66697 -1.42791 0
M  V30 2312 C 218.506 1.46004 -1.47301 0
M  V30 2313 C 218.931 1.87894 -0.0880317 0
M  V30 2314 O 218.289 1.56502 0.915253 0
M  V30 2315 C 218.337 2.68031 -2.41229 0
M  V30 2316 O 217.441 3.6659 -1.88906 0
M  V30 2317 H 216.782 0.43832 -0.49877 0
M  V30 2318 H 219.312 0.817391 -1.87563 0
M  V30 2319 H 219.322 3.1601 -2.58073 0
M  V30 2320 H 217.997 2.36883 -3.41847 0
M  V30 2321 H 216.574 3.25661 -1.81656 0
M  V30 2322 N 218.759 1.29093 0.90403 0
M  V30 2323 C 219.989 1.19516 1.68522 0
M  V30 2324 C 220.397 -0.24738 1.87576 0
M  V30 2325 O 219.74 -1.17798 1.40959 0
M  V30 2326 C 219.802 1.83249 3.0929 0
M  V30 2327 C 219.466 3.32531 3.13484 0
M  V30 2328 C 220.463 4.28821 2.93953 0
M  V30 2329 C 218.148 3.73656 3.35688 0
M  V30 2330 C 220.142 5.64212 2.96553 0
M  V30 2331 C 217.829 5.0917 3.37919 0
M  V30 2332 C 218.827 6.04258 3.18373 0
M  V30 2333 O 218.515 7.37298 3.20385 0
M  V30 2334 H 218.247 0.415467 0.533257 0
M  V30 2335 H 220.801 1.70912 1.13922 0
M  V30 2336 H 219.031 1.26358 3.65473 0
M  V30 2337 H 220.72 1.68054 3.69476 0
M  V30 2338 H 221.486 3.98382 2.76616 0
M  V30 2339 H 217.365 3.00101 3.49943 0
M  V30 2340 H 220.909 6.38407 2.81216 0
M  V30 2341 H 216.806 5.39256 3.54787 0
M  V30 2342 H 217.574 7.46048 3.36681 0
M  V30 2343 N 220.237 -1.11381 1.11499 0
M  V30 2344 C 221.169 -2.17207 0.731704 0
M  V30 2345 C 222.182 -1.61066 -0.236957 0
M  V30 2346 O 223.371 -1.78489 -0.0197591 0
M  V30 2347 C 220.471 -3.38846 0.0607624 0
M  V30 2348 C 219.644 -4.24451 1.0564 0
M  V30 2349 C 218.703 -5.24562 0.4149 0
M  V30 2350 O 217.729 -5.59071 1.069 0
M  V30 2351 N 218.931 -5.74651 -0.821943 0
M  V30 2352 H 221.696 -2.50699 1.64225 0
M  V30 2353 H 219.257 -1.26908 1.00529 0
M  V30 2354 H 221.249 -4.02911 -0.380139 0
M  V30 2355 H 219.819 -3.03411 -0.752376 0
M  V30 2356 H 219.039 -3.56833 1.67524 0
M  V30 2357 H 220.327 -4.78486 1.72998 0
M  V30 2358 H 219.725 -5.48797 -1.37252 0
M  V30 2359 H 218.282 -6.40549 -1.20582 0
M  V30 2360 N 221.715 -0.905404 -1.28997 0
M  V30 2361 C 222.961 -0.535039 -1.95615 0
M  V30 2362 C 223.294 0.917404 -1.71165 0
M  V30 2363 O 222.569 1.65123 -1.02785 0
M  V30 2364 C 222.852 -0.834918 -3.50287 0
M  V30 2365 C 222.705 -2.33948 -3.84172 0
M  V30 2366 C 224.024 -0.325318 -4.38896 0
M  V30 2367 H 221.143 -0.195861 -0.710498 0
M  V30 2368 H 223.785 -1.13313 -1.52513 0
M  V30 2369 H 221.935 -0.325904 -3.87131 0
M  V30 2370 H 223.607 -2.91847 -3.57243 0
M  V30 2371 H 221.85 -2.79789 -3.31513 0
M  V30 2372 H 222.521 -2.49987 -4.92149 0
M  V30 2373 H 224.997 -0.761256 -4.09077 0
M  V30 2374 H 223.873 -0.564295 -5.45992 0
M  V30 2375 H 224.134 0.774144 -4.35269 0
M  V30 2376 N 223.193 1.4272 -0.668489 0
M  V30 2377 C 224.418 2.06484 -0.194758 0
M  V30 2378 C 224.843 1.49862 1.13679 0
M  V30 2379 O 224.201 0.614582 1.70565 0
M  V30 2380 C 224.249 3.60353 -0.133546 0
M  V30 2381 O 223.353 4.02464 0.899806 0
M  V30 2382 H 222.694 0.656137 -0.10188 0
M  V30 2383 H 225.224 1.82964 -0.915722 0
M  V30 2384 H 225.234 4.07976 0.0447041 0
M  V30 2385 H 223.909 4.00938 -1.1055 0
M  V30 2386 H 222.486 3.66402 0.693109 0
M  V30 2387 N 224.671 0.411399 1.52136 0
M  V30 2388 C 225.601 -0.404015 2.29978 0
M  V30 2389 C 226.582 -1.04412 1.34284 0
M  V30 2390 O 227.767 -1.0527 1.63192 0
M  V30 2391 C 224.897 -1.5197 3.12286 0
M  V30 2392 C 223.851 -1.00448 4.16046 0
M  V30 2393 C 223.177 -2.21393 4.86712 0
M  V30 2394 C 224.477 -0.0569336 5.22269 0
M  V30 2395 H 226.171 0.245529 2.98392 0
M  V30 2396 H 223.717 0.119525 1.43503 0
M  V30 2397 H 225.67 -2.09715 3.6551 0
M  V30 2398 H 224.394 -2.19716 2.41646 0
M  V30 2399 H 223.053 -0.449421 3.63835 0
M  V30 2400 H 222.701 -2.87699 4.12599 0
M  V30 2401 H 222.401 -1.87571 5.56858 0
M  V30 2402 H 223.925 -2.7974 5.4275 0
M  V30 2403 H 225.339 -0.54325 5.7072 0
M  V30 2404 H 223.736 0.192594 5.99791 0
M  V30 2405 H 224.806 0.887663 4.76706 0
M  V30 2406 N 226.149 -1.5696 0.141893 0
M  V30 2407 C 227.099 -2.13074 -0.811383 0
M  V30 2408 C 228.083 -1.05726 -1.21288 0
M  V30 2409 O 229.275 -1.31914 -1.18015 0
M  V30 2410 C 226.404 -2.75186 -2.0525 0
M  V30 2411 C 225.49 -3.8965 -1.67432 0
M  V30 2412 N 225.881 -4.95733 -1.0041 0
M  V30 2413 C 224.179 -4.00262 -1.96739 0
M  V30 2414 C 224.88 -5.75858 -0.822345 0
M  V30 2415 N 223.856 -5.26452 -1.3546 0
M  V30 2416 H 227.658 -2.92465 -0.290031 0
M  V30 2417 H 225.172 -1.6229 -0.0598218 0
M  V30 2418 H 227.169 -3.13745 -2.74535 0
M  V30 2419 H 225.829 -1.97266 -2.57907 0
M  V30 2420 H 226.84 -5.13607 -0.665441 0
M  V30 2421 H 223.517 -3.33412 -2.51282 0
M  V30 2422 H 224.907 -6.71254 -0.294496 0
M  V30 2423 N 227.627 0.131896 -1.57047 0
M  V30 2424 C 228.867 0.847972 -1.85981 0
M  V30 2425 C 229.231 1.77655 -0.7282 0
M  V30 2426 O 230.432 2.53322 -0.898968 0
M  V30 2427 C 228.703 1.58919 -3.20124 0
M  V30 2428 S 230.262 2.34862 -3.70655 0
M  V30 2429 H 227.08 0.283273 -0.652133 0
M  V30 2430 H 229.682 0.107057 -1.95207 0
M  V30 2431 H 228.386 0.898771 -4.00438 0
M  V30 2432 H 227.917 2.37073 -3.13942 0
M  V30 2433 H 229.932 3.60344 -3.41126 0
M  V30 2434 N 229.106 1.52395 0.401703 0
M  V30 2435 C 230.334 1.70676 1.16949 0
M  V30 2436 C 230.749 0.419503 1.8408 0
M  V30 2437 O 230.106 -0.605061 1.72178 0
M  V30 2438 C 230.157 2.84753 2.22706 0
M  V30 2439 O 229.878 4.08495 1.58314 0
M  V30 2440 C 231.379 3.14608 3.12309 0
M  V30 2441 H 228.599 0.571787 0.351142 0
M  V30 2442 H 231.143 1.98987 0.471652 0
M  V30 2443 H 229.298 2.58941 2.88147 0
M  V30 2444 H 229.712 4.72117 2.28485 0
M  V30 2445 H 231.186 3.97923 3.82572 0
M  V30 2446 H 231.663 2.28464 3.75101 0
M  V30 2447 H 232.269 3.42212 2.52529 0
M  V30 2448 N 230.584 -0.659388 1.43143 0
M  V30 2449 C 231.83 -1.41984 1.45644 0
M  V30 2450 C 232.185 -1.92245 0.0771718 0
M  V30 2451 O 231.478 -1.68976 -0.903205 0
M  V30 2452 C 231.672 -2.62206 2.42864 0
M  V30 2453 C 231.501 -2.23711 3.90107 0
M  V30 2454 C 230.271 -2.12332 4.58523 0
M  V30 2455 C 232.469 -1.84384 4.80112 0
M  V30 2456 N 230.451 -1.67102 5.9072 0
M  V30 2457 C 231.822 -1.5019 6.01534 0
M  V30 2458 C 233.877 -1.71512 4.67427 0
M  V30 2459 C 232.58 -1.04414 7.11681 0
M  V30 2460 C 234.606 -1.27142 5.77572 0
M  V30 2461 C 233.968 -0.938808 6.98116 0
M  V30 2462 H 230.067 -0.515448 0.588079 0
M  V30 2463 H 232.651 -0.759409 1.79279 0
M  V30 2464 H 230.822 -3.25917 2.11265 0
M  V30 2465 H 232.554 -3.28877 2.35843 0
M  V30 2466 H 229.309 -2.31893 4.12944 0
M  V30 2467 H 229.733 -1.46866 6.60878 0
M  V30 2468 H 234.375 -1.95868 3.74694 0
M  V30 2469 H 232.093 -0.788061 8.04248 0
M  V30 2470 H 235.679 -1.17681 5.69774 0
M  V30 2471 H 234.559 -0.6007 7.81896 0
M  V30 2472 N 232.062 -1.29571 -0.897171 0
M  V30 2473 C 232.992 -1.17473 -2.01798 0
M  V30 2474 C 233.973 -0.068323 -1.69963 0
M  V30 2475 O 235.158 -0.248239 -1.92607 0
M  V30 2476 C 232.288 -0.853099 -3.36659 0
M  V30 2477 C 231.242 -1.9161 -3.82713 0
M  V30 2478 C 230.568 -1.44773 -5.14728 0
M  V30 2479 C 231.868 -3.32535 -4.02763 0
M  V30 2480 H 233.562 -2.11237 -2.12177 0
M  V30 2481 H 231.108 -1.01699 -1.01948 0
M  V30 2482 H 233.061 -0.755165 -4.14578 0
M  V30 2483 H 231.785 0.120236 -3.26379 0
M  V30 2484 H 230.444 -2.00346 -3.07013 0
M  V30 2485 H 230.092 -0.462995 -5.00865 0
M  V30 2486 H 229.792 -2.15865 -5.46513 0
M  V30 2487 H 231.316 -1.36334 -5.95185 0
M  V30 2488 H 232.73 -3.26626 -4.71156 0
M  V30 2489 H 231.127 -4.01607 -4.45905 0
M  V30 2490 H 232.197 -3.75326 -3.07016 0
M  V30 2491 N 233.54 1.10788 -1.12088 0
M  V30 2492 C 234.786 1.82942 -0.875226 0
M  V30 2493 C 235.119 1.84779 0.597538 0
M  V30 2494 O 234.394 1.30578 1.44152 0
M  V30 2495 C 234.677 3.29789 -1.44606 0
M  V30 2496 C 234.53 3.36307 -2.98693 0
M  V30 2497 C 235.849 4.26064 -1.10261 0
M  V30 2498 H 232.968 0.664195 -0.319397 0
M  V30 2499 H 235.61 1.29867 -1.38689 0
M  V30 2500 H 233.76 3.75118 -1.01089 0
M  V30 2501 H 235.432 2.99487 -3.50864 0
M  V30 2502 H 233.675 2.76318 -3.34411 0
M  V30 2503 H 234.346 4.39694 -3.33726 0
M  V30 2504 H 236.822 3.88951 -1.4784 0
M  V30 2505 H 235.698 5.27183 -1.52869 0
M  V30 2506 H 235.959 4.42098 -0.0142953 0
M  V30 2507 N 235.018 0.912232 1.28515 0
M  V30 2508 C 236.266 0.543523 1.94654 0
M  V30 2509 C 236.587 -0.9155 1.72173 0
M  V30 2510 O 235.857 -1.64708 1.06058 0
M  V30 2511 H 234.437 0.198017 0.720277 0
M  V30 2512 H 237.099 1.16126 1.56527 0
M  V30 2513 H 236.195 0.736684 3.03281 0
M  V30 2514 N 236.496 -1.42363 0.676048 0
M  V30 2515 C 237.724 -2.05859 0.207268 0
M  V30 2516 C 238.139 -1.50796 -1.13605 0
M  V30 2517 O 237.496 -0.648265 -1.70598 0
M  V30 2518 C 237.547 -3.61248 0.134975 0
M  V30 2519 O 237.268 -4.1427 1.42521 0
M  V30 2520 C 238.769 -4.41859 -0.357151 0
M  V30 2521 H 235.989 -0.663431 0.100503 0
M  V30 2522 H 238.533 -1.82479 0.923136 0
M  V30 2523 H 236.688 -3.83735 -0.531588 0
M  V30 2524 H 237.102 -5.0815 1.29939 0
M  V30 2525 H 238.576 -5.50847 -0.356641 0
M  V30 2526 H 239.053 -4.16536 -1.39264 0
M  V30 2527 H 239.659 -4.24392 0.27772 0
M  V30 2528 N 237.974 -0.419461 -1.51915 0
M  V30 2529 C 239.251 0.211999 -1.94448 0
M  V30 2530 C 239.631 1.61703 -1.35703 0
M  V30 2531 O 238.979 2.22102 -0.536931 0
M  V30 2532 C 239.189 0.207872 -3.4838 0
M  V30 2533 C 240.537 0.422192 -4.22496 0
M  V30 2534 O 241.561 0.286778 -3.55044 0
M  V30 2535 O 240.42 0.690009 -5.42126 0
M  V30 2536 H 237.514 0.139586 -0.815135 0
M  V30 2537 H 240.06 -0.476151 -1.62883 0
M  V30 2538 H 238.832 -0.775102 -3.83546 0
M  V30 2539 H 238.455 0.939688 -3.86336 0
M  V30 2540 N 239.452 1.56882 -0.150215 0
M  V30 2541 C 240.415 2.1573 0.774157 0
M  V30 2542 C 241.415 1.0999 1.17298 0
M  V30 2543 O 242.605 1.35613 1.09338 0
M  V30 2544 C 239.737 2.72302 2.05096 0
M  V30 2545 H 240.93 2.98752 0.262201 0
M  V30 2546 H 238.483 1.55985 0.099248 0
M  V30 2547 H 239.218 1.92956 2.6065 0
M  V30 2548 H 239.003 3.49665 1.77416 0
M  V30 2549 H 240.493 3.17632 2.71109 0
M  V30 2550 N 240.93 -0.123565 1.57115 0
M  V30 2551 C 242.341 -0.681198 1.73829 0
M  V30 2552 C 242.692 -1.80535 0.768214 0
M  V30 2553 O 241.817 -2.16317 -0.0599103 0
M  V30 2554 C 242.412 -1.24246 3.15196 0
M  V30 2555 C 240.971 -1.74643 3.33432 0
M  V30 2556 C 240.118 -0.644284 2.69711 0
M  V30 2557 H 243.069 0.102315 1.5837 0
M  V30 2558 H 243.09 -2.11216 3.16493 0
M  V30 2559 H 242.602 -0.424062 3.85776 0
M  V30 2560 H 240.703 -2.58974 2.67886 0
M  V30 2561 H 240.816 -1.85902 4.41562 0
M  V30 2562 H 239.18 -1.07676 2.3082 0
M  V30 2563 H 239.963 0.163058 3.42913 0
M  V30 2564 N 242.408 -1.52605 -0.393616 0
M  V30 2565 C 243.318 -1.79971 -1.50492 0
M  V30 2566 C 244.334 -0.686181 -1.59899 0
M  V30 2567 O 245.51 -0.973274 -1.76322 0
M  V30 2568 C 242.575 -1.95867 -2.86072 0
M  V30 2569 C 241.636 -3.19781 -2.86424 0
M  V30 2570 C 240.869 -3.34909 -4.15538 0
M  V30 2571 O 241.092 -2.54948 -5.10253 0
M  V30 2572 O 240.026 -4.28141 -4.23059 0
M  V30 2573 H 243.852 -2.74328 -1.30299 0
M  V30 2574 H 241.437 -1.3764 -0.581005 0
M  V30 2575 H 243.319 -2.08056 -3.66457 0
M  V30 2576 H 241.994 -1.04699 -3.063 0
M  V30 2577 H 240.901 -3.13038 -2.04837 0
M  V30 2578 H 242.234 -4.1078 -2.71147 0
M  V30 2579 N 243.887 0.651787 -1.4349 0
M  V30 2580 C 245.164 1.40909 -1.35661 0
M  V30 2581 C 245.544 2.11099 -0.00511733 0
M  V30 2582 O 244.892 2.04892 1.0115 0
M  V30 2583 C 245.102 2.3926 -2.54078 0
M  V30 2584 C 246.45 3.03217 -2.97228 0
M  V30 2585 O 247.474 2.49588 -2.54135 0
M  V30 2586 O 246.333 4.00455 -3.71885 0
M  V30 2587 H 243.427 0.629625 -0.536191 0
M  V30 2588 H 245.973 0.678575 -1.55542 0
M  V30 2589 H 244.745 1.86352 -3.44076 0
M  V30 2590 H 244.368 3.1976 -2.36303 0
M  V30 2591 N 245.365 1.30045 0.890287 0
M  V30 2592 C 246.593 1.21472 1.67487 0
M  V30 2593 C 247.008 -0.223241 1.87476 0
M  V30 2594 O 246.365 -1.14828 1.41847 0
M  V30 2595 C 246.416 1.93394 3.05419 0
M  V30 2596 O 246.137 3.31576 2.86337 0
M  V30 2597 C 247.638 1.91414 3.99844 0
M  V30 2598 H 244.858 0.420604 0.522813 0
M  V30 2599 H 247.402 1.7158 1.11268 0
M  V30 2600 H 245.557 1.47099 3.58386 0
M  V30 2601 H 245.971 3.67929 3.73802 0
M  V30 2602 H 247.445 2.46285 4.94012 0
M  V30 2603 H 247.922 0.891833 4.3005 0
M  V30 2604 H 248.528 2.37496 3.52811 0
M  V30 2605 N 246.843 -1.10192 1.12674 0
M  V30 2606 C 247.775 -2.16418 0.754701 0
M  V30 2607 C 248.788 -1.61309 -0.21986 0
M  V30 2608 O 249.977 -1.785 -0.000826841 0
M  V30 2609 C 247.077 -3.38762 0.096698 0
M  V30 2610 C 246.25 -4.23307 1.10136 0
M  V30 2611 C 245.309 -5.24092 0.470513 0
M  V30 2612 O 244.335 -5.57906 1.12824 0
M  V30 2613 N 245.537 -5.75491 -0.760948 0
M  V30 2614 H 248.302 -2.48943 1.66875 0
M  V30 2615 H 245.863 -1.25834 1.01869 0
M  V30 2616 H 247.855 -4.03291 -0.337384 0
M  V30 2617 H 246.425 -3.04192 -0.720153 0
M  V30 2618 H 245.645 -3.55036 1.71299 0
M  V30 2619 H 246.933 -4.76624 1.78064 0
M  V30 2620 H 246.331 -5.50222 -1.31424 0
M  V30 2621 H 244.888 -6.41792 -1.13781 0
M  V30 2622 N 248.321 -0.919034 -1.28029 0
M  V30 2623 C 249.551 -0.570143 -1.98577 0
M  V30 2624 C 249.959 0.854172 -1.68821 0
M  V30 2625 O 249.302 1.57807 -0.940351 0
M  V30 2626 C 249.364 -0.705734 -3.52505 0
M  V30 2627 C 249.028 -2.10057 -4.05863 0
M  V30 2628 C 250.025 -3.07385 -4.19298 0
M  V30 2629 C 247.71 -2.41517 -4.40426 0
M  V30 2630 C 249.704 -4.34287 -4.66555 0
M  V30 2631 C 247.391 -3.68657 -4.87376 0
M  V30 2632 C 248.389 -4.64856 -5.00398 0
M  V30 2633 O 248.077 -5.89735 -5.46322 0
M  V30 2634 H 247.809 -0.215592 -0.6407 0
M  V30 2635 H 250.363 -1.23583 -1.64062 0
M  V30 2636 H 248.593 0.0170414 -3.86696 0
M  V30 2637 H 250.282 -0.363172 -4.04272 0
M  V30 2638 H 251.048 -2.84398 -3.92865 0
M  V30 2639 H 246.927 -1.67389 -4.29537 0
M  V30 2640 H 250.471 -5.09377 -4.76635 0
M  V30 2641 H 246.368 -3.91466 -5.13249 0
M  V30 2642 H 247.136 -5.92599 -5.64596 0
M  V30 2643 N 249.799 1.42003 -0.683588 0
M  V30 2644 C 251.046 2.01413 -0.209514 0
M  V30 2645 C 251.374 1.54088 1.1869 0
M  V30 2646 O 250.629 0.737591 1.81268 0
M  V30 2647 C 250.928 3.56827 -0.202357 0
M  V30 2648 C 250.594 4.23617 -1.54464 0
M  V30 2649 C 249.256 4.41577 -1.91215 0
M  V30 2650 C 251.608 4.61178 -2.42826 0
M  V30 2651 C 248.936 4.9437 -3.15935 0
M  V30 2652 C 251.288 5.15355 -3.66867 0
M  V30 2653 C 249.952 5.31528 -4.03776 0
M  V30 2654 H 249.222 0.737023 -0.0766668 0
M  V30 2655 H 251.869 1.70067 -0.880312 0
M  V30 2656 H 250.174 3.87892 0.551969 0
M  V30 2657 H 251.871 4.00588 0.181793 0
M  V30 2658 H 248.461 4.10004 -1.24877 0
M  V30 2659 H 252.645 4.46968 -2.15717 0
M  V30 2660 H 247.901 5.05076 -3.44541 0
M  V30 2661 H 252.075 5.43402 -4.35531 0
M  V30 2662 H 249.702 5.72199 -5.00492 0
M  V30 2663 N 251.277 0.427512 1.51691 0
M  V30 2664 C 252.207 -0.3796 2.30394 0
M  V30 2665 C 253.188 -1.02982 1.35384 0
M  V30 2666 O 254.373 -1.03534 1.643 0
M  V30 2667 C 251.503 -1.48649 3.1388 0
M  V30 2668 C 250.457 -0.960294 4.17088 0
M  V30 2669 C 249.783 -2.16219 4.89033 0
M  V30 2670 C 251.083 -0.00153679 5.223 0
M  V30 2671 H 252.777 0.277164 2.98114 0
M  V30 2672 H 250.323 0.134739 1.43368 0
M  V30 2673 H 252.276 -2.05826 3.67714 0
M  V30 2674 H 251 -2.1714 2.43962 0
M  V30 2675 H 249.659 -0.410806 3.64291 0
M  V30 2676 H 249.307 -2.83307 4.15628 0
M  V30 2677 H 249.007 -1.81654 5.58816 0
M  V30 2678 H 250.531 -2.73968 5.45687 0
M  V30 2679 H 251.945 -0.482687 5.71264 0
M  V30 2680 H 250.342 0.256199 5.99553 0
M  V30 2681 H 251.412 0.938174 4.75738 0
M  V30 2682 N 252.755 -1.56801 0.158532 0
M  V30 2683 C 253.985 -2.00568 -0.495583 0
M  V30 2684 C 254.393 -1.03774 -1.58201 0
M  V30 2685 O 253.736 -0.0285797 -1.83678 0
M  V30 2686 C 253.798 -3.40768 -1.14532 0
M  V30 2687 C 253.462 -4.56553 -0.202101 0
M  V30 2688 C 254.459 -5.16714 0.574675 0
M  V30 2689 C 252.144 -5.02197 -0.101648 0
M  V30 2690 C 254.138 -6.20939 1.43924 0
M  V30 2691 C 251.825 -6.06274 0.766508 0
M  V30 2692 C 252.823 -6.65515 1.53555 0
M  V30 2693 O 252.511 -7.67575 2.38922 0
M  V30 2694 H 252.243 -0.662893 -0.13247 0
M  V30 2695 H 254.797 -2.03829 0.253559 0
M  V30 2696 H 253.027 -3.34381 -1.94233 0
M  V30 2697 H 254.716 -3.6857 -1.70033 0
M  V30 2698 H 255.482 -4.82341 0.507167 0
M  V30 2699 H 251.361 -4.55807 -0.689994 0
M  V30 2700 H 254.905 -6.67107 2.03996 0
M  V30 2701 H 250.802 -6.40073 0.835266 0
M  V30 2702 H 251.57 -7.84844 2.32296 0
M  V30 2703 N 254.233 0.115231 -1.57178 0
M  V30 2704 C 255.463 0.835224 -1.88964 0
M  V30 2705 C 255.871 1.73774 -0.74829 0
M  V30 2706 O 255.214 1.81401 0.289739 0
M  V30 2707 C 255.276 1.7178 -3.15804 0
M  V30 2708 C 254.94 0.989198 -4.46166 0
M  V30 2709 C 255.937 0.328263 -5.18863 0
M  V30 2710 C 253.622 0.969256 -4.9286 0
M  V30 2711 C 255.616 -0.342873 -6.36477 0
M  V30 2712 C 253.303 0.294324 -6.10391 0
M  V30 2713 C 254.301 -0.360582 -6.82048 0
M  V30 2714 O 253.989 -1.02474 -7.97342 0
M  V30 2715 H 253.721 0.245197 -0.629964 0
M  V30 2716 H 256.275 0.10303 -2.05141 0
M  V30 2717 H 254.505 2.49173 -2.95719 0
M  V30 2718 H 256.194 2.31255 -3.33581 0
M  V30 2719 H 256.96 0.335263 -4.8384 0
M  V30 2720 H 252.839 1.46844 -4.36987 0
M  V30 2721 H 256.383 -0.854629 -6.92345 0
M  V30 2722 H 252.28 0.285099 -6.4487 0
M  V30 2723 H 253.048 -0.929594 -8.13204 0
M  V30 2724 N 255.711 1.52812 0.385517 0
M  V30 2725 C 257.127 1.4214 0.725829 0
M  V30 2726 C 257.327 0.544589 1.94001 0
M  V30 2727 O 256.383 0.0193693 2.52493 0
M  V30 2728 C 257.696 2.85042 0.957668 0
M  V30 2729 C 259.244 2.94543 1.05892 0
M  V30 2730 C 259.719 4.38464 1.32337 0
M  V30 2731 N 261.21 4.41804 1.39151 0
M  V30 2732 C 261.945 5.5025 1.61285 0
M  V30 2733 N 261.441 6.68775 1.80866 0
M  V30 2734 N 263.234 5.37798 1.63492 0
M  V30 2735 H 255.385 2.08338 -0.413383 0
M  V30 2736 H 257.648 0.940016 -0.122775 0
M  V30 2737 H 257.354 3.51431 0.137568 0
M  V30 2738 H 257.228 3.27505 1.87137 0
M  V30 2739 H 259.615 2.28321 1.86959 0
M  V30 2740 H 259.696 2.55504 0.123057 0
M  V30 2741 H 259.34 5.05254 0.517793 0
M  V30 2742 H 259.27 4.75059 2.27214 0
M  V30 2743 H 261.761 3.56377 1.25713 0
M  V30 2744 H 262.074 7.47197 1.97271 0
M  V30 2745 H 260.419 6.71797 1.78083 0
M  V30 2746 H 263.61 4.44171 1.47749 0
M  V30 2747 H 263.783 6.22382 1.80402 0
M  V30 2748 N 257.189 -0.644168 1.43834 0
M  V30 2749 C 258.419 -1.42939 1.49171 0
M  V30 2750 C 258.827 -1.88874 0.111048 0
M  V30 2751 O 258.17 -1.60656 -0.8908 0
M  V30 2752 C 258.232 -2.69151 2.38324 0
M  V30 2753 C 257.896 -2.45097 3.85715 0
M  V30 2754 C 258.893 -2.07747 4.76589 0
M  V30 2755 C 256.578 -2.59141 4.30292 0
M  V30 2756 C 258.572 -1.8475 6.10038 0
M  V30 2757 C 256.259 -2.35759 5.63792 0
M  V30 2758 C 257.257 -1.9862 6.53482 0
M  V30 2759 O 256.945 -1.75489 7.84512 0
M  V30 2760 H 256.677 -0.445271 0.508635 0
M  V30 2761 H 259.231 -0.79621 1.8934 0
M  V30 2762 H 257.461 -3.3506 1.93058 0
M  V30 2763 H 259.15 -3.31123 2.3476 0
M  V30 2764 H 259.916 -1.96465 4.43426 0
M  V30 2765 H 255.795 -2.87022 3.60749 0
M  V30 2766 H 259.339 -1.55686 6.80006 0
M  V30 2767 H 255.236 -2.46646 5.9652 0
M  V30 2768 H 256.004 -1.89841 7.9618 0
M  V30 2769 N 258.668 -1.30515 -0.883378 0
M  V30 2770 C 259.916 -1.19194 -1.63209 0
M  V30 2771 C 260.237 0.253205 -1.93349 0
M  V30 2772 O 259.507 1.17025 -1.57105 0
M  V30 2773 H 258.087 -0.438148 -0.605009 0
M  V30 2774 H 260.749 -1.63663 -1.05832 0
M  V30 2775 H 259.845 -1.75396 -2.58153 0
M  V30 2776 N 260.146 1.09593 -1.13257 0
M  V30 2777 C 261.371 1.8604 -0.916732 0
M  V30 2778 C 261.796 1.80504 0.529146 0
M  V30 2779 O 261.154 1.18127 1.37534 0
M  V30 2780 C 261.202 3.32017 -1.40703 0
M  V30 2781 O 260.306 4.08141 -0.591153 0
M  V30 2782 H 259.647 0.576943 -0.328683 0
M  V30 2783 H 262.177 1.38405 -1.50682 0
M  V30 2784 H 262.187 3.82865 -1.4099 0
M  V30 2785 H 260.862 3.35361 -2.45979 0
M  V30 2786 H 259.439 3.67084 -0.656005 0
M  V30 2787 N 261.624 0.925811 1.2754 0
M  V30 2788 C 262.87 0.575575 1.95086 0
M  V30 2789 C 263.225 -0.873246 1.71441 0
M  V30 2790 O 262.518 -1.61443 1.03183 0
M  V30 2791 C 262.712 0.835296 3.47502 0
M  V30 2792 C 262.541 2.30781 3.85967 0
M  V30 2793 C 261.311 2.96017 4.09514 0
M  V30 2794 C 263.509 3.28519 3.95702 0
M  V30 2795 N 261.491 4.3344 4.34744 0
M  V30 2796 C 262.862 4.51146 4.25285 0
M  V30 2797 C 264.917 3.23753 3.7827 0
M  V30 2798 C 263.62 5.69606 4.39251 0
M  V30 2799 C 265.646 4.41523 3.9346 0
M  V30 2800 C 265.008 5.62928 4.23428 0
M  V30 2801 H 261.107 0.260711 0.737261 0
M  V30 2802 H 263.691 1.19204 1.53943 0
M  V30 2803 H 261.862 0.248005 3.87607 0
M  V30 2804 H 263.594 0.447878 4.02214 0
M  V30 2805 H 260.349 2.46695 4.04275 0
M  V30 2806 H 260.773 5.04528 4.5142 0
M  V30 2807 H 265.415 2.3096 3.54143 0
M  V30 2808 H 263.133 6.62866 4.62205 0
M  V30 2809 H 266.719 4.39351 3.81394 0
M  V30 2810 H 265.599 6.52538 4.34929 0
M  V30 2811 N 263.102 -1.41638 0.69111 0
M  V30 2812 C 264.33 -2.05628 0.22909 0
M  V30 2813 C 264.745 -1.51992 -1.11999 0
M  V30 2814 O 264.102 -0.666322 -1.69901 0
M  V30 2815 C 264.153 -3.61084 0.173283 0
M  V30 2816 O 263.874 -4.12735 1.46907 0
M  V30 2817 C 265.375 -4.42213 -0.310266 0
M  V30 2818 H 262.595 -0.662327 0.107534 0
M  V30 2819 H 265.139 -1.81489 0.942438 0
M  V30 2820 H 263.294 -3.84278 -0.490858 0
M  V30 2821 H 263.708 -5.06743 1.35322 0
M  V30 2822 H 265.182 -5.51194 -0.298196 0
M  V30 2823 H 265.659 -4.1799 -1.34838 0
M  V30 2824 H 266.265 -4.24074 0.322716 0
M  V30 2825 N 264.58 -0.43555 -1.51462 0
M  V30 2826 C 265.49 0.383001 -2.31453 0
M  V30 2827 C 266.506 1.02931 -1.4029 0
M  V30 2828 O 267.682 1.02507 -1.73362 0
M  V30 2829 C 264.747 1.47043 -3.13973 0
M  V30 2830 C 263.808 0.844433 -4.20913 0
M  V30 2831 C 263.041 1.88004 -4.9949 0
M  V30 2832 O 263.264 3.10199 -4.78678 0
M  V30 2833 O 262.198 1.47157 -5.83634 0
M  V30 2834 H 266.024 -0.269964 -3.02498 0
M  V30 2835 H 263.609 -0.19813 -1.4808 0
M  V30 2836 H 265.491 2.10113 -3.65281 0
M  V30 2837 H 264.166 2.10751 -2.45695 0
M  V30 2838 H 263.073 0.175729 -3.73687 0
M  V30 2839 H 264.406 0.250869 -4.9156 0
M  V30 2840 N 266.058 1.56714 -0.166846 0
M  V30 2841 C 266.968 2.21331 0.777791 0
M  V30 2842 C 267.984 1.20358 1.25658 0
M  V30 2843 O 269.16 1.53005 1.30964 0
M  V30 2844 C 266.225 2.83787 1.99163 0
M  V30 2845 C 265.286 3.99947 1.56016 0
M  V30 2846 C 264.519 4.59415 2.71613 0
M  V30 2847 O 264.742 4.17769 3.88362 0
M  V30 2848 O 263.676 5.49359 2.45945 0
M  V30 2849 H 267.502 3.02605 0.257636 0
M  V30 2850 H 265.087 1.49275 0.0611393 0
M  V30 2851 H 266.969 3.23405 2.70161 0
M  V30 2852 H 265.644 2.05513 2.50092 0
M  V30 2853 H 264.551 3.65007 0.819809 0
M  V30 2854 H 265.884 4.79801 1.09782 0
M  V30 2855 N 267.536 -0.106894 1.57237 0
M  V30 2856 C 268.776 -0.818277 1.87306 0
M  V30 2857 C 269.14 -1.76474 0.756371 0
M  V30 2858 O 270.341 -2.5186 0.939155 0
M  V30 2859 C 268.612 -1.53806 3.22612 0
M  V30 2860 S 270.171 -2.28935 3.74345 0
M  V30 2861 H 266.989 -0.272862 0.656557 0
M  V30 2862 H 269.591 -0.075988 1.95352 0
M  V30 2863 H 268.295 -0.834951 4.01817 0
M  V30 2864 H 267.826 -2.32049 3.17674 0
M  V30 2865 H 269.841 -3.54871 3.46815 0
M  V30 2866 N 269.014 -1.53014 -0.377408 0
M  V30 2867 C 269.946 -1.74884 -1.48149 0
M  V30 2868 C 270.959 -0.629433 -1.5014 0
M  V30 2869 O 272.148 -0.905416 -1.53833 0
M  V30 2870 C 269.248 -1.80299 -2.86959 0
M  V30 2871 C 268.421 -3.09776 -3.08801 0
M  V30 2872 C 267.48 -3.06586 -4.27658 0
M  V30 2873 O 266.506 -3.80419 -4.23403 0
M  V30 2874 N 267.708 -2.26578 -5.34455 0
M  V30 2875 H 270.473 -2.70147 -1.29771 0
M  V30 2876 H 268.034 -1.51646 -0.56703 0
M  V30 2877 H 270.026 -1.75657 -3.64591 0
M  V30 2878 H 268.596 -0.92372 -2.98641 0
M  V30 2879 H 267.816 -3.27815 -2.18931 0
M  V30 2880 H 269.104 -3.95366 -3.20255 0
M  V30 2881 H 268.502 -1.66081 -5.40771 0
M  V30 2882 H 267.059 -2.27766 -6.10709 0
M  V30 2883 N 270.492 0.636531 -1.44174 0
M  V30 2884 C 271.402 1.77754 -1.53103 0
M  V30 2885 C 272.418 1.68928 -0.417034 0
M  V30 2886 O 273.594 1.89801 -0.6736 0
M  V30 2887 C 270.659 3.14115 -1.46741 0
M  V30 2888 C 269.72 3.34612 -2.68948 0
M  V30 2889 C 268.953 4.64467 -2.6288 0
M  V30 2890 O 269.176 5.44919 -1.68581 0
M  V30 2891 O 268.11 4.87049 -3.53648 0
M  V30 2892 H 271.936 1.73174 -2.49489 0
M  V30 2893 H 269.521 0.79709 -1.2636 0
M  V30 2894 H 271.403 3.95412 -1.45696 0
M  V30 2895 H 270.078 3.19249 -0.534975 0
M  V30 2896 H 268.985 2.53014 -2.75562 0
M  V30 2897 H 270.318 3.34336 -3.61221 0
M  V30 2898 N 271.97 1.30982 0.876444 0
M  V30 2899 C 273.2 1.23063 1.65949 0
M  V30 2900 C 273.608 -0.207537 1.88058 0
M  V30 2901 O 272.951 -1.14781 1.43426 0
M  V30 2902 C 273.013 1.89768 3.05333 0
M  V30 2903 C 272.677 3.39106 3.0636 0
M  V30 2904 C 273.674 4.3496 2.84791 0
M  V30 2905 C 271.359 3.80693 3.27686 0
M  V30 2906 C 273.353 5.70375 2.84519 0
M  V30 2907 C 271.04 5.16223 3.27043 0
M  V30 2908 C 272.038 6.10875 3.05485 0
M  V30 2909 O 271.726 7.43928 3.04674 0
M  V30 2910 H 271.458 0.426685 0.524324 0
M  V30 2911 H 274.012 1.7329 1.10271 0
M  V30 2912 H 272.242 1.34082 3.6271 0
M  V30 2913 H 273.931 1.75853 3.65829 0
M  V30 2914 H 274.697 4.0416 2.68103 0
M  V30 2915 H 270.576 3.07457 3.43499 0
M  V30 2916 H 274.12 6.44228 2.67611 0
M  V30 2917 H 270.017 5.4666 3.43269 0
M  V30 2918 H 270.785 7.53022 3.2078 0
M  V30 2919 N 273.449 -1.08991 1.13837 0
M  V30 2920 C 274.674 -1.85551 0.926585 0
M  V30 2921 C 275.099 -1.80782 -0.519566 0
M  V30 2922 O 274.457 -1.18855 -1.36906 0
M  V30 2923 C 274.505 -3.31266 1.42462 0
M  V30 2924 O 273.609 -4.07822 0.612789 0
M  V30 2925 H 272.95 -0.575192 0.331738 0
M  V30 2926 H 275.48 -1.37604 1.51414 0
M  V30 2927 H 275.49 -3.82112 1.43019 0
M  V30 2928 H 274.165 -3.34052 2.47754 0
M  V30 2929 H 272.742 -3.66731 0.675463 0
M  V30 2930 N 274.927 -0.932562 -1.27047 0
M  V30 2931 C 275.874 -0.434072 -2.26681 0
M  V30 2932 C 276.844 0.501639 -1.58344 0
M  V30 2933 O 278.029 0.419734 -1.86126 0
M  V30 2934 C 275.169 0.30261 -3.43771 0
M  V30 2935 C 274.282 -0.667774 -4.26808 0
M  V30 2936 C 273.417 0.0892393 -5.31125 0
M  V30 2937 C 272.456 -0.873532 -6.05835 0
M  V30 2938 N 271.593 -0.148832 -7.01942 0
M  V30 2939 H 276.433 -1.28868 -2.68695 0
M  V30 2940 H 273.97 -0.646713 -1.32121 0
M  V30 2941 H 275.928 0.746092 -4.10474 0
M  V30 2942 H 274.558 1.12142 -3.02695 0
M  V30 2943 H 273.61 -1.22978 -3.59973 0
M  V30 2944 H 274.922 -1.40337 -4.78651 0
M  V30 2945 H 274.076 0.592409 -6.03801 0
M  V30 2946 H 272.815 0.85777 -4.80097 0
M  V30 2947 H 271.82 -1.38791 -5.31994 0
M  V30 2948 H 273.045 -1.64193 -6.58952 0
M  V30 2949 H 270.991 0.601365 -6.53238 0
M  V30 2950 H 270.908 -0.82391 -7.51497 0
M  V30 2951 H 272.176 0.333527 -7.78786 0
M  V30 2952 N 276.405 1.4127 -0.698611 0
M  V30 2953 C 277.682 1.94955 -0.158762 0
M  V30 2954 C 278.062 1.63781 1.33188 0
M  V30 2955 O 277.41 0.946423 2.07979 0
M  V30 2956 C 277.62 3.46044 -0.453309 0
M  V30 2957 C 278.968 4.22872 -0.382707 0
M  V30 2958 O 279.992 3.54076 -0.388396 0
M  V30 2959 O 278.851 5.45407 -0.345463 0
M  V30 2960 H 275.945 0.82683 -0.0167505 0
M  V30 2961 H 278.491 1.50971 -0.77498 0
M  V30 2962 H 277.263 3.62028 -1.48498 0
M  V30 2963 H 276.886 3.97128 0.19373 0
M  V30 2964 N 277.883 0.443576 1.51229 0
M  V30 2965 C 279.111 -0.11929 2.06556 0
M  V30 2966 C 279.526 -1.35921 1.31038 0
M  V30 2967 O 278.883 -1.78675 0.371704 0
M  V30 2968 C 278.934 -0.435228 3.5887 0
M  V30 2969 O 278.655 0.755486 4.31537 0
M  V30 2970 C 280.156 -1.04808 4.30732 0
M  V30 2971 H 277.376 -0.0051584 0.67098 0
M  V30 2972 H 279.92 0.624453 1.94733 0
M  V30 2973 H 278.075 -1.12887 3.70588 0
M  V30 2974 H 278.489 0.483491 5.22267 0
M  V30 2975 H 279.963 -1.2191 5.3837 0
M  V30 2976 H 280.44 -2.03081 3.89429 0
M  V30 2977 H 281.046 -0.393637 4.23474 0
M  V30 2978 N 279.361 -1.56624 0.175154 0
M  V30 2979 C 280.291 -2.21155 -0.749195 0
M  V30 2980 C 281.272 -1.16836 -1.23626 0
M  V30 2981 O 282.457 -1.45277 -1.28873 0
M  V30 2982 C 279.587 -2.8553 -1.97711 0
M  V30 2983 C 278.541 -3.95921 -1.62575 0
M  V30 2984 C 277.867 -4.47365 -2.92864 0
M  V30 2985 C 279.167 -5.15323 -0.850838 0
M  V30 2986 H 280.861 -2.98653 -0.211295 0
M  V30 2987 H 278.407 -1.43651 -0.100188 0
M  V30 2988 H 280.36 -3.2935 -2.62881 0
M  V30 2989 H 279.084 -2.05406 -2.53921 0
M  V30 2990 H 277.743 -3.52762 -0.997719 0
M  V30 2991 H 277.391 -3.64027 -3.47122 0
M  V30 2992 H 277.091 -5.21839 -2.70106 0
M  V30 2993 H 278.615 -4.93873 -3.59056 0
M  V30 2994 H 280.029 -5.55812 -1.40521 0
M  V30 2995 H 278.426 -5.95739 -0.722154 0
M  V30 2996 H 279.496 -4.84661 0.152082 0
M  V30 2997 N 280.839 0.0985539 -1.57292 0
M  V30 2998 C 282.087 0.801092 -1.85545 0
M  V30 2999 C 282.408 1.79438 -0.763353 0
M  V30 3000 O 281.678 1.94763 0.21073 0
M  V30 3001 H 280.258 0.29884 -0.684619 0
M  V30 3002 H 282.92 0.0810064 -1.94732 0
M  V30 3003 H 282.016 1.3338 -2.82163 0
M  V30 3004 N 282.317 1.53212 0.369288 0
M  V30 3005 C 283.733 1.42902 0.710712 0
M  V30 3006 C 283.933 0.565135 1.93413 0
M  V30 3007 O 282.989 0.0461484 2.52458 0
M  V30 3008 C 284.302 2.86042 0.927382 0
M  V30 3009 C 285.85 2.9565 1.02762 0
M  V30 3010 C 286.325 4.39843 1.27679 0
M  V30 3011 N 287.816 4.43256 1.34457 0
M  V30 3012 C 288.551 5.51929 1.55439 0
M  V30 3013 N 288.047 6.70655 1.73762 0
M  V30 3014 N 289.84 5.39502 1.57779 0
M  V30 3015 H 281.991 2.07888 -0.435457 0
M  V30 3016 H 284.254 0.938661 -0.132739 0
M  V30 3017 H 283.96 3.51557 0.100287 0
M  V30 3018 H 283.834 3.29472 1.83653 0
M  V30 3019 H 286.221 2.30291 1.84527 0
M  V30 3020 H 286.302 2.5562 0.0959504 0
M  V30 3021 H 285.946 5.05774 0.464175 0
M  V30 3022 H 285.876 4.77443 2.22162 0
M  V30 3023 H 288.367 3.5769 1.21926 0
M  V30 3024 H 288.68 7.49248 1.89335 0
M  V30 3025 H 287.025 6.73648 1.70948 0
M  V30 3026 H 290.216 4.45713 1.43029 0
M  V30 3027 H 290.389 6.2426 1.7379 0
M  V30 3028 N 283.795 -0.628877 1.44509 0
M  V30 3029 C 284.743 -1.76193 1.51852 0
M  V30 3030 C 285.737 -1.64849 0.390042 0
M  V30 3031 O 286.943 -1.709 0.565082 0
M  V30 3032 H 283.318 -0.581728 0.476547 0
M  V30 3033 H 285.289 -1.67123 2.47209 0
M  V30 3034 C 284.038 -3.14533 1.48204 0
M  V30 3035 H 283.361 -3.23911 2.34354 0
M  V30 3036 H 284.801 -3.93701 1.57402 0
M  V30 3037 C 283.26 -3.36287 0.203142 0
M  V30 3038 O 283.79 -3.9509 -0.725745 0
M  V30 3039 N 281.996 -2.90408 0.105563 0
M  V30 3040 H 281.543 -2.42739 0.862301 0
M  V30 3041 H 281.501 -3.05339 -0.749371 0
M  V30 3042 N 285.273 -1.31445 -0.869486 0
M  V30 3043 C 286.522 -1.20517 -1.61736 0
M  V30 3044 C 286.835 0.235341 -1.94179 0
M  V30 3045 O 288.041 0.466312 -2.67465 0
M  V30 3046 C 286.497 -2.10982 -2.91573 0
M  V30 3047 C 286.105 -3.60032 -2.66611 0
M  V30 3048 C 287.849 -2.08856 -3.69567 0
M  V30 3049 C 285.756 -4.42503 -3.92358 0
M  V30 3050 H 284.686 -0.447493 -0.606849 0
M  V30 3051 H 287.337 -1.56303 -0.96133 0
M  V30 3052 H 285.719 -1.68095 -3.58553 0
M  V30 3053 H 286.893 -4.11167 -2.08035 0
M  V30 3054 H 285.208 -3.64139 -2.0197 0
M  V30 3055 H 287.805 -2.67716 -4.62852 0
M  V30 3056 H 288.148 -1.07582 -4.02159 0
M  V30 3057 H 288.681 -2.49945 -3.09471 0
M  V30 3058 H 285.42 -5.44533 -3.64916 0
M  V30 3059 H 284.94 -3.96125 -4.50383 0
M  V30 3060 H 286.619 -4.54741 -4.60238 0
M  V30 3061 N 286.751 1.08385 -1.14413 0
M  V30 3062 C 287.714 2.13486 -0.834048 0
M  V30 3063 C 288.714 1.59988 0.161418 0
M  V30 3064 O 289.904 1.74071 -0.0669575 0
M  V30 3065 C 287.036 3.4003 -0.243354 0
M  V30 3066 H 288.229 2.42425 -1.7655 0
M  V30 3067 H 285.782 1.24101 -0.950189 0
M  V30 3068 H 286.517 3.16726 0.696807 0
M  V30 3069 H 286.302 3.80157 -0.960367 0
M  V30 3070 H 287.792 4.17577 -0.0436242 0
M  V30 3071 N 288.23 0.939286 1.26551 0
M  V30 3072 C 289.47 0.5933 1.956 0
M  V30 3073 C 289.834 -0.851515 1.72085 0
M  V30 3074 O 291.035 -1.30634 2.34921 0
M  V30 3075 C 289.306 0.923996 3.45249 0
M  V30 3076 S 290.865 0.688269 4.33369 0
M  V30 3077 H 287.683 0.218591 0.676564 0
M  V30 3078 H 290.285 1.2102 1.5354 0
M  V30 3079 H 288.989 1.97297 3.59864 0
M  V30 3080 H 288.52 0.296746 3.92279 0
M  V30 3081 H 290.535 -0.448434 4.9417 0
M  V30 3082 N 289.708 -1.40897 0.706093 0
M  V30 3083 C 290.954 -2.01849 0.250681 0
M  V30 3084 C 291.309 -1.5496 -1.14041 0
M  V30 3085 O 290.602 -0.755566 -1.76073 0
M  V30 3086 C 290.796 -3.5646 0.259099 0
M  V30 3087 C 290.625 -4.18357 1.64947 0
M  V30 3088 C 289.395 -4.522 2.25485 0
M  V30 3089 C 291.593 -4.43856 2.598 0
M  V30 3090 N 289.575 -4.9944 3.56977 0
M  V30 3091 C 290.946 -4.92986 3.75985 0
M  V30 3092 C 293.001 -4.25882 2.57933 0
M  V30 3093 C 291.704 -5.2603 4.90597 0
M  V30 3094 C 293.73 -4.6002 3.71665 0
M  V30 3095 C 293.092 -5.09331 4.86581 0
M  V30 3096 H 289.191 -0.769843 0.137353 0
M  V30 3097 H 291.775 -1.71278 0.925845 0
M  V30 3098 H 289.946 -3.86481 -0.385592 0
M  V30 3099 H 291.678 -4.04144 -0.21213 0
M  V30 3100 H 288.433 -4.3901 1.77671 0
M  V30 3101 H 288.857 -5.27454 4.24407 0
M  V30 3102 H 293.499 -3.86986 1.70298 0
M  V30 3103 H 291.217 -5.63843 5.78884 0
M  V30 3104 H 294.803 -4.47762 3.71484 0
M  V30 3105 H 293.683 -5.35251 5.73129 0
M  V30 3106 N 291.186 -0.45159 -1.50991 0
M  V30 3107 C 292.433 0.110074 -2.02201 0
M  V30 3108 C 292.761 1.4146 -1.33489 0
M  V30 3109 O 292.016 1.90617 -0.443125 0
M  V30 3110 C 292.315 0.361728 -3.55565 0
M  V30 3111 C 291.981 -0.858717 -4.42648 0
M  V30 3112 C 290.643 -1.19338 -4.66167 0
M  V30 3113 C 292.995 -1.67221 -4.93646 0
M  V30 3114 C 290.323 -2.34195 -5.37931 0
M  V30 3115 C 292.675 -2.8119 -5.6667 0
M  V30 3116 C 291.339 -3.15094 -5.88449 0
M  V30 3117 H 290.609 0.040279 -0.739904 0
M  V30 3118 H 293.256 -0.601696 -1.81802 0
M  V30 3119 H 291.561 1.15554 -3.74372 0
M  V30 3120 H 293.258 0.80996 -3.92735 0
M  V30 3121 H 289.848 -0.58796 -4.24548 0
M  V30 3122 H 294.032 -1.42686 -4.75347 0
M  V30 3123 H 289.288 -2.6076 -5.53005 0
M  V30 3124 H 293.462 -3.44585 -6.05173 0
M  V30 3125 H 291.089 -4.04204 -6.43835 0
M  V30 3126 N 292.664 1.56529 -0.183458 0
M  V30 3127 C 294.075 1.83739 0.331177 0
M  V30 3128 C 294.426 1.10373 1.62211 0
M  V30 3129 O 293.551 0.36071 2.13373 0
M  V30 3130 C 294.146 3.33306 0.607646 0
M  V30 3131 C 292.705 3.60969 1.06668 0
M  V30 3132 C 291.852 2.77086 0.109029 0
M  V30 3133 H 294.803 1.53379 -0.407484 0
M  V30 3134 H 294.824 3.51444 1.45832 0
M  V30 3135 H 294.336 3.86677 -0.332086 0
M  V30 3136 H 292.437 3.13021 2.0211 0
M  V30 3137 H 292.55 4.69231 0.967447 0
M  V30 3138 H 290.914 2.47319 0.608714 0
M  V30 3139 H 291.697 3.33241 -0.82494 0
M  V30 3140 N 294.142 -0.090211 1.57342 0
M  V30 3141 C 295.558 -0.444547 1.53284 0
M  V30 3142 C 295.758 -1.80238 0.900914 0
M  V30 3143 O 294.814 -2.4759 0.495513 0
M  V30 3144 C 296.127 -0.402543 2.97993 0
M  V30 3145 C 297.675 -0.48405 3.09234 0
M  V30 3146 C 298.15 -0.472144 4.5556 0
M  V30 3147 N 299.641 -0.532757 4.60126 0
M  V30 3148 C 300.376 -0.545462 5.708 0
M  V30 3149 N 299.872 -0.514082 6.9089 0
M  V30 3150 N 301.665 -0.59064 5.58988 0
M  V30 3151 H 293.816 0.799121 1.96794 0
M  V30 3152 H 296.079 0.297965 0.899956 0
M  V30 3153 H 295.785 0.528106 3.47712 0
M  V30 3154 H 295.659 -1.21969 3.56936 0
M  V30 3155 H 298.046 -1.40512 2.595 0
M  V30 3156 H 298.127 0.361328 2.53235 0
M  V30 3157 H 297.771 0.445 5.05947 0
M  V30 3158 H 297.701 -1.3348 5.09402 0
M  V30 3159 H 300.192 -0.562006 3.73698 0
M  V30 3160 H 300.505 -0.527195 7.71 0
M  V30 3161 H 298.85 -0.481054 6.93333 0
M  V30 3162 H 302.041 -0.61272 4.64073 0
M  V30 3163 H 302.214 -0.597073 6.45243 0
M  V30 3164 N 295.62 -1.53406 -0.361157 0
M  V30 3165 C 296.848 -1.73717 -1.12383 0
M  V30 3166 C 297.263 -0.468161 -1.82904 0
M  V30 3167 O 296.62 0.559198 -1.73722 0
M  V30 3168 C 296.671 -2.90558 -2.15078 0
M  V30 3169 O 296.392 -4.12549 -1.47428 0
M  V30 3170 C 297.893 -3.22777 -3.03858 0
M  V30 3171 H 295.113 -0.580896 -0.335858 0
M  V30 3172 H 297.657 -2.00167 -0.418728 0
M  V30 3173 H 295.812 -2.66489 -2.8118 0
M  V30 3174 H 296.226 -4.78009 -2.15887 0
M  V30 3175 H 297.7 -4.07927 -3.71887 0
M  V30 3176 H 298.177 -2.38329 -3.68912 0
M  V30 3177 H 298.783 -3.48787 -2.43367 0
M  V30 3178 N 297.098 0.621204 -1.44841 0
M  V30 3179 C 298.345 1.38055 -1.48145 0
M  V30 3180 C 298.673 1.94143 -0.117867 0
M  V30 3181 O 297.928 1.74713 0.881694 0
M  V30 3182 C 298.227 2.55675 -2.4973 0
M  V30 3183 C 297.893 2.17817 -3.94799 0
M  V30 3184 C 296.555 2.07205 -4.34303 0
M  V30 3185 C 298.907 1.88065 -4.86087 0
M  V30 3186 C 296.235 1.65045 -5.63007 0
M  V30 3187 C 298.587 1.47394 -6.15189 0
M  V30 3188 C 297.251 1.35331 -6.53637 0
M  V30 3189 H 296.521 0.505181 -0.542101 0
M  V30 3190 H 299.168 0.703477 -1.78111 0
M  V30 3191 H 297.473 3.2866 -2.13284 0
M  V30 3192 H 299.17 3.13904 -2.4953 0
M  V30 3193 H 295.76 2.26998 -3.63552 0
M  V30 3194 H 299.944 1.95168 -4.56315 0
M  V30 3195 H 295.2 1.54317 -5.91605 0
M  V30 3196 H 299.374 1.23415 -6.85377 0
M  V30 3197 H 297.001 1.02435 -7.53267 0
M  V30 3198 N 298.576 1.31904 0.862503 0
M  V30 3199 C 299.825 1.21373 1.61094 0
M  V30 3200 C 300.138 -0.22504 1.94301 0
M  V30 3201 O 301.344 -0.452121 2.67709 0
M  V30 3202 C 299.8 2.12525 2.9045 0
M  V30 3203 C 299.408 3.61441 2.64697 0
M  V30 3204 C 301.152 2.10813 3.68454 0
M  V30 3205 C 299.059 4.44578 3.90006 0
M  V30 3206 H 297.989 0.450705 0.604468 0
M  V30 3207 H 300.64 1.56811 0.953027 0
M  V30 3208 H 299.022 1.69994 3.57656 0
M  V30 3209 H 300.196 4.12264 2.05851 0
M  V30 3210 H 298.511 3.65205 2.00036 0
M  V30 3211 H 301.108 2.70167 4.61426 0
M  V30 3212 H 301.451 1.09713 4.01583 0
M  V30 3213 H 301.984 2.51583 3.08141 0
M  V30 3214 H 298.723 5.46461 3.62023 0
M  V30 3215 H 298.243 3.98508 4.48276 0
M  V30 3216 H 299.922 4.57176 4.5782 0
M  V30 3217 N 300.054 -1.07777 1.14986 0
M  V30 3218 C 300.984 -2.16865 0.865557 0
M  V30 3219 C 301.965 -1.69123 -0.182083 0
M  V30 3220 O 303.15 -1.94164 -0.0373815 0
M  V30 3221 C 300.28 -3.45539 0.349313 0
M  V30 3222 C 299.234 -4.06708 1.33313 0
M  V30 3223 C 298.56 -5.30411 0.675918 0
M  V30 3224 C 299.86 -4.47241 2.69764 0
M  V30 3225 H 301.554 -2.40905 1.77778 0
M  V30 3226 H 299.1 -1.15781 0.856203 0
M  V30 3227 H 301.053 -4.21174 0.137983 0
M  V30 3228 H 299.777 -3.21072 -0.598362 0
M  V30 3229 H 298.436 -3.33112 1.53075 0
M  V30 3230 H 298.084 -5.02232 -0.277767 0
M  V30 3231 H 297.784 -5.72293 1.33244 0
M  V30 3232 H 299.308 -6.08755 0.474262 0
M  V30 3233 H 300.722 -5.14025 2.53873 0
M  V30 3234 H 299.119 -5.00062 3.3175 0
M  V30 3235 H 300.189 -3.58818 3.26156 0
M  V30 3236 N 301.532 -0.945985 -1.26051 0
M  V30 3237 C 302.757 -0.612525 -1.98149 0
M  V30 3238 C 303.182 0.806623 -1.69927 0
M  V30 3239 O 302.54 1.54411 -0.950108 0
M  V30 3240 C 302.588 -0.866981 -3.50023 0
M  V30 3241 O 301.692 0.0585333 -4.12358 0
M  V30 3242 H 301.033 -0.23379 -0.621481 0
M  V30 3243 H 303.563 -1.27023 -1.60395 0
M  V30 3244 H 303.573 -0.789792 -4.00283 0
M  V30 3245 H 302.248 -1.90135 -3.69894 0
M  V30 3246 H 300.825 -0.0701241 -3.72834 0
M  V30 3247 N 303.011 1.40521 -0.713556 0
M  V30 3248 C 303.958 2.30723 -0.059684 0
M  V30 3249 C 304.928 1.48079 0.752448 0
M  V30 3250 O 306.113 1.76823 0.71681 0
M  V30 3251 C 303.253 3.34274 0.857594 0
M  V30 3252 C 302.366 4.31986 0.0351536 0
M  V30 3253 C 301.501 5.22605 0.951724 0
M  V30 3254 C 300.54 6.11976 0.123253 0
M  V30 3255 N 299.677 6.9502 0.99459 0
M  V30 3256 H 304.517 2.86074 -0.834596 0
M  V30 3257 H 302.054 1.40879 -0.42326 0
M  V30 3258 H 304.012 3.92879 1.40364 0
M  V30 3259 H 302.642 2.8043 1.59871 0
M  V30 3260 H 301.694 3.7518 -0.628052 0
M  V30 3261 H 303.006 4.95101 -0.606347 0
M  V30 3262 H 302.16 5.86131 1.56638 0
M  V30 3263 H 300.899 4.59759 1.62705 0
M  V30 3264 H 299.904 5.47482 -0.50435 0
M  V30 3265 H 301.129 6.76881 -0.548539 0
M  V30 3266 H 299.075 6.34764 1.6556 0
M  V30 3267 H 298.992 7.54892 0.40908 0
M  V30 3268 H 300.26 7.62997 1.59549 0
M  V30 3269 N 304.489 0.459591 1.5075 0
M  V30 3270 C 305.737 -0.0991532 2.01857 0
M  V30 3271 C 306.058 -1.41247 1.34441 0
M  V30 3272 O 305.328 -1.89775 0.486022 0
M  V30 3273 H 303.908 -0.039633 0.745948 0
M  V30 3274 H 306.57 0.607387 1.85194 0
M  V30 3275 H 305.666 -0.258998 3.11023 0
M  V30 3276 N 305.967 -1.56429 0.191757 0
M  V30 3277 C 307.383 -1.58754 -0.164137 0
M  V30 3278 C 307.583 -1.20782 -1.61288 0
M  V30 3279 O 306.639 -0.928999 -2.34789 0
M  V30 3280 C 307.952 -3.00396 0.135195 0
M  V30 3281 C 309.5 -3.1291 0.0750351 0
M  V30 3282 C 309.975 -4.56679 0.347632 0
M  V30 3283 N 311.466 -4.62252 0.296131 0
M  V30 3284 C 312.201 -5.71379 0.480948 0
M  V30 3285 N 311.697 -6.88986 0.725933 0
M  V30 3286 N 313.49 -5.60563 0.415435 0
M  V30 3287 H 305.641 -1.79393 1.13718 0
M  V30 3288 H 307.904 -0.832414 0.453643 0
M  V30 3289 H 307.61 -3.32726 1.13958 0
M  V30 3290 H 307.484 -3.72963 -0.563773 0
M  V30 3291 H 309.871 -2.80394 -0.919948 0
M  V30 3292 H 309.952 -2.42736 0.807029 0
M  V30 3293 H 309.596 -4.89907 1.33992 0
M  V30 3294 H 309.526 -5.25039 -0.405212 0
M  V30 3295 H 312.017 -3.7773 0.113259 0
M  V30 3296 H 312.33 -7.68046 0.855857 0
M  V30 3297 H 310.675 -6.90801 0.762788 0
M  V30 3298 H 313.866 -4.67561 0.224486 0
M  V30 3299 H 314.039 -6.45551 0.562889 0
M  V30 3300 N 307.445 0.0818655 -1.57387 0
M  V30 3301 C 308.722 0.815343 -1.77796 0
M  V30 3302 C 309.102 1.96289 -0.77679 0
M  V30 3303 O 308.45 2.27691 0.192106 0
M  V30 3304 C 308.66 1.29765 -3.23978 0
M  V30 3305 C 310.008 1.7351 -3.8753 0
M  V30 3306 O 311.032 1.39356 -3.27808 0
M  V30 3307 O 309.891 2.36708 -4.92576 0
M  V30 3308 H 306.985 0.389914 -0.729312 0
M  V30 3309 H 309.531 0.0627213 -1.69584 0
M  V30 3310 H 308.303 0.47608 -3.88393 0
M  V30 3311 H 307.926 2.11189 -3.36875 0
M  V30 3312 N 308.923 1.53595 0.353017 0
M  V30 3313 C 310.169 1.71581 1.09232 0
M  V30 3314 C 310.524 0.468328 1.86613 0
M  V30 3315 O 309.817 -0.538911 1.83865 0
M  V30 3316 C 310.011 2.91313 2.07054 0
M  V30 3317 C 309.84 4.27585 1.39287 0
M  V30 3318 C 308.61 4.92233 1.1417 0
M  V30 3319 C 310.808 5.07656 0.824005 0
M  V30 3320 N 308.79 6.124 0.428841 0
M  V30 3321 C 310.161 6.19531 0.241195 0
M  V30 3322 C 312.216 4.92609 0.723922 0
M  V30 3323 C 310.919 7.18002 -0.431952 0
M  V30 3324 C 312.945 5.91365 0.0645334 0
M  V30 3325 C 312.307 7.02571 -0.507347 0
M  V30 3326 H 308.406 0.680987 0.384422 0
M  V30 3327 H 310.99 1.91013 0.377096 0
M  V30 3328 H 309.161 2.73398 2.75877 0
M  V30 3329 H 310.893 2.98062 2.73753 0
M  V30 3330 H 307.648 4.51612 1.42631 0
M  V30 3331 H 308.072 6.76944 0.0874131 0
M  V30 3332 H 312.714 4.06808 1.15181 0
M  V30 3333 H 310.432 8.03384 -0.871758 0
M  V30 3334 H 314.018 5.81799 -0.0121469 0
M  V30 3335 H 312.898 7.77675 -1.0095 0
M  V30 3336 N 310.401 -0.613514 1.45168 0
M  V30 3337 C 311.331 -1.7354 1.56225 0
M  V30 3338 C 312.312 -1.64981 0.41414 0
M  V30 3339 O 313.497 -1.83472 0.636526 0
M  V30 3340 C 310.627 -3.12128 1.52295 0
M  V30 3341 C 309.581 -3.35491 2.65762 0
M  V30 3342 C 308.907 -4.74291 2.46885 0
M  V30 3343 C 310.207 -3.26325 4.0781 0
M  V30 3344 H 311.901 -1.64543 2.50132 0
M  V30 3345 H 309.447 -0.790185 1.20383 0
M  V30 3346 H 311.4 -3.90404 1.58628 0
M  V30 3347 H 310.124 -3.2195 0.549139 0
M  V30 3348 H 308.783 -2.59603 2.58847 0
M  V30 3349 H 308.431 -4.80839 1.47657 0
M  V30 3350 H 308.131 -4.9088 3.22972 0
M  V30 3351 H 309.655 -5.54775 2.55063 0
M  V30 3352 H 311.069 -3.94483 4.16 0
M  V30 3353 H 309.466 -3.54445 4.8424 0
M  V30 3354 H 310.536 -2.23855 4.30136 0
M  V30 3355 N 311.879 -1.3236 -0.855495 0
M  V30 3356 C 312.842 -1.21164 -1.94556 0
M  V30 3357 C 313.842 -0.134908 -1.60233 0
M  V30 3358 O 315.032 -0.385249 -1.69887 0
M  V30 3359 C 312.164 -0.863192 -3.29791 0
M  V30 3360 H 313.357 -2.18038 -2.05911 0
M  V30 3361 H 310.91 -1.16179 -1.04557 0
M  V30 3362 H 311.645 0.103769 -3.24134 0
M  V30 3363 H 311.43 -1.64166 -3.56078 0
M  V30 3364 H 312.92 -0.809156 -4.09686 0
M  V30 3365 N 313.357 1.07166 -1.15556 0
M  V30 3366 C 314.603 1.80065 -0.932984 0
M  V30 3367 C 314.936 1.86586 0.53845 0
M  V30 3368 O 314.211 1.35098 1.39924 0
M  V30 3369 C 314.494 3.25022 -1.55025 0
M  V30 3370 C 314.347 3.26634 -3.09242 0
M  V30 3371 C 315.666 4.22341 -1.2376 0
M  V30 3372 H 312.785 0.653697 -0.340366 0
M  V30 3373 H 315.427 1.25389 -1.4275 0
M  V30 3374 H 313.577 3.71712 -1.12972 0
M  V30 3375 H 315.249 2.88173 -3.60214 0
M  V30 3376 H 313.492 2.65539 -3.43033 0
M  V30 3377 H 314.163 4.28854 -3.47546 0
M  V30 3378 H 316.639 3.8405 -1.60139 0
M  V30 3379 H 315.515 5.22053 -1.69564 0
M  V30 3380 H 315.776 4.41828 -0.154938 0
M  V30 3381 N 314.835 0.952656 1.25548 0
M  V30 3382 C 315.765 0.489287 2.28316 0
M  V30 3383 C 316.746 -0.463359 1.63667 0
M  V30 3384 O 317.931 -0.36274 1.90782 0
M  V30 3385 C 315.061 -0.235603 3.465 0
M  V30 3386 C 314.015 0.631593 4.23314 0
M  V30 3387 C 313.341 -0.223923 5.34231 0
M  V30 3388 C 314.641 1.90871 4.86174 0
M  V30 3389 H 316.335 1.34822 2.67326 0
M  V30 3390 H 313.881 0.649728 1.28509 0
M  V30 3391 H 315.834 -0.570882 4.17515 0
M  V30 3392 H 314.558 -1.12877 3.06474 0
M  V30 3393 H 313.217 0.949929 3.54079 0
M  V30 3394 H 312.865 -1.11678 4.90446 0
M  V30 3395 H 312.565 0.35299 5.86539 0
M  V30 3396 H 314.089 -0.554214 6.0808 0
M  V30 3397 H 315.503 1.63997 5.49343 0
M  V30 3398 H 313.9 2.43112 5.4865 0
M  V30 3399 H 314.97 2.61304 4.08471 0
M  V30 3400 N 316.313 -1.40141 0.720998 0
M  V30 3401 C 317.559 -2.01084 0.263231 0
M  V30 3402 C 317.892 -1.57052 -1.14229 0
M  V30 3403 O 317.167 -0.793027 -1.77599 0
M  V30 3404 C 317.45 -3.58401 0.349344 0
M  V30 3405 C 317.303 -4.12491 1.79363 0
M  V30 3406 C 318.622 -4.39231 -0.276351 0
M  V30 3407 H 315.741 -0.730572 0.0971228 0
M  V30 3408 H 318.383 -1.66543 0.914518 0
M  V30 3409 H 316.533 -3.87958 -0.205165 0
M  V30 3410 H 318.205 -3.93711 2.40394 0
M  V30 3411 H 316.448 -3.66576 2.31958 0
M  V30 3412 H 317.119 -5.21646 1.80524 0
M  V30 3413 H 319.595 -4.15637 0.196184 0
M  V30 3414 H 318.471 -5.48586 -0.185681 0
M  V30 3415 H 318.732 -4.20643 -1.36059 0
M  V30 3416 N 317.792 -0.46758 -1.50504 0
M  V30 3417 C 318.74 0.342482 -2.30065 0
M  V30 3418 C 319.734 0.993596 -1.37201 0
M  V30 3419 O 320.94 0.925102 -1.54408 0
M  V30 3420 H 317.315 0.129283 -0.740803 0
M  V30 3421 H 319.286 -0.34899 -2.96352 0
M  V30 3422 C 318.035 1.4139 -3.17654 0
M  V30 3423 H 317.358 0.922264 -3.89017 0
M  V30 3424 H 318.798 1.95335 -3.76325 0
M  V30 3425 C 317.257 2.4139 -2.35016 0
M  V30 3426 O 317.787 3.46586 -2.03079 0
M  V30 3427 N 315.993 2.13021 -1.97662 0
M  V30 3428 H 315.54 1.27499 -2.23834 0
M  V30 3429 H 315.498 2.80164 -1.42673 0
M  V30 3430 N 319.27 1.56325 -0.20005 0
M  V30 3431 C 320.518 1.97329 0.436547 0
M  V30 3432 C 320.839 1.08826 1.61808 0
M  V30 3433 O 320.109 0.160604 1.95241 0
M  V30 3434 H 318.689 0.728714 0.164272 0
M  V30 3435 H 321.351 1.92761 -0.287937 0
M  V30 3436 H 320.447 3.02264 0.777353 0
M  V30 3437 N 320.748 -0.0735177 1.57428 0
M  V30 3438 C 321.973 -0.789787 1.91774 0
M  V30 3439 C 322.398 -1.70413 0.796306 0
M  V30 3440 O 321.756 -1.79555 -0.250961 0
M  V30 3441 C 321.804 -1.5609 3.25067 0
M  V30 3442 O 320.908 -2.67144 3.14178 0
M  V30 3443 H 320.249 -0.215582 0.628029 0
M  V30 3444 H 322.779 -0.0422781 2.04556 0
M  V30 3445 H 322.789 -1.94052 3.58898 0
M  V30 3446 H 321.464 -0.890015 4.06265 0
M  V30 3447 H 320.041 -2.32052 2.91901 0
M  V30 3448 N 322.226 -1.5378 -0.344866 0
M  V30 3449 C 323.451 -1.75211 -1.10977 0
M  V30 3450 C 323.876 -0.48936 -1.81623 0
M  V30 3451 O 323.234 0.557925 -1.72502 0
M  V30 3452 C 323.282 -2.93147 -2.09993 0
M  V30 3453 O 322.386 -2.63203 -3.17487 0
M  V30 3454 H 321.727 -0.581241 -0.321021 0
M  V30 3455 H 324.257 -2.00738 -0.395661 0
M  V30 3456 H 324.267 -3.19898 -2.53237 0
M  V30 3457 H 322.942 -3.84731 -1.5797 0
M  V30 3458 H 321.519 -2.47336 -2.79069 0
M  V30 3459 N 323.704 0.605807 -1.45491 0
M  V30 3460 C 324.651 1.7164 -1.54299 0
M  V30 3461 C 325.621 1.61486 -0.388761 0
M  V30 3462 O 326.806 1.81039 -0.602445 0
M  V30 3463 C 323.946 3.09953 -1.51734 0
M  V30 3464 C 323.059 3.309 -2.77721 0
M  V30 3465 C 322.194 4.59329 -2.66816 0
M  V30 3466 C 321.233 4.7354 -3.87848 0
M  V30 3467 N 320.37 5.9327 -3.75467 0
M  V30 3468 H 325.21 1.63449 -2.49176 0
M  V30 3469 H 322.747 0.796957 -1.23641 0
M  V30 3470 H 324.705 3.89977 -1.48235 0
M  V30 3471 H 323.335 3.17098 -0.604068 0
M  V30 3472 H 322.387 2.44639 -2.913 0
M  V30 3473 H 323.699 3.37274 -3.67488 0
M  V30 3474 H 322.853 5.4755 -2.61292 0
M  V30 3475 H 321.592 4.55355 -1.74651 0
M  V30 3476 H 320.597 3.83741 -3.93729 0
M  V30 3477 H 321.822 4.79309 -4.81082 0
M  V30 3478 H 319.768 5.90338 -2.86072 0
M  V30 3479 H 319.685 6.00811 -4.5887 0
M  V30 3480 H 320.953 6.83984 -3.73879 0
M  V30 3481 N 325.182 1.32811 0.848464 0
M  V30 3482 C 326.132 1.18842 1.94578 0
M  V30 3483 C 327.116 0.0937517 1.60627 0
M  V30 3484 O 328.308 0.320887 1.74067 0
M  V30 3485 C 325.437 0.91999 3.30743 0
M  V30 3486 C 324.523 2.05665 3.70894 0
M  V30 3487 N 324.914 3.30579 3.8282 0
M  V30 3488 C 323.212 1.9612 4.00566 0
M  V30 3489 C 323.913 4.05067 4.17487 0
M  V30 3490 N 322.889 3.33419 4.2934 0
M  V30 3491 H 326.691 2.13536 2.0194 0
M  V30 3492 H 324.205 1.2468 1.0406 0
M  V30 3493 H 326.202 0.800859 4.09136 0
M  V30 3494 H 324.862 -0.0185076 3.24695 0
M  V30 3495 H 325.873 3.65441 3.66978 0
M  V30 3496 H 322.55 1.09871 4.02784 0
M  V30 3497 H 323.94 5.12815 4.34131 0
M  V30 3498 N 326.66 -1.06551 1.16123 0
M  V30 3499 C 327.885 -1.83544 0.965735 0
M  V30 3500 C 328.31 -1.81843 -0.481102 0
M  V30 3501 O 327.668 -1.21732 -1.34354 0
M  V30 3502 C 327.716 -3.28169 1.49457 0
M  V30 3503 O 326.82 -4.0643 0.699157 0
M  V30 3504 H 326.161 -0.568026 0.343864 0
M  V30 3505 H 328.691 -1.34362 1.54299 0
M  V30 3506 H 328.701 -3.78992 1.51092 0
M  V30 3507 H 327.376 -3.28722 2.54784 0
M  V30 3508 H 325.953 -3.65216 0.7531 0
M  V30 3509 N 328.138 -0.959301 -1.25041 0
M  V30 3510 C 329.101 -0.487677 -2.23952 0
M  V30 3511 C 330.101 0.41119 -1.55454 0
M  V30 3512 O 331.291 0.207825 -1.72956 0
M  V30 3513 C 328.423 0.294807 -3.39623 0
M  V30 3514 H 329.616 -1.36198 -2.67189 0
M  V30 3515 H 327.169 -0.743042 -1.37508 0
M  V30 3516 H 327.904 1.18658 -3.01813 0
M  V30 3517 H 327.689 -0.35012 -3.90534 0
M  V30 3518 H 329.179 0.614089 -4.1306 0
M  V30 3519 N 329.616 1.39756 -0.72842 0
M  V30 3520 C 330.865 1.99879 -0.270407 0
M  V30 3521 C 331.178 1.58449 1.14688 0
M  V30 3522 O 332.384 2.11362 1.70407 0
M  V30 3523 C 330.84 3.57292 -0.43252 0
M  V30 3524 C 330.448 4.07688 -1.85727 0
M  V30 3525 C 332.192 4.24485 -0.0359507 0
M  V30 3526 C 330.099 5.5765 -1.96928 0
M  V30 3527 H 329.029 0.747689 -0.0973472 0
M  V30 3528 H 331.68 1.59837 -0.901355 0
M  V30 3529 H 330.062 3.95097 0.267219 0
M  V30 3530 H 331.236 3.81231 -2.58843 0
M  V30 3531 H 329.551 3.53135 -2.20646 0
M  V30 3532 H 332.148 5.34609 -0.0987484 0
M  V30 3533 H 332.491 4.03915 1.00787 0
M  V30 3534 H 333.024 3.9183 -0.686604 0
M  V30 3535 H 329.763 5.8309 -2.99476 0
M  V30 3536 H 329.283 5.8593 -1.28241 0
M  V30 3537 H 330.962 6.22957 -1.74737 0
M  V30 3538 N 331.094 0.475555 1.50254 0
M  V30 3539 C 332.51 0.12997 1.5907 0
M  V30 3540 C 332.71 -1.36385 1.48328 0
M  V30 3541 O 331.766 -2.13754 1.34407 0
M  V30 3542 C 333.079 0.684139 2.92814 0
M  V30 3543 C 334.627 0.647965 3.0622 0
M  V30 3544 C 335.102 1.17975 4.42545 0
M  V30 3545 N 336.593 1.13936 4.48969 0
M  V30 3546 C 337.328 1.52129 5.52851 0
M  V30 3547 N 336.824 1.97793 6.63965 0
M  V30 3548 N 338.617 1.43704 5.4342 0
M  V30 3549 H 330.768 1.44706 1.55479 0
M  V30 3550 H 333.031 0.598691 0.735033 0
M  V30 3551 H 332.737 1.73079 3.06164 0
M  V30 3552 H 332.611 0.130204 3.76975 0
M  V30 3553 H 334.998 -0.38979 2.92514 0
M  V30 3554 H 335.079 1.23876 2.23805 0
M  V30 3555 H 334.723 2.21616 4.57 0
M  V30 3556 H 334.653 0.565138 5.23559 0
M  V30 3557 H 337.144 0.804488 3.69238 0
M  V30 3558 H 337.457 2.25072 7.39299 0
M  V30 3559 H 335.802 2.01749 6.65073 0
M  V30 3560 H 338.993 1.07867 4.55502 0
M  V30 3561 H 339.166 1.73794 6.24259 0
M  V30 3562 N 332.573 -1.56217 0.208337 0
M  V30 3563 C 333.984 -1.84243 -0.301904 0
M  V30 3564 C 334.335 -1.12939 -1.60434 0
M  V30 3565 O 333.46 -0.39461 -2.12772 0
M  V30 3566 C 334.055 -3.34231 -0.554543 0
M  V30 3567 C 332.614 -3.62621 -1.00912 0
M  V30 3568 C 331.761 -2.77224 -0.064933 0
M  V30 3569 H 334.712 -1.52712 0.431833 0
M  V30 3570 H 334.733 -3.5372 -1.40223 0
M  V30 3571 H 334.245 -3.86099 0.393561 0
M  V30 3572 H 332.346 -3.16197 -1.97104 0
M  V30 3573 H 332.459 -4.7071 -0.892674 0
M  V30 3574 H 330.823 -2.48256 -0.56929 0
M  V30 3575 H 331.606 -3.31887 0.877851 0
M  V30 3576 N 334.051 0.0651679 -1.57465 0
M  V30 3577 C 335.298 0.763063 -1.87573 0
M  V30 3578 C 335.626 1.77242 -0.800961 0
M  V30 3579 O 334.881 1.94651 0.202316 0
M  V30 3580 C 335.18 1.50081 -3.24362 0
M  V30 3581 C 334.846 0.630816 -4.46466 0
M  V30 3582 C 333.508 0.391082 -4.79608 0
M  V30 3583 C 335.86 0.0279465 -5.21193 0
M  V30 3584 C 333.188 -0.460894 -5.84887 0
M  V30 3585 C 335.54 -0.811522 -6.27373 0
M  V30 3586 C 334.204 -1.06106 -6.59013 0
M  V30 3587 H 333.474 0.279224 -0.686378 0
M  V30 3588 H 336.121 0.0236726 -1.91485 0
M  V30 3589 H 334.426 2.31258 -3.16271 0
M  V30 3590 H 336.123 2.04571 -3.44894 0
M  V30 3591 H 332.713 0.8278 -4.2053 0
M  V30 3592 H 336.897 0.200262 -4.95896 0
M  V30 3593 H 332.153 -0.662907 -6.07796 0
M  V30 3594 H 336.327 -1.28537 -6.84435 0
M  V30 3595 H 333.954 -1.723 -7.40417 0
M  V30 3596 N 335.529 1.53961 0.336706 0
M  V30 3597 C 336.806 1.62171 1.09361 0
M  V30 3598 C 337.186 0.447263 2.06307 0
M  V30 3599 O 336.534 -0.559802 2.21537 0
M  V30 3600 C 336.744 2.98565 1.80721 0
M  V30 3601 C 338.092 3.54157 2.34218 0
M  V30 3602 O 339.116 3.00784 1.90807 0
M  V30 3603 O 337.975 4.47528 3.13657 0
M  V30 3604 H 335.069 0.6562 0.503319 0
M  V30 3605 H 337.615 1.66307 0.33765 0
M  V30 3606 H 336.387 3.75482 1.10132 0
M  V30 3607 H 336.01 2.9805 2.63158 0
M  V30 3608 N 337.007 -0.598083 1.45811 0
M  V30 3609 C 337.939 -1.72231 1.51225 0
M  V30 3610 C 338.952 -1.57757 0.402059 0
M  V30 3611 O 340.141 -1.65464 0.669624 0
M  V30 3612 C 337.241 -3.10331 1.3619 0
M  V30 3613 C 336.414 -3.50955 2.61054 0
M  V30 3614 C 335.473 -4.68055 2.40439 0
M  V30 3615 O 334.499 -4.74691 3.14097 0
M  V30 3616 N 335.701 -5.61941 1.45612 0
M  V30 3617 H 338.466 -1.68046 2.48154 0
M  V30 3618 H 336.027 -0.783637 1.41671 0
M  V30 3619 H 338.019 -3.86439 1.20195 0
M  V30 3620 H 336.589 -3.0897 0.475015 0
M  V30 3621 H 335.809 -2.64711 2.92099 0
M  V30 3622 H 337.097 -3.74858 3.44034 0
M  V30 3623 H 336.495 -5.59301 0.848431 0
M  V30 3624 H 335.052 -6.37542 1.35585 0
M  V30 3625 N 338.485 -1.33259 -0.841409 0
M  V30 3626 C 339.415 -1.25926 -1.96634 0
M  V30 3627 C 340.396 -0.140349 -1.6952 0
M  V30 3628 O 341.581 -0.329707 -1.91381 0
M  V30 3629 C 338.711 -0.99512 -3.32738 0
M  V30 3630 C 337.665 -2.0767 -3.74242 0
M  V30 3631 C 336.991 -1.66474 -5.08125 0
M  V30 3632 C 338.291 -3.49318 -3.88297 0
M  V30 3633 H 339.985 -2.20046 -2.03027 0
M  V30 3634 H 337.531 -1.05931 -0.975425 0
M  V30 3635 H 339.484 -0.930323 -4.11002 0
M  V30 3636 H 338.208 -0.0183004 -3.26595 0
M  V30 3637 H 336.867 -2.13187 -2.98239 0
M  V30 3638 H 336.515 -0.675012 -4.9845 0
M  V30 3639 H 336.215 -2.3885 -5.36865 0
M  V30 3640 H 337.739 -1.61455 -5.88867 0
M  V30 3641 H 339.153 -3.46316 -4.56879 0
M  V30 3642 H 337.55 -4.20158 -4.28471 0
M  V30 3643 H 338.62 -3.8801 -2.9082 0
M  V30 3644 N 339.963 1.05934 -1.16686 0
M  V30 3645 C 341.21 1.788 -0.950622 0
M  V30 3646 C 341.538 1.87384 0.521305 0
M  V30 3647 O 340.793 1.36438 1.40297 0
M  V30 3648 C 341.092 3.23105 -1.52767 0
M  V30 3649 C 340.758 3.34594 -3.02254 0
M  V30 3650 C 339.42 3.37437 -3.43059 0
M  V30 3651 C 341.772 3.36219 -3.98254 0
M  V30 3652 C 339.1 3.39525 -4.78477 0
M  V30 3653 C 341.452 3.39845 -5.33562 0
M  V30 3654 C 340.116 3.40971 -5.73842 0
M  V30 3655 H 339.386 0.654275 -0.347857 0
M  V30 3656 H 342.033 1.24555 -1.45459 0
M  V30 3657 H 340.338 3.80227 -0.94524 0
M  V30 3658 H 342.035 3.7809 -1.336 0
M  V30 3659 H 338.625 3.3309 -2.6972 0
M  V30 3660 H 342.809 3.33231 -3.67792 0
M  V30 3661 H 338.065 3.38703 -5.09009 0
M  V30 3662 H 342.239 3.4005 -6.07733 0
M  V30 3663 H 339.866 3.42342 -6.78753 0
M  V30 3664 N 341.441 0.965919 1.2453 0
M  V30 3665 C 342.404 0.499547 2.2369 0
M  V30 3666 C 343.404 -0.40294 1.5567 0
M  V30 3667 O 344.594 -0.19865 1.73064 0
M  V30 3668 C 341.726 -0.276792 3.39774 0
M  V30 3669 H 342.919 1.37613 2.66463 0
M  V30 3670 H 340.472 0.750324 1.37112 0
M  V30 3671 H 341.207 -1.17055 3.02438 0
M  V30 3672 H 340.992 0.370826 3.90343 0
M  V30 3673 H 342.482 -0.592175 4.1338 0
M  V30 3674 N 342.919 -1.39368 0.735821 0
M  V30 3675 C 343.849 -2.33234 0.111506 0
M  V30 3676 C 344.83 -1.53954 -0.723334 0
M  V30 3677 O 346.015 -1.82344 -0.668147 0
M  V30 3678 C 343.145 -3.38057 -0.795917 0
M  V30 3679 C 342.099 -4.2795 -0.065172 0
M  V30 3680 C 341.425 -5.23479 -1.08967 0
M  V30 3681 C 342.725 -5.10741 1.09273 0
M  V30 3682 H 344.419 -2.85692 0.895571 0
M  V30 3683 H 341.965 -1.37364 0.432109 0
M  V30 3684 H 343.918 -4.02675 -1.24221 0
M  V30 3685 H 342.642 -2.8404 -1.61211 0
M  V30 3686 H 341.301 -3.64813 0.361511 0
M  V30 3687 H 340.949 -4.65758 -1.89944 0
M  V30 3688 H 340.649 -5.84472 -0.605489 0
M  V30 3689 H 342.173 -5.90974 -1.53565 0
M  V30 3690 H 343.587 -5.68699 0.724841 0
M  V30 3691 H 341.984 -5.8088 1.50659 0
M  V30 3692 H 343.054 -4.45525 1.91404 0
M  V30 3693 N 344.397 -0.483516 -1.5 0
M  V30 3694 C 345.347 0.32306 -2.257 0
M  V30 3695 C 346.331 0.950755 -1.29805 0
M  V30 3696 O 347.523 0.861247 -1.54634 0
M  V30 3697 C 344.652 1.39724 -3.13579 0
M  V30 3698 C 343.738 0.776663 -4.16928 0
M  V30 3699 N 344.129 -0.1104 -5.0568 0
M  V30 3700 C 342.427 1.03922 -4.33724 0
M  V30 3701 C 343.128 -0.46387 -5.79848 0
M  V30 3702 N 342.104 0.163987 -5.43353 0
M  V30 3703 H 345.906 -0.360086 -2.91686 0
M  V30 3704 H 343.42 -0.298456 -1.59634 0
M  V30 3705 H 345.417 1.98837 -3.66428 0
M  V30 3706 H 344.077 2.08225 -2.49143 0
M  V30 3707 H 345.088 -0.480069 -5.1567 0
M  V30 3708 H 341.765 1.71829 -3.80501 0
M  V30 3709 H 343.155 -1.18854 -6.61304 0
M  V30 3710 N 345.875 1.56104 -0.216619 0
M  V30 3711 C 346.838 2.18819 0.681962 0
M  V30 3712 C 347.838 1.14866 1.12528 0
M  V30 3713 O 349.028 1.40128 1.03488 0
M  V30 3714 C 346.16 2.80756 1.93362 0
M  V30 3715 H 347.353 2.99595 0.135254 0
M  V30 3716 H 344.906 1.56265 0.0330003 0
M  V30 3717 H 345.641 2.03837 2.52232 0
M  V30 3718 H 345.426 3.56876 1.62426 0
M  V30 3719 H 346.916 3.28844 2.57393 0
M  V30 3720 N 347.353 -0.0568162 1.57498 0
M  V30 3721 C 348.602 -0.752001 1.87157 0
M  V30 3722 C 348.915 -1.77978 0.811375 0
M  V30 3723 O 350.121 -2.52559 0.996293 0
M  V30 3724 C 348.577 -1.38844 3.3204 0
M  V30 3725 C 348.185 -0.398456 4.46225 0
M  V30 3726 C 349.929 -2.06512 3.70882 0
M  V30 3727 C 347.836 -1.04166 5.82154 0
M  V30 3728 H 346.766 -0.28461 0.698222 0
M  V30 3729 H 349.417 -0.00561272 1.83499 0
M  V30 3730 H 347.799 -2.1836 3.30356 0
M  V30 3731 H 348.973 0.367977 4.59328 0
M  V30 3732 H 347.288 0.174592 4.16034 0
M  V30 3733 H 349.885 -2.55437 4.6974 0
M  V30 3734 H 350.228 -2.87117 3.01445 0
M  V30 3735 H 350.761 -1.33808 3.7462 0
M  V30 3736 H 347.5 -0.275614 6.5492 0
M  V30 3737 H 347.02 -1.7786 5.72823 0
M  V30 3738 H 348.699 -1.55715 6.27982 0
M  V30 3739 N 348.832 -1.54138 -0.328536 0
M  V30 3740 C 350.109 -1.62749 -1.08499 0
M  V30 3741 C 350.489 -0.458198 -2.06067 0
M  V30 3742 O 349.837 0.548046 -2.2183 0
M  V30 3743 C 350.047 -2.99519 -1.79135 0
M  V30 3744 C 351.395 -3.55394 -2.32337 0
M  V30 3745 O 352.419 -3.01792 -1.89209 0
M  V30 3746 O 351.278 -4.49186 -3.11279 0
M  V30 3747 H 348.372 -0.65886 -0.499832 0
M  V30 3748 H 350.918 -1.66484 -0.328826 0
M  V30 3749 H 349.69 -3.76061 -1.08139 0
M  V30 3750 H 349.313 -2.99441 -2.61574 0
M  V30 3751 N 350.31 0.590341 -1.46126 0
M  V30 3752 C 351.242 1.71427 -1.52136 0
M  V30 3753 C 352.255 1.57542 -0.41042 0
M  V30 3754 O 353.444 1.65106 -0.678389 0
M  V30 3755 C 350.544 3.09605 -1.37834 0
M  V30 3756 C 349.717 3.49566 -2.62912 0
M  V30 3757 C 348.776 4.66773 -2.42918 0
M  V30 3758 O 347.802 4.73019 -3.1661 0
M  V30 3759 N 349.004 5.61161 -1.4859 0
M  V30 3760 H 351.769 1.66728 -2.49042 0
M  V30 3761 H 349.33 0.776113 -1.42085 0
M  V30 3762 H 351.322 3.85796 -1.22243 0
M  V30 3763 H 349.892 3.08714 -0.491393 0
M  V30 3764 H 349.112 2.63158 -2.93499 0
M  V30 3765 H 350.4 3.73028 -3.46017 0
M  V30 3766 H 349.798 5.58844 -0.87808 0
M  V30 3767 H 348.355 6.36814 -1.38965 0
M  V30 3768 N 351.788 1.33704 0.83433 0
M  V30 3769 C 353.037 1.24763 1.58484 0
M  V30 3770 C 353.35 -0.183775 1.94735 0
M  V30 3771 O 354.556 -0.395234 2.68608 0
M  V30 3772 C 353.012 2.18638 2.85876 0
M  V30 3773 C 352.62 3.66974 2.56971 0
M  V30 3774 C 354.364 2.18581 3.63899 0
M  V30 3775 C 352.271 4.5275 3.80488 0
M  V30 3776 H 351.201 0.463425 0.594772 0
M  V30 3777 H 353.852 1.58797 0.919551 0
M  V30 3778 H 352.234 1.77542 3.5397 0
M  V30 3779 H 353.408 4.16538 1.9706 0
M  V30 3780 H 351.723 3.69366 1.92244 0
M  V30 3781 H 354.32 2.79894 4.55591 0
M  V30 3782 H 354.663 1.18207 3.99165 0
M  V30 3783 H 355.196 2.58062 3.02735 0
M  V30 3784 H 351.935 5.54017 3.5035 0
M  V30 3785 H 351.455 4.07927 4.39722 0
M  V30 3786 H 353.134 4.66784 4.4802 0
M  V30 3787 N 353.266 -1.05314 1.17247 0
M  V30 3788 C 354.214 -2.15137 0.884238 0
M  V30 3789 C 355.208 -1.68729 -0.15063 0
M  V30 3790 O 356.414 -1.8 -0.00366673 0
M  V30 3791 H 352.789 -0.702471 0.2684 0
M  V30 3792 H 354.76 -2.36652 1.81764 0
M  V30 3793 C 353.509 -3.45243 0.412659 0
M  V30 3794 H 352.832 -3.81352 1.20043 0
M  V30 3795 H 354.272 -4.23263 0.249858 0
M  V30 3796 C 352.731 -3.25487 -0.86948 0
M  V30 3797 O 353.261 -3.51938 -1.93655 0
M  V30 3798 N 351.467 -2.78875 -0.817147 0
M  V30 3799 H 351.014 -2.57549 0.0514211 0
M  V30 3800 H 350.972 -2.66036 -1.67547 0
M  V30 3801 N 354.744 -0.972509 -1.24016 0
M  V30 3802 C 356.155 -0.67517 -1.74064 0
M  V30 3803 C 356.506 0.808939 -1.78747 0
M  V30 3804 O 355.631 1.63286 -1.42009 0
M  V30 3805 C 356.226 -1.21889 -3.16115 0
M  V30 3806 C 354.785 -0.971358 -3.6365 0
M  V30 3807 C 353.932 -1.35134 -2.42145 0
M  V30 3808 H 356.883 -1.14727 -1.09651 0
M  V30 3809 H 356.904 -0.587489 -3.75937 0
M  V30 3810 H 356.416 -2.29906 -3.12674 0
M  V30 3811 H 354.517 0.0930686 -3.72484 0
M  V30 3812 H 354.63 -1.62039 -4.50866 0
M  V30 3813 H 352.994 -0.769751 -2.4279 0
M  V30 3814 H 353.777 -2.4411 -2.41381 0
M  V30 3815 N 356.222 1.38976 -0.743202 0
M  V30 3816 C 357.633 1.83123 -0.363732 0
M  V30 3817 C 357.984 1.6205 1.10609 0
M  V30 3818 O 357.109 1.11606 1.854 0
M  V30 3819 C 357.704 3.32439 -0.653408 0
M  V30 3820 C 356.263 3.74974 -0.327338 0
M  V30 3821 C 355.41 2.61878 -0.911875 0
M  V30 3822 H 358.361 1.27852 -0.940191 0
M  V30 3823 H 358.382 3.80432 0.0720031 0
M  V30 3824 H 357.894 3.47745 -1.72323 0
M  V30 3825 H 355.995 3.65252 0.736314 0
M  V30 3826 H 356.108 4.72106 -0.815631 0
M  V30 3827 H 354.472 2.52448 -0.337944 0
M  V30 3828 H 355.255 2.79987 -1.98651 0
M  V30 3829 N 357.7 0.491464 1.49741 0
M  V30 3830 C 358.63 -0.28154 2.31796 0
M  V30 3831 C 359.611 -0.971473 1.3963 0
M  V30 3832 O 360.796 -0.964719 1.68543 0
M  V30 3833 C 357.926 -1.35203 3.19902 0
M  V30 3834 C 356.88 -0.782529 4.20786 0
M  V30 3835 C 356.206 -1.95283 4.97764 0
M  V30 3836 C 357.506 0.21999 5.21837 0
M  V30 3837 H 359.2 0.403355 2.96671 0
M  V30 3838 H 356.746 0.195425 1.42668 0
M  V30 3839 H 358.699 -1.90045 3.76113 0
M  V30 3840 H 357.423 -2.06598 2.52953 0
M  V30 3841 H 356.082 -0.255928 3.65706 0
M  V30 3842 H 355.73 -2.65423 4.2727 0
M  V30 3843 H 355.43 -1.57789 5.66018 0
M  V30 3844 H 356.954 -2.50577 5.56816 0
M  V30 3845 H 358.368 -0.23996 5.72798 0
M  V30 3846 H 356.765 0.51026 5.97927 0
M  V30 3847 H 357.835 1.13911 4.7133 0
M  V30 3848 N 359.178 -1.55987 0.224894 0
M  V30 3849 C 360.126 -2.21808 -0.700283 0
M  V30 3850 C 361.12 -1.19854 -1.19714 0
M  V30 3851 O 362.326 -1.37925 -1.15658 0
M  V30 3852 H 358.701 -0.711226 -0.244258 0
M  V30 3853 H 360.672 -2.98152 -0.121749 0
M  V30 3854 C 359.421 -2.91444 -1.8962 0
M  V30 3855 H 358.744 -3.69655 -1.52299 0
M  V30 3856 H 360.184 -3.40894 -2.52125 0
M  V30 3857 C 358.643 -1.94098 -2.75368 0
M  V30 3858 O 359.173 -1.46004 -3.74227 0
M  V30 3859 N 357.379 -1.61675 -2.41474 0
M  V30 3860 H 356.926 -2.00979 -1.61137 0
M  V30 3861 H 356.884 -0.968036 -2.99126 0
M  V30 3862 N 360.656 0.0484629 -1.57525 0
M  V30 3863 C 361.902 0.744226 -1.88651 0
M  V30 3864 C 362.235 1.76029 -0.820212 0
M  V30 3865 O 361.51 1.93782 0.166985 0
M  V30 3866 C 361.793 1.43128 -3.30434 0
M  V30 3867 C 361.646 0.43005 -4.47739 0
M  V30 3868 C 362.965 2.37031 -3.70816 0
M  V30 3869 H 360.084 0.269089 -0.68612 0
M  V30 3870 H 362.726 0.00713532 -1.89999 0
M  V30 3871 H 360.876 2.05956 -3.29415 0
M  V30 3872 H 362.548 -0.194816 -4.60888 0
M  V30 3873 H 360.791 -0.252522 -4.33064 0
M  V30 3874 H 361.462 0.948874 -5.43783 0
M  V30 3875 H 363.938 1.84263 -3.73077 0
M  V30 3876 H 362.814 2.82094 -4.70865 0
M  V30 3877 H 363.075 3.22864 -3.02012 0
M  V30 3878 N 362.134 1.5431 0.320358 0
M  V30 3879 C 363.362 1.76636 1.07738 0
M  V30 3880 C 363.777 0.51649 1.81598 0
M  V30 3881 O 363.134 -0.512942 1.75143 0
M  V30 3882 C 363.185 2.96158 2.07299 0
M  V30 3883 O 362.906 4.16313 1.36438 0
M  V30 3884 C 364.407 3.3072 2.95193 0
M  V30 3885 H 361.627 0.589597 0.320339 0
M  V30 3886 H 364.171 2.01207 0.36551 0
M  V30 3887 H 362.326 2.73851 2.74016 0
M  V30 3888 H 362.74 4.83565 2.03138 0
M  V30 3889 H 364.214 4.17643 3.60941 0
M  V30 3890 H 364.691 2.48026 3.62463 0
M  V30 3891 H 365.297 3.55117 2.34034 0
M  V30 3892 N 363.613 -0.582584 1.46437 0
M  V30 3893 C 364.576 -1.67366 1.56592 0
M  V30 3894 C 365.576 -1.54575 0.443072 0
M  V30 3895 O 366.766 -1.59191 0.707381 0
M  V30 3896 C 363.898 -3.06791 1.48634 0
M  V30 3897 H 365.091 -1.5972 2.5383 0
M  V30 3898 H 362.644 -0.800432 1.34249 0
M  V30 3899 H 363.379 -3.19993 0.526763 0
M  V30 3900 H 363.164 -3.17484 2.30101 0
M  V30 3901 H 364.654 -3.86218 1.58826 0
M  V30 3902 N 365.091 -1.34144 -0.827227 0
M  V30 3903 C 366.001 -1.27428 -1.96975 0
M  V30 3904 C 367.017 -0.182728 -1.73038 0
M  V30 3905 O 368.193 -0.408426 -1.97215 0
M  V30 3906 C 365.258 -1.02526 -3.31194 0
M  V30 3907 C 364.319 -2.20796 -3.68168 0
M  V30 3908 C 363.552 -1.97073 -4.95982 0
M  V30 3909 O 363.775 -0.926822 -5.6282 0
M  V30 3910 O 362.709 -2.83912 -5.30733 0
M  V30 3911 H 366.535 -2.23537 -2.05584 0
M  V30 3912 H 364.12 -1.14307 -0.961989 0
M  V30 3913 H 366.002 -0.904026 -4.11589 0
M  V30 3914 H 364.677 -0.0945389 -3.23562 0
M  V30 3915 H 363.584 -2.38477 -2.88235 0
M  V30 3916 H 364.917 -3.12243 -3.8048 0
M  V30 3917 N 366.569 1.04691 -1.17803 0
M  V30 3918 C 367.818 1.77176 -0.963931 0
M  V30 3919 C 368.131 1.88888 0.508015 0
M  V30 3920 O 369.337 2.58164 0.840465 0
M  V30 3921 C 367.793 3.18518 -1.67555 0
M  V30 3922 C 367.401 3.14919 -3.18637 0
M  V30 3923 C 369.145 3.95424 -1.54402 0
M  V30 3924 C 367.052 4.51081 -3.82466 0
M  V30 3925 H 365.982 0.664116 -0.357023 0
M  V30 3926 H 368.633 1.17303 -1.4111 0
M  V30 3927 H 367.015 3.78748 -1.15613 0
M  V30 3928 H 368.189 2.64178 -3.77554 0
M  V30 3929 H 366.504 2.51512 -3.31859 0
M  V30 3930 H 369.101 4.96106 -1.99456 0
M  V30 3931 H 369.444 4.13343 -0.495329 0
M  V30 3932 H 369.977 3.41754 -2.0359 0
M  V30 3933 H 366.716 4.38368 -4.87354 0
M  V30 3934 H 366.236 5.01951 -3.28337 0
M  V30 3935 H 367.915 5.2001 -3.84965 0
M  V30 3936 N 368.047 0.979072 1.23499 0
M  V30 3937 C 368.957 0.526431 2.28617 0
M  V30 3938 C 369.973 -0.418126 1.68901 0
M  V30 3939 O 371.149 -0.288372 1.99325 0
M  V30 3940 C 368.214 -0.165235 3.46306 0
M  V30 3941 C 367.275 0.82056 4.21385 0
M  V30 3942 C 366.508 0.161807 5.33455 0
M  V30 3943 O 366.731 -1.04742 5.60701 0
M  V30 3944 O 365.665 0.859708 5.95729 0
M  V30 3945 H 369.491 1.4006 2.69475 0
M  V30 3946 H 367.076 0.746643 1.29405 0
M  V30 3947 H 368.958 -0.553287 4.17752 0
M  V30 3948 H 367.633 -1.01419 3.07402 0
M  V30 3949 H 366.54 1.25929 3.52268 0
M  V30 3950 H 367.873 1.63828 4.64135 0
M  V30 3951 N 369.525 -1.3858 0.750561 0
M  V30 3952 C 370.773 -1.99789 0.30477 0
M  V30 3953 C 371.094 -1.59874 -1.11649 0
M  V30 3954 O 370.364 -0.85417 -1.76297 0
M  V30 3955 H 368.944 -0.738902 0.109694 0
M  V30 3956 H 371.606 -1.69391 0.963983 0
M  V30 3957 H 370.702 -3.09952 0.365499 0
M  V30 3958 N 371.003 -0.499398 -1.49478 0
M  V30 3959 C 372.231 0.0425456 -2.06856 0
M  V30 3960 C 372.646 1.30964 -1.35992 0
M  V30 3961 O 372.003 1.77172 -0.437762 0
M  V30 3962 C 372.054 0.301735 -3.60239 0
M  V30 3963 O 371.775 -0.915127 -4.28436 0
M  V30 3964 C 373.276 0.887499 -4.34325 0
M  V30 3965 H 370.496 -0.0197482 -0.670709 0
M  V30 3966 H 373.04 -0.696297 -1.92281 0
M  V30 3967 H 371.195 0.990556 -3.74522 0
M  V30 3968 H 371.609 -0.676993 -5.20113 0
M  V30 3969 H 373.083 1.01845 -5.42523 0
M  V30 3970 H 373.56 1.88488 -3.96698 0
M  V30 3971 H 374.166 0.236196 -4.24644 0
M  V30 3972 N 372.481 1.55866 -0.233164 0
M  V30 3973 C 373.897 1.59133 0.121988 0
M  V30 3974 C 374.097 1.25016 1.58029 0
M  V30 3975 O 373.153 0.990922 2.32243 0
M  V30 3976 C 374.466 2.99932 -0.214792 0
M  V30 3977 C 376.014 3.12601 -0.157971 0
M  V30 3978 C 376.489 4.55597 -0.46859 0
M  V30 3979 N 377.98 4.61305 -0.418585 0
M  V30 3980 C 378.715 5.69903 -0.63227 0
M  V30 3981 N 378.211 6.86819 -0.90835 0
M  V30 3982 N 380.004 5.59264 -0.563913 0
M  V30 3983 H 372.155 1.76315 -1.18434 0
M  V30 3984 H 374.418 0.820093 -0.475553 0
M  V30 3985 H 374.124 3.29588 -1.22739 0
M  V30 3986 H 373.998 3.74327 0.464691 0
M  V30 3987 H 376.385 2.82735 0.845283 0
M  V30 3988 H 376.466 2.40511 -0.871102 0
M  V30 3989 H 376.11 4.86182 -1.46934 0
M  V30 3990 H 376.04 5.25928 0.265865 0
M  V30 3991 H 378.531 3.77297 -0.213368 0
M  V30 3992 H 378.844 7.65507 -1.05919 0
M  V30 3993 H 377.189 6.88536 -0.945673 0
M  V30 3994 H 380.38 4.66802 -0.348372 0
M  V30 3995 H 380.553 6.43831 -0.733847 0
M  V30 3996 N 373.959 -0.0401083 1.57549 0
M  V30 3997 C 374.889 -1.04384 2.08869 0
M  V30 3998 C 375.87 -1.38407 0.988817 0
M  V30 3999 O 377.055 -1.47483 1.26342 0
M  V30 4000 C 374.185 -2.34808 2.55895 0
M  V30 4001 C 373.139 -2.15057 3.70047 0
M  V30 4002 C 372.465 -3.51145 4.03239 0
M  V30 4003 C 373.765 -1.54576 4.98902 0
M  V30 4004 H 375.459 -0.616666 2.92981 0
M  V30 4005 H 373.005 -0.295184 1.40942 0
M  V30 4006 H 374.958 -3.05346 2.90417 0
M  V30 4007 H 373.682 -2.79565 1.68853 0
M  V30 4008 H 372.341 -1.46954 3.35857 0
M  V30 4009 H 371.989 -3.93529 3.13279 0
M  V30 4010 H 371.689 -3.38758 4.80122 0
M  V30 4011 H 373.213 -4.23062 4.40285 0
M  V30 4012 H 374.627 -2.15017 5.31451 0
M  V30 4013 H 373.024 -1.52796 5.80322 0
M  V30 4014 H 374.094 -0.51039 4.82206 0
M  V30 4015 N 375.437 -1.54477 -0.31217 0
M  V30 4016 C 376.662 -1.77526 -1.07235 0
M  V30 4017 C 377.087 -0.527775 -1.80544 0
M  V30 4018 O 376.445 0.52121 -1.73646 0
M  V30 4019 C 376.493 -2.97535 -2.03728 0
M  V30 4020 O 375.597 -2.69878 -3.11833 0
M  V30 4021 H 374.938 -0.58792 -0.30862 0
M  V30 4022 H 377.468 -2.01532 -0.352993 0
M  V30 4023 H 377.478 -3.25198 -2.46395 0
M  V30 4024 H 376.153 -3.87996 -1.49774 0
M  V30 4025 H 374.73 -2.53199 -2.7376 0
M  V30 4026 N 376.915 0.57481 -1.46744 0
M  V30 4027 C 378.164 1.32898 -1.51727 0
M  V30 4028 C 378.477 1.948 -0.176692 0
M  V30 4029 O 379.683 2.71299 -0.104385 0
M  V30 4030 C 378.139 2.40901 -2.67385 0
M  V30 4031 C 377.747 1.85266 -4.07898 0
M  V30 4032 C 379.491 3.17609 -2.81646 0
M  V30 4033 C 377.398 2.90945 -5.14883 0
M  V30 4034 H 376.328 0.499631 -0.564699 0
M  V30 4035 H 378.979 0.612536 -1.72975 0
M  V30 4036 H 377.361 3.15379 -2.39483 0
M  V30 4037 H 378.535 1.17278 -4.45626 0
M  V30 4038 H 376.85 1.21199 -3.98371 0
M  V30 4039 H 379.447 3.96493 -3.58744 0
M  V30 4040 H 379.79 3.70696 -1.89448 0
M  V30 4041 H 380.323 2.50239 -3.09233 0
M  V30 4042 H 377.062 2.42736 -6.089 0
M  V30 4043 H 376.582 3.57398 -4.81691 0
M  V30 4044 H 378.261 3.54755 -5.41071 0
M  V30 4045 N 378.394 1.34581 0.820102 0
M  V30 4046 C 379.326 1.22236 1.93884 0
M  V30 4047 C 380.339 0.148776 1.62119 0
M  V30 4048 O 381.528 0.400877 1.7394 0
M  V30 4049 C 378.628 0.856542 3.27897 0
M  V30 4050 C 377.801 2.02569 3.87666 0
M  V30 4051 C 376.86 1.63782 5.00062 0
M  V30 4052 O 375.886 2.35477 5.18208 0
M  V30 4053 N 377.088 0.553611 5.77854 0
M  V30 4054 H 379.853 2.18615 2.05006 0
M  V30 4055 H 377.414 1.27573 0.99683 0
M  V30 4056 H 379.406 0.578806 4.0054 0
M  V30 4057 H 377.976 -0.0171518 3.12595 0
M  V30 4058 H 377.196 2.468 3.07382 0
M  V30 4059 H 378.484 2.80752 4.24329 0
M  V30 4060 H 377.882 -0.0423528 5.65684 0
M  V30 4061 H 376.439 0.335614 6.50935 0
M  V30 4062 N 379.872 -1.04064 1.18357 0
M  V30 4063 C 381.118 -1.77658 0.990412 0
M  V30 4064 C 381.473 -1.86446 -0.474944 0
M  V30 4065 O 380.766 -1.36153 -1.34807 0
M  V30 4066 C 380.96 -3.20634 1.57888 0
M  V30 4067 C 380.789 -3.25782 3.09994 0
M  V30 4068 C 379.559 -3.34411 3.7881 0
M  V30 4069 C 381.757 -3.13791 4.0748 0
M  V30 4070 N 379.739 -3.28809 5.18418 0
M  V30 4071 C 381.11 -3.15689 5.33611 0
M  V30 4072 C 383.165 -2.97833 3.98998 0
M  V30 4073 C 381.868 -3.03268 6.52243 0
M  V30 4074 C 383.894 -2.86759 5.17227 0
M  V30 4075 C 383.256 -2.893 6.4225 0
M  V30 4076 H 379.355 -0.661901 0.416427 0
M  V30 4077 H 381.939 -1.23968 1.50133 0
M  V30 4078 H 380.11 -3.7267 1.09414 0
M  V30 4079 H 381.842 -3.82525 1.32124 0
M  V30 4080 H 378.597 -3.40144 3.29543 0
M  V30 4081 H 379.021 -3.29448 5.91433 0
M  V30 4082 H 383.663 -2.94698 3.03171 0
M  V30 4083 H 381.381 -3.05156 7.48268 0
M  V30 4084 H 384.967 -2.75465 5.12455 0
M  V30 4085 H 383.847 -2.80818 7.32196 0
M  V30 4086 N 381.35 -0.985608 -1.22978 0
M  V30 4087 C 382.26 -0.538548 -2.28335 0
M  V30 4088 C 383.276 0.409163 -1.69121 0
M  V30 4089 O 384.452 0.277797 -1.99475 0
M  V30 4090 C 381.517 0.146867 -3.46389 0
M  V30 4091 C 380.578 -0.842896 -4.20944 0
M  V30 4092 C 379.811 -0.190095 -5.33361 0
M  V30 4093 O 380.034 1.01767 -5.61248 0
M  V30 4094 O 378.968 -0.891289 -5.95264 0
M  V30 4095 H 382.794 -1.41487 -2.68729 0
M  V30 4096 H 380.379 -0.753495 -1.29007 0
M  V30 4097 H 382.261 0.531125 -4.1804 0
M  V30 4098 H 380.936 0.997871 -3.07935 0
M  V30 4099 H 379.843 -1.27795 -3.51595 0
M  V30 4100 H 381.176 -1.66287 -4.6326 0
M  V30 4101 N 382.828 1.3818 -0.7579 0
M  V30 4102 C 383.775 2.30416 -0.133057 0
M  V30 4103 C 384.745 1.50398 0.704957 0
M  V30 4104 O 385.93 1.79014 0.660192 0
M  V30 4105 C 383.07 3.36834 0.750813 0
M  V30 4106 C 382.183 4.31879 -0.102297 0
M  V30 4107 C 381.318 5.25368 0.784979 0
M  V30 4108 C 380.357 6.12058 -0.0715046 0
M  V30 4109 N 379.494 6.97832 0.772972 0
M  V30 4110 H 384.334 2.83274 -0.925186 0
M  V30 4111 H 381.871 1.39461 -0.467866 0
M  V30 4112 H 383.829 3.97145 1.27794 0
M  V30 4113 H 382.459 2.85374 1.50868 0
M  V30 4114 H 381.511 3.72991 -0.747095 0
M  V30 4115 H 382.823 4.92921 -0.763552 0
M  V30 4116 H 381.977 5.90818 1.37911 0
M  V30 4117 H 380.716 4.64703 1.47996 0
M  V30 4118 H 379.721 5.456 -0.678272 0
M  V30 4119 H 380.946 6.74793 -0.763606 0
M  V30 4120 H 378.892 6.3971 1.45282 0
M  V30 4121 H 378.809 7.55812 0.168709 0
M  V30 4122 H 380.077 7.67687 1.35194 0
M  V30 4123 N 384.306 0.507319 1.49211 0
M  V30 4124 C 385.717 0.0611118 1.866 0
M  V30 4125 C 386.068 -1.35488 1.41907 0
M  V30 4126 O 385.193 -2.0108 0.799726 0
M  V30 4127 C 385.788 0.104125 3.3864 0
M  V30 4128 C 384.347 -0.28677 3.75306 0
M  V30 4129 C 383.494 0.473893 2.73221 0
M  V30 4130 H 386.445 0.719775 1.41439 0
M  V30 4131 H 386.466 -0.689672 3.74198 0
M  V30 4132 H 385.978 1.13482 3.71138 0
M  V30 4133 H 384.079 -1.32046 3.48417 0
M  V30 4134 H 384.192 0.0370745 4.79086 0
M  V30 4135 H 382.556 -0.0770644 2.54583 0
M  V30 4136 H 383.339 1.50478 3.08563 0
M  V30 4137 N 385.784 -1.5574 0.241426 0
M  V30 4138 C 387.03 -1.99104 -0.385406 0
M  V30 4139 C 387.363 -1.1293 -1.57988 0
M  V30 4140 O 386.638 -0.191449 -1.93555 0
M  V30 4141 C 386.921 -3.51087 -0.800616 0
M  V30 4142 C 386.774 -4.48028 0.398874 0
M  V30 4143 C 388.093 -4.08015 -1.64959 0
M  V30 4144 H 385.212 -0.723848 -0.138614 0
M  V30 4145 H 387.854 -1.86903 0.341642 0
M  V30 4146 H 386.004 -3.61615 -1.4201 0
M  V30 4147 H 387.676 -4.49487 1.03726 0
M  V30 4148 H 385.919 -4.21077 1.04293 0
M  V30 4149 H 386.59 -5.51962 0.0651056 0
M  V30 4150 H 389.066 -4.00555 -1.12672 0
M  V30 4151 H 387.942 -5.14635 -1.90898 0
M  V30 4152 H 388.203 -3.56131 -2.61961 0
M  V30 4153 N 387.262 0.0317525 -1.57568 0
M  V30 4154 C 388.487 0.738664 -1.938 0
M  V30 4155 C 388.912 1.68242 -0.841208 0
M  V30 4156 O 388.27 1.80157 0.203267 0
M  V30 4157 C 388.318 1.47417 -3.29091 0
M  V30 4158 O 387.422 2.5872 -3.2115 0
M  V30 4159 H 386.763 0.198856 -0.633524 0
M  V30 4160 H 389.293 -0.0119713 -2.04596 0
M  V30 4161 H 389.303 1.84468 -3.63917 0
M  V30 4162 H 387.978 0.781988 -4.08482 0
M  V30 4163 H 386.555 2.24231 -2.97951 0
M  V30 4164 N 388.74 1.54641 0.303973 0
M  V30 4165 C 389.703 1.84646 1.35789 0
M  V30 4166 C 390.703 0.7192 1.4382 0
M  V30 4167 O 391.893 0.987491 1.43507 0
M  V30 4168 C 389.025 2.02407 2.74307 0
M  V30 4169 H 390.218 2.78829 1.10429 0
M  V30 4170 H 387.771 1.46658 0.540487 0
M  V30 4171 H 388.506 1.10502 3.04893 0
M  V30 4172 H 388.291 2.84453 2.69868 0
M  V30 4173 H 389.781 2.27002 3.50514 0
M  V30 4174 N 390.218 -0.567019 1.47046 0
M  V30 4175 C 391.465 -1.32462 1.53167 0
M  V30 4176 C 391.793 -1.93571 0.189841 0
M  V30 4177 O 391.048 -1.77865 -0.816243 0
M  V30 4178 C 391.347 -2.4623 2.59047 0
M  V30 4179 C 391.013 -2.03014 4.02612 0
M  V30 4180 C 389.675 -1.90944 4.41694 0
M  V30 4181 C 392.027 -1.69895 4.92732 0
M  V30 4182 C 389.355 -1.44035 5.68745 0
M  V30 4183 C 391.707 -1.2446 6.20236 0
M  V30 4184 C 390.371 -1.10979 6.5821 0
M  V30 4185 H 389.641 -0.484713 0.560477 0
M  V30 4186 H 392.288 -0.636888 1.80599 0
M  V30 4187 H 390.593 -3.20517 2.25335 0
M  V30 4188 H 392.29 -3.04427 2.61008 0
M  V30 4189 H 388.88 -2.13348 3.71726 0
M  V30 4190 H 393.064 -1.78098 4.63244 0
M  V30 4191 H 388.32 -1.32254 5.96925 0
M  V30 4192 H 392.494 -0.978924 6.89485 0
M  V30 4193 H 390.121 -0.744078 7.5655 0
M  V30 4194 N 391.696 -1.35014 -0.812953 0
M  V30 4195 C 393.107 -1.25035 -1.38648 0
M  V30 4196 C 393.458 0.119967 -1.95833 0
M  V30 4197 O 392.583 1.02069 -1.90816 0
M  V30 4198 C 393.178 -2.26394 -2.52054 0
M  V30 4199 C 391.737 -2.20175 -3.05287 0
M  V30 4200 C 390.884 -2.12451 -1.78213 0
M  V30 4201 H 393.835 -1.46235 -0.616516 0
M  V30 4202 H 393.856 -1.88672 -3.30429 0
M  V30 4203 H 393.368 -3.26116 -2.10404 0
M  V30 4204 H 391.469 -1.23841 -3.51417 0
M  V30 4205 H 391.582 -3.11863 -3.63701 0
M  V30 4206 H 389.946 -1.58328 -1.9951 0
M  V30 4207 H 390.729 -3.14024 -1.38723 0
M  V30 4208 N 393.175 1.03435 -1.18907 0
M  V30 4209 C 394.424 1.76143 -0.982669 0
M  V30 4210 C 394.737 1.89416 0.487953 0
M  V30 4211 O 395.943 2.59041 0.813036 0
M  V30 4212 C 394.399 3.16722 -1.70924 0
M  V30 4213 C 394.007 3.11522 -3.21959 0
M  V30 4214 C 395.751 3.93764 -1.58588 0
M  V30 4215 C 393.658 4.46999 -3.87228 0
M  V30 4216 H 392.588 0.660292 -0.364047 0
M  V30 4217 H 395.239 1.158 -1.42347 0
M  V30 4218 H 393.621 3.775 -1.19623 0
M  V30 4219 H 394.795 2.60158 -3.80335 0
M  V30 4220 H 393.11 2.47978 -3.34508 0
M  V30 4221 H 395.707 4.93963 -2.04707 0
M  V30 4222 H 396.05 4.12794 -0.539142 0
M  V30 4223 H 396.583 3.39576 -2.07203 0
M  V30 4224 H 393.322 4.33174 -4.91976 0
M  V30 4225 H 392.842 4.98441 -3.33642 0
M  V30 4226 H 394.521 5.15898 -3.90459 0
M  V30 4227 N 394.653 0.992116 1.22453 0
M  V30 4228 C 395.603 0.512969 2.22155 0
M  V30 4229 C 396.587 -0.418416 1.55364 0
M  V30 4230 O 397.779 -0.245363 1.75291 0
M  V30 4231 C 394.908 -0.171822 3.4287 0
M  V30 4232 C 393.994 0.779822 4.16869 0
M  V30 4233 N 394.385 1.92734 4.6764 0
M  V30 4234 C 392.683 0.59554 4.42006 0
M  V30 4235 C 393.384 2.52458 5.24061 0
M  V30 4236 N 392.36 1.80735 5.12675 0
M  V30 4237 H 396.162 1.38817 2.5905 0
M  V30 4238 H 393.676 0.854277 1.38115 0
M  V30 4239 H 395.673 -0.532469 4.13486 0
M  V30 4240 H 394.333 -1.04317 3.07487 0
M  V30 4241 H 395.344 2.30816 4.63621 0
M  V30 4242 H 392.021 -0.229805 4.16867 0
M  V30 4243 H 393.411 3.49433 5.73887 0
M  V30 4244 N 396.131 -1.37776 0.765217 0
M  V30 4245 C 397.371 -2.01691 0.331669 0
M  V30 4246 C 397.735 -1.59432 -1.06983 0
M  V30 4247 O 398.936 -2.15761 -1.60314 0
M  V30 4248 C 397.207 -3.54385 0.463261 0
M  V30 4249 S 398.766 -4.38652 0.114011 0
M  V30 4250 H 395.584 -0.699387 0.127979 0
M  V30 4251 H 398.186 -1.68084 0.998396 0
M  V30 4252 H 396.89 -3.82629 1.48401 0
M  V30 4253 H 396.421 -3.92783 -0.220246 0
M  V30 4254 H 398.436 -4.84021 -1.09261 0
M  V30 4255 N 397.609 -0.515225 -1.4894 0
M  V30 4256 C 398.856 0.024215 -2.02486 0
M  V30 4257 C 399.184 1.35671 -1.39368 0
M  V30 4258 O 398.439 1.88566 -0.523574 0
M  V30 4259 C 398.738 0.210595 -3.56779 0
M  V30 4260 C 398.404 -1.04569 -4.38607 0
M  V30 4261 C 397.066 -1.39002 -4.60686 0
M  V30 4262 C 399.418 -1.88008 -4.86109 0
M  V30 4263 C 396.746 -2.568 -5.27514 0
M  V30 4264 C 399.098 -3.04972 -5.54234 0
M  V30 4265 C 397.762 -3.39768 -5.74555 0
M  V30 4266 H 397.032 0.00886088 -0.740947 0
M  V30 4267 H 399.679 -0.678263 -1.79086 0
M  V30 4268 H 397.984 0.99572 -3.78936 0
M  V30 4269 H 399.681 0.642659 -3.95817 0
M  V30 4270 H 396.271 -0.767497 -4.21672 0
M  V30 4271 H 400.455 -1.62719 -4.68867 0
M  V30 4272 H 395.711 -2.8398 -5.41447 0
M  V30 4273 H 399.885 -3.69943 -5.90013 0
M  V30 4274 H 397.512 -4.31148 -6.26112 0
M  V30 4275 N 399.087 1.5561 -0.249682 0
M  V30 4276 C 400.364 1.90932 0.424761 0
M  V30 4277 C 400.744 1.17078 1.75658 0
M  V30 4278 O 400.092 0.289176 2.26663 0
M  V30 4279 C 400.302 3.43975 0.590109 0
M  V30 4280 C 401.65 4.15281 0.884714 0
M  V30 4281 O 402.674 3.49729 0.67587 0
M  V30 4282 O 401.533 5.31236 1.28259 0
M  V30 4283 H 398.627 0.794815 0.228468 0
M  V30 4284 H 401.173 1.67135 -0.293954 0
M  V30 4285 H 399.945 3.89748 -0.34818 0
M  V30 4286 H 399.568 3.73644 1.35926 0
M  V30 4287 N 400.565 -0.0233959 1.57583 0
M  V30 4288 C 401.795 -0.723631 1.93513 0
M  V30 4289 C 402.203 -1.69115 0.848333 0
M  V30 4290 O 401.546 -1.82781 -0.183484 0
M  V30 4291 C 401.608 -1.53075 3.25282 0
M  V30 4292 C 401.272 -0.727388 4.51174 0
M  V30 4293 C 402.269 -0.0251924 5.19894 0
M  V30 4294 C 399.954 -0.680256 4.97672 0
M  V30 4295 C 401.948 0.713374 6.33395 0
M  V30 4296 C 399.635 0.0620523 6.11068 0
M  V30 4297 C 400.633 0.757622 6.78785 0
M  V30 4298 O 400.321 1.48787 7.90011 0
M  V30 4299 H 400.053 -0.208051 0.643188 0
M  V30 4300 H 402.607 0.0167489 2.05393 0
M  V30 4301 H 400.837 -2.31508 3.09744 0
M  V30 4302 H 402.526 -2.11413 3.46496 0
M  V30 4303 H 403.292 -0.0526003 4.84971 0
M  V30 4304 H 399.171 -1.21116 4.44805 0
M  V30 4305 H 402.715 1.25683 6.86185 0
M  V30 4306 H 398.612 0.0913634 6.45435 0
M  V30 4307 H 399.38 1.40213 8.06401 0
M  V30 4308 N 402.043 -1.548 -0.295768 0
M  V30 4309 C 402.953 -1.89177 -1.38742 0
M  V30 4310 C 403.969 -0.786481 -1.55211 0
M  V30 4311 O 405.145 -1.08344 -1.69775 0
M  V30 4312 C 402.21 -2.13663 -2.73036 0
M  V30 4313 C 401.271 -3.37349 -2.65508 0
M  V30 4314 C 400.504 -3.60658 -3.93398 0
M  V30 4315 O 400.727 -2.86882 -4.93006 0
M  V30 4316 O 399.661 -4.54179 -3.94975 0
M  V30 4317 H 403.487 -2.82059 -1.12589 0
M  V30 4318 H 401.072 -1.41056 -0.492295 0
M  V30 4319 H 402.954 -2.3094 -3.52484 0
M  V30 4320 H 401.629 -1.23967 -2.99022 0
M  V30 4321 H 400.536 -3.25431 -1.84514 0
M  V30 4322 H 401.869 -4.27192 -2.44474 0
M  V30 4323 N 403.521 0.559213 -1.47345 0
M  V30 4324 C 404.767 1.31843 -1.54095 0
M  V30 4325 C 405.1 1.93149 -0.201726 0
M  V30 4326 O 404.375 1.77759 0.789428 0
M  V30 4327 C 404.658 2.43006 -2.65744 0
M  V30 4328 C 404.511 1.86581 -4.09277 0
M  V30 4329 C 405.83 3.44943 -2.73318 0
M  V30 4330 H 402.949 0.478012 -0.560957 0
M  V30 4331 H 405.591 0.625977 -1.79392 0
M  V30 4332 H 403.741 3.02072 -2.44305 0
M  V30 4333 H 405.413 1.31792 -4.42073 0
M  V30 4334 H 403.656 1.17268 -4.17649 0
M  V30 4335 H 404.327 2.66933 -4.83168 0
M  V30 4336 H 406.803 2.95793 -2.92653 0
M  V30 4337 H 405.679 4.20153 -3.53218 0
M  V30 4338 H 405.94 4.03665 -1.80296 0
M  V30 4339 N 404.999 1.35443 0.805782 0
M  V30 4340 C 405.946 1.28431 1.91766 0
M  V30 4341 C 406.916 0.156102 1.65365 0
M  V30 4342 O 408.101 0.339936 1.87747 0
M  V30 4343 C 405.241 1.06301 3.2832 0
M  V30 4344 C 404.354 2.2805 3.66902 0
M  V30 4345 C 403.489 1.99064 4.92491 0
M  V30 4346 C 402.528 3.16863 5.23703 0
M  V30 4347 N 401.665 2.87647 6.40471 0
M  V30 4348 H 406.505 2.23511 1.97096 0
M  V30 4349 H 404.042 1.11105 0.964054 0
M  V30 4350 H 406 0.915012 4.07042 0
M  V30 4351 H 404.63 0.148822 3.22457 0
M  V30 4352 H 403.682 2.53711 2.83434 0
M  V30 4353 H 404.994 3.1601 3.85927 0
M  V30 4354 H 404.148 1.81099 5.7904 0
M  V30 4355 H 402.887 1.0839 4.75503 0
M  V30 4356 H 401.892 3.35404 4.35642 0
M  V30 4357 H 403.117 4.08339 5.4262 0
M  V30 4358 H 401.063 1.99568 6.24907 0
M  V30 4359 H 400.98 3.69141 6.59751 0
M  V30 4360 H 402.248 2.73226 7.30047 0
M  V30 4361 N 406.477 -1.02803 1.19454 0
M  V30 4362 C 407.726 -1.7562 0.991996 0
M  V30 4363 C 408.039 -1.89672 -0.477901 0
M  V30 4364 O 409.245 -2.59468 -0.799287 0
M  V30 4365 C 407.701 -3.15812 1.72601 0
M  V30 4366 C 407.309 -3.0981 3.23607 0
M  V30 4367 C 409.053 -3.92918 1.60674 0
M  V30 4368 C 406.96 -4.44939 3.89594 0
M  V30 4369 H 405.89 -0.658352 0.367543 0
M  V30 4370 H 408.541 -1.15044 1.42959 0
M  V30 4371 H 406.923 -3.7686 1.21624 0
M  V30 4372 H 408.097 -2.58138 3.81709 0
M  V30 4373 H 406.412 -2.46201 3.35819 0
M  V30 4374 H 409.009 -4.9287 2.07323 0
M  V30 4375 H 409.352 -4.12502 0.561025 0
M  V30 4376 H 409.885 -3.38472 2.09001 0
M  V30 4377 H 406.624 -4.30559 4.94267 0
M  V30 4378 H 406.144 -4.96664 3.36281 0
M  V30 4379 H 407.823 -5.1382 3.93189 0
M  V30 4380 N 407.956 -0.998596 -1.21925 0
M  V30 4381 C 408.906 -0.524743 -2.21879 0
M  V30 4382 C 409.89 0.41017 -1.55584 0
M  V30 4383 O 411.082 0.236063 -1.75419 0
M  V30 4384 C 408.211 0.153636 -3.42956 0
M  V30 4385 C 407.297 -0.801918 -4.16449 0
M  V30 4386 N 407.688 -1.95211 -4.66611 0
M  V30 4387 C 405.986 -0.618972 -4.41684 0
M  V30 4388 C 406.687 -2.55234 -5.22715 0
M  V30 4389 N 405.663 -1.83451 -5.1171 0
M  V30 4390 H 409.465 -1.40189 -2.58311 0
M  V30 4391 H 406.979 -0.86159 -1.3766 0
M  V30 4392 H 408.976 0.510534 -4.13762 0
M  V30 4393 H 407.636 1.02684 -3.08036 0
M  V30 4394 H 408.647 -2.33271 -4.62391 0
M  V30 4395 H 405.324 0.207694 -4.16983 0
M  V30 4396 H 406.714 -3.52471 -5.72026 0
M  V30 4397 N 409.434 1.37368 -0.772513 0
M  V30 4398 C 410.382 2.32134 -0.147111 0
M  V30 4399 C 411.376 1.54972 0.684106 0
M  V30 4400 O 412.582 1.70363 0.581083 0
M  V30 4401 H 408.957 0.751449 -0.028786 0
M  V30 4402 H 410.928 2.82464 -0.962112 0
M  V30 4403 C 409.677 3.40226 0.71703 0
M  V30 4404 H 409 3.99706 0.0867951 0
M  V30 4405 H 410.44 4.08897 1.12159 0
M  V30 4406 C 408.899 2.80372 1.86797 0
M  V30 4407 O 409.429 2.71183 2.96349 0
M  V30 4408 N 407.635 2.37904 1.66883 0
M  V30 4409 H 407.182 2.45578 0.777759 0
M  V30 4410 H 407.14 1.98202 2.44056 0
M  V30 4411 N 410.912 0.523116 1.48665 0
M  V30 4412 C 412.14 -0.0096312 2.06898 0
M  V30 4413 C 412.555 -1.28784 1.38059 0
M  V30 4414 O 411.912 -1.76453 0.465893 0
M  V30 4415 C 411.963 -0.244386 3.60673 0
M  V30 4416 O 411.684 0.983172 4.26925 0
M  V30 4417 C 413.185 -0.818289 4.35682 0
M  V30 4418 H 410.405 0.0304161 0.67031 0
M  V30 4419 H 412.949 0.726799 1.91149 0
M  V30 4420 H 411.104 -0.930847 3.76051 0
M  V30 4421 H 411.518 0.759653 5.1897 0
M  V30 4422 H 412.992 -0.93201 5.44075 0
M  V30 4423 H 413.469 -1.82153 3.99646 0
M  V30 4424 H 414.075 -0.168609 4.24966 0
M  V30 4425 N 412.39 -1.55475 0.257931 0
M  V30 4426 C 413.806 -1.59307 -0.0966563 0
M  V30 4427 C 414.006 -1.27514 -1.5602 0
M  V30 4428 O 413.062 -1.02774 -2.30637 0
M  V30 4429 C 414.375 -2.99552 0.262481 0
M  V30 4430 C 415.923 -3.1231 0.207683 0
M  V30 4431 C 416.398 -4.54793 0.541012 0
M  V30 4432 N 417.889 -4.6058 0.491921 0
M  V30 4433 C 418.624 -5.68825 0.722857 0
M  V30 4434 N 418.12 -6.85287 1.0175 0
M  V30 4435 N 419.913 -5.58296 0.652815 0
M  V30 4436 H 412.064 -1.74409 1.21224 0
M  V30 4437 H 414.327 -0.812424 0.48854 0
M  V30 4438 H 414.033 -3.27593 1.27967 0
M  V30 4439 H 413.907 -3.75019 -0.40508 0
M  V30 4440 H 416.294 -2.84044 -0.800195 0
M  V30 4441 H 416.375 -2.39095 0.909255 0
M  V30 4442 H 416.019 -4.83783 1.5465 0
M  V30 4443 H 415.949 -5.26285 -0.18216 0
M  V30 4444 H 418.44 -3.7691 0.273366 0
M  V30 4445 H 418.753 -7.63725 1.18084 0
M  V30 4446 H 417.098 -6.86945 1.05509 0
M  V30 4447 H 420.289 -4.66189 0.422592 0
M  V30 4448 H 420.462 -6.42582 0.836182 0
M  V30 4449 N 413.868 0.0150385 -1.57593 0
M  V30 4450 C 414.816 1.02958 -2.08572 0
M  V30 4451 C 415.81 1.36554 -1.00246 0
M  V30 4452 O 417.016 1.35295 -1.18724 0
M  V30 4453 H 413.391 0.349619 -0.665786 0
M  V30 4454 H 415.362 0.573932 -2.92829 0
M  V30 4455 C 414.111 2.31752 -2.59203 0
M  V30 4456 H 413.434 2.06765 -3.42182 0
M  V30 4457 H 414.874 3.01053 -2.98568 0
M  V30 4458 C 413.333 3.01692 -1.49945 0
M  V30 4459 O 413.863 3.92083 -0.873704 0
M  V30 4460 N 412.069 2.6326 -1.23056 0
M  V30 4461 H 411.616 1.89838 -1.74125 0
M  V30 4462 H 411.574 3.10372 -0.501685 0
M  V30 4463 N 415.346 1.54954 0.287554 0
M  V30 4464 C 416.594 1.74528 1.01904 0
M  V30 4465 C 416.915 0.541349 1.87335 0
M  V30 4466 O 416.185 -0.444108 1.908 0
M  V30 4467 H 414.765 0.643576 0.379235 0
M  V30 4468 H 417.427 1.92333 0.315294 0
M  V30 4469 H 416.523 2.64015 1.6644 0
M  V30 4470 N 416.824 -0.551391 1.4764 0
M  V30 4471 C 418.054 -1.33163 1.57959 0
M  V30 4472 C 418.462 -1.87785 0.23094 0
M  V30 4473 O 417.805 -1.65996 -0.786825 0
M  V30 4474 C 417.867 -2.53449 2.54958 0
M  V30 4475 C 417.531 -2.20071 4.00522 0
M  V30 4476 C 418.528 -1.77017 4.88836 0
M  V30 4477 C 416.213 -2.31252 4.45901 0
M  V30 4478 C 418.207 -1.4558 6.20552 0
M  V30 4479 C 415.894 -1.99427 5.77644 0
M  V30 4480 C 416.892 -1.56659 6.64791 0
M  V30 4481 O 416.58 -1.25242 7.94084 0
M  V30 4482 H 416.312 -0.412022 0.535923 0
M  V30 4483 H 418.866 -0.674186 1.9402 0
M  V30 4484 H 417.096 -3.22104 2.13976 0
M  V30 4485 H 418.785 -3.15523 2.55343 0
M  V30 4486 H 419.551 -1.67867 4.55023 0
M  V30 4487 H 415.43 -2.63498 3.78272 0
M  V30 4488 H 418.974 -1.12125 6.8853 0
M  V30 4489 H 414.871 -2.08211 6.10998 0
M  V30 4490 H 415.639 -1.38822 8.06642 0
M  V30 4491 N 418.302 -1.35869 -0.798587 0
M  V30 4492 C 419.232 -1.32118 -1.92528 0
M  V30 4493 C 420.213 -0.194209 -1.68988 0
M  V30 4494 O 421.398 -0.390426 -1.90235 0
M  V30 4495 C 418.528 -1.10047 -3.29404 0
M  V30 4496 C 417.482 -2.19471 -3.67446 0
M  V30 4497 C 416.808 -1.82555 -5.02571 0
M  V30 4498 C 418.108 -3.61495 -3.76987 0
M  V30 4499 H 419.802 -2.26394 -1.95924 0
M  V30 4500 H 417.348 -1.08981 -0.94123 0
M  V30 4501 H 419.301 -1.06061 -4.07835 0
M  V30 4502 H 418.025 -0.122195 -3.26371 0
M  V30 4503 H 416.684 -2.22568 -2.91306 0
M  V30 4504 H 416.332 -0.833249 -4.9605 0
M  V30 4505 H 416.032 -2.5581 -5.28995 0
M  V30 4506 H 417.556 -1.80108 -5.83432 0
M  V30 4507 H 418.97 -3.60676 -4.4563 0
M  V30 4508 H 417.367 -4.33577 -4.14887 0
M  V30 4509 H 418.437 -3.97065 -2.78329 0
M  V30 4510 N 419.78 1.02168 -1.19998 0
M  V30 4511 C 420.712 2.10705 -0.901994 0
M  V30 4512 C 421.725 1.6244 0.108216 0
M  V30 4513 O 422.914 1.78082 -0.12214 0
M  V30 4514 C 420.014 3.37291 -0.329834 0
M  V30 4515 C 419.187 4.14714 -1.39035 0
M  V30 4516 C 418.246 5.19606 -0.830432 0
M  V30 4517 O 417.272 5.48809 -1.50989 0
M  V30 4518 N 418.474 5.79366 0.362696 0
M  V30 4519 H 421.239 2.36856 -1.83628 0
M  V30 4520 H 418.8 1.18518 -1.10296 0
M  V30 4521 H 420.792 4.04657 0.0587633 0
M  V30 4522 H 419.362 3.0843 0.508891 0
M  V30 4523 H 418.582 3.42392 -1.9535 0
M  V30 4524 H 419.87 4.63226 -2.10474 0
M  V30 4525 H 419.268 5.57968 0.932081 0
M  V30 4526 H 417.825 6.48106 0.69299 0
M  V30 4527 N 421.258 1.00505 1.21394 0
M  V30 4528 C 422.507 0.683159 1.89778 0
M  V30 4529 C 422.82 -0.789471 1.7896 0
M  V30 4530 O 424.026 -1.22344 2.42372 0
M  V30 4531 C 422.482 1.17146 3.40301 0
M  V30 4532 C 422.09 2.67017 3.5973 0
M  V30 4533 C 423.834 0.924461 4.14311 0
M  V30 4534 C 421.741 3.09387 5.04017 0
M  V30 4535 H 420.671 0.25183 0.710702 0
M  V30 4536 H 423.322 1.21622 1.37406 0
M  V30 4537 H 421.704 0.566451 3.91928 0
M  V30 4538 H 422.878 3.32968 3.18542 0
M  V30 4539 H 421.193 2.89732 2.99073 0
M  V30 4540 H 423.79 1.21658 5.20676 0
M  V30 4541 H 424.133 -0.139286 4.16067 0
M  V30 4542 H 424.666 1.49226 3.6875 0
M  V30 4543 H 421.405 4.14989 5.07409 0
M  V30 4544 H 420.925 2.48149 5.46061 0
M  V30 4545 H 422.604 3.01371 5.72525 0
M  V30 4546 N 422.737 -1.36956 0.779787 0
M  V30 4547 C 423.647 -2.33965 0.172491 0
M  V30 4548 C 424.663 -1.60574 -0.670222 0
M  V30 4549 O 425.839 -1.92617 -0.588263 0
M  V30 4550 C 422.904 -3.39761 -0.690173 0
M  V30 4551 C 421.965 -4.28964 0.169924 0
M  V30 4552 C 421.198 -5.29707 -0.651662 0
M  V30 4553 O 421.421 -5.38238 -1.88827 0
M  V30 4554 O 420.355 -6.01873 -0.0566264 0
M  V30 4555 H 424.181 -2.87647 0.974321 0
M  V30 4556 H 421.766 -1.39258 0.541078 0
M  V30 4557 H 423.648 -4.04471 -1.1824 0
M  V30 4558 H 422.323 -2.88394 -1.47006 0
M  V30 4559 H 421.23 -3.67326 0.708696 0
M  V30 4560 H 422.563 -4.83656 0.913085 0
M  V30 4561 N 424.215 -0.530993 -1.48385 0
M  V30 4562 C 425.162 0.231223 -2.29639 0
M  V30 4563 C 426.132 0.932864 -1.37429 0
M  V30 4564 O 427.317 0.933692 -1.66394 0
M  V30 4565 C 424.457 1.27155 -3.2082 0
M  V30 4566 C 423.57 0.578655 -4.28107 0
M  V30 4567 C 422.705 1.602 -5.06467 0
M  V30 4568 C 421.744 0.892625 -6.05556 0
M  V30 4569 N 420.881 1.86157 -6.76971 0
M  V30 4570 H 425.721 -0.467848 -2.94305 0
M  V30 4571 H 423.258 -0.242556 -1.45086 0
M  V30 4572 H 425.216 1.88703 -3.72085 0
M  V30 4573 H 423.846 1.939 -2.58075 0
M  V30 4574 H 422.898 -0.150782 -3.80101 0
M  V30 4575 H 424.21 0.0217065 -4.98795 0
M  V30 4576 H 423.364 2.29173 -5.61751 0
M  V30 4577 H 422.103 2.19285 -4.35621 0
M  V30 4578 H 421.108 0.188829 -5.49476 0
M  V30 4579 H 422.333 0.307878 -6.78402 0
M  V30 4580 H 420.279 2.44147 -6.08875 0
M  V30 4581 H 420.196 1.35608 -7.43738 0
M  V30 4582 H 421.464 2.54325 -7.36844 0
M  V30 4583 N 425.693 1.55336 -0.266172 0
M  V30 4584 C 426.623 2.25146 0.618981 0
M  V30 4585 C 427.604 1.23845 1.16604 0
M  V30 4586 O 428.789 1.52544 1.20183 0
M  V30 4587 C 425.919 2.96572 1.80728 0
M  V30 4588 C 424.873 4.04726 1.39215 0
M  V30 4589 C 424.199 4.63678 2.66283 0
M  V30 4590 C 425.499 5.19407 0.548942 0
M  V30 4591 H 427.193 2.99377 0.0368116 0
M  V30 4592 H 424.739 1.43991 0.0162651 0
M  V30 4593 H 426.692 3.44116 2.43232 0
M  V30 4594 H 425.416 2.19861 2.41514 0
M  V30 4595 H 424.075 3.57979 0.790351 0
M  V30 4596 H 423.723 3.83646 3.25308 0
M  V30 4597 H 423.423 5.367 2.39222 0
M  V30 4598 H 424.947 5.13967 3.29651 0
M  V30 4599 H 426.361 5.63059 1.07876 0
M  V30 4600 H 424.758 5.98936 0.373593 0
M  V30 4601 H 425.828 4.8295 -0.434394 0
M  V30 4602 N 427.171 -0.0066808 1.57599 0
M  V30 4603 C 428.104 -1.03397 2.03431 0
M  V30 4604 C 429.082 -1.33872 0.922877 0
M  V30 4605 O 430.266 -1.4615 1.19048 0
M  V30 4606 C 427.393 -2.36325 2.42628 0
M  V30 4607 C 426.439 -2.21557 3.64438 0
M  V30 4608 S 427.272 -1.54789 5.12641 0
M  V30 4609 C 428.428 -2.8916 5.55101 0
M  V30 4610 H 428.661 -0.643687 2.90248 0
M  V30 4611 H 426.194 -0.217349 1.52863 0
M  V30 4612 H 428.152 -3.12759 2.65879 0
M  V30 4613 H 426.813 -2.72495 1.56222 0
M  V30 4614 H 426.006 -3.1974 3.89592 0
M  V30 4615 H 425.608 -1.53267 3.41153 0
M  V30 4616 H 427.9 -3.8547 5.57153 0
M  V30 4617 H 428.843 -2.68713 6.55133 0
M  V30 4618 H 429.251 -2.92762 4.82649 0
M  V30 4619 N 428.649 -1.55105 -0.279332 0
M  V30 4620 C 429.877 -1.7943 -1.03017 0
M  V30 4621 C 430.292 -0.564456 -1.80165 0
M  V30 4622 O 429.649 0.466326 -1.76442 0
M  V30 4623 C 429.7 -3.0155 -1.99374 0
M  V30 4624 O 429.421 -4.19784 -1.25352 0
M  V30 4625 C 430.922 -3.3843 -2.86321 0
M  V30 4626 H 428.142 -0.597882 -0.304594 0
M  V30 4627 H 430.686 -2.02105 -0.312035 0
M  V30 4628 H 428.841 -2.81019 -2.66659 0
M  V30 4629 H 429.255 -4.88781 -1.90246 0
M  V30 4630 H 430.729 -4.27066 -3.49741 0
M  V30 4631 H 431.206 -2.57549 -3.5576 0
M  V30 4632 H 431.812 -3.61197 -2.24536 0
M  V30 4633 N 430.127 0.543554 -1.4793 0
M  V30 4634 C 431.075 1.67039 -1.61866 0
M  V30 4635 C 432.069 1.62294 -0.48549 0
M  V30 4636 O 433.275 1.67315 -0.66376 0
M  V30 4637 H 429.65 0.552954 -0.509652 0
M  V30 4638 H 431.621 1.52426 -2.56533 0
M  V30 4639 C 430.37 3.05357 -1.6629 0
M  V30 4640 H 429.693 3.09696 -2.5284 0
M  V30 4641 H 431.133 3.83855 -1.80088 0
M  V30 4642 C 429.592 3.34531 -0.398861 0
M  V30 4643 O 430.122 3.98649 0.494162 0
M  V30 4644 N 428.328 2.89299 -0.2747 0
M  V30 4645 H 427.875 2.37298 -1.00236 0
M  V30 4646 H 427.833 3.09188 0.570075 0
M  V30 4647 N 431.605 1.3629 0.791371 0
M  V30 4648 C 432.568 1.30309 1.88553 0
M  V30 4649 C 433.568 0.211204 1.59407 0
M  V30 4650 O 434.758 0.465865 1.67855 0
M  V30 4651 C 431.89 1.01956 3.25297 0
M  V30 4652 H 433.083 2.27614 1.95273 0
M  V30 4653 H 430.636 1.21035 0.988953 0
M  V30 4654 H 431.371 0.050998 3.2426 0
M  V30 4655 H 431.156 1.80968 3.4784 0
M  V30 4656 H 432.646 1.0037 4.05359 0
M  V30 4657 N 433.083 -1.0153 1.20538 0
M  V30 4658 C 434.33 -1.75149 1.01633 0
M  V30 4659 C 434.658 -1.89189 -0.451399 0
M  V30 4660 O 433.913 -1.41551 -1.35136 0
M  V30 4661 C 434.212 -3.17213 1.64654 0
M  V30 4662 C 433.878 -3.23146 3.14464 0
M  V30 4663 C 432.54 -3.24472 3.55347 0
M  V30 4664 C 434.892 -3.21207 4.10458 0
M  V30 4665 C 432.22 -3.21532 4.90748 0
M  V30 4666 C 434.572 -3.19808 5.45807 0
M  V30 4667 C 433.236 -3.19439 5.86102 0
M  V30 4668 H 432.506 -0.640914 0.3719 0
M  V30 4669 H 435.153 -1.19071 1.49981 0
M  V30 4670 H 433.458 -3.76457 1.08571 0
M  V30 4671 H 435.155 -3.72871 1.4754 0
M  V30 4672 H 431.745 -3.2285 2.81897 0
M  V30 4673 H 435.929 -3.19351 3.79906 0
M  V30 4674 H 431.185 -3.19578 5.21229 0
M  V30 4675 H 435.359 -3.1726 6.19935 0
M  V30 4676 H 432.986 -3.16915 6.90991 0
M  V30 4677 N 434.561 -1.01147 -1.20859 0
M  V30 4678 C 435.81 -0.693214 -1.89413 0
M  V30 4679 C 436.123 0.779969 -1.79376 0
M  V30 4680 O 437.329 1.21057 -2.43017 0
M  V30 4681 C 435.785 -1.18949 -3.39675 0
M  V30 4682 C 435.393 -2.68921 -3.58309 0
M  V30 4683 C 437.137 -0.94642 -4.13815 0
M  V30 4684 C 435.044 -3.12056 -5.0237 0
M  V30 4685 H 433.974 -0.255595 -0.709357 0
M  V30 4686 H 436.625 -1.22349 -1.36759 0
M  V30 4687 H 435.007 -0.587228 -3.91622 0
M  V30 4688 H 436.181 -3.34652 -3.16772 0
M  V30 4689 H 434.496 -2.91314 -2.97532 0
M  V30 4690 H 437.093 -1.24417 -5.20023 0
M  V30 4691 H 437.436 0.117219 -4.16135 0
M  V30 4692 H 437.969 -1.5118 -3.67953 0
M  V30 4693 H 434.708 -4.17674 -5.05202 0
M  V30 4694 H 434.228 -2.51041 -5.44737 0
M  V30 4695 H 435.907 -3.04403 -5.70918 0
M  V30 4696 N 436.039 1.36541 -0.78704 0
M  V30 4697 C 437.264 2.0409 -0.369053 0
M  V30 4698 C 437.689 1.58957 1.00569 0
M  V30 4699 O 437.047 0.756926 1.64743 0
M  V30 4700 C 437.095 3.57924 -0.438466 0
M  V30 4701 O 436.199 4.08642 0.555479 0
M  V30 4702 H 435.54 0.645142 -0.157122 0
M  V30 4703 H 438.07 1.74545 -1.06749 0
M  V30 4704 H 438.08 4.06887 -0.301218 0
M  V30 4705 H 436.755 3.90127 -1.44132 0
M  V30 4706 H 435.332 3.70958 0.380088 0
M  V30 4707 N 437.518 0.538854 1.48102 0
M  V30 4708 C 438.767 0.0059532 2.01699 0
M  V30 4709 C 439.08 -1.34476 1.42041 0
M  V30 4710 O 440.286 -1.96653 1.87189 0
M  V30 4711 C 438.742 -0.0397627 3.59878 0
M  V30 4712 C 438.35 1.30659 4.28523 0
M  V30 4713 C 440.094 -0.521024 4.2129 0
M  V30 4714 C 438.001 1.22098 5.78659 0
M  V30 4715 H 436.931 -0.00154456 0.753998 0
M  V30 4716 H 439.582 0.683963 1.70277 0
M  V30 4717 H 437.964 -0.783037 3.88181 0
M  V30 4718 H 439.138 2.06613 4.11883 0
M  V30 4719 H 437.453 1.7243 3.79021 0
M  V30 4720 H 440.05 -0.603184 5.31287 0
M  V30 4721 H 440.393 -1.52885 3.8721 0
M  V30 4722 H 440.926 0.166834 3.9745 0
M  V30 4723 H 437.665 2.20424 6.17328 0
M  V30 4724 H 437.185 0.50295 5.97688 0
M  V30 4725 H 438.864 0.915345 6.40492 0
M  V30 4726 N 438.996 -1.55193 0.274407 0
M  V30 4727 C 440.245 -1.98758 -0.343213 0
M  V30 4728 C 440.558 -1.16624 -1.5703 0
M  V30 4729 O 441.764 -1.5033 -2.26082 0
M  V30 4730 C 440.22 -3.53759 -0.661996 0
M  V30 4731 C 439.828 -4.4467 0.54524 0
M  V30 4732 C 441.572 -4.05916 -1.24228 0
M  V30 4733 C 439.479 -5.91058 0.201084 0
M  V30 4734 H 438.409 -0.742353 -0.132014 0
M  V30 4735 H 441.06 -1.79545 0.378948 0
M  V30 4736 H 439.442 -3.68772 -1.44304 0
M  V30 4737 H 440.616 -4.41426 1.32212 0
M  V30 4738 H 438.931 -4.03143 1.04232 0
M  V30 4739 H 441.528 -5.12831 -1.51357 0
M  V30 4740 H 441.871 -3.54908 -2.17592 0
M  V30 4741 H 442.404 -3.9434 -0.523542 0
M  V30 4742 H 439.143 -6.46161 1.10258 0
M  V30 4743 H 438.663 -5.97373 -0.539045 0
M  V30 4744 H 440.342 -6.46669 -0.206954 0
M  V30 4745 N 440.474 -0.00167713 -1.576 0
M  V30 4746 C 441.751 0.719951 -1.81868 0
M  V30 4747 C 442.131 1.91895 -0.879747 0
M  V30 4748 O 441.479 2.28389 0.0711423 0
M  V30 4749 C 441.689 1.12409 -3.30402 0
M  V30 4750 C 443.037 1.52724 -3.96182 0
M  V30 4751 O 444.061 1.21784 -3.34734 0
M  V30 4752 O 442.92 2.10265 -5.04431 0
M  V30 4753 H 440.014 0.350707 -0.748955 0
M  V30 4754 H 442.56 -0.0272597 -1.69678 0
M  V30 4755 H 441.332 0.269532 -3.90371 0
M  V30 4756 H 440.955 1.93035 -3.47596 0
M  V30 4757 N 441.952 1.55251 0.271103 0
M  V30 4758 C 443.229 1.66664 1.02384 0
M  V30 4759 C 443.609 0.534363 2.04225 0
M  V30 4760 O 442.957 -0.465337 2.23712 0
M  V30 4761 C 443.167 3.05961 1.67895 0
M  V30 4762 C 444.515 3.63772 2.18986 0
M  V30 4763 O 445.539 3.08606 1.77878 0
M  V30 4764 O 444.398 4.60429 2.94393 0
M  V30 4765 H 441.492 0.676957 0.475035 0
M  V30 4766 H 444.038 1.67589 0.26681 0
M  V30 4767 H 442.81 3.79815 0.941071 0
M  V30 4768 H 442.433 3.08943 2.5028 0
M  V30 4769 N 443.43 -0.535701 1.48216 0
M  V30 4770 C 444.36 -1.65014 1.65204 0
M  V30 4771 C 445.341 -1.62554 0.501011 0
M  V30 4772 O 446.526 -1.7984 0.732886 0
M  V30 4773 C 443.656 -3.03616 1.68626 0
M  V30 4774 C 442.61 -3.20932 2.83172 0
M  V30 4775 C 441.936 -4.60537 2.71679 0
M  V30 4776 C 443.236 -3.04249 4.24535 0
M  V30 4777 H 444.93 -1.51053 2.58502 0
M  V30 4778 H 442.476 -0.725262 1.24402 0
M  V30 4779 H 444.429 -3.81446 1.79099 0
M  V30 4780 H 443.153 -3.18587 0.719026 0
M  V30 4781 H 441.812 -2.45517 2.72244 0
M  V30 4782 H 441.46 -4.72336 1.72937 0
M  V30 4783 H 441.16 -4.73069 3.48538 0
M  V30 4784 H 442.684 -5.40475 2.84112 0
M  V30 4785 H 444.098 -3.71877 4.36326 0
M  V30 4786 H 442.495 -3.28278 5.02348 0
M  V30 4787 H 443.565 -2.00739 4.41397 0
M  V30 4788 N 444.908 -1.36708 -0.784132 0
M  V30 4789 C 446.133 -1.34565 -1.5782 0
M  V30 4790 C 446.558 0.0695257 -1.87971 0
M  V30 4791 O 445.916 1.04302 -1.48293 0
M  V30 4792 C 445.964 -2.17952 -2.87279 0
M  V30 4793 O 445.068 -1.57563 -3.81114 0
M  V30 4794 H 444.409 -0.460337 -0.478524 0
M  V30 4795 H 446.939 -1.80064 -0.971495 0
M  V30 4796 H 446.949 -2.30721 -3.365 0
M  V30 4797 H 445.624 -3.20823 -2.64661 0
M  V30 4798 H 444.201 -1.53764 -3.39722 0
M  V30 4799 N 446.386 1.0089 -1.21074 0
M  V30 4800 C 447.333 2.09588 -0.966512 0
M  V30 4801 C 448.303 1.65761 0.106089 0
M  V30 4802 O 449.488 1.90758 -0.0402287 0
M  V30 4803 C 446.628 3.40958 -0.533058 0
M  V30 4804 C 445.741 3.9822 -1.67467 0
M  V30 4805 C 444.876 5.17682 -1.19076 0
M  V30 4806 C 443.915 5.67043 -2.30496 0
M  V30 4807 N 443.052 6.77759 -1.83267 0
M  V30 4808 H 447.892 2.29815 -1.89708 0
M  V30 4809 H 445.429 1.12689 -0.945489 0
M  V30 4810 H 447.387 4.1637 -0.263019 0
M  V30 4811 H 446.017 3.20781 0.360505 0
M  V30 4812 H 445.069 3.1983 -2.05944 0
M  V30 4813 H 446.381 4.3085 -2.51336 0
M  V30 4814 H 445.535 6.00326 -0.877151 0
M  V30 4815 H 444.274 4.86635 -0.322066 0
M  V30 4816 H 443.279 4.82999 -2.62664 0
M  V30 4817 H 444.504 6.00121 -3.17855 0
M  V30 4818 H 442.45 6.48527 -0.987356 0
M  V30 4819 H 442.367 7.09624 -2.60711 0
M  V30 4820 H 443.635 7.63949 -1.54928 0
M  V30 4821 N 447.864 1.01787 1.20321 0
M  V30 4822 C 449.094 0.72614 1.93419 0
M  V30 4823 C 449.502 -0.717317 1.75075 0
M  V30 4824 O 448.845 -1.49836 1.06278 0
M  V30 4825 C 448.907 0.983621 3.45782 0
M  V30 4826 C 448.571 2.41645 3.87888 0
M  V30 4827 C 449.568 3.39732 3.93545 0
M  V30 4828 C 447.253 2.75752 4.19841 0
M  V30 4829 C 449.247 4.69988 4.30569 0
M  V30 4830 C 446.934 4.06221 4.56539 0
M  V30 4831 C 447.932 5.0315 4.61876 0
M  V30 4832 O 447.62 6.31284 4.97731 0
M  V30 4833 H 447.352 0.265824 0.621541 0
M  V30 4834 H 449.906 1.3623 1.53722 0
M  V30 4835 H 448.136 0.290301 3.85609 0
M  V30 4836 H 449.825 0.683279 4.00108 0
M  V30 4837 H 450.591 3.14718 3.69022 0
M  V30 4838 H 446.47 2.00993 4.14877 0
M  V30 4839 H 450.014 5.45642 4.3465 0
M  V30 4840 H 445.911 4.31013 4.80518 0
M  V30 4841 H 446.679 6.35591 5.15719 0
M  V30 4842 N 449.342 -1.36122 0.79427 0
M  V30 4843 C 450.619 -1.93398 0.292685 0
M  V30 4844 C 450.999 -1.72567 -1.21589 0
M  V30 4845 O 450.347 -1.08745 -2.00965 0
M  V30 4846 C 450.557 -3.42099 0.690614 0
M  V30 4847 C 451.905 -4.19231 0.673105 0
M  V30 4848 O 452.929 -3.50559 0.631389 0
M  V30 4849 O 451.788 -5.41732 0.720362 0
M  V30 4850 H 448.882 -0.823712 0.0736693 0
M  V30 4851 H 451.428 -1.45273 0.87714 0
M  V30 4852 H 450.2 -3.50938 1.73085 0
M  V30 4853 H 449.823 -3.97519 0.0803036 0
M  V30 4854 N 450.82 -0.546701 -1.47814 0
M  V30 4855 C 452.066 -0.0187684 -2.02791 0
M  V30 4856 C 452.399 1.32338 -1.42128 0
M  V30 4857 O 451.674 1.85867 -0.573023 0
M  V30 4858 C 451.957 0.0854985 -3.59998 0
M  V30 4859 C 451.81 -1.283 -4.31114 0
M  V30 4860 C 453.129 0.80412 -4.32691 0
M  V30 4861 H 450.248 -0.0082946 -0.736953 0
M  V30 4862 H 452.89 -0.706962 -1.76358 0
M  V30 4863 H 451.04 0.671609 -3.82651 0
M  V30 4864 H 452.712 -1.91151 -4.19832 0
M  V30 4865 H 450.955 -1.86049 -3.91878 0
M  V30 4866 H 451.626 -1.16287 -5.39612 0
M  V30 4867 H 454.102 0.306576 -4.14969 0
M  V30 4868 H 452.978 0.846011 -5.42341 0
M  V30 4869 H 453.239 1.85802 -4.01161 0
M  V30 4870 N 452.299 1.55045 -0.282633 0
M  V30 4871 C 453.231 2.2023 0.634924 0
M  V30 4872 C 454.244 1.18931 1.11172 0
M  V30 4873 O 455.433 1.4562 1.03233 0
M  V30 4874 C 452.533 2.82041 1.87899 0
M  V30 4875 C 451.706 4.091 1.54776 0
M  V30 4876 C 450.765 4.54887 2.64507 0
M  V30 4877 O 449.791 5.20496 2.30375 0
M  V30 4878 N 450.993 4.25659 3.94709 0
M  V30 4879 H 453.758 2.99601 0.0769811 0
M  V30 4880 H 451.319 1.61565 -0.104048 0
M  V30 4881 H 453.311 3.09613 2.60619 0
M  V30 4882 H 451.881 2.06618 2.3458 0
M  V30 4883 H 451.101 3.88736 0.654049 0
M  V30 4884 H 452.389 4.9187 1.30158 0
M  V30 4885 H 451.787 3.7306 4.25256 0
M  V30 4886 H 450.344 4.57984 4.63782 0
M  V30 4887 N 453.777 0.010035 1.57597 0
M  V30 4888 C 455.023 -0.673697 1.91283 0
M  V30 4889 C 455.356 -1.72863 0.884979 0
M  V30 4890 O 454.631 -1.94268 -0.0949487 0
M  V30 4891 C 454.914 -1.30766 3.35518 0
M  V30 4892 C 454.767 -0.263578 4.49027 0
M  V30 4893 C 456.086 -2.23105 3.79358 0
M  V30 4894 H 453.205 -0.243439 0.695634 0
M  V30 4895 H 455.847 0.0633864 1.89894 0
M  V30 4896 H 453.997 -1.93588 3.36832 0
M  V30 4897 H 455.669 0.365738 4.59848 0
M  V30 4898 H 453.912 0.413077 4.31829 0
M  V30 4899 H 454.583 -0.746398 5.4693 0
M  V30 4900 H 457.059 -1.70289 3.79659 0
M  V30 4901 H 455.935 -2.64424 4.81011 0
M  V30 4902 H 456.196 -3.11433 3.13787 0
M  V30 4903 N 455.255 -1.55392 -0.262866 0
M  V30 4904 C 456.671 -1.47459 -0.610582 0
M  V30 4905 C 456.871 -0.697031 -1.8906 0
M  V30 4906 O 455.927 -0.219952 -2.5154 0
M  V30 4907 C 457.24 -2.91751 -0.728131 0
M  V30 4908 C 458.788 -3.02027 -0.821517 0
M  V30 4909 C 459.263 -4.47594 -0.97076 0
M  V30 4910 N 460.754 -4.51465 -1.03603 0
M  V30 4911 C 461.489 -5.61326 -1.17049 0
M  V30 4912 N 460.985 -6.81032 -1.2715 0
M  V30 4913 N 462.778 -5.49089 -1.20239 0
M  V30 4914 H 454.929 -2.04395 0.577632 0
M  V30 4915 H 457.192 -0.927287 0.197086 0
M  V30 4916 H 456.898 -3.51413 0.142132 0
M  V30 4917 H 456.772 -3.4134 -1.6052 0
M  V30 4918 H 459.159 -2.42456 -1.68224 0
M  V30 4919 H 459.24 -2.55674 0.0803688 0
M  V30 4920 H 458.884 -5.07771 -0.114655 0
M  V30 4921 H 458.814 -4.91613 -1.88745 0
M  V30 4922 H 461.305 -3.6524 -0.96996 0
M  V30 4923 H 461.618 -7.60511 -1.37271 0
M  V30 4924 H 459.963 -6.83824 -1.24136 0
M  V30 4925 H 463.154 -4.54507 -1.11985 0
M  V30 4926 H 463.327 -6.34749 -1.30373 0
M  V30 4927 N 456.733 0.527833 -1.48498 0
M  V30 4928 C 457.696 1.61439 -1.62696 0
M  V30 4929 C 458.696 1.52824 -0.500136 0
M  V30 4930 O 459.886 1.56456 -0.765976 0
M  V30 4931 C 457.018 3.01063 -1.59918 0
M  V30 4932 H 458.211 1.50189 -2.59583 0
M  V30 4933 H 455.764 0.750055 -1.37127 0
M  V30 4934 H 456.499 3.17818 -0.645163 0
M  V30 4935 H 456.284 3.08725 -2.41726 0
M  V30 4936 H 457.774 3.80057 -1.73051 0
M  V30 4937 N 458.211 1.37122 0.776871 0
M  V30 4938 C 459.174 1.32301 1.8716 0
M  V30 4939 C 460.174 0.228099 1.59174 0
M  V30 4940 O 461.364 0.483642 1.67352 0
M  V30 4941 C 458.496 1.054 3.24197 0
M  V30 4942 H 459.689 2.29673 1.92848 0
M  V30 4943 H 457.242 1.22077 0.97606 0
M  V30 4944 H 457.977 0.0853872 3.24188 0
M  V30 4945 H 457.762 1.84648 3.45901 0
M  V30 4946 H 459.252 1.04664 4.04271 0
M  V30 4947 N 459.689 -1.00246 1.21608 0
M  V30 4948 C 460.935 -1.74319 1.03638 0
M  V30 4949 C 461.268 -1.89408 -0.428749 0
M  V30 4950 O 460.543 -1.43026 -1.3181 0
M  V30 4951 C 460.826 -3.15431 1.73711 0
M  V30 4952 C 460.679 -3.08049 3.27759 0
M  V30 4953 C 461.998 -4.14407 1.48173 0
M  V30 4954 H 459.117 -0.632741 0.377899 0
M  V30 4955 H 461.759 -1.16853 1.49818 0
M  V30 4956 H 459.909 -3.64493 1.34452 0
M  V30 4957 H 461.581 -2.66681 3.76403 0
M  V30 4958 H 459.824 -2.45088 3.57931 0
M  V30 4959 H 460.495 -4.07862 3.71958 0
M  V30 4960 H 462.971 -3.74061 1.82258 0
M  V30 4961 H 461.847 -5.11279 1.99713 0
M  V30 4962 H 462.108 -4.40174 0.412273 0
M  V30 4963 N 461.167 -1.02423 -1.1978 0
M  V30 4964 C 462.392 -0.7373 -1.93852 0
M  V30 4965 C 462.817 0.696923 -1.74713 0
M  V30 4966 O 462.175 1.48056 -1.04638 0
M  V30 4967 C 462.223 -1.08783 -3.438 0
M  V30 4968 O 461.327 -0.20383 -4.11896 0
M  V30 4969 H 460.668 -0.27284 -0.605355 0
M  V30 4970 H 463.198 -1.36966 -1.51992 0
M  V30 4971 H 463.208 -1.04276 -3.9445 0
M  V30 4972 H 461.883 -2.13274 -3.57053 0
M  V30 4973 H 460.46 -0.307091 -3.71633 0
M  V30 4974 N 462.645 1.35699 -0.801477 0
M  V30 4975 C 463.87 2.03687 -0.390678 0
M  V30 4976 C 464.295 1.60015 0.988778 0
M  V30 4977 O 463.653 0.774357 1.63931 0
M  V30 4978 C 463.701 3.57439 -0.476404 0
M  V30 4979 O 462.805 4.09208 0.512106 0
M  V30 4980 H 462.146 0.64344 -0.163956 0
M  V30 4981 H 464.676 1.73403 -1.08594 0
M  V30 4982 H 464.686 4.06544 -0.344357 0
M  V30 4983 H 463.361 3.88576 -1.48262 0
M  V30 4984 H 461.938 3.7134 0.340721 0
M  V30 4985 N 464.123 0.554532 1.47522 0
M  V30 4986 C 465.056 -0.242442 2.26908 0
M  V30 4987 C 466.034 -0.922722 1.33883 0
M  V30 4988 O 467.218 -0.942244 1.63261 0
M  V30 4989 C 464.345 -1.34525 3.10839 0
M  V30 4990 C 463.391 -0.773805 4.19422 0
M  V30 4991 S 464.224 0.377525 5.34168 0
M  V30 4992 C 465.38 -0.727164 6.21662 0
M  V30 4993 H 465.613 0.431218 2.94156 0
M  V30 4994 H 463.146 0.3408 1.50592 0
M  V30 4995 H 465.104 -1.97683 3.59766 0
M  V30 4996 H 463.765 -1.99073 2.42958 0
M  V30 4997 H 462.958 -1.60187 4.77866 0
M  V30 4998 H 462.56 -0.218448 3.73361 0
M  V30 4999 H 464.852 -1.61992 6.57849 0
M  V30 5000 H 465.795 -0.180135 7.07871 0
M  V30 5001 H 466.203 -1.01863 5.55233 0
M  V30 5002 N 465.601 -1.54893 0.290851 0
M  V30 5003 C 466.841 -2.01842 -0.322388 0
M  V30 5004 C 467.205 -1.17477 -1.51865 0
M  V30 5005 O 468.406 -1.54077 -2.20258 0
M  V30 5006 C 466.677 -3.50874 -0.679844 0
M  V30 5007 S 468.236 -4.19796 -1.27739 0
M  V30 5008 H 465.054 -0.704005 -0.0994866 0
M  V30 5009 H 467.656 -1.91015 0.416358 0
M  V30 5010 H 466.36 -4.09915 0.199435 0
M  V30 5011 H 465.891 -3.65717 -1.44964 0
M  V30 5012 H 467.906 -4.24729 -2.56554 0
M  V30 5013 N 467.08 -0.0183926 -1.57589 0
M  V30 5014 C 468.496 0.337897 -1.55982 0
M  V30 5015 C 468.696 1.73604 -1.02294 0
M  V30 5016 O 467.752 2.43589 -0.664895 0
M  V30 5017 C 469.065 0.196305 -3.00059 0
M  V30 5018 C 470.613 0.269875 -3.11834 0
M  V30 5019 C 471.088 0.157197 -4.5773 0
M  V30 5020 N 472.579 0.214521 -4.62703 0
M  V30 5021 C 473.314 0.150955 -5.73201 0
M  V30 5022 N 472.81 0.0369212 -6.9279 0
M  V30 5023 N 474.603 0.204162 -5.61729 0
M  V30 5024 H 466.754 -0.93279 -1.90821 0
M  V30 5025 H 469.017 -0.359253 -0.877292 0
M  V30 5026 H 468.723 -0.766383 -3.43248 0
M  V30 5027 H 468.597 0.970908 -3.6449 0
M  V30 5028 H 470.984 1.22302 -2.68563 0
M  V30 5029 H 471.065 -0.534918 -2.50144 0
M  V30 5030 H 470.709 -0.792479 -5.01679 0
M  V30 5031 H 470.639 0.980717 -5.17387 0
M  V30 5032 H 473.13 0.303238 -3.76681 0
M  V30 5033 H 473.443 -0.00518321 -7.728 0
M  V30 5034 H 471.788 0.0022886 -6.95 0
M  V30 5035 H 474.979 0.291575 -4.67191 0
M  V30 5036 H 475.152 0.15116 -6.47824 0
M  V30 5037 N 468.558 1.5553 0.254621 0
M  V30 5038 C 469.468 1.92789 1.33677 0
M  V30 5039 C 470.484 0.827356 1.53071 0
M  V30 5040 O 471.66 1.12807 1.66843 0
M  V30 5041 C 468.725 2.20827 2.67275 0
M  V30 5042 C 467.786 3.4427 2.5647 0
M  V30 5043 C 467.019 3.70961 3.83697 0
M  V30 5044 O 467.242 2.99852 4.85227 0
M  V30 5045 O 466.176 4.64491 3.82794 0
M  V30 5046 H 470.002 2.84945 1.05071 0
M  V30 5047 H 467.587 1.42312 0.454723 0
M  V30 5048 H 469.469 2.40204 3.46237 0
M  V30 5049 H 468.144 1.31851 2.9563 0
M  V30 5050 H 467.051 3.30209 1.75821 0
M  V30 5051 H 468.384 4.33524 2.33062 0
M  V30 5052 N 470.036 -0.519951 1.48776 0
M  V30 5053 C 470.999 -1.60574 1.6355 0
M  V30 5054 C 471.999 -1.52557 0.508234 0
M  V30 5055 O 473.189 -1.56047 0.774262 0
M  V30 5056 C 470.321 -3.00211 1.61512 0
M  V30 5057 H 471.514 -1.4881 2.60376 0
M  V30 5058 H 469.067 -0.742772 1.37523 0
M  V30 5059 H 469.802 -3.17471 0.662009 0
M  V30 5060 H 469.587 -3.07439 2.43359 0
M  V30 5061 H 471.077 -3.79134 1.75064 0
M  V30 5062 N 471.514 -1.37532 -0.769588 0
M  V30 5063 C 472.762 -1.32597 -1.5252 0
M  V30 5064 C 473.083 0.0884294 -1.94799 0
M  V30 5065 O 472.353 1.03289 -1.66458 0
M  V30 5066 H 470.933 -0.487846 -0.565699 0
M  V30 5067 H 473.595 -1.72044 -0.915806 0
M  V30 5068 H 472.691 -1.96643 -2.42359 0
M  V30 5069 N 472.992 0.995999 -1.22138 0
M  V30 5070 C 473.922 2.10387 -1.01289 0
M  V30 5071 C 474.903 1.69975 0.0651454 0
M  V30 5072 O 476.088 1.9396 -0.0964628 0
M  V30 5073 C 473.218 3.42312 -0.586517 0
M  V30 5074 C 472.172 3.96558 -1.61014 0
M  V30 5075 C 471.498 5.24494 -1.0397 0
M  V30 5076 C 472.798 4.27595 -2.99933 0
M  V30 5077 H 474.492 2.28086 -1.93951 0
M  V30 5078 H 472.038 1.09607 -0.933928 0
M  V30 5079 H 473.991 4.19223 -0.427793 0
M  V30 5080 H 472.715 3.24431 0.375761 0
M  V30 5081 H 471.374 3.21776 -1.75658 0
M  V30 5082 H 471.022 5.02953 -0.0688703 0
M  V30 5083 H 470.722 5.61755 -1.72352 0
M  V30 5084 H 472.246 6.04042 -0.892494 0
M  V30 5085 H 473.66 4.95315 -2.8868 0
M  V30 5086 H 472.057 4.76021 -3.6541 0
M  V30 5087 H 473.127 3.35498 -3.50099 0
M  V30 5088 N 474.47 1.03057 1.19235 0
M  V30 5089 C 475.716 0.738841 1.89506 0
M  V30 5090 C 476.071 -0.724807 1.78225 0
M  V30 5091 O 475.364 -1.52118 1.16494 0
M  V30 5092 C 475.558 1.1268 3.39172 0
M  V30 5093 C 475.387 2.62662 3.65019 0
M  V30 5094 C 474.157 3.29658 3.82954 0
M  V30 5095 C 476.355 3.60873 3.66436 0
M  V30 5096 N 474.337 4.68726 3.96446 0
M  V30 5097 C 475.708 4.85566 3.8552 0
M  V30 5098 C 477.763 3.54647 3.49471 0
M  V30 5099 C 476.466 6.04783 3.89397 0
M  V30 5100 C 478.492 4.73281 3.54625 0
M  V30 5101 C 477.854 5.96789 3.74196 0
M  V30 5102 H 473.953 0.322256 0.712513 0
M  V30 5103 H 476.537 1.31822 1.43287 0
M  V30 5104 H 474.708 0.575612 3.84111 0
M  V30 5105 H 476.44 0.787145 3.96971 0
M  V30 5106 H 473.195 2.8007 3.81913 0
M  V30 5107 H 473.619 5.40971 4.07037 0
M  V30 5108 H 478.261 2.60143 3.33295 0
M  V30 5109 H 475.979 6.99654 4.04364 0
M  V30 5110 H 479.565 4.70094 3.42787 0
M  V30 5111 H 478.445 6.87051 3.78061 0
M  V30 5112 N 475.948 -1.35272 0.808662 0
M  V30 5113 C 477.173 -2.03477 0.401475 0
M  V30 5114 C 477.598 -1.60537 -0.980279 0
M  V30 5115 O 476.956 -0.78304 -1.63518 0
M  V30 5116 C 477.004 -3.57181 0.495354 0
M  V30 5117 O 476.108 -4.09474 -0.490397 0
M  V30 5118 H 475.449 -0.642561 0.167366 0
M  V30 5119 H 477.979 -1.72824 1.09512 0
M  V30 5120 H 477.989 -4.06356 0.365912 0
M  V30 5121 H 476.664 -3.87784 1.5032 0
M  V30 5122 H 475.241 -3.71516 -0.321023 0
M  V30 5123 N 477.426 -0.562348 -1.47226 0
M  V30 5124 C 478.336 0.185466 -2.33866 0
M  V30 5125 C 479.352 0.906713 -1.48508 0
M  V30 5126 O 480.528 0.874458 -1.81425 0
M  V30 5127 C 477.593 1.19904 -3.25306 0
M  V30 5128 C 476.654 0.484669 -4.26555 0
M  V30 5129 C 475.887 1.44996 -5.13626 0
M  V30 5130 O 476.11 2.68515 -5.03245 0
M  V30 5131 O 475.044 0.971642 -5.94006 0
M  V30 5132 H 478.87 -0.525361 -2.99121 0
M  V30 5133 H 476.455 -0.322916 -1.45868 0
M  V30 5134 H 478.337 1.78399 -3.81774 0
M  V30 5135 H 477.012 1.8917 -2.62672 0
M  V30 5136 H 475.919 -0.141605 -3.73832 0
M  V30 5137 H 477.252 -0.166634 -4.91918 0
M  V30 5138 N 478.904 1.54736 -0.299062 0
M  V30 5139 C 480.15 2.01114 0.304123 0
M  V30 5140 C 480.505 1.18376 1.51674 0
M  V30 5141 O 479.798 0.251635 1.8994 0
M  V30 5142 C 479.992 3.50199 0.713835 0
M  V30 5143 C 479.821 4.47366 -0.457531 0
M  V30 5144 C 478.591 4.9631 -0.948933 0
M  V30 5145 C 480.789 4.9755 -1.30186 0
M  V30 5146 N 478.771 5.77327 -2.08726 0
M  V30 5147 C 480.142 5.7625 -2.28771 0
M  V30 5148 C 482.197 4.79739 -1.33246 0
M  V30 5149 C 480.9 6.39036 -3.3019 0
M  V30 5150 C 482.926 5.43343 -2.33521 0
M  V30 5151 C 482.288 6.21874 -3.30836 0
M  V30 5152 H 478.387 0.778318 0.0757992 0
M  V30 5153 H 480.971 1.89925 -0.428536 0
M  V30 5154 H 479.142 3.61681 1.41567 0
M  V30 5155 H 480.874 3.83374 1.29639 0
M  V30 5156 H 477.629 4.7069 -0.52423 0
M  V30 5157 H 478.053 6.22521 -2.66077 0
M  V30 5158 H 482.695 4.18609 -0.59383 0
M  V30 5159 H 480.413 6.99302 -4.04973 0
M  V30 5160 H 483.999 5.31492 -2.3666 0
M  V30 5161 H 482.879 6.70217 -4.07159 0
M  V30 5162 N 480.382 0.0267497 1.57577 0
M  V30 5163 C 481.607 -0.666227 1.96408 0
M  V30 5164 C 482.032 -1.65004 0.903071 0
M  V30 5165 O 481.39 -1.80787 -0.136263 0
M  V30 5166 C 481.438 -1.35101 3.34335 0
M  V30 5167 O 480.542 -2.46623 3.30531 0
M  V30 5168 H 479.883 -0.175206 0.640468 0
M  V30 5169 H 482.413 0.0878977 2.04411 0
M  V30 5170 H 482.423 -1.70834 3.70513 0
M  V30 5171 H 481.098 -0.629844 4.11103 0
M  V30 5172 H 479.675 -2.13019 3.06068 0
M  V30 5173 N 481.861 -1.55662 -0.24637 0
M  V30 5174 C 482.793 -1.86811 -1.32794 0
M  V30 5175 C 483.806 -0.754413 -1.44265 0
M  V30 5176 O 484.995 -1.03253 -1.45606 0
M  V30 5177 C 482.095 -2.0397 -2.70646 0
M  V30 5178 C 481.268 -3.34832 -2.81436 0
M  V30 5179 C 480.327 -3.41727 -4.00136 0
M  V30 5180 O 479.353 -4.14934 -3.89639 0
M  V30 5181 N 480.555 -2.71058 -5.1333 0
M  V30 5182 H 483.32 -2.80174 -1.06409 0
M  V30 5183 H 480.881 -1.55906 -0.43647 0
M  V30 5184 H 482.873 -2.05924 -3.48393 0
M  V30 5185 H 481.443 -1.1735 -2.89738 0
M  V30 5186 H 480.663 -3.4519 -1.90361 0
M  V30 5187 H 481.951 -4.21085 -2.85595 0
M  V30 5188 H 481.349 -2.11314 -5.2475 0
M  V30 5189 H 479.906 -2.78704 -5.89209 0
M  V30 5190 N 483.339 0.512053 -1.4905 0
M  V30 5191 C 484.75 1.09376 -1.51307 0
M  V30 5192 C 485.101 1.94 -0.292971 0
M  V30 5193 O 484.226 2.07965 0.598277 0
M  V30 5194 C 484.821 1.99031 -2.74176 0
M  V30 5195 C 483.38 2.52385 -2.79247 0
M  V30 5196 C 482.527 1.29749 -2.45073 0
M  V30 5197 H 485.478 0.296467 -1.55906 0
M  V30 5198 H 485.499 2.83569 -2.53711 0
M  V30 5199 H 485.011 1.37412 -3.62959 0
M  V30 5200 H 483.112 3.17673 -1.94716 0
M  V30 5201 H 483.225 2.90293 -3.81139 0
M  V30 5202 H 481.589 1.61912 -1.96612 0
M  V30 5203 H 482.372 0.698555 -3.36118 0
M  V30 5204 N 484.817 1.37938 0.762283 0
M  V30 5205 C 486.066 1.32989 1.51647 0
M  V30 5206 C 486.379 -0.0802922 1.95435 0
M  V30 5207 O 487.585 -0.252295 2.70325 0
M  V30 5208 C 486.041 2.33485 2.73885 0
M  V30 5209 C 485.649 3.80079 2.37157 0
M  V30 5210 C 487.393 2.37563 3.51801 0
M  V30 5211 C 485.3 4.72283 3.55954 0
M  V30 5212 H 484.23 0.494301 0.56937 0
M  V30 5213 H 486.881 1.63448 0.834083 0
M  V30 5214 H 485.263 1.96056 3.44061 0
M  V30 5215 H 486.437 4.26398 1.74704 0
M  V30 5216 H 484.752 3.79037 1.72395 0
M  V30 5217 H 487.349 3.0365 4.40114 0
M  V30 5218 H 487.692 1.39199 3.92338 0
M  V30 5219 H 488.225 2.73747 2.8863 0
M  V30 5220 H 484.964 5.7181 3.2049 0
M  V30 5221 H 484.484 4.30663 4.1748 0
M  V30 5222 H 486.163 4.89876 4.22647 0
M  V30 5223 N 486.295 -0.989507 1.22664 0
M  V30 5224 C 487.525 -1.7624 1.0781 0
M  V30 5225 C 487.933 -1.85466 -0.374036 0
M  V30 5226 O 487.276 -1.32645 -1.27087 0
M  V30 5227 C 487.338 -3.21007 1.61849 0
M  V30 5228 C 487.002 -3.35316 3.10503 0
M  V30 5229 C 487.999 -3.22362 4.07896 0
M  V30 5230 C 485.684 -3.60258 3.50028 0
M  V30 5231 C 487.678 -3.34139 5.42798 0
M  V30 5232 C 485.365 -3.71676 4.85078 0
M  V30 5233 C 486.363 -3.58625 5.81272 0
M  V30 5234 O 486.051 -3.69655 7.1387 0
M  V30 5235 H 485.783 -0.560209 0.378341 0
M  V30 5236 H 488.337 -1.25252 1.62792 0
M  V30 5237 H 486.567 -3.73202 1.01279 0
M  V30 5238 H 488.256 -3.80024 1.42606 0
M  V30 5239 H 489.022 -3.03 3.78703 0
M  V30 5240 H 484.901 -3.69492 2.75675 0
M  V30 5241 H 488.445 -3.23869 6.17863 0
M  V30 5242 H 484.342 -3.90545 5.1395 0
M  V30 5243 H 485.11 -3.86507 7.21495 0
M  V30 5244 N 487.773 -1.03688 -1.18687 0
M  V30 5245 C 489.019 -0.739123 -1.88851 0
M  V30 5246 C 489.352 0.731042 -1.79915 0
M  V30 5247 O 488.627 1.53313 -1.19688 0
M  V30 5248 C 488.91 -1.20106 -3.3948 0
M  V30 5249 C 488.763 -2.73304 -3.57246 0
M  V30 5250 C 490.082 -0.788134 -4.32986 0
M  V30 5251 H 487.201 -0.269978 -0.68577 0
M  V30 5252 H 489.843 -1.28822 -1.3966 0
M  V30 5253 H 487.993 -0.733915 -3.81505 0
M  V30 5254 H 489.665 -3.28027 -3.24339 0
M  V30 5255 H 487.908 -3.13313 -3.00029 0
M  V30 5256 H 488.579 -3.00684 -4.62918 0
M  V30 5257 H 491.055 -1.19005 -3.98719 0
M  V30 5258 H 489.931 -1.13915 -5.36949 0
M  V30 5259 H 490.192 0.308988 -4.41019 0
M  V30 5260 N 489.251 1.34841 -0.815825 0
M  V30 5261 C 490.499 1.98107 -0.399744 0
M  V30 5262 C 490.82 1.65019 1.03894 0
M  V30 5263 O 490.09 0.937311 1.72021 0
M  V30 5264 H 488.67 0.732827 -0.144823 0
M  V30 5265 H 491.332 1.64599 -1.0437 0
M  V30 5266 H 490.428 3.07856 -0.512965 0
M  V30 5267 N 490.729 0.570148 1.46925 0
M  V30 5268 C 491.677 -0.183181 2.31878 0
M  V30 5269 C 492.671 -0.896721 1.43719 0
M  V30 5270 O 493.877 -0.816536 1.60414 0
M  V30 5271 H 490.252 -0.077944 0.74795 0
M  V30 5272 H 492.223 0.552312 2.93244 0
M  V30 5273 C 490.972 -1.19172 3.2664 0
M  V30 5274 H 490.295 -0.652088 3.94446 0
M  V30 5275 H 491.735 -1.68946 3.88887 0
M  V30 5276 C 490.194 -2.24627 2.51086 0
M  V30 5277 O 490.724 -3.31773 2.26472 0
M  V30 5278 N 488.93 -1.98898 2.11867 0
M  V30 5279 H 488.477 -1.11777 2.32086 0
M  V30 5280 H 488.435 -2.6967 1.61634 0
M  V30 5281 N 492.207 -1.54576 0.307264 0
M  V30 5282 C 493.484 -1.92377 -0.353605 0
M  V30 5283 C 493.864 -1.23517 -1.71192 0
M  V30 5284 O 493.212 -0.373101 -2.25433 0
M  V30 5285 C 493.422 -3.45928 -0.462039 0
M  V30 5286 C 494.77 -4.18278 -0.729975 0
M  V30 5287 O 495.794 -3.51997 -0.545605 0
M  V30 5288 O 494.653 -5.3563 -1.08454 0
M  V30 5289 H 491.747 -0.802747 -0.198812 0
M  V30 5290 H 494.293 -1.65929 0.355783 0
M  V30 5291 H 493.065 -3.88187 0.492592 0
M  V30 5292 H 492.688 -3.78431 -1.21965 0
M  V30 5293 N 493.685 -0.035106 -1.57561 0
M  V30 5294 C 494.595 0.960295 -2.14046 0
M  V30 5295 C 495.611 1.3529 -1.0942 0
M  V30 5296 O 496.787 1.43309 -1.41508 0
M  V30 5297 C 493.852 2.22214 -2.66124 0
M  V30 5298 C 492.913 1.8894 -3.85487 0
M  V30 5299 C 492.146 3.09109 -4.35072 0
M  V30 5300 O 492.369 4.21963 -3.83802 0
M  V30 5301 O 491.303 2.91058 -5.26848 0
M  V30 5302 H 495.129 0.509983 -2.99387 0
M  V30 5303 H 492.714 0.185853 -1.48239 0
M  V30 5304 H 494.596 2.96279 -2.99661 0
M  V30 5305 H 493.271 2.66414 -1.83862 0
M  V30 5306 H 492.178 1.12241 -3.56865 0
M  V30 5307 H 493.511 1.49551 -4.6893 0
M  V30 5308 N 495.163 1.55791 0.238111 0
M  V30 5309 C 496.113 1.87444 1.29803 0
M  V30 5310 C 497.097 0.736043 1.43078 0
M  V30 5311 O 498.289 0.998146 1.46171 0
M  V30 5312 C 495.418 2.18028 2.65177 0
M  V30 5313 C 494.504 3.38217 2.55871 0
M  V30 5314 N 494.895 4.57264 2.16202 0
M  V30 5315 C 493.193 3.41502 2.86866 0
M  V30 5316 C 493.894 5.3941 2.17744 0
M  V30 5317 N 492.87 4.78695 2.57589 0
M  V30 5318 H 496.672 2.7701 0.981965 0
M  V30 5319 H 494.186 1.56135 0.44672 0
M  V30 5320 H 496.183 2.38873 3.4168 0
M  V30 5321 H 494.843 1.29765 2.97643 0
M  V30 5322 H 495.854 4.82727 1.87602 0
M  V30 5323 H 492.531 2.63536 3.23813 0
M  V30 5324 H 493.921 6.44671 1.89339 0
M  V30 5325 N 496.642 -0.504142 1.49319 0
M  V30 5326 C 497.589 -1.60603 1.65756 0
M  V30 5327 C 498.559 -1.58425 0.499082 0
M  V30 5328 O 499.744 -1.76459 0.725728 0
M  V30 5329 C 496.884 -2.98764 1.72726 0
M  V30 5330 C 495.997 -3.10982 2.99857 0
M  V30 5331 C 495.132 -4.39857 2.97824 0
M  V30 5332 C 494.171 -4.45697 4.19548 0
M  V30 5333 N 493.308 -5.65995 4.15444 0
M  V30 5334 H 498.148 -1.45895 2.59843 0
M  V30 5335 H 495.685 -0.709891 1.28837 0
M  V30 5336 H 497.643 -3.78839 1.74747 0
M  V30 5337 H 496.273 -3.12183 0.821075 0
M  V30 5338 H 495.325 -2.23991 3.07461 0
M  V30 5339 H 496.637 -3.11157 3.89849 0
M  V30 5340 H 495.791 -5.2825 2.98391 0
M  V30 5341 H 494.53 -4.42242 2.05604 0
M  V30 5342 H 493.535 -3.55707 4.19229 0
M  V30 5343 H 494.76 -4.4503 5.12957 0
M  V30 5344 H 492.706 -5.69229 3.26059 0
M  V30 5345 H 492.623 -5.67773 4.99169 0
M  V30 5346 H 493.891 -6.56604 4.20109 0
M  V30 5347 N 498.12 -1.38341 -0.754957 0
M  V30 5348 C 499.531 -1.30803 -1.3322 0
M  V30 5349 C 499.882 0.0368 -1.96165 0
M  V30 5350 O 499.007 0.938844 -1.94974 0
M  V30 5351 C 499.602 -2.3688 -2.42225 0
M  V30 5352 C 498.161 -2.32925 -2.95674 0
M  V30 5353 C 497.308 -2.19819 -1.69042 0
M  V30 5354 H 500.259 -1.48719 -0.553937 0
M  V30 5355 H 500.28 -2.02517 -3.22129 0
M  V30 5356 H 499.792 -3.34747 -1.96383 0
M  V30 5357 H 497.893 -1.38635 -3.45848 0
M  V30 5358 H 498.006 -3.27008 -3.50146 0
M  V30 5359 H 496.37 -1.66648 -1.92615 0
M  V30 5360 H 497.153 -3.19625 -1.25279 0
M  V30 5361 N 499.598 0.982988 -1.23187 0
M  V30 5362 C 500.528 2.09301 -1.03515 0
M  V30 5363 C 501.509 1.70035 0.0471136 0
M  V30 5364 O 502.694 1.93847 -0.117029 0
M  V30 5365 C 499.824 3.4167 -0.622791 0
M  V30 5366 C 498.778 3.94828 -1.65211 0
M  V30 5367 C 498.104 5.23362 -1.09527 0
M  V30 5368 C 499.404 4.2439 -3.04451 0
M  V30 5369 H 501.098 2.26016 -1.96359 0
M  V30 5370 H 498.644 1.08611 -0.945501 0
M  V30 5371 H 500.597 4.18746 -0.472233 0
M  V30 5372 H 499.321 3.24811 0.341329 0
M  V30 5373 H 497.98 3.19895 -1.79061 0
M  V30 5374 H 497.628 5.02852 -0.122211 0
M  V30 5375 H 497.328 5.59895 -1.783 0
M  V30 5376 H 498.852 6.03062 -0.956511 0
M  V30 5377 H 500.266 4.92225 -2.93917 0
M  V30 5378 H 498.663 4.72118 -3.70438 0
M  V30 5379 H 499.733 3.31765 -3.53638 0
M  V30 5380 N 501.076 1.04316 1.18135 0
M  V30 5381 C 502.492 0.762858 1.40188 0
M  V30 5382 C 502.692 -0.646547 1.90846 0
M  V30 5383 O 501.748 -1.41036 2.0944 0
M  V30 5384 C 503.061 1.81106 2.40044 0
M  V30 5385 C 504.609 1.83226 2.53766 0
M  V30 5386 C 505.084 2.87044 3.56889 0
M  V30 5387 N 506.575 2.85951 3.64398 0
M  V30 5388 C 507.31 3.62932 4.43923 0
M  V30 5389 N 506.806 4.49672 5.27036 0
M  V30 5390 N 508.599 3.51411 4.38711 0
M  V30 5391 H 500.75 1.95264 0.835805 0
M  V30 5392 H 503.013 0.845017 0.429709 0
M  V30 5393 H 502.719 2.82214 2.09876 0
M  V30 5394 H 502.593 1.64529 3.39426 0
M  V30 5395 H 504.98 0.827869 2.8325 0
M  V30 5396 H 505.061 2.03879 1.54489 0
M  V30 5397 H 504.705 3.87663 3.28145 0
M  V30 5398 H 504.635 2.63645 4.5585 0
M  V30 5399 H 507.126 2.23051 3.05052 0
M  V30 5400 H 507.439 5.05116 5.84874 0
M  V30 5401 H 505.784 4.53738 5.26447 0
M  V30 5402 H 508.975 2.83047 3.72829 0
M  V30 5403 H 509.148 4.11654 5.00445 0
M  V30 5404 N 502.554 -1.34406 0.822964 0
M  V30 5405 C 503.464 -2.33298 0.246838 0
M  V30 5406 C 504.48 -1.62625 -0.618797 0
M  V30 5407 O 505.656 -1.94391 -0.526685 0
M  V30 5408 C 502.721 -3.41785 -0.581731 0
M  V30 5409 C 501.782 -4.28206 0.306309 0
M  V30 5410 C 501.015 -5.31512 -0.48281 0
M  V30 5411 O 501.238 -5.43973 -1.71607 0
M  V30 5412 O 500.172 -6.01749 0.134884 0
M  V30 5413 H 503.998 -2.84401 1.06534 0
M  V30 5414 H 501.583 -1.37466 0.585108 0
M  V30 5415 H 503.465 -4.08028 -1.05313 0
M  V30 5416 H 502.14 -2.92925 -1.37756 0
M  V30 5417 H 501.047 -3.64885 0.825199 0
M  V30 5418 H 502.38 -4.80507 1.06649 0
M  V30 5419 N 504.032 -0.577932 -1.46621 0
M  V30 5420 C 505.278 -0.0700937 -2.03279 0
M  V30 5421 C 505.633 1.27376 -1.44198 0
M  V30 5422 O 504.926 1.82097 -0.595911 0
M  V30 5423 C 505.12 0.0590832 -3.57351 0
M  V30 5424 C 504.949 -1.2707 -4.31374 0
M  V30 5425 C 503.719 -1.84357 -4.70469 0
M  V30 5426 C 505.917 -2.19278 -4.65211 0
M  V30 5427 N 503.899 -3.11124 -5.29221 0
M  V30 5428 C 505.27 -3.30631 -5.24484 0
M  V30 5429 C 507.325 -2.19018 -4.47142 0
M  V30 5430 C 506.028 -4.41849 -5.67593 0
M  V30 5431 C 508.054 -3.29262 -4.91264 0
M  V30 5432 C 507.416 -4.39335 -5.50604 0
M  V30 5433 H 503.515 -0.0683127 -0.779011 0
M  V30 5434 H 506.099 -0.76978 -1.78836 0
M  V30 5435 H 504.27 0.727929 -3.81518 0
M  V30 5436 H 506.002 0.57087 -4.00653 0
M  V30 5437 H 502.757 -1.37906 -4.53077 0
M  V30 5438 H 503.181 -3.75794 -5.63123 0
M  V30 5439 H 507.823 -1.35191 -4.00604 0
M  V30 5440 H 505.541 -5.26421 -6.13112 0
M  V30 5441 H 509.127 -3.30172 -4.79038 0
M  V30 5442 H 508.007 -5.23233 -5.84121 0
M  V30 5443 N 505.51 1.54411 -0.315457 0
M  V30 5444 C 506.757 2.00419 0.289543 0
M  V30 5445 C 507.085 1.20373 1.52776 0
M  V30 5446 O 506.34 0.271769 1.93804 0
M  V30 5447 C 506.639 3.50936 0.676652 0
M  V30 5448 C 506.305 4.48532 -0.461472 0
M  V30 5449 C 504.967 4.74936 -0.773879 0
M  V30 5450 C 507.319 5.06567 -1.22637 0
M  V30 5451 C 504.647 5.56634 -1.85405 0
M  V30 5452 C 506.999 5.89441 -2.29657 0
M  V30 5453 C 505.663 6.1415 -2.61488 0
M  V30 5454 H 504.933 0.733386 0.105951 0
M  V30 5455 H 507.58 1.86434 -0.437554 0
M  V30 5456 H 505.885 3.62606 1.48405 0
M  V30 5457 H 507.582 3.83971 1.15618 0
M  V30 5458 H 504.172 4.28096 -0.207893 0
M  V30 5459 H 508.356 4.86157 -0.998271 0
M  V30 5460 H 503.612 5.74012 -2.10523 0
M  V30 5461 H 507.786 6.33432 -2.89374 0
M  V30 5462 H 505.413 6.77245 -3.45317 0
M  V30 5463 N 506.988 0.0434614 1.5754 0
M  V30 5464 C 508.234 -0.632971 1.92669 0
M  V30 5465 C 508.567 -1.70947 0.921446 0
M  V30 5466 O 507.842 -1.94426 -0.0537202 0
M  V30 5467 C 508.125 -1.23619 3.38216 0
M  V30 5468 C 507.978 -0.168274 4.49485 0
M  V30 5469 C 509.297 -2.15008 3.84005 0
M  V30 5470 H 506.416 -0.228629 0.700641 0
M  V30 5471 H 509.058 0.103651 1.89717 0
M  V30 5472 H 507.208 -1.864 3.40863 0
M  V30 5473 H 508.88 0.463196 4.58969 0
M  V30 5474 H 507.123 0.504581 4.30855 0
M  V30 5475 H 507.794 -0.630218 5.48391 0
M  V30 5476 H 510.27 -1.62198 3.83185 0
M  V30 5477 H 509.146 -2.54161 4.86511 0
M  V30 5478 H 509.407 -3.04707 3.20322 0
M  V30 5479 N 508.466 -1.55915 -0.229846 0
M  V30 5480 C 509.715 -1.77742 -0.953455 0
M  V30 5481 C 510.028 -0.610524 -1.85828 0
M  V30 5482 O 511.234 -0.712219 -2.61992 0
M  V30 5483 C 509.69 -3.14738 -1.74551 0
M  V30 5484 C 509.298 -4.39126 -0.887242 0
M  V30 5485 C 511.042 -3.45895 -2.46084 0
M  V30 5486 C 508.949 -5.67149 -1.67617 0
M  V30 5487 H 507.879 -0.662648 -0.359741 0
M  V30 5488 H 510.53 -1.82322 -0.207576 0
M  V30 5489 H 508.912 -3.04311 -2.53399 0
M  V30 5490 H 510.086 -4.60588 -0.139892 0
M  V30 5491 H 508.401 -4.15427 -0.284443 0
M  V30 5492 H 510.998 -4.38767 -3.05594 0
M  V30 5493 H 511.341 -2.68007 -3.18556 0
M  V30 5494 H 511.874 -3.57614 -1.74233 0
M  V30 5495 H 508.613 -6.47906 -0.994881 0
M  V30 5496 H 508.133 -5.49763 -2.39836 0
M  V30 5497 H 509.812 -6.07025 -2.23898 0
M  V30 5498 N 509.944 0.496216 -1.49584 0
M  V30 5499 C 511.19 1.25189 -1.59548 0
M  V30 5500 C 511.523 1.9212 -0.283466 0
M  V30 5501 O 510.798 1.80947 0.713324 0
M  V30 5502 C 511.081 2.31516 -2.75812 0
M  V30 5503 C 510.934 1.69054 -4.16822 0
M  V30 5504 C 512.253 3.3304 -2.87702 0
M  V30 5505 H 509.372 0.45379 -0.580727 0
M  V30 5506 H 512.014 0.549327 -1.81886 0
M  V30 5507 H 510.164 2.91438 -2.56897 0
M  V30 5508 H 511.836 1.12923 -4.47265 0
M  V30 5509 H 510.079 0.994485 -4.22247 0
M  V30 5510 H 510.75 2.462 -4.94054 0
M  V30 5511 H 513.226 2.83114 -3.04936 0
M  V30 5512 H 512.102 4.04794 -3.7072 0
M  V30 5513 H 512.363 3.95655 -1.97255 0
M  V30 5514 N 511.423 1.38739 0.74761 0
M  V30 5515 C 512.672 1.3459 1.50228 0
M  V30 5516 C 512.985 -0.0595592 1.95509 0
M  V30 5517 O 514.191 -0.22361 2.70578 0
M  V30 5518 C 512.647 2.36377 2.71393 0
M  V30 5519 C 512.255 3.82573 2.33113 0
M  V30 5520 C 513.999 2.41281 3.49262 0
M  V30 5521 C 511.906 4.76032 3.50924 0
M  V30 5522 H 510.836 0.500312 0.564096 0
M  V30 5523 H 513.487 1.64324 0.8167 0
M  V30 5524 H 511.869 1.99694 3.41962 0
M  V30 5525 H 513.043 4.28227 1.70171 0
M  V30 5526 H 511.358 3.80844 1.68365 0
M  V30 5527 H 513.955 3.08301 4.36869 0
M  V30 5528 H 514.298 1.43353 3.9084 0
M  V30 5529 H 514.831 2.76793 2.85711 0
M  V30 5530 H 511.57 5.75177 3.14408 0
M  V30 5531 H 511.09 4.35066 4.12889 0
M  V30 5532 H 512.769 4.94331 4.17427 0
M  V30 5533 N 512.901 -0.976442 1.23707 0
M  V30 5534 C 513.834 -2.06793 0.964973 0
M  V30 5535 C 514.812 -1.62304 -0.0981472 0
M  V30 5536 O 515.996 -1.88464 0.0369477 0
M  V30 5537 C 513.123 -3.35636 0.454522 0
M  V30 5538 C 512.169 -3.99069 1.50485 0
M  V30 5539 S 513.002 -4.37814 3.0835 0
M  V30 5540 C 514.158 -5.69805 2.58985 0
M  V30 5541 H 514.391 -2.29556 1.88922 0
M  V30 5542 H 511.924 -1.11317 1.06995 0
M  V30 5543 H 513.882 -4.10162 0.166626 0
M  V30 5544 H 512.543 -3.10876 -0.448871 0
M  V30 5545 H 511.736 -4.91896 1.09792 0
M  V30 5546 H 511.338 -3.30938 1.7423 0
M  V30 5547 H 513.63 -6.46919 2.01252 0
M  V30 5548 H 514.573 -6.15345 3.50366 0
M  V30 5549 H 514.981 -5.27994 1.99705 0
M  V30 5550 N 514.379 -1.04941 -1.1758 0
M  V30 5551 C 515.342 -0.652456 -2.19717 0
M  V30 5552 C 516.342 0.294745 -1.58076 0
M  V30 5553 O 517.532 0.0789579 -1.74021 0
M  V30 5554 C 514.664 0.0420712 -3.40874 0
M  V30 5555 H 515.857 -1.55642 -2.5635 0
M  V30 5556 H 513.41 -0.842995 -1.31618 0
M  V30 5557 H 514.145 0.95943 -3.09783 0
M  V30 5558 H 513.93 -0.638844 -3.86861 0
M  V30 5559 H 515.42 0.306 -4.16477 0
M  V30 5560 N 515.857 1.33968 -0.830081 0
M  V30 5561 C 517.085 2.0228 -0.434773 0
M  V30 5562 C 517.5 1.62487 0.961419 0
M  V30 5563 O 516.857 0.833849 1.62337 0
M  V30 5564 C 516.908 3.5751 -0.535625 0
M  V30 5565 O 516.629 3.95864 -1.87679 0
M  V30 5566 C 518.13 4.43091 -0.136137 0
M  V30 5567 H 515.35 0.648151 -0.173613 0
M  V30 5568 H 517.894 1.71089 -1.12022 0
M  V30 5569 H 516.049 3.87266 0.101817 0
M  V30 5570 H 516.463 4.9056 -1.85609 0
M  V30 5571 H 517.937 5.51398 -0.257772 0
M  V30 5572 H 518.414 4.29433 0.921076 0
M  V30 5573 H 519.02 4.18677 -0.747662 0
M  V30 5574 N 517.335 0.585699 1.46312 0
M  V30 5575 C 518.584 0.0701192 2.01578 0
M  V30 5576 C 518.897 -1.29889 1.46247 0
M  V30 5577 O 520.103 -1.90598 1.93351 0
M  V30 5578 C 518.559 0.0747499 3.59822 0
M  V30 5579 C 518.167 1.44226 4.24149 0
M  V30 5580 C 519.911 -0.38673 4.22735 0
M  V30 5581 C 517.818 1.40446 5.74481 0
M  V30 5582 H 516.748 0.0224441 0.753666 0
M  V30 5583 H 519.399 0.737789 1.68015 0
M  V30 5584 H 517.781 -0.659144 3.90476 0
M  V30 5585 H 518.955 2.19612 4.05101 0
M  V30 5586 H 517.27 1.84401 3.73343 0
M  V30 5587 H 519.867 -0.433853 5.32937 0
M  V30 5588 H 520.21 -1.40489 3.91878 0
M  V30 5589 H 520.743 0.293195 3.96718 0
M  V30 5590 H 517.482 2.39952 6.10003 0
M  V30 5591 H 517.002 0.692845 5.95785 0
M  V30 5592 H 518.681 1.11865 6.37256 0
M  V30 5593 N 518.813 -1.54241 0.323641 0
M  V30 5594 C 520.053 -2.0248 -0.279502 0
M  V30 5595 C 520.417 -1.20672 -1.49339 0
M  V30 5596 O 521.618 -1.58715 -2.1694 0
M  V30 5597 C 519.889 -3.52238 -0.605266 0
M  V30 5598 S 521.448 -4.22411 -1.18805 0
M  V30 5599 H 518.266 -0.705957 -0.0845313 0
M  V30 5600 H 520.868 -1.90089 0.456781 0
M  V30 5601 H 519.572 -4.094 0.286339 0
M  V30 5602 H 519.103 -3.6871 -1.37174 0
M  V30 5603 H 521.118 -4.30075 -2.47487 0
M  V30 5604 N 520.291 -0.0518155 -1.57515 0
M  V30 5605 C 521.538 0.621823 -1.92716 0
M  V30 5606 C 521.866 1.70813 -0.930229 0
M  V30 5607 O 521.121 1.95616 0.0573708 0
M  V30 5608 C 521.42 1.25607 -3.34601 0
M  V30 5609 C 521.086 0.297901 -4.49915 0
M  V30 5610 C 519.748 0.034243 -4.81188 0
M  V30 5611 C 522.1 -0.358738 -5.19964 0
M  V30 5612 C 519.428 -0.893479 -5.79857 0
M  V30 5613 C 521.78 -1.27466 -6.19625 0
M  V30 5614 C 520.444 -1.54698 -6.49326 0
M  V30 5615 H 519.714 0.227541 -0.705199 0
M  V30 5616 H 522.361 -0.118432 -1.91133 0
M  V30 5617 H 520.666 2.07161 -3.32553 0
M  V30 5618 H 522.363 1.78424 -3.59118 0
M  V30 5619 H 518.953 0.513581 -4.25512 0
M  V30 5620 H 523.137 -0.168133 -4.96015 0
M  V30 5621 H 518.393 -1.11193 -6.01204 0
M  V30 5622 H 522.567 -1.78953 -6.73015 0
M  V30 5623 H 520.194 -2.26748 -7.25596 0
M  V30 5624 N 521.769 1.56035 0.221574 0
M  V30 5625 C 523.018 1.78245 0.944016 0
M  V30 5626 C 523.331 0.620371 1.85501 0
M  V30 5627 O 524.537 0.726103 2.6161 0
M  V30 5628 C 522.993 3.15659 1.7288 0
M  V30 5629 C 522.601 4.39591 0.863942 0
M  V30 5630 C 524.345 3.47195 2.44246 0
M  V30 5631 C 522.252 5.6803 1.64607 0
M  V30 5632 H 521.182 0.664547 0.356222 0
M  V30 5633 H 523.833 1.8243 0.197904 0
M  V30 5634 H 522.215 3.0565 2.51781 0
M  V30 5635 H 523.389 4.60655 0.115464 0
M  V30 5636 H 521.704 4.15572 0.262407 0
M  V30 5637 H 524.301 4.40381 3.03263 0
M  V30 5638 H 524.644 2.69693 3.1713 0
M  V30 5639 H 525.177 3.58533 1.72334 0
M  V30 5640 H 521.916 6.48425 0.960507 0
M  V30 5641 H 521.436 5.51027 2.36917 0
M  V30 5642 H 523.115 6.08203 2.20675 0
M  V30 5643 N 523.247 -0.488276 1.49845 0
M  V30 5644 C 524.177 -1.59675 1.70371 0
M  V30 5645 C 525.158 -1.60878 0.552473 0
M  V30 5646 O 526.343 -1.77417 0.78973 0
M  V30 5647 C 523.473 -2.98098 1.782 0
M  V30 5648 C 522.427 -3.11761 2.93239 0
M  V30 5649 C 521.753 -4.51661 2.86193 0
M  V30 5650 C 523.053 -2.90589 4.33999 0
M  V30 5651 H 524.747 -1.42752 2.63177 0
M  V30 5652 H 522.293 -0.685317 1.26647 0
M  V30 5653 H 524.246 -3.75555 1.91144 0
M  V30 5654 H 522.97 -3.16138 0.820018 0
M  V30 5655 H 521.629 -2.36732 2.79917 0
M  V30 5656 H 521.277 -4.66595 1.87877 0
M  V30 5657 H 520.977 -4.61742 3.63412 0
M  V30 5658 H 522.501 -5.31162 3.01163 0
M  V30 5659 H 523.915 -3.57807 4.47936 0
M  V30 5660 H 522.312 -3.1213 5.12538 0
M  V30 5661 H 523.382 -1.86595 4.4756 0
M  V30 5662 N 524.725 -1.39134 -0.740242 0
M  V30 5663 C 525.655 -1.40165 -1.86751 0
M  V30 5664 C 526.636 -0.265708 -1.68012 0
M  V30 5665 O 527.821 -0.47076 -1.88408 0
M  V30 5666 C 524.951 -1.2392 -3.2444 0
M  V30 5667 C 523.905 -2.34858 -3.57807 0
M  V30 5668 C 523.231 -2.03707 -4.94376 0
M  V30 5669 C 524.531 -3.77159 -3.61315 0
M  V30 5670 H 526.225 -2.345 -1.86145 0
M  V30 5671 H 523.771 -1.12875 -0.89416 0
M  V30 5672 H 525.724 -1.23263 -4.02969 0
M  V30 5673 H 524.448 -0.26051 -3.25559 0
M  V30 5674 H 523.107 -2.34723 -2.81604 0
M  V30 5675 H 522.755 -1.04289 -4.9207 0
M  V30 5676 H 522.455 -2.78016 -5.17669 0
M  V30 5677 H 523.979 -2.04691 -5.75268 0
M  V30 5678 H 525.393 -3.79252 -4.29931 0
M  V30 5679 H 523.79 -4.50784 -3.96124 0
M  V30 5680 H 524.86 -4.08513 -2.61238 0
M  V30 5681 N 526.204 0.969867 -1.24223 0
M  V30 5682 C 527.453 1.70687 -1.07466 0
M  V30 5683 C 527.766 1.91736 0.386861 0
M  V30 5684 O 528.972 2.62986 0.674581 0
M  V30 5685 C 527.428 3.07217 -1.87472 0
M  V30 5686 C 527.036 2.94018 -3.3802 0
M  V30 5687 C 528.78 3.84804 -1.79237 0
M  V30 5688 C 526.687 4.25844 -4.10379 0
M  V30 5689 H 525.617 0.640067 -0.398536 0
M  V30 5690 H 528.268 1.08092 -1.48285 0
M  V30 5691 H 526.65 3.70628 -1.39466 0
M  V30 5692 H 527.824 2.39632 -3.9359 0
M  V30 5693 H 526.139 2.29898 -3.47183 0
M  V30 5694 H 528.736 4.82417 -2.30603 0
M  V30 5695 H 529.079 4.09356 -0.757197 0
M  V30 5696 H 529.612 3.28115 -2.24912 0
M  V30 5697 H 526.351 4.06486 -5.14246 0
M  V30 5698 H 525.871 4.80054 -3.59594 0
M  V30 5699 H 527.55 4.94475 -4.17257 0
M  V30 5700 N 527.682 1.05563 1.17022 0
M  V30 5701 C 528.612 0.681026 2.23348 0
M  V30 5702 C 529.593 -0.322983 1.67005 0
M  V30 5703 O 530.778 -0.199746 1.9317 0
M  V30 5704 C 527.908 0.0589053 3.4725 0
M  V30 5705 C 526.862 0.988082 4.16438 0
M  V30 5706 C 526.188 0.229646 5.34207 0
M  V30 5707 C 527.488 2.31388 4.68249 0
M  V30 5708 H 529.182 1.56993 2.54938 0
M  V30 5709 H 526.728 0.756302 1.2254 0
M  V30 5710 H 528.681 -0.214982 4.20851 0
M  V30 5711 H 527.405 -0.864968 3.14938 0
M  V30 5712 H 526.064 1.24659 3.44754 0
M  V30 5713 H 525.712 -0.697111 4.98146 0
M  V30 5714 H 525.412 0.848815 5.81437 0
M  V30 5715 H 526.936 -0.0368694 6.10589 0
M  V30 5716 H 528.35 2.09964 5.33468 0
M  V30 5717 H 526.747 2.88736 5.26072 0
M  V30 5718 H 527.817 2.94982 3.84855 0
M  V30 5719 N 529.16 -1.33526 0.837174 0
M  V30 5720 C 530.385 -2.0258 0.444545 0
M  V30 5721 C 530.81 -1.6258 -0.946006 0
M  V30 5722 O 530.168 -0.817548 -1.6182 0
M  V30 5723 C 530.216 -3.5605 0.571006 0
M  V30 5724 O 529.32 -4.10422 -0.403431 0
M  V30 5725 H 528.661 -0.638866 0.180958 0
M  V30 5726 H 531.191 -1.70462 1.13154 0
M  V30 5727 H 531.201 -4.05488 0.452024 0
M  V30 5728 H 529.876 -3.84509 1.58512 0
M  V30 5729 H 528.453 -3.72113 -0.242147 0
M  V30 5730 N 530.638 -0.59345 -1.46 0
M  V30 5731 C 531.568 0.121192 -2.33185 0
M  V30 5732 C 532.549 0.872977 -1.4599 0
M  V30 5733 O 533.734 0.846321 -1.74789 0
M  V30 5734 C 530.864 1.12844 -3.28456 0
M  V30 5735 C 529.818 0.4908 -4.25177 0
M  V30 5736 C 529.144 1.60529 -5.10034 0
M  V30 5737 C 530.444 -0.578949 -5.19081 0
M  V30 5738 H 532.138 -0.606767 -2.93187 0
M  V30 5739 H 529.684 -0.293242 -1.40983 0
M  V30 5740 H 531.637 1.63684 -3.88311 0
M  V30 5741 H 530.361 1.88681 -2.66584 0
M  V30 5742 H 529.02 0.00339328 -3.666 0
M  V30 5743 H 528.668 2.35359 -4.44539 0
M  V30 5744 H 528.368 1.18422 -5.75543 0
M  V30 5745 H 529.892 2.11623 -5.72755 0
M  V30 5746 H 531.306 -0.155199 -5.7309 0
M  V30 5747 H 529.703 -0.920947 -5.92991 0
M  V30 5748 H 530.773 -1.46109 -4.62364 0
M  V30 5749 N 532.116 1.54067 -0.331816 0
M  V30 5750 C 533.365 1.99895 0.269209 0
M  V30 5751 C 533.678 1.22371 1.52593 0
M  V30 5752 O 534.884 1.58618 2.20347 0
M  V30 5753 C 533.34 3.55972 0.530244 0
M  V30 5754 C 532.948 4.4234 -0.709901 0
M  V30 5755 C 534.692 4.10247 1.09077 0
M  V30 5756 C 532.599 5.89905 -0.420312 0
M  V30 5757 H 531.529 0.746741 0.104371 0
M  V30 5758 H 534.18 1.78014 -0.445324 0
M  V30 5759 H 532.562 3.73873 1.30518 0
M  V30 5760 H 533.736 4.36215 -1.48504 0
M  V30 5761 H 532.051 3.98997 -1.19123 0
M  V30 5762 H 534.648 5.18095 1.32219 0
M  V30 5763 H 534.991 3.62739 2.0427 0
M  V30 5764 H 535.524 3.96011 0.376824 0
M  V30 5765 H 532.263 6.41623 -1.34164 0
M  V30 5766 H 531.783 5.98962 0.316962 0
M  V30 5767 H 533.462 6.46991 -0.0331956 0
M  V30 5768 N 533.594 0.0601682 1.57485 0
M  V30 5769 C 534.834 -0.615384 1.94916 0
M  V30 5770 C 535.198 -1.67475 0.938948 0
M  V30 5771 O 536.399 -2.40502 1.20051 0
M  V30 5772 C 534.67 -1.18788 3.37082 0
M  V30 5773 S 536.229 -1.88018 3.96478 0
M  V30 5774 H 533.047 -0.201821 0.681754 0
M  V30 5775 H 535.649 0.131252 1.95059 0
M  V30 5776 H 534.353 -0.404869 4.08398 0
M  V30 5777 H 533.884 -1.97114 3.40455 0
M  V30 5778 H 535.899 -3.16161 3.82435 0
M  V30 5779 N 535.072 -1.5615 -0.213296 0
M  V30 5780 C 536.019 -1.93086 -1.26437 0
M  V30 5781 C 536.989 -0.789086 -1.4616 0
M  V30 5782 O 538.174 -1.04569 -1.59593 0
M  V30 5783 C 535.314 -2.26003 -2.608 0
M  V30 5784 C 534.427 -3.53156 -2.48807 0
M  V30 5785 C 533.562 -3.7548 -3.7575 0
M  V30 5786 C 532.601 -4.96119 -3.58514 0
M  V30 5787 N 531.738 -5.14791 -4.77425 0
M  V30 5788 H 536.578 -2.82707 -0.942376 0
M  V30 5789 H 534.115 -1.39919 -0.454001 0
M  V30 5790 H 536.073 -2.431 -3.39055 0
M  V30 5791 H 534.703 -1.39546 -2.91079 0
M  V30 5792 H 533.755 -3.44207 -1.61944 0
M  V30 5793 H 535.067 -4.41565 -2.31996 0
M  V30 5794 H 534.221 -3.92718 -4.62447 0
M  V30 5795 H 532.96 -2.85368 -3.95495 0
M  V30 5796 H 531.965 -4.78823 -2.70201 0
M  V30 5797 H 533.19 -5.87724 -3.40231 0
M  V30 5798 H 531.136 -4.27623 -4.97468 0
M  V30 5799 H 531.053 -5.97347 -4.63371 0
M  V30 5800 H 532.321 -5.36471 -5.65525 0
M  V30 5801 N 536.55 0.480323 -1.50102 0
M  V30 5802 C 537.799 1.22979 -1.59872 0
M  V30 5803 C 538.112 1.93282 -0.30022 0
M  V30 5804 O 539.318 2.70086 -0.276709 0
M  V30 5805 C 537.774 2.23408 -2.82164 0
M  V30 5806 C 537.382 1.5895 -4.18854 0
M  V30 5807 C 539.126 2.99055 -3.01275 0
M  V30 5808 C 537.033 2.57611 -5.32344 0
M  V30 5809 H 535.963 0.462707 -0.59533 0
M  V30 5810 H 538.614 0.501291 -1.7652 0
M  V30 5811 H 536.996 2.99511 -2.59055 0
M  V30 5812 H 538.17 0.887 -4.52182 0
M  V30 5813 H 536.485 0.956191 -4.05273 0
M  V30 5814 H 539.082 3.72876 -3.83233 0
M  V30 5815 H 539.425 3.57897 -2.12639 0
M  V30 5816 H 539.958 2.30066 -3.24522 0
M  V30 5817 H 536.697 2.03521 -6.23105 0
M  V30 5818 H 536.217 3.26041 -5.03445 0
M  V30 5819 H 537.896 3.19627 -5.62537 0
M  V30 5820 N 538.028 1.39524 0.732853 0
M  V30 5821 C 539.268 1.383 1.50508 0
M  V30 5822 C 539.632 -0.0208271 1.91989 0
M  V30 5823 O 540.833 -0.158091 2.68335 0
M  V30 5824 C 539.104 2.33007 2.71003 0
M  V30 5825 S 540.663 2.49989 3.60626 0
M  V30 5826 H 537.481 0.490417 0.514794 0
M  V30 5827 H 540.083 1.75641 0.858524 0
M  V30 5828 H 538.787 3.33862 2.38672 0
M  V30 5829 H 538.318 1.96889 3.40585 0
M  V30 5830 H 540.333 1.7394 4.64714 0
M  V30 5831 N 539.506 -0.963266 1.24736 0
M  V30 5832 C 540.456 -2.0438 1.01058 0
M  V30 5833 C 541.44 -1.60824 -0.0495354 0
M  V30 5834 O 542.632 -1.76232 0.164741 0
M  V30 5835 C 539.761 -3.37617 0.622067 0
M  V30 5836 C 538.847 -3.87722 1.7185 0
M  V30 5837 N 539.238 -4.10715 2.95207 0
M  V30 5838 C 537.536 -4.16426 1.59703 0
M  V30 5839 C 538.237 -4.51872 3.66315 0
M  V30 5840 N 537.213 -4.57302 2.93897 0
M  V30 5841 H 541.015 -2.20138 1.94721 0
M  V30 5842 H 538.529 -1.14741 1.14927 0
M  V30 5843 H 540.526 -4.14638 0.43366 0
M  V30 5844 H 539.186 -3.23242 -0.307327 0
M  V30 5845 H 540.197 -3.98037 3.31341 0
M  V30 5846 H 536.874 -4.10962 0.73598 0
M  V30 5847 H 538.264 -4.78037 4.72155 0
M  V30 5848 N 540.985 -1.06182 -1.16461 0
M  V30 5849 C 541.915 -0.692861 -2.22984 0
M  V30 5850 C 542.896 0.314122 -1.67174 0
M  V30 5851 O 544.081 0.189499 -1.93273 0
M  V30 5852 C 541.211 -0.07732 -3.47214 0
M  V30 5853 C 540.165 -1.01015 -4.15909 0
M  V30 5854 C 539.491 -0.257973 -5.34077 0
M  V30 5855 C 540.791 -2.33868 -4.67015 0
M  V30 5856 H 542.485 -1.58343 -2.54102 0
M  V30 5857 H 540.031 -0.76279 -1.22137 0
M  V30 5858 H 541.984 0.19266 -4.20959 0
M  V30 5859 H 540.708 0.848254 -3.15392 0
M  V30 5860 H 539.367 -1.26486 -3.44088 0
M  V30 5861 H 539.015 0.670684 -4.98509 0
M  V30 5862 H 538.715 -0.879638 -5.80979 0
M  V30 5863 H 540.239 0.00448788 -6.106 0
M  V30 5864 H 541.653 -2.1279 -5.32347 0
M  V30 5865 H 540.05 -2.91522 -5.24533 0
M  V30 5866 H 541.12 -2.97019 -3.83286 0
M  V30 5867 N 542.463 1.3308 -0.844243 0
M  V30 5868 C 543.709 1.98304 -0.452453 0
M  V30 5869 C 544.064 1.65645 0.978746 0
M  V30 5870 O 543.357 0.928849 1.6758 0
M  V30 5871 C 543.551 3.52045 -0.616354 0
M  V30 5872 C 543.38 3.99643 -2.06193 0
M  V30 5873 C 542.15 4.27224 -2.69829 0
M  V30 5874 C 544.348 4.15471 -3.03131 0
M  V30 5875 N 542.33 4.60998 -4.05406 0
M  V30 5876 C 543.701 4.52665 -4.23668 0
M  V30 5877 C 545.756 3.97776 -2.99465 0
M  V30 5878 C 544.459 4.74011 -5.41023 0
M  V30 5879 C 546.485 4.20301 -4.16055 0
M  V30 5880 C 545.847 4.57801 -5.35348 0
M  V30 5881 H 541.946 0.752122 -0.214096 0
M  V30 5882 H 544.53 1.61096 -1.09344 0
M  V30 5883 H 542.701 3.884 -0.00513205 0
M  V30 5884 H 544.433 4.04228 -0.19548 0
M  V30 5885 H 541.188 4.18911 -2.20931 0
M  V30 5886 H 541.612 4.82087 -4.75312 0
M  V30 5887 H 546.254 3.67893 -2.08362 0
M  V30 5888 H 543.972 5.02753 -6.32665 0
M  V30 5889 H 547.558 4.08122 -4.14641 0
M  V30 5890 H 546.438 4.74884 -6.24063 0
M  V30 5891 N 543.941 0.601185 1.45683 0
M  V30 5892 C 545.19 0.0914953 2.01492 0
M  V30 5893 C 545.503 -1.28331 1.47616 0
M  V30 5894 O 546.709 -1.88537 1.95362 0
M  V30 5895 C 545.165 0.11291 3.59723 0
M  V30 5896 C 544.773 1.48717 4.22596 0
M  V30 5897 C 546.517 -0.341871 4.23121 0
M  V30 5898 C 544.424 1.46531 5.7296 0
M  V30 5899 H 543.354 0.0304365 0.753385 0
M  V30 5900 H 546.005 0.755568 1.67223 0
M  V30 5901 H 544.387 -0.617692 3.91153 0
M  V30 5902 H 545.561 2.23897 4.02749 0
M  V30 5903 H 543.876 1.88351 3.71366 0
M  V30 5904 H 546.473 -0.377304 5.33367 0
M  V30 5905 H 546.816 -1.36325 3.93346 0
M  V30 5906 H 547.349 0.335256 3.96385 0
M  V30 5907 H 544.088 2.46408 6.07423 0
M  V30 5908 H 543.608 0.755997 5.95017 0
M  V30 5909 H 545.287 1.18618 6.36034 0
M  V30 5910 N 545.419 -1.53889 0.339982 0
M  V30 5911 C 546.366 -2.24902 -0.518452 0
M  V30 5912 C 547.336 -1.24593 -1.09844 0
M  V30 5913 O 548.521 -1.53317 -1.13572 0
M  V30 5914 C 545.661 -3.02262 -1.66529 0
M  V30 5915 C 544.774 -4.17418 -1.11295 0
M  V30 5916 C 543.909 -4.82273 -2.2268 0
M  V30 5917 C 542.948 -5.89503 -1.6478 0
M  V30 5918 N 542.085 -6.48153 -2.69893 0
M  V30 5919 H 546.925 -2.97853 0.0936579 0
M  V30 5920 H 544.462 -1.46986 0.0579924 0
M  V30 5921 H 546.42 -3.45371 -2.3404 0
M  V30 5922 H 545.05 -2.31614 -2.24844 0
M  V30 5923 H 544.102 -3.78976 -0.328886 0
M  V30 5924 H 545.414 -4.94554 -0.649414 0
M  V30 5925 H 544.568 -5.28435 -2.98063 0
M  V30 5926 H 543.307 -4.04552 -2.72376 0
M  V30 5927 H 542.312 -5.42728 -0.879004 0
M  V30 5928 H 543.537 -6.6913 -1.1594 0
M  V30 5929 H 541.483 -5.73298 -3.1885 0
M  V30 5930 H 541.4 -7.20752 -2.28151 0
M  V30 5931 H 542.668 -6.98968 -3.45056 0
M  V30 5932 N 546.897 -0.0685191 -1.57451 0
M  V30 5933 C 547.827 0.89747 -2.15564 0
M  V30 5934 C 548.808 1.31266 -1.08181 0
M  V30 5935 O 549.993 1.38429 -1.36202 0
M  V30 5936 C 547.123 2.16623 -2.71463 0
M  V30 5937 C 546.077 1.89054 -3.83982 0
M  V30 5938 C 545.403 3.22532 -4.26471 0
M  V30 5939 C 546.703 1.1984 -5.08366 0
M  V30 5940 H 548.397 0.413373 -2.96533 0
M  V30 5941 H 545.943 0.197391 -1.42641 0
M  V30 5942 H 547.896 2.84614 -3.10761 0
M  V30 5943 H 546.62 2.67269 -1.8771 0
M  V30 5944 H 545.279 1.23469 -3.45183 0
M  V30 5945 H 544.927 3.71013 -3.39644 0
M  V30 5946 H 544.627 3.04879 -5.02317 0
M  V30 5947 H 546.151 3.91727 -4.68383 0
M  V30 5948 H 547.565 1.77896 -5.45001 0
M  V30 5949 H 545.962 1.12456 -5.89469 0
M  V30 5950 H 547.032 0.176996 -4.84577 0
M  V30 5951 N 548.375 1.56261 0.205012 0
M  V30 5952 C 549.622 1.8004 0.926927 0
M  V30 5953 C 549.95 0.640086 1.83666 0
M  V30 5954 O 549.205 -0.374702 1.92079 0
M  V30 5955 C 549.504 3.09722 1.78345 0
M  V30 5956 C 549.17 4.39082 1.02555 0
M  V30 5957 C 547.832 4.74226 0.816256 0
M  V30 5958 C 550.184 5.18877 0.491559 0
M  V30 5959 C 547.512 5.86668 0.0613287 0
M  V30 5960 C 549.864 6.32105 -0.250107 0
M  V30 5961 C 548.528 6.6584 -0.470508 0
M  V30 5962 H 547.798 0.658812 0.339187 0
M  V30 5963 H 550.445 1.90515 0.19395 0
M  V30 5964 H 548.75 2.9444 2.5848 0
M  V30 5965 H 550.447 3.25324 2.34446 0
M  V30 5966 H 547.037 4.11497 1.19868 0
M  V30 5967 H 551.221 4.92147 0.640684 0
M  V30 5968 H 546.477 6.11283 -0.119501 0
M  V30 5969 H 550.651 6.93157 -0.671307 0
M  V30 5970 H 548.278 7.5281 -1.05739 0
M  V30 5971 N 549.853 -0.472356 1.50355 0
M  V30 5972 C 551.264 -1.05326 1.54154 0
M  V30 5973 C 551.615 -1.93155 0.344303 0
M  V30 5974 O 550.74 -2.09479 -0.542928 0
M  V30 5975 C 551.335 -1.91691 2.79356 0
M  V30 5976 C 549.894 -2.44892 2.8584 0
M  V30 5977 C 549.041 -1.23205 2.48426 0
M  V30 5978 H 551.992 -0.255027 1.56637 0
M  V30 5979 H 552.013 -2.76742 2.6114 0
M  V30 5980 H 551.525 -1.27741 3.66475 0
M  V30 5981 H 549.626 -3.12399 2.0307 0
M  V30 5982 H 549.739 -2.80086 3.88701 0
M  V30 5983 H 548.103 -1.56643 2.00836 0
M  V30 5984 H 548.886 -0.609194 3.37852 0
M  V30 5985 N 551.331 -1.39911 -0.725443 0
M  V30 5986 C 552.742 -1.33599 -1.30415 0
M  V30 5987 C 553.093 -0.00481792 -1.96199 0
M  V30 5988 O 552.218 0.897275 -1.96921 0
M  V30 5989 C 552.813 -2.41965 -2.37146 0
M  V30 5990 C 551.372 -2.39144 -2.90667 0
M  V30 5991 C 550.519 -2.23355 -1.64341 0
M  V30 5992 H 553.47 -1.4986 -0.522267 0
M  V30 5993 H 553.491 -2.09304 -3.17761 0
M  V30 5994 H 553.003 -3.38837 -1.89238 0
M  V30 5995 H 551.104 -1.4594 -3.4283 0
M  V30 5996 H 551.217 -3.34362 -3.43131 0
M  V30 5997 H 549.581 -1.70696 -1.89037 0
M  V30 5998 H 550.364 -3.2221 -1.18471 0
M  V30 5999 N 552.809 0.956637 -1.25245 0
M  V30 6000 C 554.058 1.69537 -1.0927 0
M  V30 6001 C 554.371 1.92136 0.366503 0
M  V30 6002 O 555.577 2.63687 0.64665 0
M  V30 6003 C 554.033 3.05211 -1.9072 0
M  V30 6004 C 553.641 2.90416 -3.41119 0
M  V30 6005 C 555.385 3.82882 -1.83308 0
M  V30 6006 C 553.292 4.21468 -4.14872 0
M  V30 6007 H 552.222 0.635804 -0.405302 0
M  V30 6008 H 554.873 1.06513 -1.49423 0
M  V30 6009 H 553.255 3.69128 -1.43389 0
M  V30 6010 H 554.429 2.35444 -3.9611 0
M  V30 6011 H 552.744 2.26203 -3.49602 0
M  V30 6012 H 555.341 4.79944 -2.35706 0
M  V30 6013 H 555.684 4.0853 -0.800572 0
M  V30 6014 H 556.217 3.25711 -2.28379 0
M  V30 6015 H 552.956 4.01009 -5.18529 0
M  V30 6016 H 552.476 4.76213 -3.64665 0
M  V30 6017 H 554.155 4.90022 -4.22478 0
M  V30 6018 N 554.287 1.06798 1.15896 0
M  V30 6019 C 555.698 0.811355 1.68149 0
M  V30 6020 C 556.049 -0.664339 1.8461 0
M  V30 6021 O 555.174 -1.51485 1.54535 0
M  V30 6022 C 555.769 1.46624 3.05429 0
M  V30 6023 C 554.328 1.25726 3.54781 0
M  V30 6024 C 553.475 1.53949 2.3064 0
M  V30 6025 H 556.426 1.23078 1.00187 0
M  V30 6026 H 556.447 0.88437 3.7008 0
M  V30 6027 H 555.959 2.54025 2.93416 0
M  V30 6028 H 554.06 0.20322 3.72045 0
M  V30 6029 H 554.173 1.97354 4.36564 0
M  V30 6030 H 552.537 0.96025 2.35905 0
M  V30 6031 H 553.32 2.6252 2.2122 0
M  V30 6032 N 555.766 -1.3263 0.851289 0
M  V30 6033 C 556.729 -2.27247 0.298541 0
M  V30 6034 C 557.729 -1.51467 -0.539847 0
M  V30 6035 O 558.919 -1.7061 -0.351843 0
M  V30 6036 C 556.051 -3.35964 -0.578004 0
M  V30 6037 H 557.244 -2.7765 1.13359 0
M  V30 6038 H 554.797 -1.43245 0.625354 0
M  V30 6039 H 555.532 -2.90823 -1.435 0
M  V30 6040 H 555.317 -3.92094 0.0220539 0
M  V30 6041 H 556.807 -4.06472 -0.957626 0
M  V30 6042 N 557.244 -0.608902 -1.45362 0
M  V30 6043 C 558.655 -0.189511 -1.85736 0
M  V30 6044 C 559.006 1.2539 -1.50903 0
M  V30 6045 O 558.131 1.95094 -0.936347 0
M  V30 6046 C 558.726 -0.33716 -3.37118 0
M  V30 6047 C 557.285 0.0275487 -3.7639 0
M  V30 6048 C 556.432 -0.660983 -2.69307 0
M  V30 6049 H 559.383 -0.815499 -1.36144 0
M  V30 6050 H 559.404 0.430257 -3.7806 0
M  V30 6051 H 558.916 -1.38779 -3.62439 0
M  V30 6052 H 557.017 1.0773 -3.56686 0
M  V30 6053 H 557.13 -0.367018 -4.77692 0
M  V30 6054 H 555.494 -0.0984958 -2.54509 0
M  V30 6055 H 556.277 -1.71377 -2.97464 0
M  V30 6056 N 558.722 1.53707 -0.348139 0
M  V30 6057 C 559.669 2.25173 0.506518 0
M  V30 6058 C 560.639 1.25174 1.09182 0
M  V30 6059 O 561.824 1.53917 1.12757 0
M  V30 6060 C 558.964 3.03141 1.64923 0
M  V30 6061 C 558.077 4.18002 1.0908 0
M  V30 6062 C 557.212 4.83447 2.20119 0
M  V30 6063 C 556.251 5.90369 1.61651 0
M  V30 6064 N 555.388 6.49575 2.66451 0
M  V30 6065 H 560.228 2.97799 -0.109452 0
M  V30 6066 H 557.765 1.46953 -0.0657866 0
M  V30 6067 H 559.723 3.46607 2.32205 0
M  V30 6068 H 558.353 2.32803 2.23612 0
M  V30 6069 H 557.405 3.79145 0.308783 0
M  V30 6070 H 558.717 4.94892 0.623178 0
M  V30 6071 H 557.871 5.30008 2.95257 0
M  V30 6072 H 556.61 4.05991 2.70227 0
M  V30 6073 H 555.615 5.43186 0.850209 0
M  V30 6074 H 556.84 6.69735 1.1239 0
M  V30 6075 H 554.786 5.74981 3.15805 0
M  V30 6076 H 554.703 7.21952 2.24325 0
M  V30 6077 H 555.971 7.00789 3.41344 0
M  V30 6078 N 560.2 0.0768682 1.57412 0
M  V30 6079 C 561.425 -0.603404 1.98428 0
M  V30 6080 C 561.85 -1.62047 0.955108 0
M  V30 6081 O 561.208 -1.81129 -0.0786778 0
M  V30 6082 C 561.256 -1.24396 3.38464 0
M  V30 6083 O 560.36 -2.35982 3.3821 0
M  V30 6084 H 559.701 -0.154741 0.645718 0
M  V30 6085 H 562.231 0.152885 2.04028 0
M  V30 6086 H 562.241 -1.5896 3.7576 0
M  V30 6087 H 560.916 -0.498735 4.12899 0
M  V30 6088 H 559.493 -2.03173 3.1269 0
M  V30 6089 N 561.678 -1.56367 -0.196722 0
M  V30 6090 C 562.626 -1.95304 -1.2633 0
M  V30 6091 C 563.62 -0.838252 -1.47206 0
M  V30 6092 O 564.826 -1.02325 -1.48087 0
M  V30 6093 H 561.201 -0.621013 -0.424083 0
M  V30 6094 H 563.172 -2.84254 -0.907879 0
M  V30 6095 C 561.921 -2.3074 -2.60104 0
M  V30 6096 H 561.244 -3.16047 -2.44856 0
M  V30 6097 H 562.684 -2.61849 -3.33484 0
M  V30 6098 C 561.143 -1.14143 -3.16975 0
M  V30 6099 O 561.673 -0.415602 -3.99544 0
M  V30 6100 N 559.879 -0.91867 -2.75697 0
M  V30 6101 H 559.426 -1.51065 -2.08656 0
M  V30 6102 H 559.384 -0.140321 -3.14087 0
M  V30 6103 N 563.156 0.464375 -1.50603 0
M  V30 6104 C 564.405 1.21277 -1.61167 0
M  V30 6105 C 564.718 1.92953 -0.320704 0
M  V30 6106 O 565.924 2.69778 -0.30534 0
M  V30 6107 C 564.38 2.20403 -2.84518 0
M  V30 6108 C 563.988 1.54499 -4.20516 0
M  V30 6109 C 565.732 2.95843 -3.0443 0
M  V30 6110 C 563.639 2.51951 -5.35047 0
M  V30 6111 H 562.569 0.456367 -0.600204 0
M  V30 6112 H 565.22 0.48254 -1.77042 0
M  V30 6113 H 563.602 2.96746 -2.62217 0
M  V30 6114 H 564.776 0.83899 -4.53098 0
M  V30 6115 H 563.091 0.913152 -4.06264 0
M  V30 6116 H 565.688 3.6879 -3.87167 0
M  V30 6117 H 566.031 3.55622 -2.16423 0
M  V30 6118 H 566.564 2.26611 -3.26944 0
M  V30 6119 H 563.303 1.96901 -6.25228 0
M  V30 6120 H 562.823 3.20683 -5.06875 0
M  V30 6121 H 564.502 3.13643 -5.65895 0
M  V30 6122 N 564.634 1.40294 0.718013 0
M  V30 6123 C 565.581 1.40367 1.8321 0
M  V30 6124 C 566.551 0.260952 1.64037 0
M  V30 6125 O 567.736 0.458648 1.85205 0
M  V30 6126 C 564.876 1.26965 3.20895 0
M  V30 6127 C 563.989 2.50922 3.51656 0
M  V30 6128 C 563.124 2.29981 4.78834 0
M  V30 6129 C 562.163 3.49527 5.02491 0
M  V30 6130 N 561.3 3.27796 6.20882 0
M  V30 6131 H 566.14 2.35593 1.82482 0
M  V30 6132 H 563.677 1.17012 0.891444 0
M  V30 6133 H 565.635 1.17202 4.00399 0
M  V30 6134 H 564.265 0.353591 3.20858 0
M  V30 6135 H 563.317 2.71223 2.66725 0
M  V30 6136 H 564.629 3.39913 3.65048 0
M  V30 6137 H 563.783 2.17558 5.66351 0
M  V30 6138 H 562.522 1.38411 4.67647 0
M  V30 6139 H 561.527 3.6243 4.1343 0
M  V30 6140 H 562.752 4.42021 5.15553 0
M  V30 6141 H 560.698 2.38906 6.1095 0
M  V30 6142 H 560.615 4.10351 6.34939 0
M  V30 6143 H 561.883 3.19101 7.11193 0
M  V30 6144 N 566.112 -0.949982 1.2575 0
M  V30 6145 C 567.389 -1.6718 1.01539 0
M  V30 6146 C 567.769 -2.06095 -0.456942 0
M  V30 6147 O 567.117 -1.77792 -1.43534 0
M  V30 6148 C 567.327 -2.8906 1.95564 0
M  V30 6149 C 568.675 -3.60909 2.23673 0
M  V30 6150 O 569.699 -2.9915 1.9336 0
M  V30 6151 O 568.558 -4.72127 2.75243 0
M  V30 6152 H 565.652 -0.731697 0.385419 0
M  V30 6153 H 568.198 -1.00249 1.36924 0
M  V30 6154 H 566.97 -2.57128 2.94959 0
M  V30 6155 H 566.593 -3.63719 1.60605 0
M  V30 6156 N 567.59 -1.07411 -1.15328 0
M  V30 6157 C 568.52 -0.716472 -2.22236 0
M  V30 6158 C 569.501 0.296373 -1.67498 0
M  V30 6159 O 570.686 0.168989 -1.93463 0
M  V30 6160 C 567.816 -0.114142 -3.47112 0
M  V30 6161 C 566.77 -1.05421 -4.14814 0
M  V30 6162 C 566.096 -0.314604 -5.33774 0
M  V30 6163 C 567.396 -2.38808 -4.64508 0
M  V30 6164 H 569.09 -1.61029 -2.52408 0
M  V30 6165 H 566.636 -0.775702 -1.21321 0
M  V30 6166 H 568.589 0.148001 -4.2114 0
M  V30 6167 H 567.313 0.814755 -3.16274 0
M  V30 6168 H 565.972 -1.30128 -3.42728 0
M  V30 6169 H 565.62 0.617772 -4.99192 0
M  V30 6170 H 565.32 -0.941209 -5.80013 0
M  V30 6171 H 566.844 -0.0602747 -6.1057 0
M  V30 6172 H 568.258 -2.18424 -5.3006 0
M  V30 6173 H 566.655 -2.97069 -5.21412 0
M  V30 6174 H 567.725 -3.01067 -3.80114 0
M  V30 6175 N 569.068 1.32177 -0.85831 0
M  V30 6176 C 570.315 1.97125 -0.463484 0
M  V30 6177 C 570.643 1.67907 0.981705 0
M  V30 6178 O 569.898 0.961717 1.70439 0
M  V30 6179 C 570.197 3.51372 -0.653658 0
M  V30 6180 C 569.863 4.00584 -2.06987 0
M  V30 6181 C 568.525 4.13733 -2.4572 0
M  V30 6182 C 570.877 4.26624 -2.99402 0
M  V30 6183 C 568.205 4.50268 -3.76132 0
M  V30 6184 C 570.557 4.64618 -4.29316 0
M  V30 6185 C 569.221 4.75975 -4.67979 0
M  V30 6186 H 568.491 0.72133 -0.169601 0
M  V30 6187 H 571.138 1.57517 -1.08907 0
M  V30 6188 H 569.443 3.91761 0.0551328 0
M  V30 6189 H 571.14 3.99655 -0.328163 0
M  V30 6190 H 567.73 3.90837 -1.75911 0
M  V30 6191 H 571.914 4.1597 -2.70708 0
M  V30 6192 H 567.17 4.57256 -4.05865 0
M  V30 6193 H 571.344 4.83722 -5.00985 0
M  V30 6194 H 568.971 5.04041 -5.69076 0
M  V30 6195 N 570.547 0.616602 1.45037 0
M  V30 6196 C 571.793 0.115501 2.02471 0
M  V30 6197 C 572.126 -1.25406 1.4828 0
M  V30 6198 O 571.401 -1.82922 0.661051 0
M  V30 6199 C 571.684 0.0863588 3.59996 0
M  V30 6200 C 571.537 1.48723 4.24501 0
M  V30 6201 C 572.856 -0.596762 4.36035 0
M  V30 6202 H 569.975 0.0434461 0.735718 0
M  V30 6203 H 572.617 0.7903 1.72784 0
M  V30 6204 H 570.767 -0.488277 3.85419 0
M  V30 6205 H 572.439 2.10964 4.10234 0
M  V30 6206 H 570.682 2.04534 3.82555 0
M  V30 6207 H 571.353 1.419 5.3345 0
M  V30 6208 H 573.829 -0.10824 4.15959 0
M  V30 6209 H 572.705 -0.586289 5.4576 0
M  V30 6210 H 572.966 -1.66451 4.09569 0
M  V30 6211 N 572.025 -1.5352 0.356285 0
M  V30 6212 C 573.253 -2.05534 -0.237328 0
M  V30 6213 C 573.668 -1.23043 -1.43199 0
M  V30 6214 O 573.025 -0.268821 -1.80509 0
M  V30 6215 C 573.076 -3.55791 -0.639933 0
M  V30 6216 O 572.797 -4.35154 0.507233 0
M  V30 6217 C 574.298 -4.24027 -1.29292 0
M  V30 6218 H 571.518 -0.669585 -0.0435572 0
M  V30 6219 H 574.062 -1.97988 0.511963 0
M  V30 6220 H 572.217 -3.63518 -1.33915 0
M  V30 6221 H 572.631 -5.24178 0.18375 0
M  V30 6222 H 574.105 -5.30509 -1.52527 0
M  V30 6223 H 574.582 -3.77166 -2.25039 0
M  V30 6224 H 575.188 -4.20527 -0.63539 0
M  V30 6225 N 573.503 -0.0852151 -1.57369 0
M  V30 6226 C 574.731 0.58946 -1.98325 0
M  V30 6227 C 575.146 1.62333 -0.96403 0
M  V30 6228 O 574.503 1.82438 0.0476395 0
M  V30 6229 C 574.554 1.24604 -3.39347 0
M  V30 6230 O 574.275 0.253532 -4.37366 0
M  V30 6231 C 575.776 2.00726 -3.95252 0
M  V30 6232 H 572.996 0.158783 -0.651942 0
M  V30 6233 H 575.54 -0.161584 -2.03861 0
M  V30 6234 H 573.695 1.94808 -3.34856 0
M  V30 6235 H 574.109 0.726207 -5.19448 0
M  V30 6236 H 575.583 2.42039 -4.96106 0
M  V30 6237 H 576.06 2.86919 -3.32527 0
M  V30 6238 H 576.666 1.3536 -4.03185 0
M  V30 6239 N 574.981 1.5647 0.188427 0
M  V30 6240 C 575.929 1.95971 1.25293 0
M  V30 6241 C 576.923 0.846047 1.4676 0
M  V30 6242 O 578.129 1.03109 1.47542 0
M  V30 6243 H 574.504 0.623253 0.420784 0
M  V30 6244 H 576.475 2.84731 0.892792 0
M  V30 6245 C 575.224 2.32116 2.58877 0
M  V30 6246 H 574.547 3.17341 2.43176 0
M  V30 6247 H 575.987 2.63613 3.3209 0
M  V30 6248 C 574.446 1.15823 3.16365 0
M  V30 6249 O 574.976 0.436785 3.99318 0
M  V30 6250 N 573.182 0.933278 2.75206 0
M  V30 6251 H 572.729 1.52169 2.07852 0
M  V30 6252 H 572.687 0.156976 3.14008 0
M  V30 6253 N 576.459 -0.456382 1.50847 0
M  V30 6254 C 577.689 -1.22848 1.66108 0
M  V30 6255 C 578.097 -1.85936 0.349897 0
M  V30 6256 O 577.44 -1.70664 -0.679665 0
M  V30 6257 C 577.502 -2.36722 2.70561 0
M  V30 6258 C 577.166 -1.94154 4.13707 0
M  V30 6259 C 578.163 -1.4557 4.99105 0
M  V30 6260 C 575.848 -2.02426 4.59705 0
M  V30 6261 C 577.842 -1.0582 6.28555 0
M  V30 6262 C 575.529 -1.62287 5.89157 0
M  V30 6263 C 576.527 -1.14064 6.73408 0
M  V30 6264 O 576.215 -0.744873 8.00442 0
M  V30 6265 H 575.947 -0.377105 0.561042 0
M  V30 6266 H 578.501 -0.549431 1.97915 0
M  V30 6267 H 576.731 -3.07844 2.34027 0
M  V30 6268 H 578.42 -2.98646 2.74892 0
M  V30 6269 H 579.186 -1.38589 4.64777 0
M  V30 6270 H 575.065 -2.38908 3.94264 0
M  V30 6271 H 578.609 -0.6811 6.94267 0
M  V30 6272 H 574.506 -1.68932 6.23003 0
M  V30 6273 H 575.274 -0.87242 8.13837 0
M  V30 6274 N 577.937 -1.40673 -0.710563 0
M  V30 6275 C 578.847 -1.43663 -1.85467 0
M  V30 6276 C 579.863 -0.328721 -1.70867 0
M  V30 6277 O 581.039 -0.574098 -1.93044 0
M  V30 6278 C 578.104 -1.30226 -3.21313 0
M  V30 6279 C 577.165 -2.51204 -3.48131 0
M  V30 6280 C 576.398 -2.38398 -4.77495 0
M  V30 6281 O 576.621 -1.40048 -5.5294 0
M  V30 6282 O 575.555 -3.2787 -5.04762 0
M  V30 6283 H 579.381 -2.40156 -1.859 0
M  V30 6284 H 576.966 -1.22049 -0.861652 0
M  V30 6285 H 578.848 -1.2496 -4.02446 0
M  V30 6286 H 577.523 -0.368419 -3.21597 0
M  V30 6287 H 576.43 -2.62048 -2.66987 0
M  V30 6288 H 577.763 -3.43366 -3.52648 0
M  V30 6289 N 579.415 0.9433 -1.26252 0
M  V30 6290 C 580.362 2.0417 -1.07625 0
M  V30 6291 C 581.332 1.6609 0.0180738 0
M  V30 6292 O 582.517 1.90276 -0.141289 0
M  V30 6293 C 579.657 3.37653 -0.713043 0
M  V30 6294 C 578.77 3.88783 -1.8834 0
M  V30 6295 C 577.905 5.10642 -1.4635 0
M  V30 6296 C 576.944 5.54028 -2.60229 0
M  V30 6297 N 576.081 6.67092 -2.18936 0
M  V30 6298 H 580.921 2.19436 -2.01623 0
M  V30 6299 H 578.458 1.07519 -1.00389 0
M  V30 6300 H 580.416 4.14391 -0.483358 0
M  V30 6301 H 579.046 3.22241 0.18996 0
M  V30 6302 H 578.098 3.08464 -2.22608 0
M  V30 6303 H 579.41 4.16922 -2.73821 0
M  V30 6304 H 578.564 5.94832 -1.19414 0
M  V30 6305 H 577.303 4.84244 -0.579568 0
M  V30 6306 H 576.308 4.68396 -2.87898 0
M  V30 6307 H 577.533 5.82429 -3.49219 0
M  V30 6308 H 575.479 6.42381 -1.32974 0
M  V30 6309 H 575.396 6.94806 -2.97961 0
M  V30 6310 H 576.664 7.54662 -1.95206 0
M  V30 6311 N 580.893 1.08022 1.14757 0
M  V30 6312 C 581.856 0.71048 2.1791 0
M  V30 6313 C 582.856 -0.252731 1.58801 0
M  V30 6314 O 584.046 -0.0327915 1.74169 0
M  V30 6315 C 581.178 0.0483203 3.40866 0
M  V30 6316 H 582.371 1.62384 2.52134 0
M  V30 6317 H 579.924 0.877595 1.29337 0
M  V30 6318 H 580.659 -0.876959 3.12218 0
M  V30 6319 H 580.444 0.741189 3.85031 0
M  V30 6320 H 581.934 -0.195471 4.17142 0
M  V30 6321 N 582.371 -1.3172 0.865308 0
M  V30 6322 C 583.619 -1.96487 0.472995 0
M  V30 6323 C 583.94 -1.68761 -0.976975 0
M  V30 6324 O 583.21 -1.00051 -1.68424 0
M  V30 6325 H 581.79 -0.726947 0.171922 0
M  V30 6326 H 584.452 -1.60612 1.10407 0
M  V30 6327 H 583.548 -3.0574 0.62687 0
M  V30 6328 N 583.85 -0.624285 -1.44708 0
M  V30 6329 C 585.075 -0.131171 -2.06985 0
M  V30 6330 C 585.5 1.18234 -1.46295 0
M  V30 6331 O 584.858 1.72375 -0.561842 0
M  V30 6332 C 584.906 -0.0226724 -3.60593 0
M  V30 6333 O 584.01 1.02314 -3.99507 0
M  V30 6334 H 583.351 -0.0816556 -0.65896 0
M  V30 6335 H 585.88 -0.859027 -1.85693 0
M  V30 6336 H 585.891 0.170138 -4.07645 0
M  V30 6337 H 584.566 -0.981685 -4.04148 0
M  V30 6338 H 583.143 0.805452 -3.64097 0
M  V30 6339 N 585.328 1.53329 -0.364422 0
M  V30 6340 C 586.553 2.06132 0.229033 0
M  V30 6341 C 586.978 1.23625 1.41769 0
M  V30 6342 O 586.336 0.255038 1.79497 0
M  V30 6343 C 586.384 3.55544 0.60174 0
M  V30 6344 O 585.488 3.75771 1.69912 0
M  V30 6345 H 584.829 0.663148 0.0336213 0
M  V30 6346 H 587.359 1.97758 -0.524689 0
M  V30 6347 H 587.369 3.98549 0.873073 0
M  V30 6348 H 586.044 4.15039 -0.267421 0
M  V30 6349 H 584.621 3.44663 1.42343 0
M  V30 6350 N 586.806 0.0935595 1.57322 0
M  V30 6351 C 587.716 -0.880192 2.17462 0
M  V30 6352 C 588.732 -1.31135 1.14366 0
M  V30 6353 O 589.908 -1.37958 1.46729 0
M  V30 6354 C 586.973 -2.12184 2.74188 0
M  V30 6355 C 586.034 -1.74503 3.92234 0
M  V30 6356 C 585.267 -2.92748 4.46245 0
M  V30 6357 O 585.49 -4.07427 3.99198 0
M  V30 6358 O 584.424 -2.71303 5.37288 0
M  V30 6359 H 588.25 -0.398516 3.01074 0
M  V30 6360 H 585.835 -0.130707 1.48827 0
M  V30 6361 H 587.717 -2.84953 3.10451 0
M  V30 6362 H 586.392 -2.59407 1.93623 0
M  V30 6363 H 585.299 -0.989186 3.60785 0
M  V30 6364 H 586.632 -1.32044 4.74157 0
M  V30 6365 N 588.284 -1.56567 -0.180126 0
M  V30 6366 C 589.512 -1.85618 -0.913972 0
M  V30 6367 C 589.927 -0.677892 -1.7621 0
M  V30 6368 O 589.284 0.353171 -1.7905 0
M  V30 6369 C 589.335 -3.13619 -1.79793 0
M  V30 6370 O 589.056 -4.26906 -0.98402 0
M  V30 6371 C 590.557 -3.55954 -2.64219 0
M  V30 6372 H 587.777 -0.616043 -0.265954 0
M  V30 6373 H 590.321 -2.03681 -0.182872 0
M  V30 6374 H 588.476 -2.97409 -2.48247 0
M  V30 6375 H 588.89 -4.9989 -1.58776 0
M  V30 6376 H 590.364 -4.48444 -3.21873 0
M  V30 6377 H 590.841 -2.79653 -3.38661 0
M  V30 6378 H 591.447 -3.74746 -2.01111 0
M  V30 6379 N 589.762 0.448376 -1.51087 0
M  V30 6380 C 590.672 1.56882 -1.74428 0
M  V30 6381 C 591.688 1.62268 -0.62809 0
M  V30 6382 O 592.864 1.79716 -0.909075 0
M  V30 6383 C 589.929 2.92947 -1.85426 0
M  V30 6384 C 588.99 2.97766 -3.09247 0
M  V30 6385 C 588.223 4.27341 -3.19711 0
M  V30 6386 O 588.446 5.19112 -2.36387 0
M  V30 6387 O 587.38 4.38219 -4.12611 0
M  V30 6388 H 591.206 1.40104 -2.69452 0
M  V30 6389 H 588.791 0.630247 -1.35456 0
M  V30 6390 H 590.673 3.73719 -1.94709 0
M  V30 6391 H 589.348 3.09876 -0.935887 0
M  V30 6392 H 588.255 2.15989 -3.0545 0
M  V30 6393 H 589.588 2.8578 -4.00738 0
M  V30 6394 N 591.24 1.41047 0.703093 0
M  V30 6395 C 592.489 1.39301 1.4587 0
M  V30 6396 C 592.802 0.00267077 1.956 0
M  V30 6397 O 594.008 -0.137414 2.71152 0
M  V30 6398 C 592.464 2.44891 2.63735 0
M  V30 6399 C 592.072 3.89796 2.20824 0
M  V30 6400 C 593.816 2.5227 3.41409 0
M  V30 6401 C 591.723 4.86955 3.35602 0
M  V30 6402 H 590.653 0.518005 0.547893 0
M  V30 6403 H 593.304 1.66839 0.764009 0
M  V30 6404 H 591.686 2.10472 3.35436 0
M  V30 6405 H 592.86 4.33424 1.56461 0
M  V30 6406 H 591.175 3.86008 1.56163 0
M  V30 6407 H 593.772 3.22044 4.26839 0
M  V30 6408 H 594.115 1.55714 3.86081 0
M  V30 6409 H 594.648 2.85742 2.7676 0
M  V30 6410 H 591.387 5.84888 2.9595 0
M  V30 6411 H 590.907 4.47982 3.98839 0
M  V30 6412 H 592.586 5.07361 4.01489 0
M  V30 6413 N 592.718 -0.936591 1.26751 0
M  V30 6414 C 593.628 -2.06949 1.10496 0
M  V30 6415 C 594.644 -1.7396 0.037271 0
M  V30 6416 O 595.82 -1.99941 0.241944 0
M  V30 6417 C 592.885 -3.38612 0.744491 0
M  V30 6418 C 591.946 -3.85355 1.89209 0
M  V30 6419 C 591.179 -5.10735 1.54873 0
M  V30 6420 O 591.402 -5.68602 0.452546 0
M  V30 6421 O 590.336 -5.52632 2.38499 0
M  V30 6422 H 594.162 -2.23571 2.05547 0
M  V30 6423 H 591.747 -1.05428 1.05855 0
M  V30 6424 H 593.629 -4.17711 0.556396 0
M  V30 6425 H 592.304 -3.23218 -0.176582 0
M  V30 6426 H 591.211 -3.07182 2.13518 0
M  V30 6427 H 592.544 -4.05277 2.79305 0
M  V30 6428 N 594.196 -1.08629 -1.14182 0
M  V30 6429 C 595.442 -0.818556 -1.85546 0
M  V30 6430 C 595.775 0.654076 -1.82854 0
M  V30 6431 O 595.05 1.48099 -1.26083 0
M  V30 6432 C 595.333 -1.34397 -3.3408 0
M  V30 6433 C 595.186 -2.8821 -3.45333 0
M  V30 6434 C 596.505 -0.971069 -4.29253 0
M  V30 6435 H 593.624 -0.298821 -0.673702 0
M  V30 6436 H 596.266 -1.34629 -1.34071 0
M  V30 6437 H 594.416 -0.895064 -3.78049 0
M  V30 6438 H 596.088 -3.41488 -3.10134 0
M  V30 6439 H 594.331 -3.25756 -2.86471 0
M  V30 6440 H 595.002 -3.20047 -4.49749 0
M  V30 6441 H 597.478 -1.35809 -3.93313 0
M  V30 6442 H 596.354 -1.36586 -5.31635 0
M  V30 6443 H 596.615 0.121659 -4.41933 0
M  V30 6444 N 595.674 1.31259 -0.872281 0
M  V30 6445 C 596.923 1.95893 -0.480493 0
M  V30 6446 C 597.236 1.697 0.972688 0
M  V30 6447 O 598.442 2.28214 1.47073 0
M  V30 6448 C 596.898 3.50705 -0.808342 0
M  V30 6449 C 596.506 3.85735 -2.27844 0
M  V30 6450 C 598.25 4.21719 -0.485136 0
M  V30 6451 C 596.157 5.33668 -2.54858 0
M  V30 6452 H 595.087 0.733182 -0.175955 0
M  V30 6453 H 597.738 1.49396 -1.0655 0
M  V30 6454 H 596.12 3.95706 -0.152558 0
M  V30 6455 H 597.294 3.51686 -2.97748 0
M  V30 6456 H 595.609 3.27792 -2.56791 0
M  V30 6457 H 598.206 5.30559 -0.664166 0
M  V30 6458 H 598.549 4.12316 0.574592 0
M  V30 6459 H 599.082 3.82359 -1.09756 0
M  V30 6460 H 595.821 5.48109 -3.59523 0
M  V30 6461 H 595.341 5.69061 -1.8955 0
M  V30 6462 H 597.02 6.00958 -2.39706 0
M  V30 6463 N 597.152 0.631951 1.44375 0
M  V30 6464 C 598.392 0.14009 2.03919 0
M  V30 6465 C 598.756 -1.21534 1.48639 0
M  V30 6466 O 599.957 -1.79936 1.99691 0
M  V30 6467 C 598.228 0.127174 3.57174 0
M  V30 6468 S 599.787 -0.299946 4.37774 0
M  V30 6469 H 596.605 0.0614891 0.708336 0
M  V30 6470 H 599.207 0.835524 1.76746 0
M  V30 6471 H 597.911 1.11676 3.94913 0
M  V30 6472 H 597.442 -0.589482 3.88958 0
M  V30 6473 H 599.457 -1.54396 4.71568 0
M  V30 6474 N 598.631 -1.53133 0.372548 0
M  V30 6475 C 599.861 -2.05476 -0.215202 0
M  V30 6476 C 600.269 -1.24534 -1.42436 0
M  V30 6477 O 599.612 -0.280771 -1.81542 0
M  V30 6478 C 599.674 -3.53276 -0.666068 0
M  V30 6479 C 599.338 -4.54998 0.427342 0
M  V30 6480 C 600.335 -5.03911 1.27944 0
M  V30 6481 C 598.02 -4.98828 0.589579 0
M  V30 6482 C 600.014 -5.95263 2.27905 0
M  V30 6483 C 597.701 -5.89984 1.59255 0
M  V30 6484 C 598.699 -6.38093 2.43571 0
M  V30 6485 O 598.387 -7.27451 3.42156 0
M  V30 6486 H 598.119 -0.67481 -0.040099 0
M  V30 6487 H 600.673 -1.98409 0.531312 0
M  V30 6488 H 598.903 -3.57904 -1.4643 0
M  V30 6489 H 600.592 -3.88442 -1.1776 0
M  V30 6490 H 601.358 -4.70792 1.16532 0
M  V30 6491 H 597.237 -4.60965 -0.0569456 0
M  V30 6492 H 600.781 -6.32736 2.93753 0
M  V30 6493 H 596.678 -6.22518 1.70711 0
M  V30 6494 H 597.446 -7.45467 3.37967 0
M  V30 6495 N 600.109 -0.101901 -1.5727 0
M  V30 6496 C 601.358 0.559922 -1.93772 0
M  V30 6497 C 601.671 1.68913 -0.98629 0
M  V30 6498 O 602.877 2.41256 -1.24529 0
M  V30 6499 C 601.333 1.04739 -3.44322 0
M  V30 6500 C 600.941 -0.05243 -4.47969 0
M  V30 6501 C 602.685 1.68157 -3.89774 0
M  V30 6502 C 600.592 0.450781 -5.8968 0
M  V30 6503 H 599.522 0.212931 -0.723309 0
M  V30 6504 H 602.173 -0.179001 -1.82625 0
M  V30 6505 H 600.555 1.84021 -3.50645 0
M  V30 6506 H 601.729 -0.828157 -4.53297 0
M  V30 6507 H 600.044 -0.592202 -4.12167 0
M  V30 6508 H 602.641 2.0689 -4.93052 0
M  V30 6509 H 602.984 2.55338 -3.28798 0
M  V30 6510 H 603.517 0.954453 -3.8618 0
M  V30 6511 H 600.256 -0.38458 -6.54371 0
M  V30 6512 H 599.776 1.19336 -5.87809 0
M  V30 6513 H 601.455 0.917555 -6.40461 0
M  V30 6514 N 601.587 1.56661 0.17182 0
M  V30 6515 C 602.497 1.99604 1.2327 0
M  V30 6516 C 603.513 0.907333 1.4847 0
M  V30 6517 O 604.689 1.21492 1.60629 0
M  V30 6518 C 601.754 2.34685 2.55194 0
M  V30 6519 C 600.815 3.57381 2.3786 0
M  V30 6520 C 600.048 3.90779 3.63494 0
M  V30 6521 O 600.271 3.25152 4.6865 0
M  V30 6522 O 599.205 4.84129 3.57634 0
M  V30 6523 H 603.031 2.90114 0.898192 0
M  V30 6524 H 600.616 1.44522 0.378647 0
M  V30 6525 H 602.498 2.5822 3.33017 0
M  V30 6526 H 601.173 1.47336 2.88225 0
M  V30 6527 H 600.08 3.39064 1.5807 0
M  V30 6528 H 601.413 4.45268 2.09754 0
M  V30 6529 N 603.065 -0.440357 1.51323 0
M  V30 6530 C 604.012 -1.53429 1.72419 0
M  V30 6531 C 604.982 -1.56165 0.565826 0
M  V30 6532 O 606.167 -1.73222 0.799917 0
M  V30 6533 C 603.307 -2.91169 1.85242 0
M  V30 6534 C 602.42 -2.97985 3.12777 0
M  V30 6535 C 601.555 -4.26829 3.16212 0
M  V30 6536 C 600.594 -4.27501 4.38074 0
M  V30 6537 N 599.731 -5.47866 4.39076 0
M  V30 6538 H 604.571 -1.34743 2.65797 0
M  V30 6539 H 602.108 -0.654608 1.31732 0
M  V30 6540 H 604.066 -3.71087 1.90658 0
M  V30 6541 H 602.696 -3.0842 0.952744 0
M  V30 6542 H 601.748 -2.10749 3.16685 0
M  V30 6543 H 603.06 -2.94342 4.02696 0
M  V30 6544 H 602.214 -5.15118 3.20527 0
M  V30 6545 H 600.953 -4.33124 2.24176 0
M  V30 6546 H 599.958 -3.37606 4.33938 0
M  V30 6547 H 601.183 -4.22873 5.31371 0
M  V30 6548 H 599.129 -5.54887 3.49909 0
M  V30 6549 H 599.046 -5.46091 5.22801 0
M  V30 6550 H 600.314 -6.38195 4.4758 0
M  V30 6551 N 604.543 -1.41418 -0.695603 0
M  V30 6552 C 605.954 -1.36335 -1.27552 0
M  V30 6553 C 606.305 -0.0464336 -1.96145 0
M  V30 6554 O 605.43 0.855304 -1.9878 0
M  V30 6555 C 606.025 -2.46941 -2.3196 0
M  V30 6556 C 604.584 -2.45256 -2.85529 0
M  V30 6557 C 603.731 -2.2679 -1.59566 0
M  V30 6558 H 606.682 -1.50934 -0.490362 0
M  V30 6559 H 606.703 -2.15997 -3.1325 0
M  V30 6560 H 606.215 -3.42775 -1.82008 0
M  V30 6561 H 604.316 -1.53179 -3.39657 0
M  V30 6562 H 604.429 -3.41565 -3.35961 0
M  V30 6563 H 602.793 -1.74667 -1.85374 0
M  V30 6564 H 603.576 -3.24651 -1.1161 0
M  V30 6565 N 606.021 0.929856 -1.27246 0
M  V30 6566 C 607.269 1.674 -1.13233 0
M  V30 6567 C 607.59 1.92311 0.322744 0
M  V30 6568 O 606.86 1.52784 1.22612 0
M  V30 6569 H 605.44 0.620411 -0.416052 0
M  V30 6570 H 608.102 1.11663 -1.59741 0
M  V30 6571 H 607.198 2.64308 -1.65975 0
M  V30 6572 N 607.499 1.09233 1.13605 0
M  V30 6573 C 608.745 0.828385 1.8511 0
M  V30 6574 C 609.078 -0.64437 1.83198 0
M  V30 6575 O 608.353 -1.47428 1.26867 0
M  V30 6576 C 608.636 1.36167 3.33363 0
M  V30 6577 C 608.489 2.90038 3.438 0
M  V30 6578 C 609.808 0.993819 4.28732 0
M  V30 6579 H 606.927 0.30239 0.672108 0
M  V30 6580 H 609.569 1.35339 1.33355 0
M  V30 6581 H 607.719 0.9151 3.77569 0
M  V30 6582 H 609.391 3.43128 3.08319 0
M  V30 6583 H 607.634 3.27271 2.84739 0
M  V30 6584 H 608.305 3.22428 4.48045 0
M  V30 6585 H 610.781 1.37893 3.92587 0
M  V30 6586 H 609.657 1.39403 5.30903 0
M  V30 6587 H 609.918 -0.0982206 4.41991 0
M  V30 6588 N 608.977 -1.30795 0.87923 0
M  V30 6589 C 609.887 -2.32041 0.345565 0
M  V30 6590 C 610.903 -1.65103 -0.549265 0
M  V30 6591 O 612.079 -1.9645 -0.443763 0
M  V30 6592 C 609.144 -3.43944 -0.436245 0
M  V30 6593 C 608.205 -4.26521 0.48765 0
M  V30 6594 C 607.438 -5.33081 -0.256943 0
M  V30 6595 O 607.661 -5.50762 -1.48381 0
M  V30 6596 O 606.595 -6.00635 0.389985 0
M  V30 6597 H 610.421 -2.79627 1.18501 0
M  V30 6598 H 608.006 -1.3486 0.642885 0
M  V30 6599 H 609.888 -4.12128 -0.879119 0
M  V30 6600 H 608.563 -2.98504 -1.25208 0
M  V30 6601 H 607.47 -3.61057 0.979216 0
M  V30 6602 H 608.803 -4.75551 1.26933 0
M  V30 6603 N 610.455 -0.639598 -1.44038 0
M  V30 6604 C 611.683 -0.154811 -2.0632 0
M  V30 6605 C 612.098 1.17406 -1.47856 0
M  V30 6606 O 611.455 1.72193 -0.604638 0
M  V30 6607 C 611.506 -0.0429958 -3.61474 0
M  V30 6608 O 611.227 -1.31932 -4.17763 0
M  V30 6609 C 612.728 0.469486 -4.40807 0
M  V30 6610 H 609.948 -0.0835862 -0.665773 0
M  V30 6611 H 612.492 -0.876397 -1.84769 0
M  V30 6612 H 610.647 0.629075 -3.82258 0
M  V30 6613 H 611.061 -1.16965 -5.11292 0
M  V30 6614 H 612.535 0.496712 -5.49761 0
M  V30 6615 H 613.012 1.49819 -4.12857 0
M  V30 6616 H 613.618 -0.169624 -4.24962 0
M  V30 6617 N 611.933 1.52934 -0.380664 0
M  V30 6618 C 612.863 2.29118 0.450268 0
M  V30 6619 C 613.844 1.32153 1.07096 0
M  V30 6620 O 615.029 1.61038 1.08537 0
M  V30 6621 C 612.159 3.09161 1.58231 0
M  V30 6622 C 611.113 4.13938 1.0881 0
M  V30 6623 C 610.439 4.82153 2.31155 0
M  V30 6624 C 611.739 5.22048 0.162146 0
M  V30 6625 H 613.433 2.98826 -0.185361 0
M  V30 6626 H 610.979 1.43715 -0.0905886 0
M  V30 6627 H 612.932 3.61211 2.17036 0
M  V30 6628 H 611.656 2.3717 2.2454 0
M  V30 6629 H 610.315 3.62855 0.522633 0
M  V30 6630 H 609.963 4.06719 2.95953 0
M  V30 6631 H 609.663 5.52966 1.98752 0
M  V30 6632 H 611.187 5.37004 2.90618 0
M  V30 6633 H 612.601 5.6951 0.658126 0
M  V30 6634 H 610.998 6.00057 -0.0717122 0
M  V30 6635 H 612.068 4.78398 -0.791438 0
M  V30 6636 N 613.412 0.11024 1.57214 0
M  V30 6637 C 614.322 -0.857077 2.18383 0
M  V30 6638 C 615.338 -1.29915 1.1575 0
M  V30 6639 O 616.514 -1.36394 1.48184 0
M  V30 6640 C 613.579 -2.09264 2.76423 0
M  V30 6641 C 612.64 -1.70333 3.94063 0
M  V30 6642 C 611.873 -2.87999 4.49324 0
M  V30 6643 O 612.096 -4.0317 4.03497 0
M  V30 6644 O 611.03 -2.6559 5.40135 0
M  V30 6645 H 614.856 -0.366561 3.0148 0
M  V30 6646 H 612.441 -0.114914 1.48957 0
M  V30 6647 H 614.323 -2.81644 3.13456 0
M  V30 6648 H 612.998 -2.57339 1.96363 0
M  V30 6649 H 611.905 -0.950864 3.61814 0
M  V30 6650 H 613.238 -1.27007 4.75531 0
M  V30 6651 N 614.89 -1.56749 -0.16351 0
M  V30 6652 C 616.167 -1.73321 -0.906599 0
M  V30 6653 C 616.547 -0.673779 -2.00059 0
M  V30 6654 O 615.895 0.310121 -2.26386 0
M  V30 6655 C 616.105 -3.168 -1.46419 0
M  V30 6656 C 617.453 -3.77993 -1.93407 0
M  V30 6657 O 618.477 -3.20127 -1.56196 0
M  V30 6658 O 617.336 -4.79615 -2.61976 0
M  V30 6659 H 614.43 -0.708073 -0.427272 0
M  V30 6660 H 616.976 -1.69029 -0.150727 0
M  V30 6661 H 615.748 -3.85396 -0.677189 0
M  V30 6662 H 615.371 -3.2545 -2.28403 0
M  V30 6663 N 616.368 0.432326 -1.51554 0
M  V30 6664 C 617.593 1.20824 -1.68571 0
M  V30 6665 C 618.018 1.84126 -0.384596 0
M  V30 6666 O 617.376 1.69025 0.655751 0
M  V30 6667 C 617.424 2.26429 -2.80646 0
M  V30 6668 O 616.528 3.32032 -2.44598 0
M  V30 6669 H 615.869 0.353765 -0.561913 0
M  V30 6670 H 618.399 0.509916 -1.98144 0
M  V30 6671 H 618.409 2.71133 -3.04878 0
M  V30 6672 H 617.084 1.79733 -3.75058 0
M  V30 6673 H 615.661 2.92769 -2.30956 0
M  V30 6674 N 617.846 1.41785 0.688094 0
M  V30 6675 C 619.092 1.41753 1.4503 0
M  V30 6676 C 619.425 0.0290745 1.94178 0
M  V30 6677 O 618.7 -0.944456 1.7003 0
M  V30 6678 C 618.983 2.43069 2.65686 0
M  V30 6679 C 618.836 3.91053 2.22256 0
M  V30 6680 C 620.155 2.41543 3.67893 0
M  V30 6681 H 617.274 0.516202 0.526027 0
M  V30 6682 H 619.916 1.73111 0.783105 0
M  V30 6683 H 618.066 2.1646 3.2261 0
M  V30 6684 H 619.738 4.28594 1.70602 0
M  V30 6685 H 617.981 4.05559 1.53963 0
M  V30 6686 H 618.652 4.57501 3.08863 0
M  V30 6687 H 621.128 2.65175 3.20658 0
M  V30 6688 H 620.004 3.14434 4.49914 0
M  V30 6689 H 620.265 1.43666 4.18106 0
M  V30 6690 N 619.324 -0.923095 1.27737 0
M  V30 6691 C 620.571 -1.67127 1.14345 0
M  V30 6692 C 620.899 -1.92017 -0.30982 0
M  V30 6693 O 620.154 -1.51185 -1.24264 0
M  V30 6694 C 620.453 -3.04125 1.8773 0
M  V30 6695 C 620.119 -2.98929 3.37568 0
M  V30 6696 C 618.781 -2.9722 3.78436 0
M  V30 6697 C 621.133 -2.89875 4.33154 0
M  V30 6698 C 618.461 -2.84244 5.13247 0
M  V30 6699 C 620.813 -2.7844 5.68026 0
M  V30 6700 C 619.477 -2.75083 6.08182 0
M  V30 6701 H 618.747 -0.611562 0.418417 0
M  V30 6702 H 621.394 -1.07618 1.584 0
M  V30 6703 H 619.699 -3.67366 1.36196 0
M  V30 6704 H 621.396 -3.609 1.74792 0
M  V30 6705 H 617.986 -3.0105 3.05069 0
M  V30 6706 H 622.17 -2.9029 4.02548 0
M  V30 6707 H 617.426 -2.80034 5.43499 0
M  V30 6708 H 621.6 -2.70401 6.4176 0
M  V30 6709 H 619.227 -2.64786 7.12596 0
M  V30 6710 O 620.841 -1.22056 -1.05757 0
M  V30 6711 H 621.532 -0.983935 -1.66848 0
M  V30 END ATOM
M  V30 BEGIN BOND
M  V30 END BOND
M  V30 END CTAB
M  END
$$$$
