drugbank_target|Q8NBQ5 Estradiol 17-beta-dehydrogenase 11 (DB02854)
 OpenBabel12092120253D

  0  0  0     0  0            999 V3000
M  V30 BEGIN CTAB
M  V30 COUNTS 4751 4797 0 0 0
M  V30 BEGIN ATOM
M  V30 1 H -0.908 1.98254 -0.117106 0
M  V30 2 N 0 1.576 0 0
M  V30 3 C 0.933 2.03868 1.02534 0
M  V30 4 C 1.911 0.928543 1.3348 0
M  V30 5 O 3.095 1.19667 1.45644 0
M  V30 6 C 0.222 2.43627 2.35294 0
M  V30 7 C -0.732 3.65373 2.2001 0
M  V30 8 S 0.101 5.13292 1.52614 0
M  V30 9 C 1.257 5.56322 2.86805 0
M  V30 10 H 1.49 2.90518 0.631377 0
M  V30 11 H -0.977 1.52953 0.210867 0
M  V30 12 H 0.981 2.67203 3.11629 0
M  V30 13 H -0.358 1.57376 2.7183 0
M  V30 14 H -1.165 3.90944 3.18086 0
M  V30 15 H -1.563 3.418 1.51819 0
M  V30 16 H 0.729 5.58782 3.83104 0
M  V30 17 H 1.672 6.56266 2.65933 0
M  V30 18 H 2.08 4.83886 2.90714 0
M  V30 19 N 1.4781 -0.272755 1.55222 0
M  V30 20 C 2.4251 -1.33716 1.88119 0
M  V30 21 C 3.3951 -1.49066 0.73271 0
M  V30 22 O 4.5801 -1.63469 0.984002 0
M  V30 23 C 1.7201 -2.69238 2.15882 0
M  V30 24 C 0.8331 -2.62108 3.43399 0
M  V30 25 C -0.0319 -3.89811 3.60861 0
M  V30 26 C -0.9929 -3.77193 4.8207 0
M  V30 27 N -1.8559 -4.9673 4.96189 0
M  V30 28 H 2.9841 -1.04962 2.78903 0
M  V30 29 H 0.5211 -0.507088 1.38083 0
M  V30 30 H 2.4791 -3.48089 2.29978 0
M  V30 31 H 1.1091 -2.96194 1.28331 0
M  V30 32 H 0.1611 -1.74967 3.37773 0
M  V30 33 H 1.4731 -2.48685 4.32386 0
M  V30 34 H 0.6271 -4.77103 3.74777 0
M  V30 35 H -0.6339 -4.06102 2.7006 0
M  V30 36 H -1.6289 -2.88284 4.68159 0
M  V30 37 H -0.4039 -3.62421 5.74307 0
M  V30 38 H -2.4579 -5.13431 4.08319 0
M  V30 39 H -2.5409 -4.85839 5.79221 0
M  V30 40 H -1.2729 -5.85594 5.1449 0
M  V30 41 N 2.9562 -1.48159 -0.537278 0
M  V30 42 C 4.2032 -1.55804 -1.29349 0
M  V30 43 C 4.5312 -0.228802 -1.9315 0
M  V30 44 O 3.7862 0.780242 -1.79473 0
M  V30 45 C 4.0852 -2.63956 -2.40961 0
M  V30 46 C 3.7512 -4.0662 -1.94861 0
M  V30 47 C 2.4132 -4.45452 -1.82006 0
M  V30 48 C 4.7652 -4.96055 -1.59933 0
M  V30 49 C 2.0932 -5.71531 -1.32547 0
M  V30 50 C 4.4452 -6.22617 -1.11939 0
M  V30 51 C 3.1092 -6.60312 -0.976951 0
M  V30 52 H 2.3792 -0.570129 -0.473322 0
M  V30 53 H 5.0262 -1.81845 -0.600372 0
M  V30 54 H 3.3312 -2.31747 -3.15912 0
M  V30 55 H 5.0282 -2.67089 -2.99107 0
M  V30 56 H 1.6182 -3.75949 -2.05815 0
M  V30 57 H 5.8022 -4.66738 -1.68728 0
M  V30 58 H 1.0582 -5.99468 -1.202 0
M  V30 59 H 5.2322 -6.91318 -0.839811 0
M  V30 60 H 2.8592 -7.57895 -0.591501 0
M  V30 61 N 4.4343 0.785586 -1.36625 0
M  V30 62 C 5.3643 1.91259 -1.33949 0
M  V30 63 C 6.3453 1.68795 -0.210325 0
M  V30 64 O 7.5303 1.89854 -0.408561 0
M  V30 65 C 4.6603 3.28339 -1.13186 0
M  V30 66 C 3.6143 3.65335 -2.22967 0
M  V30 67 C 2.9403 5.00806 -1.87342 0
M  V30 68 C 4.2403 3.7352 -3.65075 0
M  V30 69 H 5.9343 1.93755 -2.28253 0
M  V30 70 H 3.4803 0.930788 -1.09874 0
M  V30 71 H 5.4333 4.06804 -1.09948 0
M  V30 72 H 4.1573 3.2624 -0.153332 0
M  V30 73 H 2.8163 2.89169 -2.25337 0
M  V30 74 H 2.4643 4.95233 -0.880545 0
M  V30 75 H 2.1643 5.26529 -2.60846 0
M  V30 76 H 3.6883 5.81687 -1.85667 0
M  V30 77 H 5.1023 4.42168 -3.64911 0
M  V30 78 H 3.4993 4.10731 -4.37516 0
M  V30 79 H 4.5693 2.74527 -3.99703 0
M  V30 80 N 5.9124 1.20967 1.01018 0
M  V30 81 C 6.8424 0.988272 2.11555 0
M  V30 82 C 7.8234 -0.0849778 1.69888 0
M  V30 83 O 9.0084 0.0738202 1.9406 0
M  V30 84 C 6.1384 0.546528 3.42973 0
M  V30 85 C 5.0924 1.56375 3.9841 0
M  V30 86 C 4.4184 0.97842 5.25672 0
M  V30 87 C 5.7184 2.94922 4.31066 0
M  V30 88 H 7.4124 1.91276 2.30334 0
M  V30 89 H 4.9584 0.921073 1.1069 0
M  V30 90 H 6.9114 0.378839 4.19694 0
M  V30 91 H 5.6354 -0.413598 3.23971 0
M  V30 92 H 4.2944 1.71891 3.23804 0
M  V30 93 H 3.9424 0.0101688 5.02999 0
M  V30 94 H 3.6424 1.65784 5.63728 0
M  V30 95 H 5.1664 0.821939 6.05043 0
M  V30 96 H 6.5804 2.8288 4.9865 0
M  V30 97 H 4.9774 3.5983 4.80253 0
M  V30 98 H 6.0474 3.4616 3.39561 0
M  V30 99 N 7.3905 -1.2043 1.01659 0
M  V30 100 C 8.6675 -1.8548 0.621004 0
M  V30 101 C 9.0475 -1.9091 -0.900919 0
M  V30 102 O 8.3955 -1.41694 -1.79263 0
M  V30 103 C 8.6055 -3.25119 1.2688 0
M  V30 104 C 9.9535 -4.01403 1.38423 0
M  V30 105 O 10.9775 -3.34473 1.22501 0
M  V30 106 O 9.8365 -5.21265 1.64151 0
M  V30 107 H 6.9305 -0.798761 0.214266 0
M  V30 108 H 9.4765 -1.28019 1.11396 0
M  V30 109 H 8.2485 -3.15932 2.30873 0
M  V30 110 H 7.8715 -3.90212 0.762917 0
M  V30 111 N 8.8686 -0.792821 -1.36206 0
M  V30 112 C 10.1176 -0.363353 -1.984 0
M  V30 113 C 10.4306 1.07172 -1.63626 0
M  V30 114 O 11.6366 1.60362 -2.19081 0
M  V30 115 C 10.0926 -0.59872 -3.54885 0
M  V30 116 C 9.7006 -2.04543 -3.9858 0
M  V30 117 C 11.4446 -0.233926 -4.23855 0
M  V30 118 C 9.3516 -2.22727 -5.47856 0
M  V30 119 H 8.2816 -0.13212 -0.742334 0
M  V30 120 H 10.9326 -0.974935 -1.55458 0
M  V30 121 H 9.3146 0.0826222 -3.95914 0
M  V30 122 H 10.4886 -2.76345 -3.68741 0
M  V30 123 H 8.8036 -2.36879 -3.42458 0
M  V30 124 H 11.4006 -0.348027 -5.33566 0
M  V30 125 H 11.7436 0.818351 -4.08177 0
M  V30 126 H 12.2766 -0.868639 -3.882 0
M  V30 127 H 9.0156 -3.2635 -5.68486 0
M  V30 128 H 8.5356 -1.55434 -5.7931 0
M  V30 129 H 10.2146 -2.03607 -6.14128 0
M  V30 130 N 10.3467 1.47872 -0.545128 0
M  V30 131 C 11.2767 2.32661 0.197793 0
M  V30 132 C 12.2577 1.43041 0.920504 0
M  V30 133 O 13.4427 1.71912 0.90333 0
M  V30 134 C 10.5727 3.24569 1.23582 0
M  V30 135 C 9.5267 4.23333 0.630323 0
M  V30 136 C 8.8527 5.0448 1.77211 0
M  V30 137 C 10.1527 5.20704 -0.407974 0
M  V30 138 H 11.8467 2.95024 -0.510045 0
M  V30 139 H 9.3927 1.4187 -0.246731 0
M  V30 140 H 11.3457 3.8272 1.76362 0
M  V30 141 H 10.0697 2.60236 1.97344 0
M  V30 142 H 8.7287 3.6639 0.123922 0
M  V30 143 H 8.3767 4.36561 2.49847 0
M  V30 144 H 8.0767 5.71339 1.37281 0
M  V30 145 H 9.6007 5.65487 2.3034 0
M  V30 146 H 11.0147 5.7329 0.033305 0
M  V30 147 H 9.4117 5.95699 -0.725486 0
M  V30 148 H 10.4817 4.66917 -1.30828 0
M  V30 149 N 11.8248 0.280983 1.55075 0
M  V30 150 C 12.7548 -0.597469 2.25727 0
M  V30 151 C 13.7358 -1.15417 1.24952 0
M  V30 152 O 14.9208 -1.18722 1.53684 0
M  V30 153 C 12.0508 -1.7789 2.98283 0
M  V30 154 C 11.0048 -1.35347 4.06036 0
M  V30 155 C 10.3308 -2.61846 4.66198 0
M  V30 156 C 11.6308 -0.499354 5.19907 0
M  V30 157 H 13.3248 -0.00824265 2.99399 0
M  V30 158 H 10.8708 -0.0025244 1.44 0
M  V30 159 H 12.8238 -2.39937 3.46422 0
M  V30 160 H 11.5478 -2.39405 2.22155 0
M  V30 161 H 10.2068 -0.756156 3.58717 0
M  V30 162 H 9.8548 -3.21632 3.86732 0
M  V30 163 H 9.5548 -2.3409 5.38958 0
M  V30 164 H 11.0788 -3.24732 5.1709 0
M  V30 165 H 12.4928 -1.02498 5.64063 0
M  V30 166 H 10.8898 -0.316424 5.99265 0
M  V30 167 H 11.9598 0.480459 4.82514 0
M  V30 168 N 13.3029 -1.57598 0.00835791 0
M  V30 169 C 14.2329 -2.1198 -0.979113 0
M  V30 170 C 15.2139 -1.03091 -1.35301 0
M  V30 171 O 16.3989 -1.30818 -1.43528 0
M  V30 172 C 13.5289 -2.62995 -2.26828 0
M  V30 173 C 12.4829 -3.76485 -2.03576 0
M  V30 174 C 11.8089 -4.13846 -3.38579 0
M  V30 175 C 13.1089 -5.0342 -1.39161 0
M  V30 176 H 14.8029 -2.94738 -0.526281 0
M  V30 177 H 12.3489 -1.41783 -0.251704 0
M  V30 178 H 14.3019 -2.99669 -2.96271 0
M  V30 179 H 13.0259 -1.7737 -2.7424 0
M  V30 180 H 11.6849 -3.40217 -1.36557 0
M  V30 181 H 11.3329 -3.25232 -3.83709 0
M  V30 182 H 11.0329 -4.90312 -3.23834 0
M  V30 183 H 12.5569 -4.53086 -4.09323 0
M  V30 184 H 13.9709 -5.37812 -1.98573 0
M  V30 185 H 12.3679 -5.84746 -1.34878 0
M  V30 186 H 13.4379 -4.83548 -0.361868 0
M  V30 187 N 14.781 0.264519 -1.55364 0
M  V30 188 C 15.711 1.33121 -1.91836 0
M  V30 189 C 16.692 1.51101 -0.781192 0
M  V30 190 O 17.877 1.64003 -1.04003 0
M  V30 191 C 15.007 2.68921 -2.19769 0
M  V30 192 C 13.961 2.65661 -3.35571 0
M  V30 193 C 13.287 4.05093 -3.49004 0
M  V30 194 C 14.587 2.24187 -4.71739 0
M  V30 195 H 16.281 1.02844 -2.81182 0
M  V30 196 H 13.827 0.493286 -1.35287 0
M  V30 197 H 15.78 3.43663 -2.43872 0
M  V30 198 H 14.504 3.00799 -1.27231 0
M  V30 199 H 13.163 1.93377 -3.1145 0
M  V30 200 H 12.811 4.34206 -2.53917 0
M  V30 201 H 12.511 4.03804 -4.26868 0
M  V30 202 H 14.035 4.81561 -3.75408 0
M  V30 203 H 15.449 2.88654 -4.9533 0
M  V30 204 H 13.846 2.34044 -5.52579 0
M  V30 205 H 14.916 1.19327 -4.69988 0
M  V30 206 N 16.2591 1.48442 0.529413 0
M  V30 207 C 17.6701 1.5002 1.11134 0
M  V30 208 C 18.0211 0.27031 1.94329 0
M  V30 209 O 17.1461 -0.622507 2.07253 0
M  V30 210 C 17.7411 2.71834 2.02217 0
M  V30 211 C 16.3001 2.76283 2.55627 0
M  V30 212 C 15.4471 2.43542 1.326 0
M  V30 213 H 18.3981 1.5555 0.314641 0
M  V30 214 H 18.4191 2.50384 2.8651 0
M  V30 215 H 17.9311 3.61331 1.41639 0
M  V30 216 H 16.0321 1.90995 3.19924 0
M  V30 217 H 16.1451 3.77725 2.94721 0
M  V30 218 H 14.5091 1.94709 1.64196 0
M  V30 219 H 15.2921 3.3528 0.737734 0
M  V30 220 N 17.7372 -0.778329 1.37039 0
M  V30 221 C 18.6672 -1.90546 1.34962 0
M  V30 222 C 19.6482 -1.68681 0.219274 0
M  V30 223 O 20.8332 -1.89634 0.418624 0
M  V30 224 C 17.9632 -3.27734 1.14925 0
M  V30 225 C 16.9172 -3.64147 2.24902 0
M  V30 226 C 16.2432 -4.99806 1.89996 0
M  V30 227 C 17.5432 -3.71579 3.67051 0
M  V30 228 H 19.2372 -1.92541 2.29277 0
M  V30 229 H 16.7832 -0.924948 1.10366 0
M  V30 230 H 18.7362 -4.06215 1.12104 0
M  V30 231 H 17.4602 -3.26154 0.170631 0
M  V30 232 H 16.1192 -2.8797 2.26868 0
M  V30 233 H 15.7672 -4.94759 0.906796 0
M  V30 234 H 15.4672 -5.25139 2.63634 0
M  V30 235 H 16.9912 -5.80694 1.88749 0
M  V30 236 H 18.4052 -4.40227 3.67251 0
M  V30 237 H 16.8022 -4.08405 4.39688 0
M  V30 238 H 17.8722 -2.72404 4.01154 0
M  V30 239 N 19.2153 -1.21501 -1.00376 0
M  V30 240 C 20.1453 -0.999478 -2.11028 0
M  V30 241 C 21.1263 0.0759671 -1.6993 0
M  V30 242 O 22.3113 -0.0841106 -1.94018 0
M  V30 243 C 19.4413 -0.564709 -3.42678 0
M  V30 244 C 18.3953 -1.58486 -3.97576 0
M  V30 245 C 17.7213 -1.00628 -5.25146 0
M  V30 246 C 19.0213 -2.97204 -4.29496 0
M  V30 247 H 20.7153 -1.92495 -2.29317 0
M  V30 248 H 18.2613 -0.92693 -1.102 0
M  V30 249 H 20.2143 -0.401091 -4.19487 0
M  V30 250 H 18.9383 0.396411 -3.24185 0
M  V30 251 H 17.5973 -1.73606 -3.22888 0
M  V30 252 H 17.2453 -0.0368439 -5.02987 0
M  V30 253 H 16.9453 -1.68771 -5.62841 0
M  V30 254 H 18.4693 -0.854015 -6.04598 0
M  V30 255 H 19.8833 -2.8552 -4.97143 0
M  V30 256 H 18.2803 -3.62372 -4.78338 0
M  V30 257 H 19.3503 -3.47956 -3.3772 0
M  V30 258 N 20.6934 1.19889 -1.02296 0
M  V30 259 C 21.9424 1.88743 -0.711257 0
M  V30 260 C 22.2554 1.80112 0.762817 0
M  V30 261 O 23.4614 2.44161 1.18733 0
M  V30 262 C 21.9174 3.38525 -1.22185 0
M  V30 263 C 21.5254 3.55727 -2.72328 0
M  V30 264 C 23.2694 4.12893 -0.985864 0
M  V30 265 C 21.1764 4.99369 -3.16835 0
M  V30 266 H 20.1064 0.706885 -0.262353 0
M  V30 267 H 22.7574 1.35586 -1.23648 0
M  V30 268 H 21.1394 3.91044 -0.624571 0
M  V30 269 H 22.3134 3.13564 -3.3766 0
M  V30 270 H 20.6284 2.94739 -2.9414 0
M  V30 271 H 23.2254 5.18813 -1.29374 0
M  V30 272 H 23.5684 4.16228 0.0775055 0
M  V30 273 H 24.1014 3.66494 -1.54684 0
M  V30 274 H 20.8404 5.01193 -4.22476 0
M  V30 275 H 20.3604 5.42317 -2.56228 0
M  V30 276 H 22.0394 5.67988 -3.09837 0
M  V30 277 N 22.1715 0.800033 1.35784 0
M  V30 278 C 23.4175 0.377901 1.99248 0
M  V30 279 C 23.7505 -1.05052 1.63333 0
M  V30 280 O 23.0255 -1.72768 0.893385 0
M  V30 281 C 23.3085 0.553922 3.55814 0
M  V30 282 C 23.1615 2.0268 4.01548 0
M  V30 283 C 24.4805 -0.0244802 4.40093 0
M  V30 284 H 21.5995 0.138782 0.723815 0
M  V30 285 H 24.2415 1.00835 1.61035 0
M  V30 286 H 22.3915 0.0172398 3.88496 0
M  V30 287 H 24.0635 2.62536 3.79305 0
M  V30 288 H 22.3065 2.5256 3.52698 0
M  V30 289 H 22.9775 2.10087 5.10458 0
M  V30 290 H 25.4535 0.433775 4.13833 0
M  V30 291 H 24.3295 0.128637 5.48749 0
M  V30 292 H 24.5905 -1.11758 4.27741 0
M  V30 293 N 23.6496 -1.47581 0.552962 0
M  V30 294 C 24.8896 -2.04379 0.0296245 0
M  V30 295 C 25.2536 -1.4185 -1.29393 0
M  V30 296 O 26.4546 -1.89669 -1.90471 0
M  V30 297 C 24.7256 -3.57339 -0.0661371 0
M  V30 298 S 26.2846 -4.35511 -0.536213 0
M  V30 299 H 23.1026 -0.710625 0.0230991 0
M  V30 300 H 25.7046 -1.81005 0.738734 0
M  V30 301 H 24.4086 -4.00374 0.901596 0
M  V30 302 H 23.9396 -3.85202 -0.798931 0
M  V30 303 H 25.9546 -4.6253 -1.79668 0
M  V30 304 N 25.1277 -0.289203 -1.54924 0
M  V30 305 C 26.3527 0.329299 -2.04769 0
M  V30 306 C 26.7777 1.4763 -1.16564 0
M  V30 307 O 26.1357 1.80527 -0.167186 0
M  V30 308 C 26.1837 0.774438 -3.52186 0
M  V30 309 O 25.2877 1.88038 -3.67036 0
M  V30 310 H 24.6287 0.0659259 -0.660719 0
M  V30 311 H 27.1587 -0.42761 -2.00082 0
M  V30 312 H 27.1687 1.06642 -3.93816 0
M  V30 313 H 25.8437 -0.0646707 -4.1585 0
M  V30 314 H 24.4207 1.58985 -3.3731 0
M  V30 315 N 26.6058 1.57591 -0.0167156 0
M  V30 316 C 27.5358 2.12496 0.967858 0
M  V30 317 C 28.5168 1.03807 1.34752 0
M  V30 318 O 29.7018 1.31577 1.42833 0
M  V30 319 C 26.8318 2.64194 2.25431 0
M  V30 320 C 25.7858 3.77559 2.01576 0
M  V30 321 C 25.1118 4.15636 3.36379 0
M  V30 322 C 26.4118 5.04151 1.36489 0
M  V30 323 H 28.1058 2.95013 0.510643 0
M  V30 324 H 25.6518 1.41915 0.244181 0
M  V30 325 H 27.6048 3.01236 2.94678 0
M  V30 326 H 26.3288 1.78821 2.73296 0
M  V30 327 H 24.9878 3.40937 1.34751 0
M  V30 328 H 24.6358 3.27263 3.81979 0
M  V30 329 H 24.3358 4.92022 3.21229 0
M  V30 330 H 25.8598 4.5525 4.06915 0
M  V30 331 H 27.2738 5.38857 1.95718 0
M  V30 332 H 25.6708 5.85453 1.31776 0
M  V30 333 H 26.7408 4.83733 0.336219 0
M  V30 334 N 28.0839 -0.256276 1.55502 0
M  V30 335 C 28.9939 -1.33882 1.92647 0
M  V30 336 C 30.0099 -1.53159 0.825727 0
M  V30 337 O 31.1859 -1.66963 1.12629 0
M  V30 338 C 28.2509 -2.6751 2.20543 0
M  V30 339 C 27.3119 -2.56836 3.43997 0
M  V30 340 C 26.5449 -3.84092 3.70553 0
M  V30 341 O 26.7679 -4.85545 2.99336 0
M  V30 342 O 25.7019 -3.83288 4.64084 0
M  V30 343 H 29.5279 -1.05374 2.84833 0
M  V30 344 H 27.1129 -0.456237 1.42263 0
M  V30 345 H 28.9949 -3.46492 2.39835 0
M  V30 346 H 27.6699 -2.9577 1.31536 0
M  V30 347 H 26.5769 -1.76172 3.30021 0
M  V30 348 H 27.9099 -2.33523 4.33275 0
M  V30 349 N 29.562 -1.4872 -0.521534 0
M  V30 350 C 30.787 -1.61101 -1.30618 0
M  V30 351 C 31.212 -0.274611 -1.86085 0
M  V30 352 O 30.57 0.754937 -1.64834 0
M  V30 353 C 30.618 -2.66709 -2.4269 0
M  V30 354 O 29.722 -2.24456 -3.45967 0
M  V30 355 H 29.063 -0.539921 -0.386499 0
M  V30 356 H 31.593 -1.94767 -0.626645 0
M  V30 357 H 31.603 -2.88245 -2.88754 0
M  V30 358 H 30.278 -3.63727 -2.01682 0
M  V30 359 H 28.855 -2.13168 -3.05964 0
M  V30 360 N 31.0401 0.771051 -1.3745 0
M  V30 361 C 32.2871 1.52963 -1.32697 0
M  V30 362 C 32.6151 1.94299 0.0883274 0
M  V30 363 O 31.8701 1.64397 1.0617 0
M  V30 364 C 32.1691 2.80676 -2.2126 0
M  V30 365 C 31.8351 2.58389 -3.69521 0
M  V30 366 C 30.4971 2.52019 -4.09927 0
M  V30 367 C 32.8491 2.38469 -4.63446 0
M  V30 368 C 30.1771 2.23721 -5.42371 0
M  V30 369 C 32.5291 2.11694 -5.96128 0
M  V30 370 C 31.1931 2.03769 -6.35637 0
M  V30 371 H 30.4631 0.559732 -0.485573 0
M  V30 372 H 33.1101 0.888083 -1.69662 0
M  V30 373 H 31.4151 3.49392 -1.77291 0
M  V30 374 H 33.1121 3.38557 -2.14895 0
M  V30 375 H 29.7021 2.6421 -3.37478 0
M  V30 376 H 33.8861 2.4238 -4.33089 0
M  V30 377 H 29.1421 2.16081 -5.71943 0
M  V30 378 H 33.3161 1.9528 -6.6846 0
M  V30 379 H 30.9431 1.81606 -7.38189 0
M  V30 380 N 32.5182 1.22032 0.997298 0
M  V30 381 C 33.7642 1.04376 1.73878 0
M  V30 382 C 34.0972 -0.420716 1.89588 0
M  V30 383 O 33.3722 -1.31202 1.43583 0
M  V30 384 C 33.6552 1.75047 3.14691 0
M  V30 385 C 33.5082 3.29062 3.06656 0
M  V30 386 C 34.8272 1.49928 4.13775 0
M  V30 387 H 31.9462 0.380578 0.631133 0
M  V30 388 H 34.5882 1.50312 1.16217 0
M  V30 389 H 32.7382 1.35996 3.63919 0
M  V30 390 H 34.4102 3.7753 2.65083 0
M  V30 391 H 32.6532 3.58967 2.43568 0
M  V30 392 H 33.3242 3.73683 4.06282 0
M  V30 393 H 35.8002 1.83842 3.73285 0
M  V30 394 H 34.6762 2.01878 5.10428 0
M  V30 395 H 34.9372 0.430929 4.39995 0
M  V30 396 N 33.9963 -1.19345 1.0293 0
M  V30 397 C 34.9433 -2.2258 0.610464 0
M  V30 398 C 35.9133 -1.6179 -0.375946 0
M  V30 399 O 37.0983 -1.88844 -0.272511 0
M  V30 400 C 34.2383 -3.45085 -0.0321473 0
M  V30 401 C 33.3513 -4.20258 1.00035 0
M  V30 402 C 32.4863 -5.3019 0.32746 0
M  V30 403 C 31.5253 -5.97121 1.34584 0
M  V30 404 N 30.6623 -6.98615 0.698726 0
M  V30 405 H 35.5023 -2.57764 1.49538 0
M  V30 406 H 33.0393 -1.26644 0.748311 0
M  V30 407 H 34.9973 -4.15061 -0.421966 0
M  V30 408 H 33.6273 -3.10555 -0.88064 0
M  V30 409 H 32.6793 -3.49223 1.50823 0
M  V30 410 H 33.9913 -4.66175 1.77433 0
M  V30 411 H 33.1453 -6.06587 -0.11718 0
M  V30 412 H 31.8843 -4.85345 -0.478713 0
M  V30 413 H 30.8893 -5.19474 1.80074 0
M  V30 414 H 32.1143 -6.4405 2.15352 0
M  V30 415 H 30.0603 -6.55942 -0.0873471 0
M  V30 416 H 29.9773 -7.42724 1.41058 0
M  V30 417 H 31.2453 -7.79004 0.278102 0
M  V30 418 N 35.4744 -0.807222 -1.35358 0
M  V30 419 C 36.4044 -0.232509 -2.3234 0
M  V30 420 C 37.3854 0.642386 -1.57504 0
M  V30 421 O 38.5704 0.572526 -1.85569 0
M  V30 422 C 35.7004 0.619238 -3.41735 0
M  V30 423 C 34.6544 -0.157215 -4.27711 0
M  V30 424 C 33.9804 0.816273 -5.28433 0
M  V30 425 C 35.2804 -1.35656 -5.04376 0
M  V30 426 H 36.9744 -1.04276 -2.80654 0
M  V30 427 H 34.5204 -0.50288 -1.34934 0
M  V30 428 H 36.4734 1.03137 -4.08584 0
M  V30 429 H 35.1974 1.46239 -2.92031 0
M  V30 430 H 33.8564 -0.550525 -3.62443 0
M  V30 431 H 33.5044 1.65494 -4.74996 0
M  V30 432 H 33.2044 0.301067 -5.86828 0
M  V30 433 H 34.7284 1.22659 -5.98153 0
M  V30 434 H 36.1424 -1.01927 -5.64166 0
M  V30 435 H 34.5394 -1.8063 -5.7227 0
M  V30 436 H 35.6094 -2.14288 -4.34981 0
M  V30 437 N 36.9525 1.47285 -0.560781 0
M  V30 438 C 38.1995 2.02464 -0.038062 0
M  V30 439 C 38.5275 1.43474 1.31322 0
M  V30 440 O 37.7825 0.581311 1.86867 0
M  V30 441 C 38.0815 3.57258 0.100784 0
M  V30 442 C 37.7475 4.35184 -1.18007 0
M  V30 443 C 36.4095 4.56194 -1.53103 0
M  V30 444 C 38.7615 4.80098 -2.02867 0
M  V30 445 C 36.0895 5.19367 -2.729 0
M  V30 446 C 38.4415 5.44593 -3.21871 0
M  V30 447 C 37.1055 5.63835 -3.57276 0
M  V30 448 H 36.3755 0.740869 -0.0139279 0
M  V30 449 H 39.0225 1.76916 -0.733012 0
M  V30 450 H 37.3275 3.81819 0.878724 0
M  V30 451 H 39.0245 3.97606 0.520639 0
M  V30 452 H 35.6145 4.19113 -0.8968 0
M  V30 453 H 39.7985 4.63642 -1.7706 0
M  V30 454 H 35.0545 5.32459 -3.00496 0
M  V30 455 H 39.2285 5.78358 -3.87911 0
M  V30 456 H 36.8555 6.12557 -4.50197 0
M  V30 457 N 38.4306 0.297415 1.54768 0
M  V30 458 C 39.6796 -0.313669 1.99246 0
M  V30 459 C 39.9926 -1.55281 1.18942 0
M  V30 460 O 41.1986 -2.23825 1.5367 0
M  V30 461 C 39.6546 -0.609407 3.54703 0
M  V30 462 C 39.2626 0.611192 4.43811 0
M  V30 463 C 41.0066 -1.18188 4.07715 0
M  V30 464 C 38.9136 0.288805 5.90694 0
M  V30 465 H 37.8436 -0.120979 0.744231 0
M  V30 466 H 40.4946 0.40556 1.78962 0
M  V30 467 H 38.8766 -1.38813 3.70873 0
M  V30 468 H 40.0506 1.3875 4.39414 0
M  V30 469 H 38.3656 1.10205 4.01552 0
M  V30 470 H 40.9626 -1.43727 5.15021 0
M  V30 471 H 41.3056 -2.12299 3.58099 0
M  V30 472 H 41.8386 -0.464944 3.95074 0
M  V30 473 H 38.5776 1.19838 6.44453 0
M  V30 474 H 38.0976 -0.450305 5.98107 0
M  V30 475 H 39.7766 -0.110933 6.46905 0
M  V30 476 N 39.9087 -1.5758 0.0250728 0
M  V30 477 C 41.3197 -1.79476 -0.514323 0
M  V30 478 C 41.6707 -0.934956 -1.72491 0
M  V30 479 O 40.7957 -0.144245 -2.15919 0
M  V30 480 C 41.3907 -3.25503 -0.939842 0
M  V30 481 C 39.9497 -3.48408 -1.42438 0
M  V30 482 C 39.0967 -2.74583 -0.387201 0
M  V30 483 H 42.0477 -1.567 0.25113 0
M  V30 484 H 42.0687 -3.34992 -1.80445 0
M  V30 485 H 41.5807 -3.88056 -0.0585628 0
M  V30 486 H 39.6817 -2.91103 -2.32572 0
M  V30 487 H 39.7947 -4.57119 -1.43455 0
M  V30 488 H 38.1587 -2.39942 -0.854409 0
M  V30 489 H 38.9417 -3.39849 0.485543 0
M  V30 490 N 41.3868 0.248026 -1.55636 0
M  V30 491 C 42.3338 1.30707 -1.90222 0
M  V30 492 C 43.3038 1.47881 -0.756332 0
M  V30 493 O 44.4888 1.61883 -1.00988 0
M  V30 494 C 41.6288 2.65769 -2.20138 0
M  V30 495 C 40.7418 2.56612 -3.47526 0
M  V30 496 C 39.8768 3.8402 -3.67017 0
M  V30 497 C 38.9158 3.69476 -4.8801 0
M  V30 498 N 38.0528 4.88774 -5.04029 0
M  V30 499 H 42.8928 1.00512 -2.80538 0
M  V30 500 H 40.4298 0.485055 -1.38873 0
M  V30 501 H 42.3878 3.44386 -2.35487 0
M  V30 502 H 41.0178 2.94115 -1.33027 0
M  V30 503 H 40.0698 1.69571 -3.40514 0
M  V30 504 H 41.3818 2.41774 -4.36287 0
M  V30 505 H 40.5358 4.7108 -3.8232 0
M  V30 506 H 39.2748 4.01754 -2.76487 0
M  V30 507 H 38.2798 2.80799 -4.72686 0
M  V30 508 H 39.5048 3.53238 -5.8 0
M  V30 509 H 37.4508 5.0687 -4.16435 0
M  V30 510 H 37.3678 4.76562 -5.86877 0
M  V30 511 H 38.6358 5.77335 -5.23741 0
M  V30 512 N 42.8649 1.48995 0.513639 0
M  V30 513 C 44.2809 1.35478 0.843682 0
M  V30 514 C 44.4809 0.378213 1.97919 0
M  V30 515 O 43.5369 -0.194689 2.51748 0
M  V30 516 C 44.8499 2.75901 1.1958 0
M  V30 517 C 46.3979 2.84509 1.30474 0
M  V30 518 C 46.8729 4.25671 1.69021 0
M  V30 519 N 48.3639 4.28422 1.76094 0
M  V30 520 C 49.0989 5.34601 2.07338 0
M  V30 521 N 48.5949 6.5104 2.36894 0
M  V30 522 N 50.3879 5.22007 2.08483 0
M  V30 523 H 42.5389 2.11092 -0.235328 0
M  V30 524 H 44.8019 0.947039 -0.0426669 0
M  V30 525 H 44.5079 3.49001 0.434913 0
M  V30 526 H 44.3819 3.10467 2.1422 0
M  V30 527 H 46.7689 2.11655 2.05637 0
M  V30 528 H 46.8499 2.53542 0.339155 0
M  V30 529 H 46.4939 4.99048 0.944135 0
M  V30 530 H 46.4239 4.54094 2.66658 0
M  V30 531 H 48.9149 3.44441 1.55464 0
M  V30 532 H 49.2279 7.2779 2.59887 0
M  V30 533 H 47.5729 6.54287 2.34378 0
M  V30 534 H 50.7639 4.30051 1.84861 0
M  V30 535 H 50.9369 6.04854 2.325 0
M  V30 536 N 44.343 -0.763751 1.37857 0
M  V30 537 C 45.759 -1.06542 1.18832 0
M  V30 538 C 45.959 -2.01478 0.0299722 0
M  V30 539 O 45.015 -2.4458 -0.627447 0
M  V30 540 C 46.328 -1.65525 2.51042 0
M  V30 541 C 47.876 -1.77745 2.57635 0
M  V30 542 C 48.351 -2.4014 3.89996 0
M  V30 543 N 49.842 -2.47582 3.91481 0
M  V30 544 C 50.577 -2.96732 4.9065 0
M  V30 545 N 50.073 -3.45993 6.00217 0
M  V30 546 N 51.866 -2.95679 4.78048 0
M  V30 547 H 44.017 -0.133556 2.1198 0
M  V30 548 H 46.28 -0.121879 0.940133 0
M  V30 549 H 45.986 -1.03236 3.36207 0
M  V30 550 H 45.86 -2.64719 2.68707 0
M  V30 551 H 48.247 -2.39164 1.72872 0
M  V30 552 H 48.328 -0.772836 2.43846 0
M  V30 553 H 47.972 -1.79358 4.75177 0
M  V30 554 H 47.902 -3.41223 4.01092 0
M  V30 555 H 50.393 -2.1273 3.12337 0
M  V30 556 H 50.706 -3.81922 6.7183 0
M  V30 557 H 49.051 -3.44077 6.03851 0
M  V30 558 H 52.242 -2.56499 3.91568 0
M  V30 559 H 52.415 -3.33672 5.55488 0
M  V30 560 N 45.8211 -1.22559 -0.990812 0
M  V30 561 C 46.7681 -0.997519 -2.0813 0
M  V30 562 C 47.7381 0.0814702 -1.659 0
M  V30 563 O 48.9231 -0.0685424 -1.90677 0
M  V30 564 C 46.0631 -0.583615 -3.40129 0
M  V30 565 C 45.1761 -1.7336 -3.9569 0
M  V30 566 C 44.3111 -1.26748 -5.15857 0
M  V30 567 C 43.3501 -2.38888 -5.63559 0
M  V30 568 N 42.4871 -1.93308 -6.74964 0
M  V30 569 H 47.3271 -1.93099 -2.26973 0
M  V30 570 H 44.8641 -0.962114 -1.11273 0
M  V30 571 H 46.8221 -0.324801 -4.15934 0
M  V30 572 H 45.4521 0.312845 -3.2128 0
M  V30 573 H 44.5041 -2.10669 -3.16738 0
M  V30 574 H 45.8161 -2.57704 -4.27071 0
M  V30 575 H 44.9701 -0.966173 -5.98957 0
M  V30 576 H 43.7091 -0.394272 -4.86104 0
M  V30 577 H 42.7141 -2.69805 -4.79046 0
M  V30 578 H 43.9391 -3.26728 -5.95336 0
M  V30 579 H 41.8851 -1.08352 -6.4699 0
M  V30 580 H 41.8021 -2.71217 -7.05675 0
M  V30 581 H 43.0701 -1.66252 -7.61564 0
M  V30 582 N 47.2992 1.18797 -1.03562 0
M  V30 583 C 48.5242 1.9314 -0.755764 0
M  V30 584 C 48.9492 1.7537 0.68022 0
M  V30 585 O 48.3072 1.06046 1.47051 0
M  V30 586 C 48.3552 3.42747 -1.12058 0
M  V30 587 O 47.4592 4.11683 -0.243124 0
M  V30 588 H 46.8002 0.602724 -0.278604 0
M  V30 589 H 49.3302 1.50678 -1.3841 0
M  V30 590 H 49.3402 3.93437 -1.08035 0
M  V30 591 H 48.0152 3.55002 -2.16672 0
M  V30 592 H 46.5922 3.71323 -0.342539 0
M  V30 593 N 48.7773 0.814389 1.34928 0
M  V30 594 C 50.0233 0.399013 1.98836 0
M  V30 595 C 50.3563 -1.03314 1.64438 0
M  V30 596 O 49.6313 -1.71811 0.911659 0
M  V30 597 C 49.9143 0.591629 3.55207 0
M  V30 598 C 49.7673 2.06928 3.99376 0
M  V30 599 C 51.0863 0.022199 4.40094 0
M  V30 600 H 48.2053 0.146451 0.722303 0
M  V30 601 H 50.8473 1.02537 1.59957 0
M  V30 602 H 48.9973 0.0584441 3.88456 0
M  V30 603 H 50.6693 2.66544 3.76499 0
M  V30 604 H 48.9123 2.56287 3.49999 0
M  V30 605 H 49.5833 2.1549 5.08201 0
M  V30 606 H 52.0593 0.477643 4.13349 0
M  V30 607 H 50.9353 0.186832 5.48582 0
M  V30 608 H 51.1963 -1.07215 4.28902 0
M  V30 609 N 50.2554 -1.46986 0.568584 0
M  V30 610 C 51.4834 -2.0683 0.0539956 0
M  V30 611 C 51.8984 -1.41953 -1.24478 0
M  V30 612 O 51.2554 -0.519933 -1.74937 0
M  V30 613 C 51.3064 -3.61254 -0.133362 0
M  V30 614 O 51.0274 -4.237 1.11399 0
M  V30 615 C 52.5284 -4.37992 -0.683927 0
M  V30 616 H 49.7484 -0.669058 0.0510141 0
M  V30 617 H 52.2924 -1.88824 0.785234 0
M  V30 618 H 50.4474 -3.78735 -0.81477 0
M  V30 619 H 50.8614 -5.16388 0.91888 0
M  V30 620 H 52.3354 -5.46684 -0.764263 0
M  V30 621 H 52.8124 -4.05058 -1.69778 0
M  V30 622 H 53.4184 -4.25283 -0.0378494 0
M  V30 623 N 51.7335 -0.305618 -1.54608 0
M  V30 624 C 52.9815 0.301701 -1.99835 0
M  V30 625 C 53.3025 1.54054 -1.19551 0
M  V30 626 O 52.5725 1.93702 -0.292658 0
M  V30 627 H 51.1525 0.114468 -0.738178 0
M  V30 628 H 53.8145 -0.418016 -1.90364 0
M  V30 629 H 52.9105 0.570548 -3.06841 0
M  V30 630 N 53.2116 1.57565 -0.0334293 0
M  V30 631 C 54.1216 2.13943 0.962572 0
M  V30 632 C 55.1376 1.09276 1.35406 0
M  V30 633 O 56.3136 1.41355 1.4346 0
M  V30 634 C 53.3786 2.65887 2.22497 0
M  V30 635 C 52.4396 3.85286 1.8935 0
M  V30 636 C 51.6726 4.34743 3.09571 0
M  V30 637 O 51.8956 3.83352 4.22371 0
M  V30 638 O 50.8296 5.26538 2.91618 0
M  V30 639 H 54.6556 2.99333 0.513169 0
M  V30 640 H 52.2406 1.4822 0.18743 0
M  V30 641 H 54.1226 2.99346 2.96598 0
M  V30 642 H 52.7976 1.83578 2.6661 0
M  V30 643 H 51.7046 3.56746 1.1262 0
M  V30 644 H 53.0376 4.68771 1.5005 0
M  V30 645 N 54.6897 -0.239769 1.55765 0
M  V30 646 C 55.9387 -0.964754 1.77131 0
M  V30 647 C 56.2517 -1.86213 0.59868 0
M  V30 648 O 57.4577 -2.6244 0.695522 0
M  V30 649 C 55.9137 -1.76552 3.1362 0
M  V30 650 C 55.5217 -0.915185 4.38553 0
M  V30 651 C 57.2657 -2.48281 3.44321 0
M  V30 652 C 55.1727 -1.71225 5.66071 0
M  V30 653 H 54.1027 -0.363953 0.660344 0
M  V30 654 H 56.7537 -0.219181 1.82186 0
M  V30 655 H 55.1357 -2.55331 3.02691 0
M  V30 656 H 56.3097 -0.169217 4.60489 0
M  V30 657 H 54.6247 -0.310889 4.15238 0
M  V30 658 H 57.2217 -3.08382 4.36812 0
M  V30 659 H 57.5647 -3.20256 2.65973 0
M  V30 660 H 58.0977 -1.76507 3.56497 0
M  V30 661 H 54.8367 -1.03612 6.4726 0
M  V30 662 H 54.3567 -2.43331 5.48224 0
M  V30 663 H 56.0357 -2.27758 6.05587 0
M  V30 664 N 56.1678 -1.49265 -0.50573 0
M  V30 665 C 57.4138 -1.58748 -1.26202 0
M  V30 666 C 57.7468 -0.271227 -1.92297 0
M  V30 667 O 57.0218 0.724831 -1.80489 0
M  V30 668 C 57.3048 -2.74332 -2.33268 0
M  V30 669 C 57.1578 -4.15737 -1.71705 0
M  V30 670 C 58.4768 -2.85576 -3.34865 0
M  V30 671 H 55.5958 -0.577826 -0.457478 0
M  V30 672 H 58.2378 -1.81532 -0.560897 0
M  V30 673 H 56.3878 -2.55036 -2.93068 0
M  V30 674 H 58.0598 -4.46537 -1.15769 0
M  V30 675 H 56.3028 -4.21605 -1.02135 0
M  V30 676 H 56.9738 -4.92477 -2.49341 0
M  V30 677 H 59.4498 -3.03127 -2.8505 0
M  V30 678 H 58.3258 -3.68135 -4.07146 0
M  V30 679 H 58.5868 -1.94732 -3.96903 0
M  V30 680 N 57.6459 0.756429 -1.3826 0
M  V30 681 C 58.5759 1.88374 -1.37976 0
M  V30 682 C 59.5569 1.68311 -0.246082 0
M  V30 683 O 60.7419 1.88944 -0.44874 0
M  V30 684 C 57.8719 3.25864 -1.20125 0
M  V30 685 C 56.8259 3.60523 -2.30666 0
M  V30 686 C 56.1519 4.9672 -1.97923 0
M  V30 687 C 57.4519 3.65692 -3.72916 0
M  V30 688 H 59.1459 1.88869 -2.32312 0
M  V30 689 H 56.6919 0.907272 -1.11824 0
M  V30 690 H 58.6449 4.0438 -1.18552 0
M  V30 691 H 57.3689 3.25841 -0.222498 0
M  V30 692 H 56.0279 2.84324 -2.3142 0
M  V30 693 H 55.6759 4.93253 -0.985393 0
M  V30 694 H 55.3759 5.20878 -2.71955 0
M  V30 695 H 56.8999 5.77618 -1.97964 0
M  V30 696 H 58.3139 4.34328 -3.74208 0
M  V30 697 H 56.7109 4.01358 -4.4613 0
M  V30 698 H 57.7809 2.65987 -4.05436 0
M  V30 699 N 59.124 1.23083 0.984299 0
M  V30 700 C 60.373 1.05466 1.71929 0
M  V30 701 C 60.686 -0.409211 1.91272 0
M  V30 702 O 61.892 -0.705226 2.62181 0
M  V30 703 C 60.348 1.83874 3.09384 0
M  V30 704 C 59.956 3.34566 2.97943 0
M  V30 705 C 61.7 1.74734 3.8687 0
M  V30 706 C 59.607 4.05381 4.30605 0
M  V30 707 H 58.537 0.391039 0.644674 0
M  V30 708 H 61.188 1.47013 1.09815 0
M  V30 709 H 59.57 1.35131 3.72231 0
M  V30 710 H 60.744 3.90767 2.44209 0
M  V30 711 H 59.059 3.44476 2.33934 0
M  V30 712 H 61.656 2.24957 4.85076 0
M  V30 713 H 61.999 0.709372 4.10212 0
M  V30 714 H 62.532 2.21067 3.30717 0
M  V30 715 H 59.271 5.09467 4.1246 0
M  V30 716 H 58.791 3.53967 4.84218 0
M  V30 717 H 60.47 4.11458 4.99311 0
M  V30 718 N 60.6021 -1.18246 1.0419 0
M  V30 719 C 61.8301 -1.92195 0.766072 0
M  V30 720 C 62.2451 -1.76247 -0.676933 0
M  V30 721 O 61.6021 -1.09293 -1.46155 0
M  V30 722 C 61.6531 -3.43568 1.12442 0
M  V30 723 O 61.3741 -3.59015 2.51078 0
M  V30 724 C 62.8751 -4.34613 0.873275 0
M  V30 725 H 60.0951 -0.610114 0.279288 0
M  V30 726 H 62.6391 -1.50007 1.38989 0
M  V30 727 H 60.7941 -3.8354 0.545542 0
M  V30 728 H 61.2081 -4.5273 2.64831 0
M  V30 729 H 62.6821 -5.39374 1.17385 0
M  V30 730 H 63.1591 -4.38781 -0.191909 0
M  V30 731 H 63.7651 -4.00341 1.43551 0
M  V30 732 N 62.0802 -0.821533 -1.34494 0
M  V30 733 C 63.3282 -0.408139 -1.97936 0
M  V30 734 C 63.6492 1.03193 -1.65457 0
M  V30 735 O 62.9192 1.71622 -0.944595 0
M  V30 736 H 61.4992 -0.147928 -0.732206 0
M  V30 737 H 64.1612 -1.05067 -1.64155 0
M  V30 738 H 63.2572 -0.52601 -3.07635 0
M  V30 739 N 63.5583 1.46682 -0.576371 0
M  V30 740 C 64.5213 2.28707 0.150239 0
M  V30 741 C 65.5213 1.38035 0.824794 0
M  V30 742 O 66.7113 1.60476 0.677719 0
M  V30 743 C 63.8433 3.18248 1.22192 0
M  V30 744 H 65.0363 2.94423 -0.570521 0
M  V30 745 H 62.5893 1.52688 -0.334078 0
M  V30 746 H 63.3243 2.57265 1.97447 0
M  V30 747 H 63.1093 3.85 0.742812 0
M  V30 748 H 64.5993 3.80001 1.73172 0
M  V30 749 N 65.0364 0.313813 1.54444 0
M  V30 750 C 66.2844 -0.291099 1.99993 0
M  V30 751 C 66.6054 -1.53418 1.20366 0
M  V30 752 O 65.8754 -1.93544 0.302927 0
M  V30 753 H 64.4554 -0.110552 0.738774 0
M  V30 754 H 67.1174 0.428106 1.9014 0
M  V30 755 H 66.2134 -0.554268 3.07139 0
M  V30 756 N 66.5145 -1.57545 0.0417849 0
M  V30 757 C 67.4645 -2.07483 -0.945247 0
M  V30 758 C 68.4485 -0.977983 -1.27767 0
M  V30 759 O 69.6405 -1.24142 -1.26166 0
M  V30 760 C 66.7695 -2.61576 -2.22335 0
M  V30 761 C 65.8555 -3.78213 -1.91874 0
M  V30 762 N 66.2465 -4.88344 -1.31733 0
M  V30 763 C 64.5445 -3.8694 -2.21796 0
M  V30 764 C 65.2455 -5.69462 -1.1869 0
M  V30 765 N 64.2215 -5.16771 -1.68666 0
M  V30 766 H 68.0235 -2.90029 -0.475441 0
M  V30 767 H 65.5375 -1.61581 -0.162911 0
M  V30 768 H 67.5345 -2.95651 -2.93932 0
M  V30 769 H 66.1945 -1.80465 -2.69931 0
M  V30 770 H 67.2055 -5.08335 -0.990729 0
M  V30 771 H 63.8825 -3.16757 -2.71977 0
M  V30 772 H 65.2725 -6.68023 -0.720793 0
M  V30 773 N 67.9926 0.231505 -1.5589 0
M  V30 774 C 69.2406 0.955461 -1.78088 0
M  V30 775 C 69.5616 1.85262 -0.608533 0
M  V30 776 O 68.8316 1.92277 0.375035 0
M  V30 777 H 67.4116 0.355787 -0.656829 0
M  V30 778 H 70.0736 0.245751 -1.93344 0
M  V30 779 H 69.1696 1.56814 -2.69844 0
M  V30 780 N 69.4707 1.49531 0.497807 0
M  V30 781 C 70.7197 1.58426 1.24837 0
M  V30 782 C 71.0327 0.277643 1.93619 0
M  V30 783 O 72.2387 0.24517 2.70391 0
M  V30 784 C 70.6947 2.79538 2.26686 0
M  V30 785 C 70.3027 4.16971 1.63828 0
M  V30 786 C 72.0467 2.97764 3.0255 0
M  V30 787 C 69.9537 5.29301 2.63807 0
M  V30 788 H 68.8837 0.58989 0.469623 0
M  V30 789 H 71.5347 1.75923 0.521857 0
M  V30 790 H 69.9167 2.55542 3.02514 0
M  V30 791 H 71.0907 4.51116 0.939711 0
M  V30 792 H 69.4057 4.04129 1.00342 0
M  V30 793 H 72.0027 3.78856 3.77323 0
M  V30 794 H 72.3457 2.08448 3.60354 0
M  V30 795 H 72.8787 3.21815 2.33838 0
M  V30 796 H 69.6177 6.20687 2.10779 0
M  V30 797 H 69.1377 4.99606 3.31894 0
M  V30 798 H 70.8167 5.58768 3.2617 0
M  V30 799 N 70.9488 -0.749086 1.3866 0
M  V30 800 C 72.1968 -1.50535 1.34847 0
M  V30 801 C 72.5178 -1.94909 -0.0595016 0
M  V30 802 O 71.7878 -1.67973 -1.00806 0
M  V30 803 H 70.3678 -0.558395 0.49619 0
M  V30 804 H 73.0298 -0.890165 1.73384 0
M  V30 805 H 72.1258 -2.39413 2.00219 0
M  V30 806 N 72.4269 -1.23603 -0.977757 0
M  V30 807 C 73.8429 -0.999251 -1.24447 0
M  V30 808 C 74.0429 0.298053 -1.99283 0
M  V30 809 O 73.0989 1.01681 -2.31122 0
M  V30 810 C 74.4119 -2.20784 -2.04144 0
M  V30 811 C 75.9599 -2.25303 -2.17273 0
M  V30 812 C 76.4349 -3.45755 -3.00362 0
M  V30 813 N 77.9259 -3.4601 -3.07947 0
M  V30 814 C 78.6609 -4.35868 -3.72568 0
M  V30 815 N 78.1569 -5.35966 -4.38991 0
M  V30 816 N 79.9499 -4.23605 -3.6948 0
M  V30 817 H 72.1009 -2.06986 -0.476483 0
M  V30 818 H 74.3639 -0.907801 -0.273134 0
M  V30 819 H 74.0699 -3.14945 -1.56533 0
M  V30 820 H 73.9439 -2.22085 -3.04891 0
M  V30 821 H 76.3309 -1.3168 -2.64092 0
M  V30 822 H 76.4119 -2.28033 -1.15907 0
M  V30 823 H 76.0559 -4.39687 -2.5424 0
M  V30 824 H 75.9859 -3.40266 -4.01904 0
M  V30 825 H 78.4769 -2.73588 -2.60688 0
M  V30 826 H 78.7899 -6.00783 -4.86086 0
M  V30 827 H 77.1349 -5.39863 -4.37691 0
M  V30 828 H 80.3259 -3.44647 -3.16759 0
M  V30 829 H 80.4989 -4.93836 -4.1956 0
M  V30 830 N 73.905 1.17692 -1.04816 0
M  V30 831 C 74.835 2.23777 -0.666791 0
M  V30 832 C 75.816 1.66796 0.33361 0
M  V30 833 O 77.001 1.93039 0.212042 0
M  V30 834 C 74.131 3.47281 -0.0367933 0
M  V30 835 C 73.085 4.17059 -0.961546 0
M  V30 836 C 72.411 5.34342 -0.195626 0
M  V30 837 C 73.711 4.69713 -2.28402 0
M  V30 838 H 75.405 2.55933 -1.55367 0
M  V30 839 H 72.951 1.23019 -0.748484 0
M  V30 840 H 74.904 4.20706 0.241775 0
M  V30 841 H 73.628 3.14381 0.885004 0
M  V30 842 H 72.287 3.45541 -1.22462 0
M  V30 843 H 71.935 4.97692 0.728816 0
M  V30 844 H 71.635 5.81966 -0.811775 0
M  V30 845 H 73.159 6.10553 0.0757473 0
M  V30 846 H 74.573 5.34794 -2.06563 0
M  V30 847 H 72.97 5.279 -2.8538 0
M  V30 848 H 74.04 3.86726 -2.92525 0
M  V30 849 N 75.3831 0.828654 1.34056 0
M  V30 850 C 76.6111 0.43262 2.02326 0
M  V30 851 C 77.0261 -0.963147 1.62385 0
M  V30 852 O 76.3831 -1.62425 0.832121 0
M  V30 853 C 76.4341 0.53182 3.57567 0
M  V30 854 O 76.1551 1.87258 3.96063 0
M  V30 855 C 77.6561 0.131422 4.43105 0
M  V30 856 H 74.8761 0.172923 0.648335 0
M  V30 857 H 77.4201 1.1184 1.71208 0
M  V30 858 H 75.5751 -0.105938 3.87255 0
M  V30 859 H 75.9891 1.85087 4.90758 0
M  V30 860 H 77.4631 0.251904 5.51425 0
M  V30 861 H 77.9401 -0.925645 4.29335 0
M  V30 862 H 78.5461 0.743207 4.18756 0
M  V30 863 N 76.8612 -1.46375 0.584142 0
M  V30 864 C 77.8242 -2.28784 -0.138108 0
M  V30 865 C 78.8242 -1.38471 -0.817462 0
M  V30 866 O 80.0142 -1.60833 -0.669199 0
M  V30 867 C 77.1462 -3.18892 -1.20503 0
M  V30 868 H 78.3392 -2.94117 0.586127 0
M  V30 869 H 75.8922 -1.52509 0.342171 0
M  V30 870 H 76.6272 -2.58309 -1.96079 0
M  V30 871 H 76.4122 -3.85388 -0.722384 0
M  V30 872 H 77.9022 -3.80914 -1.71155 0
M  V30 873 N 78.3393 -0.321999 -1.54275 0
M  V30 874 C 79.5693 0.282642 -2.04658 0
M  V30 875 C 79.9773 1.46453 -1.19784 0
M  V30 876 O 79.3203 1.82367 -0.220932 0
M  V30 877 C 79.3823 0.781857 -3.50895 0
M  V30 878 C 79.0463 -0.277517 -4.56157 0
M  V30 879 C 80.0433 -1.11307 -5.07845 0
M  V30 880 C 77.7283 -0.425256 -5.00497 0
M  V30 881 C 79.7223 -2.08211 -6.02434 0
M  V30 882 C 77.4093 -1.39771 -5.94901 0
M  V30 883 C 78.4073 -2.2246 -6.45756 0
M  V30 884 O 78.0953 -3.18054 -7.38307 0
M  V30 885 H 77.8273 0.0622636 -0.673126 0
M  V30 886 H 80.3813 -0.465792 -2.00049 0
M  V30 887 H 78.6113 1.58118 -3.52896 0
M  V30 888 H 80.3003 1.30467 -3.84361 0
M  V30 889 H 81.0663 -1.00991 -4.74369 0
M  V30 890 H 76.9453 0.20847 -4.60528 0
M  V30 891 H 80.4893 -2.72791 -6.42052 0
M  V30 892 H 76.3863 -1.50152 -6.27794 0
M  V30 893 H 77.1543 -3.13275 -7.56175 0
M  V30 894 N 79.8174 1.5752 -0.0501392 0
M  V30 895 C 80.7274 2.14952 0.939827 0
M  V30 896 C 81.7434 1.10706 1.34239 0
M  V30 897 O 82.9194 1.42869 1.41952 0
M  V30 898 C 79.9844 2.68232 2.19665 0
M  V30 899 C 79.0454 3.87272 1.85253 0
M  V30 900 C 78.2784 4.38002 3.04943 0
M  V30 901 O 78.5014 3.87811 4.18281 0
M  V30 902 O 77.4354 5.29602 2.86017 0
M  V30 903 H 81.2614 2.9986 0.481392 0
M  V30 904 H 78.8464 1.4841 0.171699 0
M  V30 905 H 80.7284 3.02475 2.93406 0
M  V30 906 H 79.4034 1.86395 2.64648 0
M  V30 907 H 78.3104 3.5792 1.0883 0
M  V30 908 H 79.6434 4.70336 1.4507 0
M  V30 909 N 81.2955 -0.223234 1.56011 0
M  V30 910 C 82.5425 -0.947875 1.78946 0
M  V30 911 C 82.8705 -1.844 0.618608 0
M  V30 912 O 82.1255 -1.91629 -0.397093 0
M  V30 913 C 82.4245 -1.81948 3.0762 0
M  V30 914 C 82.0905 -1.07672 4.37856 0
M  V30 915 C 80.7525 -0.871544 4.73242 0
M  V30 916 C 83.1045 -0.552081 5.18268 0
M  V30 917 C 80.4325 -0.129791 5.86556 0
M  V30 918 C 82.7845 0.17632 6.32354 0
M  V30 919 C 81.4485 0.39277 6.66343 0
M  V30 920 H 80.7185 -0.346852 0.654809 0
M  V30 921 H 83.3655 -0.216171 1.90276 0
M  V30 922 H 81.6705 -2.61899 2.91404 0
M  V30 923 H 83.3675 -2.38227 3.22566 0
M  V30 924 H 79.9575 -1.24662 4.1007 0
M  V30 925 H 84.1415 -0.698076 4.91366 0
M  V30 926 H 79.3975 0.048153 6.11381 0
M  V30 927 H 83.5715 0.590367 6.93893 0
M  V30 928 H 81.1985 0.969466 7.53993 0
M  V30 929 N 82.7736 -1.49793 -0.48987 0
M  V30 930 C 83.7366 -1.66752 -1.57246 0
M  V30 931 C 84.7366 -0.538867 -1.51502 0
M  V30 932 O 85.9266 -0.805545 -1.54456 0
M  V30 933 C 83.0586 -1.67528 -2.96896 0
M  V30 934 H 84.2516 -2.63321 -1.43534 0
M  V30 935 H 81.8046 -1.38992 -0.714914 0
M  V30 936 H 82.5396 -0.725837 -3.16073 0
M  V30 937 H 82.3246 -2.49504 -3.02473 0
M  V30 938 H 83.8146 -1.82667 -3.7553 0
M  V30 939 N 84.2517 0.741722 -1.39055 0
M  V30 940 C 85.1987 1.85566 -1.37237 0
M  V30 941 C 86.1687 1.64457 -0.233072 0
M  V30 942 O 87.3537 1.85957 -0.427147 0
M  V30 943 C 84.4937 3.23004 -1.215 0
M  V30 944 C 83.6067 3.55864 -2.44918 0
M  V30 945 C 82.7417 4.82669 -2.21821 0
M  V30 946 C 81.7807 5.08351 -3.40948 0
M  V30 947 N 80.9177 6.26356 -3.17211 0
M  V30 948 H 85.7577 1.86455 -2.32462 0
M  V30 949 H 83.2947 0.911176 -1.15482 0
M  V30 950 H 85.2527 4.02331 -1.10389 0
M  V30 951 H 83.8827 3.21411 -0.29908 0
M  V30 952 H 82.9347 2.7129 -2.66657 0
M  V30 953 H 84.2467 3.70765 -3.33668 0
M  V30 954 H 83.4007 5.69962 -2.07914 0
M  V30 955 H 82.1397 4.69929 -1.30454 0
M  V30 956 H 81.1447 4.19522 -3.55361 0
M  V30 957 H 82.3697 5.22981 -4.33207 0
M  V30 958 H 80.3157 6.14917 -2.28502 0
M  V30 959 H 80.2327 6.41813 -3.99515 0
M  V30 960 H 81.5007 7.16506 -3.06984 0
M  V30 961 N 85.7298 1.2412 0.971189 0
M  V30 962 C 86.6598 1.05508 2.08304 0
M  V30 963 C 87.6408 -0.0308864 1.70072 0
M  V30 964 O 88.8258 0.135521 1.93727 0
M  V30 965 C 85.9558 0.655365 3.4106 0
M  V30 966 C 84.9098 1.68971 3.93234 0
M  V30 967 C 84.2358 1.14516 5.22293 0
M  V30 968 C 85.5358 3.08487 4.21465 0
M  V30 969 H 87.2298 1.98507 2.24132 0
M  V30 970 H 84.7758 0.955821 1.07704 0
M  V30 971 H 86.7288 0.51217 4.18276 0
M  V30 972 H 85.4528 -0.31032 3.25122 0
M  V30 973 H 84.1118 1.82106 3.18171 0
M  V30 974 H 83.7598 0.170189 5.02712 0
M  V30 975 H 83.4598 1.83635 5.58168 0
M  V30 976 H 84.9838 1.01401 6.02121 0
M  V30 977 H 86.3978 2.98601 4.89398 0
M  V30 978 H 84.7948 3.74926 4.68562 0
M  V30 979 H 85.8648 3.56787 3.28376 0
M  V30 980 N 87.2079 -1.17134 1.05439 0
M  V30 981 C 88.1549 -2.21235 0.657539 0
M  V30 982 C 89.1249 -1.62551 -0.341543 0
M  V30 983 O 90.3099 -1.89379 -0.232393 0
M  V30 984 C 87.4499 -3.45076 0.0410575 0
M  V30 985 C 86.5629 -4.18042 1.08927 0
M  V30 986 C 85.6979 -5.29376 0.439848 0
M  V30 987 C 84.7369 -5.94132 1.4722 0
M  V30 988 N 83.8739 -6.96975 0.846756 0
M  V30 989 H 88.7139 -2.54534 1.54972 0
M  V30 990 H 86.2509 -1.25028 0.775006 0
M  V30 991 H 88.2089 -4.15862 -0.33383 0
M  V30 992 H 86.8389 -3.12353 -0.814568 0
M  V30 993 H 85.8909 -3.45945 1.58196 0
M  V30 994 H 87.2029 -4.62306 1.87282 0
M  V30 995 H 86.3569 -6.06699 0.0115125 0
M  V30 996 H 85.0959 -4.86251 -0.375656 0
M  V30 997 H 84.1009 -5.15538 1.91052 0
M  V30 998 H 85.3259 -6.39337 2.28965 0
M  V30 999 H 83.2719 -6.5598 0.0518075 0
M  V30 1000 H 83.1889 -7.39565 1.5678 0
M  V30 1001 H 84.4569 -7.78239 0.443277 0
M  V30 1002 N 88.686 -0.835752 -1.33615 0
M  V30 1003 C 89.911 -0.442389 -2.02627 0
M  V30 1004 C 90.336 0.947735 -1.62479 0
M  V30 1005 O 89.694 1.61907 -0.815826 0
M  V30 1006 C 89.742 -0.567216 -3.56111 0
M  V30 1007 O 88.846 0.407799 -4.10379 0
M  V30 1008 H 88.187 -0.180278 -0.639059 0
M  V30 1009 H 90.717 -1.12972 -1.70583 0
M  V30 1010 H 90.727 -0.447708 -4.05536 0
M  V30 1011 H 89.402 -1.58103 -3.84677 0
M  V30 1012 H 87.979 0.246107 -3.72087 0
M  V30 1013 N 90.1641 1.46063 -0.591896 0
M  V30 1014 C 91.1111 2.30399 0.136069 0
M  V30 1015 C 92.0811 1.41169 0.875238 0
M  V30 1016 O 93.2661 1.70112 0.86409 0
M  V30 1017 C 90.4061 3.25804 1.13781 0
M  V30 1018 C 89.5191 4.30134 0.401137 0
M  V30 1019 C 88.6541 5.12659 1.39121 0
M  V30 1020 C 87.6931 6.0873 0.641462 0
M  V30 1021 N 86.8301 6.8409 1.58004 0
M  V30 1022 H 91.6701 2.92118 -0.589144 0
M  V30 1023 H 89.2071 1.43959 -0.302342 0
M  V30 1024 H 91.1651 3.79569 1.73156 0
M  V30 1025 H 89.7951 2.65872 1.83062 0
M  V30 1026 H 88.8471 3.79152 -0.307826 0
M  V30 1027 H 90.1591 4.98458 -0.184565 0
M  V30 1028 H 89.3131 5.70747 2.05749 0
M  V30 1029 H 88.0521 4.44316 2.01084 0
M  V30 1030 H 87.0571 5.49786 -0.0385419 0
M  V30 1031 H 88.2821 6.79095 0.0270945 0
M  V30 1032 H 86.2281 6.18449 2.18761 0
M  V30 1033 H 86.1451 7.48709 1.04738 0
M  V30 1034 H 87.4131 7.4673 2.23639 0
M  V30 1035 N 91.6422 0.330177 1.54103 0
M  V30 1036 C 92.5722 -0.525353 2.27513 0
M  V30 1037 C 93.5532 -1.11383 1.2856 0
M  V30 1038 O 94.7382 -1.13773 1.57383 0
M  V30 1039 C 91.8682 -1.6831 3.03791 0
M  V30 1040 C 90.8222 -1.2236 4.10137 0
M  V30 1041 C 90.1482 -2.46882 4.74293 0
M  V30 1042 C 91.4482 -0.333697 5.21233 0
M  V30 1043 H 93.1422 0.087013 2.99274 0
M  V30 1044 H 90.6882 0.0432893 1.43935 0
M  V30 1045 H 92.6412 -2.28795 3.5388 0
M  V30 1046 H 91.3652 -2.32216 2.29659 0
M  V30 1047 H 90.0242 -0.64165 3.60941 0
M  V30 1048 H 89.6722 -3.09165 3.96769 0
M  V30 1049 H 89.3722 -2.16825 5.46133 0
M  V30 1050 H 90.8962 -3.08117 5.27159 0
M  V30 1051 H 92.3102 -0.845013 5.67038 0
M  V30 1052 H 90.7072 -0.125612 5.99969 0
M  V30 1053 H 91.7772 0.633724 4.80741 0
M  V30 1054 N 93.1203 -1.57491 0.0584922 0
M  V30 1055 C 94.3663 -1.93264 -0.614558 0
M  V30 1056 C 94.6993 -0.937717 -1.7006 0
M  V30 1057 O 93.9743 0.0351652 -1.94468 0
M  V30 1058 C 94.2573 -3.3938 -1.20386 0
M  V30 1059 C 94.1103 -4.49625 -0.125375 0
M  V30 1060 C 95.4293 -3.86039 -2.11334 0
M  V30 1061 H 92.5483 -0.702791 -0.221933 0
M  V30 1062 H 95.1903 -1.8961 0.12175 0
M  V30 1063 H 93.3403 -3.42626 -1.83139 0
M  V30 1064 H 95.0123 -4.58506 0.506971 0
M  V30 1065 H 93.2553 -4.30354 0.545672 0
M  V30 1066 H 93.9263 -5.48967 -0.577861 0
M  V30 1067 H 96.4023 -3.84716 -1.58534 0
M  V30 1068 H 95.2783 -4.88914 -2.49507 0
M  V30 1069 H 95.5393 -3.23215 -3.01636 0
M  V30 1070 N 94.5984 0.214957 -1.56127 0
M  V30 1071 C 95.5284 1.2695 -1.95974 0
M  V30 1072 C 96.5094 1.48539 -0.828868 0
M  V30 1073 O 97.6944 1.60611 -1.09168 0
M  V30 1074 C 94.8244 2.61794 -2.28214 0
M  V30 1075 C 93.7784 2.54851 -3.43853 0
M  V30 1076 C 93.1044 3.93785 -3.61715 0
M  V30 1077 C 94.4044 2.09065 -4.78632 0
M  V30 1078 H 96.0984 0.93846 -2.84312 0
M  V30 1079 H 93.6444 0.449996 -1.36788 0
M  V30 1080 H 95.5974 3.35731 -2.54682 0
M  V30 1081 H 94.3214 2.96599 -1.36736 0
M  V30 1082 H 92.9804 1.8337 -3.17444 0
M  V30 1083 H 92.6284 4.25908 -2.67602 0
M  V30 1084 H 92.3284 3.90019 -4.39498 0
M  V30 1085 H 93.8524 4.69374 -3.90539 0
M  V30 1086 H 95.2664 2.7275 -5.04262 0
M  V30 1087 H 93.6634 2.16346 -5.59745 0
M  V30 1088 H 94.7334 1.04315 -4.73547 0
M  V30 1089 N 96.0765 1.50051 0.48192 0
M  V30 1090 C 97.3225 1.61706 1.2338 0
M  V30 1091 C 97.6775 0.308488 1.89911 0
M  V30 1092 O 96.9705 -0.692798 1.78636 0
M  V30 1093 C 97.1645 2.72717 2.30998 0
M  V30 1094 C 96.9935 4.14242 1.75024 0
M  V30 1095 C 95.7635 4.80786 1.55476 0
M  V30 1096 C 97.9615 4.98846 1.25128 0
M  V30 1097 N 95.9435 6.06563 0.946311 0
M  V30 1098 C 97.3145 6.15258 0.765382 0
M  V30 1099 C 99.3695 4.84702 1.13881 0
M  V30 1100 C 98.0725 7.19079 0.178113 0
M  V30 1101 C 100.098 5.8869 0.565486 0
M  V30 1102 C 99.4605 7.04343 0.0899105 0
M  V30 1103 H 95.5595 0.645958 0.440753 0
M  V30 1104 H 98.1435 1.8713 0.537624 0
M  V30 1105 H 96.3145 2.49033 2.98055 0
M  V30 1106 H 98.0465 2.73789 2.9803 0
M  V30 1107 H 94.8015 4.37899 1.80392 0
M  V30 1108 H 95.2255 6.73767 0.660812 0
M  V30 1109 H 99.8675 3.95583 1.49244 0
M  V30 1110 H 97.5855 8.07882 -0.187749 0
M  V30 1111 H 101.171 5.79808 0.480974 0
M  V30 1112 H 100.051 7.83433 -0.346782 0
M  V30 1113 N 97.5546 -0.734337 1.39446 0
M  V30 1114 C 98.8316 -1.48579 1.27215 0
M  V30 1115 C 99.2116 -2.1077 -0.117968 0
M  V30 1116 O 98.5596 -1.98646 -1.12924 0
M  V30 1117 C 98.7696 -2.53667 2.39696 0
M  V30 1118 C 100.118 -3.20031 2.79044 0
M  V30 1119 O 101.142 -2.6398 2.39151 0
M  V30 1120 O 100.001 -4.21455 3.47905 0
M  V30 1121 H 97.0946 -0.659816 0.49857 0
M  V30 1122 H 99.6406 -0.768106 1.51322 0
M  V30 1123 H 98.4126 -2.06096 3.32626 0
M  V30 1124 H 98.0356 -3.32994 2.17258 0
M  V30 1125 N 99.0327 -1.24633 -0.964593 0
M  V30 1126 C 100.282 -1.08188 -1.7023 0
M  V30 1127 C 100.595 0.37873 -1.91898 0
M  V30 1128 O 101.801 0.663427 -2.6327 0
M  V30 1129 C 100.257 -1.88773 -3.06419 0
M  V30 1130 C 99.8647 -3.39263 -2.92582 0
M  V30 1131 C 101.609 -1.80867 -3.84041 0
M  V30 1132 C 99.5157 -4.1218 -4.24101 0
M  V30 1133 H 98.4457 -0.401245 -0.638372 0
M  V30 1134 H 101.097 -1.48742 -1.07462 0
M  V30 1135 H 99.4787 -1.41035 -3.70034 0
M  V30 1136 H 100.653 -3.94603 -2.37961 0
M  V30 1137 H 98.9677 -3.48154 -2.28424 0
M  V30 1138 H 101.565 -2.32646 -4.81435 0
M  V30 1139 H 101.908 -0.774543 -4.09031 0
M  V30 1140 H 102.441 -2.26301 -3.27159 0
M  V30 1141 H 99.1797 -5.15965 -4.04303 0
M  V30 1142 H 98.6997 -3.61626 -4.78526 0
M  V30 1143 H 100.379 -4.19349 -4.92702 0
M  V30 1144 N 100.511 1.16574 -1.06058 0
M  V30 1145 C 101.459 2.22941 -0.663343 0
M  V30 1146 C 102.453 1.66358 0.319593 0
M  V30 1147 O 103.659 1.7905 0.184713 0
M  V30 1148 H 100.034 0.725907 -0.196376 0
M  V30 1149 H 102.005 2.53736 -1.57037 0
M  V30 1150 C 100.754 3.47642 -0.0632808 0
M  V30 1151 H 100.077 3.91493 -0.810733 0
M  V30 1152 H 101.517 4.2363 0.177177 0
M  V30 1153 C 99.9758 3.1509 1.19248 0
M  V30 1154 O 100.506 3.30673 2.28075 0
M  V30 1155 N 98.7118 2.6924 1.09353 0
M  V30 1156 H 98.2588 2.5676 0.207912 0
M  V30 1157 H 98.2168 2.47833 1.93458 0
M  V30 1158 N 101.989 0.842826 1.3317 0
M  V30 1159 C 102.936 0.276885 2.29133 0
M  V30 1160 C 103.906 -0.609527 1.54512 0
M  V30 1161 O 105.091 -0.546955 1.82792 0
M  V30 1162 C 102.231 -0.538707 3.40869 0
M  V30 1163 C 101.344 0.372169 4.30394 0
M  V30 1164 C 100.479 -0.454908 5.29249 0
M  V30 1165 C 99.5179 0.45411 6.10413 0
M  V30 1166 N 98.6549 -0.335075 7.013 0
M  V30 1167 H 103.495 1.10052 2.76934 0
M  V30 1168 H 101.032 0.554161 1.36262 0
M  V30 1169 H 102.99 -1.02709 4.0436 0
M  V30 1170 H 101.62 -1.32727 2.9425 0
M  V30 1171 H 100.672 0.97888 3.6759 0
M  V30 1172 H 101.984 1.0703 4.87182 0
M  V30 1173 H 101.138 -1.00695 5.98285 0
M  V30 1174 H 99.8769 -1.18646 4.73048 0
M  V30 1175 H 98.8819 1.01813 5.40291 0
M  V30 1176 H 100.107 1.18409 6.68697 0
M  V30 1177 H 98.0529 -1.04994 6.47543 0
M  V30 1178 H 97.9699 0.304262 7.55387 0
M  V30 1179 H 99.2379 -0.869224 7.74638 0
M  V30 1180 N 103.467 -1.45747 0.599634 0
M  V30 1181 C 104.417 -2.27538 -0.145107 0
M  V30 1182 C 105.401 -1.3686 -0.846055 0
M  V30 1183 O 106.593 -1.6091 -0.737357 0
M  V30 1184 C 103.722 -3.23569 -1.14708 0
M  V30 1185 C 102.808 -4.21734 -0.447383 0
M  V30 1186 N 103.199 -5.03257 0.506535 0
M  V30 1187 C 101.497 -4.40536 -0.695966 0
M  V30 1188 C 102.198 -5.74426 0.917068 0
M  V30 1189 N 101.174 -5.42966 0.26253 0
M  V30 1190 H 104.976 -2.87965 0.587672 0
M  V30 1191 H 102.49 -1.56803 0.422697 0
M  V30 1192 H 104.487 -3.8089 -1.69495 0
M  V30 1193 H 103.147 -2.64702 -1.8805 0
M  V30 1194 H 104.158 -5.10319 0.882899 0
M  V30 1195 H 100.835 -3.92802 -1.41467 0
M  V30 1196 H 102.225 -6.4995 1.70338 0
M  V30 1197 N 104.945 -0.338344 -1.53925 0
M  V30 1198 C 106.193 0.259245 -2.0043 0
M  V30 1199 C 106.514 1.51484 -1.22791 0
M  V30 1200 O 105.784 1.93037 -0.33368 0
M  V30 1201 H 104.364 0.0987845 -0.740439 0
M  V30 1202 H 107.026 -0.458302 -1.89435 0
M  V30 1203 H 106.122 0.505334 -3.07982 0
M  V30 1204 N 106.423 1.57458 -0.0668435 0
M  V30 1205 C 107.353 2.15468 0.899764 0
M  V30 1206 C 108.334 1.08042 1.31381 0
M  V30 1207 O 109.519 1.36054 1.38574 0
M  V30 1208 C 106.649 2.71232 2.16911 0
M  V30 1209 C 105.603 3.83781 1.89463 0
M  V30 1210 C 104.929 4.26127 3.22986 0
M  V30 1211 C 106.229 5.08238 1.20381 0
M  V30 1212 H 107.923 2.96488 0.416529 0
M  V30 1213 H 105.469 1.4262 0.198908 0
M  V30 1214 H 107.422 3.10458 2.84945 0
M  V30 1215 H 106.146 1.87426 2.67468 0
M  V30 1216 H 104.805 3.45051 1.23836 0
M  V30 1217 H 104.453 3.39249 3.71374 0
M  V30 1218 H 104.153 5.01993 3.05413 0
M  V30 1219 H 105.677 4.67966 3.92225 0
M  V30 1220 H 107.091 5.44811 1.78475 0
M  V30 1221 H 105.488 5.89349 1.13083 0
M  V30 1222 H 106.558 4.84558 0.182153 0
M  V30 1223 N 107.901 -0.206675 1.56239 0
M  V30 1224 C 108.811 -1.27686 1.96808 0
M  V30 1225 C 109.827 -1.50455 0.874035 0
M  V30 1226 O 111.003 -1.63295 1.17884 0
M  V30 1227 C 108.068 -2.60358 2.28942 0
M  V30 1228 C 107.129 -2.45762 3.51994 0
M  V30 1229 C 106.362 -3.72108 3.82585 0
M  V30 1230 O 106.585 -4.75776 3.14631 0
M  V30 1231 O 105.519 -3.6833 4.76043 0
M  V30 1232 H 109.345 -0.962593 2.88041 0
M  V30 1233 H 106.93 -0.410746 1.43643 0
M  V30 1234 H 108.812 -3.38687 2.50737 0
M  V30 1235 H 107.487 -2.91435 1.4088 0
M  V30 1236 H 106.394 -1.65584 3.35459 0
M  V30 1237 H 107.727 -2.19621 4.40486 0
M  V30 1238 N 109.379 -1.50304 -0.473955 0
M  V30 1239 C 110.289 -1.7174 -1.5982 0
M  V30 1240 C 111.305 -0.600457 -1.63311 0
M  V30 1241 O 112.481 -0.878441 -1.81233 0
M  V30 1242 C 109.546 -1.80427 -2.96052 0
M  V30 1243 C 108.607 -3.04148 -3.02972 0
M  V30 1244 C 107.84 -3.12411 -4.32706 0
M  V30 1245 O 108.063 -2.27542 -5.23049 0
M  V30 1246 O 106.997 -4.05113 -4.45159 0
M  V30 1247 H 110.823 -2.67035 -1.44657 0
M  V30 1248 H 108.408 -1.34366 -0.653148 0
M  V30 1249 H 110.29 -1.88338 -3.7697 0
M  V30 1250 H 108.965 -0.883156 -3.11419 0
M  V30 1251 H 107.872 -3.0174 -2.21142 0
M  V30 1252 H 109.205 -3.95829 -2.92541 0
M  V30 1253 N 110.857 0.726932 -1.39834 0
M  V30 1254 C 112.085 1.51613 -1.40787 0
M  V30 1255 C 112.5 1.88799 -0.00451505 0
M  V30 1256 O 111.857 1.54662 0.968809 0
M  V30 1257 C 111.908 2.79863 -2.28821 0
M  V30 1258 O 111.629 2.44253 -3.63692 0
M  V30 1259 C 113.13 3.73837 -2.38245 0
M  V30 1260 H 110.35 0.468264 -0.480593 0
M  V30 1261 H 112.894 0.897607 -1.83748 0
M  V30 1262 H 111.049 3.38027 -1.89252 0
M  V30 1263 H 111.463 3.26695 -4.1033 0
M  V30 1264 H 112.937 4.60699 -3.04073 0
M  V30 1265 H 113.414 4.16153 -1.40403 0
M  V30 1266 H 114.02 3.21589 -2.78317 0
M  V30 1267 N 112.336 1.25143 0.95797 0
M  V30 1268 C 113.299 1.05321 2.03569 0
M  V30 1269 C 114.299 0.007152 1.60798 0
M  V30 1270 O 115.489 0.24903 1.72411 0
M  V30 1271 C 112.621 0.598394 3.35607 0
M  V30 1272 H 113.814 2.00986 2.22586 0
M  V30 1273 H 111.367 1.07502 1.13459 0
M  V30 1274 H 112.102 -0.361014 3.22284 0
M  V30 1275 H 111.887 1.35351 3.67998 0
M  V30 1276 H 113.377 0.48104 4.1482 0
M  V30 1277 N 113.814 -1.1601 1.06675 0
M  V30 1278 C 114.777 -2.18724 0.685001 0
M  V30 1279 C 115.777 -1.58496 -0.271246 0
M  V30 1280 O 116.967 -1.74119 -0.0531156 0
M  V30 1281 C 114.099 -3.40899 0.00853648 0
M  V30 1282 H 115.292 -2.54011 1.59431 0
M  V30 1283 H 112.845 -1.30352 0.862441 0
M  V30 1284 H 113.58 -3.11173 -0.913337 0
M  V30 1285 H 113.365 -3.8587 0.696204 0
M  V30 1286 H 114.855 -4.16886 -0.24414 0
M  V30 1287 N 115.292 -0.849877 -1.32721 0
M  V30 1288 C 116.239 -0.289033 -2.28983 0
M  V30 1289 C 117.209 0.601324 -1.54833 0
M  V30 1290 O 118.394 0.537253 -1.8308 0
M  V30 1291 C 115.534 0.520623 -3.4115 0
M  V30 1292 C 114.647 -0.394989 -4.3019 0
M  V30 1293 C 113.782 0.426834 -5.29482 0
M  V30 1294 C 112.821 -0.486476 -6.10164 0
M  V30 1295 N 111.958 0.297879 -7.01468 0
M  V30 1296 H 116.798 -1.11519 -2.76347 0
M  V30 1297 H 114.335 -0.56138 -1.35967 0
M  V30 1298 H 116.293 1.00563 -4.04899 0
M  V30 1299 H 114.923 1.31165 -2.9495 0
M  V30 1300 H 113.975 -0.99836 -3.67065 0
M  V30 1301 H 115.287 -1.09612 -4.86607 0
M  V30 1302 H 114.441 0.975205 -5.98811 0
M  V30 1303 H 113.18 1.16136 -4.73671 0
M  V30 1304 H 112.185 -1.04677 -5.39743 0
M  V30 1305 H 113.41 -1.21953 -6.6806 0
M  V30 1306 H 111.356 1.01558 -6.48091 0
M  V30 1307 H 111.273 -0.344318 -7.55216 0
M  V30 1308 H 112.541 0.828131 -7.75089 0
M  V30 1309 N 116.77 1.45427 -0.607355 0
M  V30 1310 C 118.01 2.04128 -0.105458 0
M  V30 1311 C 118.374 1.46555 1.24039 0
M  V30 1312 O 119.575 1.96608 1.833 0
M  V30 1313 C 117.846 3.57338 -0.0665324 0
M  V30 1314 S 119.405 4.37201 0.374207 0
M  V30 1315 H 116.223 0.709278 -0.0494575 0
M  V30 1316 H 118.825 1.78139 -0.805404 0
M  V30 1317 H 117.529 3.96752 -1.04957 0
M  V30 1318 H 117.06 3.87902 0.655415 0
M  V30 1319 H 119.075 4.6888 1.62377 0
M  V30 1320 N 118.248 0.346503 1.53744 0
M  V30 1321 C 119.195 -0.508914 2.25119 0
M  V30 1322 C 120.165 -1.09315 1.25058 0
M  V30 1323 O 121.35 -1.12921 1.53797 0
M  V30 1324 C 118.49 -1.65246 3.02965 0
M  V30 1325 C 117.603 -1.09525 4.17886 0
M  V30 1326 C 116.738 -2.20634 4.83212 0
M  V30 1327 C 115.777 -1.62279 5.90196 0
M  V30 1328 N 114.914 -2.67143 6.49291 0
M  V30 1329 H 119.754 0.106283 2.9781 0
M  V30 1330 H 117.291 0.0642227 1.4696 0
M  V30 1331 H 119.249 -2.32574 3.4636 0
M  V30 1332 H 117.879 -2.2386 2.32565 0
M  V30 1333 H 116.931 -0.312818 3.79112 0
M  V30 1334 H 118.243 -0.628444 4.94825 0
M  V30 1335 H 117.397 -2.95821 5.29693 0
M  V30 1336 H 116.136 -2.70659 4.05703 0
M  V30 1337 H 115.141 -0.855989 5.43096 0
M  V30 1338 H 116.366 -1.13102 6.69615 0
M  V30 1339 H 114.312 -3.16417 5.74645 0
M  V30 1340 H 114.229 -2.25093 7.21713 0
M  V30 1341 H 115.497 -3.4209 7.00425 0
M  V30 1342 N 119.726 -1.57421 0.075193 0
M  V30 1343 C 120.974 -1.93236 -0.591974 0
M  V30 1344 C 121.295 -0.956241 -1.69944 0
M  V30 1345 O 120.565 -0.00494792 -1.95899 0
M  V30 1346 H 119.145 -0.713355 -0.22166 0
M  V30 1347 H 121.807 -1.9444 0.133848 0
M  V30 1348 H 120.903 -2.95131 -1.01509 0
M  V30 1349 N 121.204 0.198386 -1.56346 0
M  V30 1350 C 122.134 1.24865 -1.9731 0
M  V30 1351 C 123.115 1.47651 -0.844576 0
M  V30 1352 O 124.3 1.59444 -1.10866 0
M  V30 1353 C 121.43 2.59358 -2.30977 0
M  V30 1354 C 120.384 2.5119 -3.46537 0
M  V30 1355 C 119.71 3.89926 -3.65871 0
M  V30 1356 C 121.01 2.03977 -4.80823 0
M  V30 1357 H 122.704 0.908252 -2.85291 0
M  V30 1358 H 120.25 0.435462 -1.37258 0
M  V30 1359 H 122.203 3.33011 -2.58228 0
M  V30 1360 H 120.927 2.95132 -1.39874 0
M  V30 1361 H 119.586 1.79993 -3.19371 0
M  V30 1362 H 119.234 4.23046 -2.72105 0
M  V30 1363 H 118.934 3.85336 -4.4361 0
M  V30 1364 H 120.458 4.65205 -3.95495 0
M  V30 1365 H 121.872 2.67386 -5.07127 0
M  V30 1366 H 120.269 2.10397 -5.62008 0
M  V30 1367 H 121.339 0.992861 -4.74626 0
M  V30 1368 N 122.682 1.50554 0.465978 0
M  V30 1369 C 123.93 1.61479 1.21528 0
M  V30 1370 C 124.251 0.319596 1.92363 0
M  V30 1371 O 123.521 -0.663194 1.84333 0
M  V30 1372 H 122.101 0.595055 0.451573 0
M  V30 1373 H 124.763 1.87355 0.53704 0
M  V30 1374 H 123.859 2.42846 1.96042 0
M  V30 1375 N 124.16 -0.719506 1.40217 0
M  V30 1376 C 125.123 -1.8153 1.39927 0
M  V30 1377 C 126.123 -1.58095 0.293723 0
M  V30 1378 O 127.313 -1.65209 0.552429 0
M  V30 1379 C 124.445 -3.19561 1.18716 0
M  V30 1380 H 125.638 -1.83186 2.37451 0
M  V30 1381 H 123.191 -0.924746 1.26008 0
M  V30 1382 H 123.926 -3.23557 0.219366 0
M  V30 1383 H 123.711 -3.3797 1.98793 0
M  V30 1384 H 125.201 -3.99598 1.21291 0
M  V30 1385 N 125.638 -1.25649 -0.95132 0
M  V30 1386 C 126.585 -1.06323 -2.04851 0
M  V30 1387 C 127.555 0.0286491 -1.66075 0
M  V30 1388 O 128.74 -0.12917 -1.90362 0
M  V30 1389 C 125.88 -0.691529 -3.381 0
M  V30 1390 C 124.993 -1.85861 -3.89974 0
M  V30 1391 C 124.128 -1.43096 -5.11563 0
M  V30 1392 C 123.167 -2.56696 -5.55674 0
M  V30 1393 N 122.304 -2.14684 -6.68472 0
M  V30 1394 H 127.144 -2.00222 -2.20715 0
M  V30 1395 H 124.681 -0.997027 -1.08156 0
M  V30 1396 H 126.639 -0.456963 -4.1469 0
M  V30 1397 H 125.269 0.210474 -3.22113 0
M  V30 1398 H 124.321 -2.20639 -3.09875 0
M  V30 1399 H 125.633 -2.71161 -4.18657 0
M  V30 1400 H 124.787 -1.15624 -5.9558 0
M  V30 1401 H 123.526 -0.548722 -4.84603 0
M  V30 1402 H 122.531 -2.84909 -4.7022 0
M  V30 1403 H 123.756 -3.45503 -5.8464 0
M  V30 1404 H 121.702 -1.28881 -6.43215 0
M  V30 1405 H 121.619 -2.9353 -6.96689 0
M  V30 1406 H 122.887 -1.90397 -7.5589 0
M  V30 1407 N 127.117 1.15442 -1.07289 0
M  V30 1408 C 128.363 1.86489 -0.796846 0
M  V30 1409 C 128.696 1.82078 0.675371 0
M  V30 1410 O 127.971 1.24346 1.4956 0
M  V30 1411 C 128.254 3.35626 -1.30489 0
M  V30 1412 C 128.107 3.48673 -2.84161 0
M  V30 1413 C 129.426 4.30357 -0.920907 0
M  V30 1414 H 126.545 0.677144 -0.290939 0
M  V30 1415 H 129.187 1.35633 -1.33056 0
M  V30 1416 H 127.337 3.79068 -0.850883 0
M  V30 1417 H 129.009 3.14099 -3.37846 0
M  V30 1418 H 127.252 2.90253 -3.22391 0
M  V30 1419 H 127.923 4.53453 -3.14777 0
M  V30 1420 H 130.399 3.94871 -1.3121 0
M  V30 1421 H 129.275 5.33193 -1.30372 0
M  V30 1422 H 129.536 4.4176 0.173226 0
M  V30 1423 N 128.595 0.856903 1.32268 0
M  V30 1424 C 129.545 0.274899 2.26337 0
M  V30 1425 C 130.529 -0.580543 1.50062 0
M  V30 1426 O 131.721 -0.429559 1.71708 0
M  V30 1427 C 128.85 -0.533841 3.39124 0
M  V30 1428 C 127.936 0.334114 4.22782 0
M  V30 1429 N 128.327 1.42143 4.85416 0
M  V30 1430 C 126.625 0.124256 4.45827 0
M  V30 1431 C 127.326 1.95559 5.47843 0
M  V30 1432 N 126.302 1.25444 5.28928 0
M  V30 1433 H 130.104 1.10612 2.72291 0
M  V30 1434 H 127.618 0.703258 1.46383 0
M  V30 1435 H 129.615 -0.96722 4.05525 0
M  V30 1436 H 128.275 -1.36283 2.94715 0
M  V30 1437 H 129.286 1.80436 4.85451 0
M  V30 1438 H 125.963 -0.669837 4.12092 0
M  V30 1439 H 127.353 2.86714 6.07655 0
M  V30 1440 N 130.073 -1.45103 0.615059 0
M  V30 1441 C 131.301 -2.06553 0.11977 0
M  V30 1442 C 131.716 -1.45842 -1.19898 0
M  V30 1443 O 131.073 -0.575325 -1.73194 0
M  V30 1444 C 131.124 -3.61495 -0.018364 0
M  V30 1445 O 130.845 -4.19942 1.24822 0
M  V30 1446 C 132.346 -4.39947 -0.544237 0
M  V30 1447 H 129.566 -0.667096 0.0722739 0
M  V30 1448 H 132.11 -1.8623 0.84491 0
M  V30 1449 H 130.265 -3.81135 -0.693865 0
M  V30 1450 H 130.679 -5.13204 1.0827 0
M  V30 1451 H 132.153 -5.48838 -0.589953 0
M  V30 1452 H 132.63 -4.10255 -1.56805 0
M  V30 1453 H 133.236 -4.25188 0.0974703 0
M  V30 1454 N 131.551 -0.354651 -1.53558 0
M  V30 1455 C 132.798 0.238443 -2.01091 0
M  V30 1456 C 133.126 1.49663 -1.24222 0
M  V30 1457 O 132.381 1.93049 -0.321003 0
M  V30 1458 C 132.68 0.587121 -3.52545 0
M  V30 1459 C 132.346 -0.575472 -4.47213 0
M  V30 1460 C 131.008 -0.894497 -4.72813 0
M  V30 1461 C 133.36 -1.35489 -5.03281 0
M  V30 1462 C 130.688 -1.99511 -5.51736 0
M  V30 1463 C 133.04 -2.44583 -5.83405 0
M  V30 1464 C 131.704 -2.77033 -6.07296 0
M  V30 1465 H 130.974 0.0872526 -0.735845 0
M  V30 1466 H 133.621 -0.484859 -1.8526 0
M  V30 1467 H 131.926 1.39129 -3.66265 0
M  V30 1468 H 133.623 1.05809 -3.86789 0
M  V30 1469 H 130.213 -0.316774 -4.27428 0
M  V30 1470 H 134.397 -1.12167 -4.83459 0
M  V30 1471 H 129.653 -2.25063 -5.68469 0
M  V30 1472 H 133.827 -3.05401 -6.25862 0
M  V30 1473 H 131.454 -3.6244 -6.68237 0
M  V30 1474 N 133.029 1.57378 -0.0835403 0
M  V30 1475 C 134.275 1.94217 0.583733 0
M  V30 1476 C 134.608 0.964653 1.68547 0
M  V30 1477 O 133.883 -0.00422258 1.945 0
M  V30 1478 C 134.166 3.41253 1.14972 0
M  V30 1479 C 134.019 4.49768 0.0538277 0
M  V30 1480 C 135.338 3.89352 2.05166 0
M  V30 1481 H 132.457 0.706233 0.210724 0
M  V30 1482 H 135.099 1.89392 -0.1519 0
M  V30 1483 H 133.249 3.45496 1.77665 0
M  V30 1484 H 134.921 4.57641 -0.579851 0
M  V30 1485 H 133.164 4.29432 -0.614068 0
M  V30 1486 H 133.835 5.49817 0.490452 0
M  V30 1487 H 136.311 3.87189 1.52393 0
M  V30 1488 H 135.187 4.92822 2.41698 0
M  V30 1489 H 135.448 3.27973 2.96456 0
M  V30 1490 N 134.507 -0.190092 1.56449 0
M  V30 1491 C 135.753 -0.911052 1.81184 0
M  V30 1492 C 136.086 -1.82699 0.658396 0
M  V30 1493 O 135.361 -1.91491 -0.340775 0
M  V30 1494 C 135.644 -1.72297 3.16205 0
M  V30 1495 C 135.497 -0.831419 4.42049 0
M  V30 1496 C 136.816 -2.69454 3.47969 0
M  V30 1497 H 133.935 -0.32977 0.659106 0
M  V30 1498 H 136.577 -0.178169 1.89163 0
M  V30 1499 H 134.727 -2.34778 3.09534 0
M  V30 1500 H 136.399 -0.220929 4.60771 0
M  V30 1501 H 134.642 -0.138406 4.33579 0
M  V30 1502 H 135.313 -1.43461 5.33032 0
M  V30 1503 H 137.789 -2.17104 3.54972 0
M  V30 1504 H 136.665 -3.23342 4.43555 0
M  V30 1505 H 136.926 -3.48744 2.71717 0
M  V30 1506 N 135.985 -1.50799 -0.457987 0
M  V30 1507 C 137.262 -1.52968 -1.21902 0
M  V30 1508 C 137.642 -0.281906 -2.09209 0
M  V30 1509 O 136.99 0.734076 -2.16388 0
M  V30 1510 C 137.2 -2.8326 -2.03875 0
M  V30 1511 C 138.548 -3.34425 -2.6162 0
M  V30 1512 O 139.572 -2.8467 -2.14106 0
M  V30 1513 O 138.431 -4.21188 -3.48228 0
M  V30 1514 H 135.525 -0.614129 -0.553873 0
M  V30 1515 H 138.071 -1.63098 -0.468739 0
M  V30 1516 H 136.843 -3.65543 -1.39621 0
M  V30 1517 H 136.466 -2.76195 -2.8601 0
M  V30 1518 N 137.463 0.71206 -1.40597 0
M  V30 1519 C 138.703 1.48438 -1.40519 0
M  V30 1520 C 139.067 1.91998 -0.00767611 0
M  V30 1521 O 140.268 2.6854 0.118239 0
M  V30 1522 C 138.539 2.67514 -2.37004 0
M  V30 1523 S 140.098 3.56875 -2.55315 0
M  V30 1524 H 136.916 0.507457 -0.498005 0
M  V30 1525 H 139.518 0.832355 -1.76896 0
M  V30 1526 H 138.222 2.33689 -3.37368 0
M  V30 1527 H 137.753 3.37625 -2.01923 0
M  V30 1528 H 139.768 4.62081 -1.8082 0
M  V30 1529 N 138.941 1.26152 0.944643 0
M  V30 1530 C 140.166 1.14363 1.7302 0
M  V30 1531 C 140.591 -0.29772 1.85729 0
M  V30 1532 O 139.949 -1.2157 1.34501 0
M  V30 1533 C 139.997 1.81378 3.11664 0
M  V30 1534 O 139.101 1.10022 3.97453 0
M  V30 1535 H 138.442 0.398694 0.53098 0
M  V30 1536 H 140.972 1.66906 1.18337 0
M  V30 1537 H 140.982 1.88064 3.62072 0
M  V30 1538 H 139.657 2.86237 3.0173 0
M  V30 1539 H 138.234 1.11287 3.55907 0
M  V30 1540 N 140.419 -1.14872 1.07899 0
M  V30 1541 C 141.367 -2.21857 0.698727 0
M  V30 1542 C 142.361 -1.66845 -0.293086 0
M  V30 1543 O 143.567 -1.79321 -0.156204 0
M  V30 1544 H 139.942 -0.722691 0.207899 0
M  V30 1545 H 141.913 -2.51205 1.61054 0
M  V30 1546 C 140.662 -3.47498 0.11858 0
M  V30 1547 H 139.985 -3.90154 0.872914 0
M  V30 1548 H 141.425 -4.23858 -0.109759 0
M  V30 1549 C 139.884 -3.16947 -1.1422 0
M  V30 1550 O 140.414 -3.3426 -2.22785 0
M  V30 1551 N 138.62 -2.70946 -1.05055 0
M  V30 1552 H 138.167 -2.57058 -0.167038 0
M  V30 1553 H 138.125 -2.50879 -1.89491 0
M  V30 1554 N 141.898 -0.863906 -1.31812 0
M  V30 1555 C 143.314 -0.555004 -1.49639 0
M  V30 1556 C 143.514 0.912266 -1.79666 0
M  V30 1557 O 142.57 1.69479 -1.87171 0
M  V30 1558 C 143.883 -1.44998 -2.63431 0
M  V30 1559 C 145.431 -1.45138 -2.77316 0
M  V30 1560 C 145.906 -2.33179 -3.94197 0
M  V30 1561 N 147.397 -2.31025 -4.01474 0
M  V30 1562 C 148.132 -2.95871 -4.9117 0
M  V30 1563 N 147.628 -3.69863 -5.8581 0
M  V30 1564 N 149.421 -2.85211 -4.84367 0
M  V30 1565 H 141.572 -1.81339 -1.10589 0
M  V30 1566 H 143.835 -0.77505 -0.545895 0
M  V30 1567 H 143.541 -2.49377 -2.48 0
M  V30 1568 H 143.415 -1.14409 -3.59431 0
M  V30 1569 H 145.802 -0.415201 -2.92164 0
M  V30 1570 H 145.883 -1.79747 -1.82001 0
M  V30 1571 H 145.527 -3.3687 -3.80107 0
M  V30 1572 H 145.457 -1.95897 -4.88807 0
M  V30 1573 H 147.948 -1.77238 -3.33759 0
M  V30 1574 H 148.261 -4.16486 -6.50968 0
M  V30 1575 H 146.606 -3.73971 -5.85808 0
M  V30 1576 H 149.797 -2.26948 -4.09405 0
M  V30 1577 H 149.97 -3.36027 -5.54066 0
M  V30 1578 N 143.376 1.44774 -0.622745 0
M  V30 1579 C 144.286 2.34433 0.0886031 0
M  V30 1580 C 145.302 1.52131 0.844529 0
M  V30 1581 O 146.478 1.84886 0.798691 0
M  V30 1582 C 143.543 3.29986 1.0635 0
M  V30 1583 C 142.604 4.28195 0.307873 0
M  V30 1584 C 141.837 5.19183 1.23633 0
M  V30 1585 O 142.06 5.13918 2.47476 0
M  V30 1586 O 140.994 5.97515 0.725189 0
M  V30 1587 H 144.82 2.96693 -0.648599 0
M  V30 1588 H 142.405 1.44408 -0.382957 0
M  V30 1589 H 144.287 3.88825 1.6246 0
M  V30 1590 H 142.962 2.70269 1.78146 0
M  V30 1591 H 141.869 3.72927 -0.296064 0
M  V30 1592 H 143.202 4.90808 -0.3699 0
M  V30 1593 N 144.854 0.36279 1.53368 0
M  V30 1594 C 146.131 -0.284021 1.93527 0
M  V30 1595 C 146.511 -1.66628 1.29608 0
M  V30 1596 O 145.859 -2.23942 0.45413 0
M  V30 1597 C 146.069 -0.337028 3.47369 0
M  V30 1598 C 147.417 -0.578708 4.20638 0
M  V30 1599 O 148.441 -0.418352 3.53735 0
M  V30 1600 O 147.3 -0.89074 5.39192 0
M  V30 1601 H 144.394 -0.169743 0.809393 0
M  V30 1602 H 146.94 0.41537 1.64538 0
M  V30 1603 H 145.712 0.632217 3.86159 0
M  V30 1604 H 145.335 -1.08243 3.82582 0
M  V30 1605 N 146.332 -1.57332 0.0918853 0
M  V30 1606 C 147.581 -1.93412 -0.572249 0
M  V30 1607 C 147.894 -0.975515 -1.69538 0
M  V30 1608 O 149.1 -1.22991 -2.42045 0
M  V30 1609 C 147.556 -3.43648 -1.0693 0
M  V30 1610 C 147.164 -4.47994 0.0239049 0
M  V30 1611 C 148.908 -3.88695 -1.70635 0
M  V30 1612 C 146.815 -5.89381 -0.488319 0
M  V30 1613 H 145.745 -0.721939 -0.217532 0
M  V30 1614 H 148.396 -1.82735 0.167369 0
M  V30 1615 H 146.778 -3.49466 -1.8625 0
M  V30 1616 H 147.952 -4.53815 0.799277 0
M  V30 1617 H 146.267 -4.12536 0.565946 0
M  V30 1618 H 148.864 -4.91725 -2.10025 0
M  V30 1619 H 149.207 -3.27166 -2.57426 0
M  V30 1620 H 149.74 -3.85564 -0.979023 0
M  V30 1621 H 146.479 -6.54602 0.342906 0
M  V30 1622 H 145.999 -5.87037 -1.23077 0
M  V30 1623 H 147.678 -6.39863 -0.958317 0
M  V30 1624 N 147.81 0.181792 -1.56548 0
M  V30 1625 C 149.04 0.914618 -1.85252 0
M  V30 1626 C 149.448 1.76791 -0.673914 0
M  V30 1627 O 148.791 1.80009 0.366416 0
M  V30 1628 C 148.853 1.85019 -3.08234 0
M  V30 1629 C 148.517 1.17754 -4.41569 0
M  V30 1630 C 149.514 0.548035 -5.17003 0
M  V30 1631 C 147.199 1.17742 -4.88305 0
M  V30 1632 C 149.193 -0.0726128 -6.37359 0
M  V30 1633 C 146.88 0.552946 -6.08593 0
M  V30 1634 C 147.878 -0.070978 -6.82963 0
M  V30 1635 O 147.566 -0.685635 -8.00971 0
M  V30 1636 H 147.298 0.271695 -0.618998 0
M  V30 1637 H 149.852 0.189944 -2.0452 0
M  V30 1638 H 148.082 2.61491 -2.84885 0
M  V30 1639 H 149.771 2.45195 -3.23472 0
M  V30 1640 H 150.537 0.540174 -4.81982 0
M  V30 1641 H 146.416 1.65246 -4.30366 0
M  V30 1642 H 149.96 -0.560213 -6.95347 0
M  V30 1643 H 145.857 0.558354 -6.43081 0
M  V30 1644 H 146.625 -0.58385 -8.16415 0
M  V30 1645 N 149.288 1.51039 0.449983 0
M  V30 1646 C 150.513 1.6715 1.22783 0
M  V30 1647 C 150.938 0.363081 1.84563 0
M  V30 1648 O 150.296 -0.675433 1.68249 0
M  V30 1649 C 150.344 2.77985 2.29689 0
M  V30 1650 O 149.448 2.40707 3.34864 0
M  V30 1651 H 148.789 0.557746 0.360299 0
M  V30 1652 H 151.319 1.97535 0.533005 0
M  V30 1653 H 151.329 3.01693 2.74673 0
M  V30 1654 H 150.004 3.72935 1.84098 0
M  V30 1655 H 148.581 2.27523 2.95445 0
M  V30 1656 N 150.766 -0.704594 1.40972 0
M  V30 1657 C 151.991 -1.49858 1.43378 0
M  V30 1658 C 152.416 -1.88061 0.038184 0
M  V30 1659 O 151.774 -1.5402 -0.956425 0
M  V30 1660 C 151.822 -2.74333 2.34038 0
M  V30 1661 O 150.926 -3.7147 1.7912 0
M  V30 1662 H 150.267 -0.45139 0.486974 0
M  V30 1663 H 152.797 -0.866832 1.8533 0
M  V30 1664 H 152.807 -3.22741 2.49604 0
M  V30 1665 H 151.482 -2.45863 3.35446 0
M  V30 1666 H 150.059 -3.30363 1.72958 0
M  V30 1667 N 152.244 -1.26651 -0.937939 0
M  V30 1668 C 153.207 -1.08546 -2.01867 0
M  V30 1669 C 154.207 -0.0327327 -1.60767 0
M  V30 1670 O 155.397 -0.276427 -1.71993 0
M  V30 1671 C 152.529 -0.651711 -3.34613 0
M  V30 1672 H 153.722 -2.04502 -2.1936 0
M  V30 1673 H 151.275 -1.09294 -1.11734 0
M  V30 1674 H 152.01 0.309696 -3.22818 0
M  V30 1675 H 151.795 -1.41189 -3.65798 0
M  V30 1676 H 153.285 -0.546973 -4.14002 0
M  V30 1677 N 153.722 1.14298 -1.08507 0
M  V30 1678 C 154.669 2.19414 -0.715965 0
M  V30 1679 C 155.639 1.63399 0.298326 0
M  V30 1680 O 156.824 1.89929 0.182101 0
M  V30 1681 C 153.964 3.44845 -0.132534 0
M  V30 1682 C 153.077 4.15007 -1.19973 0
M  V30 1683 C 152.212 5.28024 -0.580048 0
M  V30 1684 C 151.251 5.9002 -1.62921 0
M  V30 1685 N 150.388 6.94485 -1.03125 0
M  V30 1686 H 155.228 2.50336 -1.61666 0
M  V30 1687 H 152.765 1.2293 -0.807882 0
M  V30 1688 H 154.723 4.16601 0.223454 0
M  V30 1689 H 153.353 3.14403 0.731467 0
M  V30 1690 H 152.405 3.41629 -1.67313 0
M  V30 1691 H 153.717 4.57178 -1.99473 0
M  V30 1692 H 152.871 6.06455 -0.172364 0
M  V30 1693 H 151.61 4.87076 0.246603 0
M  V30 1694 H 150.615 5.10291 -2.04654 0
M  V30 1695 H 151.84 6.33042 -2.45835 0
M  V30 1696 H 149.786 6.55612 -0.225711 0
M  V30 1697 H 149.703 7.35148 -1.76334 0
M  V30 1698 H 150.971 7.7679 -0.649458 0
M  V30 1699 N 155.201 0.870884 1.31352 0
M  V30 1700 C 156.148 0.325425 2.28494 0
M  V30 1701 C 157.118 -0.576615 1.5577 0
M  V30 1702 O 158.303 -0.508059 1.83911 0
M  V30 1703 C 155.443 -0.466283 3.41935 0
M  V30 1704 C 154.556 0.463378 4.29508 0
M  V30 1705 C 153.691 -0.342544 5.30094 0
M  V30 1706 C 152.73 0.583486 6.09313 0
M  V30 1707 N 151.867 -0.186244 7.01853 0
M  V30 1708 H 156.707 1.15901 2.74538 0
M  V30 1709 H 154.244 0.58294 1.35056 0
M  V30 1710 H 156.202 -0.941085 4.06447 0
M  V30 1711 H 154.832 -1.26456 2.97 0
M  V30 1712 H 153.884 1.05663 3.65431 0
M  V30 1713 H 155.196 1.1734 4.84802 0
M  V30 1714 H 154.35 -0.879816 6.00287 0
M  V30 1715 H 153.089 -1.08585 4.75458 0
M  V30 1716 H 152.094 1.13251 5.3801 0
M  V30 1717 H 153.319 1.32566 6.66035 0
M  V30 1718 H 151.265 -0.912348 6.49625 0
M  V30 1719 H 151.182 0.464422 7.54572 0
M  V30 1720 H 152.45 -0.704716 7.76308 0
M  V30 1721 N 156.679 -1.44442 0.630414 0
M  V30 1722 C 157.925 -2.02351 0.134816 0
M  V30 1723 C 158.258 -1.4947 -1.23986 0
M  V30 1724 O 157.533 -0.678475 -1.82283 0
M  V30 1725 C 157.816 -3.59898 0.120707 0
M  V30 1726 C 157.669 -4.23063 1.52767 0
M  V30 1727 C 158.988 -4.36585 -0.555127 0
M  V30 1728 H 156.107 -0.73527 0.0504646 0
M  V30 1729 H 158.749 -1.72022 0.806751 0
M  V30 1730 H 156.899 -3.85868 -0.451477 0
M  V30 1731 H 158.571 -4.08202 2.14869 0
M  V30 1732 H 156.814 -3.80586 2.08175 0
M  V30 1733 H 157.485 -5.32071 1.46984 0
M  V30 1734 H 159.961 -4.16044 -0.0685429 0
M  V30 1735 H 158.837 -5.46294 -0.534185 0
M  V30 1736 H 159.098 -4.11138 -1.62535 0
M  V30 1737 N 158.157 -0.370918 -1.53173 0
M  V30 1738 C 159.104 0.473035 -2.259 0
M  V30 1739 C 160.074 1.07311 -1.26781 0
M  V30 1740 O 161.259 1.1046 -1.55574 0
M  V30 1741 C 158.399 1.60405 -3.05556 0
M  V30 1742 C 157.512 1.02863 -4.19575 0
M  V30 1743 C 156.647 2.12918 -4.86661 0
M  V30 1744 C 155.686 1.52869 -5.92704 0
M  V30 1745 N 154.823 2.56779 -6.53459 0
M  V30 1746 H 159.663 -0.153649 -2.97604 0
M  V30 1747 H 157.2 -0.0875946 -1.46839 0
M  V30 1748 H 159.158 2.27034 -3.50016 0
M  V30 1749 H 157.788 2.20131 -2.36097 0
M  V30 1750 H 156.84 0.252465 -3.79561 0
M  V30 1751 H 158.152 0.549642 -4.95762 0
M  V30 1752 H 157.306 2.87356 -5.34333 0
M  V30 1753 H 156.045 2.6417 -4.09958 0
M  V30 1754 H 155.05 0.769479 -5.44389 0
M  V30 1755 H 156.275 1.02435 -6.7133 0
M  V30 1756 H 154.221 3.07235 -5.79606 0
M  V30 1757 H 154.138 2.13583 -7.25202 0
M  V30 1758 H 155.406 3.30903 -7.05779 0
M  V30 1759 N 159.635 1.57281 -0.100228 0
M  V30 1760 C 160.598 2.13158 0.842398 0
M  V30 1761 C 161.598 1.06202 1.20738 0
M  V30 1762 O 162.788 1.32066 1.13597 0
M  V30 1763 C 159.92 2.65639 2.13655 0
M  V30 1764 H 161.113 2.97766 0.357114 0
M  V30 1765 H 158.666 1.5559 0.148823 0
M  V30 1766 H 159.401 1.84566 2.66657 0
M  V30 1767 H 159.186 3.43844 1.88451 0
M  V30 1768 H 160.676 3.08846 2.81077 0
M  V30 1769 N 161.113 -0.173488 1.56642 0
M  V30 1770 C 162.023 -1.23482 1.99473 0
M  V30 1771 C 163.039 -1.48567 0.905752 0
M  V30 1772 O 164.215 -1.60758 1.21321 0
M  V30 1773 C 161.28 -2.55444 2.34413 0
M  V30 1774 C 160.341 -2.38241 3.57127 0
M  V30 1775 C 159.574 -3.63909 3.90392 0
M  V30 1776 O 159.797 -4.68996 3.24653 0
M  V30 1777 O 158.731 -3.58149 4.83749 0
M  V30 1778 H 162.557 -0.901279 2.90018 0
M  V30 1779 H 160.142 -0.380185 1.44482 0
M  V30 1780 H 162.024 -3.33292 2.57865 0
M  V30 1781 H 160.699 -2.88382 1.4703 0
M  V30 1782 H 159.606 -1.58431 3.38896 0
M  V30 1783 H 160.939 -2.10228 4.45045 0
M  V30 1784 N 162.591 -1.51276 -0.441967 0
M  V30 1785 C 163.84 -1.6295 -1.18871 0
M  V30 1786 C 164.153 -0.349312 -1.92456 0
M  V30 1787 O 165.359 -0.345355 -2.69295 0
M  V30 1788 C 163.815 -2.87759 -2.16155 0
M  V30 1789 C 163.423 -4.22764 -1.48239 0
M  V30 1790 C 165.167 -3.08788 -2.91291 0
M  V30 1791 C 163.074 -5.38728 -2.4398 0
M  V30 1792 H 162.004 -0.606913 -0.447406 0
M  V30 1793 H 164.655 -1.77739 -0.456205 0
M  V30 1794 H 163.037 -2.66593 -2.92821 0
M  V30 1795 H 164.211 -4.54293 -0.771635 0
M  V30 1796 H 162.526 -4.07575 -0.852741 0
M  V30 1797 H 165.123 -3.92599 -3.63002 0
M  V30 1798 H 165.466 -2.21679 -3.5237 0
M  V30 1799 H 165.999 -3.30272 -2.21733 0
M  V30 1800 H 162.738 -6.28082 -1.87598 0
M  V30 1801 H 162.258 -5.1158 -3.13123 0
M  V30 1802 H 163.937 -5.70489 -3.05207 0
M  V30 1803 N 164.069 0.697108 -1.41344 0
M  V30 1804 C 165.317 1.45426 -1.40341 0
M  V30 1805 C 165.638 1.94996 -0.0128787 0
M  V30 1806 O 164.908 1.71599 0.945027 0
M  V30 1807 H 163.488 0.539594 -0.516573 0
M  V30 1808 H 166.15 0.825201 -1.76569 0
M  V30 1809 H 165.246 2.31817 -2.08967 0
M  V30 1810 N 165.547 1.27147 0.931209 0
M  V30 1811 C 166.824 1.0401 1.65654 0
M  V30 1812 C 167.204 -0.426297 2.06751 0
M  V30 1813 O 166.552 -1.40879 1.79904 0
M  V30 1814 C 166.762 1.99834 2.86125 0
M  V30 1815 C 168.11 2.29007 3.57549 0
M  V30 1816 O 169.134 1.97779 2.96246 0
M  V30 1817 O 167.993 2.82222 4.67989 0
M  V30 1818 H 165.087 0.396239 0.725895 0
M  V30 1819 H 167.633 1.38397 0.982056 0
M  V30 1820 H 166.405 2.98744 2.52721 0
M  V30 1821 H 166.028 1.65987 3.61295 0
M  V30 1822 N 167.025 -1.13721 1.09112 0
M  V30 1823 C 168.271 -1.85198 0.826414 0
M  V30 1824 C 168.604 -1.83129 -0.646319 0
M  V30 1825 O 167.879 -1.2671 -1.47563 0
M  V30 1826 C 168.162 -3.33507 1.35812 0
M  V30 1827 C 168.015 -3.44108 2.89672 0
M  V30 1828 C 169.334 -4.28838 0.989256 0
M  V30 1829 H 166.453 -0.67243 0.301675 0
M  V30 1830 H 169.095 -1.33499 1.35197 0
M  V30 1831 H 167.245 -3.77666 0.911082 0
M  V30 1832 H 168.917 -3.08684 3.428 0
M  V30 1833 H 167.16 -2.85087 3.26967 0
M  V30 1834 H 167.831 -4.48388 3.21951 0
M  V30 1835 H 170.307 -3.92734 1.37475 0
M  V30 1836 H 169.183 -5.31051 1.38838 0
M  V30 1837 H 169.444 -4.4198 -0.102924 0
M  V30 1838 N 168.503 -0.877838 -1.30888 0
M  V30 1839 C 169.728 -0.506629 -2.01117 0
M  V30 1840 C 170.153 0.895564 -1.65412 0
M  V30 1841 O 169.511 1.5923 -0.866922 0
M  V30 1842 C 169.559 -0.680223 -3.54126 0
M  V30 1843 O 168.663 0.277033 -4.11468 0
M  V30 1844 H 168.004 -0.200518 -0.633 0
M  V30 1845 H 170.534 -1.18342 -1.66902 0
M  V30 1846 H 170.544 -0.5765 -4.03907 0
M  V30 1847 H 169.219 -1.70261 -3.79452 0
M  V30 1848 H 167.796 0.127606 -3.72682 0
M  V30 1849 N 169.982 1.44106 -0.638065 0
M  V30 1850 C 171.231 2.01194 -0.142744 0
M  V30 1851 C 171.544 1.50835 1.24532 0
M  V30 1852 O 172.75 2.00096 1.83504 0
M  V30 1853 C 171.206 3.59319 -0.20442 0
M  V30 1854 C 170.814 4.18674 -1.59423 0
M  V30 1855 C 172.558 4.23854 0.234079 0
M  V30 1856 C 170.465 5.69045 -1.61065 0
M  V30 1857 H 169.395 0.752367 -0.0495998 0
M  V30 1858 H 172.046 1.65246 -0.797881 0
M  V30 1859 H 170.428 3.92598 0.517946 0
M  V30 1860 H 171.602 3.96921 -2.34074 0
M  V30 1861 H 169.917 3.66453 -1.97741 0
M  V30 1862 H 172.514 5.34155 0.241443 0
M  V30 1863 H 172.857 3.96688 1.2627 0
M  V30 1864 H 173.39 3.95403 -0.436025 0
M  V30 1865 H 170.129 6.00956 -2.61787 0
M  V30 1866 H 169.649 5.929 -0.90718 0
M  V30 1867 H 171.328 6.32809 -1.34766 0
M  V30 1868 N 171.46 0.379036 1.52974 0
M  V30 1869 C 172.39 -0.452706 2.29069 0
M  V30 1870 C 173.371 -1.07237 1.32039 0
M  V30 1871 O 174.556 -1.08708 1.60923 0
M  V30 1872 C 171.686 -1.5856 3.08992 0
M  V30 1873 C 170.64 -1.0925 4.13822 0
M  V30 1874 C 169.966 -2.31668 4.81907 0
M  V30 1875 C 171.266 -0.167702 5.22031 0
M  V30 1876 H 172.96 0.182181 2.98845 0
M  V30 1877 H 170.506 0.0890592 1.43724 0
M  V30 1878 H 172.459 -2.1742 3.6098 0
M  V30 1879 H 171.183 -2.24792 2.36931 0
M  V30 1880 H 169.842 -0.526494 3.628 0
M  V30 1881 H 169.49 -2.96386 4.06404 0
M  V30 1882 H 169.19 -1.9934 5.52754 0
M  V30 1883 H 170.714 -2.91189 5.36695 0
M  V30 1884 H 172.128 -0.664186 5.6944 0
M  V30 1885 H 170.525 0.0653265 6.00064 0
M  V30 1886 H 171.595 0.786347 4.78482 0
M  V30 1887 N 172.938 -1.57226 0.108567 0
M  V30 1888 C 174.184 -1.95121 -0.552761 0
M  V30 1889 C 174.517 -0.991345 -1.66991 0
M  V30 1890 O 173.792 -0.0267211 -1.94482 0
M  V30 1891 C 174.075 -3.43039 -1.09528 0
M  V30 1892 C 173.928 -4.49797 0.0177332 0
M  V30 1893 C 175.247 -3.92567 -1.98945 0
M  V30 1894 H 172.366 -0.709496 -0.199461 0
M  V30 1895 H 175.008 -1.89126 0.182011 0
M  V30 1896 H 173.158 -3.48279 -1.72146 0
M  V30 1897 H 174.83 -4.56661 0.652584 0
M  V30 1898 H 173.073 -4.284 0.682309 0
M  V30 1899 H 173.744 -5.50528 -0.402919 0
M  V30 1900 H 176.22 -3.89565 -1.46214 0
M  V30 1901 H 175.096 -4.96605 -2.33827 0
M  V30 1902 H 175.357 -3.32648 -2.91201 0
M  V30 1903 N 174.416 0.165178 -1.56732 0
M  V30 1904 C 175.364 1.22369 -1.97809 0
M  V30 1905 C 176.358 1.45488 -0.867741 0
M  V30 1906 O 177.564 1.45995 -1.05288 0
M  V30 1907 H 173.939 0.411486 -0.629431 0
M  V30 1908 H 175.91 0.850425 -2.86025 0
M  V30 1909 C 174.659 2.55403 -2.35934 0
M  V30 1910 H 173.982 2.38438 -3.20916 0
M  V30 1911 H 175.422 3.2814 -2.68514 0
M  V30 1912 C 173.881 3.14611 -1.20506 0
M  V30 1913 O 174.411 3.98626 -0.496016 0
M  V30 1914 N 172.617 2.7379 -0.97403 0
M  V30 1915 H 172.164 2.0557 -1.55238 0
M  V30 1916 H 172.122 3.1374 -0.203573 0
M  V30 1917 N 175.894 1.51508 0.433938 0
M  V30 1918 C 176.842 1.73646 1.54757 0
M  V30 1919 C 177.836 0.602854 1.5831 0
M  V30 1920 O 179.042 0.784318 1.62014 0
M  V30 1921 H 175.417 0.548718 0.51421 0
M  V30 1922 H 177.388 2.66991 1.33261 0
M  V30 1923 C 176.137 1.88172 2.92381 0
M  V30 1924 H 175.46 2.74808 2.90381 0
M  V30 1925 H 176.9 2.07672 3.6966 0
M  V30 1926 C 175.359 0.64239 3.30719 0
M  V30 1927 O 175.889 -0.201362 4.01195 0
M  V30 1928 N 174.095 0.485489 2.86516 0
M  V30 1929 H 173.642 1.17318 2.29334 0
M  V30 1930 H 173.6 -0.342482 3.12529 0
M  V30 1931 N 177.372 -0.689602 1.41712 0
M  V30 1932 C 178.335 -1.78521 1.43746 0
M  V30 1933 C 179.335 -1.57436 0.327191 0
M  V30 1934 O 180.525 -1.64 0.587348 0
M  V30 1935 C 177.657 -3.16971 1.25467 0
M  V30 1936 H 178.85 -1.78108 2.41283 0
M  V30 1937 H 176.403 -0.89781 1.27942 0
M  V30 1938 H 177.138 -3.23019 0.287948 0
M  V30 1939 H 176.923 -3.33678 2.05917 0
M  V30 1940 H 178.413 -3.96935 1.2974 0
M  V30 1941 N 178.85 -1.27639 -0.924453 0
M  V30 1942 C 180.098 -1.13941 -1.66918 0
M  V30 1943 C 180.419 0.314589 -1.92446 0
M  V30 1944 O 179.689 1.21964 -1.53303 0
M  V30 1945 H 178.269 -0.418678 -0.618642 0
M  V30 1946 H 180.931 -1.60213 -1.10985 0
M  V30 1947 H 180.027 -1.67094 -2.63602 0
M  V30 1948 N 180.328 1.1314 -1.09713 0
M  V30 1949 C 181.574 1.84757 -0.836224 0
M  V30 1950 C 181.907 1.8347 0.636598 0
M  V30 1951 O 181.182 1.27491 1.46889 0
M  V30 1952 C 181.465 3.32782 -1.37578 0
M  V30 1953 C 181.318 3.42567 -2.91493 0
M  V30 1954 C 182.637 4.28307 -1.01198 0
M  V30 1955 H 179.756 0.67082 -0.305236 0
M  V30 1956 H 182.398 1.3278 -1.35903 0
M  V30 1957 H 180.548 3.77177 -0.931097 0
M  V30 1958 H 182.22 3.06862 -3.44432 0
M  V30 1959 H 180.463 2.83349 -3.28475 0
M  V30 1960 H 181.134 4.46674 -3.24324 0
M  V30 1961 H 183.61 3.91999 -1.39556 0
M  V30 1962 H 182.486 5.30307 -1.41653 0
M  V30 1963 H 182.747 4.42029 0.0794833 0
M  V30 1964 N 181.806 0.884767 1.30421 0
M  V30 1965 C 183.052 0.503851 1.96441 0
M  V30 1966 C 183.385 -0.944518 1.69684 0
M  V30 1967 O 182.66 -1.66737 1.00145 0
M  V30 1968 C 182.943 0.779085 3.51571 0
M  V30 1969 C 182.796 2.27807 3.87846 0
M  V30 1970 C 184.115 0.255452 4.39358 0
M  V30 1971 H 181.234 0.184533 0.713524 0
M  V30 1972 H 183.876 1.10872 1.54297 0
M  V30 1973 H 182.026 0.264274 3.876 0
M  V30 1974 H 183.698 2.86127 3.61841 0
M  V30 1975 H 181.941 2.74479 3.35922 0
M  V30 1976 H 182.612 2.42125 4.96064 0
M  V30 1977 H 185.088 0.696079 4.10236 0
M  V30 1978 H 183.964 0.477361 5.4682 0
M  V30 1979 H 184.225 -0.843293 4.33983 0
M  V30 1980 N 183.284 -1.43765 0.645699 0
M  V30 1981 C 184.514 -2.05953 0.163318 0
M  V30 1982 C 184.922 -1.48432 -1.17322 0
M  V30 1983 O 184.265 -0.607295 -1.73371 0
M  V30 1984 C 184.327 -3.59499 -0.0103065 0
M  V30 1985 C 183.991 -4.39563 1.25035 0
M  V30 1986 C 184.988 -4.72108 2.17739 0
M  V30 1987 C 182.673 -4.79697 1.48983 0
M  V30 1988 C 184.667 -5.43688 3.3269 0
M  V30 1989 C 182.354 -5.51023 2.64229 0
M  V30 1990 C 183.352 -5.8294 3.55908 0
M  V30 1991 O 183.04 -6.5281 4.69142 0
M  V30 1992 H 182.772 -0.670798 0.0836986 0
M  V30 1993 H 185.326 -1.85384 0.884407 0
M  V30 1994 H 183.556 -3.78613 -0.78669 0
M  V30 1995 H 185.245 -4.03408 -0.449087 0
M  V30 1996 H 186.011 -4.41627 2.00476 0
M  V30 1997 H 181.89 -4.54266 0.785078 0
M  V30 1998 H 185.434 -5.68517 4.04269 0
M  V30 1999 H 181.331 -5.8092 2.81429 0
M  V30 2000 H 182.099 -6.71288 4.6831 0
M  V30 2001 N 184.763 -0.387143 -1.52771 0
M  V30 2002 C 185.991 0.195869 -2.05971 0
M  V30 2003 C 186.406 1.40691 -1.25903 0
M  V30 2004 O 185.763 1.79931 -0.305134 0
M  V30 2005 C 185.814 0.56812 -3.57008 0
M  V30 2006 O 185.535 -0.594803 -4.34043 0
M  V30 2007 C 187.036 1.20723 -4.26545 0
M  V30 2008 H 184.256 0.0300578 -0.670326 0
M  V30 2009 H 186.8 -0.551749 -1.96916 0
M  V30 2010 H 184.955 1.26564 -3.66143 0
M  V30 2011 H 185.369 -0.289322 -5.23701 0
M  V30 2012 H 186.843 1.41807 -5.33474 0
M  V30 2013 H 187.32 2.17395 -3.81623 0
M  V30 2014 H 187.926 0.550535 -4.21722 0
M  V30 2015 N 186.241 1.57166 -0.116904 0
M  V30 2016 C 187.466 1.999 0.55271 0
M  V30 2017 C 187.891 0.996039 1.59564 0
M  V30 2018 O 187.249 -0.032556 1.81271 0
M  V30 2019 C 187.297 3.4152 1.15742 0
M  V30 2020 O 186.401 3.44106 2.27299 0
M  V30 2021 H 185.742 0.649447 0.138258 0
M  V30 2022 H 188.272 2.03573 -0.204759 0
M  V30 2023 H 188.282 3.79684 1.49346 0
M  V30 2024 H 186.957 4.14034 0.393493 0
M  V30 2025 H 185.534 3.17759 1.9515 0
M  V30 2026 N 187.719 -0.156864 1.56817 0
M  V30 2027 C 188.996 -0.899244 1.73704 0
M  V30 2028 C 189.376 -1.99771 0.682254 0
M  V30 2029 O 188.724 -2.26515 -0.300522 0
M  V30 2030 C 188.934 -1.45075 3.17418 0
M  V30 2031 C 190.282 -1.91802 3.7881 0
M  V30 2032 O 191.306 -1.54838 3.20786 0
M  V30 2033 O 190.165 -2.5994 4.80722 0
M  V30 2034 H 187.259 -0.424267 0.709878 0
M  V30 2035 H 189.805 -0.143561 1.69092 0
M  V30 2036 H 188.577 -0.660846 3.85679 0
M  V30 2037 H 188.2 -2.27021 3.26416 0
M  V30 2038 N 189.197 -1.51736 -0.425897 0
M  V30 2039 C 190.127 -1.76827 -1.52494 0
M  V30 2040 C 191.108 -0.618524 -1.58456 0
M  V30 2041 O 192.293 -0.862416 -1.74 0
M  V30 2042 C 189.423 -1.90374 -2.90474 0
M  V30 2043 C 188.377 -3.0588 -2.99369 0
M  V30 2044 C 187.703 -3.04625 -4.3944 0
M  V30 2045 C 189.003 -4.45644 -2.72394 0
M  V30 2046 H 190.697 -2.68855 -1.31748 0
M  V30 2047 H 188.243 -1.29372 -0.632362 0
M  V30 2048 H 190.196 -2.0651 -3.6733 0
M  V30 2049 H 188.92 -0.95004 -3.12477 0
M  V30 2050 H 187.579 -2.89467 -2.24954 0
M  V30 2051 H 187.227 -2.0701 -4.58428 0
M  V30 2052 H 186.927 -3.82195 -4.46319 0
M  V30 2053 H 188.451 -3.22869 -5.18255 0
M  V30 2054 H 189.865 -4.62348 -3.38979 0
M  V30 2055 H 188.262 -5.25006 -2.9067 0
M  V30 2056 H 189.332 -4.54893 -1.67929 0
M  V30 2057 N 190.675 0.682077 -1.42076 0
M  V30 2058 C 191.922 1.44215 -1.42156 0
M  V30 2059 C 192.25 1.94468 -0.0354186 0
M  V30 2060 O 191.505 1.70816 0.955002 0
M  V30 2061 C 191.804 2.66036 -2.38662 0
M  V30 2062 C 191.47 2.34366 -3.85206 0
M  V30 2063 C 190.132 2.25439 -4.25124 0
M  V30 2064 C 192.484 2.08513 -4.77673 0
M  V30 2065 C 189.812 1.88775 -5.55501 0
M  V30 2066 C 192.164 1.73354 -6.08384 0
M  V30 2067 C 190.828 1.62933 -6.47309 0
M  V30 2068 H 190.098 0.527718 -0.520187 0
M  V30 2069 H 192.745 0.778387 -1.74967 0
M  V30 2070 H 191.05 3.3741 -1.99152 0
M  V30 2071 H 192.747 3.24205 -2.35991 0
M  V30 2072 H 189.337 2.42213 -3.53597 0
M  V30 2073 H 193.521 2.14346 -4.47626 0
M  V30 2074 H 188.777 1.7927 -5.84527 0
M  V30 2075 H 192.951 1.52373 -6.79526 0
M  V30 2076 H 190.578 1.34292 -7.48244 0
M  V30 2077 N 192.153 1.28127 0.917671 0
M  V30 2078 C 193.116 1.11744 2.00115 0
M  V30 2079 C 194.116 0.0583052 1.60694 0
M  V30 2080 O 195.306 0.303755 1.71531 0
M  V30 2081 C 192.438 0.704862 3.33533 0
M  V30 2082 H 193.631 2.07966 2.16079 0
M  V30 2083 H 191.184 1.11058 1.09981 0
M  V30 2084 H 191.919 -0.258299 3.2327 0
M  V30 2085 H 191.704 1.4699 3.63505 0
M  V30 2086 H 193.194 0.612768 4.1308 0
M  V30 2087 N 193.631 -1.12557 1.10312 0
M  V30 2088 C 194.859 -1.87864 0.866873 0
M  V30 2089 C 195.274 -1.79588 -0.582557 0
M  V30 2090 O 194.631 -1.16887 -1.40156 0
M  V30 2091 C 194.682 -3.37125 1.30496 0
M  V30 2092 O 194.403 -3.45201 2.69755 0
M  V30 2093 C 195.904 -4.29373 1.10243 0
M  V30 2094 H 193.124 -0.594452 0.311236 0
M  V30 2095 H 195.668 -1.42429 1.46745 0
M  V30 2096 H 193.823 -3.80109 0.748081 0
M  V30 2097 H 194.237 -4.38056 2.88457 0
M  V30 2098 H 195.711 -5.32394 1.45811 0
M  V30 2099 H 196.188 -4.39181 0.0409492 0
M  V30 2100 H 196.794 -3.92169 1.64571 0
M  V30 2101 N 195.109 -0.891671 -1.2995 0
M  V30 2102 C 196.041 -0.320695 -2.26945 0
M  V30 2103 C 197.054 0.528497 -1.53983 0
M  V30 2104 O 198.243 0.346959 -1.75096 0
M  V30 2105 C 195.343 0.562066 -3.34207 0
M  V30 2106 C 194.516 -0.259576 -4.36629 0
M  V30 2107 C 193.575 0.554739 -5.23268 0
M  V30 2108 O 192.601 -0.0249311 -5.69195 0
M  V30 2109 N 193.803 1.8625 -5.4981 0
M  V30 2110 H 196.568 -1.15432 -2.76578 0
M  V30 2111 H 194.129 -0.755336 -1.432 0
M  V30 2112 H 196.121 1.11304 -3.89093 0
M  V30 2113 H 194.691 1.29637 -2.84452 0
M  V30 2114 H 193.911 -0.991986 -3.81514 0
M  V30 2115 H 195.199 -0.822564 -5.02107 0
M  V30 2116 H 194.597 2.35628 -5.14292 0
M  V30 2117 H 193.154 2.36078 -6.07545 0
M  V30 2118 N 196.587 1.43421 -0.653314 0
M  V30 2119 C 197.864 1.95361 -0.0966581 0
M  V30 2120 C 198.244 1.59461 1.38331 0
M  V30 2121 O 197.592 0.879777 2.10884 0
M  V30 2122 C 197.802 3.47311 -0.342988 0
M  V30 2123 C 199.15 4.23875 -0.24798 0
M  V30 2124 O 200.174 3.55133 -0.275553 0
M  V30 2125 O 199.033 5.4623 -0.171771 0
M  V30 2126 H 196.127 0.826945 0.00956291 0
M  V30 2127 H 198.673 1.5336 -0.726558 0
M  V30 2128 H 197.445 3.66569 -1.36906 0
M  V30 2129 H 197.068 3.9631 0.319975 0
M  V30 2130 N 198.065 0.39524 1.52563 0
M  V30 2131 C 199.476 -0.0774719 1.86539 0
M  V30 2132 C 199.827 -1.45641 1.31466 0
M  V30 2133 O 198.952 -2.06459 0.648367 0
M  V30 2134 C 199.547 -0.147356 3.38479 0
M  V30 2135 C 198.106 -0.564373 3.72145 0
M  V30 2136 C 197.253 0.269919 2.75983 0
M  V30 2137 H 200.204 0.612876 1.46388 0
M  V30 2138 H 200.225 -0.965343 3.68051 0
M  V30 2139 H 199.737 0.856387 3.78534 0
M  V30 2140 H 197.838 -1.57527 3.37663 0
M  V30 2141 H 197.951 -0.318402 4.78041 0
M  V30 2142 H 196.315 -0.265696 2.5331 0
M  V30 2143 H 197.098 1.27175 3.18875 0
M  V30 2144 N 199.544 -1.57102 0.125237 0
M  V30 2145 C 200.476 -2.12726 -0.853237 0
M  V30 2146 C 201.489 -1.07145 -1.22571 0
M  V30 2147 O 202.678 -1.34497 -1.17358 0
M  V30 2148 C 199.778 -2.61709 -2.15317 0
M  V30 2149 C 198.951 -3.91456 -1.95143 0
M  V30 2150 C 198.01 -4.25973 -3.08923 0
M  V30 2151 O 197.036 -4.94682 -2.81564 0
M  V30 2152 N 198.238 -3.83795 -4.35524 0
M  V30 2153 H 201.003 -2.97307 -0.377964 0
M  V30 2154 H 198.564 -1.61792 -0.0590011 0
M  V30 2155 H 200.556 -2.81826 -2.90441 0
M  V30 2156 H 199.126 -1.81974 -2.54174 0
M  V30 2157 H 198.346 -3.80185 -1.04177 0
M  V30 2158 H 199.634 -4.76283 -1.78976 0
M  V30 2159 H 199.032 -3.2839 -4.60626 0
M  V30 2160 H 197.589 -4.09008 -5.07499 0
M  V30 2161 N 201.022 0.148545 -1.56898 0
M  V30 2162 C 202.271 0.85984 -1.82454 0
M  V30 2163 C 202.584 1.82406 -0.706229 0
M  V30 2164 O 203.79 2.57938 -0.847349 0
M  V30 2165 C 202.246 1.57967 -3.2338 0
M  V30 2166 C 201.854 0.65794 -4.43142 0
M  V30 2167 C 203.598 2.27784 -3.58211 0
M  V30 2168 C 201.505 1.3793 -5.75091 0
M  V30 2169 H 200.435 0.324834 -0.68044 0
M  V30 2170 H 203.086 0.112588 -1.83154 0
M  V30 2171 H 201.468 2.37249 -3.17063 0
M  V30 2172 H 202.642 -0.0995497 -4.60692 0
M  V30 2173 H 200.957 0.0682643 -4.16344 0
M  V30 2174 H 203.554 2.8239 -4.54048 0
M  V30 2175 H 203.897 3.04204 -2.84193 0
M  V30 2176 H 204.43 1.55421 -3.66182 0
M  V30 2177 H 201.169 0.656982 -6.52199 0
M  V30 2178 H 200.689 2.10954 -5.61479 0
M  V30 2179 H 202.368 1.92063 -6.17835 0
M  V30 2180 N 202.5 1.5196 0.417844 0
M  V30 2181 C 203.41 1.77554 1.53336 0
M  V30 2182 C 204.426 0.660655 1.6097 0
M  V30 2183 O 205.602 0.945099 1.77848 0
M  V30 2184 C 202.667 1.91291 2.89152 0
M  V30 2185 C 201.728 3.15183 2.91475 0
M  V30 2186 C 200.961 3.28256 4.20813 0
M  V30 2187 O 201.184 2.46798 5.14244 0
M  V30 2188 O 200.118 4.21356 4.29817 0
M  V30 2189 H 203.944 2.7222 1.34647 0
M  V30 2190 H 201.529 1.36698 0.602828 0
M  V30 2191 H 203.411 2.02199 3.69721 0
M  V30 2192 H 202.086 0.998129 3.07927 0
M  V30 2193 H 200.993 3.09739 2.09791 0
M  V30 2194 H 202.326 4.06414 2.77648 0
M  V30 2195 N 203.978 -0.674533 1.42435 0
M  V30 2196 C 204.925 -1.78807 1.45934 0
M  V30 2197 C 205.895 -1.63157 0.311271 0
M  V30 2198 O 207.08 -1.83707 0.515383 0
M  V30 2199 C 204.22 -3.16839 1.36773 0
M  V30 2200 C 203.333 -3.43774 2.61617 0
M  V30 2201 C 202.468 -4.71536 2.44597 0
M  V30 2202 C 201.507 -4.91505 3.64814 0
M  V30 2203 N 200.644 -6.10508 3.46734 0
M  V30 2204 H 205.484 -1.75151 2.41093 0
M  V30 2205 H 203.021 -0.85504 1.19697 0
M  V30 2206 H 204.979 -3.96606 1.29459 0
M  V30 2207 H 203.609 -3.19619 0.452089 0
M  V30 2208 H 202.661 -2.58259 2.79297 0
M  V30 2209 H 203.973 -3.54423 3.50978 0
M  V30 2210 H 203.127 -5.59393 2.3487 0
M  V30 2211 H 201.866 -4.6317 1.52726 0
M  V30 2212 H 200.871 -4.0209 3.74972 0
M  V30 2213 H 202.096 -5.01716 4.57665 0
M  V30 2214 H 200.042 -6.03315 2.5758 0
M  V30 2215 H 199.959 -6.2202 4.29682 0
M  V30 2216 H 201.227 -7.01044 3.40819 0
M  V30 2217 N 205.456 -1.28612 -0.910864 0
M  V30 2218 C 206.684 -1.18792 -1.69399 0
M  V30 2219 C 207.099 0.253039 -1.87097 0
M  V30 2220 O 206.456 1.17071 -1.40003 0
M  V30 2221 C 206.507 -1.88511 -3.08457 0
M  V30 2222 O 206.228 -3.26979 -2.91576 0
M  V30 2223 C 207.729 -1.85029 -4.02839 0
M  V30 2224 H 204.949 -0.412233 -0.529438 0
M  V30 2225 H 207.493 -1.69788 -1.13984 0
M  V30 2226 H 205.648 -1.41379 -3.60681 0
M  V30 2227 H 206.062 -3.61936 -3.79608 0
M  V30 2228 H 207.536 -2.38395 -4.97867 0
M  V30 2229 H 208.013 -0.823303 -4.31414 0
M  V30 2230 H 208.619 -2.31853 -3.56545 0
M  V30 2231 N 206.934 1.1197 -1.10907 0
M  V30 2232 C 208.181 1.83588 -0.854507 0
M  V30 2233 C 208.509 1.84357 0.6199 0
M  V30 2234 O 207.764 1.28809 1.47332 0
M  V30 2235 C 208.063 3.30749 -1.35425 0
M  V30 2236 C 207.729 3.50146 -2.84093 0
M  V30 2237 C 206.391 3.55148 -3.2469 0
M  V30 2238 C 208.743 3.56857 -3.79872 0
M  V30 2239 C 206.071 3.6441 -4.59806 0
M  V30 2240 C 208.423 3.6765 -5.14797 0
M  V30 2241 C 207.087 3.7091 -5.54961 0
M  V30 2242 H 206.357 0.671795 -0.312686 0
M  V30 2243 H 209.004 1.32091 -1.38652 0
M  V30 2244 H 207.309 3.84703 -0.742361 0
M  V30 2245 H 209.006 3.8464 -1.1337 0
M  V30 2246 H 205.596 3.46919 -2.51685 0
M  V30 2247 H 209.78 3.52258 -3.49611 0
M  V30 2248 H 205.036 3.65208 -4.9034 0
M  V30 2249 H 209.21 3.71786 -5.88853 0
M  V30 2250 H 206.837 3.7784 -6.59652 0
M  V30 2251 N 208.412 0.89855 1.29475 0
M  V30 2252 C 209.322 0.379974 2.31502 0
M  V30 2253 C 210.338 -0.524695 1.659 0
M  V30 2254 O 211.514 -0.414551 1.97087 0
M  V30 2255 C 208.579 -0.385138 3.44554 0
M  V30 2256 C 207.64 0.550914 4.2575 0
M  V30 2257 C 206.873 -0.177778 5.33404 0
M  V30 2258 O 207.096 -1.40189 5.52904 0
M  V30 2259 O 206.03 0.479106 5.9999 0
M  V30 2260 H 209.856 1.22639 2.77837 0
M  V30 2261 H 207.441 0.662834 1.33891 0
M  V30 2262 H 209.323 -0.817841 4.13388 0
M  V30 2263 H 207.998 -1.20763 3.0033 0
M  V30 2264 H 206.905 1.03271 3.59564 0
M  V30 2265 H 208.238 1.33979 4.73614 0
M  V30 2266 N 209.89 -1.43072 0.660911 0
M  V30 2267 C 211.136 -2.0202 0.177708 0
M  V30 2268 C 211.469 -1.52066 -1.20787 0
M  V30 2269 O 210.744 -0.716987 -1.80802 0
M  V30 2270 C 211.027 -3.59561 0.197019 0
M  V30 2271 C 210.88 -4.19727 1.61706 0
M  V30 2272 C 212.199 -4.37664 -0.462396 0
M  V30 2273 H 209.318 -0.734034 0.0660494 0
M  V30 2274 H 211.96 -1.70272 0.843058 0
M  V30 2275 H 210.11 -3.86739 -0.369527 0
M  V30 2276 H 211.782 -4.03553 2.23479 0
M  V30 2277 H 210.025 -3.76084 2.16201 0
M  V30 2278 H 210.696 -5.28834 1.58237 0
M  V30 2279 H 213.172 -4.16095 0.0197215 0
M  V30 2280 H 212.048 -5.47305 -0.418188 0
M  V30 2281 H 212.309 -4.14493 -1.53778 0
M  V30 2282 N 211.368 -0.403325 -1.52352 0
M  V30 2283 C 212.316 0.439752 -2.28405 0
M  V30 2284 C 213.31 1.05089 -1.32863 0
M  V30 2285 O 214.516 0.989759 -1.50345 0
M  V30 2286 H 210.891 0.160587 -0.734653 0
M  V30 2287 H 212.862 -0.222983 -2.97566 0
M  V30 2288 C 211.611 1.54736 -3.11371 0
M  V30 2289 H 210.934 1.08643 -3.84755 0
M  V30 2290 H 212.374 2.1112 -3.67701 0
M  V30 2291 C 210.833 2.51141 -2.24566 0
M  V30 2292 O 211.363 3.54887 -1.88196 0
M  V30 2293 N 209.569 2.21213 -1.8845 0
M  V30 2294 H 209.116 1.36878 -2.18225 0
M  V30 2295 H 209.074 2.85963 -1.30662 0
M  V30 2296 N 212.846 1.57033 -0.133567 0
M  V30 2297 C 214.092 1.95976 0.521649 0
M  V30 2298 C 214.425 1.01779 1.65393 0
M  V30 2299 O 213.7 0.0576581 1.94415 0
M  V30 2300 C 213.983 3.44738 1.04057 0
M  V30 2301 C 213.836 4.49711 -0.0892897 0
M  V30 2302 C 215.155 3.95682 1.92675 0
M  V30 2303 H 212.274 0.712579 0.188149 0
M  V30 2304 H 214.916 1.88813 -0.212076 0
M  V30 2305 H 213.066 3.50973 1.66583 0
M  V30 2306 H 214.738 4.55565 -0.725152 0
M  V30 2307 H 212.981 4.27261 -0.750378 0
M  V30 2308 H 213.652 5.51099 0.315284 0
M  V30 2309 H 216.128 3.91841 1.39998 0
M  V30 2310 H 215.004 5.00262 2.25897 0
M  V30 2311 H 215.265 3.37239 2.85872 0
M  V30 2312 N 214.325 -0.140222 1.56975 0
M  V30 2313 C 215.255 -1.17456 2.01808 0
M  V30 2314 C 216.236 -1.44415 0.898794 0
M  V30 2315 O 217.421 -1.5522 1.16707 0
M  V30 2316 C 214.551 -2.50607 2.40444 0
M  V30 2317 C 213.505 -2.38155 3.55621 0
M  V30 2318 C 212.831 -3.76078 3.80091 0
M  V30 2319 C 214.131 -1.85991 4.88062 0
M  V30 2320 H 215.825 -0.801743 2.88466 0
M  V30 2321 H 213.371 -0.38422 1.38779 0
M  V30 2322 H 215.324 -3.23197 2.7041 0
M  V30 2323 H 214.048 -2.89737 1.50732 0
M  V30 2324 H 212.707 -1.68016 3.25832 0
M  V30 2325 H 212.355 -4.12656 2.87618 0
M  V30 2326 H 212.055 -3.68606 4.57606 0
M  V30 2327 H 213.579 -4.50206 4.12488 0
M  V30 2328 H 214.993 -2.4838 5.16701 0
M  V30 2329 H 213.39 -1.89393 5.6943 0
M  V30 2330 H 214.46 -0.816023 4.77984 0
M  V30 2331 N 215.803 -1.52179 -0.40978 0
M  V30 2332 C 216.766 -1.74853 -1.48186 0
M  V30 2333 C 217.766 -0.618417 -1.48433 0
M  V30 2334 O 218.956 -0.886286 -1.49969 0
M  V30 2335 C 216.088 -1.8303 -2.87598 0
M  V30 2336 H 217.281 -2.70559 -1.29374 0
M  V30 2337 H 214.834 -1.42586 -0.640233 0
M  V30 2338 H 215.569 -0.89236 -3.11781 0
M  V30 2339 H 215.354 -2.65187 -2.88822 0
M  V30 2340 H 216.844 -2.02316 -3.65319 0
M  V30 2341 N 217.281 0.66697 -1.42791 0
M  V30 2342 C 218.231 1.77313 -1.43332 0
M  V30 2343 C 219.215 1.5801 -0.303586 0
M  V30 2344 O 220.407 1.68356 -0.546385 0
M  V30 2345 C 217.536 3.15822 -1.34578 0
M  V30 2346 C 216.622 3.40721 -2.52528 0
M  V30 2347 N 217.013 3.36162 -3.77927 0
M  V30 2348 C 215.311 3.71387 -2.46956 0
M  V30 2349 C 216.012 3.60762 -4.56318 0
M  V30 2350 N 214.988 3.81908 -3.86843 0
M  V30 2351 H 218.79 1.72193 -2.38174 0
M  V30 2352 H 216.304 0.868114 -1.3725 0
M  V30 2353 H 218.301 3.951 -1.33048 0
M  V30 2354 H 216.961 3.22133 -0.407453 0
M  V30 2355 H 217.972 3.15885 -4.10411 0
M  V30 2356 H 214.649 3.84897 -1.61743 0
M  V30 2357 H 216.039 3.63132 -5.65318 0
M  V30 2358 N 218.759 1.29093 0.90403 0
M  V30 2359 C 220.006 1.16813 1.65411 0
M  V30 2360 C 220.334 -0.28128 1.92455 0
M  V30 2361 O 219.589 -1.22006 1.53013 0
M  V30 2362 C 219.888 1.92224 3.01305 0
M  V30 2363 C 219.554 3.41968 2.93885 0
M  V30 2364 C 218.216 3.82807 2.91569 0
M  V30 2365 C 220.568 4.37409 2.83413 0
M  V30 2366 C 217.896 5.1741 2.76594 0
M  V30 2367 C 220.248 5.72097 2.69977 0
M  V30 2368 C 218.912 6.12199 2.66024 0
M  V30 2369 H 218.182 0.42745 0.605283 0
M  V30 2370 H 220.829 1.59981 1.05254 0
M  V30 2371 H 219.134 1.41635 3.65304 0
M  V30 2372 H 220.831 1.80131 3.58265 0
M  V30 2373 H 217.421 3.09504 2.96488 0
M  V30 2374 H 221.605 4.06813 2.84283 0
M  V30 2375 H 216.861 5.47596 2.71935 0
M  V30 2376 H 221.035 6.45704 2.60844 0
M  V30 2377 H 218.662 7.16448 2.54178 0
M  V30 2378 N 220.237 -1.11381 1.11499 0
M  V30 2379 C 221.483 -1.83597 0.875423 0
M  V30 2380 C 221.838 -1.83048 -0.592555 0
M  V30 2381 O 221.131 -1.27304 -1.43193 0
M  V30 2382 C 221.325 -3.30026 1.37177 0
M  V30 2383 C 221.154 -3.44837 2.88647 0
M  V30 2384 C 219.924 -3.57825 3.56776 0
M  V30 2385 C 222.122 -3.3907 3.86699 0
M  V30 2386 N 220.104 -3.61113 4.96458 0
M  V30 2387 C 221.475 -3.48986 5.12454 0
M  V30 2388 C 223.53 -3.22605 3.7925 0
M  V30 2389 C 222.233 -3.44135 6.31636 0
M  V30 2390 C 224.259 -3.19072 4.97943 0
M  V30 2391 C 223.621 -3.29559 6.22551 0
M  V30 2392 H 219.72 -0.687044 0.37349 0
M  V30 2393 H 222.304 -1.33265 1.41946 0
M  V30 2394 H 220.475 -3.78874 0.854919 0
M  V30 2395 H 222.207 -3.90153 1.07529 0
M  V30 2396 H 218.962 -3.60414 3.07244 0
M  V30 2397 H 219.386 -3.66394 5.69284 0
M  V30 2398 H 224.028 -3.13382 2.83816 0
M  V30 2399 H 221.746 -3.52126 7.27347 0
M  V30 2400 H 225.332 -3.07498 4.93899 0
M  V30 2401 H 224.212 -3.26815 7.12855 0
M  V30 2402 N 221.715 -0.905404 -1.28997 0
M  V30 2403 C 222.943 -0.549846 -1.9946 0
M  V30 2404 C 223.358 0.866834 -1.67724 0
M  V30 2405 O 222.715 1.57298 -0.925404 0
M  V30 2406 C 222.766 -0.739387 -3.53858 0
M  V30 2407 O 222.487 -2.10031 -3.84472 0
M  V30 2408 C 223.988 -0.389541 -4.41585 0
M  V30 2409 H 221.208 -0.210429 -0.637151 0
M  V30 2410 H 223.752 -1.21632 -1.64396 0
M  V30 2411 H 221.907 -0.120023 -3.87214 0
M  V30 2412 H 222.321 -2.13385 -4.79132 0
M  V30 2413 H 223.795 -0.572972 -5.49018 0
M  V30 2414 H 224.272 0.673756 -4.34001 0
M  V30 2415 H 224.878 -0.986089 -4.1371 0
M  V30 2416 N 223.193 1.4272 -0.668489 0
M  V30 2417 C 224.421 2.05966 -0.196348 0
M  V30 2418 C 224.836 1.50191 1.14403 0
M  V30 2419 O 224.193 0.639208 1.7094 0
M  V30 2420 C 224.244 3.61314 -0.115815 0
M  V30 2421 O 223.965 4.1502 -1.40322 0
M  V30 2422 C 225.466 4.41663 0.380579 0
M  V30 2423 H 222.686 0.663954 -0.0969829 0
M  V30 2424 H 225.23 1.82966 -0.913446 0
M  V30 2425 H 223.385 3.83448 0.551931 0
M  V30 2426 H 223.799 5.08832 -1.27243 0
M  V30 2427 H 225.273 5.5065 0.385848 0
M  V30 2428 H 225.75 4.15792 1.41471 0
M  V30 2429 H 226.356 4.24534 -0.255209 0
M  V30 2430 N 224.671 0.411399 1.52136 0
M  V30 2431 C 225.618 -0.412975 2.27075 0
M  V30 2432 C 226.588 -1.03912 1.29582 0
M  V30 2433 O 227.773 -1.06296 1.58448 0
M  V30 2434 C 224.913 -1.52247 3.09701 0
M  V30 2435 C 224.026 -0.917021 4.22155 0
M  V30 2436 C 223.161 -1.9994 4.92135 0
M  V30 2437 C 222.2 -1.37101 5.96548 0
M  V30 2438 N 221.337 -2.39364 6.60038 0
M  V30 2439 H 226.177 0.232499 2.97092 0
M  V30 2440 H 223.714 0.126496 1.46555 0
M  V30 2441 H 225.672 -2.17674 3.55913 0
M  V30 2442 H 224.302 -2.13794 2.41851 0
M  V30 2443 H 223.354 -0.151742 3.80097 0
M  V30 2444 H 224.666 -0.418006 4.97045 0
M  V30 2445 H 223.82 -2.73088 5.41763 0
M  V30 2446 H 222.559 -2.53208 4.16818 0
M  V30 2447 H 221.564 -0.624873 5.46237 0
M  V30 2448 H 222.789 -0.845998 6.7381 0
M  V30 2449 H 220.735 -2.91759 5.87548 0
M  V30 2450 H 220.652 -1.9428 7.3061 0
M  V30 2451 H 221.92 -3.12074 7.14304 0
M  V30 2452 N 226.149 -1.5696 0.141893 0
M  V30 2453 C 227.112 -2.15316 -0.785587 0
M  V30 2454 C 228.112 -1.09366 -1.1788 0
M  V30 2455 O 229.302 -1.35031 -1.10056 0
M  V30 2456 C 226.434 -2.71211 -2.06537 0
M  V30 2457 H 227.627 -2.98608 -0.278041 0
M  V30 2458 H 225.18 -1.5593 -0.107519 0
M  V30 2459 H 225.915 -1.91571 -2.6167 0
M  V30 2460 H 225.7 -3.4872 -1.79268 0
M  V30 2461 H 227.19 -3.16189 -2.72789 0
M  V30 2462 N 227.627 0.131896 -1.57047 0
M  V30 2463 C 228.874 0.841932 -1.84168 0
M  V30 2464 C 229.202 1.8048 -0.725066 0
M  V30 2465 O 228.457 1.93618 0.284692 0
M  V30 2466 C 228.756 1.63703 -3.17704 0
M  V30 2467 C 228.422 0.81961 -4.43388 0
M  V30 2468 C 227.084 0.594148 -4.77518 0
M  V30 2469 C 229.436 0.248977 -5.20605 0
M  V30 2470 C 226.764 -0.212409 -5.86315 0
M  V30 2471 C 229.116 -0.544701 -6.30251 0
M  V30 2472 C 227.78 -0.780599 -6.6292 0
M  V30 2473 H 227.05 0.308085 -0.673917 0
M  V30 2474 H 229.697 0.104867 -1.91213 0
M  V30 2475 H 228.002 2.44464 -3.06177 0
M  V30 2476 H 229.699 2.19015 -3.35907 0
M  V30 2477 H 226.289 1.00542 -4.16641 0
M  V30 2478 H 230.473 0.410408 -4.946 0
M  V30 2479 H 225.729 -0.404524 -6.1006 0
M  V30 2480 H 229.903 -0.993922 -6.89271 0
M  V30 2481 H 227.53 -1.40742 -7.47058 0
M  V30 2482 N 229.106 1.52395 0.401703 0
M  V30 2483 C 230.036 1.79231 1.49661 0
M  V30 2484 C 231.017 0.643654 1.57452 0
M  V30 2485 O 232.202 0.889989 1.72606 0
M  V30 2486 C 229.332 1.94971 2.87409 0
M  V30 2487 C 228.286 3.10604 2.94465 0
M  V30 2488 C 227.612 3.11577 4.34538 0
M  V30 2489 C 228.912 4.49921 2.6527 0
M  V30 2490 H 230.606 2.70917 1.27454 0
M  V30 2491 H 228.152 1.30362 0.6117 0
M  V30 2492 H 230.105 2.12328 3.63999 0
M  V30 2493 H 228.829 0.999632 3.10926 0
M  V30 2494 H 227.488 2.93009 2.20321 0
M  V30 2495 H 227.136 2.14277 4.55076 0
M  V30 2496 H 226.836 3.89247 4.40183 0
M  V30 2497 H 228.36 3.31073 5.13053 0
M  V30 2498 H 229.774 4.67683 3.31581 0
M  V30 2499 H 228.171 5.29564 2.82281 0
M  V30 2500 H 229.241 4.57507 1.60671 0
M  V30 2501 N 230.584 -0.659388 1.43143 0
M  V30 2502 C 231.995 -1.24041 1.39537 0
M  V30 2503 C 232.346 -1.95963 0.0963364 0
M  V30 2504 O 231.471 -2.00892 -0.804438 0
M  V30 2505 C 232.066 -2.25601 2.52764 0
M  V30 2506 C 230.625 -2.79195 2.52443 0
M  V30 2507 C 229.772 -1.53743 2.30778 0
M  V30 2508 H 232.723 -0.451792 1.52133 0
M  V30 2509 H 232.744 -3.07651 2.23899 0
M  V30 2510 H 232.256 -1.73226 3.47296 0
M  V30 2511 H 230.357 -3.35649 1.61773 0
M  V30 2512 H 230.47 -3.2716 3.50004 0
M  V30 2513 H 228.834 -1.80869 1.79328 0
M  V30 2514 H 229.617 -1.03312 3.27386 0
M  V30 2515 N 232.062 -1.29571 -0.897171 0
M  V30 2516 C 233.025 -1.14913 -1.98312 0
M  V30 2517 C 234.025 -0.0838629 -1.60581 0
M  V30 2518 O 235.215 -0.331006 -1.71026 0
M  V30 2519 C 232.347 -0.757835 -3.3237 0
M  V30 2520 H 233.54 -2.11377 -2.12743 0
M  V30 2521 H 231.093 -1.12793 -1.08201 0
M  V30 2522 H 231.828 0.206837 -3.2364 0
M  V30 2523 H 231.613 -1.52755 -3.61121 0
M  V30 2524 H 233.103 -0.678408 -4.12053 0
M  V30 2525 N 233.54 1.10788 -1.12088 0
M  V30 2526 C 234.473 2.16237 -0.729168 0
M  V30 2527 C 235.451 1.60207 0.277921 0
M  V30 2528 O 236.635 1.87707 0.172737 0
M  V30 2529 C 233.762 3.38609 -0.0786848 0
M  V30 2530 C 232.808 4.13322 -1.05201 0
M  V30 2531 S 233.641 4.69371 -2.57781 0
M  V30 2532 C 234.797 5.95058 -1.94053 0
M  V30 2533 H 235.03 2.4913 -1.62239 0
M  V30 2534 H 232.563 1.22519 -0.939603 0
M  V30 2535 H 234.521 4.09473 0.290254 0
M  V30 2536 H 233.182 3.03962 0.791593 0
M  V30 2537 H 232.375 5.01051 -0.544433 0
M  V30 2538 H 231.977 3.48251 -1.36371 0
M  V30 2539 H 234.269 6.65278 -1.28107 0
M  V30 2540 H 235.212 6.50472 -2.79807 0
M  V30 2541 H 235.62 5.46918 -1.39787 0
M  V30 2542 N 235.018 0.912232 1.28515 0
M  V30 2543 C 236.246 0.560416 1.99166 0
M  V30 2544 C 236.661 -0.857927 1.68182 0
M  V30 2545 O 236.018 -1.56805 0.933733 0
M  V30 2546 C 236.069 0.758142 3.53461 0
M  V30 2547 O 235.79 2.12067 3.83352 0
M  V30 2548 C 237.291 0.412954 4.41372 0
M  V30 2549 H 234.511 0.213805 0.636026 0
M  V30 2550 H 237.055 1.22502 1.63749 0
M  V30 2551 H 235.21 0.140556 3.87145 0
M  V30 2552 H 235.624 2.15923 4.77993 0
M  V30 2553 H 237.098 0.60208 5.48707 0
M  V30 2554 H 237.575 -0.65073 4.34353 0
M  V30 2555 H 238.181 1.00802 4.13182 0
M  V30 2556 N 236.496 -1.42363 0.676048 0
M  V30 2557 C 237.443 -2.308 -0.00150904 0
M  V30 2558 C 238.413 -1.46032 -0.791444 0
M  V30 2559 O 239.598 -1.74861 -0.76344 0
M  V30 2560 C 236.738 -3.31883 -0.945919 0
M  V30 2561 C 235.851 -4.31741 -0.149675 0
M  V30 2562 C 234.986 -5.19898 -1.08995 0
M  V30 2563 C 234.025 -6.11434 -0.285465 0
M  V30 2564 N 233.162 -6.92138 -1.17851 0
M  V30 2565 H 238.002 -2.88187 0.758455 0
M  V30 2566 H 235.539 -1.41952 0.38576 0
M  V30 2567 H 237.497 -3.89019 -1.50731 0
M  V30 2568 H 236.127 -2.76093 -1.6725 0
M  V30 2569 H 235.179 -3.76713 0.528359 0
M  V30 2570 H 236.491 -4.96534 0.474866 0
M  V30 2571 H 235.645 -5.81772 -1.72123 0
M  V30 2572 H 234.384 -4.55284 -1.74837 0
M  V30 2573 H 233.389 -5.48627 0.359018 0
M  V30 2574 H 234.614 -6.78097 0.368883 0
M  V30 2575 H 232.56 -6.30152 -1.82332 0
M  V30 2576 H 232.477 -7.53542 -0.609082 0
M  V30 2577 H 233.745 -7.58499 -1.79722 0
M  V30 2578 N 237.974 -0.419461 -1.51915 0
M  V30 2579 C 238.922 0.415502 -2.28859 0
M  V30 2580 C 239.916 1.03674 -1.3397 0
M  V30 2581 O 241.122 0.973757 -1.51387 0
M  V30 2582 H 237.497 0.152786 -0.736315 0
M  V30 2583 H 239.468 -0.254531 -2.97312 0
M  V30 2584 C 238.217 1.51425 -3.12995 0
M  V30 2585 H 237.54 1.04556 -3.85886 0
M  V30 2586 H 238.98 2.07208 -3.6992 0
M  V30 2587 C 237.439 2.48745 -2.27217 0
M  V30 2588 O 237.969 3.52871 -1.9195 0
M  V30 2589 N 236.175 2.19202 -1.90785 0
M  V30 2590 H 235.722 1.34556 -2.19664 0
M  V30 2591 H 235.68 2.84561 -1.33687 0
M  V30 2592 N 239.452 1.56882 -0.150215 0
M  V30 2593 C 240.4 2.18214 0.805313 0
M  V30 2594 C 241.394 1.14006 1.25296 0
M  V30 2595 O 242.6 1.3225 1.22107 0
M  V30 2596 H 238.975 0.698762 0.277913 0
M  V30 2597 H 240.946 2.97231 0.263862 0
M  V30 2598 C 239.695 2.82065 2.03309 0
M  V30 2599 H 239.018 3.61968 1.69763 0
M  V30 2600 H 240.458 3.28477 2.68103 0
M  V30 2601 C 238.917 1.80739 2.84315 0
M  V30 2602 O 239.447 1.27983 3.80767 0
M  V30 2603 N 237.653 1.4997 2.48913 0
M  V30 2604 H 237.2 1.93062 1.70542 0
M  V30 2605 H 237.158 0.824217 3.03404 0
M  V30 2606 N 240.93 -0.123565 1.57115 0
M  V30 2607 C 241.88 -1.1575 1.96433 0
M  V30 2608 C 242.864 -1.37313 0.838686 0
M  V30 2609 O 244.056 -1.38482 1.10235 0
M  V30 2610 C 241.185 -2.48526 2.36833 0
M  V30 2611 C 240.271 -2.30457 3.5602 0
M  V30 2612 N 240.662 -1.8219 4.71848 0
M  V30 2613 C 238.96 -2.61129 3.61563 0
M  V30 2614 C 239.661 -1.77721 5.53886 0
M  V30 2615 N 238.637 -2.21899 4.96248 0
M  V30 2616 H 242.439 -0.776797 2.83449 0
M  V30 2617 H 239.953 -0.331364 1.58983 0
M  V30 2618 H 241.95 -3.233 2.63216 0
M  V30 2619 H 240.61 -2.87358 1.5118 0
M  V30 2620 H 241.621 -1.51805 4.95152 0
M  V30 2621 H 238.298 -3.03678 2.86507 0
M  V30 2622 H 239.688 -1.41697 6.56789 0
M  V30 2623 N 242.408 -1.52605 -0.393616 0
M  V30 2624 C 243.656 -1.67093 -1.13685 0
M  V30 2625 C 243.977 -0.411011 -1.90619 0
M  V30 2626 O 243.247 0.574491 -1.87287 0
M  V30 2627 H 241.827 -0.615923 -0.422668 0
M  V30 2628 H 244.489 -1.89704 -0.447039 0
M  V30 2629 H 243.585 -2.51922 -1.84232 0
M  V30 2630 N 243.887 0.651787 -1.4349 0
M  V30 2631 C 244.837 1.75783 -1.45205 0
M  V30 2632 C 245.821 1.57679 -0.320328 0
M  V30 2633 O 247.013 1.67767 -0.564211 0
M  V30 2634 C 244.142 3.14377 -1.3792 0
M  V30 2635 C 243.228 3.38023 -2.56127 0
M  V30 2636 N 243.619 3.32135 -3.81471 0
M  V30 2637 C 241.917 3.68747 -2.50882 0
M  V30 2638 C 242.618 3.55902 -4.60118 0
M  V30 2639 N 241.594 3.77783 -3.90872 0
M  V30 2640 H 245.396 1.69657 -2.39987 0
M  V30 2641 H 242.91 0.853508 -1.38163 0
M  V30 2642 H 244.907 3.93666 -1.37231 0
M  V30 2643 H 243.567 3.21683 -0.441596 0
M  V30 2644 H 244.578 3.11515 -4.13738 0
M  V30 2645 H 241.255 3.8316 -1.65816 0
M  V30 2646 H 242.645 3.57116 -5.69138 0
M  V30 2647 N 245.365 1.30045 0.890287 0
M  V30 2648 C 246.614 1.17929 1.63633 0
M  V30 2649 C 246.927 -0.266204 1.9378 0
M  V30 2650 O 248.133 -0.508804 2.6669 0
M  V30 2651 C 246.589 2.06317 2.94892 0
M  V30 2652 C 246.197 3.55745 2.72305 0
M  V30 2653 C 247.941 2.0295 3.72843 0
M  V30 2654 C 245.848 4.36205 3.99348 0
M  V30 2655 H 244.778 0.437782 0.613892 0
M  V30 2656 H 247.429 1.54754 0.986075 0
M  V30 2657 H 245.811 1.6237 3.61182 0
M  V30 2658 H 246.985 4.07805 2.1455 0
M  V30 2659 H 245.3 3.6088 2.07737 0
M  V30 2660 H 247.897 2.60319 4.67053 0
M  V30 2661 H 248.24 1.0117 4.0382 0
M  V30 2662 H 248.773 2.4499 3.13408 0
M  V30 2663 H 245.512 5.38659 3.73533 0
M  V30 2664 H 245.032 3.8891 4.56628 0
M  V30 2665 H 246.711 4.47362 4.67415 0
M  V30 2666 N 246.843 -1.10192 1.12674 0
M  V30 2667 C 248.089 -1.82475 0.884915 0
M  V30 2668 C 248.422 -1.85093 -0.58773 0
M  V30 2669 O 247.697 -1.3134 -1.43457 0
M  V30 2670 C 247.98 -3.29018 1.46353 0
M  V30 2671 C 247.833 -3.34718 3.00473 0
M  V30 2672 C 249.152 -4.25473 1.12519 0
M  V30 2673 H 246.271 -0.662492 0.322915 0
M  V30 2674 H 248.913 -1.2913 1.39375 0
M  V30 2675 H 247.063 -3.74576 1.03077 0
M  V30 2676 H 248.735 -2.97622 3.52447 0
M  V30 2677 H 246.978 -2.74541 3.35872 0
M  V30 2678 H 247.649 -4.37918 3.36053 0
M  V30 2679 H 250.125 -3.88161 1.499 0
M  V30 2680 H 249.001 -5.26365 1.55663 0
M  V30 2681 H 249.262 -4.42084 0.0377407 0
M  V30 2682 N 248.321 -0.919034 -1.28029 0
M  V30 2683 C 249.549 -0.570971 -1.98866 0
M  V30 2684 C 249.964 0.848996 -1.68634 0
M  V30 2685 O 249.321 1.56307 -0.942036 0
M  V30 2686 C 249.372 -0.776876 -3.53054 0
M  V30 2687 O 249.093 -2.14097 -3.82222 0
M  V30 2688 C 250.594 -0.436356 -4.41147 0
M  V30 2689 H 247.814 -0.217175 -0.634883 0
M  V30 2690 H 250.358 -1.23368 -1.63097 0
M  V30 2691 H 248.513 -0.161085 -3.87065 0
M  V30 2692 H 248.927 -2.18455 -4.76841 0
M  V30 2693 H 250.401 -0.63117 -5.4838 0
M  V30 2694 H 250.878 0.627686 -4.34692 0
M  V30 2695 H 251.484 -1.02991 -4.12641 0
M  V30 2696 N 249.799 1.42003 -0.683588 0
M  V30 2697 C 251.045 2.01712 -0.209825 0
M  V30 2698 C 251.378 1.53968 1.18353 0
M  V30 2699 O 250.653 0.745661 1.79639 0
M  V30 2700 C 250.936 3.59202 -0.254197 0
M  V30 2701 C 250.789 4.17102 -1.68363 0
M  V30 2702 C 252.108 4.38344 0.392709 0
M  V30 2703 H 249.227 0.732891 -0.0777189 0
M  V30 2704 H 251.869 1.68909 -0.87004 0
M  V30 2705 H 250.019 3.87278 0.307954 0
M  V30 2706 H 251.691 3.99946 -2.29871 0
M  V30 2707 H 249.934 3.72597 -2.22157 0
M  V30 2708 H 250.605 5.26249 -1.6663 0
M  V30 2709 H 253.081 4.16011 -0.0859162 0
M  V30 2710 H 251.957 5.47901 0.331063 0
M  V30 2711 H 252.218 4.16887 1.47164 0
M  V30 2712 N 251.277 0.427512 1.51691 0
M  V30 2713 C 252.24 -0.377132 2.26076 0
M  V30 2714 C 253.24 -0.958089 1.29141 0
M  V30 2715 O 254.43 -0.83408 1.52934 0
M  V30 2716 C 251.562 -1.53262 3.04506 0
M  V30 2717 H 252.755 0.27464 2.9864 0
M  V30 2718 H 250.308 0.180445 1.55255 0
M  V30 2719 H 251.043 -2.22072 2.36335 0
M  V30 2720 H 250.828 -1.12232 3.75694 0
M  V30 2721 H 252.318 -2.10135 3.60878 0
M  V30 2722 N 252.755 -1.56801 0.158532 0
M  V30 2723 C 253.98 -2.01295 -0.499516 0
M  V30 2724 C 254.405 -1.03799 -1.56867 0
M  V30 2725 O 253.763 -0.0155162 -1.81293 0
M  V30 2726 C 253.811 -3.44469 -1.06647 0
M  V30 2727 O 252.915 -3.50012 -2.18095 0
M  V30 2728 H 252.256 -0.652884 -0.12099 0
M  V30 2729 H 254.786 -2.02958 0.258661 0
M  V30 2730 H 254.796 -3.8351 -1.39227 0
M  V30 2731 H 253.471 -4.14932 -0.283581 0
M  V30 2732 H 252.048 -3.22822 -1.86656 0
M  V30 2733 N 254.233 0.115231 -1.57178 0
M  V30 2734 C 255.196 1.12526 -1.99676 0
M  V30 2735 C 256.196 1.34095 -0.88742 0
M  V30 2736 O 257.386 1.30548 -1.15337 0
M  V30 2737 C 254.518 2.4789 -2.34015 0
M  V30 2738 H 255.711 0.759912 -2.90113 0
M  V30 2739 H 253.264 0.359648 -1.52106 0
M  V30 2740 H 253.999 2.89339 -1.4647 0
M  V30 2741 H 253.784 2.33588 -3.14927 0
M  V30 2742 H 255.274 3.20575 -2.67622 0
M  V30 2743 N 255.711 1.52812 0.385517 0
M  V30 2744 C 256.674 1.77188 1.45386 0
M  V30 2745 C 257.674 0.641953 1.4743 0
M  V30 2746 O 258.864 0.910033 1.4854 0
M  V30 2747 C 255.996 1.87582 2.8465 0
M  V30 2748 H 257.189 2.72583 1.25054 0
M  V30 2749 H 254.742 1.43586 0.617467 0
M  V30 2750 H 255.477 0.941849 3.10322 0
M  V30 2751 H 255.262 2.69748 2.84567 0
M  V30 2752 H 256.752 2.08102 3.62054 0
M  V30 2753 N 257.189 -0.644168 1.43834 0
M  V30 2754 C 258.437 -1.40117 1.45642 0
M  V30 2755 C 258.758 -1.94814 0.0852413 0
M  V30 2756 O 258.028 -1.74988 -0.880688 0
M  V30 2757 H 256.608 -0.52005 0.536243 0
M  V30 2758 H 259.27 -0.7591 1.7951 0
M  V30 2759 H 258.366 -2.23902 2.17427 0
M  V30 2760 N 258.668 -1.30515 -0.883378 0
M  V30 2761 C 259.618 -1.13641 -1.9766 0
M  V30 2762 C 260.602 -0.0511314 -1.60819 0
M  V30 2763 O 261.794 -0.274623 -1.74857 0
M  V30 2764 C 258.923 -0.831976 -3.33066 0
M  V30 2765 C 258.009 -1.95759 -3.76217 0
M  V30 2766 N 258.4 -3.20313 -3.9145 0
M  V30 2767 C 256.698 -1.85431 -4.05625 0
M  V30 2768 C 257.399 -3.93856 -4.2808 0
M  V30 2769 N 256.375 -3.21919 -4.38029 0
M  V30 2770 H 260.177 -2.08106 -2.07531 0
M  V30 2771 H 257.691 -1.21877 -1.0733 0
M  V30 2772 H 259.688 -0.692102 -4.11115 0
M  V30 2773 H 258.348 0.104588 -3.24532 0
M  V30 2774 H 259.359 -3.55583 -3.76538 0
M  V30 2775 H 256.036 -0.991531 -4.05555 0
M  V30 2776 H 257.426 -5.01125 -4.47575 0
M  V30 2777 N 260.146 1.09593 -1.13257 0
M  V30 2778 C 261.392 1.82003 -0.89458 0
M  V30 2779 C 261.725 1.85402 0.577906 0
M  V30 2780 O 261 1.32099 1.42759 0
M  V30 2781 C 261.283 3.28237 -1.48096 0
M  V30 2782 C 261.136 3.3312 -3.02244 0
M  V30 2783 C 262.455 4.24871 -1.14774 0
M  V30 2784 H 259.574 0.66077 -0.326424 0
M  V30 2785 H 262.216 1.28389 -1.40058 0
M  V30 2786 H 260.366 3.74024 -1.05062 0
M  V30 2787 H 262.038 2.95748 -3.54021 0
M  V30 2788 H 260.281 2.72756 -3.37323 0
M  V30 2789 H 260.952 4.3613 -3.38371 0
M  V30 2790 H 263.428 3.87361 -1.51957 0
M  V30 2791 H 262.304 5.25532 -1.58452 0
M  V30 2792 H 262.565 4.42058 -0.0611849 0
M  V30 2793 N 261.624 0.925811 1.2754 0
M  V30 2794 C 262.849 0.580924 1.99098 0
M  V30 2795 C 263.274 -0.833555 1.68622 0
M  V30 2796 O 262.632 -1.55903 0.925422 0
M  V30 2797 C 262.68 0.811186 3.51358 0
M  V30 2798 O 261.784 -0.124129 4.12213 0
M  V30 2799 H 261.125 0.223873 0.625122 0
M  V30 2800 H 263.655 1.24455 1.62395 0
M  V30 2801 H 263.665 0.72601 4.01489 0
M  V30 2802 H 262.34 1.84227 3.72872 0
M  V30 2803 H 260.917 0.0108006 3.72898 0
M  V30 2804 N 263.102 -1.41638 0.69111 0
M  V30 2805 C 264.348 -2.01598 0.220519 0
M  V30 2806 C 264.681 -1.54594 -1.17535 0
M  V30 2807 O 263.956 -0.755177 -1.79241 0
M  V30 2808 C 264.239 -3.59062 0.273243 0
M  V30 2809 C 264.092 -4.16203 1.70573 0
M  V30 2810 C 265.411 -4.38546 -0.369457 0
M  V30 2811 H 262.53 -0.732468 0.0816045 0
M  V30 2812 H 265.172 -1.68445 0.878986 0
M  V30 2813 H 263.322 -3.87435 -0.287411 0
M  V30 2814 H 264.994 -3.98722 2.31989 0
M  V30 2815 H 263.237 -3.71414 2.2413 0
M  V30 2816 H 263.908 -5.25358 1.69419 0
M  V30 2817 H 266.384 -4.1596 0.107977 0
M  V30 2818 H 265.26 -5.48069 -0.302002 0
M  V30 2819 H 265.521 -4.17662 -1.44951 0
M  V30 2820 N 264.58 -0.43555 -1.51462 0
M  V30 2821 C 265.991 0.0279871 -1.86679 0
M  V30 2822 C 266.342 1.42104 -1.35281 0
M  V30 2823 O 265.467 2.04667 -0.702878 0
M  V30 2824 C 266.062 0.0575626 -3.38751 0
M  V30 2825 C 264.621 0.465507 -3.7351 0
M  V30 2826 C 263.768 -0.342996 -2.75171 0
M  V30 2827 H 266.719 -0.651473 -1.44712 0
M  V30 2828 H 266.74 0.867421 -3.70481 0
M  V30 2829 H 266.252 -0.956448 -3.7613 0
M  V30 2830 H 264.353 1.48519 -3.41721 0
M  V30 2831 H 264.466 0.191546 -4.78717 0
M  V30 2832 H 262.83 0.198442 -2.53926 0
M  V30 2833 H 263.613 -1.35585 -3.15391 0
M  V30 2834 N 266.058 1.56714 -0.166846 0
M  V30 2835 C 267.305 1.96747 0.479252 0
M  V30 2836 C 267.633 1.05263 1.63554 0
M  V30 2837 O 266.888 0.0858098 1.95512 0
M  V30 2838 C 267.187 3.42889 1.00806 0
M  V30 2839 C 266.853 4.50889 -0.0318574 0
M  V30 2840 C 265.515 4.8015 -0.317675 0
M  V30 2841 C 267.867 5.15949 -0.737956 0
M  V30 2842 C 265.195 5.71772 -1.31506 0
M  V30 2843 C 267.547 6.08647 -1.72429 0
M  V30 2844 C 266.211 6.36277 -2.0176 0
M  V30 2845 H 265.481 0.719949 0.175371 0
M  V30 2846 H 268.128 1.89756 -0.257864 0
M  V30 2847 H 266.433 3.4681 1.82291 0
M  V30 2848 H 268.13 3.71203 1.51689 0
M  V30 2849 H 264.72 4.28128 0.201088 0
M  V30 2850 H 268.904 4.93458 -0.530351 0
M  V30 2851 H 264.16 5.91465 -1.54853 0
M  V30 2852 H 268.334 6.58129 -2.27682 0
M  V30 2853 H 265.961 7.07075 -2.79194 0
M  V30 2854 N 267.536 -0.106894 1.57237 0
M  V30 2855 C 268.466 -1.13148 2.04254 0
M  V30 2856 C 269.447 -1.42476 0.929224 0
M  V30 2857 O 270.632 -1.52709 1.19973 0
M  V30 2858 C 267.762 -2.4545 2.45706 0
M  V30 2859 C 266.716 -2.30558 3.60592 0
M  V30 2860 C 266.042 -3.67931 3.87983 0
M  V30 2861 C 267.342 -1.75597 4.91897 0
M  V30 2862 H 269.036 -0.740374 2.90101 0
M  V30 2863 H 266.582 -0.354696 1.39563 0
M  V30 2864 H 268.535 -3.17389 2.77205 0
M  V30 2865 H 267.259 -2.86475 1.56843 0
M  V30 2866 H 265.918 -1.61067 3.29322 0
M  V30 2867 H 265.566 -4.06462 2.96306 0
M  V30 2868 H 265.266 -3.58817 4.65322 0
M  V30 2869 H 266.79 -4.41356 4.21945 0
M  V30 2870 H 268.204 -2.37364 5.21854 0
M  V30 2871 H 266.601 -1.77272 5.73319 0
M  V30 2872 H 267.671 -0.714451 4.79608 0
M  V30 2873 N 269.014 -1.53014 -0.377408 0
M  V30 2874 C 269.944 -1.81589 -1.46791 0
M  V30 2875 C 270.925 -0.668622 -1.56408 0
M  V30 2876 O 272.11 -0.917337 -1.71168 0
M  V30 2877 C 269.24 -1.99519 -2.8427 0
M  V30 2878 C 268.194 -3.15249 -2.89486 0
M  V30 2879 C 267.52 -3.18451 -4.29527 0
M  V30 2880 C 268.82 -4.54084 -2.58079 0
M  V30 2881 H 270.514 -2.7291 -1.23127 0
M  V30 2882 H 268.06 -1.31319 -0.590883 0
M  V30 2883 H 270.013 -2.18092 -3.60575 0
M  V30 2884 H 268.737 -1.04897 -3.09296 0
M  V30 2885 H 267.396 -2.96477 -2.15631 0
M  V30 2886 H 267.044 -2.2149 -4.5161 0
M  V30 2887 H 266.744 -3.962 -4.33934 0
M  V30 2888 H 268.268 -3.39193 -5.07721 0
M  V30 2889 H 269.682 -4.72899 -3.24098 0
M  V30 2890 H 268.079 -5.33987 -2.7382 0
M  V30 2891 H 269.149 -4.60006 -1.53372 0
M  V30 2892 N 270.492 0.636531 -1.44174 0
M  V30 2893 C 271.455 1.73063 -1.50273 0
M  V30 2894 C 272.455 1.56113 -0.385397 0
M  V30 2895 O 273.645 1.61707 -0.64781 0
M  V30 2896 C 270.777 3.12096 -1.37145 0
M  V30 2897 H 271.97 1.69031 -2.47727 0
M  V30 2898 H 269.523 0.849706 -1.31186 0
M  V30 2899 H 270.258 3.21728 -0.407636 0
M  V30 2900 H 270.043 3.25805 -2.18159 0
M  V30 2901 H 271.533 3.91846 -1.44382 0
M  V30 2902 N 271.97 1.30982 0.876444 0
M  V30 2903 C 273.2 1.23063 1.65949 0
M  V30 2904 C 273.608 -0.207537 1.88058 0
M  V30 2905 O 272.951 -1.14781 1.43426 0
M  V30 2906 C 273.013 1.89768 3.05333 0
M  V30 2907 C 272.677 3.39106 3.0636 0
M  V30 2908 C 273.674 4.3496 2.84791 0
M  V30 2909 C 271.359 3.80693 3.27686 0
M  V30 2910 C 273.353 5.70375 2.84519 0
M  V30 2911 C 271.04 5.16223 3.27043 0
M  V30 2912 C 272.038 6.10875 3.05485 0
M  V30 2913 O 271.726 7.43928 3.04674 0
M  V30 2914 H 271.458 0.426685 0.524324 0
M  V30 2915 H 274.012 1.7329 1.10271 0
M  V30 2916 H 272.242 1.34082 3.6271 0
M  V30 2917 H 273.931 1.75853 3.65829 0
M  V30 2918 H 274.697 4.0416 2.68103 0
M  V30 2919 H 270.576 3.07457 3.43499 0
M  V30 2920 H 274.12 6.44228 2.67611 0
M  V30 2921 H 270.017 5.4666 3.43269 0
M  V30 2922 H 270.785 7.53022 3.2078 0
M  V30 2923 N 273.449 -1.08991 1.13837 0
M  V30 2924 C 274.689 -1.82867 0.913183 0
M  V30 2925 C 275.053 -1.83936 -0.550604 0
M  V30 2926 O 276.254 -2.53515 -0.893515 0
M  V30 2927 C 274.525 -3.24843 1.49036 0
M  V30 2928 S 276.084 -4.15669 1.40588 0
M  V30 2929 H 272.902 -0.630278 0.329046 0
M  V30 2930 H 275.504 -1.31049 1.45073 0
M  V30 2931 H 274.208 -3.21644 2.54899 0
M  V30 2932 H 273.739 -3.81734 0.950947 0
M  V30 2933 H 275.754 -4.94686 0.387353 0
M  V30 2934 N 274.927 -0.932562 -1.27047 0
M  V30 2935 C 276.152 -0.591474 -1.98787 0
M  V30 2936 C 276.577 0.824601 -1.69062 0
M  V30 2937 O 275.935 1.5541 -0.933677 0
M  V30 2938 C 275.983 -0.829808 -3.50922 0
M  V30 2939 O 275.087 0.102266 -4.12273 0
M  V30 2940 H 274.428 -0.227185 -0.623926 0
M  V30 2941 H 276.958 -1.25314 -1.61733 0
M  V30 2942 H 276.968 -0.747292 -4.01098 0
M  V30 2943 H 275.643 -1.86201 -3.7189 0
M  V30 2944 H 274.22 -0.0305761 -3.72887 0
M  V30 2945 N 276.405 1.4127 -0.698611 0
M  V30 2946 C 277.63 2.06024 -0.238512 0
M  V30 2947 C 278.055 1.5224 1.10475 0
M  V30 2948 O 277.413 0.650623 1.69223 0
M  V30 2949 C 277.461 3.59988 -0.209952 0
M  V30 2950 O 276.565 4.04282 0.814235 0
M  V30 2951 H 275.906 0.653829 -0.115775 0
M  V30 2952 H 278.436 1.8098 -0.954326 0
M  V30 2953 H 278.446 4.07979 -0.0418436 0
M  V30 2954 H 277.121 3.98503 -1.1903 0
M  V30 2955 H 275.698 3.6779 0.615234 0
M  V30 2956 N 277.883 0.443576 1.51229 0
M  V30 2957 C 278.83 -0.364716 2.279 0
M  V30 2958 C 279.8 -1.0114 1.31757 0
M  V30 2959 O 280.985 -1.02912 1.60667 0
M  V30 2960 C 278.125 -1.45644 3.12861 0
M  V30 2961 C 277.238 -0.827269 4.24005 0
M  V30 2962 C 276.373 -1.89456 4.96266 0
M  V30 2963 C 275.412 -1.24416 5.99322 0
M  V30 2964 N 274.549 -2.25309 6.64966 0
M  V30 2965 H 279.389 0.295464 2.96532 0
M  V30 2966 H 276.926 0.157554 1.46254 0
M  V30 2967 H 278.884 -2.10076 3.6045 0
M  V30 2968 H 277.514 -2.08616 2.46331 0
M  V30 2969 H 276.566 -0.0710839 3.80334 0
M  V30 2970 H 277.878 -0.312481 4.9782 0
M  V30 2971 H 277.032 -2.61535 5.47434 0
M  V30 2972 H 275.771 -2.4431 4.22095 0
M  V30 2973 H 274.776 -0.508868 5.4744 0
M  V30 2974 H 276.001 -0.702882 6.75453 0
M  V30 2975 H 273.947 -2.79231 5.93604 0
M  V30 2976 H 273.864 -1.78739 7.34567 0
M  V30 2977 H 275.132 -2.96853 7.20763 0
M  V30 2978 N 279.361 -1.56624 0.175154 0
M  V30 2979 C 280.608 -1.96999 -0.468811 0
M  V30 2980 C 280.936 -1.06129 -1.62994 0
M  V30 2981 O 280.191 -0.0961771 -1.95464 0
M  V30 2982 C 280.49 -3.43419 -0.989864 0
M  V30 2983 C 280.156 -4.50866 0.0557687 0
M  V30 2984 C 278.818 -4.79975 0.343134 0
M  V30 2985 C 281.17 -5.15551 0.765308 0
M  V30 2986 C 278.498 -5.71066 1.34536 0
M  V30 2987 C 280.85 -6.07724 1.75654 0
M  V30 2988 C 279.514 -6.35199 2.05132 0
M  V30 2989 H 278.784 -0.720869 -0.17155 0
M  V30 2990 H 281.431 -1.89616 0.267924 0
M  V30 2991 H 279.736 -3.47772 -1.80449 0
M  V30 2992 H 281.433 -3.72002 -1.49719 0
M  V30 2993 H 278.023 -4.28229 -0.178381 0
M  V30 2994 H 282.207 -4.9317 0.556513 0
M  V30 2995 H 277.463 -5.90635 1.57988 0
M  V30 2996 H 281.637 -6.56912 2.31169 0
M  V30 2997 H 279.264 -7.05584 2.8294 0
M  V30 2998 N 280.839 0.0985539 -1.57292 0
M  V30 2999 C 281.802 1.10402 -2.00858 0
M  V30 3000 C 282.802 1.33146 -0.901593 0
M  V30 3001 O 283.992 1.29318 -1.16716 0
M  V30 3002 C 281.124 2.45394 -2.36632 0
M  V30 3003 H 282.317 0.729099 -2.90902 0
M  V30 3004 H 279.87 0.343495 -1.52479 0
M  V30 3005 H 280.605 2.87769 -1.49531 0
M  V30 3006 H 280.39 2.30235 -3.17387 0
M  V30 3007 H 281.88 3.17718 -2.71007 0
M  V30 3008 N 282.317 1.53212 0.369288 0
M  V30 3009 C 283.28 1.7872 1.43498 0
M  V30 3010 C 284.28 0.657554 1.46741 0
M  V30 3011 O 285.47 0.925736 1.47566 0
M  V30 3012 C 282.602 1.90591 2.82645 0
M  V30 3013 H 283.795 2.73894 1.22156 0
M  V30 3014 H 281.348 1.44233 0.602203 0
M  V30 3015 H 282.083 0.974709 3.09306 0
M  V30 3016 H 281.868 2.72751 2.8169 0
M  V30 3017 H 283.358 2.11931 3.59826 0
M  V30 3018 N 283.795 -0.628877 1.44509 0
M  V30 3019 C 285.041 -1.39045 1.47629 0
M  V30 3020 C 285.374 -1.93892 0.109343 0
M  V30 3021 O 284.649 -1.7379 -0.87334 0
M  V30 3022 C 284.932 -2.55408 2.53848 0
M  V30 3023 C 284.785 -2.05896 3.99909 0
M  V30 3024 C 286.104 -3.5759 2.56549 0
M  V30 3025 H 283.223 -0.504232 0.537512 0
M  V30 3026 H 285.865 -0.710854 1.76201 0
M  V30 3027 H 284.015 -3.13384 2.29615 0
M  V30 3028 H 285.687 -1.52734 4.35282 0
M  V30 3029 H 283.93 -1.37061 4.11578 0
M  V30 3030 H 284.601 -2.89681 4.69882 0
M  V30 3031 H 287.077 -3.09419 2.78207 0
M  V30 3032 H 285.953 -4.36527 3.32769 0
M  V30 3033 H 286.214 -4.11808 1.60832 0
M  V30 3034 N 285.273 -1.31445 -0.869486 0
M  V30 3035 C 286.521 -1.20918 -1.61936 0
M  V30 3036 C 286.842 0.232683 -1.93607 0
M  V30 3037 O 286.112 1.15352 -1.58338 0
M  V30 3038 H 284.692 -0.44454 -0.600328 0
M  V30 3039 H 287.354 -1.64776 -1.0409 0
M  V30 3040 H 286.45 -1.78124 -2.56278 0
M  V30 3041 N 286.751 1.08385 -1.14413 0
M  V30 3042 C 287.998 1.80776 -0.912482 0
M  V30 3043 C 288.326 1.86236 0.560934 0
M  V30 3044 O 287.581 1.33431 1.43159 0
M  V30 3045 C 287.88 3.26273 -1.45879 0
M  V30 3046 C 287.546 3.4093 -2.95089 0
M  V30 3047 C 286.208 3.44638 -3.35824 0
M  V30 3048 C 288.56 3.44591 -3.91033 0
M  V30 3049 C 285.888 3.49597 -4.71167 0
M  V30 3050 C 288.24 3.51086 -5.26233 0
M  V30 3051 C 286.904 3.53067 -5.6648 0
M  V30 3052 H 286.174 0.661507 -0.333901 0
M  V30 3053 H 288.821 1.27613 -1.42784 0
M  V30 3054 H 287.126 3.82146 -0.864376 0
M  V30 3055 H 288.823 3.80839 -1.2555 0
M  V30 3056 H 285.413 3.38736 -2.62594 0
M  V30 3057 H 289.597 3.40957 -3.60641 0
M  V30 3058 H 284.853 3.49424 -5.0171 0
M  V30 3059 H 289.027 3.52864 -6.00383 0
M  V30 3060 H 286.654 3.56662 -6.71339 0
M  V30 3061 N 288.23 0.939286 1.26551 0
M  V30 3062 C 289.18 0.418284 2.2413 0
M  V30 3063 C 290.164 -0.483935 1.5345 0
M  V30 3064 O 291.356 -0.319489 1.74093 0
M  V30 3065 C 288.485 -0.31709 3.41832 0
M  V30 3066 C 287.571 0.602311 4.19801 0
M  V30 3067 N 287.962 1.72726 4.75394 0
M  V30 3068 C 286.26 0.407534 4.44134 0
M  V30 3069 C 286.961 2.30004 5.34297 0
M  V30 3070 N 285.937 1.58828 5.1988 0
M  V30 3071 H 289.739 1.27705 2.64705 0
M  V30 3072 H 287.253 0.794929 1.41614 0
M  V30 3073 H 289.25 -0.707364 4.10855 0
M  V30 3074 H 287.91 -1.17264 3.02786 0
M  V30 3075 H 288.921 2.10944 4.72994 0
M  V30 3076 H 285.598 -0.406406 4.15517 0
M  V30 3077 H 286.988 3.24778 5.88191 0
M  V30 3078 N 289.708 -1.40897 0.706093 0
M  V30 3079 C 290.655 -2.30751 0.0474474 0
M  V30 3080 C 291.625 -1.47678 -0.76029 0
M  V30 3081 O 292.81 -1.76441 -0.726177 0
M  V30 3082 C 289.95 -3.33815 -0.875309 0
M  V30 3083 C 289.063 -4.31961 -0.0580623 0
M  V30 3084 C 288.198 -5.22093 -0.979425 0
M  V30 3085 C 287.237 -6.11902 -0.155706 0
M  V30 3086 N 286.374 -6.94482 -1.03144 0
M  V30 3087 H 291.214 -2.86513 0.819413 0
M  V30 3088 H 288.751 -1.41102 0.415783 0
M  V30 3089 H 290.709 -3.92129 -1.42446 0
M  V30 3090 H 289.339 -2.79579 -1.61356 0
M  V30 3091 H 288.391 -3.75507 0.608147 0
M  V30 3092 H 289.703 -4.95415 0.580082 0
M  V30 3093 H 288.857 -5.85292 -1.59744 0
M  V30 3094 H 287.596 -4.5889 -1.65141 0
M  V30 3095 H 286.601 -5.47742 0.475309 0
M  V30 3096 H 287.826 -6.77162 0.512635 0
M  V30 3097 H 285.772 -6.33877 -1.68924 0
M  V30 3098 H 285.689 -7.54665 -0.449108 0
M  V30 3099 H 286.957 -7.6214 -1.63593 0
M  V30 3100 N 291.186 -0.45159 -1.50991 0
M  V30 3101 C 292.414 0.108334 -2.06616 0
M  V30 3102 C 292.829 1.35224 -1.31757 0
M  V30 3103 O 292.186 1.78475 -0.381174 0
M  V30 3104 C 292.237 0.41619 -3.59096 0
M  V30 3105 O 291.958 -0.778361 -4.3113 0
M  V30 3106 C 293.459 1.02523 -4.31282 0
M  V30 3107 H 290.679 0.00159995 -0.670998 0
M  V30 3108 H 293.223 -0.634771 -1.94399 0
M  V30 3109 H 291.378 1.10921 -3.71181 0
M  V30 3110 H 291.792 -0.511181 -5.22003 0
M  V30 3111 H 293.266 1.19053 -5.39009 0
M  V30 3112 H 293.743 2.01013 -3.905 0
M  V30 3113 H 294.349 0.371173 -4.23677 0
M  V30 3114 N 292.664 1.56529 -0.183458 0
M  V30 3115 C 293.594 2.21549 0.737456 0
M  V30 3116 C 294.575 1.17489 1.23005 0
M  V30 3117 O 295.76 1.45959 1.281 0
M  V30 3118 C 292.89 2.86575 1.96194 0
M  V30 3119 C 291.844 3.96778 1.60473 0
M  V30 3120 C 291.17 4.48911 2.90487 0
M  V30 3121 C 292.47 5.15767 0.823497 0
M  V30 3122 H 294.164 2.98761 0.195453 0
M  V30 3123 H 291.71 1.43702 0.0925686 0
M  V30 3124 H 293.663 3.30739 2.61131 0
M  V30 3125 H 292.387 2.06749 2.52828 0
M  V30 3126 H 291.046 3.53286 0.978997 0
M  V30 3127 H 290.694 3.65862 3.45186 0
M  V30 3128 H 290.394 5.23265 2.67335 0
M  V30 3129 H 291.918 4.95771 3.56432 0
M  V30 3130 H 293.332 5.56549 1.37571 0
M  V30 3131 H 291.729 5.96114 0.690551 0
M  V30 3132 H 292.799 4.84574 -0.177782 0
M  V30 3133 N 294.142 -0.090211 1.57342 0
M  V30 3134 C 295.37 -0.806224 1.90546 0
M  V30 3135 C 295.785 -1.72041 0.777644 0
M  V30 3136 O 295.142 -1.80778 -0.250103 0
M  V30 3137 C 295.193 -1.61546 3.23396 0
M  V30 3138 O 294.914 -0.738043 4.31839 0
M  V30 3139 C 296.415 -2.4341 3.70495 0
M  V30 3140 H 293.635 -0.230256 0.630257 0
M  V30 3141 H 296.179 -0.0659843 2.04394 0
M  V30 3142 H 294.334 -2.30816 3.11131 0
M  V30 3143 H 294.748 -1.29901 5.08159 0
M  V30 3144 H 296.222 -2.95676 4.66133 0
M  V30 3145 H 296.699 -3.22098 2.98579 0
M  V30 3146 H 297.305 -1.79331 3.85643 0
M  V30 3147 N 295.62 -1.53406 -0.361157 0
M  V30 3148 C 296.897 -1.60411 -1.11927 0
M  V30 3149 C 297.277 -0.414385 -2.06993 0
M  V30 3150 O 296.625 0.594976 -2.20618 0
M  V30 3151 C 296.835 -2.95652 -1.85448 0
M  V30 3152 C 298.183 -3.50386 -2.39823 0
M  V30 3153 O 299.207 -2.97711 -1.95568 0
M  V30 3154 O 298.066 -4.42482 -3.20737 0
M  V30 3155 H 295.16 -0.64811 -0.513695 0
M  V30 3156 H 297.706 -1.65749 -0.364065 0
M  V30 3157 H 296.478 -3.73682 -1.16091 0
M  V30 3158 H 296.101 -2.93825 -2.67866 0
M  V30 3159 N 297.098 0.621204 -1.44841 0
M  V30 3160 C 298.008 1.7612 -1.5498 0
M  V30 3161 C 299.024 1.68477 -0.434927 0
M  V30 3162 O 300.2 1.89076 -0.693693 0
M  V30 3163 C 297.265 3.1254 -1.50065 0
M  V30 3164 C 296.326 3.31741 -2.72482 0
M  V30 3165 C 295.559 4.61653 -2.67792 0
M  V30 3166 O 295.782 5.431 -1.74352 0
M  V30 3167 O 294.716 4.83271 -3.58794 0
M  V30 3168 H 298.542 1.70518 -2.51311 0
M  V30 3169 H 296.127 0.783643 -1.27198 0
M  V30 3170 H 298.009 3.93844 -1.49882 0
M  V30 3171 H 296.684 3.18663 -0.568806 0
M  V30 3172 H 295.591 2.50077 -2.7823 0
M  V30 3173 H 296.924 3.30486 -3.64746 0
M  V30 3174 N 298.576 1.31904 0.862503 0
M  V30 3175 C 299.506 1.22782 1.98612 0
M  V30 3176 C 300.487 0.113362 1.69722 0
M  V30 3177 O 301.672 0.299218 1.91881 0
M  V30 3178 C 298.802 0.942058 3.34279 0
M  V30 3179 C 297.756 2.0169 3.77499 0
M  V30 3180 C 297.082 1.58369 5.10709 0
M  V30 3181 C 298.382 3.43096 3.93805 0
M  V30 3182 H 300.076 2.16788 2.06502 0
M  V30 3183 H 297.622 1.04366 0.992154 0
M  V30 3184 H 299.575 0.864818 4.1243 0
M  V30 3185 H 298.299 -0.0336603 3.26583 0
M  V30 3186 H 296.958 2.08416 3.01593 0
M  V30 3187 H 296.606 0.595628 4.99461 0
M  V30 3188 H 296.306 2.30279 5.40597 0
M  V30 3189 H 297.83 1.52067 5.91361 0
M  V30 3190 H 299.244 3.39003 4.62331 0
M  V30 3191 H 297.641 4.13288 4.35101 0
M  V30 3192 H 298.711 3.83334 2.96957 0
M  V30 3193 N 300.054 -1.07777 1.14986 0
M  V30 3194 C 301.017 -2.13041 0.845358 0
M  V30 3195 C 302.017 -1.60071 -0.152931 0
M  V30 3196 O 303.207 -1.74033 0.0761879 0
M  V30 3197 C 300.339 -3.39896 0.261383 0
M  V30 3198 H 301.532 -2.41485 1.77834 0
M  V30 3199 H 299.085 -1.23595 0.956757 0
M  V30 3200 H 299.82 -3.17091 -0.68 0
M  V30 3201 H 299.605 -3.79642 0.980514 0
M  V30 3202 H 301.095 -4.17548 0.0657687 0
M  V30 3203 N 301.532 -0.945985 -1.26051 0
M  V30 3204 C 302.495 -0.463897 -2.24456 0
M  V30 3205 C 303.495 0.427655 -1.55009 0
M  V30 3206 O 304.685 0.226157 -1.72726 0
M  V30 3207 C 301.817 0.330812 -3.39291 0
M  V30 3208 H 303.01 -1.33357 -2.68619 0
M  V30 3209 H 300.563 -0.728416 -1.38289 0
M  V30 3210 H 301.298 1.21852 -3.00537 0
M  V30 3211 H 301.083 -0.308679 -3.90883 0
M  V30 3212 H 302.573 0.657865 -4.12386 0
M  V30 3213 N 303.011 1.40521 -0.713556 0
M  V30 3214 C 303.941 2.33381 -0.0743864 0
M  V30 3215 C 304.922 1.52784 0.747735 0
M  V30 3216 O 306.107 1.81258 0.697071 0
M  V30 3217 C 303.237 3.36748 0.849598 0
M  V30 3218 C 302.191 4.27793 0.133247 0
M  V30 3219 C 301.517 5.21679 1.17281 0
M  V30 3220 C 302.817 5.12415 -1.01134 0
M  V30 3221 H 304.511 2.87081 -0.850007 0
M  V30 3222 H 302.057 1.38034 -0.410201 0
M  V30 3223 H 304.01 4.00648 1.30612 0
M  V30 3224 H 302.734 2.81439 1.65709 0
M  V30 3225 H 301.393 3.65342 -0.303426 0
M  V30 3226 H 301.041 4.62677 1.9733 0
M  V30 3227 H 300.741 5.83435 0.698397 0
M  V30 3228 H 302.265 5.88456 1.62947 0
M  V30 3229 H 303.679 5.69781 -0.634274 0
M  V30 3230 H 302.076 5.83203 -1.41399 0
M  V30 3231 H 303.146 4.48514 -1.84292 0
M  V30 3232 N 304.489 0.459591 1.5075 0
M  V30 3233 C 305.421 -0.37665 2.26084 0
M  V30 3234 C 306.434 -0.967109 1.30961 0
M  V30 3235 O 307.623 -0.857468 1.56556 0
M  V30 3236 C 304.723 -1.54112 3.01832 0
M  V30 3237 C 303.896 -1.06553 4.24223 0
M  V30 3238 C 302.955 -2.1027 4.82362 0
M  V30 3239 O 301.981 -1.68798 5.43595 0
M  V30 3240 N 303.183 -3.42974 4.68347 0
M  V30 3241 H 305.948 0.269124 2.98489 0
M  V30 3242 H 303.509 0.28972 1.59287 0
M  V30 3243 H 305.501 -2.23165 3.37608 0
M  V30 3244 H 304.071 -2.0918 2.32298 0
M  V30 3245 H 303.291 -0.201274 3.93686 0
M  V30 3246 H 304.579 -0.725516 5.03601 0
M  V30 3247 H 303.977 -3.79385 4.19623 0
M  V30 3248 H 302.534 -4.07858 5.08424 0
M  V30 3249 N 305.967 -1.56429 0.191757 0
M  V30 3250 C 307.216 -1.9666 -0.448088 0
M  V30 3251 C 307.529 -1.08136 -1.62991 0
M  V30 3252 O 308.735 -1.38135 -2.33733 0
M  V30 3253 C 307.191 -3.49753 -0.848585 0
M  V30 3254 C 306.799 -4.46935 0.308764 0
M  V30 3255 C 308.543 -3.9876 -1.4557 0
M  V30 3256 C 306.45 -5.91293 -0.112506 0
M  V30 3257 H 305.38 -0.734312 -0.171179 0
M  V30 3258 H 308.031 -1.81301 0.283242 0
M  V30 3259 H 306.413 -3.60604 -1.63649 0
M  V30 3260 H 307.587 -4.47813 1.08627 0
M  V30 3261 H 305.902 -4.08102 0.827158 0
M  V30 3262 H 308.499 -5.04086 -1.78328 0
M  V30 3263 H 308.842 -3.42875 -2.36099 0
M  V30 3264 H 309.375 -3.9101 -0.731836 0
M  V30 3265 H 306.114 -6.51097 0.758514 0
M  V30 3266 H 305.634 -5.93676 -0.854941 0
M  V30 3267 H 307.313 -6.44663 -0.549448 0
M  V30 3268 N 307.445 0.0818655 -1.57387 0
M  V30 3269 C 308.673 0.796108 -1.9097 0
M  V30 3270 C 309.088 1.71626 -0.786757 0
M  V30 3271 O 308.445 1.80908 0.240513 0
M  V30 3272 C 308.496 1.59829 -3.24248 0
M  V30 3273 O 308.217 0.715131 -4.32224 0
M  V30 3274 C 309.718 2.41442 -3.7178 0
M  V30 3275 H 306.938 0.22691 -0.631469 0
M  V30 3276 H 309.482 0.0551439 -2.04426 0
M  V30 3277 H 307.637 2.29163 -3.12351 0
M  V30 3278 H 308.051 1.27205 -5.08841 0
M  V30 3279 H 309.525 2.932 -4.67694 0
M  V30 3280 H 310.002 3.2051 -3.00283 0
M  V30 3281 H 310.608 1.77283 -3.86589 0
M  V30 3282 N 308.923 1.53595 0.353017 0
M  V30 3283 C 310.171 1.70049 1.09215 0
M  V30 3284 C 310.492 0.461406 1.89463 0
M  V30 3285 O 309.762 -0.524633 1.88744 0
M  V30 3286 H 308.342 0.626912 0.40619 0
M  V30 3287 H 311.004 1.90822 0.396585 0
M  V30 3288 H 310.1 2.56718 1.77488 0
M  V30 3289 N 310.401 -0.613514 1.45168 0
M  V30 3290 C 311.647 -1.37471 1.49096 0
M  V30 3291 C 311.98 -1.93765 0.129901 0
M  V30 3292 O 311.255 -1.74707 -0.854858 0
M  V30 3293 C 311.538 -2.52701 2.56542 0
M  V30 3294 C 311.391 -2.01643 4.0207 0
M  V30 3295 C 312.71 -3.54849 2.60327 0
M  V30 3296 H 309.829 -0.498502 0.54283 0
M  V30 3297 H 312.471 -0.692125 1.76945 0
M  V30 3298 H 310.621 -3.10931 2.32926 0
M  V30 3299 H 312.293 -1.48108 4.36877 0
M  V30 3300 H 310.536 -1.32688 4.13009 0
M  V30 3301 H 311.207 -2.84681 4.72928 0
M  V30 3302 H 313.683 -3.0645 2.81474 0
M  V30 3303 H 312.559 -4.32973 3.37381 0
M  V30 3304 H 312.82 -4.10079 1.6519 0
M  V30 3305 N 311.879 -1.3236 -0.855495 0
M  V30 3306 C 312.826 -1.21225 -1.964 0
M  V30 3307 C 313.796 -0.0946204 -1.6583 0
M  V30 3308 O 314.981 -0.27002 -1.8888 0
M  V30 3309 C 312.121 -0.940419 -3.32039 0
M  V30 3310 C 311.234 -2.14276 -3.75113 0
M  V30 3311 C 310.369 -1.80648 -4.9954 0
M  V30 3312 C 309.408 -2.97208 -5.35102 0
M  V30 3313 N 308.545 -2.63678 -6.50706 0
M  V30 3314 H 313.385 -2.16042 -2.05255 0
M  V30 3315 H 310.922 -1.07451 -1.00463 0
M  V30 3316 H 312.88 -0.763311 -4.10158 0
M  V30 3317 H 311.51 -0.0290413 -3.22787 0
M  V30 3318 H 310.562 -2.43017 -2.92655 0
M  V30 3319 H 311.874 -3.01468 -3.97389 0
M  V30 3320 H 311.028 -1.59484 -5.85363 0
M  V30 3321 H 309.767 -0.906678 -4.79198 0
M  V30 3322 H 308.772 -3.19004 -4.47791 0
M  V30 3323 H 309.997 -3.87918 -5.57401 0
M  V30 3324 H 307.943 -1.76238 -6.31883 0
M  V30 3325 H 307.86 -3.444 -6.72997 0
M  V30 3326 H 309.128 -2.45942 -7.39684 0
M  V30 3327 N 313.357 1.07166 -1.15556 0
M  V30 3328 C 314.585 1.83514 -0.955519 0
M  V30 3329 C 315 1.82163 0.49621 0
M  V30 3330 O 314.357 1.23441 1.34419 0
M  V30 3331 C 314.408 3.30515 -1.46432 0
M  V30 3332 O 314.129 3.31937 -2.85918 0
M  V30 3333 C 315.63 4.23625 -1.30603 0
M  V30 3334 H 312.85 0.578926 -0.339244 0
M  V30 3335 H 315.394 1.35265 -1.53374 0
M  V30 3336 H 313.549 3.76106 -0.928584 0
M  V30 3337 H 313.963 4.23794 -3.09029 0
M  V30 3338 H 315.437 5.24831 -1.71047 0
M  V30 3339 H 315.914 4.38485 -0.250441 0
M  V30 3340 H 316.52 3.83871 -1.83094 0
M  V30 3341 N 314.835 0.952656 1.25548 0
M  V30 3342 C 316.063 0.623496 1.97282 0
M  V30 3343 C 316.478 -0.803987 1.70826 0
M  V30 3344 O 315.835 -1.53755 0.983147 0
M  V30 3345 C 315.886 0.870209 3.5087 0
M  V30 3346 O 315.607 2.24156 3.76412 0
M  V30 3347 C 317.108 0.553164 4.39835 0
M  V30 3348 H 314.328 0.233931 0.628902 0
M  V30 3349 H 316.872 1.27649 1.59768 0
M  V30 3350 H 315.027 0.263652 3.86502 0
M  V30 3351 H 315.441 2.31021 4.70882 0
M  V30 3352 H 316.915 0.776342 5.46513 0
M  V30 3353 H 317.392 -0.512215 4.36203 0
M  V30 3354 H 317.998 1.13896 4.09766 0
M  V30 3355 N 316.313 -1.40141 0.720998 0
M  V30 3356 C 317.553 -2.02644 0.267335 0
M  V30 3357 C 317.917 -1.55948 -1.12001 0
M  V30 3358 O 319.118 -2.10552 -1.67097 0
M  V30 3359 C 317.389 -3.55679 0.350281 0
M  V30 3360 S 318.948 -4.38793 -0.0256004 0
M  V30 3361 H 315.766 -0.703105 0.105664 0
M  V30 3362 H 318.368 -1.71175 0.944416 0
M  V30 3363 H 317.072 -3.87157 1.36153 0
M  V30 3364 H 316.603 -3.91883 -0.345096 0
M  V30 3365 H 318.618 -4.803 -1.24604 0
M  V30 3366 N 317.792 -0.46758 -1.50504 0
M  V30 3367 C 318.722 0.318381 -2.31319 0
M  V30 3368 C 319.703 0.993564 -1.38066 0
M  V30 3369 O 320.888 0.991411 -1.66987 0
M  V30 3370 C 318.018 1.40275 -3.17711 0
M  V30 3371 C 316.972 0.849373 -4.19487 0
M  V30 3372 C 316.298 2.03177 -4.94594 0
M  V30 3373 C 317.598 -0.136942 -5.2212 0
M  V30 3374 H 319.292 -0.356106 -2.97275 0
M  V30 3375 H 316.838 -0.172703 -1.42961 0
M  V30 3376 H 318.791 1.96004 -3.73042 0
M  V30 3377 H 317.515 2.10596 -2.49634 0
M  V30 3378 H 316.174 0.314076 -3.65252 0
M  V30 3379 H 315.822 2.72187 -4.22993 0
M  V30 3380 H 315.522 1.66774 -5.63436 0
M  V30 3381 H 317.046 2.59403 -5.52759 0
M  V30 3382 H 318.46 0.331056 -5.72343 0
M  V30 3383 H 316.857 -0.41507 -5.98663 0
M  V30 3384 H 317.927 -1.06398 -4.73083 0
M  V30 3385 N 319.27 1.56325 -0.20005 0
M  V30 3386 C 320.51 1.99619 0.439519 0
M  V30 3387 C 320.874 1.08423 1.58456 0
M  V30 3388 O 322.075 1.40973 2.28867 0
M  V30 3389 C 320.346 3.46314 0.883258 0
M  V30 3390 S 321.905 4.11634 1.51997 0
M  V30 3391 H 318.723 0.697007 0.140363 0
M  V30 3392 H 321.325 1.93118 -0.304282 0
M  V30 3393 H 320.029 4.10381 0.0398967 0
M  V30 3394 H 319.56 3.56643 1.6604 0
M  V30 3395 H 321.575 4.09049 2.8088 0
M  V30 3396 N 320.748 -0.0735177 1.57428 0
M  V30 3397 C 322.159 -0.625551 1.75908 0
M  V30 3398 C 322.51 -1.78 0.825261 0
M  V30 3399 O 321.635 -2.16398 0.00893964 0
M  V30 3400 C 322.23 -1.14155 3.18989 0
M  V30 3401 C 320.789 -1.63946 3.38819 0
M  V30 3402 C 319.936 -0.558151 2.71625 0
M  V30 3403 H 322.887 0.152647 1.57964 0
M  V30 3404 H 322.908 -2.0104 3.23053 0
M  V30 3405 H 322.42 -0.301116 3.8693 0
M  V30 3406 H 320.521 -2.50321 2.7599 0
M  V30 3407 H 320.634 -1.71759 4.47253 0
M  V30 3408 H 318.998 -1.00278 2.34129 0
M  V30 3409 H 319.781 0.272071 3.4222 0
M  V30 3410 N 322.226 -1.5378 -0.344866 0
M  V30 3411 C 323.174 -1.82373 -1.4437 0
M  V30 3412 C 324.168 -0.694128 -1.54526 0
M  V30 3413 O 325.374 -0.877442 -1.57165 0
M  V30 3414 H 321.749 -0.577765 -0.481344 0
M  V30 3415 H 323.72 -2.74306 -1.17468 0
M  V30 3416 C 322.469 -2.04898 -2.80913 0
M  V30 3417 H 321.792 -2.9127 -2.73865 0
M  V30 3418 H 323.232 -2.28871 -3.56923 0
M  V30 3419 C 321.691 -0.834116 -3.26411 0
M  V30 3420 O 322.221 -0.0328885 -4.01687 0
M  V30 3421 N 320.427 -0.65171 -2.83198 0
M  V30 3422 H 319.974 -1.30489 -2.22104 0
M  V30 3423 H 319.932 0.159686 -3.13994 0
M  V30 3424 N 323.704 0.605807 -1.45491 0
M  V30 3425 C 324.951 1.36476 -1.49601 0
M  V30 3426 C 325.279 1.94007 -0.138452 0
M  V30 3427 O 324.534 1.75638 0.863114 0
M  V30 3428 C 324.833 2.53012 -2.52428 0
M  V30 3429 C 324.499 2.13617 -3.97087 0
M  V30 3430 C 323.161 2.02587 -4.36477 0
M  V30 3431 C 325.513 1.82899 -4.88055 0
M  V30 3432 C 322.841 1.59064 -5.64726 0
M  V30 3433 C 325.193 1.40861 -6.16718 0
M  V30 3434 C 323.857 1.28391 -6.55036 0
M  V30 3435 H 323.127 0.499402 -0.547429 0
M  V30 3436 H 325.774 0.684546 -1.78847 0
M  V30 3437 H 324.079 3.26379 -2.16758 0
M  V30 3438 H 325.776 3.1124 -2.52845 0
M  V30 3439 H 322.366 2.23129 -3.65939 0
M  V30 3440 H 326.55 1.90317 -4.58359 0
M  V30 3441 H 321.806 1.48034 -5.93208 0
M  V30 3442 H 325.98 1.16138 -6.86648 0
M  V30 3443 H 323.607 0.944403 -7.54311 0
M  V30 3444 N 325.182 1.32811 0.848464 0
M  V30 3445 C 326.428 1.23907 1.60546 0
M  V30 3446 C 326.761 -0.197161 1.93197 0
M  V30 3447 O 326.036 -1.13596 1.5788 0
M  V30 3448 C 326.319 2.10489 2.92175 0
M  V30 3449 C 326.172 3.62522 2.66266 0
M  V30 3450 C 327.491 1.97075 3.93509 0
M  V30 3451 H 324.61 0.451459 0.58254 0
M  V30 3452 H 327.252 1.62818 0.979296 0
M  V30 3453 H 325.402 1.77434 3.45614 0
M  V30 3454 H 327.074 4.05821 2.19334 0
M  V30 3455 H 325.317 3.84879 2.00126 0
M  V30 3456 H 325.988 4.18437 3.6002 0
M  V30 3457 H 328.464 2.26045 3.49346 0
M  V30 3458 H 327.34 2.59923 4.83457 0
M  V30 3459 H 327.601 0.940186 4.31987 0
M  V30 3460 N 326.66 -1.06551 1.16123 0
M  V30 3461 C 327.608 -2.16063 0.861371 0
M  V30 3462 C 328.602 -1.6856 -0.168517 0
M  V30 3463 O 329.808 -1.79986 -0.0227579 0
M  V30 3464 H 326.183 -0.705278 0.260934 0
M  V30 3465 H 328.154 -2.38567 1.79244 0
M  V30 3466 C 326.903 -3.45661 0.376018 0
M  V30 3467 H 326.226 -3.82604 1.15992 0
M  V30 3468 H 327.666 -4.23504 0.204951 0
M  V30 3469 C 326.125 -3.24546 -0.903954 0
M  V30 3470 O 326.655 -3.49865 -1.97377 0
M  V30 3471 N 324.861 -2.77992 -0.846679 0
M  V30 3472 H 324.408 -2.57589 0.0241017 0
M  V30 3473 H 324.366 -2.64244 -1.70359 0
M  V30 3474 N 328.138 -0.959301 -1.25041 0
M  V30 3475 C 329.366 -0.633949 -1.96948 0
M  V30 3476 C 329.781 0.794916 -1.7125 0
M  V30 3477 O 329.138 1.53231 -0.991287 0
M  V30 3478 C 329.189 -0.888805 -3.50403 0
M  V30 3479 O 328.91 -2.26149 -3.75218 0
M  V30 3480 C 330.411 -0.576482 -4.39536 0
M  V30 3481 H 327.631 -0.237263 -0.627652 0
M  V30 3482 H 330.175 -1.28495 -1.59089 0
M  V30 3483 H 328.33 -0.284145 -3.86357 0
M  V30 3484 H 328.744 -2.33514 -4.6965 0
M  V30 3485 H 330.218 -0.805314 -5.46094 0
M  V30 3486 H 330.695 0.489075 -4.36468 0
M  V30 3487 H 331.301 -1.16067 -4.09156 0
M  V30 3488 N 329.616 1.39756 -0.72842 0
M  V30 3489 C 330.864 2.00248 -0.272946 0
M  V30 3490 C 331.185 1.58077 1.14178 0
M  V30 3491 O 330.455 0.826014 1.77634 0
M  V30 3492 H 329.035 0.740554 -0.0979247 0
M  V30 3493 H 331.697 1.70903 -0.936912 0
M  V30 3494 H 330.793 3.10495 -0.316142 0
M  V30 3495 N 331.094 0.475555 1.50254 0
M  V30 3496 C 332.341 -0.0778919 2.0235 0
M  V30 3497 C 332.669 -1.39319 1.35722 0
M  V30 3498 O 331.924 -1.89888 0.473395 0
M  V30 3499 C 332.223 -0.305114 3.56095 0
M  V30 3500 C 331.889 0.92903 4.41225 0
M  V30 3501 C 330.551 1.26739 4.6421 0
M  V30 3502 C 332.903 1.75054 4.90923 0
M  V30 3503 C 330.231 2.42724 5.34137 0
M  V30 3504 C 332.583 2.9017 5.62125 0
M  V30 3505 C 331.247 3.24416 5.83362 0
M  V30 3506 H 330.517 -0.0285027 0.740452 0
M  V30 3507 H 333.164 0.630543 1.80821 0
M  V30 3508 H 331.469 -1.09584 3.76163 0
M  V30 3509 H 333.166 -0.747377 3.93974 0
M  V30 3510 H 329.756 0.655428 4.23559 0
M  V30 3511 H 333.94 1.50231 4.73016 0
M  V30 3512 H 329.196 2.69525 5.48786 0
M  V30 3513 H 333.37 3.54169 5.99614 0
M  V30 3514 H 330.997 4.14396 6.37323 0
M  V30 3515 N 332.573 -1.56217 0.208337 0
M  V30 3516 C 333.822 -1.97124 -0.427204 0
M  V30 3517 C 334.135 -1.09859 -1.61835 0
M  V30 3518 O 335.341 -1.40606 -2.32255 0
M  V30 3519 C 333.797 -3.50633 -0.811442 0
M  V30 3520 C 333.405 -4.46582 0.35615 0
M  V30 3521 C 335.149 -4.00282 -1.41332 0
M  V30 3522 C 333.056 -5.91379 -0.0497852 0
M  V30 3523 H 331.986 -0.736086 -0.163381 0
M  V30 3524 H 334.637 -1.8099 0.302456 0
M  V30 3525 H 333.019 -3.62319 -1.59815 0
M  V30 3526 H 334.193 -4.46636 1.1337 0
M  V30 3527 H 332.508 -4.07202 0.870396 0
M  V30 3528 H 335.105 -5.0595 -1.72972 0
M  V30 3529 H 335.448 -3.45359 -2.32449 0
M  V30 3530 H 335.981 -3.91764 -0.690323 0
M  V30 3531 H 332.72 -6.50255 0.827529 0
M  V30 3532 H 332.24 -5.94549 -0.791926 0
M  V30 3533 H 333.919 -6.45209 -0.481042 0
M  V30 3534 N 334.051 0.0651679 -1.57465 0
M  V30 3535 C 334.998 1.07675 -2.04144 0
M  V30 3536 C 335.968 1.38071 -0.923335 0
M  V30 3537 O 337.153 1.49026 -1.19146 0
M  V30 3538 C 334.293 2.38337 -2.49579 0
M  V30 3539 C 333.406 2.14413 -3.75035 0
M  V30 3540 C 332.541 3.38686 -4.09225 0
M  V30 3541 C 331.58 3.10156 -5.27702 0
M  V30 3542 N 330.717 4.26778 -5.57499 0
M  V30 3543 H 335.557 0.671716 -2.90331 0
M  V30 3544 H 333.094 0.3201 -1.43575 0
M  V30 3545 H 335.052 3.14632 -2.73975 0
M  V30 3546 H 333.682 2.7663 -1.6636 0
M  V30 3547 H 332.734 1.2878 -3.57939 0
M  V30 3548 H 334.046 1.89344 -4.61466 0
M  V30 3549 H 333.2 4.23373 -4.34558 0
M  V30 3550 H 331.939 3.66837 -3.21374 0
M  V30 3551 H 330.944 2.23866 -5.02159 0
M  V30 3552 H 332.169 2.8332 -6.17176 0
M  V30 3553 H 330.115 4.54948 -4.72608 0
M  V30 3554 H 330.032 4.05005 -6.38362 0
M  V30 3555 H 331.3 5.12443 -5.87386 0
M  V30 3556 N 335.529 1.53961 0.336706 0
M  V30 3557 C 336.477 1.83136 1.43401 0
M  V30 3558 C 337.471 0.702313 1.54156 0
M  V30 3559 O 338.677 0.885765 1.56698 0
M  V30 3560 H 335.052 0.580309 0.478273 0
M  V30 3561 H 337.023 2.74925 1.16012 0
M  V30 3562 C 335.772 2.06385 2.79822 0
M  V30 3563 H 335.095 2.92718 2.72316 0
M  V30 3564 H 336.535 2.30761 3.55704 0
M  V30 3565 C 334.994 0.851414 3.25964 0
M  V30 3566 O 335.524 0.0541904 4.01663 0
M  V30 3567 N 333.73 0.66672 2.82848 0
M  V30 3568 H 333.277 1.31665 2.21409 0
M  V30 3569 H 333.235 -0.143032 3.14074 0
M  V30 3570 N 337.007 -0.598083 1.45811 0
M  V30 3571 C 338.418 -1.18011 1.44673 0
M  V30 3572 C 338.769 -1.95378 0.179364 0
M  V30 3573 O 337.894 -2.04124 -0.718509 0
M  V30 3574 C 338.489 -2.14677 2.62105 0
M  V30 3575 C 337.048 -2.68236 2.64057 0
M  V30 3576 C 336.195 -1.43816 2.37091 0
M  V30 3577 H 339.146 -0.38686 1.53913 0
M  V30 3578 H 339.167 -2.97878 2.36746 0
M  V30 3579 H 338.679 -1.5834 3.5433 0
M  V30 3580 H 336.78 -3.28486 1.75864 0
M  V30 3581 H 336.893 -3.12021 3.63566 0
M  V30 3582 H 335.257 -1.731 1.86838 0
M  V30 3583 H 336.04 -0.893333 3.31473 0
M  V30 3584 N 338.485 -1.33259 -0.841409 0
M  V30 3585 C 339.71 -1.2775 -1.63385 0
M  V30 3586 C 340.135 0.149188 -1.87507 0
M  V30 3587 O 339.493 1.10498 -1.43736 0
M  V30 3588 C 339.541 -2.05571 -2.96265 0
M  V30 3589 O 338.645 -1.41257 -3.87453 0
M  V30 3590 H 337.986 -0.439627 -0.497618 0
M  V30 3591 H 340.516 -1.75782 -1.04699 0
M  V30 3592 H 340.526 -2.16241 -3.45982 0
M  V30 3593 H 339.201 -3.09309 -2.7803 0
M  V30 3594 H 337.778 -1.39217 -3.45938 0
M  V30 3595 N 339.963 1.05934 -1.16686 0
M  V30 3596 C 341.191 1.8249 -0.974929 0
M  V30 3597 C 341.606 1.82679 0.476861 0
M  V30 3598 O 340.963 1.2486 1.33103 0
M  V30 3599 C 341.014 3.28943 -1.49929 0
M  V30 3600 O 340.735 3.28886 -2.89423 0
M  V30 3601 C 342.236 4.22215 -1.35089 0
M  V30 3602 H 339.456 0.575295 -0.345365 0
M  V30 3603 H 342 1.33631 -1.548 0
M  V30 3604 H 340.155 3.751 -0.968423 0
M  V30 3605 H 340.569 4.20493 -3.13506 0
M  V30 3606 H 342.043 5.22987 -1.76603 0
M  V30 3607 H 342.52 4.38195 -0.296935 0
M  V30 3608 H 343.126 3.81907 -1.87155 0
M  V30 3609 N 341.441 0.965919 1.2453 0
M  V30 3610 C 342.666 0.643971 1.97149 0
M  V30 3611 C 343.091 -0.779487 1.71189 0
M  V30 3612 O 342.449 -1.5288 0.974553 0
M  V30 3613 C 342.497 0.922557 3.48599 0
M  V30 3614 O 341.601 0.00707672 4.12399 0
M  V30 3615 H 340.942 0.243647 0.617683 0
M  V30 3616 H 343.472 1.29558 1.58353 0
M  V30 3617 H 343.482 0.853373 3.98976 0
M  V30 3618 H 342.157 1.95996 3.66822 0
M  V30 3619 H 340.734 0.12943 3.72675 0
M  V30 3620 N 342.919 -1.39368 0.735821 0
M  V30 3621 C 343.849 -2.33234 0.111506 0
M  V30 3622 C 344.83 -1.53954 -0.723334 0
M  V30 3623 O 346.015 -1.82344 -0.668147 0
M  V30 3624 C 343.145 -3.38057 -0.795917 0
M  V30 3625 C 342.099 -4.2795 -0.065172 0
M  V30 3626 C 341.425 -5.23479 -1.08967 0
M  V30 3627 C 342.725 -5.10741 1.09273 0
M  V30 3628 H 344.419 -2.85692 0.895571 0
M  V30 3629 H 341.965 -1.37364 0.432109 0
M  V30 3630 H 343.918 -4.02675 -1.24221 0
M  V30 3631 H 342.642 -2.8404 -1.61211 0
M  V30 3632 H 341.301 -3.64813 0.361511 0
M  V30 3633 H 340.949 -4.65758 -1.89944 0
M  V30 3634 H 340.649 -5.84472 -0.605489 0
M  V30 3635 H 342.173 -5.90974 -1.53565 0
M  V30 3636 H 343.587 -5.68699 0.724841 0
M  V30 3637 H 341.984 -5.8088 1.50659 0
M  V30 3638 H 343.054 -4.45525 1.91404 0
M  V30 3639 N 344.397 -0.483516 -1.5 0
M  V30 3640 C 345.645 0.067027 -2.01989 0
M  V30 3641 C 345.966 1.3909 -1.36671 0
M  V30 3642 O 345.236 1.88978 -0.516152 0
M  V30 3643 H 343.816 0.0277606 -0.746484 0
M  V30 3644 H 346.478 -0.636773 -1.84204 0
M  V30 3645 H 345.574 0.209484 -3.11396 0
M  V30 3646 N 345.875 1.56104 -0.216619 0
M  V30 3647 C 347.286 1.844 0.292128 0
M  V30 3648 C 347.637 1.13788 1.59833 0
M  V30 3649 O 346.762 0.405888 2.12559 0
M  V30 3650 C 347.357 3.3452 0.53681 0
M  V30 3651 C 345.916 3.63151 0.989876 0
M  V30 3652 C 345.063 2.77255 0.0502302 0
M  V30 3653 H 348.014 1.52481 -0.439926 0
M  V30 3654 H 348.035 3.54459 1.38345 0
M  V30 3655 H 347.547 3.85885 -0.414031 0
M  V30 3656 H 345.648 3.17238 1.95425 0
M  V30 3657 H 345.761 4.71177 0.867698 0
M  V30 3658 H 344.125 2.48555 0.556117 0
M  V30 3659 H 344.908 3.31416 -0.89544 0
M  V30 3660 N 347.353 -0.0568162 1.57498 0
M  V30 3661 C 348.581 -0.765626 1.92213 0
M  V30 3662 C 348.996 -1.70353 0.813961 0
M  V30 3663 O 348.353 -1.81268 -0.211701 0
M  V30 3664 C 348.404 -1.5465 3.2675 0
M  V30 3665 O 348.125 -0.646278 4.33307 0
M  V30 3666 C 349.626 -2.35497 3.75574 0
M  V30 3667 H 346.846 -0.216835 0.634999 0
M  V30 3668 H 349.39 -0.0226146 2.04487 0
M  V30 3669 H 347.545 -2.24165 3.15957 0
M  V30 3670 H 347.959 -1.19093 5.108 0
M  V30 3671 H 349.433 -2.85722 4.72299 0
M  V30 3672 H 349.91 -3.15692 3.05344 0
M  V30 3673 H 350.516 -1.7111 3.8936 0
M  V30 3674 N 348.832 -1.54138 -0.328536 0
M  V30 3675 C 349.762 -1.86167 -1.40939 0
M  V30 3676 C 350.743 -0.718044 -1.54202 0
M  V30 3677 O 351.928 -0.971328 -1.68163 0
M  V30 3678 C 349.058 -2.08461 -2.77779 0
M  V30 3679 C 348.012 -3.24299 -2.7931 0
M  V30 3680 C 347.338 -3.31955 -4.19178 0
M  V30 3681 C 348.638 -4.62065 -2.43502 0
M  V30 3682 H 350.332 -2.76689 -1.14383 0
M  V30 3683 H 347.878 -1.33132 -0.548806 0
M  V30 3684 H 349.831 -2.29453 -3.53454 0
M  V30 3685 H 348.555 -1.14684 -3.05802 0
M  V30 3686 H 347.214 -3.03187 -2.0609 0
M  V30 3687 H 346.862 -2.35745 -4.44335 0
M  V30 3688 H 346.562 -4.09805 -4.2111 0
M  V30 3689 H 348.086 -3.55175 -4.96672 0
M  V30 3690 H 349.5 -4.8297 -3.08889 0
M  V30 3691 H 347.897 -5.42429 -2.56693 0
M  V30 3692 H 348.967 -4.64652 -1.38659 0
M  V30 3693 N 350.31 0.590341 -1.46126 0
M  V30 3694 C 351.22 1.72793 -1.58681 0
M  V30 3695 C 352.236 1.67516 -0.470566 0
M  V30 3696 O 353.412 1.87562 -0.733642 0
M  V30 3697 C 350.477 3.09287 -1.5666 0
M  V30 3698 C 349.538 3.25886 -2.79458 0
M  V30 3699 C 348.771 4.55869 -2.77524 0
M  V30 3700 O 348.994 5.3928 -1.85832 0
M  V30 3701 O 347.928 4.75552 -3.68964 0
M  V30 3702 H 351.754 1.65149 -2.54872 0
M  V30 3703 H 349.339 0.756486 -1.28832 0
M  V30 3704 H 351.221 3.90577 -1.58202 0
M  V30 3705 H 349.896 3.17385 -0.636271 0
M  V30 3706 H 348.803 2.44119 -2.83472 0
M  V30 3707 H 350.136 3.22675 -3.71674 0
M  V30 3708 N 351.788 1.33704 0.83433 0
M  V30 3709 C 353.199 1.22813 1.4062 0
M  V30 3710 C 353.55 -0.151107 1.95617 0
M  V30 3711 O 352.675 -1.05092 1.89168 0
M  V30 3712 C 353.27 2.22355 2.55624 0
M  V30 3713 C 351.829 2.1529 3.08751 0
M  V30 3714 C 350.976 2.09589 1.8157 0
M  V30 3715 H 353.927 1.45236 0.639702 0
M  V30 3716 H 353.948 1.83391 3.33389 0
M  V30 3717 H 353.46 3.22728 2.15566 0
M  V30 3718 H 351.561 1.18235 3.53343 0
M  V30 3719 H 351.674 3.06038 3.68616 0
M  V30 3720 H 350.038 1.55134 2.02004 0
M  V30 3721 H 350.821 3.11777 1.43701 0
M  V30 3722 N 353.266 -1.05314 1.17247 0
M  V30 3723 C 354.176 -2.16538 0.90268 0
M  V30 3724 C 355.192 -1.73523 -0.128707 0
M  V30 3725 O 356.368 -2.01337 0.0502701 0
M  V30 3726 C 353.433 -3.44167 0.418356 0
M  V30 3727 C 352.494 -4.01635 1.51618 0
M  V30 3728 C 351.727 -5.23171 1.05487 0
M  V30 3729 O 351.95 -5.70327 -0.0914715 0
M  V30 3730 O 350.884 -5.72848 1.8474 0
M  V30 3731 H 354.71 -2.42145 1.83302 0
M  V30 3732 H 352.295 -1.15037 0.953246 0
M  V30 3733 H 354.177 -4.21112 0.155726 0
M  V30 3734 H 352.852 -3.20063 -0.48385 0
M  V30 3735 H 351.759 -3.26135 1.83268 0
M  V30 3736 H 353.092 -4.30053 2.39405 0
M  V30 3737 N 354.744 -0.972509 -1.24016 0
M  V30 3738 C 355.654 -0.5143 -2.28893 0
M  V30 3739 C 356.67 0.427078 -1.68677 0
M  V30 3740 O 357.846 0.298939 -1.99169 0
M  V30 3741 C 354.911 0.183598 -3.46214 0
M  V30 3742 C 353.972 -0.798202 -4.21814 0
M  V30 3743 C 353.205 -0.133514 -5.33533 0
M  V30 3744 O 353.428 1.07714 -5.60137 0
M  V30 3745 O 352.362 -0.828103 -5.96176 0
M  V30 3746 H 356.188 -1.38629 -2.70214 0
M  V30 3747 H 353.773 -0.739769 -1.29799 0
M  V30 3748 H 355.655 0.575433 -4.17453 0
M  V30 3749 H 354.33 1.03048 -3.0686 0
M  V30 3750 H 353.237 -1.24059 -3.52931 0
M  V30 3751 H 354.57 -1.61364 -4.64997 0
M  V30 3752 N 356.222 1.38976 -0.743202 0
M  V30 3753 C 357.468 2.0064 -0.295189 0
M  V30 3754 C 357.801 1.5885 1.11716 0
M  V30 3755 O 357.076 0.821181 1.76315 0
M  V30 3756 C 357.359 3.578 -0.406318 0
M  V30 3757 C 357.212 4.09586 -1.85903 0
M  V30 3758 C 358.531 4.39616 0.206439 0
M  V30 3759 H 355.65 0.728935 -0.108733 0
M  V30 3760 H 358.292 1.65067 -0.940897 0
M  V30 3761 H 356.442 3.88235 0.143419 0
M  V30 3762 H 358.114 3.89837 -2.46627 0
M  V30 3763 H 356.357 3.6284 -2.3776 0
M  V30 3764 H 357.028 5.18708 -1.888 0
M  V30 3765 H 359.504 4.15273 -0.262283 0
M  V30 3766 H 358.38 5.48812 0.0983819 0
M  V30 3767 H 358.641 4.22754 1.2935 0
M  V30 3768 N 357.7 0.491464 1.49741 0
M  V30 3769 C 358.946 -0.0565092 2.02721 0
M  V30 3770 C 359.279 -1.37522 1.37118 0
M  V30 3771 O 358.554 -1.87866 0.503645 0
M  V30 3772 C 358.837 -0.219051 3.59433 0
M  V30 3773 C 358.69 1.12211 4.35579 0
M  V30 3774 C 360.009 -0.964157 4.29409 0
M  V30 3775 H 357.128 -0.0190627 0.736753 0
M  V30 3776 H 359.77 0.641021 1.7886 0
M  V30 3777 H 357.92 -0.813165 3.79895 0
M  V30 3778 H 359.592 1.75437 4.26637 0
M  V30 3779 H 357.835 1.71377 3.98513 0
M  V30 3780 H 358.506 0.961794 5.43556 0
M  V30 3781 H 360.982 -0.460378 4.13545 0
M  V30 3782 H 359.858 -1.04671 5.38828 0
M  V30 3783 H 360.119 -2.00563 3.93988 0
M  V30 3784 N 359.178 -1.55987 0.224894 0
M  V30 3785 C 360.126 -2.21808 -0.700283 0
M  V30 3786 C 361.12 -1.19854 -1.19714 0
M  V30 3787 O 362.326 -1.37925 -1.15658 0
M  V30 3788 H 358.701 -0.711226 -0.244258 0
M  V30 3789 H 360.672 -2.98152 -0.121749 0
M  V30 3790 C 359.421 -2.91444 -1.8962 0
M  V30 3791 H 358.744 -3.69655 -1.52299 0
M  V30 3792 H 360.184 -3.40894 -2.52125 0
M  V30 3793 C 358.643 -1.94098 -2.75368 0
M  V30 3794 O 359.173 -1.46004 -3.74227 0
M  V30 3795 N 357.379 -1.61675 -2.41474 0
M  V30 3796 H 356.926 -2.00979 -1.61137 0
M  V30 3797 H 356.884 -0.968036 -2.99126 0
M  V30 3798 N 360.656 0.0484629 -1.57525 0
M  V30 3799 C 362.072 0.40375 -1.54409 0
M  V30 3800 C 362.272 1.77786 -0.948384 0
M  V30 3801 O 361.328 2.46189 -0.560983 0
M  V30 3802 C 362.641 0.323394 -2.98956 0
M  V30 3803 C 364.189 0.401892 -3.10409 0
M  V30 3804 C 364.664 0.351195 -4.56652 0
M  V30 3805 N 366.155 0.410576 -4.61377 0
M  V30 3806 C 366.89 0.393933 -5.72045 0
M  V30 3807 N 366.386 0.330724 -6.9201 0
M  V30 3808 N 368.179 0.442227 -5.60358 0
M  V30 3809 H 360.33 -0.851016 -1.94606 0
M  V30 3810 H 362.593 -0.321721 -0.89174 0
M  V30 3811 H 362.299 -0.62011 -3.4619 0
M  V30 3812 H 362.173 1.12463 -3.60044 0
M  V30 3813 H 364.56 1.33582 -2.63134 0
M  V30 3814 H 364.641 -0.428342 -2.52188 0
M  V30 3815 H 364.285 -0.578987 -5.04589 0
M  V30 3816 H 364.215 1.19928 -5.12762 0
M  V30 3817 H 366.706 0.462729 -3.75056 0
M  V30 3818 H 367.019 0.322592 -7.72126 0
M  V30 3819 H 365.364 0.29706 -6.94365 0
M  V30 3820 H 368.555 0.489464 -4.65534 0
M  V30 3821 H 368.728 0.425788 -6.466 0
M  V30 3822 N 362.134 1.5431 0.320358 0
M  V30 3823 C 363.064 1.86912 1.3995 0
M  V30 3824 C 364.045 0.726211 1.53819 0
M  V30 3825 O 365.23 0.980233 1.67646 0
M  V30 3826 C 362.36 2.09932 2.7667 0
M  V30 3827 C 361.314 3.25776 2.77586 0
M  V30 3828 C 360.64 3.34173 4.17412 0
M  V30 3829 C 361.94 4.6335 2.41048 0
M  V30 3830 H 363.634 2.77292 1.12914 0
M  V30 3831 H 361.18 1.33421 0.541738 0
M  V30 3832 H 363.133 2.31324 3.52232 0
M  V30 3833 H 361.857 1.16304 3.0519 0
M  V30 3834 H 360.516 3.04276 2.04479 0
M  V30 3835 H 360.164 2.38098 4.43078 0
M  V30 3836 H 359.864 4.12033 4.18931 0
M  V30 3837 H 361.388 3.57803 4.94782 0
M  V30 3838 H 362.802 4.84602 3.06324 0
M  V30 3839 H 361.199 5.43782 2.53813 0
M  V30 3840 H 362.269 4.65381 1.36193 0
M  V30 3841 N 363.613 -0.582584 1.46437 0
M  V30 3842 C 364.546 -1.70633 1.51524 0
M  V30 3843 C 365.524 -1.58349 0.369351 0
M  V30 3844 O 366.708 -1.79563 0.573516 0
M  V30 3845 C 363.835 -3.08687 1.39392 0
M  V30 3846 C 362.881 -3.3949 2.58164 0
M  V30 3847 S 363.714 -3.31548 4.20519 0
M  V30 3848 C 364.87 -4.72139 4.10896 0
M  V30 3849 H 365.103 -1.66058 2.46601 0
M  V30 3850 H 362.636 -0.761337 1.34324 0
M  V30 3851 H 364.594 -3.8833 1.33079 0
M  V30 3852 H 363.255 -3.10751 0.457436 0
M  V30 3853 H 362.448 -4.40071 2.45669 0
M  V30 3854 H 362.05 -2.67415 2.61468 0
M  V30 3855 H 364.342 -5.62527 3.77584 0
M  V30 3856 H 365.285 -4.89692 5.11476 0
M  V30 3857 H 365.693 -4.48995 3.42146 0
M  V30 3858 N 365.091 -1.34144 -0.827227 0
M  V30 3859 C 366.041 -1.21923 -1.92663 0
M  V30 3860 C 367.025 -0.119294 -1.60457 0
M  V30 3861 O 368.217 -0.348539 -1.73534 0
M  V30 3862 C 365.346 -0.972492 -3.29238 0
M  V30 3863 C 364.432 -2.1154 -3.67576 0
M  V30 3864 N 364.823 -3.36627 -3.77512 0
M  V30 3865 C 363.121 -2.02468 -3.97395 0
M  V30 3866 C 363.822 -4.11658 -4.1099 0
M  V30 3867 N 362.798 -3.40207 -4.23981 0
M  V30 3868 H 366.6 -2.16721 -1.98517 0
M  V30 3869 H 364.114 -1.2632 -1.02064 0
M  V30 3870 H 366.111 -0.865847 -4.0781 0
M  V30 3871 H 364.771 -0.0331509 -3.24683 0
M  V30 3872 H 365.782 -3.71234 -3.61118 0
M  V30 3873 H 362.459 -1.16265 -4.00985 0
M  V30 3874 H 363.849 -5.19657 -4.25918 0
M  V30 3875 N 366.569 1.04691 -1.17803 0
M  V30 3876 C 367.817 1.7743 -0.967617 0
M  V30 3877 C 368.138 1.88359 0.504574 0
M  V30 3878 O 367.408 1.40402 1.36617 0
M  V30 3879 H 365.988 0.657242 -0.355024 0
M  V30 3880 H 368.65 1.2638 -1.48371 0
M  V30 3881 H 367.746 2.78924 -1.40027 0
M  V30 3882 N 368.047 0.979072 1.23499 0
M  V30 3883 C 369.296 0.642751 1.91185 0
M  V30 3884 C 369.609 -0.827253 1.77245 0
M  V30 3885 O 370.815 -1.27458 2.39722 0
M  V30 3886 C 369.271 1.09901 3.42709 0
M  V30 3887 C 368.879 2.59327 3.65313 0
M  V30 3888 C 370.623 0.836371 4.16179 0
M  V30 3889 C 368.53 2.98627 5.10467 0
M  V30 3890 H 367.46 0.236698 0.715884 0
M  V30 3891 H 370.111 1.1868 1.39955 0
M  V30 3892 H 368.493 0.48319 3.93041 0
M  V30 3893 H 369.667 3.26136 3.25533 0
M  V30 3894 H 367.982 2.83323 3.05151 0
M  V30 3895 H 370.579 1.10586 5.23139 0
M  V30 3896 H 370.922 -0.227509 4.15678 0
M  V30 3897 H 371.455 1.41371 3.71832 0
M  V30 3898 H 368.194 4.04133 5.16098 0
M  V30 3899 H 367.714 2.3651 5.51201 0
M  V30 3900 H 369.393 2.89159 5.78788 0
M  V30 3901 N 369.525 -1.3858 0.750561 0
M  V30 3902 C 370.455 -2.33102 0.136237 0
M  V30 3903 C 371.436 -1.54713 -0.706965 0
M  V30 3904 O 372.621 -1.83043 -0.648769 0
M  V30 3905 C 369.751 -3.38882 -0.760017 0
M  V30 3906 C 368.705 -4.27995 -0.0197785 0
M  V30 3907 C 368.031 -5.24605 -1.03408 0
M  V30 3908 C 369.331 -5.09554 1.14684 0
M  V30 3909 H 371.025 -2.84726 0.925822 0
M  V30 3910 H 368.571 -1.36898 0.446654 0
M  V30 3911 H 370.524 -4.0397 -1.19943 0
M  V30 3912 H 369.248 -2.85734 -1.58189 0
M  V30 3913 H 367.907 -3.64409 0.400184 0
M  V30 3914 H 367.555 -4.67746 -1.84994 0
M  V30 3915 H 367.255 -5.85081 -0.543464 0
M  V30 3916 H 368.779 -5.9257 -1.47288 0
M  V30 3917 H 370.193 -5.67899 0.785118 0
M  V30 3918 H 368.59 -5.7925 1.56812 0
M  V30 3919 H 369.66 -4.4347 1.96118 0
M  V30 3920 N 371.003 -0.499398 -1.49478 0
M  V30 3921 C 372.231 0.0425456 -2.06856 0
M  V30 3922 C 372.646 1.30964 -1.35992 0
M  V30 3923 O 372.003 1.77172 -0.437762 0
M  V30 3924 C 372.054 0.301735 -3.60239 0
M  V30 3925 O 371.775 -0.915127 -4.28436 0
M  V30 3926 C 373.276 0.887499 -4.34325 0
M  V30 3927 H 370.496 -0.0197482 -0.670709 0
M  V30 3928 H 373.04 -0.696297 -1.92281 0
M  V30 3929 H 371.195 0.990556 -3.74522 0
M  V30 3930 H 371.609 -0.676993 -5.20113 0
M  V30 3931 H 373.083 1.01845 -5.42523 0
M  V30 3932 H 373.56 1.88488 -3.96698 0
M  V30 3933 H 374.166 0.236196 -4.24644 0
M  V30 3934 N 372.481 1.55866 -0.233164 0
M  V30 3935 C 373.391 2.24431 0.683217 0
M  V30 3936 C 374.407 1.2558 1.2044 0
M  V30 3937 O 375.583 1.58422 1.24356 0
M  V30 3938 C 372.648 2.91979 1.86947 0
M  V30 3939 C 371.709 4.06204 1.38912 0
M  V30 3940 C 370.942 4.70522 2.51883 0
M  V30 3941 O 371.165 4.33865 3.70293 0
M  V30 3942 O 370.099 5.59296 2.22423 0
M  V30 3943 H 373.925 3.03426 0.129059 0
M  V30 3944 H 371.51 1.494 -0.0022283 0
M  V30 3945 H 373.392 3.34573 2.56201 0
M  V30 3946 H 372.067 2.15935 2.41151 0
M  V30 3947 H 370.974 3.68155 0.664259 0
M  V30 3948 H 372.307 4.84025 0.893328 0
M  V30 3949 N 373.959 -0.0401083 1.57549 0
M  V30 3950 C 374.891 -1.07149 2.02612 0
M  V30 3951 C 375.904 -1.33126 0.937085 0
M  V30 3952 O 377.093 -1.30808 1.21456 0
M  V30 3953 C 374.193 -2.41561 2.37701 0
M  V30 3954 C 373.366 -2.35096 3.68848 0
M  V30 3955 C 372.425 -3.51867 3.91249 0
M  V30 3956 O 371.451 -3.3186 4.62447 0
M  V30 3957 N 372.653 -4.73351 3.36035 0
M  V30 3958 H 375.418 -0.687485 2.91708 0
M  V30 3959 H 372.979 -0.228248 1.60283 0
M  V30 3960 H 374.971 -3.18379 2.49833 0
M  V30 3961 H 373.541 -2.71846 1.54332 0
M  V30 3962 H 372.761 -1.4345 3.67173 0
M  V30 3963 H 374.049 -2.27908 4.54901 0
M  V30 3964 H 373.447 -4.92507 2.78304 0
M  V30 3965 H 372.004 -5.47572 3.53565 0
M  V30 3966 N 375.437 -1.54477 -0.31217 0
M  V30 3967 C 376.384 -1.84655 -1.38461 0
M  V30 3968 C 377.354 -0.694536 -1.50882 0
M  V30 3969 O 378.539 -0.942081 -1.6592 0
M  V30 3970 C 375.679 -2.0896 -2.74645 0
M  V30 3971 C 374.792 -3.36618 -2.70763 0
M  V30 3972 C 373.927 -3.50824 -3.98868 0
M  V30 3973 C 372.966 -4.72315 -3.89339 0
M  V30 3974 N 372.103 -4.83387 -5.09197 0
M  V30 3975 H 376.943 -2.76142 -1.12026 0
M  V30 3976 H 374.48 -1.36748 -0.542065 0
M  V30 3977 H 376.438 -2.21045 -3.53829 0
M  V30 3978 H 375.068 -1.20752 -2.99364 0
M  V30 3979 H 374.12 -3.33211 -1.83506 0
M  V30 3980 H 375.432 -4.25917 -2.59608 0
M  V30 3981 H 374.586 -3.62513 -4.86486 0
M  V30 3982 H 373.325 -2.59638 -4.12843 0
M  V30 3983 H 372.33 -4.6067 -3.00105 0
M  V30 3984 H 373.555 -5.64897 -3.76919 0
M  V30 3985 H 371.501 -3.9512 -5.23657 0
M  V30 3986 H 371.418 -5.66669 -5.00422 0
M  V30 3987 H 372.686 -4.9942 -5.98498 0
M  V30 3988 N 376.915 0.57481 -1.46744 0
M  V30 3989 C 377.848 1.69827 -1.52427 0
M  V30 3990 C 378.826 1.58151 -0.377744 0
M  V30 3991 O 380.01 1.79257 -0.58303 0
M  V30 3992 C 377.137 3.07943 -1.41027 0
M  V30 3993 C 376.183 3.38116 -2.59961 0
M  V30 3994 S 377.016 3.29313 -4.22272 0
M  V30 3995 C 378.172 4.69953 -4.13394 0
M  V30 3996 H 378.405 1.64748 -2.47478 0
M  V30 3997 H 375.938 0.754203 -1.34726 0
M  V30 3998 H 377.896 3.87619 -1.35137 0
M  V30 3999 H 376.557 3.10504 -0.473909 0
M  V30 4000 H 375.75 4.38762 -2.47999 0
M  V30 4001 H 375.352 2.66024 -2.62882 0
M  V30 4002 H 377.644 5.60517 -3.80562 0
M  V30 4003 H 378.587 4.86972 -5.14066 0
M  V30 4004 H 378.995 4.47174 -3.44522 0
M  V30 4005 N 378.394 1.34581 0.820102 0
M  V30 4006 C 379.643 1.26437 1.57151 0
M  V30 4007 C 379.956 -0.163111 1.94919 0
M  V30 4008 O 381.162 -0.366722 2.69012 0
M  V30 4009 C 379.618 2.21658 2.83541 0
M  V30 4010 C 379.226 3.69679 2.53065 0
M  V30 4011 C 380.97 2.22428 3.61561 0
M  V30 4012 C 378.877 4.56761 3.75664 0
M  V30 4013 H 377.807 0.469707 0.589823 0
M  V30 4014 H 380.458 1.59763 0.902656 0
M  V30 4015 H 378.84 1.81287 3.52067 0
M  V30 4016 H 380.014 4.18605 1.92631 0
M  V30 4017 H 378.329 3.71384 1.88316 0
M  V30 4018 H 380.926 2.8471 4.52597 0
M  V30 4019 H 381.269 1.22434 3.97889 0
M  V30 4020 H 381.802 2.61259 2.99981 0
M  V30 4021 H 378.541 5.57702 3.44454 0
M  V30 4022 H 378.061 4.12568 4.35371 0
M  V30 4023 H 379.74 4.71509 4.43044 0
M  V30 4024 N 379.872 -1.04064 1.18357 0
M  V30 4025 C 381.119 -1.77265 0.978947 0
M  V30 4026 C 381.447 -1.88189 -0.491428 0
M  V30 4027 O 380.702 -1.38653 -1.38108 0
M  V30 4028 C 381.001 -3.20634 1.57888 0
M  V30 4029 C 380.667 -3.29743 3.07539 0
M  V30 4030 C 379.329 -3.31937 3.48384 0
M  V30 4031 C 381.681 -3.29841 4.03552 0
M  V30 4032 C 379.009 -3.3187 4.83818 0
M  V30 4033 C 381.361 -3.31313 5.38901 0
M  V30 4034 C 380.025 -3.31799 5.79194 0
M  V30 4035 H 379.295 -0.648659 0.358222 0
M  V30 4036 H 381.942 -1.22225 1.47422 0
M  V30 4037 H 380.247 -3.78675 1.00561 0
M  V30 4038 H 381.944 -3.75917 1.39598 0
M  V30 4039 H 378.534 -3.28757 2.74986 0
M  V30 4040 H 382.718 -3.27337 3.73047 0
M  V30 4041 H 377.974 -3.30562 5.14333 0
M  V30 4042 H 382.148 -3.30338 6.13066 0
M  V30 4043 H 379.775 -3.315 6.84114 0
M  V30 4044 N 381.35 -0.985608 -1.22978 0
M  V30 4045 C 382.599 -0.652881 -1.90841 0
M  V30 4046 C 382.912 0.817842 -1.77681 0
M  V30 4047 O 384.118 1.26185 -2.40395 0
M  V30 4048 C 382.574 -1.11717 -3.42122 0
M  V30 4049 C 382.182 -2.6126 -3.63933 0
M  V30 4050 C 383.926 -0.85843 -4.1573 0
M  V30 4051 C 381.833 -3.0133 -5.08876 0
M  V30 4052 H 380.763 -0.240491 -0.714619 0
M  V30 4053 H 383.414 -1.1942 -1.39324 0
M  V30 4054 H 381.796 -0.504027 -3.92779 0
M  V30 4055 H 382.97 -3.27858 -3.23799 0
M  V30 4056 H 381.285 -2.84937 -3.03644 0
M  V30 4057 H 383.882 -1.13359 -5.22546 0
M  V30 4058 H 384.225 0.205461 -4.15793 0
M  V30 4059 H 384.758 -1.43341 -3.71077 0
M  V30 4060 H 381.497 -4.06864 -5.13947 0
M  V30 4061 H 381.017 -2.3943 -5.49939 0
M  V30 4062 H 382.696 -2.92224 -5.77247 0
M  V30 4063 N 382.828 1.3818 -0.7579 0
M  V30 4064 C 384.239 1.82726 -0.383134 0
M  V30 4065 C 384.59 1.63214 1.08884 0
M  V30 4066 O 383.715 1.13566 1.84205 0
M  V30 4067 C 384.31 3.31728 -0.688631 0
M  V30 4068 C 382.869 3.74606 -0.367091 0
M  V30 4069 C 382.016 2.60896 -0.939599 0
M  V30 4070 H 384.967 1.26847 -0.953699 0
M  V30 4071 H 384.988 3.80487 0.0316492 0
M  V30 4072 H 384.5 3.45898 -1.76001 0
M  V30 4073 H 382.601 3.66013 0.697532 0
M  V30 4074 H 382.714 4.71215 -0.865658 0
M  V30 4075 H 381.078 2.52075 -0.3647 0
M  V30 4076 H 381.861 2.77864 -2.0161 0
M  V30 4077 N 384.306 0.507319 1.49211 0
M  V30 4078 C 385.531 -0.033725 2.07373 0
M  V30 4079 C 385.956 -1.29485 1.36437 0
M  V30 4080 O 385.314 -1.76294 0.423087 0
M  V30 4081 C 385.362 -0.263945 3.59633 0
M  V30 4082 O 384.466 -1.33737 3.90113 0
M  V30 4083 H 383.807 0.0290331 0.663365 0
M  V30 4084 H 386.337 0.708749 1.91932 0
M  V30 4085 H 386.347 -0.493536 4.05004 0
M  V30 4086 H 385.022 0.657424 4.10671 0
M  V30 4087 H 383.599 -1.09224 3.56545 0
M  V30 4088 N 385.784 -1.5574 0.241426 0
M  V30 4089 C 387.009 -2.0366 -0.392111 0
M  V30 4090 C 387.434 -1.11969 -1.51144 0
M  V30 4091 O 386.792 -0.111594 -1.80956 0
M  V30 4092 C 386.84 -3.49638 -0.882371 0
M  V30 4093 O 385.944 -3.6108 -1.99235 0
M  V30 4094 H 385.285 -0.658379 -0.0862122 0
M  V30 4095 H 387.815 -2.01302 0.365881 0
M  V30 4096 H 387.825 -3.90351 -1.18702 0
M  V30 4097 H 386.5 -4.15852 -0.0632361 0
M  V30 4098 H 385.077 -3.32262 -1.69282 0
M  V30 4099 N 387.262 0.0317525 -1.57568 0
M  V30 4100 C 388.511 0.722131 -1.8833 0
M  V30 4101 C 388.824 1.76664 -0.839587 0
M  V30 4102 O 390.03 2.50942 -1.03635 0
M  V30 4103 C 388.486 1.33544 -3.34207 0
M  V30 4104 C 388.094 0.327415 -4.46802 0
M  V30 4105 C 389.838 2.00585 -3.7412 0
M  V30 4106 C 387.745 0.948915 -5.83738 0
M  V30 4107 H 386.675 0.273466 -0.702661 0
M  V30 4108 H 389.326 -0.0235811 -1.83485 0
M  V30 4109 H 387.708 2.13077 -3.33788 0
M  V30 4110 H 388.882 -0.441006 -4.58685 0
M  V30 4111 H 387.197 -0.240758 -4.15703 0
M  V30 4112 H 389.794 2.47932 -4.73744 0
M  V30 4113 H 390.137 2.82285 -3.05975 0
M  V30 4114 H 390.67 1.27831 -3.76702 0
M  V30 4115 H 387.409 0.171387 -6.55276 0
M  V30 4116 H 386.929 1.68724 -5.7558 0
M  V30 4117 H 388.608 1.45705 -6.3038 0
M  V30 4118 N 388.74 1.54641 0.303973 0
M  V30 4119 C 389.703 1.84646 1.35789 0
M  V30 4120 C 390.703 0.7192 1.4382 0
M  V30 4121 O 391.893 0.987491 1.43507 0
M  V30 4122 C 389.025 2.02407 2.74307 0
M  V30 4123 H 390.218 2.78829 1.10429 0
M  V30 4124 H 387.771 1.46658 0.540487 0
M  V30 4125 H 388.506 1.10502 3.04893 0
M  V30 4126 H 388.291 2.84453 2.69868 0
M  V30 4127 H 389.781 2.27002 3.50514 0
M  V30 4128 N 390.218 -0.567019 1.47046 0
M  V30 4129 C 391.465 -1.32462 1.53167 0
M  V30 4130 C 391.793 -1.93571 0.189841 0
M  V30 4131 O 391.048 -1.77865 -0.816243 0
M  V30 4132 C 391.347 -2.4623 2.59047 0
M  V30 4133 C 391.013 -2.03014 4.02612 0
M  V30 4134 C 389.675 -1.90944 4.41694 0
M  V30 4135 C 392.027 -1.69895 4.92732 0
M  V30 4136 C 389.355 -1.44035 5.68745 0
M  V30 4137 C 391.707 -1.2446 6.20236 0
M  V30 4138 C 390.371 -1.10979 6.5821 0
M  V30 4139 H 389.641 -0.484713 0.560477 0
M  V30 4140 H 392.288 -0.636888 1.80599 0
M  V30 4141 H 390.593 -3.20517 2.25335 0
M  V30 4142 H 392.29 -3.04427 2.61008 0
M  V30 4143 H 388.88 -2.13348 3.71726 0
M  V30 4144 H 393.064 -1.78098 4.63244 0
M  V30 4145 H 388.32 -1.32254 5.96925 0
M  V30 4146 H 392.494 -0.978924 6.89485 0
M  V30 4147 H 390.121 -0.744078 7.5655 0
M  V30 4148 N 391.696 -1.35014 -0.812953 0
M  V30 4149 C 392.626 -1.30069 -1.93919 0
M  V30 4150 C 393.607 -0.176275 -1.69184 0
M  V30 4151 O 394.792 -0.370227 -1.90638 0
M  V30 4152 C 391.922 -1.06547 -3.30552 0
M  V30 4153 C 390.876 -2.15561 -3.69753 0
M  V30 4154 C 390.202 -1.77214 -5.04479 0
M  V30 4155 C 391.502 -3.57476 -3.808 0
M  V30 4156 H 393.196 -2.24303 -1.98314 0
M  V30 4157 H 390.742 -1.07977 -0.952736 0
M  V30 4158 H 392.695 -1.01729 -4.08937 0
M  V30 4159 H 391.419 -0.0875719 -3.26483 0
M  V30 4160 H 390.078 -2.19466 -2.9365 0
M  V30 4161 H 389.726 -0.780589 -4.96906 0
M  V30 4162 H 389.426 -2.50184 -5.31678 0
M  V30 4163 H 390.95 -1.7391 -5.8531 0
M  V30 4164 H 392.364 -3.55929 -4.4943 0
M  V30 4165 H 390.761 -4.29152 -4.19462 0
M  V30 4166 H 391.831 -3.94091 -2.82525 0
M  V30 4167 N 393.175 1.03435 -1.18907 0
M  V30 4168 C 394.403 1.80381 -1.01342 0
M  V30 4169 C 394.818 1.83649 0.438005 0
M  V30 4170 O 394.175 1.27655 1.30424 0
M  V30 4171 C 394.226 3.25689 -1.56873 0
M  V30 4172 O 393.947 3.22673 -2.96334 0
M  V30 4173 C 395.448 4.19255 -1.44014 0
M  V30 4174 H 392.668 0.56784 -0.35749 0
M  V30 4175 H 395.212 1.30317 -1.576 0
M  V30 4176 H 393.367 3.72962 -1.04777 0
M  V30 4177 H 393.781 4.13748 -3.22355 0
M  V30 4178 H 395.255 5.19123 -1.87657 0
M  V30 4179 H 395.732 4.37467 -0.389815 0
M  V30 4180 H 396.338 3.77851 -1.95214 0
M  V30 4181 N 394.653 0.992116 1.22453 0
M  V30 4182 C 395.881 0.685944 1.95198 0
M  V30 4183 C 396.296 -0.749233 1.73297 0
M  V30 4184 O 395.653 -1.50549 1.03156 0
M  V30 4185 C 395.704 0.981395 3.47924 0
M  V30 4186 O 395.425 2.36018 3.6909 0
M  V30 4187 C 396.926 0.692815 4.37853 0
M  V30 4188 H 394.146 0.253821 0.621141 0
M  V30 4189 H 396.69 1.32668 1.55626 0
M  V30 4190 H 394.845 0.386481 3.85467 0
M  V30 4191 H 395.259 2.45884 4.63294 0
M  V30 4192 H 396.733 0.949818 5.43767 0
M  V30 4193 H 397.21 -0.373181 4.37612 0
M  V30 4194 H 397.816 1.26874 4.05935 0
M  V30 4195 N 396.131 -1.37776 0.765217 0
M  V30 4196 C 397.061 -2.32945 0.160953 0
M  V30 4197 C 398.042 -1.55454 -0.690516 0
M  V30 4198 O 399.227 -1.83721 -0.629318 0
M  V30 4199 C 396.357 -3.39669 -0.724031 0
M  V30 4200 C 395.311 -4.27992 0.0256173 0
M  V30 4201 C 394.637 -5.25673 -0.978383 0
M  V30 4202 C 395.937 -5.08309 1.20082 0
M  V30 4203 H 397.631 -2.83728 0.955969 0
M  V30 4204 H 395.177 -1.36416 0.461149 0
M  V30 4205 H 397.13 -4.05219 -1.15652 0
M  V30 4206 H 395.854 -2.87396 -1.5515 0
M  V30 4207 H 394.513 -3.63964 0.438812 0
M  V30 4208 H 394.161 -4.69682 -1.80022 0
M  V30 4209 H 393.861 -5.85625 -0.481378 0
M  V30 4210 H 395.385 -5.94098 -1.40995 0
M  V30 4211 H 396.799 -5.67034 0.845307 0
M  V30 4212 H 395.196 -5.77554 1.62947 0
M  V30 4213 H 396.266 -4.41365 2.00811 0
M  V30 4214 N 397.609 -0.515225 -1.4894 0
M  V30 4215 C 398.519 0.259774 -2.33157 0
M  V30 4216 C 399.535 0.953501 -1.45548 0
M  V30 4217 O 400.711 0.931735 -1.78552 0
M  V30 4218 C 397.776 1.30193 -3.21326 0
M  V30 4219 C 396.837 0.620129 -4.24797 0
M  V30 4220 C 396.07 1.61263 -5.08753 0
M  V30 4221 O 396.293 2.84389 -4.94448 0
M  V30 4222 O 395.227 1.16013 -5.90614 0
M  V30 4223 H 399.053 -0.429932 -3.00641 0
M  V30 4224 H 396.638 -0.276346 -1.46822 0
M  V30 4225 H 398.52 1.90455 -3.75905 0
M  V30 4226 H 397.195 1.97431 -2.56521 0
M  V30 4227 H 396.102 -0.0226019 -3.74093 0
M  V30 4228 H 397.435 -0.0100493 -4.92199 0
M  V30 4229 N 399.087 1.5561 -0.249682 0
M  V30 4230 C 400.503 1.59254 0.105103 0
M  V30 4231 C 400.703 1.26685 1.56694 0
M  V30 4232 O 399.759 1.0155 2.31179 0
M  V30 4233 C 401.072 2.99687 -0.246592 0
M  V30 4234 C 402.62 3.12416 -0.191118 0
M  V30 4235 C 403.095 4.55074 -0.516885 0
M  V30 4236 N 404.586 4.60835 -0.467489 0
M  V30 4237 C 405.321 5.69201 -0.69268 0
M  V30 4238 N 404.817 6.85817 -0.981146 0
M  V30 4239 N 406.61 5.58635 -0.623198 0
M  V30 4240 H 398.761 1.75049 -1.20298 0
M  V30 4241 H 401.024 0.815003 -0.484225 0
M  V30 4242 H 400.73 3.28267 -1.26228 0
M  V30 4243 H 400.604 3.74798 0.424962 0
M  V30 4244 H 402.991 2.83615 0.815247 0
M  V30 4245 H 403.072 2.39573 -0.896563 0
M  V30 4246 H 402.716 4.84596 -1.52082 0
M  V30 4247 H 402.646 5.26181 0.210068 0
M  V30 4248 H 405.137 3.7705 -0.253373 0
M  V30 4249 H 405.45 7.64341 -1.14032 0
M  V30 4250 H 403.795 6.87494 -1.01865 0
M  V30 4251 H 406.986 4.66406 -0.397863 0
M  V30 4252 H 407.159 6.43017 -0.802093 0
M  V30 4253 N 400.565 -0.0233959 1.57583 0
M  V30 4254 C 401.814 -0.712133 1.8871 0
M  V30 4255 C 402.127 -1.76217 0.848944 0
M  V30 4256 O 403.333 -2.50389 1.04964 0
M  V30 4257 C 401.789 -1.3177 3.3491 0
M  V30 4258 C 401.397 -0.303715 4.46969 0
M  V30 4259 C 403.141 -1.98598 3.75179 0
M  V30 4260 C 401.048 -0.917945 5.84233 0
M  V30 4261 H 399.978 -0.269735 0.704101 0
M  V30 4262 H 402.629 0.0333114 1.8347 0
M  V30 4263 H 401.011 -2.11304 3.34913 0
M  V30 4264 H 402.185 0.465325 4.58445 0
M  V30 4265 H 400.5 0.2628 4.1557 0
M  V30 4266 H 403.097 -2.45416 4.75053 0
M  V30 4267 H 403.44 -2.80659 3.07468 0
M  V30 4268 H 403.973 -1.25831 3.77374 0
M  V30 4269 H 400.712 -0.136633 6.55358 0
M  V30 4270 H 400.232 -1.65669 5.76467 0
M  V30 4271 H 401.911 -1.4236 6.31144 0
M  V30 4272 N 402.043 -1.548 -0.295768 0
M  V30 4273 C 402.973 -1.89115 -1.36959 0
M  V30 4274 C 403.954 -0.75059 -1.52644 0
M  V30 4275 O 405.139 -1.00678 -1.66065 0
M  V30 4276 C 402.269 -2.14307 -2.73295 0
M  V30 4277 C 401.223 -3.30151 -2.72368 0
M  V30 4278 C 400.549 -3.40772 -4.12042 0
M  V30 4279 C 401.849 -4.67126 -2.33646 0
M  V30 4280 H 403.543 -2.79053 -1.08488 0
M  V30 4281 H 401.089 -1.34266 -0.520443 0
M  V30 4282 H 403.042 -2.36898 -3.48507 0
M  V30 4283 H 401.766 -1.21145 -3.03301 0
M  V30 4284 H 400.425 -3.0749 -1.99613 0
M  V30 4285 H 400.073 -2.45117 -4.39234 0
M  V30 4286 H 399.773 -4.18645 -4.12322 0
M  V30 4287 H 401.297 -3.6563 -4.89027 0
M  V30 4288 H 402.711 -4.89414 -2.98575 0
M  V30 4289 H 401.108 -5.47751 -2.45129 0
M  V30 4290 H 402.178 -4.67489 -1.28772 0
M  V30 4291 N 403.521 0.559213 -1.47345 0
M  V30 4292 C 404.932 1.14134 -1.47751 0
M  V30 4293 C 405.283 1.94834 -0.231103 0
M  V30 4294 O 404.408 2.05957 0.664137 0
M  V30 4295 C 405.003 2.07653 -2.67705 0
M  V30 4296 C 403.562 2.61141 -2.71076 0
M  V30 4297 C 402.709 1.3748 -2.40821 0
M  V30 4298 H 405.66 0.345917 -1.54884 0
M  V30 4299 H 405.681 2.91497 -2.44561 0
M  V30 4300 H 405.193 1.4889 -3.58404 0
M  V30 4301 H 403.294 3.23707 -1.84511 0
M  V30 4302 H 403.407 3.02272 -3.7171 0
M  V30 4303 H 401.771 1.68086 -1.91362 0
M  V30 4304 H 402.554 0.805135 -3.33725 0
M  V30 4305 N 404.999 1.35443 0.805782 0
M  V30 4306 C 405.909 1.30546 1.94923 0
M  V30 4307 C 406.925 0.210233 1.72725 0
M  V30 4308 O 408.101 0.43975 1.9654 0
M  V30 4309 C 405.166 1.07782 3.29521 0
M  V30 4310 C 404.227 2.26625 3.64609 0
M  V30 4311 C 403.46 2.04938 4.92784 0
M  V30 4312 O 403.683 1.01624 5.61274 0
M  V30 4313 O 402.617 2.9232 5.26149 0
M  V30 4314 H 406.443 2.26779 2.02002 0
M  V30 4315 H 404.028 1.15823 0.943682 0
M  V30 4316 H 405.91 0.969392 4.10098 0
M  V30 4317 H 404.585 0.146003 3.23371 0
M  V30 4318 H 403.492 2.43033 2.84404 0
M  V30 4319 H 404.825 3.18257 3.75464 0
M  V30 4320 N 406.477 -1.02803 1.19454 0
M  V30 4321 C 407.893 -1.28473 0.946937 0
M  V30 4322 C 408.093 -1.97881 -0.380202 0
M  V30 4323 O 407.149 -2.26719 -1.11151 0
M  V30 4324 C 408.462 -2.13099 2.12154 0
M  V30 4325 C 410.01 -2.26404 2.16126 0
M  V30 4326 C 410.485 -3.14402 3.33039 0
M  V30 4327 N 411.976 -3.21991 3.32981 0
M  V30 4328 C 412.711 -3.90272 4.20089 0
M  V30 4329 N 412.207 -4.60777 5.17355 0
M  V30 4330 N 414 -3.8668 4.07964 0
M  V30 4331 H 406.151 -0.561665 2.04839 0
M  V30 4332 H 408.414 -0.310438 0.89573 0
M  V30 4333 H 408.12 -1.69422 3.08203 0
M  V30 4334 H 407.994 -3.13813 2.09287 0
M  V30 4335 H 410.381 -2.69311 1.20647 0
M  V30 4336 H 410.462 -1.25237 2.23045 0
M  V30 4337 H 410.106 -2.72204 4.28798 0
M  V30 4338 H 410.036 -4.1563 3.23356 0
M  V30 4339 H 412.527 -2.71778 2.62574 0
M  V30 4340 H 412.84 -5.10513 5.80169 0
M  V30 4341 H 411.185 -4.5964 5.21302 0
M  V30 4342 H 414.376 -3.30739 3.31254 0
M  V30 4343 H 414.549 -4.39621 4.76064 0
M  V30 4344 N 407.956 -0.998596 -1.21925 0
M  V30 4345 C 409.203 -0.677663 -1.90824 0
M  V30 4346 C 409.531 0.790905 -1.77693 0
M  V30 4347 O 408.786 1.58817 -1.14349 0
M  V30 4348 C 409.085 -1.03648 -3.42041 0
M  V30 4349 C 408.751 -2.49825 -3.75364 0
M  V30 4350 C 407.413 -2.8977 -3.8417 0
M  V30 4351 C 409.765 -3.44545 -3.91073 0
M  V30 4352 C 407.093 -4.23412 -4.06127 0
M  V30 4353 C 409.445 -4.77853 -4.14535 0
M  V30 4354 C 408.109 -5.17531 -4.21566 0
M  V30 4355 H 407.379 -0.247975 -0.698276 0
M  V30 4356 H 410.026 -1.25584 -1.44571 0
M  V30 4357 H 408.331 -0.376457 -3.89987 0
M  V30 4358 H 410.028 -0.766113 -3.93614 0
M  V30 4359 H 406.618 -2.17866 -3.69097 0
M  V30 4360 H 410.802 -3.14853 -3.83642 0
M  V30 4361 H 406.058 -4.53734 -4.09799 0
M  V30 4362 H 410.232 -5.51189 -4.25633 0
M  V30 4363 H 407.859 -6.21102 -4.38333 0
M  V30 4364 N 409.434 1.37368 -0.772513 0
M  V30 4365 C 410.364 2.32856 -0.173304 0
M  V30 4366 C 411.345 1.55818 0.682262 0
M  V30 4367 O 412.53 1.84052 0.619566 0
M  V30 4368 C 409.66 3.40048 0.706007 0
M  V30 4369 C 408.614 4.27973 -0.0483144 0
M  V30 4370 C 407.94 5.26184 0.950491 0
M  V30 4371 C 409.24 5.07665 -1.22776 0
M  V30 4372 H 410.934 2.83217 -0.971002 0
M  V30 4373 H 408.48 1.3617 -0.468377 0
M  V30 4374 H 410.433 4.05827 1.13501 0
M  V30 4375 H 409.157 2.88214 1.53623 0
M  V30 4376 H 407.816 3.63726 -0.458107 0
M  V30 4377 H 407.464 4.7063 1.77529 0
M  V30 4378 H 407.164 5.85872 0.450314 0
M  V30 4379 H 408.688 5.94838 1.37842 0
M  V30 4380 H 410.102 5.66578 -0.875366 0
M  V30 4381 H 408.499 5.76681 -1.66007 0
M  V30 4382 H 409.569 4.40294 -2.03149 0
M  V30 4383 N 410.912 0.523116 1.48665 0
M  V30 4384 C 411.875 -0.232592 2.28017 0
M  V30 4385 C 412.875 -0.874021 1.34972 0
M  V30 4386 O 414.065 -0.735132 1.57929 0
M  V30 4387 C 411.197 -1.33586 3.13636 0
M  V30 4388 H 412.39 0.464008 2.96289 0
M  V30 4389 H 409.943 0.278816 1.53793 0
M  V30 4390 H 410.678 -2.06593 2.4998 0
M  V30 4391 H 410.463 -0.881125 3.82071 0
M  V30 4392 H 411.953 -1.86759 3.73511 0
M  V30 4393 N 412.39 -1.55475 0.257931 0
M  V30 4394 C 413.636 -1.99502 -0.364266 0
M  V30 4395 C 413.969 -1.146 -1.56782 0
M  V30 4396 O 413.244 -0.211968 -1.93342 0
M  V30 4397 C 413.527 -3.51917 -0.763333 0
M  V30 4398 C 413.38 -4.4758 0.446371 0
M  V30 4399 C 414.699 -4.09742 -1.60623 0
M  V30 4400 H 411.818 -0.725277 -0.130929 0
M  V30 4401 H 414.46 -1.8653 0.361446 0
M  V30 4402 H 412.61 -3.63101 -1.38166 0
M  V30 4403 H 414.282 -4.48362 1.08487 0
M  V30 4404 H 412.525 -4.19947 1.08753 0
M  V30 4405 H 413.196 -5.51862 0.123645 0
M  V30 4406 H 415.672 -4.01727 -1.08418 0
M  V30 4407 H 414.548 -5.16631 -1.85429 0
M  V30 4408 H 414.809 -3.58889 -2.58169 0
M  V30 4409 N 413.868 0.0150385 -1.57593 0
M  V30 4410 C 414.798 1.01047 -2.10503 0
M  V30 4411 C 415.779 1.36816 -1.01071 0
M  V30 4412 O 416.964 1.45455 -1.28672 0
M  V30 4413 C 414.094 2.30708 -2.59598 0
M  V30 4414 C 413.048 2.09142 -3.73421 0
M  V30 4415 C 412.374 3.44685 -4.08774 0
M  V30 4416 C 413.674 1.46619 -5.01298 0
M  V30 4417 H 415.368 0.569978 -2.93925 0
M  V30 4418 H 412.914 0.272724 -1.41394 0
M  V30 4419 H 414.867 3.00687 -2.95238 0
M  V30 4420 H 413.591 2.76843 -1.73279 0
M  V30 4421 H 412.25 1.41592 -3.38153 0
M  V30 4422 H 411.898 3.88495 -3.195 0
M  V30 4423 H 411.598 3.31077 -4.8545 0
M  V30 4424 H 413.122 4.16004 -4.4696 0
M  V30 4425 H 414.536 2.06535 -5.34805 0
M  V30 4426 H 412.933 1.43544 -5.82679 0
M  V30 4427 H 414.003 0.433611 -4.82957 0
M  V30 4428 N 415.346 1.54954 0.287554 0
M  V30 4429 C 416.293 1.86834 1.35505 0
M  V30 4430 C 417.263 0.718452 1.49758 0
M  V30 4431 O 418.448 0.968358 1.644 0
M  V30 4432 C 415.588 2.13303 2.71286 0
M  V30 4433 C 414.701 3.40883 2.65373 0
M  V30 4434 C 413.836 3.57125 3.93236 0
M  V30 4435 C 412.875 4.78449 3.81776 0
M  V30 4436 N 412.012 4.91426 5.01443 0
M  V30 4437 H 416.852 2.77889 1.07619 0
M  V30 4438 H 414.389 1.37593 0.520241 0
M  V30 4439 H 416.347 2.26646 3.50267 0
M  V30 4440 H 414.977 1.25499 2.97405 0
M  V30 4441 H 414.029 3.36088 1.78182 0
M  V30 4442 H 415.341 4.29993 2.52799 0
M  V30 4443 H 414.495 3.70207 4.80658 0
M  V30 4444 H 413.234 2.66173 4.0866 0
M  V30 4445 H 412.239 4.65386 2.92738 0
M  V30 4446 H 413.464 5.70822 3.67884 0
M  V30 4447 H 411.41 4.03401 5.17304 0
M  V30 4448 H 411.327 5.74559 4.91343 0
M  V30 4449 H 412.595 5.08879 5.90477 0
M  V30 4450 N 416.824 -0.551391 1.4764 0
M  V30 4451 C 417.756 -1.67333 1.56628 0
M  V30 4452 C 418.769 -1.56398 0.452045 0
M  V30 4453 O 419.958 -1.6325 0.721926 0
M  V30 4454 C 417.058 -3.05841 1.45994 0
M  V30 4455 C 416.231 -3.42472 2.72088 0
M  V30 4456 C 415.29 -4.60168 2.55209 0
M  V30 4457 O 414.316 -4.64458 3.2904 0
M  V30 4458 N 415.518 -5.57024 1.63416 0
M  V30 4459 H 418.283 -1.60066 2.53375 0
M  V30 4460 H 415.844 -0.738169 1.44093 0
M  V30 4461 H 417.836 -3.8242 1.32428 0
M  V30 4462 H 416.406 -3.07302 0.573071 0
M  V30 4463 H 415.626 -2.55284 3.00373 0
M  V30 4464 H 416.914 -3.63723 3.55785 0
M  V30 4465 H 416.312 -5.56319 1.02594 0
M  V30 4466 H 414.869 -6.32906 1.558 0
M  V30 4467 N 418.302 -1.35869 -0.798587 0
M  V30 4468 C 419.249 -1.29446 -1.91082 0
M  V30 4469 C 420.219 -0.16487 -1.6528 0
M  V30 4470 O 421.404 -0.349888 -1.87564 0
M  V30 4471 C 418.544 -1.0804 -3.27752 0
M  V30 4472 C 417.657 -2.29993 -3.65687 0
M  V30 4473 C 416.792 -2.01673 -4.91428 0
M  V30 4474 C 415.831 -3.19636 -5.22015 0
M  V30 4475 N 414.968 -2.91039 -6.38937 0
M  V30 4476 H 419.808 -2.24553 -1.95907 0
M  V30 4477 H 417.345 -1.11615 -0.958148 0
M  V30 4478 H 419.303 -0.936586 -4.06551 0
M  V30 4479 H 417.933 -0.16592 -3.22373 0
M  V30 4480 H 416.985 -2.55211 -2.82085 0
M  V30 4481 H 418.297 -3.18052 -3.84245 0
M  V30 4482 H 417.451 -1.84168 -5.78072 0
M  V30 4483 H 416.19 -1.10911 -4.74921 0
M  V30 4484 H 415.195 -3.37709 -4.33858 0
M  V30 4485 H 416.42 -4.11211 -5.40447 0
M  V30 4486 H 414.366 -2.0288 -6.2384 0
M  V30 4487 H 414.283 -3.72635 -6.57784 0
M  V30 4488 H 415.551 -2.77093 -7.28587 0
M  V30 4489 N 419.78 1.02168 -1.19998 0
M  V30 4490 C 421.029 1.75091 -1.0013 0
M  V30 4491 C 421.342 1.89923 0.467835 0
M  V30 4492 O 422.548 2.59888 0.785515 0
M  V30 4493 C 421.004 3.14892 -1.74273 0
M  V30 4494 C 420.612 3.0809 -3.25245 0
M  V30 4495 C 422.356 3.9206 -1.62755 0
M  V30 4496 C 420.263 4.42867 -3.91948 0
M  V30 4497 H 419.193 0.656394 -0.37103 0
M  V30 4498 H 421.844 1.14284 -1.43567 0
M  V30 4499 H 420.226 3.7621 -1.2362 0
M  V30 4500 H 421.4 2.5611 -3.83072 0
M  V30 4501 H 419.715 2.44416 -3.3712 0
M  V30 4502 H 422.312 4.91764 -2.09934 0
M  V30 4503 H 422.655 4.12199 -0.582894 0
M  V30 4504 H 423.188 3.37359 -2.10793 0
M  V30 4505 H 419.927 4.27931 -4.96543 0
M  V30 4506 H 419.447 4.94874 -3.3891 0
M  V30 4507 H 421.126 5.11728 -3.95909 0
M  V30 4508 N 421.258 1.00505 1.21394 0
M  V30 4509 C 422.483 0.706367 1.95001 0
M  V30 4510 C 422.908 -0.72463 1.73582 0
M  V30 4511 O 422.266 -1.49702 1.0227 0
M  V30 4512 C 422.314 1.03299 3.45487 0
M  V30 4513 O 421.418 0.138275 4.12168 0
M  V30 4514 H 420.759 0.263175 0.609619 0
M  V30 4515 H 423.289 1.34531 1.54151 0
M  V30 4516 H 423.299 0.979872 3.96059 0
M  V30 4517 H 421.974 2.07567 3.60401 0
M  V30 4518 H 420.551 0.247928 3.72075 0
M  V30 4519 N 422.737 -1.36956 0.779787 0
M  V30 4520 C 423.983 -1.99787 0.348281 0
M  V30 4521 C 424.316 -1.61756 -1.07465 0
M  V30 4522 O 423.591 -0.867639 -1.74075 0
M  V30 4523 C 423.874 -3.56597 0.50104 0
M  V30 4524 C 423.727 -4.04513 1.96697 0
M  V30 4525 C 425.046 -4.40008 -0.0898097 0
M  V30 4526 H 422.165 -0.725796 0.128022 0
M  V30 4527 H 424.807 -1.62514 0.984331 0
M  V30 4528 H 422.957 -3.88479 -0.0404347 0
M  V30 4529 H 424.629 -3.83161 2.56876 0
M  V30 4530 H 422.872 -3.56408 2.47297 0
M  V30 4531 H 423.543 -5.1352 2.02486 0
M  V30 4532 H 426.019 -4.14431 0.372293 0
M  V30 4533 H 424.895 -5.4888 0.0471605 0
M  V30 4534 H 425.156 -4.26035 -1.18096 0
M  V30 4535 N 424.215 -0.530993 -1.48385 0
M  V30 4536 C 425.162 0.231223 -2.29639 0
M  V30 4537 C 426.132 0.932864 -1.37429 0
M  V30 4538 O 427.317 0.933692 -1.66394 0
M  V30 4539 C 424.457 1.27155 -3.2082 0
M  V30 4540 C 423.57 0.578655 -4.28107 0
M  V30 4541 C 422.705 1.602 -5.06467 0
M  V30 4542 C 421.744 0.892625 -6.05556 0
M  V30 4543 N 420.881 1.86157 -6.76971 0
M  V30 4544 H 425.721 -0.467848 -2.94305 0
M  V30 4545 H 423.258 -0.242556 -1.45086 0
M  V30 4546 H 425.216 1.88703 -3.72085 0
M  V30 4547 H 423.846 1.939 -2.58075 0
M  V30 4548 H 422.898 -0.150782 -3.80101 0
M  V30 4549 H 424.21 0.0217065 -4.98795 0
M  V30 4550 H 423.364 2.29173 -5.61751 0
M  V30 4551 H 422.103 2.19285 -4.35621 0
M  V30 4552 H 421.108 0.188829 -5.49476 0
M  V30 4553 H 422.333 0.307878 -6.78402 0
M  V30 4554 H 420.279 2.44147 -6.08875 0
M  V30 4555 H 420.196 1.35608 -7.43738 0
M  V30 4556 H 421.464 2.54325 -7.36844 0
M  V30 4557 N 425.693 1.55336 -0.266172 0
M  V30 4558 C 426.94 1.99397 0.353158 0
M  V30 4559 C 427.268 1.15451 1.56529 0
M  V30 4560 O 426.523 0.209974 1.9457 0
M  V30 4561 C 426.822 3.48606 0.787957 0
M  V30 4562 C 426.488 4.49773 -0.318541 0
M  V30 4563 C 425.15 4.77158 -0.62239 0
M  V30 4564 C 427.502 5.10212 -1.06459 0
M  V30 4565 C 424.83 5.62251 -1.67602 0
M  V30 4566 C 427.182 5.96449 -2.10788 0
M  V30 4567 C 425.846 6.22158 -2.41817 0
M  V30 4568 H 425.116 0.729644 0.12923 0
M  V30 4569 H 427.763 1.87732 -0.37802 0
M  V30 4570 H 426.068 3.57701 1.59866 0
M  V30 4571 H 427.765 3.80098 1.27775 0
M  V30 4572 H 424.355 4.2854 -0.0715925 0
M  V30 4573 H 428.539 4.89086 -0.843098 0
M  V30 4574 H 423.795 5.80419 -1.92155 0
M  V30 4575 H 427.969 6.42317 -2.69076 0
M  V30 4576 H 425.596 6.87888 -3.23596 0
M  V30 4577 N 427.171 -0.0066808 1.57599 0
M  V30 4578 C 428.448 -0.729586 1.81484 0
M  V30 4579 C 428.828 -1.92359 0.869558 0
M  V30 4580 O 428.176 -2.28348 -0.0832533 0
M  V30 4581 C 428.386 -1.1416 3.29801 0
M  V30 4582 C 429.734 -1.54823 3.95367 0
M  V30 4583 O 430.758 -1.23558 3.34084 0
M  V30 4584 O 429.617 -2.12937 5.03309 0
M  V30 4585 H 426.711 -0.354674 0.747085 0
M  V30 4586 H 429.257 0.0182609 1.6969 0
M  V30 4587 H 428.029 -0.290231 3.90222 0
M  V30 4588 H 427.652 -1.94876 3.46568 0
M  V30 4589 N 428.649 -1.55105 -0.279332 0
M  V30 4590 C 429.612 -1.86783 -1.32834 0
M  V30 4591 C 430.612 -0.74199 -1.42657 0
M  V30 4592 O 431.802 -1.0102 -1.41918 0
M  V30 4593 C 428.934 -2.06746 -2.71052 0
M  V30 4594 H 430.127 -2.8055 -1.05979 0
M  V30 4595 H 427.68 -1.47499 -0.517087 0
M  V30 4596 H 428.415 -1.15339 -3.03097 0
M  V30 4597 H 428.2 -2.88711 -2.65309 0
M  V30 4598 H 429.69 -2.32549 -3.46858 0
M  V30 4599 N 430.127 0.543554 -1.4793 0
M  V30 4600 C 431.373 1.30201 -1.55485 0
M  V30 4601 C 431.706 1.92925 -0.222201 0
M  V30 4602 O 430.981 1.78586 0.77053 0
M  V30 4603 C 431.264 2.40174 -2.68307 0
M  V30 4604 C 431.117 1.8223 -4.11233 0
M  V30 4605 C 432.436 3.42024 -2.76961 0
M  V30 4606 H 429.555 0.472036 -0.565996 0
M  V30 4607 H 432.197 0.606914 -1.80046 0
M  V30 4608 H 430.347 2.99463 -2.47495 0
M  V30 4609 H 432.019 1.27096 -4.43446 0
M  V30 4610 H 430.262 1.12832 -4.18869 0
M  V30 4611 H 430.933 2.61793 -4.85972 0
M  V30 4612 H 433.409 2.92672 -2.95774 0
M  V30 4613 H 432.285 4.16383 -3.57654 0
M  V30 4614 H 432.546 4.0173 -1.84568 0
M  V30 4615 N 431.605 1.3629 0.791371 0
M  V30 4616 C 432.854 1.29742 1.54434 0
M  V30 4617 C 433.167 -0.121729 1.95221 0
M  V30 4618 O 434.373 -0.309579 2.69729 0
M  V30 4619 C 432.829 2.27623 2.78776 0
M  V30 4620 C 432.437 3.74963 2.45166 0
M  V30 4621 C 434.181 2.30047 3.56761 0
M  V30 4622 C 432.088 4.64626 3.65891 0
M  V30 4623 H 431.018 0.482113 0.579727 0
M  V30 4624 H 433.669 1.61642 0.868565 0
M  V30 4625 H 432.051 1.88714 3.48142 0
M  V30 4626 H 433.225 4.22596 1.83709 0
M  V30 4627 H 431.54 3.75295 1.80396 0
M  V30 4628 H 434.137 2.94247 4.46456 0
M  V30 4629 H 434.48 1.30846 3.95203 0
M  V30 4630 H 435.013 2.67563 2.94372 0
M  V30 4631 H 431.752 5.64883 3.32547 0
M  V30 4632 H 431.272 4.2171 4.26521 0
M  V30 4633 H 432.951 4.80801 4.32943 0
M  V30 4634 N 433.083 -1.0153 1.20538 0
M  V30 4635 C 434.331 -1.74803 1.01432 0
M  V30 4636 C 434.652 -1.8963 -0.454456 0
M  V30 4637 O 433.922 -1.43975 -1.32846 0
M  V30 4638 H 432.502 -0.647598 0.372324 0
M  V30 4639 H 435.164 -1.22402 1.5167 0
M  V30 4640 H 434.26 -2.75114 1.47373 0
M  V30 4641 N 434.561 -1.01147 -1.20859 0
M  V30 4642 C 435.791 -0.715872 -1.93801 0
M  V30 4643 C 436.199 0.726592 -1.74692 0
M  V30 4644 O 435.542 1.50397 -1.05482 0
M  V30 4645 C 435.604 -0.965269 -3.46299 0
M  V30 4646 C 435.268 -2.39584 -3.89164 0
M  V30 4647 C 436.265 -3.3764 -3.95342 0
M  V30 4648 C 433.95 -2.73522 -4.21297 0
M  V30 4649 C 435.944 -4.67698 -4.33056 0
M  V30 4650 C 433.631 -4.03794 -4.58687 0
M  V30 4651 C 434.629 -5.00693 -4.64538 0
M  V30 4652 O 434.317 -6.28635 -5.01072 0
M  V30 4653 H 434.049 -0.262524 -0.622942 0
M  V30 4654 H 436.603 -1.35413 -1.54443 0
M  V30 4655 H 434.833 -0.269847 -3.85757 0
M  V30 4656 H 436.522 -0.662051 -4.00464 0
M  V30 4657 H 437.288 -3.12757 -3.70686 0
M  V30 4658 H 433.167 -1.9879 -4.15937 0
M  V30 4659 H 436.711 -5.4333 -4.37537 0
M  V30 4660 H 432.608 -4.28459 -4.82797 0
M  V30 4661 H 433.376 -6.32847 -5.19083 0
M  V30 4662 N 436.039 1.36541 -0.78704 0
M  V30 4663 C 436.986 2.30082 -0.181901 0
M  V30 4664 C 437.956 1.5186 0.672896 0
M  V30 4665 O 439.141 1.80374 0.622072 0
M  V30 4666 C 436.281 3.3835 0.679197 0
M  V30 4667 C 435.394 4.31565 -0.193882 0
M  V30 4668 C 434.529 5.26915 0.673364 0
M  V30 4669 C 433.568 6.11769 -0.201315 0
M  V30 4670 N 432.705 6.99315 0.624777 0
M  V30 4671 H 437.545 2.81248 -0.985064 0
M  V30 4672 H 435.082 1.38437 -0.497342 0
M  V30 4673 H 437.04 3.99767 1.19341 0
M  V30 4674 H 435.67 2.8851 1.44781 0
M  V30 4675 H 434.722 3.71323 -0.826044 0
M  V30 4676 H 436.034 4.91191 -0.867937 0
M  V30 4677 H 435.188 5.9361 1.25348 0
M  V30 4678 H 433.927 4.67737 1.38105 0
M  V30 4679 H 432.932 5.44039 -0.793849 0
M  V30 4680 H 434.157 6.73022 -0.906568 0
M  V30 4681 H 432.103 6.42648 1.3168 0
M  V30 4682 H 432.02 7.56 0.00835237 0
M  V30 4683 H 433.288 7.70382 1.18879 0
M  V30 4684 N 437.518 0.538854 1.48102 0
M  V30 4685 C 438.451 -0.266495 2.26639 0
M  V30 4686 C 439.429 -0.93687 1.32897 0
M  V30 4687 O 440.613 -0.959507 1.62252 0
M  V30 4688 C 437.74 -1.37814 3.09394 0
M  V30 4689 C 436.786 -0.818247 4.18577 0
M  V30 4690 S 437.619 0.320848 5.34538 0
M  V30 4691 C 438.775 -0.793059 6.20855 0
M  V30 4692 H 439.008 0.399994 2.94597 0
M  V30 4693 H 436.541 0.324808 1.50945 0
M  V30 4694 H 438.499 -2.01488 3.57649 0
M  V30 4695 H 437.16 -2.01639 2.40833 0
M  V30 4696 H 436.353 -1.65247 4.7614 0
M  V30 4697 H 435.955 -0.258036 3.73109 0
M  V30 4698 H 438.247 -1.68961 6.56093 0
M  V30 4699 H 439.19 -0.255204 7.0764 0
M  V30 4700 H 439.598 -1.07746 5.54122 0
M  V30 4701 N 438.996 -1.55193 0.274407 0
M  V30 4702 C 439.943 -2.225 -0.613374 0
M  V30 4703 C 440.913 -1.19823 -1.15029 0
M  V30 4704 O 442.098 -1.48362 -1.19973 0
M  V30 4705 C 439.238 -2.94927 -1.79199 0
M  V30 4706 C 438.351 -4.12322 -1.28899 0
M  V30 4707 C 437.486 -4.72394 -2.42934 0
M  V30 4708 C 436.525 -5.81984 -1.89634 0
M  V30 4709 N 435.662 -6.36123 -2.9714 0
M  V30 4710 H 440.502 -2.97982 -0.032756 0
M  V30 4711 H 438.039 -1.47099 -0.00440146 0
M  V30 4712 H 439.997 -3.35134 -2.48478 0
M  V30 4713 H 438.627 -2.2187 -2.34465 0
M  V30 4714 H 437.679 -3.7724 -0.489327 0
M  V30 4715 H 438.991 -4.91355 -0.858587 0
M  V30 4716 H 438.145 -5.15317 -3.20208 0
M  V30 4717 H 436.884 -3.92636 -2.8929 0
M  V30 4718 H 435.889 -5.38511 -1.1084 0
M  V30 4719 H 437.114 -6.6361 -1.44215 0
M  V30 4720 H 435.06 -5.59259 -3.42878 0
M  V30 4721 H 434.977 -7.10427 -2.58515 0
M  V30 4722 H 436.245 -6.83704 -3.74391 0
M  V30 4723 N 440.474 -0.00167713 -1.576 0
M  V30 4724 C 441.437 0.974046 -2.07473 0
M  V30 4725 C 442.437 1.27143 -0.984444 0
M  V30 4726 O 443.627 1.21633 -1.24703 0
M  V30 4727 C 440.759 2.29849 -2.51759 0
M  V30 4728 H 441.952 0.54262 -2.9495 0
M  V30 4729 H 439.505 0.245829 -1.54355 0
M  V30 4730 H 440.24 2.77677 -1.67529 0
M  V30 4731 H 440.025 2.09584 -3.31386 0
M  V30 4732 H 441.515 2.9984 -2.90664 0
M  V30 4733 N 441.952 1.55251 0.271103 0
M  V30 4734 C 442.884 1.84675 1.35749 0
M  V30 4735 C 443.897 0.731366 1.45447 0
M  V30 4736 O 445.086 1.00924 1.4723 0
M  V30 4737 C 442.186 1.99638 2.73857 0
M  V30 4738 C 441.359 3.30312 2.86727 0
M  V30 4739 C 440.418 3.35318 4.05522 0
M  V30 4740 O 439.444 4.08682 3.96191 0
M  V30 4741 N 440.646 2.62857 5.17577 0
M  V30 4742 H 443.411 2.78445 1.10853 0
M  V30 4743 H 440.972 1.55191 0.461218 0
M  V30 4744 H 442.964 2.00355 3.51625 0
M  V30 4745 H 441.534 1.12725 2.91568 0
M  V30 4746 H 440.754 3.42118 1.95829 0
M  V30 4747 H 442.042 4.16488 2.92258 0
M  V30 4748 H 441.44 2.02939 5.28046 0
M  V30 4749 H 439.997 2.69295 5.93568 0
M  V30 4750 O 443.469 -0.416875 1.56027 0
M  V30 4751 H 444.16 -1.06974 1.61481 0
M  V30 END ATOM
M  V30 BEGIN BOND
M  V30 END BOND
M  V30 END CTAB
M  END
$$$$
