drugbank_target|P16066 Atrial natriuretic peptide receptor 1 (DB00325; DB00727; DB00883; DB01612; DB01613; DB04899; DB05034)
 OpenBabel12092119343D

  0  0  0     0  0            999 V3000
M  V30 BEGIN CTAB
M  V30 COUNTS 16733 16922 0 0 0
M  V30 BEGIN ATOM
M  V30 1 H -0.908 1.98254 -0.117106 0
M  V30 2 N 0 1.576 0 0
M  V30 3 C 0.933 2.03868 1.02534 0
M  V30 4 C 1.911 0.928543 1.3348 0
M  V30 5 O 3.095 1.19667 1.45644 0
M  V30 6 C 0.222 2.43627 2.35294 0
M  V30 7 C -0.732 3.65373 2.2001 0
M  V30 8 S 0.101 5.13292 1.52614 0
M  V30 9 C 1.257 5.56322 2.86805 0
M  V30 10 H 1.49 2.90518 0.631377 0
M  V30 11 H -0.977 1.52953 0.210867 0
M  V30 12 H 0.981 2.67203 3.11629 0
M  V30 13 H -0.358 1.57376 2.7183 0
M  V30 14 H -1.165 3.90944 3.18086 0
M  V30 15 H -1.563 3.418 1.51819 0
M  V30 16 H 0.729 5.58782 3.83104 0
M  V30 17 H 1.672 6.56266 2.65933 0
M  V30 18 H 2.08 4.83886 2.90714 0
M  V30 19 N 1.4781 -0.272755 1.55222 0
M  V30 20 C 2.8891 -0.84378 1.66545 0
M  V30 21 C 3.2401 -1.87035 0.592641 0
M  V30 22 O 2.3651 -2.14761 -0.265818 0
M  V30 23 C 2.9601 -1.53723 3.01918 0
M  V30 24 C 1.5191 -2.05628 3.15268 0
M  V30 25 C 0.6661 -0.898424 2.62343 0
M  V30 26 H 3.6171 -0.0490998 1.58624 0
M  V30 27 H 3.6381 -2.40421 2.94921 0
M  V30 28 H 3.1501 -0.78983 3.79978 0
M  V30 29 H 1.2511 -2.83329 2.41983 0
M  V30 30 H 1.3641 -2.27142 4.21833 0
M  V30 31 H -0.2719 -1.29186 2.19506 0
M  V30 32 H 0.5111 -0.164528 3.42906 0
M  V30 33 N 2.9562 -1.48159 -0.537278 0
M  V30 34 C 4.2042 -1.55497 -1.29094 0
M  V30 35 C 4.5252 -0.227454 -1.93669 0
M  V30 36 O 3.7952 0.750386 -1.80959 0
M  V30 37 H 2.3752 -0.572832 -0.47945 0
M  V30 38 H 5.0372 -1.84579 -0.625818 0
M  V30 39 H 4.1332 -2.33216 -2.07405 0
M  V30 40 N 4.4343 0.785586 -1.36625 0
M  V30 41 C 5.8453 1.36101 -1.27803 0
M  V30 42 C 6.1963 1.96035 0.0804875 0
M  V30 43 O 5.3213 1.92834 0.982042 0
M  V30 44 C 5.9163 2.47442 -2.31426 0
M  V30 45 C 4.4753 3.00789 -2.26281 0
M  V30 46 C 3.6223 1.73896 -2.15999 0
M  V30 47 H 6.5733 0.586928 -1.47448 0
M  V30 48 H 6.5943 3.2656 -1.95291 0
M  V30 49 H 6.1063 2.03791 -3.30289 0
M  V30 50 H 4.2073 3.48851 -1.30896 0
M  V30 51 H 4.3203 3.57343 -3.19128 0
M  V30 52 H 2.6843 1.9628 -1.62316 0
M  V30 53 H 3.4673 1.32368 -3.16755 0
M  V30 54 N 5.9124 1.20967 1.01018 0
M  V30 55 C 7.3284 0.965905 1.27053 0
M  V30 56 C 7.5284 -0.350785 1.98423 0
M  V30 57 O 6.5844 -1.07773 2.28344 0
M  V30 58 C 7.8974 2.15294 2.09926 0
M  V30 59 C 9.4454 2.19463 2.23171 0
M  V30 60 C 9.9204 3.3767 3.09424 0
M  V30 61 N 11.4114 3.37724 3.17012 0
M  V30 62 C 12.1464 4.25837 3.83993 0
M  V30 63 N 11.6424 5.24138 4.53047 0
M  V30 64 N 13.4354 4.1366 3.80581 0
M  V30 65 H 5.5864 2.0565 0.531194 0
M  V30 66 H 7.8494 0.90024 0.297106 0
M  V30 67 H 7.5554 3.10684 1.64828 0
M  V30 68 H 7.4294 2.13923 3.10672 0
M  V30 69 H 9.8164 1.24632 2.6749 0
M  V30 70 H 9.8974 2.2488 1.21912 0
M  V30 71 H 9.5414 4.32791 2.65808 0
M  V30 72 H 9.4714 3.29491 4.10784 0
M  V30 73 H 11.9624 2.6658 2.6785 0
M  V30 74 H 12.2754 5.87684 5.01844 0
M  V30 75 H 10.6204 5.28068 4.5185 0
M  V30 76 H 13.8114 3.36127 3.25785 0
M  V30 77 H 13.9844 4.82538 4.32505 0
M  V30 78 N 7.3905 -1.2043 1.01659 0
M  V30 79 C 8.8065 -1.41852 0.731442 0
M  V30 80 C 9.0065 -1.89358 -0.688898 0
M  V30 81 O 8.0625 -2.06247 -1.45666 0
M  V30 82 C 9.3755 -2.44019 1.75714 0
M  V30 83 C 10.9235 -2.57785 1.77527 0
M  V30 84 C 11.3985 -3.63194 2.79023 0
M  V30 85 N 12.8895 -3.70678 2.77763 0
M  V30 86 C 13.6245 -4.51897 3.52954 0
M  V30 87 N 13.1205 -5.36921 4.37821 0
M  V30 88 N 14.9135 -4.4643 3.41551 0
M  V30 89 H 7.0645 -0.879093 1.93354 0
M  V30 90 H 9.3275 -0.448425 0.835236 0
M  V30 91 H 9.0335 -2.1611 2.77469 0
M  V30 92 H 8.9075 -3.43007 1.56927 0
M  V30 93 H 11.2945 -2.85023 0.764569 0
M  V30 94 H 11.3755 -1.58992 2.00387 0
M  V30 95 H 11.0195 -3.36699 3.80258 0
M  V30 96 H 10.9495 -4.61609 2.53425 0
M  V30 97 H 13.4405 -3.09944 2.16201 0
M  V30 98 H 13.7535 -5.95981 4.91962 0
M  V30 99 H 12.0985 -5.36424 4.41899 0
M  V30 100 H 15.2895 -3.79042 2.74672 0
M  V30 101 H 15.4625 -5.09491 4.00404 0
M  V30 102 N 8.8686 -0.792821 -1.36206 0
M  V30 103 C 10.2796 -0.429513 -1.81692 0
M  V30 104 C 10.6306 1.04695 -1.65932 0
M  V30 105 O 9.7556 1.81256 -1.18218 0
M  V30 106 C 10.3506 -0.772831 -3.29868 0
M  V30 107 C 8.9096 -0.462307 -3.7355 0
M  V30 108 C 8.0566 -1.00569 -2.5842 0
M  V30 109 H 11.0076 -0.985672 -1.24379 0
M  V30 110 H 11.0286 -0.0651928 -3.80444 0
M  V30 111 H 10.5406 -1.84747 -3.41307 0
M  V30 112 H 8.6416 0.604158 -3.67669 0
M  V30 113 H 8.7546 -0.985299 -4.68859 0
M  V30 114 H 7.1186 -0.428734 -2.51066 0
M  V30 115 H 7.9016 -2.08616 -2.72643 0
M  V30 116 N 10.3467 1.47872 -0.545128 0
M  V30 117 C 11.3097 2.28337 0.198717 0
M  V30 118 C 12.3097 1.36255 0.853888 0
M  V30 119 O 13.4997 1.59003 0.711606 0
M  V30 120 C 10.6317 3.15585 1.28915 0
M  V30 121 H 11.8247 2.95567 -0.507941 0
M  V30 122 H 9.3777 1.53362 -0.301616 0
M  V30 123 H 10.1127 2.53019 2.02859 0
M  V30 124 H 9.8977 3.83337 0.824309 0
M  V30 125 H 11.3877 3.76243 1.81194 0
M  V30 126 N 11.8248 0.280983 1.55075 0
M  V30 127 C 13.0728 -0.333455 1.9933 0
M  V30 128 C 13.3938 -1.55937 1.17085 0
M  V30 129 O 12.6638 -1.94143 0.261805 0
M  V30 130 H 11.2438 -0.126197 0.736263 0
M  V30 131 H 13.9058 0.387678 1.91005 0
M  V30 132 H 13.0018 -0.619292 3.05894 0
M  V30 133 N 13.3029 -1.57598 0.00835791 0
M  V30 134 C 14.5279 -1.95617 -0.689103 0
M  V30 135 C 14.9529 -0.883753 -1.66046 0
M  V30 136 O 14.3109 0.157352 -1.80616 0
M  V30 137 C 14.3589 -3.32736 -1.38994 0
M  V30 138 O 13.4629 -3.27631 -2.50463 0
M  V30 139 H 12.8039 -0.638379 -0.182668 0
M  V30 140 H 15.3339 -2.045 0.064036 0
M  V30 141 H 15.3439 -3.68494 -1.75147 0
M  V30 142 H 14.0189 -4.1034 -0.677778 0
M  V30 143 H 12.5959 -3.03561 -2.16576 0
M  V30 144 N 14.781 0.264519 -1.55364 0
M  V30 145 C 16.197 0.61215 -1.47394 0
M  V30 146 C 16.397 1.89134 -0.695018 0
M  V30 147 O 15.453 2.51563 -0.217275 0
M  V30 148 C 16.766 0.731235 -2.91674 0
M  V30 149 C 18.314 0.82473 -3.01939 0
M  V30 150 C 18.789 0.975522 -4.4749 0
M  V30 151 N 20.28 1.04083 -4.51354 0
M  V30 152 C 21.015 1.17646 -5.61201 0
M  V30 153 N 20.511 1.27874 -6.80896 0
M  V30 154 N 22.304 1.20823 -5.48961 0
M  V30 155 H 14.455 -0.575456 -2.04456 0
M  V30 156 H 16.718 -0.196099 -0.927496 0
M  V30 157 H 16.424 -0.138392 -3.51428 0
M  V30 158 H 16.298 1.60883 -3.41169 0
M  V30 159 H 18.685 1.68482 -2.42276 0
M  V30 160 H 18.766 -0.0776479 -2.55682 0
M  V30 161 H 18.41 0.120058 -5.07758 0
M  V30 162 H 18.34 1.89268 -4.91412 0
M  V30 163 H 20.831 0.973846 -3.65136 0
M  V30 164 H 21.144 1.38081 -7.60364 0
M  V30 165 H 19.489 1.24863 -6.83692 0
M  V30 166 H 22.68 1.12469 -4.54388 0
M  V30 167 H 22.853 1.31049 -6.3461 0
M  V30 168 N 16.2591 1.48442 0.529413 0
M  V30 169 C 17.1891 1.65902 1.64313 0
M  V30 170 C 18.1701 0.507897 1.6234 0
M  V30 171 O 19.3551 0.740503 1.79528 0
M  V30 172 C 16.4851 1.69911 3.02898 0
M  V30 173 C 15.4391 2.8453 3.19729 0
M  V30 174 C 14.7651 2.73629 4.59381 0
M  V30 175 C 16.0651 4.25821 3.02447 0
M  V30 176 H 17.7591 2.5914 1.49955 0
M  V30 177 H 15.3051 1.24709 0.719982 0
M  V30 178 H 17.2581 1.80715 3.80684 0
M  V30 179 H 15.9821 0.732524 3.18279 0
M  V30 180 H 14.6411 2.73283 2.44361 0
M  V30 181 H 14.2891 1.74938 4.71599 0
M  V30 182 H 13.9891 3.50541 4.71588 0
M  V30 183 H 15.5131 2.86401 5.39265 0
M  V30 184 H 16.9271 4.37898 3.70024 0
M  V30 185 H 15.3241 5.03735 3.26146 0
M  V30 186 H 16.3941 4.42244 1.98867 0
M  V30 187 N 17.7372 -0.778329 1.37039 0
M  V30 188 C 19.1532 -1.07796 1.17695 0
M  V30 189 C 19.3532 -2.01498 0.00860115 0
M  V30 190 O 18.4092 -2.43901 -0.653352 0
M  V30 191 C 19.7222 -1.68178 2.49272 0
M  V30 192 C 21.2702 -1.80467 2.55735 0
M  V30 193 C 21.7452 -2.44263 3.87427 0
M  V30 194 N 23.2362 -2.51721 3.88833 0
M  V30 195 C 23.9712 -3.01919 4.87476 0
M  V30 196 N 23.4672 -3.5234 5.96513 0
M  V30 197 N 25.2602 -3.00733 4.74885 0
M  V30 198 H 17.4112 -0.156032 2.11826 0
M  V30 199 H 19.6742 -0.131844 0.938787 0
M  V30 200 H 19.3802 -1.06796 3.35093 0
M  V30 201 H 19.2542 -2.67554 2.65885 0
M  V30 202 H 21.6412 -2.40984 1.70325 0
M  V30 203 H 21.7222 -0.798656 2.43013 0
M  V30 204 H 21.3662 -1.84388 4.73248 0
M  V30 205 H 21.2962 -3.45458 3.9745 0
M  V30 206 H 23.7872 -2.1603 3.10063 0
M  V30 207 H 24.1002 -3.89027 6.67741 0
M  V30 208 H 22.4452 -3.50462 6.00168 0
M  V30 209 H 25.6362 -2.60638 3.88826 0
M  V30 210 H 25.8092 -3.39545 5.51918 0
M  V30 211 N 19.2153 -1.21501 -1.00376 0
M  V30 212 C 20.1453 -0.999478 -2.11028 0
M  V30 213 C 21.1263 0.0759671 -1.6993 0
M  V30 214 O 22.3113 -0.0841106 -1.94018 0
M  V30 215 C 19.4413 -0.564709 -3.42678 0
M  V30 216 C 18.3953 -1.58486 -3.97576 0
M  V30 217 C 17.7213 -1.00628 -5.25146 0
M  V30 218 C 19.0213 -2.97204 -4.29496 0
M  V30 219 H 20.7153 -1.92495 -2.29317 0
M  V30 220 H 18.2613 -0.92693 -1.102 0
M  V30 221 H 20.2143 -0.401091 -4.19487 0
M  V30 222 H 18.9383 0.396411 -3.24185 0
M  V30 223 H 17.5973 -1.73606 -3.22888 0
M  V30 224 H 17.2453 -0.0368439 -5.02987 0
M  V30 225 H 16.9453 -1.68771 -5.62841 0
M  V30 226 H 18.4693 -0.854015 -6.04598 0
M  V30 227 H 19.8833 -2.8552 -4.97143 0
M  V30 228 H 18.2803 -3.62372 -4.78338 0
M  V30 229 H 19.3503 -3.47956 -3.3772 0
M  V30 230 N 20.6934 1.19889 -1.02296 0
M  V30 231 C 21.6234 2.25141 -0.619174 0
M  V30 232 C 22.6044 1.66051 0.368915 0
M  V30 233 O 23.7894 1.92546 0.252941 0
M  V30 234 C 20.9194 3.4728 0.0368783 0
M  V30 235 C 19.8734 4.19005 -0.872865 0
M  V30 236 C 19.1994 5.34637 -0.0822402 0
M  V30 237 C 20.4994 4.74452 -2.18387 0
M  V30 238 H 22.1934 2.59171 -1.49903 0
M  V30 239 H 19.7394 1.24579 -0.722222 0
M  V30 240 H 21.6924 4.20098 0.330958 0
M  V30 241 H 20.4164 3.12433 0.95149 0
M  V30 242 H 19.0754 3.48061 -1.15105 0
M  V30 243 H 18.7234 4.96034 0.83422 0
M  V30 244 H 18.4234 5.83557 -0.688149 0
M  V30 245 H 19.9474 6.10255 0.205238 0
M  V30 246 H 21.3614 5.39055 -1.95172 0
M  V30 247 H 19.7584 5.33834 -2.74119 0
M  V30 248 H 20.8284 3.92844 -2.84257 0
M  V30 249 N 22.1715 0.800033 1.35784 0
M  V30 250 C 23.1015 0.220184 2.3246 0
M  V30 251 C 24.0825 -0.65073 1.57161 0
M  V30 252 O 25.2675 -0.582359 1.85263 0
M  V30 253 C 22.3975 -0.637353 3.41402 0
M  V30 254 C 21.3515 0.134531 4.27789 0
M  V30 255 C 20.6775 -0.844285 5.27992 0
M  V30 256 C 21.9775 1.32979 5.05088 0
M  V30 257 H 23.6715 1.02787 2.81203 0
M  V30 258 H 21.2175 0.495717 1.35199 0
M  V30 259 H 23.1705 -1.05302 4.08031 0
M  V30 260 H 21.8945 -1.47785 2.91251 0
M  V30 261 H 20.5535 0.531296 3.6273 0
M  V30 262 H 20.2015 -1.68011 4.74111 0
M  V30 263 H 19.9015 -0.332184 5.8666 0
M  V30 264 H 21.4255 -1.2583 5.97494 0
M  V30 265 H 22.8395 0.98934 5.64699 0
M  V30 266 H 21.2365 1.77593 5.7322 0
M  V30 267 H 22.3065 2.11978 4.36111 0
M  V30 268 N 23.6496 -1.47581 0.552962 0
M  V30 269 C 24.5796 -2.32762 -0.185451 0
M  V30 270 C 25.5606 -1.43527 -0.912905 0
M  V30 271 O 26.7456 -1.72388 -0.894201 0
M  V30 272 C 23.8756 -3.25219 -1.21859 0
M  V30 273 C 22.8296 -4.23661 -0.607864 0
M  V30 274 C 22.1556 -5.05413 -1.74533 0
M  V30 275 C 23.4556 -5.20481 0.435582 0
M  V30 276 H 25.1496 -2.94749 0.525684 0
M  V30 277 H 22.6956 -1.41738 0.254251 0
M  V30 278 H 24.6486 -3.8365 -1.7433 0
M  V30 279 H 23.3726 -2.61279 -1.95961 0
M  V30 280 H 22.0316 -3.66451 -0.104489 0
M  V30 281 H 21.6796 -4.3788 -2.47529 0
M  V30 282 H 21.3796 -5.72059 -1.34249 0
M  V30 283 H 22.9036 -5.66701 -2.27338 0
M  V30 284 H 24.3176 -5.733 -0.00290157 0
M  V30 285 H 22.7146 -5.95305 0.757067 0
M  V30 286 H 23.7846 -4.66217 1.33303 0
M  V30 287 N 25.1277 -0.289203 -1.54924 0
M  V30 288 C 26.0577 0.58549 -2.2604 0
M  V30 289 C 27.0387 1.14753 -1.25562 0
M  V30 290 O 28.2237 1.17906 -1.54311 0
M  V30 291 C 25.3537 1.76305 -2.99222 0
M  V30 292 C 24.3077 1.33191 -4.06748 0
M  V30 293 C 23.6337 2.5937 -4.6758 0
M  V30 294 C 24.9337 0.471775 -5.20165 0
M  V30 295 H 26.6277 -0.00763532 -2.99399 0
M  V30 296 H 24.1737 -0.00511229 -1.43999 0
M  V30 297 H 26.1267 2.38097 -3.47689 0
M  V30 298 H 24.8507 2.38223 -2.23422 0
M  V30 299 H 23.5097 0.737121 -3.59113 0
M  V30 300 H 23.1577 3.19576 -3.88433 0
M  V30 301 H 22.8577 2.31228 -5.40192 0
M  V30 302 H 24.3817 3.21985 -5.18804 0
M  V30 303 H 25.7957 0.995056 -5.64599 0
M  V30 304 H 24.1927 0.284639 -5.99425 0
M  V30 305 H 25.2627 -0.506041 -4.82252 0
M  V30 306 N 26.6058 1.57591 -0.0167156 0
M  V30 307 C 27.5358 2.12496 0.967858 0
M  V30 308 C 28.5168 1.03807 1.34752 0
M  V30 309 O 29.7018 1.31577 1.42833 0
M  V30 310 C 26.8318 2.64194 2.25431 0
M  V30 311 C 25.7858 3.77559 2.01576 0
M  V30 312 C 25.1118 4.15636 3.36379 0
M  V30 313 C 26.4118 5.04151 1.36489 0
M  V30 314 H 28.1058 2.95013 0.510643 0
M  V30 315 H 25.6518 1.41915 0.244181 0
M  V30 316 H 27.6048 3.01236 2.94678 0
M  V30 317 H 26.3288 1.78821 2.73296 0
M  V30 318 H 24.9878 3.40937 1.34751 0
M  V30 319 H 24.6358 3.27263 3.81979 0
M  V30 320 H 24.3358 4.92022 3.21229 0
M  V30 321 H 25.8598 4.5525 4.06915 0
M  V30 322 H 27.2738 5.38857 1.95718 0
M  V30 323 H 25.6708 5.85453 1.31776 0
M  V30 324 H 26.7408 4.83733 0.336219 0
M  V30 325 N 28.0839 -0.256276 1.55502 0
M  V30 326 C 29.0139 -1.32102 1.92539 0
M  V30 327 C 29.9949 -1.50684 0.789194 0
M  V30 328 O 31.1799 -1.63449 1.04872 0
M  V30 329 C 28.3099 -2.67752 2.21192 0
M  V30 330 C 27.2639 -2.63878 3.36975 0
M  V30 331 C 26.5899 -4.03236 3.51147 0
M  V30 332 C 27.8899 -2.21682 4.72921 0
M  V30 333 H 29.5839 -1.01351 2.81724 0
M  V30 334 H 27.1299 -0.486105 1.35547 0
M  V30 335 H 29.0829 -3.42365 2.45691 0
M  V30 336 H 27.8069 -3.0012 1.28824 0
M  V30 337 H 26.4659 -1.91722 3.12471 0
M  V30 338 H 26.1139 -4.32854 2.56216 0
M  V30 339 H 25.8139 -4.01535 4.29003 0
M  V30 340 H 27.3379 -4.79563 3.77957 0
M  V30 341 H 28.7519 -2.86023 4.96854 0
M  V30 342 H 27.1489 -2.3111 5.53812 0
M  V30 343 H 28.2189 -1.16833 4.70615 0
M  V30 344 N 29.562 -1.4872 -0.521534 0
M  V30 345 C 30.973 -1.50607 -1.10337 0
M  V30 346 C 31.324 -0.280612 -1.94183 0
M  V30 347 O 30.449 0.611507 -2.0758 0
M  V30 348 C 31.044 -2.72903 -2.00772 0
M  V30 349 C 29.603 -2.77634 -2.54158 0
M  V30 350 C 28.75 -2.44241 -1.31307 0
M  V30 351 H 31.701 -1.55714 -0.306388 0
M  V30 352 H 31.722 -2.519 -2.85178 0
M  V30 353 H 31.234 -3.62077 -1.39721 0
M  V30 354 H 29.335 -1.92689 -3.18907 0
M  V30 355 H 29.448 -3.79283 -2.92714 0
M  V30 356 H 27.812 -1.95577 -1.63161 0
M  V30 357 H 28.595 -3.35666 -0.719943 0
M  V30 358 N 31.0401 0.771051 -1.3745 0
M  V30 359 C 32.4511 1.34737 -1.29239 0
M  V30 360 C 32.8021 1.96109 0.0596908 0
M  V30 361 O 31.9271 1.93865 0.961534 0
M  V30 362 C 32.5221 2.44973 -2.34037 0
M  V30 363 C 31.0811 2.98372 -2.29458 0
M  V30 364 C 30.2281 1.71595 -2.17831 0
M  V30 365 H 33.1791 0.571256 -1.48062 0
M  V30 366 H 33.2001 3.24471 -1.98744 0
M  V30 367 H 32.7121 2.00276 -3.32432 0
M  V30 368 H 30.8131 3.47443 -1.34589 0
M  V30 369 H 30.9261 3.53939 -3.229 0
M  V30 370 H 29.2901 1.94547 -1.64388 0
M  V30 371 H 30.0731 1.29001 -3.18141 0
M  V30 372 N 32.5182 1.22032 0.997298 0
M  V30 373 C 33.4482 1.01065 2.10495 0
M  V30 374 C 34.4292 -0.0669542 1.69968 0
M  V30 375 O 35.6142 0.0943987 1.9397 0
M  V30 376 C 32.7442 0.582874 3.42374 0
M  V30 377 C 31.6982 1.60592 3.96729 0
M  V30 378 C 31.0242 1.03412 5.24605 0
M  V30 379 C 32.3242 2.99478 4.27914 0
M  V30 380 H 34.0182 1.93708 2.28292 0
M  V30 381 H 31.5642 0.932761 1.09707 0
M  V30 382 H 33.5172 0.423332 4.19268 0
M  V30 383 H 32.2412 -0.379213 3.24391 0
M  V30 384 H 30.9002 1.75316 3.21963 0
M  V30 385 H 30.5482 0.063518 5.0296 0
M  V30 386 H 30.2482 1.71754 5.61938 0
M  V30 387 H 31.7722 0.886066 6.04137 0
M  V30 388 H 33.1862 2.88153 4.95622 0
M  V30 389 H 31.5832 3.64903 4.76409 0
M  V30 390 H 32.6532 3.49742 3.3587 0
M  V30 391 N 33.9963 -1.19345 1.0293 0
M  V30 392 C 34.9263 -2.2481 0.631105 0
M  V30 393 C 35.9073 -1.66245 -0.360104 0
M  V30 394 O 37.0923 -1.92677 -0.242726 0
M  V30 395 C 34.2223 -3.47295 -0.0184607 0
M  V30 396 C 33.1763 -4.18536 0.895073 0
M  V30 397 C 32.5023 -5.34586 0.110592 0
M  V30 398 C 33.8023 -4.73287 2.209 0
M  V30 399 H 35.4963 -2.58372 1.51275 0
M  V30 400 H 33.0423 -1.24194 0.728818 0
M  V30 401 H 34.9953 -4.20268 -0.308675 0
M  V30 402 H 33.7193 -3.12933 -0.934907 0
M  V30 403 H 32.3783 -3.47446 1.16949 0
M  V30 404 H 32.0263 -4.96469 -0.807902 0
M  V30 405 H 31.7263 -5.83183 0.719087 0
M  V30 406 H 33.2503 -6.10355 -0.172871 0
M  V30 407 H 34.6643 -5.38013 1.98028 0
M  V30 408 H 33.0613 -5.32373 2.76946 0
M  V30 409 H 34.1313 -3.91331 2.86336 0
M  V30 410 N 35.4744 -0.807222 -1.35358 0
M  V30 411 C 36.4044 -0.232509 -2.3234 0
M  V30 412 C 37.3854 0.642386 -1.57504 0
M  V30 413 O 38.5704 0.572526 -1.85569 0
M  V30 414 C 35.7004 0.619238 -3.41735 0
M  V30 415 C 34.6544 -0.157215 -4.27711 0
M  V30 416 C 33.9804 0.816273 -5.28433 0
M  V30 417 C 35.2804 -1.35656 -5.04376 0
M  V30 418 H 36.9744 -1.04276 -2.80654 0
M  V30 419 H 34.5204 -0.50288 -1.34934 0
M  V30 420 H 36.4734 1.03137 -4.08584 0
M  V30 421 H 35.1974 1.46239 -2.92031 0
M  V30 422 H 33.8564 -0.550525 -3.62443 0
M  V30 423 H 33.5044 1.65494 -4.74996 0
M  V30 424 H 33.2044 0.301067 -5.86828 0
M  V30 425 H 34.7284 1.22659 -5.98153 0
M  V30 426 H 36.1424 -1.01927 -5.64166 0
M  V30 427 H 34.5394 -1.8063 -5.7227 0
M  V30 428 H 35.6094 -2.14288 -4.34981 0
M  V30 429 N 36.9525 1.47285 -0.560781 0
M  V30 430 C 37.8825 2.32857 0.173105 0
M  V30 431 C 38.8635 1.44009 0.905281 0
M  V30 432 O 40.0485 1.7286 0.885046 0
M  V30 433 C 37.1785 3.25861 1.20133 0
M  V30 434 C 36.1325 4.23978 0.585388 0
M  V30 435 C 35.4585 5.06332 1.7185 0
M  V30 436 C 36.7585 5.20242 -0.463178 0
M  V30 437 H 38.4525 2.94466 -0.541307 0
M  V30 438 H 35.9985 1.41601 -0.261764 0
M  V30 439 H 37.9515 3.84569 1.72293 0
M  V30 440 H 36.6755 2.62315 1.94573 0
M  V30 441 H 35.3345 3.66501 0.085054 0
M  V30 442 H 34.9825 4.39186 2.45203 0
M  V30 443 H 34.6825 5.72762 1.31213 0
M  V30 444 H 36.2065 5.67899 2.24329 0
M  V30 445 H 37.6205 5.73293 -0.027502 0
M  V30 446 H 36.0175 5.94896 -0.788627 0
M  V30 447 H 37.0875 4.65504 -1.35773 0
M  V30 448 N 38.4306 0.297415 1.54768 0
M  V30 449 C 39.3606 -0.573494 2.26348 0
M  V30 450 C 40.3416 -1.14085 1.26169 0
M  V30 451 O 41.5266 -1.17086 1.54934 0
M  V30 452 C 38.6566 -1.74716 3.00153 0
M  V30 453 C 37.6106 -1.31032 4.07449 0
M  V30 454 C 36.9366 -2.56887 4.68949 0
M  V30 455 C 38.2366 -0.444183 5.20408 0
M  V30 456 H 39.9306 0.0235131 2.99391 0
M  V30 457 H 37.4766 0.0127488 1.43994 0
M  V30 458 H 39.4296 -2.3625 3.48947 0
M  V30 459 H 38.1536 -2.37035 2.24682 0
M  V30 460 H 36.8126 -0.718066 3.59499 0
M  V30 461 H 36.4606 -3.17512 3.90122 0
M  V30 462 H 36.1606 -2.2836 5.41411 0
M  V30 463 H 37.6846 -3.19229 5.20505 0
M  V30 464 H 39.0986 -0.9651 5.65118 0
M  V30 465 H 37.4956 -0.252846 5.99567 0
M  V30 466 H 38.5656 0.531609 4.81977 0
M  V30 467 N 39.9087 -1.5758 0.0250728 0
M  V30 468 C 41.3247 -1.56124 -0.331282 0
M  V30 469 C 41.5247 -1.03029 -1.73169 0
M  V30 470 O 40.5807 -0.675215 -2.43305 0
M  V30 471 C 41.8937 -3.00139 -0.183584 0
M  V30 472 C 43.4417 -3.11946 -0.256654 0
M  V30 473 C 43.9167 -4.57793 -0.137792 0
M  V30 474 N 45.4077 -4.6279 -0.194904 0
M  V30 475 C 46.1427 -5.7326 -0.126655 0
M  V30 476 N 45.6387 -6.928 -0.00755288 0
M  V30 477 N 47.4317 -5.61811 -0.180348 0
M  V30 478 H 39.5827 -1.90424 0.94087 0
M  V30 479 H 41.8457 -0.875761 0.362968 0
M  V30 480 H 41.5517 -3.4292 0.780927 0
M  V30 481 H 41.4257 -3.64899 -0.955448 0
M  V30 482 H 43.8127 -2.69079 -1.21162 0
M  V30 483 H 43.8937 -2.49915 0.545517 0
M  V30 484 H 43.5377 -5.01339 0.813739 0
M  V30 485 H 43.4677 -5.17798 -0.958775 0
M  V30 486 H 45.9587 -3.76807 -0.287267 0
M  V30 487 H 46.2717 -7.72791 0.0379428 0
M  V30 488 H 44.6167 -6.94995 0.0271731 0
M  V30 489 H 47.8077 -4.6731 -0.271767 0
M  V30 490 H 47.9807 -6.47882 -0.123697 0
M  V30 491 N 41.3868 0.248026 -1.55636 0
M  V30 492 C 42.6348 0.974295 -1.77065 0
M  V30 493 C 42.9558 1.85897 -0.588849 0
M  V30 494 O 42.2258 1.91868 0.395407 0
M  V30 495 H 40.8058 0.362733 -0.653019 0
M  V30 496 H 43.4678 0.266244 -1.93073 0
M  V30 497 H 42.5638 1.59667 -2.68166 0
M  V30 498 N 42.8649 1.48995 0.513639 0
M  V30 499 C 44.0899 1.61792 1.29762 0
M  V30 500 C 44.5149 0.284475 1.85936 0
M  V30 501 O 43.8729 -0.746185 1.65232 0
M  V30 502 C 43.9209 2.67993 2.41272 0
M  V30 503 O 43.0249 2.26287 3.44772 0
M  V30 504 H 42.3659 0.541963 0.38363 0
M  V30 505 H 44.8959 1.95097 0.616307 0
M  V30 506 H 44.9059 2.89772 2.87221 0
M  V30 507 H 43.5809 3.64791 1.9975 0
M  V30 508 H 42.1579 2.14788 3.04829 0
M  V30 509 N 44.343 -0.763751 1.37857 0
M  V30 510 C 45.293 -1.86765 1.30777 0
M  V30 511 C 46.277 -1.59726 0.194015 0
M  V30 512 O 47.469 -1.7172 0.42911 0
M  V30 513 C 44.598 -3.24343 1.12502 0
M  V30 514 C 43.684 -3.57307 2.28456 0
M  V30 515 N 44.075 -3.61398 3.53871 0
M  V30 516 C 42.373 -3.87517 2.20786 0
M  V30 517 C 43.074 -3.91339 4.30382 0
M  V30 518 N 42.05 -4.07649 3.59615 0
M  V30 519 H 45.852 -1.88191 2.25746 0
M  V30 520 H 43.366 -0.9606 1.30944 0
M  V30 521 H 45.363 -4.03327 1.05514 0
M  V30 522 H 44.023 -3.24175 0.184574 0
M  V30 523 H 45.034 -3.43407 3.87675 0
M  V30 524 H 41.711 -3.95125 1.34844 0
M  V30 525 H 43.101 -4.01213 5.3896 0
M  V30 526 N 45.8211 -1.22559 -0.990812 0
M  V30 527 C 46.7841 -0.998863 -2.0629 0
M  V30 528 C 47.7841 0.0354834 -1.60761 0
M  V30 529 O 48.9741 -0.203231 -1.7301 0
M  V30 530 C 46.1061 -0.509203 -3.37076 0
M  V30 531 H 47.2991 -1.95014 -2.27837 0
M  V30 532 H 44.8521 -1.04456 -1.16269 0
M  V30 533 H 45.5871 0.446335 -3.21214 0
M  V30 534 H 45.3721 -1.25547 -3.71457 0
M  V30 535 H 46.8621 -0.370888 -4.1595 0
M  V30 536 N 47.2992 1.18797 -1.03562 0
M  V30 537 C 48.5472 1.88278 -0.734569 0
M  V30 538 C 48.8682 1.8043 0.739586 0
M  V30 539 O 48.1382 1.21925 1.53333 0
M  V30 540 H 46.7182 0.696991 -0.268725 0
M  V30 541 H 49.3802 1.44192 -1.31129 0
M  V30 542 H 48.4762 2.94443 -1.03489 0
M  V30 543 N 48.7773 0.814389 1.34928 0
M  V30 544 C 49.7253 0.218424 2.31572 0
M  V30 545 C 50.7193 -0.636128 1.57002 0
M  V30 546 O 51.9253 -0.52842 1.72069 0
M  V30 547 H 48.3003 0.0518799 0.750208 0
M  V30 548 H 50.2713 1.04852 2.79372 0
M  V30 549 C 49.0203 -0.61207 3.4227 0
M  V30 550 H 48.3433 0.0361578 3.99784 0
M  V30 551 H 49.7833 -0.995317 4.12152 0
M  V30 552 C 48.2423 -1.78087 2.85984 0
M  V30 553 O 48.7723 -2.8787 2.80168 0
M  V30 554 N 46.9783 -1.59488 2.42924 0
M  V30 555 H 46.5253 -0.701874 2.47854 0
M  V30 556 H 46.4833 -2.37846 2.05613 0
M  V30 557 N 50.2554 -1.46986 0.568584 0
M  V30 558 C 51.1854 -2.32946 -0.160753 0
M  V30 559 C 52.1664 -1.44487 -0.897631 0
M  V30 560 O 53.3514 -1.73327 -0.875867 0
M  V30 561 C 50.4814 -3.26494 -1.18403 0
M  V30 562 C 49.4354 -4.24282 -0.562895 0
M  V30 563 C 48.7614 -5.07236 -1.69163 0
M  V30 564 C 50.0614 -5.19989 0.490761 0
M  V30 565 H 51.7554 -2.94175 0.556916 0
M  V30 566 H 49.3014 -1.4146 0.26927 0
M  V30 567 H 51.2544 -3.85477 -1.70251 0
M  V30 568 H 49.9784 -2.63343 -1.93179 0
M  V30 569 H 48.6374 -3.66541 -0.0656164 0
M  V30 570 H 48.2854 -4.4048 -2.42871 0
M  V30 571 H 47.9854 -5.7345 -1.28174 0
M  V30 572 H 49.5094 -5.6908 -2.21314 0
M  V30 573 H 50.9234 -5.73271 0.0579047 0
M  V30 574 H 49.3204 -5.94469 0.820165 0
M  V30 575 H 50.3904 -4.64777 1.3824 0
M  V30 576 N 51.7335 -0.305618 -1.54608 0
M  V30 577 C 52.9615 0.304775 -2.04643 0
M  V30 578 C 53.3765 1.47167 -1.18268 0
M  V30 579 O 52.7335 1.81296 -0.209328 0
M  V30 580 C 52.7845 0.756564 -3.53495 0
M  V30 581 O 52.5055 -0.36389 -4.36586 0
M  V30 582 C 54.0065 1.43163 -4.19546 0
M  V30 583 H 51.2265 0.0655481 -0.667791 0
M  V30 584 H 53.7705 -0.446592 -1.99564 0
M  V30 585 H 51.9255 1.45794 -3.58919 0
M  V30 586 H 52.3395 -0.0113121 -5.24499 0
M  V30 587 H 53.8135 1.69886 -5.25207 0
M  V30 588 H 54.2905 2.37318 -3.69563 0
M  V30 589 H 54.8965 0.773307 -4.18211 0
M  V30 590 N 53.2116 1.57565 -0.0334293 0
M  V30 591 C 54.4576 1.92262 0.645226 0
M  V30 592 C 54.7906 0.910543 1.71531 0
M  V30 593 O 54.0656 -0.066099 1.94388 0
M  V30 594 C 54.3486 3.37422 1.2577 0
M  V30 595 C 54.2016 4.49369 0.196891 0
M  V30 596 C 55.5206 3.82628 2.17449 0
M  V30 597 H 52.6396 0.699171 0.233085 0
M  V30 598 H 55.2816 1.89779 -0.0915694 0
M  V30 599 H 53.4316 3.39669 1.88566 0
M  V30 600 H 55.1036 4.59254 -0.433962 0
M  V30 601 H 53.3466 4.31168 -0.477137 0
M  V30 602 H 54.0176 5.47978 0.665124 0
M  V30 603 H 56.4936 3.82145 1.64634 0
M  V30 604 H 55.3696 4.84883 2.57254 0
M  V30 605 H 55.6306 3.18376 3.0674 0
M  V30 606 N 54.6897 -0.239769 1.55765 0
M  V30 607 C 55.6527 -1.28038 1.90103 0
M  V30 608 C 56.6527 -1.40723 0.778055 0
M  V30 609 O 57.8427 -1.39301 1.04599 0
M  V30 610 C 54.9747 -2.65702 2.13577 0
M  V30 611 H 56.1677 -0.988048 2.83157 0
M  V30 612 H 53.7207 -0.479382 1.48767 0
M  V30 613 H 54.4557 -3.00063 1.23015 0
M  V30 614 H 54.2407 -2.57875 2.95369 0
M  V30 615 H 55.7307 -3.40828 2.41301 0
M  V30 616 N 56.1678 -1.49265 -0.50573 0
M  V30 617 C 57.4138 -1.58748 -1.26202 0
M  V30 618 C 57.7468 -0.271227 -1.92297 0
M  V30 619 O 57.0218 0.724831 -1.80489 0
M  V30 620 C 57.3048 -2.74332 -2.33268 0
M  V30 621 C 57.1578 -4.15737 -1.71705 0
M  V30 622 C 58.4768 -2.85576 -3.34865 0
M  V30 623 H 55.5958 -0.577826 -0.457478 0
M  V30 624 H 58.2378 -1.81532 -0.560897 0
M  V30 625 H 56.3878 -2.55036 -2.93068 0
M  V30 626 H 58.0598 -4.46537 -1.15769 0
M  V30 627 H 56.3028 -4.21605 -1.02135 0
M  V30 628 H 56.9738 -4.92477 -2.49341 0
M  V30 629 H 59.4498 -3.03127 -2.8505 0
M  V30 630 H 58.3258 -3.68135 -4.07146 0
M  V30 631 H 58.5868 -1.94732 -3.96903 0
M  V30 632 N 57.6459 0.756429 -1.3826 0
M  V30 633 C 58.8919 1.51772 -1.34511 0
M  V30 634 C 59.2249 1.94089 0.0656691 0
M  V30 635 O 58.4999 1.65221 1.02626 0
M  V30 636 C 58.7829 2.77226 -2.29821 0
M  V30 637 C 58.6359 2.41065 -3.79747 0
M  V30 638 C 59.9549 3.79236 -2.23312 0
M  V30 639 H 57.0739 0.550578 -0.489931 0
M  V30 640 H 59.7159 0.866607 -1.69086 0
M  V30 641 H 57.8659 3.32784 -2.00467 0
M  V30 642 H 59.5379 1.91303 -4.19763 0
M  V30 643 H 57.7809 1.7356 -3.97567 0
M  V30 644 H 58.4519 3.3081 -4.41892 0
M  V30 645 H 60.9279 3.3321 -2.49219 0
M  V30 646 H 59.8039 4.64714 -2.92116 0
M  V30 647 H 60.0649 4.24615 -1.23102 0
M  V30 648 N 59.124 1.23083 0.984299 0
M  V30 649 C 60.054 1.03292 2.09411 0
M  V30 650 C 61.035 -0.048923 1.7003 0
M  V30 651 O 62.22 0.114967 1.93859 0
M  V30 652 C 59.35 0.619155 3.41736 0
M  V30 653 C 58.304 1.64791 3.95004 0
M  V30 654 C 57.63 1.0897 5.23478 0
M  V30 655 C 58.93 3.03999 4.24714 0
M  V30 656 H 60.624 1.96119 2.26225 0
M  V30 657 H 58.17 0.944344 1.08711 0
M  V30 658 H 60.123 0.467777 4.18796 0
M  V30 659 H 58.847 -0.344786 3.24775 0
M  V30 660 H 57.506 1.78721 3.20085 0
M  V30 661 H 57.154 0.11686 5.02864 0
M  V30 662 H 56.854 1.77704 5.60085 0
M  V30 663 H 58.378 0.950093 6.03163 0
M  V30 664 H 59.792 2.93393 4.92538 0
M  V30 665 H 58.189 3.69936 4.72512 0
M  V30 666 H 59.259 3.53285 3.32142 0
M  V30 667 N 60.6021 -1.18246 1.0419 0
M  V30 668 C 62.0131 -1.69914 0.773698 0
M  V30 669 C 62.3641 -1.83085 -0.705297 0
M  V30 670 O 61.4891 -1.51123 -1.5489 0
M  V30 671 C 62.0841 -3.08619 1.39784 0
M  V30 672 C 60.6431 -3.57494 1.17792 0
M  V30 673 C 59.7901 -2.34013 1.48773 0
M  V30 674 H 62.7411 -1.02904 1.20816 0
M  V30 675 H 62.7621 -3.71958 0.801714 0
M  V30 676 H 62.2741 -2.99001 2.47426 0
M  V30 677 H 60.3751 -3.72406 0.120295 0
M  V30 678 H 60.4881 -4.40852 1.87581 0
M  V30 679 H 58.8521 -2.37986 0.907463 0
M  V30 680 H 59.6351 -2.27013 2.57527 0
M  V30 681 N 62.0802 -0.821533 -1.34494 0
M  V30 682 C 63.0102 -0.257138 -2.3208 0
M  V30 683 C 63.9912 0.625645 -1.58176 0
M  V30 684 O 65.1762 0.552811 -1.86166 0
M  V30 685 C 62.3062 0.582958 -3.42372 0
M  V30 686 C 61.2602 -0.202571 -4.2752 0
M  V30 687 C 60.5862 0.760179 -5.29269 0
M  V30 688 C 61.8862 -1.40998 -5.02908 0
M  V30 689 H 63.5802 -1.07247 -2.79532 0
M  V30 690 H 61.1262 -0.517163 -1.34393 0
M  V30 691 H 63.0792 0.987972 -4.09655 0
M  V30 692 H 61.8032 1.43133 -2.93565 0
M  V30 693 H 60.4622 -0.588936 -3.61838 0
M  V30 694 H 60.1102 1.60447 -4.76724 0
M  V30 695 H 59.8102 0.238809 -5.87115 0
M  V30 696 H 61.3342 1.16308 -5.9942 0
M  V30 697 H 62.7482 -1.07905 -5.63054 0
M  V30 698 H 61.1452 -1.86689 -5.70322 0
M  V30 699 H 62.2152 -2.1889 -4.32684 0
M  V30 700 N 63.5583 1.46682 -0.576371 0
M  V30 701 C 64.5213 2.28707 0.150239 0
M  V30 702 C 65.5213 1.38035 0.824794 0
M  V30 703 O 66.7113 1.60476 0.677719 0
M  V30 704 C 63.8433 3.18248 1.22192 0
M  V30 705 H 65.0363 2.94423 -0.570521 0
M  V30 706 H 62.5893 1.52688 -0.334078 0
M  V30 707 H 63.3243 2.57265 1.97447 0
M  V30 708 H 63.1093 3.85 0.742812 0
M  V30 709 H 64.5993 3.80001 1.73172 0
M  V30 710 N 65.0364 0.313813 1.54444 0
M  V30 711 C 65.9844 -0.572171 2.25453 0
M  V30 712 C 66.9784 -1.12657 1.2651 0
M  V30 713 O 68.1844 -1.07573 1.44319 0
M  V30 714 H 64.5594 -0.203146 0.724041 0
M  V30 715 H 66.5304 0.0491145 2.9836 0
M  V30 716 C 65.2794 -1.72626 3.0182 0
M  V30 717 H 64.6024 -1.30891 3.77767 0
M  V30 718 H 66.0424 -2.32199 3.54767 0
M  V30 719 C 64.5014 -2.63806 2.09542 0
M  V30 720 O 65.0314 -3.65256 1.67185 0
M  V30 721 N 63.2374 -2.31824 1.75232 0
M  V30 722 H 62.7844 -1.49368 2.09873 0
M  V30 723 H 62.7424 -2.93095 1.13767 0
M  V30 724 N 66.5145 -1.57545 0.0417849 0
M  V30 725 C 67.7425 -1.96624 -0.643928 0
M  V30 726 C 68.1575 -0.918897 -1.64929 0
M  V30 727 O 67.5145 0.0979323 -1.82237 0
M  V30 728 C 67.5655 -3.35781 -1.33914 0
M  V30 729 O 67.2865 -4.365 -0.374048 0
M  V30 730 C 68.7875 -3.89566 -2.1155 0
M  V30 731 H 66.0075 -0.647316 -0.176702 0
M  V30 732 H 68.5515 -2.04229 0.105304 0
M  V30 733 H 66.7065 -3.29357 -2.03968 0
M  V30 734 H 67.1205 -5.17248 -0.869179 0
M  V30 735 H 68.5945 -4.89242 -2.55628 0
M  V30 736 H 69.0715 -3.24488 -2.9598 0
M  V30 737 H 69.6775 -3.99298 -1.46427 0
M  V30 738 N 67.9926 0.231505 -1.5589 0
M  V30 739 C 69.2176 0.978689 -1.82856 0
M  V30 740 C 69.6426 1.77559 -0.620846 0
M  V30 741 O 69.0006 1.76119 0.430305 0
M  V30 742 C 69.0486 1.87997 -3.07716 0
M  V30 743 O 68.1526 2.97393 -2.85712 0
M  V30 744 H 67.4936 0.277663 -0.603158 0
M  V30 745 H 70.0236 0.24783 -2.03093 0
M  V30 746 H 70.0336 2.2917 -3.37558 0
M  V30 747 H 68.7086 1.29417 -3.95252 0
M  V30 748 H 67.2856 2.60238 -2.67078 0
M  V30 749 N 69.4707 1.49531 0.497807 0
M  V30 750 C 70.7007 1.62657 1.27382 0
M  V30 751 C 71.1087 0.298488 1.86831 0
M  V30 752 O 70.4517 -0.72647 1.68725 0
M  V30 753 C 70.5137 2.6393 2.44093 0
M  V30 754 C 70.1777 4.08195 2.05489 0
M  V30 755 C 71.1747 4.949 1.59279 0
M  V30 756 C 68.8597 4.53948 2.15026 0
M  V30 757 C 70.8537 6.25397 1.23113 0
M  V30 758 C 68.5407 5.84458 1.78473 0
M  V30 759 C 69.5387 6.70006 1.32591 0
M  V30 760 O 69.2267 7.98083 0.965327 0
M  V30 761 H 68.9587 0.550429 0.392434 0
M  V30 762 H 71.5127 1.96325 0.603801 0
M  V30 763 H 69.7427 2.25449 3.14181 0
M  V30 764 H 71.4317 2.66552 3.06113 0
M  V30 765 H 72.1977 4.60779 1.51354 0
M  V30 766 H 68.0767 3.87525 2.4969 0
M  V30 767 H 71.6207 6.92125 0.872299 0
M  V30 768 H 67.5177 6.18107 1.86048 0
M  V30 769 H 68.2857 8.11122 1.09652 0
M  V30 770 N 70.9488 -0.749086 1.3866 0
M  V30 771 C 72.3598 -1.32664 1.31366 0
M  V30 772 C 72.7108 -1.96179 -0.028484 0
M  V30 773 O 71.8358 -1.9537 -0.93057 0
M  V30 774 C 72.4308 -2.41219 2.37905 0
M  V30 775 C 70.9898 -2.94684 2.34176 0
M  V30 776 C 70.1368 -1.68108 2.20533 0
M  V30 777 H 73.0878 -0.547628 1.48952 0
M  V30 778 H 73.1088 -3.21268 2.0388 0
M  V30 779 H 72.6208 -1.94962 3.35576 0
M  V30 780 H 70.7218 -3.45258 1.401 0
M  V30 781 H 70.8348 -3.48757 3.2849 0
M  V30 782 H 69.1988 -1.91907 1.67463 0
M  V30 783 H 69.9818 -1.23923 3.20153 0
M  V30 784 N 72.4269 -1.23603 -0.977757 0
M  V30 785 C 73.6729 -1.08136 -1.72274 0
M  V30 786 C 74.0279 0.377453 -1.88661 0
M  V30 787 O 73.3209 1.27552 -1.42972 0
M  V30 788 C 73.5149 -1.7433 -3.11999 0
M  V30 789 C 73.3439 -3.26498 -3.0924 0
M  V30 790 C 72.1139 -3.9567 -3.14282 0
M  V30 791 C 74.3119 -4.2323 -2.92201 0
M  V30 792 N 72.2939 -5.34799 -3.01436 0
M  V30 793 C 73.6649 -5.49289 -2.87544 0
M  V30 794 C 75.7199 -4.13931 -2.76705 0
M  V30 795 C 74.4229 -6.67116 -2.68978 0
M  V30 796 C 76.4489 -5.31424 -2.59504 0
M  V30 797 C 75.8109 -6.5641 -2.55548 0
M  V30 798 H 71.9099 -0.450247 -0.639376 0
M  V30 799 H 74.4939 -1.5637 -1.16002 0
M  V30 800 H 72.6649 -1.28624 -3.66484 0
M  V30 801 H 74.3969 -1.51815 -3.75146 0
M  V30 802 H 71.1519 -3.46767 -3.22567 0
M  V30 803 H 71.5759 -6.07748 -2.98281 0
M  V30 804 H 76.2179 -3.1807 -2.78552 0
M  V30 805 H 73.9359 -7.63109 -2.65876 0
M  V30 806 H 77.5219 -5.26072 -2.48474 0
M  V30 807 H 76.4019 -7.45795 -2.42405 0
M  V30 808 N 73.905 1.17692 -1.04816 0
M  V30 809 C 75.13 1.92327 -0.776207 0
M  V30 810 C 75.555 1.76082 0.661581 0
M  V30 811 O 74.913 1.076 1.45917 0
M  V30 812 C 74.961 3.41539 -1.15687 0
M  V30 813 O 74.065 4.11402 -0.286775 0
M  V30 814 H 73.406 0.599735 -0.284981 0
M  V30 815 H 75.936 1.49201 -1.4 0
M  V30 816 H 75.946 3.92269 -1.12202 0
M  V30 817 H 74.621 3.52684 -2.20425 0
M  V30 818 H 73.198 3.70939 -0.381903 0
M  V30 819 N 75.3831 0.828654 1.34056 0
M  V30 820 C 76.6291 0.429279 1.98818 0
M  V30 821 C 76.9841 -0.998011 1.64492 0
M  V30 822 O 76.2771 -1.68652 0.909228 0
M  V30 823 C 76.4711 0.575226 3.52741 0
M  V30 824 C 76.3001 2.01515 4.02022 0
M  V30 825 C 75.0701 2.64825 4.30344 0
M  V30 826 C 77.2681 2.98261 4.18981 0
M  V30 827 N 75.2501 3.99998 4.65698 0
M  V30 828 C 76.6211 4.18356 4.57578 0
M  V30 829 C 78.6761 2.94802 4.01243 0
M  V30 830 C 77.3791 5.35454 4.80293 0
M  V30 831 C 79.4051 4.11121 4.25128 0
M  V30 832 C 78.7671 5.29969 4.64018 0
M  V30 833 H 74.8661 0.205304 0.754569 0
M  V30 834 H 77.4501 1.07457 1.62361 0
M  V30 835 H 75.6211 -0.0401962 3.88379 0
M  V30 836 H 77.3531 0.148292 4.04428 0
M  V30 837 H 74.1081 2.16027 4.21461 0
M  V30 838 H 74.5321 4.69653 4.87601 0
M  V30 839 H 79.1741 2.04054 3.70299 0
M  V30 840 H 76.8921 6.26755 5.10102 0
M  V30 841 H 80.4781 4.0985 4.12934 0
M  V30 842 H 79.3581 6.18479 4.82134 0
M  V30 843 N 76.8612 -1.46375 0.584142 0
M  V30 844 C 77.8242 -2.28784 -0.138108 0
M  V30 845 C 78.8242 -1.38471 -0.817462 0
M  V30 846 O 80.0142 -1.60833 -0.669199 0
M  V30 847 C 77.1462 -3.18892 -1.20503 0
M  V30 848 H 78.3392 -2.94117 0.586127 0
M  V30 849 H 75.8922 -1.52509 0.342171 0
M  V30 850 H 76.6272 -2.58309 -1.96079 0
M  V30 851 H 76.4122 -3.85388 -0.722384 0
M  V30 852 H 77.9022 -3.80914 -1.71155 0
M  V30 853 N 78.3393 -0.321999 -1.54275 0
M  V30 854 C 79.7553 0.0306999 -1.5957 0
M  V30 855 C 79.9553 1.50614 -1.33857 0
M  V30 856 O 79.0113 2.2619 -1.12223 0
M  V30 857 C 80.3243 -0.386122 -2.98211 0
M  V30 858 C 81.8723 -0.336647 -3.11184 0
M  V30 859 C 82.3473 -0.728607 -4.52167 0
M  V30 860 N 83.8383 -0.681952 -4.58152 0
M  V30 861 C 84.5733 -0.957449 -5.6535 0
M  V30 862 N 84.0693 -1.3 -6.80494 0
M  V30 863 N 85.8623 -0.883113 -5.55119 0
M  V30 864 H 78.0133 -1.28332 -1.69247 0
M  V30 865 H 80.2763 -0.521716 -0.791528 0
M  V30 866 H 79.9823 -1.41404 -3.22022 0
M  V30 867 H 79.8563 0.249662 -3.76373 0
M  V30 868 H 82.2433 0.682058 -2.8711 0
M  V30 869 H 82.3243 -1.00734 -2.3513 0
M  V30 870 H 81.9683 -1.74522 -4.76974 0
M  V30 871 H 81.8983 -0.0356152 -5.26588 0
M  V30 872 H 84.3893 -0.428985 -3.75457 0
M  V30 873 H 84.7023 -1.49563 -7.58189 0
M  V30 874 H 83.0473 -1.33824 -6.81994 0
M  V30 875 H 86.2383 -0.615001 -4.64042 0
M  V30 876 H 86.4113 -1.10118 -6.38575 0
M  V30 877 N 79.8174 1.5752 -0.0501392 0
M  V30 878 C 81.0634 1.92936 0.624798 0
M  V30 879 C 81.3964 0.928685 1.70555 0
M  V30 880 O 80.6714 -0.0454779 1.94447 0
M  V30 881 C 80.9544 3.38737 1.22185 0
M  V30 882 C 80.8074 4.49552 0.149218 0
M  V30 883 C 82.1264 3.84913 2.13378 0
M  V30 884 H 79.2454 0.701604 0.225657 0
M  V30 885 H 81.8874 1.89671 -0.111693 0
M  V30 886 H 80.0374 3.4165 1.84953 0
M  V30 887 H 81.7094 4.58768 -0.482648 0
M  V30 888 H 79.9524 4.30638 -0.522841 0
M  V30 889 H 80.6234 5.48653 0.606966 0
M  V30 890 H 83.0994 3.8387 1.60572 0
M  V30 891 H 81.9754 4.87584 2.52097 0
M  V30 892 H 82.2364 3.21611 3.03346 0
M  V30 893 N 81.2955 -0.223234 1.56011 0
M  V30 894 C 82.5435 -0.946003 1.78592 0
M  V30 895 C 82.8645 -1.84936 0.618349 0
M  V30 896 O 82.1345 -1.92473 -0.364833 0
M  V30 897 H 80.7145 -0.352298 0.658707 0
M  V30 898 H 83.3765 -0.235494 1.93472 0
M  V30 899 H 82.4725 -1.55381 2.70672 0
M  V30 900 N 82.7736 -1.49793 -0.48987 0
M  V30 901 C 84.1846 -1.52914 -1.07118 0
M  V30 902 C 84.5356 -0.321738 -1.93544 0
M  V30 903 O 83.6606 0.567338 -2.08831 0
M  V30 904 C 84.2556 -2.771 -1.94938 0
M  V30 905 C 82.8146 -2.82963 -2.48212 0
M  V30 906 C 81.9616 -2.46972 -1.26096 0
M  V30 907 H 84.9126 -1.56329 -0.273289 0
M  V30 908 H 84.9336 -2.57892 -2.79771 0
M  V30 909 H 84.4456 -3.64959 -1.32009 0
M  V30 910 H 82.5466 -1.99411 -3.14748 0
M  V30 911 H 82.6596 -3.85406 -2.84603 0
M  V30 912 H 81.0236 -1.98994 -1.58976 0
M  V30 913 H 81.8066 -3.37118 -0.648581 0
M  V30 914 N 84.2517 0.741722 -1.39055 0
M  V30 915 C 85.2147 1.83733 -1.37021 0
M  V30 916 C 86.2147 1.58542 -0.268534 0
M  V30 917 O 87.4047 1.66067 -0.526076 0
M  V30 918 C 84.5367 3.2141 -1.13617 0
M  V30 919 H 85.7297 1.86941 -2.34506 0
M  V30 920 H 83.2827 0.944676 -1.24521 0
M  V30 921 H 84.0177 3.23865 -0.167863 0
M  V30 922 H 83.8027 3.4109 -1.93391 0
M  V30 923 H 85.2927 4.01477 -1.14918 0
M  V30 924 N 85.7298 1.2412 0.971189 0
M  V30 925 C 86.9758 1.08041 1.71625 0
M  V30 926 C 87.3088 -0.380407 1.90438 0
M  V30 927 O 86.5838 -1.28127 1.46334 0
M  V30 928 C 86.8668 1.81682 3.10908 0
M  V30 929 C 86.7198 3.35493 2.99608 0
M  V30 930 C 88.0388 1.58671 4.10501 0
M  V30 931 H 85.1578 0.39388 0.622919 0
M  V30 932 H 87.7998 1.52743 1.13003 0
M  V30 933 H 85.9498 1.43684 3.60953 0
M  V30 934 H 87.6218 3.83068 2.57015 0
M  V30 935 H 85.8648 3.64052 2.35899 0
M  V30 936 H 86.5358 3.82217 3.98264 0
M  V30 937 H 89.0118 1.91719 3.69301 0
M  V30 938 H 87.8878 2.1266 5.06031 0
M  V30 939 H 88.1488 0.524161 4.38982 0
M  V30 940 N 87.2079 -1.17134 1.05439 0
M  V30 941 C 88.1179 -2.24878 0.668365 0
M  V30 942 C 89.1339 -1.71186 -0.311687 0
M  V30 943 O 90.3099 -2.00738 -0.163161 0
M  V30 944 C 87.3749 -3.46662 0.051648 0
M  V30 945 C 86.4359 -4.15429 1.08246 0
M  V30 946 C 85.6689 -5.31399 0.495082 0
M  V30 947 O 85.8919 -5.66153 -0.694743 0
M  V30 948 O 84.8259 -5.89187 1.23056 0
M  V30 949 H 88.6519 -2.60189 1.56637 0
M  V30 950 H 86.2369 -1.24482 0.826104 0
M  V30 951 H 88.1189 -4.20394 -0.290966 0
M  V30 952 H 86.7939 -3.13142 -0.819971 0
M  V30 953 H 85.7009 -3.43704 1.47711 0
M  V30 954 H 87.0339 -4.52982 1.92532 0
M  V30 955 N 88.686 -0.835752 -1.33615 0
M  V30 956 C 89.616 -0.281739 -2.31794 0
M  V30 957 C 90.597 0.608833 -1.58831 0
M  V30 958 O 91.782 0.533035 -1.86741 0
M  V30 959 C 88.912 0.546612 -3.42971 0
M  V30 960 C 87.866 -0.247904 -4.27281 0
M  V30 961 C 87.192 0.704001 -5.30045 0
M  V30 962 C 88.492 -1.46324 -5.01385 0
M  V30 963 H 90.186 -1.10206 -2.78379 0
M  V30 964 H 87.732 -0.531388 -1.33837 0
M  V30 965 H 89.685 0.944467 -4.1068 0
M  V30 966 H 88.409 1.40011 -2.95067 0
M  V30 967 H 87.068 -0.627281 -3.61194 0
M  V30 968 H 86.716 1.55381 -4.78399 0
M  V30 969 H 86.416 0.176524 -5.87335 0
M  V30 970 H 87.94 1.09944 -6.0062 0
M  V30 971 H 89.354 -1.13871 -5.61877 0
M  V30 972 H 87.751 -1.92728 -5.6831 0
M  V30 973 H 88.821 -2.23467 -4.30338 0
M  V30 974 N 90.1641 1.46063 -0.591896 0
M  V30 975 C 91.1271 2.28854 0.125973 0
M  V30 976 C 92.1271 1.38903 0.810107 0
M  V30 977 O 93.3171 1.61186 0.66066 0
M  V30 978 C 90.4491 3.19526 1.1881 0
M  V30 979 H 91.6421 2.93802 -0.601717 0
M  V30 980 H 89.1951 1.52325 -0.350254 0
M  V30 981 H 89.9301 2.59345 1.94707 0
M  V30 982 H 89.7151 3.85766 0.701936 0
M  V30 983 H 91.2051 3.81817 1.69132 0
M  V30 984 N 91.6422 0.330177 1.54103 0
M  V30 985 C 92.5722 -0.525353 2.27513 0
M  V30 986 C 93.5532 -1.11383 1.2856 0
M  V30 987 O 94.7382 -1.13773 1.57383 0
M  V30 988 C 91.8682 -1.6831 3.03791 0
M  V30 989 C 90.8222 -1.2236 4.10137 0
M  V30 990 C 90.1482 -2.46882 4.74293 0
M  V30 991 C 91.4482 -0.333697 5.21233 0
M  V30 992 H 93.1422 0.087013 2.99274 0
M  V30 993 H 90.6882 0.0432893 1.43935 0
M  V30 994 H 92.6412 -2.28795 3.5388 0
M  V30 995 H 91.3652 -2.32216 2.29659 0
M  V30 996 H 90.0242 -0.64165 3.60941 0
M  V30 997 H 89.6722 -3.09165 3.96769 0
M  V30 998 H 89.3722 -2.16825 5.46133 0
M  V30 999 H 90.8962 -3.08117 5.27159 0
M  V30 1000 H 92.3102 -0.845013 5.67038 0
M  V30 1001 H 90.7072 -0.125612 5.99969 0
M  V30 1002 H 91.7772 0.633724 4.80741 0
M  V30 1003 N 93.1203 -1.57491 0.0584922 0
M  V30 1004 C 94.0833 -2.1085 -0.898617 0
M  V30 1005 C 95.0833 -1.02964 -1.23511 0
M  V30 1006 O 96.2733 -1.29007 -1.17059 0
M  V30 1007 C 93.4053 -2.59881 -2.20623 0
M  V30 1008 H 94.5983 -2.96715 -0.435936 0
M  V30 1009 H 92.1513 -1.55141 -0.190023 0
M  V30 1010 H 92.8863 -1.77431 -2.71457 0
M  V30 1011 H 92.6713 -3.38727 -1.97501 0
M  V30 1012 H 94.1613 -3.01285 -2.89166 0
M  V30 1013 N 94.5984 0.214957 -1.56127 0
M  V30 1014 C 95.5304 1.29004 -1.89448 0
M  V30 1015 C 96.5434 1.42716 -0.783326 0
M  V30 1016 O 97.7324 1.43496 -1.06166 0
M  V30 1017 C 94.8324 2.66482 -2.09381 0
M  V30 1018 C 94.0054 2.74633 -3.40434 0
M  V30 1019 C 93.0644 3.9317 -3.49719 0
M  V30 1020 O 92.0904 3.812 -4.227 0
M  V30 1021 N 93.2924 5.07765 -2.81346 0
M  V30 1022 H 96.0574 1.00743 -2.82261 0
M  V30 1023 H 93.6184 0.40497 -1.56753 0
M  V30 1024 H 95.6104 3.44173 -2.12901 0
M  V30 1025 H 94.1804 2.87314 -1.23163 0
M  V30 1026 H 93.4004 1.83368 -3.48955 0
M  V30 1027 H 94.6884 2.77054 -4.26754 0
M  V30 1028 H 94.0864 5.20386 -2.21843 0
M  V30 1029 H 92.6434 5.83474 -2.90519 0
M  V30 1030 N 96.0765 1.50051 0.48192 0
M  V30 1031 C 97.3225 1.60736 1.2366 0
M  V30 1032 C 97.6555 0.301786 1.91841 0
M  V30 1033 O 96.9305 -0.696025 1.8162 0
M  V30 1034 C 97.2135 2.78009 2.28874 0
M  V30 1035 C 97.0665 4.18416 1.65069 0
M  V30 1036 C 98.3855 2.90867 3.30279 0
M  V30 1037 H 95.5045 0.585031 0.448228 0
M  V30 1038 H 98.1465 1.82402 0.531946 0
M  V30 1039 H 96.2965 2.59667 2.88973 0
M  V30 1040 H 97.9685 4.48322 1.0865 0
M  V30 1041 H 96.2115 4.23177 0.954148 0
M  V30 1042 H 96.8825 4.96381 2.41474 0
M  V30 1043 H 99.3585 3.07623 2.80191 0
M  V30 1044 H 98.2345 3.74566 4.01238 0
M  V30 1045 H 98.4955 2.01021 3.93755 0
M  V30 1046 N 97.5546 -0.734337 1.39446 0
M  V30 1047 C 98.5016 -1.84835 1.38219 0
M  V30 1048 C 99.4716 -1.64331 0.24179 0
M  V30 1049 O 100.657 -1.85728 0.437002 0
M  V30 1050 C 97.7966 -3.22355 1.23212 0
M  V30 1051 C 96.9096 -3.5456 2.46801 0
M  V30 1052 C 96.0446 -4.81485 2.24377 0
M  V30 1053 C 95.0836 -5.06536 3.43639 0
M  V30 1054 N 94.2206 -6.24665 3.20528 0
M  V30 1055 H 99.0606 -1.85219 2.33448 0
M  V30 1056 H 96.5976 -0.905039 1.15963 0
M  V30 1057 H 98.5556 -4.0174 1.12522 0
M  V30 1058 H 97.1856 -3.21248 0.316121 0
M  V30 1059 H 96.2376 -2.69872 2.68092 0
M  V30 1060 H 97.5496 -3.6899 3.3563 0
M  V30 1061 H 96.7036 -5.68852 2.10933 0
M  V30 1062 H 95.4426 -4.6923 1.32944 0
M  V30 1063 H 94.4476 -4.17632 3.5758 0
M  V30 1064 H 95.6726 -5.20676 4.35974 0
M  V30 1065 H 93.6186 -6.13696 2.3176 0
M  V30 1066 H 93.5356 -6.39685 4.02913 0
M  V30 1067 H 94.8036 -7.14868 3.10779 0
M  V30 1068 N 99.0327 -1.24633 -0.964593 0
M  V30 1069 C 99.9957 -1.0424 -2.04124 0
M  V30 1070 C 100.996 0.00137563 -1.608 0
M  V30 1071 O 102.186 -0.239883 -1.7254 0
M  V30 1072 C 99.3177 -0.580588 -3.3592 0
M  V30 1073 H 100.511 -1.99803 -2.23649 0
M  V30 1074 H 98.0637 -1.06899 -1.14027 0
M  V30 1075 H 98.7987 0.3781 -3.22088 0
M  V30 1076 H 98.5837 -1.33398 -3.6871 0
M  V30 1077 H 100.074 -0.459034 -4.15069 0
M  V30 1078 N 100.511 1.16574 -1.06058 0
M  V30 1079 C 101.927 1.3904 -0.783585 0
M  V30 1080 C 102.127 1.91784 0.618145 0
M  V30 1081 O 101.183 2.11511 1.37911 0
M  V30 1082 C 102.496 2.37329 -1.84649 0
M  V30 1083 C 104.044 2.51018 -1.86973 0
M  V30 1084 C 104.519 3.52588 -2.92311 0
M  V30 1085 N 106.01 3.60113 -2.91329 0
M  V30 1086 C 106.745 4.38486 -3.69482 0
M  V30 1087 N 106.241 5.20302 -4.57447 0
M  V30 1088 N 108.034 4.33446 -3.57885 0
M  V30 1089 H 100.185 0.806725 -1.96483 0
M  V30 1090 H 102.448 0.417117 -0.851303 0
M  V30 1091 H 102.154 2.05663 -2.85299 0
M  V30 1092 H 102.028 3.36946 -1.6955 0
M  V30 1093 H 104.415 2.81989 -0.869827 0
M  V30 1094 H 104.496 1.51445 -2.0615 0
M  V30 1095 H 104.14 3.22354 -3.92492 0
M  V30 1096 H 104.07 4.51886 -2.70383 0
M  V30 1097 H 106.561 3.01707 -2.27555 0
M  V30 1098 H 106.874 5.77311 -5.13743 0
M  V30 1099 H 105.219 5.19653 -4.61503 0
M  V30 1100 H 108.41 3.68586 -2.88551 0
M  V30 1101 H 108.583 4.94279 -4.19037 0
M  V30 1102 N 101.989 0.842826 1.3317 0
M  V30 1103 C 103.4 0.496651 1.79973 0
M  V30 1104 C 103.751 -0.984641 1.69703 0
M  V30 1105 O 102.876 -1.76743 1.24863 0
M  V30 1106 C 103.471 0.894727 3.26772 0
M  V30 1107 C 102.03 0.600629 3.71577 0
M  V30 1108 C 101.177 1.10091 2.5451 0
M  V30 1109 H 104.128 1.03116 1.20635 0
M  V30 1110 H 104.149 0.206347 3.7994 0
M  V30 1111 H 103.661 1.97287 3.34215 0
M  V30 1112 H 101.762 -0.467284 3.69658 0
M  V30 1113 H 101.875 1.15863 4.64879 0
M  V30 1114 H 100.239 0.52162 2.49301 0
M  V30 1115 H 101.022 2.18591 2.64713 0
M  V30 1116 N 103.467 -1.45747 0.599634 0
M  V30 1117 C 104.744 -1.95585 0.0240846 0
M  V30 1118 C 105.124 -1.54217 -1.44154 0
M  V30 1119 O 104.472 -0.800903 -2.14004 0
M  V30 1120 C 104.682 -3.48344 0.21385 0
M  V30 1121 C 106.03 -4.24504 0.0904902 0
M  V30 1122 O 107.054 -3.55911 0.143558 0
M  V30 1123 O 105.913 -5.46491 -0.0310766 0
M  V30 1124 H 103.007 -0.82602 -0.0402478 0
M  V30 1125 H 105.553 -1.55951 0.669139 0
M  V30 1126 H 104.325 -3.71397 1.23206 0
M  V30 1127 H 103.948 -3.9485 -0.466842 0
M  V30 1128 N 104.945 -0.338344 -1.53925 0
M  V30 1129 C 105.875 0.51328 -2.27789 0
M  V30 1130 C 106.856 1.107 -1.29149 0
M  V30 1131 O 108.041 1.12937 -1.57984 0
M  V30 1132 C 105.171 1.66697 -3.04679 0
M  V30 1133 C 104.125 1.20183 -4.1078 0
M  V30 1134 C 103.451 2.44363 -4.75595 0
M  V30 1135 C 104.751 0.30605 -5.21403 0
M  V30 1136 H 106.445 -0.102883 -2.99223 0
M  V30 1137 H 103.991 -0.0509219 -1.4391 0
M  V30 1138 H 105.944 2.26915 -3.55088 0
M  V30 1139 H 104.668 2.30995 -2.30887 0
M  V30 1140 H 103.327 0.622499 -3.61276 0
M  V30 1141 H 102.975 3.07057 -3.98403 0
M  V30 1142 H 102.675 2.13925 -5.47275 0
M  V30 1143 H 104.199 3.05317 -5.28786 0
M  V30 1144 H 105.613 0.814929 -5.67478 0
M  V30 1145 H 104.01 0.0937929 -6.00027 0
M  V30 1146 H 105.08 -0.65921 -4.80398 0
M  V30 1147 N 106.423 1.57458 -0.0668435 0
M  V30 1148 C 107.353 2.15468 0.899764 0
M  V30 1149 C 108.334 1.08042 1.31381 0
M  V30 1150 O 109.519 1.36054 1.38574 0
M  V30 1151 C 106.649 2.71232 2.16911 0
M  V30 1152 C 105.603 3.83781 1.89463 0
M  V30 1153 C 104.929 4.26127 3.22986 0
M  V30 1154 C 106.229 5.08238 1.20381 0
M  V30 1155 H 107.923 2.96488 0.416529 0
M  V30 1156 H 105.469 1.4262 0.198908 0
M  V30 1157 H 107.422 3.10458 2.84945 0
M  V30 1158 H 106.146 1.87426 2.67468 0
M  V30 1159 H 104.805 3.45051 1.23836 0
M  V30 1160 H 104.453 3.39249 3.71374 0
M  V30 1161 H 104.153 5.01993 3.05413 0
M  V30 1162 H 105.677 4.67966 3.92225 0
M  V30 1163 H 107.091 5.44811 1.78475 0
M  V30 1164 H 105.488 5.89349 1.13083 0
M  V30 1165 H 106.558 4.84558 0.182153 0
M  V30 1166 N 107.901 -0.206675 1.56239 0
M  V30 1167 C 109.312 -0.772383 1.69974 0
M  V30 1168 C 109.663 -1.84353 0.671436 0
M  V30 1169 O 108.788 -2.15695 -0.174491 0
M  V30 1170 C 109.383 -1.40779 3.08167 0
M  V30 1171 C 107.942 -1.92072 3.23706 0
M  V30 1172 C 107.089 -0.786347 2.65917 0
M  V30 1173 H 110.04 0.0182223 1.5869 0
M  V30 1174 H 110.061 -2.27696 3.04852 0
M  V30 1175 H 109.573 -0.627958 3.82986 0
M  V30 1176 H 107.674 -2.7281 2.53782 0
M  V30 1177 H 107.787 -2.09046 4.31087 0
M  V30 1178 H 106.151 -1.1976 2.24788 0
M  V30 1179 H 106.934 -0.0189416 3.43295 0
M  V30 1180 N 109.379 -1.50304 -0.473955 0
M  V30 1181 C 110.627 -1.60832 -1.22382 0
M  V30 1182 C 110.948 -0.30939 -1.9253 0
M  V30 1183 O 110.218 0.67296 -1.83978 0
M  V30 1184 H 108.798 -0.592652 -0.454723 0
M  V30 1185 H 111.46 -1.87068 -0.546968 0
M  V30 1186 H 110.556 -2.41803 -1.97327 0
M  V30 1187 N 110.857 0.726932 -1.39834 0
M  V30 1188 C 112.103 1.48771 -1.38704 0
M  V30 1189 C 112.458 1.92394 0.0146387 0
M  V30 1190 O 111.751 1.64474 0.982797 0
M  V30 1191 C 111.945 2.73495 -2.30077 0
M  V30 1192 C 111.774 2.42068 -3.78989 0
M  V30 1193 C 110.544 2.33966 -4.4787 0
M  V30 1194 C 112.742 2.0708 -4.70768 0
M  V30 1195 N 110.724 1.95095 -5.82075 0
M  V30 1196 C 112.095 1.78719 -5.93683 0
M  V30 1197 C 114.15 1.93618 -4.58712 0
M  V30 1198 C 112.853 1.3825 -7.05889 0
M  V30 1199 C 114.879 1.54553 -5.70848 0
M  V30 1200 C 114.241 1.27082 -6.92842 0
M  V30 1201 H 110.34 0.542919 -0.562817 0
M  V30 1202 H 112.924 0.84408 -1.75452 0
M  V30 1203 H 111.095 3.35625 -1.95474 0
M  V30 1204 H 112.827 3.39755 -2.19883 0
M  V30 1205 H 109.582 2.51331 -4.0141 0
M  V30 1206 H 110.006 1.7823 -6.53118 0
M  V30 1207 H 114.648 2.13522 -3.64922 0
M  V30 1208 H 112.366 1.17088 -7.99572 0
M  V30 1209 H 115.952 1.44731 -5.6351 0
M  V30 1210 H 114.832 0.973069 -7.78139 0
M  V30 1211 N 112.336 1.25143 0.95797 0
M  V30 1212 C 113.564 1.12424 1.73691 0
M  V30 1213 C 113.979 -0.322304 1.86029 0
M  V30 1214 O 113.336 -1.22186 1.35561 0
M  V30 1215 C 113.387 1.76933 3.15241 0
M  V30 1216 O 113.108 3.15932 3.03511 0
M  V30 1217 C 114.609 1.6995 4.09429 0
M  V30 1218 H 111.829 0.3923 0.544373 0
M  V30 1219 H 114.373 1.6544 1.20207 0
M  V30 1220 H 112.528 1.27895 3.6568 0
M  V30 1221 H 112.942 3.47598 3.9278 0
M  V30 1222 H 114.416 2.19753 5.06372 0
M  V30 1223 H 114.893 0.662619 4.34173 0
M  V30 1224 H 115.499 2.18461 3.64904 0
M  V30 1225 N 113.814 -1.1601 1.06675 0
M  V30 1226 C 115.06 -1.86909 0.786945 0
M  V30 1227 C 115.393 -1.81717 -0.685018 0
M  V30 1228 O 114.668 -1.23551 -1.50218 0
M  V30 1229 C 114.951 -3.36313 1.28707 0
M  V30 1230 C 114.804 -3.50175 2.82308 0
M  V30 1231 C 116.123 -4.3084 0.898071 0
M  V30 1232 H 113.242 -0.678677 0.287343 0
M  V30 1233 H 115.884 -1.36336 1.32334 0
M  V30 1234 H 114.034 -3.79513 0.830768 0
M  V30 1235 H 115.706 -3.15886 3.36175 0
M  V30 1236 H 113.949 -2.91959 3.20847 0
M  V30 1237 H 114.62 -4.55116 3.12368 0
M  V30 1238 H 117.096 -3.95561 1.29114 0
M  V30 1239 H 115.972 -5.33876 1.27543 0
M  V30 1240 H 116.233 -4.41662 -0.196651 0
M  V30 1241 N 115.292 -0.849877 -1.32721 0
M  V30 1242 C 116.708 -0.539102 -1.50219 0
M  V30 1243 C 116.908 0.931271 -1.78689 0
M  V30 1244 O 115.964 1.71455 -1.85363 0
M  V30 1245 C 117.277 -1.42196 -2.64954 0
M  V30 1246 C 118.825 -1.42189 -2.78839 0
M  V30 1247 C 119.3 -2.28985 -3.96648 0
M  V30 1248 N 120.791 -2.26754 -4.03902 0
M  V30 1249 C 121.526 -2.90644 -4.94281 0
M  V30 1250 N 121.022 -3.63629 -5.897 0
M  V30 1251 N 122.815 -2.80057 -4.87365 0
M  V30 1252 H 114.966 -1.80156 -1.12506 0
M  V30 1253 H 117.229 -0.769217 -0.554085 0
M  V30 1254 H 116.935 -2.46733 -2.50631 0
M  V30 1255 H 116.809 -1.10591 -3.60624 0
M  V30 1256 H 119.196 -0.38419 -2.92588 0
M  V30 1257 H 119.277 -1.77807 -1.83898 0
M  V30 1258 H 118.921 -3.32819 -3.83658 0
M  V30 1259 H 118.851 -1.90702 -4.90857 0
M  V30 1260 H 121.342 -1.73688 -3.3562 0
M  V30 1261 H 121.655 -4.09558 -6.55349 0
M  V30 1262 H 120 -3.67737 -5.89741 0
M  V30 1263 H 123.191 -2.22593 -4.11789 0
M  V30 1264 H 123.364 -3.30132 -5.57599 0
M  V30 1265 N 116.77 1.45427 -0.607355 0
M  V30 1266 C 117.998 2.06614 -0.108814 0
M  V30 1267 C 118.413 1.45204 1.2067 0
M  V30 1268 O 117.77 0.566132 1.73497 0
M  V30 1269 C 117.821 3.61481 0.0375347 0
M  V30 1270 O 117.542 4.20598 -1.22593 0
M  V30 1271 C 119.043 4.39652 0.567561 0
M  V30 1272 H 116.263 0.66747 -0.0687351 0
M  V30 1273 H 118.807 1.86675 -0.835022 0
M  V30 1274 H 116.962 3.80762 0.714068 0
M  V30 1275 H 117.376 5.1377 -1.05547 0
M  V30 1276 H 118.85 5.48518 0.61905 0
M  V30 1277 H 119.327 4.09417 1.58978 0
M  V30 1278 H 119.933 4.25234 -0.0749202 0
M  V30 1279 N 118.248 0.346503 1.53744 0
M  V30 1280 C 119.494 -0.249473 2.0126 0
M  V30 1281 C 119.827 -1.49965 1.23386 0
M  V30 1282 O 119.102 -1.91811 0.32229 0
M  V30 1283 C 119.385 -0.560643 3.55709 0
M  V30 1284 C 119.238 0.701836 4.44291 0
M  V30 1285 C 120.557 -1.36905 4.18264 0
M  V30 1286 H 117.676 -0.0891987 0.731582 0
M  V30 1287 H 120.318 0.467624 1.84156 0
M  V30 1288 H 118.468 -1.17156 3.70414 0
M  V30 1289 H 120.14 1.33974 4.41417 0
M  V30 1290 H 118.383 1.32612 4.13033 0
M  V30 1291 H 119.054 0.43933 5.50249 0
M  V30 1292 H 121.53 -0.852448 4.07275 0
M  V30 1293 H 120.406 -1.55553 5.26398 0
M  V30 1294 H 120.667 -2.37203 3.73078 0
M  V30 1295 N 119.726 -1.57421 0.075193 0
M  V30 1296 C 120.656 -2.15942 -0.888324 0
M  V30 1297 C 121.637 -1.08737 -1.30806 0
M  V30 1298 O 122.822 -1.36787 -1.37851 0
M  V30 1299 C 119.952 -2.72379 -2.1547 0
M  V30 1300 C 118.906 -3.8478 -1.87425 0
M  V30 1301 C 118.232 -4.27834 -3.20721 0
M  V30 1302 C 119.532 -5.08869 -1.17684 0
M  V30 1303 H 121.226 -2.96705 -0.400799 0
M  V30 1304 H 118.772 -1.42723 -0.191342 0
M  V30 1305 H 120.725 -3.11965 -2.83295 0
M  V30 1306 H 119.449 -1.88841 -2.6647 0
M  V30 1307 H 118.108 -3.45703 -1.22004 0
M  V30 1308 H 117.756 -3.41214 -3.6957 0
M  V30 1309 H 117.456 -5.03605 -3.02746 0
M  V30 1310 H 118.98 -4.70039 -3.89738 0
M  V30 1311 H 120.394 -5.4575 -1.75584 0
M  V30 1312 H 118.791 -5.8994 -1.09956 0
M  V30 1313 H 119.861 -4.84648 -0.156453 0
M  V30 1314 N 121.204 0.198386 -1.56346 0
M  V30 1315 C 122.452 0.91747 -1.80075 0
M  V30 1316 C 122.773 1.83929 -0.647692 0
M  V30 1317 O 122.043 1.93029 0.334166 0
M  V30 1318 H 120.623 0.341774 -0.664228 0
M  V30 1319 H 123.285 0.204684 -1.93822 0
M  V30 1320 H 122.381 1.51055 -2.7311 0
M  V30 1321 N 122.682 1.50554 0.465978 0
M  V30 1322 C 123.907 1.65838 1.24549 0
M  V30 1323 C 124.332 0.343486 1.84937 0
M  V30 1324 O 123.69 -0.69324 1.67523 0
M  V30 1325 C 123.738 2.75533 2.32624 0
M  V30 1326 O 122.842 2.37142 3.37398 0
M  V30 1327 H 122.183 0.553893 0.366194 0
M  V30 1328 H 124.713 1.96959 0.553927 0
M  V30 1329 H 124.723 2.98763 2.77857 0
M  V30 1330 H 123.398 3.70962 1.88043 0
M  V30 1331 H 121.975 2.24377 2.97841 0
M  V30 1332 N 124.16 -0.719506 1.40217 0
M  V30 1333 C 125.385 -1.51371 1.4178 0
M  V30 1334 C 125.81 -1.88091 0.0182355 0
M  V30 1335 O 125.168 -1.52997 -0.972707 0
M  V30 1336 C 125.216 -2.768 2.31115 0
M  V30 1337 O 124.32 -3.73349 1.7517 0
M  V30 1338 H 123.661 -0.456529 0.482159 0
M  V30 1339 H 126.191 -0.88644 1.844 0
M  V30 1340 H 126.201 -3.25371 2.46167 0
M  V30 1341 H 124.876 -2.49407 3.3282 0
M  V30 1342 H 123.453 -3.32179 1.69444 0
M  V30 1343 N 125.638 -1.25649 -0.95132 0
M  V30 1344 C 126.548 -1.08073 -2.08224 0
M  V30 1345 C 127.564 -0.0169666 -1.73992 0
M  V30 1346 O 128.74 -0.218593 -2.0021 0
M  V30 1347 C 125.805 -0.704922 -3.39458 0
M  V30 1348 C 124.866 -1.84699 -3.87537 0
M  V30 1349 C 124.099 -1.48902 -5.12508 0
M  V30 1350 O 124.322 -0.386156 -5.69091 0
M  V30 1351 O 123.256 -2.32033 -5.55378 0
M  V30 1352 H 127.082 -2.02924 -2.25954 0
M  V30 1353 H 124.667 -1.04618 -1.06656 0
M  V30 1354 H 126.549 -0.507609 -4.18332 0
M  V30 1355 H 125.224 0.214291 -3.2299 0
M  V30 1356 H 124.131 -2.09919 -3.09653 0
M  V30 1357 H 125.464 -2.74557 -4.08509 0
M  V30 1358 N 127.117 1.15442 -1.07289 0
M  V30 1359 C 128.065 2.22225 -0.686952 0
M  V30 1360 C 129.059 1.66688 0.30193 0
M  V30 1361 O 130.265 1.79236 0.165712 0
M  V30 1362 H 126.64 0.723783 -0.204064 0
M  V30 1363 H 128.611 2.52056 -1.5972 0
M  V30 1364 C 127.36 3.47556 -0.100149 0
M  V30 1365 H 126.683 3.90612 -0.852211 0
M  V30 1366 H 128.123 4.23794 0.132235 0
M  V30 1367 C 126.582 3.16337 1.159 0
M  V30 1368 O 127.112 3.33074 2.24555 0
M  V30 1369 N 125.318 2.70385 1.06491 0
M  V30 1370 H 124.865 2.56966 0.180668 0
M  V30 1371 H 124.823 2.49871 1.90819 0
M  V30 1372 N 128.595 0.856903 1.32268 0
M  V30 1373 C 129.558 0.308171 2.27119 0
M  V30 1374 C 130.558 -0.533421 1.51695 0
M  V30 1375 O 131.748 -0.344607 1.70757 0
M  V30 1376 C 128.88 -0.563757 3.36206 0
M  V30 1377 H 130.073 1.14535 2.77167 0
M  V30 1378 H 127.626 0.631421 1.42978 0
M  V30 1379 H 128.361 -1.42266 2.91429 0
M  V30 1380 H 128.146 0.0386749 3.92081 0
M  V30 1381 H 129.636 -0.940386 4.06874 0
M  V30 1382 N 130.073 -1.45103 0.615059 0
M  V30 1383 C 131.003 -2.33339 -0.0865619 0
M  V30 1384 C 131.984 -1.4727 -0.851209 0
M  V30 1385 O 133.169 -1.76026 -0.820281 0
M  V30 1386 C 130.299 -3.30095 -1.07956 0
M  V30 1387 C 129.253 -4.25858 -0.427628 0
M  V30 1388 C 128.579 -5.12361 -1.5294 0
M  V30 1389 C 129.879 -5.18165 0.655944 0
M  V30 1390 H 131.573 -2.92254 0.650224 0
M  V30 1391 H 129.119 -1.40532 0.314138 0
M  V30 1392 H 131.072 -3.90698 -1.57901 0
M  V30 1393 H 129.796 -2.69355 -1.84703 0
M  V30 1394 H 128.455 -3.66564 0.0510292 0
M  V30 1395 H 128.103 -4.47984 -2.28734 0
M  V30 1396 H 127.803 -5.77238 -1.09865 0
M  V30 1397 H 129.327 -5.75833 -2.03098 0
M  V30 1398 H 130.741 -5.72796 0.240257 0
M  V30 1399 H 129.138 -5.91559 1.00888 0
M  V30 1400 H 130.208 -4.60144 1.52957 0
M  V30 1401 N 131.551 -0.354651 -1.53558 0
M  V30 1402 C 132.799 0.237972 -2.00694 0
M  V30 1403 C 133.12 1.50173 -1.24391 0
M  V30 1404 O 132.39 1.92673 -0.354135 0
M  V30 1405 H 130.97 0.0909256 -0.741446 0
M  V30 1406 H 133.632 -0.478368 -1.88938 0
M  V30 1407 H 132.728 0.47264 -3.085 0
M  V30 1408 N 133.029 1.57378 -0.0835403 0
M  V30 1409 C 134.275 1.94217 0.583733 0
M  V30 1410 C 134.608 0.964653 1.68547 0
M  V30 1411 O 133.883 -0.00422258 1.945 0
M  V30 1412 C 134.166 3.41253 1.14972 0
M  V30 1413 C 134.019 4.49768 0.0538277 0
M  V30 1414 C 135.338 3.89352 2.05166 0
M  V30 1415 H 132.457 0.706233 0.210724 0
M  V30 1416 H 135.099 1.89392 -0.1519 0
M  V30 1417 H 133.249 3.45496 1.77665 0
M  V30 1418 H 134.921 4.57641 -0.579851 0
M  V30 1419 H 133.164 4.29432 -0.614068 0
M  V30 1420 H 133.835 5.49817 0.490452 0
M  V30 1421 H 136.311 3.87189 1.52393 0
M  V30 1422 H 135.187 4.92822 2.41698 0
M  V30 1423 H 135.448 3.27973 2.96456 0
M  V30 1424 N 134.507 -0.190092 1.56449 0
M  V30 1425 C 135.747 -0.916414 1.82705 0
M  V30 1426 C 136.111 -1.80235 0.661763 0
M  V30 1427 O 137.312 -2.56484 0.80433 0
M  V30 1428 C 135.583 -1.70691 3.14005 0
M  V30 1429 S 137.142 -2.48457 3.61683 0
M  V30 1430 H 133.96 -0.307281 0.64117 0
M  V30 1431 H 136.562 -0.179433 1.94675 0
M  V30 1432 H 135.266 -1.04677 3.96826 0
M  V30 1433 H 134.797 -2.48562 3.04927 0
M  V30 1434 H 136.812 -3.72756 3.27517 0
M  V30 1435 N 135.985 -1.50799 -0.457987 0
M  V30 1436 C 137.21 -1.66496 -1.23668 0
M  V30 1437 C 137.635 -0.353288 -1.84752 0
M  V30 1438 O 136.993 0.684346 -1.67888 0
M  V30 1439 C 137.041 -2.76763 -2.3116 0
M  V30 1440 O 136.145 -2.38928 -3.36136 0
M  V30 1441 H 135.486 -0.555828 -0.363252 0
M  V30 1442 H 138.016 -1.9725 -0.543474 0
M  V30 1443 H 138.026 -3.00232 -2.76269 0
M  V30 1444 H 136.701 -3.71954 -1.86073 0
M  V30 1445 H 135.278 -2.25953 -2.96647 0
M  V30 1446 N 137.463 0.71206 -1.40597 0
M  V30 1447 C 138.74 1.46536 -1.29563 0
M  V30 1448 C 139.12 2.10931 0.0844217 0
M  V30 1449 O 138.468 2.00418 1.0975 0
M  V30 1450 C 138.678 2.49821 -2.43701 0
M  V30 1451 C 140.026 3.15551 -2.841 0
M  V30 1452 O 141.05 2.60142 -2.4332 0
M  V30 1453 O 139.909 4.15867 -3.54566 0
M  V30 1454 H 137.003 0.651801 -0.509004 0
M  V30 1455 H 139.549 0.743935 -1.52524 0
M  V30 1456 H 138.321 2.00778 -3.35863 0
M  V30 1457 H 137.944 3.29495 -2.22528 0
M  V30 1458 N 138.941 1.26152 0.944643 0
M  V30 1459 C 140.169 1.14259 1.72489 0
M  V30 1460 C 140.584 -0.302555 1.8636 0
M  V30 1461 O 139.941 -1.20741 1.36849 0
M  V30 1462 C 139.992 1.80266 3.13347 0
M  V30 1463 O 139.713 3.19133 3.00143 0
M  V30 1464 C 141.214 1.74283 4.07603 0
M  V30 1465 H 138.434 0.398051 0.540181 0
M  V30 1466 H 140.978 1.66706 1.18446 0
M  V30 1467 H 139.133 1.31766 3.64303 0
M  V30 1468 H 139.547 3.51744 3.89071 0
M  V30 1469 H 141.021 2.25111 5.04013 0
M  V30 1470 H 141.498 0.708631 4.33446 0
M  V30 1471 H 142.104 2.22319 3.62567 0
M  V30 1472 N 140.419 -1.14872 1.07899 0
M  V30 1473 C 141.382 -2.17986 0.708161 0
M  V30 1474 C 142.382 -1.58775 -0.25442 0
M  V30 1475 O 143.572 -1.74166 -0.034645 0
M  V30 1476 C 140.704 -3.40871 0.0446929 0
M  V30 1477 H 141.897 -2.52306 1.62116 0
M  V30 1478 H 139.45 -1.2943 0.876218 0
M  V30 1479 H 140.185 -3.12124 -0.880281 0
M  V30 1480 H 139.97 -3.8511 0.737091 0
M  V30 1481 H 141.46 -4.17121 -0.19991 0
M  V30 1482 N 141.898 -0.863906 -1.31812 0
M  V30 1483 C 142.861 -0.320212 -2.26952 0
M  V30 1484 C 143.861 0.525369 -1.51975 0
M  V30 1485 O 145.051 0.335547 -1.70938 0
M  V30 1486 C 142.183 0.545919 -3.365 0
M  V30 1487 H 143.376 -1.16004 -2.76556 0
M  V30 1488 H 140.929 -0.638995 -1.42641 0
M  V30 1489 H 141.664 1.40718 -2.92179 0
M  V30 1490 H 141.449 -0.0594674 -3.92055 0
M  V30 1491 H 142.939 0.918796 -4.07367 0
M  V30 1492 N 143.376 1.44774 -0.622745 0
M  V30 1493 C 144.787 1.85546 -0.207226 0
M  V30 1494 C 145.138 1.52093 1.23944 0
M  V30 1495 O 144.263 0.95492 1.94191 0
M  V30 1496 C 144.858 3.36781 -0.369313 0
M  V30 1497 C 143.417 3.76399 -0.00836847 0
M  V30 1498 C 142.564 2.68664 -0.686651 0
M  V30 1499 H 145.515 1.3536 -0.828454 0
M  V30 1500 H 145.536 3.78453 0.394162 0
M  V30 1501 H 145.048 3.61098 -1.42231 0
M  V30 1502 H 143.149 3.57698 1.04322 0
M  V30 1503 H 143.262 4.7732 -0.412584 0
M  V30 1504 H 141.626 2.54404 -0.122777 0
M  V30 1505 H 142.409 2.95815 -1.74208 0
M  V30 1506 N 144.854 0.36279 1.53368 0
M  V30 1507 C 145.784 -0.476976 2.28576 0
M  V30 1508 C 146.765 -1.08631 1.30894 0
M  V30 1509 O 147.95 -1.10409 1.59761 0
M  V30 1510 C 145.08 -1.61828 3.07293 0
M  V30 1511 C 144.034 -1.13633 4.1264 0
M  V30 1512 C 143.36 -2.36766 4.79423 0
M  V30 1513 C 144.66 -0.223061 5.21823 0
M  V30 1514 H 146.354 0.150474 2.99022 0
M  V30 1515 H 143.9 0.0738103 1.43811 0
M  V30 1516 H 145.853 -2.21237 3.58653 0
M  V30 1517 H 144.577 -2.27292 2.34533 0
M  V30 1518 H 143.236 -0.564945 3.62221 0
M  V30 1519 H 142.884 -3.0068 4.03238 0
M  V30 1520 H 142.584 -2.05192 5.50609 0
M  V30 1521 H 144.108 -2.96865 5.33576 0
M  V30 1522 H 145.522 -0.724545 5.68703 0
M  V30 1523 H 143.919 0.001678 6.001 0
M  V30 1524 H 144.989 0.735553 4.79289 0
M  V30 1525 N 146.332 -1.57332 0.0918853 0
M  V30 1526 C 147.295 -2.12708 -0.85369 0
M  V30 1527 C 148.295 -1.05561 -1.213 0
M  V30 1528 O 149.485 -1.31461 -1.14296 0
M  V30 1529 C 146.617 -2.64503 -2.15061 0
M  V30 1530 H 147.81 -2.97573 -0.3729 0
M  V30 1531 H 145.363 -1.55509 -0.157072 0
M  V30 1532 H 146.098 -1.83149 -2.67632 0
M  V30 1533 H 145.883 -3.4284 -1.90272 0
M  V30 1534 H 147.373 -3.07351 -2.82711 0
M  V30 1535 N 147.81 0.181792 -1.56548 0
M  V30 1536 C 148.773 1.20894 -1.94724 0
M  V30 1537 C 149.773 1.37738 -0.829747 0
M  V30 1538 O 150.963 1.35323 -1.09697 0
M  V30 1539 C 148.095 2.57593 -2.23291 0
M  V30 1540 H 149.288 0.882275 -2.86629 0
M  V30 1541 H 146.841 0.423838 -1.50444 0
M  V30 1542 H 147.576 2.95291 -1.34067 0
M  V30 1543 H 147.361 2.46735 -3.04736 0
M  V30 1544 H 148.851 3.31637 -2.53785 0
M  V30 1545 N 149.288 1.51039 0.449983 0
M  V30 1546 C 150.534 1.63322 1.20223 0
M  V30 1547 C 150.867 0.34241 1.91158 0
M  V30 1548 O 150.142 -0.657344 1.83055 0
M  V30 1549 C 150.425 2.82801 2.22925 0
M  V30 1550 C 150.278 4.21823 1.56157 0
M  V30 1551 C 151.597 2.97807 3.24035 0
M  V30 1552 H 148.716 0.594407 0.435718 0
M  V30 1553 H 151.358 1.83489 0.493136 0
M  V30 1554 H 149.508 2.65738 2.834 0
M  V30 1555 H 151.18 4.50526 0.991162 0
M  V30 1556 H 149.423 4.25105 0.864172 0
M  V30 1557 H 150.094 5.01391 2.30891 0
M  V30 1558 H 152.57 3.13497 2.73603 0
M  V30 1559 H 151.446 3.82992 3.93202 0
M  V30 1560 H 151.707 2.09328 3.89402 0
M  V30 1561 N 150.766 -0.704594 1.40972 0
M  V30 1562 C 152.043 -1.45847 1.30338 0
M  V30 1563 C 152.423 -2.10973 -0.0732344 0
M  V30 1564 O 151.771 -2.00997 -1.08685 0
M  V30 1565 C 151.981 -2.48525 2.45023 0
M  V30 1566 C 153.329 -3.1404 2.8577 0
M  V30 1567 O 154.353 -2.58848 2.44696 0
M  V30 1568 O 153.212 -4.13981 3.56766 0
M  V30 1569 H 150.306 -0.649092 0.512454 0
M  V30 1570 H 152.852 -0.735836 1.52917 0
M  V30 1571 H 151.624 -1.98994 3.36923 0
M  V30 1572 H 151.247 -3.2831 2.24272 0
M  V30 1573 N 152.244 -1.26651 -0.937939 0
M  V30 1574 C 153.174 -1.10993 -2.05433 0
M  V30 1575 C 154.155 -0.0142161 -1.70094 0
M  V30 1576 O 155.34 -0.186837 -1.93299 0
M  V30 1577 C 152.47 -0.745561 -3.39203 0
M  V30 1578 C 151.424 -1.79337 -3.88616 0
M  V30 1579 C 150.75 -1.28324 -5.19073 0
M  V30 1580 C 152.05 -3.19553 -4.13138 0
M  V30 1581 H 153.744 -2.0438 -2.1879 0
M  V30 1582 H 151.29 -0.984041 -1.05131 0
M  V30 1583 H 153.243 -0.622888 -4.16771 0
M  V30 1584 H 151.967 0.22401 -3.25831 0
M  V30 1585 H 150.626 -1.90477 -3.13231 0
M  V30 1586 H 150.274 -0.303414 -5.02084 0
M  V30 1587 H 149.974 -1.98369 -5.53103 0
M  V30 1588 H 151.498 -1.1733 -5.99221 0
M  V30 1589 H 152.912 -3.11471 -4.81309 0
M  V30 1590 H 151.309 -3.87218 -4.58457 0
M  V30 1591 H 152.379 -3.65368 -3.18801 0
M  V30 1592 N 153.722 1.14298 -1.08507 0
M  V30 1593 C 154.669 2.19414 -0.715965 0
M  V30 1594 C 155.639 1.63399 0.298326 0
M  V30 1595 O 156.824 1.89929 0.182101 0
M  V30 1596 C 153.964 3.44845 -0.132534 0
M  V30 1597 C 153.077 4.15007 -1.19973 0
M  V30 1598 C 152.212 5.28024 -0.580048 0
M  V30 1599 C 151.251 5.9002 -1.62921 0
M  V30 1600 N 150.388 6.94485 -1.03125 0
M  V30 1601 H 155.228 2.50336 -1.61666 0
M  V30 1602 H 152.765 1.2293 -0.807882 0
M  V30 1603 H 154.723 4.16601 0.223454 0
M  V30 1604 H 153.353 3.14403 0.731467 0
M  V30 1605 H 152.405 3.41629 -1.67313 0
M  V30 1606 H 153.717 4.57178 -1.99473 0
M  V30 1607 H 152.871 6.06455 -0.172364 0
M  V30 1608 H 151.61 4.87076 0.246603 0
M  V30 1609 H 150.615 5.10291 -2.04654 0
M  V30 1610 H 151.84 6.33042 -2.45835 0
M  V30 1611 H 149.786 6.55612 -0.225711 0
M  V30 1612 H 149.703 7.35148 -1.76334 0
M  V30 1613 H 150.971 7.7679 -0.649458 0
M  V30 1614 N 155.201 0.870884 1.31352 0
M  V30 1615 C 156.447 0.492314 1.97352 0
M  V30 1616 C 156.802 -0.945174 1.67583 0
M  V30 1617 O 156.095 -1.65674 0.962423 0
M  V30 1618 C 156.289 0.687157 3.50732 0
M  V30 1619 C 156.118 2.14203 3.95407 0
M  V30 1620 C 154.888 2.78382 4.21701 0
M  V30 1621 C 157.086 3.1144 4.09279 0
M  V30 1622 N 155.068 4.14611 4.52737 0
M  V30 1623 C 156.439 4.32702 4.44037 0
M  V30 1624 C 158.494 3.07418 3.91661 0
M  V30 1625 C 157.197 5.50463 4.63015 0
M  V30 1626 C 159.223 4.24438 4.11833 0
M  V30 1627 C 158.585 5.44463 4.46923 0
M  V30 1628 H 154.684 0.229206 0.747655 0
M  V30 1629 H 157.268 1.12568 1.5886 0
M  V30 1630 H 155.439 0.083384 3.8831 0
M  V30 1631 H 157.171 0.276883 4.03752 0
M  V30 1632 H 153.926 2.29326 4.14375 0
M  V30 1633 H 154.35 4.84928 4.72413 0
M  V30 1634 H 158.992 2.15732 3.6362 0
M  V30 1635 H 156.71 6.42666 4.89904 0
M  V30 1636 H 160.296 4.2278 3.99685 0
M  V30 1637 H 159.176 6.33504 4.62214 0
M  V30 1638 N 156.679 -1.44442 0.630414 0
M  V30 1639 C 157.589 -2.34476 -0.0761693 0
M  V30 1640 C 158.605 -1.52576 -0.836449 0
M  V30 1641 O 159.781 -1.85307 -0.788874 0
M  V30 1642 C 156.846 -3.30545 -1.04599 0
M  V30 1643 C 155.907 -4.28352 -0.28516 0
M  V30 1644 C 155.14 -5.19831 -1.20878 0
M  V30 1645 O 155.363 -5.15223 -2.44747 0
M  V30 1646 O 154.297 -5.97892 -0.693491 0
M  V30 1647 H 158.123 -2.96345 0.664324 0
M  V30 1648 H 155.708 -1.44203 0.39061 0
M  V30 1649 H 157.59 -3.89681 -1.60396 0
M  V30 1650 H 156.265 -2.7121 -1.76711 0
M  V30 1651 H 155.172 -3.72764 0.315837 0
M  V30 1652 H 156.505 -4.90605 0.395924 0
M  V30 1653 N 158.157 -0.370918 -1.53173 0
M  V30 1654 C 159.107 0.489588 -2.22681 0
M  V30 1655 C 160.091 1.04442 -1.22395 0
M  V30 1656 O 161.283 0.973578 -1.47819 0
M  V30 1657 C 158.412 1.626 -3.02351 0
M  V30 1658 C 157.498 1.08379 -4.10018 0
M  V30 1659 N 157.889 0.265004 -5.05105 0
M  V30 1660 C 156.187 1.35809 -4.2482 0
M  V30 1661 C 156.888 -0.0324755 -5.81691 0
M  V30 1662 N 155.864 0.566581 -5.40639 0
M  V30 1663 H 159.666 -0.142729 -2.93553 0
M  V30 1664 H 157.18 -0.179221 -1.61408 0
M  V30 1665 H 159.177 2.2547 -3.50669 0
M  V30 1666 H 157.837 2.26132 -2.33011 0
M  V30 1667 H 158.848 -0.0962352 -5.17811 0
M  V30 1668 H 155.525 1.9958 -3.66707 0
M  V30 1669 H 156.915 -0.69473 -6.68299 0
M  V30 1670 N 159.635 1.57281 -0.100228 0
M  V30 1671 C 160.583 2.15542 0.874328 0
M  V30 1672 C 161.577 1.09962 1.28859 0
M  V30 1673 O 162.783 1.28298 1.26252 0
M  V30 1674 H 159.158 0.689567 0.300003 0
M  V30 1675 H 161.129 2.96241 0.35829 0
M  V30 1676 C 159.878 2.75454 2.1218 0
M  V30 1677 H 159.201 3.56384 1.81193 0
M  V30 1678 H 160.641 3.19781 2.78417 0
M  V30 1679 C 159.1 1.71602 2.89921 0
M  V30 1680 O 159.63 1.15804 3.84646 0
M  V30 1681 N 157.836 1.41975 2.53558 0
M  V30 1682 H 157.383 1.87539 1.76598 0
M  V30 1683 H 157.341 0.727274 3.05873 0
M  V30 1684 N 161.113 -0.173488 1.56642 0
M  V30 1685 C 162.524 -0.736155 1.71574 0
M  V30 1686 C 162.875 -1.82888 0.710389 0
M  V30 1687 O 162 -2.16017 -0.1287 0
M  V30 1688 C 162.595 -1.34211 3.11083 0
M  V30 1689 C 161.154 -1.85162 3.27707 0
M  V30 1690 C 160.301 -0.729765 2.67525 0
M  V30 1691 H 163.252 0.0518786 1.58615 0
M  V30 1692 H 163.273 -2.21178 3.09613 0
M  V30 1693 H 162.785 -0.546579 3.84232 0
M  V30 1694 H 160.886 -2.67366 2.59512 0
M  V30 1695 H 160.999 -1.99855 4.35425 0
M  V30 1696 H 159.363 -1.14965 2.27278 0
M  V30 1697 H 160.146 0.0538806 3.43258 0
M  V30 1698 N 162.591 -1.51276 -0.441967 0
M  V30 1699 C 163.554 -1.7167 -1.51862 0
M  V30 1700 C 164.554 -0.586793 -1.49711 0
M  V30 1701 O 165.744 -0.854276 -1.51815 0
M  V30 1702 C 162.876 -1.76889 -2.91416 0
M  V30 1703 H 164.069 -2.67754 -1.35084 0
M  V30 1704 H 161.622 -1.41196 -0.670333 0
M  V30 1705 H 162.357 -0.826026 -3.13604 0
M  V30 1706 H 162.142 -2.59001 -2.94382 0
M  V30 1707 H 163.632 -1.94522 -3.69528 0
M  V30 1708 N 164.069 0.697108 -1.41344 0
M  V30 1709 C 165.315 1.4593 -1.40827 0
M  V30 1710 C 165.648 1.94193 -0.0167098 0
M  V30 1711 O 164.923 1.69425 0.955263 0
M  V30 1712 C 165.206 2.67229 -2.41373 0
M  V30 1713 C 165.059 2.24741 -3.8963 0
M  V30 1714 C 166.378 3.69423 -2.39196 0
M  V30 1715 H 163.497 0.529303 -0.512842 0
M  V30 1716 H 166.139 0.794112 -1.72609 0
M  V30 1717 H 164.289 3.23982 -2.14401 0
M  V30 1718 H 165.961 1.73327 -4.27499 0
M  V30 1719 H 164.204 1.56542 -4.0457 0
M  V30 1720 H 164.875 3.1177 -4.55525 0
M  V30 1721 H 167.351 3.2234 -2.63128 0
M  V30 1722 H 166.227 4.51907 -3.11563 0
M  V30 1723 H 166.488 4.19012 -1.41001 0
M  V30 1724 N 165.547 1.27147 0.931209 0
M  V30 1725 C 166.794 1.13278 1.67852 0
M  V30 1726 C 167.122 -0.32204 1.91815 0
M  V30 1727 O 166.377 -1.25224 1.50391 0
M  V30 1728 C 166.676 1.8579 3.05314 0
M  V30 1729 C 166.342 3.35657 3.01073 0
M  V30 1730 C 165.004 3.76536 2.99623 0
M  V30 1731 C 167.356 4.31299 2.92627 0
M  V30 1732 C 164.684 5.11426 2.87506 0
M  V30 1733 C 167.036 5.66242 2.82051 0
M  V30 1734 C 165.7 6.06418 2.7895 0
M  V30 1735 H 164.97 0.414515 0.614214 0
M  V30 1736 H 167.617 1.57712 1.08624 0
M  V30 1737 H 165.922 1.33854 3.68226 0
M  V30 1738 H 167.619 1.72491 3.62005 0
M  V30 1739 H 164.209 3.03146 3.02986 0
M  V30 1740 H 168.393 4.00692 2.92848 0
M  V30 1741 H 163.649 5.41705 2.83489 0
M  V30 1742 H 167.823 6.40026 2.74481 0
M  V30 1743 H 165.45 7.10895 2.69318 0
M  V30 1744 N 167.025 -1.13721 1.09112 0
M  V30 1745 C 167.955 -2.21148 0.749385 0
M  V30 1746 C 168.936 -1.6792 -0.271475 0
M  V30 1747 O 170.121 -1.93693 -0.140251 0
M  V30 1748 C 167.251 -3.46905 0.165659 0
M  V30 1749 C 166.205 -4.13203 1.11567 0
M  V30 1750 C 165.531 -5.33248 0.393809 0
M  V30 1751 C 166.831 -4.60912 2.45678 0
M  V30 1752 H 168.525 -2.4999 1.64758 0
M  V30 1753 H 166.071 -1.20156 0.793626 0
M  V30 1754 H 168.024 -4.21313 -0.085466 0
M  V30 1755 H 166.748 -3.17449 -0.767714 0
M  V30 1756 H 165.407 -3.40758 1.35202 0
M  V30 1757 H 165.055 -5.00054 -0.543599 0
M  V30 1758 H 164.755 -5.78552 1.02721 0
M  V30 1759 H 166.279 -6.10413 0.150908 0
M  V30 1760 H 167.693 -5.26759 2.26269 0
M  V30 1761 H 166.09 -5.16944 3.04776 0
M  V30 1762 H 167.16 -3.75603 3.06677 0
M  V30 1763 N 168.503 -0.877838 -1.30888 0
M  V30 1764 C 169.751 -0.491723 -1.96027 0
M  V30 1765 C 170.072 0.960827 -1.69685 0
M  V30 1766 O 169.342 1.67462 -1.01654 0
M  V30 1767 H 167.922 -0.17885 -0.725273 0
M  V30 1768 H 170.584 -1.11935 -1.59551 0
M  V30 1769 H 169.68 -0.656016 -3.05128 0
M  V30 1770 N 169.982 1.44106 -0.638065 0
M  V30 1771 C 171.393 1.85316 -0.226894 0
M  V30 1772 C 171.744 1.53399 1.22324 0
M  V30 1773 O 170.869 0.975463 1.93167 0
M  V30 1774 C 171.464 3.3637 -0.405013 0
M  V30 1775 C 170.023 3.76369 -0.0482902 0
M  V30 1776 C 169.17 2.67921 -0.715108 0
M  V30 1777 H 172.121 1.34474 -0.842764 0
M  V30 1778 H 172.142 3.7885 0.354 0
M  V30 1779 H 171.654 3.59569 -1.46053 0
M  V30 1780 H 169.755 3.58784 1.00522 0
M  V30 1781 H 169.868 4.76856 -0.463187 0
M  V30 1782 H 168.232 2.54259 -0.149753 0
M  V30 1783 H 169.015 2.93951 -1.77335 0
M  V30 1784 N 171.46 0.379036 1.52974 0
M  V30 1785 C 172.708 -0.206014 2.01047 0
M  V30 1786 C 173.029 -1.48175 1.26765 0
M  V30 1787 O 172.299 -1.92085 0.384743 0
M  V30 1788 H 170.879 -0.0791184 0.742798 0
M  V30 1789 H 173.541 0.508366 1.88153 0
M  V30 1790 H 172.637 -0.423501 3.09213 0
M  V30 1791 N 172.938 -1.57226 0.108567 0
M  V30 1792 C 174.178 -1.96717 -0.555155 0
M  V30 1793 C 174.542 -0.990003 -1.64508 0
M  V30 1794 O 175.743 -1.2739 -2.36696 0
M  V30 1795 C 174.014 -3.40575 -1.08367 0
M  V30 1796 S 175.573 -4.02072 -1.75737 0
M  V30 1797 H 172.391 -0.687638 -0.180762 0
M  V30 1798 H 174.993 -1.94563 0.191172 0
M  V30 1799 H 173.697 -4.0945 -0.279092 0
M  V30 1800 H 173.228 -3.46356 -1.86551 0
M  V30 1801 H 175.243 -3.91977 -3.04251 0
M  V30 1802 N 174.416 0.165178 -1.56732 0
M  V30 1803 C 175.662 0.882112 -1.82611 0
M  V30 1804 C 175.995 1.81628 -0.687378 0
M  V30 1805 O 175.27 1.92009 0.310267 0
M  V30 1806 C 175.553 1.67245 -3.18906 0
M  V30 1807 C 175.406 0.760987 -4.43316 0
M  V30 1808 C 176.725 2.63884 -3.52212 0
M  V30 1809 H 173.844 0.319242 -0.664269 0
M  V30 1810 H 176.486 0.148052 -1.89422 0
M  V30 1811 H 174.636 2.29824 -3.1323 0
M  V30 1812 H 176.308 0.147596 -4.61064 0
M  V30 1813 H 174.551 0.0694102 -4.33744 0
M  V30 1814 H 175.222 1.34962 -5.35247 0
M  V30 1815 H 177.698 2.11429 -3.58381 0
M  V30 1816 H 176.574 3.16245 -4.48643 0
M  V30 1817 H 176.835 3.44377 -2.77231 0
M  V30 1818 N 175.894 1.51508 0.433938 0
M  V30 1819 C 177.124 1.67914 1.20369 0
M  V30 1820 C 177.532 0.377461 1.85397 0
M  V30 1821 O 176.875 -0.654255 1.71654 0
M  V30 1822 C 176.937 2.74045 2.32679 0
M  V30 1823 C 176.601 4.16543 1.87991 0
M  V30 1824 C 177.598 5.01211 1.38145 0
M  V30 1825 C 175.283 4.6266 1.95579 0
M  V30 1826 C 177.277 6.30056 0.964774 0
M  V30 1827 C 174.964 5.91501 1.53523 0
M  V30 1828 C 175.962 6.75027 1.04055 0
M  V30 1829 O 175.65 8.01459 0.625964 0
M  V30 1830 H 175.382 0.566578 0.368735 0
M  V30 1831 H 177.936 1.98709 0.51999 0
M  V30 1832 H 176.166 2.38572 3.04336 0
M  V30 1833 H 177.855 2.79295 2.94532 0
M  V30 1834 H 178.621 4.66783 1.31675 0
M  V30 1835 H 174.5 3.97767 2.33029 0
M  V30 1836 H 178.044 6.95202 0.57796 0
M  V30 1837 H 173.941 6.25442 1.59665 0
M  V30 1838 H 174.709 8.15043 0.751509 0
M  V30 1839 N 177.372 -0.689602 1.41712 0
M  V30 1840 C 178.335 -1.78521 1.43746 0
M  V30 1841 C 179.335 -1.57436 0.327191 0
M  V30 1842 O 180.525 -1.64 0.587348 0
M  V30 1843 C 177.657 -3.16971 1.25467 0
M  V30 1844 H 178.85 -1.78108 2.41283 0
M  V30 1845 H 176.403 -0.89781 1.27942 0
M  V30 1846 H 177.138 -3.23019 0.287948 0
M  V30 1847 H 176.923 -3.33678 2.05917 0
M  V30 1848 H 178.413 -3.96935 1.2974 0
M  V30 1849 N 178.85 -1.27639 -0.924453 0
M  V30 1850 C 179.813 -1.10681 -2.00705 0
M  V30 1851 C 180.813 -0.0497823 -1.60723 0
M  V30 1852 O 182.003 -0.294654 -1.7169 0
M  V30 1853 C 179.135 -0.687164 -3.33902 0
M  V30 1854 H 180.328 -2.06817 -2.17179 0
M  V30 1855 H 177.881 -1.10473 -1.10569 0
M  V30 1856 H 178.616 0.275439 -3.23128 0
M  V30 1857 H 178.401 -1.45061 -3.6428 0
M  V30 1858 H 179.891 -0.590853 -4.13399 0
M  V30 1859 N 180.328 1.1314 -1.09713 0
M  V30 1860 C 181.291 2.16831 -0.742751 0
M  V30 1861 C 182.291 1.59159 0.229129 0
M  V30 1862 O 183.481 1.74199 0.00693237 0
M  V30 1863 C 180.613 3.40756 -0.0989168 0
M  V30 1864 H 181.806 2.49695 -1.66109 0
M  V30 1865 H 179.359 1.2802 -0.896699 0
M  V30 1866 H 180.094 3.13485 0.830514 0
M  V30 1867 H 179.879 3.83888 -0.798265 0
M  V30 1868 H 181.369 4.17386 0.133524 0
M  V30 1869 N 181.806 0.884767 1.30421 0
M  V30 1870 C 183.217 0.553656 1.78302 0
M  V30 1871 C 183.568 -0.930153 1.7275 0
M  V30 1872 O 182.693 -1.72681 1.30423 0
M  V30 1873 C 183.288 0.998234 3.2376 0
M  V30 1874 C 181.847 0.71854 3.69478 0
M  V30 1875 C 180.994 1.18132 2.50879 0
M  V30 1876 H 183.945 1.06901 1.17294 0
M  V30 1877 H 183.966 0.327118 3.79091 0
M  V30 1878 H 183.478 2.0782 3.27769 0
M  V30 1879 H 181.579 -0.349444 3.70958 0
M  V30 1880 H 181.692 1.30595 4.60958 0
M  V30 1881 H 180.056 0.600669 2.47516 0
M  V30 1882 H 180.839 2.26902 2.57624 0
M  V30 1883 N 183.284 -1.43765 0.645699 0
M  V30 1884 C 184.53 -2.02197 0.156271 0
M  V30 1885 C 184.863 -1.50776 -1.22393 0
M  V30 1886 O 184.138 -0.697771 -1.81553 0
M  V30 1887 C 184.421 -3.59749 0.158872 0
M  V30 1888 C 184.274 -4.21419 1.57245 0
M  V30 1889 C 185.593 -4.37149 -0.50879 0
M  V30 1890 H 182.712 -0.734694 0.0582602 0
M  V30 1891 H 185.354 -1.71157 0.824951 0
M  V30 1892 H 183.504 -3.86325 -0.410525 0
M  V30 1893 H 185.176 -4.059 2.19186 0
M  V30 1894 H 183.419 -3.78356 2.122 0
M  V30 1895 H 184.09 -5.30482 1.52619 0
M  V30 1896 H 186.566 -4.16093 -0.024412 0
M  V30 1897 H 185.442 -5.4683 -0.476213 0
M  V30 1898 H 185.703 -4.12839 -1.58165 0
M  V30 1899 N 184.763 -0.387143 -1.52771 0
M  V30 1900 C 186.011 0.195349 -2.01154 0
M  V30 1901 C 186.332 1.475 -1.27549 0
M  V30 1902 O 185.602 1.91878 -0.394924 0
M  V30 1903 H 184.182 0.075178 -0.743207 0
M  V30 1904 H 186.844 -0.518337 -1.87881 0
M  V30 1905 H 185.94 0.407096 -3.09434 0
M  V30 1906 N 186.241 1.57166 -0.116904 0
M  V30 1907 C 187.657 1.5779 0.239693 0
M  V30 1908 C 187.857 1.1295 1.66867 0
M  V30 1909 O 186.913 0.81592 2.38954 0
M  V30 1910 C 188.226 3.00699 0.00828202 0
M  V30 1911 C 189.774 3.12912 0.0743438 0
M  V30 1912 C 190.249 4.57817 -0.129348 0
M  V30 1913 N 191.74 4.63139 -0.075247 0
M  V30 1914 C 192.475 5.73023 -0.207788 0
M  V30 1915 N 191.971 6.91665 -0.396382 0
M  V30 1916 N 193.764 5.61906 -0.14751 0
M  V30 1917 H 185.915 1.84615 -1.05029 0
M  V30 1918 H 188.178 0.85311 -0.41341 0
M  V30 1919 H 187.884 3.37784 -0.979531 0
M  V30 1920 H 187.758 3.69848 0.741077 0
M  V30 1921 H 190.145 2.75686 1.05268 0
M  V30 1922 H 190.226 2.4631 -0.690297 0
M  V30 1923 H 189.87 4.95742 -1.10465 0
M  V30 1924 H 189.8 5.22507 0.655253 0
M  V30 1925 H 192.291 3.7784 0.0670898 0
M  V30 1926 H 192.604 7.71255 -0.488437 0
M  V30 1927 H 190.949 6.93654 -0.432329 0
M  V30 1928 H 194.14 4.681 -0.00115036 0
M  V30 1929 H 194.313 6.47501 -0.254247 0
M  V30 1930 N 187.719 -0.156864 1.56817 0
M  V30 1931 C 188.966 -0.871125 1.82805 0
M  V30 1932 C 189.294 -1.81611 0.696262 0
M  V30 1933 O 188.549 -1.93141 -0.315459 0
M  V30 1934 C 188.848 -1.68737 3.1506 0
M  V30 1935 C 188.514 -0.890045 4.42028 0
M  V30 1936 C 187.176 -0.670042 4.76512 0
M  V30 1937 C 189.528 -0.331769 5.20143 0
M  V30 1938 C 186.856 0.119104 5.86579 0
M  V30 1939 C 189.208 0.444365 6.31037 0
M  V30 1940 C 187.872 0.675035 6.64078 0
M  V30 1941 H 187.142 -0.318767 0.668931 0
M  V30 1942 H 189.789 -0.135274 1.91022 0
M  V30 1943 H 188.094 -2.49304 3.0225 0
M  V30 1944 H 189.791 -2.24331 3.3238 0
M  V30 1945 H 186.381 -1.07157 4.14988 0
M  V30 1946 H 190.565 -0.489043 4.93885 0
M  V30 1947 H 185.821 0.307417 6.10627 0
M  V30 1948 H 189.995 0.884139 6.90765 0
M  V30 1949 H 187.622 1.28839 7.49203 0
M  V30 1950 N 189.197 -1.51736 -0.425897 0
M  V30 1951 C 190.425 -1.68794 -1.1965 0
M  V30 1952 C 190.84 -0.390164 -1.84725 0
M  V30 1953 O 190.197 0.632376 -1.71194 0
M  V30 1954 C 190.248 -2.81174 -2.27208 0
M  V30 1955 O 189.969 -4.05925 -1.64793 0
M  V30 1956 C 191.47 -3.09599 -3.17275 0
M  V30 1957 H 188.69 -0.566128 -0.360194 0
M  V30 1958 H 191.234 -1.98211 -0.503249 0
M  V30 1959 H 189.389 -2.54324 -2.9223 0
M  V30 1960 H 189.803 -4.68423 -2.35967 0
M  V30 1961 H 191.277 -3.91786 -3.88854 0
M  V30 1962 H 191.754 -2.22468 -3.78688 0
M  V30 1963 H 192.36 -3.38151 -2.57941 0
M  V30 1964 N 190.675 0.682077 -1.42076 0
M  V30 1965 C 191.638 1.77756 -1.44691 0
M  V30 1966 C 192.638 1.5726 -0.335535 0
M  V30 1967 O 193.828 1.63686 -0.596037 0
M  V30 1968 C 190.96 3.16301 -1.27146 0
M  V30 1969 H 192.153 1.76826 -2.42224 0
M  V30 1970 H 189.706 0.891012 -1.28416 0
M  V30 1971 H 190.441 3.22862 -0.305075 0
M  V30 1972 H 190.226 3.32581 -2.07683 0
M  V30 1973 H 191.716 3.96241 -1.31843 0
M  V30 1974 N 192.153 1.28127 0.917671 0
M  V30 1975 C 193.103 1.08361 2.00604 0
M  V30 1976 C 194.087 0.00847518 1.60898 0
M  V30 1977 O 195.279 0.228167 1.75523 0
M  V30 1978 C 192.408 0.743376 3.35155 0
M  V30 1979 C 191.494 1.85716 3.81275 0
M  V30 1980 N 191.885 3.09822 3.99805 0
M  V30 1981 C 190.183 1.74612 4.10398 0
M  V30 1982 C 190.884 3.82368 4.38372 0
M  V30 1983 N 189.86 3.10192 4.4641 0
M  V30 1984 H 193.662 2.02531 2.12975 0
M  V30 1985 H 191.176 1.18989 1.10523 0
M  V30 1986 H 193.173 0.582859 4.12805 0
M  V30 1987 H 191.833 -0.190595 3.2414 0
M  V30 1988 H 192.844 3.45475 3.85833 0
M  V30 1989 H 189.521 0.883657 4.08041 0
M  V30 1990 H 190.911 4.89082 4.60704 0
M  V30 1991 N 193.631 -1.12557 1.10312 0
M  V30 1992 C 194.877 -1.84515 0.855901 0
M  V30 1993 C 195.232 -1.82409 -0.611936 0
M  V30 1994 O 194.525 -1.25778 -1.44535 0
M  V30 1995 C 194.719 -3.31462 1.33669 0
M  V30 1996 C 194.548 -3.47879 2.84974 0
M  V30 1997 C 193.318 -3.61589 3.52961 0
M  V30 1998 C 195.516 -3.43152 3.83081 0
M  V30 1999 N 193.498 -3.66359 4.926 0
M  V30 2000 C 194.869 -3.54401 5.08724 0
M  V30 2001 C 196.924 -3.2661 3.75807 0
M  V30 2002 C 195.627 -3.50815 6.2795 0
M  V30 2003 C 197.653 -3.24335 4.94531 0
M  V30 2004 C 197.015 -3.36144 6.19021 0
M  V30 2005 H 193.114 -0.690967 0.366182 0
M  V30 2006 H 195.698 -1.34763 1.40524 0
M  V30 2007 H 193.869 -3.7976 0.814686 0
M  V30 2008 H 195.601 -3.91272 1.03385 0
M  V30 2009 H 192.356 -3.63652 3.03404 0
M  V30 2010 H 192.78 -3.72411 5.65366 0
M  V30 2011 H 197.422 -3.16375 2.80476 0
M  V30 2012 H 195.14 -3.5982 7.23571 0
M  V30 2013 H 198.726 -3.12719 4.9061 0
M  V30 2014 H 197.606 -3.34357 7.09348 0
M  V30 2015 N 195.109 -0.891671 -1.2995 0
M  V30 2016 C 196.525 -0.58662 -1.48428 0
M  V30 2017 C 196.725 0.873951 -1.81561 0
M  V30 2018 O 195.781 1.65471 -1.90724 0
M  V30 2019 C 197.094 -1.50553 -2.60296 0
M  V30 2020 C 198.642 -1.50988 -2.74175 0
M  V30 2021 C 199.117 -2.41488 -3.89163 0
M  V30 2022 N 200.608 -2.39489 -3.96483 0
M  V30 2023 C 201.343 -3.06223 -4.84784 0
M  V30 2024 N 200.839 -3.82206 -5.77833 0
M  V30 2025 N 202.632 -2.95421 -4.78208 0
M  V30 2026 H 194.783 -1.83644 -1.06718 0
M  V30 2027 H 197.046 -0.786455 -0.529332 0
M  V30 2028 H 196.752 -2.54581 -2.42654 0
M  V30 2029 H 196.626 -1.22008 -3.56923 0
M  V30 2030 H 199.013 -0.47708 -2.91218 0
M  V30 2031 H 199.094 -1.83567 -1.78148 0
M  V30 2032 H 198.738 -3.44857 -3.72876 0
M  V30 2033 H 198.668 -2.06222 -4.84541 0
M  V30 2034 H 201.159 -1.84278 -3.29924 0
M  V30 2035 H 201.472 -4.302 -6.41988 0
M  V30 2036 H 199.817 -3.86313 -5.77743 0
M  V30 2037 H 203.008 -2.35581 -4.04499 0
M  V30 2038 H 203.181 -3.47704 -5.46814 0
M  V30 2039 N 196.587 1.43421 -0.653314 0
M  V30 2040 C 197.833 2.02111 -0.166992 0
M  V30 2041 C 198.166 1.51423 1.21592 0
M  V30 2042 O 197.441 0.707389 1.8118 0
M  V30 2043 C 197.724 3.5966 -0.177948 0
M  V30 2044 C 197.577 4.20579 -1.59478 0
M  V30 2045 C 198.896 4.37413 0.4856 0
M  V30 2046 H 196.015 0.734374 -0.0621557 0
M  V30 2047 H 198.657 1.70717 -0.834016 0
M  V30 2048 H 196.807 3.86537 0.390032 0
M  V30 2049 H 198.479 4.04732 -2.21336 0
M  V30 2050 H 196.722 3.77226 -2.14204 0
M  V30 2051 H 197.393 5.29665 -1.5543 0
M  V30 2052 H 199.869 4.161 0.00234528 0
M  V30 2053 H 198.745 5.47075 0.447207 0
M  V30 2054 H 199.006 4.13672 1.55974 0
M  V30 2055 N 198.065 0.39524 1.52563 0
M  V30 2056 C 199.476 -0.0774719 1.86539 0
M  V30 2057 C 199.827 -1.45641 1.31466 0
M  V30 2058 O 198.952 -2.06459 0.648367 0
M  V30 2059 C 199.547 -0.147356 3.38479 0
M  V30 2060 C 198.106 -0.564373 3.72145 0
M  V30 2061 C 197.253 0.269919 2.75983 0
M  V30 2062 H 200.204 0.612876 1.46388 0
M  V30 2063 H 200.225 -0.965343 3.68051 0
M  V30 2064 H 199.737 0.856387 3.78534 0
M  V30 2065 H 197.838 -1.57527 3.37663 0
M  V30 2066 H 197.951 -0.318402 4.78041 0
M  V30 2067 H 196.315 -0.265696 2.5331 0
M  V30 2068 H 197.098 1.27175 3.18875 0
M  V30 2069 N 199.544 -1.57102 0.125237 0
M  V30 2070 C 200.474 -2.18659 -0.819174 0
M  V30 2071 C 201.455 -1.12843 -1.27281 0
M  V30 2072 O 202.64 -1.41104 -1.33429 0
M  V30 2073 C 199.77 -2.79096 -2.06695 0
M  V30 2074 C 198.724 -3.90548 -1.75088 0
M  V30 2075 C 198.05 -4.37821 -3.06948 0
M  V30 2076 C 199.35 -5.12356 -1.01435 0
M  V30 2077 H 201.044 -2.9783 -0.306202 0
M  V30 2078 H 198.59 -1.4326 -0.145839 0
M  V30 2079 H 200.543 -3.2082 -2.73226 0
M  V30 2080 H 199.267 -1.97223 -2.60328 0
M  V30 2081 H 197.926 -3.49409 -1.10944 0
M  V30 2082 H 197.574 -3.52799 -3.58527 0
M  V30 2083 H 197.274 -5.12982 -2.86571 0
M  V30 2084 H 198.798 -4.822 -3.74587 0
M  V30 2085 H 200.212 -5.5106 -1.58132 0
M  V30 2086 H 198.609 -5.9314 -0.911319 0
M  V30 2087 H 199.679 -4.849 -0.00218681 0
M  V30 2088 N 201.022 0.148545 -1.56898 0
M  V30 2089 C 201.952 1.18524 -2.01182 0
M  V30 2090 C 202.933 1.4489 -0.891123 0
M  V30 2091 O 204.118 1.55836 -1.15882 0
M  V30 2092 C 201.248 2.51879 -2.39112 0
M  V30 2093 C 200.202 2.40038 -3.54353 0
M  V30 2094 C 199.528 3.78089 -3.78091 0
M  V30 2095 C 200.828 1.88577 -4.87069 0
M  V30 2096 H 202.522 0.817029 -2.88036 0
M  V30 2097 H 200.068 0.391575 -1.38574 0
M  V30 2098 H 202.021 3.24627 -2.68692 0
M  V30 2099 H 200.745 2.90532 -1.49193 0
M  V30 2100 H 199.404 1.69742 -3.24936 0
M  V30 2101 H 199.052 4.14175 -2.85426 0
M  V30 2102 H 198.752 3.71028 -4.55645 0
M  V30 2103 H 200.276 4.52387 -4.10095 0
M  V30 2104 H 201.69 2.51117 -5.15377 0
M  V30 2105 H 200.087 1.9241 -5.68417 0
M  V30 2106 H 201.157 0.84136 -4.77545 0
M  V30 2107 N 202.5 1.5196 0.417844 0
M  V30 2108 C 203.728 1.69426 1.18753 0
M  V30 2109 C 204.143 0.399955 1.84515 0
M  V30 2110 O 203.5 -0.623288 1.71527 0
M  V30 2111 C 203.551 2.82375 2.25714 0
M  V30 2112 O 203.272 4.06793 1.62638 0
M  V30 2113 C 204.773 3.11277 3.15628 0
M  V30 2114 H 201.993 0.568031 0.357186 0
M  V30 2115 H 204.537 1.98475 0.49273 0
M  V30 2116 H 202.692 2.5587 2.90877 0
M  V30 2117 H 203.106 4.69667 2.3348 0
M  V30 2118 H 204.58 3.93843 3.86771 0
M  V30 2119 H 205.057 2.24473 3.77503 0
M  V30 2120 H 205.663 3.39515 2.56144 0
M  V30 2121 N 203.978 -0.674533 1.42435 0
M  V30 2122 C 204.941 -1.76986 1.45632 0
M  V30 2123 C 205.941 -1.5708 0.343871 0
M  V30 2124 O 207.131 -1.63367 0.604709 0
M  V30 2125 C 204.263 -3.15623 1.28822 0
M  V30 2126 H 205.456 -1.75539 2.43158 0
M  V30 2127 H 203.009 -0.884189 1.28887 0
M  V30 2128 H 203.744 -3.22696 0.322193 0
M  V30 2129 H 203.529 -3.31475 2.09444 0
M  V30 2130 H 205.019 -3.95537 1.33942 0
M  V30 2131 N 205.456 -1.28612 -0.910864 0
M  V30 2132 C 206.704 -1.15705 -1.65701 0
M  V30 2133 C 207.025 0.29416 -1.92769 0
M  V30 2134 O 206.295 1.20331 -1.54588 0
M  V30 2135 H 204.875 -0.425216 -0.614167 0
M  V30 2136 H 207.537 -1.61381 -1.0928 0
M  V30 2137 H 206.633 -1.6988 -2.61815 0
M  V30 2138 N 206.934 1.1197 -1.10907 0
M  V30 2139 C 207.897 2.16031 -0.765707 0
M  V30 2140 C 208.897 1.59393 0.212235 0
M  V30 2141 O 210.087 1.74196 -0.0115441 0
M  V30 2142 C 207.219 3.40632 -0.135053 0
M  V30 2143 H 208.412 2.47919 -1.68748 0
M  V30 2144 H 205.965 1.27061 -0.910226 0
M  V30 2145 H 206.7 3.14348 0.797218 0
M  V30 2146 H 206.485 3.8302 -0.838937 0
M  V30 2147 H 207.975 4.17505 0.0892469 0
M  V30 2148 N 208.412 0.89855 1.29475 0
M  V30 2149 C 209.823 0.572537 1.77705 0
M  V30 2150 C 210.174 -0.911778 1.73727 0
M  V30 2151 O 209.299 -1.71288 1.32247 0
M  V30 2152 C 209.894 1.03252 3.22683 0
M  V30 2153 C 208.453 0.757687 3.68695 0
M  V30 2154 C 207.6 1.20787 2.49612 0
M  V30 2155 H 210.551 1.08139 1.16153 0
M  V30 2156 H 210.572 0.367307 3.78723 0
M  V30 2157 H 210.084 2.11285 3.25546 0
M  V30 2158 H 208.185 -0.310079 3.71308 0
M  V30 2159 H 208.298 1.35476 4.59547 0
M  V30 2160 H 206.662 0.626888 2.46865 0
M  V30 2161 H 207.445 2.29622 2.55203 0
M  V30 2162 N 209.89 -1.43072 0.660911 0
M  V30 2163 C 210.853 -2.29194 -0.0166406 0
M  V30 2164 C 211.853 -1.42609 -0.742912 0
M  V30 2165 O 213.043 -1.64155 -0.583004 0
M  V30 2166 C 210.175 -3.24831 -1.0343 0
M  V30 2167 H 211.368 -2.90596 0.741208 0
M  V30 2168 H 208.921 -1.5048 0.422532 0
M  V30 2169 H 209.656 -2.68339 -1.82111 0
M  V30 2170 H 209.441 -3.88676 -0.517082 0
M  V30 2171 H 210.931 -3.89451 -1.50723 0
M  V30 2172 N 211.368 -0.403325 -1.52352 0
M  V30 2173 C 212.298 0.416205 -2.29761 0
M  V30 2174 C 213.279 1.05123 -1.33728 0
M  V30 2175 O 214.464 1.06134 -1.62632 0
M  V30 2176 C 211.594 1.53624 -3.11475 0
M  V30 2177 C 210.548 1.02653 -4.15507 0
M  V30 2178 C 209.874 2.23971 -4.85532 0
M  V30 2179 C 211.174 0.08463 -5.22231 0
M  V30 2180 H 212.868 -0.229701 -2.98518 0
M  V30 2181 H 210.414 -0.111913 -1.43564 0
M  V30 2182 H 212.367 2.1165 -3.64393 0
M  V30 2183 H 211.091 2.20994 -2.40477 0
M  V30 2184 H 209.75 0.46871 -3.63591 0
M  V30 2185 H 209.398 2.89883 -4.11068 0
M  V30 2186 H 209.098 1.90521 -5.55856 0
M  V30 2187 H 210.622 2.82614 -5.41259 0
M  V30 2188 H 212.036 0.573509 -5.70424 0
M  V30 2189 H 210.433 -0.160783 -5.99885 0
M  V30 2190 H 211.503 -0.86237 -4.7717 0
M  V30 2191 N 212.846 1.57033 -0.133567 0
M  V30 2192 C 214.094 1.953 0.519848 0
M  V30 2193 C 214.415 1.01866 1.66278 0
M  V30 2194 O 213.685 0.0776513 1.95746 0
M  V30 2195 H 212.265 0.721091 0.195032 0
M  V30 2196 H 214.927 1.93809 -0.205921 0
M  V30 2197 H 214.023 2.98695 0.904854 0
M  V30 2198 N 214.325 -0.140222 1.56975 0
M  V30 2199 C 215.572 -0.851687 1.83719 0
M  V30 2200 C 215.9 -1.80862 0.715485 0
M  V30 2201 O 215.155 -1.93464 -0.294956 0
M  V30 2202 C 215.454 -1.65386 3.16832 0
M  V30 2203 C 215.12 -0.843112 4.42947 0
M  V30 2204 C 213.782 -0.619464 4.77196 0
M  V30 2205 C 216.134 -0.276582 5.20466 0
M  V30 2206 C 213.462 0.181312 5.8642 0
M  V30 2207 C 215.814 0.51127 6.30531 0
M  V30 2208 C 214.478 0.745432 6.63325 0
M  V30 2209 H 213.748 -0.311654 0.672274 0
M  V30 2210 H 216.395 -0.115006 1.91154 0
M  V30 2211 H 214.7 -2.46084 3.04877 0
M  V30 2212 H 216.397 -2.20793 3.34741 0
M  V30 2213 H 212.987 -1.0275 4.16101 0
M  V30 2214 H 217.171 -0.436632 4.94376 0
M  V30 2215 H 212.427 0.372165 6.10266 0
M  V30 2216 H 216.601 0.957354 6.89788 0
M  V30 2217 H 214.228 1.36778 7.47794 0
M  V30 2218 N 215.803 -1.52179 -0.40978 0
M  V30 2219 C 217.051 -1.65878 -1.15451 0
M  V30 2220 C 217.372 -0.390771 -1.91044 0
M  V30 2221 O 216.642 0.594323 -1.86667 0
M  V30 2222 H 215.222 -0.611405 -0.429177 0
M  V30 2223 H 217.884 -1.89219 -0.467134 0
M  V30 2224 H 216.98 -2.49954 -1.86894 0
M  V30 2225 N 217.281 0.66697 -1.42791 0
M  V30 2226 C 218.527 1.4291 -1.43891 0
M  V30 2227 C 218.86 1.94114 -0.0578972 0
M  V30 2228 O 218.135 1.71414 0.91911 0
M  V30 2229 C 218.418 2.62049 -2.46987 0
M  V30 2230 C 218.271 2.16426 -3.94309 0
M  V30 2231 C 219.59 3.64266 -2.46978 0
M  V30 2232 H 216.709 0.518306 -0.523954 0
M  V30 2233 H 219.351 0.757321 -1.74255 0
M  V30 2234 H 217.501 3.19361 -2.21225 0
M  V30 2235 H 219.173 1.64221 -4.31079 0
M  V30 2236 H 217.416 1.47925 -4.078 0
M  V30 2237 H 218.087 3.02038 -4.62036 0
M  V30 2238 H 220.563 3.16686 -2.69906 0
M  V30 2239 H 219.439 4.45196 -3.21079 0
M  V30 2240 H 219.7 4.15927 -1.49857 0
M  V30 2241 N 218.759 1.29093 0.90403 0
M  V30 2242 C 219.706 1.13853 2.00764 0
M  V30 2243 C 220.676 0.0330084 1.66067 0
M  V30 2244 O 221.861 0.199733 1.89752 0
M  V30 2245 C 219.001 0.816537 3.35301 0
M  V30 2246 C 218.114 2.00206 3.82807 0
M  V30 2247 C 217.249 1.61983 5.059 0
M  V30 2248 C 216.288 2.77143 5.45764 0
M  V30 2249 N 215.425 2.39346 6.60044 0
M  V30 2250 H 220.265 2.08276 2.13132 0
M  V30 2251 H 217.802 1.03648 1.04381 0
M  V30 2252 H 219.76 0.610557 4.12708 0
M  V30 2253 H 218.39 -0.090779 3.22672 0
M  V30 2254 H 217.442 2.31988 3.01473 0
M  V30 2255 H 218.754 2.86512 4.08304 0
M  V30 2256 H 217.908 1.37649 5.90879 0
M  V30 2257 H 216.647 0.728202 4.82233 0
M  V30 2258 H 215.652 3.02165 4.59322 0
M  V30 2259 H 216.877 3.66964 5.71414 0
M  V30 2260 H 214.823 1.52665 6.37989 0
M  V30 2261 H 214.74 3.19185 6.85315 0
M  V30 2262 H 216.008 2.1832 7.48303 0
M  V30 2263 N 220.237 -1.11381 1.11499 0
M  V30 2264 C 221.514 -1.7955 0.775965 0
M  V30 2265 C 221.894 -1.97859 -0.73588 0
M  V30 2266 O 221.242 -1.56376 -1.66609 0
M  V30 2267 C 221.452 -3.13196 1.53977 0
M  V30 2268 C 222.8 -3.88227 1.71944 0
M  V30 2269 O 223.824 -3.22887 1.50407 0
M  V30 2270 O 222.683 -5.05477 2.07738 0
M  V30 2271 H 219.777 -0.777728 0.28119 0
M  V30 2272 H 222.323 -1.18118 1.21845 0
M  V30 2273 H 221.095 -2.95229 2.56818 0
M  V30 2274 H 220.718 -3.82342 1.09088 0
M  V30 2275 N 221.715 -0.905404 -1.28997 0
M  V30 2276 C 222.625 -0.392246 -2.31298 0
M  V30 2277 C 223.641 0.515889 -1.66176 0
M  V30 2278 O 224.817 0.404093 -1.97304 0
M  V30 2279 C 221.882 0.36686 -3.44754 0
M  V30 2280 C 220.943 -0.573485 -4.25452 0
M  V30 2281 C 220.176 0.149488 -5.33491 0
M  V30 2282 O 220.399 1.37255 -5.5364 0
M  V30 2283 O 219.333 -0.510919 -5.99728 0
M  V30 2284 H 223.159 -1.2411 -2.77183 0
M  V30 2285 H 220.744 -0.669926 -1.33538 0
M  V30 2286 H 222.626 0.795907 -4.13816 0
M  V30 2287 H 221.301 1.19169 -3.00966 0
M  V30 2288 H 220.208 -1.05176 -3.59011 0
M  V30 2289 H 221.541 -1.36489 -4.72897 0
M  V30 2290 N 223.193 1.4272 -0.668489 0
M  V30 2291 C 224.423 2.05668 -0.196063 0
M  V30 2292 C 224.831 1.5028 1.14946 0
M  V30 2293 O 224.174 0.6348 1.72383 0
M  V30 2294 C 224.236 3.59469 -0.0468879 0
M  V30 2295 C 223.9 4.37518 -1.32012 0
M  V30 2296 C 224.897 4.68584 -2.25222 0
M  V30 2297 C 222.582 4.77266 -1.56596 0
M  V30 2298 C 224.576 5.38326 -3.41297 0
M  V30 2299 C 222.263 5.4675 -2.72962 0
M  V30 2300 C 223.261 5.77204 -3.65137 0
M  V30 2301 O 222.949 6.45264 -4.79468 0
M  V30 2302 H 222.681 0.669382 -0.0943599 0
M  V30 2303 H 225.235 1.83954 -0.913788 0
M  V30 2304 H 223.465 3.79817 0.726357 0
M  V30 2305 H 225.154 4.04071 0.384852 0
M  V30 2306 H 225.92 4.38382 -2.07477 0
M  V30 2307 H 221.799 4.52959 -0.857249 0
M  V30 2308 H 225.343 5.62014 -4.13263 0
M  V30 2309 H 221.24 5.76369 -2.90635 0
M  V30 2310 H 222.008 6.63753 -4.78931 0
M  V30 2311 N 224.671 0.411399 1.52136 0
M  V30 2312 C 225.634 -0.401089 2.25663 0
M  V30 2313 C 226.634 -0.971732 1.28117 0
M  V30 2314 O 227.824 -0.850254 1.52041 0
M  V30 2315 C 224.956 -1.56483 3.02863 0
M  V30 2316 H 226.149 0.24295 2.98914 0
M  V30 2317 H 223.702 0.163968 1.55438 0
M  V30 2318 H 224.437 -2.24567 2.33967 0
M  V30 2319 H 224.222 -1.16211 3.74483 0
M  V30 2320 H 225.712 -2.13951 3.58629 0
M  V30 2321 N 226.149 -1.5696 0.141893 0
M  V30 2322 C 227.079 -2.19516 -0.795936 0
M  V30 2323 C 228.06 -1.14187 -1.26077 0
M  V30 2324 O 229.245 -1.42511 -1.31925 0
M  V30 2325 C 226.375 -2.81272 -2.03723 0
M  V30 2326 C 225.329 -3.92384 -1.70936 0
M  V30 2327 C 224.655 -4.41052 -3.02287 0
M  V30 2328 C 225.955 -5.13403 -0.959954 0
M  V30 2329 H 227.649 -2.98138 -0.274596 0
M  V30 2330 H 225.195 -1.43406 -0.130636 0
M  V30 2331 H 227.148 -3.237 -2.69808 0
M  V30 2332 H 225.872 -1.99973 -2.58221 0
M  V30 2333 H 224.531 -3.50566 -1.07232 0
M  V30 2334 H 224.179 -3.56582 -3.54765 0
M  V30 2335 H 223.879 -5.15993 -2.81114 0
M  V30 2336 H 225.403 -4.86146 -3.69451 0
M  V30 2337 H 226.817 -5.52706 -1.52279 0
M  V30 2338 H 225.214 -5.94073 -0.848357 0
M  V30 2339 H 226.284 -4.84875 0.0492434 0
M  V30 2340 N 227.627 0.131896 -1.57047 0
M  V30 2341 C 228.855 0.856461 -1.88341 0
M  V30 2342 C 229.27 1.74042 -0.731757 0
M  V30 2343 O 228.627 1.80051 0.297945 0
M  V30 2344 C 228.678 1.70064 -3.18999 0
M  V30 2345 O 228.399 0.852278 -4.2973 0
M  V30 2346 C 229.9 2.53148 -3.63911 0
M  V30 2347 H 227.12 0.246885 -0.62393 0
M  V30 2348 H 229.664 0.120152 -2.04147 0
M  V30 2349 H 227.819 2.38984 -3.04902 0
M  V30 2350 H 228.233 1.43329 -5.04537 0
M  V30 2351 H 229.707 3.07931 -4.58129 0
M  V30 2352 H 230.184 3.29901 -2.89935 0
M  V30 2353 H 230.79 1.89492 -3.80753 0
M  V30 2354 N 229.106 1.52395 0.401703 0
M  V30 2355 C 230.334 1.70676 1.16949 0
M  V30 2356 C 230.749 0.419503 1.8408 0
M  V30 2357 O 230.106 -0.605061 1.72178 0
M  V30 2358 C 230.157 2.84753 2.22706 0
M  V30 2359 O 229.878 4.08495 1.58314 0
M  V30 2360 C 231.379 3.14608 3.12309 0
M  V30 2361 H 228.599 0.571787 0.351142 0
M  V30 2362 H 231.143 1.98987 0.471652 0
M  V30 2363 H 229.298 2.58941 2.88147 0
M  V30 2364 H 229.712 4.72117 2.28485 0
M  V30 2365 H 231.186 3.97923 3.82572 0
M  V30 2366 H 231.663 2.28464 3.75101 0
M  V30 2367 H 232.269 3.42212 2.52529 0
M  V30 2368 N 230.584 -0.659388 1.43143 0
M  V30 2369 C 232 -0.974337 1.26407 0
M  V30 2370 C 232.2 -2.007 0.179341 0
M  V30 2371 O 231.256 -2.4856 -0.444295 0
M  V30 2372 C 232.569 -1.46447 2.62628 0
M  V30 2373 C 234.117 -1.58144 2.7011 0
M  V30 2374 C 234.592 -2.1055 4.06734 0
M  V30 2375 N 236.083 -2.17861 4.08767 0
M  V30 2376 C 236.818 -2.59519 5.1131 0
M  V30 2377 N 236.314 -3.00518 6.24228 0
M  V30 2378 N 238.107 -2.59404 4.98664 0
M  V30 2379 H 230.258 0.0240528 2.12386 0
M  V30 2380 H 232.521 -0.0518065 0.946583 0
M  V30 2381 H 232.227 -0.780123 3.42939 0
M  V30 2382 H 232.101 -2.44058 2.87603 0
M  V30 2383 H 234.488 -2.25682 1.90136 0
M  V30 2384 H 234.569 -0.589828 2.48907 0
M  V30 2385 H 234.213 -1.43616 4.87172 0
M  V30 2386 H 234.143 -3.10531 4.25298 0
M  V30 2387 H 236.634 -1.88975 3.27257 0
M  V30 2388 H 236.947 -3.31036 6.98309 0
M  V30 2389 H 235.292 -2.98337 6.2771 0
M  V30 2390 H 238.483 -2.26747 4.09516 0
M  V30 2391 H 238.656 -2.91548 5.78709 0
M  V30 2392 N 232.062 -1.29571 -0.897171 0
M  V30 2393 C 233.025 -1.14913 -1.98312 0
M  V30 2394 C 234.025 -0.0838629 -1.60581 0
M  V30 2395 O 235.215 -0.331006 -1.71026 0
M  V30 2396 C 232.347 -0.757835 -3.3237 0
M  V30 2397 H 233.54 -2.11377 -2.12743 0
M  V30 2398 H 231.093 -1.12793 -1.08201 0
M  V30 2399 H 231.828 0.206837 -3.2364 0
M  V30 2400 H 231.613 -1.52755 -3.61121 0
M  V30 2401 H 233.103 -0.678408 -4.12053 0
M  V30 2402 N 233.54 1.10788 -1.12088 0
M  V30 2403 C 234.788 1.8231 -0.872205 0
M  V30 2404 C 235.109 1.85419 0.603709 0
M  V30 2405 O 234.379 1.32963 1.43867 0
M  V30 2406 H 232.959 0.675137 -0.319686 0
M  V30 2407 H 235.621 1.34068 -1.41463 0
M  V30 2408 H 234.717 2.85955 -1.25045 0
M  V30 2409 N 235.018 0.912232 1.28515 0
M  V30 2410 C 236.429 0.591352 1.77087 0
M  V30 2411 C 236.78 -0.8933 1.74684 0
M  V30 2412 O 235.905 -1.69876 1.34056 0
M  V30 2413 C 236.5 1.06668 3.2157 0
M  V30 2414 C 235.059 0.79675 3.67871 0
M  V30 2415 C 234.206 1.23427 2.48316 0
M  V30 2416 H 237.157 1.09365 1.15 0
M  V30 2417 H 237.178 0.407455 3.78312 0
M  V30 2418 H 236.69 2.14726 3.23287 0
M  V30 2419 H 234.791 -0.270679 3.71616 0
M  V30 2420 H 234.904 1.40343 4.58084 0
M  V30 2421 H 233.268 0.653036 2.46186 0
M  V30 2422 H 234.051 2.32316 2.52753 0
M  V30 2423 N 236.496 -1.42363 0.676048 0
M  V30 2424 C 237.721 -2.06377 0.205705 0
M  V30 2425 C 238.146 -1.50463 -1.12883 0
M  V30 2426 O 237.504 -0.623619 -1.70237 0
M  V30 2427 C 237.552 -3.60277 0.152655 0
M  V30 2428 O 236.656 -4.02935 -0.87845 0
M  V30 2429 H 235.997 -0.655588 0.105359 0
M  V30 2430 H 238.527 -1.82475 0.925412 0
M  V30 2431 H 238.537 -4.07993 -0.0230675 0
M  V30 2432 H 237.212 -4.00346 1.12675 0
M  V30 2433 H 235.789 -3.66764 -0.673668 0
M  V30 2434 N 237.974 -0.419461 -1.51915 0
M  V30 2435 C 239.204 0.151915 -2.06041 0
M  V30 2436 C 239.612 1.38539 -1.28855 0
M  V30 2437 O 238.955 1.80592 -0.336463 0
M  V30 2438 C 239.017 0.557119 -3.55157 0
M  V30 2439 C 238.681 -0.567054 -4.53468 0
M  V30 2440 C 239.678 -1.43379 -4.99738 0
M  V30 2441 C 237.363 -0.742693 -4.96779 0
M  V30 2442 C 239.357 -2.46102 -5.87973 0
M  V30 2443 C 237.044 -1.77322 -5.84808 0
M  V30 2444 C 238.042 -2.63078 -6.30301 0
M  V30 2445 O 237.73 -3.64364 -7.16585 0
M  V30 2446 H 237.462 0.0193293 -0.675724 0
M  V30 2447 H 240.016 -0.592073 -1.96682 0
M  V30 2448 H 238.246 1.35355 -3.62238 0
M  V30 2449 H 239.935 1.05759 -3.9188 0
M  V30 2450 H 240.701 -1.30954 -4.66986 0
M  V30 2451 H 236.58 -0.0848307 -4.60922 0
M  V30 2452 H 240.124 -3.13071 -6.23404 0
M  V30 2453 H 236.021 -1.89773 -6.16974 0
M  V30 2454 H 236.789 -3.60731 -7.34721 0
M  V30 2455 N 239.452 1.56882 -0.150215 0
M  V30 2456 C 240.415 2.1573 0.774157 0
M  V30 2457 C 241.415 1.0999 1.17298 0
M  V30 2458 O 242.605 1.35613 1.09338 0
M  V30 2459 C 239.737 2.72302 2.05096 0
M  V30 2460 H 240.93 2.98752 0.262201 0
M  V30 2461 H 238.483 1.55985 0.099248 0
M  V30 2462 H 239.218 1.92956 2.6065 0
M  V30 2463 H 239.003 3.49665 1.77416 0
M  V30 2464 H 240.493 3.17632 2.71109 0
M  V30 2465 N 240.93 -0.123565 1.57115 0
M  V30 2466 C 241.877 -1.15177 2.00007 0
M  V30 2467 C 242.847 -1.41403 0.871454 0
M  V30 2468 O 244.032 -1.53346 1.13533 0
M  V30 2469 C 241.172 -2.47436 2.40561 0
M  V30 2470 C 240.285 -2.28184 3.66819 0
M  V30 2471 C 239.42 -3.53641 3.96373 0
M  V30 2472 C 238.459 -3.29528 5.15827 0
M  V30 2473 N 237.596 -4.47175 5.41275 0
M  V30 2474 H 242.436 -0.779008 2.87638 0
M  V30 2475 H 239.973 -0.373166 1.42288 0
M  V30 2476 H 241.931 -3.24584 2.62109 0
M  V30 2477 H 240.561 -2.82614 1.55978 0
M  V30 2478 H 239.613 -1.41976 3.52912 0
M  V30 2479 H 240.925 -2.0634 4.5412 0
M  V30 2480 H 240.079 -4.39209 4.18545 0
M  V30 2481 H 238.818 -3.78512 3.07538 0
M  V30 2482 H 237.823 -2.42349 4.93505 0
M  V30 2483 H 239.048 -3.06031 6.06236 0
M  V30 2484 H 236.994 -4.72175 4.55397 0
M  V30 2485 H 236.911 -4.28419 6.22891 0
M  V30 2486 H 238.179 -5.3389 5.67963 0
M  V30 2487 N 242.408 -1.52605 -0.393616 0
M  V30 2488 C 243.338 -1.80022 -1.48709 0
M  V30 2489 C 244.319 -0.651995 -1.57108 0
M  V30 2490 O 245.504 -0.89913 -1.72132 0
M  V30 2491 C 242.634 -1.96492 -2.86371 0
M  V30 2492 C 241.588 -3.12161 -2.92813 0
M  V30 2493 C 240.914 -3.13877 -4.3288 0
M  V30 2494 C 242.214 -4.51322 -2.6288 0
M  V30 2495 H 243.908 -2.71589 -1.26015 0
M  V30 2496 H 241.454 -1.30684 -0.604778 0
M  V30 2497 H 243.407 -2.14255 -3.62867 0
M  V30 2498 H 242.131 -1.01611 -3.10391 0
M  V30 2499 H 240.79 -2.94173 -2.18764 0
M  V30 2500 H 240.438 -2.16687 -4.53933 0
M  V30 2501 H 240.138 -3.91576 -4.38112 0
M  V30 2502 H 241.662 -3.33789 -5.1129 0
M  V30 2503 H 243.076 -4.69435 -3.29096 0
M  V30 2504 H 241.473 -5.31053 -2.79468 0
M  V30 2505 H 242.543 -4.58353 -1.58242 0
M  V30 2506 N 243.887 0.651787 -1.4349 0
M  V30 2507 C 245.135 1.40888 -1.44897 0
M  V30 2508 C 245.456 1.94856 -0.0749086 0
M  V30 2509 O 244.726 1.74518 0.889956 0
M  V30 2510 H 243.306 0.522887 -0.533478 0
M  V30 2511 H 245.968 0.768609 -1.79104 0
M  V30 2512 H 245.064 2.25052 -2.16236 0
M  V30 2513 N 245.365 1.30045 0.890287 0
M  V30 2514 C 246.642 1.09227 1.62262 0
M  V30 2515 C 247.022 -0.360305 2.08002 0
M  V30 2516 O 246.37 -1.35084 1.84295 0
M  V30 2517 C 246.58 2.08835 2.79623 0
M  V30 2518 C 247.928 2.40266 3.50082 0
M  V30 2519 O 248.952 2.07104 2.89804 0
M  V30 2520 O 247.811 2.96967 4.58773 0
M  V30 2521 H 244.905 0.419132 0.712922 0
M  V30 2522 H 247.451 1.41451 0.937529 0
M  V30 2523 H 246.223 3.06633 2.43089 0
M  V30 2524 H 245.846 1.77397 3.55832 0
M  V30 2525 N 246.843 -1.10192 1.12674 0
M  V30 2526 C 248.09 -1.82205 0.883606 0
M  V30 2527 C 248.418 -1.8532 -0.590492 0
M  V30 2528 O 247.673 -1.31137 -1.45264 0
M  V30 2529 C 247.972 -3.28552 1.4067 0
M  V30 2530 C 247.638 -3.45582 2.89627 0
M  V30 2531 C 246.3 -3.49937 3.30299 0
M  V30 2532 C 248.652 -3.50768 3.85501 0
M  V30 2533 C 245.98 -3.57049 4.65546 0
M  V30 2534 C 248.332 -3.59414 5.20581 0
M  V30 2535 C 246.996 -3.62034 5.60792 0
M  V30 2536 H 246.266 -0.666735 0.323334 0
M  V30 2537 H 248.913 -1.29868 1.40736 0
M  V30 2538 H 247.218 -3.83473 0.80347 0
M  V30 2539 H 248.915 -3.82788 1.19475 0
M  V30 2540 H 245.505 -3.42871 2.57172 0
M  V30 2541 H 249.689 -3.46651 3.55171 0
M  V30 2542 H 244.945 -3.57361 4.96088 0
M  V30 2543 H 249.119 -3.62371 5.94693 0
M  V30 2544 H 246.746 -3.67298 6.6558 0
M  V30 2545 N 248.321 -0.919034 -1.28029 0
M  V30 2546 C 249.567 -0.555757 -1.95036 0
M  V30 2547 C 249.9 0.899198 -1.72128 0
M  V30 2548 O 249.175 1.64023 -1.04531 0
M  V30 2549 C 249.458 -0.872024 -3.49382 0
M  V30 2550 C 249.311 -2.3801 -3.81669 0
M  V30 2551 C 250.63 -0.37185 -4.38526 0
M  V30 2552 H 247.749 -0.203386 -0.708381 0
M  V30 2553 H 250.391 -1.14924 -1.51303 0
M  V30 2554 H 248.541 -0.366946 -3.86763 0
M  V30 2555 H 250.213 -2.9562 -3.54128 0
M  V30 2556 H 248.456 -2.83289 -3.28526 0
M  V30 2557 H 249.127 -2.55192 -4.8947 0
M  V30 2558 H 251.603 -0.804602 -4.08247 0
M  V30 2559 H 250.479 -0.622173 -5.45362 0
M  V30 2560 H 250.74 0.727934 -4.36066 0
M  V30 2561 N 249.799 1.42003 -0.683588 0
M  V30 2562 C 250.762 2.29191 -0.0198243 0
M  V30 2563 C 251.762 1.43773 0.72013 0
M  V30 2564 O 252.952 1.65061 0.556815 0
M  V30 2565 C 250.084 3.26435 0.982487 0
M  V30 2566 H 251.277 2.8938 -0.787345 0
M  V30 2567 H 248.83 1.49789 -0.446418 0
M  V30 2568 H 249.565 2.71203 1.77819 0
M  V30 2569 H 249.35 3.89449 0.455182 0
M  V30 2570 H 250.84 3.918 1.44508 0
M  V30 2571 N 251.277 0.427512 1.51691 0
M  V30 2572 C 252.24 -0.377132 2.26076 0
M  V30 2573 C 253.24 -0.958089 1.29141 0
M  V30 2574 O 254.43 -0.83408 1.52934 0
M  V30 2575 C 251.562 -1.53262 3.04506 0
M  V30 2576 H 252.755 0.27464 2.9864 0
M  V30 2577 H 250.308 0.180445 1.55255 0
M  V30 2578 H 251.043 -2.22072 2.36335 0
M  V30 2579 H 250.828 -1.12232 3.75694 0
M  V30 2580 H 252.318 -2.10135 3.60878 0
M  V30 2581 N 252.755 -1.56801 0.158532 0
M  V30 2582 C 253.685 -2.20347 -0.772609 0
M  V30 2583 C 254.666 -1.15518 -1.24859 0
M  V30 2584 O 255.851 -1.43902 -1.30406 0
M  V30 2585 C 252.981 -2.83417 -2.00729 0
M  V30 2586 C 251.935 -3.94174 -1.66765 0
M  V30 2587 C 251.261 -4.44233 -2.97592 0
M  V30 2588 C 252.561 -5.14392 -0.905447 0
M  V30 2589 H 254.255 -2.98413 -0.242959 0
M  V30 2590 H 251.801 -1.43537 -0.115419 0
M  V30 2591 H 253.754 -3.26543 -2.6636 0
M  V30 2592 H 252.478 -2.02701 -2.56086 0
M  V30 2593 H 251.137 -3.51684 -1.03508 0
M  V30 2594 H 250.785 -3.60325 -3.50963 0
M  V30 2595 H 250.485 -5.18945 -2.75626 0
M  V30 2596 H 252.009 -4.90037 -3.64274 0
M  V30 2597 H 253.423 -5.5429 -1.46408 0
M  V30 2598 H 251.82 -5.9494 -0.7853 0
M  V30 2599 H 252.89 -4.84795 0.100668 0
M  V30 2600 N 254.233 0.115231 -1.57178 0
M  V30 2601 C 255.183 1.14707 -1.97044 0
M  V30 2602 C 256.167 1.36866 -0.845957 0
M  V30 2603 O 257.359 1.37895 -1.10968 0
M  V30 2604 C 254.488 2.47266 -2.38148 0
M  V30 2605 C 253.574 2.28566 -3.57237 0
M  V30 2606 N 253.965 1.79685 -4.72807 0
M  V30 2607 C 252.263 2.59208 -3.62943 0
M  V30 2608 C 252.964 1.74781 -5.54821 0
M  V30 2609 N 251.94 2.19264 -4.97417 0
M  V30 2610 H 255.742 0.761754 -2.83857 0
M  V30 2611 H 253.256 0.322928 -1.59157 0
M  V30 2612 H 255.253 3.219 -2.64927 0
M  V30 2613 H 253.913 2.86552 -1.52702 0
M  V30 2614 H 254.924 1.49177 -4.9595 0
M  V30 2615 H 251.601 3.02154 -2.88113 0
M  V30 2616 H 252.991 1.38212 -6.57531 0
M  V30 2617 N 255.711 1.52812 0.385517 0
M  V30 2618 C 257.127 1.4214 0.725829 0
M  V30 2619 C 257.327 0.544589 1.94001 0
M  V30 2620 O 256.383 0.0193693 2.52493 0
M  V30 2621 C 257.696 2.85042 0.957668 0
M  V30 2622 C 259.244 2.94543 1.05892 0
M  V30 2623 C 259.719 4.38464 1.32337 0
M  V30 2624 N 261.21 4.41804 1.39151 0
M  V30 2625 C 261.945 5.5025 1.61285 0
M  V30 2626 N 261.441 6.68775 1.80866 0
M  V30 2627 N 263.234 5.37798 1.63492 0
M  V30 2628 H 255.385 2.08338 -0.413383 0
M  V30 2629 H 257.648 0.940016 -0.122775 0
M  V30 2630 H 257.354 3.51431 0.137568 0
M  V30 2631 H 257.228 3.27505 1.87137 0
M  V30 2632 H 259.615 2.28321 1.86959 0
M  V30 2633 H 259.696 2.55504 0.123057 0
M  V30 2634 H 259.34 5.05254 0.517793 0
M  V30 2635 H 259.27 4.75059 2.27214 0
M  V30 2636 H 261.761 3.56377 1.25713 0
M  V30 2637 H 262.074 7.47197 1.97271 0
M  V30 2638 H 260.419 6.71797 1.78083 0
M  V30 2639 H 263.61 4.44171 1.47749 0
M  V30 2640 H 263.783 6.22382 1.80402 0
M  V30 2641 N 257.189 -0.644168 1.43834 0
M  V30 2642 C 258.605 -0.960875 1.27434 0
M  V30 2643 C 258.805 -2.00499 0.200618 0
M  V30 2644 O 257.861 -2.49018 -0.417906 0
M  V30 2645 C 259.174 -1.43653 2.64167 0
M  V30 2646 C 260.722 -1.55271 2.71772 0
M  V30 2647 C 261.197 -2.06224 4.08944 0
M  V30 2648 N 262.688 -2.13513 4.11055 0
M  V30 2649 C 263.423 -2.54081 5.14033 0
M  V30 2650 N 262.919 -2.9388 6.27381 0
M  V30 2651 N 264.712 -2.54101 5.01387 0
M  V30 2652 H 256.863 0.0465779 2.12349 0
M  V30 2653 H 259.126 -0.0417638 0.94708 0
M  V30 2654 H 258.832 -0.743706 3.43747 0
M  V30 2655 H 258.706 -2.40993 2.90176 0
M  V30 2656 H 261.093 -2.23653 1.92519 0
M  V30 2657 H 261.174 -0.563395 2.49519 0
M  V30 2658 H 260.818 -1.38441 4.88668 0
M  V30 2659 H 260.748 -3.06003 4.28567 0
M  V30 2660 H 263.239 -1.85493 3.29242 0
M  V30 2661 H 263.552 -3.2361 7.01781 0
M  V30 2662 H 261.897 -2.91663 6.30839 0
M  V30 2663 H 265.088 -2.22391 4.11898 0
M  V30 2664 H 265.261 -2.85394 5.81768 0
M  V30 2665 N 258.668 -1.30515 -0.883378 0
M  V30 2666 C 259.598 -1.19607 -2.00541 0
M  V30 2667 C 260.579 -0.086346 -1.69881 0
M  V30 2668 O 261.764 -0.268654 -1.92333 0
M  V30 2669 C 258.894 -0.888758 -3.35736 0
M  V30 2670 C 257.848 -1.95659 -3.8066 0
M  V30 2671 C 257.174 -1.50224 -5.13164 0
M  V30 2672 C 258.474 -3.36788 -3.99213 0
M  V30 2673 H 260.168 -2.13476 -2.09925 0
M  V30 2674 H 257.714 -1.02775 -1.00863 0
M  V30 2675 H 259.667 -0.799094 -4.13754 0
M  V30 2676 H 258.391 0.0856125 -3.26488 0
M  V30 2677 H 257.05 -2.03591 -3.04871 0
M  V30 2678 H 256.698 -0.516092 -5.00345 0
M  V30 2679 H 256.398 -2.2165 -5.44192 0
M  V30 2680 H 257.922 -1.42639 -5.93706 0
M  V30 2681 H 259.336 -3.31605 -4.67665 0
M  V30 2682 H 257.733 -4.06314 -4.41621 0
M  V30 2683 H 258.803 -3.78561 -3.03017 0
M  V30 2684 N 260.146 1.09593 -1.13257 0
M  V30 2685 C 261.394 1.81375 -0.891492 0
M  V30 2686 C 261.715 1.86049 0.584009 0
M  V30 2687 O 260.985 1.34481 1.42449 0
M  V30 2688 H 259.565 0.671708 -0.326828 0
M  V30 2689 H 262.227 1.3256 -1.42877 0
M  V30 2690 H 261.323 2.84612 -1.28071 0
M  V30 2691 N 261.624 0.925811 1.2754 0
M  V30 2692 C 262.87 0.575575 1.95086 0
M  V30 2693 C 263.225 -0.873246 1.71441 0
M  V30 2694 O 262.518 -1.61443 1.03183 0
M  V30 2695 C 262.712 0.835296 3.47502 0
M  V30 2696 C 262.541 2.30781 3.85967 0
M  V30 2697 C 261.311 2.96017 4.09514 0
M  V30 2698 C 263.509 3.28519 3.95702 0
M  V30 2699 N 261.491 4.3344 4.34744 0
M  V30 2700 C 262.862 4.51146 4.25285 0
M  V30 2701 C 264.917 3.23753 3.7827 0
M  V30 2702 C 263.62 5.69606 4.39251 0
M  V30 2703 C 265.646 4.41523 3.9346 0
M  V30 2704 C 265.008 5.62928 4.23428 0
M  V30 2705 H 261.107 0.260711 0.737261 0
M  V30 2706 H 263.691 1.19204 1.53943 0
M  V30 2707 H 261.862 0.248005 3.87607 0
M  V30 2708 H 263.594 0.447878 4.02214 0
M  V30 2709 H 260.349 2.46695 4.04275 0
M  V30 2710 H 260.773 5.04528 4.5142 0
M  V30 2711 H 265.415 2.3096 3.54143 0
M  V30 2712 H 263.133 6.62866 4.62205 0
M  V30 2713 H 266.719 4.39351 3.81394 0
M  V30 2714 H 265.599 6.52538 4.34929 0
M  V30 2715 N 263.102 -1.41638 0.69111 0
M  V30 2716 C 264.012 -2.34588 0.0233487 0
M  V30 2717 C 265.028 -1.55987 -0.770984 0
M  V30 2718 O 266.204 -1.88486 -0.709569 0
M  V30 2719 C 263.269 -3.34684 -0.904851 0
M  V30 2720 C 262.33 -4.29176 -0.103225 0
M  V30 2721 C 261.563 -5.2449 -0.987216 0
M  V30 2722 O 261.786 -5.2514 -2.22674 0
M  V30 2723 O 260.72 -6.00295 -0.439281 0
M  V30 2724 H 264.546 -2.93261 0.789416 0
M  V30 2725 H 262.131 -1.42417 0.45142 0
M  V30 2726 H 264.013 -3.96133 -1.43724 0
M  V30 2727 H 262.688 -2.78461 -1.65049 0
M  V30 2728 H 261.595 -3.71089 0.473655 0
M  V30 2729 H 262.928 -4.88484 0.60365 0
M  V30 2730 N 264.58 -0.43555 -1.51462 0
M  V30 2731 C 265.996 -0.0877501 -1.59359 0
M  V30 2732 C 266.196 1.4027 -1.4466 0
M  V30 2733 O 265.252 2.17243 -1.28693 0
M  V30 2734 C 266.565 -0.606264 -2.94525 0
M  V30 2735 C 268.113 -0.566548 -3.0783 0
M  V30 2736 C 268.588 -1.06201 -4.45517 0
M  V30 2737 N 270.079 -1.01992 -4.51832 0
M  V30 2738 C 270.814 -1.37417 -5.5669 0
M  V30 2739 N 270.31 -1.80119 -6.68976 0
M  V30 2740 N 272.103 -1.29245 -5.47039 0
M  V30 2741 H 264.254 -1.40533 -1.59261 0
M  V30 2742 H 266.517 -0.578992 -0.750648 0
M  V30 2743 H 266.223 -1.64901 -3.10645 0
M  V30 2744 H 266.097 -0.0302097 -3.77188 0
M  V30 2745 H 268.484 0.467208 -2.91378 0
M  V30 2746 H 268.565 -1.17898 -2.2701 0
M  V30 2747 H 268.209 -2.09422 -4.62715 0
M  V30 2748 H 268.139 -0.426127 -5.24873 0
M  V30 2749 H 270.63 -0.706308 -3.71241 0
M  V30 2750 H 270.943 -2.05392 -7.45006 0
M  V30 2751 H 269.288 -1.84044 -6.70189 0
M  V30 2752 H 272.479 -0.957522 -4.58202 0
M  V30 2753 H 272.652 -1.57182 -6.28648 0
M  V30 2754 N 266.058 1.56714 -0.166846 0
M  V30 2755 C 266.99 2.14914 0.796537 0
M  V30 2756 C 268.003 1.10357 1.19688 0
M  V30 2757 O 269.192 1.37561 1.13751 0
M  V30 2758 C 266.292 2.67326 2.08303 0
M  V30 2759 C 265.465 3.96493 1.84696 0
M  V30 2760 C 264.524 4.34014 2.97521 0
M  V30 2761 O 263.55 5.01973 2.6835 0
M  V30 2762 N 264.752 3.95208 4.25196 0
M  V30 2763 H 267.517 2.98205 0.299006 0
M  V30 2764 H 265.078 1.61892 0.0160839 0
M  V30 2765 H 267.07 2.89428 2.82867 0
M  V30 2766 H 265.64 1.88649 2.4926 0
M  V30 2767 H 264.86 3.82814 0.940602 0
M  V30 2768 H 266.148 4.8086 1.66285 0
M  V30 2769 H 265.546 3.40487 4.51758 0
M  V30 2770 H 264.103 4.2232 4.96477 0
M  V30 2771 N 267.536 -0.106894 1.57237 0
M  V30 2772 C 268.499 -1.11466 2.0027 0
M  V30 2773 C 269.499 -1.33623 0.894519 0
M  V30 2774 O 270.689 -1.29935 1.16028 0
M  V30 2775 C 267.821 -2.46646 2.35327 0
M  V30 2776 H 269.014 -0.744516 2.90512 0
M  V30 2777 H 266.567 -0.351576 1.52295 0
M  V30 2778 H 267.302 -2.88558 1.48003 0
M  V30 2779 H 267.087 -2.31915 3.16161 0
M  V30 2780 H 268.577 -3.19151 2.69318 0
M  V30 2781 N 269.014 -1.53014 -0.377408 0
M  V30 2782 C 269.944 -1.81589 -1.46791 0
M  V30 2783 C 270.925 -0.668622 -1.56408 0
M  V30 2784 O 272.11 -0.917337 -1.71168 0
M  V30 2785 C 269.24 -1.99519 -2.8427 0
M  V30 2786 C 268.194 -3.15249 -2.89486 0
M  V30 2787 C 267.52 -3.18451 -4.29527 0
M  V30 2788 C 268.82 -4.54084 -2.58079 0
M  V30 2789 H 270.514 -2.7291 -1.23127 0
M  V30 2790 H 268.06 -1.31319 -0.590883 0
M  V30 2791 H 270.013 -2.18092 -3.60575 0
M  V30 2792 H 268.737 -1.04897 -3.09296 0
M  V30 2793 H 267.396 -2.96477 -2.15631 0
M  V30 2794 H 267.044 -2.2149 -4.5161 0
M  V30 2795 H 266.744 -3.962 -4.33934 0
M  V30 2796 H 268.268 -3.39193 -5.07721 0
M  V30 2797 H 269.682 -4.72899 -3.24098 0
M  V30 2798 H 268.079 -5.33987 -2.7382 0
M  V30 2799 H 269.149 -4.60006 -1.53372 0
M  V30 2800 N 270.492 0.636531 -1.44174 0
M  V30 2801 C 271.425 1.76139 -1.45087 0
M  V30 2802 C 272.403 1.59611 -0.310326 0
M  V30 2803 O 273.587 1.81568 -0.506477 0
M  V30 2804 C 270.714 3.13648 -1.27839 0
M  V30 2805 C 269.76 3.48838 -2.45386 0
M  V30 2806 S 270.593 3.46927 -4.07924 0
M  V30 2807 C 271.749 4.87064 -3.9309 0
M  V30 2808 H 271.982 1.75096 -2.40268 0
M  V30 2809 H 269.515 0.810666 -1.31406 0
M  V30 2810 H 271.473 3.93002 -1.18575 0
M  V30 2811 H 270.134 3.12235 -0.341787 0
M  V30 2812 H 269.327 4.48886 -2.29167 0
M  V30 2813 H 268.929 2.76935 -2.51362 0
M  V30 2814 H 271.221 5.76153 -3.56446 0
M  V30 2815 H 272.164 5.08337 -4.92949 0
M  V30 2816 H 272.572 4.61384 -3.25246 0
M  V30 2817 N 271.97 1.30982 0.876444 0
M  V30 2818 C 272.9 1.20668 1.99903 0
M  V30 2819 C 273.881 0.095354 1.69833 0
M  V30 2820 O 275.066 0.27885 1.92188 0
M  V30 2821 C 272.196 0.90655 3.3526 0
M  V30 2822 C 271.15 1.97675 3.79617 0
M  V30 2823 C 270.476 1.52943 5.1236 0
M  V30 2824 C 271.776 3.389 3.97422 0
M  V30 2825 H 273.47 2.14586 2.0879 0
M  V30 2826 H 271.016 1.03308 1.00317 0
M  V30 2827 H 272.969 0.821025 4.13324 0
M  V30 2828 H 271.693 -0.0682969 3.26529 0
M  V30 2829 H 270.352 2.05205 3.03787 0
M  V30 2830 H 270 0.54262 5.00065 0
M  V30 2831 H 269.7 2.24532 5.43009 0
M  V30 2832 H 271.224 1.45786 5.92941 0
M  V30 2833 H 272.638 3.34081 4.659 0
M  V30 2834 H 271.035 4.0865 4.3946 0
M  V30 2835 H 272.105 3.80163 3.01006 0
M  V30 2836 N 273.449 -1.08991 1.13837 0
M  V30 2837 C 274.679 -1.84743 0.924859 0
M  V30 2838 C 275.087 -1.81629 -0.529874 0
M  V30 2839 O 274.43 -1.21397 -1.37872 0
M  V30 2840 C 274.492 -3.33568 1.34061 0
M  V30 2841 C 274.156 -3.60425 2.80968 0
M  V30 2842 C 275.153 -3.55771 3.79108 0
M  V30 2843 C 272.838 -3.88627 3.18236 0
M  V30 2844 C 274.832 -3.78939 5.12527 0
M  V30 2845 C 272.519 -4.11449 4.51833 0
M  V30 2846 C 273.517 -4.06598 5.48787 0
M  V30 2847 O 273.205 -4.28826 6.79973 0
M  V30 2848 H 272.937 -0.590258 0.329502 0
M  V30 2849 H 275.491 -1.38598 1.51591 0
M  V30 2850 H 273.721 -3.80442 0.692853 0
M  V30 2851 H 275.41 -3.90743 1.09886 0
M  V30 2852 H 276.176 -3.34005 3.51661 0
M  V30 2853 H 272.055 -3.91526 2.43369 0
M  V30 2854 H 275.599 -3.75068 5.88192 0
M  V30 2855 H 271.496 -4.32698 4.79002 0
M  V30 2856 H 272.264 -4.46264 6.86142 0
M  V30 2857 N 274.927 -0.932562 -1.27047 0
M  V30 2858 C 275.89 -0.440064 -2.24936 0
M  V30 2859 C 276.89 0.444071 -1.54547 0
M  V30 2860 O 278.08 0.244465 -1.72476 0
M  V30 2861 C 275.212 0.36678 -3.38921 0
M  V30 2862 H 276.405 -1.305 -2.70018 0
M  V30 2863 H 273.958 -0.713707 -1.39054 0
M  V30 2864 H 274.693 1.25033 -2.99228 0
M  V30 2865 H 274.478 -0.267204 -3.91188 0
M  V30 2866 H 275.968 0.701567 -4.11665 0
M  V30 2867 N 276.405 1.4127 -0.698611 0
M  V30 2868 C 277.635 2.05205 -0.239644 0
M  V30 2869 C 278.043 1.52684 1.11733 0
M  V30 2870 O 277.386 0.671222 1.70998 0
M  V30 2871 C 277.448 3.59289 -0.123126 0
M  V30 2872 C 277.112 4.34619 -1.41263 0
M  V30 2873 C 278.109 4.63701 -2.35111 0
M  V30 2874 C 275.794 4.73837 -1.66684 0
M  V30 2875 C 277.788 5.30966 -3.52639 0
M  V30 2876 C 275.475 5.40837 -2.84498 0
M  V30 2877 C 276.473 5.69329 -3.77298 0
M  V30 2878 O 276.161 6.34949 -4.93047 0
M  V30 2879 H 275.893 0.66723 -0.108537 0
M  V30 2880 H 278.447 1.81974 -0.952602 0
M  V30 2881 H 276.677 3.81272 0.645628 0
M  V30 2882 H 278.366 4.04797 0.299056 0
M  V30 2883 H 279.132 4.33882 -2.16729 0
M  V30 2884 H 275.011 4.51039 -0.953135 0
M  V30 2885 H 278.555 5.53121 -4.25091 0
M  V30 2886 H 274.452 5.70075 -3.02795 0
M  V30 2887 H 275.22 6.53445 -4.92902 0
M  V30 2888 N 277.883 0.443576 1.51229 0
M  V30 2889 C 279.299 0.0962001 1.5931 0
M  V30 2890 C 279.499 -1.39501 1.45402 0
M  V30 2891 O 278.555 -2.16557 1.29843 0
M  V30 2892 C 279.868 0.621875 2.94199 0
M  V30 2893 C 281.416 0.582865 3.07525 0
M  V30 2894 C 281.891 1.08562 4.44948 0
M  V30 2895 N 283.382 1.04387 4.51284 0
M  V30 2896 C 284.117 1.40368 5.55954 0
M  V30 2897 N 283.613 1.83664 6.68011 0
M  V30 2898 N 285.406 1.32145 5.46346 0
M  V30 2899 H 277.557 1.41376 1.58514 0
M  V30 2900 H 279.82 0.582965 0.747567 0
M  V30 2901 H 279.526 1.66546 3.09767 0
M  V30 2902 H 279.4 0.0502125 3.77167 0
M  V30 2903 H 281.787 -0.451749 2.91622 0
M  V30 2904 H 281.868 1.191 2.26382 0
M  V30 2905 H 281.512 2.11873 4.61598 0
M  V30 2906 H 281.442 0.453956 5.2464 0
M  V30 2907 H 283.933 0.725986 3.70861 0
M  V30 2908 H 284.246 2.0934 7.43906 0
M  V30 2909 H 282.591 1.87596 6.69203 0
M  V30 2910 H 285.782 0.981808 4.57688 0
M  V30 2911 H 285.955 1.60514 6.27805 0
M  V30 2912 N 279.361 -1.56624 0.175154 0
M  V30 2913 C 280.772 -1.83561 -0.340916 0
M  V30 2914 C 281.123 -1.09511 -1.62794 0
M  V30 2915 O 280.248 -0.349389 -2.13561 0
M  V30 2916 C 280.843 -3.32979 -0.625313 0
M  V30 2917 C 279.402 -3.60399 -1.08581 0
M  V30 2918 C 278.549 -2.77024 -0.123722 0
M  V30 2919 H 281.5 -1.53593 0.399344 0
M  V30 2920 H 281.521 -3.50666 -1.47694 0
M  V30 2921 H 281.033 -3.86847 0.311575 0
M  V30 2922 H 279.134 -3.11945 -2.03767 0
M  V30 2923 H 279.247 -4.68711 -0.992317 0
M  V30 2924 H 277.611 -2.46993 -0.621821 0
M  V30 2925 H 278.394 -3.33674 0.807256 0
M  V30 2926 N 280.839 0.0985539 -1.57292 0
M  V30 2927 C 282.087 0.801092 -1.85545 0
M  V30 2928 C 282.408 1.79438 -0.763353 0
M  V30 2929 O 281.678 1.94763 0.21073 0
M  V30 2930 H 280.258 0.29884 -0.684619 0
M  V30 2931 H 282.92 0.0810064 -1.94732 0
M  V30 2932 H 282.016 1.3338 -2.82163 0
M  V30 2933 N 282.317 1.53212 0.369288 0
M  V30 2934 C 283.594 1.59815 1.12776 0
M  V30 2935 C 283.974 0.403402 2.0721 0
M  V30 2936 O 283.322 -0.606667 2.20299 0
M  V30 2937 C 283.532 2.94664 1.87013 0
M  V30 2938 C 284.88 3.49109 2.41677 0
M  V30 2939 O 285.904 2.96669 1.97144 0
M  V30 2940 O 284.763 4.40775 3.23079 0
M  V30 2941 H 281.857 0.645376 0.517125 0
M  V30 2942 H 284.403 1.65553 0.37285 0
M  V30 2943 H 283.175 3.73061 1.18071 0
M  V30 2944 H 282.798 2.92401 2.69421 0
M  V30 2945 N 283.795 -0.628877 1.44509 0
M  V30 2946 C 284.705 -1.7694 1.54044 0
M  V30 2947 C 285.721 -1.68705 0.425987 0
M  V30 2948 O 286.897 -1.89442 0.683656 0
M  V30 2949 C 283.962 -3.13332 1.48405 0
M  V30 2950 C 283.023 -3.33181 2.70719 0
M  V30 2951 C 282.256 -4.63067 2.6534 0
M  V30 2952 O 282.479 -5.44017 1.71469 0
M  V30 2953 O 281.413 -4.85167 3.56226 0
M  V30 2954 H 285.239 -1.71848 2.50403 0
M  V30 2955 H 282.824 -0.790378 1.26781 0
M  V30 2956 H 284.706 -3.94634 1.47791 0
M  V30 2957 H 283.381 -3.1896 0.551898 0
M  V30 2958 H 282.288 -2.51549 2.769 0
M  V30 2959 H 283.621 -3.32416 3.62988 0
M  V30 2960 N 285.273 -1.31445 -0.869486 0
M  V30 2961 C 286.183 -1.21097 -2.0093 0
M  V30 2962 C 287.199 -0.127584 -1.73532 0
M  V30 2963 O 288.375 -0.345477 -1.98415 0
M  V30 2964 C 285.44 -0.919378 -3.34288 0
M  V30 2965 C 284.501 -2.08971 -3.75006 0
M  V30 2966 C 283.734 -1.81194 -5.02001 0
M  V30 2967 O 283.957 -0.747296 -5.65484 0
M  V30 2968 O 282.891 -2.66883 -5.39497 0
M  V30 2969 H 286.717 -2.16883 -2.12592 0
M  V30 2970 H 284.302 -1.11189 -0.997868 0
M  V30 2971 H 286.184 -0.772625 -4.14257 0
M  V30 2972 H 284.859 0.00844772 -3.23699 0
M  V30 2973 H 283.766 -2.29187 -2.95676 0
M  V30 2974 H 285.099 -2.9998 -3.90221 0
M  V30 2975 N 286.751 1.08385 -1.14413 0
M  V30 2976 C 287.701 2.13509 -0.79987 0
M  V30 2977 C 288.685 1.5951 0.211059 0
M  V30 2978 O 289.877 1.76995 0.0133694 0
M  V30 2979 C 287.006 3.42162 -0.279297 0
M  V30 2980 C 286.092 4.03042 -1.31976 0
M  V30 2981 N 286.483 4.38327 -2.52395 0
M  V30 2982 C 284.781 4.30379 -1.17004 0
M  V30 2983 C 285.482 4.86428 -3.19003 0
M  V30 2984 N 284.458 4.84547 -2.46405 0
M  V30 2985 H 288.26 2.38609 -1.7159 0
M  V30 2986 H 285.774 1.2572 -1.02802 0
M  V30 2987 H 287.771 4.16898 -0.0143688 0
M  V30 2988 H 286.431 3.18511 0.630923 0
M  V30 2989 H 287.442 4.29349 -2.89621 0
M  V30 2990 H 284.119 4.16281 -0.318854 0
M  V30 2991 H 285.509 5.23107 -4.21674 0
M  V30 2992 N 288.23 0.939286 1.26551 0
M  V30 2993 C 289.47 0.5933 1.956 0
M  V30 2994 C 289.834 -0.851515 1.72085 0
M  V30 2995 O 291.035 -1.30634 2.34921 0
M  V30 2996 C 289.306 0.923996 3.45249 0
M  V30 2997 S 290.865 0.688269 4.33369 0
M  V30 2998 H 287.683 0.218591 0.676564 0
M  V30 2999 H 290.285 1.2102 1.5354 0
M  V30 3000 H 288.989 1.97297 3.59864 0
M  V30 3001 H 288.52 0.296746 3.92279 0
M  V30 3002 H 290.535 -0.448434 4.9417 0
M  V30 3003 N 289.708 -1.40897 0.706093 0
M  V30 3004 C 290.955 -2.01054 0.241531 0
M  V30 3005 C 291.283 -1.55956 -1.16223 0
M  V30 3006 O 290.538 -0.766336 -1.80072 0
M  V30 3007 C 290.837 -3.5646 0.259099 0
M  V30 3008 C 290.503 -4.21106 1.61184 0
M  V30 3009 C 289.165 -4.38479 1.98216 0
M  V30 3010 C 291.517 -4.57256 2.50132 0
M  V30 3011 C 288.845 -4.89282 3.2376 0
M  V30 3012 C 291.197 -5.09454 3.7502 0
M  V30 3013 C 289.861 -5.25037 4.12181 0
M  V30 3014 H 289.131 -0.73571 0.0883825 0
M  V30 3015 H 291.778 -1.68645 0.907257 0
M  V30 3016 H 290.083 -3.88721 -0.490189 0
M  V30 3017 H 291.78 -4.00826 -0.11804 0
M  V30 3018 H 288.37 -4.07966 1.31384 0
M  V30 3019 H 292.554 -4.43479 2.228 0
M  V30 3020 H 287.81 -4.99531 3.52532 0
M  V30 3021 H 291.984 -5.36404 4.44121 0
M  V30 3022 H 289.611 -5.64164 5.09532 0
M  V30 3023 N 291.186 -0.45159 -1.50991 0
M  V30 3024 C 292.433 0.110074 -2.02201 0
M  V30 3025 C 292.761 1.4146 -1.33489 0
M  V30 3026 O 292.016 1.90617 -0.443125 0
M  V30 3027 C 292.315 0.361728 -3.55565 0
M  V30 3028 C 291.981 -0.858717 -4.42648 0
M  V30 3029 C 290.643 -1.19338 -4.66167 0
M  V30 3030 C 292.995 -1.67221 -4.93646 0
M  V30 3031 C 290.323 -2.34195 -5.37931 0
M  V30 3032 C 292.675 -2.8119 -5.6667 0
M  V30 3033 C 291.339 -3.15094 -5.88449 0
M  V30 3034 H 290.609 0.040279 -0.739904 0
M  V30 3035 H 293.256 -0.601696 -1.81802 0
M  V30 3036 H 291.561 1.15554 -3.74372 0
M  V30 3037 H 293.258 0.80996 -3.92735 0
M  V30 3038 H 289.848 -0.58796 -4.24548 0
M  V30 3039 H 294.032 -1.42686 -4.75347 0
M  V30 3040 H 289.288 -2.6076 -5.53005 0
M  V30 3041 H 293.462 -3.44585 -6.05173 0
M  V30 3042 H 291.089 -4.04204 -6.43835 0
M  V30 3043 N 292.664 1.56529 -0.183458 0
M  V30 3044 C 293.594 2.21549 0.737456 0
M  V30 3045 C 294.575 1.17489 1.23005 0
M  V30 3046 O 295.76 1.45959 1.281 0
M  V30 3047 C 292.89 2.86575 1.96194 0
M  V30 3048 C 291.844 3.96778 1.60473 0
M  V30 3049 C 291.17 4.48911 2.90487 0
M  V30 3050 C 292.47 5.15767 0.823497 0
M  V30 3051 H 294.164 2.98761 0.195453 0
M  V30 3052 H 291.71 1.43702 0.0925686 0
M  V30 3053 H 293.663 3.30739 2.61131 0
M  V30 3054 H 292.387 2.06749 2.52828 0
M  V30 3055 H 291.046 3.53286 0.978997 0
M  V30 3056 H 290.694 3.65862 3.45186 0
M  V30 3057 H 290.394 5.23265 2.67335 0
M  V30 3058 H 291.918 4.95771 3.56432 0
M  V30 3059 H 293.332 5.56549 1.37571 0
M  V30 3060 H 291.729 5.96114 0.690551 0
M  V30 3061 H 292.799 4.84574 -0.177782 0
M  V30 3062 N 294.142 -0.090211 1.57342 0
M  V30 3063 C 295.388 -0.793982 1.86611 0
M  V30 3064 C 295.721 -1.78142 0.773252 0
M  V30 3065 O 294.996 -1.93271 -0.218304 0
M  V30 3066 C 295.279 -1.51839 3.26523 0
M  V30 3067 C 295.132 -0.548609 4.46442 0
M  V30 3068 C 296.451 -2.46779 3.64401 0
M  V30 3069 H 293.57 -0.287186 0.678744 0
M  V30 3070 H 296.212 -0.0575076 1.89913 0
M  V30 3071 H 294.362 -2.14617 3.23839 0
M  V30 3072 H 296.034 0.0725513 4.61243 0
M  V30 3073 H 294.277 0.137614 4.33582 0
M  V30 3074 H 294.948 -1.09271 5.41076 0
M  V30 3075 H 297.424 -1.94089 3.68061 0
M  V30 3076 H 296.3 -2.94479 4.63221 0
M  V30 3077 H 296.561 -3.30758 2.93346 0
M  V30 3078 N 295.62 -1.53406 -0.361157 0
M  V30 3079 C 296.53 -1.83122 -1.4664 0
M  V30 3080 C 297.546 -0.719943 -1.58407 0
M  V30 3081 O 298.722 -1.01046 -1.74218 0
M  V30 3082 C 295.787 -2.01891 -2.81853 0
M  V30 3083 C 294.848 -3.25784 -2.79577 0
M  V30 3084 C 294.081 -3.43648 -4.0834 0
M  V30 3085 O 294.304 -2.65714 -5.0473 0
M  V30 3086 O 293.238 -4.37018 -4.13883 0
M  V30 3087 H 297.064 -2.7703 -1.24451 0
M  V30 3088 H 294.649 -1.38841 -0.551678 0
M  V30 3089 H 296.531 -2.15782 -3.61962 0
M  V30 3090 H 295.206 -1.11173 -3.0401 0
M  V30 3091 H 294.113 -3.17312 -1.98151 0
M  V30 3092 H 295.446 -4.16439 -2.62373 0
M  V30 3093 N 297.098 0.621204 -1.44841 0
M  V30 3094 C 298.346 1.37783 -1.47852 0
M  V30 3095 C 298.667 1.94653 -0.116224 0
M  V30 3096 O 297.937 1.76367 0.852737 0
M  V30 3097 H 296.517 0.511453 -0.544449 0
M  V30 3098 H 299.179 0.730446 -1.80694 0
M  V30 3099 H 298.275 2.20414 -2.20961 0
M  V30 3100 N 298.576 1.31904 0.862503 0
M  V30 3101 C 299.506 1.22782 1.98612 0
M  V30 3102 C 300.487 0.113362 1.69722 0
M  V30 3103 O 301.672 0.299218 1.91881 0
M  V30 3104 C 298.802 0.942058 3.34279 0
M  V30 3105 C 297.756 2.0169 3.77499 0
M  V30 3106 C 297.082 1.58369 5.10709 0
M  V30 3107 C 298.382 3.43096 3.93805 0
M  V30 3108 H 300.076 2.16788 2.06502 0
M  V30 3109 H 297.622 1.04366 0.992154 0
M  V30 3110 H 299.575 0.864818 4.1243 0
M  V30 3111 H 298.299 -0.0336603 3.26583 0
M  V30 3112 H 296.958 2.08416 3.01593 0
M  V30 3113 H 296.606 0.595628 4.99461 0
M  V30 3114 H 296.306 2.30279 5.40597 0
M  V30 3115 H 297.83 1.52067 5.91361 0
M  V30 3116 H 299.244 3.39003 4.62331 0
M  V30 3117 H 297.641 4.13288 4.35101 0
M  V30 3118 H 298.711 3.83334 2.96957 0
M  V30 3119 N 300.054 -1.07777 1.14986 0
M  V30 3120 C 301.301 -1.8029 0.922056 0
M  V30 3121 C 301.629 -1.86531 -0.55105 0
M  V30 3122 O 300.884 -1.34189 -1.42449 0
M  V30 3123 C 301.183 -3.25495 1.47608 0
M  V30 3124 C 300.849 -3.39361 2.96893 0
M  V30 3125 C 299.511 -3.42852 3.37647 0
M  V30 3126 C 301.863 -3.42512 3.92854 0
M  V30 3127 C 299.191 -3.47094 4.73015 0
M  V30 3128 C 301.543 -3.4829 5.28088 0
M  V30 3129 C 300.207 -3.50058 5.68345 0
M  V30 3130 H 299.477 -0.659727 0.337404 0
M  V30 3131 H 302.124 -1.26854 1.43459 0
M  V30 3132 H 300.429 -3.81683 0.88463 0
M  V30 3133 H 302.126 -3.80168 1.27568 0
M  V30 3134 H 298.716 -3.37339 2.64387 0
M  V30 3135 H 302.9 -3.3904 3.62444 0
M  V30 3136 H 298.156 -3.46758 5.03556 0
M  V30 3137 H 302.33 -3.49675 6.02246 0
M  V30 3138 H 299.957 -3.53097 6.73221 0
M  V30 3139 N 301.532 -0.945985 -1.26051 0
M  V30 3140 C 302.465 -0.403619 -2.24602 0
M  V30 3141 C 303.443 0.510241 -1.54387 0
M  V30 3142 O 304.627 0.446593 -1.83133 0
M  V30 3143 C 301.754 0.419564 -3.36091 0
M  V30 3144 C 300.8 -0.433454 -4.24292 0
M  V30 3145 S 301.633 -1.86037 -5.02146 0
M  V30 3146 C 302.789 -1.04538 -6.17108 0
M  V30 3147 H 303.022 -1.23883 -2.7026 0
M  V30 3148 H 300.555 -0.749438 -1.34992 0
M  V30 3149 H 302.513 0.888595 -4.00767 0
M  V30 3150 H 301.174 1.22951 -2.89036 0
M  V30 3151 H 300.367 0.197486 -5.03613 0
M  V30 3152 H 299.969 -0.837357 -3.64506 0
M  V30 3153 H 302.261 -0.289923 -6.76879 0
M  V30 3154 H 303.204 -1.81222 -6.84518 0
M  V30 3155 H 303.612 -0.579319 -5.61519 0
M  V30 3156 N 303.011 1.40521 -0.713556 0
M  V30 3157 C 304.427 1.54839 -0.386907 0
M  V30 3158 C 304.627 1.68532 1.1045 0
M  V30 3159 O 303.683 1.67377 1.89053 0
M  V30 3160 C 304.996 2.77792 -1.15118 0
M  V30 3161 C 306.544 2.91607 -1.13729 0
M  V30 3162 C 307.019 4.1747 -1.88368 0
M  V30 3163 N 308.51 4.24466 -1.85427 0
M  V30 3164 C 309.245 5.20755 -2.40004 0
M  V30 3165 N 308.741 6.22965 -3.03129 0
M  V30 3166 N 310.534 5.1282 -2.30158 0
M  V30 3167 H 302.685 1.29879 -1.68063 0
M  V30 3168 H 304.948 0.627896 -0.710247 0
M  V30 3169 H 304.654 2.73944 -2.20561 0
M  V30 3170 H 304.528 3.6984 -0.741477 0
M  V30 3171 H 306.915 2.94959 -0.0910608 0
M  V30 3172 H 306.996 2.00682 -1.5862 0
M  V30 3173 H 306.64 4.1488 -2.9298 0
M  V30 3174 H 306.57 5.074 -1.40898 0
M  V30 3175 H 309.061 3.51241 -1.3942 0
M  V30 3176 H 309.374 6.92859 -3.42295 0
M  V30 3177 H 307.719 6.23415 -3.07212 0
M  V30 3178 H 310.91 4.31899 -1.80501 0
M  V30 3179 H 311.083 5.87689 -2.72993 0
M  V30 3180 N 304.489 0.459591 1.5075 0
M  V30 3181 C 305.735 -0.0994966 2.02556 0
M  V30 3182 C 306.068 -1.40399 1.3417 0
M  V30 3183 O 305.343 -1.88892 0.463683 0
M  V30 3184 C 305.626 -0.295242 3.58888 0
M  V30 3185 C 305.479 1.02947 4.37861 0
M  V30 3186 C 306.798 -1.05502 4.27267 0
M  V30 3187 H 303.917 -0.034686 0.736183 0
M  V30 3188 H 306.559 0.602938 1.8018 0
M  V30 3189 H 304.709 -0.893563 3.78084 0
M  V30 3190 H 306.381 1.66348 4.30263 0
M  V30 3191 H 304.624 1.62885 4.02058 0
M  V30 3192 H 305.295 0.846281 5.45474 0
M  V30 3193 H 307.771 -0.547993 4.12476 0
M  V30 3194 H 306.647 -1.16077 5.36486 0
M  V30 3195 H 306.908 -2.08875 3.89645 0
M  V30 3196 N 305.967 -1.56429 0.191757 0
M  V30 3197 C 307.383 -1.58754 -0.164137 0
M  V30 3198 C 307.583 -1.20782 -1.61288 0
M  V30 3199 O 306.639 -0.928999 -2.34789 0
M  V30 3200 C 307.952 -3.00396 0.135195 0
M  V30 3201 C 309.5 -3.1291 0.0750351 0
M  V30 3202 C 309.975 -4.56679 0.347632 0
M  V30 3203 N 311.466 -4.62252 0.296131 0
M  V30 3204 C 312.201 -5.71379 0.480948 0
M  V30 3205 N 311.697 -6.88986 0.725933 0
M  V30 3206 N 313.49 -5.60563 0.415435 0
M  V30 3207 H 305.641 -1.79393 1.13718 0
M  V30 3208 H 307.904 -0.832414 0.453643 0
M  V30 3209 H 307.61 -3.32726 1.13958 0
M  V30 3210 H 307.484 -3.72963 -0.563773 0
M  V30 3211 H 309.871 -2.80394 -0.919948 0
M  V30 3212 H 309.952 -2.42736 0.807029 0
M  V30 3213 H 309.596 -4.89907 1.33992 0
M  V30 3214 H 309.526 -5.25039 -0.405212 0
M  V30 3215 H 312.017 -3.7773 0.113259 0
M  V30 3216 H 312.33 -7.68046 0.855857 0
M  V30 3217 H 310.675 -6.90801 0.762788 0
M  V30 3218 H 313.866 -4.67561 0.224486 0
M  V30 3219 H 314.039 -6.45551 0.562889 0
M  V30 3220 N 307.445 0.0818655 -1.57387 0
M  V30 3221 C 308.722 0.815343 -1.77796 0
M  V30 3222 C 309.102 1.96289 -0.77679 0
M  V30 3223 O 308.45 2.27691 0.192106 0
M  V30 3224 C 308.66 1.29765 -3.23978 0
M  V30 3225 C 310.008 1.7351 -3.8753 0
M  V30 3226 O 311.032 1.39356 -3.27808 0
M  V30 3227 O 309.891 2.36708 -4.92576 0
M  V30 3228 H 306.985 0.389914 -0.729312 0
M  V30 3229 H 309.531 0.0627213 -1.69584 0
M  V30 3230 H 308.303 0.47608 -3.88393 0
M  V30 3231 H 307.926 2.11189 -3.36875 0
M  V30 3232 N 308.923 1.53595 0.353017 0
M  V30 3233 C 310.339 1.43648 0.695516 0
M  V30 3234 C 310.539 0.585617 1.92802 0
M  V30 3235 O 309.595 0.0729223 2.52395 0
M  V30 3236 C 310.908 2.8701 0.896991 0
M  V30 3237 C 312.456 2.96723 0.996209 0
M  V30 3238 C 312.931 4.41173 1.23007 0
M  V30 3239 N 314.422 4.44657 1.29749 0
M  V30 3240 C 315.157 5.53547 1.49577 0
M  V30 3241 N 314.653 6.72461 1.66639 0
M  V30 3242 N 316.446 5.41145 1.52048 0
M  V30 3243 H 308.597 2.07415 -0.457481 0
M  V30 3244 H 310.86 0.9372 -0.142687 0
M  V30 3245 H 310.566 3.51644 0.0629938 0
M  V30 3246 H 310.44 3.31401 1.80148 0
M  V30 3247 H 312.827 2.32235 1.82074 0
M  V30 3248 H 312.908 2.55707 0.0688331 0
M  V30 3249 H 312.552 5.06238 0.410505 0
M  V30 3250 H 312.482 4.79772 2.17086 0
M  V30 3251 H 314.973 3.58963 1.18126 0
M  V30 3252 H 315.286 7.51214 1.81378 0
M  V30 3253 H 313.631 6.75423 1.63794 0
M  V30 3254 H 316.822 4.47205 1.38294 0
M  V30 3255 H 316.995 6.26068 1.67159 0
M  V30 3256 N 310.401 -0.613514 1.45168 0
M  V30 3257 C 311.331 -1.7354 1.56225 0
M  V30 3258 C 312.312 -1.64981 0.41414 0
M  V30 3259 O 313.497 -1.83472 0.636526 0
M  V30 3260 C 310.627 -3.12128 1.52295 0
M  V30 3261 C 309.581 -3.35491 2.65762 0
M  V30 3262 C 308.907 -4.74291 2.46885 0
M  V30 3263 C 310.207 -3.26325 4.0781 0
M  V30 3264 H 311.901 -1.64543 2.50132 0
M  V30 3265 H 309.447 -0.790185 1.20383 0
M  V30 3266 H 311.4 -3.90404 1.58628 0
M  V30 3267 H 310.124 -3.2195 0.549139 0
M  V30 3268 H 308.783 -2.59603 2.58847 0
M  V30 3269 H 308.431 -4.80839 1.47657 0
M  V30 3270 H 308.131 -4.9088 3.22972 0
M  V30 3271 H 309.655 -5.54775 2.55063 0
M  V30 3272 H 311.069 -3.94483 4.16 0
M  V30 3273 H 309.466 -3.54445 4.8424 0
M  V30 3274 H 310.536 -2.23855 4.30136 0
M  V30 3275 N 311.879 -1.3236 -0.855495 0
M  V30 3276 C 312.827 -1.2118 -1.9854 0
M  V30 3277 C 313.821 -0.116788 -1.68997 0
M  V30 3278 O 315.027 -0.279657 -1.77814 0
M  V30 3279 H 311.402 -0.375608 -0.651477 0
M  V30 3280 H 313.373 -2.16743 -2.05098 0
M  V30 3281 C 312.122 -0.950849 -3.34446 0
M  V30 3282 H 311.445 -1.78563 -3.57708 0
M  V30 3283 H 312.885 -0.912863 -4.14057 0
M  V30 3284 C 311.344 0.346404 -3.35114 0
M  V30 3285 O 311.874 1.35855 -3.7803 0
M  V30 3286 N 310.08 0.36808 -2.88259 0
M  V30 3287 H 309.627 -0.456102 -2.5353 0
M  V30 3288 H 309.585 1.23591 -2.89089 0
M  V30 3289 N 313.357 1.07166 -1.15556 0
M  V30 3290 C 314.606 1.79181 -0.926132 0
M  V30 3291 C 314.919 1.87768 0.547967 0
M  V30 3292 O 316.125 2.56323 0.895036 0
M  V30 3293 C 314.581 3.22 -1.60761 0
M  V30 3294 C 314.189 3.21607 -3.11886 0
M  V30 3295 C 315.933 3.9861 -1.4598 0
M  V30 3296 C 313.84 4.59092 -3.72812 0
M  V30 3297 H 312.77 0.67154 -0.342856 0
M  V30 3298 H 315.421 1.2027 -1.3859 0
M  V30 3299 H 313.803 3.81115 -1.07553 0
M  V30 3300 H 314.977 2.72127 -3.71865 0
M  V30 3301 H 313.292 2.58495 -3.2645 0
M  V30 3302 H 315.889 5.00225 -1.88888 0
M  V30 3303 H 316.232 4.143 -0.407541 0
M  V30 3304 H 316.765 3.45996 -1.96295 0
M  V30 3305 H 313.504 4.48606 -4.77946 0
M  V30 3306 H 313.024 5.08803 -3.17616 0
M  V30 3307 H 314.703 5.28059 -3.73848 0
M  V30 3308 N 314.835 0.952656 1.25548 0
M  V30 3309 C 316.063 0.623496 1.97282 0
M  V30 3310 C 316.478 -0.803987 1.70826 0
M  V30 3311 O 315.835 -1.53755 0.983147 0
M  V30 3312 C 315.886 0.870209 3.5087 0
M  V30 3313 O 315.607 2.24156 3.76412 0
M  V30 3314 C 317.108 0.553164 4.39835 0
M  V30 3315 H 314.328 0.233931 0.628902 0
M  V30 3316 H 316.872 1.27649 1.59768 0
M  V30 3317 H 315.027 0.263652 3.86502 0
M  V30 3318 H 315.441 2.31021 4.70882 0
M  V30 3319 H 316.915 0.776342 5.46513 0
M  V30 3320 H 317.392 -0.512215 4.36203 0
M  V30 3321 H 317.998 1.13896 4.09766 0
M  V30 3322 N 316.313 -1.40141 0.720998 0
M  V30 3323 C 317.559 -2.01084 0.263231 0
M  V30 3324 C 317.892 -1.57052 -1.14229 0
M  V30 3325 O 317.167 -0.793027 -1.77599 0
M  V30 3326 C 317.45 -3.58401 0.349344 0
M  V30 3327 C 317.303 -4.12491 1.79363 0
M  V30 3328 C 318.622 -4.39231 -0.276351 0
M  V30 3329 H 315.741 -0.730572 0.0971228 0
M  V30 3330 H 318.383 -1.66543 0.914518 0
M  V30 3331 H 316.533 -3.87958 -0.205165 0
M  V30 3332 H 318.205 -3.93711 2.40394 0
M  V30 3333 H 316.448 -3.66576 2.31958 0
M  V30 3334 H 317.119 -5.21646 1.80524 0
M  V30 3335 H 319.595 -4.15637 0.196184 0
M  V30 3336 H 318.471 -5.48586 -0.185681 0
M  V30 3337 H 318.732 -4.20643 -1.36059 0
M  V30 3338 N 317.792 -0.46758 -1.50504 0
M  V30 3339 C 319.069 0.15003 -1.95024 0
M  V30 3340 C 319.449 1.57304 -1.40779 0
M  V30 3341 O 318.797 2.20281 -0.607319 0
M  V30 3342 C 319.007 0.0969324 -3.48865 0
M  V30 3343 C 320.355 0.287565 -4.23625 0
M  V30 3344 O 321.379 0.173678 -3.55776 0
M  V30 3345 O 320.238 0.517186 -5.44047 0
M  V30 3346 H 317.332 0.113582 -0.819163 0
M  V30 3347 H 319.878 -0.52773 -1.61286 0
M  V30 3348 H 318.65 -0.896732 -3.80886 0
M  V30 3349 H 318.273 0.816303 -3.8913 0
M  V30 3350 N 319.27 1.56325 -0.20005 0
M  V30 3351 C 320.22 2.15939 0.731743 0
M  V30 3352 C 321.204 1.10154 1.17281 0
M  V30 3353 O 322.396 1.36203 1.13038 0
M  V30 3354 C 319.525 2.82614 1.94895 0
M  V30 3355 C 318.611 3.95596 1.52855 0
M  V30 3356 N 319.002 4.99118 0.819418 0
M  V30 3357 C 317.3 4.07288 1.81748 0
M  V30 3358 C 318.001 5.78513 0.608053 0
M  V30 3359 N 316.977 5.31117 1.15828 0
M  V30 3360 H 320.779 2.9334 0.181285 0
M  V30 3361 H 318.293 1.624 -0.000452172 0
M  V30 3362 H 320.29 3.23718 2.62702 0
M  V30 3363 H 318.95 2.06702 2.50408 0
M  V30 3364 H 319.961 5.15723 0.47436 0
M  V30 3365 H 316.638 3.42509 2.38734 0
M  V30 3366 H 318.028 6.71885 0.0451619 0
M  V30 3367 N 320.748 -0.0735177 1.57428 0
M  V30 3368 C 321.678 -1.0879 2.06608 0
M  V30 3369 C 322.659 -1.40473 0.959237 0
M  V30 3370 O 323.844 -1.5013 1.23185 0
M  V30 3371 C 320.974 -2.40183 2.50857 0
M  V30 3372 C 319.928 -2.22858 3.65402 0
M  V30 3373 C 319.254 -3.59619 3.957 0
M  V30 3374 C 320.554 -1.65123 4.95511 0
M  V30 3375 H 322.248 -0.678673 2.91607 0
M  V30 3376 H 319.794 -0.325013 1.40284 0
M  V30 3377 H 321.747 -3.11437 2.83874 0
M  V30 3378 H 320.471 -2.83083 1.62885 0
M  V30 3379 H 319.13 -1.54045 3.32664 0
M  V30 3380 H 318.778 -4.00086 3.04861 0
M  V30 3381 H 318.478 -3.48866 4.72828 0
M  V30 3382 H 320.002 -4.32306 4.31212 0
M  V30 3383 H 321.416 -2.26241 5.26771 0
M  V30 3384 H 319.813 -1.65071 5.7695 0
M  V30 3385 H 320.883 -0.612559 4.81015 0
M  V30 3386 N 322.226 -1.5378 -0.344866 0
M  V30 3387 C 323.136 -1.84667 -1.4469 0
M  V30 3388 C 324.152 -0.736704 -1.57635 0
M  V30 3389 O 325.328 -1.02888 -1.73136 0
M  V30 3390 C 322.393 -2.04869 -2.79696 0
M  V30 3391 C 321.454 -3.28731 -2.76106 0
M  V30 3392 C 320.687 -3.4796 -4.04673 0
M  V30 3393 O 320.91 -2.71052 -5.01883 0
M  V30 3394 O 319.844 -4.41383 -4.09224 0
M  V30 3395 H 323.67 -2.78334 -1.21506 0
M  V30 3396 H 321.255 -1.39418 -0.536921 0
M  V30 3397 H 323.137 -2.19609 -3.59652 0
M  V30 3398 H 321.812 -1.14391 -3.02814 0
M  V30 3399 H 320.719 -3.19396 -1.94774 0
M  V30 3400 H 322.052 -4.19198 -2.57941 0
M  V30 3401 N 323.704 0.605807 -1.45491 0
M  V30 3402 C 324.951 1.36476 -1.49601 0
M  V30 3403 C 325.279 1.94007 -0.138452 0
M  V30 3404 O 324.534 1.75638 0.863114 0
M  V30 3405 C 324.833 2.53012 -2.52428 0
M  V30 3406 C 324.499 2.13617 -3.97087 0
M  V30 3407 C 323.161 2.02587 -4.36477 0
M  V30 3408 C 325.513 1.82899 -4.88055 0
M  V30 3409 C 322.841 1.59064 -5.64726 0
M  V30 3410 C 325.193 1.40861 -6.16718 0
M  V30 3411 C 323.857 1.28391 -6.55036 0
M  V30 3412 H 323.127 0.499402 -0.547429 0
M  V30 3413 H 325.774 0.684546 -1.78847 0
M  V30 3414 H 324.079 3.26379 -2.16758 0
M  V30 3415 H 325.776 3.1124 -2.52845 0
M  V30 3416 H 322.366 2.23129 -3.65939 0
M  V30 3417 H 326.55 1.90317 -4.58359 0
M  V30 3418 H 321.806 1.48034 -5.93208 0
M  V30 3419 H 325.98 1.16138 -6.86648 0
M  V30 3420 H 323.607 0.944403 -7.54311 0
M  V30 3421 N 325.182 1.32811 0.848464 0
M  V30 3422 C 326.145 1.22194 1.9391 0
M  V30 3423 C 327.145 0.143404 1.60159 0
M  V30 3424 O 328.335 0.394253 1.6968 0
M  V30 3425 C 325.467 0.88067 3.29328 0
M  V30 3426 H 326.66 2.19127 2.04752 0
M  V30 3427 H 324.213 1.16731 1.0394 0
M  V30 3428 H 324.948 -0.0865776 3.24184 0
M  V30 3429 H 324.733 1.66052 3.55203 0
M  V30 3430 H 326.223 0.830871 4.09251 0
M  V30 3431 N 326.66 -1.06551 1.16123 0
M  V30 3432 C 327.57 -2.17484 0.879662 0
M  V30 3433 C 328.586 -1.73377 -0.147104 0
M  V30 3434 O 329.762 -2.01379 0.0289128 0
M  V30 3435 C 326.827 -3.44591 0.381829 0
M  V30 3436 C 325.888 -4.0322 1.4735 0
M  V30 3437 C 325.121 -5.24261 0.999324 0
M  V30 3438 O 325.344 -5.70198 -0.151957 0
M  V30 3439 O 324.278 -5.74775 1.78653 0
M  V30 3440 H 328.104 -2.44075 1.80724 0
M  V30 3441 H 325.689 -1.16042 0.940992 0
M  V30 3442 H 327.571 -4.21254 0.111053 0
M  V30 3443 H 326.246 -3.19532 -0.51777 0
M  V30 3444 H 325.153 -3.2806 1.79798 0
M  V30 3445 H 326.486 -4.32568 2.34831 0
M  V30 3446 N 328.138 -0.959301 -1.25041 0
M  V30 3447 C 329.415 -0.533805 -1.88175 0
M  V30 3448 C 329.795 0.988994 -1.865 0
M  V30 3449 O 329.143 1.85677 -1.33177 0
M  V30 3450 C 329.353 -1.11575 -3.30684 0
M  V30 3451 C 330.701 -1.19548 -4.07423 0
M  V30 3452 O 331.725 -1.06765 -3.39823 0
M  V30 3453 O 330.584 -1.39656 -5.28354 0
M  V30 3454 H 327.678 -0.176772 -0.807887 0
M  V30 3455 H 330.224 -1.05303 -1.33076 0
M  V30 3456 H 328.996 -2.15884 -3.26358 0
M  V30 3457 H 328.619 -0.580059 -3.93346 0
M  V30 3458 N 329.616 1.39756 -0.72842 0
M  V30 3459 C 330.893 1.94574 -0.200079 0
M  V30 3460 C 331.273 1.66569 1.29684 0
M  V30 3461 O 330.621 0.990326 2.05924 0
M  V30 3462 C 330.831 3.45004 -0.526608 0
M  V30 3463 C 332.179 4.21965 -0.472318 0
M  V30 3464 O 333.203 3.53173 -0.463413 0
M  V30 3465 O 332.062 5.44552 -0.461075 0
M  V30 3466 H 329.156 0.826289 -0.0342851 0
M  V30 3467 H 331.702 1.49293 -0.806829 0
M  V30 3468 H 330.474 3.58796 -1.56144 0
M  V30 3469 H 330.097 3.97449 0.109449 0
M  V30 3470 N 331.094 0.475555 1.50254 0
M  V30 3471 C 332.024 -0.30611 2.31485 0
M  V30 3472 C 333.005 -0.986228 1.38591 0
M  V30 3473 O 334.19 -0.982541 1.67511 0
M  V30 3474 C 331.32 -1.38588 3.1845 0
M  V30 3475 C 330.274 -0.827115 4.19932 0
M  V30 3476 C 329.6 -2.00551 4.95665 0
M  V30 3477 C 330.9 0.16463 5.2204 0
M  V30 3478 H 332.594 0.371866 2.97082 0
M  V30 3479 H 330.14 0.180282 1.42867 0
M  V30 3480 H 332.093 -1.94023 3.74076 0
M  V30 3481 H 330.817 -2.09269 2.50747 0
M  V30 3482 H 329.476 -0.294702 3.65414 0
M  V30 3483 H 329.124 -2.6994 4.2443 0
M  V30 3484 H 328.824 -1.63784 5.64313 0
M  V30 3485 H 330.348 -2.56468 5.54127 0
M  V30 3486 H 331.762 -0.300699 5.72511 0
M  V30 3487 H 330.159 0.446813 5.98434 0
M  V30 3488 H 331.229 1.08905 4.72512 0
M  V30 3489 N 332.573 -1.56217 0.208337 0
M  V30 3490 C 333.798 -2.02782 -0.435222 0
M  V30 3491 C 334.223 -1.08738 -1.53485 0
M  V30 3492 O 333.581 -0.0731855 -1.81152 0
M  V30 3493 C 333.629 -3.47687 -0.956335 0
M  V30 3494 O 332.733 -3.56773 -2.06849 0
M  V30 3495 H 332.074 -0.656403 -0.100158 0
M  V30 3496 H 334.604 -2.02033 0.3231 0
M  V30 3497 H 334.614 -3.87745 -1.26955 0
M  V30 3498 H 333.289 -4.15624 -0.15143 0
M  V30 3499 H 331.866 -3.28597 -1.76292 0
M  V30 3500 N 334.051 0.0651679 -1.57465 0
M  V30 3501 C 335.001 1.0838 -2.00594 0
M  V30 3502 C 335.985 1.34106 -0.889071 0
M  V30 3503 O 337.177 1.34295 -1.15299 0
M  V30 3504 C 334.306 2.39565 -2.45894 0
M  V30 3505 C 333.392 2.17085 -3.64328 0
M  V30 3506 N 333.783 1.64553 -4.78285 0
M  V30 3507 C 332.081 2.4753 -3.71006 0
M  V30 3508 C 332.782 1.57042 -5.60101 0
M  V30 3509 N 331.758 2.03328 -5.04141 0
M  V30 3510 H 335.56 0.671062 -2.86136 0
M  V30 3511 H 333.074 0.27213 -1.60104 0
M  V30 3512 H 335.071 3.13308 -2.75034 0
M  V30 3513 H 333.731 2.81549 -1.61741 0
M  V30 3514 H 334.742 1.33323 -5.00445 0
M  V30 3515 H 331.419 2.92835 -2.9758 0
M  V30 3516 H 332.809 1.17223 -6.61595 0
M  V30 3517 N 335.529 1.53961 0.336706 0
M  V30 3518 C 336.759 1.75229 1.09446 0
M  V30 3519 C 337.167 0.494602 1.82621 0
M  V30 3520 O 336.51 -0.543764 1.75468 0
M  V30 3521 C 336.572 2.88288 2.1478 0
M  V30 3522 C 336.236 4.27656 1.6112 0
M  V30 3523 C 337.233 5.08981 1.0599 0
M  V30 3524 C 334.918 4.74161 1.6576 0
M  V30 3525 C 336.912 6.34916 0.562129 0
M  V30 3526 C 334.599 6.00067 1.15595 0
M  V30 3527 C 335.597 6.80278 0.609147 0
M  V30 3528 O 335.285 8.03818 0.114999 0
M  V30 3529 H 335.017 0.588881 0.331956 0
M  V30 3530 H 337.571 2.01614 0.392566 0
M  V30 3531 H 335.801 2.57443 2.88548 0
M  V30 3532 H 337.49 2.97461 2.76174 0
M  V30 3533 H 338.256 4.74213 1.01722 0
M  V30 3534 H 334.135 4.11781 2.07261 0
M  V30 3535 H 337.679 6.9747 0.134668 0
M  V30 3536 H 333.576 6.3433 1.19566 0
M  V30 3537 H 334.344 8.18172 0.231651 0
M  V30 3538 N 337.007 -0.598083 1.45811 0
M  V30 3539 C 338.235 -1.38322 1.53866 0
M  V30 3540 C 338.65 -1.87992 0.174479 0
M  V30 3541 O 338.007 -1.62756 -0.825627 0
M  V30 3542 C 338.058 -2.58125 2.53089 0
M  V30 3543 O 337.779 -2.10516 3.84206 0
M  V30 3544 C 339.28 -3.50869 2.70935 0
M  V30 3545 H 336.5 -0.423093 0.520801 0
M  V30 3546 H 339.044 -0.728527 1.91083 0
M  V30 3547 H 337.199 -3.19615 2.18917 0
M  V30 3548 H 337.613 -2.88425 4.38077 0
M  V30 3549 H 339.087 -4.31451 3.44317 0
M  V30 3550 H 339.564 -4.01822 1.77301 0
M  V30 3551 H 340.17 -2.95225 3.06141 0
M  V30 3552 N 338.485 -1.33259 -0.841409 0
M  V30 3553 C 339.901 -1.12538 -1.13169 0
M  V30 3554 C 340.101 0.0854037 -2.01319 0
M  V30 3555 O 339.157 0.766417 -2.40587 0
M  V30 3556 C 340.47 -2.41156 -1.79623 0
M  V30 3557 C 342.018 -2.47038 -1.922 0
M  V30 3558 C 342.493 -3.7561 -2.6207 0
M  V30 3559 N 343.984 -3.76667 -2.69585 0
M  V30 3560 C 344.719 -4.72861 -3.2433 0
M  V30 3561 N 344.215 -5.79428 -3.79783 0
M  V30 3562 N 346.008 -4.6034 -3.22558 0
M  V30 3563 H 338.159 -2.10868 -0.254676 0
M  V30 3564 H 340.422 -0.931615 -0.175493 0
M  V30 3565 H 340.128 -3.29747 -1.22311 0
M  V30 3566 H 340.002 -2.53114 -2.79666 0
M  V30 3567 H 342.389 -1.58898 -2.48667 0
M  V30 3568 H 342.47 -2.39022 -0.911148 0
M  V30 3569 H 342.114 -4.64131 -2.06263 0
M  V30 3570 H 342.044 -3.80902 -3.63622 0
M  V30 3571 H 344.535 -2.99648 -2.30259 0
M  V30 3572 H 344.848 -6.48867 -4.19752 0
M  V30 3573 H 343.193 -5.83166 -3.78078 0
M  V30 3574 H 346.384 -3.76244 -2.78492 0
M  V30 3575 H 346.557 -5.35478 -3.64921 0
M  V30 3576 N 339.963 1.05934 -1.16686 0
M  V30 3577 C 340.893 2.1546 -0.899949 0
M  V30 3578 C 341.874 1.69391 0.155154 0
M  V30 3579 O 343.059 1.94199 0.00648693 0
M  V30 3580 C 340.189 3.44939 -0.404241 0
M  V30 3581 C 339.143 4.04536 -1.39767 0
M  V30 3582 C 338.469 5.29268 -0.760216 0
M  V30 3583 C 339.769 4.42893 -2.76845 0
M  V30 3584 H 341.463 2.38046 -1.81588 0
M  V30 3585 H 339.009 1.14404 -0.874514 0
M  V30 3586 H 340.962 4.20901 -0.204971 0
M  V30 3587 H 339.686 3.21983 0.547206 0
M  V30 3588 H 338.345 3.30635 -1.58355 0
M  V30 3589 H 337.993 5.02611 0.197831 0
M  V30 3590 H 337.693 5.70101 -1.42332 0
M  V30 3591 H 339.217 6.07924 -0.57105 0
M  V30 3592 H 340.631 5.09921 -2.62019 0
M  V30 3593 H 339.028 4.94721 -3.39663 0
M  V30 3594 H 340.098 3.53584 -3.31823 0
M  V30 3595 N 341.441 0.965919 1.2453 0
M  V30 3596 C 342.371 0.513476 2.27784 0
M  V30 3597 C 343.352 -0.445974 1.6415 0
M  V30 3598 O 344.537 -0.342485 1.91156 0
M  V30 3599 C 341.667 -0.198839 3.4673 0
M  V30 3600 C 340.621 0.676456 4.2262 0
M  V30 3601 C 339.947 -0.167248 5.34438 0
M  V30 3602 C 341.247 1.96017 4.84123 0
M  V30 3603 H 342.941 1.3765 2.65881 0
M  V30 3604 H 340.487 0.663321 1.27813 0
M  V30 3605 H 342.44 -0.526567 4.18097 0
M  V30 3606 H 341.164 -1.0962 3.07654 0
M  V30 3607 H 339.823 0.98743 3.53052 0
M  V30 3608 H 339.471 -1.0647 4.91603 0
M  V30 3609 H 339.171 0.415181 5.86131 0
M  V30 3610 H 340.695 -0.489688 6.08633 0
M  V30 3611 H 342.109 1.69814 5.47573 0
M  V30 3612 H 340.506 2.48918 5.4604 0
M  V30 3613 H 341.576 2.65622 4.05676 0
M  V30 3614 N 342.919 -1.39368 0.735821 0
M  V30 3615 C 344.335 -1.54204 0.411492 0
M  V30 3616 C 344.535 -1.70268 -1.07755 0
M  V30 3617 O 343.591 -1.70364 -1.86366 0
M  V30 3618 C 344.904 -2.75925 1.19523 0
M  V30 3619 C 346.452 -2.89761 1.18354 0
M  V30 3620 C 346.927 -4.14421 1.94986 0
M  V30 3621 N 348.418 -4.21462 1.92156 0
M  V30 3622 C 349.153 -5.16871 2.48258 0
M  V30 3623 N 348.649 -6.18063 3.13001 0
M  V30 3624 N 350.442 -5.09093 2.38287 0
M  V30 3625 H 342.593 -1.27189 1.70108 0
M  V30 3626 H 344.856 -0.616517 0.720147 0
M  V30 3627 H 344.562 -2.70401 2.24892 0
M  V30 3628 H 344.436 -3.68614 0.800222 0
M  V30 3629 H 346.823 -2.94777 0.137975 0
M  V30 3630 H 346.904 -1.98133 1.61793 0
M  V30 3631 H 346.548 -4.10166 2.99543 0
M  V30 3632 H 346.478 -5.05095 1.48953 0
M  V30 3633 H 348.969 -3.48979 1.44991 0
M  V30 3634 H 349.282 -6.87326 3.53275 0
M  V30 3635 H 347.627 -6.18448 3.17091 0
M  V30 3636 H 350.818 -4.28973 1.8735 0
M  V30 3637 H 350.991 -5.83272 2.82308 0
M  V30 3638 N 344.397 -0.483516 -1.5 0
M  V30 3639 C 345.625 0.0644831 -2.06799 0
M  V30 3640 C 346.04 1.32399 -1.34596 0
M  V30 3641 O 345.397 1.77626 -0.418946 0
M  V30 3642 C 345.448 0.339927 -3.59898 0
M  V30 3643 O 345.169 -0.869635 -4.29382 0
M  V30 3644 C 346.67 0.933515 -4.33359 0
M  V30 3645 H 343.89 -0.0126333 -0.670881 0
M  V30 3646 H 346.434 -0.675864 -1.93009 0
M  V30 3647 H 344.589 1.03022 -3.7345 0
M  V30 3648 H 345.003 -0.62179 -5.20801 0
M  V30 3649 H 346.477 1.07593 -5.41413 0
M  V30 3650 H 346.954 1.92685 -3.94676 0
M  V30 3651 H 347.56 0.281221 -4.24369 0
M  V30 3652 N 345.875 1.56104 -0.216619 0
M  V30 3653 C 346.808 2.16026 0.735395 0
M  V30 3654 C 347.786 1.1032 1.1945 0
M  V30 3655 O 348.97 1.38549 1.27814 0
M  V30 3656 C 346.097 2.73656 1.99575 0
M  V30 3657 C 345.143 3.92146 1.67702 0
M  V30 3658 S 345.976 5.29397 0.806145 0
M  V30 3659 C 347.132 5.90463 2.07617 0
M  V30 3660 H 347.365 2.96439 0.226072 0
M  V30 3661 H 344.898 1.544 -0.00136639 0
M  V30 3662 H 346.856 3.075 2.71945 0
M  V30 3663 H 345.517 1.93245 2.47619 0
M  V30 3664 H 344.71 4.30954 2.61332 0
M  V30 3665 H 344.312 3.59423 1.03398 0
M  V30 3666 H 346.604 6.06136 3.02664 0
M  V30 3667 H 347.547 6.86589 1.73207 0
M  V30 3668 H 347.955 5.19252 2.21445 0
M  V30 3669 N 347.353 -0.0568162 1.57498 0
M  V30 3670 C 348.764 -0.606858 1.76562 0
M  V30 3671 C 349.115 -1.77114 0.844094 0
M  V30 3672 O 348.24 -2.16376 0.0318911 0
M  V30 3673 C 348.835 -1.10766 3.20182 0
M  V30 3674 C 347.394 -1.60344 3.40539 0
M  V30 3675 C 346.541 -0.529311 2.72201 0
M  V30 3676 H 349.492 0.169393 1.57793 0
M  V30 3677 H 349.513 -1.97602 3.25167 0
M  V30 3678 H 349.025 -0.26006 3.87228 0
M  V30 3679 H 347.126 -2.47379 2.78629 0
M  V30 3680 H 347.239 -1.67006 4.4905 0
M  V30 3681 H 345.603 -0.977893 2.35179 0
M  V30 3682 H 346.386 0.308352 3.41912 0
M  V30 3683 N 348.832 -1.54138 -0.328536 0
M  V30 3684 C 350.248 -1.44736 -0.672574 0
M  V30 3685 C 350.448 -0.616217 -1.91846 0
M  V30 3686 O 349.504 -0.113067 -2.52247 0
M  V30 3687 C 350.817 -2.884 -0.851217 0
M  V30 3688 C 352.365 -2.98271 -0.948877 0
M  V30 3689 C 352.84 -4.43074 -1.15973 0
M  V30 3690 N 354.331 -4.46665 -1.22658 0
M  V30 3691 C 355.066 -5.55857 -1.40751 0
M  V30 3692 N 354.562 -6.75026 -1.5592 0
M  V30 3693 N 356.355 -5.43495 -1.4342 0
M  V30 3694 H 348.506 -2.06661 0.490421 0
M  V30 3695 H 350.769 -0.934812 0.157579 0
M  V30 3696 H 350.475 -3.51699 -0.00704236 0
M  V30 3697 H 350.349 -3.34225 -1.74853 0
M  V30 3698 H 352.736 -2.35102 -1.78356 0
M  V30 3699 H 352.817 -2.55785 -0.0281435 0
M  V30 3700 H 352.461 -5.06827 -0.329915 0
M  V30 3701 H 352.391 -4.83165 -2.09426 0
M  V30 3702 H 354.882 -3.60797 -1.124 0
M  V30 3703 H 355.195 -7.54004 -1.69404 0
M  V30 3704 H 353.54 -6.77944 -1.53027 0
M  V30 3705 H 356.731 -4.49349 -1.31162 0
M  V30 3706 H 356.904 -6.28649 -1.57178 0
M  V30 3707 N 350.31 0.590341 -1.46126 0
M  V30 3708 C 351.257 1.69994 -1.56111 0
M  V30 3709 C 352.227 1.61065 -0.405867 0
M  V30 3710 O 353.412 1.8039 -0.621613 0
M  V30 3711 C 350.552 3.08326 -1.55013 0
M  V30 3712 C 349.665 3.27936 -2.81215 0
M  V30 3713 C 348.8 4.56473 -2.71673 0
M  V30 3714 C 347.839 4.694 -3.92849 0
M  V30 3715 N 346.976 5.89254 -3.81738 0
M  V30 3716 H 351.816 1.60797 -2.50895 0
M  V30 3717 H 349.353 0.783799 -1.24479 0
M  V30 3718 H 351.311 3.88383 -1.52362 0
M  V30 3719 H 349.941 3.16439 -0.637667 0
M  V30 3720 H 348.993 2.41536 -2.93879 0
M  V30 3721 H 350.305 3.33357 -3.71045 0
M  V30 3722 H 349.459 5.44748 -2.67085 0
M  V30 3723 H 348.198 4.53477 -1.7947 0
M  V30 3724 H 347.203 3.79544 -3.97777 0
M  V30 3725 H 348.428 4.7418 -4.86138 0
M  V30 3726 H 346.374 5.87271 -2.92317 0
M  V30 3727 H 346.291 5.95911 -4.65217 0
M  V30 3728 H 347.559 6.79981 -3.81112 0
M  V30 3729 N 351.788 1.33704 0.83433 0
M  V30 3730 C 353.036 1.25169 1.58673 0
M  V30 3731 C 353.357 -0.18127 1.94156 0
M  V30 3732 O 352.627 -1.11113 1.6134 0
M  V30 3733 H 351.207 0.4603 0.58833 0
M  V30 3734 H 353.869 1.67478 0.996847 0
M  V30 3735 H 352.965 1.84856 2.51465 0
M  V30 3736 N 353.266 -1.05314 1.17247 0
M  V30 3737 C 354.682 -1.30452 0.919473 0
M  V30 3738 C 354.882 -1.9703 -0.42209 0
M  V30 3739 O 353.938 -2.24311 -1.15935 0
M  V30 3740 C 355.251 -2.17551 2.07586 0
M  V30 3741 C 356.799 -2.30937 2.11275 0
M  V30 3742 C 357.274 -3.21396 3.26296 0
M  V30 3743 N 358.765 -3.28981 3.26076 0
M  V30 3744 C 359.5 -3.99095 4.11716 0
M  V30 3745 N 358.996 -4.71648 5.07465 0
M  V30 3746 N 360.789 -3.95247 3.9967 0
M  V30 3747 H 352.94 -0.604988 2.03602 0
M  V30 3748 H 355.203 -0.329368 0.888944 0
M  V30 3749 H 354.909 -1.75921 3.0454 0
M  V30 3750 H 354.783 -3.18182 2.02584 0
M  V30 3751 H 357.17 -2.71809 1.14907 0
M  V30 3752 H 357.251 -1.2994 2.20339 0
M  V30 3753 H 356.895 -2.81238 4.22927 0
M  V30 3754 H 356.825 -4.22395 3.14467 0
M  V30 3755 H 359.316 -2.77286 2.5675 0
M  V30 3756 H 359.629 -5.22705 5.6921 0
M  V30 3757 H 357.974 -4.70594 5.11435 0
M  V30 3758 H 361.165 -3.37691 3.24164 0
M  V30 3759 H 361.338 -4.4962 4.66632 0
M  V30 3760 N 354.744 -0.972509 -1.24016 0
M  V30 3761 C 355.99 -0.637978 -1.92504 0
M  V30 3762 C 356.323 0.825383 -1.75787 0
M  V30 3763 O 355.598 1.59442 -1.11393 0
M  V30 3764 C 355.881 -1.01942 -3.45369 0
M  V30 3765 C 355.734 -2.53983 -3.71231 0
M  V30 3766 C 357.053 -0.55751 -4.36555 0
M  V30 3767 H 354.172 -0.233248 -0.699117 0
M  V30 3768 H 356.814 -1.21238 -1.46292 0
M  V30 3769 H 354.964 -0.530656 -3.84859 0
M  V30 3770 H 356.636 -3.10374 -3.41271 0
M  V30 3771 H 354.879 -2.96968 -3.16216 0
M  V30 3772 H 355.55 -2.75723 -4.78206 0
M  V30 3773 H 358.026 -0.977029 -4.04467 0
M  V30 3774 H 356.902 -0.85292 -5.42233 0
M  V30 3775 H 357.163 0.542328 -4.38761 0
M  V30 3776 N 356.222 1.38976 -0.743202 0
M  V30 3777 C 357.471 1.99581 -0.291592 0
M  V30 3778 C 357.784 1.59656 1.13001 0
M  V30 3779 O 358.99 2.13157 1.68156 0
M  V30 3780 C 357.446 3.56813 -0.470391 0
M  V30 3781 C 357.054 4.05695 -1.90041 0
M  V30 3782 C 358.798 4.24423 -0.0809709 0
M  V30 3783 C 356.705 5.5553 -2.02832 0
M  V30 3784 H 355.635 0.746615 -0.105272 0
M  V30 3785 H 358.286 1.58872 -0.918258 0
M  V30 3786 H 356.668 3.95359 0.225299 0
M  V30 3787 H 357.842 3.78464 -2.62872 0
M  V30 3788 H 356.157 3.50775 -2.24379 0
M  V30 3789 H 358.754 5.34474 -0.155445 0
M  V30 3790 H 359.097 4.04962 0.96497 0
M  V30 3791 H 359.63 3.9108 -0.728124 0
M  V30 3792 H 356.369 5.79881 -3.05643 0
M  V30 3793 H 355.889 5.84537 -1.34448 0
M  V30 3794 H 357.568 6.21069 -1.81335 0
M  V30 3795 N 357.7 0.491464 1.49741 0
M  V30 3796 C 358.93 -0.0534375 2.06531 0
M  V30 3797 C 359.338 -1.32233 1.35318 0
M  V30 3798 O 358.681 -1.78781 0.422243 0
M  V30 3799 C 358.743 -0.387034 3.57411 0
M  V30 3800 C 358.407 0.782764 4.50246 0
M  V30 3801 C 359.404 1.67059 4.92329 0
M  V30 3802 C 357.089 0.978866 4.9267 0
M  V30 3803 C 359.083 2.73874 5.75562 0
M  V30 3804 C 356.77 2.05022 5.75682 0
M  V30 3805 C 357.768 2.92851 6.17031 0
M  V30 3806 O 357.456 3.98138 6.98385 0
M  V30 3807 H 357.188 0.0129324 0.675876 0
M  V30 3808 H 359.742 0.685238 1.93633 0
M  V30 3809 H 357.972 -1.17918 3.68283 0
M  V30 3810 H 359.661 -0.869419 3.96479 0
M  V30 3811 H 360.427 1.53086 4.60206 0
M  V30 3812 H 356.306 0.304646 4.59992 0
M  V30 3813 H 359.85 3.42458 6.07757 0
M  V30 3814 H 355.747 2.18993 6.07217 0
M  V30 3815 H 356.515 3.95374 7.16674 0
M  V30 3816 N 359.178 -1.55987 0.224894 0
M  V30 3817 C 360.427 -1.97566 -0.406273 0
M  V30 3818 C 360.74 -1.11569 -1.6066 0
M  V30 3819 O 361.946 -1.43062 -2.3075 0
M  V30 3820 C 360.402 -3.51474 -0.774207 0
M  V30 3821 C 360.01 -4.46179 0.403496 0
M  V30 3822 C 361.754 -4.01758 -1.37079 0
M  V30 3823 C 359.661 -5.91399 0.0129412 0
M  V30 3824 H 358.591 -0.737777 -0.155565 0
M  V30 3825 H 361.242 -1.80659 0.321635 0
M  V30 3826 H 359.624 -3.63994 -1.55963 0
M  V30 3827 H 360.798 -4.45409 1.18101 0
M  V30 3828 H 359.113 -4.06255 0.913536 0
M  V30 3829 H 361.71 -5.07756 -1.67596 0
M  V30 3830 H 362.053 -3.47805 -2.28773 0
M  V30 3831 H 362.586 -3.92475 -0.648733 0
M  V30 3832 H 359.325 -6.49341 0.896451 0
M  V30 3833 H 358.845 -5.95356 -0.728821 0
M  V30 3834 H 360.524 -6.45683 -0.412582 0
M  V30 3835 N 360.656 0.0484629 -1.57525 0
M  V30 3836 C 361.896 0.748196 -1.90214 0
M  V30 3837 C 362.26 1.73545 -0.821347 0
M  V30 3838 O 363.461 2.48201 -1.03198 0
M  V30 3839 C 361.732 1.41727 -3.28098 0
M  V30 3840 S 363.291 2.14884 -3.82584 0
M  V30 3841 H 360.109 0.248307 -0.666232 0
M  V30 3842 H 362.711 0.00343188 -1.955 0
M  V30 3843 H 361.415 0.685244 -4.04639 0
M  V30 3844 H 360.946 2.20099 -3.26068 0
M  V30 3845 H 362.961 3.41755 -3.59747 0
M  V30 3846 N 362.134 1.5431 0.320358 0
M  V30 3847 C 363.359 1.76954 1.08175 0
M  V30 3848 C 363.784 0.518193 1.80821 0
M  V30 3849 O 363.142 -0.530411 1.73368 0
M  V30 3850 C 363.19 2.96451 2.05303 0
M  V30 3851 O 362.294 2.68221 3.13259 0
M  V30 3852 H 361.635 0.586275 0.311733 0
M  V30 3853 H 364.165 2.01342 0.363676 0
M  V30 3854 H 364.175 3.23887 2.48116 0
M  V30 3855 H 362.85 3.87196 1.51829 0
M  V30 3856 H 361.427 2.51744 2.75099 0
M  V30 3857 N 363.613 -0.582584 1.46437 0
M  V30 3858 C 364.838 -1.37168 1.55563 0
M  V30 3859 C 365.263 -1.87061 0.19743 0
M  V30 3860 O 364.621 -1.61572 -0.822451 0
M  V30 3861 C 364.669 -2.53511 2.56446 0
M  V30 3862 O 363.773 -3.54953 2.09958 0
M  V30 3863 H 363.114 -0.408494 0.523477 0
M  V30 3864 H 365.644 -0.706646 1.9201 0
M  V30 3865 H 365.654 -3.00426 2.76058 0
M  V30 3866 H 364.329 -2.16549 3.55076 0
M  V30 3867 H 362.906 -3.14516 2.00334 0
M  V30 3868 N 365.091 -1.34144 -0.827227 0
M  V30 3869 C 366.502 -1.23557 -1.39966 0
M  V30 3870 C 366.853 0.140731 -1.95695 0
M  V30 3871 O 365.978 1.04087 -1.89723 0
M  V30 3872 C 366.573 -2.23708 -2.54441 0
M  V30 3873 C 365.132 -2.16924 -3.07605 0
M  V30 3874 C 364.279 -2.10549 -1.80456 0
M  V30 3875 H 367.23 -1.45573 -0.631991 0
M  V30 3876 H 367.251 -1.85157 -3.32411 0
M  V30 3877 H 366.763 -3.23866 -2.13851 0
M  V30 3878 H 364.864 -1.20107 -3.52711 0
M  V30 3879 H 364.977 -3.07988 -3.66988 0
M  V30 3880 H 363.341 -1.56203 -2.01178 0
M  V30 3881 H 364.124 -3.12535 -1.42046 0
M  V30 3882 N 366.569 1.04691 -1.17803 0
M  V30 3883 C 367.846 1.7472 -0.879328 0
M  V30 3884 C 368.226 2.01812 0.619271 0
M  V30 3885 O 367.574 1.65824 1.57209 0
M  V30 3886 C 367.784 3.03686 -1.71976 0
M  V30 3887 C 369.132 3.77542 -1.94286 0
M  V30 3888 O 370.156 3.13569 -1.68976 0
M  V30 3889 O 369.015 4.92506 -2.36855 0
M  V30 3890 H 366.109 0.760011 -0.326056 0
M  V30 3891 H 368.655 1.10813 -1.28525 0
M  V30 3892 H 367.427 2.79754 -2.73594 0
M  V30 3893 H 367.05 3.75332 -1.31194 0
M  V30 3894 N 368.047 0.979072 1.23499 0
M  V30 3895 C 369.01 0.523244 2.23147 0
M  V30 3896 C 370.01 -0.386406 1.56088 0
M  V30 3897 O 371.2 -0.180283 1.73265 0
M  V30 3898 C 368.332 -0.240739 3.40049 0
M  V30 3899 H 369.525 1.40432 2.64989 0
M  V30 3900 H 367.078 0.764824 1.36309 0
M  V30 3901 H 367.813 -1.13841 3.03662 0
M  V30 3902 H 367.598 0.412207 3.89927 0
M  V30 3903 H 369.088 -0.548297 4.13985 0
M  V30 3904 N 369.525 -1.3858 0.750561 0
M  V30 3905 C 370.772 -2.00184 0.305373 0
M  V30 3906 C 371.1 -1.59575 -1.11203 0
M  V30 3907 O 370.355 -0.823236 -1.77542 0
M  V30 3908 C 370.654 -3.55455 0.372373 0
M  V30 3909 C 370.32 -4.15765 1.745 0
M  V30 3910 C 368.982 -4.31951 2.12065 0
M  V30 3911 C 371.334 -4.49067 2.64553 0
M  V30 3912 C 368.662 -4.78734 3.39162 0
M  V30 3913 C 371.014 -4.97265 3.91038 0
M  V30 3914 C 369.678 -5.11658 4.28676 0
M  V30 3915 H 368.948 -0.732526 0.111744 0
M  V30 3916 H 371.595 -1.65673 0.960451 0
M  V30 3917 H 369.9 -3.90084 -0.366272 0
M  V30 3918 H 371.597 -4.00999 0.00953918 0
M  V30 3919 H 368.187 -4.03579 1.44297 0
M  V30 3920 H 372.371 -4.36166 2.36796 0
M  V30 3921 H 367.627 -4.88062 3.68246 0
M  V30 3922 H 371.801 -5.22003 4.60962 0
M  V30 3923 H 369.428 -5.47668 5.27222 0
M  V30 3924 N 371.003 -0.499398 -1.49478 0
M  V30 3925 C 372.419 -0.155261 -1.58843 0
M  V30 3926 C 372.619 1.34008 -1.50479 0
M  V30 3927 O 371.675 2.11589 -1.37791 0
M  V30 3928 C 372.988 -0.730636 -2.91689 0
M  V30 3929 C 374.536 -0.696599 -3.0515 0
M  V30 3930 C 375.011 -1.25001 -4.40612 0
M  V30 3931 N 376.502 -1.21064 -4.47099 0
M  V30 3932 C 377.237 -1.60905 -5.50361 0
M  V30 3933 N 376.733 -2.08331 -6.60735 0
M  V30 3934 N 378.526 -1.52331 -5.41065 0
M  V30 3935 H 370.677 -1.47162 -1.53158 0
M  V30 3936 H 372.94 -0.610309 -0.725415 0
M  V30 3937 H 372.646 -1.77928 -3.03372 0
M  V30 3938 H 372.52 -0.190161 -3.7672 0
M  V30 3939 H 374.907 0.343204 -2.93097 0
M  V30 3940 H 374.988 -1.2742 -2.21806 0
M  V30 3941 H 374.632 -2.28859 -4.53416 0
M  V30 3942 H 374.562 -0.64836 -5.22593 0
M  V30 3943 H 377.053 -0.863128 -3.67911 0
M  V30 3944 H 377.366 -2.36805 -7.35624 0
M  V30 3945 H 375.711 -2.12304 -6.6178 0
M  V30 3946 H 378.902 -1.151 -4.53729 0
M  V30 3947 H 379.075 -1.83704 -6.21415 0
M  V30 3948 N 372.481 1.55866 -0.233164 0
M  V30 3949 C 373.709 2.02998 0.399905 0
M  V30 3950 C 374.124 1.11274 1.52524 0
M  V30 3951 O 373.481 0.124528 1.82075 0
M  V30 3952 C 373.532 3.4958 0.920639 0
M  V30 3953 O 373.253 4.37808 -0.159834 0
M  V30 3954 C 374.754 4.12411 1.62578 0
M  V30 3955 H 371.974 0.664006 0.0966281 0
M  V30 3956 H 374.518 2.0143 -0.353013 0
M  V30 3957 H 372.673 3.51727 1.62379 0
M  V30 3958 H 373.087 5.23981 0.23337 0
M  V30 3959 H 374.561 5.16711 1.94201 0
M  V30 3960 H 375.038 3.5809 2.54299 0
M  V30 3961 H 375.644 4.14148 0.967553 0
M  V30 3962 N 373.959 -0.0401083 1.57549 0
M  V30 3963 C 374.889 -1.04384 2.08869 0
M  V30 3964 C 375.87 -1.38407 0.988817 0
M  V30 3965 O 377.055 -1.47483 1.26342 0
M  V30 3966 C 374.185 -2.34808 2.55895 0
M  V30 3967 C 373.139 -2.15057 3.70047 0
M  V30 3968 C 372.465 -3.51145 4.03239 0
M  V30 3969 C 373.765 -1.54576 4.98902 0
M  V30 3970 H 375.459 -0.616666 2.92981 0
M  V30 3971 H 373.005 -0.295184 1.40942 0
M  V30 3972 H 374.958 -3.05346 2.90417 0
M  V30 3973 H 373.682 -2.79565 1.68853 0
M  V30 3974 H 372.341 -1.46954 3.35857 0
M  V30 3975 H 371.989 -3.93529 3.13279 0
M  V30 3976 H 371.689 -3.38758 4.80122 0
M  V30 3977 H 373.213 -4.23062 4.40285 0
M  V30 3978 H 374.627 -2.15017 5.31451 0
M  V30 3979 H 373.024 -1.52796 5.80322 0
M  V30 3980 H 374.094 -0.51039 4.82206 0
M  V30 3981 N 375.437 -1.54477 -0.31217 0
M  V30 3982 C 376.37 -1.79519 -1.40884 0
M  V30 3983 C 377.348 -0.645753 -1.49227 0
M  V30 3984 O 378.532 -0.884468 -1.66461 0
M  V30 3985 C 375.659 -1.92194 -2.78889 0
M  V30 3986 C 374.705 -3.14555 -2.88023 0
M  V30 3987 S 375.538 -4.72893 -2.51262 0
M  V30 3988 C 376.694 -4.8849 -3.91317 0
M  V30 3989 H 376.927 -2.72256 -1.19432 0
M  V30 3990 H 374.46 -1.45746 -0.509654 0
M  V30 3991 H 376.418 -2.00182 -3.58382 0
M  V30 3992 H 375.079 -1.00414 -2.97617 0
M  V30 3993 H 374.272 -3.20193 -3.89221 0
M  V30 3994 H 373.874 -3.04955 -2.16514 0
M  V30 3995 H 376.166 -4.71826 -4.86196 0
M  V30 3996 H 377.109 -5.90588 -3.90656 0
M  V30 3997 H 377.517 -4.16715 -3.80801 0
M  V30 3998 N 376.915 0.57481 -1.46744 0
M  V30 3999 C 377.845 1.69337 -1.60771 0
M  V30 4000 C 378.826 1.63825 -0.457736 0
M  V30 4001 O 380.011 1.8172 -0.684947 0
M  V30 4002 C 377.141 3.0798 -1.60517 0
M  V30 4003 C 376.095 3.28327 -2.74564 0
M  V30 4004 C 375.421 4.67578 -2.59373 0
M  V30 4005 C 376.721 3.15398 -4.16319 0
M  V30 4006 H 378.415 1.57853 -2.54407 0
M  V30 4007 H 375.961 0.75799 -1.22436 0
M  V30 4008 H 377.914 3.86061 -1.68923 0
M  V30 4009 H 376.638 3.20381 -0.634305 0
M  V30 4010 H 375.297 2.52649 -2.65639 0
M  V30 4011 H 374.945 4.76755 -1.60353 0
M  V30 4012 H 374.645 4.82144 -3.35873 0
M  V30 4013 H 376.169 5.47817 -2.69682 0
M  V30 4014 H 377.583 3.83315 -4.26313 0
M  V30 4015 H 375.98 3.41482 -4.93468 0
M  V30 4016 H 377.05 2.12372 -4.3592 0
M  V30 4017 N 378.394 1.34581 0.820102 0
M  V30 4018 C 379.324 1.29038 1.94606 0
M  V30 4019 C 380.305 0.1673 1.69275 0
M  V30 4020 O 381.49 0.360112 1.90832 0
M  V30 4021 C 378.62 1.04793 3.31113 0
M  V30 4022 C 377.574 2.13597 3.70891 0
M  V30 4023 C 376.9 1.74537 5.05412 0
M  V30 4024 C 378.2 3.55451 3.8269 0
M  V30 4025 H 379.894 2.23248 1.99501 0
M  V30 4026 H 377.44 1.0747 0.958449 0
M  V30 4027 H 379.393 0.995592 4.0947 0
M  V30 4028 H 378.117 0.0702565 3.26524 0
M  V30 4029 H 376.776 2.17905 2.9481 0
M  V30 4030 H 376.424 0.754226 4.97313 0
M  V30 4031 H 376.124 2.47361 5.32997 0
M  V30 4032 H 377.648 1.70803 5.86224 0
M  V30 4033 H 379.062 3.5354 4.51312 0
M  V30 4034 H 377.459 4.26922 4.21732 0
M  V30 4035 H 378.529 3.92587 2.84611 0
M  V30 4036 N 379.872 -1.04064 1.18357 0
M  V30 4037 C 380.835 -2.10243 0.912707 0
M  V30 4038 C 381.835 -1.60477 -0.101928 0
M  V30 4039 O 383.025 -1.73703 0.131517 0
M  V30 4040 C 380.157 -3.38893 0.369387 0
M  V30 4041 H 381.35 -2.35706 1.85426 0
M  V30 4042 H 378.903 -1.20489 0.995594 0
M  V30 4043 H 379.638 -3.19094 -0.578776 0
M  V30 4044 H 379.423 -3.76331 1.1008 0
M  V30 4045 H 380.913 -4.17128 0.198575 0
M  V30 4046 N 381.35 -0.985608 -1.22978 0
M  V30 4047 C 382.28 -0.549649 -2.26939 0
M  V30 4048 C 383.261 0.419803 -1.64838 0
M  V30 4049 O 384.446 0.31203 -1.91677 0
M  V30 4050 C 381.576 0.143652 -3.47003 0
M  V30 4051 C 380.53 -0.743606 -4.21491 0
M  V30 4052 C 379.856 0.0822027 -5.34637 0
M  V30 4053 C 381.156 -2.03694 -4.80943 0
M  V30 4054 H 382.85 -1.41862 -2.63658 0
M  V30 4055 H 380.396 -0.683571 -1.26741 0
M  V30 4056 H 382.349 0.459985 -4.18882 0
M  V30 4057 H 381.073 1.04711 -3.09359 0
M  V30 4058 H 379.732 -1.04347 -3.51436 0
M  V30 4059 H 379.38 0.986359 -4.93234 0
M  V30 4060 H 379.08 -0.508377 -5.85397 0
M  V30 4061 H 380.604 0.392797 -6.09335 0
M  V30 4062 H 382.018 -1.78504 -5.44802 0
M  V30 4063 H 380.415 -2.57573 -5.42011 0
M  V30 4064 H 381.485 -2.72042 -4.01399 0
M  V30 4065 N 382.828 1.3818 -0.7579 0
M  V30 4066 C 383.738 2.3421 -0.135247 0
M  V30 4067 C 384.754 1.59487 0.695683 0
M  V30 4068 O 385.93 1.91657 0.618832 0
M  V30 4069 C 382.995 3.3862 0.744139 0
M  V30 4070 C 382.056 4.2918 -0.101658 0
M  V30 4071 C 381.289 5.28603 0.735851 0
M  V30 4072 O 381.512 5.35166 1.97366 0
M  V30 4073 O 380.446 6.01707 0.152372 0
M  V30 4074 H 384.272 2.8916 -0.928436 0
M  V30 4075 H 381.857 1.40101 -0.518855 0
M  V30 4076 H 383.739 4.02539 1.2466 0
M  V30 4077 H 382.414 2.86019 1.51575 0
M  V30 4078 H 381.321 3.68407 -0.650167 0
M  V30 4079 H 382.654 4.85048 -0.836024 0
M  V30 4080 N 384.306 0.507319 1.49211 0
M  V30 4081 C 385.269 -0.256763 2.27757 0
M  V30 4082 C 386.269 -0.888287 1.34038 0
M  V30 4083 O 387.459 -0.751841 1.5714 0
M  V30 4084 C 384.591 -1.36905 3.12202 0
M  V30 4085 H 385.784 0.432557 2.96764 0
M  V30 4086 H 383.337 0.262488 1.5408 0
M  V30 4087 H 384.072 -2.09233 2.47775 0
M  V30 4088 H 383.857 -0.921599 3.81115 0
M  V30 4089 H 385.347 -1.9071 3.7151 0
M  V30 4090 N 385.784 -1.5574 0.241426 0
M  V30 4091 C 387.032 -1.98417 -0.384075 0
M  V30 4092 C 387.353 -1.13078 -1.58866 0
M  V30 4093 O 386.623 -0.212312 -1.94746 0
M  V30 4094 H 385.203 -0.732813 -0.144894 0
M  V30 4095 H 387.865 -1.9193 0.338943 0
M  V30 4096 H 386.961 -3.04219 -0.696939 0
M  V30 4097 N 387.262 0.0317525 -1.57568 0
M  V30 4098 C 388.192 1.03274 -2.0942 0
M  V30 4099 C 389.173 1.3788 -0.996143 0
M  V30 4100 O 390.358 1.46811 -1.27122 0
M  V30 4101 C 387.488 2.33448 -2.57137 0
M  V30 4102 C 386.442 2.13091 -3.71182 0
M  V30 4103 C 385.768 3.49001 -4.05095 0
M  V30 4104 C 387.068 1.51928 -4.99715 0
M  V30 4105 H 388.762 0.60112 -2.93303 0
M  V30 4106 H 386.308 0.287705 -1.41097 0
M  V30 4107 H 388.261 3.03802 -2.92032 0
M  V30 4108 H 386.985 2.78665 -1.70333 0
M  V30 4109 H 385.644 1.45171 -3.36632 0
M  V30 4110 H 385.292 3.91862 -3.15362 0
M  V30 4111 H 384.992 3.36207 -4.81911 0
M  V30 4112 H 386.516 4.20721 -4.42522 0
M  V30 4113 H 387.93 2.12196 -5.32584 0
M  V30 4114 H 386.327 1.49716 -5.81124 0
M  V30 4115 H 387.397 0.484811 -4.8247 0
M  V30 4116 N 388.74 1.54641 0.303973 0
M  V30 4117 C 389.98 1.75516 1.04755 0
M  V30 4118 C 390.344 0.528211 1.84591 0
M  V30 4119 O 391.545 0.614645 2.61678 0
M  V30 4120 C 389.816 3.00685 1.93193 0
M  V30 4121 S 391.375 3.42549 2.74237 0
M  V30 4122 H 388.193 0.616987 0.353339 0
M  V30 4123 H 390.795 1.92842 0.321292 0
M  V30 4124 H 389.499 3.8811 1.33411 0
M  V30 4125 H 389.03 2.85937 2.70191 0
M  V30 4126 H 391.045 2.99386 3.95705 0
M  V30 4127 N 390.218 -0.567019 1.47046 0
M  V30 4128 C 391.466 -1.322 1.52864 0
M  V30 4129 C 391.787 -1.94088 0.188388 0
M  V30 4130 O 391.057 -1.7941 -0.786693 0
M  V30 4131 H 389.637 -0.490894 0.563056 0
M  V30 4132 H 392.299 -0.662879 1.83281 0
M  V30 4133 H 391.395 -2.12062 2.2899 0
M  V30 4134 N 391.696 -1.35014 -0.812953 0
M  V30 4135 C 392.606 -1.2951 -1.95613 0
M  V30 4136 C 393.622 -0.20107 -1.72834 0
M  V30 4137 O 394.798 -0.42932 -1.96771 0
M  V30 4138 C 391.863 -1.06033 -3.30088 0
M  V30 4139 C 390.924 -2.24688 -3.65805 0
M  V30 4140 C 390.157 -2.02322 -4.93864 0
M  V30 4141 O 390.38 -0.986464 -5.61805 0
M  V30 4142 O 389.314 -2.89525 -5.27692 0
M  V30 4143 H 393.14 -2.25705 -2.03202 0
M  V30 4144 H 390.725 -1.15321 -0.949811 0
M  V30 4145 H 392.607 -0.94763 -4.10607 0
M  V30 4146 H 391.282 -0.128852 -3.23443 0
M  V30 4147 H 390.189 -2.41521 -2.85689 0
M  V30 4148 H 391.522 -3.16261 -3.77147 0
M  V30 4149 N 393.175 1.03435 -1.18907 0
M  V30 4150 C 394.452 1.73778 -0.89781 0
M  V30 4151 C 394.832 2.02458 0.597832 0
M  V30 4152 O 394.18 1.67482 1.55441 0
M  V30 4153 C 394.39 3.01845 -1.75187 0
M  V30 4154 C 395.738 3.7546 -1.9828 0
M  V30 4155 O 396.762 3.11759 -1.72293 0
M  V30 4156 O 395.621 4.89966 -2.42065 0
M  V30 4157 H 392.715 0.75651 -0.334098 0
M  V30 4158 H 395.261 1.09444 -1.29693 0
M  V30 4159 H 394.033 2.76836 -2.76545 0
M  V30 4160 H 393.656 3.73919 -1.35167 0
M  V30 4161 N 394.653 0.992116 1.22453 0
M  V30 4162 C 395.883 0.684949 1.94915 0
M  V30 4163 C 396.291 -0.754292 1.73514 0
M  V30 4164 O 395.634 -1.52056 1.03076 0
M  V30 4165 C 395.696 0.910054 3.47791 0
M  V30 4166 C 395.36 2.33363 3.92926 0
M  V30 4167 C 396.357 3.31308 4.00663 0
M  V30 4168 C 394.042 2.66785 4.25595 0
M  V30 4169 C 396.036 4.6075 4.40441 0
M  V30 4170 C 393.723 3.96446 4.65053 0
M  V30 4171 C 394.721 4.9324 4.72444 0
M  V30 4172 O 394.409 6.20584 5.1101 0
M  V30 4173 H 394.141 0.25258 0.62704 0
M  V30 4174 H 396.695 1.32939 1.56577 0
M  V30 4175 H 394.925 0.208443 3.86138 0
M  V30 4176 H 396.614 0.598257 4.01467 0
M  V30 4177 H 397.38 3.0682 3.75615 0
M  V30 4178 H 393.259 1.92148 4.19047 0
M  V30 4179 H 396.803 5.363 4.46126 0
M  V30 4180 H 392.7 4.20724 4.89552 0
M  V30 4181 H 393.468 6.24509 5.29085 0
M  V30 4182 N 396.131 -1.37776 0.765217 0
M  V30 4183 C 397.377 -2.00145 0.327072 0
M  V30 4184 C 397.71 -1.60607 -1.09175 0
M  V30 4185 O 396.985 -0.849127 -1.74986 0
M  V30 4186 C 397.268 -3.57109 0.46319 0
M  V30 4187 C 397.121 -4.06576 1.92395 0
M  V30 4188 C 398.44 -4.39888 -0.136473 0
M  V30 4189 H 395.559 -0.727113 0.120316 0
M  V30 4190 H 398.201 -1.63549 0.967039 0
M  V30 4191 H 396.351 -3.88414 -0.0816358 0
M  V30 4192 H 398.023 -3.85864 2.52798 0
M  V30 4193 H 396.266 -3.59011 2.43503 0
M  V30 4194 H 396.937 -5.15639 1.97028 0
M  V30 4195 H 399.413 -4.14803 0.328317 0
M  V30 4196 H 398.289 -5.48899 -0.0110582 0
M  V30 4197 H 398.55 -4.24758 -1.22608 0
M  V30 4198 N 397.609 -0.515225 -1.4894 0
M  V30 4199 C 398.856 0.024215 -2.02486 0
M  V30 4200 C 399.184 1.35671 -1.39368 0
M  V30 4201 O 398.439 1.88566 -0.523574 0
M  V30 4202 C 398.738 0.210595 -3.56779 0
M  V30 4203 C 398.404 -1.04569 -4.38607 0
M  V30 4204 C 397.066 -1.39002 -4.60686 0
M  V30 4205 C 399.418 -1.88008 -4.86109 0
M  V30 4206 C 396.746 -2.568 -5.27514 0
M  V30 4207 C 399.098 -3.04972 -5.54234 0
M  V30 4208 C 397.762 -3.39768 -5.74555 0
M  V30 4209 H 397.032 0.00886088 -0.740947 0
M  V30 4210 H 399.679 -0.678263 -1.79086 0
M  V30 4211 H 397.984 0.99572 -3.78936 0
M  V30 4212 H 399.681 0.642659 -3.95817 0
M  V30 4213 H 396.271 -0.767497 -4.21672 0
M  V30 4214 H 400.455 -1.62719 -4.68867 0
M  V30 4215 H 395.711 -2.8398 -5.41447 0
M  V30 4216 H 399.885 -3.69943 -5.90013 0
M  V30 4217 H 397.512 -4.31148 -6.26112 0
M  V30 4218 N 399.087 1.5561 -0.249682 0
M  V30 4219 C 400.334 1.99011 0.374287 0
M  V30 4220 C 400.662 1.13785 1.57744 0
M  V30 4221 O 399.917 0.189326 1.94782 0
M  V30 4222 C 400.216 3.4775 0.824887 0
M  V30 4223 C 399.882 4.50086 -0.270819 0
M  V30 4224 C 398.544 4.77791 -0.571746 0
M  V30 4225 C 400.896 5.11312 -1.01041 0
M  V30 4226 C 398.224 5.63997 -1.61629 0
M  V30 4227 C 400.576 5.98651 -2.0445 0
M  V30 4228 C 399.24 6.24688 -2.35204 0
M  V30 4229 H 398.51 0.728233 0.136961 0
M  V30 4230 H 401.157 1.88122 -0.358087 0
M  V30 4231 H 399.462 3.55985 1.63651 0
M  V30 4232 H 401.159 3.78721 1.31799 0
M  V30 4233 H 397.749 4.28592 -0.026136 0
M  V30 4234 H 401.933 4.89953 -0.791177 0
M  V30 4235 H 397.189 5.82425 -1.85988 0
M  V30 4236 H 401.363 6.45135 -2.62248 0
M  V30 4237 H 398.99 6.91281 -3.16282 0
M  V30 4238 N 400.565 -0.0233959 1.57583 0
M  V30 4239 C 401.515 -1.03023 2.03397 0
M  V30 4240 C 402.499 -1.31701 0.924315 0
M  V30 4241 O 403.691 -1.31191 1.18819 0
M  V30 4242 C 400.82 -2.32961 2.52159 0
M  V30 4243 C 399.906 -2.07349 3.69956 0
M  V30 4244 N 400.297 -1.51814 4.82479 0
M  V30 4245 C 398.595 -2.37606 3.77438 0
M  V30 4246 C 399.296 -1.42136 5.64068 0
M  V30 4247 N 398.272 -1.89891 5.09355 0
M  V30 4248 H 402.074 -0.594962 2.87815 0
M  V30 4249 H 399.588 -0.229586 1.60769 0
M  V30 4250 H 401.585 -3.05906 2.83244 0
M  V30 4251 H 400.245 -2.77162 1.69149 0
M  V30 4252 H 401.256 -1.20008 5.03804 0
M  V30 4253 H 397.933 -2.84842 3.05239 0
M  V30 4254 H 399.323 -0.996405 6.64471 0
M  V30 4255 N 402.043 -1.548 -0.295768 0
M  V30 4256 C 402.973 -1.89115 -1.36959 0
M  V30 4257 C 403.954 -0.75059 -1.52644 0
M  V30 4258 O 405.139 -1.00678 -1.66065 0
M  V30 4259 C 402.269 -2.14307 -2.73295 0
M  V30 4260 C 401.223 -3.30151 -2.72368 0
M  V30 4261 C 400.549 -3.40772 -4.12042 0
M  V30 4262 C 401.849 -4.67126 -2.33646 0
M  V30 4263 H 403.543 -2.79053 -1.08488 0
M  V30 4264 H 401.089 -1.34266 -0.520443 0
M  V30 4265 H 403.042 -2.36898 -3.48507 0
M  V30 4266 H 401.766 -1.21145 -3.03301 0
M  V30 4267 H 400.425 -3.0749 -1.99613 0
M  V30 4268 H 400.073 -2.45117 -4.39234 0
M  V30 4269 H 399.773 -4.18645 -4.12322 0
M  V30 4270 H 401.297 -3.6563 -4.89027 0
M  V30 4271 H 402.711 -4.89414 -2.98575 0
M  V30 4272 H 401.108 -5.47751 -2.45129 0
M  V30 4273 H 402.178 -4.67489 -1.28772 0
M  V30 4274 N 403.521 0.559213 -1.47345 0
M  V30 4275 C 404.798 1.31997 -1.44348 0
M  V30 4276 C 405.178 2.1064 -0.139358 0
M  V30 4277 O 404.526 2.1091 0.879153 0
M  V30 4278 C 404.736 2.22618 -2.68779 0
M  V30 4279 C 406.084 2.83701 -3.1591 0
M  V30 4280 O 407.108 2.32921 -2.69493 0
M  V30 4281 O 405.967 3.75993 -3.966 0
M  V30 4282 H 403.061 0.594251 -0.575147 0
M  V30 4283 H 405.607 0.578282 -1.59543 0
M  V30 4284 H 404.379 1.64093 -3.55231 0
M  V30 4285 H 404.002 3.04085 -2.5616 0
M  V30 4286 N 404.999 1.35443 0.805782 0
M  V30 4287 C 406.248 1.28097 1.55801 0
M  V30 4288 C 406.561 -0.142428 1.95081 0
M  V30 4289 O 407.767 -0.33817 2.69386 0
M  V30 4290 C 406.223 2.24653 2.81174 0
M  V30 4291 C 405.831 3.72342 2.49129 0
M  V30 4292 C 407.575 2.2625 3.59181 0
M  V30 4293 C 405.482 4.60719 3.70799 0
M  V30 4294 H 404.412 0.475937 0.584808 0
M  V30 4295 H 407.063 1.60712 0.885661 0
M  V30 4296 H 405.445 1.85011 3.50124 0
M  V30 4297 H 406.619 4.20624 1.88181 0
M  V30 4298 H 404.934 3.73361 1.84366 0
M  V30 4299 H 407.531 2.89495 4.49552 0
M  V30 4300 H 407.874 1.26647 3.96568 0
M  V30 4301 H 408.407 2.64426 2.97193 0
M  V30 4302 H 405.146 5.61324 3.3852 0
M  V30 4303 H 404.666 4.17163 4.3097 0
M  V30 4304 H 406.345 4.76182 4.38018 0
M  V30 4305 N 406.477 -1.02803 1.19454 0
M  V30 4306 C 407.724 -1.76217 0.997693 0
M  V30 4307 C 408.052 -1.887 -0.47144 0
M  V30 4308 O 407.307 -1.4011 -1.3663 0
M  V30 4309 C 407.606 -3.18941 1.6128 0
M  V30 4310 C 407.272 -3.26463 3.11019 0
M  V30 4311 C 405.934 -3.28223 3.51885 0
M  V30 4312 C 408.286 -3.25542 4.07028 0
M  V30 4313 C 405.614 -3.26719 4.8731 0
M  V30 4314 C 407.966 -3.25579 5.42385 0
M  V30 4315 C 406.63 -3.25637 5.82681 0
M  V30 4316 H 405.9 -0.644823 0.365082 0
M  V30 4317 H 408.547 -1.20655 1.4871 0
M  V30 4318 H 406.852 -3.77587 1.04572 0
M  V30 4319 H 408.549 -3.74415 1.43577 0
M  V30 4320 H 405.139 -3.25822 2.78457 0
M  V30 4321 H 409.323 -3.23362 3.76498 0
M  V30 4322 H 404.579 -3.25089 5.1781 0
M  V30 4323 H 408.753 -3.23817 6.16535 0
M  V30 4324 H 406.38 -3.24226 6.87591 0
M  V30 4325 N 407.956 -0.998596 -1.21925 0
M  V30 4326 C 409.204 -0.676325 -1.90448 0
M  V30 4327 C 409.525 0.794719 -1.78071 0
M  V30 4328 O 408.795 1.5701 -1.17152 0
M  V30 4329 H 407.375 -0.247165 -0.704925 0
M  V30 4330 H 410.037 -1.26633 -1.48156 0
M  V30 4331 H 409.133 -0.943858 -2.97486 0
M  V30 4332 N 409.434 1.37368 -0.772513 0
M  V30 4333 C 410.366 2.28899 -0.117502 0
M  V30 4334 C 411.379 1.4867 0.663405 0
M  V30 4335 O 412.568 1.71314 0.501372 0
M  V30 4336 C 409.668 3.2788 0.857192 0
M  V30 4337 C 408.841 4.37207 0.129938 0
M  V30 4338 C 407.9 5.16257 1.01811 0
M  V30 4339 O 406.926 5.67159 0.481601 0
M  V30 4340 N 408.128 5.31058 2.3443 0
M  V30 4341 H 410.893 2.85752 -0.903662 0
M  V30 4342 H 408.454 1.49353 -0.62493 0
M  V30 4343 H 410.446 3.77647 1.45482 0
M  V30 4344 H 409.016 2.7179 1.54432 0
M  V30 4345 H 408.236 3.88827 -0.648605 0
M  V30 4346 H 409.524 5.07434 -0.372559 0
M  V30 4347 H 408.922 4.91287 2.80452 0
M  V30 4348 H 407.479 5.84131 2.89197 0
M  V30 4349 N 410.912 0.523116 1.48665 0
M  V30 4350 C 412.137 -0.0117284 2.07397 0
M  V30 4351 C 412.562 -1.28031 1.37803 0
M  V30 4352 O 411.92 -1.75836 0.441762 0
M  V30 4353 C 411.968 -0.225786 3.59892 0
M  V30 4354 O 411.072 -1.29592 3.91509 0
M  V30 4355 H 410.413 0.0360673 0.66302 0
M  V30 4356 H 412.943 0.729066 1.9117 0
M  V30 4357 H 412.953 -0.450552 4.05505 0
M  V30 4358 H 411.628 0.700944 4.09951 0
M  V30 4359 H 410.205 -1.05436 3.57684 0
M  V30 4360 N 412.39 -1.55475 0.257931 0
M  V30 4361 C 413.32 -2.24815 -0.630912 0
M  V30 4362 C 414.301 -1.23224 -1.17259 0
M  V30 4363 O 415.486 -1.51904 -1.20991 0
M  V30 4364 C 412.616 -2.95609 -1.82298 0
M  V30 4365 C 411.57 -4.03982 -1.41359 0
M  V30 4366 C 410.896 -4.6226 -2.68738 0
M  V30 4367 C 412.196 -5.19109 -0.57648 0
M  V30 4368 H 413.89 -2.99354 -0.0526878 0
M  V30 4369 H 411.436 -1.4398 -0.023901 0
M  V30 4370 H 413.389 -3.42822 -2.45054 0
M  V30 4371 H 412.113 -2.18577 -2.42676 0
M  V30 4372 H 410.772 -3.57555 -0.809324 0
M  V30 4373 H 410.42 -3.81915 -3.27338 0
M  V30 4374 H 410.12 -5.35424 -2.42065 0
M  V30 4375 H 411.644 -5.12212 -3.32372 0
M  V30 4376 H 413.058 -5.62479 -1.10861 0
M  V30 4377 H 411.455 -5.98729 -0.405351 0
M  V30 4378 H 412.525 -4.83174 0.408776 0
M  V30 4379 N 413.868 0.0150385 -1.57593 0
M  V30 4380 C 414.8 1.03912 -2.04291 0
M  V30 4381 C 415.813 1.31618 -0.958146 0
M  V30 4382 O 417.002 1.28859 -1.23522 0
M  V30 4383 C 414.102 2.37749 -2.41514 0
M  V30 4384 C 413.275 2.29198 -3.72541 0
M  V30 4385 C 412.334 3.45598 -3.96797 0
M  V30 4386 O 411.36 3.24461 -4.67668 0
M  V30 4387 N 412.562 4.67945 -3.43523 0
M  V30 4388 H 415.327 0.64099 -2.92765 0
M  V30 4389 H 412.888 0.20272 -1.60626 0
M  V30 4390 H 414.88 3.14364 -2.54867 0
M  V30 4391 H 413.45 2.69357 -1.58637 0
M  V30 4392 H 412.67 1.3759 -3.69408 0
M  V30 4393 H 413.958 2.20642 -4.5847 0
M  V30 4394 H 413.356 4.88017 -2.86104 0
M  V30 4395 H 411.913 5.41878 -3.62232 0
M  V30 4396 N 415.346 1.54954 0.287554 0
M  V30 4397 C 416.594 1.74528 1.01904 0
M  V30 4398 C 416.915 0.541349 1.87335 0
M  V30 4399 O 416.185 -0.444108 1.908 0
M  V30 4400 H 414.765 0.643576 0.379235 0
M  V30 4401 H 417.427 1.92333 0.315294 0
M  V30 4402 H 416.523 2.64015 1.6644 0
M  V30 4403 N 416.824 -0.551391 1.4764 0
M  V30 4404 C 418.072 -1.30572 1.54258 0
M  V30 4405 C 418.393 -1.93877 0.208963 0
M  V30 4406 O 417.663 -1.80234 -0.767619 0
M  V30 4407 H 416.243 -0.484894 0.568231 0
M  V30 4408 H 418.905 -0.643402 1.83974 0
M  V30 4409 H 418.001 -2.09621 2.31226 0
M  V30 4410 N 418.302 -1.35869 -0.798587 0
M  V30 4411 C 419.234 -1.25305 -1.91915 0
M  V30 4412 C 420.247 -0.174548 -1.61862 0
M  V30 4413 O 421.436 -0.428499 -1.73281 0
M  V30 4414 C 418.536 -0.9086 -3.26493 0
M  V30 4415 C 417.709 -2.08711 -3.84394 0
M  V30 4416 C 416.768 -1.71717 -4.97393 0
M  V30 4417 O 415.794 -2.43692 -5.14396 0
M  V30 4418 N 416.996 -0.645473 -5.769 0
M  V30 4419 H 419.761 -2.21849 -2.01502 0
M  V30 4420 H 417.322 -1.29143 -0.976408 0
M  V30 4421 H 419.314 -0.642455 -3.99568 0
M  V30 4422 H 417.884 -0.0325815 -3.12583 0
M  V30 4423 H 417.104 -2.51659 -3.03416 0
M  V30 4424 H 418.392 -2.87468 -4.19809 0
M  V30 4425 H 417.79 -0.047648 -5.6568 0
M  V30 4426 H 416.347 -0.43913 -6.50319 0
M  V30 4427 N 419.78 1.02168 -1.19998 0
M  V30 4428 C 421.028 1.75338 -1.00504 0
M  V30 4429 C 421.349 1.89387 0.464506 0
M  V30 4430 O 420.619 1.43268 1.33608 0
M  V30 4431 H 419.199 0.649564 -0.368885 0
M  V30 4432 H 421.861 1.23205 -1.51018 0
M  V30 4433 H 420.957 2.75892 -1.45912 0
M  V30 4434 N 421.258 1.00505 1.21394 0
M  V30 4435 C 422.669 0.721082 1.72213 0
M  V30 4436 C 423.02 -0.761263 1.80829 0
M  V30 4437 O 422.145 -1.59464 1.46288 0
M  V30 4438 C 422.74 1.30228 3.12772 0
M  V30 4439 C 421.299 1.06743 3.60947 0
M  V30 4440 C 420.446 1.41507 2.38477 0
M  V30 4441 H 423.397 1.17594 1.06571 0
M  V30 4442 H 423.418 0.686955 3.74247 0
M  V30 4443 H 422.93 2.38115 3.06468 0
M  V30 4444 H 421.031 0.00572162 3.726 0
M  V30 4445 H 421.144 1.73936 4.46411 0
M  V30 4446 H 419.508 0.833852 2.40664 0
M  V30 4447 H 420.291 2.50424 2.34824 0
M  V30 4448 N 422.737 -1.36956 0.779787 0
M  V30 4449 C 423.7 -2.2851 0.177662 0
M  V30 4450 C 424.7 -1.48393 -0.619377 0
M  V30 4451 O 425.89 -1.68505 -0.441785 0
M  V30 4452 C 423.022 -3.32428 -0.755279 0
M  V30 4453 H 424.215 -2.83269 0.984823 0
M  V30 4454 H 421.768 -1.46358 0.548544 0
M  V30 4455 H 422.503 -2.82808 -1.58714 0
M  V30 4456 H 422.288 -3.91659 -0.185817 0
M  V30 4457 H 423.778 -4.00824 -1.17174 0
M  V30 4458 N 424.215 -0.530993 -1.48385 0
M  V30 4459 C 425.626 -0.0907905 -1.86479 0
M  V30 4460 C 425.977 1.33213 -1.44044 0
M  V30 4461 O 425.102 1.99783 -0.831615 0
M  V30 4462 C 425.697 -0.157987 -3.38431 0
M  V30 4463 C 424.256 0.227026 -3.75715 0
M  V30 4464 C 423.403 -0.5173 -2.72432 0
M  V30 4465 H 426.354 -0.742186 -1.40276 0
M  V30 4466 H 426.375 0.630053 -3.75247 0
M  V30 4467 H 425.887 -1.19372 -3.69286 0
M  V30 4468 H 423.988 1.26486 -3.50474 0
M  V30 4469 H 424.101 -0.113288 -4.78966 0
M  V30 4470 H 422.465 0.0365527 -2.54674 0
M  V30 4471 H 423.248 -1.55368 -3.0613 0
M  V30 4472 N 425.693 1.55336 -0.266172 0
M  V30 4473 C 427.109 1.59356 0.0882065 0
M  V30 4474 C 427.309 1.2834 1.55342 0
M  V30 4475 O 426.365 1.03996 2.30089 0
M  V30 4476 C 427.678 2.99409 -0.278364 0
M  V30 4477 C 429.226 3.12196 -0.224243 0
M  V30 4478 C 429.701 4.545 -0.565123 0
M  V30 4479 N 431.192 4.60313 -0.51634 0
M  V30 4480 C 431.927 5.68434 -0.753013 0
M  V30 4481 N 431.423 6.84738 -1.05383 0
M  V30 4482 N 433.216 5.57942 -0.682414 0
M  V30 4483 H 425.367 1.73764 -1.22147 0
M  V30 4484 H 427.63 0.809822 -0.492841 0
M  V30 4485 H 427.336 3.2691 -1.29703 0
M  V30 4486 H 427.21 3.75228 0.385186 0
M  V30 4487 H 429.597 2.84464 0.78512 0
M  V30 4488 H 429.678 2.38609 -0.921922 0
M  V30 4489 H 429.322 4.82956 -1.57213 0
M  V30 4490 H 429.252 5.26374 0.154248 0
M  V30 4491 H 431.743 3.7676 -0.29335 0
M  V30 4492 H 432.056 7.63088 -1.22133 0
M  V30 4493 H 430.401 6.86375 -1.09151 0
M  V30 4494 H 433.592 4.65958 -0.44731 0
M  V30 4495 H 433.765 6.4213 -0.870248 0
M  V30 4496 N 427.171 -0.0066808 1.57599 0
M  V30 4497 C 428.587 -0.36267 1.55425 0
M  V30 4498 C 428.787 -1.75209 0.995187 0
M  V30 4499 O 427.843 -2.44616 0.626058 0
M  V30 4500 C 429.156 -0.244017 2.99708 0
M  V30 4501 C 430.704 -0.319451 3.11366 0
M  V30 4502 C 431.179 -0.229998 4.57422 0
M  V30 4503 N 432.67 -0.288105 4.62303 0
M  V30 4504 C 433.405 -0.242127 5.72889 0
M  V30 4505 N 432.901 -0.147133 6.92644 0
M  V30 4506 N 434.694 -0.293502 5.61333 0
M  V30 4507 H 426.845 0.902314 1.92281 0
M  V30 4508 H 429.108 0.34525 0.882896 0
M  V30 4509 H 428.814 0.711678 3.44424 0
M  V30 4510 H 428.688 -1.02877 3.629 0
M  V30 4511 H 431.075 -1.26559 2.66584 0
M  V30 4512 H 431.156 0.495055 2.50964 0
M  V30 4513 H 430.8 0.712566 5.02877 0
M  V30 4514 H 430.73 -1.0629 5.15761 0
M  V30 4515 H 433.221 -0.363126 3.76151 0
M  V30 4516 H 433.534 -0.117763 7.7271 0
M  V30 4517 H 431.879 -0.112857 6.94908 0
M  V30 4518 H 435.07 -0.365864 4.66668 0
M  V30 4519 H 435.243 -0.254204 6.47501 0
M  V30 4520 N 428.649 -1.55105 -0.279332 0
M  V30 4521 C 430.06 -1.66186 -0.850832 0
M  V30 4522 C 430.411 -0.584707 -1.87285 0
M  V30 4523 O 429.536 0.274919 -2.14647 0
M  V30 4524 C 430.131 -3.01264 -1.55001 0
M  V30 4525 C 428.69 -3.14394 -2.06963 0
M  V30 4526 C 427.837 -2.61959 -0.909536 0
M  V30 4527 H 430.788 -1.58602 -0.0558235 0
M  V30 4528 H 430.809 -2.93899 -2.41669 0
M  V30 4529 H 430.321 -3.7964 -0.805931 0
M  V30 4530 H 428.422 -2.4078 -2.84352 0
M  V30 4531 H 428.535 -4.20867 -2.28928 0
M  V30 4532 H 426.899 -2.18957 -1.30116 0
M  V30 4533 H 427.682 -3.42833 -0.179062 0
M  V30 4534 N 430.127 0.543554 -1.4793 0
M  V30 4535 C 431.373 1.29961 -1.56466 0
M  V30 4536 C 431.728 1.91024 -0.229696 0
M  V30 4537 O 431.021 1.75619 0.766072 0
M  V30 4538 C 431.215 2.42078 -2.62932 0
M  V30 4539 C 431.044 1.92003 -4.06651 0
M  V30 4540 C 429.814 1.75223 -4.73946 0
M  V30 4541 C 432.012 1.45648 -4.93245 0
M  V30 4542 N 429.994 1.19632 -6.02131 0
M  V30 4543 C 431.365 1.01914 -6.11566 0
M  V30 4544 C 433.42 1.33826 -4.79578 0
M  V30 4545 C 432.123 0.475301 -7.17728 0
M  V30 4546 C 434.149 0.808427 -5.85848 0
M  V30 4547 C 433.511 0.381081 -7.03368 0
M  V30 4548 H 429.61 0.467086 -0.62718 0
M  V30 4549 H 432.194 0.614543 -1.84747 0
M  V30 4550 H 430.365 3.08098 -2.36496 0
M  V30 4551 H 432.097 3.09096 -2.61231 0
M  V30 4552 H 428.852 1.98345 -4.30065 0
M  V30 4553 H 429.276 0.93885 -6.70458 0
M  V30 4554 H 433.918 1.65474 -3.89074 0
M  V30 4555 H 431.636 0.146472 -8.07967 0
M  V30 4556 H 435.222 0.720315 -5.77324 0
M  V30 4557 H 434.102 -0.0225344 -7.84197 0
M  V30 4558 N 431.605 1.3629 0.791371 0
M  V30 4559 C 432.515 1.32606 1.93527 0
M  V30 4560 C 433.531 0.228541 1.72493 0
M  V30 4561 O 434.707 0.460571 1.96063 0
M  V30 4562 C 431.772 1.11271 3.28359 0
M  V30 4563 C 430.833 2.3048 3.62185 0
M  V30 4564 C 430.066 2.10154 4.90583 0
M  V30 4565 O 430.289 1.07572 5.60165 0
M  V30 4566 O 429.223 2.97884 5.23019 0
M  V30 4567 H 433.049 2.28909 1.99585 0
M  V30 4568 H 430.634 1.16818 0.931344 0
M  V30 4569 H 432.516 1.01283 4.09047 0
M  V30 4570 H 431.191 0.180292 3.23198 0
M  V30 4571 H 430.098 2.46036 2.81811 0
M  V30 4572 H 431.431 3.22221 3.72068 0
M  V30 4573 N 433.083 -1.0153 1.20538 0
M  V30 4574 C 434.499 -1.27461 0.96051 0
M  V30 4575 C 434.699 -1.98273 -0.359193 0
M  V30 4576 O 433.755 -2.27886 -1.0874 0
M  V30 4577 C 435.068 -2.10837 2.14402 0
M  V30 4578 C 436.616 -2.24099 2.18515 0
M  V30 4579 C 437.091 -3.10852 3.36355 0
M  V30 4580 N 438.582 -3.18441 3.36377 0
M  V30 4581 C 439.317 -3.85795 4.24205 0
M  V30 4582 N 438.813 -4.55264 5.22213 0
M  V30 4583 N 440.606 -3.82331 4.12043 0
M  V30 4584 H 432.757 -0.539907 2.05423 0
M  V30 4585 H 435.02 -0.30092 0.898972 0
M  V30 4586 H 434.726 -1.66144 3.09983 0
M  V30 4587 H 434.6 -3.11576 2.12604 0
M  V30 4588 H 436.987 -2.68016 1.23497 0
M  V30 4589 H 437.068 -1.22865 2.24361 0
M  V30 4590 H 436.712 -2.6764 4.31661 0
M  V30 4591 H 436.642 -4.12177 3.27746 0
M  V30 4592 H 439.133 -2.68978 2.65442 0
M  V30 4593 H 439.446 -5.04331 5.85551 0
M  V30 4594 H 437.791 -4.54085 5.26148 0
M  V30 4595 H 440.982 -3.27207 3.34743 0
M  V30 4596 H 441.155 -4.34547 4.807 0
M  V30 4597 N 434.561 -1.01147 -1.20859 0
M  V30 4598 C 435.809 -0.696486 -1.89719 0
M  V30 4599 C 436.13 0.775788 -1.78904 0
M  V30 4600 O 435.4 1.55759 -1.18811 0
M  V30 4601 H 433.98 -0.254628 -0.702263 0
M  V30 4602 H 436.642 -1.28197 -1.46804 0
M  V30 4603 H 435.738 -0.975357 -2.96468 0
M  V30 4604 N 436.039 1.36541 -0.78704 0
M  V30 4605 C 437.316 1.9355 -0.282424 0
M  V30 4606 C 437.696 1.71919 1.22503 0
M  V30 4607 O 437.044 1.07677 2.01539 0
M  V30 4608 C 437.254 3.4246 -0.672462 0
M  V30 4609 C 438.602 4.19582 -0.650863 0
M  V30 4610 O 439.626 3.50889 -0.612789 0
M  V30 4611 O 438.485 5.42106 -0.691623 0
M  V30 4612 H 435.579 0.824091 -0.0693 0
M  V30 4613 H 438.125 1.45736 -0.869423 0
M  V30 4614 H 436.897 3.51851 -1.71221 0
M  V30 4615 H 436.52 3.97556 -0.0592211 0
M  V30 4616 N 437.518 0.538854 1.48102 0
M  V30 4617 C 438.766 0.00798599 2.02098 0
M  V30 4618 C 439.087 -1.33922 1.41739 0
M  V30 4619 O 438.357 -1.86932 0.585934 0
M  V30 4620 H 436.937 -3.62179e-05 0.747 0
M  V30 4621 H 439.599 0.7047 1.81714 0
M  V30 4622 H 438.695 -0.0937672 3.11959 0
M  V30 4623 N 438.996 -1.55193 0.274407 0
M  V30 4624 C 439.928 -2.1989 -0.646595 0
M  V30 4625 C 440.941 -1.1834 -1.11801 0
M  V30 4626 O 442.13 -1.4507 -1.04004 0
M  V30 4627 C 439.23 -2.8104 -1.89393 0
M  V30 4628 C 438.403 -4.08274 -1.56943 0
M  V30 4629 C 437.462 -4.53478 -2.66916 0
M  V30 4630 O 436.488 -5.19267 -2.33132 0
M  V30 4631 N 437.69 -4.2356 -3.9696 0
M  V30 4632 H 440.455 -2.99556 -0.0928686 0
M  V30 4633 H 438.016 -1.61618 0.0954783 0
M  V30 4634 H 440.008 -3.08226 -2.62257 0
M  V30 4635 H 438.578 -2.05372 -2.35672 0
M  V30 4636 H 437.798 -3.88384 -0.674655 0
M  V30 4637 H 439.086 -4.91173 -1.32764 0
M  V30 4638 H 438.484 -3.70799 -4.27229 0
M  V30 4639 H 437.041 -4.55518 -4.66205 0
M  V30 4640 N 440.474 -0.00167713 -1.576 0
M  V30 4641 C 441.751 0.719951 -1.81868 0
M  V30 4642 C 442.131 1.91895 -0.879747 0
M  V30 4643 O 441.479 2.28389 0.0711423 0
M  V30 4644 C 441.689 1.12409 -3.30402 0
M  V30 4645 C 443.037 1.52724 -3.96182 0
M  V30 4646 O 444.061 1.21784 -3.34734 0
M  V30 4647 O 442.92 2.10265 -5.04431 0
M  V30 4648 H 440.014 0.350707 -0.748955 0
M  V30 4649 H 442.56 -0.0272597 -1.69678 0
M  V30 4650 H 441.332 0.269532 -3.90371 0
M  V30 4651 H 440.955 1.93035 -3.47596 0
M  V30 4652 N 441.952 1.55251 0.271103 0
M  V30 4653 C 443.198 1.76207 1.00394 0
M  V30 4654 C 443.531 0.562604 1.85872 0
M  V30 4655 O 442.806 -0.439785 1.89463 0
M  V30 4656 C 443.089 3.06828 1.8849 0
M  V30 4657 C 442.942 4.37134 1.05992 0
M  V30 4658 C 444.261 3.33503 2.87165 0
M  V30 4659 H 441.38 0.641086 0.363562 0
M  V30 4660 H 444.022 1.87982 0.276189 0
M  V30 4661 H 442.172 2.96921 2.5054 0
M  V30 4662 H 443.844 4.59001 0.459978 0
M  V30 4663 H 442.087 4.32275 0.363443 0
M  V30 4664 H 442.758 5.2486 1.70955 0
M  V30 4665 H 445.234 3.43215 2.3525 0
M  V30 4666 H 444.11 4.2616 3.45946 0
M  V30 4667 H 444.371 2.53235 3.62387 0
M  V30 4668 N 443.43 -0.535701 1.48216 0
M  V30 4669 C 444.655 -1.32149 1.59848 0
M  V30 4670 C 445.08 -1.86338 0.256842 0
M  V30 4671 O 444.438 -1.64107 -0.770632 0
M  V30 4672 C 444.486 -2.45224 2.64381 0
M  V30 4673 O 443.59 -3.48093 2.21144 0
M  V30 4674 H 442.931 -0.391634 0.536208 0
M  V30 4675 H 445.461 -0.645202 1.94161 0
M  V30 4676 H 445.471 -2.91491 2.85476 0
M  V30 4677 H 444.146 -2.05143 3.61786 0
M  V30 4678 H 442.723 -3.07984 2.10239 0
M  V30 4679 N 444.908 -1.36708 -0.784132 0
M  V30 4680 C 445.871 -1.31307 -1.87859 0
M  V30 4681 C 446.871 -0.219654 -1.59293 0
M  V30 4682 O 448.061 -0.47476 -1.67606 0
M  V30 4683 C 445.193 -1.03679 -3.24751 0
M  V30 4684 H 446.386 -2.28647 -1.94064 0
M  V30 4685 H 443.939 -1.21558 -0.98252 0
M  V30 4686 H 444.674 -0.0681936 -3.24228 0
M  V30 4687 H 444.459 -1.82811 -3.46876 0
M  V30 4688 H 445.949 -1.02518 -4.04821 0
M  V30 4689 N 446.386 1.0089 -1.21074 0
M  V30 4690 C 447.802 1.2695 -0.967257 0
M  V30 4691 C 448.002 1.9846 0.348673 0
M  V30 4692 O 447.058 2.28459 1.0753 0
M  V30 4693 C 448.371 2.09697 -2.15517 0
M  V30 4694 C 449.919 2.22937 -2.197 0
M  V30 4695 C 450.394 3.09064 -3.37999 0
M  V30 4696 N 451.885 3.16653 -3.38061 0
M  V30 4697 C 452.62 3.8354 -4.26245 0
M  V30 4698 N 452.116 4.52488 -5.2462 0
M  V30 4699 N 453.909 3.80141 -4.14064 0
M  V30 4700 H 446.06 0.529005 -2.05707 0
M  V30 4701 H 448.323 0.296148 -0.900556 0
M  V30 4702 H 448.029 1.64497 -3.10859 0
M  V30 4703 H 447.903 3.10444 -2.14253 0
M  V30 4704 H 450.29 2.67357 -1.24916 0
M  V30 4705 H 450.371 1.21673 -2.2501 0
M  V30 4706 H 450.015 2.65347 -4.33074 0
M  V30 4707 H 449.945 4.10433 -3.29928 0
M  V30 4708 H 452.436 2.67566 -2.66865 0
M  V30 4709 H 452.749 5.01219 -5.88217 0
M  V30 4710 H 451.094 4.51288 -5.28549 0
M  V30 4711 H 454.285 3.25427 -3.36474 0
M  V30 4712 H 454.458 4.31992 -4.82998 0
M  V30 4713 N 447.864 1.01787 1.20321 0
M  V30 4714 C 448.796 0.547357 2.22568 0
M  V30 4715 C 449.809 -0.370922 1.58518 0
M  V30 4716 O 450.998 -0.169067 1.77698 0
M  V30 4717 C 448.098 -0.223031 3.38165 0
M  V30 4718 C 447.271 0.697472 4.31803 0
M  V30 4719 C 446.33 -0.025562 5.26194 0
M  V30 4720 O 445.356 0.597367 5.66057 0
M  V30 4721 N 446.558 -1.29999 5.65757 0
M  V30 4722 H 449.323 1.42668 2.63564 0
M  V30 4723 H 446.884 0.895552 1.34876 0
M  V30 4724 H 448.876 -0.716002 3.98316 0
M  V30 4725 H 447.446 -1.00366 2.9605 0
M  V30 4726 H 446.666 1.37073 3.69601 0
M  V30 4727 H 447.954 1.32347 4.91286 0
M  V30 4728 H 447.352 -1.827 5.35385 0
M  V30 4729 H 445.909 -1.73766 6.28211 0
M  V30 4730 N 449.342 -1.36122 0.79427 0
M  V30 4731 C 450.305 -2.28309 0.201889 0
M  V30 4732 C 451.305 -1.49041 -0.603603 0
M  V30 4733 O 452.495 -1.68964 -0.423888 0
M  V30 4734 C 449.627 -3.3321 -0.719978 0
M  V30 4735 H 450.82 -2.82208 1.01481 0
M  V30 4736 H 448.373 -1.45768 0.564037 0
M  V30 4737 H 449.108 -2.84475 -1.55706 0
M  V30 4738 H 448.893 -3.91835 -0.144266 0
M  V30 4739 H 450.383 -4.02044 -1.12916 0
M  V30 4740 N 450.82 -0.546701 -1.47814 0
M  V30 4741 C 452.067 -0.0187407 -2.02491 0
M  V30 4742 C 452.395 1.32685 -1.42215 0
M  V30 4743 O 451.65 1.87413 -0.563454 0
M  V30 4744 C 451.949 0.134869 -3.57145 0
M  V30 4745 C 451.615 -1.13849 -4.3629 0
M  V30 4746 C 450.277 -1.48743 -4.57634 0
M  V30 4747 C 452.629 -1.98277 -4.82012 0
M  V30 4748 C 449.957 -2.67932 -5.21948 0
M  V30 4749 C 452.309 -3.16659 -5.4764 0
M  V30 4750 C 450.973 -3.51879 -5.67219 0
M  V30 4751 H 450.243 -0.0068577 -0.740968 0
M  V30 4752 H 452.89 -0.716097 -1.77607 0
M  V30 4753 H 451.195 0.915118 -3.80963 0
M  V30 4754 H 452.892 0.558556 -3.97091 0
M  V30 4755 H 449.482 -0.856767 -4.19949 0
M  V30 4756 H 453.666 -1.72628 -4.6531 0
M  V30 4757 H 448.922 -2.95401 -5.35302 0
M  V30 4758 H 453.096 -3.82374 -5.82033 0
M  V30 4759 H 450.723 -4.44331 -6.16825 0
M  V30 4760 N 452.299 1.55045 -0.282633 0
M  V30 4761 C 453.231 2.2023 0.634924 0
M  V30 4762 C 454.244 1.18931 1.11172 0
M  V30 4763 O 455.433 1.4562 1.03233 0
M  V30 4764 C 452.533 2.82041 1.87899 0
M  V30 4765 C 451.706 4.091 1.54776 0
M  V30 4766 C 450.765 4.54887 2.64507 0
M  V30 4767 O 449.791 5.20496 2.30375 0
M  V30 4768 N 450.993 4.25659 3.94709 0
M  V30 4769 H 453.758 2.99601 0.0769811 0
M  V30 4770 H 451.319 1.61565 -0.104048 0
M  V30 4771 H 453.311 3.09613 2.60619 0
M  V30 4772 H 451.881 2.06618 2.3458 0
M  V30 4773 H 451.101 3.88736 0.654049 0
M  V30 4774 H 452.389 4.9187 1.30158 0
M  V30 4775 H 451.787 3.7306 4.25256 0
M  V30 4776 H 450.344 4.57984 4.63782 0
M  V30 4777 N 453.777 0.010035 1.57597 0
M  V30 4778 C 454.74 -0.963029 2.07986 0
M  V30 4779 C 455.74 -1.26619 0.991173 0
M  V30 4780 O 456.93 -1.2097 1.25347 0
M  V30 4781 C 454.062 -2.2851 2.52974 0
M  V30 4782 H 455.255 -0.526971 2.95234 0
M  V30 4783 H 452.808 -0.237639 1.54483 0
M  V30 4784 H 453.543 -2.76784 1.69 0
M  V30 4785 H 453.328 -2.07824 3.32493 0
M  V30 4786 H 454.818 -2.98294 2.9225 0
M  V30 4787 N 455.255 -1.55392 -0.262866 0
M  V30 4788 C 456.218 -1.88181 -1.30846 0
M  V30 4789 C 457.218 -0.757079 -1.41862 0
M  V30 4790 O 458.408 -1.02519 -1.40838 0
M  V30 4791 C 455.54 -2.09609 -2.68844 0
M  V30 4792 H 456.733 -2.81659 -1.02997 0
M  V30 4793 H 454.286 -1.48039 -0.501414 0
M  V30 4794 H 455.021 -1.18547 -3.01856 0
M  V30 4795 H 454.806 -2.91508 -2.62231 0
M  V30 4796 H 456.296 -2.36215 -3.44372 0
M  V30 4797 N 456.733 0.527833 -1.48498 0
M  V30 4798 C 457.68 1.6322 -1.6318 0
M  V30 4799 C 458.65 1.59199 -0.473815 0
M  V30 4800 O 459.835 1.77591 -0.697563 0
M  V30 4801 C 456.975 3.01474 -1.67951 0
M  V30 4802 C 456.088 3.15713 -2.94871 0
M  V30 4803 C 455.223 4.44539 -2.90789 0
M  V30 4804 C 454.262 4.52315 -4.12404 0
M  V30 4805 N 453.399 5.72533 -4.06387 0
M  V30 4806 H 458.239 1.50011 -2.57489 0
M  V30 4807 H 455.776 0.730298 -1.27691 0
M  V30 4808 H 457.734 3.81572 -1.68698 0
M  V30 4809 H 456.364 3.1345 -0.771306 0
M  V30 4810 H 455.416 2.28854 -3.03859 0
M  V30 4811 H 456.728 3.1732 -3.8485 0
M  V30 4812 H 455.882 5.3293 -2.89949 0
M  V30 4813 H 454.621 4.45457 -1.98542 0
M  V30 4814 H 453.626 3.62331 -4.13517 0
M  V30 4815 H 454.851 4.53134 -5.05812 0
M  V30 4816 H 452.797 5.74344 -3.16962 0
M  V30 4817 H 452.714 5.75643 -4.90073 0
M  V30 4818 H 453.982 6.63204 -4.0961 0
M  V30 4819 N 458.211 1.37122 0.776871 0
M  V30 4820 C 459.46 1.31373 1.53049 0
M  V30 4821 C 459.773 -0.101016 1.95339 0
M  V30 4822 O 460.979 -0.280953 2.70042 0
M  V30 4823 C 459.435 2.30567 2.76346 0
M  V30 4824 C 459.043 3.77543 2.41175 0
M  V30 4825 C 460.787 2.33818 3.54301 0
M  V30 4826 C 458.694 4.68481 3.60943 0
M  V30 4827 H 457.624 0.488234 0.574581 0
M  V30 4828 H 460.275 1.62554 0.851372 0
M  V30 4829 H 458.657 1.92396 3.46121 0
M  V30 4830 H 459.831 4.24521 1.79216 0
M  V30 4831 H 458.146 3.77187 1.76405 0
M  V30 4832 H 460.743 2.98965 4.4331 0
M  V30 4833 H 461.086 1.3503 3.93793 0
M  V30 4834 H 461.619 2.7067 2.91518 0
M  V30 4835 H 458.358 5.68378 3.26537 0
M  V30 4836 H 457.878 4.2621 4.22025 0
M  V30 4837 H 459.557 4.85366 4.27819 0
M  V30 4838 N 459.689 -1.00246 1.21608 0
M  V30 4839 C 460.938 -1.73476 1.02902 0
M  V30 4840 C 461.251 -1.90643 -0.437561 0
M  V30 4841 O 462.457 -2.61105 -0.74407 0
M  V30 4842 C 460.913 -3.12079 1.79261 0
M  V30 4843 C 460.521 -3.02877 3.30106 0
M  V30 4844 C 462.265 -3.89421 1.68972 0
M  V30 4845 C 460.172 -4.36575 3.98944 0
M  V30 4846 H 459.102 -0.650408 0.381425 0
M  V30 4847 H 461.753 -1.11985 1.45367 0
M  V30 4848 H 460.135 -3.74196 1.2959 0
M  V30 4849 H 461.309 -2.49983 3.87098 0
M  V30 4850 H 459.624 -2.39022 3.40965 0
M  V30 4851 H 462.221 -4.88362 2.17731 0
M  V30 4852 H 462.564 -4.1122 0.648397 0
M  V30 4853 H 463.097 -3.33963 2.16133 0
M  V30 4854 H 459.836 -4.19978 5.03288 0
M  V30 4855 H 459.356 -4.8942 3.4674 0
M  V30 4856 H 461.035 -5.05364 4.04 0
M  V30 4857 N 461.167 -1.02423 -1.1978 0
M  V30 4858 C 462.395 -0.737456 -1.93311 0
M  V30 4859 C 462.81 0.703023 -1.75223 0
M  V30 4860 O 462.167 1.47761 -1.07112 0
M  V30 4861 C 462.218 -1.0733 -3.45199 0
M  V30 4862 O 461.939 -2.4572 -3.62702 0
M  V30 4863 C 463.44 -0.80866 -4.35862 0
M  V30 4864 H 460.66 -0.2702 -0.614193 0
M  V30 4865 H 463.204 -1.36747 -1.52054 0
M  V30 4866 H 461.359 -0.488545 -3.84307 0
M  V30 4867 H 461.773 -2.58081 -4.56612 0
M  V30 4868 H 463.247 -1.09365 -5.41057 0
M  V30 4869 H 463.724 0.257025 -4.38447 0
M  V30 4870 H 464.33 -1.37592 -4.02428 0
M  V30 4871 N 462.645 1.35699 -0.801477 0
M  V30 4872 C 463.875 2.02862 -0.3912 0
M  V30 4873 C 464.283 1.60552 1.00099 0
M  V30 4874 O 463.626 0.796215 1.65548 0
M  V30 4875 C 463.688 3.57386 -0.389299 0
M  V30 4876 C 463.352 4.22943 -1.73113 0
M  V30 4877 C 464.349 4.44984 -2.68859 0
M  V30 4878 C 462.034 4.60167 -2.01373 0
M  V30 4879 C 464.028 5.03345 -3.91053 0
M  V30 4880 C 461.715 5.18243 -3.23832 0
M  V30 4881 C 462.713 5.39773 -4.1849 0
M  V30 4882 O 462.401 5.96626 -5.38788 0
M  V30 4883 H 462.133 0.657341 -0.157732 0
M  V30 4884 H 464.687 1.74407 -1.08496 0
M  V30 4885 H 462.917 3.85011 0.361031 0
M  V30 4886 H 464.606 4.059 -0.0020365 0
M  V30 4887 H 465.372 4.1661 -2.48316 0
M  V30 4888 H 461.251 4.42726 -1.28508 0
M  V30 4889 H 464.795 5.20065 -4.64949 0
M  V30 4890 H 460.692 5.46044 -3.44248 0
M  V30 4891 H 461.46 6.15082 -5.40015 0
M  V30 4892 N 464.123 0.554532 1.47522 0
M  V30 4893 C 465.07 -0.19466 2.29978 0
M  V30 4894 C 466.04 -0.910882 1.38896 0
M  V30 4895 O 467.225 -0.907102 1.67858 0
M  V30 4896 C 464.365 -1.22035 3.22802 0
M  V30 4897 C 463.478 -0.510474 4.28973 0
M  V30 4898 C 462.613 -1.52123 5.08952 0
M  V30 4899 C 461.652 -0.796173 6.069 0
M  V30 4900 N 460.789 -1.75363 6.79847 0
M  V30 4901 H 465.629 0.51461 2.93523 0
M  V30 4902 H 463.166 0.265607 1.44682 0
M  V30 4903 H 465.124 -1.8276 3.7504 0
M  V30 4904 H 463.754 -1.89769 2.61127 0
M  V30 4905 H 462.806 0.211234 3.79813 0
M  V30 4906 H 464.118 0.0576503 4.98767 0
M  V30 4907 H 463.272 -2.20207 5.65326 0
M  V30 4908 H 462.011 -2.12327 4.39054 0
M  V30 4909 H 461.016 -0.101388 5.49707 0
M  V30 4910 H 462.241 -0.199911 6.78806 0
M  V30 4911 H 460.187 -2.3443 6.12682 0
M  V30 4912 H 460.104 -1.23759 7.45801 0
M  V30 4913 H 461.372 -2.4257 7.40797 0
M  V30 4914 N 465.601 -1.54893 0.290851 0
M  V30 4915 C 466.878 -1.91991 -0.373989 0
M  V30 4916 C 467.258 -1.21694 -1.72493 0
M  V30 4917 O 466.606 -0.34917 -2.25816 0
M  V30 4918 C 466.816 -3.45419 -0.498703 0
M  V30 4919 C 468.164 -4.1748 -0.774298 0
M  V30 4920 O 469.188 -3.51398 -0.582908 0
M  V30 4921 O 468.047 -5.3445 -1.14129 0
M  V30 4922 H 465.141 -0.800593 -0.207315 0
M  V30 4923 H 467.687 -1.66297 0.338164 0
M  V30 4924 H 466.459 -3.88688 0.451392 0
M  V30 4925 H 466.082 -3.77117 -1.25972 0
M  V30 4926 N 467.08 -0.0183926 -1.57589 0
M  V30 4927 C 468.491 0.521927 -1.79256 0
M  V30 4928 C 468.842 1.72885 -0.927636 0
M  V30 4929 O 467.967 2.15978 -0.135091 0
M  V30 4930 C 468.562 0.953632 -3.25102 0
M  V30 4931 C 467.121 1.43913 -3.47801 0
M  V30 4932 C 466.268 0.398837 -2.74417 0
M  V30 4933 H 469.219 -0.244485 -1.56805 0
M  V30 4934 H 469.24 1.81863 -3.34224 0
M  V30 4935 H 468.752 0.0750123 -3.88028 0
M  V30 4936 H 466.853 2.33804 -2.90115 0
M  V30 4937 H 466.966 1.45391 -4.56507 0
M  V30 4938 H 465.33 0.864572 -2.39577 0
M  V30 4939 H 466.113 -0.471132 -3.40052 0
M  V30 4940 N 468.558 1.5553 0.254621 0
M  V30 4941 C 469.835 1.6774 1.00611 0
M  V30 4942 C 470.215 0.555993 2.03647 0
M  V30 4943 O 469.563 -0.441583 2.24193 0
M  V30 4944 C 469.773 3.07725 1.6464 0
M  V30 4945 C 471.121 3.66074 2.15116 0
M  V30 4946 O 472.145 3.10476 1.74595 0
M  V30 4947 O 471.004 4.63526 2.89493 0
M  V30 4948 H 468.098 0.681958 0.467828 0
M  V30 4949 H 470.644 1.67863 0.24902 0
M  V30 4950 H 469.416 3.80792 0.900734 0
M  V30 4951 H 469.039 3.1158 2.46989 0
M  V30 4952 N 470.036 -0.519951 1.48776 0
M  V30 4953 C 470.984 -1.64443 1.64503 0
M  V30 4954 C 471.978 -1.61501 0.511248 0
M  V30 4955 O 473.184 -1.66238 0.690294 0
M  V30 4956 H 469.559 -0.544776 0.518385 0
M  V30 4957 H 471.53 -1.48325 2.58925 0
M  V30 4958 C 470.279 -3.02673 1.71127 0
M  V30 4959 H 469.602 -3.05635 2.57735 0
M  V30 4960 H 471.042 -3.80941 1.86172 0
M  V30 4961 C 469.501 -3.33854 0.452032 0
M  V30 4962 O 470.031 -3.99385 -0.430678 0
M  V30 4963 N 468.237 -2.88825 0.32069 0
M  V30 4964 H 467.784 -2.35674 1.03998 0
M  V30 4965 H 467.742 -3.10056 -0.520814 0
M  V30 4966 N 471.514 -1.37532 -0.769588 0
M  V30 4967 C 472.925 -1.29382 -1.346 0
M  V30 4968 C 473.276 0.0576039 -1.96115 0
M  V30 4969 O 472.401 0.95947 -1.93967 0
M  V30 4970 C 472.996 -2.34298 -2.44724 0
M  V30 4971 C 471.555 -2.29776 -2.98128 0
M  V30 4972 C 470.702 -2.18013 -1.71364 0
M  V30 4973 H 473.653 -1.48123 -0.56968 0
M  V30 4974 H 473.674 -1.99089 -3.24259 0
M  V30 4975 H 473.186 -3.32645 -1.99922 0
M  V30 4976 H 471.287 -1.34959 -3.47299 0
M  V30 4977 H 471.4 -3.23276 -3.53595 0
M  V30 4978 H 469.764 -1.64595 -1.94372 0
M  V30 4979 H 470.547 -3.18278 -1.28662 0
M  V30 4980 N 472.992 0.995999 -1.22138 0
M  V30 4981 C 473.902 2.11985 -1.00496 0
M  V30 4982 C 474.918 1.7394 0.0457701 0
M  V30 4983 O 476.094 2.00868 -0.146273 0
M  V30 4984 C 473.159 3.41779 -0.582086 0
M  V30 4985 C 472.22 3.93943 -1.70608 0
M  V30 4986 C 471.453 5.17542 -1.30328 0
M  V30 4987 O 471.676 5.70114 -0.180743 0
M  V30 4988 O 470.61 5.63382 -2.11861 0
M  V30 4989 H 474.436 2.33123 -1.94647 0
M  V30 4990 H 472.021 1.10358 -1.00705 0
M  V30 4991 H 473.903 4.1989 -0.356467 0
M  V30 4992 H 472.578 3.22007 0.330592 0
M  V30 4993 H 471.485 3.17019 -1.98619 0
M  V30 4994 H 472.818 4.18141 -2.59651 0
M  V30 4995 N 474.47 1.03057 1.19235 0
M  V30 4996 C 475.7 0.746613 1.92638 0
M  V30 4997 C 476.108 -0.698708 1.75826 0
M  V30 4998 O 475.451 -1.487 1.07861 0
M  V30 4999 C 475.513 1.02024 3.44719 0
M  V30 5000 C 475.177 2.45745 3.85303 0
M  V30 5001 C 476.174 3.43887 3.8992 0
M  V30 5002 C 473.859 2.8019 4.16892 0
M  V30 5003 C 475.853 4.74529 4.2556 0
M  V30 5004 C 473.54 4.1104 4.52205 0
M  V30 5005 C 474.538 5.0802 4.56513 0
M  V30 5006 O 474.226 6.36527 4.91008 0
M  V30 5007 H 473.958 0.272401 0.618687 0
M  V30 5008 H 476.512 1.37853 1.52269 0
M  V30 5009 H 474.742 0.331184 3.85279 0
M  V30 5010 H 476.431 0.725677 3.9936 0
M  V30 5011 H 477.197 3.18614 3.65664 0
M  V30 5012 H 473.076 2.05382 4.12722 0
M  V30 5013 H 476.62 5.50222 4.28838 0
M  V30 5014 H 472.517 4.36086 4.7592 0
M  V30 5015 H 473.285 6.41025 5.08949 0
M  V30 5016 N 475.948 -1.35272 0.808662 0
M  V30 5017 C 476.878 -2.32315 0.234981 0
M  V30 5018 C 477.859 -1.57572 -0.64071 0
M  V30 5019 O 479.044 -1.8563 -0.570551 0
M  V30 5020 C 476.174 -3.41801 -0.615601 0
M  V30 5021 C 475.128 -4.27694 0.161767 0
M  V30 5022 C 474.454 -5.28519 -0.810649 0
M  V30 5023 C 475.754 -5.04231 1.36193 0
M  V30 5024 H 477.448 -2.80543 1.04575 0
M  V30 5025 H 474.994 -1.3488 0.504315 0
M  V30 5026 H 476.947 -4.08693 -1.02702 0
M  V30 5027 H 475.671 -2.92186 -1.45928 0
M  V30 5028 H 474.33 -3.62384 0.554382 0
M  V30 5029 H 473.978 -4.75171 -1.64988 0
M  V30 5030 H 473.678 -5.8686 -0.294822 0
M  V30 5031 H 475.202 -5.98283 -1.22023 0
M  V30 5032 H 476.616 -5.64058 1.02528 0
M  V30 5033 H 475.013 -5.72077 1.81239 0
M  V30 5034 H 476.083 -4.34753 2.14751 0
M  V30 5035 N 477.426 -0.562348 -1.47226 0
M  V30 5036 C 478.336 0.185466 -2.33866 0
M  V30 5037 C 479.352 0.906713 -1.48508 0
M  V30 5038 O 480.528 0.874458 -1.81425 0
M  V30 5039 C 477.593 1.19904 -3.25306 0
M  V30 5040 C 476.654 0.484669 -4.26555 0
M  V30 5041 C 475.887 1.44996 -5.13626 0
M  V30 5042 O 476.11 2.68515 -5.03245 0
M  V30 5043 O 475.044 0.971642 -5.94006 0
M  V30 5044 H 478.87 -0.525361 -2.99121 0
M  V30 5045 H 476.455 -0.322916 -1.45868 0
M  V30 5046 H 478.337 1.78399 -3.81774 0
M  V30 5047 H 477.012 1.8917 -2.62672 0
M  V30 5048 H 475.919 -0.141605 -3.73832 0
M  V30 5049 H 477.252 -0.166634 -4.91918 0
M  V30 5050 N 478.904 1.54736 -0.299062 0
M  V30 5051 C 480.151 2.00101 0.310784 0
M  V30 5052 C 480.479 1.18746 1.54045 0
M  V30 5053 O 479.734 0.251198 1.94081 0
M  V30 5054 C 480.033 3.50199 0.713835 0
M  V30 5055 C 479.699 4.48997 -0.413873 0
M  V30 5056 C 478.361 4.7573 -0.723462 0
M  V30 5057 C 480.713 5.07839 -1.17257 0
M  V30 5058 C 478.041 5.5857 -1.79491 0
M  V30 5059 C 480.393 5.91844 -2.23392 0
M  V30 5060 C 479.057 6.16889 -2.54959 0
M  V30 5061 H 478.327 0.732221 0.113724 0
M  V30 5062 H 480.974 1.86888 -0.417756 0
M  V30 5063 H 479.279 3.61012 1.52243 0
M  V30 5064 H 480.976 3.82723 1.19684 0
M  V30 5065 H 477.566 4.28292 -0.162476 0
M  V30 5066 H 481.75 4.87188 -0.946651 0
M  V30 5067 H 477.006 5.76213 -2.04423 0
M  V30 5068 H 481.18 6.36465 -2.8264 0
M  V30 5069 H 478.807 6.80869 -3.38114 0
M  V30 5070 N 480.382 0.0267497 1.57577 0
M  V30 5071 C 481.312 -0.954308 2.13108 0
M  V30 5072 C 482.293 -1.34088 1.04663 0
M  V30 5073 O 483.478 -1.41992 1.32484 0
M  V30 5074 C 480.608 -2.23744 2.65624 0
M  V30 5075 C 479.562 -1.99168 3.78835 0
M  V30 5076 C 478.888 -3.33726 4.17769 0
M  V30 5077 C 480.188 -1.33277 5.0501 0
M  V30 5078 H 481.882 -0.491848 2.95332 0
M  V30 5079 H 479.428 -0.23514 1.42067 0
M  V30 5080 H 481.381 -2.92754 3.03106 0
M  V30 5081 H 480.105 -2.72151 1.80558 0
M  V30 5082 H 478.764 -1.32577 3.41788 0
M  V30 5083 H 478.412 -3.79888 3.29688 0
M  V30 5084 H 478.112 -3.18089 4.94058 0
M  V30 5085 H 479.636 -4.04008 4.57832 0
M  V30 5086 H 481.05 -1.92283 5.40093 0
M  V30 5087 H 479.447 -1.28045 5.8628 0
M  V30 5088 H 480.517 -0.305411 4.83937 0
M  V30 5089 N 481.861 -1.55662 -0.24637 0
M  V30 5090 C 482.808 -1.90361 -1.30504 0
M  V30 5091 C 483.778 -0.757905 -1.47801 0
M  V30 5092 O 484.963 -1.01161 -1.61775 0
M  V30 5093 C 482.103 -2.2042 -2.65535 0
M  V30 5094 C 481.216 -3.47799 -2.56242 0
M  V30 5095 C 480.351 -3.67426 -3.8363 0
M  V30 5096 C 479.39 -4.88403 -3.68956 0
M  V30 5097 N 478.527 -5.04548 -4.88237 0
M  V30 5098 H 483.367 -2.80645 -1.00213 0
M  V30 5099 H 480.904 -1.38924 -0.483577 0
M  V30 5100 H 482.862 -2.35853 -3.44135 0
M  V30 5101 H 481.492 -1.3334 -2.93973 0
M  V30 5102 H 480.544 -3.40694 -1.69208 0
M  V30 5103 H 481.856 -4.36544 -2.4131 0
M  V30 5104 H 481.01 -3.82821 -4.70673 0
M  V30 5105 H 479.749 -2.76914 -4.01459 0
M  V30 5106 H 478.754 -4.72984 -2.80296 0
M  V30 5107 H 479.979 -5.80375 -3.52621 0
M  V30 5108 H 477.925 -4.16974 -5.06427 0
M  V30 5109 H 477.842 -5.87384 -4.75937 0
M  V30 5110 H 479.11 -5.24355 -5.76777 0
M  V30 5111 N 483.339 0.512053 -1.4905 0
M  V30 5112 C 484.271 1.63121 -1.6101 0
M  V30 5113 C 485.284 1.55145 -0.493352 0
M  V30 5114 O 486.473 1.61278 -0.764955 0
M  V30 5115 C 483.573 3.01863 -1.54052 0
M  V30 5116 C 482.746 3.35138 -2.81072 0
M  V30 5117 C 481.805 4.5324 -2.67319 0
M  V30 5118 O 480.831 4.55571 -3.41238 0
M  V30 5119 N 482.033 5.52495 -1.78127 0
M  V30 5120 H 484.798 1.53292 -2.5753 0
M  V30 5121 H 482.359 0.699706 -1.45999 0
M  V30 5122 H 484.351 3.78774 -1.42521 0
M  V30 5123 H 482.921 3.05675 -0.654345 0
M  V30 5124 H 482.141 2.4723 -3.07036 0
M  V30 5125 H 483.429 3.54162 -3.65304 0
M  V30 5126 H 482.827 5.53403 -1.17308 0
M  V30 5127 H 481.384 6.28553 -1.72525 0
M  V30 5128 N 484.817 1.37938 0.762283 0
M  V30 5129 C 485.747 1.37176 1.88958 0
M  V30 5130 C 486.728 0.238945 1.68413 0
M  V30 5131 O 487.913 0.440726 1.89133 0
M  V30 5132 C 485.043 1.18742 3.2637 0
M  V30 5133 C 483.997 2.29136 3.61498 0
M  V30 5134 C 483.323 1.95816 4.97554 0
M  V30 5135 C 484.623 3.71363 3.6727 0
M  V30 5136 H 486.317 2.31509 1.89853 0
M  V30 5137 H 483.863 1.11438 0.912005 0
M  V30 5138 H 485.816 1.16837 4.04879 0
M  V30 5139 H 484.54 0.208683 3.25933 0
M  V30 5140 H 483.199 2.30213 2.85303 0
M  V30 5141 H 482.847 0.964475 4.93667 0
M  V30 5142 H 482.547 2.69745 5.22026 0
M  V30 5143 H 484.071 1.95513 5.78452 0
M  V30 5144 H 485.485 3.72364 4.35911 0
M  V30 5145 H 483.882 4.44425 4.03245 0
M  V30 5146 H 484.952 4.04305 2.67704 0
M  V30 5147 N 486.295 -0.989507 1.22664 0
M  V30 5148 C 487.242 -2.08024 0.999733 0
M  V30 5149 C 488.212 -1.65909 -0.0797047 0
M  V30 5150 O 489.397 -1.90669 0.0705715 0
M  V30 5151 C 486.537 -3.40067 0.587234 0
M  V30 5152 C 485.65 -3.95505 1.73781 0
M  V30 5153 C 484.785 -5.15722 1.27297 0
M  V30 5154 C 483.824 -5.63305 2.39488 0
M  V30 5155 N 482.961 -6.74758 1.94026 0
M  V30 5156 H 487.801 -2.26768 1.9334 0
M  V30 5157 H 485.338 -1.11171 0.963297 0
M  V30 5158 H 487.296 -4.15899 0.329227 0
M  V30 5159 H 485.926 -3.21314 -0.309426 0
M  V30 5160 H 484.978 -3.16513 2.11006 0
M  V30 5161 H 486.29 -4.26797 2.58158 0
M  V30 5162 H 485.444 -5.98854 0.972546 0
M  V30 5163 H 484.183 -4.86061 0.399445 0
M  V30 5164 H 483.188 -4.78759 2.70315 0
M  V30 5165 H 484.413 -5.94988 3.27362 0
M  V30 5166 H 482.359 -6.46874 1.09041 0
M  V30 5167 H 482.276 -7.05386 2.71968 0
M  V30 5168 H 483.544 -7.61387 1.67062 0
M  V30 5169 N 487.773 -1.03688 -1.18687 0
M  V30 5170 C 488.723 -0.595067 -2.20098 0
M  V30 5171 C 489.707 0.360465 -1.5681 0
M  V30 5172 O 490.899 0.180136 -1.76081 0
M  V30 5173 C 488.028 0.0444495 -3.43271 0
M  V30 5174 C 487.114 -0.934002 -4.13687 0
M  V30 5175 N 487.505 -2.09957 -4.60165 0
M  V30 5176 C 485.803 -0.759177 -4.39491 0
M  V30 5177 C 486.504 -2.71735 -5.1433 0
M  V30 5178 N 485.48 -1.99638 -5.05614 0
M  V30 5179 H 489.282 -1.48336 -2.5372 0
M  V30 5180 H 486.796 -0.904949 -1.3485 0
M  V30 5181 H 488.793 0.37864 -4.15177 0
M  V30 5182 H 487.453 0.928325 -3.11147 0
M  V30 5183 H 488.464 -2.47863 -4.54735 0
M  V30 5184 H 485.141 0.0749292 -4.17433 0
M  V30 5185 H 486.531 -3.70492 -5.60523 0
M  V30 5186 N 489.251 1.34841 -0.815825 0
M  V30 5187 C 490.181 2.32187 -0.247298 0
M  V30 5188 C 491.162 1.5791 0.632344 0
M  V30 5189 O 492.347 1.8593 0.560698 0
M  V30 5190 C 489.477 3.42122 0.597466 0
M  V30 5191 C 488.431 4.27602 -0.184446 0
M  V30 5192 C 487.757 5.28942 0.782609 0
M  V30 5193 C 489.057 5.03502 -1.38865 0
M  V30 5194 H 490.751 2.79985 -1.06061 0
M  V30 5195 H 488.297 1.34611 -0.511461 0
M  V30 5196 H 490.25 4.09232 1.00533 0
M  V30 5197 H 488.974 2.92956 1.44376 0
M  V30 5198 H 487.633 3.62085 -0.573592 0
M  V30 5199 H 487.281 4.7604 1.62466 0
M  V30 5200 H 486.981 5.87008 0.263695 0
M  V30 5201 H 488.505 5.98922 1.18848 0
M  V30 5202 H 489.919 5.63506 -1.05518 0
M  V30 5203 H 488.316 5.71108 -1.8427 0
M  V30 5204 H 489.386 4.33608 -2.17054 0
M  V30 5205 N 490.729 0.570148 1.46925 0
M  V30 5206 C 491.692 -0.159933 2.28641 0
M  V30 5207 C 492.692 -0.830638 1.37685 0
M  V30 5208 O 493.882 -0.684516 1.60187 0
M  V30 5209 C 491.014 -1.2354 3.17727 0
M  V30 5210 H 492.207 0.558035 2.94662 0
M  V30 5211 H 489.76 0.327603 1.52828 0
M  V30 5212 H 490.495 -1.98535 2.56426 0
M  V30 5213 H 490.28 -0.759125 3.84681 0
M  V30 5214 H 491.77 -1.74782 3.79264 0
M  V30 5215 N 492.207 -1.54576 0.307264 0
M  V30 5216 C 493.437 -2.04378 -0.302158 0
M  V30 5217 C 493.845 -1.18381 -1.47589 0
M  V30 5218 O 493.188 -0.20352 -1.82569 0
M  V30 5219 C 493.25 -3.50133 -0.815305 0
M  V30 5220 C 492.914 -4.56401 0.233977 0
M  V30 5221 C 493.911 -5.08884 1.06456 0
M  V30 5222 C 491.596 -5.0088 0.377478 0
M  V30 5223 C 493.59 -6.04394 2.02452 0
M  V30 5224 C 491.277 -5.96208 1.34088 0
M  V30 5225 C 492.275 -6.47849 2.16288 0
M  V30 5226 O 491.963 -7.41308 3.10994 0
M  V30 5227 H 491.695 -0.672502 -0.0686839 0
M  V30 5228 H 494.249 -2.00484 0.446682 0
M  V30 5229 H 492.479 -3.51371 -1.61478 0
M  V30 5230 H 494.168 -3.83098 -1.34129 0
M  V30 5231 H 494.934 -4.75311 0.964596 0
M  V30 5232 H 490.813 -4.60309 -0.252405 0
M  V30 5233 H 494.357 -6.44626 2.66652 0
M  V30 5234 H 490.254 -6.29198 1.44154 0
M  V30 5235 H 491.022 -7.5913 3.06045 0
M  V30 5236 N 493.685 -0.035106 -1.57561 0
M  V30 5237 C 494.595 0.960295 -2.14046 0
M  V30 5238 C 495.611 1.3529 -1.0942 0
M  V30 5239 O 496.787 1.43309 -1.41508 0
M  V30 5240 C 493.852 2.22214 -2.66124 0
M  V30 5241 C 492.913 1.8894 -3.85487 0
M  V30 5242 C 492.146 3.09109 -4.35072 0
M  V30 5243 O 492.369 4.21963 -3.83802 0
M  V30 5244 O 491.303 2.91058 -5.26848 0
M  V30 5245 H 495.129 0.509983 -2.99387 0
M  V30 5246 H 492.714 0.185853 -1.48239 0
M  V30 5247 H 494.596 2.96279 -2.99661 0
M  V30 5248 H 493.271 2.66414 -1.83862 0
M  V30 5249 H 492.178 1.12241 -3.56865 0
M  V30 5250 H 493.511 1.49551 -4.6893 0
M  V30 5251 N 495.163 1.55791 0.238111 0
M  V30 5252 C 496.095 1.87513 1.31802 0
M  V30 5253 C 497.108 0.762053 1.43863 0
M  V30 5254 O 498.297 1.04024 1.45056 0
M  V30 5255 C 495.397 2.05402 2.69561 0
M  V30 5256 C 494.57 3.3632 2.79656 0
M  V30 5257 C 493.629 3.43844 3.98319 0
M  V30 5258 O 492.655 4.16994 3.87433 0
M  V30 5259 N 493.857 2.73777 5.11885 0
M  V30 5260 H 496.622 2.80734 1.04922 0
M  V30 5261 H 494.183 1.56135 0.428196 0
M  V30 5262 H 496.175 2.07769 3.47296 0
M  V30 5263 H 494.745 1.18884 2.89111 0
M  V30 5264 H 493.965 3.46195 1.88528 0
M  V30 5265 H 495.253 4.22594 2.83358 0
M  V30 5266 H 494.651 2.14094 5.23622 0
M  V30 5267 H 493.208 2.81825 5.87723 0
M  V30 5268 N 496.642 -0.504142 1.49319 0
M  V30 5269 C 497.889 -1.25846 1.58647 0
M  V30 5270 C 498.217 -1.92592 0.27177 0
M  V30 5271 O 497.472 -1.81167 -0.74007 0
M  V30 5272 C 497.771 -2.35021 2.69258 0
M  V30 5273 C 497.437 -1.85755 4.1086 0
M  V30 5274 C 496.099 -1.72038 4.49395 0
M  V30 5275 C 498.451 -1.48844 4.99495 0
M  V30 5276 C 495.779 -1.19783 5.74342 0
M  V30 5277 C 498.131 -0.980422 6.24956 0
M  V30 5278 C 496.795 -0.829622 6.62324 0
M  V30 5279 H 496.065 -0.460505 0.580531 0
M  V30 5280 H 498.712 -0.559716 1.83138 0
M  V30 5281 H 497.017 -3.10672 2.38726 0
M  V30 5282 H 498.714 -2.93083 2.73685 0
M  V30 5283 H 495.304 -1.9739 3.80441 0
M  V30 5284 H 499.488 -1.5829 4.70381 0
M  V30 5285 H 494.744 -1.06817 6.01997 0
M  V30 5286 H 498.918 -0.685608 6.93017 0
M  V30 5287 H 496.545 -0.42253 7.59025 0
M  V30 5288 N 498.12 -1.38341 -0.754957 0
M  V30 5289 C 499.068 -1.35573 -1.89005 0
M  V30 5290 C 500.062 -0.241824 -1.67665 0
M  V30 5291 O 501.268 -0.410785 -1.7525 0
M  V30 5292 H 497.643 -0.422898 -0.621821 0
M  V30 5293 H 499.614 -2.31359 -1.88455 0
M  V30 5294 C 498.363 -1.19631 -3.26471 0
M  V30 5295 H 497.686 -2.04605 -3.43477 0
M  V30 5296 H 499.126 -1.21748 -4.06144 0
M  V30 5297 C 497.585 0.0968705 -3.36761 0
M  V30 5298 O 498.115 1.07439 -3.87066 0
M  V30 5299 N 496.321 0.153242 -2.90196 0
M  V30 5300 H 495.868 -0.642908 -2.49448 0
M  V30 5301 H 495.826 1.01807 -2.9746 0
M  V30 5302 N 499.598 0.982988 -1.23187 0
M  V30 5303 C 500.845 1.72392 -1.06241 0
M  V30 5304 C 501.173 1.9032 0.40108 0
M  V30 5305 O 500.428 1.45084 1.31336 0
M  V30 5306 C 500.727 3.12736 -1.73006 0
M  V30 5307 C 500.393 3.14695 -3.22921 0
M  V30 5308 C 499.055 3.14937 -3.63824 0
M  V30 5309 C 501.407 3.10211 -4.1883 0
M  V30 5310 C 498.735 3.08408 -4.99101 0
M  V30 5311 C 501.087 3.05224 -5.54095 0
M  V30 5312 C 499.751 3.03787 -5.94365 0
M  V30 5313 H 499.021 0.630829 -0.388762 0
M  V30 5314 H 501.668 1.15053 -1.53085 0
M  V30 5315 H 499.973 3.73446 -1.18514 0
M  V30 5316 H 501.67 3.68828 -1.57374 0
M  V30 5317 H 498.26 3.15262 -2.90358 0
M  V30 5318 H 502.444 3.09166 -3.8824 0
M  V30 5319 H 497.7 3.05646 -5.29519 0
M  V30 5320 H 501.874 3.00712 -6.28128 0
M  V30 5321 H 499.501 2.98483 -6.99151 0
M  V30 5322 N 501.076 1.04316 1.18135 0
M  V30 5323 C 502.304 0.768117 1.92113 0
M  V30 5324 C 502.719 -0.675057 1.76319 0
M  V30 5325 O 502.076 -1.46038 1.09449 0
M  V30 5326 C 502.127 1.12808 3.43448 0
M  V30 5327 O 501.848 2.5146 3.58747 0
M  V30 5328 C 503.349 0.8779 4.3452 0
M  V30 5329 H 500.569 0.279937 0.609817 0
M  V30 5330 H 503.113 1.39149 1.49859 0
M  V30 5331 H 501.268 0.549623 3.83481 0
M  V30 5332 H 501.682 2.65313 4.52448 0
M  V30 5333 H 503.156 1.17959 5.39249 0
M  V30 5334 H 503.633 -0.187239 4.38801 0
M  V30 5335 H 504.239 1.43977 4.00188 0
M  V30 5336 N 502.554 -1.34406 0.822964 0
M  V30 5337 C 503.487 -2.27407 0.190124 0
M  V30 5338 C 504.465 -1.4889 -0.653486 0
M  V30 5339 O 505.649 -1.78109 -0.617216 0
M  V30 5340 C 502.776 -3.3064 -0.734477 0
M  V30 5341 C 501.822 -4.26488 0.0316099 0
M  V30 5342 S 502.655 -5.17445 1.3788 0
M  V30 5343 C 503.811 -6.24214 0.45907 0
M  V30 5344 H 504.044 -2.80733 0.978586 0
M  V30 5345 H 501.577 -1.41455 0.618866 0
M  V30 5346 H 503.535 -3.90607 -1.26238 0
M  V30 5347 H 502.196 -2.76161 -1.49646 0
M  V30 5348 H 501.389 -4.9951 -0.671285 0
M  V30 5349 H 500.991 -3.70775 0.490066 0
M  V30 5350 H 503.283 -6.76599 -0.349357 0
M  V30 5351 H 504.226 -6.98551 1.15896 0
M  V30 5352 H 504.634 -5.6448 0.0474825 0
M  V30 5353 N 504.032 -0.577932 -1.46621 0
M  V30 5354 C 504.942 0.160651 -2.34049 0
M  V30 5355 C 505.958 0.890911 -1.49462 0
M  V30 5356 O 507.134 0.855166 -1.82343 0
M  V30 5357 C 504.199 1.16447 -3.26559 0
M  V30 5358 C 503.26 0.4394 -4.27045 0
M  V30 5359 C 502.493 1.3954 -5.15135 0
M  V30 5360 O 502.716 2.63162 -5.06065 0
M  V30 5361 O 501.65 0.908585 -5.95003 0
M  V30 5362 H 505.476 -0.557057 -2.98547 0
M  V30 5363 H 503.061 -0.338369 -1.45518 0
M  V30 5364 H 504.943 1.7434 -3.83645 0
M  V30 5365 H 503.618 1.86373 -2.64663 0
M  V30 5366 H 502.525 -0.181247 -3.73661 0
M  V30 5367 H 503.858 -0.218799 -4.91713 0
M  V30 5368 N 505.51 1.54411 -0.315457 0
M  V30 5369 C 506.787 1.92562 0.343398 0
M  V30 5370 C 507.167 1.24423 1.70535 0
M  V30 5371 O 506.515 0.385051 2.25232 0
M  V30 5372 C 506.725 3.46168 0.443687 0
M  V30 5373 C 508.073 4.18659 0.707783 0
M  V30 5374 O 509.097 3.52281 0.52693 0
M  V30 5375 O 507.956 5.36198 1.05612 0
M  V30 5376 H 505.05 0.80379 0.194552 0
M  V30 5377 H 507.596 1.65738 -0.364577 0
M  V30 5378 H 506.368 3.8792 -0.513172 0
M  V30 5379 H 505.991 3.79073 1.19956 0
M  V30 5380 N 506.988 0.0434614 1.5754 0
M  V30 5381 C 508.236 -0.630786 1.92004 0
M  V30 5382 C 508.557 -1.71836 0.921807 0
M  V30 5383 O 507.827 -1.9587 -0.034522 0
M  V30 5384 H 506.407 -0.235988 0.708745 0
M  V30 5385 H 509.069 0.0946462 1.9467 0
M  V30 5386 H 508.165 -1.07434 2.93026 0
M  V30 5387 N 508.466 -1.55915 -0.229846 0
M  V30 5388 C 509.396 -1.94754 -1.28815 0
M  V30 5389 C 510.377 -0.814657 -1.49323 0
M  V30 5390 O 511.562 -1.07631 -1.61645 0
M  V30 5391 C 508.692 -2.25705 -2.63959 0
M  V30 5392 C 507.646 -3.41406 -2.5812 0
M  V30 5393 C 506.972 -3.57941 -3.97218 0
M  V30 5394 C 508.272 -4.76616 -2.13623 0
M  V30 5395 H 509.966 -2.83404 -0.965547 0
M  V30 5396 H 507.512 -1.36353 -0.463028 0
M  V30 5397 H 509.465 -2.51467 -3.38146 0
M  V30 5398 H 508.189 -1.339 -2.9789 0
M  V30 5399 H 506.848 -3.1568 -1.86391 0
M  V30 5400 H 506.496 -2.63526 -4.28443 0
M  V30 5401 H 506.196 -4.35757 -3.94195 0
M  V30 5402 H 507.72 -3.86042 -4.73079 0
M  V30 5403 H 509.134 -5.01637 -2.77549 0
M  V30 5404 H 507.531 -5.57655 -2.21677 0
M  V30 5405 H 508.601 -4.7253 -1.08829 0
M  V30 5406 N 509.944 0.496216 -1.49584 0
M  V30 5407 C 511.19 1.25189 -1.59548 0
M  V30 5408 C 511.523 1.9212 -0.283466 0
M  V30 5409 O 510.798 1.80947 0.713324 0
M  V30 5410 C 511.081 2.31516 -2.75812 0
M  V30 5411 C 510.934 1.69054 -4.16822 0
M  V30 5412 C 512.253 3.3304 -2.87702 0
M  V30 5413 H 509.372 0.45379 -0.580727 0
M  V30 5414 H 512.014 0.549327 -1.81886 0
M  V30 5415 H 510.164 2.91438 -2.56897 0
M  V30 5416 H 511.836 1.12923 -4.47265 0
M  V30 5417 H 510.079 0.994485 -4.22247 0
M  V30 5418 H 510.75 2.462 -4.94054 0
M  V30 5419 H 513.226 2.83114 -3.04936 0
M  V30 5420 H 512.102 4.04794 -3.7072 0
M  V30 5421 H 512.363 3.95655 -1.97255 0
M  V30 5422 N 511.423 1.38739 0.74761 0
M  V30 5423 C 512.371 1.36573 1.88283 0
M  V30 5424 C 513.365 0.250712 1.67534 0
M  V30 5425 O 514.571 0.420073 1.7503 0
M  V30 5426 H 510.946 0.42619 0.619569 0
M  V30 5427 H 512.917 2.32356 1.87226 0
M  V30 5428 C 511.666 1.21361 3.25832 0
M  V30 5429 H 510.989 2.06424 3.42388 0
M  V30 5430 H 512.429 1.23901 4.05493 0
M  V30 5431 C 510.888 -0.0790099 3.36807 0
M  V30 5432 O 511.418 -1.05385 3.8763 0
M  V30 5433 N 509.624 -0.13785 2.90273 0
M  V30 5434 H 509.171 0.656128 2.49104 0
M  V30 5435 H 509.129 -1.00228 2.97996 0
M  V30 5436 N 512.901 -0.976442 1.23707 0
M  V30 5437 C 514.129 -1.75341 1.09833 0
M  V30 5438 C 514.544 -1.8553 -0.349885 0
M  V30 5439 O 513.901 -1.33732 -1.24185 0
M  V30 5440 C 513.952 -3.17833 1.72233 0
M  V30 5441 O 513.673 -3.08167 3.11391 0
M  V30 5442 C 515.174 -4.11906 1.63853 0
M  V30 5443 H 512.394 -0.550137 0.384175 0
M  V30 5444 H 514.938 -1.2265 1.63638 0
M  V30 5445 H 513.093 -3.67538 1.22452 0
M  V30 5446 H 513.507 -3.97897 3.41729 0
M  V30 5447 H 514.981 -5.09579 2.12211 0
M  V30 5448 H 515.458 -4.35109 0.598092 0
M  V30 5449 H 516.064 -3.68107 2.13019 0
M  V30 5450 N 514.379 -1.04941 -1.1758 0
M  V30 5451 C 515.628 -0.753124 -1.87112 0
M  V30 5452 C 515.941 0.722507 -1.81767 0
M  V30 5453 O 517.147 1.13265 -2.46746 0
M  V30 5454 C 515.603 -1.29695 -3.35719 0
M  V30 5455 C 515.211 -2.80184 -3.49572 0
M  V30 5456 C 516.955 -1.07759 -4.10595 0
M  V30 5457 C 514.862 -3.2788 -4.92187 0
M  V30 5458 H 513.792 -0.278034 -0.700866 0
M  V30 5459 H 516.443 -1.26637 -1.32798 0
M  V30 5460 H 514.825 -0.711522 -3.89555 0
M  V30 5461 H 515.999 -3.44561 -3.05965 0
M  V30 5462 H 514.314 -3.00632 -2.88113 0
M  V30 5463 H 516.911 -1.40899 -5.15802 0
M  V30 5464 H 517.254 -0.0152302 -4.16297 0
M  V30 5465 H 517.787 -1.62809 -3.62957 0
M  V30 5466 H 514.526 -4.33535 -4.91658 0
M  V30 5467 H 514.046 -2.68245 -5.36475 0
M  V30 5468 H 515.725 -3.22412 -5.60945 0
M  V30 5469 N 515.857 1.33968 -0.830081 0
M  V30 5470 C 517.268 1.80439 -0.479455 0
M  V30 5471 C 517.619 1.68756 1.00079 0
M  V30 5472 O 516.744 1.23171 1.77927 0
M  V30 5473 C 517.339 3.27611 -0.863505 0
M  V30 5474 C 515.898 3.72133 -0.565145 0
M  V30 5475 C 515.045 2.55549 -1.07657 0
M  V30 5476 H 517.996 1.21614 -1.0196 0
M  V30 5477 H 518.017 3.8012 -0.170083 0
M  V30 5478 H 517.529 3.36082 -1.94089 0
M  V30 5479 H 515.63 3.69196 0.502536 0
M  V30 5480 H 515.743 4.65963 -1.11422 0
M  V30 5481 H 514.107 2.49788 -0.497807 0
M  V30 5482 H 514.89 2.66786 -2.16055 0
M  V30 5483 N 517.335 0.585699 1.46312 0
M  V30 5484 C 518.298 -0.135673 2.28798 0
M  V30 5485 C 519.298 -0.815988 1.38558 0
M  V30 5486 O 520.488 -0.667487 1.60904 0
M  V30 5487 C 517.62 -1.20163 3.1902 0
M  V30 5488 H 518.813 0.589257 2.94054 0
M  V30 5489 H 516.366 0.343794 1.52472 0
M  V30 5490 H 517.101 -1.95804 2.58517 0
M  V30 5491 H 516.886 -0.718282 3.85465 0
M  V30 5492 H 518.376 -1.70749 3.81096 0
M  V30 5493 N 518.813 -1.54241 0.323641 0
M  V30 5494 C 520.038 -2.05452 -0.283605 0
M  V30 5495 C 520.463 -1.19823 -1.44997 0
M  V30 5496 O 519.821 -0.207358 -1.8011 0
M  V30 5497 C 519.869 -3.53823 -0.695795 0
M  V30 5498 O 518.973 -3.71134 -1.79815 0
M  V30 5499 H 518.314 -0.662024 -0.0511917 0
M  V30 5500 H 520.844 -1.99079 0.472073 0
M  V30 5501 H 520.854 -3.96094 -0.978434 0
M  V30 5502 H 519.529 -4.15602 0.157287 0
M  V30 5503 H 518.106 -3.40768 -1.51431 0
M  V30 5504 N 520.291 -0.0518155 -1.57515 0
M  V30 5505 C 521.538 0.621823 -1.92716 0
M  V30 5506 C 521.866 1.70813 -0.930229 0
M  V30 5507 O 521.121 1.95616 0.0573708 0
M  V30 5508 C 521.42 1.25607 -3.34601 0
M  V30 5509 C 521.086 0.297901 -4.49915 0
M  V30 5510 C 519.748 0.034243 -4.81188 0
M  V30 5511 C 522.1 -0.358738 -5.19964 0
M  V30 5512 C 519.428 -0.893479 -5.79857 0
M  V30 5513 C 521.78 -1.27466 -6.19625 0
M  V30 5514 C 520.444 -1.54698 -6.49326 0
M  V30 5515 H 519.714 0.227541 -0.705199 0
M  V30 5516 H 522.361 -0.118432 -1.91133 0
M  V30 5517 H 520.666 2.07161 -3.32553 0
M  V30 5518 H 522.363 1.78424 -3.59118 0
M  V30 5519 H 518.953 0.513581 -4.25512 0
M  V30 5520 H 523.137 -0.168133 -4.96015 0
M  V30 5521 H 518.393 -1.11193 -6.01204 0
M  V30 5522 H 522.567 -1.78953 -6.73015 0
M  V30 5523 H 520.194 -2.26748 -7.25596 0
M  V30 5524 N 521.769 1.56035 0.221574 0
M  V30 5525 C 522.719 1.8881 1.27807 0
M  V30 5526 C 523.703 0.751177 1.42289 0
M  V30 5527 O 524.895 1.01359 1.45104 0
M  V30 5528 C 522.024 2.20828 2.6285 0
M  V30 5529 C 521.11 3.40912 2.52269 0
M  V30 5530 N 521.501 4.59531 2.1134 0
M  V30 5531 C 519.799 3.44526 2.83228 0
M  V30 5532 C 520.5 5.41689 2.1201 0
M  V30 5533 N 519.476 4.814 2.52497 0
M  V30 5534 H 523.278 2.78036 0.952529 0
M  V30 5535 H 520.792 1.566 0.430134 0
M  V30 5536 H 522.789 2.42483 3.39127 0
M  V30 5537 H 521.449 1.32914 2.9625 0
M  V30 5538 H 522.46 4.8469 1.82472 0
M  V30 5539 H 519.137 2.66956 3.21 0
M  V30 5540 H 520.527 6.46643 1.82491 0
M  V30 5541 N 523.247 -0.488276 1.49845 0
M  V30 5542 C 524.524 -1.24959 1.50481 0
M  V30 5543 C 524.904 -2.09735 0.239698 0
M  V30 5544 O 524.252 -2.14865 -0.777524 0
M  V30 5545 C 524.462 -2.0954 2.79095 0
M  V30 5546 C 525.81 -2.68305 3.29086 0
M  V30 5547 O 526.834 -2.19797 2.80299 0
M  V30 5548 O 525.693 -3.56643 4.14087 0
M  V30 5549 H 522.787 -0.566133 0.602845 0
M  V30 5550 H 525.333 -0.501504 1.6212 0
M  V30 5551 H 524.105 -1.46958 3.62656 0
M  V30 5552 H 523.728 -2.91517 2.70377 0
M  V30 5553 N 524.725 -1.39134 -0.740242 0
M  V30 5554 C 525.973 -1.35803 -1.49673 0
M  V30 5555 C 526.294 0.0470897 -1.94943 0
M  V30 5556 O 525.564 0.997347 -1.68611 0
M  V30 5557 H 524.144 -0.499736 -0.555224 0
M  V30 5558 H 526.806 -1.73947 -0.879107 0
M  V30 5559 H 525.902 -2.0174 -2.38133 0
M  V30 5560 N 526.204 0.969867 -1.24223 0
M  V30 5561 C 527.134 2.08191 -1.05729 0
M  V30 5562 C 528.115 1.70075 0.0290765 0
M  V30 5563 O 529.3 1.93712 -0.137583 0
M  V30 5564 C 526.43 3.40991 -0.658995 0
M  V30 5565 C 525.384 3.93054 -1.69389 0
M  V30 5566 C 524.71 5.22171 -1.15072 0
M  V30 5567 C 526.01 4.21137 -3.08935 0
M  V30 5568 H 527.704 2.23921 -1.98746 0
M  V30 5569 H 525.25 1.07602 -0.956967 0
M  V30 5570 H 527.203 4.18221 -0.51662 0
M  V30 5571 H 525.927 3.25155 0.30686 0
M  V30 5572 H 524.586 3.17977 -1.82444 0
M  V30 5573 H 524.234 5.02694 -0.175539 0
M  V30 5574 H 523.934 5.57973 -1.84229 0
M  V30 5575 H 525.458 6.02013 -1.02042 0
M  V30 5576 H 526.872 4.8908 -2.99121 0
M  V30 5577 H 525.269 4.68163 -3.75425 0
M  V30 5578 H 526.339 3.27996 -3.57137 0
M  V30 5579 N 527.682 1.05563 1.17022 0
M  V30 5580 C 528.612 0.681026 2.23348 0
M  V30 5581 C 529.593 -0.322983 1.67005 0
M  V30 5582 O 530.778 -0.199746 1.9317 0
M  V30 5583 C 527.908 0.0589053 3.4725 0
M  V30 5584 C 526.862 0.988082 4.16438 0
M  V30 5585 C 526.188 0.229646 5.34207 0
M  V30 5586 C 527.488 2.31388 4.68249 0
M  V30 5587 H 529.182 1.56993 2.54938 0
M  V30 5588 H 526.728 0.756302 1.2254 0
M  V30 5589 H 528.681 -0.214982 4.20851 0
M  V30 5590 H 527.405 -0.864968 3.14938 0
M  V30 5591 H 526.064 1.24659 3.44754 0
M  V30 5592 H 525.712 -0.697111 4.98146 0
M  V30 5593 H 525.412 0.848815 5.81437 0
M  V30 5594 H 526.936 -0.0368694 6.10589 0
M  V30 5595 H 528.35 2.09964 5.33468 0
M  V30 5596 H 526.747 2.88736 5.26072 0
M  V30 5597 H 527.817 2.94982 3.84855 0
M  V30 5598 N 529.16 -1.33526 0.837174 0
M  V30 5599 C 530.09 -2.31764 0.284206 0
M  V30 5600 C 531.071 -1.58896 -0.607142 0
M  V30 5601 O 532.256 -1.86798 -0.531047 0
M  V30 5602 C 529.386 -3.43029 -0.542962 0
M  V30 5603 C 528.34 -4.27255 0.252451 0
M  V30 5604 C 527.666 -5.3012 -0.69836 0
M  V30 5605 C 528.966 -5.01229 1.46858 0
M  V30 5606 H 530.66 -2.78262 1.10502 0
M  V30 5607 H 528.206 -1.3378 0.532812 0
M  V30 5608 H 530.159 -4.1078 -0.940096 0
M  V30 5609 H 528.883 -2.95216 -1.39697 0
M  V30 5610 H 527.542 -3.61127 0.631124 0
M  V30 5611 H 527.19 -4.78564 -1.54872 0
M  V30 5612 H 526.89 -5.87353 -0.170274 0
M  V30 5613 H 528.414 -6.00737 -1.09305 0
M  V30 5614 H 529.828 -5.61756 1.14469 0
M  V30 5615 H 528.225 -5.68104 1.93333 0
M  V30 5616 H 529.295 -4.301 2.23924 0
M  V30 5617 N 530.638 -0.59345 -1.46 0
M  V30 5618 C 531.868 -0.0889642 -2.06408 0
M  V30 5619 C 532.276 1.22597 -1.44106 0
M  V30 5620 O 531.619 1.75448 -0.544398 0
M  V30 5621 C 531.681 0.139902 -3.59228 0
M  V30 5622 C 531.345 -1.09107 -4.43784 0
M  V30 5623 C 532.342 -2.00577 -4.79651 0
M  V30 5624 C 530.027 -1.31593 -4.84756 0
M  V30 5625 C 532.021 -3.12873 -5.55328 0
M  V30 5626 C 529.708 -2.44192 -5.60191 0
M  V30 5627 C 530.706 -3.34661 -5.95392 0
M  V30 5628 O 530.394 -4.45302 -6.69299 0
M  V30 5629 H 530.126 -0.0594613 -0.67338 0
M  V30 5630 H 532.68 -0.817 -1.88452 0
M  V30 5631 H 530.91 0.922672 -3.75531 0
M  V30 5632 H 532.599 0.594228 -4.01527 0
M  V30 5633 H 533.365 -1.84425 -4.48567 0
M  V30 5634 H 529.244 -0.620801 -4.56801 0
M  V30 5635 H 532.788 -3.83511 -5.82722 0
M  V30 5636 H 528.685 -2.60303 -5.90688 0
M  V30 5637 H 529.453 -4.43805 -6.87735 0
M  V30 5638 N 532.116 1.54067 -0.331816 0
M  V30 5639 C 533.365 1.99895 0.269209 0
M  V30 5640 C 533.678 1.22371 1.52593 0
M  V30 5641 O 534.884 1.58618 2.20347 0
M  V30 5642 C 533.34 3.55972 0.530244 0
M  V30 5643 C 532.948 4.4234 -0.709901 0
M  V30 5644 C 534.692 4.10247 1.09077 0
M  V30 5645 C 532.599 5.89905 -0.420312 0
M  V30 5646 H 531.529 0.746741 0.104371 0
M  V30 5647 H 534.18 1.78014 -0.445324 0
M  V30 5648 H 532.562 3.73873 1.30518 0
M  V30 5649 H 533.736 4.36215 -1.48504 0
M  V30 5650 H 532.051 3.98997 -1.19123 0
M  V30 5651 H 534.648 5.18095 1.32219 0
M  V30 5652 H 534.991 3.62739 2.0427 0
M  V30 5653 H 535.524 3.96011 0.376824 0
M  V30 5654 H 532.263 6.41623 -1.34164 0
M  V30 5655 H 531.783 5.98962 0.316962 0
M  V30 5656 H 533.462 6.46991 -0.0331956 0
M  V30 5657 N 533.594 0.0601682 1.57485 0
M  V30 5658 C 534.526 -0.94047 2.09016 0
M  V30 5659 C 535.539 -1.26897 1.01985 0
M  V30 5660 O 536.728 -1.22819 1.29529 0
M  V30 5661 C 533.828 -2.25955 2.52582 0
M  V30 5662 C 533.001 -2.11163 3.83052 0
M  V30 5663 C 532.06 -3.26273 4.12835 0
M  V30 5664 O 531.086 -3.01779 4.82616 0
M  V30 5665 N 532.288 -4.51022 3.65458 0
M  V30 5666 H 535.053 -0.500578 2.9549 0
M  V30 5667 H 532.614 -0.125852 1.6141 0
M  V30 5668 H 534.606 -3.01846 2.69575 0
M  V30 5669 H 533.176 -2.61481 1.71308 0
M  V30 5670 H 532.396 -1.19808 3.75552 0
M  V30 5671 H 533.684 -1.98517 4.68475 0
M  V30 5672 H 533.082 -4.73811 3.09062 0
M  V30 5673 H 531.639 -5.23978 3.87673 0
M  V30 5674 N 535.072 -1.5615 -0.213296 0
M  V30 5675 C 536.035 -1.92249 -1.24792 0
M  V30 5676 C 537.035 -0.801828 -1.39382 0
M  V30 5677 O 538.225 -1.06948 -1.37506 0
M  V30 5678 C 535.357 -2.18056 -2.62039 0
M  V30 5679 H 536.55 -2.84793 -0.939845 0
M  V30 5680 H 534.103 -1.49559 -0.454062 0
M  V30 5681 H 534.838 -1.2809 -2.97932 0
M  V30 5682 H 534.623 -2.99703 -2.52825 0
M  V30 5683 H 536.113 -2.47051 -3.36683 0
M  V30 5684 N 536.55 0.480323 -1.50102 0
M  V30 5685 C 537.796 1.23489 -1.60867 0
M  V30 5686 C 538.129 1.91809 -0.303827 0
M  V30 5687 O 537.404 1.81694 0.694092 0
M  V30 5688 C 537.687 2.28578 -2.78252 0
M  V30 5689 C 537.54 1.64624 -4.18592 0
M  V30 5690 C 538.859 3.2997 -2.91218 0
M  V30 5691 H 535.978 0.447605 -0.585507 0
M  V30 5692 H 538.62 0.530005 -1.82458 0
M  V30 5693 H 536.77 2.88697 -2.59974 0
M  V30 5694 H 538.442 1.08173 -4.48438 0
M  V30 5695 H 536.685 0.949645 -4.23278 0
M  V30 5696 H 537.356 2.40946 -4.96638 0
M  V30 5697 H 539.832 2.79864 -3.07921 0
M  V30 5698 H 538.708 4.00839 -3.74993 0
M  V30 5699 H 538.969 3.93541 -2.0144 0
M  V30 5700 N 538.028 1.39524 0.732853 0
M  V30 5701 C 539.256 1.40143 1.52209 0
M  V30 5702 C 539.671 -0.00348836 1.888 0
M  V30 5703 O 539.028 -0.975357 1.5425 0
M  V30 5704 C 539.079 2.27632 2.8083 0
M  V30 5705 O 538.8 3.62654 2.45792 0
M  V30 5706 C 540.301 2.36658 3.74844 0
M  V30 5707 H 537.521 0.478604 0.470297 0
M  V30 5708 H 540.065 1.83366 0.905388 0
M  V30 5709 H 538.22 1.87818 3.38826 0
M  V30 5710 H 538.634 4.08941 3.28431 0
M  V30 5711 H 540.108 3.02118 4.61984 0
M  V30 5712 H 540.585 1.38638 4.16745 0
M  V30 5713 H 541.191 2.76951 3.22766 0
M  V30 5714 N 539.506 -0.963266 1.24736 0
M  V30 5715 C 540.416 -2.09246 1.06082 0
M  V30 5716 C 541.432 -1.74 0.000363101 0
M  V30 5717 O 542.608 -2.0041 0.199479 0
M  V30 5718 C 539.673 -3.40115 0.672498 0
M  V30 5719 C 538.734 -3.89282 1.80993 0
M  V30 5720 C 537.967 -5.13905 1.44004 0
M  V30 5721 O 538.19 -5.69434 0.331835 0
M  V30 5722 O 537.124 -5.57566 2.26723 0
M  V30 5723 H 540.95 -2.27881 2.00759 0
M  V30 5724 H 538.535 -1.07649 1.03595 0
M  V30 5725 H 540.417 -4.18797 0.467668 0
M  V30 5726 H 539.092 -3.22771 -0.245102 0
M  V30 5727 H 537.999 -3.11642 2.06955 0
M  V30 5728 H 539.332 -4.1111 2.70646 0
M  V30 5729 N 540.985 -1.06182 -1.16461 0
M  V30 5730 C 542.213 -0.798583 -1.90867 0
M  V30 5731 C 542.628 0.646921 -1.77371 0
M  V30 5732 O 541.985 1.44279 -1.11758 0
M  V30 5733 C 542.036 -1.18258 -3.4161 0
M  V30 5734 O 541.757 -2.57135 -3.54701 0
M  V30 5735 C 543.258 -0.946917 -4.33069 0
M  V30 5736 H 540.478 -0.289603 -0.605286 0
M  V30 5737 H 543.022 -1.41515 -1.47627 0
M  V30 5738 H 541.177 -0.610562 -3.82558 0
M  V30 5739 H 541.591 -2.72477 -4.4817 0
M  V30 5740 H 543.065 -1.26523 -5.37304 0
M  V30 5741 H 543.542 0.117406 -4.39043 0
M  V30 5742 H 544.148 -1.50326 -3.97847 0
M  V30 5743 N 542.463 1.3308 -0.844243 0
M  V30 5744 C 543.393 2.3161 -0.296493 0
M  V30 5745 C 544.374 1.59215 0.598707 0
M  V30 5746 O 545.559 1.87077 0.521134 0
M  V30 5747 C 542.689 3.43313 0.524762 0
M  V30 5748 C 541.643 4.27115 -0.275106 0
M  V30 5749 C 540.969 5.30483 0.670236 0
M  V30 5750 C 542.269 5.00443 -1.49514 0
M  V30 5751 H 543.963 2.77672 -1.11976 0
M  V30 5752 H 541.509 1.33496 -0.539899 0
M  V30 5753 H 543.462 4.11273 0.918298 0
M  V30 5754 H 542.186 2.95952 1.3813 0
M  V30 5755 H 540.845 3.60787 -0.650267 0
M  V30 5756 H 540.493 4.79379 1.52332 0
M  V30 5757 H 540.193 5.87435 0.139123 0
M  V30 5758 H 541.717 6.01308 1.06117 0
M  V30 5759 H 543.131 5.61141 -1.17447 0
M  V30 5760 H 541.528 5.67071 -1.96343 0
M  V30 5761 H 542.598 4.28906 -2.26202 0
M  V30 5762 N 543.941 0.601185 1.45683 0
M  V30 5763 C 544.904 -0.111398 2.28929 0
M  V30 5764 C 545.904 -0.801246 1.39416 0
M  V30 5765 O 547.094 -0.650383 1.61603 0
M  V30 5766 C 544.226 -1.16773 3.20276 0
M  V30 5767 H 545.419 0.620412 2.93413 0
M  V30 5768 H 542.972 0.359946 1.52099 0
M  V30 5769 H 543.707 -1.93051 2.60579 0
M  V30 5770 H 543.492 -0.677358 3.86205 0
M  V30 5771 H 544.982 -1.66698 3.82886 0
M  V30 5772 N 545.419 -1.53889 0.339982 0
M  V30 5773 C 546.369 -2.2165 -0.534354 0
M  V30 5774 C 547.353 -1.20266 -1.06887 0
M  V30 5775 O 548.545 -1.45827 -1.00316 0
M  V30 5776 C 545.674 -2.99014 -1.68659 0
M  V30 5777 C 544.76 -4.07751 -1.16618 0
M  V30 5778 N 545.151 -5.04469 -0.366717 0
M  V30 5779 C 543.449 -4.21998 -1.4434 0
M  V30 5780 C 544.15 -5.81638 -0.0847275 0
M  V30 5781 N 543.126 -5.39388 -0.675391 0
M  V30 5782 H 546.928 -2.93781 0.0835562 0
M  V30 5783 H 544.442 -1.61736 0.146665 0
M  V30 5784 H 546.439 -3.46056 -2.32489 0
M  V30 5785 H 545.099 -2.28408 -2.30781 0
M  V30 5786 H 546.11 -5.17899 -0.00811038 0
M  V30 5787 H 542.787 -3.62612 -2.06928 0
M  V30 5788 H 544.177 -6.69563 0.559943 0
M  V30 5789 N 546.897 -0.0685191 -1.57451 0
M  V30 5790 C 548.145 0.60016 -1.92983 0
M  V30 5791 C 548.466 1.70348 -0.949028 0
M  V30 5792 O 547.736 1.959 0.00335647 0
M  V30 5793 H 546.316 0.224682 -0.712409 0
M  V30 5794 H 548.978 -0.125605 -1.94495 0
M  V30 5795 H 548.074 1.02759 -2.94698 0
M  V30 5796 N 548.375 1.56261 0.205012 0
M  V30 5797 C 549.623 1.79684 0.925096 0
M  V30 5798 C 549.944 0.63989 1.84202 0
M  V30 5799 O 549.214 -0.342345 1.92885 0
M  V30 5800 H 547.794 0.662774 0.344587 0
M  V30 5801 H 550.456 1.93734 0.212899 0
M  V30 5802 H 549.552 2.72467 1.52211 0
M  V30 5803 N 549.853 -0.472356 1.50355 0
M  V30 5804 C 551.081 -1.24784 1.65035 0
M  V30 5805 C 551.496 -1.85837 0.333176 0
M  V30 5806 O 550.853 -1.69168 -0.68472 0
M  V30 5807 C 550.904 -2.35747 2.74054 0
M  V30 5808 O 550.625 -1.77197 4.00665 0
M  V30 5809 C 552.126 -3.26645 2.99696 0
M  V30 5810 H 549.346 -0.377432 0.554785 0
M  V30 5811 H 551.89 -0.563962 1.9657 0
M  V30 5812 H 550.045 -2.99912 2.45217 0
M  V30 5813 H 550.459 -2.5026 4.60945 0
M  V30 5814 H 551.933 -4.00718 3.79644 0
M  V30 5815 H 552.41 -3.8535 2.10718 0
M  V30 5816 H 553.016 -2.68218 3.3006 0
M  V30 5817 N 551.331 -1.39911 -0.725443 0
M  V30 5818 C 552.577 -1.37858 -1.48738 0
M  V30 5819 C 552.91 0.0224187 -1.94187 0
M  V30 5820 O 552.185 0.989204 -1.67466 0
M  V30 5821 C 552.468 -2.3594 -2.72038 0
M  V30 5822 C 552.321 -3.85023 -2.32546 0
M  V30 5823 C 553.64 -2.31704 -3.74167 0
M  V30 5824 H 550.759 -0.502074 -0.539528 0
M  V30 5825 H 553.401 -1.70974 -0.828728 0
M  V30 5826 H 551.551 -2.0783 -3.28236 0
M  V30 5827 H 553.223 -4.2392 -1.81905 0
M  V30 5828 H 551.466 -4.01334 -1.64661 0
M  V30 5829 H 552.137 -4.49152 -3.20884 0
M  V30 5830 H 554.613 -2.5658 -3.27576 0
M  V30 5831 H 553.489 -3.02395 -4.58092 0
M  V30 5832 H 553.75 -1.3253 -4.21768 0
M  V30 5833 N 552.809 0.956637 -1.25245 0
M  V30 5834 C 554.037 1.73571 -1.12608 0
M  V30 5835 C 554.452 1.86063 0.320324 0
M  V30 5836 O 553.809 1.35691 1.22042 0
M  V30 5837 C 553.86 3.15053 -1.77268 0
M  V30 5838 O 553.581 3.03174 -3.16255 0
M  V30 5839 C 555.082 4.09248 -1.70386 0
M  V30 5840 H 552.302 0.543955 -0.392879 0
M  V30 5841 H 554.846 1.20031 -1.65568 0
M  V30 5842 H 553.001 3.65543 -1.28284 0
M  V30 5843 H 553.415 3.9241 -3.48015 0
M  V30 5844 H 554.889 5.06138 -2.20291 0
M  V30 5845 H 555.366 4.34102 -0.667239 0
M  V30 5846 H 555.972 3.64672 -2.18849 0
M  V30 5847 N 554.287 1.06798 1.15896 0
M  V30 5848 C 555.564 0.701057 1.82605 0
M  V30 5849 C 555.944 -0.817066 1.94646 0
M  V30 5850 O 555.292 -1.72933 1.49353 0
M  V30 5851 C 555.502 1.40895 3.19296 0
M  V30 5852 C 556.85 1.55744 3.95005 0
M  V30 5853 O 557.874 1.36927 3.28831 0
M  V30 5854 O 556.733 1.86658 5.13635 0
M  V30 5855 H 553.827 0.248791 0.78869 0
M  V30 5856 H 556.373 1.16857 1.23055 0
M  V30 5857 H 555.145 2.4439 3.05596 0
M  V30 5858 H 554.768 0.931847 3.86526 0
M  V30 5859 N 555.766 -1.3263 0.851289 0
M  V30 5860 C 557.014 -1.96978 0.452128 0
M  V30 5861 C 557.335 -1.67715 -0.99482 0
M  V30 5862 O 556.605 -0.98259 -1.69476 0
M  V30 5863 H 555.185 -0.72873 0.164202 0
M  V30 5864 H 557.847 -1.61774 1.08698 0
M  V30 5865 H 556.943 -3.06387 0.594407 0
M  V30 5866 N 557.244 -0.608902 -1.45362 0
M  V30 5867 C 558.154 0.110969 -2.34337 0
M  V30 5868 C 559.17 0.859007 -1.51318 0
M  V30 5869 O 560.346 0.816296 -1.84116 0
M  V30 5870 C 557.411 1.09494 -3.28956 0
M  V30 5871 C 556.472 0.348718 -4.27881 0
M  V30 5872 C 555.705 1.28582 -5.17979 0
M  V30 5873 O 555.928 2.52369 -5.11533 0
M  V30 5874 O 554.862 0.782172 -5.96796 0
M  V30 5875 H 558.688 -0.620258 -2.97299 0
M  V30 5876 H 556.273 -0.36916 -1.44767 0
M  V30 5877 H 558.155 1.66163 -3.87257 0
M  V30 5878 H 556.83 1.80717 -2.68557 0
M  V30 5879 H 555.737 -0.260465 -3.73192 0
M  V30 5880 H 557.07 -0.323049 -4.91139 0
M  V30 5881 N 558.722 1.53707 -0.348139 0
M  V30 5882 C 559.67 2.26671 0.521808 0
M  V30 5883 C 560.664 1.28988 1.09811 0
M  V30 5884 O 561.87 1.4668 1.04332 0
M  V30 5885 H 558.245 0.728387 0.186968 0
M  V30 5886 H 560.216 2.98176 -0.115563 0
M  V30 5887 C 558.965 3.05591 1.6586 0
M  V30 5888 H 558.288 3.80589 1.22443 0
M  V30 5889 H 559.728 3.59851 2.24239 0
M  V30 5890 C 558.187 2.15366 2.59073 0
M  V30 5891 O 558.717 1.7528 3.61441 0
M  V30 5892 N 556.923 1.80352 2.27863 0
M  V30 5893 H 556.47 2.13149 1.44656 0
M  V30 5894 H 556.428 1.20268 2.90488 0
M  V30 5895 N 560.2 0.0768682 1.57412 0
M  V30 5896 C 561.449 -0.590679 1.92857 0
M  V30 5897 C 561.762 -1.70461 0.959293 0
M  V30 5898 O 562.968 -2.43207 1.20675 0
M  V30 5899 C 561.424 -1.10204 3.42612 0
M  V30 5900 C 561.032 -0.0188447 4.47996 0
M  V30 5901 C 562.776 -1.74336 3.87049 0
M  V30 5902 C 560.683 -0.544536 5.88888 0
M  V30 5903 H 559.613 -0.224411 0.71983 0
M  V30 5904 H 562.264 0.149924 1.82887 0
M  V30 5905 H 560.646 -1.89577 3.47673 0
M  V30 5906 H 561.82 0.755936 4.54557 0
M  V30 5907 H 560.135 0.526555 4.13057 0
M  V30 5908 H 562.732 -2.14708 4.89699 0
M  V30 5909 H 563.075 -2.60537 3.24694 0
M  V30 5910 H 563.608 -1.01577 3.84613 0
M  V30 5911 H 560.347 0.280426 6.549 0
M  V30 5912 H 559.867 -1.28673 5.85836 0
M  V30 5913 H 561.546 -1.01933 6.3892 0
M  V30 5914 N 561.678 -1.56367 -0.196722 0
M  V30 5915 C 562.906 -1.84639 -0.933608 0
M  V30 5916 C 563.321 -0.659164 -1.76919 0
M  V30 5917 O 562.678 0.372142 -1.78665 0
M  V30 5918 C 562.729 -3.11694 -1.83109 0
M  V30 5919 O 562.45 -4.25838 -1.02924 0
M  V30 5920 C 563.951 -3.53132 -2.67979 0
M  V30 5921 H 561.171 -0.613188 -0.272473 0
M  V30 5922 H 563.715 -2.03475 -0.204465 0
M  V30 5923 H 561.87 -2.94759 -2.51387 0
M  V30 5924 H 562.284 -4.98178 -1.64069 0
M  V30 5925 H 563.758 -4.45005 -3.26611 0
M  V30 5926 H 564.235 -2.76045 -3.41608 0
M  V30 5927 H 564.841 -3.72592 -2.05074 0
M  V30 5928 N 563.156 0.464375 -1.50603 0
M  V30 5929 C 564.088 1.57916 -1.66118 0
M  V30 5930 C 565.101 1.53497 -0.54246 0
M  V30 5931 O 566.29 1.58763 -0.815877 0
M  V30 5932 C 563.39 2.96809 -1.63577 0
M  V30 5933 C 562.563 3.26026 -2.91592 0
M  V30 5934 C 561.622 4.44506 -2.81604 0
M  V30 5935 O 560.648 4.44484 -3.55559 0
M  V30 5936 N 561.85 5.46549 -1.95614 0
M  V30 5937 H 564.615 1.45022 -2.62276 0
M  V30 5938 H 562.176 0.652903 -1.48151 0
M  V30 5939 H 564.168 3.74048 -1.54499 0
M  V30 5940 H 562.738 3.03438 -0.751262 0
M  V30 5941 H 561.958 2.37337 -3.14746 0
M  V30 5942 H 563.246 3.42361 -3.76386 0
M  V30 5943 H 562.644 5.49391 -1.34854 0
M  V30 5944 H 561.201 6.22746 -1.92435 0
M  V30 5945 N 564.634 1.40294 0.718013 0
M  V30 5946 C 566.05 1.2227 1.02577 0
M  V30 5947 C 566.25 0.0961976 2.0127 0
M  V30 5948 O 565.306 -0.546695 2.46511 0
M  V30 5949 C 566.619 2.56348 1.57182 0
M  V30 5950 C 568.167 2.6334 1.69178 0
M  V30 5951 C 568.642 3.9768 2.27188 0
M  V30 5952 N 570.133 3.99409 2.34578 0
M  V30 5953 C 570.868 5.00141 2.8044 0
M  V30 5954 N 570.364 6.11268 3.26073 0
M  V30 5955 N 572.157 4.87511 2.79802 0
M  V30 5956 H 564.308 2.12304 0.0637899 0
M  V30 5957 H 566.571 0.943632 0.0909036 0
M  V30 5958 H 566.277 3.3942 0.921262 0
M  V30 5959 H 566.151 2.77266 2.55741 0
M  V30 5960 H 568.538 1.80641 2.33351 0
M  V30 5961 H 568.619 2.46255 0.692247 0
M  V30 5962 H 568.263 4.80817 1.63638 0
M  V30 5963 H 568.193 4.12093 3.27852 0
M  V30 5964 H 570.684 3.19162 2.02346 0
M  V30 5965 H 570.997 6.84023 3.59628 0
M  V30 5966 H 569.342 6.14837 3.24038 0
M  V30 5967 H 572.533 3.9979 2.43487 0
M  V30 5968 H 572.706 5.66158 3.15228 0
M  V30 5969 N 566.112 -0.949982 1.2575 0
M  V30 5970 C 567.045 -2.047 1.00862 0
M  V30 5971 C 568.023 -1.62475 -0.0636982 0
M  V30 5972 O 569.207 -1.88343 0.0769153 0
M  V30 5973 C 566.334 -3.34597 0.525613 0
M  V30 5974 C 565.38 -3.95788 1.58916 0
M  V30 5975 S 566.213 -4.31175 3.17567 0
M  V30 5976 C 567.369 -5.64183 2.71013 0
M  V30 5977 H 567.602 -2.25497 1.93749 0
M  V30 5978 H 565.135 -1.09022 1.09332 0
M  V30 5979 H 567.093 -4.09716 0.25359 0
M  V30 5980 H 565.754 -3.11758 -0.382828 0
M  V30 5981 H 564.947 -4.89457 1.20201 0
M  V30 5982 H 564.549 -3.27168 1.81211 0
M  V30 5983 H 566.841 -6.42504 2.14928 0
M  V30 5984 H 567.784 -6.07774 3.6334 0
M  V30 5985 H 568.192 -5.2364 2.1086 0
M  V30 5986 N 567.59 -1.07411 -1.15328 0
M  V30 5987 C 568.836 -0.808666 -1.86634 0
M  V30 5988 C 569.191 0.65816 -1.80793 0
M  V30 5989 O 568.484 1.47689 -1.22059 0
M  V30 5990 C 568.678 -1.25191 -3.34757 0
M  V30 5991 C 568.507 -2.76028 -3.55019 0
M  V30 5992 C 567.277 -3.43644 -3.70455 0
M  V30 5993 C 569.475 -3.74224 -3.5279 0
M  V30 5994 N 567.457 -4.83117 -3.78776 0
M  V30 5995 C 568.828 -4.9954 -3.67233 0
M  V30 5996 C 570.883 -3.67373 -3.36068 0
M  V30 5997 C 569.586 -6.18819 -3.66682 0
M  V30 5998 C 571.612 -4.86116 -3.36816 0
M  V30 5999 C 570.974 -6.10266 -3.51789 0
M  V30 6000 H 567.073 -0.348478 -0.700062 0
M  V30 6001 H 569.657 -1.37049 -1.38295 0
M  V30 6002 H 567.828 -0.717775 -3.8171 0
M  V30 6003 H 569.56 -0.933936 -3.93776 0
M  V30 6004 H 566.315 -2.94051 -3.71256 0
M  V30 6005 H 566.739 -5.55705 -3.86679 0
M  V30 6006 H 571.381 -2.72334 -3.2341 0
M  V30 6007 H 569.099 -7.14179 -3.78118 0
M  V30 6008 H 572.685 -4.82492 -3.25103 0
M  V30 6009 H 571.565 -7.00609 -3.52301 0
M  V30 6010 N 569.068 1.32177 -0.85831 0
M  V30 6011 C 570.016 2.30729 -0.294442 0
M  V30 6012 C 571.01 1.59009 0.584165 0
M  V30 6013 O 572.216 1.73713 0.471562 0
M  V30 6014 H 568.591 0.748097 -0.0765171 0
M  V30 6015 H 570.562 2.75774 -1.1398 0
M  V30 6016 C 569.311 3.44098 0.499208 0
M  V30 6017 H 568.634 3.99449 -0.167579 0
M  V30 6018 H 570.074 4.15202 0.859273 0
M  V30 6019 C 568.533 2.91684 1.68588 0
M  V30 6020 O 569.063 2.89481 2.78503 0
M  V30 6021 N 567.269 2.48036 1.51415 0
M  V30 6022 H 566.816 2.50027 0.620006 0
M  V30 6023 H 566.774 2.13322 2.30957 0
M  V30 6024 N 570.547 0.616602 1.45037 0
M  V30 6025 C 571.963 0.280994 1.57107 0
M  V30 6026 C 572.163 -1.21627 1.60653 0
M  V30 6027 O 571.219 -1.9997 1.54169 0
M  V30 6028 C 572.532 0.960116 2.8496 0
M  V30 6029 C 574.08 0.936884 2.98649 0
M  V30 6030 C 574.555 1.59619 4.29285 0
M  V30 6031 N 576.046 1.5621 4.36065 0
M  V30 6032 C 576.781 2.04131 5.35834 0
M  V30 6033 N 576.277 2.60177 6.4209 0
M  V30 6034 N 578.07 1.94845 5.27249 0
M  V30 6035 H 570.221 1.58867 1.40979 0
M  V30 6036 H 572.484 0.666024 0.674623 0
M  V30 6037 H 572.19 2.01473 2.88273 0
M  V30 6038 H 572.064 0.488921 3.74018 0
M  V30 6039 H 574.451 -0.109209 2.94898 0
M  V30 6040 H 574.532 1.44643 2.10979 0
M  V30 6041 H 574.176 2.64166 4.33796 0
M  V30 6042 H 574.106 1.06159 5.15789 0
M  V30 6043 H 576.597 1.15276 3.59889 0
M  V30 6044 H 576.91 2.94513 7.1448 0
M  V30 6045 H 575.255 2.64221 6.42816 0
M  V30 6046 H 578.446 1.50792 4.43147 0
M  V30 6047 H 578.619 2.32504 6.04852 0
M  V30 6048 N 572.025 -1.5352 0.356285 0
M  V30 6049 C 573.25 -2.06007 -0.239961 0
M  V30 6050 C 573.675 -1.22872 -1.42422 0
M  V30 6051 O 573.033 -0.245516 -1.7963 0
M  V30 6052 C 573.081 -3.5522 -0.620587 0
M  V30 6053 O 572.185 -3.74864 -1.71902 0
M  V30 6054 H 571.526 -0.662961 -0.0371377 0
M  V30 6055 H 574.056 -1.98033 0.514194 0
M  V30 6056 H 574.066 -3.98081 -0.894197 0
M  V30 6057 H 572.741 -4.15175 0.245407 0
M  V30 6058 H 571.318 -3.43904 -1.44169 0
M  V30 6059 N 573.503 -0.0852151 -1.57369 0
M  V30 6060 C 574.75 0.580806 -1.93992 0
M  V30 6061 C 575.078 1.68801 -0.966252 0
M  V30 6062 O 574.333 1.95694 0.0158649 0
M  V30 6063 C 574.632 1.18482 -3.3719 0
M  V30 6064 C 574.298 0.2024 -4.50446 0
M  V30 6065 C 572.96 -0.0678318 -4.81152 0
M  V30 6066 C 575.312 -0.46895 -5.19086 0
M  V30 6067 C 572.64 -1.01627 -5.77831 0
M  V30 6068 C 574.992 -1.4058 -6.16782 0
M  V30 6069 C 573.656 -1.68436 -6.45899 0
M  V30 6070 H 572.926 0.212532 -0.709867 0
M  V30 6071 H 575.573 -0.158947 -1.90839 0
M  V30 6072 H 573.878 2.0006 -3.36873 0
M  V30 6073 H 575.575 1.70767 -3.62822 0
M  V30 6074 H 572.165 0.423208 -4.26505 0
M  V30 6075 H 576.349 -0.273307 -4.95547 0
M  V30 6076 H 571.605 -1.2392 -5.9871 0
M  V30 6077 H 575.779 -1.93188 -6.69068 0
M  V30 6078 H 573.406 -2.42088 -7.20623 0
M  V30 6079 N 574.981 1.5647 0.188427 0
M  V30 6080 C 575.913 1.91611 1.25769 0
M  V30 6081 C 576.926 0.807436 1.41366 0
M  V30 6082 O 578.115 1.08586 1.41673 0
M  V30 6083 C 575.215 2.13874 2.6289 0
M  V30 6084 C 574.388 3.45047 2.68815 0
M  V30 6085 C 573.447 3.56342 3.87178 0
M  V30 6086 O 572.473 4.29109 3.73971 0
M  V30 6087 N 573.675 2.89924 5.02916 0
M  V30 6088 H 576.44 2.8393 0.959373 0
M  V30 6089 H 574.001 1.57418 0.378306 0
M  V30 6090 H 575.993 2.18713 3.4051 0
M  V30 6091 H 574.563 1.28022 2.85183 0
M  V30 6092 H 573.783 3.52017 1.77419 0
M  V30 6093 H 575.071 4.31395 2.6977 0
M  V30 6094 H 574.469 2.30644 5.16546 0
M  V30 6095 H 573.026 3.0038 5.78459 0
M  V30 6096 N 576.459 -0.456382 1.50847 0
M  V30 6097 C 577.707 -1.20497 1.62249 0
M  V30 6098 C 578.028 -1.92156 0.331839 0
M  V30 6099 O 577.298 -1.84751 -0.651443 0
M  V30 6100 H 575.878 -0.447775 0.597918 0
M  V30 6101 H 578.54 -0.525099 1.87693 0
M  V30 6102 H 577.636 -1.94492 2.44089 0
M  V30 6103 N 577.937 -1.40673 -0.710563 0
M  V30 6104 C 579.183 -1.39428 -1.47267 0
M  V30 6105 C 579.516 0.00182129 -1.942 0
M  V30 6106 O 578.791 0.971387 -1.68506 0
M  V30 6107 C 579.074 -2.38812 -2.6952 0
M  V30 6108 C 578.927 -3.87467 -2.28449 0
M  V30 6109 C 580.246 -2.3566 -3.71689 0
M  V30 6110 H 577.365 -0.507768 -0.534173 0
M  V30 6111 H 580.007 -1.71843 -0.810547 0
M  V30 6112 H 578.157 -2.113 -3.26013 0
M  V30 6113 H 579.829 -4.25825 -1.77399 0
M  V30 6114 H 578.072 -4.03058 -1.60395 0
M  V30 6115 H 578.743 -4.5253 -3.16103 0
M  V30 6116 H 581.219 -2.6004 -3.24836 0
M  V30 6117 H 580.095 -3.07237 -4.54859 0
M  V30 6118 H 580.356 -1.36996 -4.20339 0
M  V30 6119 N 579.415 0.9433 -1.26252 0
M  V30 6120 C 580.643 1.72367 -1.14443 0
M  V30 6121 C 581.058 1.86392 0.300572 0
M  V30 6122 O 580.415 1.36978 1.20596 0
M  V30 6123 C 580.466 3.13155 -1.806 0
M  V30 6124 O 580.187 2.99803 -3.19452 0
M  V30 6125 C 581.688 4.07417 -1.74717 0
M  V30 6126 H 578.908 0.539758 -0.398626 0
M  V30 6127 H 581.452 1.18268 -1.66832 0
M  V30 6128 H 579.607 3.64162 -1.32154 0
M  V30 6129 H 580.021 3.88697 -3.52158 0
M  V30 6130 H 581.495 5.03773 -2.25647 0
M  V30 6131 H 581.972 4.3337 -0.713244 0
M  V30 6132 H 582.578 3.6233 -2.22704 0
M  V30 6133 N 580.893 1.08022 1.14757 0
M  V30 6134 C 582.141 0.805913 1.85336 0
M  V30 6135 C 582.462 -0.670162 1.83122 0
M  V30 6136 O 581.732 -1.48567 1.2769 0
M  V30 6137 H 580.312 0.295138 0.686223 0
M  V30 6138 H 582.974 1.36538 1.3908 0
M  V30 6139 H 582.07 1.14655 2.90277 0
M  V30 6140 N 582.371 -1.3172 0.865308 0
M  V30 6141 C 583.601 -2.00765 0.487543 0
M  V30 6142 C 584.009 -1.65145 -0.92325 0
M  V30 6143 O 583.352 -0.874294 -1.61561 0
M  V30 6144 C 583.414 -3.55122 0.559369 0
M  V30 6145 C 583.078 -4.14202 1.93095 0
M  V30 6146 C 584.075 -4.3165 2.89784 0
M  V30 6147 C 581.76 -4.50036 2.23099 0
M  V30 6148 C 583.754 -4.84114 4.14623 0
M  V30 6149 C 581.441 -5.02203 3.48189 0
M  V30 6150 C 582.439 -5.19192 4.43767 0
M  V30 6151 O 582.127 -5.70241 5.6664 0
M  V30 6152 H 581.859 -0.649066 0.188915 0
M  V30 6153 H 584.413 -1.69032 1.16694 0
M  V30 6154 H 582.643 -3.86295 -0.176926 0
M  V30 6155 H 584.332 -4.05428 0.195694 0
M  V30 6156 H 585.098 -4.04288 2.6791 0
M  V30 6157 H 580.977 -4.36091 1.49485 0
M  V30 6158 H 584.521 -4.9729 4.89233 0
M  V30 6159 H 580.418 -5.28997 3.69908 0
M  V30 6160 H 581.186 -5.88617 5.68746 0
M  V30 6161 N 583.85 -0.624285 -1.44708 0
M  V30 6162 C 584.779 0.0717025 -2.3339 0
M  V30 6163 C 585.76 0.841814 -1.47809 0
M  V30 6164 O 586.946 0.809056 -1.76544 0
M  V30 6165 C 584.076 1.05852 -3.30776 0
M  V30 6166 C 583.029 0.400503 -4.26122 0
M  V30 6167 C 582.356 1.49674 -5.13324 0
M  V30 6168 C 583.656 -0.688924 -5.17737 0
M  V30 6169 H 585.35 -0.668819 -2.91834 0
M  V30 6170 H 582.896 -0.32308 -1.40329 0
M  V30 6171 H 584.849 1.5541 -3.91696 0
M  V30 6172 H 583.572 1.82984 -2.70526 0
M  V30 6173 H 582.231 -0.0743687 -3.66525 0
M  V30 6174 H 581.88 2.25877 -4.49431 0
M  V30 6175 H 581.58 1.06188 -5.77926 0
M  V30 6176 H 583.104 1.99427 -5.77115 0
M  V30 6177 H 584.518 -0.276724 -5.72632 0
M  V30 6178 H 582.915 -1.04652 -5.90904 0
M  V30 6179 H 583.985 -1.55884 -4.5916 0
M  V30 6180 N 585.328 1.53329 -0.364422 0
M  V30 6181 C 586.275 2.25698 0.482607 0
M  V30 6182 C 587.245 1.26325 1.07848 0
M  V30 6183 O 588.43 1.55104 1.11119 0
M  V30 6184 C 585.57 3.04873 1.61699 0
M  V30 6185 C 584.683 4.19135 1.0464 0
M  V30 6186 C 583.818 4.85754 2.14979 0
M  V30 6187 C 582.857 5.9205 1.5538 0
M  V30 6188 N 581.994 6.52365 2.59547 0
M  V30 6189 H 586.834 2.97666 -0.141032 0
M  V30 6190 H 584.371 1.46875 -0.0813692 0
M  V30 6191 H 586.329 3.49051 2.28516 0
M  V30 6192 H 584.959 2.35162 2.2113 0
M  V30 6193 H 584.011 3.79451 0.268553 0
M  V30 6194 H 585.323 4.95525 0.570653 0
M  V30 6195 H 584.477 5.3311 2.89619 0
M  V30 6196 H 583.216 4.08834 2.65906 0
M  V30 6197 H 582.221 5.44058 0.792549 0
M  V30 6198 H 583.446 6.7089 1.0528 0
M  V30 6199 H 581.392 5.78298 3.09689 0
M  V30 6200 H 581.309 7.2429 2.16655 0
M  V30 6201 H 582.577 7.0437 3.33892 0
M  V30 6202 N 586.806 0.0935595 1.57322 0
M  V30 6203 C 588.055 -0.570191 1.93473 0
M  V30 6204 C 588.368 -1.69434 0.977318 0
M  V30 6205 O 589.574 -2.41914 1.23248 0
M  V30 6206 C 588.03 -1.06564 3.43762 0
M  V30 6207 C 587.638 0.0286723 4.47991 0
M  V30 6208 C 589.382 -1.70221 3.88877 0
M  V30 6209 C 587.289 -0.482046 5.89432 0
M  V30 6210 H 586.219 -0.216764 0.72217 0
M  V30 6211 H 588.87 0.169313 1.82717 0
M  V30 6212 H 587.252 -1.85878 3.49664 0
M  V30 6213 H 588.426 0.804106 4.5373 0
M  V30 6214 H 586.741 0.570336 4.12476 0
M  V30 6215 H 589.338 -2.09502 4.91948 0
M  V30 6216 H 589.681 -2.57078 3.27439 0
M  V30 6217 H 590.214 -0.974919 3.85668 0
M  V30 6218 H 586.953 0.349871 6.54566 0
M  V30 6219 H 586.473 -1.22452 5.87167 0
M  V30 6220 H 588.152 -0.951508 6.39965 0
M  V30 6221 N 588.284 -1.56567 -0.180126 0
M  V30 6222 C 589.561 -1.7235 -0.924931 0
M  V30 6223 C 589.941 -0.652523 -2.00762 0
M  V30 6224 O 589.289 0.334115 -2.26044 0
M  V30 6225 C 589.499 -3.1523 -1.49771 0
M  V30 6226 C 590.847 -3.75921 -1.97405 0
M  V30 6227 O 591.871 -3.18452 -1.59583 0
M  V30 6228 O 590.73 -4.7681 -2.67048 0
M  V30 6229 H 587.824 -0.703502 -0.434758 0
M  V30 6230 H 590.37 -1.6886 -0.168647 0
M  V30 6231 H 589.142 -3.84656 -0.718027 0
M  V30 6232 H 588.765 -3.23009 -2.31842 0
M  V30 6233 N 589.762 0.448376 -1.51087 0
M  V30 6234 C 590.987 1.22605 -1.6728 0
M  V30 6235 C 591.412 1.84524 -0.365045 0
M  V30 6236 O 590.77 1.6832 0.673642 0
M  V30 6237 C 590.818 2.29393 -2.78229 0
M  V30 6238 O 589.922 3.34608 -2.41063 0
M  V30 6239 H 589.263 0.359705 -0.558129 0
M  V30 6240 H 591.793 0.530903 -1.97592 0
M  V30 6241 H 591.803 2.74352 -3.01986 0
M  V30 6242 H 590.478 1.83701 -3.73131 0
M  V30 6243 H 589.055 2.95202 -2.27838 0
M  V30 6244 N 591.24 1.41047 0.703093 0
M  V30 6245 C 592.465 1.43537 1.49706 0
M  V30 6246 C 592.89 0.0401853 1.88057 0
M  V30 6247 O 592.248 -0.954785 1.54122 0
M  V30 6248 C 592.296 2.3433 2.74084 0
M  V30 6249 O 591.4 1.79515 3.71279 0
M  V30 6250 H 590.741 0.487454 0.450871 0
M  V30 6251 H 593.271 1.85422 0.86486 0
M  V30 6252 H 593.281 2.49947 3.22476 0
M  V30 6253 H 591.956 3.35708 2.45506 0
M  V30 6254 H 590.533 1.7331 3.30179 0
M  V30 6255 N 592.718 -0.936591 1.26751 0
M  V30 6256 C 593.966 -1.67998 1.12343 0
M  V30 6257 C 594.287 -1.92137 -0.332938 0
M  V30 6258 O 593.557 -1.52132 -1.23421 0
M  V30 6259 H 592.137 -0.622609 0.412756 0
M  V30 6260 H 594.799 -1.12509 1.59147 0
M  V30 6261 H 593.895 -2.65185 1.64571 0
M  V30 6262 N 594.196 -1.08629 -1.14182 0
M  V30 6263 C 595.473 -0.73002 -1.81466 0
M  V30 6264 C 595.853 0.785996 -1.95922 0
M  V30 6265 O 595.201 1.70535 -1.52086 0
M  V30 6266 C 595.411 -1.45957 -3.17014 0
M  V30 6267 C 596.759 -1.62008 -3.92477 0
M  V30 6268 O 597.783 -1.42141 -3.26611 0
M  V30 6269 O 596.642 -1.94806 -5.106 0
M  V30 6270 H 593.736 -0.261307 -0.784632 0
M  V30 6271 H 596.282 -1.188 -1.2118 0
M  V30 6272 H 595.054 -2.49221 -3.01669 0
M  V30 6273 H 594.677 -0.993222 -3.84995 0
M  V30 6274 N 595.674 1.31259 -0.872281 0
M  V30 6275 C 597.09 1.49283 -0.564521 0
M  V30 6276 C 597.29 1.80243 0.900807 0
M  V30 6277 O 596.346 1.88246 1.68284 0
M  V30 6278 C 597.659 2.62503 -1.46673 0
M  V30 6279 C 599.207 2.76386 -1.46901 0
M  V30 6280 C 599.682 3.92705 -2.35684 0
M  V30 6281 N 601.173 3.99995 -2.33577 0
M  V30 6282 C 601.908 4.89276 -2.98992 0
M  V30 6283 N 601.404 5.83443 -3.73585 0
M  V30 6284 N 603.197 4.82541 -2.88289 0
M  V30 6285 H 595.348 1.09432 -1.82039 0
M  V30 6286 H 597.611 0.540949 -0.77851 0
M  V30 6287 H 597.317 2.46407 -2.50951 0
M  V30 6288 H 597.191 3.58695 -1.16696 0
M  V30 6289 H 599.578 2.91894 -0.433796 0
M  V30 6290 H 599.659 1.80853 -1.80903 0
M  V30 6291 H 599.303 3.77954 -3.39283 0
M  V30 6292 H 599.233 4.87549 -1.99006 0
M  V30 6293 H 601.724 3.32624 -1.7936 0
M  V30 6294 H 602.037 6.48303 -4.20622 0
M  V30 6295 H 600.382 5.83415 -3.77694 0
M  V30 6296 H 603.573 4.07951 -2.2955 0
M  V30 6297 H 603.746 5.51916 -3.39549 0
M  V30 6298 N 597.152 0.631951 1.44375 0
M  V30 6299 C 598.062 -0.073674 2.34484 0
M  V30 6300 C 599.078 -0.834825 1.52665 0
M  V30 6301 O 600.254 -0.786902 1.85391 0
M  V30 6302 C 597.319 -1.04247 3.30656 0
M  V30 6303 C 596.38 -0.280602 4.28382 0
M  V30 6304 C 595.613 -1.20325 5.19959 0
M  V30 6305 O 595.836 -2.44199 5.15484 0
M  V30 6306 O 594.77 -0.687128 5.97965 0
M  V30 6307 H 598.596 0.667477 2.96274 0
M  V30 6308 H 596.181 0.392144 1.44162 0
M  V30 6309 H 598.063 -1.59981 3.89851 0
M  V30 6310 H 596.738 -1.76422 2.71398 0
M  V30 6311 H 595.645 0.319804 3.72731 0
M  V30 6312 H 596.978 0.401144 4.90563 0
M  V30 6313 N 598.631 -1.53133 0.372548 0
M  V30 6314 C 599.859 -2.05774 -0.215515 0
M  V30 6315 C 600.274 -1.24555 -1.41886 0
M  V30 6316 O 599.631 -0.287951 -1.80214 0
M  V30 6317 C 599.682 -3.5645 -0.602161 0
M  V30 6318 O 599.403 -4.34591 0.553359 0
M  V30 6319 C 600.904 -4.25374 -1.24787 0
M  V30 6320 H 598.124 -0.670009 -0.0364529 0
M  V30 6321 H 600.668 -1.97434 0.532934 0
M  V30 6322 H 598.823 -3.64918 -1.30052 0
M  V30 6323 H 599.237 -5.23954 0.239336 0
M  V30 6324 H 600.711 -5.32097 -1.46891 0
M  V30 6325 H 601.188 -3.79531 -2.21026 0
M  V30 6326 H 601.794 -4.21177 -0.590752 0
M  V30 6327 N 600.109 -0.101901 -1.5727 0
M  V30 6328 C 601.386 0.602832 -1.86079 0
M  V30 6329 C 601.766 1.85912 -1 0
M  V30 6330 O 601.114 2.28379 -0.0742488 0
M  V30 6331 C 601.324 0.911694 -3.36881 0
M  V30 6332 C 602.672 1.2722 -4.05093 0
M  V30 6333 O 603.696 1.0025 -3.41802 0
M  V30 6334 O 602.555 1.7776 -5.16782 0
M  V30 6335 H 599.649 0.302366 -0.769743 0
M  V30 6336 H 602.195 -0.135113 -1.69161 0
M  V30 6337 H 600.967 0.0207256 -3.91295 0
M  V30 6338 H 600.59 1.70538 -3.59169 0
M  V30 6339 N 601.587 1.56661 0.17182 0
M  V30 6340 C 602.834 1.81965 0.888529 0
M  V30 6341 C 603.162 0.6789 1.82267 0
M  V30 6342 O 602.417 -0.333875 1.92831 0
M  V30 6343 C 602.716 3.13435 1.71736 0
M  V30 6344 C 602.382 4.41159 0.932184 0
M  V30 6345 C 601.044 4.75851 0.715481 0
M  V30 6346 C 603.396 5.19803 0.381387 0
M  V30 6347 C 600.724 5.86666 -0.063126 0
M  V30 6348 C 603.076 6.31433 -0.384129 0
M  V30 6349 C 601.74 6.64692 -0.611637 0
M  V30 6350 H 601.01 0.665859 0.325136 0
M  V30 6351 H 603.657 1.90884 0.153495 0
M  V30 6352 H 601.962 2.99857 2.52177 0
M  V30 6353 H 603.659 3.30224 2.27493 0
M  V30 6354 H 600.249 4.13947 1.11112 0
M  V30 6355 H 604.433 4.93396 0.536148 0
M  V30 6356 H 599.689 6.10892 -0.249136 0
M  V30 6357 H 603.863 6.91577 -0.818185 0
M  V30 6358 H 601.49 7.50398 -1.21684 0
M  V30 6359 N 603.065 -0.440357 1.51323 0
M  V30 6360 C 604.29 -1.21716 1.67928 0
M  V30 6361 C 604.715 -1.84328 0.374826 0
M  V30 6362 O 604.073 -1.68675 -0.664706 0
M  V30 6363 C 604.121 -2.27914 2.79442 0
M  V30 6364 O 603.225 -3.33325 2.42834 0
M  V30 6365 H 602.566 -0.35674 0.560029 0
M  V30 6366 H 605.096 -0.520417 1.97871 0
M  V30 6367 H 605.106 -2.72746 3.03436 0
M  V30 6368 H 603.781 -1.8172 3.741 0
M  V30 6369 H 602.358 -2.9399 2.294 0
M  V30 6370 N 604.543 -1.41418 -0.695603 0
M  V30 6371 C 605.473 -1.46035 -1.82197 0
M  V30 6372 C 606.454 -0.319025 -1.67082 0
M  V30 6373 O 607.639 -0.530462 -1.86815 0
M  V30 6374 C 604.769 -1.34179 -3.20333 0
M  V30 6375 C 603.723 -2.46123 -3.50154 0
M  V30 6376 C 603.049 -2.19332 -4.87645 0
M  V30 6377 C 604.349 -3.88463 -3.49133 0
M  V30 6378 H 606.043 -2.40303 -1.78591 0
M  V30 6379 H 603.589 -1.15663 -0.857797 0
M  V30 6380 H 605.542 -1.36021 -3.98844 0
M  V30 6381 H 604.266 -0.363952 -3.24566 0
M  V30 6382 H 602.925 -2.43563 -2.73994 0
M  V30 6383 H 602.573 -1.19891 -4.88503 0
M  V30 6384 H 602.273 -2.94344 -5.08562 0
M  V30 6385 H 603.797 -2.22889 -5.68465 0
M  V30 6386 H 605.211 -3.92738 -4.17648 0
M  V30 6387 H 603.608 -4.63158 -3.81582 0
M  V30 6388 H 604.678 -4.16617 -2.48109 0
M  V30 6389 N 606.021 0.929856 -1.27246 0
M  V30 6390 C 607.267 1.6802 -1.14634 0
M  V30 6391 C 607.622 1.89965 0.305151 0
M  V30 6392 O 606.915 1.47737 1.22001 0
M  V30 6393 C 607.109 3.05116 -1.86115 0
M  V30 6394 C 606.938 2.96549 -3.38066 0
M  V30 6395 C 605.708 2.98947 -4.0738 0
M  V30 6396 C 607.906 2.7583 -4.34077 0
M  V30 6397 N 605.888 2.80799 -5.45917 0
M  V30 6398 C 607.259 2.66364 -5.59866 0
M  V30 6399 C 609.314 2.60701 -4.24193 0
M  V30 6400 C 608.017 2.43313 -6.76898 0
M  V30 6401 C 610.043 2.39026 -5.40944 0
M  V30 6402 C 609.405 2.30302 -6.65688 0
M  V30 6403 H 605.504 0.62172 -0.474329 0
M  V30 6404 H 608.088 1.09947 -1.60685 0
M  V30 6405 H 606.259 3.61306 -1.42522 0
M  V30 6406 H 607.991 3.69076 -1.66027 0
M  V30 6407 H 604.746 3.09093 -3.58829 0
M  V30 6408 H 605.17 2.74861 -6.18692 0
M  V30 6409 H 609.812 2.66206 -3.28473 0
M  V30 6410 H 607.53 2.36548 -7.72704 0
M  V30 6411 H 611.116 2.28208 -5.35175 0
M  V30 6412 H 609.996 2.13756 -7.54505 0
M  V30 6413 N 607.499 1.09233 1.13605 0
M  V30 6414 C 608.776 0.739633 1.81077 0
M  V30 6415 C 609.156 -0.775595 1.96336 0
M  V30 6416 O 608.504 -1.69726 1.52988 0
M  V30 6417 C 608.714 1.47636 3.16235 0
M  V30 6418 C 610.062 1.64087 3.91613 0
M  V30 6419 O 611.086 1.43871 3.25852 0
M  V30 6420 O 609.945 1.97511 5.0956 0
M  V30 6421 H 607.039 0.265464 0.783236 0
M  V30 6422 H 609.585 1.19441 1.20549 0
M  V30 6423 H 608.357 2.50818 3.00344 0
M  V30 6424 H 607.98 1.01362 3.84462 0
M  V30 6425 N 608.977 -1.30795 0.87923 0
M  V30 6426 C 609.91 -2.26396 0.286404 0
M  V30 6427 C 610.888 -1.51528 -0.589748 0
M  V30 6428 O 612.072 -1.80566 -0.541119 0
M  V30 6429 C 609.199 -3.33458 -0.593581 0
M  V30 6430 C 608.245 -4.2597 0.21247 0
M  V30 6431 S 609.078 -5.11132 1.59702 0
M  V30 6432 C 610.234 -6.21705 0.723408 0
M  V30 6433 H 610.467 -2.7633 1.09677 0
M  V30 6434 H 608 -1.38703 0.678305 0
M  V30 6435 H 609.958 -3.9561 -1.09557 0
M  V30 6436 H 608.619 -2.82259 -1.37799 0
M  V30 6437 H 607.812 -5.01907 -0.458822 0
M  V30 6438 H 607.414 -3.68363 0.646883 0
M  V30 6439 H 609.706 -6.77472 -0.0620739 0
M  V30 6440 H 610.649 -6.93007 1.4542 0
M  V30 6441 H 611.057 -5.63771 0.286855 0
M  V30 6442 N 610.455 -0.639598 -1.44038 0
M  V30 6443 C 611.732 -0.078012 -1.95444 0
M  V30 6444 C 612.112 1.39847 -1.58133 0
M  V30 6445 O 611.46 2.11714 -0.859614 0
M  V30 6446 C 611.67 -0.309832 -3.47622 0
M  V30 6447 C 613.018 -0.207521 -4.24093 0
M  V30 6448 O 614.042 -0.241653 -3.55379 0
M  V30 6449 O 612.901 -0.119641 -5.46369 0
M  V30 6450 H 609.995 0.0174534 -0.826816 0
M  V30 6451 H 612.541 -0.711891 -1.54046 0
M  V30 6452 H 611.313 -1.33401 -3.67858 0
M  V30 6453 H 610.936 0.357777 -3.95987 0
M  V30 6454 N 611.933 1.52934 -0.380664 0
M  V30 6455 C 613.344 1.86457 0.0952684 0
M  V30 6456 C 613.695 1.3007 1.46889 0
M  V30 6457 O 612.82 0.628636 2.07068 0
M  V30 6458 C 613.415 3.38323 0.179648 0
M  V30 6459 C 611.974 3.71589 0.599858 0
M  V30 6460 C 611.121 2.76228 -0.243572 0
M  V30 6461 H 614.072 1.46966 -0.59888 0
M  V30 6462 H 614.093 3.67113 1.00042 0
M  V30 6463 H 613.605 3.79333 -0.820228 0
M  V30 6464 H 611.706 3.36144 1.60742 0
M  V30 6465 H 611.819 4.77715 0.364003 0
M  V30 6466 H 610.183 2.53045 0.289855 0
M  V30 6467 H 610.966 3.20074 -1.24127 0
M  V30 6468 N 613.412 0.11024 1.57214 0
M  V30 6469 C 614.322 -0.857077 2.18383 0
M  V30 6470 C 615.338 -1.29915 1.1575 0
M  V30 6471 O 616.514 -1.36394 1.48184 0
M  V30 6472 C 613.579 -2.09264 2.76423 0
M  V30 6473 C 612.64 -1.70333 3.94063 0
M  V30 6474 C 611.873 -2.87999 4.49324 0
M  V30 6475 O 612.096 -4.0317 4.03497 0
M  V30 6476 O 611.03 -2.6559 5.40135 0
M  V30 6477 H 614.856 -0.366561 3.0148 0
M  V30 6478 H 612.441 -0.114914 1.48957 0
M  V30 6479 H 614.323 -2.81644 3.13456 0
M  V30 6480 H 612.998 -2.57339 1.96363 0
M  V30 6481 H 611.905 -0.950864 3.61814 0
M  V30 6482 H 613.238 -1.27007 4.75531 0
M  V30 6483 N 614.89 -1.56749 -0.16351 0
M  V30 6484 C 615.838 -1.97939 -1.22159 0
M  V30 6485 C 616.832 -0.869288 -1.45395 0
M  V30 6486 O 618.038 -1.05443 -1.45883 0
M  V30 6487 H 614.413 -0.629869 -0.410815 0
M  V30 6488 H 616.384 -2.86115 -0.847381 0
M  V30 6489 C 615.133 -2.36206 -2.55151 0
M  V30 6490 H 614.456 -3.2117 -2.38097 0
M  V30 6491 H 615.896 -2.68863 -3.27854 0
M  V30 6492 C 614.355 -1.20841 -3.14482 0
M  V30 6493 O 614.885 -0.500258 -3.98573 0
M  V30 6494 N 613.091 -0.976943 -2.73686 0
M  V30 6495 H 612.638 -1.55457 -2.05404 0
M  V30 6496 H 612.596 -0.206912 -3.13718 0
M  V30 6497 N 616.368 0.432326 -1.51554 0
M  V30 6498 C 617.616 1.17901 -1.64146 0
M  V30 6499 C 617.937 1.91604 -0.362367 0
M  V30 6500 O 617.207 1.85764 0.621968 0
M  V30 6501 H 615.787 0.438206 -0.604966 0
M  V30 6502 H 618.449 0.495172 -1.88505 0
M  V30 6503 H 617.545 1.90584 -2.47152 0
M  V30 6504 N 617.846 1.41785 0.688094 0
M  V30 6505 C 618.809 1.43936 1.78368 0
M  V30 6506 C 619.809 0.328866 1.57401 0
M  V30 6507 O 620.999 0.589093 1.63937 0
M  V30 6508 C 618.131 1.25804 3.16838 0
M  V30 6509 H 619.324 2.41472 1.77852 0
M  V30 6510 H 616.877 1.28037 0.896448 0
M  V30 6511 H 617.612 0.291386 3.22988 0
M  V30 6512 H 617.397 2.06272 3.33458 0
M  V30 6513 H 618.887 1.30162 3.96797 0
M  V30 6514 N 619.324 -0.923095 1.27737 0
M  V30 6515 C 620.571 -1.67127 1.14345 0
M  V30 6516 C 620.899 -1.92017 -0.30982 0
M  V30 6517 O 620.154 -1.51185 -1.24264 0
M  V30 6518 C 620.453 -3.04125 1.8773 0
M  V30 6519 C 620.119 -2.98929 3.37568 0
M  V30 6520 C 618.781 -2.9722 3.78436 0
M  V30 6521 C 621.133 -2.89875 4.33154 0
M  V30 6522 C 618.461 -2.84244 5.13247 0
M  V30 6523 C 620.813 -2.7844 5.68026 0
M  V30 6524 C 619.477 -2.75083 6.08182 0
M  V30 6525 H 618.747 -0.611562 0.418417 0
M  V30 6526 H 621.394 -1.07618 1.584 0
M  V30 6527 H 619.699 -3.67366 1.36196 0
M  V30 6528 H 621.396 -3.609 1.74792 0
M  V30 6529 H 617.986 -3.0105 3.05069 0
M  V30 6530 H 622.17 -2.9029 4.02548 0
M  V30 6531 H 617.426 -2.80034 5.43499 0
M  V30 6532 H 621.6 -2.70401 6.4176 0
M  V30 6533 H 619.227 -2.64786 7.12596 0
M  V30 6534 N 620.802 -1.09834 -1.13024 0
M  V30 6535 C 622.218 -0.828875 -1.36388 0
M  V30 6536 C 622.418 0.554756 -1.93713 0
M  V30 6537 O 621.474 1.30882 -2.15931 0
M  V30 6538 C 622.787 -1.92352 -2.3113 0
M  V30 6539 C 624.335 -1.95124 -2.44735 0
M  V30 6540 C 624.81 -3.03745 -3.42787 0
M  V30 6541 N 626.301 -3.03012 -3.5034 0
M  V30 6542 C 627.036 -3.83699 -4.26101 0
M  V30 6543 N 626.532 -4.74306 -5.04981 0
M  V30 6544 N 628.325 -3.71942 -4.21445 0
M  V30 6545 H 620.476 -1.99029 -0.74169 0
M  V30 6546 H 622.739 -0.864557 -0.388903 0
M  V30 6547 H 622.445 -2.91906 -1.96172 0
M  V30 6548 H 622.319 -1.80536 -3.3119 0
M  V30 6549 H 624.706 -0.962069 -2.78977 0
M  V30 6550 H 624.787 -2.11018 -1.44586 0
M  V30 6551 H 624.431 -4.02878 -3.09276 0
M  V30 6552 H 624.361 -2.85094 -4.42752 0
M  V30 6553 H 626.852 -2.37352 -2.94062 0
M  V30 6554 H 627.165 -5.32446 -5.60108 0
M  V30 6555 H 625.51 -4.78339 -5.04199 0
M  V30 6556 H 628.701 -3.00513 -3.589 0
M  V30 6557 H 628.874 -4.35062 -4.80235 0
M  V30 6558 N 622.28 1.30327 -0.886154 0
M  V30 6559 C 623.526 1.96388 -0.505941 0
M  V30 6560 C 623.859 1.69784 0.942712 0
M  V30 6561 O 623.134 1.00322 1.6663 0
M  V30 6562 C 623.417 3.51488 -0.782826 0
M  V30 6563 C 623.27 3.87603 -2.28219 0
M  V30 6564 C 624.589 4.39331 -0.260128 0
M  V30 6565 H 621.708 0.713327 -0.185292 0
M  V30 6566 H 624.35 1.54178 -1.11036 0
M  V30 6567 H 622.5 3.87572 -0.268399 0
M  V30 6568 H 624.172 3.61537 -2.86512 0
M  V30 6569 H 622.415 3.3563 -2.74837 0
M  V30 6570 H 623.086 4.95806 -2.42653 0
M  V30 6571 H 625.562 4.10162 -0.700444 0
M  V30 6572 H 624.438 5.46769 -0.483179 0
M  V30 6573 H 624.699 4.34072 0.838674 0
M  V30 6574 N 623.758 0.647228 1.43697 0
M  V30 6575 C 625.004 0.158422 2.0218 0
M  V30 6576 C 625.337 -1.22233 1.50907 0
M  V30 6577 O 624.612 -1.81478 0.699702 0
M  V30 6578 C 624.895 0.1627 3.59732 0
M  V30 6579 C 624.748 1.57694 4.21251 0
M  V30 6580 C 626.067 -0.504138 4.37203 0
M  V30 6581 H 623.186 0.059042 0.734631 0
M  V30 6582 H 625.828 0.826772 1.71069 0
M  V30 6583 H 623.978 -0.406414 3.86368 0
M  V30 6584 H 625.65 2.19618 4.05667 0
M  V30 6585 H 623.893 2.12603 3.7813 0
M  V30 6586 H 624.564 1.53183 5.3032 0
M  V30 6587 H 627.04 -0.0199841 4.16095 0
M  V30 6588 H 625.916 -0.470394 5.46881 0
M  V30 6589 H 626.177 -1.57726 4.13007 0
M  V30 6590 N 625.236 -1.5273 0.388769 0
M  V30 6591 C 626.166 -2.29353 -0.438111 0
M  V30 6592 C 627.147 -1.32719 -1.06394 0
M  V30 6593 O 628.332 -1.61612 -1.07681 0
M  V30 6594 C 625.462 -3.09995 -1.56589 0
M  V30 6595 C 624.416 -4.14509 -1.06613 0
M  V30 6596 C 623.742 -4.83372 -2.28594 0
M  V30 6597 C 625.042 -5.22127 -0.134459 0
M  V30 6598 H 626.736 -2.98723 0.201206 0
M  V30 6599 H 624.282 -1.43665 0.0982089 0
M  V30 6600 H 626.235 -3.62357 -2.15118 0
M  V30 6601 H 624.959 -2.38357 -2.23279 0
M  V30 6602 H 623.618 -3.63128 -0.503383 0
M  V30 6603 H 623.266 -4.08283 -2.93792 0
M  V30 6604 H 622.966 -5.54012 -1.95817 0
M  V30 6605 H 624.49 -5.38538 -2.87766 0
M  V30 6606 H 625.904 -5.69851 -0.627914 0
M  V30 6607 H 624.301 -6.00011 0.103534 0
M  V30 6608 H 625.371 -4.77971 0.816798 0
M  V30 6609 N 626.714 -0.118576 -1.57153 0
M  V30 6610 C 627.662 0.849114 -2.16547 0
M  V30 6611 C 628.656 1.27567 -1.11458 0
M  V30 6612 O 629.862 1.24746 -1.29763 0
M  V30 6613 H 626.237 0.291935 -0.693021 0
M  V30 6614 H 628.208 0.323693 -2.96639 0
M  V30 6615 C 626.957 2.08951 -2.77912 0
M  V30 6616 H 626.28 1.77021 -3.58474 0
M  V30 6617 H 627.72 2.74666 -3.23008 0
M  V30 6618 C 626.179 2.87899 -1.74974 0
M  V30 6619 O 626.709 3.83268 -1.20285 0
M  V30 6620 N 624.915 2.51884 -1.44924 0
M  V30 6621 H 624.462 1.74397 -1.89587 0
M  V30 6622 H 624.42 3.05003 -0.762921 0
M  V30 6623 N 628.193 1.56834 0.155195 0
M  V30 6624 C 629.423 1.86778 0.883044 0
M  V30 6625 C 629.831 0.703824 1.75622 0
M  V30 6626 O 629.174 -0.33581 1.80605 0
M  V30 6627 C 629.236 3.1133 1.79761 0
M  V30 6628 C 628.9 4.43504 1.10242 0
M  V30 6629 C 629.897 5.17859 0.460204 0
M  V30 6630 C 627.582 4.90233 1.09437 0
M  V30 6631 C 629.576 6.37144 -0.180782 0
M  V30 6632 C 627.263 6.09444 0.449569 0
M  V30 6633 C 628.261 6.82744 -0.186888 0
M  V30 6634 O 627.949 7.99692 -0.821486 0
M  V30 6635 H 627.681 0.62352 0.261149 0
M  V30 6636 H 630.235 2.04813 0.155204 0
M  V30 6637 H 628.465 2.89282 2.56618 0
M  V30 6638 H 630.154 3.27587 2.39669 0
M  V30 6639 H 630.92 4.8283 0.458289 0
M  V30 6640 H 626.799 4.33109 1.57917 0
M  V30 6641 H 630.343 6.94296 -0.678154 0
M  V30 6642 H 626.24 6.43936 0.449123 0
M  V30 6643 H 627.008 8.15306 -0.722337 0
M  V30 6644 N 629.671 -0.424282 1.51781 0
M  V30 6645 C 630.619 -1.53649 1.74628 0
M  V30 6646 C 631.613 -1.57923 0.612922 0
M  V30 6647 O 632.819 -1.61511 0.794618 0
M  V30 6648 H 629.194 -0.510706 0.551981 0
M  V30 6649 H 631.165 -1.31558 2.67834 0
M  V30 6650 C 629.914 -2.91177 1.9003 0
M  V30 6651 H 629.237 -2.88625 2.76651 0
M  V30 6652 H 630.677 -3.6833 2.10021 0
M  V30 6653 C 629.136 -3.30303 0.663435 0
M  V30 6654 O 629.666 -4.01315 -0.175812 0
M  V30 6655 N 627.872 -2.86201 0.503723 0
M  V30 6656 H 627.419 -2.28583 1.18776 0
M  V30 6657 H 627.377 -3.12741 -0.322575 0
M  V30 6658 N 631.149 -1.42148 -0.680565 0
M  V30 6659 C 632.397 -1.42029 -1.43779 0
M  V30 6660 C 632.718 -0.0356347 -1.94967 0
M  V30 6661 O 631.988 0.924936 -1.7269 0
M  V30 6662 H 630.568 -0.522835 -0.533529 0
M  V30 6663 H 633.23 -1.7752 -0.804538 0
M  V30 6664 H 632.326 -2.11658 -2.29363 0
M  V30 6665 N 632.627 0.916307 -1.28225 0
M  V30 6666 C 633.855 1.69901 -1.18073 0
M  V30 6667 C 634.27 1.86988 0.260968 0
M  V30 6668 O 633.627 1.39505 1.17663 0
M  V30 6669 C 633.678 3.09254 -1.87201 0
M  V30 6670 O 633.399 2.92959 -3.2574 0
M  V30 6671 C 634.9 4.0362 -1.83319 0
M  V30 6672 H 632.12 0.531181 -0.409985 0
M  V30 6673 H 634.664 1.14703 -1.69303 0
M  V30 6674 H 632.819 3.61277 -1.39848 0
M  V30 6675 H 633.233 3.81139 -3.60324 0
M  V30 6676 H 634.707 4.98873 -2.36282 0
M  V30 6677 H 635.184 4.3176 -0.805007 0
M  V30 6678 H 635.79 3.57524 -2.3034 0
M  V30 6679 N 634.105 1.10431 1.1244 0
M  V30 6680 C 635.33 0.869089 1.88313 0
M  V30 6681 C 635.755 -0.574912 1.79099 0
M  V30 6682 O 635.113 -1.40496 1.14589 0
M  V30 6683 C 635.161 1.32208 3.3549 0
M  V30 6684 O 634.265 0.487092 4.09513 0
M  V30 6685 H 633.606 0.313894 0.585121 0
M  V30 6686 H 636.136 1.47111 1.42195 0
M  V30 6687 H 636.146 1.31201 3.86329 0
M  V30 6688 H 634.821 2.37364 3.41513 0
M  V30 6689 H 633.398 0.562372 3.68635 0
M  V30 6690 N 635.583 -1.29855 0.893053 0
M  V30 6691 C 636.515 -2.26911 0.32311 0
M  V30 6692 C 637.528 -1.54039 -0.526858 0
M  V30 6693 O 638.717 -1.75132 -0.345095 0
M  V30 6694 C 635.817 -3.34266 -0.558509 0
M  V30 6695 C 634.99 -4.36601 0.264222 0
M  V30 6696 C 634.049 -5.23326 -0.549171 0
M  V30 6697 O 633.075 -5.69192 0.0309883 0
M  V30 6698 N 634.277 -5.50008 -1.85664 0
M  V30 6699 H 637.042 -2.76455 1.15726 0
M  V30 6700 H 634.603 -1.4312 0.756859 0
M  V30 6701 H 636.595 -3.89211 -1.1089 0
M  V30 6702 H 635.165 -2.8459 -1.29334 0
M  V30 6703 H 634.385 -3.81409 0.996046 0
M  V30 6704 H 635.673 -5.02019 0.827906 0
M  V30 6705 H 635.071 -5.14542 -2.35081 0
M  V30 6706 H 633.628 -6.07796 -2.35431 0
M  V30 6707 N 637.061 -0.65484 -1.43351 0
M  V30 6708 C 637.971 0.0363603 -2.34572 0
M  V30 6709 C 638.987 0.810432 -1.53974 0
M  V30 6710 O 640.163 0.757308 -1.86619 0
M  V30 6711 C 637.228 0.989733 -3.32273 0
M  V30 6712 C 636.289 0.212414 -4.28774 0
M  V30 6713 C 635.522 1.12038 -5.21808 0
M  V30 6714 O 635.745 2.35967 -5.19303 0
M  V30 6715 O 634.679 0.59191 -5.98982 0
M  V30 6716 H 638.505 -0.714527 -2.95175 0
M  V30 6717 H 636.09 -0.415029 -1.4352 0
M  V30 6718 H 637.972 1.53759 -3.92347 0
M  V30 6719 H 636.647 1.72082 -2.74171 0
M  V30 6720 H 635.554 -0.379062 -3.72175 0
M  V30 6721 H 636.887 -0.479138 -4.89862 0
M  V30 6722 N 638.539 1.52521 -0.396863 0
M  V30 6723 C 639.469 2.29582 0.425941 0
M  V30 6724 C 640.45 1.33281 1.05689 0
M  V30 6725 O 641.635 1.62181 1.06823 0
M  V30 6726 C 638.765 3.10821 1.54943 0
M  V30 6727 C 637.719 4.15069 1.04413 0
M  V30 6728 C 637.045 4.84578 2.26028 0
M  V30 6729 C 638.345 5.22191 0.106767 0
M  V30 6730 H 640.039 2.98612 -0.217045 0
M  V30 6731 H 637.585 1.43611 -0.105826 0
M  V30 6732 H 639.538 3.63492 2.13193 0
M  V30 6733 H 638.262 2.39538 2.22011 0
M  V30 6734 H 636.921 3.63389 0.484118 0
M  V30 6735 H 636.569 4.09835 2.91623 0
M  V30 6736 H 636.269 5.55043 1.92876 0
M  V30 6737 H 637.793 5.40056 2.84906 0
M  V30 6738 H 639.207 5.70176 0.597685 0
M  V30 6739 H 637.604 5.99947 -0.135352 0
M  V30 6740 H 638.674 4.77531 -0.842134 0
M  V30 6741 N 640.017 0.126909 1.57088 0
M  V30 6742 C 641.263 -0.529952 1.95753 0
M  V30 6743 C 641.596 -1.65823 1.01077 0
M  V30 6744 O 640.871 -1.94437 0.0494162 0
M  V30 6745 C 641.154 -1.05517 3.44294 0
M  V30 6746 C 641.007 0.0702253 4.49745 0
M  V30 6747 C 642.326 -1.9435 3.94862 0
M  V30 6748 H 639.445 -0.191168 0.711775 0
M  V30 6749 H 642.087 0.204071 1.88901 0
M  V30 6750 H 640.237 -1.68069 3.50264 0
M  V30 6751 H 641.909 0.705834 4.55868 0
M  V30 6752 H 640.152 0.732259 4.27575 0
M  V30 6753 H 640.823 -0.338642 5.5096 0
M  V30 6754 H 643.299 -1.41658 3.91244 0
M  V30 6755 H 642.175 -2.28015 4.993 0
M  V30 6756 H 642.436 -2.87299 3.36024 0
M  V30 6757 N 641.495 -1.56914 -0.146875 0
M  V30 6758 C 642.458 -1.97368 -1.16526 0
M  V30 6759 C 643.458 -0.860223 -1.35856 0
M  V30 6760 O 644.648 -1.12684 -1.32846 0
M  V30 6761 C 641.78 -2.28974 -2.52555 0
M  V30 6762 H 642.973 -2.88523 -0.818209 0
M  V30 6763 H 640.526 -1.5135 -0.390221 0
M  V30 6764 H 641.261 -1.40611 -2.92231 0
M  V30 6765 H 641.046 -3.10157 -2.39886 0
M  V30 6766 H 642.536 -2.61109 -3.25902 0
M  V30 6767 N 642.974 0.416227 -1.52004 0
M  V30 6768 C 644.22 1.16555 -1.6596 0
M  V30 6769 C 644.553 1.90347 -0.384906 0
M  V30 6770 O 643.828 1.84474 0.616405 0
M  V30 6771 C 644.111 2.1657 -2.87696 0
M  V30 6772 C 643.964 1.46722 -4.25197 0
M  V30 6773 C 645.283 3.17321 -3.04951 0
M  V30 6774 H 642.402 0.422369 -0.603965 0
M  V30 6775 H 645.044 0.452141 -1.84542 0
M  V30 6776 H 643.194 2.77411 -2.71985 0
M  V30 6777 H 644.866 0.89056 -4.52622 0
M  V30 6778 H 643.109 0.769263 -4.26925 0
M  V30 6779 H 643.78 2.19665 -5.0641 0
M  V30 6780 H 646.256 2.66552 -3.19514 0
M  V30 6781 H 645.132 3.84573 -3.91656 0
M  V30 6782 H 645.393 3.84643 -2.17951 0
M  V30 6783 N 644.452 1.42507 0.673017 0
M  V30 6784 C 645.677 1.4668 1.46627 0
M  V30 6785 C 646.102 0.080066 1.8793 0
M  V30 6786 O 645.46 -0.921879 1.56112 0
M  V30 6787 C 645.508 2.40091 2.69051 0
M  V30 6788 O 644.612 1.8735 3.67387 0
M  V30 6789 H 643.953 0.496908 0.44043 0
M  V30 6790 H 646.483 1.87215 0.825334 0
M  V30 6791 H 646.493 2.56731 3.17101 0
M  V30 6792 H 645.168 3.4084 2.3833 0
M  V30 6793 H 643.745 1.80274 3.26429 0
M  V30 6794 N 645.93 -0.909495 1.28709 0
M  V30 6795 C 647.178 -1.65577 1.15882 0
M  V30 6796 C 647.499 -1.928 -0.292108 0
M  V30 6797 O 646.769 -1.54716 -1.20166 0
M  V30 6798 H 645.349 -0.613714 0.425869 0
M  V30 6799 H 648.011 -1.09108 1.61498 0
M  V30 6800 H 647.107 -2.61634 1.70159 0
M  V30 6801 N 647.408 -1.11026 -1.11852 0
M  V30 6802 C 648.824 -0.843294 -1.35502 0
M  V30 6803 C 649.024 0.534179 -1.9429 0
M  V30 6804 O 648.08 1.28585 -2.17307 0
M  V30 6805 C 649.393 -1.94793 -2.29077 0
M  V30 6806 C 650.941 -1.97709 -2.42652 0
M  V30 6807 C 651.416 -3.07364 -3.39546 0
M  V30 6808 N 652.907 -3.0671 -3.47107 0
M  V30 6809 C 653.642 -3.88197 -4.22008 0
M  V30 6810 N 653.138 -4.79635 -4.99922 0
M  V30 6811 N 654.931 -3.76391 -4.17476 0
M  V30 6812 H 647.082 -1.99805 -0.720538 0
M  V30 6813 H 649.345 -0.868633 -0.379711 0
M  V30 6814 H 649.051 -2.93971 -1.93065 0
M  V30 6815 H 648.925 -1.84039 -3.29256 0
M  V30 6816 H 651.312 -0.991604 -2.77941 0
M  V30 6817 H 651.393 -2.1254 -1.4234 0
M  V30 6818 H 651.037 -4.06136 -3.04985 0
M  V30 6819 H 650.967 -2.89774 -4.39703 0
M  V30 6820 H 653.458 -2.40457 -2.91528 0
M  V30 6821 H 653.771 -5.38357 -5.54429 0
M  V30 6822 H 652.116 -4.8366 -4.99097 0
M  V30 6823 H 655.307 -3.04303 -3.55693 0
M  V30 6824 H 655.48 -4.40131 -4.75593 0
M  V30 6825 N 648.886 1.2938 -0.899927 0
M  V30 6826 C 649.833 2.27713 -0.376243 0
M  V30 6827 C 650.803 1.57016 0.541774 0
M  V30 6828 O 651.988 1.84997 0.466966 0
M  V30 6829 C 649.128 3.42889 0.39 0
M  V30 6830 C 648.241 4.28369 -0.558938 0
M  V30 6831 C 647.376 5.30726 0.224379 0
M  V30 6832 C 646.415 6.07862 -0.719068 0
M  V30 6833 N 645.552 7.02094 0.0298569 0
M  V30 6834 H 650.392 2.71888 -1.21988 0
M  V30 6835 H 647.929 1.33724 -0.612879 0
M  V30 6836 H 649.887 4.08443 0.850314 0
M  V30 6837 H 648.517 2.99743 1.19809 0
M  V30 6838 H 647.569 3.62986 -1.13777 0
M  V30 6839 H 648.881 4.82068 -1.2811 0
M  V30 6840 H 648.035 6.02098 0.745881 0
M  V30 6841 H 646.774 4.77759 0.979674 0
M  V30 6842 H 645.779 5.35353 -1.25207 0
M  V30 6843 H 647.004 6.62917 -1.4737 0
M  V30 6844 H 644.95 6.51496 0.767415 0
M  V30 6845 H 644.867 7.5335 -0.632391 0
M  V30 6846 H 646.135 7.77685 0.531615 0
M  V30 6847 N 650.364 0.662433 1.43002 0
M  V30 6848 C 651.294 -0.00979809 2.33498 0
M  V30 6849 C 652.275 -0.802329 1.49989 0
M  V30 6850 O 653.46 -0.761964 1.78627 0
M  V30 6851 C 650.59 -0.970446 3.33466 0
M  V30 6852 C 649.544 -0.287383 4.27034 0
M  V30 6853 C 648.87 -1.36012 5.17112 0
M  V30 6854 C 650.17 0.82595 5.15728 0
M  V30 6855 H 651.864 0.745959 2.89958 0
M  V30 6856 H 649.41 0.360172 1.39423 0
M  V30 6857 H 651.363 -1.44971 3.95679 0
M  V30 6858 H 650.087 -1.75748 2.75282 0
M  V30 6859 H 648.746 0.17152 3.66199 0
M  V30 6860 H 648.394 -2.13882 4.55262 0
M  V30 6861 H 648.094 -0.908276 5.80538 0
M  V30 6862 H 649.618 -1.84056 5.82199 0
M  V30 6863 H 651.032 0.42845 5.71697 0
M  V30 6864 H 649.429 1.20282 5.87922 0
M  V30 6865 H 650.499 1.68003 4.54866 0
M  V30 6866 N 651.842 -1.52309 0.404946 0
M  V30 6867 C 652.79 -2.28452 -0.437321 0
M  V30 6868 C 653.784 -1.32975 -1.04948 0
M  V30 6869 O 654.99 -1.50451 -0.988159 0
M  V30 6870 H 651.365 -0.734824 -0.159805 0
M  V30 6871 H 653.336 -2.97542 0.22615 0
M  V30 6872 C 652.085 -3.11536 -1.54404 0
M  V30 6873 H 651.408 -3.84871 -1.08233 0
M  V30 6874 H 652.848 -3.67926 -2.10729 0
M  V30 6875 C 651.307 -2.24833 -2.50902 0
M  V30 6876 O 651.837 -1.88574 -3.54687 0
M  V30 6877 N 650.043 -1.88685 -2.21012 0
M  V30 6878 H 649.59 -2.18371 -1.36646 0
M  V30 6879 H 649.548 -1.30966 -2.85824 0
M  V30 6880 N 653.32 -0.135238 -1.57019 0
M  V30 6881 C 654.566 0.513232 -1.96818 0
M  V30 6882 C 654.921 1.63245 -1.01827 0
M  V30 6883 O 654.214 1.91532 -0.0511756 0
M  V30 6884 C 654.408 1.07694 -3.40788 0
M  V30 6885 C 654.237 0.0138667 -4.49698 0
M  V30 6886 C 653.007 -0.423532 -5.03522 0
M  V30 6887 C 655.205 -0.77322 -5.08454 0
M  V30 6888 N 653.187 -1.47068 -5.96024 0
M  V30 6889 C 654.558 -1.67115 -5.97053 0
M  V30 6890 C 656.613 -0.822313 -4.91063 0
M  V30 6891 C 655.316 -2.61395 -6.70123 0
M  V30 6892 C 657.342 -1.75288 -5.64826 0
M  V30 6893 C 656.704 -2.63836 -6.53123 0
M  V30 6894 H 652.803 0.156956 -0.766087 0
M  V30 6895 H 655.387 -0.227118 -1.93371 0
M  V30 6896 H 653.558 1.78694 -3.44852 0
M  V30 6897 H 655.29 1.69106 -3.67675 0
M  V30 6898 H 652.045 -0.0280202 -4.73592 0
M  V30 6899 H 652.469 -1.99366 -6.46979 0
M  V30 6900 H 657.111 -0.151822 -4.22527 0
M  V30 6901 H 654.829 -3.2945 -7.37895 0
M  V30 6902 H 658.415 -1.79652 -5.53368 0
M  V30 6903 H 657.295 -3.34672 -7.092 0
M  V30 6904 N 654.798 1.5699 0.138552 0
M  V30 6905 C 656.209 1.73171 0.697754 0
M  V30 6906 C 656.56 0.750952 1.8126 0
M  V30 6907 O 655.685 -0.080549 2.1625 0
M  V30 6908 C 656.28 3.13996 1.27248 0
M  V30 6909 C 654.839 3.3175 1.77816 0
M  V30 6910 C 653.986 2.69084 0.669991 0
M  V30 6911 H 656.937 1.5846 -0.0871979 0
M  V30 6912 H 656.958 3.14463 2.14227 0
M  V30 6913 H 656.47 3.85354 0.460855 0
M  V30 6914 H 654.571 2.65403 2.61519 0
M  V30 6915 H 654.684 4.39768 1.90107 0
M  V30 6916 H 653.048 2.29782 1.09874 0
M  V30 6917 H 653.831 3.43053 -0.130329 0
M  V30 6918 N 656.276 -0.40816 1.52223 0
M  V30 6919 C 657.206 -1.5042 1.78595 0
M  V30 6920 C 658.187 -1.57723 0.636974 0
M  V30 6921 O 659.372 -1.72982 0.882664 0
M  V30 6922 C 656.502 -2.88232 1.93751 0
M  V30 6923 C 655.456 -2.95779 3.09352 0
M  V30 6924 C 654.782 -4.35855 3.09732 0
M  V30 6925 C 656.082 -2.67175 4.48793 0
M  V30 6926 H 657.776 -1.28601 2.70374 0
M  V30 6927 H 655.322 -0.617221 1.30101 0
M  V30 6928 H 657.275 -3.64895 2.10783 0
M  V30 6929 H 655.999 -3.11347 0.986443 0
M  V30 6930 H 654.658 -2.21561 2.92072 0
M  V30 6931 H 654.306 -4.55981 2.12346 0
M  V30 6932 H 654.006 -4.41829 3.87377 0
M  V30 6933 H 655.53 -5.14451 3.28895 0
M  V30 6934 H 656.944 -3.3356 4.66273 0
M  V30 6935 H 655.341 -2.84523 5.28362 0
M  V30 6936 H 656.411 -1.62609 4.56822 0
M  V30 6937 N 657.755 -1.42862 -0.66545 0
M  V30 6938 C 659.003 -1.43546 -1.42264 0
M  V30 6939 C 659.324 -0.0563116 -1.94919 0
M  V30 6940 O 658.594 0.906568 -1.73661 0
M  V30 6941 H 657.174 -0.528464 -0.527953 0
M  V30 6942 H 659.836 -1.78363 -0.785665 0
M  V30 6943 H 658.932 -2.14079 -2.27105 0
M  V30 6944 N 659.233 0.902656 -1.29189 0
M  V30 6945 C 660.463 1.68394 -1.19695 0
M  V30 6946 C 660.871 1.87602 0.245384 0
M  V30 6947 O 660.214 1.41084 1.17648 0
M  V30 6948 C 660.276 3.09094 -1.83578 0
M  V30 6949 C 659.94 3.1313 -3.32864 0
M  V30 6950 C 660.937 2.93497 -4.29134 0
M  V30 6951 C 658.622 3.3529 -3.74013 0
M  V30 6952 C 660.616 2.95953 -5.64527 0
M  V30 6953 C 658.303 3.37377 -5.09529 0
M  V30 6954 C 659.301 3.1773 -6.04596 0
M  V30 6955 O 658.989 3.196 -7.37639 0
M  V30 6956 H 658.721 0.532815 -0.416034 0
M  V30 6957 H 661.275 1.1374 -1.71033 0
M  V30 6958 H 659.505 3.65338 -1.26747 0
M  V30 6959 H 661.194 3.69297 -1.68447 0
M  V30 6960 H 661.96 2.76192 -3.98677 0
M  V30 6961 H 657.839 3.49623 -3.00474 0
M  V30 6962 H 661.383 2.80536 -6.38706 0
M  V30 6963 H 657.28 3.54213 -5.39633 0
M  V30 6964 H 658.048 3.35887 -7.46406 0
M  V30 6965 N 660.711 1.11618 1.11262 0
M  V30 6966 C 662.122 0.881942 1.64556 0
M  V30 6967 C 662.473 -0.585442 1.87262 0
M  V30 6968 O 661.598 -1.44795 1.60821 0
M  V30 6969 C 662.193 1.59446 2.98935 0
M  V30 6970 C 660.752 1.40661 3.4913 0
M  V30 6971 C 659.899 1.63593 2.23903 0
M  V30 6972 H 662.85 1.27217 0.94877 0
M  V30 6973 H 662.871 1.04054 3.65996 0
M  V30 6974 H 662.383 2.66241 2.82378 0
M  V30 6975 H 660.484 0.360835 3.70849 0
M  V30 6976 H 660.597 2.15693 4.27801 0
M  V30 6977 H 658.961 1.05944 2.3162 0
M  V30 6978 H 659.744 2.71666 2.09886 0
M  V30 6979 N 662.189 -1.289 0.906776 0
M  V30 6980 C 663.6 -1.77336 0.58384 0
M  V30 6981 C 663.951 -1.74304 -0.900697 0
M  V30 6982 O 663.076 -1.33335 -1.70443 0
M  V30 6983 C 663.671 -3.22019 1.05304 0
M  V30 6984 C 662.23 -3.68205 0.781148 0
M  V30 6985 C 661.377 -2.48837 1.22373 0
M  V30 6986 H 664.328 -1.15462 1.08877 0
M  V30 6987 H 664.349 -3.78481 0.391414 0
M  V30 6988 H 663.861 -3.24194 2.13353 0
M  V30 6989 H 661.962 -3.71497 -0.28643 0
M  V30 6990 H 662.075 -4.58675 1.384 0
M  V30 6991 H 660.439 -2.46461 0.642594 0
M  V30 6992 H 661.222 -2.53736 2.31242 0
M  V30 6993 N 663.667 -0.670007 -1.42649 0
M  V30 6994 C 665.078 -0.268118 -1.84765 0
M  V30 6995 C 665.429 1.18877 -1.56086 0
M  V30 6996 O 664.554 1.90947 -1.01825 0
M  V30 6997 C 665.149 -0.47984 -3.35385 0
M  V30 6998 C 663.708 -0.132116 -3.76168 0
M  V30 6999 C 662.855 -0.774611 -2.66261 0
M  V30 7000 H 665.806 -0.872509 -1.32563 0
M  V30 7001 H 665.827 0.269522 -3.79544 0
M  V30 7002 H 665.339 -1.54026 -3.56227 0
M  V30 7003 H 663.44 0.92505 -3.60934 0
M  V30 7004 H 663.553 -0.569294 -4.75706 0
M  V30 7005 H 661.917 -0.206353 -2.53863 0
M  V30 7006 H 662.7 -1.83839 -2.89928 0
M  V30 7007 N 665.145 1.52092 -0.413018 0
M  V30 7008 C 666.422 1.94356 0.22024 0
M  V30 7009 C 666.802 1.35017 1.62277 0
M  V30 7010 O 666.15 0.527511 2.22328 0
M  V30 7011 C 666.36 3.48289 0.222638 0
M  V30 7012 C 667.708 4.22313 0.440098 0
M  V30 7013 O 668.732 3.54919 0.301826 0
M  V30 7014 O 667.591 5.41829 0.712984 0
M  V30 7015 H 664.685 0.814536 0.14304 0
M  V30 7016 H 667.231 1.63083 -0.469242 0
M  V30 7017 H 666.003 3.83872 -0.758836 0
M  V30 7018 H 665.626 3.85934 0.956057 0
M  V30 7019 N 666.623 0.143563 1.56945 0
M  V30 7020 C 667.872 -0.50835 1.95189 0
M  V30 7021 C 668.185 -1.66239 1.03073 0
M  V30 7022 O 669.391 -2.3787 1.30882 0
M  V30 7023 C 667.847 -0.955735 3.46978 0
M  V30 7024 C 667.455 0.171183 4.47673 0
M  V30 7025 C 669.199 -1.57763 3.94095 0
M  V30 7026 C 667.106 -0.294279 5.90667 0
M  V30 7027 H 666.036 -0.193679 0.728701 0
M  V30 7028 H 668.687 0.227357 1.82086 0
M  V30 7029 H 667.069 -1.7466 3.55401 0
M  V30 7030 H 668.243 0.948049 4.50942 0
M  V30 7031 H 666.558 0.701273 4.10452 0
M  V30 7032 H 669.155 -1.93745 4.98364 0
M  V30 7033 H 669.498 -2.46531 3.35452 0
M  V30 7034 H 670.031 -0.851728 3.88575 0
M  V30 7035 H 666.77 0.557939 6.53121 0
M  V30 7036 H 666.29 -1.0371 5.90766 0
M  V30 7037 H 667.969 -0.747426 6.42668 0
M  V30 7038 N 668.101 -1.57061 -0.130224 0
M  V30 7039 C 669.512 -1.73539 -0.68856 0
M  V30 7040 C 669.863 -0.760554 -1.80859 0
M  V30 7041 O 668.988 0.0690796 -2.1629 0
M  V30 7042 C 669.583 -3.14666 -1.25581 0
M  V30 7043 C 668.142 -3.32689 -1.76055 0
M  V30 7044 C 667.289 -2.69436 -0.655712 0
M  V30 7045 H 670.24 -1.58412 0.0956002 0
M  V30 7046 H 670.261 -3.15595 -2.12556 0
M  V30 7047 H 669.773 -3.85593 -0.440412 0
M  V30 7048 H 667.874 -2.66786 -2.60108 0
M  V30 7049 H 667.987 -4.4077 -1.87772 0
M  V30 7050 H 666.351 -2.30362 -1.08654 0
M  V30 7051 H 667.134 -3.42979 0.14852 0
M  V30 7052 N 669.579 0.400081 -1.52437 0
M  V30 7053 C 670.526 1.48803 -1.76426 0
M  V30 7054 C 671.496 1.5461 -0.607032 0
M  V30 7055 O 672.681 1.71041 -0.845563 0
M  V30 7056 C 669.821 2.86156 -1.92896 0
M  V30 7057 C 668.934 2.89587 -3.20567 0
M  V30 7058 C 668.069 4.18296 -3.27417 0
M  V30 7059 C 667.108 4.15736 -4.49255 0
M  V30 7060 N 666.245 5.36032 -4.53447 0
M  V30 7061 H 671.085 1.27649 -2.69276 0
M  V30 7062 H 668.622 0.619451 -1.33421 0
M  V30 7063 H 670.58 3.65901 -2.00429 0
M  V30 7064 H 669.21 3.05785 -1.03418 0
M  V30 7065 H 668.262 2.02278 -3.22161 0
M  V30 7066 H 669.574 2.83562 -4.10358 0
M  V30 7067 H 668.728 5.06439 -3.34072 0
M  V30 7068 H 667.467 4.27028 -2.35581 0
M  V30 7069 H 666.472 3.25982 -4.42737 0
M  V30 7070 H 667.697 4.08636 -5.42396 0
M  V30 7071 H 665.643 5.45415 -3.64498 0
M  V30 7072 H 665.56 5.32038 -5.37096 0
M  V30 7073 H 666.828 6.26104 -4.64343 0
M  V30 7074 N 671.057 1.43213 0.657864 0
M  V30 7075 C 672.297 1.46083 1.42965 0
M  V30 7076 C 672.661 0.0809712 1.91829 0
M  V30 7077 O 673.862 -0.0156305 2.68795 0
M  V30 7078 C 672.133 2.47044 2.58271 0
M  V30 7079 S 673.692 2.68753 3.46868 0
M  V30 7080 H 670.51 0.517015 0.488074 0
M  V30 7081 H 673.112 1.79945 0.764213 0
M  V30 7082 H 671.816 3.46044 2.20639 0
M  V30 7083 H 671.347 2.14665 3.2967 0
M  V30 7084 H 673.362 1.98329 4.54841 0
M  V30 7085 N 672.536 -0.895792 1.29666 0
M  V30 7086 C 673.784 -1.64339 1.17631 0
M  V30 7087 C 674.105 -1.93099 -0.271643 0
M  V30 7088 O 673.375 -1.55981 -1.18518 0
M  V30 7089 H 671.955 -0.609162 0.432354 0
M  V30 7090 H 674.617 -1.07389 1.62646 0
M  V30 7091 H 673.713 -2.59815 1.72924 0
M  V30 7092 N 674.014 -1.12206 -1.10668 0
M  V30 7093 C 675.261 -0.875875 -1.82578 0
M  V30 7094 C 675.589 0.598342 -1.85068 0
M  V30 7095 O 674.844 1.45818 -1.3052 0
M  V30 7096 C 675.143 -1.39276 -3.29146 0
M  V30 7097 C 674.809 -2.8816 -3.46806 0
M  V30 7098 C 673.471 -3.28813 -3.51334 0
M  V30 7099 C 675.823 -3.8401 -3.52399 0
M  V30 7100 C 673.151 -4.64028 -3.59019 0
M  V30 7101 C 675.503 -5.19053 -3.61617 0
M  V30 7102 C 674.167 -5.59252 -3.64408 0
M  V30 7103 H 673.437 -0.320505 -0.6681 0
M  V30 7104 H 676.084 -1.40184 -1.30464 0
M  V30 7105 H 674.389 -0.787207 -3.8381 0
M  V30 7106 H 676.086 -1.17851 -3.83291 0
M  V30 7107 H 672.676 -2.55716 -3.43958 0
M  V30 7108 H 676.86 -3.53698 -3.48154 0
M  V30 7109 H 672.116 -4.94568 -3.59461 0
M  V30 7110 H 676.29 -5.93152 -3.64889 0
M  V30 7111 H 673.917 -6.64017 -3.70116 0
M  V30 7112 N 675.492 1.28418 -0.913599 0
M  V30 7113 C 676.769 1.89977 -0.465619 0
M  V30 7114 C 677.149 1.82813 1.05559 0
M  V30 7115 O 676.497 1.26397 1.90358 0
M  V30 7116 C 676.707 3.34492 -0.995813 0
M  V30 7117 C 678.055 4.11468 -1.04782 0
M  V30 7118 O 679.079 3.43451 -0.944445 0
M  V30 7119 O 677.938 5.33046 -1.20518 0
M  V30 7120 H 675.032 0.813734 -0.147532 0
M  V30 7121 H 677.578 1.36786 -1.00437 0
M  V30 7122 H 676.35 3.33929 -2.03978 0
M  V30 7123 H 675.973 3.95181 -0.437878 0
M  V30 7124 N 676.97 0.677563 1.42291 0
M  V30 7125 C 677.918 -0.0106755 2.32598 0
M  V30 7126 C 678.912 -0.787643 1.49975 0
M  V30 7127 O 680.118 -0.695295 1.66029 0
M  V30 7128 H 676.493 -0.0222482 0.751671 0
M  V30 7129 H 678.464 0.768312 2.88339 0
M  V30 7130 C 677.213 -0.946142 3.3458 0
M  V30 7131 H 676.536 -0.357701 3.98197 0
M  V30 7132 H 677.976 -1.39634 4.00348 0
M  V30 7133 C 676.435 -2.05383 2.67057 0
M  V30 7134 O 676.965 -3.1406 2.50458 0
M  V30 7135 N 675.171 -1.82635 2.26038 0
M  V30 7136 H 674.718 -0.942534 2.39737 0
M  V30 7137 H 674.676 -2.56937 1.81192 0
M  V30 7138 N 678.448 -1.51871 0.421078 0
M  V30 7139 C 679.358 -2.31077 -0.405069 0
M  V30 7140 C 680.374 -1.39301 -1.04265 0
M  V30 7141 O 681.55 -1.72376 -1.04157 0
M  V30 7142 C 678.615 -3.12556 -1.50032 0
M  V30 7143 C 677.676 -4.20088 -0.884559 0
M  V30 7144 C 676.909 -4.97673 -1.92762 0
M  V30 7145 O 677.132 -4.75696 -3.14753 0
M  V30 7146 O 676.066 -5.82203 -1.52719 0
M  V30 7147 H 679.892 -3.02742 0.241086 0
M  V30 7148 H 677.477 -1.48263 0.183991 0
M  V30 7149 H 679.359 -3.6326 -2.13589 0
M  V30 7150 H 678.034 -2.43672 -2.13086 0
M  V30 7151 H 676.941 -3.73502 -0.211379 0
M  V30 7152 H 678.274 -4.91298 -0.297763 0
M  V30 7153 N 679.926 -0.151884 -1.56866 0
M  V30 7154 C 681.203 0.543328 -1.87902 0
M  V30 7155 C 681.583 1.82636 -1.05864 0
M  V30 7156 O 680.931 2.28028 -0.146868 0
M  V30 7157 C 681.141 0.804056 -3.39611 0
M  V30 7158 C 682.489 1.14267 -4.08935 0
M  V30 7159 O 683.513 0.893248 -3.44818 0
M  V30 7160 O 682.372 1.61229 -5.22176 0
M  V30 7161 H 679.466 0.277724 -0.778973 0
M  V30 7162 H 682.012 -0.188862 -1.68646 0
M  V30 7163 H 680.784 -0.103772 -3.91162 0
M  V30 7164 H 680.407 1.59025 -3.64413 0
M  V30 7165 N 681.404 1.57128 0.121893 0
M  V30 7166 C 682.815 1.73902 0.679348 0
M  V30 7167 C 683.166 0.770135 1.80453 0
M  V30 7168 O 682.291 -0.0576083 2.16323 0
M  V30 7169 C 682.886 3.15328 1.2391 0
M  V30 7170 C 681.445 3.33618 1.74288 0
M  V30 7171 C 680.592 2.6978 0.641414 0
M  V30 7172 H 683.543 1.58359 -0.104 0
M  V30 7173 H 683.564 3.16718 2.10879 0
M  V30 7174 H 683.076 3.85821 0.419957 0
M  V30 7175 H 681.177 2.68162 2.58689 0
M  V30 7176 H 681.29 4.4176 1.85432 0
M  V30 7177 H 679.654 2.30935 1.0743 0
M  V30 7178 H 680.437 3.42895 -0.166707 0
M  V30 7179 N 682.882 -0.391992 1.52647 0
M  V30 7180 C 683.845 -1.46135 1.7657 0
M  V30 7181 C 684.845 -1.47701 0.635698 0
M  V30 7182 O 686.035 -1.48924 0.903728 0
M  V30 7183 C 683.167 -2.85443 1.86374 0
M  V30 7184 H 684.36 -1.26208 2.72051 0
M  V30 7185 H 681.913 -0.623549 1.43323 0
M  V30 7186 H 682.648 -3.10718 0.928685 0
M  V30 7187 H 682.433 -2.85708 2.68539 0
M  V30 7188 H 683.923 -3.62933 2.06566 0
M  V30 7189 N 684.36 -1.4356 -0.65026 0
M  V30 7190 C 685.6 -1.46839 -1.42188 0
M  V30 7191 C 685.964 -0.0911433 -1.91784 0
M  V30 7192 O 687.165 0.00137545 -2.688 0
M  V30 7193 C 685.436 -2.48411 -2.56957 0
M  V30 7194 S 686.995 -2.70589 -3.45438 0
M  V30 7195 H 683.813 -0.519596 -0.485325 0
M  V30 7196 H 686.415 -1.80347 -0.75466 0
M  V30 7197 H 685.119 -3.47209 -2.18801 0
M  V30 7198 H 684.65 -2.16411 -3.28527 0
M  V30 7199 H 686.665 -2.00738 -4.53782 0
M  V30 7200 N 685.838 0.888903 -1.30139 0
M  V30 7201 C 686.786 2.0156 -1.16088 0
M  V30 7202 C 687.78 1.69239 -0.0737413 0
M  V30 7203 O 688.986 1.78468 -0.234313 0
M  V30 7204 H 685.361 0.660825 -0.358907 0
M  V30 7205 H 687.332 2.10547 -2.11453 0
M  V30 7206 C 686.081 3.36758 -0.865426 0
M  V30 7207 H 685.404 3.62137 -1.69402 0
M  V30 7208 H 686.844 4.16246 -0.807192 0
M  V30 7209 C 685.303 3.34124 0.431577 0
M  V30 7210 O 685.833 3.7445 1.45431 0
M  V30 7211 N 684.039 2.87229 0.441321 0
M  V30 7212 H 683.586 2.54609 -0.391433 0
M  V30 7213 H 683.544 2.8585 1.30909 0
M  V30 7214 N 687.317 1.12792 1.10072 0
M  V30 7215 C 688.249 0.757003 2.16338 0
M  V30 7216 C 689.262 -0.218144 1.61332 0
M  V30 7217 O 690.451 0.0010727 1.785 0
M  V30 7218 C 687.551 0.100303 3.38752 0
M  V30 7219 C 686.724 1.10586 4.2319 0
M  V30 7220 C 685.783 0.47609 5.24042 0
M  V30 7221 O 684.809 1.13418 5.57786 0
M  V30 7222 N 686.011 -0.754823 5.75572 0
M  V30 7223 H 688.776 1.6714 2.48766 0
M  V30 7224 H 686.337 1.02003 1.25726 0
M  V30 7225 H 688.329 -0.333092 4.03327 0
M  V30 7226 H 686.899 -0.716915 3.04268 0
M  V30 7227 H 686.119 1.71677 3.54853 0
M  V30 7228 H 687.407 1.78571 4.76435 0
M  V30 7229 H 686.805 -1.30838 5.50362 0
M  V30 7230 H 685.362 -1.13098 6.41913 0
M  V30 7231 N 688.795 -1.27931 0.920396 0
M  V30 7232 C 690.072 -1.89728 0.475687 0
M  V30 7233 C 690.452 -1.8337 -1.04588 0
M  V30 7234 O 689.8 -1.27404 -1.89685 0
M  V30 7235 C 690.01 -3.33959 1.01354 0
M  V30 7236 C 691.358 -4.10907 1.06963 0
M  V30 7237 O 692.382 -3.42945 0.962646 0
M  V30 7238 O 691.241 -5.32399 1.23343 0
M  V30 7239 H 688.335 -0.81294 0.151845 0
M  V30 7240 H 690.881 -1.36252 1.01161 0
M  V30 7241 H 689.653 -3.32843 2.05746 0
M  V30 7242 H 689.276 -3.94944 0.458829 0
M  V30 7243 N 690.273 -0.685099 -1.4193 0
M  V30 7244 C 691.223 0.00977295 -2.27998 0
M  V30 7245 C 692.207 0.763315 -1.41641 0
M  V30 7246 O 693.399 0.640532 -1.65004 0
M  V30 7247 C 690.528 0.952972 -3.29808 0
M  V30 7248 C 689.614 0.196231 -4.23646 0
M  V30 7249 N 690.005 -0.804401 -4.99363 0
M  V30 7250 C 688.303 0.433213 -4.43891 0
M  V30 7251 C 689.004 -1.25646 -5.67968 0
M  V30 7252 N 687.98 -0.5844 -5.4045 0
M  V30 7253 H 691.782 -0.757586 -2.83968 0
M  V30 7254 H 689.296 -0.515037 -1.54017 0
M  V30 7255 H 691.293 1.46585 -3.9028 0
M  V30 7256 H 689.953 1.72004 -2.75399 0
M  V30 7257 H 690.964 -1.18429 -5.04177 0
M  V30 7258 H 687.641 1.17899 -4.00507 0
M  V30 7259 H 689.031 -2.08622 -6.38691 0
M  V30 7260 N 691.751 1.51645 -0.429126 0
M  V30 7261 C 692.681 2.30434 0.377148 0
M  V30 7262 C 693.662 1.35493 1.02838 0
M  V30 7263 O 694.847 1.6441 1.03359 0
M  V30 7264 C 691.977 3.14038 1.48315 0
M  V30 7265 C 690.931 4.1719 0.955855 0
M  V30 7266 C 690.257 4.89263 2.15698 0
M  V30 7267 C 691.557 5.223 -0.00402136 0
M  V30 7268 H 693.251 2.98085 -0.280336 0
M  V30 7269 H 690.797 1.43354 -0.136265 0
M  V30 7270 H 692.75 3.67933 2.05435 0
M  V30 7271 H 691.474 2.44193 2.16881 0
M  V30 7272 H 690.133 3.64335 0.406929 0
M  V30 7273 H 689.781 4.15929 2.82864 0
M  V30 7274 H 689.481 5.59009 1.81059 0
M  V30 7275 H 691.005 5.45978 2.73387 0
M  V30 7276 H 692.419 5.71315 0.476607 0
M  V30 7277 H 690.816 5.99525 -0.26258 0
M  V30 7278 H 691.886 4.75638 -0.943236 0
M  V30 7279 N 693.229 0.160201 1.56784 0
M  V30 7280 C 694.454 -0.497373 2.01348 0
M  V30 7281 C 694.879 -1.56757 1.03966 0
M  V30 7282 O 694.237 -1.81292 0.0174455 0
M  V30 7283 C 694.285 -1.0628 3.44582 0
M  V30 7284 O 693.389 -2.17723 3.50244 0
M  V30 7285 H 692.73 -0.120295 0.653012 0
M  V30 7286 H 695.26 0.260821 2.02931 0
M  V30 7287 H 695.27 -1.38819 3.83658 0
M  V30 7288 H 693.945 -0.279166 4.14962 0
M  V30 7289 H 692.522 -1.86313 3.2302 0
M  V30 7290 N 694.707 -1.5719 -0.113559 0
M  V30 7291 C 695.935 -1.89328 -0.834422 0
M  V30 7292 C 696.35 -0.752018 -1.73177 0
M  V30 7293 O 695.707 0.276912 -1.80387 0
M  V30 7294 C 695.758 -3.20962 -1.66329 0
M  V30 7295 O 695.479 -4.30695 -0.802069 0
M  V30 7296 C 696.98 -3.6684 -2.48884 0
M  V30 7297 H 694.2 -0.626769 -0.239587 0
M  V30 7298 H 696.744 -2.04273 -0.0963195 0
M  V30 7299 H 694.899 -3.0767 -2.35409 0
M  V30 7300 H 695.313 -5.06175 -1.37431 0
M  V30 7301 H 696.787 -4.61692 -3.02563 0
M  V30 7302 H 697.264 -2.93765 -3.26495 0
M  V30 7303 H 697.87 -3.82938 -1.85036 0
M  V30 7304 N 696.185 0.383891 -1.52853 0
M  V30 7305 C 697.115 1.47559 -1.80965 0
M  V30 7306 C 698.096 1.5669 -0.661986 0
M  V30 7307 O 699.281 1.71556 -0.910072 0
M  V30 7308 C 696.411 2.85114 -1.98312 0
M  V30 7309 C 695.365 2.9082 -3.14019 0
M  V30 7310 C 694.691 4.30873 -3.16627 0
M  V30 7311 C 695.991 2.60001 -4.52986 0
M  V30 7312 H 697.685 1.24283 -2.72386 0
M  V30 7313 H 695.231 0.596445 -1.31067 0
M  V30 7314 H 697.184 3.61496 -2.16561 0
M  V30 7315 H 695.908 3.09738 -1.03585 0
M  V30 7316 H 694.567 2.16886 -2.9556 0
M  V30 7317 H 694.215 4.52545 -2.19573 0
M  V30 7318 H 693.915 4.3561 -3.94357 0
M  V30 7319 H 695.439 5.09154 -3.37038 0
M  V30 7320 H 696.853 3.261 -4.71521 0
M  V30 7321 H 695.25 2.76081 -5.32822 0
M  V30 7322 H 696.32 1.5532 -4.59351 0
M  V30 7323 N 697.663 1.43903 0.642637 0
M  V30 7324 C 698.573 1.52349 1.78401 0
M  V30 7325 C 699.589 0.409869 1.69104 0
M  V30 7326 O 700.765 0.665548 1.90085 0
M  V30 7327 C 697.83 1.45408 3.14734 0
M  V30 7328 C 696.891 2.67528 3.35749 0
M  V30 7329 C 696.124 2.60909 4.65577 0
M  V30 7330 O 696.347 1.6627 5.45628 0
M  V30 7331 O 695.281 3.5158 4.88544 0
M  V30 7332 H 699.107 2.48752 1.7423 0
M  V30 7333 H 696.692 1.26021 0.802439 0
M  V30 7334 H 698.574 1.44019 3.96026 0
M  V30 7335 H 697.249 0.521437 3.19473 0
M  V30 7336 H 696.156 2.74487 2.5418 0
M  V30 7337 H 697.489 3.598 3.35864 0
M  V30 7338 N 699.141 -0.881989 1.30609 0
M  V30 7339 C 700.387 -1.63647 1.19781 0
M  V30 7340 C 700.72 -1.92632 -0.246265 0
M  V30 7341 O 699.995 -1.54938 -1.17577 0
M  V30 7342 C 700.278 -2.97437 2.02985 0
M  V30 7343 C 700.131 -2.75406 3.55628 0
M  V30 7344 C 701.45 -3.98397 1.86997 0
M  V30 7345 H 698.569 -0.593841 0.436488 0
M  V30 7346 H 701.211 -1.02041 1.60273 0
M  V30 7347 H 699.361 -3.50018 1.68581 0
M  V30 7348 H 701.033 -2.2959 4.00107 0
M  V30 7349 H 699.276 -2.09856 3.79662 0
M  V30 7350 H 699.947 -3.70552 4.09139 0
M  V30 7351 H 702.423 -3.54986 2.17081 0
M  V30 7352 H 701.299 -4.89916 2.47536 0
M  V30 7353 H 701.56 -4.3424 0.829943 0
M  V30 7354 N 700.619 -1.13374 -1.09472 0
M  V30 7355 C 701.549 -0.833268 -2.18126 0
M  V30 7356 C 702.53 0.207169 -1.68834 0
M  V30 7357 O 703.715 0.0662012 -1.94087 0
M  V30 7358 C 700.845 -0.297979 -3.46019 0
M  V30 7359 C 699.799 -1.27261 -4.08642 0
M  V30 7360 C 699.125 -0.597104 -5.31356 0
M  V30 7361 C 700.425 -2.63095 -4.51197 0
M  V30 7362 H 702.119 -1.74182 -2.43518 0
M  V30 7363 H 699.665 -0.838921 -1.17039 0
M  V30 7364 H 701.618 -0.0754444 -4.21332 0
M  V30 7365 H 700.342 0.645959 -3.20148 0
M  V30 7366 H 699.001 -1.48113 -3.35348 0
M  V30 7367 H 698.649 0.352293 -5.01765 0
M  V30 7368 H 698.349 -1.24734 -5.74208 0
M  V30 7369 H 699.873 -0.38384 -6.09392 0
M  V30 7370 H 701.287 -2.46214 -5.17737 0
M  V30 7371 H 699.684 -3.2429 -5.04932 0
M  V30 7372 H 700.754 -3.20793 -3.6362 0
M  V30 7373 N 702.098 1.27442 -0.927168 0
M  V30 7374 C 703.061 2.2512 -0.430525 0
M  V30 7375 C 704.061 1.54357 0.450619 0
M  V30 7376 O 705.251 1.72371 0.251774 0
M  V30 7377 C 702.383 3.38763 0.381144 0
M  V30 7378 H 703.576 2.70569 -1.29354 0
M  V30 7379 H 701.129 1.39355 -0.707806 0
M  V30 7380 H 701.864 2.98695 1.263 0
M  V30 7381 H 701.649 3.91298 -0.250618 0
M  V30 7382 H 703.139 4.11364 0.719012 0
M  V30 7383 N 703.576 0.692616 1.41565 0
M  V30 7384 C 704.506 0.0397325 2.33466 0
M  V30 7385 C 705.487 -0.770334 1.51657 0
M  V30 7386 O 706.672 -0.723903 1.80203 0
M  V30 7387 C 703.802 -0.899495 3.3545 0
M  V30 7388 C 702.756 -0.196738 4.27548 0
M  V30 7389 C 702.082 -1.25012 5.19881 0
M  V30 7390 C 703.382 0.935158 5.1386 0
M  V30 7391 H 705.076 0.807296 2.88311 0
M  V30 7392 H 702.622 0.389665 1.38628 0
M  V30 7393 H 704.575 -1.36545 3.98665 0
M  V30 7394 H 703.299 -1.69869 2.78948 0
M  V30 7395 H 701.958 0.249158 3.65752 0
M  V30 7396 H 701.606 -2.04177 4.59696 0
M  V30 7397 H 701.306 -0.784931 5.82334 0
M  V30 7398 H 702.83 -1.71665 5.85972 0
M  V30 7399 H 704.244 0.549619 5.70659 0
M  V30 7400 H 702.641 1.32726 5.85238 0
M  V30 7401 H 703.711 1.77613 4.512 0
M  V30 7402 N 705.054 -1.51416 0.437162 0
M  V30 7403 C 706.3 -2.02386 -0.129555 0
M  V30 7404 C 706.633 -1.32071 -1.42376 0
M  V30 7405 O 705.908 -0.43559 -1.8956 0
M  V30 7406 C 706.191 -3.5841 -0.348487 0
M  V30 7407 C 706.044 -4.39341 0.964352 0
M  V30 7408 C 707.363 -4.25654 -1.11834 0
M  V30 7409 H 704.482 -0.735587 -0.0456109 0
M  V30 7410 H 707.124 -1.81055 0.576124 0
M  V30 7411 H 705.274 -3.76716 -0.949592 0
M  V30 7412 H 706.946 -4.32685 1.59942 0
M  V30 7413 H 705.189 -4.04432 1.56898 0
M  V30 7414 H 705.86 -5.4667 0.765212 0
M  V30 7415 H 708.336 -4.11617 -0.609165 0
M  V30 7416 H 707.212 -5.34704 -1.24029 0
M  V30 7417 H 707.473 -3.86502 -2.14636 0
M  V30 7418 N 706.532 -0.168513 -1.56696 0
M  V30 7419 C 707.78 0.476216 -1.96409 0
M  V30 7420 C 708.101 1.63968 -1.05544 0
M  V30 7421 O 707.371 1.95525 -0.121235 0
M  V30 7422 H 705.951 0.178921 -0.725256 0
M  V30 7423 H 708.613 -0.249042 -1.93302 0
M  V30 7424 H 707.709 0.838094 -3.00637 0
M  V30 7425 N 708.01 1.57248 0.105221 0
M  V30 7426 C 709.235 1.90143 0.828264 0
M  V30 7427 C 709.66 0.761811 1.71983 0
M  V30 7428 O 709.018 -0.287086 1.79013 0
M  V30 7429 C 709.066 3.21856 1.62608 0
M  V30 7430 O 708.17 3.08732 2.7342 0
M  V30 7431 H 707.511 0.623558 0.228192 0
M  V30 7432 H 710.041 2.0443 0.0834826 0
M  V30 7433 H 710.051 3.54916 2.01243 0
M  V30 7434 H 708.726 4.0439 0.971687 0
M  V30 7435 H 707.303 2.87167 2.37886 0
M  V30 7436 N 709.488 -0.375779 1.53054 0
M  V30 7437 C 710.418 -1.46598 1.81745 0
M  V30 7438 C 711.399 -1.56337 0.670286 0
M  V30 7439 O 712.584 -1.71071 0.919158 0
M  V30 7440 C 709.714 -2.84058 1.99821 0
M  V30 7441 C 708.668 -2.8915 3.15557 0
M  V30 7442 C 707.994 -4.29187 3.18908 0
M  V30 7443 C 709.294 -2.57595 4.54359 0
M  V30 7444 H 710.988 -1.22837 2.73041 0
M  V30 7445 H 708.534 -0.589485 1.31381 0
M  V30 7446 H 710.487 -3.60342 2.18475 0
M  V30 7447 H 709.211 -3.09184 1.05226 0
M  V30 7448 H 707.87 -2.15316 2.96706 0
M  V30 7449 H 707.518 -4.51374 2.2197 0
M  V30 7450 H 707.218 -4.33512 3.96662 0
M  V30 7451 H 708.742 -5.07359 3.39734 0
M  V30 7452 H 710.156 -3.23595 4.73243 0
M  V30 7453 H 708.553 -2.73252 5.34279 0
M  V30 7454 H 709.623 -1.52882 4.60169 0
M  V30 7455 N 710.966 -1.44241 -0.634997 0
M  V30 7456 C 712.191 -1.50516 -1.42687 0
M  V30 7457 C 712.616 -0.129864 -1.87651 0
M  V30 7458 O 711.974 0.880164 -1.58502 0
M  V30 7459 C 712.022 -2.4714 -2.62591 0
M  V30 7460 O 711.126 -1.97025 -3.62291 0
M  V30 7461 H 710.467 -0.50841 -0.427101 0
M  V30 7462 H 712.997 -1.89337 -0.775408 0
M  V30 7463 H 713.007 -2.65048 -3.10183 0
M  V30 7464 H 711.682 -3.47039 -2.29209 0
M  V30 7465 H 710.259 -1.88866 -3.21534 0
M  V30 7466 N 712.444 0.87505 -1.31075 0
M  V30 7467 C 713.374 1.99775 -1.20881 0
M  V30 7468 C 714.355 1.69822 -0.0971612 0
M  V30 7469 O 715.54 1.92158 -0.280895 0
M  V30 7470 C 712.67 3.35163 -0.910118 0
M  V30 7471 C 711.624 3.79406 -1.98078 0
M  V30 7472 C 710.95 5.12197 -1.53488 0
M  V30 7473 C 712.25 3.97061 -3.39323 0
M  V30 7474 H 713.944 2.08562 -2.14808 0
M  V30 7475 H 711.49 1.00207 -1.03415 0
M  V30 7476 H 713.443 4.13237 -0.825423 0
M  V30 7477 H 712.167 3.26536 0.064822 0
M  V30 7478 H 710.826 3.03568 -2.05528 0
M  V30 7479 H 710.474 5.00007 -0.547941 0
M  V30 7480 H 710.174 5.4277 -2.2511 0
M  V30 7481 H 711.698 5.92785 -1.46417 0
M  V30 7482 H 713.112 4.65545 -3.34576 0
M  V30 7483 H 711.509 4.39025 -4.09118 0
M  V30 7484 H 712.579 3.00601 -3.80483 0
M  V30 7485 N 713.922 1.13953 1.08869 0
M  V30 7486 C 714.852 0.844824 2.17681 0
M  V30 7487 C 715.833 -0.198213 1.68941 0
M  V30 7488 O 717.018 -0.0559073 1.9412 0
M  V30 7489 C 714.148 0.316325 3.45856 0
M  V30 7490 C 713.102 1.29426 4.07962 0
M  V30 7491 C 712.428 0.625275 5.31031 0
M  V30 7492 C 713.728 2.65484 4.49795 0
M  V30 7493 H 715.422 1.75471 2.42591 0
M  V30 7494 H 712.968 0.845116 1.16592 0
M  V30 7495 H 714.921 0.0977876 4.21287 0
M  V30 7496 H 713.645 -0.628972 3.20486 0
M  V30 7497 H 712.304 1.49889 3.34558 0
M  V30 7498 H 711.952 -0.325678 5.01945 0
M  V30 7499 H 711.652 1.27777 5.73539 0
M  V30 7500 H 713.176 0.416152 6.0918 0
M  V30 7501 H 714.59 2.48957 5.16424 0
M  V30 7502 H 712.987 3.26963 5.03205 0
M  V30 7503 H 714.057 3.22717 3.61914 0
M  V30 7504 N 715.4 -1.26948 0.933913 0
M  V30 7505 C 716.648 -1.93704 0.576484 0
M  V30 7506 C 716.969 -1.73702 -0.886145 0
M  V30 7507 O 716.239 -1.08838 -1.62884 0
M  V30 7508 H 714.819 -0.716812 0.210214 0
M  V30 7509 H 717.481 -1.54534 1.18766 0
M  V30 7510 H 716.577 -3.01987 0.788055 0
M  V30 7511 N 716.879 -0.700114 -1.41195 0
M  V30 7512 C 718.128 -0.230082 -2.00383 0
M  V30 7513 C 718.441 1.17857 -1.56106 0
M  V30 7514 O 719.647 1.74631 -2.07885 0
M  V30 7515 C 718.103 -0.360447 -3.5809 0
M  V30 7516 C 717.711 -1.77475 -4.11347 0
M  V30 7517 C 719.455 0.0495799 -4.24471 0
M  V30 7518 C 717.362 -1.85653 -5.61504 0
M  V30 7519 H 716.292 -0.0822633 -0.749499 0
M  V30 7520 H 718.943 -0.868969 -1.6162 0
M  V30 7521 H 717.325 0.346768 -3.94479 0
M  V30 7522 H 718.499 -2.51109 -3.86369 0
M  V30 7523 H 716.814 -2.13486 -3.57509 0
M  V30 7524 H 719.411 0.00898219 -5.34699 0
M  V30 7525 H 719.754 1.08904 -4.01803 0
M  V30 7526 H 720.287 -0.607521 -3.93134 0
M  V30 7527 H 717.026 -2.87667 -5.89006 0
M  V30 7528 H 716.546 -1.1641 -5.88395 0
M  V30 7529 H 718.225 -1.62151 -6.26351 0
M  V30 7530 N 718.357 1.51182 -0.445186 0
M  V30 7531 C 719.287 2.30821 0.352686 0
M  V30 7532 C 720.268 1.36576 1.01395 0
M  V30 7533 O 721.453 1.65497 1.01609 0
M  V30 7534 C 718.583 3.15593 1.44976 0
M  V30 7535 C 717.537 4.1818 0.911553 0
M  V30 7536 C 716.863 4.91523 2.10497 0
M  V30 7537 C 718.163 5.22266 -0.059418 0
M  V30 7538 H 719.857 2.97771 -0.311936 0
M  V30 7539 H 717.403 1.43201 -0.151461 0
M  V30 7540 H 719.356 3.70091 2.01521 0
M  V30 7541 H 718.08 2.4648 2.14278 0
M  V30 7542 H 716.739 3.64746 0.368264 0
M  V30 7543 H 716.387 4.18906 2.78437 0
M  V30 7544 H 716.087 5.60898 1.7512 0
M  V30 7545 H 717.611 5.48847 2.6758 0
M  V30 7546 H 719.025 5.71789 0.415985 0
M  V30 7547 H 717.422 5.99213 -0.326152 0
M  V30 7548 H 718.492 4.7461 -0.993631 0
M  V30 7549 N 719.835 0.176821 1.56605 0
M  V30 7550 C 721.084 -0.466833 1.96223 0
M  V30 7551 C 721.397 -1.64015 1.06576 0
M  V30 7552 O 722.603 -2.3504 1.35898 0
M  V30 7553 C 721.059 -0.881921 3.48927 0
M  V30 7554 C 720.667 0.266102 4.47209 0
M  V30 7555 C 722.411 -1.49368 3.97353 0
M  V30 7556 C 720.318 -0.168923 5.91159 0
M  V30 7557 H 719.248 -0.178178 0.732645 0
M  V30 7558 H 721.899 0.265929 1.81563 0
M  V30 7559 H 720.281 -1.67082 3.59026 0
M  V30 7560 H 721.455 1.04349 4.4883 0
M  V30 7561 H 719.77 0.788178 4.08872 0
M  V30 7562 H 722.367 -1.8313 5.02362 0
M  V30 7563 H 722.71 -2.3936 3.40606 0
M  V30 7564 H 723.243 -0.769114 3.90294 0
M  V30 7565 H 719.982 0.696351 6.51791 0
M  V30 7566 H 719.502 -0.911552 5.92833 0
M  V30 7567 H 721.181 -0.610938 6.44109 0
M  V30 7568 N 721.313 -1.57302 -0.09688 0
M  V30 7569 C 722.559 -1.86273 -0.801885 0
M  V30 7570 C 722.892 -0.765694 -1.78468 0
M  V30 7571 O 722.167 0.226495 -1.93177 0
M  V30 7572 C 722.45 -3.25876 -1.53221 0
M  V30 7573 C 722.303 -4.46205 -0.567529 0
M  V30 7574 C 723.622 -3.63352 -2.48321 0
M  V30 7575 H 720.741 -0.67752 -0.29006 0
M  V30 7576 H 723.383 -1.89887 -0.0655577 0
M  V30 7577 H 721.533 -3.22926 -2.15988 0
M  V30 7578 H 723.205 -4.6127 0.0529982 0
M  V30 7579 H 721.448 -4.33636 0.119233 0
M  V30 7580 H 722.119 -5.40608 -1.11564 0
M  V30 7581 H 724.595 -3.67234 -1.95648 0
M  V30 7582 H 723.471 -4.61968 -2.9644 0
M  V30 7583 H 723.732 -2.91941 -3.31998 0
M  V30 7584 N 722.791 0.367657 -1.53252 0
M  V30 7585 C 724.016 1.13566 -1.73544 0
M  V30 7586 C 724.441 1.82329 -0.462344 0
M  V30 7587 O 723.799 1.71655 0.583472 0
M  V30 7588 C 723.847 2.14322 -2.89997 0
M  V30 7589 O 722.951 3.21359 -2.58461 0
M  V30 7590 H 722.292 0.329614 -0.576412 0
M  V30 7591 H 724.822 0.425417 -2.00128 0
M  V30 7592 H 724.832 2.57958 -3.16104 0
M  V30 7593 H 723.507 1.63664 -3.82344 0
M  V30 7594 H 722.084 2.8271 -2.43165 0
M  V30 7595 N 724.269 1.44576 0.627338 0
M  V30 7596 C 725.516 1.47558 1.38682 0
M  V30 7597 C 725.844 0.109636 1.94191 0
M  V30 7598 O 725.099 -0.889092 1.74338 0
M  V30 7599 C 725.398 2.48644 2.56731 0
M  V30 7600 C 725.064 3.93873 2.19489 0
M  V30 7601 C 723.726 4.33421 2.09045 0
M  V30 7602 C 726.078 4.85286 1.90124 0
M  V30 7603 C 723.406 5.62303 1.6743 0
M  V30 7604 C 725.758 6.14559 1.50001 0
M  V30 7605 C 724.422 6.53058 1.38101 0
M  V30 7606 H 723.692 0.539955 0.507474 0
M  V30 7607 H 726.339 1.77811 0.711021 0
M  V30 7608 H 724.644 2.11889 3.29561 0
M  V30 7609 H 726.341 2.48197 3.14959 0
M  V30 7610 H 722.931 3.62587 2.28537 0
M  V30 7611 H 727.115 4.55483 1.971 0
M  V30 7612 H 722.371 5.90945 1.56823 0
M  V30 7613 H 726.545 6.84848 1.26319 0
M  V30 7614 H 724.172 7.52826 1.05628 0
M  V30 7615 N 725.747 -0.868086 1.31537 0
M  V30 7616 C 726.994 -1.62127 1.2133 0
M  V30 7617 C 727.322 -1.93158 -0.2281 0
M  V30 7618 O 726.577 -1.5632 -1.1774 0
M  V30 7619 C 726.876 -2.95889 2.0046 0
M  V30 7620 C 726.542 -2.84343 3.49943 0
M  V30 7621 C 725.204 -2.80901 3.90702 0
M  V30 7622 C 727.556 -2.71243 4.45058 0
M  V30 7623 C 724.884 -2.6222 5.24841 0
M  V30 7624 C 727.236 -2.54098 5.79325 0
M  V30 7625 C 725.9 -2.4904 6.19302 0
M  V30 7626 H 725.17 -0.593265 0.443979 0
M  V30 7627 H 727.817 -1.00803 1.62822 0
M  V30 7628 H 726.122 -3.61259 1.51655 0
M  V30 7629 H 727.819 -3.53161 1.89942 0
M  V30 7630 H 724.409 -2.8784 3.17563 0
M  V30 7631 H 728.593 -2.72956 4.14498 0
M  V30 7632 H 723.849 -2.56731 5.54887 0
M  V30 7633 H 728.023 -2.42938 6.52652 0
M  V30 7634 H 725.65 -2.34324 7.23185 0
M  V30 7635 N 727.225 -1.14528 -1.08264 0
M  V30 7636 C 728.474 -0.908992 -1.80056 0
M  V30 7637 C 728.787 0.565859 -1.87236 0
M  V30 7638 O 729.993 0.919454 -2.55457 0
M  V30 7639 C 728.449 -1.57681 -3.23519 0
M  V30 7640 C 728.057 -3.08803 -3.24569 0
M  V30 7641 C 729.801 -1.4217 -3.99985 0
M  V30 7642 C 727.708 -3.68414 -4.62629 0
M  V30 7643 H 726.638 -0.336432 -0.674781 0
M  V30 7644 H 729.289 -1.37437 -1.21587 0
M  V30 7645 H 727.671 -1.03911 -3.82124 0
M  V30 7646 H 728.845 -3.69252 -2.75663 0
M  V30 7647 H 727.16 -3.23968 -2.61598 0
M  V30 7648 H 729.757 -1.84106 -5.02005 0
M  V30 7649 H 730.1 -0.367989 -4.1467 0
M  V30 7650 H 730.633 -1.92984 -3.47853 0
M  V30 7651 H 727.372 -4.73644 -4.53147 0
M  V30 7652 H 726.892 -3.12746 -5.11811 0
M  V30 7653 H 728.571 -3.68793 -5.31602 0
M  V30 7654 N 728.703 1.26451 -0.940633 0
M  V30 7655 C 729.933 1.97581 -0.603766 0
M  V30 7656 C 730.341 1.70246 0.825395 0
M  V30 7657 O 729.684 0.967001 1.56188 0
M  V30 7658 C 729.746 3.51256 -0.765463 0
M  V30 7659 C 729.41 4.0224 -2.16915 0
M  V30 7660 C 730.407 4.1402 -3.14457 0
M  V30 7661 C 728.092 4.36263 -2.48958 0
M  V30 7662 C 730.086 4.59117 -4.42143 0
M  V30 7663 C 727.773 4.81048 -3.76877 0
M  V30 7664 C 728.771 4.92436 -4.73282 0
M  V30 7665 O 728.459 5.36234 -5.98923 0
M  V30 7666 H 728.191 0.636948 -0.226436 0
M  V30 7667 H 730.745 1.61941 -1.2635 0
M  V30 7668 H 728.975 3.86669 -0.0485956 0
M  V30 7669 H 730.664 4.03597 -0.431738 0
M  V30 7670 H 731.43 3.87981 -2.91026 0
M  V30 7671 H 727.309 4.26634 -1.74656 0
M  V30 7672 H 730.853 4.6792 -5.17394 0
M  V30 7673 H 726.75 5.06531 -4.00121 0
M  V30 7674 H 727.518 5.54456 -6.02097 0
M  V30 7675 N 730.181 0.707592 1.40822 0
M  V30 7676 C 731.597 0.38034 1.55002 0
M  V30 7677 C 731.797 -1.11163 1.68062 0
M  V30 7678 O 730.853 -1.89761 1.66574 0
M  V30 7679 C 732.166 1.1394 2.78277 0
M  V30 7680 C 733.714 1.12492 2.92087 0
M  V30 7681 C 734.189 1.86597 4.18265 0
M  V30 7682 N 735.68 1.83626 4.25248 0
M  V30 7683 C 736.415 2.37794 5.21768 0
M  V30 7684 N 735.911 3.00485 6.24244 0
M  V30 7685 N 737.704 2.27982 5.13791 0
M  V30 7686 H 729.855 1.67511 1.3059 0
M  V30 7687 H 732.118 0.707579 0.630901 0
M  V30 7688 H 731.824 2.19398 2.74877 0
M  V30 7689 H 731.698 0.725793 3.70151 0
M  V30 7690 H 734.085 0.0785564 2.94995 0
M  V30 7691 H 734.166 1.57768 2.01353 0
M  V30 7692 H 733.81 2.91219 4.16118 0
M  V30 7693 H 733.74 1.38746 5.07993 0
M  V30 7694 H 736.231 1.3793 3.51829 0
M  V30 7695 H 736.544 3.39355 6.94304 0
M  V30 7696 H 734.889 3.04567 6.24711 0
M  V30 7697 H 738.08 1.78669 4.3266 0
M  V30 7698 H 738.253 2.70499 5.88841 0
M  V30 7699 N 731.66 -1.50943 0.453197 0
M  V30 7700 C 732.607 -2.28128 -0.350197 0
M  V30 7701 C 733.577 -1.32398 -1.00299 0
M  V30 7702 O 734.762 -1.61319 -1.01887 0
M  V30 7703 C 731.902 -3.13782 -1.43649 0
M  V30 7704 C 731.015 -4.24523 -0.800255 0
M  V30 7705 C 730.15 -4.97462 -1.86293 0
M  V30 7706 C 729.189 -6.00102 -1.20598 0
M  V30 7707 N 728.326 -6.66387 -2.21071 0
M  V30 7708 H 733.166 -2.96337 0.31434 0
M  V30 7709 H 730.703 -1.46151 0.166863 0
M  V30 7710 H 732.661 -3.6178 -2.07776 0
M  V30 7711 H 731.291 -2.47655 -2.07044 0
M  V30 7712 H 730.343 -3.80371 -0.0468651 0
M  V30 7713 H 731.655 -4.98009 -0.280777 0
M  V30 7714 H 730.809 -5.49088 -2.58044 0
M  V30 7715 H 729.548 -4.23642 -2.41617 0
M  V30 7716 H 728.553 -5.47753 -0.474 0
M  V30 7717 H 729.778 -6.75887 -0.659859 0
M  V30 7718 H 727.724 -5.9537 -2.75446 0
M  V30 7719 H 727.641 -7.3569 -1.74058 0
M  V30 7720 H 728.909 -7.22638 -2.92257 0
M  V30 7721 N 733.138 -0.185124 -1.56509 0
M  V30 7722 C 734.071 0.77877 -2.145 0
M  V30 7723 C 735.049 1.21649 -1.07891 0
M  V30 7724 O 736.233 1.30579 -1.35946 0
M  V30 7725 C 733.36 2.05048 -2.69579 0
M  V30 7726 C 732.406 1.75569 -3.88687 0
M  V30 7727 S 733.239 0.912642 -5.27666 0
M  V30 7728 C 734.395 2.19471 -5.8616 0
M  V30 7729 H 734.628 0.285751 -2.95924 0
M  V30 7730 H 732.161 0.0297417 -1.54371 0
M  V30 7731 H 734.119 2.78085 -3.01958 0
M  V30 7732 H 732.78 2.51462 -1.88216 0
M  V30 7733 H 731.973 2.69962 -4.25601 0
M  V30 7734 H 731.575 1.10619 -3.57267 0
M  V30 7735 H 733.867 3.14815 -5.99915 0
M  V30 7736 H 734.81 1.87005 -6.8296 0
M  V30 7737 H 735.218 2.31862 -5.14685 0
M  V30 7738 N 734.616 1.57351 0.0885366 0
M  V30 7739 C 735.548 1.99221 1.13329 0
M  V30 7740 C 736.561 0.895705 1.35945 0
M  V30 7741 O 737.75 1.17376 1.34481 0
M  V30 7742 C 734.85 2.3016 2.48756 0
M  V30 7743 C 734.023 3.61444 2.46327 0
M  V30 7744 C 733.082 3.80244 3.63732 0
M  V30 7745 O 732.108 4.52024 3.45924 0
M  V30 7746 N 733.31 3.2132 4.8346 0
M  V30 7747 H 736.075 2.89456 0.776862 0
M  V30 7748 H 733.636 1.59505 0.277428 0
M  V30 7749 H 735.628 2.39925 3.25911 0
M  V30 7750 H 734.198 1.459 2.76464 0
M  V30 7751 H 733.418 3.62588 1.54673 0
M  V30 7752 H 734.706 4.47678 2.41789 0
M  V30 7753 H 734.104 2.63028 5.00832 0
M  V30 7754 H 732.661 3.3656 5.58185 0
M  V30 7755 N 736.094 -0.359525 1.53444 0
M  V30 7756 C 737.024 -1.44662 1.8329 0
M  V30 7757 C 738.005 -1.55617 0.68683 0
M  V30 7758 O 739.19 -1.70086 0.93725 0
M  V30 7759 C 736.32 -2.81923 2.02822 0
M  V30 7760 C 735.274 -2.85787 3.18606 0
M  V30 7761 C 734.6 -4.25781 3.23442 0
M  V30 7762 C 735.9 -2.52762 4.57065 0
M  V30 7763 H 737.594 -1.19934 2.74329 0
M  V30 7764 H 735.14 -0.575517 1.31999 0
M  V30 7765 H 737.093 -3.58005 2.22285 0
M  V30 7766 H 735.817 -3.08051 1.085 0
M  V30 7767 H 734.476 -2.12157 2.98973 0
M  V30 7768 H 734.124 -4.48994 2.26745 0
M  V30 7769 H 733.824 -4.29281 4.01238 0
M  V30 7770 H 735.348 -5.03727 3.45096 0
M  V30 7771 H 736.762 -3.18557 4.76649 0
M  V30 7772 H 735.159 -2.67569 5.37147 0
M  V30 7773 H 736.229 -1.47993 4.61764 0
M  V30 7774 N 737.572 -1.44907 -0.619662 0
M  V30 7775 C 738.482 -1.55168 -1.75955 0
M  V30 7776 C 739.498 -0.43672 -1.6843 0
M  V30 7777 O 740.674 -0.695704 -1.89002 0
M  V30 7778 C 737.739 -1.50397 -3.12381 0
M  V30 7779 C 736.8 -2.72835 -3.31451 0
M  V30 7780 C 736.033 -2.68283 -4.61368 0
M  V30 7781 O 736.256 -1.74929 -5.42914 0
M  V30 7782 O 735.19 -3.59308 -4.82889 0
M  V30 7783 H 739.016 -2.51493 -1.7025 0
M  V30 7784 H 736.601 -1.27282 -0.782289 0
M  V30 7785 H 738.483 -1.50301 -3.93685 0
M  V30 7786 H 737.158 -0.572197 -3.18603 0
M  V30 7787 H 736.065 -2.78496 -2.49781 0
M  V30 7788 H 737.398 -3.65098 -3.30098 0
M  V30 7789 N 739.05 0.861098 -1.31996 0
M  V30 7790 C 739.997 1.96912 -1.20392 0
M  V30 7791 C 740.967 1.65869 -0.0875899 0
M  V30 7792 O 742.152 1.88992 -0.262011 0
M  V30 7793 C 739.292 3.32435 -0.926335 0
M  V30 7794 C 738.405 3.76018 -2.12684 0
M  V30 7795 C 737.54 5.00301 -1.78529 0
M  V30 7796 C 736.579 5.36357 -2.94937 0
M  V30 7797 N 735.716 6.51818 -2.60917 0
M  V30 7798 H 740.556 2.06169 -2.1517 0
M  V30 7799 H 738.093 1.00917 -1.07024 0
M  V30 7800 H 740.051 4.10478 -0.745917 0
M  V30 7801 H 738.681 3.22796 -0.0153578 0
M  V30 7802 H 737.733 2.93683 -2.41774 0
M  V30 7803 H 739.045 3.98664 -2.99781 0
M  V30 7804 H 738.199 5.86034 -1.57001 0
M  V30 7805 H 736.938 4.79578 -0.886356 0
M  V30 7806 H 735.943 4.49139 -3.17103 0
M  V30 7807 H 737.168 5.59041 -3.85552 0
M  V30 7808 H 735.114 6.32624 -1.73558 0
M  V30 7809 H 735.031 6.7445 -3.41544 0
M  V30 7810 H 736.299 7.4072 -2.42804 0
M  V30 7811 N 740.528 1.15101 1.07655 0
M  V30 7812 C 741.438 0.858869 2.18313 0
M  V30 7813 C 742.454 -0.163641 1.73229 0
M  V30 7814 O 743.63 0.00969541 2.01398 0
M  V30 7815 C 740.695 0.34893 3.4494 0
M  V30 7816 C 739.756 1.43495 4.04608 0
M  V30 7817 C 738.989 0.949253 5.2519 0
M  V30 7818 O 739.212 -0.20636 5.70027 0
M  V30 7819 O 738.146 1.73161 5.76454 0
M  V30 7820 H 741.972 1.78386 2.45788 0
M  V30 7821 H 739.557 0.929876 1.16934 0
M  V30 7822 H 741.439 0.070851 4.2134 0
M  V30 7823 H 740.114 -0.548237 3.19024 0
M  V30 7824 H 739.021 1.7666 3.29761 0
M  V30 7825 H 740.354 2.30692 4.3479 0
M  V30 7826 N 742.006 -1.2595 0.947325 0
M  V30 7827 C 742.936 -2.28521 0.479604 0
M  V30 7828 C 743.917 -1.63469 -0.470293 0
M  V30 7829 O 745.102 -1.90627 -0.370824 0
M  V30 7830 C 742.232 -3.46397 -0.250289 0
M  V30 7831 C 741.186 -4.23578 0.613643 0
M  V30 7832 C 740.512 -5.34131 -0.246568 0
M  V30 7833 C 741.812 -4.86979 1.88809 0
M  V30 7834 H 743.506 -2.67895 1.33688 0
M  V30 7835 H 741.052 -1.28783 0.644274 0
M  V30 7836 H 743.005 -4.17269 -0.588576 0
M  V30 7837 H 741.729 -3.05993 -1.14175 0
M  V30 7838 H 740.388 -3.54478 0.93491 0
M  V30 7839 H 740.036 -4.89968 -1.13756 0
M  V30 7840 H 739.736 -5.86683 0.328123 0
M  V30 7841 H 741.26 -6.07839 -0.579986 0
M  V30 7842 H 742.674 -5.50034 1.61666 0
M  V30 7843 H 741.071 -5.49675 2.40784 0
M  V30 7844 H 742.141 -4.09575 2.5957 0
M  V30 7845 N 743.484 -0.715051 -1.40445 0
M  V30 7846 C 744.447 -0.0708726 -2.2909 0
M  V30 7847 C 745.447 0.687926 -1.45342 0
M  V30 7848 O 746.637 0.519908 -1.66261 0
M  V30 7849 C 743.769 0.909528 -3.28543 0
M  V30 7850 H 744.962 -0.851611 -2.87555 0
M  V30 7851 H 742.515 -0.479674 -1.48758 0
M  V30 7852 H 743.25 1.71734 -2.75096 0
M  V30 7853 H 743.035 0.368318 -3.90366 0
M  V30 7854 H 744.525 1.35744 -3.94922 0
M  V30 7855 N 744.962 1.50701 -0.461195 0
M  V30 7856 C 746.187 2.07171 0.0974773 0
M  V30 7857 C 746.612 1.32391 1.3362 0
M  V30 7858 O 745.97 0.368676 1.77512 0
M  V30 7859 C 746.018 3.58651 0.374409 0
M  V30 7860 O 745.122 3.85816 1.4567 0
M  V30 7861 H 744.463 0.663944 -0.00862047 0
M  V30 7862 H 746.993 1.94021 -0.649394 0
M  V30 7863 H 747.003 4.03295 0.617843 0
M  V30 7864 H 745.678 4.12498 -0.530829 0
M  V30 7865 H 744.255 3.53018 1.20136 0
M  V30 7866 N 746.441 0.193421 1.56409 0
M  V30 7867 C 747.351 -0.740112 2.2262 0
M  V30 7868 C 748.367 -1.23597 1.22474 0
M  V30 7869 O 749.543 -1.28348 1.55206 0
M  V30 7870 C 746.608 -1.94317 2.87127 0
M  V30 7871 C 745.669 -1.49205 4.02538 0
M  V30 7872 C 744.902 -2.63776 4.63959 0
M  V30 7873 O 745.125 -3.81215 4.24301 0
M  V30 7874 O 744.059 -2.36585 5.53454 0
M  V30 7875 H 747.885 -0.206238 3.02999 0
M  V30 7876 H 745.47 -0.0357938 1.49357 0
M  V30 7877 H 747.352 -2.64633 3.27944 0
M  V30 7878 H 746.027 -2.46568 2.09728 0
M  V30 7879 H 744.934 -0.757738 3.66346 0
M  V30 7880 H 746.267 -1.01622 4.81595 0
M  V30 7881 N 747.919 -1.57396 -0.0801906 0
M  V30 7882 C 748.849 -2.06145 -1.09665 0
M  V30 7883 C 749.83 -0.953273 -1.40878 0
M  V30 7884 O 751.015 -1.22548 -1.50651 0
M  V30 7885 C 748.145 -2.49836 -2.41245 0
M  V30 7886 C 747.099 -3.64454 -2.24405 0
M  V30 7887 C 746.425 -3.94172 -3.61293 0
M  V30 7888 C 747.725 -4.94807 -1.67223 0
M  V30 7889 H 749.419 -2.91316 -0.691028 0
M  V30 7890 H 746.965 -1.40145 -0.330957 0
M  V30 7891 H 748.918 -2.82552 -3.12638 0
M  V30 7892 H 747.642 -1.61683 -2.83771 0
M  V30 7893 H 746.301 -3.32008 -1.55454 0
M  V30 7894 H 745.949 -3.03163 -4.01374 0
M  V30 7895 H 745.649 -4.71345 -3.50867 0
M  V30 7896 H 747.173 -4.29376 -4.3413 0
M  V30 7897 H 748.587 -5.25807 -2.28472 0
M  V30 7898 H 746.984 -5.76245 -1.67515 0
M  V30 7899 H 748.054 -4.80751 -0.632944 0
M  V30 7900 N 749.397 0.351382 -1.53633 0
M  V30 7901 C 750.643 1.09049 -1.71697 0
M  V30 7902 C 750.998 1.86563 -0.470314 0
M  V30 7903 O 750.291 1.83922 0.536954 0
M  V30 7904 C 750.485 2.06744 -2.91533 0
M  V30 7905 C 750.314 1.38832 -4.27733 0
M  V30 7906 C 749.084 1.13646 -4.92354 0
M  V30 7907 C 751.282 0.818602 -5.07743 0
M  V30 7908 N 749.264 0.422324 -6.12446 0
M  V30 7909 C 750.635 0.234602 -6.19556 0
M  V30 7910 C 752.69 0.718679 -4.92686 0
M  V30 7911 C 751.393 -0.439592 -7.17955 0
M  V30 7912 C 753.419 0.0582402 -5.91371 0
M  V30 7913 C 752.781 -0.514823 -7.02516 0
M  V30 7914 H 748.88 0.383697 -0.681396 0
M  V30 7915 H 751.464 0.375063 -1.91053 0
M  V30 7916 H 749.635 2.75586 -2.73691 0
M  V30 7917 H 751.367 2.73436 -2.98353 0
M  V30 7918 H 748.122 1.4215 -4.51764 0
M  V30 7919 H 748.546 0.0802092 -6.76952 0
M  V30 7920 H 753.188 1.14748 -4.06931 0
M  V30 7921 H 750.906 -0.880307 -8.03291 0
M  V30 7922 H 754.492 -0.0183382 -5.81797 0
M  V30 7923 H 753.372 -1.01777 -7.77567 0
M  V30 7924 N 750.875 1.45233 0.611969 0
M  V30 7925 C 752.291 1.29542 0.932251 0
M  V30 7926 C 752.491 0.24523 2.00002 0
M  V30 7927 O 751.547 -0.362333 2.49887 0
M  V30 7928 C 752.86 2.67301 1.37733 0
M  V30 7929 C 754.408 2.75163 1.49178 0
M  V30 7930 C 754.883 4.13437 1.97064 0
M  V30 7931 N 756.374 4.15709 2.04304 0
M  V30 7932 C 757.109 5.19566 2.42568 0
M  V30 7933 N 756.605 6.33771 2.79832 0
M  V30 7934 N 758.398 5.06923 2.42869 0
M  V30 7935 H 750.549 2.12192 -0.0938679 0
M  V30 7936 H 752.812 0.947775 0.0206569 0
M  V30 7937 H 752.518 3.45318 0.666951 0
M  V30 7938 H 752.392 2.95472 2.3447 0
M  V30 7939 H 754.779 1.97453 2.19309 0
M  V30 7940 H 754.86 2.50712 0.507674 0
M  V30 7941 H 754.504 4.91631 1.27521 0
M  V30 7942 H 754.434 4.35277 2.9638 0
M  V30 7943 H 756.925 3.33293 1.78113 0
M  V30 7944 H 757.238 7.08815 3.07898 0
M  V30 7945 H 755.583 6.37179 2.77538 0
M  V30 7946 H 758.774 4.1675 2.1316 0
M  V30 7947 H 758.947 5.87981 2.72364 0
M  V30 7948 N 752.353 -0.854086 1.3245 0
M  V30 7949 C 753.599 -1.61069 1.23225 0
M  V30 7950 C 753.932 -1.93111 -0.205349 0
M  V30 7951 O 753.207 -1.57397 -1.14265 0
M  V30 7952 C 753.49 -2.93065 2.09249 0
M  V30 7953 C 753.343 -2.67801 3.6139 0
M  V30 7954 C 754.662 -3.94341 1.95406 0
M  V30 7955 H 751.781 -0.584449 0.448986 0
M  V30 7956 H 754.423 -0.986189 1.62402 0
M  V30 7957 H 752.573 -3.46364 1.75967 0
M  V30 7958 H 754.245 -2.21052 4.04887 0
M  V30 7959 H 752.488 -2.01756 3.84027 0
M  V30 7960 H 753.159 -3.6179 4.16907 0
M  V30 7961 H 755.635 -3.50301 2.24562 0
M  V30 7962 H 754.511 -4.84555 2.57872 0
M  V30 7963 H 754.772 -4.32382 0.921865 0
M  V30 7964 N 753.831 -1.1567 -1.07043 0
M  V30 7965 C 755.247 -0.900006 -1.31803 0
M  V30 7966 C 755.447 0.451293 -1.96381 0
M  V30 7967 O 754.503 1.19252 -2.22565 0
M  V30 7968 C 755.816 -2.04334 -2.20609 0
M  V30 7969 C 757.364 -2.07823 -2.34048 0
M  V30 7970 C 757.839 -3.21488 -3.26204 0
M  V30 7971 N 759.33 -3.21156 -3.33786 0
M  V30 7972 C 760.065 -4.05746 -4.05163 0
M  V30 7973 N 759.561 -5.00407 -4.79129 0
M  V30 7974 N 761.354 -3.93759 -4.01136 0
M  V30 7975 H 753.505 -2.02681 -0.635146 0
M  V30 7976 H 755.768 -0.883956 -0.342528 0
M  V30 7977 H 755.474 -3.01895 -1.80423 0
M  V30 7978 H 755.348 -1.97838 -3.21154 0
M  V30 7979 H 757.735 -1.1086 -2.73485 0
M  V30 7980 H 757.816 -2.18386 -1.33197 0
M  V30 7981 H 757.46 -4.18706 -2.87485 0
M  V30 7982 H 757.39 -3.08162 -4.27017 0
M  V30 7983 H 759.881 -2.52606 -2.81067 0
M  V30 7984 H 760.194 -5.61387 -5.31097 0
M  V30 7985 H 758.539 -5.04393 -4.78135 0
M  V30 7986 H 761.73 -3.19115 -3.42466 0
M  V30 7987 H 761.903 -4.59906 -4.56498 0
M  V30 7988 N 755.309 1.25446 -0.953992 0
M  V30 7989 C 756.555 1.93756 -0.618888 0
M  V30 7990 C 756.91 1.73344 0.83484 0
M  V30 7991 O 756.203 1.06753 1.59105 0
M  V30 7992 C 756.397 3.45555 -0.912496 0
M  V30 7993 C 756.226 3.8073 -2.39321 0
M  V30 7994 C 754.996 4.02819 -3.05065 0
M  V30 7995 C 757.194 3.88286 -3.37251 0
M  V30 7996 N 755.176 4.24981 -4.43017 0
M  V30 7997 C 756.547 4.1513 -4.60507 0
M  V30 7998 C 758.602 3.70965 -3.32099 0
M  V30 7999 C 757.305 4.26454 -5.79249 0
M  V30 8000 C 759.331 3.83528 -4.50178 0
M  V30 8001 C 758.693 4.10783 -5.72221 0
M  V30 8002 H 754.792 0.731271 -0.277069 0
M  V30 8003 H 757.376 1.5125 -1.22604 0
M  V30 8004 H 755.547 3.86959 -0.334284 0
M  V30 8005 H 757.279 4.01117 -0.537362 0
M  V30 8006 H 754.034 3.9868 -2.55639 0
M  V30 8007 H 754.458 4.4007 -5.14459 0
M  V30 8008 H 759.1 3.4891 -2.38791 0
M  V30 8009 H 756.818 4.47325 -6.72998 0
M  V30 8010 H 760.404 3.71513 -4.47738 0
M  V30 8011 H 759.284 4.20285 -6.62065 0
M  V30 8012 N 756.787 0.722489 1.40064 0
M  V30 8013 C 757.697 0.0755984 2.34478 0
M  V30 8014 C 758.713 -0.736046 1.57665 0
M  V30 8015 O 759.889 -0.667407 1.9002 0
M  V30 8016 C 756.954 -0.830075 3.36616 0
M  V30 8017 C 756.015 -0.00759884 4.29299 0
M  V30 8018 C 755.248 -0.870139 5.26559 0
M  V30 8019 O 755.471 -2.10921 5.2997 0
M  V30 8020 O 754.405 -0.305454 6.01124 0
M  V30 8021 H 758.231 0.854545 2.9143 0
M  V30 8022 H 755.816 0.483032 1.41376 0
M  V30 8023 H 757.698 -1.34864 3.99236 0
M  V30 8024 H 756.373 -1.58805 2.82069 0
M  V30 8025 H 755.28 0.556199 3.69942 0
M  V30 8026 H 756.613 0.712312 4.87018 0
M  V30 8027 N 758.265 -1.50454 0.469181 0
M  V30 8028 C 759.542 -1.9504 -0.147955 0
M  V30 8029 C 759.922 -1.40946 -1.57154 0
M  V30 8030 O 759.27 -0.609663 -2.20217 0
M  V30 8031 C 759.48 -3.48875 -0.0932198 0
M  V30 8032 C 760.828 -4.23655 -0.283056 0
M  V30 8033 O 761.852 -3.55795 -0.169892 0
M  V30 8034 O 760.711 -5.44102 -0.511396 0
M  V30 8035 H 757.805 -0.819283 -0.11271 0
M  V30 8036 H 760.351 -1.6123 0.529446 0
M  V30 8037 H 759.123 -3.80791 0.900784 0
M  V30 8038 H 758.746 -3.89217 -0.812161 0
M  V30 8039 N 759.743 -0.201713 -1.56304 0
M  V30 8040 C 760.989 0.435952 -1.98059 0
M  V30 8041 C 761.322 1.60811 -1.08873 0
M  V30 8042 O 760.597 1.9398 -0.142128 0
M  V30 8043 C 760.88 0.889706 -3.48936 0
M  V30 8044 C 760.733 -0.284725 -4.48898 0
M  V30 8045 C 762.052 1.7529 -4.03685 0
M  V30 8046 H 759.171 0.15699 -0.720085 0
M  V30 8047 H 761.813 -0.293965 -1.87712 0
M  V30 8048 H 759.963 1.51166 -3.57884 0
M  V30 8049 H 761.635 -0.922531 -4.51981 0
M  V30 8050 H 759.878 -0.935427 -4.23594 0
M  V30 8051 H 760.549 0.0753865 -5.51949 0
M  V30 8052 H 763.025 1.2283 -3.97558 0
M  V30 8053 H 761.901 2.03933 -5.0961 0
M  V30 8054 H 762.162 2.70939 -3.49348 0
M  V30 8055 N 761.222 1.57436 0.0718424 0
M  V30 8056 C 762.132 2.07039 1.10326 0
M  V30 8057 C 763.148 0.999918 1.424 0
M  V30 8058 O 764.324 1.31462 1.52577 0
M  V30 8059 C 761.389 2.50439 2.39752 0
M  V30 8060 C 760.45 3.71784 2.14651 0
M  V30 8061 C 759.683 4.13104 3.37906 0
M  V30 8062 O 759.906 3.54298 4.47023 0
M  V30 8063 O 758.84 5.05894 3.26121 0
M  V30 8064 H 762.666 2.95239 0.711872 0
M  V30 8065 H 760.251 1.46638 0.28597 0
M  V30 8066 H 762.133 2.78876 3.15921 0
M  V30 8067 H 760.808 1.65368 2.78271 0
M  V30 8068 H 759.715 3.48431 1.36187 0
M  V30 8069 H 761.048 4.57707 1.81012 0
M  V30 8070 N 762.7 -0.34323 1.53817 0
M  V30 8071 C 764.111 -0.918823 1.62525 0
M  V30 8072 C 764.462 -1.89542 0.506765 0
M  V30 8073 O 763.587 -2.13326 -0.363441 0
M  V30 8074 C 764.182 -1.67326 2.94597 0
M  V30 8075 C 762.741 -2.19786 3.05567 0
M  V30 8076 C 761.888 -1.01708 2.57974 0
M  V30 8077 H 764.839 -0.121358 1.58235 0
M  V30 8078 H 764.86 -2.53615 2.83654 0
M  V30 8079 H 764.372 -0.962223 3.75983 0
M  V30 8080 H 762.473 -2.94065 2.28816 0
M  V30 8081 H 762.586 -2.46135 4.1104 0
M  V30 8082 H 760.95 -1.39058 2.13389 0
M  V30 8083 H 761.733 -0.320671 3.41799 0
M  V30 8084 N 764.178 -1.45556 -0.604258 0
M  V30 8085 C 765.403 -1.53509 -1.39462 0
M  V30 8086 C 765.828 -0.169638 -1.87333 0
M  V30 8087 O 765.186 0.846346 -1.60333 0
M  V30 8088 C 765.234 -2.52654 -2.5729 0
M  V30 8089 O 764.338 -2.04666 -3.5803 0
M  V30 8090 H 763.679 -0.517355 -0.416221 0
M  V30 8091 H 766.209 -1.90939 -0.735072 0
M  V30 8092 H 766.219 -2.71568 -3.04491 0
M  V30 8093 H 764.894 -3.51823 -2.21797 0
M  V30 8094 H 763.471 -1.95643 -3.17456 0
M  V30 8095 N 765.656 0.84705 -1.32902 0
M  V30 8096 C 766.881 1.63925 -1.27056 0
M  V30 8097 C 767.306 1.87443 0.157136 0
M  V30 8098 O 766.664 1.43266 1.11106 0
M  V30 8099 C 766.712 2.97134 -2.04313 0
M  V30 8100 O 765.816 3.88049 -1.39614 0
M  V30 8101 H 765.157 0.499477 -0.437514 0
M  V30 8102 H 767.687 1.05443 -1.75336 0
M  V30 8103 H 767.697 3.46896 -2.14772 0
M  V30 8104 H 766.372 2.79339 -3.08128 0
M  V30 8105 H 764.949 3.46525 -1.3775 0
M  V30 8106 N 767.134 1.16236 1.06428 0
M  V30 8107 C 768.064 0.890807 2.1584 0
M  V30 8108 C 769.045 -0.162333 1.69324 0
M  V30 8109 O 770.23 -0.0147191 1.94194 0
M  V30 8110 C 767.36 0.389615 3.45108 0
M  V30 8111 C 766.314 1.38051 4.05125 0
M  V30 8112 C 765.64 0.737773 5.29586 0
M  V30 8113 C 766.94 2.74965 4.44062 0
M  V30 8114 H 768.634 1.80577 2.38814 0
M  V30 8115 H 766.18 0.869657 1.14774 0
M  V30 8116 H 768.133 0.187127 4.20984 0
M  V30 8117 H 766.857 -0.560851 3.21748 0
M  V30 8118 H 765.516 1.56952 3.31303 0
M  V30 8119 H 765.164 -0.219135 5.02522 0
M  V30 8120 H 764.864 1.39914 5.70699 0
M  V30 8121 H 766.388 0.545275 6.0816 0
M  V30 8122 H 767.802 2.59855 5.11027 0
M  V30 8123 H 766.199 3.37563 4.96156 0
M  V30 8124 H 767.269 3.30321 3.54987 0
M  V30 8125 N 768.612 -1.24939 0.960631 0
M  V30 8126 C 769.522 -2.29374 0.492435 0
M  V30 8127 C 770.538 -1.68262 -0.443154 0
M  V30 8128 O 771.714 -1.98875 -0.31793 0
M  V30 8129 C 768.779 -3.46023 -0.216626 0
M  V30 8130 C 767.84 -4.22557 0.757915 0
M  V30 8131 C 767.073 -5.33636 0.0825969 0
M  V30 8132 O 767.296 -5.59084 -1.13054 0
M  V30 8133 O 766.23 -5.96939 0.771177 0
M  V30 8134 H 770.056 -2.71525 1.36044 0
M  V30 8135 H 767.641 -1.30499 0.72735 0
M  V30 8136 H 769.523 -4.16885 -0.615241 0
M  V30 8137 H 768.198 -3.05862 -1.05971 0
M  V30 8138 H 767.105 -3.54099 1.20685 0
M  V30 8139 H 768.438 -4.66516 1.5692 0
M  V30 8140 N 770.09 -0.729906 -1.39679 0
M  V30 8141 C 771.506 -0.404951 -1.54377 0
M  V30 8142 C 771.706 1.08476 -1.6981 0
M  V30 8143 O 770.762 1.87087 -1.69572 0
M  V30 8144 C 772.075 -1.18352 -2.76429 0
M  V30 8145 C 773.623 -1.17124 -2.9026 0
M  V30 8146 C 774.098 -1.93227 -4.15244 0
M  V30 8147 N 775.589 -1.90368 -4.22273 0
M  V30 8148 C 776.324 -2.46065 -5.17918 0
M  V30 8149 N 775.82 -3.10378 -6.19385 0
M  V30 8150 N 777.613 -2.36127 -5.10099 0
M  V30 8151 H 769.764 -1.69567 -1.27909 0
M  V30 8152 H 772.027 -0.717527 -0.619564 0
M  V30 8153 H 771.733 -2.23743 -2.71352 0
M  V30 8154 H 771.607 -0.784589 -3.6895 0
M  V30 8155 H 773.994 -0.125478 -2.94833 0
M  V30 8156 H 774.075 -1.60951 -1.98817 0
M  V30 8157 H 773.719 -2.97802 -4.11432 0
M  V30 8158 H 773.649 -1.4681 -5.05722 0
M  V30 8159 H 776.14 -1.4351 -3.4959 0
M  V30 8160 H 776.453 -3.50358 -6.88817 0
M  V30 8161 H 774.798 -3.14467 -6.19787 0
M  V30 8162 H 777.989 -1.85529 -4.29763 0
M  V30 8163 H 778.162 -2.79833 -5.84463 0
M  V30 8164 N 771.568 1.50203 -0.477153 0
M  V30 8165 C 772.518 2.25561 0.332625 0
M  V30 8166 C 773.502 1.29401 0.956249 0
M  V30 8167 O 774.694 1.54267 0.867795 0
M  V30 8168 C 771.823 3.12984 1.41052 0
M  V30 8169 C 770.909 4.16595 0.79433 0
M  V30 8170 N 771.3 5.05722 -0.0889633 0
M  V30 8171 C 769.598 4.33279 1.0576 0
M  V30 8172 C 770.299 5.80039 -0.439286 0
M  V30 8173 N 769.275 5.43278 0.187018 0
M  V30 8174 H 773.077 2.91836 -0.347718 0
M  V30 8175 H 770.591 1.59759 -0.291686 0
M  V30 8176 H 772.588 3.65582 2.00388 0
M  V30 8177 H 771.248 2.48258 2.09279 0
M  V30 8178 H 772.259 5.15869 -0.458205 0
M  V30 8179 H 768.936 3.79769 1.7344 0
M  V30 8180 H 770.326 6.61802 -1.1605 0
M  V30 8181 N 773.046 0.209999 1.56195 0
M  V30 8182 C 773.976 -0.699746 2.22769 0
M  V30 8183 C 774.957 -1.20993 1.1956 0
M  V30 8184 O 776.142 -1.25605 1.48112 0
M  V30 8185 C 773.272 -1.91302 2.89863 0
M  V30 8186 C 772.226 -1.53715 3.99444 0
M  V30 8187 C 771.552 -2.82826 4.53777 0
M  V30 8188 C 772.852 -0.735836 5.17091 0
M  V30 8189 H 774.546 -0.144716 2.9905 0
M  V30 8190 H 772.092 -0.0681645 1.43839 0
M  V30 8191 H 774.045 -2.5548 3.35124 0
M  V30 8192 H 772.769 -2.49283 2.11011 0
M  V30 8193 H 771.428 -0.918892 3.54897 0
M  V30 8194 H 771.076 -3.38927 3.71669 0
M  V30 8195 H 770.776 -2.58415 5.27727 0
M  V30 8196 H 772.3 -3.47966 5.01749 0
M  V30 8197 H 773.714 -1.28105 5.58804 0
M  V30 8198 H 772.111 -0.589272 5.972 0
M  V30 8199 H 773.181 0.260004 4.84202 0
M  V30 8200 N 774.524 -1.57472 -0.0634922 0
M  V30 8201 C 775.94 -1.54016 -0.418466 0
M  V30 8202 C 776.14 -0.931376 -1.78683 0
M  V30 8203 O 775.196 -0.537465 -2.46714 0
M  V30 8204 C 776.509 -2.98634 -0.351906 0
M  V30 8205 C 778.057 -3.10012 -0.431494 0
M  V30 8206 C 778.532 -4.56296 -0.394754 0
M  V30 8207 N 780.023 -4.60964 -0.454583 0
M  V30 8208 C 780.758 -5.71643 -0.448501 0
M  V30 8209 N 780.254 -6.91663 -0.396742 0
M  V30 8210 N 782.047 -5.5991 -0.495677 0
M  V30 8211 H 774.198 -1.95409 0.832408 0
M  V30 8212 H 776.461 -0.894769 0.313197 0
M  V30 8213 H 776.167 -3.46766 0.587048 0
M  V30 8214 H 776.041 -3.58955 -1.15893 0
M  V30 8215 H 778.428 -2.61848 -1.36087 0
M  V30 8216 H 778.509 -2.52585 0.404258 0
M  V30 8217 H 778.153 -5.05119 0.530811 0
M  V30 8218 H 778.083 -5.11594 -1.24815 0
M  V30 8219 H 780.574 -3.74598 -0.498496 0
M  V30 8220 H 780.887 -7.71783 -0.396256 0
M  V30 8221 H 779.232 -6.9405 -0.363304 0
M  V30 8222 H 782.423 -4.65046 -0.533864 0
M  V30 8223 H 782.596 -6.46164 -0.487469 0
M  V30 8224 N 776.003 0.335068 -1.53997 0
M  V30 8225 C 777.228 1.09859 -1.75914 0
M  V30 8226 C 777.653 1.81308 -0.500915 0
M  V30 8227 O 777.011 1.72854 0.54693 0
M  V30 8228 C 777.059 2.08122 -2.94478 0
M  V30 8229 O 776.163 3.15805 -2.65219 0
M  V30 8230 H 775.504 0.317313 -0.583274 0
M  V30 8231 H 778.034 0.382872 -2.00986 0
M  V30 8232 H 778.044 2.51195 -3.21504 0
M  V30 8233 H 776.719 1.55517 -3.8573 0
M  V30 8234 H 775.296 2.77489 -2.49107 0
M  V30 8235 N 777.481 1.45874 0.596531 0
M  V30 8236 C 778.444 1.54988 1.68853 0
M  V30 8237 C 779.444 0.428302 1.54991 0
M  V30 8238 O 780.634 0.692158 1.59859 0
M  V30 8239 C 777.766 1.457 3.08195 0
M  V30 8240 H 778.959 2.52294 1.62135 0
M  V30 8241 H 776.512 1.33479 0.813206 0
M  V30 8242 H 777.247 0.496204 3.20481 0
M  V30 8243 H 777.032 2.27061 3.19665 0
M  V30 8244 H 778.522 1.55133 3.87716 0
M  V30 8245 N 778.959 -0.83999 1.33349 0
M  V30 8246 C 780.207 -1.59202 1.24496 0
M  V30 8247 C 780.528 -1.94077 -0.189499 0
M  V30 8248 O 779.798 -1.60868 -1.11796 0
M  V30 8249 H 778.378 -0.590276 0.457802 0
M  V30 8250 H 781.04 -1.00394 1.67054 0
M  V30 8251 H 780.136 -2.52247 1.83788 0
M  V30 8252 N 780.437 -1.16799 -1.0581 0
M  V30 8253 C 781.662 -0.977402 -1.82925 0
M  V30 8254 C 782.087 0.469514 -1.82146 0
M  V30 8255 O 781.445 1.33576 -1.22585 0
M  V30 8256 C 781.493 -1.51543 -3.27211 0
M  V30 8257 O 780.597 -0.725021 -4.05977 0
M  V30 8258 H 779.938 -0.347474 -0.565825 0
M  V30 8259 H 782.468 -1.55151 -1.33376 0
M  V30 8260 H 782.478 -1.53502 -3.78023 0
M  V30 8261 H 781.153 -2.56872 -3.27093 0
M  V30 8262 H 779.73 -0.77634 -3.64729 0
M  V30 8263 N 781.915 1.24427 -0.967243 0
M  V30 8264 C 783.331 1.44684 -0.6737 0
M  V30 8265 C 783.531 1.86429 0.764625 0
M  V30 8266 O 782.587 2.00211 1.53857 0
M  V30 8267 C 783.9 2.509 -1.6574 0
M  V30 8268 C 785.448 2.64728 -1.66998 0
M  V30 8269 C 785.923 3.7414 -2.64165 0
M  V30 8270 N 787.414 3.81567 -2.62604 0
M  V30 8271 C 788.149 4.6575 -3.34462 0
M  V30 8272 N 787.645 5.54124 -4.15835 0
M  V30 8273 N 789.438 4.59827 -3.23288 0
M  V30 8274 H 781.589 0.956276 -1.89655 0
M  V30 8275 H 783.852 0.48171 -0.816492 0
M  V30 8276 H 783.558 2.27113 -2.68538 0
M  V30 8277 H 783.432 3.4905 -1.42981 0
M  V30 8278 H 785.819 2.87872 -0.649121 0
M  V30 8279 H 785.9 1.66936 -1.93819 0
M  V30 8280 H 785.544 3.51745 -3.66384 0
M  V30 8281 H 785.474 4.71444 -2.34623 0
M  V30 8282 H 787.965 3.18403 -2.03539 0
M  V30 8283 H 788.278 6.15316 -4.67553 0
M  V30 8284 H 786.623 5.53791 -4.19929 0
M  V30 8285 H 789.814 3.898 -2.59179 0
M  V30 8286 H 789.987 5.25208 -3.79553 0
M  V30 8287 N 783.393 0.737304 1.3929 0
M  V30 8288 C 784.323 0.113988 2.33222 0
M  V30 8289 C 785.304 -0.721695 1.54031 0
M  V30 8290 O 786.489 -0.666206 1.82415 0
M  V30 8291 C 783.619 -0.792319 3.38141 0
M  V30 8292 C 782.573 -0.0606178 4.27957 0
M  V30 8293 C 781.899 -1.08409 5.23595 0
M  V30 8294 C 783.199 1.09817 5.10625 0
M  V30 8295 H 784.893 0.898611 2.85596 0
M  V30 8296 H 782.439 0.433571 1.37318 0
M  V30 8297 H 784.392 -1.23793 4.02807 0
M  V30 8298 H 783.116 -1.60908 2.84211 0
M  V30 8299 H 781.775 0.365393 3.64775 0
M  V30 8300 H 781.423 -1.89449 4.6596 0
M  V30 8301 H 781.123 -0.599269 5.84536 0
M  V30 8302 H 782.647 -1.52936 5.91137 0
M  V30 8303 H 784.061 0.730892 5.68622 0
M  V30 8304 H 782.458 1.51278 5.80719 0
M  V30 8305 H 783.528 1.91878 4.45321 0
M  V30 8306 N 784.871 -1.49948 0.485112 0
M  V30 8307 C 786.099 -2.06806 -0.0622824 0
M  V30 8308 C 786.514 -1.34736 -1.32256 0
M  V30 8309 O 785.871 -0.420836 -1.77582 0
M  V30 8310 C 785.922 -3.59934 -0.336096 0
M  V30 8311 O 785.643 -4.29289 0.874203 0
M  V30 8312 C 787.144 -4.33459 -0.928903 0
M  V30 8313 H 784.364 -0.670867 0.0133472 0
M  V30 8314 H 786.908 -1.92937 0.677917 0
M  V30 8315 H 785.063 -3.7356 -1.02625 0
M  V30 8316 H 785.477 -5.20735 0.627332 0
M  V30 8317 H 786.951 -5.41527 -1.07017 0
M  V30 8318 H 787.428 -3.94881 -1.92265 0
M  V30 8319 H 788.034 -4.24399 -0.276705 0
M  V30 8320 N 786.349 -0.21828 -1.56081 0
M  V30 8321 C 787.279 0.687922 -2.23136 0
M  V30 8322 C 788.26 1.20357 -1.202 0
M  V30 8323 O 789.445 1.24817 -1.48776 0
M  V30 8324 C 786.575 1.89762 -2.90874 0
M  V30 8325 C 785.529 1.51595 -4.00254 0
M  V30 8326 C 784.855 2.80415 -4.55271 0
M  V30 8327 C 786.155 0.708404 -5.17474 0
M  V30 8328 H 787.849 0.128854 -2.99123 0
M  V30 8329 H 785.395 0.0605354 -1.43873 0
M  V30 8330 H 787.348 2.53699 -3.36474 0
M  V30 8331 H 786.072 2.4816 -2.1233 0
M  V30 8332 H 784.731 0.900058 -3.55379 0
M  V30 8333 H 784.379 3.36951 -3.73461 0
M  V30 8334 H 784.079 2.55613 -5.2909 0
M  V30 8335 H 785.603 3.453 -5.03587 0
M  V30 8336 H 787.017 1.2514 -5.59476 0
M  V30 8337 H 785.414 0.557593 -5.97504 0
M  V30 8338 H 786.484 -0.285679 -4.84058 0
M  V30 8339 N 787.827 1.57504 0.0551401 0
M  V30 8340 C 789.052 1.92682 0.767352 0
M  V30 8341 C 789.477 0.81614 1.69472 0
M  V30 8342 O 788.835 -0.229989 1.79835 0
M  V30 8343 C 788.883 3.26866 1.52286 0
M  V30 8344 O 787.987 3.17274 2.63459 0
M  V30 8345 H 787.328 0.630502 0.208238 0
M  V30 8346 H 789.858 2.04592 0.0184026 0
M  V30 8347 H 789.868 3.61138 1.8985 0
M  V30 8348 H 788.543 4.07276 0.842541 0
M  V30 8349 H 787.12 2.94589 2.2863 0
M  V30 8350 N 789.305 -0.326896 1.54172 0
M  V30 8351 C 790.553 -1.06313 1.71878 0
M  V30 8352 C 790.874 -1.88652 0.493498 0
M  V30 8353 O 790.144 -1.89608 -0.492522 0
M  V30 8354 H 788.724 -0.39549 0.633716 0
M  V30 8355 H 791.386 -0.364139 1.91468 0
M  V30 8356 H 790.482 -1.73105 2.59694 0
M  V30 8357 N 790.784 -1.46188 -0.588786 0
M  V30 8358 C 792.2 -1.31009 -0.911524 0
M  V30 8359 C 792.4 -0.277017 -1.99587 0
M  V30 8360 O 791.456 0.322532 -2.50432 0
M  V30 8361 C 792.769 -2.69459 -1.33463 0
M  V30 8362 C 794.317 -2.77502 -1.44782 0
M  V30 8363 C 794.792 -4.1652 -1.90461 0
M  V30 8364 N 796.283 -4.18907 -1.97665 0
M  V30 8365 C 797.018 -5.23359 -2.34271 0
M  V30 8366 N 796.514 -6.38143 -2.69714 0
M  V30 8367 N 798.307 -5.10723 -2.34774 0
M  V30 8368 H 790.458 -2.12016 0.127614 0
M  V30 8369 H 792.721 -0.947984 -0.00557599 0
M  V30 8370 H 792.427 -3.46336 -0.611929 0
M  V30 8371 H 792.301 -2.99165 -2.2974 0
M  V30 8372 H 794.688 -2.00917 -2.1614 0
M  V30 8373 H 794.769 -2.51488 -0.467724 0
M  V30 8374 H 794.413 -4.93597 -1.19684 0
M  V30 8375 H 794.343 -4.39937 -2.89418 0
M  V30 8376 H 796.834 -3.36084 -1.72789 0
M  V30 8377 H 797.147 -7.13624 -2.96582 0
M  V30 8378 H 795.492 -6.41514 -2.67366 0
M  V30 8379 H 798.683 -4.20088 -2.06503 0
M  V30 8380 H 798.856 -5.9224 -2.62975 0
M  V30 8381 N 792.262 0.832906 -1.33792 0
M  V30 8382 C 793.51 1.58539 -1.25338 0
M  V30 8383 C 793.831 1.94175 0.179204 0
M  V30 8384 O 793.101 1.61458 1.10941 0
M  V30 8385 H 791.681 0.58784 -0.460926 0
M  V30 8386 H 794.343 0.995064 -1.67584 0
M  V30 8387 H 793.439 2.51268 -1.85123 0
M  V30 8388 N 793.74 1.17359 1.05189 0
M  V30 8389 C 794.965 0.98709 1.82404 0
M  V30 8390 C 795.39 -0.459848 1.82392 0
M  V30 8391 O 794.748 -1.32924 1.23292 0
M  V30 8392 C 794.796 1.53276 3.26403 0
M  V30 8393 O 793.9 0.746541 4.05587 0
M  V30 8394 H 793.241 0.35047 0.563974 0
M  V30 8395 H 795.771 1.55856 1.32552 0
M  V30 8396 H 795.781 1.55504 3.77203 0
M  V30 8397 H 794.456 2.58603 3.25726 0
M  V30 8398 H 793.033 0.795671 3.64312 0
M  V30 8399 N 795.218 -1.23913 0.973828 0
M  V30 8400 C 796.166 -2.27141 0.50098 0
M  V30 8401 C 797.16 -1.63623 -0.438631 0
M  V30 8402 O 798.366 -1.77253 -0.313247 0
M  V30 8403 H 794.741 -0.73817 0.14356 0
M  V30 8404 H 796.712 -2.64392 1.38346 0
M  V30 8405 C 795.461 -3.47195 -0.187377 0
M  V30 8406 H 794.784 -3.96318 0.526535 0
M  V30 8407 H 796.224 -4.21252 -0.481962 0
M  V30 8408 C 794.683 -3.05678 -1.41642 0
M  V30 8409 O 795.213 -3.1338 -2.51309 0
M  V30 8410 N 793.419 -2.60661 -1.28469 0
M  V30 8411 H 792.966 -2.54594 -0.39238 0
M  V30 8412 H 792.924 -2.33249 -2.10813 0
M  V30 8413 N 796.696 -0.74468 -1.38897 0
M  V30 8414 C 797.926 -0.306982 -2.04307 0
M  V30 8415 C 798.334 1.06652 -1.56275 0
M  V30 8416 O 797.677 1.68699 -0.72708 0
M  V30 8417 C 797.739 -0.241186 -3.5869 0
M  V30 8418 C 797.403 -1.55476 -4.2974 0
M  V30 8419 C 798.4 -2.50229 -4.55721 0
M  V30 8420 C 796.085 -1.82173 -4.68101 0
M  V30 8421 C 798.079 -3.69905 -5.19085 0
M  V30 8422 C 795.766 -3.02125 -5.31191 0
M  V30 8423 C 796.764 -3.95812 -5.56616 0
M  V30 8424 O 796.452 -5.13656 -6.18395 0
M  V30 8425 H 796.184 -0.130416 -0.663301 0
M  V30 8426 H 798.738 -1.01192 -1.78744 0
M  V30 8427 H 796.968 0.519925 -3.83189 0
M  V30 8428 H 798.657 0.165806 -4.05561 0
M  V30 8429 H 799.423 -2.30877 -4.26522 0
M  V30 8430 H 795.302 -1.10091 -4.47662 0
M  V30 8431 H 798.846 -4.43047 -5.38846 0
M  V30 8432 H 794.743 -3.21374 -5.59811 0
M  V30 8433 H 795.511 -5.14119 -6.36886 0
M  V30 8434 N 798.174 1.49689 -0.493057 0
M  V30 8435 C 799.422 2.02027 0.0541642 0
M  V30 8436 C 799.743 1.37554 1.38217 0
M  V30 8437 O 799.013 0.528174 1.88646 0
M  V30 8438 H 797.593 0.746646 0.0230069 0
M  V30 8439 H 800.255 1.83795 -0.648489 0
M  V30 8440 H 799.351 3.11523 0.189652 0
M  V30 8441 N 799.652 0.226554 1.55963 0
M  V30 8442 C 800.877 -0.411527 2.03276 0
M  V30 8443 C 801.302 -1.52206 1.10521 0
M  V30 8444 O 800.66 -1.81054 0.0943217 0
M  V30 8445 C 800.708 -0.915694 3.4878 0
M  V30 8446 O 799.812 -2.02672 3.59163 0
M  V30 8447 H 799.153 -0.0924907 0.657527 0
M  V30 8448 H 801.683 0.346656 2.01642 0
M  V30 8449 H 801.693 -1.22421 3.892 0
M  V30 8450 H 800.368 -0.102915 4.15773 0
M  V30 8451 H 798.945 -1.72445 3.30632 0
M  V30 8452 N 801.13 -1.57531 -0.0467866 0
M  V30 8453 C 802.06 -2.08425 -1.05268 0
M  V30 8454 C 803.041 -0.982941 -1.38825 0
M  V30 8455 O 804.226 -1.25716 -1.48018 0
M  V30 8456 C 801.356 -2.54897 -2.35891 0
M  V30 8457 C 800.31 -3.69132 -2.16623 0
M  V30 8458 C 799.636 -4.01747 -3.52851 0
M  V30 8459 C 800.936 -4.98243 -1.56689 0
M  V30 8460 H 802.63 -2.92716 -0.62908 0
M  V30 8461 H 800.176 -1.40816 -0.301156 0
M  V30 8462 H 802.129 -2.8912 -3.06574 0
M  V30 8463 H 800.853 -1.67666 -2.80278 0
M  V30 8464 H 799.512 -3.35231 -1.48377 0
M  V30 8465 H 799.16 -3.11608 -3.94853 0
M  V30 8466 H 798.86 -4.78681 -3.4079 0
M  V30 8467 H 800.384 -4.38487 -4.24925 0
M  V30 8468 H 801.798 -5.30535 -2.17268 0
M  V30 8469 H 800.195 -5.79669 -1.55255 0
M  V30 8470 H 801.265 -4.81986 -0.530827 0
M  V30 8471 N 802.608 0.318715 -1.54344 0
M  V30 8472 C 803.538 1.39751 -1.87061 0
M  V30 8473 C 804.519 1.53741 -0.727848 0
M  V30 8474 O 805.704 1.67541 -0.982016 0
M  V30 8475 C 802.834 2.76446 -2.10226 0
M  V30 8476 C 801.788 2.77239 -3.26071 0
M  V30 8477 C 801.114 4.17056 -3.34617 0
M  V30 8478 C 802.414 2.40555 -4.63606 0
M  V30 8479 H 804.108 1.12619 -2.77412 0
M  V30 8480 H 801.654 0.540318 -1.33479 0
M  V30 8481 H 803.607 3.51985 -2.31699 0
M  V30 8482 H 802.331 3.05066 -1.16629 0
M  V30 8483 H 800.99 2.04155 -3.04493 0
M  V30 8484 H 800.638 4.42824 -2.3857 0
M  V30 8485 H 800.338 4.18492 -4.12478 0
M  V30 8486 H 801.862 4.94401 -3.5833 0
M  V30 8487 H 803.276 3.05808 -4.84927 0
M  V30 8488 H 801.673 2.53234 -5.44052 0
M  V30 8489 H 802.743 1.35698 -4.65526 0
M  V30 8490 N 804.086 1.46499 0.581025 0
M  V30 8491 C 805.314 1.5547 1.36517 0
M  V30 8492 C 805.729 0.196407 1.87776 0
M  V30 8493 O 805.086 -0.806577 1.63709 0
M  V30 8494 C 805.137 2.56084 2.55154 0
M  V30 8495 O 804.858 3.86637 2.06018 0
M  V30 8496 C 806.359 2.75011 3.47683 0
M  V30 8497 H 803.579 0.525703 0.416986 0
M  V30 8498 H 806.123 1.9192 0.706177 0
M  V30 8499 H 804.278 2.22633 3.17039 0
M  V30 8500 H 804.692 4.41413 2.83292 0
M  V30 8501 H 806.166 3.49329 4.27403 0
M  V30 8502 H 806.643 1.81978 3.99726 0
M  V30 8503 H 807.249 3.09565 2.91632 0
M  V30 8504 N 805.565 -0.825799 1.34232 0
M  V30 8505 C 806.793 -1.61363 1.29497 0
M  V30 8506 C 807.208 -1.88341 -0.131536 0
M  V30 8507 O 806.565 -1.47279 -1.07773 0
M  V30 8508 C 806.616 -2.95623 2.08061 0
M  V30 8509 O 806.337 -2.69824 3.45147 0
M  V30 8510 C 807.838 -3.90032 2.10688 0
M  V30 8511 H 805.058 -0.501676 0.445603 0
M  V30 8512 H 807.602 -1.02767 1.76803 0
M  V30 8513 H 805.757 -3.50785 1.64404 0
M  V30 8514 H 806.171 -3.55412 3.85723 0
M  V30 8515 H 807.645 -4.81411 2.70087 0
M  V30 8516 H 808.122 -4.25188 1.10052 0
M  V30 8517 H 808.728 -3.40807 2.54422 0
M  V30 8518 N 807.043 -1.17915 -1.04565 0
M  V30 8519 C 807.953 -0.916449 -2.15959 0
M  V30 8520 C 808.969 0.117655 -1.73602 0
M  V30 8521 O 810.145 -0.063089 -2.01301 0
M  V30 8522 C 807.21 -0.440262 -3.43893 0
M  V30 8523 C 806.271 -1.54172 -4.00661 0
M  V30 8524 C 805.504 -1.08816 -5.22489 0
M  V30 8525 O 805.727 0.0551547 -5.70373 0
M  V30 8526 O 804.661 -1.88383 -5.7166 0
M  V30 8527 H 808.487 -1.8484 -2.40972 0
M  V30 8528 H 806.072 -0.960552 -1.14428 0
M  V30 8529 H 807.954 -0.182537 -4.21004 0
M  V30 8530 H 806.629 0.46346 -3.20365 0
M  V30 8531 H 805.536 -1.85341 -3.24961 0
M  V30 8532 H 806.869 -2.42139 -4.2852 0
M  V30 8533 N 808.521 1.23394 -0.980386 0
M  V30 8534 C 809.769 1.91431 -0.647978 0
M  V30 8535 C 810.09 1.76871 0.821066 0
M  V30 8536 O 809.36 1.14808 1.58732 0
M  V30 8537 H 807.94 0.708516 -0.236673 0
M  V30 8538 H 810.602 1.50019 -1.2442 0
M  V30 8539 H 809.698 2.98854 -0.899592 0
M  V30 8540 N 809.999 0.752036 1.385 0
M  V30 8541 C 810.931 0.0835089 2.29048 0
M  V30 8542 C 811.944 -0.685402 1.47669 0
M  V30 8543 O 813.133 -0.526748 1.70551 0
M  V30 8544 C 810.233 -0.905772 3.26572 0
M  V30 8545 C 809.406 -0.194828 4.36966 0
M  V30 8546 C 808.465 -1.09464 5.14688 0
M  V30 8547 O 807.491 -0.565743 5.66381 0
M  V30 8548 N 808.693 -2.42287 5.2752 0
M  V30 8549 H 811.458 0.861142 2.87062 0
M  V30 8550 H 809.019 0.602689 1.50264 0
M  V30 8551 H 811.011 -1.51072 3.75446 0
M  V30 8552 H 809.581 -1.58449 2.69467 0
M  V30 8553 H 808.801 0.590812 3.89747 0
M  V30 8554 H 810.089 0.297189 5.07931 0
M  V30 8555 H 809.487 -2.87715 4.8707 0
M  V30 8556 H 808.044 -2.97836 5.79773 0
M  V30 8557 N 811.477 -1.49425 0.500989 0
M  V30 8558 C 812.724 -2.02453 -0.0435355 0
M  V30 8559 C 813.052 -1.38067 -1.36995 0
M  V30 8560 O 812.307 -0.505557 -1.89057 0
M  V30 8561 C 812.606 -3.56562 -0.24463 0
M  V30 8562 C 812.272 -4.39585 1.00379 0
M  V30 8563 C 810.934 -4.61992 1.346 0
M  V30 8564 C 813.286 -4.87881 1.83361 0
M  V30 8565 C 810.614 -5.2994 2.51755 0
M  V30 8566 C 812.966 -5.57119 2.99669 0
M  V30 8567 C 811.63 -5.77771 3.3427 0
M  V30 8568 H 810.9 -0.740829 -0.0159308 0
M  V30 8569 H 813.547 -1.79725 0.661143 0
M  V30 8570 H 811.852 -3.77969 -1.03183 0
M  V30 8571 H 813.549 -3.95185 -0.6804 0
M  V30 8572 H 810.139 -4.22385 0.727225 0
M  V30 8573 H 814.323 -4.70398 1.58237 0
M  V30 8574 H 809.579 -5.44133 2.788 0
M  V30 8575 H 813.753 -5.93516 3.64296 0
M  V30 8576 H 811.38 -6.30197 4.25154 0
M  V30 8577 N 812.955 -0.234822 -1.55841 0
M  V30 8578 C 813.887 0.702346 -2.18174 0
M  V30 8579 C 814.9 1.14776 -1.15457 0
M  V30 8580 O 816.089 1.07662 -1.42377 0
M  V30 8581 C 813.189 1.96483 -2.76129 0
M  V30 8582 C 812.362 1.67283 -4.04148 0
M  V30 8583 C 811.421 2.7837 -4.46539 0
M  V30 8584 O 810.447 2.46272 -5.13166 0
M  V30 8585 N 811.649 4.07611 -4.1332 0
M  V30 8586 H 814.414 0.169074 -2.99223 0
M  V30 8587 H 811.975 -0.0543164 -1.61809 0
M  V30 8588 H 813.967 2.70016 -3.01452 0
M  V30 8589 H 812.537 2.40822 -1.99307 0
M  V30 8590 H 811.757 0.773278 -3.86541 0
M  V30 8591 H 813.045 1.45222 -4.87635 0
M  V30 8592 H 812.443 4.36527 -3.59806 0
M  V30 8593 H 811 4.77646 -4.43506 0
M  V30 8594 N 814.433 1.57553 0.0384317 0
M  V30 8595 C 815.679 1.89121 0.732199 0
M  V30 8596 C 816.012 0.831404 1.75503 0
M  V30 8597 O 815.287 -0.154642 1.93884 0
M  V30 8598 C 815.57 3.31338 1.41021 0
M  V30 8599 C 815.423 4.48004 0.401532 0
M  V30 8600 C 816.742 3.72318 2.34665 0
M  V30 8601 H 813.861 0.687819 0.264715 0
M  V30 8602 H 816.503 1.89999 -0.00496279 0
M  V30 8603 H 814.653 3.3072 2.03854 0
M  V30 8604 H 816.325 4.60755 -0.224159 0
M  V30 8605 H 814.568 4.32895 -0.280092 0
M  V30 8606 H 815.239 5.44377 0.91423 0
M  V30 8607 H 817.715 3.74243 1.81883 0
M  V30 8608 H 816.591 4.72652 2.7909 0
M  V30 8609 H 816.852 3.04062 3.20934 0
M  V30 8610 N 815.911 -0.310526 1.54511 0
M  V30 8611 C 817.158 -1.04691 1.73338 0
M  V30 8612 C 817.486 -1.87584 0.514038 0
M  V30 8613 O 816.741 -1.89096 -0.504119 0
M  V30 8614 C 817.04 -1.98942 2.96912 0
M  V30 8615 C 816.706 -1.321 4.31115 0
M  V30 8616 C 815.368 -1.13603 4.67598 0
M  V30 8617 C 817.72 -0.842362 5.14348 0
M  V30 8618 C 815.048 -0.459102 5.84901 0
M  V30 8619 C 817.4 -0.179202 6.32346 0
M  V30 8620 C 816.064 0.0178111 6.67498 0
M  V30 8621 H 815.334 -0.38309 0.634289 0
M  V30 8622 H 817.981 -0.322723 1.88761 0
M  V30 8623 H 816.286 -2.77856 2.76231 0
M  V30 8624 H 817.983 -2.55972 3.08674 0
M  V30 8625 H 814.573 -1.47502 4.02419 0
M  V30 8626 H 818.757 -0.973013 4.86668 0
M  V30 8627 H 814.013 -0.295385 6.10686 0
M  V30 8628 H 818.187 0.199619 6.96114 0
M  V30 8629 H 815.814 0.544356 7.58249 0
M  V30 8630 N 817.389 -1.46805 -0.573248 0
M  V30 8631 C 818.352 -1.57655 -1.66366 0
M  V30 8632 C 819.352 -0.452905 -1.5429 0
M  V30 8633 O 820.542 -0.717502 -1.58737 0
M  V30 8634 C 817.674 -1.50584 -3.05839 0
M  V30 8635 H 818.867 -2.54842 -1.581 0
M  V30 8636 H 816.42 -1.34756 -0.791868 0
M  V30 8637 H 817.155 -0.547127 -3.19651 0
M  V30 8638 H 816.94 -2.32118 -3.16012 0
M  V30 8639 H 818.43 -1.61282 -3.85199 0
M  V30 8640 N 818.867 0.818669 -1.34668 0
M  V30 8641 C 819.814 1.92983 -1.26595 0
M  V30 8642 C 820.784 1.65506 -0.140315 0
M  V30 8643 O 821.969 1.88063 -0.322005 0
M  V30 8644 C 819.109 3.2932 -1.03163 0
M  V30 8645 C 818.222 3.69061 -2.24539 0
M  V30 8646 C 817.357 4.94368 -1.94355 0
M  V30 8647 C 816.396 5.26702 -3.11851 0
M  V30 8648 N 815.533 6.43187 -2.81522 0
M  V30 8649 H 820.373 1.99219 -2.2162 0
M  V30 8650 H 817.91 0.974612 -1.1018 0
M  V30 8651 H 819.868 4.07897 -0.87613 0
M  V30 8652 H 818.498 3.22584 -0.118045 0
M  V30 8653 H 817.55 2.85842 -2.50995 0
M  V30 8654 H 818.862 3.88924 -3.12313 0
M  V30 8655 H 818.016 5.80742 -1.75566 0
M  V30 8656 H 816.755 4.76515 -1.03848 0
M  V30 8657 H 815.76 4.38823 -3.31231 0
M  V30 8658 H 816.985 5.46492 -4.03142 0
M  V30 8659 H 814.931 6.26783 -1.93596 0
M  V30 8660 H 814.848 6.63243 -3.62829 0
M  V30 8661 H 816.116 7.32621 -2.66247 0
M  V30 8662 N 820.346 1.18468 1.03938 0
M  V30 8663 C 821.574 1.00576 1.80809 0
M  V30 8664 C 821.989 -0.445786 1.83462 0
M  V30 8665 O 821.346 -1.30964 1.27101 0
M  V30 8666 C 821.397 1.55491 3.26351 0
M  V30 8667 O 821.118 2.94963 3.23926 0
M  V30 8668 C 822.619 1.42236 4.19862 0
M  V30 8669 H 819.839 0.35508 0.56935 0
M  V30 8670 H 822.383 1.57046 1.30984 0
M  V30 8671 H 820.538 1.03195 3.73403 0
M  V30 8672 H 820.952 3.20598 4.15111 0
M  V30 8673 H 822.426 1.85455 5.19914 0
M  V30 8674 H 822.903 0.371267 4.37628 0
M  V30 8675 H 823.509 1.9361 3.78675 0
M  V30 8676 N 821.824 -1.22873 0.986916 0
M  V30 8677 C 822.787 -2.2281 0.537442 0
M  V30 8678 C 823.787 -1.56331 -0.37646 0
M  V30 8679 O 824.977 -1.73376 -0.169247 0
M  V30 8680 C 822.109 -3.40195 -0.219082 0
M  V30 8681 H 823.302 -2.64089 1.42116 0
M  V30 8682 H 820.855 -1.35819 0.773488 0
M  V30 8683 H 821.59 -3.04381 -1.11905 0
M  V30 8684 H 821.375 -3.89657 0.437026 0
M  V30 8685 H 822.865 -4.14326 -0.521926 0
M  V30 8686 N 823.302 -0.75937 -1.38099 0
M  V30 8687 C 824.532 -0.328634 -2.0397 0
M  V30 8688 C 824.94 1.04989 -1.57398 0
M  V30 8689 O 824.283 1.67918 -0.744932 0
M  V30 8690 C 824.345 -0.279216 -3.58414 0
M  V30 8691 C 824.009 -1.60025 -4.28067 0
M  V30 8692 C 825.006 -2.55048 -4.53041 0
M  V30 8693 C 822.691 -1.87128 -4.66142 0
M  V30 8694 C 824.685 -3.7539 -5.15132 0
M  V30 8695 C 822.372 -3.07742 -5.27956 0
M  V30 8696 C 823.37 -4.01694 -5.52387 0
M  V30 8697 O 823.058 -5.20186 -6.12912 0
M  V30 8698 H 822.79 -0.137443 -0.66188 0
M  V30 8699 H 825.344 -1.03082 -1.77661 0
M  V30 8700 H 823.574 0.479254 -3.83719 0
M  V30 8701 H 825.263 0.122781 -4.05714 0
M  V30 8702 H 826.029 -2.35387 -4.24049 0
M  V30 8703 H 821.908 -1.14833 -4.46469 0
M  V30 8704 H 825.452 -4.48737 -5.34117 0
M  V30 8705 H 821.349 -3.27294 -5.56371 0
M  V30 8706 H 822.117 -5.20846 -6.31397 0
M  V30 8707 N 824.78 1.49157 -0.508906 0
M  V30 8708 C 826.01 2.06579 0.0293308 0
M  V30 8709 C 826.418 1.36852 1.30645 0
M  V30 8710 O 825.761 0.443079 1.78276 0
M  V30 8711 C 825.823 3.57838 0.345296 0
M  V30 8712 C 825.487 4.49302 -0.835256 0
M  V30 8713 C 826.484 4.90345 -1.72793 0
M  V30 8714 C 824.169 4.91494 -1.0363 0
M  V30 8715 C 826.163 5.72327 -2.80573 0
M  V30 8716 C 823.85 5.7325 -2.11726 0
M  V30 8717 C 824.848 6.13572 -3.00032 0
M  V30 8718 O 824.536 6.93691 -4.06261 0
M  V30 8719 H 824.268 0.675679 -0.0208193 0
M  V30 8720 H 826.822 1.9282 -0.707789 0
M  V30 8721 H 825.052 3.69634 1.13612 0
M  V30 8722 H 826.741 3.97467 0.823089 0
M  V30 8723 H 827.507 4.58388 -1.58446 0
M  V30 8724 H 823.386 4.59605 -0.358308 0
M  V30 8725 H 826.93 6.03719 -3.49527 0
M  V30 8726 H 822.827 6.0462 -2.26065 0
M  V30 8727 H 823.595 7.12011 -4.03711 0
M  V30 8728 N 826.258 0.243083 1.55714 0
M  V30 8729 C 827.205 -0.658078 2.21219 0
M  V30 8730 C 828.175 -1.1742 1.17481 0
M  V30 8731 O 829.36 -1.22937 1.45915 0
M  V30 8732 C 826.5 -1.85104 2.91257 0
M  V30 8733 C 825.613 -1.3718 4.09641 0
M  V30 8734 C 824.748 -2.52403 4.67404 0
M  V30 8735 C 823.787 -2.01321 5.78045 0
M  V30 8736 N 822.924 -3.09896 6.30007 0
M  V30 8737 H 827.764 -0.0927854 2.97856 0
M  V30 8738 H 825.301 -0.0340375 1.47061 0
M  V30 8739 H 827.259 -2.55179 3.3006 0
M  V30 8740 H 825.889 -2.38887 2.17101 0
M  V30 8741 H 824.941 -0.565232 3.76177 0
M  V30 8742 H 826.253 -0.957409 4.89525 0
M  V30 8743 H 825.407 -3.30525 5.08761 0
M  V30 8744 H 824.146 -2.97142 3.86728 0
M  V30 8745 H 823.151 -1.21667 5.36169 0
M  V30 8746 H 824.376 -1.57556 6.6057 0
M  V30 8747 H 822.322 -3.54077 5.52237 0
M  V30 8748 H 822.239 -2.72776 7.05074 0
M  V30 8749 H 823.507 -3.8809 6.76023 0
M  V30 8750 N 827.736 -1.57571 -0.0300757 0
M  V30 8751 C 828.984 -1.88852 -0.719666 0
M  V30 8752 C 829.305 -0.840645 -1.75949 0
M  V30 8753 O 828.575 0.125854 -1.95495 0
M  V30 8754 H 827.155 -0.696965 -0.268792 0
M  V30 8755 H 829.817 -1.949 0.00373285 0
M  V30 8756 H 828.913 -2.87695 -1.20987 0
M  V30 8757 N 829.214 0.302327 -1.54673 0
M  V30 8758 C 830.162 1.39286 -1.86285 0
M  V30 8759 C 831.156 1.52553 -0.736478 0
M  V30 8760 O 832.362 1.54686 -0.92045 0
M  V30 8761 H 828.737 0.465228 -0.590819 0
M  V30 8762 H 830.708 1.09859 -2.77441 0
M  V30 8763 C 829.457 2.75155 -2.12567 0
M  V30 8764 H 828.78 2.65728 -2.98712 0
M  V30 8765 H 830.22 3.50476 -2.38627 0
M  V30 8766 C 828.679 3.23987 -0.923813 0
M  V30 8767 O 829.209 4.01443 -0.143649 0
M  V30 8768 N 827.415 2.81293 -0.72956 0
M  V30 8769 H 826.962 2.18421 -1.36565 0
M  V30 8770 H 826.92 3.14315 0.0730351 0
M  V30 8771 N 830.692 1.47107 0.565454 0
M  V30 8772 C 831.622 1.61846 1.68309 0
M  V30 8773 C 832.603 0.468159 1.63531 0
M  V30 8774 O 833.788 0.696504 1.8128 0
M  V30 8775 C 830.918 1.62474 3.06952 0
M  V30 8776 C 829.872 2.76649 3.26572 0
M  V30 8777 C 829.198 2.62345 4.65917 0
M  V30 8778 C 830.498 4.18319 3.12741 0
M  V30 8779 H 832.192 2.55407 1.5623 0
M  V30 8780 H 829.738 1.22916 0.750179 0
M  V30 8781 H 831.691 1.71378 3.84977 0
M  V30 8782 H 830.415 0.654692 3.19971 0
M  V30 8783 H 829.074 2.67242 2.50952 0
M  V30 8784 H 828.722 1.63386 4.75725 0
M  V30 8785 H 828.422 3.38936 4.79996 0
M  V30 8786 H 829.946 2.73165 5.46089 0
M  V30 8787 H 831.36 4.28745 3.80593 0
M  V30 8788 H 829.757 4.95632 3.38333 0
M  V30 8789 H 830.827 4.37263 2.09592 0
M  V30 8790 N 832.17 -0.811516 1.35101 0
M  V30 8791 C 833.416 -1.57068 1.28287 0
M  V30 8792 C 833.749 -1.93667 -0.143808 0
M  V30 8793 O 833.024 -1.60953 -1.09199 0
M  V30 8794 C 833.307 -2.86259 2.18466 0
M  V30 8795 C 833.16 -2.56168 3.69727 0
M  V30 8796 C 834.479 -3.87924 2.07852 0
M  V30 8797 H 831.598 -0.569869 0.467353 0
M  V30 8798 H 834.24 -0.934023 1.65457 0
M  V30 8799 H 832.39 -3.4059 1.86898 0
M  V30 8800 H 834.062 -2.08059 4.11715 0
M  V30 8801 H 832.305 -1.89436 3.90252 0
M  V30 8802 H 832.976 -3.48344 4.28206 0
M  V30 8803 H 835.452 -3.4298 2.35593 0
M  V30 8804 H 834.328 -4.76106 2.73157 0
M  V30 8805 H 834.589 -4.2923 1.05896 0
M  V30 8806 N 833.648 -1.19017 -1.03309 0
M  V30 8807 C 834.611 -0.926076 -2.09658 0
M  V30 8808 C 835.611 0.0917077 -1.60538 0
M  V30 8809 O 836.801 -0.142574 -1.73616 0
M  V30 8810 C 833.933 -0.390958 -3.38651 0
M  V30 8811 H 835.126 -1.86923 -2.3452 0
M  V30 8812 H 832.679 -1.00325 -1.19853 0
M  V30 8813 H 833.414 0.558446 -3.19456 0
M  V30 8814 H 833.199 -1.12474 -3.75622 0
M  V30 8815 H 834.689 -0.225131 -4.16993 0
M  V30 8816 N 835.127 1.22348 -0.993418 0
M  V30 8817 C 836.373 1.91393 -0.67056 0
M  V30 8818 C 836.706 1.77163 0.795428 0
M  V30 8819 O 835.981 1.14084 1.57528 0
M  V30 8820 C 836.264 3.43589 -1.0779 0
M  V30 8821 C 836.117 3.66867 -2.60248 0
M  V30 8822 C 837.436 4.35545 -0.631527 0
M  V30 8823 H 834.555 0.695057 -0.24508 0
M  V30 8824 H 837.197 1.44213 -1.23703 0
M  V30 8825 H 835.347 3.83903 -0.595902 0
M  V30 8826 H 837.019 3.35954 -3.16121 0
M  V30 8827 H 835.262 3.1113 -3.02293 0
M  V30 8828 H 835.933 4.73457 -2.838 0
M  V30 8829 H 838.409 4.0275 -1.04554 0
M  V30 8830 H 837.285 5.40707 -0.944831 0
M  V30 8831 H 837.546 4.39618 0.467779 0
M  V30 8832 N 836.605 0.766683 1.37694 0
M  V30 8833 C 837.552 0.147725 2.30327 0
M  V30 8834 C 838.522 -0.695366 1.50844 0
M  V30 8835 O 839.707 -0.64878 1.79431 0
M  V30 8836 C 836.847 -0.72935 3.37305 0
M  V30 8837 C 835.96 0.129795 4.31805 0
M  V30 8838 C 835.095 -0.751511 5.25857 0
M  V30 8839 C 834.134 0.110475 6.12 0
M  V30 8840 N 833.271 -0.728522 6.9831 0
M  V30 8841 H 838.111 0.943204 2.82679 0
M  V30 8842 H 835.648 0.476736 1.3916 0
M  V30 8843 H 837.606 -1.25263 3.97951 0
M  V30 8844 H 836.236 -1.49048 2.86329 0
M  V30 8845 H 835.288 0.770829 3.72508 0
M  V30 8846 H 836.6 0.794923 4.92425 0
M  V30 8847 H 835.754 -1.34146 5.91684 0
M  V30 8848 H 834.493 -1.45034 4.65636 0
M  V30 8849 H 833.498 0.712999 5.45157 0
M  V30 8850 H 834.723 0.806557 6.74293 0
M  V30 8851 H 832.669 -1.41206 6.40622 0
M  V30 8852 H 832.586 -0.12058 7.55904 0
M  V30 8853 H 833.854 -1.30303 7.68532 0
M  V30 8854 N 838.083 -1.48885 0.516809 0
M  V30 8855 C 839.499 -1.58651 0.173788 0
M  V30 8856 C 839.699 -1.52033 -1.32243 0
M  V30 8857 O 838.755 -1.40251 -2.09967 0
M  V30 8858 C 840.068 -2.90816 0.764628 0
M  V30 8859 C 841.616 -3.04316 0.732164 0
M  V30 8860 C 842.091 -4.39123 1.30135 0
M  V30 8861 N 843.582 -4.45656 1.26273 0
M  V30 8862 C 844.317 -5.48446 1.67317 0
M  V30 8863 N 843.813 -6.58258 2.16028 0
M  V30 8864 N 845.606 -5.39251 1.58635 0
M  V30 8865 H 837.757 -1.5143 1.48939 0
M  V30 8866 H 840.02 -0.718243 0.618733 0
M  V30 8867 H 839.726 -3.01275 1.81456 0
M  V30 8868 H 839.6 -3.76473 0.234113 0
M  V30 8869 H 841.987 -2.93478 -0.308975 0
M  V30 8870 H 842.068 -2.20303 1.3 0
M  V30 8871 H 841.712 -4.50714 2.34135 0
M  V30 8872 H 841.642 -5.21801 0.709305 0
M  V30 8873 H 844.133 -3.66879 0.906006 0
M  V30 8874 H 844.446 -7.32811 2.45374 0
M  V30 8875 H 842.791 -6.59257 2.20013 0
M  V30 8876 H 845.982 -4.52354 1.20387 0
M  V30 8877 H 846.155 -6.19229 1.90944 0
M  V30 8878 N 839.561 -0.251338 -1.55583 0
M  V30 8879 C 840.807 0.37272 -1.99346 0
M  V30 8880 C 841.14 1.57266 -1.13934 0
M  V30 8881 O 840.415 1.9343 -0.20377 0
M  V30 8882 C 840.698 0.778245 -3.5159 0
M  V30 8883 C 840.551 -0.427394 -4.47765 0
M  V30 8884 C 841.87 1.62358 -4.09057 0
M  V30 8885 H 838.989 0.134002 -0.724715 0
M  V30 8886 H 841.631 -0.353536 -1.86682 0
M  V30 8887 H 839.781 1.39704 -3.62512 0
M  V30 8888 H 841.453 -1.06586 -4.48818 0
M  V30 8889 H 839.696 -1.06972 -4.20404 0
M  V30 8890 H 840.367 -0.10025 -5.51909 0
M  V30 8891 H 842.843 1.1012 -4.01264 0
M  V30 8892 H 841.719 1.87617 -5.1584 0
M  V30 8893 H 841.98 2.59688 -3.57791 0
M  V30 8894 N 841.039 1.57585 0.0217189 0
M  V30 8895 C 841.987 2.08134 1.03842 0
M  V30 8896 C 842.981 0.996662 1.36978 0
M  V30 8897 O 844.187 1.18149 1.35797 0
M  V30 8898 H 840.562 0.664298 0.352438 0
M  V30 8899 H 842.533 2.92583 0.58634 0
M  V30 8900 C 841.282 2.58218 2.32849 0
M  V30 8901 H 840.605 3.41302 2.08214 0
M  V30 8902 H 842.045 2.97289 3.02316 0
M  V30 8903 C 840.504 1.48664 3.02325 0
M  V30 8904 O 841.034 0.857075 3.9245 0
M  V30 8905 N 839.24 1.21938 2.63779 0
M  V30 8906 H 838.787 1.73319 1.90574 0
M  V30 8907 H 838.745 0.488523 3.10581 0
M  V30 8908 N 842.517 -0.29412 1.54831 0
M  V30 8909 C 843.933 -0.640167 1.46199 0
M  V30 8910 C 844.133 -1.90426 0.658798 0
M  V30 8911 O 843.189 -2.51932 0.169228 0
M  V30 8912 C 844.502 -0.786763 2.90225 0
M  V30 8913 C 846.05 -0.882201 3.0031 0
M  V30 8914 C 846.525 -1.06074 4.45547 0
M  V30 8915 N 848.016 -1.12678 4.49286 0
M  V30 8916 C 848.751 -1.28334 5.58854 0
M  V30 8917 N 848.247 -1.40845 6.78332 0
M  V30 8918 N 850.04 -1.31277 5.46555 0
M  V30 8919 H 842.191 0.536334 2.05517 0
M  V30 8920 H 844.454 0.178363 0.93107 0
M  V30 8921 H 844.16 0.0713018 3.51628 0
M  V30 8922 H 844.034 -1.67364 3.38037 0
M  V30 8923 H 846.421 -1.73075 2.39017 0
M  V30 8924 H 846.502 0.0288405 2.55784 0
M  V30 8925 H 846.146 -0.216935 5.07437 0
M  V30 8926 H 846.076 -1.98611 4.8771 0
M  V30 8927 H 848.567 -1.04335 3.63212 0
M  V30 8928 H 848.88 -1.52566 7.57591 0
M  V30 8929 H 847.225 -1.37888 6.81184 0
M  V30 8930 H 850.416 -1.2112 4.52159 0
M  V30 8931 H 850.589 -1.43136 6.31994 0
M  V30 8932 N 843.995 -1.47404 -0.557645 0
M  V30 8933 C 844.942 -1.59859 -1.66475 0
M  V30 8934 C 845.912 -0.441644 -1.60121 0
M  V30 8935 O 847.097 -0.661641 -1.78961 0
M  V30 8936 C 844.237 -1.61843 -3.04797 0
M  V30 8937 C 843.35 -2.8845 -3.2159 0
M  V30 8938 C 842.485 -2.81773 -4.50308 0
M  V30 8939 C 841.524 -4.03208 -4.60532 0
M  V30 8940 N 840.661 -3.94769 -5.80604 0
M  V30 8941 H 845.501 -2.54415 -1.55168 0
M  V30 8942 H 843.038 -1.26194 -0.755876 0
M  V30 8943 H 844.996 -1.60976 -3.84893 0
M  V30 8944 H 843.626 -0.707997 -3.1494 0
M  V30 8945 H 842.678 -2.99186 -2.34929 0
M  V30 8946 H 843.99 -3.78379 -3.25009 0
M  V30 8947 H 843.144 -2.79153 -5.38663 0
M  V30 8948 H 841.883 -1.89527 -4.49367 0
M  V30 8949 H 840.888 -4.06133 -3.70589 0
M  V30 8950 H 842.113 -4.9658 -4.63233 0
M  V30 8951 H 840.059 -3.05326 -5.80613 0
M  V30 8952 H 839.976 -4.78375 -5.854 0
M  V30 8953 H 841.244 -3.96165 -6.71322 0
M  V30 8954 N 845.473 0.80434 -1.35529 0
M  V30 8955 C 846.889 1.10023 -1.15616 0
M  V30 8956 C 847.089 2.01478 0.0298535 0
M  V30 8957 O 846.145 2.42609 0.699778 0
M  V30 8958 C 847.458 1.72905 -2.46017 0
M  V30 8959 C 849.006 1.85315 -2.52245 0
M  V30 8960 C 849.481 2.51612 -3.82695 0
M  V30 8961 N 850.972 2.59095 -3.83958 0
M  V30 8962 C 851.707 3.11167 -4.81625 0
M  V30 8963 N 851.203 3.63659 -5.89681 0
M  V30 8964 N 852.996 3.09741 -4.6906 0
M  V30 8965 H 845.147 0.196428 -2.1149 0
M  V30 8966 H 847.41 0.149735 -0.9361 0
M  V30 8967 H 847.116 1.13171 -3.32994 0
M  V30 8968 H 846.99 2.72579 -2.6073 0
M  V30 8969 H 849.377 2.44191 -1.65695 0
M  V30 8970 H 849.458 0.844886 -2.41444 0
M  V30 8971 H 849.102 1.93385 -4.69643 0
M  V30 8972 H 849.032 3.5298 -3.90785 0
M  V30 8973 H 851.523 2.21908 -3.05884 0
M  V30 8974 H 851.836 4.01699 -6.60195 0
M  V30 8975 H 850.181 3.61852 -5.9337 0
M  V30 8976 H 853.372 2.68011 -3.83781 0
M  V30 8977 H 853.545 3.50016 -5.45338 0
M  V30 8978 N 846.951 1.19563 1.02676 0
M  V30 8979 C 848.2 0.993864 1.75514 0
M  V30 8980 C 848.513 -0.475882 1.89723 0
M  V30 8981 O 849.719 -0.796525 2.59553 0
M  V30 8982 C 848.175 1.72937 3.15628 0
M  V30 8983 C 847.783 3.23937 3.09466 0
M  V30 8984 C 849.527 1.61092 3.92746 0
M  V30 8985 C 847.434 3.90067 4.44524 0
M  V30 8986 H 846.364 0.368244 0.657961 0
M  V30 8987 H 849.015 1.43081 1.14891 0
M  V30 8988 H 847.397 1.22025 3.76731 0
M  V30 8989 H 848.571 3.81983 2.57731 0
M  V30 8990 H 846.886 3.3608 2.45843 0
M  V30 8991 H 849.483 2.07848 4.92649 0
M  V30 8992 H 849.826 0.565415 4.12442 0
M  V30 8993 H 850.359 2.09361 3.3825 0
M  V30 8994 H 847.098 4.94725 4.30032 0
M  V30 8995 H 846.618 3.36809 4.96306 0
M  V30 8996 H 848.297 3.93736 5.13401 0
M  V30 8997 N 848.429 -1.21819 0.999893 0
M  V30 8998 C 849.339 -2.27691 0.565159 0
M  V30 8999 C 850.355 -1.69587 -0.389398 0
M  V30 9000 O 851.531 -1.99786 -0.254499 0
M  V30 9001 C 848.596 -3.46537 -0.106432 0
M  V30 9002 C 847.657 -4.19932 0.891964 0
M  V30 9003 C 846.89 -5.33103 0.252327 0
M  V30 9004 O 847.113 -5.62398 -0.952103 0
M  V30 9005 O 846.047 -5.94184 0.960698 0
M  V30 9006 H 849.873 -2.67059 1.44613 0
M  V30 9007 H 847.458 -1.28119 0.768499 0
M  V30 9008 H 849.34 -4.18631 -0.482301 0
M  V30 9009 H 848.015 -3.09079 -0.961865 0
M  V30 9010 H 846.922 -3.5008 1.3189 0
M  V30 9011 H 848.255 -4.61287 1.71682 0
M  V30 9012 N 849.908 -0.773975 -1.37286 0
M  V30 9013 C 850.838 -0.175782 -2.32837 0
M  V30 9014 C 851.819 0.680603 -1.5589 0
M  V30 9015 O 853.004 0.617607 -1.84117 0
M  V30 9016 C 850.134 0.702388 -3.40123 0
M  V30 9017 C 849.088 -0.0528687 -4.27967 0
M  V30 9018 C 848.414 0.944891 -5.26285 0
M  V30 9019 C 849.714 -1.23316 -5.07534 0
M  V30 9020 H 851.408 -0.974016 -2.83114 0
M  V30 9021 H 848.954 -0.469826 -1.3612 0
M  V30 9022 H 850.907 1.13069 -4.05947 0
M  V30 9023 H 849.631 1.53316 -2.88378 0
M  V30 9024 H 848.29 -0.461978 -3.63678 0
M  V30 9025 H 847.938 1.77028 -4.70819 0
M  V30 9026 H 847.638 0.444079 -5.8592 0
M  V30 9027 H 849.162 1.37209 -5.94984 0
M  V30 9028 H 850.576 -0.881395 -5.66484 0
M  V30 9029 H 848.973 -1.66621 -5.76504 0
M  V30 9030 H 850.043 -2.03617 -4.40077 0
M  V30 9031 N 851.386 1.48609 -0.524698 0
M  V30 9032 C 852.614 2.06899 0.00742946 0
M  V30 9033 C 853.029 1.38196 1.28637 0
M  V30 9034 O 852.386 0.467771 1.76403 0
M  V30 9035 C 852.437 3.60699 0.240548 0
M  V30 9036 O 852.158 4.26821 -0.987715 0
M  V30 9037 C 853.659 4.35769 0.813652 0
M  V30 9038 H 850.879 0.670278 -0.0311294 0
M  V30 9039 H 853.423 1.91071 -0.728832 0
M  V30 9040 H 851.578 3.76149 0.926845 0
M  V30 9041 H 851.992 5.18889 -0.765175 0
M  V30 9042 H 853.466 5.44174 0.926219 0
M  V30 9043 H 853.943 3.9984 1.81728 0
M  V30 9044 H 854.549 4.24983 0.164086 0
M  V30 9045 N 852.864 0.259585 1.55447 0
M  V30 9046 C 854.28 -0.094961 1.59317 0
M  V30 9047 C 854.48 -1.55884 1.2768 0
M  V30 9048 O 853.536 -2.30528 1.0302 0
M  V30 9049 C 854.849 0.265669 2.99524 0
M  V30 9050 C 856.397 0.211007 3.12288 0
M  V30 9051 C 856.872 0.545851 4.54736 0
M  V30 9052 N 858.363 0.496823 4.60528 0
M  V30 9053 C 859.098 0.728909 5.68748 0
M  V30 9054 N 858.594 1.02479 6.85179 0
M  V30 9055 N 860.387 0.658756 5.58226 0
M  V30 9056 H 852.538 1.2141 1.7428 0
M  V30 9057 H 854.801 0.489404 0.811904 0
M  V30 9058 H 854.507 1.28316 3.27457 0
M  V30 9059 H 854.381 -0.401089 3.75061 0
M  V30 9060 H 856.768 -0.797172 2.84129 0
M  V30 9061 H 856.849 0.911799 2.38998 0
M  V30 9062 H 856.493 1.55164 4.83618 0
M  V30 9063 H 856.423 -0.17656 5.26304 0
M  V30 9064 H 858.914 0.277376 3.76881 0
M  V30 9065 H 859.227 1.18897 7.63599 0
M  V30 9066 H 857.572 1.0624 6.86832 0
M  V30 9067 H 860.763 0.427553 4.66143 0
M  V30 9068 H 860.936 0.84302 6.42493 0
M  V30 9069 N 854.342 -1.57594 -0.0133615 0
M  V30 9070 C 855.289 -2.07574 -1.00905 0
M  V30 9071 C 856.259 -0.968231 -1.34961 0
M  V30 9072 O 857.444 -1.23981 -1.45028 0
M  V30 9073 C 854.584 -2.5728 -2.30002 0
M  V30 9074 C 853.697 -3.81881 -2.01967 0
M  V30 9075 C 852.832 -4.20139 -3.25049 0
M  V30 9076 C 851.871 -5.37614 -2.92639 0
M  V30 9077 N 851.008 -5.71229 -4.08218 0
M  V30 9078 H 855.848 -2.92382 -0.575899 0
M  V30 9079 H 853.385 -1.4455 -0.272722 0
M  V30 9080 H 855.343 -2.84171 -3.05454 0
M  V30 9081 H 853.973 -1.75365 -2.71011 0
M  V30 9082 H 853.025 -3.61979 -1.16942 0
M  V30 9083 H 854.337 -4.67441 -1.74069 0
M  V30 9084 H 853.491 -4.48242 -4.08857 0
M  V30 9085 H 852.23 -3.33262 -3.56073 0
M  V30 9086 H 851.235 -5.09248 -2.07235 0
M  V30 9087 H 852.46 -6.26157 -2.62876 0
M  V30 9088 H 850.406 -4.8731 -4.39164 0
M  V30 9089 H 850.323 -6.51333 -3.83799 0
M  V30 9090 H 851.591 -6.03917 -4.92854 0
M  V30 9091 N 855.82 0.285905 -1.54985 0
M  V30 9092 C 857.066 1.02071 -1.75241 0
M  V30 9093 C 857.399 1.864 -0.544842 0
M  V30 9094 O 856.674 1.89034 0.457844 0
M  V30 9095 C 856.957 1.91409 -3.05016 0
M  V30 9096 C 856.81 1.10158 -4.36102 0
M  V30 9097 C 858.129 2.90335 -3.30747 0
M  V30 9098 H 855.248 0.369663 -0.637588 0
M  V30 9099 H 857.89 0.294114 -1.8771 0
M  V30 9100 H 856.04 2.53362 -2.94517 0
M  V30 9101 H 857.712 0.503756 -4.58541 0
M  V30 9102 H 855.955 0.404675 -4.31908 0
M  V30 9103 H 856.626 1.75956 -5.23205 0
M  V30 9104 H 859.102 2.38514 -3.40955 0
M  V30 9105 H 857.978 3.49997 -4.2284 0
M  V30 9106 H 858.239 3.64787 -2.49765 0
M  V30 9107 N 857.298 1.47698 0.54982 0
M  V30 9108 C 858.228 1.63622 1.66583 0
M  V30 9109 C 859.209 0.485477 1.63025 0
M  V30 9110 O 860.394 0.715692 1.80531 0
M  V30 9111 C 857.524 1.65721 3.05211 0
M  V30 9112 C 856.478 2.80097 3.2362 0
M  V30 9113 C 855.804 2.67272 4.63109 0
M  V30 9114 C 857.104 4.21612 3.08286 0
M  V30 9115 H 858.798 2.57049 1.53512 0
M  V30 9116 H 856.344 1.23705 0.737099 0
M  V30 9117 H 858.297 1.75451 3.83138 0
M  V30 9118 H 857.021 0.688593 3.19258 0
M  V30 9119 H 855.68 2.69889 2.48104 0
M  V30 9120 H 855.328 1.68422 4.73965 0
M  V30 9121 H 855.028 3.44008 4.76374 0
M  V30 9122 H 856.552 2.78942 5.43161 0
M  V30 9123 H 857.966 4.32758 3.76024 0
M  V30 9124 H 856.363 4.99193 3.33057 0
M  V30 9125 H 857.433 4.39462 2.04942 0
M  V30 9126 N 858.776 -0.797141 1.35954 0
M  V30 9127 C 860.023 -1.55468 1.29754 0
M  V30 9128 C 860.351 -1.94095 -0.125391 0
M  V30 9129 O 859.606 -1.62341 -1.09288 0
M  V30 9130 C 859.905 -2.84847 2.15863 0
M  V30 9131 C 859.571 -2.65394 3.64523 0
M  V30 9132 C 858.233 -2.59796 4.05042 0
M  V30 9133 C 860.585 -2.4727 4.58811 0
M  V30 9134 C 857.913 -2.3403 5.38002 0
M  V30 9135 C 860.265 -2.23032 5.91979 0
M  V30 9136 C 858.929 -2.15862 6.31633 0
M  V30 9137 H 858.199 -0.568897 0.474803 0
M  V30 9138 H 860.846 -0.920299 1.67937 0
M  V30 9139 H 859.151 -3.52712 1.70591 0
M  V30 9140 H 860.848 -3.42597 2.08395 0
M  V30 9141 H 857.438 -2.70602 3.32374 0
M  V30 9142 H 861.622 -2.506 4.28384 0
M  V30 9143 H 856.878 -2.26956 5.67715 0
M  V30 9144 H 861.052 -2.08001 6.64612 0
M  V30 9145 H 858.679 -1.9566 7.34589 0
M  V30 9146 N 860.254 -1.20106 -1.0204 0
M  V30 9147 C 861.164 -0.962051 -2.13967 0
M  V30 9148 C 862.18 0.0808053 -1.73812 0
M  V30 9149 O 863.356 -0.105774 -2.01122 0
M  V30 9150 C 860.421 -0.513108 -3.42882 0
M  V30 9151 C 859.482 -1.62636 -3.97301 0
M  V30 9152 C 858.715 -1.19875 -5.20063 0
M  V30 9153 O 858.938 -0.0658423 -5.70362 0
M  V30 9154 O 857.872 -2.00467 -5.67536 0
M  V30 9155 H 861.698 -1.8991 -2.36998 0
M  V30 9156 H 859.283 -0.984608 -1.12365 0
M  V30 9157 H 861.165 -0.271797 -4.20523 0
M  V30 9158 H 859.84 0.395402 -3.21276 0
M  V30 9159 H 858.747 -1.92192 -3.20957 0
M  V30 9160 H 860.08 -2.51174 -4.23288 0
M  V30 9161 N 861.732 1.21287 -1.00634 0
M  V30 9162 C 862.662 2.25973 -0.588089 0
M  V30 9163 C 863.643 1.65527 0.391764 0
M  V30 9164 O 864.828 1.92179 0.279452 0
M  V30 9165 C 861.958 3.47197 0.0847336 0
M  V30 9166 C 860.912 4.20168 -0.815039 0
M  V30 9167 C 860.238 5.34699 -0.00855393 0
M  V30 9168 C 861.538 4.77416 -2.11828 0
M  V30 9169 H 863.232 2.61212 -1.46317 0
M  V30 9170 H 860.778 1.25563 -0.704985 0
M  V30 9171 H 862.731 4.19602 0.388821 0
M  V30 9172 H 861.455 3.11092 0.994456 0
M  V30 9173 H 860.114 3.49614 -1.10297 0
M  V30 9174 H 859.762 4.94837 0.902499 0
M  V30 9175 H 859.462 5.84449 -0.607664 0
M  V30 9176 H 860.986 6.09914 0.289317 0
M  V30 9177 H 862.4 5.41694 -1.87725 0
M  V30 9178 H 860.797 5.37561 -2.66736 0
M  V30 9179 H 861.867 3.96724 -2.78816 0
M  V30 9180 N 863.21 0.781244 1.36873 0
M  V30 9181 C 864.157 0.172146 2.30157 0
M  V30 9182 C 865.127 -0.679328 1.51573 0
M  V30 9183 O 866.312 -0.629713 1.80109 0
M  V30 9184 C 863.452 -0.693534 3.38059 0
M  V30 9185 C 862.565 0.175586 4.31643 0
M  V30 9186 C 861.7 -0.695695 5.26625 0
M  V30 9187 C 860.739 0.17538 6.11849 0
M  V30 9188 N 859.876 -0.654416 6.99043 0
M  V30 9189 H 864.716 0.973133 2.81663 0
M  V30 9190 H 862.253 0.491469 1.38647 0
M  V30 9191 H 864.211 -1.21035 3.99257 0
M  V30 9192 H 862.841 -1.46003 2.87894 0
M  V30 9193 H 861.893 0.810295 3.7167 0
M  V30 9194 H 863.205 0.847107 4.91554 0
M  V30 9195 H 862.359 -1.27863 5.93073 0
M  V30 9196 H 861.098 -1.40087 4.67148 0
M  V30 9197 H 860.103 0.77078 5.4437 0
M  V30 9198 H 861.328 0.87803 6.734 0
M  V30 9199 H 859.274 -1.34403 6.42084 0
M  V30 9200 H 859.191 -0.0403998 7.55989 0
M  V30 9201 H 860.459 -1.22144 7.69871 0
M  V30 9202 N 864.689 -1.48329 0.532571 0
M  V30 9203 C 865.639 -2.2664 -0.24868 0
M  V30 9204 C 866.623 -1.32861 -0.907563 0
M  V30 9205 O 867.815 -1.57382 -0.809942 0
M  V30 9206 C 864.944 -3.18004 -1.29339 0
M  V30 9207 C 864.03 -4.19256 -0.639166 0
M  V30 9208 N 864.421 -5.05043 0.276597 0
M  V30 9209 C 862.719 -4.36906 -0.896062 0
M  V30 9210 C 863.42 -5.78009 0.654261 0
M  V30 9211 N 862.396 -5.43598 0.0147447 0
M  V30 9212 H 866.198 -2.90344 0.455792 0
M  V30 9213 H 863.712 -1.58566 0.350778 0
M  V30 9214 H 865.709 -3.72767 -1.86682 0
M  V30 9215 H 864.369 -2.55855 -1.99921 0
M  V30 9216 H 865.38 -5.13813 0.649351 0
M  V30 9217 H 862.057 -3.85945 -1.59226 0
M  V30 9218 H 863.447 -6.57039 1.40532 0
M  V30 9219 N 866.167 -0.267825 -1.55308 0
M  V30 9220 C 867.1 0.663973 -2.18327 0
M  V30 9221 C 868.078 1.15759 -1.14187 0
M  V30 9222 O 869.262 1.23189 -1.42677 0
M  V30 9223 C 866.389 1.9047 -2.8007 0
M  V30 9224 C 865.435 1.54718 -3.97447 0
M  V30 9225 S 866.268 0.631654 -5.31762 0
M  V30 9226 C 867.424 1.88092 -5.96969 0
M  V30 9227 H 867.657 0.128486 -2.97022 0
M  V30 9228 H 865.19 -0.052129 -1.54312 0
M  V30 9229 H 867.148 2.61688 -3.16275 0
M  V30 9230 H 865.809 2.41132 -2.01281 0
M  V30 9231 H 865.002 2.47022 -4.39313 0
M  V30 9232 H 864.604 0.915254 -3.62628 0
M  V30 9233 H 866.896 2.82572 -6.15759 0
M  V30 9234 H 867.839 1.50539 -6.91913 0
M  V30 9235 H 868.247 2.04254 -5.26252 0
M  V30 9236 N 867.645 1.57599 0.00500368 0
M  V30 9237 C 869.061 1.55463 0.361015 0
M  V30 9238 C 869.261 0.997051 1.75103 0
M  V30 9239 O 868.317 0.628661 2.44549 0
M  V30 9240 C 869.63 2.99734 0.240828 0
M  V30 9241 C 871.178 3.11399 0.316138 0
M  V30 9242 C 871.653 4.57446 0.22513 0
M  V30 9243 N 873.144 4.62334 0.283186 0
M  V30 9244 C 873.879 5.72914 0.23603 0
M  V30 9245 N 873.375 6.92659 0.139762 0
M  V30 9246 N 875.168 5.61364 0.287529 0
M  V30 9247 H 867.319 1.92185 -0.904359 0
M  V30 9248 H 869.582 0.882529 -0.34619 0
M  V30 9249 H 869.288 3.44348 -0.715343 0
M  V30 9250 H 869.162 3.63009 1.02491 0
M  V30 9251 H 871.549 2.66718 1.26275 0
M  V30 9252 H 871.63 2.50911 -0.497725 0
M  V30 9253 H 871.274 5.02801 -0.717917 0
M  V30 9254 H 871.204 5.15874 1.05742 0
M  V30 9255 H 873.695 3.7619 0.359123 0
M  V30 9256 H 874.008 7.72722 0.10954 0
M  V30 9257 H 872.353 6.9492 0.105462 0
M  V30 9258 H 875.544 4.66707 0.360897 0
M  V30 9259 H 875.717 6.47528 0.247313 0
M  V30 9260 N 869.123 -0.277682 1.55134 0
M  V30 9261 C 870.4 -1.0309 1.66228 0
M  V30 9262 C 870.78 -2.0445 0.525701 0
M  V30 9263 O 870.128 -2.23512 -0.474816 0
M  V30 9264 C 870.338 -1.6919 3.05247 0
M  V30 9265 C 871.686 -2.20526 3.62841 0
M  V30 9266 O 872.71 -1.79185 3.07849 0
M  V30 9267 O 871.569 -2.96342 4.59177 0
M  V30 9268 H 868.663 -0.4779 0.674937 0
M  V30 9269 H 871.209 -0.273912 1.67475 0
M  V30 9270 H 869.981 -0.957163 3.79413 0
M  V30 9271 H 869.604 -2.51587 3.07879 0
M  V30 9272 N 870.601 -1.47988 -0.541979 0
M  V30 9273 C 871.847 -1.55623 -1.30036 0
M  V30 9274 C 872.18 -0.224254 -1.92901 0
M  V30 9275 O 871.455 0.768629 -1.78668 0
M  V30 9276 C 871.738 -2.68562 -2.39888 0
M  V30 9277 C 871.591 -4.11426 -1.81792 0
M  V30 9278 C 872.91 -2.77325 -3.41729 0
M  V30 9279 H 870.029 -0.566498 -0.471433 0
M  V30 9280 H 872.671 -1.8011 -0.604998 0
M  V30 9281 H 870.821 -2.47814 -2.992 0
M  V30 9282 H 872.493 -4.43581 -1.26624 0
M  V30 9283 H 870.736 -4.18989 -1.12386 0
M  V30 9284 H 871.407 -4.8625 -2.61276 0
M  V30 9285 H 873.883 -2.96085 -2.92357 0
M  V30 9286 H 872.759 -3.58097 -4.16002 0
M  V30 9287 H 873.02 -1.84995 -4.01534 0
M  V30 9288 N 872.079 0.78992 -1.36375 0
M  V30 9289 C 873.011 1.91113 -1.26524 0
M  V30 9290 C 874.024 1.61747 -0.184851 0
M  V30 9291 O 875.213 1.73004 -0.439524 0
M  V30 9292 C 872.313 3.25908 -0.92937 0
M  V30 9293 C 871.486 3.83057 -2.11154 0
M  V30 9294 C 870.545 4.96289 -1.74881 0
M  V30 9295 O 869.571 5.12834 -2.46962 0
M  V30 9296 N 870.773 5.76478 -0.682193 0
M  V30 9297 H 873.538 2.00085 -2.23128 0
M  V30 9298 H 871.099 0.968165 -1.29762 0
M  V30 9299 H 873.091 3.99151 -0.667884 0
M  V30 9300 H 871.661 3.12556 -0.0524843 0
M  V30 9301 H 870.881 3.01808 -2.53586 0
M  V30 9302 H 872.169 4.1797 -2.90135 0
M  V30 9303 H 871.567 5.65638 -0.0836661 0
M  V30 9304 H 870.124 6.50026 -0.480529 0
M  V30 9305 N 873.557 1.20646 1.01402 0
M  V30 9306 C 874.505 0.954493 2.12114 0
M  V30 9307 C 875.499 -0.0950737 1.69133 0
M  V30 9308 O 876.705 0.0555153 1.79914 0
M  V30 9309 H 873.08 0.29135 0.693267 0
M  V30 9310 H 875.051 1.89447 2.30548 0
M  V30 9311 C 873.8 0.525944 3.43699 0
M  V30 9312 H 873.123 1.32516 3.772 0
M  V30 9313 H 874.563 0.388883 4.22213 0
M  V30 9314 C 873.022 -0.761997 3.28169 0
M  V30 9315 O 873.552 -1.81979 3.58115 0
M  V30 9316 N 871.758 -0.725017 2.8141 0
M  V30 9317 H 871.305 0.13607 2.5724 0
M  V30 9318 H 871.263 -1.5871 2.71401 0
M  V30 9319 N 875.035 -1.20752 1.01276 0
M  V30 9320 C 875.945 -2.27079 0.589277 0
M  V30 9321 C 876.961 -1.6999 -0.371389 0
M  V30 9322 O 878.137 -2.00044 -0.233294 0
M  V30 9323 C 875.202 -3.4663 -0.0696715 0
M  V30 9324 C 874.263 -4.18962 0.936454 0
M  V30 9325 C 873.496 -5.32806 0.308856 0
M  V30 9326 O 873.719 -5.63376 -0.8924 0
M  V30 9327 O 872.653 -5.93131 1.02367 0
M  V30 9328 H 876.479 -2.6551 1.47438 0
M  V30 9329 H 874.064 -1.27297 0.782045 0
M  V30 9330 H 875.946 -4.19119 -0.437873 0
M  V30 9331 H 874.621 -3.10082 -0.929029 0
M  V30 9332 H 873.528 -3.48661 1.35595 0
M  V30 9333 H 874.861 -4.59441 1.76565 0
M  V30 9334 N 876.513 -0.788492 -1.36457 0
M  V30 9335 C 877.463 -0.159377 -2.27442 0
M  V30 9336 C 878.447 0.656146 -1.46913 0
M  V30 9337 O 879.639 0.516372 -1.693 0
M  V30 9338 C 876.768 0.705703 -3.35968 0
M  V30 9339 C 875.854 -0.11856 -4.23934 0
M  V30 9340 N 876.245 -1.1726 -4.9202 0
M  V30 9341 C 874.543 0.102752 -4.45882 0
M  V30 9342 C 875.244 -1.6743 -5.57083 0
M  V30 9343 N 874.22 -0.983682 -5.34626 0
M  V30 9344 H 878.022 -0.96614 -2.77566 0
M  V30 9345 H 875.536 -0.627864 -1.49772 0
M  V30 9346 H 877.533 1.17231 -4.00078 0
M  V30 9347 H 876.193 1.51102 -2.87399 0
M  V30 9348 H 877.204 -1.55502 -4.94004 0
M  V30 9349 H 873.881 0.878651 -4.08149 0
M  V30 9350 H 875.271 -2.55423 -6.21457 0
M  V30 9351 N 877.991 1.48044 -0.54043 0
M  V30 9352 C 878.921 2.32597 0.205178 0
M  V30 9353 C 879.902 1.42748 0.925041 0
M  V30 9354 O 881.087 1.71624 0.908784 0
M  V30 9355 C 878.217 3.24175 1.24612 0
M  V30 9356 C 877.171 4.23131 0.64376 0
M  V30 9357 C 876.497 5.03915 1.78812 0
M  V30 9358 C 877.797 5.20831 -0.39144 0
M  V30 9359 H 879.491 2.95184 -0.500676 0
M  V30 9360 H 877.037 1.41948 -0.242225 0
M  V30 9361 H 878.99 3.82158 1.77576 0
M  V30 9362 H 877.714 2.59608 1.98169 0
M  V30 9363 H 876.373 3.66349 0.135554 0
M  V30 9364 H 876.021 4.35765 2.51232 0
M  V30 9365 H 875.721 5.709 1.39094 0
M  V30 9366 H 877.245 5.64753 2.32134 0
M  V30 9367 H 878.659 5.73277 0.0515064 0
M  V30 9368 H 877.056 5.95926 -0.706569 0
M  V30 9369 H 878.126 4.6733 -1.29345 0
M  V30 9370 N 879.47 0.276058 1.55163 0
M  V30 9371 C 880.698 -0.343772 2.04024 0
M  V30 9372 C 881.113 -1.49397 1.15438 0
M  V30 9373 O 880.47 -1.81662 0.174692 0
M  V30 9374 C 880.521 -0.823885 3.51986 0
M  V30 9375 O 880.242 0.280507 4.37201 0
M  V30 9376 C 881.743 -1.51143 4.16738 0
M  V30 9377 H 878.963 -0.07828 0.666418 0
M  V30 9378 H 881.507 0.408427 2.0038 0
M  V30 9379 H 879.662 -1.52617 3.56071 0
M  V30 9380 H 880.076 -0.0887831 5.24425 0
M  V30 9381 H 881.55 -1.79878 5.2187 0
M  V30 9382 H 882.027 -2.44327 3.64967 0
M  V30 9383 H 882.633 -0.852975 4.16659 0
M  V30 9384 N 880.948 -1.576 0.00335426 0
M  V30 9385 C 882.364 -1.55653 -0.352766 0
M  V30 9386 C 882.564 -1.00632 -1.74572 0
M  V30 9387 O 881.62 -0.641621 -2.44212 0
M  V30 9388 C 882.933 -2.99858 -0.224929 0
M  V30 9389 C 884.481 -3.11563 -0.299619 0
M  V30 9390 C 884.956 -4.57559 -0.200868 0
M  V30 9391 N 886.447 -4.62477 -0.258663 0
M  V30 9392 C 887.182 -5.73031 -0.205644 0
M  V30 9393 N 886.678 -6.92723 -0.103027 0
M  V30 9394 N 888.471 -5.61509 -0.257754 0
M  V30 9395 H 880.622 -1.91703 0.914539 0
M  V30 9396 H 882.885 -0.88068 0.350865 0
M  V30 9397 H 882.591 -3.43964 0.733595 0
M  V30 9398 H 882.465 -3.63547 -1.00564 0
M  V30 9399 H 884.852 -2.67384 -1.24859 0
M  V30 9400 H 884.933 -2.50644 0.511025 0
M  V30 9401 H 884.577 -5.02413 0.744572 0
M  V30 9402 H 884.507 -5.16428 -1.03004 0
M  V30 9403 H 886.998 -3.76375 -0.339168 0
M  V30 9404 H 887.311 -7.7277 -0.0685593 0
M  V30 9405 H 885.656 -6.94966 -0.0686069 0
M  V30 9406 H 888.847 -4.66892 -0.336142 0
M  V30 9407 H 889.02 -6.4765 -0.21297 0
M  V30 9408 N 882.426 0.269451 -1.5528 0
M  V30 9409 C 883.673 1.00058 -1.76053 0
M  V30 9410 C 884.001 1.86156 -0.563592 0
M  V30 9411 O 883.256 1.90366 0.453806 0
M  V30 9412 C 883.555 1.91 -3.02082 0
M  V30 9413 C 883.221 1.20623 -4.34466 0
M  V30 9414 C 881.883 1.01165 -4.70446 0
M  V30 9415 C 884.235 0.705695 -5.164 0
M  V30 9416 C 881.563 0.303865 -5.85913 0
M  V30 9417 C 883.915 0.0114838 -6.32599 0
M  V30 9418 C 882.579 -0.19478 -6.67216 0
M  V30 9419 H 881.849 0.366138 -0.644223 0
M  V30 9420 H 884.496 0.272563 -1.8955 0
M  V30 9421 H 882.801 2.70435 -2.835 0
M  V30 9422 H 884.498 2.47698 -3.15352 0
M  V30 9423 H 881.088 1.36781 -4.06188 0
M  V30 9424 H 885.272 0.84364 -4.89077 0
M  V30 9425 H 880.528 0.133368 -6.11255 0
M  V30 9426 H 884.702 -0.384111 -6.9534 0
M  V30 9427 H 882.329 -0.745201 -7.56539 0
M  V30 9428 N 883.904 1.48273 0.534124 0
M  V30 9429 C 885.15 1.56311 1.29208 0
M  V30 9430 C 885.483 0.234481 1.92779 0
M  V30 9431 O 884.758 -0.759143 1.79073 0
M  V30 9432 C 885.041 2.69831 2.3846 0
M  V30 9433 C 884.894 4.12385 1.79608 0
M  V30 9434 C 886.213 2.79133 3.40254 0
M  V30 9435 H 883.332 0.56899 0.468422 0
M  V30 9436 H 885.974 1.80429 0.595438 0
M  V30 9437 H 884.124 2.49397 2.97881 0
M  V30 9438 H 885.796 4.44246 1.24269 0
M  V30 9439 H 884.039 4.19579 1.10162 0
M  V30 9440 H 884.71 4.87629 2.58693 0
M  V30 9441 H 887.186 2.97632 2.90783 0
M  V30 9442 H 886.062 3.60298 4.14097 0
M  V30 9443 H 886.323 1.87122 4.00547 0
M  V30 9444 N 885.382 -0.782676 1.36792 0
M  V30 9445 C 886.63 -1.53778 1.31136 0
M  V30 9446 C 886.951 -1.94706 -0.107014 0
M  V30 9447 O 886.221 -1.65465 -1.04872 0
M  V30 9448 H 884.801 -0.570328 0.482426 0
M  V30 9449 H 887.463 -0.932181 1.71162 0
M  V30 9450 H 886.559 -2.44224 1.94321 0
M  V30 9451 N 886.86 -1.21182 -1.00761 0
M  V30 9452 C 887.823 -0.970339 -2.07646 0
M  V30 9453 C 888.823 0.0576345 -1.60697 0
M  V30 9454 O 890.013 -0.179369 -1.73274 0
M  V30 9455 C 887.145 -0.462703 -3.37745 0
M  V30 9456 H 888.338 -1.91856 -2.30502 0
M  V30 9457 H 885.891 -1.02844 -1.17698 0
M  V30 9458 H 886.626 0.490559 -3.20568 0
M  V30 9459 H 886.411 -1.20416 -3.73152 0
M  V30 9460 H 887.901 -0.313531 -4.16421 0
M  V30 9461 N 888.338 1.20213 -1.01915 0
M  V30 9462 C 889.578 1.91354 -0.71853 0
M  V30 9463 C 889.942 1.77231 0.738466 0
M  V30 9464 O 891.143 2.42876 1.15172 0
M  V30 9465 C 889.414 3.38552 -1.14529 0
M  V30 9466 S 890.973 4.28011 -0.967037 0
M  V30 9467 H 887.791 0.661015 -0.261879 0
M  V30 9468 H 890.393 1.45394 -1.30694 0
M  V30 9469 H 889.097 3.46354 -2.20153 0
M  V30 9470 H 888.628 3.8954 -0.549766 0
M  V30 9471 H 890.643 4.96035 0.127974 0
M  V30 9472 N 889.816 0.795718 1.36037 0
M  V30 9473 C 891.044 0.383153 2.03321 0
M  V30 9474 C 891.459 -1.00246 1.59988 0
M  V30 9475 O 890.816 -1.64406 0.792265 0
M  V30 9476 C 890.867 0.444467 3.58757 0
M  V30 9477 O 890.588 1.77544 4.00512 0
M  V30 9478 C 892.089 0.0233291 4.43294 0
M  V30 9479 H 889.309 0.157061 0.652359 0
M  V30 9480 H 891.853 1.07632 1.73884 0
M  V30 9481 H 890.008 -0.200341 3.86882 0
M  V30 9482 H 890.422 1.73065 4.95125 0
M  V30 9483 H 891.896 0.117361 5.51875 0
M  V30 9484 H 892.373 -1.03007 4.2695 0
M  V30 9485 H 892.979 0.64087 4.20444 0
M  V30 9486 N 891.294 -1.47756 0.548274 0
M  V30 9487 C 892.571 -1.9555 -0.0443603 0
M  V30 9488 C 892.951 -1.49079 -1.49462 0
M  V30 9489 O 892.299 -0.725538 -2.16675 0
M  V30 9490 C 892.509 -3.48879 0.0918425 0
M  V30 9491 C 893.857 -4.2456 -0.0580879 0
M  V30 9492 O 894.881 -3.56195 0.018946 0
M  V30 9493 O 893.74 -5.46048 -0.222261 0
M  V30 9494 H 890.834 -0.824106 -0.0691235 0
M  V30 9495 H 893.38 -1.58196 0.614166 0
M  V30 9496 H 892.152 -3.7548 1.10137 0
M  V30 9497 H 891.775 -3.92975 -0.604704 0
M  V30 9498 N 892.772 -0.284283 -1.55015 0
M  V30 9499 C 894.183 0.211681 -1.85496 0
M  V30 9500 C 894.534 1.54735 -1.2063 0
M  V30 9501 O 893.659 2.10594 -0.497918 0
M  V30 9502 C 894.254 0.390864 -3.36538 0
M  V30 9503 C 892.813 0.831055 -3.67111 0
M  V30 9504 C 891.96 -0.0703581 -2.77211 0
M  V30 9505 H 894.911 -0.505803 -1.50424 0
M  V30 9506 H 894.932 1.22803 -3.60138 0
M  V30 9507 H 894.444 -0.581409 -3.8372 0
M  V30 9508 H 892.545 1.81447 -3.25434 0
M  V30 9509 H 892.658 0.662026 -4.74504 0
M  V30 9510 H 891.022 0.447528 -2.50737 0
M  V30 9511 H 891.805 -1.03868 -3.2721 0
M  V30 9512 N 894.251 1.57596 -0.0117121 0
M  V30 9513 C 895.662 1.79033 0.529521 0
M  V30 9514 C 896.013 0.920299 1.73277 0
M  V30 9515 O 895.138 0.125934 2.16033 0
M  V30 9516 C 895.733 3.24695 0.967405 0
M  V30 9517 C 894.292 3.47188 1.45387 0
M  V30 9518 C 893.439 2.74245 0.410466 0
M  V30 9519 H 896.39 1.56908 -0.237836 0
M  V30 9520 H 896.411 3.33451 1.83278 0
M  V30 9521 H 895.923 3.87992 0.0914605 0
M  V30 9522 H 894.024 2.89121 2.35032 0
M  V30 9523 H 894.137 4.55886 1.47325 0
M  V30 9524 H 892.501 2.39209 0.874721 0
M  V30 9525 H 893.284 3.40248 -0.456713 0
M  V30 9526 N 895.729 -0.261212 1.5542 0
M  V30 9527 C 896.677 -1.34298 1.89913 0
M  V30 9528 C 897.671 -1.50547 0.776665 0
M  V30 9529 O 898.877 -1.52191 0.961139 0
M  V30 9530 H 895.252 -0.4494 0.602946 0
M  V30 9531 H 897.223 -1.02464 2.80256 0
M  V30 9532 C 895.972 -2.69423 2.19788 0
M  V30 9533 H 895.295 -2.57715 3.05652 0
M  V30 9534 H 896.735 -3.44026 2.47835 0
M  V30 9535 C 895.194 -3.21423 1.00939 0
M  V30 9536 O 895.724 -4.00921 0.250034 0
M  V30 9537 N 893.93 -2.7926 0.803883 0
M  V30 9538 H 893.477 -2.14724 1.42308 0
M  V30 9539 H 893.435 -3.14398 0.0103257 0
M  V30 9540 N 897.207 -1.48554 -0.526253 0
M  V30 9541 C 898.456 -1.56014 -1.27837 0
M  V30 9542 C 898.769 -0.240643 -1.94114 0
M  V30 9543 O 899.975 -0.193525 -2.70809 0
M  V30 9544 C 898.431 -2.75161 -2.31979 0
M  V30 9545 C 898.039 -4.13768 -1.71755 0
M  V30 9546 C 899.783 -2.91936 -3.08178 0
M  V30 9547 C 897.69 -5.24171 -2.7386 0
M  V30 9548 H 896.62 -0.58082 -0.480795 0
M  V30 9549 H 899.271 -1.74895 -0.555335 0
M  V30 9550 H 897.653 -2.49722 -3.07335 0
M  V30 9551 H 898.827 -4.49241 -1.02563 0
M  V30 9552 H 897.142 -4.02141 -1.08036 0
M  V30 9553 H 899.739 -3.71586 -3.84484 0
M  V30 9554 H 900.082 -2.01533 -3.64267 0
M  V30 9555 H 900.615 -3.17294 -2.39937 0
M  V30 9556 H 897.354 -6.16552 -2.22586 0
M  V30 9557 H 896.874 -4.93181 -3.41368 0
M  V30 9558 H 898.553 -5.52442 -3.36774 0
M  V30 9559 N 898.685 0.775411 -1.37205 0
M  V30 9560 C 899.925 1.54689 -1.33606 0
M  V30 9561 C 900.289 1.91834 0.0798549 0
M  V30 9562 O 901.49 2.67722 0.240531 0
M  V30 9563 C 899.761 2.7804 -2.24563 0
M  V30 9564 S 901.32 3.68143 -2.38781 0
M  V30 9565 H 898.138 0.529631 -0.474355 0
M  V30 9566 H 900.74 0.912128 -1.72918 0
M  V30 9567 H 899.444 2.48825 -3.26365 0
M  V30 9568 H 898.975 3.46479 -1.86322 0
M  V30 9569 H 900.99 4.69843 -1.59568 0
M  V30 9570 N 900.163 1.21714 1.00117 0
M  V30 9571 C 901.412 1.03087 1.73367 0
M  V30 9572 C 901.725 -0.435532 1.90689 0
M  V30 9573 O 902.931 -0.741291 2.61184 0
M  V30 9574 C 901.387 1.79593 3.11888 0
M  V30 9575 C 900.995 3.30428 3.02525 0
M  V30 9576 C 902.739 1.69386 3.89241 0
M  V30 9577 C 900.646 3.99408 4.3615 0
M  V30 9578 H 899.576 0.382117 0.650002 0
M  V30 9579 H 902.227 1.45486 1.11831 0
M  V30 9580 H 900.609 1.29988 3.74058 0
M  V30 9581 H 901.783 3.87364 2.49571 0
M  V30 9582 H 900.098 3.4122 2.38659 0
M  V30 9583 H 902.695 2.18251 4.8813 0
M  V30 9584 H 903.038 0.652773 4.1115 0
M  V30 9585 H 903.571 2.16489 3.33733 0
M  V30 9586 H 900.31 5.03735 4.19442 0
M  V30 9587 H 899.83 3.47261 4.8905 0
M  V30 9588 H 901.509 4.04537 5.04934 0
M  V30 9589 N 901.641 -1.19671 1.02551 0
M  V30 9590 C 902.571 -2.25009 0.623965 0
M  V30 9591 C 903.552 -1.66129 -0.36538 0
M  V30 9592 O 904.737 -1.92599 -0.248842 0
M  V30 9593 C 901.867 -3.47287 -0.0294869 0
M  V30 9594 C 900.821 -4.18818 0.881781 0
M  V30 9595 C 900.147 -5.34618 0.0936189 0
M  V30 9596 C 901.447 -4.73986 2.19396 0
M  V30 9597 H 903.141 -2.58851 1.50454 0
M  V30 9598 H 900.687 -1.24425 0.724872 0
M  V30 9599 H 902.64 -4.20168 -0.322016 0
M  V30 9600 H 901.364 -3.12635 -0.944838 0
M  V30 9601 H 900.023 -3.47815 1.15845 0
M  V30 9602 H 899.671 -4.9621 -0.823661 0
M  V30 9603 H 899.371 -5.83409 0.700568 0
M  V30 9604 H 900.895 -6.10297 -0.192249 0
M  V30 9605 H 902.309 -5.38639 1.96319 0
M  V30 9606 H 900.706 -5.3325 2.75254 0
M  V30 9607 H 901.776 -3.92238 2.85092 0
M  V30 9608 N 903.119 -0.802921 -1.35613 0
M  V30 9609 C 904.347 -0.39393 -2.03115 0
M  V30 9610 C 904.762 0.993961 -1.60517 0
M  V30 9611 O 904.119 1.63984 -0.800973 0
M  V30 9612 C 904.17 -0.463486 -3.58516 0
M  V30 9613 O 903.891 -1.79666 -3.99565 0
M  V30 9614 C 905.392 -0.0468377 -4.43275 0
M  V30 9615 H 902.612 -0.160519 -0.651517 0
M  V30 9616 H 905.156 -1.08552 -1.73311 0
M  V30 9617 H 903.311 0.179821 -3.86982 0
M  V30 9618 H 903.725 -1.75688 -4.942 0
M  V30 9619 H 905.199 -0.146626 -5.51805 0
M  V30 9620 H 905.676 1.00741 -4.2749 0
M  V30 9621 H 906.282 -0.663158 -4.20098 0
M  V30 9622 N 904.597 1.47463 -0.556102 0
M  V30 9623 C 905.507 2.33785 0.195378 0
M  V30 9624 C 906.523 1.48123 0.913 0
M  V30 9625 O 907.699 1.81053 0.882141 0
M  V30 9626 C 904.764 3.24795 1.21282 0
M  V30 9627 C 903.825 4.26346 0.502747 0
M  V30 9628 C 903.058 5.13007 1.47172 0
M  V30 9629 O 903.281 5.02103 2.70646 0
M  V30 9630 O 902.215 5.93588 0.996814 0
M  V30 9631 H 906.041 2.99341 -0.512676 0
M  V30 9632 H 903.626 1.46004 -0.31673 0
M  V30 9633 H 905.508 3.81015 1.80016 0
M  V30 9634 H 904.183 2.61868 1.90282 0
M  V30 9635 H 903.09 3.73889 -0.125757 0
M  V30 9636 H 904.423 4.91984 -0.145779 0
M  V30 9637 N 906.075 0.2925 1.54862 0
M  V30 9638 C 907.305 -0.321646 2.04081 0
M  V30 9639 C 907.713 -1.48712 1.16967 0
M  V30 9640 O 907.056 -1.82755 0.18609 0
M  V30 9641 C 907.118 -0.848678 3.49339 0
M  V30 9642 C 906.782 0.190416 4.56603 0
M  V30 9643 C 907.779 1.01595 5.09877 0
M  V30 9644 C 905.464 0.329666 5.01217 0
M  V30 9645 C 907.458 1.96676 6.06298 0
M  V30 9646 C 905.145 1.28393 5.9746 0
M  V30 9647 C 906.143 2.10097 6.49883 0
M  V30 9648 O 905.831 3.03907 7.44242 0
M  V30 9649 H 905.563 -0.075098 0.671816 0
M  V30 9650 H 908.117 0.427531 2.00901 0
M  V30 9651 H 906.347 -1.64823 3.49815 0
M  V30 9652 H 908.036 -1.37779 3.81801 0
M  V30 9653 H 908.802 0.919197 4.7621 0
M  V30 9654 H 904.681 -0.296317 4.60047 0
M  V30 9655 H 908.225 2.60488 6.47141 0
M  V30 9656 H 904.122 1.38144 6.30545 0
M  V30 9657 H 904.89 2.98787 7.62016 0
M  V30 9658 N 907.553 -1.57587 0.0200696 0
M  V30 9659 C 908.793 -1.93287 -0.66479 0
M  V30 9660 C 909.157 -0.896022 -1.6981 0
M  V30 9661 O 910.358 -1.13892 -2.43479 0
M  V30 9662 C 908.629 -3.33949 -1.27328 0
M  V30 9663 S 910.188 -3.91564 -1.98047 0
M  V30 9664 H 907.006 -0.676397 -0.219106 0
M  V30 9665 H 909.608 -1.9533 0.081568 0
M  V30 9666 H 908.312 -4.07235 -0.508673 0
M  V30 9667 H 907.843 -3.35329 -2.05714 0
M  V30 9668 H 909.858 -3.74265 -3.25791 0
M  V30 9669 N 909.032 0.252966 -1.55557 0
M  V30 9670 C 910.443 0.822503 -1.67606 0
M  V30 9671 C 910.794 1.86265 -0.616411 0
M  V30 9672 O 909.919 2.15082 0.238447 0
M  V30 9673 C 910.514 1.49866 -3.03852 0
M  V30 9674 C 909.073 2.01597 -3.17861 0
M  V30 9675 C 908.22 0.864943 -2.63465 0
M  V30 9676 H 911.171 0.0288958 -1.58674 0
M  V30 9677 H 911.192 2.36646 -2.97958 0
M  V30 9678 H 910.704 0.741378 -3.80953 0
M  V30 9679 H 908.805 2.80224 -2.45571 0
M  V30 9680 H 908.918 2.21752 -4.24692 0
M  V30 9681 H 907.282 1.2638 -2.21134 0
M  V30 9682 H 908.065 0.120847 -3.43087 0
M  V30 9683 N 910.51 1.48831 0.518367 0
M  V30 9684 C 911.926 1.35209 0.847979 0
M  V30 9685 C 912.126 0.371927 1.98038 0
M  V30 9686 O 911.182 -0.202681 2.51685 0
M  V30 9687 C 912.495 2.7552 1.20455 0
M  V30 9688 C 914.043 2.84094 1.31377 0
M  V30 9689 C 914.518 4.25132 1.70372 0
M  V30 9690 N 916.009 4.27861 1.77453 0
M  V30 9691 C 916.744 5.3394 2.09035 0
M  V30 9692 N 916.24 6.50285 2.3896 0
M  V30 9693 N 918.033 5.21343 2.10139 0
M  V30 9694 H 910.184 2.11166 -0.228624 0
M  V30 9695 H 912.447 0.94717 -0.0396599 0
M  V30 9696 H 912.153 3.48861 0.445991 0
M  V30 9697 H 912.027 3.09785 2.15204 0
M  V30 9698 H 914.414 2.11001 2.06307 0
M  V30 9699 H 914.495 2.53433 0.347203 0
M  V30 9700 H 914.139 4.98745 0.959975 0
M  V30 9701 H 914.069 4.53245 2.68098 0
M  V30 9702 H 916.56 3.43945 1.56557 0
M  V30 9703 H 916.873 7.26961 2.62196 0
M  V30 9704 H 915.218 6.5354 2.36454 0
M  V30 9705 H 918.409 4.29462 1.86225 0
M  V30 9706 H 918.582 6.04112 2.34419 0
M  V30 9707 N 911.988 -0.768124 1.37614 0
M  V30 9708 C 913.236 -1.52379 1.3276 0
M  V30 9709 C 913.557 -1.94809 -0.0863564 0
M  V30 9710 O 912.827 -1.66568 -1.03112 0
M  V30 9711 H 911.407 -0.565179 0.488448 0
M  V30 9712 H 914.069 -0.913974 1.72141 0
M  V30 9713 H 913.165 -2.4215 1.96901 0
M  V30 9714 N 913.466 -1.22244 -0.994698 0
M  V30 9715 C 914.691 -1.07299 -1.77487 0
M  V30 9716 C 915.116 0.372302 -1.84379 0
M  V30 9717 O 914.474 1.2689 -1.29494 0
M  V30 9718 C 914.522 -1.68675 -3.18718 0
M  V30 9719 O 913.626 -0.939202 -4.01563 0
M  V30 9720 H 912.967 -0.376979 -0.546611 0
M  V30 9721 H 915.497 -1.62003 -1.24965 0
M  V30 9722 H 915.507 -1.73324 -3.69354 0
M  V30 9723 H 914.182 -2.73849 -3.13017 0
M  V30 9724 H 912.759 -0.968583 -3.60101 0
M  V30 9725 N 914.944 1.19125 -1.03184 0
M  V30 9726 C 915.874 2.24675 -0.635889 0
M  V30 9727 C 916.855 1.66321 0.356565 0
M  V30 9728 O 918.04 1.92728 0.238625 0
M  V30 9729 C 915.17 3.47298 0.011069 0
M  V30 9730 C 914.124 4.18345 -0.903979 0
M  V30 9731 C 913.45 5.34561 -0.12197 0
M  V30 9732 C 914.75 4.72816 -2.21907 0
M  V30 9733 H 916.444 2.5805 -1.51825 0
M  V30 9734 H 913.99 1.24039 -0.73146 0
M  V30 9735 H 915.943 4.20333 0.299729 0
M  V30 9736 H 914.667 3.13131 0.928245 0
M  V30 9737 H 913.326 3.47196 -1.17688 0
M  V30 9738 H 912.974 4.9664 0.797334 0
M  V30 9739 H 912.674 5.83029 -0.731498 0
M  V30 9740 H 914.198 6.10391 0.159881 0
M  V30 9741 H 915.612 5.3759 -1.99173 0
M  V30 9742 H 914.009 5.31782 -2.78078 0
M  V30 9743 H 915.079 3.9072 -2.87168 0
M  V30 9744 N 916.422 0.810101 1.35185 0
M  V30 9745 C 917.354 0.180581 2.28488 0
M  V30 9746 C 918.367 -0.622154 1.50443 0
M  V30 9747 O 919.556 -0.453938 1.72632 0
M  V30 9748 C 916.656 -0.766447 3.30119 0
M  V30 9749 C 915.829 -0.00932028 4.37399 0
M  V30 9750 C 914.888 -0.875354 5.18868 0
M  V30 9751 O 913.914 -0.325012 5.68271 0
M  V30 9752 N 915.116 -2.19695 5.37321 0
M  V30 9753 H 917.881 0.98212 2.83151 0
M  V30 9754 H 915.442 0.665879 1.47573 0
M  V30 9755 H 917.434 -1.35012 3.81515 0
M  V30 9756 H 916.004 -1.46878 2.75945 0
M  V30 9757 H 915.224 0.755585 3.86891 0
M  V30 9758 H 916.512 0.512352 5.06214 0
M  V30 9759 H 915.91 -2.66797 4.98834 0
M  V30 9760 H 914.467 -2.72978 5.91884 0
M  V30 9761 N 917.9 -1.47166 0.563914 0
M  V30 9762 C 919.177 -1.95586 -0.0236172 0
M  V30 9763 C 919.557 -1.50655 -1.47872 0
M  V30 9764 O 918.905 -0.748479 -2.15894 0
M  V30 9765 C 919.115 -3.48762 0.128841 0
M  V30 9766 C 920.463 -4.24598 -0.0130544 0
M  V30 9767 O 921.487 -3.56155 0.0567242 0
M  V30 9768 O 920.346 -5.46253 -0.164332 0
M  V30 9769 H 917.44 -0.824793 -0.0603789 0
M  V30 9770 H 919.986 -1.57536 0.63091 0
M  V30 9771 H 918.758 -3.74291 1.14113 0
M  V30 9772 H 918.381 -3.93594 -0.56299 0
M  V30 9773 N 919.378 -0.300708 -1.54705 0
M  V30 9774 C 920.627 0.309428 -1.99312 0
M  V30 9775 C 920.94 1.55027 -1.19272 0
M  V30 9776 O 922.146 2.23498 -1.54146 0
M  V30 9777 C 920.602 0.601856 -3.54832 0
M  V30 9778 C 920.21 -0.620636 -4.4368 0
M  V30 9779 C 921.954 1.1732 -4.07966 0
M  V30 9780 C 919.861 -0.301376 -5.90632 0
M  V30 9781 H 918.791 0.119395 -0.744487 0
M  V30 9782 H 921.442 -0.409368 -1.78875 0
M  V30 9783 H 919.824 1.38024 -3.71168 0
M  V30 9784 H 920.998 -1.39685 -4.39118 0
M  V30 9785 H 919.313 -1.1106 -4.01316 0
M  V30 9786 H 921.91 1.42631 -5.15326 0
M  V30 9787 H 922.253 2.11537 -3.5855 0
M  V30 9788 H 922.786 0.456534 -3.95172 0
M  V30 9789 H 919.525 -1.21209 -6.44196 0
M  V30 9790 H 919.045 0.437574 -5.98202 0
M  V30 9791 H 920.724 0.097164 -6.46927 0
M  V30 9792 N 920.856 1.57574 -0.0284266 0
M  V30 9793 C 921.786 2.1321 0.952039 0
M  V30 9794 C 922.767 1.04806 1.33977 0
M  V30 9795 O 923.952 1.32635 1.41851 0
M  V30 9796 C 921.082 2.65862 2.23461 0
M  V30 9797 C 920.036 3.79047 1.98765 0
M  V30 9798 C 919.362 4.18124 3.33281 0
M  V30 9799 C 920.662 5.05151 1.32739 0
M  V30 9800 H 922.356 2.95385 0.488705 0
M  V30 9801 H 919.902 1.42092 0.233628 0
M  V30 9802 H 921.855 3.03417 2.92431 0
M  V30 9803 H 920.579 1.80848 2.71959 0
M  V30 9804 H 919.238 3.41929 1.32213 0
M  V30 9805 H 918.886 3.30092 3.79537 0
M  V30 9806 H 918.586 4.94396 3.17563 0
M  V30 9807 H 920.11 4.58262 4.0352 0
M  V30 9808 H 921.524 5.40297 1.91708 0
M  V30 9809 H 919.921 5.86416 1.27421 0
M  V30 9810 H 920.991 4.83969 0.300261 0
M  V30 9811 N 922.334 -0.244713 1.55689 0
M  V30 9812 C 923.244 -1.32447 1.93636 0
M  V30 9813 C 924.26 -1.52541 0.837086 0
M  V30 9814 O 925.436 -1.66121 1.13867 0
M  V30 9815 C 922.501 -2.65864 2.22525 0
M  V30 9816 C 921.562 -2.54273 3.45896 0
M  V30 9817 C 920.795 -3.81327 3.73397 0
M  V30 9818 O 921.018 -4.83307 3.02936 0
M  V30 9819 O 919.952 -3.79829 4.66919 0
M  V30 9820 H 923.778 -1.03255 2.85608 0
M  V30 9821 H 921.363 -0.445652 1.42598 0
M  V30 9822 H 923.245 -3.447 2.42404 0
M  V30 9823 H 921.92 -2.94784 1.33731 0
M  V30 9824 H 920.827 -1.73715 3.31321 0
M  V30 9825 H 922.16 -2.30297 4.34999 0
M  V30 9826 N 923.813 -1.49104 -0.510467 0
M  V30 9827 C 924.761 -1.65547 -1.63392 0
M  V30 9828 C 925.755 -0.521522 -1.61172 0
M  V30 9829 O 926.961 -0.700865 -1.65795 0
M  V30 9830 H 923.336 -0.521843 -0.541464 0
M  V30 9831 H 925.307 -2.59864 -1.46673 0
M  V30 9832 C 924.056 -1.73051 -3.01577 0
M  V30 9833 H 923.379 -2.59676 -3.03987 0
M  V30 9834 H 924.819 -1.88594 -3.79748 0
M  V30 9835 C 923.278 -0.47328 -3.33559 0
M  V30 9836 O 923.808 0.405239 -3.99651 0
M  V30 9837 N 922.014 -0.339074 -2.88615 0
M  V30 9838 H 921.561 -1.05497 -2.35007 0
M  V30 9839 H 921.519 0.501061 -3.10382 0
M  V30 9840 N 925.291 0.760815 -1.38019 0
M  V30 9841 C 926.201 1.90526 -1.36884 0
M  V30 9842 C 927.217 1.71941 -0.266908 0
M  V30 9843 O 928.393 1.94988 -0.50413 0
M  V30 9844 C 925.458 3.25799 -1.18558 0
M  V30 9845 C 924.519 3.56961 -2.3849 0
M  V30 9846 C 923.752 4.8578 -2.21029 0
M  V30 9847 O 923.975 5.57629 -1.20023 0
M  V30 9848 O 922.909 5.16254 -3.0946 0
M  V30 9849 H 926.735 1.94437 -2.33298 0
M  V30 9850 H 924.32 0.905091 -1.18863 0
M  V30 9851 H 926.202 4.0669 -1.1037 0
M  V30 9852 H 924.877 3.22716 -0.252241 0
M  V30 9853 H 923.784 2.7626 -2.52252 0
M  V30 9854 H 925.117 3.64798 -3.30429 0
M  V30 9855 N 926.769 1.22769 0.988202 0
M  V30 9856 C 927.994 1.08239 1.76915 0
M  V30 9857 C 928.419 -0.362519 1.84574 0
M  V30 9858 O 927.777 -1.26202 1.30165 0
M  V30 9859 C 927.825 1.70363 3.17819 0
M  V30 9860 O 926.929 0.960484 4.01059 0
M  V30 9861 H 926.27 0.379872 0.544604 0
M  V30 9862 H 928.8 1.62663 1.24104 0
M  V30 9863 H 928.81 1.7528 3.6843 0
M  V30 9864 H 927.485 2.75505 3.1156 0
M  V30 9865 H 926.062 0.987667 3.59582 0
M  V30 9866 N 928.247 -1.18576 1.03814 0
M  V30 9867 C 929.496 -1.87822 0.735235 0
M  V30 9868 C 929.809 -1.81069 -0.739819 0
M  V30 9869 O 931.015 -2.45654 -1.15614 0
M  V30 9870 C 929.471 -3.36941 1.26486 0
M  V30 9871 C 929.079 -3.5223 2.76836 0
M  V30 9872 C 930.823 -4.11604 1.03836 0
M  V30 9873 C 928.73 -4.95294 3.23169 0
M  V30 9874 H 927.66 -0.703487 0.271333 0
M  V30 9875 H 930.311 -1.34 1.25365 0
M  V30 9876 H 928.693 -3.90217 0.674318 0
M  V30 9877 H 929.867 -3.09239 3.41625 0
M  V30 9878 H 928.182 -2.90969 2.97869 0
M  V30 9879 H 930.779 -5.17123 1.3597 0
M  V30 9880 H 931.122 -4.16293 -0.0244945 0
M  V30 9881 H 931.655 -3.64494 1.59338 0
M  V30 9882 H 928.394 -4.95772 4.28824 0
M  V30 9883 H 927.914 -5.3901 2.63113 0
M  V30 9884 H 929.593 -5.63996 3.17045 0
M  V30 9885 N 929.725 -0.817259 -1.34754 0
M  V30 9886 C 930.953 -0.415451 -2.02686 0
M  V30 9887 C 931.368 0.97688 -1.61563 0
M  V30 9888 O 930.725 1.63125 -0.818321 0
M  V30 9889 C 930.776 -0.501486 -3.58005 0
M  V30 9890 O 930.497 -1.83893 -3.97637 0
M  V30 9891 C 931.998 -0.0938504 -4.43201 0
M  V30 9892 H 929.218 -0.16742 -0.649778 0
M  V30 9893 H 931.762 -1.10384 -1.7215 0
M  V30 9894 H 929.917 0.138766 -3.87151 0
M  V30 9895 H 930.331 -1.8092 -4.92309 0
M  V30 9896 H 931.805 -0.205145 -5.51619 0
M  V30 9897 H 932.282 0.962011 -4.28535 0
M  V30 9898 H 932.888 -0.707677 -4.19371 0
M  V30 9899 N 931.203 1.46865 -0.571711 0
M  V30 9900 C 932.133 2.3298 0.155795 0
M  V30 9901 C 933.114 1.44678 0.894553 0
M  V30 9902 O 934.299 1.73513 0.872176 0
M  V30 9903 C 931.429 3.26745 1.17708 0
M  V30 9904 C 930.383 4.24401 0.553863 0
M  V30 9905 C 929.709 5.07595 1.68083 0
M  V30 9906 C 931.009 5.19884 -0.501827 0
M  V30 9907 H 932.703 2.94056 -0.563176 0
M  V30 9908 H 930.249 1.41402 -0.27228 0
M  V30 9909 H 932.202 3.85838 1.6943 0
M  V30 9910 H 930.926 2.63753 1.92618 0
M  V30 9911 H 929.585 3.66554 0.057815 0
M  V30 9912 H 929.233 4.40996 2.41933 0
M  V30 9913 H 928.933 5.73722 1.26953 0
M  V30 9914 H 930.457 5.6955 2.20103 0
M  V30 9915 H 931.871 5.73257 -0.0701057 0
M  V30 9916 H 930.268 5.94293 -0.832815 0
M  V30 9917 H 931.338 4.64482 -1.39229 0
M  V30 9918 N 932.681 0.308908 1.54543 0
M  V30 9919 C 933.958 -0.351558 1.92415 0
M  V30 9920 C 934.338 -1.71061 1.23699 0
M  V30 9921 O 933.686 -2.25394 0.3755 0
M  V30 9922 C 933.896 -0.458357 3.45977 0
M  V30 9923 C 935.244 -0.725524 4.18355 0
M  V30 9924 O 936.268 -0.541859 3.52054 0
M  V30 9925 O 935.127 -1.07884 5.35745 0
M  V30 9926 H 932.221 -0.197957 0.802958 0
M  V30 9927 H 934.767 0.357548 1.65891 0
M  V30 9928 H 933.539 0.496723 3.88134 0
M  V30 9929 H 933.162 -1.21562 3.78561 0
M  V30 9930 N 934.159 -1.57557 0.0367827 0
M  V30 9931 C 935.405 -1.93224 -0.635306 0
M  V30 9932 C 935.76 -0.914194 -1.69293 0
M  V30 9933 O 935.053 0.0686974 -1.91477 0
M  V30 9934 C 935.247 -3.33387 -1.28794 0
M  V30 9935 C 935.076 -4.48731 -0.295055 0
M  V30 9936 C 933.846 -5.05185 0.10783 0
M  V30 9937 C 936.044 -5.12294 0.453749 0
M  V30 9938 N 934.026 -6.04054 1.09508 0
M  V30 9939 C 935.397 -6.06335 1.29452 0
M  V30 9940 C 937.452 -4.95244 0.513622 0
M  V30 9941 C 936.155 -6.85158 2.18977 0
M  V30 9942 C 938.181 -5.74682 1.39624 0
M  V30 9943 C 937.543 -6.68344 2.22477 0
M  V30 9944 H 933.642 -0.754772 -0.204555 0
M  V30 9945 H 936.226 -1.94413 0.105751 0
M  V30 9946 H 934.397 -3.33002 -1.9991 0
M  V30 9947 H 936.129 -3.56381 -1.91767 0
M  V30 9948 H 932.884 -4.7284 -0.268192 0
M  V30 9949 H 933.308 -6.5818 1.58518 0
M  V30 9950 H 937.95 -4.2265 -0.112699 0
M  V30 9951 H 935.668 -7.57052 2.82661 0
M  V30 9952 H 939.254 -5.6352 1.44696 0
M  V30 9953 H 938.134 -7.2874 2.89668 0
M  V30 9954 N 935.637 0.236453 -1.55816 0
M  V30 9955 C 936.57 1.3196 -1.86177 0
M  V30 9956 C 937.548 1.459 -0.717769 0
M  V30 9957 O 938.732 1.61949 -0.964606 0
M  V30 9958 C 935.859 2.69183 -2.05568 0
M  V30 9959 C 934.905 2.72338 -3.28229 0
M  V30 9960 S 935.738 2.27898 -4.84585 0
M  V30 9961 C 936.894 3.67025 -5.06994 0
M  V30 9962 H 937.127 1.06011 -2.77757 0
M  V30 9963 H 934.66 0.437961 -1.48058 0
M  V30 9964 H 936.618 3.48191 -2.17423 0
M  V30 9965 H 935.279 2.92365 -1.14811 0
M  V30 9966 H 934.472 3.7314 -3.38795 0
M  V30 9967 H 934.074 2.01382 -3.15153 0
M  V30 9968 H 936.366 4.62604 -4.94979 0
M  V30 9969 H 937.309 3.61385 -6.08939 0
M  V30 9970 H 937.717 3.60022 -4.34792 0
M  V30 9971 N 937.115 1.49373 0.502552 0
M  V30 9972 C 938.362 1.58781 1.25678 0
M  V30 9973 C 938.69 0.273819 1.92563 0
M  V30 9974 O 937.945 -0.738141 1.81246 0
M  V30 9975 C 938.244 2.69508 2.34735 0
M  V30 9976 C 937.91 4.11057 1.85318 0
M  V30 9977 C 936.572 4.49578 1.7156 0
M  V30 9978 C 938.924 4.99653 1.48312 0
M  V30 9979 C 936.252 5.74469 1.19172 0
M  V30 9980 C 938.604 6.2506 0.97377 0
M  V30 9981 C 937.268 6.62412 0.822573 0
M  V30 9982 H 936.538 0.581021 0.459887 0
M  V30 9983 H 939.185 1.83197 0.557767 0
M  V30 9984 H 937.49 2.39057 3.10418 0
M  V30 9985 H 939.187 2.73997 2.92791 0
M  V30 9986 H 935.777 3.80651 1.96985 0
M  V30 9987 H 939.961 4.70549 1.57789 0
M  V30 9988 H 935.217 6.0211 1.06176 0
M  V30 9989 H 939.391 6.93089 0.678233 0
M  V30 9990 H 937.018 7.59069 0.414453 0
M  V30 9991 N 938.594 -0.753485 1.38421 0
M  V30 9992 C 940.01 -1.05656 1.1962 0
M  V30 9993 C 940.21 -2.0145 0.0449443 0
M  V30 9994 O 939.266 -2.45039 -0.609253 0
M  V30 9995 C 940.579 -1.63655 2.52265 0
M  V30 9996 C 942.127 -1.75825 2.58949 0
M  V30 9997 C 942.602 -2.37236 3.91769 0
M  V30 9998 N 944.093 -2.44666 3.9331 0
M  V30 9999 C 944.828 -2.93077 4.92842 0
M  V30 10000 N 944.324 -3.41523 6.02772 0
M  V30 10001 N 946.117 -2.92118 4.80232 0
M  V30 10002 H 938.268 -0.117799 2.12073 0
M  V30 10003 H 940.531 -0.114889 0.941012 0
M  V30 10004 H 940.237 -1.00734 3.36965 0
M  V30 10005 H 940.111 -2.62715 2.70667 0
M  V30 10006 H 942.498 -2.37873 1.74644 0
M  V30 10007 H 942.579 -0.754693 2.44414 0
M  V30 10008 H 942.223 -1.75822 4.76497 0
M  V30 10009 H 942.153 -3.38233 4.03616 0
M  V30 10010 H 944.644 -2.10403 3.1391 0
M  V30 10011 H 944.957 -3.76919 6.74649 0
M  V30 10012 H 943.302 -3.3958 6.06391 0
M  V30 10013 H 946.493 -2.53582 3.93464 0
M  V30 10014 H 946.666 -3.29535 5.57952 0
M  V30 10015 N 940.072 -1.23292 -0.981677 0
M  V30 10016 C 941.302 -1.0893 -1.7555 0
M  V30 10017 C 941.71 0.362219 -1.857 0
M  V30 10018 O 941.053 1.2624 -1.33451 0
M  V30 10019 C 941.115 -1.6389 -3.19969 0
M  V30 10020 C 940.779 -3.12632 -3.33332 0
M  V30 10021 C 941.776 -4.0994 -3.19758 0
M  V30 10022 C 939.461 -3.52314 -3.58022 0
M  V30 10023 C 941.455 -5.44915 -3.30676 0
M  V30 10024 C 939.142 -4.87434 -3.6858 0
M  V30 10025 C 940.14 -5.83544 -3.54916 0
M  V30 10026 O 939.828 -7.16209 -3.65102 0
M  V30 10027 H 939.56 -0.381901 -0.557788 0
M  V30 10028 H 942.114 -1.63586 -1.24213 0
M  V30 10029 H 940.344 -1.03653 -3.72549 0
M  V30 10030 H 942.033 -1.45023 -3.79108 0
M  V30 10031 H 942.799 -3.80625 -3.00582 0
M  V30 10032 H 938.678 -2.78022 -3.67729 0
M  V30 10033 H 942.222 -6.19913 -3.19928 0
M  V30 10034 H 938.119 -5.16426 -3.87265 0
M  V30 10035 H 938.887 -7.23941 -3.81905 0
M  V30 10036 N 941.55 1.18024 -1.04442 0
M  V30 10037 C 942.775 1.92573 -0.770097 0
M  V30 10038 C 943.2 1.75871 0.667169 0
M  V30 10039 O 942.558 1.07136 1.46258 0
M  V30 10040 C 942.606 3.41904 -1.14602 0
M  V30 10041 O 941.71 4.11491 -0.273712 0
M  V30 10042 H 941.051 0.600636 -0.283076 0
M  V30 10043 H 943.581 1.49645 -1.39526 0
M  V30 10044 H 943.591 3.92623 -1.10956 0
M  V30 10045 H 942.266 3.53382 -2.19304 0
M  V30 10046 H 940.843 3.71059 -0.370124 0
M  V30 10047 N 943.028 0.824394 1.34319 0
M  V30 10048 C 943.958 0.262077 2.32025 0
M  V30 10049 C 944.939 -0.622277 1.58309 0
M  V30 10050 O 946.124 -0.548848 1.86283 0
M  V30 10051 C 943.254 -0.57567 3.42496 0
M  V30 10052 C 942.208 0.21167 4.27476 0
M  V30 10053 C 941.534 -0.748913 5.29429 0
M  V30 10054 C 942.834 1.42068 5.02607 0
M  V30 10055 H 944.528 1.07842 2.79304 0
M  V30 10056 H 942.074 0.520022 1.34282 0
M  V30 10057 H 944.027 -0.979251 4.09864 0
M  V30 10058 H 942.751 -1.42508 2.93869 0
M  V30 10059 H 941.41 0.596636 3.61712 0
M  V30 10060 H 941.058 -1.59432 4.77064 0
M  V30 10061 H 940.758 -0.226313 5.87164 0
M  V30 10062 H 942.282 -1.15032 5.99667 0
M  V30 10063 H 943.696 1.09103 5.62823 0
M  V30 10064 H 942.093 1.87903 5.69923 0
M  V30 10065 H 943.163 2.1981 4.32217 0
M  V30 10066 N 944.506 -1.46559 0.579492 0
M  V30 10067 C 945.734 -2.06784 0.0693648 0
M  V30 10068 C 946.149 -1.42875 -1.23419 0
M  V30 10069 O 945.506 -0.532919 -1.74546 0
M  V30 10070 C 945.557 -3.61343 -0.106511 0
M  V30 10071 O 945.278 -4.22861 1.14545 0
M  V30 10072 C 946.779 -4.38489 -0.651359 0
M  V30 10073 H 943.999 -0.66866 0.0559848 0
M  V30 10074 H 946.543 -1.88235 0.799245 0
M  V30 10075 H 944.698 -3.7933 -0.786601 0
M  V30 10076 H 945.112 -5.15691 0.95723 0
M  V30 10077 H 946.586 -5.47237 -0.723615 0
M  V30 10078 H 947.063 -4.06309 -1.66763 0
M  V30 10079 H 947.669 -4.253 -0.0062433 0
M  V30 10080 N 945.984 -0.3171 -1.54377 0
M  V30 10081 C 946.932 0.567371 -2.25574 0
M  V30 10082 C 947.926 1.12387 -1.2675 0
M  V30 10083 O 949.132 1.07266 -1.44548 0
M  V30 10084 H 945.507 0.201605 -0.724472 0
M  V30 10085 H 947.478 -0.0554644 -2.98348 0
M  V30 10086 C 946.227 1.71984 -3.02187 0
M  V30 10087 H 945.55 1.30086 -3.78044 0
M  V30 10088 H 946.99 2.31443 -3.5526 0
M  V30 10089 C 945.449 2.6336 -2.10103 0
M  V30 10090 O 945.979 3.64899 -1.67962 0
M  V30 10091 N 944.185 2.3145 -1.75725 0
M  V30 10092 H 943.732 1.48921 -2.10191 0
M  V30 10093 H 943.69 2.92852 -1.14391 0
M  V30 10094 N 947.462 1.57535 -0.0451378 0
M  V30 10095 C 948.739 1.83785 0.669523 0
M  V30 10096 C 949.119 0.932331 1.89396 0
M  V30 10097 O 948.467 -0.00813229 2.28499 0
M  V30 10098 C 948.677 3.33376 1.03255 0
M  V30 10099 C 950.025 4.00243 1.41741 0
M  V30 10100 O 951.049 3.37965 1.12507 0
M  V30 10101 O 949.908 5.10038 1.96275 0
M  V30 10102 H 947.002 0.758342 0.329919 0
M  V30 10103 H 949.548 1.69538 -0.0740415 0
M  V30 10104 H 948.32 3.90965 0.161777 0
M  V30 10105 H 947.943 3.52787 1.83376 0
M  V30 10106 N 948.94 -0.228186 1.55939 0
M  V30 10107 C 950.189 -0.951563 1.77843 0
M  V30 10108 C 950.502 -1.85763 0.612501 0
M  V30 10109 O 951.708 -2.61916 0.715006 0
M  V30 10110 C 950.164 -1.74216 3.14923 0
M  V30 10111 C 949.772 -0.882569 4.39221 0
M  V30 10112 C 951.516 -2.45715 3.46156 0
M  V30 10113 C 949.423 -1.67014 5.67327 0
M  V30 10114 H 948.353 -0.359035 0.663031 0
M  V30 10115 H 951.004 -0.205636 1.82344 0
M  V30 10116 H 949.386 -2.53075 3.0458 0
M  V30 10117 H 950.56 -0.13499 4.60602 0
M  V30 10118 H 948.875 -0.280022 4.15457 0
M  V30 10119 H 951.472 -3.05127 4.39092 0
M  V30 10120 H 951.815 -3.1827 2.68346 0
M  V30 10121 H 952.348 -1.73852 3.57799 0
M  V30 10122 H 949.087 -0.987985 6.48012 0
M  V30 10123 H 948.607 -2.3925 5.50018 0
M  V30 10124 H 950.286 -2.23252 6.07262 0
M  V30 10125 N 950.418 -1.49637 -0.494624 0
M  V30 10126 C 951.664 -1.59681 -1.25019 0
M  V30 10127 C 951.997 -0.285511 -1.9209 0
M  V30 10128 O 951.272 0.711398 -1.81023 0
M  V30 10129 C 951.555 -2.76058 -2.31222 0
M  V30 10130 C 951.408 -4.17002 -1.68611 0
M  V30 10131 C 952.727 -2.88056 -3.32734 0
M  V30 10132 H 949.846 -0.581209 -0.453172 0
M  V30 10133 H 952.488 -1.81944 -0.547391 0
M  V30 10134 H 950.638 -2.57207 -2.91164 0
M  V30 10135 H 952.31 -4.47385 -1.12447 0
M  V30 10136 H 950.553 -4.22352 -0.989991 0
M  V30 10137 H 951.224 -4.94316 -2.45674 0
M  V30 10138 H 953.7 -3.05237 -2.82789 0
M  V30 10139 H 952.576 -3.71151 -4.04399 0
M  V30 10140 H 952.837 -1.97676 -3.95445 0
M  V30 10141 N 951.896 0.746133 -1.38819 0
M  V30 10142 C 952.843 1.86001 -1.36647 0
M  V30 10143 C 953.813 1.6453 -0.227849 0
M  V30 10144 O 954.998 1.86092 -0.421241 0
M  V30 10145 C 952.138 3.23388 -1.20474 0
M  V30 10146 C 951.251 3.5664 -2.43786 0
M  V30 10147 C 950.386 4.8337 -2.20287 0
M  V30 10148 C 949.425 5.09431 -3.39332 0
M  V30 10149 N 948.562 6.2736 -3.1522 0
M  V30 10150 H 953.402 1.87192 -2.31869 0
M  V30 10151 H 950.939 0.914838 -1.15192 0
M  V30 10152 H 952.897 4.02679 -1.09112 0
M  V30 10153 H 951.527 3.21505 -0.288874 0
M  V30 10154 H 950.579 2.72135 -2.65794 0
M  V30 10155 H 951.891 3.71823 -3.3249 0
M  V30 10156 H 951.045 5.70619 -2.06103 0
M  V30 10157 H 949.784 4.70341 -1.28961 0
M  V30 10158 H 948.789 4.20648 -3.54027 0
M  V30 10159 H 950.014 5.24354 -4.31544 0
M  V30 10160 H 947.96 6.15639 -2.26549 0
M  V30 10161 H 947.877 6.43078 -3.97476 0
M  V30 10162 H 949.145 7.17477 -3.04707 0
M  V30 10163 N 953.375 1.23811 0.975125 0
M  V30 10164 C 954.623 1.07124 1.71373 0
M  V30 10165 C 954.944 -0.391864 1.91022 0
M  V30 10166 O 954.214 -1.28041 1.48265 0
M  V30 10167 H 952.794 0.393415 0.635007 0
M  V30 10168 H 955.456 1.55612 1.17349 0
M  V30 10169 H 954.552 1.56338 2.7012 0
M  V30 10170 N 954.853 -1.17469 1.05066 0
M  V30 10171 C 955.786 -2.2031 0.594863 0
M  V30 10172 C 956.764 -1.58196 -0.375878 0
M  V30 10173 O 957.948 -1.8629 -0.287798 0
M  V30 10174 C 955.075 -3.38452 -0.129614 0
M  V30 10175 C 954.121 -4.19007 0.795943 0
M  V30 10176 S 954.954 -4.8433 2.28441 0
M  V30 10177 C 956.11 -6.05862 1.57107 0
M  V30 10178 H 956.343 -2.58632 1.46618 0
M  V30 10179 H 953.876 -1.28063 0.862511 0
M  V30 10180 H 955.834 -4.06914 -0.541416 0
M  V30 10181 H 954.495 -2.98521 -0.976948 0
M  V30 10182 H 953.688 -5.0345 0.235396 0
M  V30 10183 H 953.29 -3.55976 1.14705 0
M  V30 10184 H 955.582 -6.71895 0.86969 0
M  V30 10185 H 956.525 -6.66442 2.39292 0
M  V30 10186 H 956.933 -5.54477 1.05903 0
M  V30 10187 N 956.331 -0.831506 -1.3388 0
M  V30 10188 C 957.261 -0.274378 -2.31882 0
M  V30 10189 C 958.242 0.613872 -1.58637 0
M  V30 10190 O 959.427 0.538961 -1.86571 0
M  V30 10191 C 956.557 0.557498 -3.42796 0
M  V30 10192 C 955.511 -0.234337 -4.27358 0
M  V30 10193 C 954.837 0.720825 -5.29819 0
M  V30 10194 C 956.137 -1.44732 -5.01847 0
M  V30 10195 H 957.831 -1.09322 -2.78728 0
M  V30 10196 H 955.377 -0.527136 -1.34005 0
M  V30 10197 H 957.33 0.957501 -4.10378 0
M  V30 10198 H 956.054 1.40947 -2.94621 0
M  V30 10199 H 954.713 -0.61581 -3.61391 0
M  V30 10200 H 954.361 1.569 -4.77903 0
M  V30 10201 H 954.061 0.195171 -5.87276 0
M  V30 10202 H 955.585 1.1185 -6.00268 0
M  V30 10203 H 956.999 -1.12087 -5.62236 0
M  V30 10204 H 955.396 -1.90923 -5.68919 0
M  V30 10205 H 956.466 -2.22099 -4.31045 0
M  V30 10206 N 957.809 1.4625 -0.587256 0
M  V30 10207 C 959.056 2.02363 -0.0745746 0
M  V30 10208 C 959.384 1.4582 1.28712 0
M  V30 10209 O 958.639 0.614922 1.85788 0
M  V30 10210 C 958.938 3.57382 0.036328 0
M  V30 10211 C 958.604 4.32985 -1.25837 0
M  V30 10212 C 957.266 4.53358 -1.61306 0
M  V30 10213 C 959.618 4.76361 -2.11494 0
M  V30 10214 C 956.946 5.14361 -2.82223 0
M  V30 10215 C 959.298 5.38699 -3.31641 0
M  V30 10216 C 957.962 5.57299 -3.67388 0
M  V30 10217 H 957.232 0.740497 -0.0272888 0
M  V30 10218 H 959.879 1.75565 -0.764804 0
M  V30 10219 H 958.184 3.83342 0.809712 0
M  V30 10220 H 959.881 3.9848 0.448838 0
M  V30 10221 H 956.471 4.17427 -0.972251 0
M  V30 10222 H 960.655 4.60372 -1.85394 0
M  V30 10223 H 955.911 5.26952 -3.10051 0
M  V30 10224 H 960.085 5.71267 -3.9828 0
M  V30 10225 H 957.712 6.04338 -4.61173 0
M  V30 10226 N 959.287 0.325282 1.54207 0
M  V30 10227 C 960.217 -0.532574 2.27345 0
M  V30 10228 C 961.198 -1.11791 1.28206 0
M  V30 10229 O 962.383 -1.14272 1.57021 0
M  V30 10230 C 959.513 -1.69274 3.03255 0
M  V30 10231 C 958.467 -1.23662 4.09746 0
M  V30 10232 C 957.793 -2.48386 4.73506 0
M  V30 10233 C 959.093 -0.350244 5.21124 0
M  V30 10234 H 960.787 0.0775108 2.993 0
M  V30 10235 H 958.333 0.0387193 1.43948 0
M  V30 10236 H 960.286 -2.29917 3.53152 0
M  V30 10237 H 959.01 -2.32944 2.28921 0
M  V30 10238 H 957.669 -0.653106 3.60735 0
M  V30 10239 H 957.317 -3.10424 3.95786 0
M  V30 10240 H 957.017 -2.18558 5.45441 0
M  V30 10241 H 958.541 -3.09789 5.26178 0
M  V30 10242 H 959.955 -0.863011 5.66767 0
M  V30 10243 H 958.352 -0.14466 5.99926 0
M  V30 10244 H 959.422 0.618457 4.8094 0
M  V30 10245 N 960.765 -1.57509 0.0534917 0
M  V30 10246 C 961.715 -2.08179 -0.929802 0
M  V30 10247 C 962.699 -0.987451 -1.27036 0
M  V30 10248 O 963.891 -1.25076 -1.2524 0
M  V30 10249 C 961.02 -2.63221 -2.20385 0
M  V30 10250 C 960.106 -3.79629 -1.89058 0
M  V30 10251 N 960.497 -4.8931 -1.28101 0
M  V30 10252 C 958.795 -3.88578 -2.18914 0
M  V30 10253 C 959.496 -5.70329 -1.14455 0
M  V30 10254 N 958.472 -5.18011 -1.64821 0
M  V30 10255 H 962.274 -2.90374 -0.453874 0
M  V30 10256 H 959.788 -1.61697 -0.150899 0
M  V30 10257 H 961.785 -2.97827 -2.91727 0
M  V30 10258 H 960.445 -1.82466 -2.68582 0
M  V30 10259 H 961.456 -5.09058 -0.952924 0
M  V30 10260 H 958.133 -3.18769 -2.69616 0
M  V30 10261 H 959.523 -6.6854 -0.671129 0
M  V30 10262 N 962.243 0.219913 -1.56058 0
M  V30 10263 C 963.191 1.29215 -1.93407 0
M  V30 10264 C 964.185 1.48434 -0.816307 0
M  V30 10265 O 965.391 1.49589 -1.00115 0
M  V30 10266 H 961.766 0.433256 -0.614649 0
M  V30 10267 H 963.737 0.949977 -2.82875 0
M  V30 10268 C 962.486 2.63501 -2.26854 0
M  V30 10269 H 961.809 2.4952 -3.12377 0
M  V30 10270 H 963.249 3.37334 -2.56869 0
M  V30 10271 C 961.708 3.18634 -1.09425 0
M  V30 10272 O 962.238 4.00117 -0.356243 0
M  V30 10273 N 960.444 2.7703 -0.877642 0
M  V30 10274 H 959.991 2.10875 -1.47951 0
M  V30 10275 H 959.949 3.1426 -0.0936792 0
M  V30 10276 N 963.721 1.49897 0.486681 0
M  V30 10277 C 964.969 1.59789 1.23742 0
M  V30 10278 C 965.29 0.293056 1.92785 0
M  V30 10279 O 964.56 -0.688534 1.83401 0
M  V30 10280 H 963.14 0.588775 0.459731 0
M  V30 10281 H 965.802 1.86597 0.562808 0
M  V30 10282 H 964.898 2.40121 1.9937 0
M  V30 10283 N 965.199 -0.738761 1.39212 0
M  V30 10284 C 966.162 -1.83441 1.37412 0
M  V30 10285 C 967.162 -1.58484 0.271908 0
M  V30 10286 O 968.352 -1.65954 0.529609 0
M  V30 10287 C 965.484 -3.21167 1.143 0
M  V30 10288 H 966.677 -1.86441 2.34904 0
M  V30 10289 H 964.23 -0.942023 1.24722 0
M  V30 10290 H 964.965 -3.23829 0.174756 0
M  V30 10291 H 964.75 -3.40678 1.94116 0
M  V30 10292 H 966.24 -4.01231 1.15773 0
M  V30 10293 N 966.677 -1.24326 -0.968545 0
M  V30 10294 C 967.926 -1.07647 -1.70572 0
M  V30 10295 C 968.239 0.384821 -1.91777 0
M  V30 10296 O 969.445 0.671782 -2.63058 0
M  V30 10297 C 967.901 -1.87799 -3.07017 0
M  V30 10298 C 967.509 -3.38333 -2.93658 0
M  V30 10299 C 969.253 -1.79647 -3.84613 0
M  V30 10300 C 967.16 -4.10831 -4.25407 0
M  V30 10301 H 966.09 -0.399216 -0.639642 0
M  V30 10302 H 968.741 -1.484 -1.07934 0
M  V30 10303 H 967.123 -1.3986 -3.7048 0
M  V30 10304 H 968.297 -3.93845 -2.39213 0
M  V30 10305 H 966.612 -3.47427 -2.29528 0
M  V30 10306 H 969.209 -2.31116 -4.82172 0
M  V30 10307 H 969.552 -0.761553 -4.09275 0
M  V30 10308 H 970.085 -2.25261 -3.27875 0
M  V30 10309 H 966.824 -5.14679 -4.05939 0
M  V30 10310 H 966.344 -3.60105 -4.79671 0
M  V30 10311 H 968.023 -4.17783 -4.94031 0
M  V30 10312 N 968.156 1.1691 -1.05688 0
M  V30 10313 C 969.396 1.88972 -0.779044 0
M  V30 10314 C 969.76 1.7949 0.681708 0
M  V30 10315 O 970.961 2.46418 1.07386 0
M  V30 10316 C 969.232 3.34737 -1.25242 0
M  V30 10317 S 970.791 4.24718 -1.10272 0
M  V30 10318 H 967.609 0.652349 -0.282776 0
M  V30 10319 H 970.211 1.41162 -1.35254 0
M  V30 10320 H 968.915 3.39175 -2.3106 0
M  V30 10321 H 968.446 3.87593 -0.673417 0
M  V30 10322 H 970.461 4.96191 -0.0299004 0
M  V30 10323 N 969.634 0.838594 1.33437 0
M  V30 10324 C 970.859 0.446701 2.02532 0
M  V30 10325 C 971.284 -0.944275 1.62681 0
M  V30 10326 O 970.642 -1.61733 0.81927 0
M  V30 10327 C 970.69 0.574794 3.55989 0
M  V30 10328 O 969.794 -0.399063 4.10465 0
M  V30 10329 H 969.135 0.181637 0.638674 0
M  V30 10330 H 971.665 1.13335 1.70342 0
M  V30 10331 H 971.675 0.456339 4.0544 0
M  V30 10332 H 970.35 1.58921 3.8434 0
M  V30 10333 H 968.927 -0.238187 3.72139 0
M  V30 10334 N 971.112 -1.45937 0.595003 0
M  V30 10335 C 972.062 -2.27491 -0.152331 0
M  V30 10336 C 973.046 -1.36591 -0.850396 0
M  V30 10337 O 974.238 -1.60675 -0.742462 0
M  V30 10338 C 971.367 -3.23203 -1.15735 0
M  V30 10339 C 970.453 -4.2159 -0.46077 0
M  V30 10340 N 970.844 -5.03416 0.490555 0
M  V30 10341 C 969.142 -4.40313 -0.709949 0
M  V30 10342 C 969.843 -5.74714 0.898825 0
M  V30 10343 N 968.819 -5.43046 0.24529 0
M  V30 10344 H 972.621 -2.8815 0.578526 0
M  V30 10345 H 970.135 -1.56936 0.417716 0
M  V30 10346 H 972.132 -3.8035 -1.70704 0
M  V30 10347 H 970.792 -2.64104 -1.8889 0
M  V30 10348 H 971.803 -5.10597 0.866692 0
M  V30 10349 H 968.48 -3.92351 -1.42713 0
M  V30 10350 H 969.87 -6.50487 1.68273 0
M  V30 10351 N 972.59 -0.333456 -1.54032 0
M  V30 10352 C 973.838 0.265608 -2.00347 0
M  V30 10353 C 974.159 1.51873 -1.2231 0
M  V30 10354 O 973.429 1.93142 -0.327549 0
M  V30 10355 H 972.009 0.101135 -0.740122 0
M  V30 10356 H 974.671 -0.452285 -1.8958 0
M  V30 10357 H 973.767 0.51511 -3.0782 0
M  V30 10358 N 974.068 1.57479 -0.061844 0
M  V30 10359 C 975.016 2.13346 0.926629 0
M  V30 10360 C 976.01 1.06787 1.31502 0
M  V30 10361 O 977.216 1.25181 1.29343 0
M  V30 10362 H 973.591 0.682046 0.316729 0
M  V30 10363 H 975.562 2.95279 0.430424 0
M  V30 10364 C 974.311 2.70198 2.18834 0
M  V30 10365 H 973.634 3.51859 1.89829 0
M  V30 10366 H 975.074 3.12897 2.86132 0
M  V30 10367 C 973.533 1.64481 2.9402 0
M  V30 10368 O 974.063 1.0639 3.87355 0
M  V30 10369 N 972.269 1.35749 2.56944 0
M  V30 10370 H 971.816 1.83177 1.81119 0
M  V30 10371 H 971.774 0.652469 3.07555 0
M  V30 10372 N 975.546 -0.211634 1.56173 0
M  V30 10373 C 976.476 -1.26533 1.96244 0
M  V30 10374 C 977.457 -1.48362 0.832028 0
M  V30 10375 O 978.642 -1.60378 1.0951 0
M  V30 10376 C 975.772 -2.61307 2.2877 0
M  V30 10377 C 974.726 -2.54119 3.44395 0
M  V30 10378 C 974.052 -3.93014 3.62552 0
M  V30 10379 C 975.352 -2.08046 4.79076 0
M  V30 10380 H 977.046 -0.932407 2.84511 0
M  V30 10381 H 974.592 -0.447084 1.36884 0
M  V30 10382 H 976.545 -3.35188 2.55396 0
M  V30 10383 H 975.269 -2.96307 1.37367 0
M  V30 10384 H 973.928 -1.82694 3.17834 0
M  V30 10385 H 973.576 -4.25338 2.68508 0
M  V30 10386 H 973.276 -3.89083 4.40327 0
M  V30 10387 H 974.8 -4.68542 3.91537 0
M  V30 10388 H 976.214 -2.71676 5.04842 0
M  V30 10389 H 974.611 -2.15154 5.60204 0
M  V30 10390 H 975.681 -1.03306 4.73768 0
M  V30 10391 N 977.024 -1.50153 -0.478725 0
M  V30 10392 C 977.971 -1.68458 -1.57767 0
M  V30 10393 C 978.941 -0.5259 -1.57555 0
M  V30 10394 O 980.126 -0.755574 -1.75202 0
M  V30 10395 C 977.266 -1.77772 -2.95789 0
M  V30 10396 C 976.379 -3.05092 -3.05848 0
M  V30 10397 C 975.514 -3.05247 -4.34739 0
M  V30 10398 C 974.553 -4.27053 -4.38512 0
M  V30 10399 N 973.69 -4.24991 -5.58862 0
M  V30 10400 H 978.53 -2.62282 -1.41464 0
M  V30 10401 H 976.067 -1.30023 -0.687921 0
M  V30 10402 H 978.025 -1.81152 -3.75819 0
M  V30 10403 H 976.655 -0.873944 -3.10744 0
M  V30 10404 H 975.707 -3.11219 -2.1874 0
M  V30 10405 H 977.019 -3.95075 -3.04495 0
M  V30 10406 H 976.173 -3.07314 -5.23109 0
M  V30 10407 H 974.912 -2.13081 -4.38689 0
M  V30 10408 H 973.917 -4.25206 -3.4854 0
M  V30 10409 H 975.142 -5.20437 -4.36259 0
M  V30 10410 H 973.088 -3.35674 -5.63612 0
M  V30 10411 H 973.005 -5.08734 -5.59219 0
M  V30 10412 H 974.273 -4.31193 -6.49379 0
M  V30 10413 N 978.502 0.731368 -1.39602 0
M  V30 10414 C 979.727 1.52567 -1.40492 0
M  V30 10415 C 980.152 1.881 -0.00228828 0
M  V30 10416 O 979.51 1.52167 0.985643 0
M  V30 10417 C 979.558 2.78749 -2.2876 0
M  V30 10418 O 978.662 3.7482 -1.71999 0
M  V30 10419 H 978.003 0.460601 -0.478271 0
M  V30 10420 H 980.533 0.902042 -1.83642 0
M  V30 10421 H 980.543 3.27446 -2.43399 0
M  V30 10422 H 979.218 2.5222 -3.30693 0
M  V30 10423 H 977.795 3.33604 -1.66622 0
M  V30 10424 N 979.98 1.24838 0.961938 0
M  V30 10425 C 981.205 1.11967 1.7458 0
M  V30 10426 C 981.63 -0.323287 1.85301 0
M  V30 10427 O 980.988 -1.23412 1.32812 0
M  V30 10428 C 981.036 1.77066 3.14134 0
M  V30 10429 O 980.14 1.04534 3.98932 0
M  V30 10430 H 979.481 0.391338 0.536424 0
M  V30 10431 H 982.011 1.65259 1.20626 0
M  V30 10432 H 982.021 1.83056 3.64629 0
M  V30 10433 H 980.696 2.82052 3.05646 0
M  V30 10434 H 979.273 1.06372 3.57407 0
M  V30 10435 N 981.458 -1.16348 1.06306 0
M  V30 10436 C 982.406 -2.22799 0.668087 0
M  V30 10437 C 983.4 -1.66426 -0.316051 0
M  V30 10438 O 984.606 -1.79089 -0.180902 0
M  V30 10439 H 980.981 -0.725487 0.19792 0
M  V30 10440 H 982.952 -2.53401 1.57577 0
M  V30 10441 C 981.701 -3.47628 0.0706797 0
M  V30 10442 H 981.024 -3.9132 0.819064 0
M  V30 10443 H 982.464 -4.23666 -0.16816 0
M  V30 10444 C 980.923 -3.15343 -1.18577 0
M  V30 10445 O 981.453 -3.31158 -2.27371 0
M  V30 10446 N 979.659 -2.69472 -1.08779 0
M  V30 10447 H 979.206 -2.56803 -0.202447 0
M  V30 10448 H 979.164 -2.48244 -1.92931 0
M  V30 10449 N 982.937 -0.845659 -1.3299 0
M  V30 10450 C 984.177 -0.450819 -1.99366 0
M  V30 10451 C 984.541 0.973297 -1.65502 0
M  V30 10452 O 985.742 1.47222 -2.24898 0
M  V30 10453 C 984.013 -0.672825 -3.5101 0
M  V30 10454 S 985.572 -0.374216 -4.37201 0
M  V30 10455 H 982.39 -0.169273 -0.690556 0
M  V30 10456 H 984.992 -1.09642 -1.61861 0
M  V30 10457 H 983.696 -1.70855 -3.73145 0
M  V30 10458 H 983.227 -0.0133185 -3.93398 0
M  V30 10459 H 985.242 0.803342 -4.89654 0
M  V30 10460 N 984.415 1.45619 -0.602734 0
M  V30 10461 C 985.661 2.02572 -0.0961759 0
M  V30 10462 C 985.994 1.47076 1.26815 0
M  V30 10463 O 985.269 0.643566 1.83544 0
M  V30 10464 C 985.552 3.60062 -0.0520032 0
M  V30 10465 C 985.405 4.25901 -1.44665 0
M  V30 10466 C 986.724 4.35446 0.638342 0
M  V30 10467 H 983.843 0.736099 -0.0364238 0
M  V30 10468 H 986.485 1.7353 -0.773776 0
M  V30 10469 H 984.635 3.84936 0.525032 0
M  V30 10470 H 986.307 4.12228 -2.0704 0
M  V30 10471 H 984.55 3.84489 -2.00874 0
M  V30 10472 H 985.221 5.34779 -1.36803 0
M  V30 10473 H 987.697 4.15837 0.147926 0
M  V30 10474 H 986.573 5.45176 0.63834 0
M  V30 10475 H 986.834 4.07962 1.70351 0
M  V30 10476 N 985.893 0.34162 1.53853 0
M  V30 10477 C 987.139 -0.255862 2.01179 0
M  V30 10478 C 987.472 -1.50356 1.22909 0
M  V30 10479 O 986.747 -1.91913 0.316198 0
M  V30 10480 C 987.03 -0.571934 3.55529 0
M  V30 10481 C 986.883 0.687727 4.44511 0
M  V30 10482 C 988.202 -1.38233 4.17827 0
M  V30 10483 H 985.321 -0.091521 0.731295 0
M  V30 10484 H 987.963 0.461775 1.84303 0
M  V30 10485 H 986.113 -1.18331 3.70041 0
M  V30 10486 H 987.785 1.32572 4.4184 0
M  V30 10487 H 986.028 1.313 4.13452 0
M  V30 10488 H 986.699 0.421858 5.50386 0
M  V30 10489 H 989.175 -0.865374 4.07002 0
M  V30 10490 H 988.051 -1.57223 5.25901 0
M  V30 10491 H 988.312 -2.38386 3.72323 0
M  V30 10492 N 987.371 -1.57444 0.0701946 0
M  V30 10493 C 988.648 -1.84826 -0.6402 0
M  V30 10494 C 989.028 -0.962344 -1.87889 0
M  V30 10495 O 988.376 -0.0282209 -2.28483 0
M  V30 10496 C 988.586 -3.34976 -0.979382 0
M  V30 10497 C 989.934 -4.02448 -1.35355 0
M  V30 10498 O 990.958 -3.39713 -1.07116 0
M  V30 10499 O 989.817 -5.13096 -1.88136 0
M  V30 10500 H 986.911 -0.763494 -0.317813 0
M  V30 10501 H 989.457 -1.69399 0.101004 0
M  V30 10502 H 988.229 -3.91173 -0.0995576 0
M  V30 10503 H 987.852 -3.5566 -1.7774 0
M  V30 10504 N 988.849 0.203349 -1.56283 0
M  V30 10505 C 990.097 0.923183 -1.79782 0
M  V30 10506 C 990.418 1.84134 -0.64185 0
M  V30 10507 O 989.688 1.92922 0.340292 0
M  V30 10508 H 988.268 0.343881 -0.66314 0
M  V30 10509 H 990.93 0.210837 -1.93756 0
M  V30 10510 H 990.026 1.51921 -2.72629 0
M  V30 10511 N 990.327 1.50405 0.470755 0
M  V30 10512 C 991.743 1.37838 0.804534 0
M  V30 10513 C 991.943 0.434743 1.96754 0
M  V30 10514 O 990.999 -0.122507 2.52203 0
M  V30 10515 C 992.312 2.79212 1.11629 0
M  V30 10516 C 993.86 2.88129 1.22272 0
M  V30 10517 C 994.335 4.30337 1.5676 0
M  V30 10518 N 995.826 4.3329 1.63751 0
M  V30 10519 C 996.561 5.4032 1.91942 0
M  V30 10520 N 996.057 6.57558 2.18151 0
M  V30 10521 N 997.85 5.27764 1.93446 0
M  V30 10522 H 990.001 2.10332 -0.295689 0
M  V30 10523 H 992.264 0.945429 -0.0697733 0
M  V30 10524 H 991.97 3.50103 0.334778 0
M  V30 10525 H 991.844 3.16475 2.0524 0
M  V30 10526 H 994.231 2.17457 1.9949 0
M  V30 10527 H 994.312 2.54409 0.2664 0
M  V30 10528 H 993.956 5.01547 0.800817 0
M  V30 10529 H 993.886 4.61545 2.53543 0
M  V30 10530 H 996.377 3.48752 1.45535 0
M  V30 10531 H 996.69 7.34935 2.38936 0
M  V30 10532 H 995.035 6.60732 2.15542 0
M  V30 10533 H 998.226 4.35169 1.72468 0
M  V30 10534 H 998.399 6.11264 2.15081 0
M  V30 10535 N 991.805 -0.723954 1.39988 0
M  V30 10536 C 993.052 -1.48371 1.37812 0
M  V30 10537 C 993.38 -1.94487 -0.0223285 0
M  V30 10538 O 992.635 -1.67906 -1.00529 0
M  V30 10539 C 992.934 -2.73004 2.30659 0
M  V30 10540 C 992.6 -2.45698 3.78078 0
M  V30 10541 C 991.262 -2.37961 4.18244 0
M  V30 10542 C 993.614 -2.22601 4.71273 0
M  V30 10543 C 990.942 -2.05183 5.49652 0
M  V30 10544 C 993.294 -1.91339 6.0297 0
M  V30 10545 C 991.958 -1.82078 6.42187 0
M  V30 10546 H 991.228 -0.542929 0.504291 0
M  V30 10547 H 993.875 -0.829986 1.72579 0
M  V30 10548 H 992.18 -3.43174 1.89048 0
M  V30 10549 H 993.877 -3.31068 2.26263 0
M  V30 10550 H 990.467 -2.52603 3.46251 0
M  V30 10551 H 994.651 -2.2754 4.41066 0
M  V30 10552 H 989.907 -1.96544 5.78948 0
M  V30 10553 H 994.081 -1.72479 6.74703 0
M  V30 10554 H 991.708 -1.56446 7.43928 0
M  V30 10555 N 993.283 -1.25346 -0.955304 0
M  V30 10556 C 994.529 -1.10218 -1.70235 0
M  V30 10557 C 994.862 0.356124 -1.90907 0
M  V30 10558 O 994.137 1.26253 -1.47954 0
M  V30 10559 C 994.42 -1.85627 -3.08569 0
M  V30 10560 C 994.273 -3.39281 -2.95311 0
M  V30 10561 C 995.592 -1.63886 -4.08448 0
M  V30 10562 H 992.711 -0.401781 -0.617852 0
M  V30 10563 H 995.353 -1.5417 -1.11048 0
M  V30 10564 H 993.503 -1.48269 -3.59094 0
M  V30 10565 H 995.175 -3.8631 -2.52116 0
M  V30 10566 H 993.418 -3.67027 -2.31244 0
M  V30 10567 H 994.089 -3.87258 -3.93364 0
M  V30 10568 H 996.565 -1.96406 -3.6683 0
M  V30 10569 H 995.441 -2.19087 -5.03281 0
M  V30 10570 H 995.702 -0.580021 -4.38279 0
M  V30 10571 N 994.761 1.15782 -1.06922 0
M  V30 10572 C 995.691 2.22538 -0.707045 0
M  V30 10573 C 996.672 1.67371 0.303471 0
M  V30 10574 O 997.857 1.9339 0.177189 0
M  V30 10575 C 994.987 3.47158 -0.0994269 0
M  V30 10576 C 993.941 4.15257 -1.03661 0
M  V30 10577 C 993.267 5.33902 -0.291974 0
M  V30 10578 C 994.567 4.65516 -2.36837 0
M  V30 10579 H 996.261 2.53089 -1.59958 0
M  V30 10580 H 993.807 1.21649 -0.770552 0
M  V30 10581 H 995.76 4.21073 0.165852 0
M  V30 10582 H 994.484 3.15926 0.828155 0
M  V30 10583 H 993.143 3.43276 -1.28674 0
M  V30 10584 H 992.791 4.98926 0.638928 0
M  V30 10585 H 992.491 5.80407 -0.916613 0
M  V30 10586 H 994.015 6.1059 -0.0343915 0
M  V30 10587 H 995.429 5.30981 -2.16175 0
M  V30 10588 H 993.826 5.22666 -2.94856 0
M  V30 10589 H 994.896 3.81387 -2.99453 0
M  V30 10590 N 996.239 0.8527 1.3254 0
M  V30 10591 C 997.186 0.293905 2.28921 0
M  V30 10592 C 998.156 -0.598027 1.54961 0
M  V30 10593 O 999.341 -0.533355 1.83194 0
M  V30 10594 C 996.481 -0.513361 3.4126 0
M  V30 10595 C 995.594 0.404144 4.30105 0
M  V30 10596 C 994.729 -0.415564 5.29572 0
M  V30 10597 C 993.768 0.499461 6.10059 0
M  V30 10598 N 992.905 -0.282949 7.0153 0
M  V30 10599 H 997.745 1.12107 2.76109 0
M  V30 10600 H 995.282 0.564272 1.35847 0
M  V30 10601 H 997.24 -0.997008 4.05112 0
M  V30 10602 H 995.87 -1.30537 2.95229 0
M  V30 10603 H 994.922 1.00617 3.66852 0
M  V30 10604 H 996.234 1.10648 4.86373 0
M  V30 10605 H 995.388 -0.962458 5.99017 0
M  V30 10606 H 994.127 -1.15127 4.73917 0
M  V30 10607 H 993.132 1.05825 5.39519 0
M  V30 10608 H 994.357 1.23375 6.67799 0
M  V30 10609 H 992.303 -1.00179 6.48306 0
M  V30 10610 H 992.22 0.36039 7.55141 0
M  V30 10611 H 993.488 -0.811632 7.75263 0
M  V30 10612 N 997.718 -1.45297 0.610449 0
M  V30 10613 C 998.967 -2.0143 0.104323 0
M  V30 10614 C 999.28 -1.48431 -1.27388 0
M  V30 10615 O 1000.49 -1.96558 -1.87289 0
M  V30 10616 C 998.942 -3.59644 0.135812 0
M  V30 10617 C 998.55 -4.2164 1.51405 0
M  V30 10618 C 1000.29 -4.2333 -0.314922 0
M  V30 10619 C 998.201 -5.72015 1.50176 0
M  V30 10620 H 997.131 -0.753176 0.035233 0
M  V30 10621 H 999.782 -1.66738 0.7662 0
M  V30 10622 H 998.164 -3.91538 -0.592773 0
M  V30 10623 H 999.338 -4.01315 2.26457 0
M  V30 10624 H 997.653 -3.70159 1.90712 0
M  V30 10625 H 1000.25 -5.33597 -0.343335 0
M  V30 10626 H 1000.59 -3.94206 -1.33817 0
M  V30 10627 H 1001.13 -3.96163 0.360489 0
M  V30 10628 H 997.865 -6.05842 2.50271 0
M  V30 10629 H 997.385 -5.94523 0.793869 0
M  V30 10630 H 999.064 -6.35266 1.22665 0
M  V30 10631 N 999.196 -0.349774 -1.5367 0
M  V30 10632 C 1000.42 0.246038 -2.05432 0
M  V30 10633 C 1000.84 1.43719 -1.22435 0
M  V30 10634 O 1000.2 1.80622 -0.261166 0
M  V30 10635 C 1000.25 0.65501 -3.55516 0
M  V30 10636 O 999.968 -0.488782 -4.35365 0
M  V30 10637 C 1001.47 1.31088 -4.23475 0
M  V30 10638 H 998.689 0.0463952 -0.669394 0
M  V30 10639 H 1001.23 -0.503566 -1.98203 0
M  V30 10640 H 999.388 1.35455 -3.62947 0
M  V30 10641 H 999.802 -0.161528 -5.24251 0
M  V30 10642 H 1001.28 1.54774 -5.29857 0
M  V30 10643 H 1001.75 2.26636 -3.76208 0
M  V30 10644 H 1002.36 0.653211 -4.20254 0
M  V30 10645 N 1000.67 1.57404 -0.0785433 0
M  V30 10646 C 1001.95 1.85163 0.630389 0
M  V30 10647 C 1002.33 0.972295 1.87376 0
M  V30 10648 O 1001.68 0.0403375 2.28464 0
M  V30 10649 C 1001.89 3.35491 0.961604 0
M  V30 10650 C 1003.24 4.0316 1.33219 0
M  V30 10651 O 1004.26 3.40276 1.05313 0
M  V30 10652 O 1003.12 5.14086 1.85412 0
M  V30 10653 H 1000.21 0.765169 0.31376 0
M  V30 10654 H 1002.76 1.69343 -0.109986 0
M  V30 10655 H 1001.53 3.91221 0.0788113 0
M  V30 10656 H 1001.15 3.56598 1.75852 0
M  V30 10657 N 1002.15 -0.195058 1.56388 0
M  V30 10658 C 1003.38 -0.930291 1.8447 0
M  V30 10659 C 1003.79 -1.77356 0.658901 0
M  V30 10660 O 1003.13 -1.79691 -0.381664 0
M  V30 10661 C 1003.19 -1.87626 3.06654 0
M  V30 10662 C 1002.86 -1.21494 4.40555 0
M  V30 10663 C 1003.86 -0.591847 5.1652 0
M  V30 10664 C 1001.54 -1.21878 4.8729 0
M  V30 10665 C 1003.53 0.0185743 6.37397 0
M  V30 10666 C 1001.22 -0.604524 6.08103 0
M  V30 10667 C 1002.22 0.0130731 6.82999 0
M  V30 10668 O 1001.91 0.617703 8.01523 0
M  V30 10669 H 1001.64 -0.276933 0.616672 0
M  V30 10670 H 1004.19 -0.207277 2.04351 0
M  V30 10671 H 1002.42 -2.63897 2.82658 0
M  V30 10672 H 1004.11 -2.47929 3.21382 0
M  V30 10673 H 1004.88 -0.581018 4.81507 0
M  V30 10674 H 1000.76 -1.68888 4.2895 0
M  V30 10675 H 1004.3 0.50124 6.95797 0
M  V30 10676 H 1000.2 -0.612855 6.42584 0
M  V30 10677 H 1000.97 0.514612 8.16881 0
M  V30 10678 N 1003.63 -1.50653 -0.462772 0
M  V30 10679 C 1004.88 -1.61737 -1.21184 0
M  V30 10680 C 1005.2 -0.32369 -1.92295 0
M  V30 10681 O 1004.47 0.659269 -1.84473 0
M  V30 10682 H 1003.05 -0.596015 -0.450306 0
M  V30 10683 H 1005.71 -1.87469 -0.533051 0
M  V30 10684 H 1004.81 -2.43262 -1.95525 0
M  V30 10685 N 1005.11 0.71652 -1.4037 0
M  V30 10686 C 1006.04 1.84345 -1.43315 0
M  V30 10687 C 1007.02 1.67537 -0.294186 0
M  V30 10688 O 1008.2 1.87582 -0.502671 0
M  V30 10689 C 1005.33 3.2229 -1.29408 0
M  V30 10690 C 1004.29 3.53769 -2.40897 0
M  V30 10691 C 1003.61 4.90847 -2.12068 0
M  V30 10692 C 1004.91 3.54862 -3.83237 0
M  V30 10693 H 1006.61 1.82138 -2.37626 0
M  V30 10694 H 1004.15 0.874873 -1.14376 0
M  V30 10695 H 1006.11 4.00819 -1.30085 0
M  V30 10696 H 1004.83 3.2507 -0.31573 0
M  V30 10697 H 1003.49 2.77579 -2.39469 0
M  V30 10698 H 1003.14 4.90229 -1.12626 0
M  V30 10699 H 1002.84 5.12875 -2.86762 0
M  V30 10700 H 1004.36 5.71711 -2.14426 0
M  V30 10701 H 1005.78 4.23432 -3.86494 0
M  V30 10702 H 1004.17 3.88416 -4.57442 0
M  V30 10703 H 1005.24 2.54266 -4.12888 0
M  V30 10704 N 1006.59 1.25851 0.948643 0
M  V30 10705 C 1007.5 1.08516 2.07994 0
M  V30 10706 C 1008.51 0.0206696 1.73988 0
M  V30 10707 O 1009.69 0.222854 2.00163 0
M  V30 10708 C 1006.75 0.712145 3.39307 0
M  V30 10709 C 1005.81 1.85523 3.87143 0
M  V30 10710 C 1005.05 1.49992 5.1219 0
M  V30 10711 O 1005.27 0.398268 5.69008 0
M  V30 10712 O 1004.2 2.33215 5.54882 0
M  V30 10713 H 1008.03 2.03405 2.25522 0
M  V30 10714 H 1005.62 1.04844 1.06433 0
M  V30 10715 H 1007.5 0.516512 4.18223 0
M  V30 10716 H 1006.17 -0.207416 3.23035 0
M  V30 10717 H 1005.08 2.10578 3.09205 0
M  V30 10718 H 1006.41 2.75425 4.07924 0
M  V30 10719 N 1008.06 -1.15214 1.07534 0
M  V30 10720 C 1009.29 -1.90463 0.820883 0
M  V30 10721 C 1009.71 -1.77578 -0.620305 0
M  V30 10722 O 1009.07 -1.10976 -1.43366 0
M  V30 10723 C 1009.12 -3.38746 1.23627 0
M  V30 10724 O 1008.22 -4.1062 0.382715 0
M  V30 10725 H 1007.57 -0.59292 0.298901 0
M  V30 10726 H 1010.1 -1.45893 1.43445 0
M  V30 10727 H 1010.11 -3.89543 1.21327 0
M  V30 10728 H 1008.78 -3.47443 2.28596 0
M  V30 10729 H 1007.36 -3.69947 0.468374 0
M  V30 10730 N 1009.54 -0.859717 -1.32086 0
M  V30 10731 C 1010.79 -0.465581 -1.97075 0
M  V30 10732 C 1011.12 0.979917 -1.68012 0
M  V30 10733 O 1010.37 1.70337 -0.96353 0
M  V30 10734 C 1010.67 -0.657397 -3.51302 0
M  V30 10735 C 1010.34 -2.07413 -4.00363 0
M  V30 10736 C 1009 -2.4616 -4.13472 0
M  V30 10737 C 1011.35 -2.99855 -4.26305 0
M  V30 10738 C 1008.68 -3.76611 -4.49868 0
M  V30 10739 C 1011.03 -4.2981 -4.64161 0
M  V30 10740 C 1009.7 -4.68485 -4.75476 0
M  V30 10741 H 1008.97 -0.170368 -0.721149 0
M  V30 10742 H 1011.61 -1.09074 -1.57401 0
M  V30 10743 H 1009.92 0.0509638 -3.91767 0
M  V30 10744 H 1011.61 -0.332416 -3.9962 0
M  V30 10745 H 1008.2 -1.76327 -3.90649 0
M  V30 10746 H 1012.39 -2.7115 -4.15682 0
M  V30 10747 H 1007.64 -4.06352 -4.56824 0
M  V30 10748 H 1011.82 -5.015 -4.83188 0
M  V30 10749 H 1009.45 -5.69612 -5.03435 0
M  V30 10750 N 1011.02 1.44971 -0.618145 0
M  V30 10751 C 1012.44 1.57077 -0.282666 0
M  V30 10752 C 1012.64 1.60782 1.21456 0
M  V30 10753 O 1011.69 1.54382 1.99806 0
M  V30 10754 C 1013.01 2.84858 -0.963148 0
M  V30 10755 C 1014.55 2.9855 -0.940062 0
M  V30 10756 C 1015.03 4.29115 -1.60076 0
M  V30 10757 N 1016.52 4.35899 -1.56674 0
M  V30 10758 C 1017.25 5.35617 -2.04701 0
M  V30 10759 N 1016.75 6.41813 -2.6086 0
M  V30 10760 N 1018.54 5.27042 -1.95406 0
M  V30 10761 H 1010.69 1.4081 -1.59017 0
M  V30 10762 H 1012.96 0.673914 -0.666741 0
M  V30 10763 H 1012.66 2.88059 -2.0178 0
M  V30 10764 H 1012.54 3.73966 -0.492901 0
M  V30 10765 H 1014.92 2.94909 0.10607 0
M  V30 10766 H 1015.01 2.10825 -1.44868 0
M  V30 10767 H 1014.65 4.33514 -2.64627 0
M  V30 10768 H 1014.58 5.15675 -1.06708 0
M  V30 10769 H 1017.07 3.59766 -1.15659 0
M  V30 10770 H 1017.38 7.14166 -2.95273 0
M  V30 10771 H 1015.73 6.42534 -2.64905 0
M  V30 10772 H 1018.92 4.42987 -1.51263 0
M  V30 10773 H 1019.09 6.04604 -2.33147 0
M  V30 10774 N 1012.5 0.357919 1.53482 0
M  V30 10775 C 1013.78 -0.290164 1.93436 0
M  V30 10776 C 1014.16 -1.67039 1.29079 0
M  V30 10777 O 1013.5 -2.24085 0.447017 0
M  V30 10778 C 1013.71 -0.348055 3.4726 0
M  V30 10779 C 1015.06 -0.59206 4.20452 0
M  V30 10780 O 1016.09 -0.429581 3.536 0
M  V30 10781 O 1014.94 -0.907855 5.38907 0
M  V30 10782 H 1012.04 -0.172312 0.80885 0
M  V30 10783 H 1014.58 0.410144 1.64669 0
M  V30 10784 H 1013.36 0.619953 3.86358 0
M  V30 10785 H 1012.98 -1.09457 3.82237 0
M  V30 10786 N 1013.98 -1.5736 0.0868897 0
M  V30 10787 C 1014.91 -2.16596 -0.872252 0
M  V30 10788 C 1015.89 -1.09706 -1.29995 0
M  V30 10789 O 1017.07 -1.37808 -1.36831 0
M  V30 10790 C 1014.2 -2.73972 -2.1344 0
M  V30 10791 C 1013.16 -3.86163 -1.8456 0
M  V30 10792 C 1012.48 -4.30206 -3.17533 0
M  V30 10793 C 1013.78 -5.0973 -1.13899 0
M  V30 10794 H 1015.48 -2.96995 -0.378738 0
M  V30 10795 H 1013.02 -1.42861 -0.18073 0
M  V30 10796 H 1014.98 -3.14062 -2.80968 0
M  V30 10797 H 1013.7 -1.90817 -2.6506 0
M  V30 10798 H 1012.36 -3.466 -1.19432 0
M  V30 10799 H 1012.01 -3.43951 -3.67024 0
M  V30 10800 H 1011.71 -5.05841 -2.98996 0
M  V30 10801 H 1013.23 -4.72922 -3.86234 0
M  V30 10802 H 1014.64 -5.4704 -1.71523 0
M  V30 10803 H 1013.04 -5.90741 -1.05569 0
M  V30 10804 H 1014.11 -4.8475 -0.120432 0
M  V30 10805 N 1015.45 0.186762 -1.56489 0
M  V30 10806 C 1016.73 0.932229 -1.71956 0
M  V30 10807 C 1017.11 2.01037 -0.644006 0
M  V30 10808 O 1016.46 2.259 0.343694 0
M  V30 10809 C 1016.67 1.51106 -3.14592 0
M  V30 10810 C 1018.02 1.98997 -3.75081 0
M  V30 10811 O 1019.04 1.60931 -3.17773 0
M  V30 10812 O 1017.9 2.69067 -4.75673 0
M  V30 10813 H 1014.99 0.437736 -0.701652 0
M  V30 10814 H 1017.54 0.175803 -1.68787 0
M  V30 10815 H 1016.31 0.734327 -3.84348 0
M  V30 10816 H 1015.94 2.33209 -3.22024 0
M  V30 10817 N 1016.93 1.50896 0.454776 0
M  V30 10818 C 1018.34 1.55372 1.0352 0
M  V30 10819 C 1018.69 0.366822 1.9274 0
M  V30 10820 O 1017.82 -0.518444 2.10098 0
M  V30 10821 C 1018.41 2.81574 1.88418 0
M  V30 10822 C 1016.97 2.88679 2.4154 0
M  V30 10823 C 1016.12 2.49847 1.20298 0
M  V30 10824 H 1019.07 1.56924 0.236729 0
M  V30 10825 H 1019.09 2.64352 2.73676 0
M  V30 10826 H 1018.6 3.67941 1.23455 0
M  V30 10827 H 1016.71 2.06702 3.10008 0
M  V30 10828 H 1016.82 3.91944 2.7553 0
M  V30 10829 H 1015.18 2.02651 1.54288 0
M  V30 10830 H 1015.97 3.3854 0.569723 0
M  V30 10831 N 1018.41 -0.709066 1.40748 0
M  V30 10832 C 1019.32 -1.85314 1.43861 0
M  V30 10833 C 1020.34 -1.70832 0.330539 0
M  V30 10834 O 1021.51 -1.92983 0.576152 0
M  V30 10835 C 1018.58 -3.21174 1.30568 0
M  V30 10836 C 1017.64 -3.47863 2.51574 0
M  V30 10837 C 1016.87 -4.77241 2.38906 0
M  V30 10838 O 1017.09 -5.52791 1.40636 0
M  V30 10839 O 1016.03 -5.04413 3.28407 0
M  V30 10840 H 1019.85 -1.85644 2.40354 0
M  V30 10841 H 1017.44 -0.860352 1.2214 0
M  V30 10842 H 1019.32 -4.02313 1.25388 0
M  V30 10843 H 1018 -3.21557 0.371841 0
M  V30 10844 H 1016.9 -2.66708 2.62331 0
M  V30 10845 H 1018.24 -3.52283 3.43741 0
M  V30 10846 N 1019.89 -1.26353 -0.941956 0
M  V30 10847 C 1020.82 -1.03634 -2.04432 0
M  V30 10848 C 1021.83 0.00295864 -1.628 0
M  V30 10849 O 1023.02 -0.237029 -1.76919 0
M  V30 10850 C 1020.12 -0.547231 -3.34453 0
M  V30 10851 C 1019.3 -1.65559 -4.04857 0
M  V30 10852 C 1018.36 -1.16466 -5.13149 0
M  V30 10853 O 1017.38 -1.86158 -5.37898 0
M  V30 10854 N 1018.58 -0.0126703 -5.80499 0
M  V30 10855 H 1021.35 -1.98558 -2.24488 0
M  V30 10856 H 1018.91 -1.17728 -1.11138 0
M  V30 10857 H 1020.9 -0.203004 -4.04191 0
M  V30 10858 H 1019.47 0.308401 -3.11075 0
M  V30 10859 H 1018.69 -2.17079 -3.29044 0
M  V30 10860 H 1019.98 -2.39985 -4.48647 0
M  V30 10861 H 1019.38 0.569358 -5.62828 0
M  V30 10862 H 1017.93 0.272486 -6.5123 0
M  V30 10863 N 1021.37 1.14642 -1.08144 0
M  V30 10864 C 1022.62 1.8525 -0.807885 0
M  V30 10865 C 1022.94 1.83194 0.668213 0
M  V30 10866 O 1022.21 1.27848 1.48431 0
M  V30 10867 H 1020.79 0.685909 -0.295868 0
M  V30 10868 H 1023.45 1.38935 -1.36686 0
M  V30 10869 H 1022.54 2.90155 -1.14964 0
M  V30 10870 N 1022.85 0.866709 1.31628 0
M  V30 10871 C 1023.8 0.291712 2.26126 0
M  V30 10872 C 1024.78 -0.569375 1.50489 0
M  V30 10873 O 1025.97 -0.416786 1.72023 0
M  V30 10874 C 1023.1 -0.508624 3.39511 0
M  V30 10875 C 1022.19 0.365524 4.22522 0
M  V30 10876 N 1022.58 1.45747 4.84346 0
M  V30 10877 C 1020.88 0.157384 4.45722 0
M  V30 10878 C 1021.58 1.99625 5.46374 0
M  V30 10879 N 1020.55 1.29371 5.27981 0
M  V30 10880 H 1024.35 1.12633 2.71461 0
M  V30 10881 H 1021.87 0.714118 1.45857 0
M  V30 10882 H 1023.87 -0.937057 4.06233 0
M  V30 10883 H 1022.53 -1.34089 2.9572 0
M  V30 10884 H 1023.54 1.84039 4.84097 0
M  V30 10885 H 1020.21 -0.639193 4.12578 0
M  V30 10886 H 1021.6 2.91222 6.05508 0
M  V30 10887 N 1024.32 -1.44642 0.625825 0
M  V30 10888 C 1025.55 -2.06458 0.135116 0
M  V30 10889 C 1025.97 -1.46729 -1.18811 0
M  V30 10890 O 1025.32 -0.58818 -1.72762 0
M  V30 10891 C 1025.37 -3.61499 0.00850114 0
M  V30 10892 O 1025.1 -4.19002 1.2794 0
M  V30 10893 C 1026.6 -4.40339 -0.511527 0
M  V30 10894 H 1023.82 -0.666541 0.0772294 0
M  V30 10895 H 1026.36 -1.85597 0.858726 0
M  V30 10896 H 1024.52 -3.81641 -0.665522 0
M  V30 10897 H 1024.93 -5.12385 1.12081 0
M  V30 10898 H 1026.4 -5.49262 -0.549149 0
M  V30 10899 H 1026.88 -4.11409 -1.53752 0
M  V30 10900 H 1027.49 -4.25104 0.129066 0
M  V30 10901 N 1025.8 -0.366053 -1.5329 0
M  V30 10902 C 1027.05 0.223824 -2.01561 0
M  V30 10903 C 1027.38 1.48382 -1.25286 0
M  V30 10904 O 1026.66 1.91385 -0.34669 0
M  V30 10905 C 1026.94 0.5153 -3.56394 0
M  V30 10906 C 1026.79 -0.758357 -4.43361 0
M  V30 10907 C 1028.11 1.31568 -4.19974 0
M  V30 10908 H 1025.23 0.0798751 -0.732659 0
M  V30 10909 H 1027.87 -0.491038 -1.83545 0
M  V30 10910 H 1026.02 1.12429 -3.71876 0
M  V30 10911 H 1027.69 -1.39584 -4.39675 0
M  V30 10912 H 1025.94 -1.37862 -4.11311 0
M  V30 10913 H 1026.61 -0.509366 -5.49645 0
M  V30 10914 H 1029.08 0.800514 -4.08327 0
M  V30 10915 H 1027.96 1.48837 -5.28336 0
M  V30 10916 H 1028.22 2.32432 -3.76069 0
M  V30 10917 N 1027.28 1.57312 -0.0952337 0
M  V30 10918 C 1028.51 1.98409 0.575984 0
M  V30 10919 C 1028.92 0.973168 1.62253 0
M  V30 10920 O 1028.26 -0.0454416 1.83644 0
M  V30 10921 C 1028.32 3.35877 1.28167 0
M  V30 10922 C 1027.99 4.55368 0.385868 0
M  V30 10923 C 1028.98 5.1861 -0.366041 0
M  V30 10924 C 1026.67 5.0138 0.303885 0
M  V30 10925 C 1028.66 6.26233 -1.18791 0
M  V30 10926 C 1026.35 6.0887 -0.521637 0
M  V30 10927 C 1027.35 6.71161 -1.26618 0
M  V30 10928 O 1027.04 7.76577 -2.07804 0
M  V30 10929 H 1026.77 0.657018 0.159068 0
M  V30 10930 H 1029.32 2.04685 -0.171237 0
M  V30 10931 H 1027.55 3.26284 2.07547 0
M  V30 10932 H 1029.24 3.6142 1.84744 0
M  V30 10933 H 1030.01 4.83993 -0.312435 0
M  V30 10934 H 1025.89 4.52657 0.873065 0
M  V30 10935 H 1029.43 6.74784 -1.76955 0
M  V30 10936 H 1025.33 6.42918 -0.576722 0
M  V30 10937 H 1026.09 7.93566 -2.00489 0
M  V30 10938 N 1028.76 -0.17846 1.56586 0
M  V30 10939 C 1029.72 -1.20479 1.94981 0
M  V30 10940 C 1030.72 -1.37561 0.832677 0
M  V30 10941 O 1031.91 -1.35089 1.09984 0
M  V30 10942 C 1029.04 -2.57117 2.23839 0
M  V30 10943 H 1030.24 -0.876173 2.86816 0
M  V30 10944 H 1027.79 -0.420635 1.50534 0
M  V30 10945 H 1028.52 -2.95005 1.34695 0
M  V30 10946 H 1028.31 -2.46086 3.05261 0
M  V30 10947 H 1029.8 -3.31096 2.5449 0
M  V30 10948 N 1030.24 -1.51135 -0.446768 0
M  V30 10949 C 1031.18 -1.71767 -1.54158 0
M  V30 10950 C 1032.15 -0.559201 -1.56404 0
M  V30 10951 O 1033.34 -0.792567 -1.7356 0
M  V30 10952 C 1030.48 -1.84006 -2.91952 0
M  V30 10953 C 1029.59 -3.11511 -2.99308 0
M  V30 10954 C 1028.73 -3.144 -4.28166 0
M  V30 10955 C 1027.76 -4.36258 -4.29355 0
M  V30 10956 N 1026.9 -4.3675 -5.49722 0
M  V30 10957 H 1031.74 -2.65224 -1.35869 0
M  V30 10958 H 1029.28 -1.31453 -0.660186 0
M  V30 10959 H 1031.24 -1.89083 -3.71892 0
M  V30 10960 H 1029.87 -0.939661 -3.08821 0
M  V30 10961 H 1028.92 -3.15788 -2.12089 0
M  V30 10962 H 1030.23 -4.01445 -2.96047 0
M  V30 10963 H 1029.38 -3.18341 -5.16473 0
M  V30 10964 H 1028.12 -2.22338 -4.3407 0
M  V30 10965 H 1027.13 -4.32503 -3.39442 0
M  V30 10966 H 1028.35 -5.29574 -4.25122 0
M  V30 10967 H 1026.3 -3.47554 -5.56365 0
M  V30 10968 H 1026.22 -5.20481 -5.48302 0
M  V30 10969 H 1027.48 -4.4487 -6.40086 0
M  V30 10970 N 1031.71 0.701592 -1.41122 0
M  V30 10971 C 1032.66 1.81559 -1.42495 0
M  V30 10972 C 1033.63 1.63722 -0.280078 0
M  V30 10973 O 1034.82 1.84658 -0.480231 0
M  V30 10974 C 1031.96 3.19392 -1.30702 0
M  V30 10975 C 1031.07 3.48704 -2.55009 0
M  V30 10976 C 1030.2 4.76118 -2.35554 0
M  V30 10977 C 1029.24 4.98378 -3.55367 0
M  V30 10978 N 1028.38 6.17014 -3.3502 0
M  V30 10979 H 1033.22 1.7972 -2.37707 0
M  V30 10980 H 1030.76 0.877727 -1.18044 0
M  V30 10981 H 1032.71 3.99004 -1.21867 0
M  V30 10982 H 1031.34 3.20423 -0.391012 0
M  V30 10983 H 1030.4 2.63542 -2.74317 0
M  V30 10984 H 1031.71 3.61057 -3.44151 0
M  V30 10985 H 1030.86 5.63774 -2.24152 0
M  V30 10986 H 1029.6 4.66 -1.43859 0
M  V30 10987 H 1028.61 4.09172 -3.6723 0
M  V30 10988 H 1029.83 5.10359 -4.48007 0
M  V30 10989 H 1027.78 6.0812 -2.4602 0
M  V30 10990 H 1027.69 6.30107 -4.17733 0
M  V30 10991 H 1028.96 7.0742 -3.27379 0
M  V30 10992 N 1033.19 1.2685 0.935242 0
M  V30 10993 C 1034.12 1.1143 2.05196 0
M  V30 10994 C 1035.1 0.0178362 1.70091 0
M  V30 10995 O 1036.29 0.190951 1.93259 0
M  V30 10996 C 1033.42 0.752779 3.39044 0
M  V30 10997 C 1032.37 1.80164 3.88233 0
M  V30 10998 C 1031.7 1.29428 5.18799 0
M  V30 10999 C 1033 3.20431 4.12457 0
M  V30 11000 H 1034.69 2.04845 2.18355 0
M  V30 11001 H 1032.24 0.986276 1.04922 0
M  V30 11002 H 1034.19 0.631757 4.16637 0
M  V30 11003 H 1032.91 -0.217075 3.25878 0
M  V30 11004 H 1031.57 1.91144 3.12825 0
M  V30 11005 H 1031.22 0.3141 5.02018 0
M  V30 11006 H 1030.92 1.99546 5.5268 0
M  V30 11007 H 1032.45 1.18605 5.9897 0
M  V30 11008 H 1033.86 3.12495 4.80645 0
M  V30 11009 H 1032.26 3.88193 4.57631 0
M  V30 11010 H 1033.33 3.66046 3.18023 0
M  V30 11011 N 1034.67 -1.14067 1.0875 0
M  V30 11012 C 1035.92 -1.85677 0.830392 0
M  V30 11013 C 1036.27 -1.81549 -0.637016 0
M  V30 11014 O 1035.56 -1.23774 -1.46255 0
M  V30 11015 C 1035.76 -3.33273 1.29089 0
M  V30 11016 C 1035.59 -3.51774 2.80153 0
M  V30 11017 C 1034.36 -3.66419 3.47944 0
M  V30 11018 C 1036.56 -3.48399 3.78316 0
M  V30 11019 N 1034.54 -3.73112 4.87504 0
M  V30 11020 C 1035.91 -3.61378 5.03791 0
M  V30 11021 C 1037.96 -3.31758 3.7127 0
M  V30 11022 C 1036.67 -3.59435 6.23056 0
M  V30 11023 C 1038.69 -3.31119 4.90014 0
M  V30 11024 C 1038.05 -3.44643 6.1433 0
M  V30 11025 H 1034.15 -0.695948 0.356625 0
M  V30 11026 H 1036.74 -1.36687 1.38654 0
M  V30 11027 H 1034.91 -3.80846 0.762274 0
M  V30 11028 H 1036.64 -3.92659 0.979828 0
M  V30 11029 H 1033.4 -3.67799 2.98364 0
M  V30 11030 H 1033.82 -3.80167 5.6018 0
M  V30 11031 H 1038.46 -3.2021 2.76089 0
M  V30 11032 H 1036.18 -3.69758 7.18544 0
M  V30 11033 H 1039.77 -3.1945 4.86254 0
M  V30 11034 H 1038.65 -3.44101 7.04673 0
M  V30 11035 N 1036.15 -0.873678 -1.31166 0
M  V30 11036 C 1037.38 -0.501043 -2.00742 0
M  V30 11037 C 1037.79 0.907477 -1.65561 0
M  V30 11038 O 1037.15 1.59507 -0.886771 0
M  V30 11039 C 1037.2 -0.652877 -3.55556 0
M  V30 11040 O 1036.92 -2.00593 -3.89479 0
M  V30 11041 C 1038.42 -0.281742 -4.42404 0
M  V30 11042 H 1035.64 -0.194829 -0.642092 0
M  V30 11043 H 1038.19 -1.17587 -1.67313 0
M  V30 11044 H 1036.34 -0.0255627 -3.87392 0
M  V30 11045 H 1036.75 -2.01638 -4.84193 0
M  V30 11046 H 1038.23 -0.43892 -5.50252 0
M  V30 11047 H 1038.71 0.779389 -4.32229 0
M  V30 11048 H 1039.31 -0.88491 -4.15992 0
M  V30 11049 N 1037.63 1.44308 -0.633487 0
M  V30 11050 C 1038.59 2.2912 0.060376 0
M  V30 11051 C 1039.59 1.41166 0.769992 0
M  V30 11052 O 1040.78 1.63012 0.614224 0
M  V30 11053 C 1037.91 3.22798 1.0961 0
M  V30 11054 H 1039.1 2.91958 -0.685617 0
M  V30 11055 H 1036.66 1.51259 -0.393738 0
M  V30 11056 H 1037.39 2.64815 1.87199 0
M  V30 11057 H 1037.18 3.87618 0.591161 0
M  V30 11058 H 1038.67 3.86504 1.58127 0
M  V30 11059 N 1039.1 0.374177 1.53094 0
M  V30 11060 C 1040.52 -0.103172 1.86415 0
M  V30 11061 C 1040.87 -1.47439 1.29446 0
M  V30 11062 O 1039.99 -2.07333 0.619853 0
M  V30 11063 C 1040.59 -0.193988 3.38244 0
M  V30 11064 C 1039.15 -0.615605 3.71332 0
M  V30 11065 C 1038.29 0.23186 2.76329 0
M  V30 11066 H 1041.24 0.592644 1.47219 0
M  V30 11067 H 1041.26 -1.01597 3.66686 0
M  V30 11068 H 1040.78 0.80414 3.79678 0
M  V30 11069 H 1038.88 -1.62165 3.3546 0
M  V30 11070 H 1038.99 -0.38425 4.77557 0
M  V30 11071 H 1037.35 -0.300579 2.5292 0
M  V30 11072 H 1038.14 1.22769 3.20597 0
M  V30 11073 N 1040.58 -1.57259 0.103575 0
M  V30 11074 C 1041.49 -2.18018 -0.866327 0
M  V30 11075 C 1042.51 -1.15198 -1.30404 0
M  V30 11076 O 1043.68 -1.47605 -1.37021 0
M  V30 11077 C 1040.75 -2.75533 -2.10434 0
M  V30 11078 C 1039.81 -3.93337 -1.72002 0
M  V30 11079 C 1039.04 -4.481 -2.89901 0
M  V30 11080 O 1039.27 -4.01784 -4.04877 0
M  V30 11081 O 1038.2 -5.39004 -2.67877 0
M  V30 11082 H 1042.03 -3.01322 -0.379338 0
M  V30 11083 H 1039.61 -1.48907 -0.121228 0
M  V30 11084 H 1041.49 -3.12259 -2.8297 0
M  V30 11085 H 1040.17 -1.9527 -2.58169 0
M  V30 11086 H 1039.08 -3.61408 -0.966193 0
M  V30 11087 H 1040.41 -4.74989 -1.29022 0
M  V30 11088 N 1042.06 0.170153 -1.56679 0
M  V30 11089 C 1042.99 1.21285 -1.9953 0
M  V30 11090 C 1043.97 1.46104 -0.871071 0
M  V30 11091 O 1045.16 1.57419 -1.13724 0
M  V30 11092 C 1042.29 2.5515 -2.35618 0
M  V30 11093 C 1041.24 2.44898 -3.51011 0
M  V30 11094 C 1040.57 3.83263 -3.72845 0
M  V30 11095 C 1041.87 1.95271 -4.84424 0
M  V30 11096 H 1043.56 0.856646 -2.86883 0
M  V30 11097 H 1041.11 0.410634 -1.38021 0
M  V30 11098 H 1043.06 3.28299 -2.64193 0
M  V30 11099 H 1041.78 2.92561 -1.45175 0
M  V30 11100 H 1040.44 1.74203 -3.22566 0
M  V30 11101 H 1040.09 4.18069 -2.79691 0
M  V30 11102 H 1039.79 3.77272 -4.50488 0
M  V30 11103 H 1041.31 4.57996 -4.03822 0
M  V30 11104 H 1042.73 2.58195 -5.11867 0
M  V30 11105 H 1041.13 2.00225 -5.65712 0
M  V30 11106 H 1042.2 0.90709 -4.7634 0
M  V30 11107 N 1043.54 1.5137 0.438746 0
M  V30 11108 C 1044.47 1.75528 1.53987 0
M  V30 11109 C 1045.45 0.605067 1.58975 0
M  V30 11110 O 1046.63 0.847634 1.74725 0
M  V30 11111 C 1043.76 1.87904 2.92078 0
M  V30 11112 C 1042.72 3.0333 3.01951 0
M  V30 11113 C 1042.04 3.00888 4.42007 0
M  V30 11114 C 1043.34 4.43319 2.76163 0
M  V30 11115 H 1045.04 2.67728 1.34022 0
M  V30 11116 H 1042.58 1.28831 0.643308 0
M  V30 11117 H 1044.54 2.03388 3.69068 0
M  V30 11118 H 1043.26 0.923514 3.13271 0
M  V30 11119 H 1041.92 2.87549 2.274 0
M  V30 11120 H 1041.57 2.03116 4.60166 0
M  V30 11121 H 1041.27 3.78397 4.49544 0
M  V30 11122 H 1042.79 3.18464 5.20973 0
M  V30 11123 H 1044.21 4.59458 3.42887 0
M  V30 11124 H 1042.6 5.22523 2.9511 0
M  V30 11125 H 1043.67 4.53453 1.71779 0
M  V30 11126 N 1045.02 -0.694098 1.41492 0
M  V30 11127 C 1046.43 -1.00487 1.23994 0
M  V30 11128 C 1046.63 -2.01078 0.130346 0
M  V30 11129 O 1045.69 -2.47403 -0.504775 0
M  V30 11130 C 1047 -1.52808 2.58979 0
M  V30 11131 C 1048.55 -1.64684 2.66173 0
M  V30 11132 C 1049.02 -2.20406 4.01479 0
M  V30 11133 N 1050.52 -2.27765 4.03333 0
M  V30 11134 C 1051.25 -2.7191 5.04829 0
M  V30 11135 N 1050.75 -3.1565 6.16714 0
M  V30 11136 N 1052.54 -2.71487 4.9219 0
M  V30 11137 H 1044.69 -0.027746 2.12382 0
M  V30 11138 H 1046.95 -0.0748741 0.945039 0
M  V30 11139 H 1046.66 -0.863519 3.40934 0
M  V30 11140 H 1046.53 -2.50998 2.81566 0
M  V30 11141 H 1048.92 -2.30251 1.84576 0
M  V30 11142 H 1049 -0.65035 2.47395 0
M  V30 11143 H 1048.65 -1.55454 4.83525 0
M  V30 11144 H 1048.58 -3.2081 4.17599 0
M  V30 11145 H 1051.07 -1.96899 3.22551 0
M  V30 11146 H 1051.38 -3.47966 6.90029 0
M  V30 11147 H 1049.72 -3.13555 6.20248 0
M  V30 11148 H 1052.92 -2.36666 4.03865 0
M  V30 11149 H 1053.09 -3.05573 5.71427 0
M  V30 11150 N 1046.49 -1.27344 -0.928501 0
M  V30 11151 C 1047.43 -1.04322 -2.02959 0
M  V30 11152 C 1048.41 0.0361118 -1.6256 0
M  V30 11153 O 1049.59 -0.108872 -1.88185 0
M  V30 11154 C 1046.72 -0.582329 -3.33656 0
M  V30 11155 C 1045.76 -1.65611 -3.93033 0
M  V30 11156 S 1046.6 -3.2484 -4.25722 0
M  V30 11157 C 1047.75 -2.8055 -5.59502 0
M  V30 11158 H 1047.98 -1.97548 -2.22176 0
M  V30 11159 H 1045.52 -1.11167 -1.07151 0
M  V30 11160 H 1047.48 -0.323095 -4.09227 0
M  V30 11161 H 1046.14 0.329858 -3.12363 0
M  V30 11162 H 1045.33 -1.28491 -4.87346 0
M  V30 11163 H 1044.93 -1.86738 -3.24045 0
M  V30 11164 H 1047.22 -2.25803 -6.38764 0
M  V30 11165 H 1048.17 -3.73603 -6.0152 0
M  V30 11166 H 1048.57 -2.19717 -5.19985 0
M  V30 11167 N 1047.97 1.13488 -1.09353 0
M  V30 11168 C 1048.94 2.17066 -0.735863 0
M  V30 11169 C 1049.94 1.59086 0.234181 0
M  V30 11170 O 1051.13 1.74196 0.012463 0
M  V30 11171 C 1048.26 3.40786 -0.0880975 0
M  V30 11172 H 1049.45 2.50221 -1.65316 0
M  V30 11173 H 1047 1.28304 -0.89263 0
M  V30 11174 H 1047.74 3.1322 0.840462 0
M  V30 11175 H 1047.52 3.8414 -0.786073 0
M  V30 11176 H 1049.01 4.17342 0.146775 0
M  V30 11177 N 1049.45 0.880621 1.30701 0
M  V30 11178 C 1050.68 0.510909 2.01009 0
M  V30 11179 C 1051.1 -0.892041 1.65603 0
M  V30 11180 O 1050.46 -1.59045 0.870309 0
M  V30 11181 C 1050.51 0.687759 3.53981 0
M  V30 11182 O 1049.61 -0.268275 4.11526 0
M  V30 11183 H 1048.95 0.201864 0.632572 0
M  V30 11184 H 1051.48 1.18697 1.6665 0
M  V30 11185 H 1051.49 0.585095 4.03783 0
M  V30 11186 H 1050.17 1.71068 3.79089 0
M  V30 11187 H 1048.74 -0.119673 3.72708 0
M  V30 11188 N 1050.93 -1.4397 0.641131 0
M  V30 11189 C 1052.34 -1.85267 0.230838 0
M  V30 11190 C 1052.69 -1.53659 -1.21998 0
M  V30 11191 O 1051.82 -0.979572 -1.92959 0
M  V30 11192 C 1052.41 -3.36284 0.412171 0
M  V30 11193 C 1050.97 -3.76358 0.0563004 0
M  V30 11194 C 1050.12 -2.67768 0.720809 0
M  V30 11195 H 1053.07 -1.34294 0.845624 0
M  V30 11196 H 1053.09 -3.78924 -0.345936 0
M  V30 11197 H 1052.6 -3.59258 1.46818 0
M  V30 11198 H 1050.7 -3.58997 -0.997582 0
M  V30 11199 H 1050.82 -4.76756 0.473335 0
M  V30 11200 H 1049.18 -2.54227 0.155164 0
M  V30 11201 H 1049.96 -2.93573 1.77961 0
M  V30 11202 N 1052.41 -0.382291 -1.52893 0
M  V30 11203 C 1053.82 0.0932841 -1.86467 0
M  V30 11204 C 1054.17 1.4675 -1.30226 0
M  V30 11205 O 1053.29 2.07001 -0.63084 0
M  V30 11206 C 1053.89 0.176048 -3.38342 0
M  V30 11207 C 1052.45 0.595904 -3.71653 0
M  V30 11208 C 1051.6 -0.246511 -2.76202 0
M  V30 11209 H 1054.55 -0.600443 -1.46903 0
M  V30 11210 H 1054.57 0.996512 -3.67219 0
M  V30 11211 H 1054.08 -0.824264 -3.79246 0
M  V30 11212 H 1052.18 1.60384 -3.36315 0
M  V30 11213 H 1052.29 0.358919 -4.77754 0
M  V30 11214 H 1050.66 0.287162 -2.53076 0
M  V30 11215 H 1051.44 -1.24467 -3.19942 0
M  V30 11216 N 1053.89 1.57202 -0.111913 0
M  V30 11217 C 1055.13 1.95239 0.548607 0
M  V30 11218 C 1055.46 0.994897 1.6678 0
M  V30 11219 O 1054.74 0.0308603 1.94476 0
M  V30 11220 C 1055.02 3.43271 1.08798 0
M  V30 11221 C 1054.88 4.49792 -0.0273064 0
M  V30 11222 C 1056.19 3.92989 1.98109 0
M  V30 11223 H 1053.31 0.709919 0.197951 0
M  V30 11224 H 1055.96 1.89087 -0.186036 0
M  V30 11225 H 1054.11 3.48644 1.71404 0
M  V30 11226 H 1055.78 4.56521 -0.662302 0
M  V30 11227 H 1054.02 4.28254 -0.691426 0
M  V30 11228 H 1054.69 5.50612 0.391201 0
M  V30 11229 H 1057.17 3.89875 1.45385 0
M  V30 11230 H 1056.04 4.97101 2.32769 0
M  V30 11231 H 1056.3 3.33267 2.90492 0
M  V30 11232 N 1055.36 -0.161842 1.56767 0
M  V30 11233 C 1056.78 -0.51396 1.51098 0
M  V30 11234 C 1056.98 -1.84158 0.817815 0
M  V30 11235 O 1056.04 -2.49592 0.382133 0
M  V30 11236 C 1057.35 -0.537966 2.95849 0
M  V30 11237 C 1058.9 -0.624512 3.06706 0
M  V30 11238 C 1059.37 -0.679322 4.52934 0
M  V30 11239 N 1060.86 -0.741953 4.57219 0
M  V30 11240 C 1061.6 -0.805096 5.6772 0
M  V30 11241 N 1061.09 -0.828492 6.87828 0
M  V30 11242 N 1062.89 -0.844843 5.55715 0
M  V30 11243 H 1055.04 0.708581 2.00232 0
M  V30 11244 H 1057.3 0.25663 0.912603 0
M  V30 11245 H 1057.01 0.369052 3.49758 0
M  V30 11246 H 1056.88 -1.38113 3.51005 0
M  V30 11247 H 1059.27 -1.52195 2.52825 0
M  V30 11248 H 1059.35 0.245515 2.54619 0
M  V30 11249 H 1058.99 0.213901 5.07449 0
M  V30 11250 H 1058.92 -1.56563 5.02788 0
M  V30 11251 H 1061.41 -0.731772 3.70747 0
M  V30 11252 H 1061.73 -0.878109 7.67795 0
M  V30 11253 H 1060.07 -0.796612 6.9042 0
M  V30 11254 H 1063.26 -0.823632 4.60797 0
M  V30 11255 H 1063.44 -0.890588 6.41851 0
M  V30 11256 N 1056.84 -1.516 -0.430713 0
M  V30 11257 C 1058.09 -1.64271 -1.17726 0
M  V30 11258 C 1058.41 -0.364406 -1.91565 0
M  V30 11259 O 1057.68 0.619991 -1.8583 0
M  V30 11260 H 1056.26 -0.605432 -0.437562 0
M  V30 11261 H 1058.92 -1.88557 -0.493166 0
M  V30 11262 H 1058.02 -2.47355 -1.90321 0
M  V30 11263 N 1058.32 0.686584 -1.41858 0
M  V30 11264 C 1059.54 1.4802 -1.45275 0
M  V30 11265 C 1059.97 1.87997 -0.0621297 0
M  V30 11266 O 1059.33 1.55226 0.936733 0
M  V30 11267 C 1059.38 2.7133 -2.37513 0
M  V30 11268 O 1058.48 3.69159 -1.83836 0
M  V30 11269 H 1057.82 0.445152 -0.492682 0
M  V30 11270 H 1060.35 0.843161 -1.86419 0
M  V30 11271 H 1060.36 3.19537 -2.53693 0
M  V30 11272 H 1059.04 2.41571 -3.3855 0
M  V30 11273 H 1057.61 3.28134 -1.77151 0
M  V30 11274 N 1059.8 1.27835 0.921735 0
M  V30 11275 C 1060.73 1.06874 2.02758 0
M  V30 11276 C 1061.74 0.0229418 1.62784 0
M  V30 11277 O 1062.93 0.265145 1.7652 0
M  V30 11278 C 1060.03 0.60037 3.3354 0
M  V30 11279 C 1059.2 1.71979 4.02172 0
M  V30 11280 C 1058.26 1.24615 5.11231 0
M  V30 11281 O 1057.29 1.94692 5.34868 0
M  V30 11282 N 1058.49 0.105021 5.80405 0
M  V30 11283 H 1061.26 2.02105 2.213 0
M  V30 11284 H 1058.82 1.19481 1.09251 0
M  V30 11285 H 1060.81 0.267281 4.03816 0
M  V30 11286 H 1059.38 -0.258872 3.11526 0
M  V30 11287 H 1058.6 2.22287 3.25549 0
M  V30 11288 H 1059.89 2.47092 4.44773 0
M  V30 11289 H 1059.29 -0.479745 5.63662 0
M  V30 11290 H 1057.84 -0.168846 6.51581 0
M  V30 11291 N 1061.28 -1.12907 1.09954 0
M  V30 11292 C 1062.24 -2.16673 0.747364 0
M  V30 11293 C 1063.24 -1.59208 -0.225741 0
M  V30 11294 O 1064.43 -1.742 -0.00322482 0
M  V30 11295 C 1061.56 -3.40735 0.106169 0
M  V30 11296 H 1062.75 -2.49341 1.6664 0
M  V30 11297 H 1060.31 -1.27828 0.899421 0
M  V30 11298 H 1061.04 -3.13661 -0.82384 0
M  V30 11299 H 1060.83 -3.83717 0.806434 0
M  V30 11300 H 1062.32 -4.17414 -0.12464 0
M  V30 11301 N 1062.75 -0.88754 -1.30232 0
M  V30 11302 C 1064 -0.506277 -1.95656 0
M  V30 11303 C 1064.32 0.948191 -1.70395 0
M  V30 11304 O 1063.59 1.66701 -1.02895 0
M  V30 11305 H 1062.17 -0.184235 -0.723924 0
M  V30 11306 H 1064.83 -1.13118 -1.58715 0
M  V30 11307 H 1063.93 -0.678673 -3.04632 0
M  V30 11308 N 1064.23 1.43628 -0.648757 0
M  V30 11309 C 1065.51 1.95391 -0.0904551 0
M  V30 11310 C 1065.89 1.59021 1.38837 0
M  V30 11311 O 1065.24 0.873078 2.11163 0
M  V30 11312 C 1065.45 3.47418 -0.33196 0
M  V30 11313 C 1066.8 4.23952 -0.234521 0
M  V30 11314 O 1067.82 3.55218 -0.264276 0
M  V30 11315 O 1066.68 5.46282 -0.154428 0
M  V30 11316 H 1063.77 0.82691 0.0121884 0
M  V30 11317 H 1066.32 1.5359 -0.721685 0
M  V30 11318 H 1065.09 3.67001 -1.35741 0
M  V30 11319 H 1064.71 3.96207 0.332556 0
M  V30 11320 N 1065.71 0.390394 1.52688 0
M  V30 11321 C 1066.96 -0.191729 2.01892 0
M  V30 11322 C 1067.29 -1.4637 1.27631 0
M  V30 11323 O 1066.56 -1.90809 0.377094 0
M  V30 11324 C 1066.85 -0.458535 3.57169 0
M  V30 11325 C 1066.7 0.828796 4.42098 0
M  V30 11326 C 1068.02 -1.2487 4.22014 0
M  V30 11327 H 1065.14 -0.0682091 0.733837 0
M  V30 11328 H 1067.78 0.520176 1.82741 0
M  V30 11329 H 1065.93 -1.06498 3.73618 0
M  V30 11330 H 1067.6 1.46562 4.37398 0
M  V30 11331 H 1065.85 1.44388 4.09066 0
M  V30 11332 H 1066.52 0.596746 5.48765 0
M  V30 11333 H 1068.99 -0.735452 4.09549 0
M  V30 11334 H 1067.87 -1.40412 5.30637 0
M  V30 11335 H 1068.13 -2.2642 3.79719 0
M  V30 11336 N 1067.19 -1.57141 0.120249 0
M  V30 11337 C 1068.42 -1.993 -0.544346 0
M  V30 11338 C 1068.83 -0.998858 -1.60684 0
M  V30 11339 O 1068.17 0.0162197 -1.83693 0
M  V30 11340 C 1068.23 -3.37874 -1.22808 0
M  V30 11341 C 1067.9 -4.55924 -0.313374 0
M  V30 11342 C 1068.89 -5.17962 0.448501 0
M  V30 11343 C 1066.58 -5.018 -0.224082 0
M  V30 11344 C 1068.57 -6.24264 1.28739 0
M  V30 11345 C 1066.26 -6.07963 0.618437 0
M  V30 11346 C 1067.26 -6.69061 1.3728 0
M  V30 11347 O 1066.94 -7.73173 2.20133 0
M  V30 11348 H 1066.68 -0.659466 -0.148596 0
M  V30 11349 H 1069.23 -2.04387 0.203779 0
M  V30 11350 H 1067.46 -3.29545 -2.02329 0
M  V30 11351 H 1069.15 -3.64314 -1.7897 0
M  V30 11352 H 1069.92 -4.83434 0.389395 0
M  V30 11353 H 1065.79 -4.53989 -0.80094 0
M  V30 11354 H 1069.34 -6.71883 1.87667 0
M  V30 11355 H 1065.24 -6.4192 0.678932 0
M  V30 11356 H 1066 -7.90276 2.13088 0
M  V30 11357 N 1068.67 0.153526 -1.5685 0
M  V30 11358 C 1069.89 0.886343 -1.87507 0
M  V30 11359 C 1070.32 1.74244 -0.708565 0
M  V30 11360 O 1069.67 1.78045 0.341997 0
M  V30 11361 C 1069.72 1.72428 -3.16703 0
M  V30 11362 O 1068.83 2.82784 -3.00178 0
M  V30 11363 H 1068.17 0.247259 -0.616246 0
M  V30 11364 H 1070.7 0.146306 -2.04076 0
M  V30 11365 H 1070.71 2.12062 -3.4856 0
M  V30 11366 H 1069.38 1.09558 -4.01211 0
M  V30 11367 H 1067.96 2.46604 -2.79716 0
M  V30 11368 N 1070.14 1.51827 0.422667 0
M  V30 11369 C 1071.39 1.6522 1.17084 0
M  V30 11370 C 1071.72 0.375508 1.90841 0
M  V30 11371 O 1070.97 -0.641029 1.84903 0
M  V30 11372 C 1071.27 2.81572 2.20119 0
M  V30 11373 C 1070.94 4.20303 1.63268 0
M  V30 11374 C 1069.6 4.5804 1.47488 0
M  V30 11375 C 1071.95 5.06812 1.21618 0
M  V30 11376 C 1069.28 5.79979 0.885531 0
M  V30 11377 C 1071.63 6.29343 0.641071 0
M  V30 11378 C 1070.3 6.65841 0.470286 0
M  V30 11379 H 1069.57 0.604581 0.428442 0
M  V30 11380 H 1072.21 1.85896 0.459874 0
M  V30 11381 H 1070.52 2.55175 2.97309 0
M  V30 11382 H 1072.22 2.89132 2.77856 0
M  V30 11383 H 1068.81 3.90557 1.76531 0
M  V30 11384 H 1072.99 4.78251 1.32624 0
M  V30 11385 H 1068.25 6.06892 0.741105 0
M  V30 11386 H 1072.42 6.9571 0.309888 0
M  V30 11387 H 1070.05 7.60199 0.0115038 0
M  V30 11388 N 1071.62 -0.679052 1.4222 0
M  V30 11389 C 1072.87 -1.43627 1.42182 0
M  V30 11390 C 1073.19 -1.94964 0.0377095 0
M  V30 11391 O 1072.46 -1.72788 -0.923098 0
M  V30 11392 H 1071.04 -0.532972 0.523402 0
M  V30 11393 H 1073.7 -0.802649 1.77605 0
M  V30 11394 H 1072.8 -2.29137 2.11902 0
M  V30 11395 N 1073.1 -1.28322 -0.914942 0
M  V30 11396 C 1074.35 -1.14785 -1.65853 0
M  V30 11397 C 1074.66 0.303135 -1.93237 0
M  V30 11398 O 1075.87 0.559606 -2.6567 0
M  V30 11399 C 1074.32 -2.00652 -2.98776 0
M  V30 11400 C 1073.93 -3.50483 -2.79044 0
M  V30 11401 C 1075.68 -1.95798 -3.76648 0
M  V30 11402 C 1073.58 -4.28505 -4.076 0
M  V30 11403 H 1072.51 -0.425987 -0.622135 0
M  V30 11404 H 1075.16 -1.52844 -1.01543 0
M  V30 11405 H 1073.55 -1.55447 -3.64214 0
M  V30 11406 H 1074.72 -4.03636 -2.22293 0
M  V30 11407 H 1073.04 -3.5685 -2.14586 0
M  V30 11408 H 1075.63 -2.51359 -4.71935 0
M  V30 11409 H 1075.98 -0.934455 -4.05677 0
M  V30 11410 H 1076.51 -2.38965 -3.18026 0
M  V30 11411 H 1073.25 -5.31433 -3.83744 0
M  V30 11412 H 1072.77 -3.80125 -4.63966 0
M  V30 11413 H 1074.45 -4.3836 -4.75867 0
M  V30 11414 N 1074.58 1.12322 -1.10551 0
M  V30 11415 C 1075.83 1.83216 -0.84349 0
M  V30 11416 C 1076.14 1.85075 0.632992 0
M  V30 11417 O 1077.35 2.51976 1.01095 0
M  V30 11418 C 1075.8 3.28994 -1.45915 0
M  V30 11419 C 1075.41 3.3549 -2.96901 0
M  V30 11420 C 1077.15 4.0485 -1.27657 0
M  V30 11421 C 1075.06 4.7561 -3.51496 0
M  V30 11422 H 1073.99 0.686471 -0.311887 0
M  V30 11423 H 1076.64 1.26463 -1.32964 0
M  V30 11424 H 1075.02 3.85621 -0.900678 0
M  V30 11425 H 1076.2 2.88795 -3.59074 0
M  V30 11426 H 1074.51 2.73107 -3.14327 0
M  V30 11427 H 1077.11 5.08316 -1.65889 0
M  V30 11428 H 1077.45 4.15727 -0.218258 0
M  V30 11429 H 1077.99 3.54584 -1.80318 0
M  V30 11430 H 1074.73 4.69927 -4.56999 0
M  V30 11431 H 1074.25 5.22753 -2.94091 0
M  V30 11432 H 1075.92 5.44552 -3.49388 0
M  V30 11433 N 1076.06 0.894434 1.2976 0
M  V30 11434 C 1076.99 0.3847 2.30309 0
M  V30 11435 C 1077.97 -0.537486 1.61385 0
M  V30 11436 O 1079.15 -0.449332 1.8893 0
M  V30 11437 C 1076.28 -0.393311 3.45066 0
M  V30 11438 C 1075.24 0.437968 4.25753 0
M  V30 11439 C 1074.56 -0.467221 5.32655 0
M  V30 11440 C 1075.86 1.6851 4.9437 0
M  V30 11441 H 1077.56 1.22496 2.73194 0
M  V30 11442 H 1075.1 0.590471 1.31337 0
M  V30 11443 H 1077.06 -0.760614 4.14479 0
M  V30 11444 H 1075.78 -1.2673 3.0101 0
M  V30 11445 H 1074.44 0.787533 3.58041 0
M  V30 11446 H 1074.09 -1.33919 4.84845 0
M  V30 11447 H 1073.79 0.0852482 5.87538 0
M  V30 11448 H 1075.31 -0.830833 6.04921 0
M  V30 11449 H 1076.72 1.38784 5.56248 0
M  V30 11450 H 1075.12 2.17849 5.59162 0
M  V30 11451 H 1076.19 2.42412 4.19958 0
M  V30 11452 N 1077.53 -1.43282 0.656365 0
M  V30 11453 C 1078.47 -2.29087 -0.0720378 0
M  V30 11454 C 1079.48 -1.4268 -0.783982 0
M  V30 11455 O 1080.67 -1.66585 -0.641213 0
M  V30 11456 C 1077.77 -3.19676 -1.12519 0
M  V30 11457 C 1076.94 -4.34638 -0.490756 0
M  V30 11458 C 1076 -5.06079 -1.44121 0
M  V30 11459 O 1075.03 -5.6124 -0.948595 0
M  V30 11460 N 1076.23 -5.09872 -2.77509 0
M  V30 11461 H 1078.99 -2.92241 0.664456 0
M  V30 11462 H 1076.55 -1.54006 0.499383 0
M  V30 11463 H 1078.55 -3.64334 -1.76189 0
M  V30 11464 H 1077.12 -2.581 -1.76362 0
M  V30 11465 H 1076.34 -3.92857 0.3251 0
M  V30 11466 H 1077.62 -5.08777 -0.0480061 0
M  V30 11467 H 1077.02 -4.66433 -3.20088 0
M  V30 11468 H 1075.58 -5.58237 -3.36474 0
M  V30 11469 N 1079.01 -0.398486 -1.52479 0
M  V30 11470 C 1079.92 0.439328 -2.3045 0
M  V30 11471 C 1080.94 1.06322 -1.37738 0
M  V30 11472 O 1082.12 1.06704 -1.7081 0
M  V30 11473 C 1079.18 1.54655 -3.10294 0
M  V30 11474 C 1078.24 0.946824 -4.18729 0
M  V30 11475 C 1077.47 2.00129 -4.94757 0
M  V30 11476 O 1077.7 3.2178 -4.70971 0
M  V30 11477 O 1076.63 1.61345 -5.79872 0
M  V30 11478 H 1080.46 -0.196118 -3.03066 0
M  V30 11479 H 1078.04 -0.161961 -1.4852 0
M  V30 11480 H 1079.92 2.18958 -3.60049 0
M  V30 11481 H 1078.6 2.1668 -2.40482 0
M  V30 11482 H 1077.51 0.266802 -3.73147 0
M  V30 11483 H 1078.84 0.370664 -4.90802 0
M  V30 11484 N 1080.49 1.57075 -0.12858 0
M  V30 11485 C 1081.74 1.94695 0.526952 0
M  V30 11486 C 1082.05 1.01482 1.67215 0
M  V30 11487 O 1083.26 1.28606 2.39108 0
M  V30 11488 C 1081.72 3.4605 0.988801 0
M  V30 11489 C 1081.32 4.47816 -0.128457 0
M  V30 11490 C 1083.07 3.92572 1.61517 0
M  V30 11491 C 1080.97 5.9036 0.350628 0
M  V30 11492 H 1079.9 0.726819 0.200623 0
M  V30 11493 H 1082.56 1.82295 -0.209972 0
M  V30 11494 H 1080.94 3.53718 1.78043 0
M  V30 11495 H 1082.11 4.51826 -0.904976 0
M  V30 11496 H 1080.43 4.11103 -0.662075 0
M  V30 11497 H 1083.02 4.96493 1.98491 0
M  V30 11498 H 1083.37 3.33085 2.49721 0
M  V30 11499 H 1083.9 3.87744 0.888768 0
M  V30 11500 H 1080.64 6.53624 -0.495592 0
M  V30 11501 H 1080.16 5.89749 1.09342 0
M  V30 11502 H 1081.84 6.41926 0.808717 0
M  V30 11503 N 1081.97 -0.145205 1.5693 0
M  V30 11504 C 1082.93 -1.16316 1.97492 0
M  V30 11505 C 1083.93 -1.35764 0.861668 0
M  V30 11506 O 1085.12 -1.32726 1.12825 0
M  V30 11507 C 1082.25 -2.52311 2.29242 0
M  V30 11508 H 1083.45 -0.815138 2.8861 0
M  V30 11509 H 1081 -0.38861 1.51392 0
M  V30 11510 H 1081.74 -2.92081 1.40922 0
M  V30 11511 H 1081.52 -2.39555 3.10412 0
M  V30 11512 H 1083.01 -3.25624 2.61456 0
M  V30 11513 N 1083.45 -1.52049 -0.414609 0
M  V30 11514 C 1084.38 -1.77956 -1.51175 0
M  V30 11515 C 1085.36 -0.630282 -1.57992 0
M  V30 11516 O 1086.54 -0.875324 -1.73354 0
M  V30 11517 C 1083.67 -1.92527 -2.89051 0
M  V30 11518 C 1082.63 -3.08096 -2.97087 0
M  V30 11519 C 1081.95 -3.07882 -4.37164 0
M  V30 11520 C 1083.25 -4.47656 -2.69075 0
M  V30 11521 H 1084.95 -2.69827 -1.29746 0
M  V30 11522 H 1082.49 -1.29839 -0.62273 0
M  V30 11523 H 1084.45 -2.09234 -3.65786 0
M  V30 11524 H 1083.17 -0.973235 -3.11762 0
M  V30 11525 H 1081.83 -2.91131 -2.22797 0
M  V30 11526 H 1081.48 -2.10411 -4.56877 0
M  V30 11527 H 1081.18 -3.85501 -4.43467 0
M  V30 11528 H 1082.7 -3.26712 -5.15841 0
M  V30 11529 H 1084.12 -4.64855 -3.35534 0
M  V30 11530 H 1082.51 -5.27151 -2.8676 0
M  V30 11531 H 1083.58 -4.56129 -1.64544 0
M  V30 11532 N 1084.93 0.6715 -1.42579 0
M  V30 11533 C 1086.34 0.985019 -1.25577 0
M  V30 11534 C 1086.54 2.00845 -0.162319 0
M  V30 11535 O 1085.6 2.48175 0.465352 0
M  V30 11536 C 1086.91 1.48668 -2.61377 0
M  V30 11537 C 1088.46 1.60429 -2.68759 0
M  V30 11538 C 1088.93 2.13991 -4.04935 0
M  V30 11539 N 1090.42 2.21319 -4.06906 0
M  V30 11540 C 1091.16 2.63845 -5.09091 0
M  V30 11541 N 1090.66 3.05799 -6.21658 0
M  V30 11542 N 1092.45 2.63623 -4.96447 0
M  V30 11543 H 1084.6 -0.00604561 -2.12399 0
M  V30 11544 H 1086.86 0.0598299 -0.94611 0
M  V30 11545 H 1086.57 0.80917 -3.42265 0
M  V30 11546 H 1086.44 2.46487 -2.85524 0
M  V30 11547 H 1088.83 2.27286 -1.88216 0
M  V30 11548 H 1088.91 0.610909 -2.48398 0
M  V30 11549 H 1088.55 1.47741 -4.85937 0
M  V30 11550 H 1088.48 3.14126 -4.2265 0
M  V30 11551 H 1090.98 1.91743 -3.25643 0
M  V30 11552 H 1091.29 3.36944 -6.95477 0
M  V30 11553 H 1089.63 3.03648 -6.25158 0
M  V30 11554 H 1092.82 2.30211 -4.07579 0
M  V30 11555 H 1093 2.96444 -5.76216 0
M  V30 11556 N 1086.4 1.28806 0.908124 0
M  V30 11557 C 1087.63 1.19271 1.69674 0
M  V30 11558 C 1088.05 -0.244403 1.86505 0
M  V30 11559 O 1087.41 -1.17668 1.37927 0
M  V30 11560 C 1087.46 1.9023 3.06341 0
M  V30 11561 O 1086.56 1.2136 3.94139 0
M  V30 11562 H 1085.9 0.413738 0.519343 0
M  V30 11563 H 1088.43 1.70227 1.13508 0
M  V30 11564 H 1088.44 1.98356 3.56537 0
M  V30 11565 H 1087.12 2.94762 2.93408 0
M  V30 11566 H 1085.7 1.21435 3.52573 0
M  V30 11567 N 1087.88 -1.11734 1.11145 0
M  V30 11568 C 1089.13 -1.83043 0.856717 0
M  V30 11569 C 1089.45 -1.84901 -0.619407 0
M  V30 11570 O 1088.72 -1.31738 -1.44989 0
M  V30 11571 H 1087.3 -0.677823 0.31395 0
M  V30 11572 H 1089.96 -1.35262 1.40322 0
M  V30 11573 H 1089.06 -2.87005 1.22616 0
M  V30 11574 N 1089.36 -0.901303 -1.29284 0
M  V30 11575 C 1090.61 -0.528826 -1.95784 0
M  V30 11576 C 1090.94 0.922833 -1.70873 0
M  V30 11577 O 1090.21 1.65448 -1.0226 0
M  V30 11578 C 1090.5 -0.823793 -3.50551 0
M  V30 11579 C 1090.35 -2.32727 -3.84913 0
M  V30 11580 C 1091.67 -0.311382 -4.38997 0
M  V30 11581 H 1088.79 -0.193604 -0.711116 0
M  V30 11582 H 1091.43 -1.12828 -1.52872 0
M  V30 11583 H 1089.58 -0.313612 -3.87232 0
M  V30 11584 H 1091.25 -2.90712 -3.58168 0
M  V30 11585 H 1089.49 -2.78735 -3.32399 0
M  V30 11586 H 1090.17 -2.48423 -4.9294 0
M  V30 11587 H 1092.64 -0.748265 -4.09317 0
M  V30 11588 H 1091.52 -0.546957 -5.46168 0
M  V30 11589 H 1091.78 0.787959 -4.35021 0
M  V30 11590 N 1090.84 1.42931 -0.663954 0
M  V30 11591 C 1092.08 2.01683 -0.181738 0
M  V30 11592 C 1092.41 1.52437 1.20802 0
M  V30 11593 O 1091.67 0.71254 1.82267 0
M  V30 11594 C 1091.97 3.57072 -0.153163 0
M  V30 11595 C 1091.63 4.25706 -1.48612 0
M  V30 11596 C 1090.29 4.4417 -1.85111 0
M  V30 11597 C 1092.65 4.6448 -2.36448 0
M  V30 11598 C 1089.97 4.98677 -3.09092 0
M  V30 11599 C 1092.33 5.20362 -3.5973 0
M  V30 11600 C 1090.99 5.37041 -3.96412 0
M  V30 11601 H 1090.26 0.73801 -0.0665026 0
M  V30 11602 H 1092.91 1.71264 -0.856791 0
M  V30 11603 H 1091.21 3.87095 0.605372 0
M  V30 11604 H 1092.91 4.00299 0.236981 0
M  V30 11605 H 1089.5 4.11686 -1.19215 0
M  V30 11606 H 1093.68 4.49898 -2.09537 0
M  V30 11607 H 1088.94 5.09776 -3.37547 0
M  V30 11608 H 1093.11 5.49352 -4.28001 0
M  V30 11609 H 1090.74 5.79042 -4.92559 0
M  V30 11610 N 1092.32 0.406567 1.52266 0
M  V30 11611 C 1093.27 -0.437483 2.23763 0
M  V30 11612 C 1094.25 -1.01557 1.248 0
M  V30 11613 O 1095.44 -0.938813 1.50051 0
M  V30 11614 C 1092.57 -1.55499 3.06064 0
M  V30 11615 C 1091.66 -0.987799 4.12436 0
M  V30 11616 N 1092.05 -0.147044 5.05586 0
M  V30 11617 C 1090.35 -1.25857 4.27874 0
M  V30 11618 C 1091.05 0.168229 5.81457 0
M  V30 11619 N 1090.02 -0.440245 5.41814 0
M  V30 11620 H 1093.82 0.211203 2.9314 0
M  V30 11621 H 1091.34 0.216843 1.60946 0
M  V30 11622 H 1093.34 -2.17224 3.55836 0
M  V30 11623 H 1092 -2.20632 2.38226 0
M  V30 11624 H 1093.01 0.217062 5.17445 0
M  V30 11625 H 1089.68 -1.90967 3.71265 0
M  V30 11626 H 1091.07 0.850516 6.66495 0
M  V30 11627 N 1093.79 -1.57004 0.136909 0
M  V30 11628 C 1095.04 -1.96087 -0.517477 0
M  V30 11629 C 1095.37 -1.0213 -1.65176 0
M  V30 11630 O 1094.65 -0.0617958 -1.94402 0
M  V30 11631 C 1094.93 -3.44958 -1.03323 0
M  V30 11632 C 1094.78 -4.49691 0.0988609 0
M  V30 11633 C 1096.1 -3.96091 -1.91832 0
M  V30 11634 H 1093.22 -0.712978 -0.186632 0
M  V30 11635 H 1095.86 -1.88767 0.216095 0
M  V30 11636 H 1094.01 -3.51327 -1.65836 0
M  V30 11637 H 1095.69 -4.55409 0.734847 0
M  V30 11638 H 1093.93 -4.271 0.75947 0
M  V30 11639 H 1094.6 -5.51165 -0.303554 0
M  V30 11640 H 1097.08 -3.92139 -1.39164 0
M  V30 11641 H 1095.95 -5.00742 -2.24831 0
M  V30 11642 H 1096.21 -3.37846 -2.85153 0
M  V30 11643 N 1095.27 0.136881 -1.57004 0
M  V30 11644 C 1096.18 1.18793 -2.023 0
M  V30 11645 C 1097.2 1.46412 -0.94018 0
M  V30 11646 O 1098.37 1.57883 -1.2504 0
M  V30 11647 C 1095.44 2.49903 -2.40311 0
M  V30 11648 C 1094.5 2.29841 -3.6259 0
M  V30 11649 C 1093.73 3.54699 -3.98779 0
M  V30 11650 O 1093.96 4.61291 -3.3551 0
M  V30 11651 O 1092.89 3.46761 -4.91976 0
M  V30 11652 H 1096.72 0.833345 -2.92043 0
M  V30 11653 H 1094.3 0.346361 -1.4533 0
M  V30 11654 H 1096.18 3.27183 -2.65574 0
M  V30 11655 H 1094.86 2.84872 -1.5372 0
M  V30 11656 H 1093.77 1.50478 -3.42501 0
M  V30 11657 H 1095.1 1.99784 -4.4983 0
M  V30 11658 N 1096.75 1.52266 0.40654 0
M  V30 11659 C 1098 1.66123 1.15097 0
M  V30 11660 C 1098.32 0.394836 1.90961 0
M  V30 11661 O 1097.59 -0.590349 1.86793 0
M  V30 11662 H 1096.17 0.612317 0.427875 0
M  V30 11663 H 1098.83 1.89318 0.463106 0
M  V30 11664 H 1097.93 2.50351 1.86361 0
M  V30 11665 N 1098.23 -0.663929 1.42933 0
M  V30 11666 C 1099.16 -1.78899 1.50058 0
M  V30 11667 C 1100.14 -1.66329 0.356164 0
M  V30 11668 O 1101.32 -1.85587 0.571944 0
M  V30 11669 C 1098.45 -3.17265 1.41281 0
M  V30 11670 C 1097.41 -3.44584 2.53861 0
M  V30 11671 C 1096.73 -4.82638 2.3014 0
M  V30 11672 C 1098.03 -3.40394 3.96143 0
M  V30 11673 H 1099.73 -1.73194 2.44222 0
M  V30 11674 H 1097.27 -0.83182 1.17545 0
M  V30 11675 H 1099.23 -3.95715 1.44872 0
M  V30 11676 H 1097.95 -3.23675 0.43616 0
M  V30 11677 H 1096.61 -2.685 2.49606 0
M  V30 11678 H 1096.26 -4.85711 1.30743 0
M  V30 11679 H 1095.96 -5.01879 3.056 0
M  V30 11680 H 1097.48 -5.63359 2.35497 0
M  V30 11681 H 1098.9 -4.08796 4.01943 0
M  V30 11682 H 1097.29 -3.7117 4.71543 0
M  V30 11683 H 1098.36 -2.38767 4.22041 0
M  V30 11684 N 1099.71 -1.29285 -0.901281 0
M  V30 11685 C 1100.98 -1.07847 -1.63182 0
M  V30 11686 C 1101.36 0.377927 -2.07689 0
M  V30 11687 O 1100.71 1.36642 -1.83143 0
M  V30 11688 C 1100.92 -2.06457 -2.81383 0
M  V30 11689 C 1102.27 -2.37289 -3.52107 0
M  V30 11690 O 1103.29 -2.0464 -2.91549 0
M  V30 11691 O 1102.15 -2.93067 -4.61274 0
M  V30 11692 H 1099.25 -0.413073 -0.71645 0
M  V30 11693 H 1101.79 -1.40651 -0.949488 0
M  V30 11694 H 1100.56 -3.04561 -2.4568 0
M  V30 11695 H 1100.19 -1.74374 -3.57323 0
M  V30 11696 N 1101.18 1.11143 -1.11736 0
M  V30 11697 C 1102.11 2.19339 -0.800795 0
M  V30 11698 C 1103.1 1.68508 0.23221 0
M  V30 11699 O 1104.28 1.93967 0.0950063 0
M  V30 11700 C 1101.41 3.46424 -0.246579 0
M  V30 11701 C 1100.36 4.10487 -1.21181 0
M  V30 11702 C 1099.69 5.32183 -0.518158 0
M  V30 11703 C 1100.99 4.55052 -2.56368 0
M  V30 11704 H 1102.68 2.46077 -1.70548 0
M  V30 11705 H 1100.23 1.18271 -0.821454 0
M  V30 11706 H 1102.18 4.21398 -0.0128889 0
M  V30 11707 H 1100.91 3.19154 0.693415 0
M  V30 11708 H 1099.57 3.3751 -1.43118 0
M  V30 11709 H 1099.21 5.01187 0.426742 0
M  V30 11710 H 1098.91 5.75997 -1.16196 0
M  V30 11711 H 1100.44 6.09895 -0.293333 0
M  V30 11712 H 1101.85 5.21335 -2.38501 0
M  V30 11713 H 1100.25 5.0969 -3.16758 0
M  V30 11714 H 1101.32 3.68343 -3.1536 0
M  V30 11715 N 1102.66 0.908147 1.28804 0
M  V30 11716 C 1103.89 0.553431 1.9988 0
M  V30 11717 C 1104.31 -0.856714 1.67458 0
M  V30 11718 O 1103.67 -1.57163 0.903849 0
M  V30 11719 C 1103.72 0.762688 3.52442 0
M  V30 11720 O 1102.82 -0.180924 4.12003 0
M  V30 11721 H 1102.16 0.215237 0.628147 0
M  V30 11722 H 1104.69 1.22205 1.64095 0
M  V30 11723 H 1104.7 0.670612 4.02451 0
M  V30 11724 H 1103.38 1.79071 3.75375 0
M  V30 11725 H 1101.96 -0.0405897 3.72878 0
M  V30 11726 N 1104.14 -1.42577 0.671525 0
M  V30 11727 C 1105.55 -1.84736 0.270084 0
M  V30 11728 C 1105.9 -1.56212 -1.18711 0
M  V30 11729 O 1105.03 -1.02028 -1.90838 0
M  V30 11730 C 1105.62 -3.35334 0.483409 0
M  V30 11731 C 1104.18 -3.76154 0.136119 0
M  V30 11732 C 1103.33 -2.66179 0.777444 0
M  V30 11733 H 1106.28 -1.3247 0.873919 0
M  V30 11734 H 1106.3 -3.79573 -0.265483 0
M  V30 11735 H 1105.81 -3.56063 1.54405 0
M  V30 11736 H 1103.91 -3.61033 -0.921209 0
M  V30 11737 H 1104.03 -4.75645 0.574356 0
M  V30 11738 H 1102.39 -2.53841 0.209055 0
M  V30 11739 H 1103.17 -2.89732 1.84148 0
M  V30 11740 N 1105.62 -0.414636 -1.52048 0
M  V30 11741 C 1106.57 0.408141 -2.27163 0
M  V30 11742 C 1107.54 1.03636 -1.29803 0
M  V30 11743 O 1108.72 1.05959 -1.58674 0
M  V30 11744 C 1105.86 1.51588 -3.10024 0
M  V30 11745 C 1104.97 0.908034 -4.22349 0
M  V30 11746 C 1104.11 1.98893 -4.9256 0
M  V30 11747 C 1103.15 1.35831 -5.96839 0
M  V30 11748 N 1102.28 2.37958 -6.60545 0
M  V30 11749 H 1107.12 -0.238822 -2.97041 0
M  V30 11750 H 1104.66 -0.129614 -1.46528 0
M  V30 11751 H 1106.62 2.16916 -3.56375 0
M  V30 11752 H 1105.25 2.13279 -2.42305 0
M  V30 11753 H 1104.3 0.143652 -3.80129 0
M  V30 11754 H 1105.61 0.407426 -4.97133 0
M  V30 11755 H 1104.77 2.71935 -5.42343 0
M  V30 11756 H 1103.51 2.5232 -4.17356 0
M  V30 11757 H 1102.51 0.613246 -5.46369 0
M  V30 11758 H 1103.74 0.831655 -6.73988 0
M  V30 11759 H 1101.68 2.90508 -5.88167 0
M  V30 11760 H 1101.6 1.92725 -7.31022 0
M  V30 11761 H 1102.87 3.10553 -7.14966 0
M  V30 11762 N 1107.1 1.56929 -0.145233 0
M  V30 11763 C 1108.01 2.20238 0.808219 0
M  V30 11764 C 1109.02 1.18615 1.27304 0
M  V30 11765 O 1110.2 1.51186 1.3306 0
M  V30 11766 C 1107.26 2.81016 2.03055 0
M  V30 11767 C 1106.32 3.97759 1.61512 0
M  V30 11768 C 1105.56 4.55628 2.77918 0
M  V30 11769 O 1105.78 4.12378 3.94082 0
M  V30 11770 O 1104.71 5.45917 2.53492 0
M  V30 11771 H 1108.54 3.02221 0.299314 0
M  V30 11772 H 1106.13 1.49176 0.0817051 0
M  V30 11773 H 1108.01 3.19652 2.74592 0
M  V30 11774 H 1106.68 2.02047 2.52901 0
M  V30 11775 H 1105.59 3.63842 0.870033 0
M  V30 11776 H 1106.92 4.78242 1.16383 0
M  V30 11777 N 1108.58 -0.128553 1.57075 0
M  V30 11778 C 1109.82 -0.836536 1.83535 0
M  V30 11779 C 1110.14 -1.81491 0.7294 0
M  V30 11780 O 1111.34 -2.56838 0.880128 0
M  V30 11781 C 1109.8 -1.53836 3.25365 0
M  V30 11782 C 1109.41 -0.601454 4.43944 0
M  V30 11783 C 1111.15 -2.23204 3.61082 0
M  V30 11784 C 1109.06 -1.30596 5.768 0
M  V30 11785 H 1107.99 -0.316142 0.684522 0
M  V30 11786 H 1110.64 -0.0892555 1.83283 0
M  V30 11787 H 1109.02 -2.33192 3.20058 0
M  V30 11788 H 1110.2 0.158209 4.60528 0
M  V30 11789 H 1108.51 -0.0152393 4.16397 0
M  V30 11790 H 1111.11 -2.76585 4.57608 0
M  V30 11791 H 1111.45 -3.0056 2.88044 0
M  V30 11792 H 1111.98 -1.50746 3.68131 0
M  V30 11793 H 1108.72 -0.573874 6.52983 0
M  V30 11794 H 1108.24 -2.03787 5.6412 0
M  V30 11795 H 1109.92 -1.8418 6.20231 0
M  V30 11796 N 1110.05 -1.5248 -0.398459 0
M  V30 11797 C 1111.3 -1.66287 -1.14155 0
M  V30 11798 C 1111.62 -0.40429 -1.91376 0
M  V30 11799 O 1112.82 -0.422341 -2.68195 0
M  V30 11800 C 1111.28 -2.93831 -2.07825 0
M  V30 11801 C 1110.89 -4.26836 -1.3607 0
M  V30 11802 C 1112.63 -3.17004 -2.82327 0
M  V30 11803 C 1110.54 -5.45495 -2.28451 0
M  V30 11804 H 1109.47 -0.619478 -0.42984 0
M  V30 11805 H 1112.12 -1.78972 -0.405112 0
M  V30 11806 H 1110.5 -2.7487 -2.85065 0
M  V30 11807 H 1111.67 -4.56317 -0.641205 0
M  V30 11808 H 1109.99 -4.0985 -0.735659 0
M  V30 11809 H 1112.59 -4.02834 -3.51609 0
M  V30 11810 H 1112.93 -2.3168 -3.45876 0
M  V30 11811 H 1113.46 -3.36487 -2.12183 0
M  V30 11812 H 1110.2 -6.33198 -1.69532 0
M  V30 11813 H 1109.72 -5.20338 -2.98343 0
M  V30 11814 H 1111.4 -5.78996 -2.88743 0
M  V30 11815 N 1111.53 0.65634 -1.43283 0
M  V30 11816 C 1112.44 1.79847 -1.50639 0
M  V30 11817 C 1113.46 1.69487 -0.393714 0
M  V30 11818 O 1114.63 1.90712 -0.647379 0
M  V30 11819 C 1111.7 3.16107 -1.42398 0
M  V30 11820 C 1110.76 3.38287 -2.64312 0
M  V30 11821 C 1109.99 4.68046 -2.56454 0
M  V30 11822 O 1110.22 5.4719 -1.61056 0
M  V30 11823 O 1109.15 4.91877 -3.46902 0
M  V30 11824 H 1112.98 1.76596 -2.47078 0
M  V30 11825 H 1110.56 0.814428 -1.25249 0
M  V30 11826 H 1112.44 3.97382 -1.40233 0
M  V30 11827 H 1111.12 3.19956 -0.490929 0
M  V30 11828 H 1110.02 2.56788 -2.72049 0
M  V30 11829 H 1111.36 3.39282 -3.56579 0
M  V30 11830 N 1113.01 1.29761 0.894412 0
M  V30 11831 C 1114.43 1.07888 1.17611 0
M  V30 11832 C 1114.63 -0.16644 2.00811 0
M  V30 11833 O 1113.68 -0.86272 2.37304 0
M  V30 11834 C 1114.99 2.33723 1.89193 0
M  V30 11835 C 1116.54 2.39095 2.01997 0
M  V30 11836 C 1117.02 3.64747 2.7699 0
M  V30 11837 N 1118.51 3.65501 2.84541 0
M  V30 11838 C 1119.24 4.59411 3.43117 0
M  V30 11839 N 1118.74 5.63657 4.02818 0
M  V30 11840 N 1120.53 4.46971 3.40842 0
M  V30 11841 H 1112.68 2.0967 0.339421 0
M  V30 11842 H 1114.95 0.923788 0.212882 0
M  V30 11843 H 1114.65 3.24551 1.35496 0
M  V30 11844 H 1114.53 2.41642 2.89636 0
M  V30 11845 H 1116.91 1.48751 2.54867 0
M  V30 11846 H 1116.99 2.35158 1.0067 0
M  V30 11847 H 1116.64 4.55445 2.24794 0
M  V30 11848 H 1116.57 3.65944 3.78672 0
M  V30 11849 H 1119.06 2.90129 2.42144 0
M  V30 11850 H 1119.37 6.31429 4.45552 0
M  V30 11851 H 1117.72 5.67461 4.01265 0
M  V30 11852 H 1120.91 3.64719 2.93424 0
M  V30 11853 H 1121.08 5.20341 3.86198 0
M  V30 11854 N 1114.49 -1.10549 1.12324 0
M  V30 11855 C 1115.73 -1.82755 0.879117 0
M  V30 11856 C 1116.07 -1.84905 -0.593604 0
M  V30 11857 O 1115.34 -1.30884 -1.43873 0
M  V30 11858 C 1115.62 -3.29481 1.45308 0
M  V30 11859 C 1115.48 -3.3567 2.99408 0
M  V30 11860 C 1116.8 -4.25828 1.11167 0
M  V30 11861 H 1113.92 -0.663513 0.32081 0
M  V30 11862 H 1116.56 -1.29572 1.38965 0
M  V30 11863 H 1114.71 -3.74902 1.01887 0
M  V30 11864 H 1116.38 -2.98739 3.515 0
M  V30 11865 H 1114.62 -2.75606 3.34998 0
M  V30 11866 H 1115.29 -4.38983 3.34661 0
M  V30 11867 H 1117.77 -3.88635 1.48667 0
M  V30 11868 H 1116.65 -5.26857 1.53991 0
M  V30 11869 H 1116.91 -4.42094 0.0237046 0
M  V30 11870 N 1115.97 -0.914965 -1.28321 0
M  V30 11871 C 1117.19 -0.564654 -1.99046 0
M  V30 11872 C 1117.61 0.854345 -1.68364 0
M  V30 11873 O 1116.97 1.56605 -0.937068 0
M  V30 11874 C 1117.02 -0.765663 -3.53299 0
M  V30 11875 O 1116.74 -2.12883 -3.829 0
M  V30 11876 C 1118.24 -0.422347 -4.41283 0
M  V30 11877 H 1115.46 -0.215158 -0.635569 0
M  V30 11878 H 1118 -1.2285 -1.63487 0
M  V30 11879 H 1116.16 -0.148795 -3.87114 0
M  V30 11880 H 1116.57 -2.1694 -4.77533 0
M  V30 11881 H 1118.05 -0.613757 -5.48577 0
M  V30 11882 H 1118.52 0.641484 -4.3449 0
M  V30 11883 H 1119.13 -1.01681 -4.12966 0
M  V30 11884 N 1117.44 1.42219 -0.679077 0
M  V30 11885 C 1118.86 1.55737 -0.349034 0
M  V30 11886 C 1119.06 1.65789 1.14527 0
M  V30 11887 O 1118.12 1.62717 1.93079 0
M  V30 11888 C 1119.43 2.80516 -1.0831 0
M  V30 11889 C 1120.98 2.94294 -1.06584 0
M  V30 11890 C 1121.45 4.2194 -1.78132 0
M  V30 11891 N 1122.94 4.28861 -1.75021 0
M  V30 11892 C 1123.68 5.26453 -2.27234 0
M  V30 11893 N 1123.17 6.30171 -2.87847 0
M  V30 11894 N 1124.97 5.1828 -2.17584 0
M  V30 11895 H 1117.12 1.33939 -1.64846 0
M  V30 11896 H 1119.38 0.645029 -0.694725 0
M  V30 11897 H 1119.09 2.79241 -2.13816 0
M  V30 11898 H 1118.96 3.71539 -0.651069 0
M  V30 11899 H 1121.35 2.95094 -0.0191061 0
M  V30 11900 H 1121.43 2.04491 -1.53679 0
M  V30 11901 H 1121.07 4.21901 -2.82776 0
M  V30 11902 H 1121 5.10685 -1.28483 0
M  V30 11903 H 1123.49 3.54537 -1.30814 0
M  V30 11904 H 1123.81 7.01 -3.25298 0
M  V30 11905 H 1122.15 6.30721 -2.91918 0
M  V30 11906 H 1125.34 4.36172 -1.69916 0
M  V30 11907 H 1125.52 5.94172 -2.58581 0
M  V30 11908 N 1118.92 0.422693 1.51826 0
M  V30 11909 C 1120.17 -0.148348 2.01555 0
M  V30 11910 C 1120.49 -1.44483 1.30956 0
M  V30 11911 O 1119.76 -1.90904 0.439599 0
M  V30 11912 H 1118.34 -0.0578116 0.74476 0
M  V30 11913 H 1121 0.562046 1.8662 0
M  V30 11914 H 1120.1 -0.334766 3.10299 0
M  V30 11915 N 1120.4 -1.5685 0.153553 0
M  V30 11916 C 1121.31 -2.20664 -0.796528 0
M  V30 11917 C 1122.33 -1.19289 -1.26674 0
M  V30 11918 O 1123.5 -1.51889 -1.32256 0
M  V30 11919 C 1120.57 -2.82088 -2.01561 0
M  V30 11920 C 1119.63 -3.9861 -1.59401 0
M  V30 11921 C 1118.86 -4.57096 -2.75498 0
M  V30 11922 O 1119.08 -4.14462 -3.9189 0
M  V30 11923 O 1118.02 -5.47254 -2.50593 0
M  V30 11924 H 1121.84 -3.02376 -0.283282 0
M  V30 11925 H 1119.43 -1.49218 -0.0737927 0
M  V30 11926 H 1121.31 -3.21103 -2.72893 0
M  V30 11927 H 1119.99 -2.03385 -2.51826 0
M  V30 11928 H 1118.89 -3.64299 -0.850725 0
M  V30 11929 H 1120.23 -4.78853 -1.13845 0
M  V30 11930 N 1121.88 0.120221 -1.57141 0
M  V30 11931 C 1122.81 1.1732 -1.96898 0
M  V30 11932 C 1123.82 1.37722 -0.868134 0
M  V30 11933 O 1125.01 1.36818 -1.14643 0
M  V30 11934 C 1122.11 2.53343 -2.25102 0
M  V30 11935 C 1121.28 2.53559 -3.56408 0
M  V30 11936 C 1120.34 3.71319 -3.72838 0
M  V30 11937 O 1119.37 3.54961 -4.44962 0
M  V30 11938 N 1120.57 4.89836 -3.11514 0
M  V30 11939 H 1123.34 0.835023 -2.87832 0
M  V30 11940 H 1120.9 0.309508 -1.58914 0
M  V30 11941 H 1122.89 3.30679 -2.3331 0
M  V30 11942 H 1121.46 2.79347 -1.403 0
M  V30 11943 H 1120.68 1.61946 -3.59398 0
M  V30 11944 H 1121.97 2.5076 -4.42716 0
M  V30 11945 H 1121.37 5.0603 -2.52884 0
M  V30 11946 H 1119.92 5.64853 -3.25246 0
M  V30 11947 N 1123.36 1.52689 0.390367 0
M  V30 11948 C 1124.77 1.59623 0.968366 0
M  V30 11949 C 1125.12 0.44824 1.91011 0
M  V30 11950 O 1124.24 -0.428868 2.12108 0
M  V30 11951 C 1124.84 2.89312 1.76306 0
M  V30 11952 C 1123.4 2.98664 2.29079 0
M  V30 11953 C 1122.54 2.54725 1.09593 0
M  V30 11954 H 1125.5 1.57787 0.169959 0
M  V30 11955 H 1125.52 2.75721 2.62217 0
M  V30 11956 H 1125.03 3.72846 1.07738 0
M  V30 11957 H 1123.13 2.19665 3.00962 0
M  V30 11958 H 1123.24 4.03277 2.58659 0
M  V30 11959 H 1121.61 2.09012 1.45554 0
M  V30 11960 H 1122.39 3.40651 0.425625 0
M  V30 11961 N 1124.83 -0.648732 1.43629 0
M  V30 11962 C 1126.25 -1.23001 1.40455 0
M  V30 11963 C 1126.6 -1.95886 0.110897 0
M  V30 11964 O 1125.72 -2.01485 -0.789487 0
M  V30 11965 C 1126.32 -2.23716 2.54434 0
M  V30 11966 C 1124.88 -2.77311 2.54511 0
M  V30 11967 C 1124.02 -1.52024 2.31914 0
M  V30 11968 H 1126.97 -0.440473 1.52465 0
M  V30 11969 H 1126.99 -3.05979 2.26179 0
M  V30 11970 H 1126.51 -1.7064 3.48574 0
M  V30 11971 H 1124.61 -3.34437 1.64263 0
M  V30 11972 H 1124.72 -3.2455 3.52426 0
M  V30 11973 H 1123.08 -1.79531 1.80667 0
M  V30 11974 H 1123.87 -1.00876 3.28145 0
M  V30 11975 N 1126.31 -1.30234 -0.887518 0
M  V30 11976 C 1127.56 -1.1891 -1.6391 0
M  V30 11977 C 1127.89 0.256749 -1.92798 0
M  V30 11978 O 1127.14 1.20047 -1.54555 0
M  V30 11979 C 1127.44 -1.96046 -2.98832 0
M  V30 11980 C 1127.11 -3.45683 -2.89507 0
M  V30 11981 C 1125.77 -3.86489 -2.8667 0
M  V30 11982 C 1128.12 -4.40983 -2.7782 0
M  V30 11983 C 1125.45 -5.2089 -2.69982 0
M  V30 11984 C 1127.8 -5.75489 -2.6267 0
M  V30 11985 C 1126.47 -6.15537 -2.58207 0
M  V30 11986 H 1125.74 -0.435123 -0.599791 0
M  V30 11987 H 1128.38 -1.61308 -1.03209 0
M  V30 11988 H 1126.69 -1.46275 -3.6347 0
M  V30 11989 H 1128.38 -1.84678 -3.55942 0
M  V30 11990 H 1124.97 -3.13255 -2.92523 0
M  V30 11991 H 1129.16 -4.10401 -2.79079 0
M  V30 11992 H 1124.41 -5.51014 -2.6494 0
M  V30 11993 H 1128.59 -6.48973 -2.526 0
M  V30 11994 H 1126.22 -7.19627 -2.45034 0
M  V30 11995 N 1127.79 1.09952 -1.12909 0
M  V30 11996 C 1129.21 1.34051 -0.866172 0
M  V30 11997 C 1129.41 1.95169 0.501125 0
M  V30 11998 O 1128.46 2.19458 1.24878 0
M  V30 11999 C 1129.78 2.25738 -1.98653 0
M  V30 12000 C 1131.32 2.39261 -2.01799 0
M  V30 12001 C 1131.8 3.3428 -3.13083 0
M  V30 12002 N 1133.29 3.41851 -3.12558 0
M  V30 12003 C 1134.02 4.15358 -3.95304 0
M  V30 12004 N 1133.52 4.91709 -4.88051 0
M  V30 12005 N 1135.31 4.11027 -3.83423 0
M  V30 12006 H 1127.46 0.686521 -2.00999 0
M  V30 12007 H 1129.73 0.364913 -0.874953 0
M  V30 12008 H 1129.43 1.88048 -2.97205 0
M  V30 12009 H 1129.31 3.26085 -1.89601 0
M  V30 12010 H 1131.69 2.76218 -1.03864 0
M  V30 12011 H 1131.78 1.38712 -2.14925 0
M  V30 12012 H 1131.42 2.98048 -4.11254 0
M  V30 12013 H 1131.35 4.34721 -2.97195 0
M  V30 12014 H 1133.84 2.87405 -2.45371 0
M  V30 12015 H 1134.15 5.45212 -5.47689 0
M  V30 12016 H 1132.5 4.90816 -4.92061 0
M  V30 12017 H 1135.69 3.50477 -3.10296 0
M  V30 12018 H 1135.86 4.68054 -4.4814 0
M  V30 12019 N 1129.27 0.921757 1.27833 0
M  V30 12020 C 1130.68 0.604496 1.76643 0
M  V30 12021 C 1131.03 -0.880294 1.75343 0
M  V30 12022 O 1130.16 -1.68875 1.35315 0
M  V30 12023 C 1130.75 1.09055 3.20768 0
M  V30 12024 C 1129.31 0.824066 3.67268 0
M  V30 12025 C 1128.46 1.25269 2.47392 0
M  V30 12026 H 1131.41 1.10217 1.14184 0
M  V30 12027 H 1131.43 0.435558 3.77999 0
M  V30 12028 H 1130.94 2.17122 3.21682 0
M  V30 12029 H 1129.04 -0.243055 3.71806 0
M  V30 12030 H 1129.15 1.43743 4.57028 0
M  V30 12031 H 1127.52 0.671313 2.45694 0
M  V30 12032 H 1128.3 2.34188 2.5102 0
M  V30 12033 N 1130.75 -1.41857 0.686609 0
M  V30 12034 C 1131.97 -2.06219 0.221037 0
M  V30 12035 C 1132.4 -1.51298 -1.11762 0
M  V30 12036 O 1131.75 -0.636253 -1.69769 0
M  V30 12037 C 1131.8 -3.60153 0.179425 0
M  V30 12038 O 1130.91 -4.03577 -0.848481 0
M  V30 12039 H 1130.25 -0.654787 0.110228 0
M  V30 12040 H 1132.78 -1.81783 0.938948 0
M  V30 12041 H 1132.79 -4.07999 0.00725332 0
M  V30 12042 H 1131.46 -3.99498 1.15647 0
M  V30 12043 H 1130.04 -3.67255 -0.646393 0
M  V30 12044 N 1132.22 -0.430739 -1.51599 0
M  V30 12045 C 1133.15 0.374695 -2.30474 0
M  V30 12046 C 1134.14 1.02694 -1.35602 0
M  V30 12047 O 1135.32 1.03184 -1.6452 0
M  V30 12048 C 1132.45 1.47981 -3.14196 0
M  V30 12049 C 1131.4 0.951415 -4.17291 0
M  V30 12050 C 1130.73 2.15177 -4.89492 0
M  V30 12051 C 1132.03 -0.00957951 -5.22299 0
M  V30 12052 H 1133.72 -0.283508 -2.98055 0
M  V30 12053 H 1131.27 -0.13779 -1.43339 0
M  V30 12054 H 1133.22 2.05043 -3.68151 0
M  V30 12055 H 1131.95 2.16621 -2.44424 0
M  V30 12056 H 1130.61 0.403052 -3.64378 0
M  V30 12057 H 1130.25 2.82421 -4.1623 0
M  V30 12058 H 1129.95 1.80464 -5.59202 0
M  V30 12059 H 1131.48 2.72806 -5.46269 0
M  V30 12060 H 1132.89 0.470527 -5.71366 0
M  V30 12061 H 1131.29 -0.268959 -5.99497 0
M  V30 12062 H 1132.36 -0.948297 -4.75537 0
M  V30 12063 N 1133.7 1.56767 -0.161869 0
M  V30 12064 C 1134.67 2.16299 0.758104 0
M  V30 12065 C 1135.67 1.10859 1.16478 0
M  V30 12066 O 1136.86 1.36422 1.08327 0
M  V30 12067 C 1133.99 2.73819 2.03067 0
M  V30 12068 H 1135.18 2.98938 0.239992 0
M  V30 12069 H 1132.73 1.56054 0.0876532 0
M  V30 12070 H 1133.47 1.94887 2.59209 0
M  V30 12071 H 1133.25 3.50974 1.74813 0
M  V30 12072 H 1134.74 3.19638 2.68741 0
M  V30 12073 N 1135.18 -0.111886 1.57202 0
M  V30 12074 C 1136.11 -1.13796 2.03894 0
M  V30 12075 C 1137.09 -1.4277 0.924696 0
M  V30 12076 O 1138.28 -1.53089 1.19488 0
M  V30 12077 C 1135.41 -2.46229 2.44925 0
M  V30 12078 C 1134.36 -2.31702 3.59859 0
M  V30 12079 C 1133.69 -3.69161 3.86813 0
M  V30 12080 C 1134.99 -1.77158 4.91337 0
M  V30 12081 H 1136.68 -0.749581 2.89865 0
M  V30 12082 H 1134.23 -0.359126 1.3945 0
M  V30 12083 H 1136.18 -3.18267 2.76195 0
M  V30 12084 H 1134.9 -2.86971 1.55933 0
M  V30 12085 H 1133.56 -1.62112 3.28809 0
M  V30 12086 H 1133.21 -4.07401 2.95015 0
M  V30 12087 H 1132.91 -3.60292 4.6418 0
M  V30 12088 H 1134.43 -4.42693 4.20542 0
M  V30 12089 H 1135.85 -2.3902 5.21097 0
M  V30 12090 H 1134.25 -1.79091 5.72753 0
M  V30 12091 H 1135.32 -0.729675 4.79379 0
M  V30 12092 N 1136.66 -1.52894 -0.382264 0
M  V30 12093 C 1137.59 -1.74413 -1.48703 0
M  V30 12094 C 1138.6 -0.624663 -1.50339 0
M  V30 12095 O 1139.79 -0.900527 -1.54119 0
M  V30 12096 C 1136.89 -1.79387 -2.8753 0
M  V30 12097 C 1136.07 -3.08794 -3.09783 0
M  V30 12098 C 1135.12 -3.05226 -4.2863 0
M  V30 12099 O 1134.15 -3.79073 -4.24609 0
M  V30 12100 N 1135.35 -2.2488 -5.35172 0
M  V30 12101 H 1138.12 -2.69734 -1.30628 0
M  V30 12102 H 1135.68 -1.51465 -0.571842 0
M  V30 12103 H 1137.67 -1.74498 -3.65147 0
M  V30 12104 H 1136.24 -0.914233 -2.98932 0
M  V30 12105 H 1135.46 -3.27118 -2.19971 0
M  V30 12106 H 1136.75 -3.94347 -3.21509 0
M  V30 12107 H 1136.15 -1.64363 -5.41296 0
M  V30 12108 H 1134.7 -2.25825 -6.1143 0
M  V30 12109 N 1138.14 0.641106 -1.43971 0
M  V30 12110 C 1139.36 1.43324 -1.4991 0
M  V30 12111 C 1139.79 1.87705 -0.121908 0
M  V30 12112 O 1139.15 1.58127 0.886875 0
M  V30 12113 C 1139.19 2.63637 -2.46025 0
M  V30 12114 O 1138.3 3.63123 -1.95488 0
M  V30 12115 H 1137.64 0.429252 -0.506595 0
M  V30 12116 H 1140.17 0.783427 -1.89007 0
M  V30 12117 H 1140.18 3.11304 -2.63731 0
M  V30 12118 H 1138.85 2.30678 -3.46064 0
M  V30 12119 H 1137.43 3.22332 -1.87501 0
M  V30 12120 N 1139.62 1.30703 0.880598 0
M  V30 12121 C 1140.57 1.14062 1.97418 0
M  V30 12122 C 1141.55 0.0545541 1.60807 0
M  V30 12123 O 1142.74 0.278344 1.74798 0
M  V30 12124 C 1139.87 0.839062 3.32888 0
M  V30 12125 C 1138.96 1.96559 3.75799 0
M  V30 12126 N 1139.35 3.21145 3.90768 0
M  V30 12127 C 1137.65 1.86294 4.05229 0
M  V30 12128 C 1138.35 3.94766 4.27241 0
M  V30 12129 N 1137.32 3.2285 4.37343 0
M  V30 12130 H 1141.12 2.08548 2.07087 0
M  V30 12131 H 1138.64 1.22106 1.0707 0
M  V30 12132 H 1140.64 0.700851 4.10967 0
M  V30 12133 H 1139.3 -0.0976808 3.24553 0
M  V30 12134 H 1140.31 3.56384 3.75781 0
M  V30 12135 H 1136.98 1.00016 4.05343 0
M  V30 12136 H 1138.37 5.02076 4.46508 0
M  V30 12137 N 1141.09 -1.09351 1.1349 0
M  V30 12138 C 1142.02 -2.18037 0.835588 0
M  V30 12139 C 1143 -1.68856 -0.205373 0
M  V30 12140 O 1144.19 -1.94094 -0.0641357 0
M  V30 12141 C 1141.32 -3.45987 0.301661 0
M  V30 12142 C 1140.27 -4.08507 1.27696 0
M  V30 12143 C 1139.6 -5.31292 0.602758 0
M  V30 12144 C 1140.9 -4.50916 2.63575 0
M  V30 12145 H 1142.59 -2.43332 1.74441 0
M  V30 12146 H 1140.14 -1.1695 0.840166 0
M  V30 12147 H 1142.09 -4.21324 0.079928 0
M  V30 12148 H 1140.82 -3.20217 -0.642552 0
M  V30 12149 H 1139.48 -3.3519 1.4847 0
M  V30 12150 H 1139.12 -5.01802 -0.346953 0
M  V30 12151 H 1138.82 -5.74075 1.25345 0
M  V30 12152 H 1140.35 -6.09351 0.390325 0
M  V30 12153 H 1141.76 -5.17474 2.46765 0
M  V30 12154 H 1140.16 -5.04586 3.24827 0
M  V30 12155 H 1141.23 -3.63279 3.2118 0
M  V30 12156 N 1142.57 -0.928524 -1.27343 0
M  V30 12157 C 1143.48 -0.433901 -2.30553 0
M  V30 12158 C 1144.5 0.485832 -1.6708 0
M  V30 12159 O 1145.67 0.36844 -1.98001 0
M  V30 12160 C 1142.74 0.304617 -3.45359 0
M  V30 12161 C 1141.8 -0.650131 -4.24349 0
M  V30 12162 C 1141.03 0.0532372 -5.33673 0
M  V30 12163 O 1141.26 1.27246 -5.56026 0
M  V30 12164 O 1140.19 -0.619009 -5.98709 0
M  V30 12165 H 1144.02 -1.2909 -2.74899 0
M  V30 12166 H 1141.6 -0.693903 -1.32308 0
M  V30 12167 H 1143.48 0.721137 -4.15184 0
M  V30 12168 H 1142.16 1.13721 -3.03066 0
M  V30 12169 H 1141.06 -1.11635 -3.57055 0
M  V30 12170 H 1142.4 -1.44996 -4.70358 0
M  V30 12171 N 1144.05 1.41491 -0.694123 0
M  V30 12172 C 1144.96 2.34583 -0.0283414 0
M  V30 12173 C 1145.98 1.5615 0.767662 0
M  V30 12174 O 1147.15 1.88637 0.705556 0
M  V30 12175 C 1144.22 3.34876 0.897726 0
M  V30 12176 C 1143.28 4.29197 0.0940905 0
M  V30 12177 C 1142.51 5.24699 0.976051 0
M  V30 12178 O 1142.73 5.25613 2.21556 0
M  V30 12179 O 1141.67 6.00387 0.426503 0
M  V30 12180 H 1145.49 2.93092 -0.795656 0
M  V30 12181 H 1143.08 1.4232 -0.45445 0
M  V30 12182 H 1144.96 3.96438 1.4288 0
M  V30 12183 H 1143.64 2.78812 1.64456 0
M  V30 12184 H 1142.54 3.70988 -0.481552 0
M  V30 12185 H 1143.88 4.88355 -0.614045 0
M  V30 12186 N 1145.53 0.438773 1.51369 0
M  V30 12187 C 1146.46 -0.362467 2.3067 0
M  V30 12188 C 1147.44 -1.01973 1.36145 0
M  V30 12189 O 1148.62 -1.0231 1.65065 0
M  V30 12190 C 1145.75 -1.46313 3.14976 0
M  V30 12191 C 1144.71 -0.929272 4.1779 0
M  V30 12192 C 1144.03 -2.12579 4.90627 0
M  V30 12193 C 1145.33 0.0372782 5.22287 0
M  V30 12194 H 1147.03 0.29931 2.979 0
M  V30 12195 H 1144.57 0.14539 1.43264 0
M  V30 12196 H 1146.53 -2.03088 3.69233 0
M  V30 12197 H 1145.25 -2.15321 2.45569 0
M  V30 12198 H 1143.91 -0.383722 3.64586 0
M  V30 12199 H 1143.56 -2.8021 4.17722 0
M  V30 12200 H 1143.26 -1.77496 5.60151 0
M  V30 12201 H 1144.78 -2.69905 5.47708 0
M  V30 12202 H 1146.2 -0.44022 5.71607 0
M  V30 12203 H 1144.59 0.300748 5.99346 0
M  V30 12204 H 1145.66 0.973503 4.75027 0
M  V30 12205 N 1147.01 -1.56678 0.170181 0
M  V30 12206 C 1148.25 -1.9646 -0.474125 0
M  V30 12207 C 1148.57 -1.05719 -1.63855 0
M  V30 12208 O 1147.84 -0.123316 -1.95511 0
M  V30 12209 H 1146.42 -0.725446 -0.178149 0
M  V30 12210 H 1149.09 -1.93276 0.251099 0
M  V30 12211 H 1148.18 -3.00726 -0.834894 0
M  V30 12212 N 1148.48 0.103547 -1.57259 0
M  V30 12213 C 1149.41 1.12714 -2.04494 0
M  V30 12214 C 1150.39 1.42278 -0.932255 0
M  V30 12215 O 1151.58 1.52453 -1.20298 0
M  V30 12216 C 1148.71 2.44927 -2.46228 0
M  V30 12217 C 1147.66 2.2979 -3.61082 0
M  V30 12218 C 1146.99 3.67105 -3.88765 0
M  V30 12219 C 1148.29 1.7455 -4.9227 0
M  V30 12220 H 1149.98 0.734198 -2.90258 0
M  V30 12221 H 1147.53 0.351725 -1.39638 0
M  V30 12222 H 1149.48 3.16798 -2.77879 0
M  V30 12223 H 1148.21 2.8614 -1.57453 0
M  V30 12224 H 1146.87 1.60366 -3.29664 0
M  V30 12225 H 1146.51 4.05831 -2.97171 0
M  V30 12226 H 1146.21 3.57825 -4.66084 0
M  V30 12227 H 1147.74 4.40456 -4.22884 0
M  V30 12228 H 1149.15 2.36253 -5.22358 0
M  V30 12229 H 1147.55 1.76051 -5.73695 0
M  V30 12230 H 1148.62 0.704242 -4.79759 0
M  V30 12231 N 1149.96 1.53094 0.37415 0
M  V30 12232 C 1150.89 1.81901 1.46404 0
M  V30 12233 C 1151.87 0.671949 1.56265 0
M  V30 12234 O 1153.06 0.920978 1.70973 0
M  V30 12235 C 1150.19 2.00123 2.83845 0
M  V30 12236 C 1149.14 3.15864 2.88814 0
M  V30 12237 C 1148.47 3.19364 4.28848 0
M  V30 12238 C 1149.77 4.54633 2.57112 0
M  V30 12239 H 1151.46 2.73172 1.22546 0
M  V30 12240 H 1149.01 1.31444 0.588087 0
M  V30 12241 H 1150.96 2.18859 3.6011 0
M  V30 12242 H 1149.68 1.05555 3.09072 0
M  V30 12243 H 1148.34 2.96935 2.15 0
M  V30 12244 H 1147.99 2.2245 4.51137 0
M  V30 12245 H 1147.69 3.97123 4.3309 0
M  V30 12246 H 1149.22 3.40273 5.06997 0
M  V30 12247 H 1150.63 4.73587 3.23091 0
M  V30 12248 H 1149.03 5.34569 2.72683 0
M  V30 12249 H 1150.1 4.60331 1.52392 0
M  V30 12250 N 1151.44 -0.633461 1.44309 0
M  V30 12251 C 1152.37 -1.7583 1.45462 0
M  V30 12252 C 1153.35 -1.59545 0.313723 0
M  V30 12253 O 1154.53 -1.8146 0.51034 0
M  V30 12254 C 1151.66 -3.13375 1.28506 0
M  V30 12255 C 1150.71 -3.48315 2.46128 0
M  V30 12256 S 1151.54 -3.46058 4.08662 0
M  V30 12257 C 1152.7 -4.86226 3.94125 0
M  V30 12258 H 1152.93 -1.74585 2.4064 0
M  V30 12259 H 1150.46 -0.807868 1.31578 0
M  V30 12260 H 1152.42 -3.92748 1.19411 0
M  V30 12261 H 1151.08 -3.12161 0.348432 0
M  V30 12262 H 1150.27 -4.48397 2.30122 0
M  V30 12263 H 1149.88 -2.76399 2.51951 0
M  V30 12264 H 1152.17 -5.75393 3.57671 0
M  V30 12265 H 1153.11 -5.07287 4.9403 0
M  V30 12266 H 1153.52 -4.60691 3.26227 0
M  V30 12267 N 1152.92 -1.31168 -0.873655 0
M  V30 12268 C 1153.85 -1.14325 -1.98651 0
M  V30 12269 C 1154.86 -0.0833421 -1.62587 0
M  V30 12270 O 1156.05 -0.330477 -1.75414 0
M  V30 12271 C 1153.15 -0.723747 -3.31082 0
M  V30 12272 C 1152.33 -1.86787 -3.95512 0
M  V30 12273 C 1151.38 -1.43503 -5.06254 0
M  V30 12274 O 1150.41 -2.14409 -5.27273 0
M  V30 12275 N 1151.61 -0.320362 -5.79615 0
M  V30 12276 H 1154.38 -2.10179 -2.13647 0
M  V30 12277 H 1151.94 -1.23454 -1.04742 0
M  V30 12278 H 1153.93 -0.416971 -4.02546 0
M  V30 12279 H 1152.5 0.143073 -3.12272 0
M  V30 12280 H 1151.72 -2.34216 -3.17075 0
M  V30 12281 H 1153.01 -2.6343 -4.35296 0
M  V30 12282 H 1152.41 0.270215 -5.65054 0
M  V30 12283 H 1150.96 -0.0731 -6.51759 0
M  V30 12284 N 1154.4 1.08748 -1.14068 0
M  V30 12285 C 1155.81 1.33125 -0.880341 0
M  V30 12286 C 1156.01 1.9569 0.480396 0
M  V30 12287 O 1155.07 2.2077 1.22543 0
M  V30 12288 C 1156.38 2.23618 -2.01036 0
M  V30 12289 C 1157.93 2.37108 -2.04326 0
M  V30 12290 C 1158.4 3.30941 -3.1661 0
M  V30 12291 N 1159.9 3.38517 -3.16166 0
M  V30 12292 C 1160.63 4.11142 -3.99687 0
M  V30 12293 N 1160.13 4.86505 -4.93239 0
M  V30 12294 N 1161.92 4.06938 -3.87761 0
M  V30 12295 H 1154.07 0.665164 -2.01716 0
M  V30 12296 H 1156.33 0.355612 -0.878774 0
M  V30 12297 H 1156.04 1.84885 -2.99183 0
M  V30 12298 H 1155.91 3.24056 -1.93049 0
M  V30 12299 H 1158.3 2.75101 -1.06787 0
M  V30 12300 H 1158.38 1.36424 -2.16384 0
M  V30 12301 H 1158.03 2.93669 -4.14392 0
M  V30 12302 H 1157.96 4.31545 -3.01789 0
M  V30 12303 H 1160.45 2.84786 -2.48405 0
M  V30 12304 H 1160.76 5.39372 -5.53441 0
M  V30 12305 H 1159.1 4.8557 -4.9724 0
M  V30 12306 H 1162.3 3.47166 -3.13996 0
M  V30 12307 H 1162.47 4.63275 -4.53079 0
M  V30 12308 N 1155.87 0.935264 1.26849 0
M  V30 12309 C 1157.11 0.587087 1.95787 0
M  V30 12310 C 1157.48 -0.856974 1.71814 0
M  V30 12311 O 1158.68 -1.3138 2.34505 0
M  V30 12312 C 1156.95 0.91303 3.45541 0
M  V30 12313 S 1158.51 0.674506 4.33585 0
M  V30 12314 H 1155.33 0.216442 0.677255 0
M  V30 12315 H 1157.93 1.20532 1.53923 0
M  V30 12316 H 1156.63 1.96154 3.60488 0
M  V30 12317 H 1156.16 0.28429 3.92371 0
M  V30 12318 H 1158.18 -0.464121 4.94025 0
M  V30 12319 N 1157.35 -1.41121 0.701616 0
M  V30 12320 C 1158.6 -2.01928 0.244271 0
M  V30 12321 C 1158.95 -1.54597 -1.14532 0
M  V30 12322 O 1158.25 -0.749972 -1.76312 0
M  V30 12323 C 1158.44 -3.5654 0.247781 0
M  V30 12324 C 1158.27 -4.18879 1.63618 0
M  V30 12325 C 1157.04 -4.52913 2.24048 0
M  V30 12326 C 1159.24 -4.44679 2.5839 0
M  V30 12327 N 1157.22 -5.00571 3.55389 0
M  V30 12328 C 1158.59 -4.94178 3.74418 0
M  V30 12329 C 1160.65 -4.26698 2.56579 0
M  V30 12330 C 1159.35 -5.27584 4.88924 0
M  V30 12331 C 1161.37 -4.61198 3.70203 0
M  V30 12332 C 1160.74 -5.10873 4.84962 0
M  V30 12333 H 1156.84 -0.770275 0.134908 0
M  V30 12334 H 1159.42 -1.71571 0.920402 0
M  V30 12335 H 1157.59 -3.86357 -0.39786 0
M  V30 12336 H 1159.32 -4.04074 -0.224961 0
M  V30 12337 H 1156.08 -4.39572 1.76277 0
M  V30 12338 H 1156.5 -5.28799 4.2273 0
M  V30 12339 H 1161.14 -3.87525 1.69069 0
M  V30 12340 H 1158.86 -5.65678 5.77091 0
M  V30 12341 H 1162.45 -4.48939 3.70061 0
M  V30 12342 H 1161.33 -5.37067 5.71426 0
M  V30 12343 N 1158.83 -0.446794 -1.51134 0
M  V30 12344 C 1159.79 0.348311 -2.26538 0
M  V30 12345 C 1160.79 0.941566 -1.3035 0
M  V30 12346 O 1161.98 0.814537 -1.53984 0
M  V30 12347 C 1159.12 1.49371 -3.06433 0
M  V30 12348 H 1160.31 -0.312648 -2.98266 0
M  V30 12349 H 1157.86 -0.200201 -1.55013 0
M  V30 12350 H 1158.6 2.19045 -2.39144 0
M  V30 12351 H 1158.38 1.07439 -3.77093 0
M  V30 12352 H 1159.87 2.05522 -3.63525 0
M  V30 12353 N 1160.31 1.56586 -0.178487 0
M  V30 12354 C 1161.22 2.21903 0.761321 0
M  V30 12355 C 1162.23 1.21289 1.2476 0
M  V30 12356 O 1163.41 1.53974 1.29823 0
M  V30 12357 C 1160.48 2.85259 1.97048 0
M  V30 12358 C 1159.54 4.01095 1.53039 0
M  V30 12359 C 1158.77 4.61421 2.68191 0
M  V30 12360 O 1158.99 4.20644 3.85247 0
M  V30 12361 O 1157.93 5.51171 2.41855 0
M  V30 12362 H 1161.75 3.02788 0.235141 0
M  V30 12363 H 1159.34 1.49316 0.0500442 0
M  V30 12364 H 1161.22 3.25404 2.6775 0
M  V30 12365 H 1159.89 2.07366 2.48558 0
M  V30 12366 H 1158.8 3.65606 0.792661 0
M  V30 12367 H 1160.13 4.80603 1.06213 0
M  V30 12368 N 1161.79 -0.095206 1.57312 0
M  V30 12369 C 1163.06 -0.830388 1.77099 0
M  V30 12370 C 1163.44 -1.9694 0.760121 0
M  V30 12371 O 1162.79 -2.2752 -0.211403 0
M  V30 12372 C 1163 -1.32507 3.22867 0
M  V30 12373 C 1164.35 -1.7679 3.86045 0
M  V30 12374 O 1165.37 -1.42131 3.26615 0
M  V30 12375 O 1164.23 -2.40876 4.90552 0
M  V30 12376 H 1161.33 -0.396083 0.72598 0
M  V30 12377 H 1163.87 -0.0770965 1.69525 0
M  V30 12378 H 1162.64 -0.508992 3.87975 0
M  V30 12379 H 1162.27 -2.14037 3.35073 0
M  V30 12380 N 1163.26 -1.53291 -0.366026 0
M  V30 12381 C 1164.68 -1.61144 -0.942849 0
M  V30 12382 C 1165.03 -0.478571 -1.90274 0
M  V30 12383 O 1164.15 0.395069 -2.12763 0
M  V30 12384 C 1164.75 -2.92081 -1.71681 0
M  V30 12385 C 1163.31 -3.0227 -2.24298 0
M  V30 12386 C 1162.45 -2.56436 -1.05526 0
M  V30 12387 H 1165.4 -1.58038 -0.144835 0
M  V30 12388 H 1165.42 -2.79858 -2.57798 0
M  V30 12389 H 1164.94 -3.74513 -1.01793 0
M  V30 12390 H 1163.04 -2.24425 -2.97429 0
M  V30 12391 H 1163.15 -4.07341 -2.5221 0
M  V30 12392 H 1161.51 -2.11301 -1.42211 0
M  V30 12393 H 1162.3 -3.41285 -0.371376 0
M  V30 12394 N 1164.74 0.6258 -1.44643 0
M  V30 12395 C 1165.67 1.75086 -1.47911 0
M  V30 12396 C 1166.69 1.58496 -0.37188 0
M  V30 12397 O 1167.88 1.66712 -0.637925 0
M  V30 12398 C 1164.98 3.12874 -1.30243 0
M  V30 12399 C 1164.15 3.55873 -2.54309 0
M  V30 12400 C 1163.21 4.72558 -2.31464 0
M  V30 12401 O 1162.23 4.80599 -3.04981 0
M  V30 12402 N 1163.44 5.64617 -1.34862 0
M  V30 12403 H 1166.2 1.72751 -2.44902 0
M  V30 12404 H 1163.76 0.810531 -1.4015 0
M  V30 12405 H 1165.75 3.88663 -1.12798 0
M  V30 12406 H 1164.32 3.0982 -0.415966 0
M  V30 12407 H 1163.54 2.70237 -2.86994 0
M  V30 12408 H 1164.83 3.81355 -3.36817 0
M  V30 12409 H 1164.23 5.60819 -0.741542 0
M  V30 12410 H 1162.79 6.40013 -1.23394 0
M  V30 12411 N 1166.22 1.31629 0.866686 0
M  V30 12412 C 1167.13 1.21524 2.00671 0
M  V30 12413 C 1168.15 0.131277 1.73504 0
M  V30 12414 O 1169.32 0.349699 1.98341 0
M  V30 12415 C 1166.39 0.926491 3.34091 0
M  V30 12416 C 1165.45 2.09769 3.7456 0
M  V30 12417 C 1164.68 1.82262 5.01614 0
M  V30 12418 O 1164.9 0.759329 5.65323 0
M  V30 12419 O 1163.84 2.68031 5.38928 0
M  V30 12420 H 1167.66 2.17335 2.1213 0
M  V30 12421 H 1165.25 1.11401 0.995499 0
M  V30 12422 H 1167.13 0.78144 4.14091 0
M  V30 12423 H 1165.81 -0.00155829 3.237 0
M  V30 12424 H 1164.71 2.29816 2.95187 0
M  V30 12425 H 1166.05 3.0081 3.89582 0
M  V30 12426 N 1167.7 -1.08142 1.14644 0
M  V30 12427 C 1169.12 -1.32656 0.887388 0
M  V30 12428 C 1169.32 -1.95942 -0.470012 0
M  V30 12429 O 1168.37 -2.21417 -1.21371 0
M  V30 12430 C 1169.68 -2.22549 2.02219 0
M  V30 12431 C 1171.23 -2.36021 2.0558 0
M  V30 12432 C 1171.71 -3.29257 3.18361 0
M  V30 12433 N 1173.2 -3.36835 3.17957 0
M  V30 12434 C 1173.93 -4.09017 4.01862 0
M  V30 12435 N 1173.43 -4.83882 4.95812 0
M  V30 12436 N 1175.22 -4.04875 3.89913 0
M  V30 12437 H 1167.37 -0.654457 2.02066 0
M  V30 12438 H 1169.64 -0.350947 0.880648 0
M  V30 12439 H 1169.34 -1.83296 3.00159 0
M  V30 12440 H 1169.22 -3.23027 1.94765 0
M  V30 12441 H 1171.6 -2.74531 1.08245 0
M  V30 12442 H 1171.68 -1.35275 2.17105 0
M  V30 12443 H 1171.33 -2.91468 4.15944 0
M  V30 12444 H 1171.26 -4.29938 3.04074 0
M  V30 12445 H 1173.75 -2.83465 2.49912 0
M  V30 12446 H 1174.06 -5.3643 5.56294 0
M  V30 12447 H 1172.41 -4.82926 4.99808 0
M  V30 12448 H 1175.6 -3.45496 3.15833 0
M  V30 12449 H 1175.77 -4.60866 4.55529 0
M  V30 12450 N 1169.18 -0.941978 -1.26351 0
M  V30 12451 C 1170.59 -0.632522 -1.75659 0
M  V30 12452 C 1170.94 0.852287 -1.76722 0
M  V30 12453 O 1170.06 1.66701 -1.37985 0
M  V30 12454 C 1170.66 -1.14145 -3.18993 0
M  V30 12455 C 1169.22 -0.882391 -3.65911 0
M  V30 12456 C 1168.37 -1.29189 -2.45368 0
M  V30 12457 H 1171.32 -1.12019 -1.12416 0
M  V30 12458 H 1171.34 -0.495639 -3.77258 0
M  V30 12459 H 1170.85 -2.22213 -3.18187 0
M  V30 12460 H 1168.95 0.183873 -3.72146 0
M  V30 12461 H 1169.06 -1.50996 -4.54683 0
M  V30 12462 H 1167.43 -0.710316 -2.44595 0
M  V30 12463 H 1168.21 -2.38152 -2.47262 0
M  V30 12464 N 1170.66 1.40747 -0.709091 0
M  V30 12465 C 1172.07 1.83955 -0.318968 0
M  V30 12466 C 1172.42 1.59304 1.14527 0
M  V30 12467 O 1171.54 1.07052 1.88066 0
M  V30 12468 C 1172.14 3.33934 -0.572147 0
M  V30 12469 C 1170.7 3.75661 -0.235802 0
M  V30 12470 C 1169.84 2.64024 -0.847743 0
M  V30 12471 H 1172.79 1.30107 -0.908734 0
M  V30 12472 H 1172.82 3.80143 0.164752 0
M  V30 12473 H 1172.33 3.51844 -1.63791 0
M  V30 12474 H 1170.43 3.63348 0.825164 0
M  V30 12475 H 1170.54 4.73955 -0.700263 0
M  V30 12476 H 1168.91 2.53197 -0.276283 0
M  V30 12477 H 1169.69 2.84748 -1.91765 0
M  V30 12478 N 1172.13 0.454803 1.50895 0
M  V30 12479 C 1173.38 -0.10577 2.02224 0
M  V30 12480 C 1173.71 -1.41176 1.33789 0
M  V30 12481 O 1172.96 -1.90522 0.447181 0
M  V30 12482 C 1173.26 -0.354159 3.55641 0
M  V30 12483 C 1172.93 0.868136 4.42464 0
M  V30 12484 C 1171.59 1.2033 4.65912 0
M  V30 12485 C 1173.94 1.68272 4.93289 0
M  V30 12486 C 1171.27 2.3534 5.37431 0
M  V30 12487 C 1173.62 2.82396 5.6607 0
M  V30 12488 C 1172.29 3.16346 5.87777 0
M  V30 12489 H 1171.56 -0.0387041 0.739989 0
M  V30 12490 H 1174.2 0.605564 1.81673 0
M  V30 12491 H 1172.51 -1.14757 3.74617 0
M  V30 12492 H 1174.21 -0.8016 3.92906 0
M  V30 12493 H 1170.8 0.596995 4.24422 0
M  V30 12494 H 1174.98 1.43698 4.75042 0
M  V30 12495 H 1170.24 2.61936 5.52449 0
M  V30 12496 H 1174.41 3.45873 6.04438 0
M  V30 12497 H 1172.04 4.05574 6.42973 0
M  V30 12498 N 1173.61 -1.56489 0.186789 0
M  V30 12499 C 1174.54 -2.15911 -0.769104 0
M  V30 12500 C 1175.56 -1.11872 -1.18273 0
M  V30 12501 O 1176.75 -1.38999 -1.1199 0
M  V30 12502 C 1173.85 -2.69957 -2.04882 0
M  V30 12503 C 1173.02 -3.98812 -1.79631 0
M  V30 12504 C 1172.08 -4.37767 -2.9197 0
M  V30 12505 O 1171.1 -5.0535 -2.61935 0
M  V30 12506 N 1172.31 -4.0059 -4.20128 0
M  V30 12507 H 1175.07 -2.98561 -0.261007 0
M  V30 12508 H 1172.63 -1.61899 0.00453357 0
M  V30 12509 H 1174.62 -2.93006 -2.79158 0
M  V30 12510 H 1173.19 -1.91808 -2.46837 0
M  V30 12511 H 1172.41 -3.8398 -0.891776 0
M  V30 12512 H 1173.7 -4.82939 -1.60148 0
M  V30 12513 H 1173.1 -3.46213 -4.47385 0
M  V30 12514 H 1171.66 -4.28608 -4.91059 0
M  V30 12515 N 1175.09 0.086862 -1.5736 0
M  V30 12516 C 1176.02 1.13117 -1.99342 0
M  V30 12517 C 1177.03 1.35849 -0.897151 0
M  V30 12518 O 1178.22 1.34356 -1.17519 0
M  V30 12519 C 1175.32 2.48511 -2.30425 0
M  V30 12520 C 1174.5 2.45942 -3.61706 0
M  V30 12521 C 1173.56 3.63327 -3.80631 0
M  V30 12522 O 1172.58 3.45443 -4.52392 0
M  V30 12523 N 1173.78 4.83118 -3.21835 0
M  V30 12524 H 1176.55 0.773782 -2.89539 0
M  V30 12525 H 1174.11 0.275731 -1.59535 0
M  V30 12526 H 1176.1 3.25656 -2.40272 0
M  V30 12527 H 1174.67 2.76308 -1.46194 0
M  V30 12528 H 1173.89 1.54287 -3.62752 0
M  V30 12529 H 1175.18 2.41313 -4.47935 0
M  V30 12530 H 1174.58 5.00552 -2.6356 0
M  V30 12531 H 1173.13 5.57827 -3.37154 0
M  V30 12532 N 1176.57 1.53483 0.357892 0
M  V30 12533 C 1177.82 1.69256 1.09706 0
M  V30 12534 C 1178.13 0.454888 1.90237 0
M  V30 12535 O 1179.34 0.4933 2.66981 0
M  V30 12536 C 1177.79 2.99238 1.99961 0
M  V30 12537 C 1177.4 4.30293 1.24706 0
M  V30 12538 C 1179.14 3.24378 2.73823 0
M  V30 12539 C 1177.05 5.5136 2.13907 0
M  V30 12540 H 1175.98 0.630657 0.413265 0
M  V30 12541 H 1178.63 1.79983 0.357518 0
M  V30 12542 H 1177.01 2.82332 2.77677 0
M  V30 12543 H 1178.19 4.57857 0.519995 0
M  V30 12544 H 1176.5 4.11656 0.626736 0
M  V30 12545 H 1179.1 4.12015 3.40805 0
M  V30 12546 H 1179.44 2.40769 3.39612 0
M  V30 12547 H 1179.98 3.41994 2.03187 0
M  V30 12548 H 1176.71 6.3747 1.52684 0
M  V30 12549 H 1176.23 5.28065 2.84442 0
M  V30 12550 H 1177.91 5.86448 2.7329 0
M  V30 12551 N 1178.05 -0.61812 1.44973 0
M  V30 12552 C 1179.46 -0.937734 1.29146 0
M  V30 12553 C 1179.66 -2.00104 0.236749 0
M  V30 12554 O 1178.72 -2.49731 -0.372923 0
M  V30 12555 C 1180.03 -1.38865 2.66715 0
M  V30 12556 C 1181.58 -1.50343 2.74529 0
M  V30 12557 C 1182.05 -1.98814 4.12598 0
M  V30 12558 N 1183.54 -2.06064 4.14839 0
M  V30 12559 C 1184.28 -2.44768 5.18533 0
M  V30 12560 N 1183.78 -2.82516 6.32579 0
M  V30 12561 N 1185.57 -2.45016 5.05889 0
M  V30 12562 H 1177.72 0.084872 2.1223 0
M  V30 12563 H 1179.98 -0.0246744 0.947679 0
M  V30 12564 H 1179.69 -0.681583 3.45032 0
M  V30 12565 H 1179.56 -2.3572 2.94475 0
M  V30 12566 H 1181.95 -2.20144 1.96522 0
M  V30 12567 H 1182.03 -0.518297 2.50494 0
M  V30 12568 H 1181.67 -1.29604 4.91086 0
M  V30 12569 H 1181.6 -2.98223 4.34017 0
M  V30 12570 H 1184.1 -1.79525 3.32535 0
M  V30 12571 H 1184.41 -3.109 7.07504 0
M  V30 12572 H 1182.75 -2.80237 6.35997 0
M  V30 12573 H 1185.94 -2.14925 4.15842 0
M  V30 12574 H 1186.12 -2.74854 5.86821 0
M  V30 12575 N 1179.52 -1.32087 -0.859693 0
M  V30 12576 C 1180.45 -1.23204 -1.98351 0
M  V30 12577 C 1181.43 -0.116974 -1.69697 0
M  V30 12578 O 1182.62 -0.303301 -1.91817 0
M  V30 12579 C 1179.75 -0.949171 -3.34078 0
M  V30 12580 C 1178.7 -2.02493 -3.77069 0
M  V30 12581 C 1178.03 -1.59455 -5.1037 0
M  V30 12582 C 1179.33 -3.43934 -3.93074 0
M  V30 12583 H 1181.02 -2.17227 -2.0604 0
M  V30 12584 H 1178.57 -1.04577 -0.989931 0
M  V30 12585 H 1180.52 -0.873594 -4.12245 0
M  V30 12586 H 1179.25 0.0267095 -3.26589 0
M  V30 12587 H 1177.91 -2.09057 -3.01149 0
M  V30 12588 H 1177.55 -0.606256 -4.99333 0
M  V30 12589 H 1177.25 -2.31429 -5.40106 0
M  V30 12590 H 1178.78 -1.53325 -5.91036 0
M  V30 12591 H 1180.19 -3.39986 -4.61608 0
M  V30 12592 H 1178.59 -4.14214 -4.3422 0
M  V30 12593 H 1179.66 -3.83965 -2.9614 0
M  V30 12594 N 1181 1.07532 -1.15215 0
M  V30 12595 C 1182.23 1.83817 -0.949687 0
M  V30 12596 C 1182.64 1.82004 0.501991 0
M  V30 12597 O 1182 1.23014 1.34811 0
M  V30 12598 C 1182.05 3.30978 -1.45382 0
M  V30 12599 O 1181.77 3.32844 -2.84863 0
M  V30 12600 C 1183.27 4.24037 -1.29257 0
M  V30 12601 H 1180.49 0.58 -0.337404 0
M  V30 12602 H 1183.04 1.35752 -1.52944 0
M  V30 12603 H 1181.19 3.76399 -0.916638 0
M  V30 12604 H 1181.61 4.24773 -3.07682 0
M  V30 12605 H 1183.08 5.25371 -1.69379 0
M  V30 12606 H 1183.56 4.38563 -0.236519 0
M  V30 12607 H 1184.16 3.8445 -1.81874 0
M  V30 12608 N 1182.48 0.948665 1.2585 0
M  V30 12609 C 1183.41 0.482036 2.2847 0
M  V30 12610 C 1184.39 -0.468553 1.63519 0
M  V30 12611 O 1185.58 -0.368796 1.90666 0
M  V30 12612 C 1182.71 -0.246603 3.46423 0
M  V30 12613 C 1181.66 0.61815 4.23513 0
M  V30 12614 C 1180.99 -0.240884 5.34157 0
M  V30 12615 C 1182.29 1.89327 4.86778 0
M  V30 12616 H 1183.98 1.33973 2.67753 0
M  V30 12617 H 1181.53 0.645645 1.28715 0
M  V30 12618 H 1183.48 -0.584135 4.17332 0
M  V30 12619 H 1182.2 -1.13849 3.06114 0
M  V30 12620 H 1180.86 0.938682 3.54379 0
M  V30 12621 H 1180.51 -1.13235 4.90089 0
M  V30 12622 H 1180.21 0.334367 5.86648 0
M  V30 12623 H 1181.73 -0.573517 6.07901 0
M  V30 12624 H 1183.15 1.62252 5.49861 0
M  V30 12625 H 1181.55 2.41369 5.49419 0
M  V30 12626 H 1182.62 2.60006 4.09298 0
M  V30 12627 N 1183.96 -1.40369 0.716545 0
M  V30 12628 C 1185.37 -1.54757 0.390202 0
M  V30 12629 C 1185.57 -1.68767 -1.10091 0
M  V30 12630 O 1184.63 -1.67779 -1.88697 0
M  V30 12631 C 1185.94 -2.77546 1.15709 0
M  V30 12632 C 1187.49 -2.91364 1.14349 0
M  V30 12633 C 1187.97 -4.17068 1.89256 0
M  V30 12634 N 1189.46 -4.2407 1.8633 0
M  V30 12635 C 1190.19 -5.20243 2.41112 0
M  V30 12636 N 1189.69 -6.22318 3.04454 0
M  V30 12637 N 1191.48 -5.12328 2.31249 0
M  V30 12638 H 1183.63 -1.29521 1.68339 0
M  V30 12639 H 1185.9 -0.626382 0.711582 0
M  V30 12640 H 1185.6 -2.73474 2.21144 0
M  V30 12641 H 1185.48 -3.69682 0.749347 0
M  V30 12642 H 1187.86 -2.94939 0.0973383 0
M  V30 12643 H 1187.94 -2.00344 1.59047 0
M  V30 12644 H 1187.59 -4.14255 2.93863 0
M  V30 12645 H 1187.52 -5.07099 1.41978 0
M  V30 12646 H 1190.01 -3.50944 1.40168 0
M  V30 12647 H 1190.32 -6.92129 3.43769 0
M  V30 12648 H 1188.67 -6.22759 3.08538 0
M  V30 12649 H 1191.86 -4.31514 1.8142 0
M  V30 12650 H 1192.03 -5.87107 2.74243 0
M  V30 12651 N 1185.44 -0.462799 -1.50652 0
M  V30 12652 C 1186.38 0.335664 -2.28346 0
M  V30 12653 C 1187.35 0.994541 -1.33034 0
M  V30 12654 O 1188.54 1.00857 -1.61964 0
M  V30 12655 C 1185.68 1.41648 -3.1469 0
M  V30 12656 C 1184.79 0.773207 -4.25024 0
M  V30 12657 C 1183.93 1.83121 -4.98638 0
M  V30 12658 C 1182.97 1.16774 -6.00858 0
M  V30 12659 N 1182.1 2.16823 -6.67782 0
M  V30 12660 H 1186.94 -0.333202 -2.96131 0
M  V30 12661 H 1184.48 -0.176166 -1.46041 0
M  V30 12662 H 1186.44 2.05468 -3.63096 0
M  V30 12663 H 1185.07 2.05462 -2.48968 0
M  V30 12664 H 1184.12 0.0226444 -3.80393 0
M  V30 12665 H 1185.43 0.249061 -4.98178 0
M  V30 12666 H 1184.59 2.54543 -5.5072 0
M  V30 12667 H 1183.32 2.38915 -4.25172 0
M  V30 12668 H 1182.33 0.439112 -5.48044 0
M  V30 12669 H 1183.55 0.616809 -6.76293 0
M  V30 12670 H 1181.5 2.71649 -5.97112 0
M  V30 12671 H 1181.42 1.69371 -7.36783 0
M  V30 12672 H 1182.69 2.8765 -7.24484 0
M  V30 12673 N 1186.91 1.56388 -0.195085 0
M  V30 12674 C 1188.16 1.9758 0.443686 0
M  V30 12675 C 1188.49 1.08196 1.61629 0
M  V30 12676 O 1187.74 0.121061 1.95325 0
M  V30 12677 C 1188.04 3.44651 0.946051 0
M  V30 12678 C 1187.71 4.50758 -0.11318 0
M  V30 12679 C 1186.37 4.79499 -0.404229 0
M  V30 12680 C 1188.72 5.14534 -0.830899 0
M  V30 12681 C 1186.05 5.69307 -1.41797 0
M  V30 12682 C 1188.4 6.05438 -1.83379 0
M  V30 12683 C 1187.07 6.32535 -2.13204 0
M  V30 12684 H 1186.34 0.722995 0.162356 0
M  V30 12685 H 1188.98 1.8926 -0.292049 0
M  V30 12686 H 1187.29 3.50042 1.76006 0
M  V30 12687 H 1188.99 3.73878 1.44969 0
M  V30 12688 H 1185.58 4.28421 0.123833 0
M  V30 12689 H 1189.76 4.92421 -0.61927 0
M  V30 12690 H 1185.02 5.88575 -1.65496 0
M  V30 12691 H 1189.19 6.53915 -2.39516 0
M  V30 12692 H 1186.82 7.01924 -2.91902 0
M  V30 12693 N 1188.39 -0.0785156 1.57404 0
M  V30 12694 C 1189.34 -1.11278 2.04255 0
M  V30 12695 C 1190.33 -1.40482 0.946633 0
M  V30 12696 O 1191.54 -1.39968 1.13177 0
M  V30 12697 H 1187.92 -0.376157 0.65116 0
M  V30 12698 H 1189.89 -0.691437 2.90279 0
M  V30 12699 C 1188.64 -2.42006 2.49656 0
M  V30 12700 H 1187.96 -2.20383 3.33574 0
M  V30 12701 H 1189.4 -3.12837 2.86197 0
M  V30 12702 C 1187.86 -3.07488 1.37669 0
M  V30 12703 O 1188.39 -3.95285 0.715036 0
M  V30 12704 N 1186.59 -2.68004 1.1235 0
M  V30 12705 H 1186.14 -1.96698 1.66336 0
M  V30 12706 H 1186.1 -3.12141 0.376238 0
M  V30 12707 N 1189.87 -1.5367 -0.349747 0
M  V30 12708 C 1191.29 -1.43796 -0.692457 0
M  V30 12709 C 1191.49 -0.58972 -1.92677 0
M  V30 12710 O 1190.54 -0.078294 -2.52379 0
M  V30 12711 C 1191.86 -2.872 -0.890881 0
M  V30 12712 C 1193.4 -2.96935 -0.989892 0
M  V30 12713 C 1193.88 -4.41433 -1.22068 0
M  V30 12714 N 1195.37 -4.44932 -1.28802 0
M  V30 12715 C 1196.1 -5.53864 -1.48398 0
M  V30 12716 N 1195.6 -6.72814 -1.65208 0
M  V30 12717 N 1197.39 -5.41467 -1.50896 0
M  V30 12718 H 1189.54 -2.07317 0.461895 0
M  V30 12719 H 1191.81 -0.936895 0.144681 0
M  V30 12720 H 1191.51 -3.51656 -0.0555095 0
M  V30 12721 H 1191.39 -3.31784 -1.79442 0
M  V30 12722 H 1193.77 -2.32622 -1.81579 0
M  V30 12723 H 1193.86 -2.55721 -0.0633906 0
M  V30 12724 H 1193.5 -5.06325 -0.399729 0
M  V30 12725 H 1193.43 -4.80233 -2.16064 0
M  V30 12726 H 1195.92 -3.59214 -1.17361 0
M  V30 12727 H 1196.23 -7.51598 -1.79779 0
M  V30 12728 H 1194.58 -6.7577 -1.62356 0
M  V30 12729 H 1197.77 -4.47498 -1.37342 0
M  V30 12730 H 1197.94 -6.26423 -1.65826 0
M  V30 12731 N 1191.35 0.610423 -1.45298 0
M  V30 12732 C 1192.26 1.74964 -1.56285 0
M  V30 12733 C 1193.27 1.68149 -0.447436 0
M  V30 12734 O 1194.45 1.88556 -0.707725 0
M  V30 12735 C 1191.52 3.11417 -1.52383 0
M  V30 12736 C 1190.58 3.29707 -2.7494 0
M  V30 12737 C 1189.81 4.5965 -2.71215 0
M  V30 12738 O 1190.03 5.41789 -1.78383 0
M  V30 12739 O 1188.97 4.80591 -3.62375 0
M  V30 12740 H 1192.79 1.68646 -2.52571 0
M  V30 12741 H 1190.38 0.774168 -1.27777 0
M  V30 12742 H 1192.26 3.9272 -1.52805 0
M  V30 12743 H 1190.93 3.18232 -0.592472 0
M  V30 12744 H 1189.84 2.48003 -2.80081 0
M  V30 12745 H 1191.17 3.27766 -3.67192 0
M  V30 12746 N 1192.83 1.32541 0.852676 0
M  V30 12747 C 1193.77 1.21602 1.98282 0
M  V30 12748 C 1194.77 0.120384 1.68972 0
M  V30 12749 O 1195.97 0.283441 1.77754 0
M  V30 12750 H 1192.35 0.376994 0.650676 0
M  V30 12751 H 1194.32 2.17179 2.04636 0
M  V30 12752 C 1193.07 0.957965 3.34243 0
M  V30 12753 H 1192.39 1.79324 3.57327 0
M  V30 12754 H 1193.83 0.921673 4.13861 0
M  V30 12755 C 1192.29 -0.339271 3.35187 0
M  V30 12756 O 1192.82 -1.3505 3.78318 0
M  V30 12757 N 1191.03 -0.361944 2.88337 0
M  V30 12758 H 1190.57 0.461497 2.53432 0
M  V30 12759 H 1190.53 -1.22976 2.89352 0
M  V30 12760 N 1194.3 -1.0692 1.15784 0
M  V30 12761 C 1195.53 -1.83849 0.959903 0
M  V30 12762 C 1195.95 -1.8169 -0.486873 0
M  V30 12763 O 1195.31 -1.21305 -1.34739 0
M  V30 12764 C 1195.36 -3.28642 1.48414 0
M  V30 12765 O 1194.46 -4.0665 0.686249 0
M  V30 12766 H 1193.81 -0.569115 0.342059 0
M  V30 12767 H 1196.34 -1.34851 1.53871 0
M  V30 12768 H 1196.35 -3.7947 1.49888 0
M  V30 12769 H 1195.02 -3.29529 2.53739 0
M  V30 12770 H 1193.6 -3.65453 0.741501 0
M  V30 12771 N 1195.78 -0.955326 -1.25345 0
M  V30 12772 C 1197.01 -0.627233 -1.97688 0
M  V30 12773 C 1197.43 0.793973 -1.70522 0
M  V30 12774 O 1196.79 1.537 -0.961556 0
M  V30 12775 C 1196.84 -0.892969 -3.49369 0
M  V30 12776 O 1195.94 0.0278871 -4.12391 0
M  V30 12777 H 1195.28 -0.238402 -0.619726 0
M  V30 12778 H 1197.81 -1.28211 -1.59446 0
M  V30 12779 H 1197.82 -0.819517 -3.99685 0
M  V30 12780 H 1196.5 -1.92879 -3.6847 0
M  V30 12781 H 1195.08 -0.0978295 -3.72772 0
M  V30 12782 N 1197.26 1.39987 -0.723979 0
M  V30 12783 C 1198.21 2.32507 -0.0658033 0
M  V30 12784 C 1199.2 1.52484 0.737908 0
M  V30 12785 O 1200.41 1.68225 0.640332 0
M  V30 12786 H 1196.78 0.751996 -0.00247717 0
M  V30 12787 H 1198.76 2.85657 -0.862696 0
M  V30 12788 C 1197.5 3.37509 0.835628 0
M  V30 12789 H 1196.83 3.99157 0.226589 0
M  V30 12790 H 1198.27 4.04722 1.26396 0
M  V30 12791 C 1196.73 2.73665 1.96492 0
M  V30 12792 O 1197.26 2.60649 3.05655 0
M  V30 12793 N 1195.46 2.3192 1.75104 0
M  V30 12794 H 1195.01 2.42707 0.863204 0
M  V30 12795 H 1194.97 1.89542 2.50841 0
M  V30 12796 N 1198.74 0.470782 1.50404 0
M  V30 12797 C 1199.99 -0.0859981 2.01517 0
M  V30 12798 C 1200.3 -1.40811 1.35763 0
M  V30 12799 O 1201.51 -2.04982 1.7803 0
M  V30 12800 C 1199.96 -0.203773 3.59323 0
M  V30 12801 C 1199.57 1.10989 4.34034 0
M  V30 12802 C 1201.32 -0.712528 4.18477 0
M  V30 12803 C 1199.22 0.955928 5.83623 0
M  V30 12804 H 1198.15 -0.0359142 0.753144 0
M  V30 12805 H 1200.8 0.605631 1.73218 0
M  V30 12806 H 1199.19 -0.959177 3.84208 0
M  V30 12807 H 1200.36 1.87623 4.20873 0
M  V30 12808 H 1198.67 1.54973 3.86487 0
M  V30 12809 H 1201.27 -0.844745 5.27985 0
M  V30 12810 H 1201.61 -1.70377 3.79838 0
M  V30 12811 H 1202.15 -0.0145179 3.97797 0
M  V30 12812 H 1198.89 1.92054 6.26734 0
M  V30 12813 H 1198.41 0.22997 5.99359 0
M  V30 12814 H 1200.09 0.622423 6.43999 0
M  V30 12815 N 1200.22 -1.56282 0.203376 0
M  V30 12816 C 1201.15 -2.2247 -0.709183 0
M  V30 12817 C 1202.13 -1.19046 -1.21499 0
M  V30 12818 O 1203.31 -1.47578 -1.26231 0
M  V30 12819 C 1200.44 -2.8905 -1.92529 0
M  V30 12820 C 1199.4 -3.98789 -1.55407 0
M  V30 12821 C 1198.72 -4.52574 -2.84747 0
M  V30 12822 C 1200.02 -5.16774 -0.75775 0
M  V30 12823 H 1201.72 -2.98986 -0.157392 0
M  V30 12824 H 1199.26 -1.43808 -0.0742613 0
M  V30 12825 H 1201.22 -3.34038 -2.56898 0
M  V30 12826 H 1199.94 -2.09952 -2.50175 0
M  V30 12827 H 1198.6 -3.54504 -0.933928 0
M  V30 12828 H 1198.25 -3.70229 -3.40499 0
M  V30 12829 H 1197.95 -5.26627 -2.6065 0
M  V30 12830 H 1199.47 -5.00269 -3.5009 0
M  V30 12831 H 1200.89 -5.58256 -1.30472 0
M  V30 12832 H 1199.28 -5.96945 -0.614583 0
M  V30 12833 H 1200.35 -4.84308 0.239476 0
M  V30 12834 N 1201.7 0.070167 -1.57444 0
M  V30 12835 C 1202.97 0.802108 -1.78397 0
M  V30 12836 C 1203.35 1.95706 -0.791356 0
M  V30 12837 O 1202.7 2.27827 0.17518 0
M  V30 12838 C 1202.91 1.27354 -3.24934 0
M  V30 12839 C 1204.26 1.70626 -3.88808 0
M  V30 12840 O 1205.28 1.36916 -3.28835 0
M  V30 12841 O 1204.14 2.33041 -4.94322 0
M  V30 12842 H 1201.24 0.384483 -0.73219 0
M  V30 12843 H 1203.78 0.0501168 -1.69626 0
M  V30 12844 H 1202.55 0.447204 -3.88736 0
M  V30 12845 H 1202.18 2.0868 -3.38435 0
M  V30 12846 N 1203.17 1.53854 0.341593 0
M  V30 12847 C 1204.12 1.8268 1.43982 0
M  V30 12848 C 1205.12 0.697415 1.54378 0
M  V30 12849 O 1206.32 0.880785 1.56978 0
M  V30 12850 H 1202.7 0.578788 0.480113 0
M  V30 12851 H 1204.67 2.74556 1.16884 0
M  V30 12852 C 1203.42 2.05496 2.80476 0
M  V30 12853 H 1202.74 2.91852 2.73244 0
M  V30 12854 H 1204.18 2.2963 3.56435 0
M  V30 12855 C 1202.64 0.841061 3.26233 0
M  V30 12856 O 1203.17 0.0414376 4.01679 0
M  V30 12857 N 1201.37 0.657736 2.83059 0
M  V30 12858 H 1200.92 1.30962 2.21826 0
M  V30 12859 H 1200.88 -0.153003 3.14027 0
M  V30 12860 N 1204.65 -0.602709 1.4562 0
M  V30 12861 C 1205.58 -1.72374 1.5751 0
M  V30 12862 C 1206.56 -1.64669 0.426389 0
M  V30 12863 O 1207.75 -1.82994 0.650143 0
M  V30 12864 C 1204.88 -3.10987 1.5461 0
M  V30 12865 C 1203.83 -3.33507 2.68248 0
M  V30 12866 C 1203.16 -4.72443 2.50403 0
M  V30 12867 C 1204.46 -3.23285 4.10224 0
M  V30 12868 H 1206.15 -1.62679 2.51348 0
M  V30 12869 H 1203.7 -0.781217 1.20967 0
M  V30 12870 H 1205.65 -3.89214 1.61525 0
M  V30 12871 H 1204.37 -3.21533 0.573049 0
M  V30 12872 H 1203.03 -2.57672 2.60769 0
M  V30 12873 H 1202.68 -4.79729 1.51226 0
M  V30 12874 H 1202.38 -4.88466 3.26611 0
M  V30 12875 H 1203.91 -5.52864 2.59179 0
M  V30 12876 H 1205.32 -3.91381 4.1892 0
M  V30 12877 H 1203.72 -3.50837 4.86861 0
M  V30 12878 H 1204.79 -2.20652 4.31788 0
M  V30 12879 N 1206.13 -1.32992 -0.845635 0
M  V30 12880 C 1207.06 -1.25301 -1.97033 0
M  V30 12881 C 1208.04 -0.134966 -1.69564 0
M  V30 12882 O 1209.23 -0.323629 -1.91484 0
M  V30 12883 C 1206.36 -0.984551 -3.33052 0
M  V30 12884 C 1205.31 -2.06481 -3.749 0
M  V30 12885 C 1204.64 -1.6486 -5.08651 0
M  V30 12886 C 1205.94 -3.48083 -3.89404 0
M  V30 12887 H 1207.63 -2.194 -2.03725 0
M  V30 12888 H 1205.18 -1.05621 -0.978783 0
M  V30 12889 H 1207.13 -0.917269 -4.11296 0
M  V30 12890 H 1205.85 -0.00793116 -3.26599 0
M  V30 12891 H 1204.51 -2.1224 -2.98915 0
M  V30 12892 H 1204.16 -0.659183 -4.98662 0
M  V30 12893 H 1203.86 -2.37145 -5.37621 0
M  V30 12894 H 1205.38 -1.59585 -5.89377 0
M  V30 12895 H 1206.8 -3.44863 -4.57976 0
M  V30 12896 H 1205.19 -4.18796 -4.29802 0
M  V30 12897 H 1206.26 -3.87084 -2.92051 0
M  V30 12898 N 1207.61 1.06304 -1.1635 0
M  V30 12899 C 1208.83 1.83338 -0.969639 0
M  V30 12900 C 1209.26 1.81945 0.477231 0
M  V30 12901 O 1208.62 1.22018 1.34094 0
M  V30 12902 C 1208.66 3.2785 -1.50155 0
M  V30 12903 O 1207.77 4.06281 -0.707805 0
M  V30 12904 H 1207.11 0.567293 -0.345072 0
M  V30 12905 H 1209.64 1.34033 -1.54584 0
M  V30 12906 H 1209.65 3.7867 -1.51898 0
M  V30 12907 H 1208.32 3.28179 -2.55483 0
M  V30 12908 H 1206.9 3.65055 -0.760872 0
M  V30 12909 N 1209.09 0.96196 1.24836 0
M  V30 12910 C 1210.5 0.667561 1.44968 0
M  V30 12911 C 1210.7 -0.772521 1.86103 0
M  V30 12912 O 1209.76 -1.54704 1.99557 0
M  V30 12913 C 1211.07 1.64675 2.516 0
M  V30 12914 C 1212.62 1.65874 2.65433 0
M  V30 12915 C 1213.09 2.62576 3.75257 0
M  V30 12916 N 1214.58 2.60984 3.82677 0
M  V30 12917 C 1215.32 3.32484 4.67163 0
M  V30 12918 N 1214.82 4.13482 5.55882 0
M  V30 12919 N 1216.61 3.21336 4.61193 0
M  V30 12920 H 1208.76 1.89248 0.964307 0
M  V30 12921 H 1211.02 0.814443 0.485167 0
M  V30 12922 H 1210.73 2.67572 2.2825 0
M  V30 12923 H 1210.6 1.415 3.49653 0
M  V30 12924 H 1212.99 0.636912 2.88145 0
M  V30 12925 H 1213.07 1.9311 1.67756 0
M  V30 12926 H 1212.71 3.6489 3.53295 0
M  V30 12927 H 1212.64 2.32622 4.72435 0
M  V30 12928 H 1215.14 2.02187 3.19263 0
M  V30 12929 H 1215.45 4.6494 6.17293 0
M  V30 12930 H 1213.79 4.17578 5.55566 0
M  V30 12931 H 1216.98 2.57524 3.90895 0
M  V30 12932 H 1217.16 3.77323 5.26812 0
M  V30 12933 N 1210.56 -1.39601 0.731392 0
M  V30 12934 C 1211.5 -2.28169 0.0378735 0
M  V30 12935 C 1212.47 -1.44195 -0.751434 0
M  V30 12936 O 1213.66 -1.7359 -0.734753 0
M  V30 12937 C 1210.79 -3.24999 -0.953589 0
M  V30 12938 C 1209.83 -4.25748 -0.253203 0
M  V30 12939 S 1210.66 -5.25496 1.03025 0
M  V30 12940 C 1211.82 -6.25886 0.0412927 0
M  V30 12941 H 1212.05 -2.8664 0.788973 0
M  V30 12942 H 1209.59 -1.45271 0.523044 0
M  V30 12943 H 1211.54 -3.81308 -1.52035 0
M  V30 12944 H 1210.21 -2.65554 -1.6775 0
M  V30 12945 H 1209.4 -4.93913 -1.00328 0
M  V30 12946 H 1209 -3.7322 0.241426 0
M  V30 12947 H 1211.29 -6.72757 -0.800305 0
M  V30 12948 H 1212.24 -7.0473 0.68999 0
M  V30 12949 H 1212.64 -5.63538 -0.329495 0
M  V30 12950 N 1212.04 -0.478751 -1.50152 0
M  V30 12951 C 1212.95 0.316554 -2.32455 0
M  V30 12952 C 1213.97 0.98871 -1.4318 0
M  V30 12953 O 1215.14 0.974998 -1.76226 0
M  V30 12954 C 1212.21 1.3799 -3.18056 0
M  V30 12955 C 1211.27 0.723534 -4.23159 0
M  V30 12956 C 1210.5 1.73621 -5.0467 0
M  V30 12957 O 1210.73 2.96362 -4.87366 0
M  V30 12958 O 1209.66 1.30381 -5.87609 0
M  V30 12959 H 1213.49 -0.356491 -3.016 0
M  V30 12960 H 1211.07 -0.24046 -1.47452 0
M  V30 12961 H 1212.95 1.99565 -3.71149 0
M  V30 12962 H 1211.63 2.03627 -2.5163 0
M  V30 12963 H 1210.54 0.0686296 -3.74037 0
M  V30 12964 H 1211.87 0.109979 -4.92077 0
M  V30 12965 N 1213.52 1.56172 -0.211661 0
M  V30 12966 C 1214.45 2.17107 0.734657 0
M  V30 12967 C 1215.47 1.1374 1.16478 0
M  V30 12968 O 1216.65 1.40763 1.09764 0
M  V30 12969 C 1213.75 2.73182 2.00561 0
M  V30 12970 C 1212.93 4.0162 1.73264 0
M  V30 12971 C 1211.99 4.42357 2.84968 0
M  V30 12972 O 1211.01 5.09453 2.53863 0
M  V30 12973 N 1212.21 4.07223 4.13702 0
M  V30 12974 H 1214.98 2.98939 0.213475 0
M  V30 12975 H 1212.54 1.61872 -0.0302898 0
M  V30 12976 H 1214.53 2.97411 2.74461 0
M  V30 12977 H 1213.1 1.9571 2.43754 0
M  V30 12978 H 1212.32 3.85351 0.830575 0
M  V30 12979 H 1213.61 4.85426 1.52445 0
M  V30 12980 H 1213.01 3.53286 4.4182 0
M  V30 12981 H 1211.57 4.36366 4.84178 0
M  V30 12982 N 1215 -0.0618163 1.57479 0
M  V30 12983 C 1216.23 -0.770605 1.9169 0
M  V30 12984 C 1216.64 -1.71134 0.806841 0
M  V30 12985 O 1215.98 -1.8228 -0.228002 0
M  V30 12986 C 1216.04 -1.60962 3.21452 0
M  V30 12987 C 1215.71 -0.837193 4.49266 0
M  V30 12988 C 1216.7 -0.151964 5.19678 0
M  V30 12989 C 1214.39 -0.801414 4.95866 0
M  V30 12990 C 1216.38 0.558705 6.34947 0
M  V30 12991 C 1214.07 -0.0869788 6.11038 0
M  V30 12992 C 1215.07 0.591871 6.80431 0
M  V30 12993 O 1214.75 1.29478 7.93405 0
M  V30 12994 H 1214.49 -0.223673 0.637923 0
M  V30 12995 H 1217.04 -0.0333424 2.05373 0
M  V30 12996 H 1215.27 -2.38992 3.04006 0
M  V30 12997 H 1216.96 -2.19799 3.41238 0
M  V30 12998 H 1217.73 -0.170848 4.84699 0
M  V30 12999 H 1213.6 -1.31927 4.4172 0
M  V30 13000 H 1217.15 1.08913 6.89046 0
M  V30 13001 H 1213.05 -0.066057 6.45466 0
M  V30 13002 H 1213.81 1.20507 8.0958 0
M  V30 13003 N 1216.48 -1.54033 -0.333429 0
M  V30 13004 C 1217.44 -1.82021 -1.39288 0
M  V30 13005 C 1218.44 -0.691623 -1.45166 0
M  V30 13006 O 1219.63 -0.959925 -1.45365 0
M  V30 13007 C 1216.76 -1.97136 -2.78119 0
M  V30 13008 H 1217.95 -2.76671 -1.1573 0
M  V30 13009 H 1215.51 -1.45599 -0.568376 0
M  V30 13010 H 1216.24 -1.04663 -3.06946 0
M  V30 13011 H 1216.03 -2.79251 -2.75247 0
M  V30 13012 H 1217.52 -2.20271 -3.54782 0
M  V30 13013 N 1217.95 0.594978 -1.45938 0
M  V30 13014 C 1218.9 1.726 -1.55923 0
M  V30 13015 C 1219.9 1.63893 -0.428411 0
M  V30 13016 O 1221.1 1.69535 -0.604815 0
M  V30 13017 H 1217.48 0.570447 -0.489994 0
M  V30 13018 H 1219.45 1.61308 -2.51043 0
M  V30 13019 C 1218.2 3.10988 -1.55505 0
M  V30 13020 H 1217.52 3.18353 -2.4185 0
M  V30 13021 H 1218.96 3.8992 -1.66548 0
M  V30 13022 C 1217.42 3.35721 -0.281573 0
M  V30 13023 O 1217.95 3.96676 0.633336 0
M  V30 13024 N 1216.16 2.90083 -0.173314 0
M  V30 13025 H 1215.7 2.4066 -0.91872 0
M  V30 13026 H 1215.66 3.07005 0.677903 0
M  V30 13027 N 1219.43 1.33438 0.838571 0
M  V30 13028 C 1220.38 1.23698 1.96981 0
M  V30 13029 C 1221.37 0.138299 1.68835 0
M  V30 13030 O 1222.58 0.302278 1.77444 0
M  V30 13031 H 1218.96 0.383874 0.646641 0
M  V30 13032 H 1220.93 2.19337 2.02321 0
M  V30 13033 C 1219.68 0.993362 3.33208 0
M  V30 13034 H 1219 1.83104 3.55405 0
M  V30 13035 H 1220.44 0.965517 4.1286 0
M  V30 13036 C 1218.9 -0.303701 3.35528 0
M  V30 13037 O 1219.43 -1.3103 3.79729 0
M  V30 13038 N 1217.63 -0.331342 2.88705 0
M  V30 13039 H 1217.18 0.488351 2.52929 0
M  V30 13040 H 1217.14 -1.199 2.9064 0
M  V30 13041 N 1220.91 -1.05686 1.16912 0
M  V30 13042 C 1221.84 -2.15268 0.904532 0
M  V30 13043 C 1222.82 -1.69424 -0.151548 0
M  V30 13044 O 1224.01 -1.942 -0.00235371 0
M  V30 13045 C 1221.14 -3.44853 0.411581 0
M  V30 13046 C 1220.09 -4.04237 1.40628 0
M  V30 13047 C 1219.42 -5.29105 0.771479 0
M  V30 13048 C 1220.72 -4.42303 2.77787 0
M  V30 13049 H 1222.41 -2.37659 1.82094 0
M  V30 13050 H 1219.96 -1.14217 0.876947 0
M  V30 13051 H 1221.91 -4.20857 0.213929 0
M  V30 13052 H 1220.63 -3.22099 -0.540352 0
M  V30 13053 H 1219.29 -3.30297 1.59058 0
M  V30 13054 H 1218.94 -5.02652 -0.187133 0
M  V30 13055 H 1218.64 -5.69797 1.43545 0
M  V30 13056 H 1220.16 -6.07801 0.583988 0
M  V30 13057 H 1221.58 -5.09362 2.63103 0
M  V30 13058 H 1219.98 -4.93997 3.40716 0
M  V30 13059 H 1221.05 -3.52877 3.32575 0
M  V30 13060 N 1222.39 -0.968567 -1.24324 0
M  V30 13061 C 1223.3 -0.50703 -2.29055 0
M  V30 13062 C 1224.31 0.432431 -1.68541 0
M  V30 13063 O 1225.49 0.30526 -1.99073 0
M  V30 13064 C 1222.56 0.194589 -3.46153 0
M  V30 13065 C 1221.62 -0.784805 -4.22066 0
M  V30 13066 C 1220.85 -0.116574 -5.33573 0
M  V30 13067 O 1221.07 1.09492 -5.59792 0
M  V30 13068 O 1220.01 -0.809171 -5.96436 0
M  V30 13069 H 1223.83 -1.3777 -2.70653 0
M  V30 13070 H 1221.42 -0.735645 -1.30033 0
M  V30 13071 H 1223.3 0.588684 -4.17268 0
M  V30 13072 H 1221.97 1.04021 -3.06531 0
M  V30 13073 H 1220.88 -1.22938 -3.53323 0
M  V30 13074 H 1222.21 -1.59887 -4.65507 0
M  V30 13075 N 1223.87 1.39211 -0.738786 0
M  V30 13076 C 1224.78 2.34374 -0.102958 0
M  V30 13077 C 1225.79 1.58514 0.717596 0
M  V30 13078 O 1226.97 1.90786 0.645186 0
M  V30 13079 C 1224.03 3.37562 0.790733 0
M  V30 13080 C 1223.09 4.29279 -0.0425028 0
M  V30 13081 C 1222.33 5.27539 0.808628 0
M  V30 13082 O 1222.55 5.32396 2.04722 0
M  V30 13083 O 1221.48 6.0144 0.235279 0
M  V30 13084 H 1225.31 2.90412 -0.888498 0
M  V30 13085 H 1222.9 1.40803 -0.499498 0
M  V30 13086 H 1224.78 4.00783 1.30196 0
M  V30 13087 H 1223.45 2.83903 1.55502 0
M  V30 13088 H 1222.36 3.69268 -0.599335 0
M  V30 13089 H 1223.69 4.86154 -0.7691 0
M  V30 13090 N 1225.34 0.486708 1.49896 0
M  V30 13091 C 1226.27 -0.288898 2.31706 0
M  V30 13092 C 1227.26 -0.975901 1.3932 0
M  V30 13093 O 1228.44 -0.970065 1.68236 0
M  V30 13094 C 1225.57 -1.36218 3.19471 0
M  V30 13095 C 1224.52 -0.795884 4.20535 0
M  V30 13096 C 1223.85 -1.96862 4.97141 0
M  V30 13097 C 1225.15 0.203421 5.21904 0
M  V30 13098 H 1226.84 0.393934 2.96797 0
M  V30 13099 H 1224.39 0.190894 1.42729 0
M  V30 13100 H 1226.34 -1.91238 3.75508 0
M  V30 13101 H 1225.07 -2.074 2.52295 0
M  V30 13102 H 1223.73 -0.267538 3.65622 0
M  V30 13103 H 1223.37 -2.66779 4.26425 0
M  V30 13104 H 1223.07 -1.59585 5.65514 0
M  V30 13105 H 1224.6 -2.52343 5.56017 0
M  V30 13106 H 1226.01 -0.258144 5.72719 0
M  V30 13107 H 1224.41 0.491273 5.98086 0
M  V30 13108 H 1225.48 1.12414 4.7169 0
M  V30 13109 N 1226.82 -1.56058 0.219941 0
M  V30 13110 C 1228.07 -1.98554 -0.412808 0
M  V30 13111 C 1228.4 -1.10742 -1.5953 0
M  V30 13112 O 1227.68 -0.164757 -1.93801 0
M  V30 13113 C 1227.96 -3.4995 -0.848923 0
M  V30 13114 C 1227.81 -4.48535 0.337094 0
M  V30 13115 C 1229.13 -4.05703 -1.70567 0
M  V30 13116 H 1226.25 -0.721869 -0.148576 0
M  V30 13117 H 1228.89 -1.87356 0.315852 0
M  V30 13118 H 1227.04 -3.59624 -1.46979 0
M  V30 13119 H 1228.72 -4.50874 0.975216 0
M  V30 13120 H 1226.96 -4.22474 0.984798 0
M  V30 13121 H 1227.63 -5.51999 -0.0109665 0
M  V30 13122 H 1230.11 -3.98964 -1.18182 0
M  V30 13123 H 1228.98 -5.11955 -1.97972 0
M  V30 13124 H 1229.24 -3.52487 -2.66844 0
M  V30 13125 N 1228.3 0.053464 -1.57509 0
M  V30 13126 C 1229.21 1.07902 -2.08313 0
M  V30 13127 C 1230.23 1.41223 -1.01647 0
M  V30 13128 O 1231.4 1.51032 -1.33233 0
M  V30 13129 C 1228.47 2.36813 -2.5322 0
M  V30 13130 C 1227.53 2.10297 -3.74264 0
M  V30 13131 C 1226.76 3.33062 -4.1702 0
M  V30 13132 O 1226.99 4.42857 -3.59491 0
M  V30 13133 O 1225.92 3.20195 -5.09665 0
M  V30 13134 H 1229.75 0.677368 -2.9605 0
M  V30 13135 H 1227.33 0.268838 -1.46961 0
M  V30 13136 H 1229.21 3.12645 -2.82544 0
M  V30 13137 H 1227.89 2.76323 -1.68605 0
M  V30 13138 H 1226.79 1.32111 -3.49996 0
M  V30 13139 H 1228.13 1.75658 -4.59788 0
M  V30 13140 N 1229.78 1.54207 0.325255 0
M  V30 13141 C 1230.69 1.86495 1.42326 0
M  V30 13142 C 1231.71 0.756718 1.56684 0
M  V30 13143 O 1232.88 1.05084 1.71812 0
M  V30 13144 C 1229.95 2.08414 2.77064 0
M  V30 13145 C 1229.01 3.32221 2.71897 0
M  V30 13146 C 1228.24 3.53085 4.00209 0
M  V30 13147 O 1228.46 2.77421 4.98391 0
M  V30 13148 O 1227.4 4.46559 4.0357 0
M  V30 13149 H 1231.22 2.79859 1.17951 0
M  V30 13150 H 1228.81 1.40091 0.519124 0
M  V30 13151 H 1230.69 2.24171 3.56827 0
M  V30 13152 H 1229.37 1.18238 3.01333 0
M  V30 13153 H 1228.27 3.21851 1.90691 0
M  V30 13154 H 1229.61 4.22449 2.52582 0
M  V30 13155 N 1231.26 -0.58723 1.46251 0
M  V30 13156 C 1232.67 -0.910129 1.31106 0
M  V30 13157 C 1232.87 -1.99557 0.279141 0
M  V30 13158 O 1231.93 -2.50466 -0.319867 0
M  V30 13159 C 1233.24 -1.33177 2.69601 0
M  V30 13160 C 1234.79 -1.44486 2.77656 0
M  V30 13161 C 1235.27 -1.90018 4.16722 0
M  V30 13162 N 1236.76 -1.97219 4.19117 0
M  V30 13163 C 1237.49 -2.33714 5.23608 0
M  V30 13164 N 1236.99 -2.69034 6.3843 0
M  V30 13165 N 1238.78 -2.3423 5.10972 0
M  V30 13166 H 1230.93 0.12987 2.12003 0
M  V30 13167 H 1233.19 -0.00456718 0.947989 0
M  V30 13168 H 1232.9 -0.608243 3.464 0
M  V30 13169 H 1232.77 -2.29421 2.99409 0
M  V30 13170 H 1235.16 -2.15926 2.01147 0
M  V30 13171 H 1235.24 -0.465047 2.51537 0
M  V30 13172 H 1234.89 -1.19159 4.93724 0
M  V30 13173 H 1234.82 -2.88949 4.40245 0
M  V30 13174 H 1237.31 -1.72431 3.36268 0
M  V30 13175 H 1237.62 -2.95822 7.13939 0
M  V30 13176 H 1235.97 -2.66683 6.41798 0
M  V30 13177 H 1239.16 -2.06056 4.20308 0
M  V30 13178 H 1239.33 -2.62345 5.92519 0
M  V30 13179 N 1232.74 -1.33881 -0.831482 0
M  V30 13180 C 1233.96 -1.28812 -1.61911 0
M  V30 13181 C 1234.38 0.139519 -1.88284 0
M  V30 13182 O 1233.74 1.08397 -1.46821 0
M  V30 13183 C 1233.79 -2.06806 -2.96502 0
M  V30 13184 O 1233.51 -3.44 -2.71285 0
M  V30 13185 C 1235.01 -2.09033 -3.90922 0
M  V30 13186 H 1232.23 -0.443473 -0.50356 0
M  V30 13187 H 1234.77 -1.76365 -1.03516 0
M  V30 13188 H 1232.93 -1.62915 -3.51479 0
M  V30 13189 H 1233.34 -3.84213 -3.57044 0
M  V30 13190 H 1234.82 -2.68044 -4.82552 0
M  V30 13191 H 1235.29 -1.08249 -4.25651 0
M  V30 13192 H 1235.9 -2.52975 -3.41883 0
M  V30 13193 N 1234.21 1.05064 -1.1747 0
M  V30 13194 C 1235.15 2.12842 -0.850344 0
M  V30 13195 C 1236.16 1.62128 0.147796 0
M  V30 13196 O 1237.35 1.78327 -0.0786774 0
M  V30 13197 C 1234.45 3.37995 -0.247486 0
M  V30 13198 C 1233.62 4.17981 -1.28881 0
M  V30 13199 C 1232.68 5.21476 -0.703476 0
M  V30 13200 O 1231.71 5.52327 -1.37561 0
M  V30 13201 N 1232.91 5.78309 0.50387 0
M  V30 13202 H 1235.67 2.41264 -1.77797 0
M  V30 13203 H 1233.23 1.21172 -1.07373 0
M  V30 13204 H 1235.23 4.04394 0.157424 0
M  V30 13205 H 1233.8 3.07097 0.583952 0
M  V30 13206 H 1233.02 3.47054 -1.86942 0
M  V30 13207 H 1234.3 4.6822 -1.99116 0
M  V30 13208 H 1233.7 5.5553 1.06787 0
M  V30 13209 H 1232.26 6.46223 0.850828 0
M  V30 13210 N 1235.69 0.975146 1.23809 0
M  V30 13211 C 1236.65 0.516157 2.23312 0
M  V30 13212 C 1237.65 -0.39136 1.55965 0
M  V30 13213 O 1238.84 -0.185783 1.73206 0
M  V30 13214 C 1235.98 -0.251534 3.39971 0
M  V30 13215 H 1237.17 1.3959 2.65433 0
M  V30 13216 H 1234.72 0.760493 1.36551 0
M  V30 13217 H 1235.46 -1.14805 3.03299 0
M  V30 13218 H 1235.24 0.399825 3.90056 0
M  V30 13219 H 1236.73 -0.561438 4.13809 0
M  V30 13220 N 1237.17 -1.38817 0.746158 0
M  V30 13221 C 1238.4 -2.04274 0.309156 0
M  V30 13222 C 1238.81 -1.56389 -1.06486 0
M  V30 13223 O 1238.15 -0.728875 -1.68621 0
M  V30 13224 C 1238.21 -3.58664 0.245003 0
M  V30 13225 C 1237.88 -4.29574 1.55933 0
M  V30 13226 C 1238.87 -4.55454 2.50714 0
M  V30 13227 C 1236.56 -4.67907 1.82671 0
M  V30 13228 C 1238.55 -5.18691 3.70458 0
M  V30 13229 C 1236.24 -5.30869 3.0269 0
M  V30 13230 C 1237.24 -5.56195 3.96404 0
M  V30 13231 O 1236.93 -6.17848 5.14314 0
M  V30 13232 H 1236.66 -0.663162 0.131121 0
M  V30 13233 H 1239.21 -1.78636 1.01382 0
M  V30 13234 H 1237.44 -3.83244 -0.515847 0
M  V30 13235 H 1239.13 -4.05579 -0.16149 0
M  V30 13236 H 1239.9 -4.26276 2.3133 0
M  V30 13237 H 1235.78 -4.47544 1.10568 0
M  V30 13238 H 1239.32 -5.38375 4.4362 0
M  V30 13239 H 1235.22 -5.59469 3.2197 0
M  V30 13240 H 1235.98 -6.36338 5.14797 0
M  V30 13241 N 1238.65 -0.49465 -1.49636 0
M  V30 13242 C 1239.58 0.276606 -2.31856 0
M  V30 13243 C 1240.56 0.968499 -1.39836 0
M  V30 13244 O 1241.74 0.96113 -1.68748 0
M  V30 13245 C 1238.87 1.34522 -3.20189 0
M  V30 13246 C 1237.83 0.773571 -4.20951 0
M  V30 13247 C 1237.15 1.94223 -4.98178 0
M  V30 13248 C 1238.45 -0.231096 -5.21788 0
M  V30 13249 H 1240.15 -0.409668 -2.96584 0
M  V30 13250 H 1237.69 -0.198461 -1.42626 0
M  V30 13251 H 1239.65 1.89244 -3.76517 0
M  V30 13252 H 1238.37 2.06059 -2.53392 0
M  V30 13253 H 1237.03 0.248144 -3.65759 0
M  V30 13254 H 1236.68 2.64514 -4.27834 0
M  V30 13255 H 1236.38 1.56584 -5.66353 0
M  V30 13256 H 1237.9 2.49391 -5.57348 0
M  V30 13257 H 1239.32 0.227768 -5.72847 0
M  V30 13258 H 1237.71 -0.522984 -5.97817 0
M  V30 13259 H 1238.78 -1.14914 -4.71087 0
M  V30 13260 N 1240.13 1.55939 -0.228214 0
M  V30 13261 C 1241.04 2.24213 0.690339 0
M  V30 13262 C 1242.05 1.25197 1.20838 0
M  V30 13263 O 1243.23 1.58026 1.24859 0
M  V30 13264 C 1240.29 2.91384 1.87873 0
M  V30 13265 C 1239.35 4.05761 1.40201 0
M  V30 13266 C 1238.59 4.6972 2.53376 0
M  V30 13267 O 1238.81 4.32687 3.71669 0
M  V30 13268 O 1237.74 5.58587 2.24198 0
M  V30 13269 H 1241.57 3.03383 0.138692 0
M  V30 13270 H 1239.15 1.494 0.00251504 0
M  V30 13271 H 1241.04 3.33758 2.57262 0
M  V30 13272 H 1239.71 2.15168 2.41835 0
M  V30 13273 H 1238.62 3.67943 0.675945 0
M  V30 13274 H 1239.95 4.83739 0.908691 0
M  V30 13275 N 1241.6 -0.0451101 1.57535 0
M  V30 13276 C 1242.51 -1.06796 2.08882 0
M  V30 13277 C 1243.53 -1.40682 1.02394 0
M  V30 13278 O 1244.71 -1.50324 1.34033 0
M  V30 13279 C 1241.77 -2.35467 2.54472 0
M  V30 13280 C 1240.83 -2.0831 3.75374 0
M  V30 13281 C 1240.07 -3.30846 4.1878 0
M  V30 13282 O 1240.29 -4.40945 3.61834 0
M  V30 13283 O 1239.22 -3.17488 5.11356 0
M  V30 13284 H 1243.05 -0.661658 2.96405 0
M  V30 13285 H 1240.63 -0.26104 1.47102 0
M  V30 13286 H 1242.52 -3.11143 2.84198 0
M  V30 13287 H 1241.19 -2.75425 1.70068 0
M  V30 13288 H 1240.1 -1.30254 3.50692 0
M  V30 13289 H 1241.43 -1.73218 4.60713 0
M  V30 13290 N 1243.08 -1.54377 -0.317073 0
M  V30 13291 C 1244.03 -1.84214 -1.39046 0
M  V30 13292 C 1245 -0.689742 -1.51102 0
M  V30 13293 O 1246.18 -0.936809 -1.66218 0
M  V30 13294 C 1243.32 -2.08087 -2.75307 0
M  V30 13295 C 1242.44 -3.35756 -2.7183 0
M  V30 13296 C 1241.57 -3.49556 -3.9998 0
M  V30 13297 C 1240.61 -4.71076 -3.90837 0
M  V30 13298 N 1239.75 -4.81767 -5.10729 0
M  V30 13299 H 1244.59 -2.75785 -1.12902 0
M  V30 13300 H 1242.13 -1.36575 -0.546404 0
M  V30 13301 H 1244.08 -2.19921 -3.54529 0
M  V30 13302 H 1242.71 -1.19801 -2.99746 0
M  V30 13303 H 1241.77 -3.32627 -1.84563 0
M  V30 13304 H 1243.08 -4.2509 -2.60959 0
M  V30 13305 H 1242.23 -3.60967 -4.87635 0
M  V30 13306 H 1240.97 -2.58326 -4.13665 0
M  V30 13307 H 1239.98 -4.59715 -3.01566 0
M  V30 13308 H 1241.2 -5.63698 -3.78711 0
M  V30 13309 H 1239.15 -3.93455 -5.24908 0
M  V30 13310 H 1239.06 -5.65077 -5.02219 0
M  V30 13311 H 1240.33 -4.97517 -6.00081 0
M  V30 13312 N 1244.56 0.579466 -1.4656 0
M  V30 13313 C 1245.98 0.903163 -1.31587 0
M  V30 13314 C 1246.18 1.99406 -0.28972 0
M  V30 13315 O 1245.23 2.50632 0.30658 0
M  V30 13316 C 1246.55 1.31745 -2.70303 0
M  V30 13317 C 1248.09 1.43012 -2.78418 0
M  V30 13318 C 1248.57 1.87805 -4.17724 0
M  V30 13319 N 1250.06 1.94993 -4.20157 0
M  V30 13320 C 1250.79 2.30934 -5.2484 0
M  V30 13321 N 1250.29 2.65645 -6.39847 0
M  V30 13322 N 1252.08 2.31517 -5.12207 0
M  V30 13323 H 1244.23 -0.141111 -2.11931 0
M  V30 13324 H 1246.5 -0.000460304 -0.948 0
M  V30 13325 H 1246.2 0.589864 -3.46718 0
M  V30 13326 H 1246.08 2.2783 -3.00622 0
M  V30 13327 H 1248.46 2.14856 -2.02289 0
M  V30 13328 H 1248.55 0.451701 -2.5178 0
M  V30 13329 H 1248.19 1.16539 -4.94349 0
M  V30 13330 H 1248.12 2.86611 -4.41771 0
M  V30 13331 H 1250.61 1.70645 -3.37178 0
M  V30 13332 H 1250.92 2.92032 -7.15498 0
M  V30 13333 H 1249.27 2.63276 -6.43204 0
M  V30 13334 H 1252.46 2.03824 -4.21394 0
M  V30 13335 H 1252.63 2.59199 -5.93902 0
M  V30 13336 N 1246.04 1.3432 0.824371 0
M  V30 13337 C 1246.99 1.25776 1.93517 0
M  V30 13338 C 1247.96 0.133298 1.65564 0
M  V30 13339 O 1249.14 0.31403 1.88198 0
M  V30 13340 C 1246.28 1.01766 3.29754 0
M  V30 13341 C 1245.39 2.22973 3.7001 0
M  V30 13342 C 1244.53 1.92258 4.95187 0
M  V30 13343 C 1243.57 3.09616 5.2802 0
M  V30 13344 N 1242.7 2.78793 6.44375 0
M  V30 13345 H 1247.54 2.20774 2.00157 0
M  V30 13346 H 1245.08 1.09766 0.979274 0
M  V30 13347 H 1247.04 0.858831 4.08265 0
M  V30 13348 H 1245.67 0.10437 3.22631 0
M  V30 13349 H 1244.72 2.49781 2.86903 0
M  V30 13350 H 1246.03 3.10661 3.90245 0
M  V30 13351 H 1245.19 1.73102 5.81481 0
M  V30 13352 H 1243.93 1.01827 4.76951 0
M  V30 13353 H 1242.93 3.29368 4.40223 0
M  V30 13354 H 1244.16 4.00822 5.48196 0
M  V30 13355 H 1242.1 1.90938 6.27598 0
M  V30 13356 H 1242.02 3.60014 6.64775 0
M  V30 13357 H 1243.29 2.63139 7.33743 0
M  V30 13358 N 1247.52 -1.0444 1.18026 0
M  V30 13359 C 1248.48 -2.10532 0.906028 0
M  V30 13360 C 1249.48 -1.60443 -0.107022 0
M  V30 13361 O 1250.67 -1.73744 0.126001 0
M  V30 13362 C 1247.8 -3.39008 0.358625 0
M  V30 13363 H 1248.99 -2.36293 1.84677 0
M  V30 13364 H 1246.55 -1.20805 0.991763 0
M  V30 13365 H 1247.28 -3.18908 -0.588904 0
M  V30 13366 H 1247.07 -3.76678 1.08884 0
M  V30 13367 H 1248.56 -4.17189 0.185331 0
M  V30 13368 N 1248.99 -0.981699 -1.2329 0
M  V30 13369 C 1249.9 -0.531296 -2.28505 0
M  V30 13370 C 1250.92 0.414531 -1.6899 0
M  V30 13371 O 1252.1 0.284129 -1.99386 0
M  V30 13372 C 1249.16 0.157864 -3.4634 0
M  V30 13373 C 1248.22 -0.829527 -4.21209 0
M  V30 13374 C 1247.46 -0.17316 -5.33419 0
M  V30 13375 O 1247.68 1.03549 -5.60922 0
M  V30 13376 O 1246.61 -0.872385 -5.95544 0
M  V30 13377 H 1250.44 -1.40633 -2.69177 0
M  V30 13378 H 1248.02 -0.749395 -1.29246 0
M  V30 13379 H 1249.91 0.544394 -4.17869 0
M  V30 13380 H 1248.58 1.00764 -3.07617 0
M  V30 13381 H 1247.49 -1.26678 -3.51999 0
M  V30 13382 H 1248.82 -1.64815 -4.63785 0
M  V30 13383 N 1250.47 1.3842 -0.753509 0
M  V30 13384 C 1251.44 2.28808 -0.134022 0
M  V30 13385 C 1252.44 1.47184 0.647583 0
M  V30 13386 O 1253.63 1.67631 0.473861 0
M  V30 13387 C 1250.76 3.30926 0.81858 0
M  V30 13388 H 1251.95 2.85097 -0.930586 0
M  V30 13389 H 1249.5 1.47378 -0.520514 0
M  V30 13390 H 1250.24 2.79728 1.64082 0
M  V30 13391 H 1250.02 3.91234 0.260526 0
M  V30 13392 H 1251.51 3.98515 1.24802 0
M  V30 13393 N 1251.95 0.502579 1.49372 0
M  V30 13394 C 1252.88 -0.264307 2.31999 0
M  V30 13395 C 1253.86 -0.96107 1.40348 0
M  V30 13396 O 1255.05 -0.952167 1.69255 0
M  V30 13397 C 1252.18 -1.32822 3.20898 0
M  V30 13398 C 1251.13 -0.751236 4.21355 0
M  V30 13399 C 1250.46 -1.91578 4.99201 0
M  V30 13400 C 1251.76 0.258764 5.21659 0
M  V30 13401 H 1253.45 0.425391 2.96363 0
M  V30 13402 H 1251 0.206022 1.42519 0
M  V30 13403 H 1252.95 -1.87245 3.77515 0
M  V30 13404 H 1251.67 -2.04712 2.54481 0
M  V30 13405 H 1250.33 -0.228743 3.65886 0
M  V30 13406 H 1249.98 -2.62241 4.2923 0
M  V30 13407 H 1249.68 -1.53578 5.67175 0
M  V30 13408 H 1251.2 -2.46432 5.58663 0
M  V30 13409 H 1252.62 -0.197385 5.7296 0
M  V30 13410 H 1251.02 0.554681 5.97531 0
M  V30 13411 H 1252.09 1.1741 4.70471 0
M  V30 13412 N 1253.43 -1.55816 0.23648 0
M  V30 13413 C 1254.36 -2.23924 -0.661834 0
M  V30 13414 C 1255.34 -1.21597 -1.18946 0
M  V30 13415 O 1256.52 -1.50222 -1.23073 0
M  V30 13416 C 1253.65 -2.93069 -1.86355 0
M  V30 13417 C 1252.61 -4.01996 -1.46913 0
M  V30 13418 C 1251.93 -4.58512 -2.75083 0
M  V30 13419 C 1253.23 -5.18265 -0.647964 0
M  V30 13420 H 1254.93 -2.99253 -0.0939368 0
M  V30 13421 H 1252.47 -1.43934 -0.0437407 0
M  V30 13422 H 1254.43 -3.39412 -2.49755 0
M  V30 13423 H 1253.15 -2.15212 -2.45665 0
M  V30 13424 H 1251.81 -3.56406 -0.858522 0
M  V30 13425 H 1251.46 -3.77368 -3.3257 0
M  V30 13426 H 1251.16 -5.32037 -2.49421 0
M  V30 13427 H 1252.68 -5.07583 -3.39399 0
M  V30 13428 H 1254.1 -5.60898 -1.18602 0
M  V30 13429 H 1252.49 -5.98114 -0.487823 0
M  V30 13430 H 1253.56 -4.83691 0.342151 0
M  V30 13431 N 1254.91 0.036755 -1.57557 0
M  V30 13432 C 1256.14 0.740011 -1.92892 0
M  V30 13433 C 1256.54 1.69828 -0.833964 0
M  V30 13434 O 1255.89 1.82619 0.198974 0
M  V30 13435 C 1255.95 1.55827 -3.23972 0
M  V30 13436 C 1255.61 0.765613 -4.50541 0
M  V30 13437 C 1256.61 0.0692686 -5.19854 0
M  V30 13438 C 1254.3 0.722425 -4.97078 0
M  V30 13439 C 1256.29 -0.659649 -6.33977 0
M  V30 13440 C 1253.98 -0.0102431 -6.11099 0
M  V30 13441 C 1254.97 -0.700047 -6.79403 0
M  V30 13442 O 1254.66 -1.42084 -7.91244 0
M  V30 13443 H 1254.39 0.213496 -0.641401 0
M  V30 13444 H 1256.95 0.000665152 -2.054 0
M  V30 13445 H 1255.18 2.34125 -3.0777 0
M  V30 13446 H 1256.87 2.14343 -3.44691 0
M  V30 13447 H 1257.63 0.0937148 -4.84909 0
M  V30 13448 H 1253.51 1.24883 -4.43763 0
M  V30 13449 H 1257.06 -1.19861 -6.87226 0
M  V30 13450 H 1252.95 -0.0366395 -6.4549 0
M  V30 13451 H 1253.72 -1.33372 -8.07561 0
M  V30 13452 N 1256.39 1.54543 0.308881 0
M  V30 13453 C 1257.32 1.81309 1.40212 0
M  V30 13454 C 1258.33 0.69568 1.47187 0
M  V30 13455 O 1259.52 0.973034 1.49647 0
M  V30 13456 C 1256.62 1.92901 2.78644 0
M  V30 13457 C 1255.79 3.23222 2.94697 0
M  V30 13458 C 1254.85 3.25329 4.13579 0
M  V30 13459 O 1253.88 3.989 4.06039 0
M  V30 13460 N 1255.08 2.50158 5.23833 0
M  V30 13461 H 1257.84 2.75659 1.1761 0
M  V30 13462 H 1255.41 1.54021 0.498925 0
M  V30 13463 H 1257.4 1.91721 3.56406 0
M  V30 13464 H 1255.97 1.05582 2.9423 0
M  V30 13465 H 1255.19 3.37241 2.04113 0
M  V30 13466 H 1256.48 4.09238 3.02328 0
M  V30 13467 H 1255.87 1.90002 5.32838 0
M  V30 13468 H 1254.43 2.5474 5.99959 0
M  V30 13469 N 1257.86 -0.571685 1.46866 0
M  V30 13470 C 1259.11 -1.32574 1.5201 0
M  V30 13471 C 1259.43 -1.94762 0.180838 0
M  V30 13472 O 1260.63 -2.71276 0.110158 0
M  V30 13473 C 1259.09 -2.40331 2.67897 0
M  V30 13474 C 1258.7 -1.84398 4.08291 0
M  V30 13475 C 1260.44 -3.17009 2.82321 0
M  V30 13476 C 1258.35 -2.89849 5.15501 0
M  V30 13477 H 1257.28 -0.498428 0.565761 0
M  V30 13478 H 1259.93 -0.608853 1.73105 0
M  V30 13479 H 1258.31 -3.14869 2.40153 0
M  V30 13480 H 1259.48 -1.16329 4.45875 0
M  V30 13481 H 1257.8 -1.20351 3.98628 0
M  V30 13482 H 1260.4 -3.95729 3.59587 0
M  V30 13483 H 1260.74 -3.70292 1.90236 0
M  V30 13484 H 1261.27 -2.4958 3.09765 0
M  V30 13485 H 1258.01 -2.4144 6.09415 0
M  V30 13486 H 1257.53 -3.56372 4.82451 0
M  V30 13487 H 1259.21 -3.53603 5.41825 0
M  V30 13488 N 1259.34 -1.34755 -0.817236 0
M  V30 13489 C 1260.27 -1.29452 -1.94331 0
M  V30 13490 C 1261.25 -0.170902 -1.69239 0
M  V30 13491 O 1262.44 -0.364173 -1.90755 0
M  V30 13492 C 1259.57 -1.05497 -3.30889 0
M  V30 13493 C 1258.52 -2.14386 -3.70436 0
M  V30 13494 C 1257.85 -1.75612 -5.05039 0
M  V30 13495 C 1259.15 -3.56265 -3.81933 0
M  V30 13496 H 1260.84 -2.23672 -1.99025 0
M  V30 13497 H 1258.39 -1.07674 -0.956159 0
M  V30 13498 H 1260.34 -1.0043 -4.09257 0
M  V30 13499 H 1259.06 -0.0772059 -3.26509 0
M  V30 13500 H 1257.72 -2.18532 -2.94345 0
M  V30 13501 H 1257.37 -0.764809 -4.97152 0
M  V30 13502 H 1257.07 -2.48495 -5.3247 0
M  V30 13503 H 1258.6 -1.72051 -5.85859 0
M  V30 13504 H 1260.01 -3.545 -4.50558 0
M  V30 13505 H 1258.41 -4.27818 -4.20822 0
M  V30 13506 H 1259.48 -3.93192 -2.83775 0
M  V30 13507 N 1260.82 1.03812 -1.18578 0
M  V30 13508 C 1262.23 1.58509 -0.986496 0
M  V30 13509 C 1262.58 1.90655 0.463136 0
M  V30 13510 O 1261.71 1.69847 1.34093 0
M  V30 13511 C 1262.3 2.88 -1.78441 0
M  V30 13512 C 1260.86 3.39304 -1.6294 0
M  V30 13513 C 1260.01 2.12857 -1.77727 0
M  V30 13514 H 1262.96 0.864528 -1.33085 0
M  V30 13515 H 1262.98 3.58502 -1.27501 0
M  V30 13516 H 1262.49 2.64572 -2.83942 0
M  V30 13517 H 1260.59 3.6774 -0.599864 0
M  V30 13518 H 1260.71 4.12959 -2.42902 0
M  V30 13519 H 1259.07 2.24285 -1.20699 0
M  V30 13520 H 1259.85 1.91882 -2.84669 0
M  V30 13521 N 1262.3 0.988223 1.22768 0
M  V30 13522 C 1263.25 0.505913 2.22316 0
M  V30 13523 C 1264.23 -0.423346 1.55231 0
M  V30 13524 O 1265.42 -0.250927 1.75212 0
M  V30 13525 C 1262.55 -0.182707 3.42813 0
M  V30 13526 C 1261.64 0.766582 4.17114 0
M  V30 13527 N 1262.03 1.91248 4.6825 0
M  V30 13528 C 1260.33 0.581503 4.42193 0
M  V30 13529 C 1261.03 2.50793 5.2486 0
M  V30 13530 N 1260 1.79106 5.13247 0
M  V30 13531 H 1263.81 1.37994 2.5949 0
M  V30 13532 H 1261.32 0.849888 1.38386 0
M  V30 13533 H 1263.32 -0.545595 4.13315 0
M  V30 13534 H 1261.98 -1.05292 3.07154 0
M  V30 13535 H 1262.99 2.29342 4.64352 0
M  V30 13536 H 1259.67 -0.243039 4.16792 0
M  V30 13537 H 1261.06 3.47609 5.74994 0
M  V30 13538 N 1263.78 -1.38018 0.760839 0
M  V30 13539 C 1265 -2.04757 0.330038 0
M  V30 13540 C 1265.43 -1.57009 -1.03585 0
M  V30 13541 O 1264.78 -0.725349 -1.66158 0
M  V30 13542 C 1264.83 -3.58696 0.370082 0
M  V30 13543 O 1263.94 -4.07507 -0.633361 0
M  V30 13544 H 1263.28 -0.648023 0.144782 0
M  V30 13545 H 1265.81 -1.7655 1.03399 0
M  V30 13546 H 1265.82 -4.07387 0.223515 0
M  V30 13547 H 1264.49 -3.92806 1.36661 0
M  V30 13548 H 1263.07 -3.70165 -0.45081 0
M  V30 13549 N 1265.25 -0.510493 -1.49103 0
M  V30 13550 C 1266.5 0.030689 -2.02777 0
M  V30 13551 C 1266.83 1.35765 -1.38858 0
M  V30 13552 O 1266.11 1.87209 -0.527528 0
M  V30 13553 C 1266.39 0.173261 -3.59683 0
M  V30 13554 C 1266.24 -1.17749 -4.34114 0
M  V30 13555 C 1267.56 0.909395 -4.30602 0
M  V30 13556 H 1264.68 0.0096789 -0.736936 0
M  V30 13557 H 1267.32 -0.663746 -1.78029 0
M  V30 13558 H 1265.47 0.764721 -3.80899 0
M  V30 13559 H 1267.15 -1.80856 -4.24369 0
M  V30 13560 H 1265.39 -1.76438 -3.96298 0
M  V30 13561 H 1266.06 -1.03094 -5.42287 0
M  V30 13562 H 1268.54 0.407677 -4.14098 0
M  V30 13563 H 1267.41 0.978012 -5.40117 0
M  V30 13564 H 1267.67 1.9553 -3.96511 0
M  V30 13565 N 1266.73 1.55688 -0.24474 0
M  V30 13566 C 1267.69 2.20014 0.642382 0
M  V30 13567 C 1268.69 1.16877 1.10437 0
M  V30 13568 O 1269.88 1.41972 1.00943 0
M  V30 13569 C 1267.02 2.84198 1.88267 0
M  V30 13570 H 1268.21 2.9979 0.0811937 0
M  V30 13571 H 1265.76 1.56299 0.00480917 0
M  V30 13572 H 1266.5 2.08354 2.48514 0
M  V30 13573 H 1266.28 3.59747 1.55963 0
M  V30 13574 H 1267.77 3.33434 2.5142 0
M  V30 13575 N 1268.21 -0.0283989 1.57574 0
M  V30 13576 C 1269.12 -1.04575 2.10003 0
M  V30 13577 C 1270.14 -1.39588 1.03881 0
M  V30 13578 O 1271.31 -1.48894 1.35619 0
M  V30 13579 C 1268.38 -2.32755 2.56955 0
M  V30 13580 C 1267.44 -2.04317 3.77562 0
M  V30 13581 C 1266.67 -3.26385 4.22266 0
M  V30 13582 O 1266.89 -4.37082 3.66491 0
M  V30 13583 O 1265.83 -3.12046 5.14695 0
M  V30 13584 H 1269.65 -0.630183 2.9709 0
M  V30 13585 H 1267.24 -0.245423 1.4737 0
M  V30 13586 H 1269.12 -3.08111 2.87482 0
M  V30 13587 H 1267.8 -2.73605 1.72979 0
M  V30 13588 H 1266.7 -1.26527 3.52054 0
M  V30 13589 H 1268.04 -1.68321 4.62524 0
M  V30 13590 N 1269.69 -1.54705 -0.300681 0
M  V30 13591 C 1270.62 -1.8205 -1.39249 0
M  V30 13592 C 1271.63 -0.703476 -1.46816 0
M  V30 13593 O 1272.82 -0.980957 -1.49129 0
M  V30 13594 C 1269.92 -1.94376 -2.77617 0
M  V30 13595 C 1269.09 -3.2478 -2.92979 0
M  V30 13596 C 1268.15 -3.27518 -4.11848 0
M  V30 13597 O 1267.18 -4.01047 -4.03918 0
M  V30 13598 N 1268.38 -2.52932 -5.22499 0
M  V30 13599 H 1271.15 -2.76279 -1.16146 0
M  V30 13600 H 1268.71 -1.54283 -0.49075 0
M  V30 13601 H 1270.7 -1.93609 -3.55384 0
M  V30 13602 H 1269.27 -1.07141 -2.93666 0
M  V30 13603 H 1268.49 -3.38319 -2.02322 0
M  V30 13604 H 1269.78 -4.10835 -3.00153 0
M  V30 13605 H 1269.18 -1.92825 -5.31822 0
M  V30 13606 H 1267.73 -2.57919 -5.98599 0
M  V30 13607 N 1271.17 0.563888 -1.47167 0
M  V30 13608 C 1272.1 1.68137 -1.62025 0
M  V30 13609 C 1273.08 1.63481 -0.469899 0
M  V30 13610 O 1274.26 1.81206 -0.698432 0
M  V30 13611 C 1271.39 3.06779 -1.62801 0
M  V30 13612 C 1270.35 3.26278 -2.76996 0
M  V30 13613 C 1269.67 4.65638 -2.62841 0
M  V30 13614 C 1270.97 3.12295 -4.18651 0
M  V30 13615 H 1272.67 1.55958 -2.55573 0
M  V30 13616 H 1270.21 0.74887 -1.22996 0
M  V30 13617 H 1272.17 3.84795 -1.71787 0
M  V30 13618 H 1270.89 3.19901 -0.658097 0
M  V30 13619 H 1269.55 2.50668 -2.67509 0
M  V30 13620 H 1269.2 4.75551 -1.63892 0
M  V30 13621 H 1268.9 4.79635 -3.39447 0
M  V30 13622 H 1270.42 5.45798 -2.73746 0
M  V30 13623 H 1271.83 3.80136 -4.2915 0
M  V30 13624 H 1270.23 3.37805 -4.95992 0
M  V30 13625 H 1271.3 2.09126 -4.37486 0
M  V30 13626 N 1272.64 1.35187 0.810078 0
M  V30 13627 C 1273.59 1.27822 1.92173 0
M  V30 13628 C 1274.56 0.150851 1.65414 0
M  V30 13629 O 1275.75 0.333973 1.87854 0
M  V30 13630 C 1272.89 1.05258 3.28656 0
M  V30 13631 C 1272 2.26884 3.67624 0
M  V30 13632 C 1271.13 1.97499 4.9312 0
M  V30 13633 C 1270.17 3.15198 5.24706 0
M  V30 13634 N 1269.31 2.85612 6.41381 0
M  V30 13635 H 1274.15 2.22884 1.97804 0
M  V30 13636 H 1271.69 1.10799 0.967577 0
M  V30 13637 H 1273.65 0.902084 4.07331 0
M  V30 13638 H 1272.28 0.138583 3.22502 0
M  V30 13639 H 1271.33 2.5281 2.84238 0
M  V30 13640 H 1272.64 3.14783 3.86928 0
M  V30 13641 H 1271.79 1.7926 5.79613 0
M  V30 13642 H 1270.53 1.0688 4.75844 0
M  V30 13643 H 1269.54 3.34019 4.36705 0
M  V30 13644 H 1270.76 4.06614 5.43913 0
M  V30 13645 H 1268.71 1.97583 6.25537 0
M  V30 13646 H 1268.63 3.67044 6.60919 0
M  V30 13647 H 1269.89 2.70906 7.3091 0
M  V30 13648 N 1274.12 -1.03182 1.19127 0
M  V30 13649 C 1275.54 -1.28773 0.942854 0
M  V30 13650 C 1275.74 -1.97759 -0.386483 0
M  V30 13651 O 1274.79 -2.26365 -1.1187 0
M  V30 13652 C 1276.11 -2.13771 2.11476 0
M  V30 13653 C 1277.66 -2.27089 2.15406 0
M  V30 13654 C 1278.13 -3.15458 3.32039 0
M  V30 13655 N 1279.62 -3.23046 3.31957 0
M  V30 13656 C 1280.36 -3.91604 4.18848 0
M  V30 13657 N 1279.85 -4.62418 5.15889 0
M  V30 13658 N 1281.65 -3.87974 4.06734 0
M  V30 13659 H 1273.8 -0.568165 2.0466 0
M  V30 13660 H 1276.06 -0.31328 0.89474 0
M  V30 13661 H 1275.77 -1.704 3.07663 0
M  V30 13662 H 1275.64 -3.14476 2.0829 0
M  V30 13663 H 1278.03 -2.69693 1.19791 0
M  V30 13664 H 1278.11 -1.25945 2.22647 0
M  V30 13665 H 1277.75 -2.73564 4.27931 0
M  V30 13666 H 1277.68 -4.16654 3.22035 0
M  V30 13667 H 1280.17 -2.7261 2.6171 0
M  V30 13668 H 1280.49 -5.12353 5.78545 0
M  V30 13669 H 1278.83 -4.61293 5.1984 0
M  V30 13670 H 1282.02 -3.31789 3.30202 0
M  V30 13671 H 1282.19 -4.4113 4.74666 0
M  V30 13672 N 1275.6 -0.99472 -1.22242 0
M  V30 13673 C 1276.85 -0.670275 -1.90661 0
M  V30 13674 C 1277.17 0.800369 -1.77818 0
M  V30 13675 O 1276.44 1.57381 -1.16653 0
M  V30 13676 H 1275.02 -0.244925 -0.705706 0
M  V30 13677 H 1277.68 -1.26162 -1.48557 0
M  V30 13678 H 1276.78 -0.934408 -2.97784 0
M  V30 13679 N 1277.08 1.37613 -0.768148 0
M  V30 13680 C 1277.99 2.34103 -0.152649 0
M  V30 13681 C 1279 1.6 0.683811 0
M  V30 13682 O 1280.18 1.92112 0.604572 0
M  V30 13683 C 1277.25 3.39164 0.718954 0
M  V30 13684 C 1276.31 4.29092 -0.13355 0
M  V30 13685 C 1275.54 5.29135 0.696547 0
M  V30 13686 O 1275.76 5.36618 1.93383 0
M  V30 13687 O 1274.7 6.01804 0.107652 0
M  V30 13688 H 1278.52 2.88462 -0.949899 0
M  V30 13689 H 1276.11 1.39711 -0.529252 0
M  V30 13690 H 1277.99 4.03454 1.21665 0
M  V30 13691 H 1276.66 2.87137 1.49445 0
M  V30 13692 H 1275.57 3.67914 -0.677528 0
M  V30 13693 H 1276.9 4.84413 -0.872048 0
M  V30 13694 N 1278.56 0.518393 1.4883 0
M  V30 13695 C 1279.78 -0.0162 2.06894 0
M  V30 13696 C 1280.2 -1.29222 1.37649 0
M  V30 13697 O 1279.56 -1.766 0.460288 0
M  V30 13698 C 1279.61 -0.255836 3.60594 0
M  V30 13699 O 1279.33 0.969612 4.27235 0
M  V30 13700 C 1280.83 -0.832117 4.3542 0
M  V30 13701 H 1278.05 0.0282877 0.670403 0
M  V30 13702 H 1280.59 0.720726 1.91379 0
M  V30 13703 H 1278.75 -0.942782 3.75753 0
M  V30 13704 H 1279.16 0.743172 5.19208 0
M  V30 13705 H 1280.64 -0.949279 5.43776 0
M  V30 13706 H 1281.11 -1.83421 3.99066 0
M  V30 13707 H 1281.72 -0.1821 4.2491 0
M  V30 13708 N 1280.03 -1.55556 0.252993 0
M  V30 13709 C 1281.28 -1.99385 -0.370599 0
M  V30 13710 C 1281.61 -1.14101 -1.57145 0
M  V30 13711 O 1280.89 -0.205828 -1.93408 0
M  V30 13712 C 1281.17 -3.51672 -0.774503 0
M  V30 13713 C 1281.02 -4.47719 0.432159 0
M  V30 13714 C 1282.34 -4.0923 -1.61923 0
M  V30 13715 H 1279.46 -0.724858 -0.133231 0
M  V30 13716 H 1282.1 -1.86644 0.355522 0
M  V30 13717 H 1280.25 -3.62661 -1.39318 0
M  V30 13718 H 1281.93 -4.48704 1.07063 0
M  V30 13719 H 1280.17 -4.2029 1.07419 0
M  V30 13720 H 1280.84 -5.51898 0.106123 0
M  V30 13721 H 1283.32 -4.01381 -1.09693 0
M  V30 13722 H 1282.19 -5.16039 -1.87068 0
M  V30 13723 H 1282.45 -3.58067 -2.59307 0
M  V30 13724 N 1281.51 0.0200419 -1.57587 0
M  V30 13725 C 1282.44 1.0456 -2.0396 0
M  V30 13726 C 1283.46 1.31922 -0.953962 0
M  V30 13727 O 1284.65 1.2925 -1.23112 0
M  V30 13728 C 1281.75 2.38514 -2.40758 0
M  V30 13729 C 1280.92 2.3038 -3.71812 0
M  V30 13730 C 1279.98 3.46856 -3.95698 0
M  V30 13731 O 1279 3.25944 -4.66636 0
M  V30 13732 N 1280.21 4.69033 -3.42036 0
M  V30 13733 H 1282.97 0.650282 -2.9256 0
M  V30 13734 H 1280.53 0.207818 -1.60561 0
M  V30 13735 H 1282.52 3.15172 -2.53868 0
M  V30 13736 H 1281.09 2.69859 -1.57781 0
M  V30 13737 H 1280.31 1.38762 -3.6897 0
M  V30 13738 H 1281.6 2.22097 -4.57767 0
M  V30 13739 H 1281 4.88923 -2.84553 0
M  V30 13740 H 1279.56 5.43025 -3.6051 0
M  V30 13741 N 1282.99 1.54862 0.292472 0
M  V30 13742 C 1283.95 1.8565 1.34413 0
M  V30 13743 C 1284.95 0.729868 1.43281 0
M  V30 13744 O 1286.14 0.998128 1.42769 0
M  V30 13745 C 1283.28 2.0444 2.72795 0
M  V30 13746 H 1284.47 2.79642 1.08354 0
M  V30 13747 H 1282.02 1.47055 0.529574 0
M  V30 13748 H 1282.76 1.12765 3.04063 0
M  V30 13749 H 1282.54 2.86451 2.67747 0
M  V30 13750 H 1284.03 2.296 3.48817 0
M  V30 13751 N 1284.47 -0.556076 1.47464 0
M  V30 13752 C 1285.38 -1.69043 1.62671 0
M  V30 13753 C 1286.39 -1.66372 0.509535 0
M  V30 13754 O 1287.57 -1.85799 0.777218 0
M  V30 13755 C 1284.64 -3.05546 1.63836 0
M  V30 13756 C 1283.7 -3.19275 2.86988 0
M  V30 13757 C 1282.93 -4.49267 2.88088 0
M  V30 13758 O 1283.15 -5.34796 1.98368 0
M  V30 13759 O 1282.09 -4.66811 3.79962 0
M  V30 13760 H 1285.91 -1.59155 2.58657 0
M  V30 13761 H 1283.5 -0.726211 1.30562 0
M  V30 13762 H 1285.38 -3.86778 1.67275 0
M  V30 13763 H 1284.05 -3.15814 0.710173 0
M  V30 13764 H 1282.96 -2.37437 2.89093 0
M  V30 13765 H 1284.29 -3.13912 3.79104 0
M  V30 13766 N 1285.95 -1.35615 -0.802897 0
M  V30 13767 C 1286.91 -1.28705 -1.89651 0
M  V30 13768 C 1287.91 -0.197681 -1.5958 0
M  V30 13769 O 1289.1 -0.451618 -1.68244 0
M  V30 13770 C 1286.23 -0.991941 -3.26149 0
M  V30 13771 H 1287.43 -2.25951 -1.97196 0
M  V30 13772 H 1284.98 -1.20192 -0.999179 0
M  V30 13773 H 1285.71 -0.0235051 -3.24291 0
M  V30 13774 H 1285.5 -1.78013 -3.49362 0
M  V30 13775 H 1286.99 -0.969298 -4.06195 0
M  V30 13776 N 1287.43 1.02549 -1.19673 0
M  V30 13777 C 1288.67 1.76004 -1.00144 0
M  V30 13778 C 1289 1.888 0.467423 0
M  V30 13779 O 1288.26 1.404 1.36331 0
M  V30 13780 C 1288.55 3.18597 -1.61959 0
M  V30 13781 C 1288.22 3.258 -3.11713 0
M  V30 13782 C 1286.88 3.27473 -3.52583 0
M  V30 13783 C 1289.23 3.24675 -4.0772 0
M  V30 13784 C 1286.56 3.25681 -4.88005 0
M  V30 13785 C 1288.91 3.24424 -5.43076 0
M  V30 13786 C 1287.58 3.24396 -5.83372 0
M  V30 13787 H 1286.85 0.644044 -0.366453 0
M  V30 13788 H 1289.5 1.20338 -1.48966 0
M  V30 13789 H 1287.8 3.77364 -1.05375 0
M  V30 13790 H 1289.5 3.74109 -1.44374 0
M  V30 13791 H 1286.09 3.25228 -2.7915 0
M  V30 13792 H 1290.27 3.2256 -3.77185 0
M  V30 13793 H 1285.53 3.23986 -5.18501 0
M  V30 13794 H 1289.7 3.22504 -6.17223 0
M  V30 13795 H 1287.33 3.22762 -6.8828 0
M  V30 13796 N 1288.9 1.00119 1.21713 0
M  V30 13797 C 1290.18 0.597366 1.86255 0
M  V30 13798 C 1290.56 -0.925124 1.89749 0
M  V30 13799 O 1289.91 -1.8105 1.39402 0
M  V30 13800 C 1290.12 1.22735 3.26707 0
M  V30 13801 C 1291.47 1.33307 4.03131 0
M  V30 13802 O 1292.49 1.18237 3.36003 0
M  V30 13803 O 1291.35 1.57509 5.2331 0
M  V30 13804 H 1288.44 0.204091 0.801421 0
M  V30 13805 H 1290.99 1.09759 1.29426 0
M  V30 13806 H 1289.76 2.26837 3.18843 0
M  V30 13807 H 1289.38 0.713232 3.91151 0
M  V30 13808 N 1290.38 -1.37203 0.775435 0
M  V30 13809 C 1291.61 -2.04396 0.351737 0
M  V30 13810 C 1292.03 -1.58099 -1.01913 0
M  V30 13811 O 1291.39 -0.742932 -1.65379 0
M  V30 13812 C 1291.44 -3.58283 0.408105 0
M  V30 13813 O 1290.54 -4.08156 -0.590104 0
M  V30 13814 H 1289.88 -0.646451 0.151647 0
M  V30 13815 H 1292.41 -1.75443 1.05265 0
M  V30 13816 H 1292.42 -4.07127 0.266711 0
M  V30 13817 H 1291.1 -3.91335 1.40819 0
M  V30 13818 H 1289.67 -3.70622 -0.411524 0
M  V30 13819 N 1291.86 -0.526279 -1.48553 0
M  V30 13820 C 1293.11 0.00918008 -2.02798 0
M  V30 13821 C 1293.44 1.34284 -1.4029 0
M  V30 13822 O 1292.71 1.86639 -0.547355 0
M  V30 13823 C 1293 0.135102 -3.59846 0
M  V30 13824 C 1292.85 -1.22347 -4.32841 0
M  V30 13825 C 1294.17 0.863673 -4.31542 0
M  V30 13826 H 1291.29 0.00186216 -0.736998 0
M  V30 13827 H 1293.93 -0.682591 -1.77315 0
M  V30 13828 H 1292.08 0.724279 -3.81689 0
M  V30 13829 H 1293.75 -1.85347 -4.22427 0
M  V30 13830 H 1291.99 -1.80631 -3.94405 0
M  V30 13831 H 1292.67 -1.08839 -5.41164 0
M  V30 13832 H 1295.14 0.363734 -4.14507 0
M  V30 13833 H 1294.02 0.92067 -5.41124 0
M  V30 13834 H 1294.28 1.91313 -3.98562 0
M  V30 13835 N 1293.34 1.5542 -0.261239 0
M  V30 13836 C 1294.57 2.03687 0.363225 0
M  V30 13837 C 1294.98 1.14007 1.50492 0
M  V30 13838 O 1294.34 0.157349 1.8182 0
M  V30 13839 C 1294.39 3.51184 0.857435 0
M  V30 13840 O 1294.11 4.37449 -0.238776 0
M  V30 13841 C 1295.61 4.15277 1.55113 0
M  V30 13842 H 1292.83 0.665641 0.0846356 0
M  V30 13843 H 1295.37 2.00761 -0.389288 0
M  V30 13844 H 1293.53 3.54599 1.56008 0
M  V30 13845 H 1293.94 5.24316 0.138821 0
M  V30 13846 H 1295.42 5.20129 1.8485 0
M  V30 13847 H 1295.89 3.62619 2.47799 0
M  V30 13848 H 1296.5 4.15826 0.892695 0
M  V30 13849 N 1294.82 -0.0116844 1.57596 0
M  V30 13850 C 1296.06 -0.698089 1.89234 0
M  V30 13851 C 1296.38 -1.75581 0.862016 0
M  V30 13852 O 1297.58 -2.49602 1.06822 0
M  V30 13853 C 1296.04 -1.29277 3.3588 0
M  V30 13854 C 1295.65 -0.27049 4.47183 0
M  V30 13855 C 1297.39 -1.95805 3.76644 0
M  V30 13856 C 1295.3 -0.874502 5.84899 0
M  V30 13857 H 1294.23 -0.264495 0.706087 0
M  V30 13858 H 1296.88 0.0469451 1.8344 0
M  V30 13859 H 1295.26 -2.08809 3.36474 0
M  V30 13860 H 1296.44 0.499381 4.58086 0
M  V30 13861 H 1294.75 0.293676 4.15363 0
M  V30 13862 H 1297.35 -2.41879 4.76863 0
M  V30 13863 H 1297.69 -2.78366 3.09545 0
M  V30 13864 H 1298.22 -1.23023 3.78299 0
M  V30 13865 H 1294.96 -0.0879263 6.55441 0
M  V30 13866 H 1294.48 -1.61381 5.77682 0
M  V30 13867 H 1296.16 -1.37665 6.32185 0
M  V30 13868 N 1296.29 -1.55015 -0.284256 0
M  V30 13869 C 1297.52 -1.78842 -1.03436 0
M  V30 13870 C 1297.93 -0.556301 -1.80837 0
M  V30 13871 O 1297.27 0.483895 -1.77212 0
M  V30 13872 C 1297.34 -2.95412 -2.04871 0
M  V30 13873 C 1297 -4.32878 -1.46512 0
M  V30 13874 C 1298 -5.12286 -0.886535 0
M  V30 13875 C 1295.68 -4.79514 -1.49571 0
M  V30 13876 C 1297.68 -6.36459 -0.346305 0
M  V30 13877 C 1295.36 -6.03645 -0.951613 0
M  V30 13878 C 1296.36 -6.81954 -0.3779 0
M  V30 13879 O 1296.05 -8.03745 0.157894 0
M  V30 13880 H 1295.78 -0.599809 -0.311778 0
M  V30 13881 H 1298.34 -2.0283 -0.323909 0
M  V30 13882 H 1296.57 -2.67089 -2.79644 0
M  V30 13883 H 1298.25 -3.06663 -2.65918 0
M  V30 13884 H 1299.02 -4.77392 -0.855682 0
M  V30 13885 H 1294.9 -4.18579 -1.93165 0
M  V30 13886 H 1298.44 -6.97525 0.102141 0
M  V30 13887 H 1294.34 -6.38023 -0.979669 0
M  V30 13888 H 1295.11 -8.18487 0.046182 0
M  V30 13889 N 1297.77 0.548248 -1.47757 0
M  V30 13890 C 1299.02 1.30501 -1.54841 0
M  V30 13891 C 1299.35 1.93314 -0.214476 0
M  V30 13892 O 1298.6 1.7889 0.793526 0
M  V30 13893 C 1298.9 2.42911 -2.62162 0
M  V30 13894 C 1298.57 1.97871 -4.05164 0
M  V30 13895 C 1297.23 1.85304 -4.4409 0
M  V30 13896 C 1299.58 1.63606 -4.94856 0
M  V30 13897 C 1296.91 1.36781 -5.70533 0
M  V30 13898 C 1299.26 1.16552 -6.2177 0
M  V30 13899 C 1297.92 1.02588 -6.5957 0
M  V30 13900 H 1297.19 0.477536 -0.566604 0
M  V30 13901 H 1299.84 0.613837 -1.81395 0
M  V30 13902 H 1298.15 3.17622 -2.29398 0
M  V30 13903 H 1299.84 3.01078 -2.64864 0
M  V30 13904 H 1296.43 2.08597 -3.74413 0
M  V30 13905 H 1300.62 1.72184 -4.65474 0
M  V30 13906 H 1295.87 1.24641 -5.9856 0
M  V30 13907 H 1300.05 0.891041 -6.90676 0
M  V30 13908 H 1297.67 0.647675 -7.57436 0
M  V30 13909 N 1299.25 1.36039 0.795694 0
M  V30 13910 C 1300.47 1.33222 1.58955 0
M  V30 13911 C 1300.9 -0.0854596 1.87906 0
M  V30 13912 O 1300.26 -1.05555 1.47403 0
M  V30 13913 C 1300.31 2.15508 2.89117 0
M  V30 13914 O 1299.41 1.54327 3.82436 0
M  V30 13915 H 1298.75 0.456264 0.48241 0
M  V30 13916 H 1301.28 1.79234 0.986726 0
M  V30 13917 H 1301.29 2.2786 3.38444 0
M  V30 13918 H 1299.97 3.18568 2.67371 0
M  V30 13919 H 1298.54 1.50879 3.41013 0
M  V30 13920 N 1300.73 -1.01913 1.20215 0
M  V30 13921 C 1302.01 -1.7262 0.919867 0
M  V30 13922 C 1302.39 -2.03203 -0.572001 0
M  V30 13923 O 1301.73 -1.69448 -1.53296 0
M  V30 13924 C 1301.94 -2.9959 1.79016 0
M  V30 13925 C 1303.29 -3.72905 2.03045 0
M  V30 13926 O 1304.32 -3.0954 1.76249 0
M  V30 13927 O 1303.17 -4.86844 2.48285 0
M  V30 13928 H 1300.27 -0.752194 0.343705 0
M  V30 13929 H 1302.81 -1.07783 1.31076 0
M  V30 13930 H 1301.59 -2.73292 2.80048 0
M  V30 13931 H 1301.21 -3.72168 1.39918 0
M  V30 13932 N 1302.21 -1.00763 -1.2118 0
M  V30 13933 C 1303.46 -0.687197 -1.89633 0
M  V30 13934 C 1303.77 0.78566 -1.79128 0
M  V30 13935 O 1304.97 1.21828 -2.42632 0
M  V30 13936 C 1303.43 -1.1787 -3.40051 0
M  V30 13937 C 1303.04 -2.67782 -3.59161 0
M  V30 13938 C 1304.78 -0.933277 -4.14114 0
M  V30 13939 C 1302.69 -3.10459 -5.03358 0
M  V30 13940 H 1301.62 -0.253342 -0.710165 0
M  V30 13941 H 1304.27 -1.21914 -1.37147 0
M  V30 13942 H 1302.65 -0.574791 -3.91806 0
M  V30 13943 H 1303.83 -3.33645 -3.17833 0
M  V30 13944 H 1302.14 -2.90368 -2.98455 0
M  V30 13945 H 1304.74 -1.22766 -5.20416 0
M  V30 13946 H 1305.08 0.130431 -4.16096 0
M  V30 13947 H 1305.61 -1.50011 -3.68431 0
M  V30 13948 H 1302.35 -4.16068 -5.06525 0
M  V30 13949 H 1301.87 -2.4931 -5.45531 0
M  V30 13950 H 1303.55 -3.02589 -5.71882 0
M  V30 13951 N 1303.68 1.3679 -0.7827 0
M  V30 13952 C 1304.93 1.99712 -0.352533 0
M  V30 13953 C 1305.26 1.61984 1.0712 0
M  V30 13954 O 1304.54 0.871342 1.7389 0
M  V30 13955 C 1304.82 3.5649 -0.508628 0
M  V30 13956 C 1304.67 4.04093 -1.97557 0
M  V30 13957 C 1305.99 4.40026 0.0804447 0
M  V30 13958 H 1303.11 0.725522 -0.129566 0
M  V30 13959 H 1305.75 1.62305 -0.987788 0
M  V30 13960 H 1303.9 3.88487 0.0321664 0
M  V30 13961 H 1305.58 3.82613 -2.57691 0
M  V30 13962 H 1303.82 3.55881 -2.48055 0
M  V30 13963 H 1304.49 5.13088 -2.03579 0
M  V30 13964 H 1306.97 4.14351 -0.381113 0
M  V30 13965 H 1305.84 5.48868 -0.0588424 0
M  V30 13966 H 1306.1 4.26285 1.17189 0
M  V30 13967 N 1305.16 0.53415 1.48272 0
M  V30 13968 C 1306.41 0.00156948 2.021 0
M  V30 13969 C 1306.73 -1.34371 1.41313 0
M  V30 13970 O 1306 -1.87117 0.579996 0
M  V30 13971 H 1304.58 -0.00240789 0.746996 0
M  V30 13972 H 1307.24 0.698928 1.81937 0
M  V30 13973 H 1306.34 -0.103671 3.11928 0
M  V30 13974 N 1306.64 -1.55279 0.269478 0
M  V30 13975 C 1307.89 -1.99471 -0.348913 0
M  V30 13976 C 1308.22 -1.15784 -1.56283 0
M  V30 13977 O 1307.47 -0.214115 -1.94525 0
M  V30 13978 C 1307.77 -3.48773 -0.780535 0
M  V30 13979 C 1307.44 -4.49705 0.328113 0
M  V30 13980 C 1306.1 -4.77024 0.632544 0
M  V30 13981 C 1308.45 -5.09984 1.07544 0
M  V30 13982 C 1305.78 -5.61893 1.68798 0
M  V30 13983 C 1308.13 -5.95999 2.12057 0
M  V30 13984 C 1306.79 -6.21642 2.4314 0
M  V30 13985 H 1306.06 -0.729918 -0.127676 0
M  V30 13986 H 1308.71 -1.87651 0.382015 0
M  V30 13987 H 1307.02 -3.5804 -1.59105 0
M  V30 13988 H 1308.71 -3.80369 -1.26966 0
M  V30 13989 H 1305.3 -4.28524 0.0807131 0
M  V30 13990 H 1309.49 -4.88906 0.853506 0
M  V30 13991 H 1304.74 -5.80009 1.93389 0
M  V30 13992 H 1308.92 -6.41743 2.70442 0
M  V30 13993 H 1306.54 -6.87198 3.25059 0
M  V30 13994 N 1308.12 0.00332656 -1.576 0
M  V30 13995 C 1309.35 0.699945 -1.94701 0
M  V30 13996 C 1309.76 1.67492 -0.871312 0
M  V30 13997 O 1309.12 1.81882 0.150054 0
M  V30 13998 C 1309.17 1.43471 -3.31811 0
M  V30 13999 O 1308.89 0.498835 -4.35251 0
M  V30 14000 C 1310.39 2.22614 -3.83351 0
M  V30 14001 H 1307.61 0.195158 -0.641993 0
M  V30 14002 H 1310.16 -0.0468044 -2.04446 0
M  V30 14003 H 1308.31 2.13311 -3.23384 0
M  V30 14004 H 1308.72 1.01688 -5.14548 0
M  V30 14005 H 1310.2 2.69527 -4.81725 0
M  V30 14006 H 1310.68 3.05146 -3.15883 0
M  V30 14007 H 1311.28 1.57796 -3.94944 0
M  V30 14008 N 1309.6 1.55164 0.276031 0
M  V30 14009 C 1310.56 1.87065 1.32436 0
M  V30 14010 C 1311.56 0.745024 1.42499 0
M  V30 14011 O 1312.75 1.01321 1.41702 0
M  V30 14012 C 1309.88 2.07322 2.70611 0
M  V30 14013 H 1311.07 2.80775 1.05382 0
M  V30 14014 H 1308.63 1.47609 0.513947 0
M  V30 14015 H 1309.36 1.15983 3.0285 0
M  V30 14016 H 1309.15 2.89275 2.64693 0
M  V30 14017 H 1310.64 2.33287 3.46362 0
M  V30 14018 N 1311.07 -0.540404 1.48045 0
M  V30 14019 C 1312 -1.65538 1.6468 0
M  V30 14020 C 1312.99 -1.62713 0.495847 0
M  V30 14021 O 1314.17 -1.80072 0.727172 0
M  V30 14022 C 1311.3 -3.0415 1.67661 0
M  V30 14023 C 1310.25 -3.2183 2.82152 0
M  V30 14024 C 1309.58 -4.61397 2.70216 0
M  V30 14025 C 1310.88 -3.05596 4.23567 0
M  V30 14026 H 1312.57 -1.51873 2.58021 0
M  V30 14027 H 1310.12 -0.729208 1.24171 0
M  V30 14028 H 1312.07 -3.82013 1.77887 0
M  V30 14029 H 1310.8 -3.18814 0.708907 0
M  V30 14030 H 1309.46 -2.4638 2.71463 0
M  V30 14031 H 1309.1 -4.72883 1.71437 0
M  V30 14032 H 1308.8 -4.74174 3.47035 0
M  V30 14033 H 1310.33 -5.41374 2.82395 0
M  V30 14034 H 1311.74 -3.73261 4.35143 0
M  V30 14035 H 1310.14 -3.29871 5.01303 0
M  V30 14036 H 1311.21 -2.0214 4.40758 0
M  V30 14037 N 1312.55 -1.36459 -0.788468 0
M  V30 14038 C 1313.78 -1.34063 -1.58246 0
M  V30 14039 C 1314.2 0.0754933 -1.87948 0
M  V30 14040 O 1313.56 1.04772 -1.47961 0
M  V30 14041 C 1313.61 -2.17038 -2.8797 0
M  V30 14042 O 1312.71 -1.56353 -3.81612 0
M  V30 14043 H 1312.05 -0.458816 -0.479983 0
M  V30 14044 H 1314.58 -1.79755 -0.977207 0
M  V30 14045 H 1314.59 -2.29651 -3.3723 0
M  V30 14046 H 1313.27 -3.19981 -2.65678 0
M  V30 14047 H 1311.85 -1.52685 -3.40208 0
M  V30 14048 N 1314.03 1.01274 -1.20754 0
M  V30 14049 C 1314.99 2.08056 -0.961528 0
M  V30 14050 C 1315.99 1.60671 0.0644461 0
M  V30 14051 O 1317.18 1.73349 -0.172022 0
M  V30 14052 C 1314.32 3.37938 -0.448381 0
M  V30 14053 H 1315.51 2.31314 -1.90877 0
M  V30 14054 H 1313.06 1.18133 -1.02344 0
M  V30 14055 H 1313.8 3.20357 0.504144 0
M  V30 14056 H 1313.58 3.73659 -1.18833 0
M  V30 14057 H 1315.07 4.16551 -0.295876 0
M  V30 14058 N 1315.51 1.01404 1.20644 0
M  V30 14059 C 1316.42 0.591693 2.27016 0
M  V30 14060 C 1317.44 -0.36958 1.7003 0
M  V30 14061 O 1318.61 -0.231165 2.00069 0
M  V30 14062 C 1315.68 -0.0659827 3.46637 0
M  V30 14063 C 1314.74 0.940911 4.18862 0
M  V30 14064 C 1313.97 0.314526 5.32772 0
M  V30 14065 O 1314.19 -0.886404 5.63471 0
M  V30 14066 O 1313.13 1.02998 5.93022 0
M  V30 14067 H 1316.95 1.4772 2.65353 0
M  V30 14068 H 1314.54 0.783399 1.27213 0
M  V30 14069 H 1316.42 -0.433412 4.19165 0
M  V30 14070 H 1315.1 -0.925729 3.10181 0
M  V30 14071 H 1314 1.35966 3.48517 0
M  V30 14072 H 1315.34 1.77054 4.59252 0
M  V30 14073 N 1316.99 -1.36373 0.789944 0
M  V30 14074 C 1318.21 -2.04011 0.373396 0
M  V30 14075 C 1318.64 -1.59171 -1.00231 0
M  V30 14076 O 1318 -0.760431 -1.64582 0
M  V30 14077 C 1318.04 -3.5783 0.446083 0
M  V30 14078 O 1317.15 -4.08759 -0.54678 0
M  V30 14079 H 1316.49 -0.644807 0.158495 0
M  V30 14080 H 1319.02 -1.74317 1.0712 0
M  V30 14081 H 1319.03 -4.06822 0.309877 0
M  V30 14082 H 1317.7 -3.89819 1.44962 0
M  V30 14083 H 1316.28 -3.71038 -0.372192 0
M  V30 14084 N 1318.47 -0.542005 -1.47987 0
M  V30 14085 C 1319.69 -0.016717 -2.06893 0
M  V30 14086 C 1320.11 1.27015 -1.39687 0
M  V30 14087 O 1319.47 1.75845 -0.488326 0
M  V30 14088 C 1319.52 0.198437 -3.60955 0
M  V30 14089 O 1319.24 -1.03746 -4.25639 0
M  V30 14090 C 1320.74 0.762741 -4.36689 0
M  V30 14091 H 1317.96 -0.0389497 -0.669869 0
M  V30 14092 H 1320.5 -0.751082 -1.90208 0
M  V30 14093 H 1318.66 0.882884 -3.77205 0
M  V30 14094 H 1319.07 -0.82568 -5.1796 0
M  V30 14095 H 1320.55 0.862649 -5.45218 0
M  V30 14096 H 1321.02 1.77049 -4.01933 0
M  V30 14097 H 1321.63 0.114478 -4.25146 0
M  V30 14098 N 1319.94 1.55134 -0.277709 0
M  V30 14099 C 1321.35 1.85405 0.219543 0
M  V30 14100 C 1321.71 1.19973 1.55245 0
M  V30 14101 O 1320.83 0.488986 2.10803 0
M  V30 14102 C 1321.43 3.36369 0.405127 0
M  V30 14103 C 1319.98 3.66755 0.846609 0
M  V30 14104 C 1319.13 2.77238 -0.0586063 0
M  V30 14105 H 1322.08 1.50637 -0.499422 0
M  V30 14106 H 1322.1 3.59615 1.24329 0
M  V30 14107 H 1321.62 3.83963 -0.565138 0
M  V30 14108 H 1319.72 3.24662 1.82825 0
M  V30 14109 H 1319.83 4.74219 0.682135 0
M  V30 14110 H 1318.19 2.50546 0.458153 0
M  V30 14111 H 1318.98 3.27647 -1.0248 0
M  V30 14112 N 1321.42 0.00503138 1.57599 0
M  V30 14113 C 1322.35 -1.01883 2.04194 0
M  V30 14114 C 1323.33 -1.33183 0.9328 0
M  V30 14115 O 1324.52 -1.45261 1.20131 0
M  V30 14116 C 1321.64 -2.34515 2.44377 0
M  V30 14117 C 1320.69 -2.18843 3.66074 0
M  V30 14118 S 1321.52 -1.50975 5.13777 0
M  V30 14119 C 1322.68 -2.85027 5.57235 0
M  V30 14120 H 1322.91 -0.622099 2.90718 0
M  V30 14121 H 1320.44 -0.205983 1.5302 0
M  V30 14122 H 1322.4 -3.10775 2.68196 0
M  V30 14123 H 1321.06 -2.71327 1.58243 0
M  V30 14124 H 1320.26 -3.16836 3.91958 0
M  V30 14125 H 1319.86 -1.50727 3.42283 0
M  V30 14126 H 1322.15 -3.81318 5.60002 0
M  V30 14127 H 1323.09 -2.63837 6.57112 0
M  V30 14128 H 1323.5 -2.89168 4.84812 0
M  V30 14129 N 1322.9 -1.55308 -0.267798 0
M  V30 14130 C 1323.83 -1.84963 -1.35356 0
M  V30 14131 C 1324.84 -0.73446 -1.45291 0
M  V30 14132 O 1326.03 -1.01237 -1.47015 0
M  V30 14133 C 1323.13 -2.00221 -2.73432 0
M  V30 14134 C 1322.31 -3.30922 -2.86024 0
M  V30 14135 C 1321.37 -3.3618 -4.04808 0
M  V30 14136 O 1320.39 -4.09525 -3.9532 0
M  V30 14137 N 1321.59 -2.63958 -5.17017 0
M  V30 14138 H 1324.36 -2.7868 -1.1026 0
M  V30 14139 H 1321.92 -1.55289 -0.457914 0
M  V30 14140 H 1323.91 -2.01103 -3.51197 0
M  V30 14141 H 1322.48 -1.13346 -2.91327 0
M  V30 14142 H 1321.7 -3.42534 -1.951 0
M  V30 14143 H 1322.99 -4.17109 -2.91371 0
M  V30 14144 H 1322.39 -2.04062 -5.27613 0
M  V30 14145 H 1320.94 -2.70558 -5.92994 0
M  V30 14146 N 1324.38 0.532545 -1.4833 0
M  V30 14147 C 1325.62 1.29042 -1.56448 0
M  V30 14148 C 1325.96 1.92754 -0.236532 0
M  V30 14149 O 1325.23 1.79154 0.757237 0
M  V30 14150 C 1325.51 2.38173 -2.70084 0
M  V30 14151 C 1325.37 1.79169 -4.12576 0
M  V30 14152 C 1326.69 3.39957 -2.79495 0
M  V30 14153 H 1323.81 0.467816 -0.569488 0
M  V30 14154 H 1326.45 0.593517 -1.80492 0
M  V30 14155 H 1324.6 2.97616 -2.49714 0
M  V30 14156 H 1326.27 1.23797 -4.44378 0
M  V30 14157 H 1324.51 1.09716 -4.19696 0
M  V30 14158 H 1325.18 2.58174 -4.87904 0
M  V30 14159 H 1327.66 2.90466 -2.97941 0
M  V30 14160 H 1326.54 4.13714 -3.60739 0
M  V30 14161 H 1326.8 4.00347 -1.87548 0
M  V30 14162 N 1325.86 1.36875 0.78122 0
M  V30 14163 C 1327.1 1.31754 1.54171 0
M  V30 14164 C 1327.43 -0.100632 1.93939 0
M  V30 14165 O 1326.71 -1.05587 1.63345 0
M  V30 14166 C 1326.99 2.24789 2.81322 0
M  V30 14167 C 1326.85 3.75342 2.47868 0
M  V30 14168 C 1328.16 2.16442 3.83198 0
M  V30 14169 H 1325.28 0.479931 0.559317 0
M  V30 14170 H 1327.93 1.67497 0.896935 0
M  V30 14171 H 1326.08 1.94438 3.36342 0
M  V30 14172 H 1327.75 4.16247 1.98836 0
M  V30 14173 H 1325.99 3.94375 1.80696 0
M  V30 14174 H 1326.66 4.3586 3.38719 0
M  V30 14175 H 1329.14 2.43175 3.37647 0
M  V30 14176 H 1328.01 2.83695 4.69903 0
M  V30 14177 H 1328.27 1.15431 4.26765 0
M  V30 14178 N 1327.33 -1.00632 1.21289 0
M  V30 14179 C 1328.56 -1.77967 1.05524 0
M  V30 14180 C 1328.98 -1.84621 -0.395023 0
M  V30 14181 O 1328.33 -1.30664 -1.27409 0
M  V30 14182 C 1328.38 -3.21939 1.64432 0
M  V30 14183 O 1328.11 -3.15669 3.03784 0
M  V30 14184 C 1329.61 -4.1578 1.5376 0
M  V30 14185 H 1326.83 -0.559341 0.370646 0
M  V30 14186 H 1329.37 -1.26604 1.60598 0
M  V30 14187 H 1327.53 -3.70415 1.13453 0
M  V30 14188 H 1327.94 -4.06112 3.31924 0
M  V30 14189 H 1329.41 -5.14602 1.99722 0
M  V30 14190 H 1329.89 -4.36438 0.491811 0
M  V30 14191 H 1330.5 -3.73192 2.0398 0
M  V30 14192 N 1328.81 -1.02043 -1.20104 0
M  V30 14193 C 1329.74 -0.614421 -2.25271 0
M  V30 14194 C 1330.72 0.37242 -1.65973 0
M  V30 14195 O 1331.91 0.257005 -1.92492 0
M  V30 14196 C 1329.04 0.0442085 -3.47272 0
M  V30 14197 C 1327.99 -0.864019 -4.19188 0
M  V30 14198 C 1327.32 -0.0709551 -5.34653 0
M  V30 14199 C 1328.62 -2.17385 -4.74912 0
M  V30 14200 H 1330.31 -1.49355 -2.59487 0
M  V30 14201 H 1327.86 -0.719591 -1.24731 0
M  V30 14202 H 1329.81 0.339825 -4.20028 0
M  V30 14203 H 1328.53 0.958082 -3.12231 0
M  V30 14204 H 1327.19 -1.1437 -3.48303 0
M  V30 14205 H 1326.84 0.844688 -4.95857 0
M  V30 14206 H 1326.54 -0.67583 -5.83701 0
M  V30 14207 H 1328.07 0.218118 -6.1021 0
M  V30 14208 H 1329.48 -1.94034 -5.39466 0
M  V30 14209 H 1327.88 -2.72991 -5.34412 0
M  V30 14210 H 1328.95 -2.83427 -3.93443 0
M  V30 14211 N 1330.29 1.35952 -0.797165 0
M  V30 14212 C 1331.22 2.32506 -0.215277 0
M  V30 14213 C 1332.2 1.57023 0.654046 0
M  V30 14214 O 1333.39 1.85139 0.586268 0
M  V30 14215 C 1330.52 3.41266 0.644557 0
M  V30 14216 C 1329.47 4.27816 -0.125501 0
M  V30 14217 C 1328.8 5.27813 0.855428 0
M  V30 14218 C 1330.1 5.05367 -1.31913 0
M  V30 14219 H 1331.79 2.8142 -1.02193 0
M  V30 14220 H 1329.34 1.35303 -0.492862 0
M  V30 14221 H 1331.29 4.07808 1.06163 0
M  V30 14222 H 1330.01 2.90938 1.484 0
M  V30 14223 H 1328.67 3.62841 -0.523639 0
M  V30 14224 H 1328.32 4.73755 1.69011 0
M  V30 14225 H 1328.02 5.86589 0.344566 0
M  V30 14226 H 1329.54 5.97227 1.2709 0
M  V30 14227 H 1330.96 5.64907 -0.977418 0
M  V30 14228 H 1329.36 5.73593 -1.76382 0
M  V30 14229 H 1330.43 4.36558 -2.11057 0
M  V30 14230 N 1331.77 0.549846 1.47697 0
M  V30 14231 C 1332.72 -0.215119 2.31603 0
M  V30 14232 C 1333.71 -0.916441 1.4247 0
M  V30 14233 O 1334.92 -0.838565 1.59274 0
M  V30 14234 H 1331.29 -0.0882441 0.746805 0
M  V30 14235 H 1333.26 0.511847 2.93977 0
M  V30 14236 C 1332.01 -1.23662 3.24966 0
M  V30 14237 H 1331.33 -0.706384 3.9351 0
M  V30 14238 H 1332.77 -1.7429 3.86522 0
M  V30 14239 C 1331.23 -2.28066 2.47967 0
M  V30 14240 O 1331.76 -3.34862 2.21879 0
M  V30 14241 N 1329.97 -2.01799 2.09106 0
M  V30 14242 H 1329.52 -1.14965 2.30523 0
M  V30 14243 H 1329.47 -2.71872 1.57902 0
M  V30 14244 N 1333.25 -1.54984 0.285932 0
M  V30 14245 C 1334.52 -1.91872 -0.380083 0
M  V30 14246 C 1334.9 -1.21146 -1.72878 0
M  V30 14247 O 1334.25 -0.341999 -2.25926 0
M  V30 14248 C 1334.46 -3.45258 -0.509667 0
M  V30 14249 C 1335.81 -4.17232 -0.787549 0
M  V30 14250 O 1336.83 -3.51211 -0.594062 0
M  V30 14251 O 1335.69 -5.34085 -1.15826 0
M  V30 14252 H 1332.79 -0.799931 -0.209856 0
M  V30 14253 H 1335.33 -1.66403 0.332882 0
M  V30 14254 H 1334.1 -3.88829 0.439049 0
M  V30 14255 H 1333.73 -3.76715 -1.27168 0
M  V30 14256 N 1334.72 -0.0133892 -1.57594 0
M  V30 14257 C 1335.65 0.972341 -2.12292 0
M  V30 14258 C 1336.64 1.34971 -1.03522 0
M  V30 14259 O 1337.82 1.4311 -1.31275 0
M  V30 14260 C 1334.95 2.25988 -2.63717 0
M  V30 14261 C 1333.9 2.02373 -3.77133 0
M  V30 14262 C 1333.23 3.37256 -4.14925 0
M  V30 14263 C 1334.53 1.37553 -5.03861 0
M  V30 14264 H 1336.22 0.516869 -2.94905 0
M  V30 14265 H 1333.77 0.247176 -1.41863 0
M  V30 14266 H 1335.72 2.95313 -3.00613 0
M  V30 14267 H 1334.45 2.73672 -1.78244 0
M  V30 14268 H 1333.11 1.3547 -3.40651 0
M  V30 14269 H 1332.75 3.82669 -3.26456 0
M  V30 14270 H 1332.45 3.22267 -4.91343 0
M  V30 14271 H 1333.98 4.07875 -4.5439 0
M  V30 14272 H 1335.39 1.96855 -5.38443 0
M  V30 14273 H 1333.79 1.33011 -5.85174 0
M  V30 14274 H 1334.86 0.346429 -4.83661 0
M  V30 14275 N 1336.2 1.55448 0.259558 0
M  V30 14276 C 1337.43 1.80465 1.00577 0
M  V30 14277 C 1337.84 0.585001 1.79929 0
M  V30 14278 O 1337.18 -0.455641 1.7796 0
M  V30 14279 C 1337.25 2.98634 2.00146 0
M  V30 14280 C 1336.91 4.35154 1.39607 0
M  V30 14281 C 1337.91 5.13631 0.804923 0
M  V30 14282 C 1335.59 4.81833 1.41923 0
M  V30 14283 C 1337.59 6.36929 0.245007 0
M  V30 14284 C 1335.27 6.05083 0.855458 0
M  V30 14285 C 1336.27 6.82469 0.269359 0
M  V30 14286 O 1335.96 8.03392 -0.285743 0
M  V30 14287 H 1335.69 0.604693 0.302196 0
M  V30 14288 H 1338.24 2.0332 0.291599 0
M  V30 14289 H 1336.47 2.71504 2.75359 0
M  V30 14290 H 1338.16 3.10855 2.61006 0
M  V30 14291 H 1338.93 4.78693 0.779625 0
M  V30 14292 H 1334.81 4.21599 1.86481 0
M  V30 14293 H 1338.35 6.97274 -0.213098 0
M  V30 14294 H 1334.25 6.395 0.878041 0
M  V30 14295 H 1335.02 8.1831 -0.17639 0
M  V30 14296 N 1337.68 -0.524672 1.4861 0
M  V30 14297 C 1338.91 -1.30482 1.60568 0
M  V30 14298 C 1339.32 -1.86889 0.267952 0
M  V30 14299 O 1338.68 -1.66669 -0.743488 0
M  V30 14300 C 1338.73 -2.45191 2.65638 0
M  V30 14301 O 1338.45 -1.91107 3.9422 0
M  V30 14302 C 1339.95 -3.36931 2.88084 0
M  V30 14303 H 1337.17 -0.396612 0.541239 0
M  V30 14304 H 1339.72 -0.632392 1.94476 0
M  V30 14305 H 1337.87 -3.08308 2.34574 0
M  V30 14306 H 1338.29 -2.66234 4.51907 0
M  V30 14307 H 1339.76 -4.13755 3.65391 0
M  V30 14308 H 1340.24 -3.92487 1.97106 0
M  V30 14309 H 1340.84 -2.79601 3.20473 0
M  V30 14310 N 1339.16 -1.37287 -0.77395 0
M  V30 14311 C 1340.4 -1.33771 -1.54547 0
M  V30 14312 C 1340.76 0.0778134 -1.91842 0
M  V30 14313 O 1341.96 0.237682 -2.67747 0
M  V30 14314 C 1340.23 -2.24859 -2.77801 0
M  V30 14315 S 1341.79 -2.39172 -3.67889 0
M  V30 14316 H 1338.61 -0.474918 -0.529126 0
M  V30 14317 H 1341.21 -1.73015 -0.910287 0
M  V30 14318 H 1339.92 -3.2663 -2.48478 0
M  V30 14319 H 1339.45 -1.86691 -3.4628 0
M  V30 14320 H 1341.46 -1.60068 -4.69673 0
M  V30 14321 N 1340.64 0.999871 -1.21821 0
M  V30 14322 C 1341.88 1.7384 -1.03855 0
M  V30 14323 C 1342.21 1.89749 0.42727 0
M  V30 14324 O 1341.47 1.43261 1.33323 0
M  V30 14325 C 1341.77 3.1509 -1.6868 0
M  V30 14326 C 1341.43 3.19115 -3.18554 0
M  V30 14327 C 1340.09 3.19921 -3.5945 0
M  V30 14328 C 1342.45 3.15954 -4.14515 0
M  V30 14329 C 1339.77 3.15257 -4.94803 0
M  V30 14330 C 1342.13 3.12831 -5.49836 0
M  V30 14331 C 1340.79 3.11949 -5.90122 0
M  V30 14332 H 1340.06 0.636126 -0.380032 0
M  V30 14333 H 1342.71 1.17151 -1.51485 0
M  V30 14334 H 1341.01 3.75044 -1.13356 0
M  V30 14335 H 1342.71 3.70962 -1.52277 0
M  V30 14336 H 1339.3 3.19234 -2.85986 0
M  V30 14337 H 1343.48 3.14487 -3.83942 0
M  V30 14338 H 1338.74 3.12915 -5.25256 0
M  V30 14339 H 1342.91 3.09339 -6.23925 0
M  V30 14340 H 1340.54 3.0809 -6.94971 0
M  V30 14341 N 1342.11 1.02678 1.19562 0
M  V30 14342 C 1343.39 0.63674 1.84946 0
M  V30 14343 C 1343.77 -0.884667 1.91669 0
M  V30 14344 O 1343.12 -1.78053 1.43211 0
M  V30 14345 C 1343.33 1.29637 3.2403 0
M  V30 14346 C 1344.68 1.41828 4.00212 0
M  V30 14347 O 1345.7 1.25338 3.3342 0
M  V30 14348 O 1344.56 1.68573 5.19851 0
M  V30 14349 H 1341.65 0.221044 0.796912 0
M  V30 14350 H 1344.2 1.1248 1.27068 0
M  V30 14351 H 1342.97 2.33549 3.1396 0
M  V30 14352 H 1342.6 0.796041 3.8955 0
M  V30 14353 N 1343.59 -1.35528 0.804364 0
M  V30 14354 C 1344.56 -2.28153 0.21885 0
M  V30 14355 C 1345.56 -1.49486 -0.592511 0
M  V30 14356 O 1346.75 -1.69274 -0.411319 0
M  V30 14357 C 1343.88 -3.33736 -0.695195 0
M  V30 14358 H 1345.07 -2.81446 1.03576 0
M  V30 14359 H 1342.62 -1.45345 0.574854 0
M  V30 14360 H 1343.36 -2.85625 -1.53587 0
M  V30 14361 H 1343.14 -3.91931 -0.115143 0
M  V30 14362 H 1344.63 -4.02872 -1.09925 0
M  V30 14363 N 1345.07 -0.557671 -1.47404 0
M  V30 14364 C 1346.32 -0.0338384 -2.02772 0
M  V30 14365 C 1346.65 1.31278 -1.43107 0
M  V30 14366 O 1345.93 1.85436 -0.58682 0
M  V30 14367 C 1346.21 0.0587427 -3.60052 0
M  V30 14368 C 1346.06 -1.315 -4.30148 0
M  V30 14369 C 1347.38 0.771942 -4.33277 0
M  V30 14370 H 1344.5 -0.0137711 -0.736871 0
M  V30 14371 H 1347.14 -0.720049 -1.75827 0
M  V30 14372 H 1345.29 0.643154 -3.83139 0
M  V30 14373 H 1346.96 -1.94265 -4.184 0
M  V30 14374 H 1345.21 -1.88956 -3.90484 0
M  V30 14375 H 1345.88 -1.20294 -5.38733 0
M  V30 14376 H 1348.35 0.275729 -4.15185 0
M  V30 14377 H 1347.23 0.805683 -5.42955 0
M  V30 14378 H 1347.49 1.82816 -4.0253 0
M  V30 14379 N 1346.55 1.54831 -0.294147 0
M  V30 14380 C 1347.8 1.99179 0.317874 0
M  V30 14381 C 1348.11 1.18614 1.55532 0
M  V30 14382 O 1349.32 1.53197 2.24149 0
M  V30 14383 C 1347.77 3.54574 0.616893 0
M  V30 14384 C 1347.38 4.43939 -0.601822 0
M  V30 14385 C 1349.13 4.07465 1.19049 0
M  V30 14386 C 1347.03 5.90754 -0.276336 0
M  V30 14387 H 1345.96 0.743974 0.12255 0
M  V30 14388 H 1348.61 1.79047 -0.401781 0
M  V30 14389 H 1347 3.70579 1.39596 0
M  V30 14390 H 1348.17 4.39706 -1.37822 0
M  V30 14391 H 1346.48 4.01783 -1.09357 0
M  V30 14392 H 1349.08 5.14716 1.44814 0
M  V30 14393 H 1349.42 3.5765 2.13055 0
M  V30 14394 H 1349.96 3.94975 0.473282 0
M  V30 14395 H 1346.7 6.44704 -1.18478 0
M  V30 14396 H 1346.22 5.98011 0.462928 0
M  V30 14397 H 1347.9 6.4688 0.124587 0
M  V30 14398 N 1348.03 0.0217466 1.57585 0
M  V30 14399 C 1349.3 -0.696733 1.8277 0
M  V30 14400 C 1349.68 -1.90759 0.904112 0
M  V30 14401 O 1349.03 -2.28461 -0.0420522 0
M  V30 14402 C 1349.24 -1.08193 3.31806 0
M  V30 14403 C 1350.59 -1.47667 3.98095 0
M  V30 14404 O 1351.61 -1.17511 3.36258 0
M  V30 14405 O 1350.47 -2.03825 5.07068 0
M  V30 14406 H 1347.57 -0.341141 0.75336 0
M  V30 14407 H 1350.11 0.0488652 1.6963 0
M  V30 14408 H 1348.89 -0.219799 3.90682 0
M  V30 14409 H 1348.51 -1.88593 3.50026 0
M  V30 14410 N 1349.51 -1.55583 -0.251311 0
M  V30 14411 C 1350.45 -1.90764 -1.33086 0
M  V30 14412 C 1351.45 -0.786236 -1.50049 0
M  V30 14413 O 1352.65 -0.97081 -1.51576 0
M  V30 14414 H 1349.03 -0.605795 -0.445551 0
M  V30 14415 H 1351 -2.80903 -1.00678 0
M  V30 14416 C 1349.75 -2.21499 -2.68018 0
M  V30 14417 H 1349.07 -3.07287 -2.55763 0
M  V30 14418 H 1350.51 -2.50021 -3.42441 0
M  V30 14419 C 1348.97 -1.02983 -3.20774 0
M  V30 14420 O 1349.5 -0.275557 -4.00754 0
M  V30 14421 N 1347.71 -0.821649 -2.78742 0
M  V30 14422 H 1347.25 -1.43672 -2.13813 0
M  V30 14423 H 1347.21 -0.0303445 -3.14385 0
M  V30 14424 N 1350.98 0.516783 -1.48886 0
M  V30 14425 C 1352.23 1.27187 -1.57574 0
M  V30 14426 C 1352.56 1.92815 -0.255432 0
M  V30 14427 O 1351.81 1.80533 0.755403 0
M  V30 14428 C 1352.11 2.37296 -2.67256 0
M  V30 14429 C 1351.78 1.89232 -4.0927 0
M  V30 14430 C 1350.44 1.75842 -4.47921 0
M  V30 14431 C 1352.79 1.53073 -4.98215 0
M  V30 14432 C 1350.12 1.24648 -5.73306 0
M  V30 14433 C 1352.47 1.03337 -6.24103 0
M  V30 14434 C 1351.14 0.885744 -6.61597 0
M  V30 14435 H 1350.41 0.46541 -0.576606 0
M  V30 14436 H 1353.05 0.575223 -1.82657 0
M  V30 14437 H 1351.36 3.12685 -2.36084 0
M  V30 14438 H 1353.06 2.95393 -2.7119 0
M  V30 14439 H 1349.65 2.00608 -3.78754 0
M  V30 14440 H 1353.83 1.62272 -4.69022 0
M  V30 14441 H 1349.09 1.11917 -6.0107 0
M  V30 14442 H 1353.26 0.744338 -6.92411 0
M  V30 14443 H 1350.89 0.486866 -7.58639 0
M  V30 14444 N 1352.46 1.37696 0.766659 0
M  V30 14445 C 1353.74 1.23715 1.51506 0
M  V30 14446 C 1354.12 -0.167091 2.10438 0
M  V30 14447 O 1353.47 -1.17526 1.95959 0
M  V30 14448 C 1353.68 2.33715 2.59188 0
M  V30 14449 C 1355.02 2.71504 3.26451 0
M  V30 14450 O 1356.05 2.32929 2.69486 0
M  V30 14451 O 1354.91 3.37981 4.29454 0
M  V30 14452 H 1352 0.483046 0.671264 0
M  V30 14453 H 1354.55 1.49489 0.803188 0
M  V30 14454 H 1353.32 3.27729 2.13797 0
M  V30 14455 H 1352.94 2.09433 3.3797 0
M  V30 14456 N 1353.94 -0.993397 1.22349 0
M  V30 14457 C 1355.19 -1.73544 1.04931 0
M  V30 14458 C 1355.52 -1.89721 -0.414661 0
M  V30 14459 O 1354.79 -1.44001 -1.30743 0
M  V30 14460 C 1355.08 -3.14131 1.7605 0
M  V30 14461 C 1354.93 -3.05604 3.30039 0
M  V30 14462 C 1356.25 -4.13294 1.51249 0
M  V30 14463 H 1353.37 -0.629915 0.382591 0
M  V30 14464 H 1356.01 -1.15737 1.50682 0
M  V30 14465 H 1354.16 -3.63483 1.37157 0
M  V30 14466 H 1355.83 -2.63876 3.78374 0
M  V30 14467 H 1354.07 -2.42421 3.59742 0
M  V30 14468 H 1354.75 -4.05086 3.74979 0
M  V30 14469 H 1357.22 -3.72696 1.85033 0
M  V30 14470 H 1356.1 -5.09781 2.03507 0
M  V30 14471 H 1356.36 -4.39855 0.444973 0
M  V30 14472 N 1355.42 -1.03311 -1.19015 0
M  V30 14473 C 1356.65 -0.750712 -1.92478 0
M  V30 14474 C 1357.06 0.694964 -1.75974 0
M  V30 14475 O 1356.4 1.4847 -1.08177 0
M  V30 14476 C 1356.46 -1.02757 -3.44501 0
M  V30 14477 C 1356.12 -2.46565 -3.84779 0
M  V30 14478 C 1357.12 -3.44716 -3.89187 0
M  V30 14479 C 1354.81 -2.81076 -4.16295 0
M  V30 14480 C 1356.8 -4.75433 -4.24549 0
M  V30 14481 C 1354.49 -4.12002 -4.51329 0
M  V30 14482 C 1355.49 -5.08991 -4.55431 0
M  V30 14483 O 1355.17 -6.37571 -4.89652 0
M  V30 14484 H 1354.91 -0.273717 -0.618106 0
M  V30 14485 H 1357.46 -1.38176 -1.51975 0
M  V30 14486 H 1355.69 -0.339383 -3.85208 0
M  V30 14487 H 1357.38 -0.734175 -3.99205 0
M  V30 14488 H 1358.14 -3.19392 -3.64985 0
M  V30 14489 H 1354.02 -2.0626 -4.12284 0
M  V30 14490 H 1357.57 -5.51133 -4.27666 0
M  V30 14491 H 1353.46 -4.37098 -4.7499 0
M  V30 14492 H 1354.23 -6.42107 -5.07583 0
M  V30 14493 N 1356.9 1.35099 -0.81154 0
M  V30 14494 C 1357.84 2.29717 -0.223372 0
M  V30 14495 C 1358.81 1.53049 0.645396 0
M  V30 14496 O 1360 1.81467 0.589436 0
M  V30 14497 C 1357.14 3.3952 0.618057 0
M  V30 14498 C 1356.25 4.31145 -0.271693 0
M  V30 14499 C 1355.39 5.28044 0.578214 0
M  V30 14500 C 1354.42 6.11306 -0.311628 0
M  V30 14501 N 1353.56 7.00328 0.498539 0
M  V30 14502 H 1358.4 2.79426 -1.03563 0
M  V30 14503 H 1355.94 1.37518 -0.522231 0
M  V30 14504 H 1357.9 4.01854 1.12111 0
M  V30 14505 H 1356.53 2.91075 1.39554 0
M  V30 14506 H 1355.58 3.69773 -0.892885 0
M  V30 14507 H 1356.89 4.89545 -0.956392 0
M  V30 14508 H 1356.04 5.95774 1.1462 0
M  V30 14509 H 1354.78 4.70152 1.29646 0
M  V30 14510 H 1353.79 5.42518 -0.891849 0
M  V30 14511 H 1355.01 6.71277 -1.02781 0
M  V30 14512 H 1352.96 6.44919 1.20067 0
M  V30 14513 H 1352.88 7.55892 -0.12801 0
M  V30 14514 H 1354.14 7.72401 1.04965 0
M  V30 14515 N 1358.37 0.56548 1.47106 0
M  V30 14516 C 1359.62 0.0445914 2.02751 0
M  V30 14517 C 1359.95 -1.30517 1.43801 0
M  V30 14518 O 1359.23 -1.85123 0.596646 0
M  V30 14519 C 1359.51 -0.0396474 3.60078 0
M  V30 14520 C 1359.36 1.3378 4.29445 0
M  V30 14521 C 1360.68 -0.748954 4.3368 0
M  V30 14522 H 1357.8 0.0176787 0.736788 0
M  V30 14523 H 1360.44 0.729363 1.75443 0
M  V30 14524 H 1358.59 -0.622826 3.83475 0
M  V30 14525 H 1360.27 1.96482 4.17364 0
M  V30 14526 H 1358.51 1.91024 3.89477 0
M  V30 14527 H 1359.18 1.23149 5.38088 0
M  V30 14528 H 1361.66 -0.253707 4.15326 0
M  V30 14529 H 1360.53 -0.776877 5.43374 0
M  V30 14530 H 1360.79 -1.80679 4.03494 0
M  V30 14531 N 1359.85 -1.54672 0.302354 0
M  V30 14532 C 1360.76 -2.27251 -0.582578 0
M  V30 14533 C 1361.78 -1.30819 -1.14727 0
M  V30 14534 O 1362.95 -1.63803 -1.17177 0
M  V30 14535 C 1360.02 -3.00016 -1.73757 0
M  V30 14536 C 1359.08 -4.11988 -1.20682 0
M  V30 14537 C 1358.31 -4.81273 -2.30676 0
M  V30 14538 O 1358.54 -4.49927 -3.50602 0
M  V30 14539 O 1357.47 -5.68647 -1.97291 0
M  V30 14540 H 1361.3 -3.03699 0.00621365 0
M  V30 14541 H 1358.88 -1.49242 0.0687684 0
M  V30 14542 H 1360.76 -3.45652 -2.41045 0
M  V30 14543 H 1359.44 -2.26462 -2.31294 0
M  V30 14544 H 1358.35 -3.70749 -0.499625 0
M  V30 14545 H 1359.68 -4.87524 -0.676858 0
M  V30 14546 N 1361.33 -0.0301034 -1.57571 0
M  V30 14547 C 1362.56 0.658488 -1.96142 0
M  V30 14548 C 1362.97 1.65606 -0.906644 0
M  V30 14549 O 1362.33 1.82159 0.111441 0
M  V30 14550 C 1362.38 1.364 -3.34779 0
M  V30 14551 O 1362.1 0.4064 -4.36211 0
M  V30 14552 C 1363.6 2.14432 -3.87987 0
M  V30 14553 H 1360.82 0.181496 -0.645988 0
M  V30 14554 H 1363.37 -0.09016 -2.04301 0
M  V30 14555 H 1361.52 2.06404 -3.27836 0
M  V30 14556 H 1361.94 0.907503 -5.16589 0
M  V30 14557 H 1363.41 2.59248 -4.87334 0
M  V30 14558 H 1363.89 2.98377 -3.22285 0
M  V30 14559 H 1364.49 1.49383 -3.98202 0
M  V30 14560 N 1362.81 1.55714 0.243056 0
M  V30 14561 C 1364.06 1.76927 0.96849 0
M  V30 14562 C 1364.37 0.594748 1.86339 0
M  V30 14563 O 1365.58 0.689981 2.62586 0
M  V30 14564 C 1364.03 3.13246 1.77214 0
M  V30 14565 C 1363.64 4.38358 0.92444 0
M  V30 14566 C 1365.38 3.43796 2.49007 0
M  V30 14567 C 1363.29 5.65708 1.7242 0
M  V30 14568 H 1362.22 0.659574 0.365346 0
M  V30 14569 H 1364.87 1.8214 0.223026 0
M  V30 14570 H 1363.25 3.02151 2.5597 0
M  V30 14571 H 1364.43 4.60452 0.178936 0
M  V30 14572 H 1362.74 4.15171 0.319653 0
M  V30 14573 H 1365.34 4.3616 3.09303 0
M  V30 14574 H 1365.68 2.65297 3.20817 0
M  V30 14575 H 1366.22 3.56124 1.77259 0
M  V30 14576 H 1362.96 6.47039 1.04978 0
M  V30 14577 H 1362.48 5.4771 2.44488 0
M  V30 14578 H 1364.15 6.05105 2.29036 0
M  V30 14579 N 1364.29 -0.50888 1.49158 0
M  V30 14580 C 1365.53 -1.261 1.57934 0
M  V30 14581 C 1365.86 -1.93199 0.264405 0
M  V30 14582 O 1365.13 -1.82359 -0.715684 0
M  V30 14583 H 1363.71 -0.468421 0.581886 0
M  V30 14584 H 1366.37 -0.590447 1.85741 0
M  V30 14585 H 1365.46 -2.02913 2.37135 0
M  V30 14586 N 1365.76 -1.381 -0.759346 0
M  V30 14587 C 1367.04 -1.24517 -1.50847 0
M  V30 14588 C 1367.42 0.155929 -2.10523 0
M  V30 14589 O 1366.77 1.16485 -1.96579 0
M  V30 14590 C 1366.98 -2.35086 -2.57945 0
M  V30 14591 C 1368.33 -2.73232 -3.25007 0
M  V30 14592 O 1369.35 -2.34355 -2.68247 0
M  V30 14593 O 1368.21 -3.40254 -4.27656 0
M  V30 14594 H 1365.3 -0.486599 -0.668693 0
M  V30 14595 H 1367.85 -1.49913 -0.795249 0
M  V30 14596 H 1366.62 -3.28858 -2.12056 0
M  V30 14597 H 1366.25 -2.11222 -3.36854 0
M  V30 14598 N 1367.24 0.986894 -1.22875 0
M  V30 14599 C 1368.21 2.0597 -1.00544 0
M  V30 14600 C 1369.21 1.60771 0.0303509 0
M  V30 14601 O 1370.4 1.72945 -0.208753 0
M  V30 14602 C 1367.53 3.36911 -0.519962 0
M  V30 14603 H 1368.72 2.27213 -1.9574 0
M  V30 14604 H 1366.27 1.15935 -1.04827 0
M  V30 14605 H 1367.01 3.21355 0.436078 0
M  V30 14606 H 1366.79 3.71054 -1.26732 0
M  V30 14607 H 1368.28 4.15829 -0.384166 0
M  V30 14608 N 1368.72 1.0394 1.18466 0
M  V30 14609 C 1369.95 0.760909 1.92077 0
M  V30 14610 C 1370.36 -0.685622 1.7634 0
M  V30 14611 O 1369.7 -1.47894 1.08963 0
M  V30 14612 C 1369.76 1.04583 3.43952 0
M  V30 14613 C 1369.43 2.48602 3.83466 0
M  V30 14614 C 1370.42 3.46775 3.87354 0
M  V30 14615 C 1368.11 2.8328 4.14798 0
M  V30 14616 C 1370.1 4.77678 4.22022 0
M  V30 14617 C 1367.79 4.1439 4.49138 0
M  V30 14618 C 1368.79 5.11399 4.52725 0
M  V30 14619 O 1368.48 6.40159 4.86264 0
M  V30 14620 H 1368.21 0.276991 0.616646 0
M  V30 14621 H 1370.76 1.3898 1.5124 0
M  V30 14622 H 1368.99 0.359807 3.85022 0
M  V30 14623 H 1370.68 0.755336 3.9881 0
M  V30 14624 H 1371.45 3.21323 3.63286 0
M  V30 14625 H 1367.33 2.08444 4.11184 0
M  V30 14626 H 1370.87 5.53393 4.24737 0
M  V30 14627 H 1366.77 4.39611 4.72666 0
M  V30 14628 H 1367.54 6.4479 5.04171 0
M  V30 14629 N 1370.2 -1.34667 0.818693 0
M  V30 14630 C 1371.13 -2.27466 0.182904 0
M  V30 14631 C 1372.11 -1.48682 -0.65821 0
M  V30 14632 O 1373.29 -1.77912 -0.622868 0
M  V30 14633 C 1370.42 -3.30406 -0.744971 0
M  V30 14634 C 1369.47 -4.26496 0.018069 0
M  V30 14635 S 1370.3 -5.1788 1.36236 0
M  V30 14636 C 1371.46 -6.24357 0.43925 0
M  V30 14637 H 1371.69 -2.81042 0.969668 0
M  V30 14638 H 1369.22 -1.4165 0.614372 0
M  V30 14639 H 1371.18 -3.90205 -1.27478 0
M  V30 14640 H 1369.84 -2.75684 -1.50522 0
M  V30 14641 H 1369.03 -4.99294 -0.687141 0
M  V30 14642 H 1368.64 -3.70929 0.478291 0
M  V30 14643 H 1370.93 -6.76484 -0.370837 0
M  V30 14644 H 1371.87 -6.98916 1.13678 0
M  V30 14645 H 1372.28 -5.64492 0.0295605 0
M  V30 14646 N 1371.68 -0.573274 -1.46804 0
M  V30 14647 C 1372.92 -0.0553432 -2.02724 0
M  V30 14648 C 1373.26 1.29753 -1.44492 0
M  V30 14649 O 1372.53 1.84804 -0.606455 0
M  V30 14650 C 1372.81 0.0205511 -3.60094 0
M  V30 14651 C 1372.67 -1.36055 -4.2873 0
M  V30 14652 C 1373.99 0.725944 -4.34071 0
M  V30 14653 H 1371.1 -0.0215858 -0.736684 0
M  V30 14654 H 1373.75 -0.738657 -1.75054 0
M  V30 14655 H 1371.9 0.602481 -3.838 0
M  V30 14656 H 1373.57 -1.98692 -4.16316 0
M  V30 14657 H 1371.81 -1.93087 -3.88458 0
M  V30 14658 H 1372.48 -1.26001 -5.37427 0
M  V30 14659 H 1374.96 0.231677 -4.15455 0
M  V30 14660 H 1373.83 0.74805 -5.43779 0
M  V30 14661 H 1374.1 1.78536 -4.04447 0
M  V30 14662 N 1373.15 1.5451 -0.310553 0
M  V30 14663 C 1374.4 2.00623 0.296343 0
M  V30 14664 C 1374.73 1.19855 1.52802 0
M  V30 14665 O 1374.01 0.277468 1.92511 0
M  V30 14666 C 1374.29 3.54305 0.643448 0
M  V30 14667 C 1374.14 4.45807 -0.598029 0
M  V30 14668 C 1375.46 4.14958 1.46623 0
M  V30 14669 H 1372.58 0.729303 0.106236 0
M  V30 14670 H 1375.22 1.85196 -0.424549 0
M  V30 14671 H 1373.37 3.67581 1.25762 0
M  V30 14672 H 1375.05 4.44421 -1.23643 0
M  V30 14673 H 1373.29 4.16014 -1.22944 0
M  V30 14674 H 1373.96 5.51124 -0.310883 0
M  V30 14675 H 1376.44 4.05176 0.947199 0
M  V30 14676 H 1375.31 5.22627 1.67787 0
M  V30 14677 H 1375.57 3.67445 2.45839 0
M  V30 14678 N 1374.63 0.0384594 1.57553 0
M  V30 14679 C 1375.86 -0.651613 1.96898 0
M  V30 14680 C 1376.28 -1.64328 0.915308 0
M  V30 14681 O 1375.64 -1.80883 -0.122824 0
M  V30 14682 C 1375.69 -1.32613 3.3533 0
M  V30 14683 O 1374.79 -2.44159 3.32355 0
M  V30 14684 H 1374.13 -0.170441 0.641752 0
M  V30 14685 H 1376.66 0.103086 2.0434 0
M  V30 14686 H 1376.67 -1.68076 3.71772 0
M  V30 14687 H 1375.35 -0.599275 4.1156 0
M  V30 14688 H 1373.93 -2.10738 3.07642 0
M  V30 14689 N 1376.11 -1.55841 -0.234795 0
M  V30 14690 C 1377.36 -1.77886 -0.959217 0
M  V30 14691 C 1377.68 -0.604621 -1.8539 0
M  V30 14692 O 1376.95 0.379092 -1.92197 0
M  V30 14693 H 1375.53 -0.656077 -0.357172 0
M  V30 14694 H 1378.19 -1.93292 -0.249831 0
M  V30 14695 H 1377.29 -2.69512 -1.57383 0
M  V30 14696 N 1377.59 0.500963 -1.49426 0
M  V30 14697 C 1378.52 1.61114 -1.69011 0
M  V30 14698 C 1379.5 1.61341 -0.538813 0
M  V30 14699 O 1380.69 1.78081 -0.77466 0
M  V30 14700 C 1377.82 2.99598 -1.75666 0
M  V30 14701 C 1376.77 3.14236 -2.90585 0
M  V30 14702 C 1376.1 4.54071 -2.82354 0
M  V30 14703 C 1377.4 2.94258 -4.3152 0
M  V30 14704 H 1379.09 1.44978 -2.61957 0
M  V30 14705 H 1376.64 0.69603 -1.26061 0
M  V30 14706 H 1378.59 3.77163 -1.87953 0
M  V30 14707 H 1377.31 3.16822 -0.793186 0
M  V30 14708 H 1375.97 2.39096 -2.779 0
M  V30 14709 H 1375.62 4.68172 -1.83914 0
M  V30 14710 H 1375.32 4.64806 -3.59485 0
M  V30 14711 H 1376.84 5.33696 -2.96649 0
M  V30 14712 H 1378.26 3.61592 -4.44886 0
M  V30 14713 H 1376.65 3.16464 -5.09873 0
M  V30 14714 H 1377.72 1.90383 -4.45962 0
M  V30 14715 N 1379.07 1.38501 0.752011 0
M  V30 14716 C 1380.48 1.31086 1.32941 0
M  V30 14717 C 1380.83 -0.0326248 1.96173 0
M  V30 14718 O 1379.95 -0.934692 1.95173 0
M  V30 14719 C 1380.55 2.37395 2.41721 0
M  V30 14720 C 1379.11 2.33553 2.95177 0
M  V30 14721 C 1378.26 2.20178 1.68573 0
M  V30 14722 H 1381.21 1.48836 0.550771 0
M  V30 14723 H 1381.23 2.03202 3.21697 0
M  V30 14724 H 1380.74 3.35164 1.9567 0
M  V30 14725 H 1378.84 1.39371 3.45553 0
M  V30 14726 H 1378.95 3.27753 3.49449 0
M  V30 14727 H 1377.32 1.67057 1.9226 0
M  V30 14728 H 1378.1 3.19891 1.24599 0
M  V30 14729 N 1380.55 -0.980364 1.23396 0
M  V30 14730 C 1381.79 -1.72421 1.06765 0
M  V30 14731 C 1382.12 -1.90151 -0.394515 0
M  V30 14732 O 1381.4 -1.4538 -1.29209 0
M  V30 14733 C 1381.68 -3.12246 1.79372 0
M  V30 14734 C 1381.54 -3.02087 3.33262 0
M  V30 14735 C 1382.85 -4.11667 1.55624 0
M  V30 14736 H 1379.97 -0.625822 0.389251 0
M  V30 14737 H 1382.62 -1.14132 1.51901 0
M  V30 14738 H 1380.77 -3.62008 1.41004 0
M  V30 14739 H 1382.44 -2.59848 3.81152 0
M  V30 14740 H 1380.68 -2.38592 3.62293 0
M  V30 14741 H 1381.35 -4.01087 3.79254 0
M  V30 14742 H 1383.83 -3.70712 1.88975 0
M  V30 14743 H 1382.7 -5.07593 2.08902 0
M  V30 14744 H 1382.96 -4.39358 0.491601 0
M  V30 14745 N 1382.02 -1.04567 -1.17913 0
M  V30 14746 C 1383.44 -0.76584 -1.40025 0
M  V30 14747 C 1383.64 0.642484 -1.90983 0
M  V30 14748 O 1382.7 1.40589 -2.0974 0
M  V30 14749 C 1384.01 -1.81616 -2.39658 0
M  V30 14750 C 1385.56 -1.83765 -2.53376 0
M  V30 14751 C 1386.03 -2.87803 -3.56277 0
M  V30 14752 N 1387.52 -2.86726 -3.63789 0
M  V30 14753 C 1388.26 -3.63876 -4.4315 0
M  V30 14754 N 1387.75 -4.50793 -5.26077 0
M  V30 14755 N 1389.55 -3.52344 -4.37962 0
M  V30 14756 H 1381.7 -1.95442 -0.831647 0
M  V30 14757 H 1383.96 -0.84593 -0.42791 0
M  V30 14758 H 1383.67 -2.8266 -2.09275 0
M  V30 14759 H 1383.54 -1.65251 -3.39075 0
M  V30 14760 H 1385.93 -0.833896 -2.83073 0
M  V30 14761 H 1386.01 -2.04208 -1.54055 0
M  V30 14762 H 1385.65 -3.88361 -3.2732 0
M  V30 14763 H 1385.58 -2.64614 -4.55288 0
M  V30 14764 H 1388.07 -2.237 -3.04576 0
M  V30 14765 H 1388.39 -5.0636 -5.83798 0
M  V30 14766 H 1386.73 -4.54858 -5.2548 0
M  V30 14767 H 1389.92 -2.8384 -3.72226 0
M  V30 14768 H 1390.1 -4.12718 -4.99568 0
M  V30 14769 N 1383.5 1.34231 -0.825823 0
M  V30 14770 C 1384.45 2.31378 -0.23809 0
M  V30 14771 C 1385.44 1.57537 0.622767 0
M  V30 14772 O 1386.65 1.72512 0.513783 0
M  V30 14773 H 1383.02 0.74974 -0.0582516 0
M  V30 14774 H 1385 2.78471 -1.07221 0
M  V30 14775 C 1383.74 3.42778 0.582969 0
M  V30 14776 H 1383.07 3.99739 -0.0701208 0
M  V30 14777 H 1384.51 4.12983 0.960266 0
M  V30 14778 C 1382.97 2.87486 1.75651 0
M  V30 14779 O 1383.5 2.82603 2.85479 0
M  V30 14780 N 1381.7 2.4427 1.57418 0
M  V30 14781 H 1381.25 2.48441 0.680792 0
M  V30 14782 H 1381.21 2.07626 2.36091 0
M  V30 14783 N 1384.98 0.581051 1.46498 0
M  V30 14784 C 1386.23 0.0658652 2.01993 0
M  V30 14785 C 1386.55 -1.29807 1.45516 0
M  V30 14786 O 1385.82 -1.85177 0.639233 0
M  V30 14787 H 1384.4 0.0213584 0.746695 0
M  V30 14788 H 1387.06 0.756456 1.79621 0
M  V30 14789 H 1386.16 -0.00438128 3.121 0
M  V30 14790 N 1386.46 -1.54343 0.318742 0
M  V30 14791 C 1387.87 -1.59564 -0.034068 0
M  V30 14792 C 1388.07 -1.33539 -1.50896 0
M  V30 14793 O 1387.13 -1.11746 -2.26427 0
M  V30 14794 C 1388.44 -2.98291 0.379827 0
M  V30 14795 C 1389.99 -3.11255 0.330078 0
M  V30 14796 C 1390.47 -4.5232 0.719061 0
M  V30 14797 N 1391.96 -4.58295 0.67228 0
M  V30 14798 C 1392.69 -5.65551 0.945513 0
M  V30 14799 N 1392.19 -6.80767 1.28563 0
M  V30 14800 N 1393.98 -5.55305 0.871394 0
M  V30 14801 H 1386.13 -1.69518 1.27975 0
M  V30 14802 H 1388.39 -0.792627 0.520044 0
M  V30 14803 H 1388.1 -3.22319 1.40724 0
M  V30 14804 H 1387.97 -3.76319 -0.257606 0
M  V30 14805 H 1390.36 -2.86965 -0.688117 0
M  V30 14806 H 1390.44 -2.35342 1.00238 0
M  V30 14807 H 1390.09 -4.77342 1.73515 0
M  V30 14808 H 1390.02 -5.26594 0.0245001 0
M  V30 14809 H 1392.51 -3.75547 0.421059 0
M  V30 14810 H 1392.82 -7.58503 1.47963 0
M  V30 14811 H 1391.17 -6.82275 1.32385 0
M  V30 14812 H 1394.36 -4.64171 0.605205 0
M  V30 14813 H 1394.53 -6.38806 1.08769 0
M  V30 14814 N 1387.94 -0.0468143 -1.5753 0
M  V30 14815 C 1388.87 0.927092 -2.14306 0
M  V30 14816 C 1389.85 1.32745 -1.06362 0
M  V30 14817 O 1391.03 1.40293 -1.34281 0
M  V30 14818 C 1388.16 2.20343 -2.68452 0
M  V30 14819 C 1387.12 1.94328 -3.81341 0
M  V30 14820 C 1386.44 3.28379 -4.21985 0
M  V30 14821 C 1387.74 1.26835 -5.06666 0
M  V30 14822 H 1389.44 0.454199 -2.95935 0
M  V30 14823 H 1386.98 0.217029 -1.42355 0
M  V30 14824 H 1388.93 2.8887 -3.0681 0
M  V30 14825 H 1387.66 2.6983 -1.84009 0
M  V30 14826 H 1386.32 1.28214 -3.43448 0
M  V30 14827 H 1385.97 3.75658 -3.34499 0
M  V30 14828 H 1385.67 3.11772 -4.98068 0
M  V30 14829 H 1387.19 3.98145 -4.6294 0
M  V30 14830 H 1388.6 1.85389 -5.42498 0
M  V30 14831 H 1387 1.20569 -5.87863 0
M  V30 14832 H 1388.07 0.243759 -4.84287 0
M  V30 14833 N 1389.41 1.55964 0.226527 0
M  V30 14834 C 1390.36 1.88403 1.28406 0
M  V30 14835 C 1391.35 0.746656 1.42527 0
M  V30 14836 O 1392.54 1.00898 1.45425 0
M  V30 14837 C 1389.67 2.19992 2.63549 0
M  V30 14838 C 1388.76 3.40109 2.5335 0
M  V30 14839 N 1389.15 4.58858 2.12798 0
M  V30 14840 C 1387.44 3.43625 2.8432 0
M  V30 14841 C 1388.15 5.41013 2.13729 0
M  V30 14842 N 1387.12 4.80596 2.54025 0
M  V30 14843 H 1390.92 2.77732 0.961352 0
M  V30 14844 H 1388.44 1.56463 0.435104 0
M  V30 14845 H 1390.43 2.41405 3.39896 0
M  V30 14846 H 1389.09 1.31973 2.9667 0
M  V30 14847 H 1390.11 4.84108 1.8401 0
M  V30 14848 H 1386.78 2.65935 3.21846 0
M  V30 14849 H 1388.17 6.4606 1.84543 0
M  V30 14850 N 1390.89 -0.493031 1.4969 0
M  V30 14851 C 1391.86 -1.57598 1.6642 0
M  V30 14852 C 1392.86 -1.51615 0.535668 0
M  V30 14853 O 1394.05 -1.54626 0.802283 0
M  V30 14854 C 1391.18 -2.97249 1.66901 0
M  V30 14855 H 1392.37 -1.4409 2.63017 0
M  V30 14856 H 1389.92 -0.717846 1.3884 0
M  V30 14857 H 1390.66 -3.16225 0.719164 0
M  V30 14858 H 1390.44 -3.02999 2.48865 0
M  V30 14859 H 1391.93 -3.75914 1.81874 0
M  V30 14860 N 1392.37 -1.38898 -0.744656 0
M  V30 14861 C 1393.61 -1.37019 -1.51675 0
M  V30 14862 C 1393.97 0.0371033 -1.91964 0
M  V30 14863 O 1395.18 0.180835 -2.68191 0
M  V30 14864 C 1393.45 -2.30701 -2.72969 0
M  V30 14865 S 1395.01 -2.46922 -3.62733 0
M  V30 14866 H 1391.82 -0.486035 -0.518933 0
M  V30 14867 H 1394.43 -1.74906 -0.873384 0
M  V30 14868 H 1393.13 -3.31827 -2.41494 0
M  V30 14869 H 1392.66 -1.93994 -3.42242 0
M  V30 14870 H 1394.68 -1.69994 -4.66172 0
M  V30 14871 N 1393.85 0.973806 -1.23914 0
M  V30 14872 C 1394.76 2.10138 -1.04304 0
M  V30 14873 C 1395.77 1.73994 0.0143888 0
M  V30 14874 O 1396.95 2.00572 -0.182481 0
M  V30 14875 C 1394.02 3.40673 -0.643639 0
M  V30 14876 C 1393.08 3.90802 -1.77686 0
M  V30 14877 C 1392.31 5.15108 -1.39642 0
M  V30 14878 O 1392.53 5.69695 -0.283546 0
M  V30 14879 O 1391.47 5.59468 -2.21988 0
M  V30 14880 H 1395.29 2.29574 -1.9882 0
M  V30 14881 H 1392.88 1.08524 -1.02679 0
M  V30 14882 H 1394.76 4.19178 -0.432145 0
M  V30 14883 H 1393.43 3.22551 0.272458 0
M  V30 14884 H 1392.34 3.13385 -2.04305 0
M  V30 14885 H 1393.67 4.1339 -2.67151 0
M  V30 14886 N 1395.33 1.05191 1.17357 0
M  V30 14887 C 1396.57 0.763113 1.87895 0
M  V30 14888 C 1396.91 -0.708071 1.80831 0
M  V30 14889 O 1396.18 -1.51777 1.21631 0
M  V30 14890 C 1396.46 1.2442 3.37923 0
M  V30 14891 C 1396.32 2.77832 3.53737 0
M  V30 14892 C 1397.64 0.843209 4.31947 0
M  V30 14893 H 1394.75 0.27869 0.682276 0
M  V30 14894 H 1397.4 1.3059 1.38008 0
M  V30 14895 H 1395.55 0.782438 3.80539 0
M  V30 14896 H 1397.22 3.32131 3.20135 0
M  V30 14897 H 1395.46 3.17108 2.96015 0
M  V30 14898 H 1396.13 3.06555 4.59052 0
M  V30 14899 H 1398.61 1.24073 3.97171 0
M  V30 14900 H 1397.48 1.20743 5.35455 0
M  V30 14901 H 1397.75 -0.252802 4.41377 0
M  V30 14902 N 1396.8 -1.33791 0.83293 0
M  V30 14903 C 1397.77 -2.27637 0.267196 0
M  V30 14904 C 1398.77 -1.50709 -0.560669 0
M  V30 14905 O 1399.96 -1.70109 -0.375321 0
M  V30 14906 C 1397.09 -3.35136 -0.624248 0
M  V30 14907 H 1398.28 -2.79186 1.09522 0
M  V30 14908 H 1395.84 -1.44093 0.605554 0
M  V30 14909 H 1396.57 -2.88818 -1.47494 0
M  V30 14910 H 1396.36 -3.92087 -0.0319827 0
M  V30 14911 H 1397.85 -4.05113 -1.01355 0
M  V30 14912 N 1398.28 -0.588812 -1.46187 0
M  V30 14913 C 1399.7 -0.250962 -1.57615 0
M  V30 14914 C 1399.9 1.2467 -1.58302 0
M  V30 14915 O 1398.95 2.02876 -1.50325 0
M  V30 14916 C 1400.27 -0.905561 -2.8674 0
M  V30 14917 C 1401.82 -0.879721 -3.00383 0
M  V30 14918 C 1402.29 -1.51398 -4.32253 0
M  V30 14919 N 1403.78 -1.4786 -4.38967 0
M  V30 14920 C 1404.52 -1.93868 -5.39632 0
M  V30 14921 N 1404.01 -2.47876 -6.46938 0
M  V30 14922 N 1405.81 -1.84748 -5.30872 0
M  V30 14923 H 1397.96 -1.56148 -1.43985 0
M  V30 14924 H 1400.22 -0.653028 -0.68721 0
M  V30 14925 H 1399.93 -1.95935 -2.92066 0
M  V30 14926 H 1399.8 -0.417456 -3.74883 0
M  V30 14927 H 1402.19 0.165466 -2.94636 0
M  V30 14928 H 1402.27 -1.40591 -2.137 0
M  V30 14929 H 1401.91 -2.55839 -4.38758 0
M  V30 14930 H 1401.84 -0.962965 -5.17721 0
M  V30 14931 H 1404.33 -1.08387 -3.62023 0
M  V30 14932 H 1404.65 -2.80824 -7.1997 0
M  V30 14933 H 1402.99 -2.51905 -6.47741 0
M  V30 14934 H 1406.18 -1.42307 -4.45944 0
M  V30 14935 H 1406.35 -2.20919 -6.09179 0
M  V30 14936 N 1399.76 1.54172 -0.326923 0
M  V30 14937 C 1400.69 2.20703 0.580137 0
M  V30 14938 C 1401.67 1.18523 1.11315 0
M  V30 14939 O 1402.86 1.47276 1.17652 0
M  V30 14940 C 1399.98 2.87137 1.79638 0
M  V30 14941 C 1399.03 4.03064 1.39432 0
M  V30 14942 S 1399.86 5.33785 0.428179 0
M  V30 14943 C 1401.02 6.03715 1.65163 0
M  V30 14944 H 1401.25 2.97296 0.0149964 0
M  V30 14945 H 1398.78 1.54 -0.111004 0
M  V30 14946 H 1400.74 3.26035 2.49423 0
M  V30 14947 H 1399.4 2.1034 2.33272 0
M  V30 14948 H 1398.6 4.48424 2.3007 0
M  V30 14949 H 1398.2 3.65858 0.776144 0
M  V30 14950 H 1400.49 6.26098 2.58858 0
M  V30 14951 H 1401.43 6.97156 1.24014 0
M  V30 14952 H 1401.84 5.33666 1.84014 0
M  V30 14953 N 1401.24 0.0551678 1.57503 0
M  V30 14954 C 1402.2 -0.903065 2.10659 0
M  V30 14955 C 1403.2 -1.23728 1.02703 0
M  V30 14956 O 1404.39 -1.17331 1.2876 0
M  V30 14957 C 1401.52 -2.21171 2.59415 0
M  V30 14958 H 1402.72 -0.442197 2.96622 0
M  V30 14959 H 1400.27 -0.193297 1.551 0
M  V30 14960 H 1401 -2.71831 1.76858 0
M  V30 14961 H 1400.79 -1.98216 3.38309 0
M  V30 14962 H 1402.28 -2.89802 3.00674 0
M  V30 14963 N 1402.72 -1.56081 -0.218252 0
M  V30 14964 C 1403.65 -1.95706 -1.27364 0
M  V30 14965 C 1404.63 -0.825731 -1.48713 0
M  V30 14966 O 1405.81 -1.08829 -1.60841 0
M  V30 14967 C 1402.94 -2.2766 -2.62275 0
M  V30 14968 C 1401.9 -3.43314 -2.55576 0
M  V30 14969 C 1401.22 -3.60883 -3.94547 0
M  V30 14970 C 1402.52 -4.7819 -2.10075 0
M  V30 14971 H 1404.22 -2.84113 -0.944459 0
M  V30 14972 H 1401.76 -1.36693 -0.452882 0
M  V30 14973 H 1403.72 -2.53973 -3.36268 0
M  V30 14974 H 1402.44 -1.3611 -2.96887 0
M  V30 14975 H 1401.1 -3.17056 -1.8404 0
M  V30 14976 H 1400.75 -2.66703 -4.26472 0
M  V30 14977 H 1400.45 -4.38674 -3.90946 0
M  V30 14978 H 1401.97 -3.89547 -4.70197 0
M  V30 14979 H 1403.38 -5.03686 -2.73813 0
M  V30 14980 H 1401.78 -5.59287 -2.17527 0
M  V30 14981 H 1402.85 -4.73325 -1.05314 0
M  V30 14982 N 1404.2 0.485086 -1.49949 0
M  V30 14983 C 1405.16 1.56713 -1.67253 0
M  V30 14984 C 1406.16 1.51329 -0.543701 0
M  V30 14985 O 1407.35 1.54198 -0.810472 0
M  V30 14986 C 1404.48 2.9636 -1.68475 0
M  V30 14987 H 1405.67 1.42693 -2.63778 0
M  V30 14988 H 1403.23 0.710473 -1.39219 0
M  V30 14989 H 1403.96 3.1584 -0.735924 0
M  V30 14990 H 1403.75 3.01675 -2.50469 0
M  V30 14991 H 1405.24 3.74945 -1.83865 0
M  V30 14992 N 1405.67 1.39291 0.737279 0
M  V30 14993 C 1406.6 1.40562 1.86452 0
M  V30 14994 C 1407.58 0.269283 1.67955 0
M  V30 14995 O 1408.77 0.474769 1.88307 0
M  V30 14996 C 1405.9 1.2461 3.24175 0
M  V30 14997 C 1404.85 2.35619 3.57306 0
M  V30 14998 C 1404.18 2.04758 4.93941 0
M  V30 14999 C 1405.48 3.77927 3.60512 0
M  V30 15000 H 1407.17 2.34896 1.85646 0
M  V30 15001 H 1404.72 1.13065 0.891756 0
M  V30 15002 H 1406.67 1.2412 4.02706 0
M  V30 15003 H 1405.4 0.267438 3.25503 0
M  V30 15004 H 1404.06 2.35322 2.81104 0
M  V30 15005 H 1403.7 1.05336 4.91847 0
M  V30 15006 H 1403.4 2.79117 5.17076 0
M  V30 15007 H 1404.93 2.05915 5.74832 0
M  V30 15008 H 1406.34 3.80166 4.29123 0
M  V30 15009 H 1404.74 4.51626 3.95164 0
M  V30 15010 H 1405.81 4.09068 2.60368 0
M  V30 15011 N 1407.15 -0.967221 1.24429 0
M  V30 15012 C 1408.08 -2.07966 1.06172 0
M  V30 15013 C 1409.06 -1.70081 -0.0254566 0
M  V30 15014 O 1410.25 -1.93682 0.141705 0
M  V30 15015 C 1407.38 -3.4085 0.666251 0
M  V30 15016 C 1406.33 -3.92692 1.70225 0
M  V30 15017 C 1405.66 -5.21925 1.16183 0
M  V30 15018 C 1406.96 -4.20478 3.09831 0
M  V30 15019 H 1408.65 -2.23497 1.99222 0
M  V30 15020 H 1406.2 -1.07398 0.959255 0
M  V30 15021 H 1408.15 -4.1811 0.52552 0
M  V30 15022 H 1406.87 -3.2522 -0.299939 0
M  V30 15023 H 1405.53 -3.17588 1.83121 0
M  V30 15024 H 1405.18 -5.02655 0.186237 0
M  V30 15025 H 1404.88 -5.57579 1.85416 0
M  V30 15026 H 1406.41 -6.01795 1.03323 0
M  V30 15027 H 1407.82 -4.88442 3.00162 0
M  V30 15028 H 1406.22 -4.67362 3.7642 0
M  V30 15029 H 1407.29 -3.27235 3.57834 0
M  V30 15030 N 1408.63 -1.05812 -1.16797 0
M  V30 15031 C 1409.91 -0.685551 -1.83193 0
M  V30 15032 C 1410.29 0.833539 -1.93947 0
M  V30 15033 O 1409.63 1.74193 -1.47882 0
M  V30 15034 C 1409.84 -1.38183 -3.20479 0
M  V30 15035 C 1411.19 -1.52389 -3.96311 0
M  V30 15036 O 1412.22 -1.34134 -3.2998 0
M  V30 15037 O 1411.08 -1.82297 -5.15199 0
M  V30 15038 H 1408.17 -0.242095 -0.790771 0
M  V30 15039 H 1410.72 -1.15809 -1.24041 0
M  V30 15040 H 1409.49 -2.41791 -3.07657 0
M  V30 15041 H 1409.11 -0.899043 -3.87302 0
M  V30 15042 N 1410.11 1.33347 -0.840014 0
M  V30 15043 C 1411.07 2.27492 -0.279264 0
M  V30 15044 C 1412.07 1.51004 0.552669 0
M  V30 15045 O 1413.26 1.70305 0.366295 0
M  V30 15046 C 1410.39 3.35462 0.606466 0
M  V30 15047 H 1411.59 2.78601 -1.11001 0
M  V30 15048 H 1409.14 1.4377 -0.613187 0
M  V30 15049 H 1409.87 2.89596 1.45961 0
M  V30 15050 H 1409.66 3.92098 0.0111889 0
M  V30 15051 H 1411.15 4.05645 0.992052 0
M  V30 15052 N 1411.59 0.596556 1.45873 0
M  V30 15053 C 1412.83 0.0875879 2.02611 0
M  V30 15054 C 1413.16 -1.27438 1.46538 0
M  V30 15055 O 1412.44 -1.83815 0.635779 0
M  V30 15056 C 1412.72 0.0367394 3.60081 0
M  V30 15057 C 1412.58 1.42859 4.26511 0
M  V30 15058 C 1413.89 -0.656795 4.35171 0
M  V30 15059 H 1411.01 0.0333031 0.736247 0
M  V30 15060 H 1413.66 0.766413 1.73857 0
M  V30 15061 H 1411.81 -0.541345 3.8471 0
M  V30 15062 H 1413.48 2.0529 4.13102 0
M  V30 15063 H 1411.72 1.99243 3.85337 0
M  V30 15064 H 1412.39 1.34535 5.35354 0
M  V30 15065 H 1414.87 -0.165553 4.15771 0
M  V30 15066 H 1413.74 -0.661445 5.449 0
M  V30 15067 H 1414 -1.72079 4.07236 0
M  V30 15068 N 1413.06 -1.53996 0.335095 0
M  V30 15069 C 1414.48 -1.59591 -0.0171422 0
M  V30 15070 C 1414.68 -1.35132 -1.49471 0
M  V30 15071 O 1413.74 -1.14141 -2.25229 0
M  V30 15072 C 1415.05 -2.97872 0.411443 0
M  V30 15073 C 1416.6 -3.10887 0.363072 0
M  V30 15074 C 1417.07 -4.51532 0.766995 0
M  V30 15075 N 1418.56 -4.57557 0.72085 0
M  V30 15076 C 1419.3 -5.64516 1.00544 0
M  V30 15077 N 1418.79 -6.79365 1.35777 0
M  V30 15078 N 1420.59 -5.54349 0.930243 0
M  V30 15079 H 1412.74 -1.68151 1.29766 0
M  V30 15080 H 1415 -0.787067 0.528422 0
M  V30 15081 H 1414.71 -3.20809 1.44134 0
M  V30 15082 H 1414.58 -3.76571 -0.217678 0
M  V30 15083 H 1416.97 -2.87679 -0.657642 0
M  V30 15084 H 1417.05 -2.34266 1.02728 0
M  V30 15085 H 1416.69 -4.75474 1.78568 0
M  V30 15086 H 1416.62 -5.26539 0.0803511 0
M  V30 15087 H 1419.11 -3.75079 0.460867 0
M  V30 15088 H 1419.43 -7.56891 1.55999 0
M  V30 15089 H 1417.77 -6.80833 1.39614 0
M  V30 15090 H 1420.96 -4.63503 0.654402 0
M  V30 15091 H 1421.14 -6.37616 1.15539 0
M  V30 15092 N 1414.54 -0.0635198 -1.57472 0
M  V30 15093 C 1415.77 0.620205 -1.9791 0
M  V30 15094 C 1416.19 1.62851 -0.941335 0
M  V30 15095 O 1415.55 1.81056 0.0940313 0
M  V30 15096 C 1415.6 1.27261 -3.37397 0
M  V30 15097 O 1414.7 2.38841 -3.36197 0
M  V30 15098 H 1414.04 0.16021 -0.644382 0
M  V30 15099 H 1416.57 -0.135582 -2.0415 0
M  V30 15100 H 1416.58 1.6214 -3.74399 0
M  V30 15101 H 1415.26 0.533723 -4.12461 0
M  V30 15102 H 1413.83 2.05817 -3.10956 0
M  V30 15103 N 1416.02 1.56195 0.209972 0
M  V30 15104 C 1417.27 1.79745 0.932638 0
M  V30 15105 C 1417.59 0.634252 1.83868 0
M  V30 15106 O 1416.85 -0.380798 1.91959 0
M  V30 15107 C 1417.15 3.09154 1.79328 0
M  V30 15108 C 1416.81 4.38754 1.03949 0
M  V30 15109 C 1415.48 4.73965 0.831308 0
M  V30 15110 C 1417.83 5.18718 0.508031 0
M  V30 15111 C 1415.16 5.86646 0.0799547 0
M  V30 15112 C 1417.51 6.32182 -0.230037 0
M  V30 15113 C 1416.17 6.65986 -0.449366 0
M  V30 15114 H 1415.44 0.657732 0.341276 0
M  V30 15115 H 1418.09 1.90453 0.199998 0
M  V30 15116 H 1416.39 2.93618 2.59414 0
M  V30 15117 H 1418.09 3.24578 2.35478 0
M  V30 15118 H 1414.68 4.11114 1.21174 0
M  V30 15119 H 1418.87 4.91941 0.656306 0
M  V30 15120 H 1414.12 6.11318 -0.100092 0
M  V30 15121 H 1418.3 6.93367 -0.649296 0
M  V30 15122 H 1415.92 7.53142 -1.03349 0
M  V30 15123 N 1417.5 -0.477127 1.50204 0
M  V30 15124 C 1418.91 -0.81037 1.37496 0
M  V30 15125 C 1419.11 -1.96937 0.426399 0
M  V30 15126 O 1418.17 -2.52148 -0.133197 0
M  V30 15127 C 1419.48 -1.12811 2.78737 0
M  V30 15128 C 1421.03 -1.23492 2.87608 0
M  V30 15129 C 1421.51 -1.58583 4.29669 0
M  V30 15130 N 1423 -1.65586 4.32591 0
M  V30 15131 C 1423.73 -1.94231 5.39502 0
M  V30 15132 N 1423.23 -2.20936 6.56627 0
M  V30 15133 N 1425.02 -1.95682 5.26939 0
M  V30 15134 H 1417.17 0.286771 2.10455 0
M  V30 15135 H 1419.43 0.0657649 0.945716 0
M  V30 15136 H 1419.14 -0.349616 3.49958 0
M  V30 15137 H 1419.01 -2.0658 3.15602 0
M  V30 15138 H 1421.4 -2.0041 2.1661 0
M  V30 15139 H 1421.48 -0.277182 2.54294 0
M  V30 15140 H 1421.13 -0.822071 5.01203 0
M  V30 15141 H 1421.06 -2.55497 4.60466 0
M  V30 15142 H 1423.55 -1.47012 3.48132 0
M  V30 15143 H 1423.86 -2.42049 7.33916 0
M  V30 15144 H 1422.21 -2.18341 6.59812 0
M  V30 15145 H 1425.4 -1.74311 4.34434 0
M  V30 15146 H 1425.57 -2.1767 6.10347 0
M  V30 15147 N 1418.98 -1.3968 -0.729882 0
M  V30 15148 C 1420.23 -1.36492 -1.48502 0
M  V30 15149 C 1420.54 0.0346572 -1.95569 0
M  V30 15150 O 1421.74 0.189135 -2.7084 0
M  V30 15151 C 1420.2 -2.39813 -2.68361 0
M  V30 15152 C 1419.81 -3.85511 -2.28222 0
M  V30 15153 C 1421.55 -2.45709 -3.46161 0
M  V30 15154 C 1419.46 -4.80462 -3.44834 0
M  V30 15155 H 1418.39 -0.507455 -0.557679 0
M  V30 15156 H 1421.04 -1.6535 -0.795708 0
M  V30 15157 H 1419.42 -2.04033 -3.39392 0
M  V30 15158 H 1420.6 -4.30359 -1.64704 0
M  V30 15159 H 1418.91 -3.82957 -1.63501 0
M  V30 15160 H 1421.51 -3.1384 -4.32907 0
M  V30 15161 H 1421.85 -1.48318 -3.88983 0
M  V30 15162 H 1422.38 -2.80409 -2.82163 0
M  V30 15163 H 1419.12 -5.79134 -3.07057 0
M  V30 15164 H 1418.64 -4.40289 -4.07315 0
M  V30 15165 H 1420.32 -4.99607 -4.11098 0
M  V30 15166 N 1420.45 0.960609 -1.2494 0
M  V30 15167 C 1421.87 1.23057 -1.01633 0
M  V30 15168 C 1422.07 1.99676 0.270527 0
M  V30 15169 O 1421.13 2.32503 0.984823 0
M  V30 15170 C 1422.44 2.01078 -2.2358 0
M  V30 15171 C 1423.99 2.14144 -2.28279 0
M  V30 15172 C 1424.46 2.95563 -3.49867 0
M  V30 15173 N 1425.95 3.03143 -3.50227 0
M  V30 15174 C 1426.69 3.66518 -4.40967 0
M  V30 15175 N 1426.18 4.31553 -5.41972 0
M  V30 15176 N 1427.98 3.636 -4.28663 0
M  V30 15177 H 1420.13 0.447876 -2.07624 0
M  V30 15178 H 1422.39 0.260581 -0.911483 0
M  V30 15179 H 1422.1 1.52172 -3.17075 0
M  V30 15180 H 1421.97 3.01797 -2.2627 0
M  V30 15181 H 1424.36 2.6225 -1.35311 0
M  V30 15182 H 1424.44 1.1275 -2.29611 0
M  V30 15183 H 1424.08 2.48149 -4.43153 0
M  V30 15184 H 1424.01 3.9717 -3.45779 0
M  V30 15185 H 1426.5 2.56888 -2.77159 0
M  V30 15186 H 1426.82 4.7775 -6.07433 0
M  V30 15187 H 1425.16 4.302 -5.45851 0
M  V30 15188 H 1428.35 3.11973 -3.48985 0
M  V30 15189 H 1428.53 4.12706 -4.99578 0
M  V30 15190 N 1421.93 1.0643 1.16234 0
M  V30 15191 C 1422.88 0.646274 2.18649 0
M  V30 15192 C 1423.87 -0.323768 1.57609 0
M  V30 15193 O 1425.06 -0.138991 1.76453 0
M  V30 15194 C 1422.19 0.0356797 3.43281 0
M  V30 15195 C 1421.27 1.0303 4.11395 0
M  V30 15196 N 1421.66 2.2064 4.55139 0
M  V30 15197 C 1419.96 0.861544 4.376 0
M  V30 15198 C 1420.66 2.83665 5.07848 0
M  V30 15199 N 1419.64 2.11384 5.00817 0
M  V30 15200 H 1423.44 1.54217 2.50189 0
M  V30 15201 H 1420.96 0.936176 1.32701 0
M  V30 15202 H 1422.95 -0.281637 4.15948 0
M  V30 15203 H 1421.61 -0.855453 3.13228 0
M  V30 15204 H 1422.62 2.58409 4.48826 0
M  V30 15205 H 1419.3 0.0225171 4.17494 0
M  V30 15206 H 1420.69 3.83473 5.51723 0
M  V30 15207 N 1423.41 -1.329 0.847073 0
M  V30 15208 C 1424.83 -1.50333 0.53593 0
M  V30 15209 C 1425.03 -1.78492 -0.93504 0
M  V30 15210 O 1424.08 -1.85001 -1.71846 0
M  V30 15211 C 1425.4 -2.65254 1.41636 0
M  V30 15212 C 1426.94 -2.79139 1.416 0
M  V30 15213 C 1427.42 -3.97131 2.28147 0
M  V30 15214 N 1428.91 -4.0438 2.25901 0
M  V30 15215 C 1429.64 -4.94893 2.89601 0
M  V30 15216 N 1429.14 -5.90466 3.62383 0
M  V30 15217 N 1430.93 -4.87955 2.79028 0
M  V30 15218 H 1423.08 -1.12886 1.79918 0
M  V30 15219 H 1425.35 -0.555707 0.768045 0
M  V30 15220 H 1425.05 -2.51151 2.46203 0
M  V30 15221 H 1424.93 -3.60856 1.09829 0
M  V30 15222 H 1427.31 -2.92669 0.378013 0
M  V30 15223 H 1427.4 -1.84273 1.77418 0
M  V30 15224 H 1427.04 -3.8436 3.32009 0
M  V30 15225 H 1426.97 -4.91258 1.89665 0
M  V30 15226 H 1429.46 -3.35986 1.72979 0
M  V30 15227 H 1429.77 -6.56212 4.08174 0
M  V30 15228 H 1428.12 -5.90516 3.66491 0
M  V30 15229 H 1431.31 -4.12258 2.21723 0
M  V30 15230 H 1431.48 -5.58295 3.28954 0
M  V30 15231 N 1424.89 -0.604284 -1.45555 0
M  V30 15232 C 1426.3 -0.183613 -1.85795 0
M  V30 15233 C 1426.65 1.25869 -1.50504 0
M  V30 15234 O 1425.78 1.9539 -0.930148 0
M  V30 15235 C 1426.37 -0.326455 -3.37224 0
M  V30 15236 C 1424.93 0.0394987 -3.76379 0
M  V30 15237 C 1424.08 -0.65243 -2.69516 0
M  V30 15238 H 1427.03 -0.811173 -1.36403 0
M  V30 15239 H 1427.05 0.442258 -3.77921 0
M  V30 15240 H 1426.56 -1.37627 -3.62878 0
M  V30 15241 H 1424.66 1.08862 -3.56342 0
M  V30 15242 H 1424.77 -0.35185 -4.77806 0
M  V30 15243 H 1423.14 -0.0904148 -2.54539 0
M  V30 15244 H 1423.92 -1.70432 -2.98007 0
M  V30 15245 N 1426.37 1.53816 -0.343257 0
M  V30 15246 C 1427.3 2.22552 0.548015 0
M  V30 15247 C 1428.31 1.23202 1.06419 0
M  V30 15248 O 1429.5 1.49559 0.974394 0
M  V30 15249 C 1426.6 2.89197 1.76687 0
M  V30 15250 C 1425.77 4.14859 1.38603 0
M  V30 15251 C 1424.83 4.64917 2.46453 0
M  V30 15252 O 1423.86 5.29135 2.09773 0
M  V30 15253 N 1425.06 4.4082 3.77701 0
M  V30 15254 H 1427.83 2.99672 -0.040645 0
M  V30 15255 H 1425.39 1.61033 -0.167368 0
M  V30 15256 H 1427.38 3.19601 2.48268 0
M  V30 15257 H 1425.95 2.15664 2.26291 0
M  V30 15258 H 1425.17 3.91003 0.501001 0
M  V30 15259 H 1426.46 4.96599 1.10756 0
M  V30 15260 H 1425.85 3.8946 4.1029 0
M  V30 15261 H 1424.41 4.7583 4.45453 0
M  V30 15262 N 1427.84 0.0718701 1.57436 0
M  V30 15263 C 1428.75 -0.910077 2.16229 0
M  V30 15264 C 1429.77 -1.32699 1.12548 0
M  V30 15265 O 1430.95 -1.39967 1.44814 0
M  V30 15266 C 1428.01 -2.15942 2.71238 0
M  V30 15267 C 1427.07 -1.79891 3.89792 0
M  V30 15268 C 1426.31 -2.9887 4.42168 0
M  V30 15269 O 1426.53 -4.1289 3.93545 0
M  V30 15270 O 1425.46 -2.78682 5.33498 0
M  V30 15271 H 1429.29 -0.439969 3.00496 0
M  V30 15272 H 1426.87 -0.151204 1.48633 0
M  V30 15273 H 1428.76 -2.89204 3.06494 0
M  V30 15274 H 1427.43 -2.62051 1.90029 0
M  V30 15275 H 1426.34 -1.03881 3.59388 0
M  V30 15276 H 1427.67 -1.38566 4.72293 0
M  V30 15277 N 1429.32 -1.56304 -0.201686 0
M  V30 15278 C 1430.25 -1.90538 -1.27389 0
M  V30 15279 C 1431.27 -0.795422 -1.42045 0
M  V30 15280 O 1432.46 -1.07381 -1.42589 0
M  V30 15281 C 1429.56 -2.11638 -2.64694 0
M  V30 15282 C 1428.73 -3.42755 -2.71731 0
M  V30 15283 C 1427.79 -3.53047 -3.90185 0
M  V30 15284 O 1426.81 -4.25923 -3.77595 0
M  V30 15285 N 1428.02 -2.85649 -5.05356 0
M  V30 15286 H 1430.78 -2.83106 -0.983411 0
M  V30 15287 H 1428.34 -1.57092 -0.391638 0
M  V30 15288 H 1430.33 -2.15818 -3.42352 0
M  V30 15289 H 1428.9 -1.256 -2.86258 0
M  V30 15290 H 1428.12 -3.50501 -1.80397 0
M  V30 15291 H 1429.41 -4.29092 -2.73418 0
M  V30 15292 H 1428.81 -2.26256 -5.18483 0
M  V30 15293 H 1427.37 -2.95465 -5.80985 0
M  V30 15294 N 1430.8 0.469154 -1.50455 0
M  V30 15295 C 1431.73 1.57493 -1.7239 0
M  V30 15296 C 1432.71 1.60161 -0.572915 0
M  V30 15297 O 1433.9 1.76397 -0.812259 0
M  V30 15298 C 1431.03 2.95804 -1.81981 0
M  V30 15299 C 1429.98 3.08001 -2.97185 0
M  V30 15300 C 1429.31 4.4798 -2.91922 0
M  V30 15301 C 1430.61 2.85039 -4.37665 0
M  V30 15302 H 1432.3 1.39389 -2.64974 0
M  V30 15303 H 1429.85 0.669133 -1.27509 0
M  V30 15304 H 1431.8 3.73091 -1.95911 0
M  V30 15305 H 1430.52 3.15068 -0.86021 0
M  V30 15306 H 1429.18 2.33148 -2.82909 0
M  V30 15307 H 1428.83 4.64165 -1.93803 0
M  V30 15308 H 1428.53 4.57076 -3.69263 0
M  V30 15309 H 1430.05 5.27284 -3.07903 0
M  V30 15310 H 1431.47 3.52074 -4.52456 0
M  V30 15311 H 1429.87 3.05578 -5.16471 0
M  V30 15312 H 1430.94 1.8088 -4.499 0
M  V30 15313 N 1432.28 1.40065 0.722464 0
M  V30 15314 C 1433.69 1.21944 1.02965 0
M  V30 15315 C 1433.89 0.0898069 2.013 0
M  V30 15316 O 1432.95 -0.554519 2.46336 0
M  V30 15317 C 1434.26 2.55848 1.57995 0
M  V30 15318 C 1435.81 2.62801 1.70013 0
M  V30 15319 C 1436.29 3.96957 2.2845 0
M  V30 15320 N 1437.78 3.98662 2.35844 0
M  V30 15321 C 1438.51 4.99248 2.82026 0
M  V30 15322 N 1438.01 6.1023 3.28012 0
M  V30 15323 N 1439.8 4.8662 2.81349 0
M  V30 15324 H 1431.95 2.12283 0.0705301 0
M  V30 15325 H 1434.22 0.943338 0.0938991 0
M  V30 15326 H 1433.92 3.39125 0.932034 0
M  V30 15327 H 1433.8 2.76452 2.5662 0
M  V30 15328 H 1436.18 1.799 2.33923 0
M  V30 15329 H 1436.26 2.46034 0.700062 0
M  V30 15330 H 1435.91 4.80295 1.65164 0
M  V30 15331 H 1435.84 4.1105 3.29158 0
M  V30 15332 H 1438.33 3.18518 2.03358 0
M  V30 15333 H 1438.64 6.82878 3.61797 0
M  V30 15334 H 1436.99 6.13805 3.25988 0
M  V30 15335 H 1440.18 3.99015 2.44755 0
M  V30 15336 H 1440.35 5.65155 3.17024 0
M  V30 15337 N 1433.76 -0.95397 1.25448 0
M  V30 15338 C 1434.69 -2.06828 1.08372 0
M  V30 15339 C 1435.67 -1.70098 -0.00741585 0
M  V30 15340 O 1436.85 -1.93521 0.16224 0
M  V30 15341 C 1433.98 -3.40124 0.702365 0
M  V30 15342 C 1432.94 -3.90865 1.74381 0
M  V30 15343 C 1432.26 -5.20663 1.21712 0
M  V30 15344 C 1433.56 -4.17169 3.14273 0
M  V30 15345 H 1435.26 -2.21372 2.01581 0
M  V30 15346 H 1432.8 -1.06374 0.970592 0
M  V30 15347 H 1434.76 -4.17529 0.569837 0
M  V30 15348 H 1433.48 -3.2552 -0.265428 0
M  V30 15349 H 1432.14 -3.15628 1.86479 0
M  V30 15350 H 1431.79 -5.02429 0.23954 0
M  V30 15351 H 1431.49 -5.55581 1.91319 0
M  V30 15352 H 1433.01 -6.00665 1.097 0
M  V30 15353 H 1434.43 -4.85231 3.05325 0
M  V30 15354 H 1432.82 -4.63344 3.81356 0
M  V30 15355 H 1433.89 -3.23421 3.61285 0
M  V30 15356 N 1435.24 -1.07045 -1.15668 0
M  V30 15357 C 1436.65 -0.795369 -1.38369 0
M  V30 15358 C 1436.85 0.601829 -1.92303 0
M  V30 15359 O 1435.91 1.36109 -2.12675 0
M  V30 15360 C 1437.22 -1.86659 -2.35752 0
M  V30 15361 C 1438.77 -1.89098 -2.49421 0
M  V30 15362 C 1439.24 -2.95296 -3.50092 0
M  V30 15363 N 1440.73 -2.94378 -3.57625 0
M  V30 15364 C 1441.47 -3.73194 -4.35331 0
M  V30 15365 N 1440.97 -4.61851 -5.16397 0
M  V30 15366 N 1442.76 -3.61554 -4.30389 0
M  V30 15367 H 1434.91 -1.97162 -0.790004 0
M  V30 15368 H 1437.17 -0.854816 -0.40987 0
M  V30 15369 H 1436.88 -2.87036 -2.03232 0
M  V30 15370 H 1436.75 -1.72406 -3.35494 0
M  V30 15371 H 1439.14 -0.893752 -2.8124 0
M  V30 15372 H 1439.22 -2.07429 -1.49689 0
M  V30 15373 H 1438.86 -3.95217 -3.19008 0
M  V30 15374 H 1438.79 -2.74212 -4.49572 0
M  V30 15375 H 1441.29 -2.3011 -2.99763 0
M  V30 15376 H 1441.6 -5.18629 -5.72926 0
M  V30 15377 H 1439.94 -4.65902 -5.15714 0
M  V30 15378 H 1443.13 -2.91672 -3.66122 0
M  V30 15379 H 1443.31 -4.23221 -4.90701 0
M  V30 15380 N 1436.71 1.32449 -0.85411 0
M  V30 15381 C 1437.96 1.96537 -0.453451 0
M  V30 15382 C 1438.28 1.68344 0.995982 0
M  V30 15383 O 1439.48 2.26166 1.50204 0
M  V30 15384 C 1437.94 3.51785 -0.759934 0
M  V30 15385 C 1437.55 3.88838 -2.22506 0
M  V30 15386 C 1439.29 4.22347 -0.426973 0
M  V30 15387 C 1437.2 5.37129 -2.47479 0
M  V30 15388 H 1436.13 0.735537 -0.165835 0
M  V30 15389 H 1438.78 1.50851 -1.04481 0
M  V30 15390 H 1437.16 3.95879 -0.0980116 0
M  V30 15391 H 1438.33 3.55756 -2.92873 0
M  V30 15392 H 1436.65 3.31299 -2.52249 0
M  V30 15393 H 1439.25 5.31424 -0.590986 0
M  V30 15394 H 1439.59 4.11485 0.631359 0
M  V30 15395 H 1440.12 3.83835 -1.04477 0
M  V30 15396 H 1436.86 5.53012 -3.51935 0
M  V30 15397 H 1436.38 5.71619 -1.8169 0
M  V30 15398 H 1438.06 6.04204 -2.31401 0
M  V30 15399 N 1438.19 0.611994 1.45232 0
M  V30 15400 C 1439.44 0.108696 2.01807 0
M  V30 15401 C 1439.76 -1.26692 1.48237 0
M  V30 15402 O 1439.03 -1.8378 0.678368 0
M  V30 15403 H 1437.61 0.0371921 0.746074 0
M  V30 15404 H 1440.27 0.794386 1.77976 0
M  V30 15405 H 1439.37 0.0618207 3.12039 0
M  V30 15406 N 1439.67 -1.53632 0.351409 0
M  V30 15407 C 1440.92 -2.00222 -0.243731 0
M  V30 15408 C 1441.23 -1.24305 -1.51022 0
M  V30 15409 O 1442.44 -1.61411 -2.18309 0
M  V30 15410 C 1440.89 -3.56619 -0.48487 0
M  V30 15411 C 1440.5 -4.414 0.766173 0
M  V30 15412 C 1442.25 -4.11603 -1.03844 0
M  V30 15413 C 1440.15 -5.89321 0.4954 0
M  V30 15414 H 1439.08 -0.74801 -0.0948534 0
M  V30 15415 H 1441.73 -1.77433 0.467957 0
M  V30 15416 H 1440.12 -3.75505 -1.25746 0
M  V30 15417 H 1441.29 -4.34288 1.54047 0
M  V30 15418 H 1439.6 -3.97448 1.24194 0
M  V30 15419 H 1442.2 -5.19736 -1.25611 0
M  V30 15420 H 1442.54 -3.65311 -1.99634 0
M  V30 15421 H 1443.08 -3.96459 -0.326363 0
M  V30 15422 H 1439.82 -6.39863 1.42324 0
M  V30 15423 H 1439.34 -5.99317 -0.240662 0
M  V30 15424 H 1441.02 -6.46897 0.115584 0
M  V30 15425 N 1441.15 -0.0802183 -1.57396 0
M  V30 15426 C 1442.1 0.894334 -2.09728 0
M  V30 15427 C 1443.08 1.25342 -1.00887 0
M  V30 15428 O 1444.27 1.23099 -1.27184 0
M  V30 15429 C 1441.4 2.15885 -2.66924 0
M  V30 15430 C 1440.49 1.82587 -3.82783 0
M  V30 15431 N 1440.88 1.19777 -4.91413 0
M  V30 15432 C 1439.18 2.12287 -3.92237 0
M  V30 15433 C 1439.88 1.04758 -5.72189 0
M  V30 15434 N 1438.85 1.56005 -5.20733 0
M  V30 15435 H 1442.66 0.404523 -2.91103 0
M  V30 15436 H 1440.17 0.123432 -1.6193 0
M  V30 15437 H 1442.17 2.8663 -3.02736 0
M  V30 15438 H 1440.83 2.65446 -1.86998 0
M  V30 15439 H 1441.84 0.866384 -5.10602 0
M  V30 15440 H 1438.52 2.64166 -3.23299 0
M  V30 15441 H 1439.91 0.55756 -6.69583 0
M  V30 15442 N 1442.63 1.56409 0.193394 0
M  V30 15443 C 1443.85 1.84837 0.929676 0
M  V30 15444 C 1444.27 0.662928 1.76779 0
M  V30 15445 O 1443.63 -0.368339 1.78744 0
M  V30 15446 C 1443.68 3.12083 1.82445 0
M  V30 15447 O 1443.4 4.26056 1.02018 0
M  V30 15448 C 1444.9 3.53701 2.67227 0
M  V30 15449 H 1442.12 0.613766 0.271168 0
M  V30 15450 H 1444.66 2.03518 0.200134 0
M  V30 15451 H 1442.82 2.95294 2.5076 0
M  V30 15452 H 1443.23 4.98526 1.63008 0
M  V30 15453 H 1444.71 4.45699 3.25663 0
M  V30 15454 H 1445.18 2.76771 3.41019 0
M  V30 15455 H 1445.79 3.73027 2.04281 0
M  V30 15456 N 1444.1 -0.461169 1.50702 0
M  V30 15457 C 1445.35 -1.21012 1.61866 0
M  V30 15458 C 1445.67 -1.9226 0.325736 0
M  V30 15459 O 1444.94 -1.84543 -0.657306 0
M  V30 15460 H 1443.52 -0.449671 0.596494 0
M  V30 15461 H 1446.18 -0.531056 1.87525 0
M  V30 15462 H 1445.28 -1.95266 2.4347 0
M  V30 15463 N 1445.58 -1.40446 -0.715026 0
M  V30 15464 C 1446.99 -1.34564 -1.29419 0
M  V30 15465 C 1447.34 -0.0193984 -1.9619 0
M  V30 15466 O 1446.47 0.882616 -1.97582 0
M  V30 15467 C 1447.06 -2.43721 -2.35342 0
M  V30 15468 C 1445.62 -2.41297 -2.88881 0
M  V30 15469 C 1444.77 -2.2457 -1.62676 0
M  V30 15470 H 1447.72 -1.50244 -0.511116 0
M  V30 15471 H 1447.74 -2.1166 -3.16197 0
M  V30 15472 H 1447.25 -3.40234 -1.86715 0
M  V30 15473 H 1445.35 -1.48483 -3.41736 0
M  V30 15474 H 1445.47 -3.36903 -3.40637 0
M  V30 15475 H 1443.83 -1.72096 -1.87763 0
M  V30 15476 H 1444.61 -3.23082 -1.16074 0
M  V30 15477 N 1447.06 0.947303 -1.25952 0
M  V30 15478 C 1448.31 1.6953 -1.11299 0
M  V30 15479 C 1448.64 1.9113 0.343961 0
M  V30 15480 O 1447.91 1.48755 1.25309 0
M  V30 15481 C 1448.2 3.0738 -1.87588 0
M  V30 15482 C 1448.05 2.93145 -3.41154 0
M  V30 15483 C 1449.37 4.07396 -1.66483 0
M  V30 15484 H 1446.49 0.615281 -0.405707 0
M  V30 15485 H 1449.13 1.10064 -1.54874 0
M  V30 15486 H 1447.28 3.58143 -1.50553 0
M  V30 15487 H 1448.95 2.49651 -3.87907 0
M  V30 15488 H 1447.19 2.28902 -3.68492 0
M  V30 15489 H 1447.87 3.9089 -3.89755 0
M  V30 15490 H 1450.34 3.65572 -1.98738 0
M  V30 15491 H 1449.22 5.01876 -2.22287 0
M  V30 15492 H 1449.48 4.379 -0.607916 0
M  V30 15493 N 1448.54 1.07657 1.15099 0
M  V30 15494 C 1449.78 0.811006 1.87622 0
M  V30 15495 C 1450.14 -0.651144 1.80621 0
M  V30 15496 O 1451.34 -1.03188 2.48205 0
M  V30 15497 C 1449.61 1.30906 3.32563 0
M  V30 15498 S 1451.17 1.17465 4.22785 0
M  V30 15499 H 1447.99 0.293808 0.647455 0
M  V30 15500 H 1450.59 1.3763 1.38846 0
M  V30 15501 H 1449.3 2.36784 3.35204 0
M  V30 15502 H 1448.83 0.739107 3.86395 0
M  V30 15503 H 1450.84 0.114115 4.96069 0
M  V30 15504 N 1450.02 -1.31994 0.861122 0
M  V30 15505 C 1450.98 -2.27019 0.315421 0
M  V30 15506 C 1451.98 -1.51864 -0.528575 0
M  V30 15507 O 1453.17 -1.70867 -0.339154 0
M  V30 15508 C 1450.3 -3.36384 -0.553021 0
M  V30 15509 H 1451.49 -2.768 1.1542 0
M  V30 15510 H 1449.05 -1.42776 0.635982 0
M  V30 15511 H 1449.78 -2.91882 -1.41335 0
M  V30 15512 H 1449.57 -3.92067 0.0511919 0
M  V30 15513 H 1451.06 -4.07172 -0.927392 0
M  V30 15514 N 1451.49 -0.619688 -1.44906 0
M  V30 15515 C 1452.74 -0.119397 -2.01747 0
M  V30 15516 C 1453.06 1.25904 -1.48907 0
M  V30 15517 O 1452.33 1.83417 -0.688104 0
M  V30 15518 H 1450.91 -0.0411482 -0.745866 0
M  V30 15519 H 1453.58 -0.803813 -1.77552 0
M  V30 15520 H 1452.67 -0.078368 -3.12002 0
M  V30 15521 N 1452.97 1.53444 -0.359552 0
M  V30 15522 C 1454.22 2.01464 0.232366 0
M  V30 15523 C 1454.55 1.24656 1.48911 0
M  V30 15524 O 1453.83 0.338574 1.9153 0
M  V30 15525 C 1454.11 3.56172 0.530403 0
M  V30 15526 C 1453.96 4.43678 -0.739556 0
M  V30 15527 C 1455.28 4.19412 1.33347 0
M  V30 15528 H 1452.4 0.732314 0.0829802 0
M  V30 15529 H 1455.04 1.83752 -0.483253 0
M  V30 15530 H 1453.19 3.71396 1.14004 0
M  V30 15531 H 1454.86 4.40263 -1.37719 0
M  V30 15532 H 1453.11 4.11892 -1.36117 0
M  V30 15533 H 1453.78 5.49856 -0.486062 0
M  V30 15534 H 1456.25 4.07984 0.817816 0
M  V30 15535 H 1455.13 5.277 1.51075 0
M  V30 15536 H 1455.39 3.7508 2.34024 0
M  V30 15537 N 1454.45 0.0885642 1.57351 0
M  V30 15538 C 1455.7 -0.57753 1.94403 0
M  V30 15539 C 1456.03 -1.68238 0.970029 0
M  V30 15540 O 1455.3 -1.945 0.00198684 0
M  V30 15541 C 1455.59 -1.13882 3.41618 0
M  V30 15542 C 1455.44 -0.0394686 4.49783 0
M  V30 15543 C 1456.76 -2.03922 3.90005 0
M  V30 15544 H 1453.88 -0.208468 0.706902 0
M  V30 15545 H 1456.52 0.157945 1.89342 0
M  V30 15546 H 1454.67 -1.76561 3.46061 0
M  V30 15547 H 1456.34 0.594458 4.57454 0
M  V30 15548 H 1454.59 0.627775 4.29234 0
M  V30 15549 H 1455.26 -0.472897 5.49971 0
M  V30 15550 H 1457.73 -1.51156 3.87674 0
M  V30 15551 H 1456.61 -2.40123 4.93591 0
M  V30 15552 H 1456.87 -2.95407 3.28918 0
M  V30 15553 N 1455.93 -1.56509 -0.185096 0
M  V30 15554 C 1457.18 -1.80848 -0.902139 0
M  V30 15555 C 1457.5 -0.663295 -1.83372 0
M  V30 15556 O 1456.77 0.317754 -1.93306 0
M  V30 15557 H 1455.35 -0.667108 -0.336119 0
M  V30 15558 H 1458.01 -1.93989 -0.188211 0
M  V30 15559 H 1457.11 -2.74383 -1.48729 0
M  V30 15560 N 1457.41 0.45317 -1.50944 0
M  V30 15561 C 1458.34 1.55655 -1.74051 0
M  V30 15562 C 1459.32 1.59545 -0.58987 0
M  V30 15563 O 1460.5 1.75526 -0.830922 0
M  V30 15564 C 1457.63 2.93857 -1.85109 0
M  V30 15565 C 1456.59 3.04832 -3.00435 0
M  V30 15566 C 1455.91 4.44858 -2.96657 0
M  V30 15567 C 1457.21 2.80381 -4.40663 0
M  V30 15568 H 1458.91 1.36571 -2.66437 0
M  V30 15569 H 1456.45 0.655572 -1.28212 0
M  V30 15570 H 1458.41 3.70992 -1.99857 0
M  V30 15571 H 1457.13 3.14138 -0.893579 0
M  V30 15572 H 1455.79 2.30134 -2.85366 0
M  V30 15573 H 1455.44 4.62083 -1.98716 0
M  V30 15574 H 1455.14 4.53134 -3.7409 0
M  V30 15575 H 1456.66 5.23989 -3.13478 0
M  V30 15576 H 1458.07 3.47255 -4.56165 0
M  V30 15577 H 1456.47 3.00083 -5.19683 0
M  V30 15578 H 1457.54 1.76099 -4.51793 0
M  V30 15579 N 1458.88 1.40823 0.707568 0
M  V30 15580 C 1459.83 1.41724 1.82162 0
M  V30 15581 C 1460.8 0.273135 1.63839 0
M  V30 15582 O 1461.99 0.472399 1.84859 0
M  V30 15583 C 1459.13 1.29347 3.19943 0
M  V30 15584 C 1458.24 2.53529 3.49782 0
M  V30 15585 C 1457.37 2.33533 4.77112 0
M  V30 15586 C 1456.41 3.53252 4.9988 0
M  V30 15587 N 1455.55 3.32401 6.18429 0
M  V30 15588 H 1460.39 2.36943 1.80726 0
M  V30 15589 H 1457.93 1.17671 0.882723 0
M  V30 15590 H 1459.89 1.20175 3.99517 0
M  V30 15591 H 1458.52 0.377426 3.20586 0
M  V30 15592 H 1457.57 2.73198 2.64702 0
M  V30 15593 H 1458.88 3.42617 3.62512 0
M  V30 15594 H 1458.03 2.2176 5.64719 0
M  V30 15595 H 1456.77 1.41883 4.66605 0
M  V30 15596 H 1455.78 3.65492 4.10725 0
M  V30 15597 H 1457 4.4584 5.12253 0
M  V30 15598 H 1454.95 2.4344 6.09158 0
M  V30 15599 H 1454.87 4.15059 6.31872 0
M  V30 15600 H 1456.13 3.24377 7.08802 0
M  V30 15601 N 1460.36 -0.94061 1.26453 0
M  V30 15602 C 1461.3 -2.03945 1.0238 0
M  V30 15603 C 1462.27 -1.62518 -0.051622 0
M  V30 15604 O 1463.46 -1.88281 0.09091 0
M  V30 15605 C 1460.58 -3.34197 0.550464 0
M  V30 15606 C 1459.63 -3.94596 1.61853 0
M  V30 15607 S 1460.46 -4.28803 3.20762 0
M  V30 15608 C 1461.62 -5.62154 2.75198 0
M  V30 15609 H 1461.85 -2.24051 1.95419 0
M  V30 15610 H 1459.39 -1.08207 1.10139 0
M  V30 15611 H 1461.34 -4.09516 0.284031 0
M  V30 15612 H 1460 -3.12034 -0.359649 0
M  V30 15613 H 1459.2 -4.8855 1.23835 0
M  V30 15614 H 1458.8 -3.25812 1.83637 0
M  V30 15615 H 1461.09 -6.40889 2.19697 0
M  V30 15616 H 1462.03 -6.05057 3.67847 0
M  V30 15617 H 1462.44 -5.22058 2.14745 0
M  V30 15618 N 1461.84 -1.08266 -1.14527 0
M  V30 15619 C 1463.25 -0.832702 -1.67102 0
M  V30 15620 C 1463.6 0.640776 -1.85441 0
M  V30 15621 O 1462.73 1.49505 -1.56452 0
M  V30 15622 C 1463.32 -1.50502 -3.03537 0
M  V30 15623 C 1461.88 -1.30234 -3.53152 0
M  V30 15624 C 1461.03 -1.56873 -2.28661 0
M  V30 15625 H 1463.98 -1.24344 -0.986118 0
M  V30 15626 H 1464 -0.931426 -3.68924 0
M  V30 15627 H 1463.51 -2.57741 -2.90157 0
M  V30 15628 H 1461.61 -0.250582 -3.71756 0
M  V30 15629 H 1461.73 -2.02898 -4.34015 0
M  V30 15630 H 1460.09 -0.990214 -2.34663 0
M  V30 15631 H 1460.87 -2.65316 -2.17859 0
M  V30 15632 N 1463.32 1.31536 -0.86811 0
M  V30 15633 C 1464.74 1.49461 -0.559778 0
M  V30 15634 C 1464.94 1.79957 0.906525 0
M  V30 15635 O 1463.99 1.87711 1.68881 0
M  V30 15636 C 1465.3 2.62967 -1.45839 0
M  V30 15637 C 1466.85 2.76851 -1.46023 0
M  V30 15638 C 1467.33 3.93451 -2.34436 0
M  V30 15639 N 1468.82 4.00735 -2.32306 0
M  V30 15640 C 1469.55 4.90223 -2.97437 0
M  V30 15641 N 1469.05 5.84626 -3.71731 0
M  V30 15642 N 1470.84 4.83454 -2.86755 0
M  V30 15643 H 1462.99 1.1001 -1.81691 0
M  V30 15644 H 1465.26 0.543418 -0.776789 0
M  V30 15645 H 1464.96 2.47203 -2.50168 0
M  V30 15646 H 1464.84 3.59063 -1.15556 0
M  V30 15647 H 1467.22 2.9203 -0.424527 0
M  V30 15648 H 1467.3 1.81427 -1.80327 0
M  V30 15649 H 1466.95 3.79029 -3.38082 0
M  V30 15650 H 1466.88 4.88179 -1.97457 0
M  V30 15651 H 1469.37 3.33191 -1.78303 0
M  V30 15652 H 1469.68 6.49635 -4.18562 0
M  V30 15653 H 1468.03 5.84611 -3.75839 0
M  V30 15654 H 1471.22 4.08678 -2.28254 0
M  V30 15655 H 1471.39 5.52991 -3.37795 0
M  V30 15656 N 1464.8 0.627364 1.44575 0
M  V30 15657 C 1466.03 0.137114 2.06145 0
M  V30 15658 C 1466.44 -1.19201 1.46928 0
M  V30 15659 O 1465.78 -1.7413 0.585199 0
M  V30 15660 C 1465.84 -0.0560229 3.59456 0
M  V30 15661 C 1465.5 1.19435 4.41117 0
M  V30 15662 C 1466.5 2.11717 4.74839 0
M  V30 15663 C 1464.19 1.42871 4.81553 0
M  V30 15664 C 1466.18 3.25749 5.47875 0
M  V30 15665 C 1463.87 2.572 5.54339 0
M  V30 15666 C 1464.87 3.48466 5.87419 0
M  V30 15667 O 1464.55 4.60802 6.58723 0
M  V30 15668 H 1464.29 0.0751614 0.671809 0
M  V30 15669 H 1466.84 0.86076 1.86494 0
M  V30 15670 H 1465.07 -0.834775 3.77582 0
M  V30 15671 H 1466.76 -0.500352 4.02804 0
M  V30 15672 H 1467.52 1.94844 4.44141 0
M  V30 15673 H 1463.4 0.727246 4.55228 0
M  V30 15674 H 1466.95 3.97007 5.73612 0
M  V30 15675 H 1462.84 2.74018 5.84452 0
M  V30 15676 H 1463.61 4.59736 6.77189 0
M  V30 15677 N 1466.28 -1.53251 0.367684 0
M  V30 15678 C 1467.52 -2.03197 -0.221396 0
M  V30 15679 C 1467.88 -1.249 -1.45822 0
M  V30 15680 O 1469.08 -1.64863 -2.12306 0
M  V30 15681 C 1467.35 -3.53827 -0.504134 0
M  V30 15682 S 1468.91 -4.2564 -1.06658 0
M  V30 15683 H 1465.73 -0.708089 -0.0642774 0
M  V30 15684 H 1468.33 -1.88703 0.511037 0
M  V30 15685 H 1467.03 -4.08412 0.403477 0
M  V30 15686 H 1466.57 -3.72487 -1.26558 0
M  V30 15687 H 1468.58 -4.36987 -2.35068 0
M  V30 15688 N 1467.75 -0.0969077 -1.57302 0
M  V30 15689 C 1468.68 0.858443 -2.17147 0
M  V30 15690 C 1469.66 1.29294 -1.10531 0
M  V30 15691 O 1470.85 1.3595 -1.38676 0
M  V30 15692 C 1467.98 2.11691 -2.75326 0
M  V30 15693 C 1466.93 1.82097 -3.8733 0
M  V30 15694 C 1466.26 3.14787 -4.32219 0
M  V30 15695 C 1467.56 1.10651 -5.10444 0
M  V30 15696 H 1469.25 0.35982 -2.9723 0
M  V30 15697 H 1466.8 0.17163 -1.42974 0
M  V30 15698 H 1468.75 2.78963 -3.15844 0
M  V30 15699 H 1467.48 2.63839 -1.925 0
M  V30 15700 H 1466.14 1.17222 -3.47354 0
M  V30 15701 H 1465.78 3.64826 -3.46281 0
M  V30 15702 H 1465.48 2.95769 -5.07735 0
M  V30 15703 H 1467.01 3.83215 -4.75372 0
M  V30 15704 H 1468.42 1.68036 -5.48121 0
M  V30 15705 H 1466.82 1.01805 -5.91401 0
M  V30 15706 H 1467.89 0.0895634 -4.84817 0
M  V30 15707 N 1469.23 1.56605 0.176793 0
M  V30 15708 C 1470.48 1.81682 0.894302 0
M  V30 15709 C 1470.81 0.67311 1.82481 0
M  V30 15710 O 1470.06 -0.339995 1.92724 0
M  V30 15711 C 1470.36 3.12888 1.7273 0
M  V30 15712 C 1470.03 4.40861 0.946186 0
M  V30 15713 C 1468.69 4.75622 0.730586 0
M  V30 15714 C 1471.04 5.19679 0.397889 0
M  V30 15715 C 1468.37 5.86683 -0.0444995 0
M  V30 15716 C 1470.72 6.31551 -0.36408 0
M  V30 15717 C 1469.38 6.64883 -0.59053 0
M  V30 15718 H 1468.65 0.664823 0.327248 0
M  V30 15719 H 1471.3 1.90834 0.159555 0
M  V30 15720 H 1469.61 2.99055 2.53128 0
M  V30 15721 H 1471.3 3.295 2.2854 0
M  V30 15722 H 1467.89 4.13592 1.12426 0
M  V30 15723 H 1472.08 4.93223 0.55181 0
M  V30 15724 H 1467.33 6.10968 -0.229739 0
M  V30 15725 H 1471.51 6.91833 -0.796223 0
M  V30 15726 H 1469.13 7.50781 -1.19301 0
M  V30 15727 N 1470.71 -0.445159 1.51182 0
M  V30 15728 C 1471.96 -1.19288 1.6314 0
M  V30 15729 C 1472.28 -1.91904 0.346109 0
M  V30 15730 O 1471.55 -1.8523 -0.637695 0
M  V30 15731 H 1470.13 -0.443319 0.601229 0
M  V30 15732 H 1472.79 -0.511136 1.88078 0
M  V30 15733 H 1471.89 -1.92672 2.45528 0
M  V30 15734 N 1472.19 -1.41197 -0.700089 0
M  V30 15735 C 1473.46 -1.30803 -1.4543 0
M  V30 15736 C 1473.84 0.0664987 -2.10995 0
M  V30 15737 O 1473.19 1.08043 -2.01343 0
M  V30 15738 C 1473.4 -2.45815 -2.47742 0
M  V30 15739 C 1474.75 -2.86771 -3.13126 0
M  V30 15740 O 1475.77 -2.45521 -2.58065 0
M  V30 15741 O 1474.63 -3.58086 -4.1284 0
M  V30 15742 H 1471.73 -0.514523 -0.647453 0
M  V30 15743 H 1474.27 -1.53151 -0.73095 0
M  V30 15744 H 1473.05 -3.37557 -1.97917 0
M  V30 15745 H 1472.67 -2.25319 -3.27593 0
M  V30 15746 N 1473.67 0.933891 -1.2695 0
M  V30 15747 C 1474.89 1.71512 -1.15721 0
M  V30 15748 C 1475.31 1.8661 0.286712 0
M  V30 15749 O 1474.67 1.3787 1.19574 0
M  V30 15750 C 1474.72 3.11804 -1.82922 0
M  V30 15751 O 1474.44 2.97421 -3.21672 0
M  V30 15752 C 1475.94 4.06108 -1.7774 0
M  V30 15753 H 1473.16 0.53678 -0.402626 0
M  V30 15754 H 1475.7 1.17025 -1.67706 0
M  V30 15755 H 1473.86 3.6317 -1.34856 0
M  V30 15756 H 1474.27 3.86069 -3.55037 0
M  V30 15757 H 1475.75 5.02082 -2.29385 0
M  V30 15758 H 1476.22 4.32828 -0.74543 0
M  V30 15759 H 1476.83 3.60665 -2.25391 0
M  V30 15760 N 1475.14 1.08871 1.13951 0
M  V30 15761 C 1476.39 0.822504 1.85372 0
M  V30 15762 C 1476.72 -0.650183 1.82993 0
M  V30 15763 O 1476 -1.4783 1.26398 0
M  V30 15764 C 1476.28 1.35107 3.33793 0
M  V30 15765 C 1476.13 2.88945 3.44719 0
M  V30 15766 C 1477.45 0.980203 4.29045 0
M  V30 15767 H 1474.57 0.300255 0.673065 0
M  V30 15768 H 1477.21 1.34914 1.33784 0
M  V30 15769 H 1475.36 0.903108 3.77857 0
M  V30 15770 H 1477.04 3.42148 3.09407 0
M  V30 15771 H 1475.28 3.26365 2.85777 0
M  V30 15772 H 1475.95 3.21004 4.49066 0
M  V30 15773 H 1478.43 1.36646 3.93023 0
M  V30 15774 H 1477.3 1.37717 5.31343 0
M  V30 15775 H 1477.56 -0.112253 4.41957 0
M  V30 15776 N 1476.62 -1.31073 0.875073 0
M  V30 15777 C 1477.57 -2.30335 0.3238 0
M  V30 15778 C 1478.56 -1.5974 -0.563869 0
M  V30 15779 O 1479.77 -1.743 -0.449402 0
M  V30 15780 H 1476.14 -0.747062 0.0860376 0
M  V30 15781 H 1478.12 -2.743 1.17483 0
M  V30 15782 C 1476.86 -3.44705 -0.455348 0
M  V30 15783 H 1476.19 -3.99203 0.218433 0
M  V30 15784 H 1477.63 -4.16262 -0.806329 0
M  V30 15785 C 1476.09 -2.93807 -1.6486 0
M  V30 15786 O 1476.62 -2.93004 -2.74794 0
M  V30 15787 N 1474.82 -2.49944 -1.48244 0
M  V30 15788 H 1474.37 -2.50797 -0.588116 0
M  V30 15789 H 1474.33 -2.16245 -2.28222 0
M  V30 15790 N 1478.1 -0.635022 -1.4424 0
M  V30 15791 C 1479.33 -0.14826 -2.06368 0
M  V30 15792 C 1479.74 1.17875 -1.47482 0
M  V30 15793 O 1479.1 1.72384 -0.599168 0
M  V30 15794 C 1479.15 -0.031519 -3.61486 0
M  V30 15795 O 1478.87 -1.30605 -4.18179 0
M  V30 15796 C 1480.37 0.483479 -4.40656 0
M  V30 15797 H 1477.59 -0.081472 -0.666036 0
M  V30 15798 H 1480.14 -0.870526 -1.85046 0
M  V30 15799 H 1478.29 0.641208 -3.82057 0
M  V30 15800 H 1478.71 -1.15341 -5.11661 0
M  V30 15801 H 1480.18 0.514164 -5.496 0
M  V30 15802 H 1480.66 1.51129 -4.12379 0
M  V30 15803 H 1481.26 -0.156131 -4.25013 0
M  V30 15804 N 1479.58 1.53054 -0.375806 0
M  V30 15805 C 1480.54 2.24666 0.453608 0
M  V30 15806 C 1481.54 1.25816 1.00135 0
M  V30 15807 O 1482.73 1.50016 0.885481 0
M  V30 15808 C 1479.86 2.99131 1.63503 0
M  V30 15809 H 1481.06 2.994 -0.173172 0
M  V30 15810 H 1478.61 1.55778 -0.127673 0
M  V30 15811 H 1479.34 2.28666 2.29962 0
M  V30 15812 H 1479.13 3.71671 1.24913 0
M  V30 15813 H 1480.62 3.53542 2.22256 0
M  V30 15814 N 1481.06 0.105248 1.57248 0
M  V30 15815 C 1482.28 -0.567515 1.99484 0
M  V30 15816 C 1482.71 -1.60298 0.984182 0
M  V30 15817 O 1482.06 -1.81242 -0.0459944 0
M  V30 15818 C 1482.11 -1.18271 3.40653 0
M  V30 15819 O 1481.22 -2.29843 3.42412 0
M  V30 15820 H 1480.56 -0.143069 0.648404 0
M  V30 15821 H 1483.09 0.189661 2.03719 0
M  V30 15822 H 1483.1 -1.52157 3.78566 0
M  V30 15823 H 1481.77 -0.424179 4.13731 0
M  V30 15824 H 1480.35 -1.975 3.16304 0
M  V30 15825 N 1482.53 -1.56697 -0.168486 0
M  V30 15826 C 1483.95 -1.50879 -0.52036 0
M  V30 15827 C 1484.15 -0.810001 -1.84503 0
M  V30 15828 O 1483.21 -0.371549 -2.49751 0
M  V30 15829 C 1484.52 -2.95618 -0.550502 0
M  V30 15830 C 1486.07 -3.06439 -0.637508 0
M  V30 15831 C 1486.54 -4.52642 -0.698516 0
M  V30 15832 N 1488.03 -4.569 -0.761328 0
M  V30 15833 C 1488.77 -5.67373 -0.829155 0
M  V30 15834 N 1488.26 -6.87471 -0.857642 0
M  V30 15835 N 1490.06 -5.55352 -0.868392 0
M  V30 15836 H 1482.21 -2.00531 0.700087 0
M  V30 15837 H 1484.47 -0.913683 0.252759 0
M  V30 15838 H 1484.18 -3.49912 0.354222 0
M  V30 15839 H 1484.05 -3.50416 -1.396 0
M  V30 15840 H 1486.44 -2.52178 -1.53266 0
M  V30 15841 H 1486.52 -2.54721 0.234719 0
M  V30 15842 H 1486.16 -5.07535 0.192387 0
M  V30 15843 H 1486.09 -5.0212 -1.58693 0
M  V30 15844 H 1488.58 -3.70434 -0.747482 0
M  V30 15845 H 1488.9 -7.67416 -0.910648 0
M  V30 15846 H 1487.24 -6.90076 -0.825872 0
M  V30 15847 H 1490.43 -4.60444 -0.843158 0
M  V30 15848 H 1490.61 -6.41468 -0.917789 0
M  V30 15849 N 1484.01 0.437135 -1.51416 0
M  V30 15850 C 1484.95 1.55058 -1.67429 0
M  V30 15851 C 1485.92 1.53997 -0.521878 0
M  V30 15852 O 1487.11 1.73121 -0.74574 0
M  V30 15853 C 1484.23 2.93637 -1.68805 0
M  V30 15854 C 1483.28 3.12721 -2.90013 0
M  V30 15855 S 1484.11 2.88998 -4.50822 0
M  V30 15856 C 1485.27 4.29858 -4.54942 0
M  V30 15857 H 1485.5 1.41241 -2.61607 0
M  V30 15858 H 1483.04 0.62684 -1.41103 0
M  V30 15859 H 1484.99 3.73516 -1.70282 0
M  V30 15860 H 1483.65 3.04816 -0.758031 0
M  V30 15861 H 1482.85 4.14041 -2.87377 0
M  V30 15862 H 1482.45 2.40667 -2.86278 0
M  V30 15863 H 1484.74 5.23062 -4.30596 0
M  V30 15864 H 1485.68 4.37528 -5.56754 0
M  V30 15865 H 1486.09 4.13523 -3.84265 0
M  V30 15866 N 1485.49 1.41566 0.692592 0
M  V30 15867 C 1486.4 1.46014 1.83622 0
M  V30 15868 C 1487.42 0.350453 1.70434 0
M  V30 15869 O 1488.59 0.598634 1.92298 0
M  V30 15870 C 1485.66 1.34308 3.19628 0
M  V30 15871 C 1484.72 2.55617 3.44904 0
M  V30 15872 C 1483.95 2.4446 4.74421 0
M  V30 15873 O 1484.17 1.47078 5.51112 0
M  V30 15874 O 1483.11 3.34272 5.00546 0
M  V30 15875 H 1486.93 2.42504 1.82826 0
M  V30 15876 H 1484.52 1.23136 0.846039 0
M  V30 15877 H 1486.4 1.30075 4.00822 0
M  V30 15878 H 1485.08 0.409343 3.21101 0
M  V30 15879 H 1483.98 2.65426 2.63628 0
M  V30 15880 H 1485.32 3.47829 3.48247 0
M  V30 15881 N 1486.97 -0.927146 1.27443 0
M  V30 15882 C 1488.19 -1.71426 1.16739 0
M  V30 15883 C 1488.62 -1.86122 -0.272063 0
M  V30 15884 O 1487.98 -1.36165 -1.19703 0
M  V30 15885 C 1488.02 -3.09131 1.85661 0
M  V30 15886 O 1487.13 -3.95897 1.15495 0
M  V30 15887 H 1486.47 -0.525428 0.405983 0
M  V30 15888 H 1489 -1.16022 1.68523 0
M  V30 15889 H 1489.01 -3.59442 1.93042 0
M  V30 15890 H 1487.68 -2.97752 2.90373 0
M  V30 15891 H 1486.26 -3.54337 1.16187 0
M  V30 15892 N 1488.45 -1.09474 -1.13372 0
M  V30 15893 C 1489.39 -0.729274 -2.20872 0
M  V30 15894 C 1490.39 0.270036 -1.67234 0
M  V30 15895 O 1491.59 0.131445 -1.79519 0
M  V30 15896 H 1487.97 -0.217852 -0.719753 0
M  V30 15897 H 1489.94 -1.64505 -2.48959 0
M  V30 15898 C 1488.69 -0.166518 -3.47301 0
M  V30 15899 H 1488.01 -0.926666 -3.88913 0
M  V30 15900 H 1489.45 0.0512617 -4.23969 0
M  V30 15901 C 1487.91 1.09836 -3.18493 0
M  V30 15902 O 1488.44 2.18152 -3.37302 0
M  V30 15903 N 1486.65 1.01307 -2.7237 0
M  V30 15904 H 1486.19 0.131551 -2.57264 0
M  V30 15905 H 1486.15 1.86011 -2.5347 0
M  V30 15906 N 1489.92 1.30607 -0.882012 0
M  V30 15907 C 1491.17 1.95869 -0.497978 0
M  V30 15908 C 1491.49 1.69991 0.955405 0
M  V30 15909 O 1490.76 1.02188 1.67136 0
M  V30 15910 H 1489.34 0.724699 -0.181165 0
M  V30 15911 H 1492.01 1.59193 -1.12444 0
M  V30 15912 H 1491.1 3.04917 -0.665754 0
M  V30 15913 N 1491.4 0.642663 1.43901 0
M  V30 15914 C 1492.31 -0.0562462 2.34533 0
M  V30 15915 C 1493.33 -0.823457 1.53281 0
M  V30 15916 O 1494.5 -0.773103 1.85971 0
M  V30 15917 C 1491.57 -1.01787 3.31422 0
M  V30 15918 C 1490.63 -0.248759 4.28579 0
M  V30 15919 C 1489.86 -1.16458 5.20839 0
M  V30 15920 O 1490.09 -2.40361 5.17284 0
M  V30 15921 O 1489.02 -0.642671 5.98459 0
M  V30 15922 H 1492.85 0.689476 2.9577 0
M  V30 15923 H 1490.43 0.402847 1.43866 0
M  V30 15924 H 1492.31 -1.5708 3.91029 0
M  V30 15925 H 1490.99 -1.744 2.72702 0
M  V30 15926 H 1489.9 0.347495 3.72483 0
M  V30 15927 H 1491.23 0.437589 4.90251 0
M  V30 15928 N 1492.88 -1.52852 0.383918 0
M  V30 15929 C 1493.84 -2.24904 -0.441687 0
M  V30 15930 C 1494.84 -1.26345 -0.99466 0
M  V30 15931 O 1496.03 -1.50484 -0.877513 0
M  V30 15932 C 1493.17 -2.99994 -1.61915 0
M  V30 15933 H 1494.36 -2.99304 0.189047 0
M  V30 15934 H 1491.91 -1.55708 0.135932 0
M  V30 15935 H 1492.65 -2.29882 -2.28746 0
M  V30 15936 H 1492.43 -3.72328 -1.2294 0
M  V30 15937 H 1493.92 -3.54716 -2.20378 0
M  V30 15938 N 1494.36 -0.113586 -1.5719 0
M  V30 15939 C 1495.29 0.835363 -2.18046 0
M  V30 15940 C 1496.27 1.28114 -1.11897 0
M  V30 15941 O 1497.46 1.34472 -1.40111 0
M  V30 15942 C 1494.59 2.08759 -2.77556 0
M  V30 15943 C 1493.54 1.77979 -3.8924 0
M  V30 15944 C 1492.87 3.10185 -4.35533 0
M  V30 15945 C 1494.17 1.05231 -5.11589 0
M  V30 15946 H 1495.86 0.328275 -2.97595 0
M  V30 15947 H 1493.41 0.156456 -1.43148 0
M  V30 15948 H 1495.36 2.75597 -3.18785 0
M  V30 15949 H 1494.08 2.61783 -1.95288 0
M  V30 15950 H 1492.74 1.13532 -3.48577 0
M  V30 15951 H 1492.39 3.61133 -3.50131 0
M  V30 15952 H 1492.09 2.90367 -5.10843 0
M  V30 15953 H 1493.61 3.78151 -4.7941 0
M  V30 15954 H 1495.03 1.62213 -5.49872 0
M  V30 15955 H 1493.42 0.955269 -5.92448 0
M  V30 15956 H 1494.49 0.038137 -4.84885 0
M  V30 15957 N 1495.84 1.56784 0.160173 0
M  V30 15958 C 1496.78 1.97267 1.1981 0
M  V30 15959 C 1497.75 0.83824 1.43397 0
M  V30 15960 O 1498.94 1.09926 1.55952 0
M  V30 15961 C 1496.08 2.34725 2.52979 0
M  V30 15962 C 1495.19 3.61397 2.36677 0
M  V30 15963 C 1494.33 3.88018 3.62789 0
M  V30 15964 C 1493.37 5.08002 3.41468 0
M  V30 15965 N 1492.5 5.30699 4.59677 0
M  V30 15966 H 1497.34 2.85743 0.845878 0
M  V30 15967 H 1494.88 1.41379 0.406249 0
M  V30 15968 H 1496.84 2.54468 3.30608 0
M  V30 15969 H 1495.47 1.49345 2.86175 0
M  V30 15970 H 1494.52 3.49505 1.50167 0
M  V30 15971 H 1495.83 4.49185 2.16875 0
M  V30 15972 H 1494.99 4.08188 4.48851 0
M  V30 15973 H 1493.73 2.98627 3.85582 0
M  V30 15974 H 1492.73 4.87718 2.53793 0
M  V30 15975 H 1493.96 5.98934 3.20086 0
M  V30 15976 H 1491.9 4.44261 4.82668 0
M  V30 15977 H 1491.82 6.1273 4.42829 0
M  V30 15978 H 1493.09 5.55357 5.46991 0
M  V30 15979 N 1497.32 -0.429099 1.51646 0
M  V30 15980 C 1498.56 -1.17482 1.63954 0
M  V30 15981 C 1498.88 -1.92152 0.36565 0
M  V30 15982 O 1500.08 -2.68991 0.368221 0
M  V30 15983 C 1498.54 -2.13703 2.89585 0
M  V30 15984 C 1498.15 -1.44642 4.24008 0
M  V30 15985 C 1499.89 -2.88657 3.11252 0
M  V30 15986 C 1497.8 -2.39395 5.40781 0
M  V30 15987 H 1496.73 -0.442234 0.610692 0
M  V30 15988 H 1499.38 -0.441088 1.7812 0
M  V30 15989 H 1497.76 -2.90545 2.69071 0
M  V30 15990 H 1498.94 -0.733012 4.54932 0
M  V30 15991 H 1497.25 -0.818084 4.08285 0
M  V30 15992 H 1499.85 -3.59653 3.95669 0
M  V30 15993 H 1500.19 -3.50473 2.24664 0
M  V30 15994 H 1500.72 -2.18919 3.32144 0
M  V30 15995 H 1497.46 -1.82255 6.29653 0
M  V30 15996 H 1496.98 -3.08766 5.14222 0
M  V30 15997 H 1498.66 -3.0035 5.73061 0
M  V30 15998 N 1498.79 -1.41931 -0.685074 0
M  V30 15999 C 1499.74 -1.41066 -1.79121 0
M  V30 16000 C 1500.73 -0.283467 -1.58383 0
M  V30 16001 O 1501.92 -0.524931 -1.69037 0
M  V30 16002 C 1499.05 -1.30551 -3.17508 0
M  V30 16003 C 1498.13 -2.48174 -3.43905 0
M  V30 16004 N 1498.53 -3.73621 -3.40941 0
M  V30 16005 C 1496.82 -2.42213 -3.74498 0
M  V30 16006 C 1497.52 -4.51693 -3.66536 0
M  V30 16007 N 1496.5 -3.81955 -3.86796 0
M  V30 16008 H 1500.3 -2.35965 -1.75208 0
M  V30 16009 H 1497.82 -1.36135 -0.885498 0
M  V30 16010 H 1499.81 -1.28013 -3.9676 0
M  V30 16011 H 1498.47 -0.366454 -3.22625 0
M  V30 16012 H 1499.48 -4.0636 -3.21079 0
M  V30 16013 H 1496.16 -1.56835 -3.86923 0
M  V30 16014 H 1497.55 -5.60654 -3.70292 0
M  V30 16015 N 1500.27 0.920374 -1.27933 0
M  V30 16016 C 1501.2 2.03882 -1.13817 0
M  V30 16017 C 1502.18 1.70058 -0.0376853 0
M  V30 16018 O 1503.37 1.93023 -0.213492 0
M  V30 16019 C 1500.5 3.38142 -0.792296 0
M  V30 16020 C 1499.45 3.86104 -1.84683 0
M  V30 16021 C 1498.78 5.17253 -1.35474 0
M  V30 16022 C 1500.08 4.0869 -3.25223 0
M  V30 16023 H 1501.77 2.15949 -2.07379 0
M  V30 16024 H 1499.32 1.03764 -0.998454 0
M  V30 16025 H 1501.27 4.15872 -0.680337 0
M  V30 16026 H 1499.99 3.26109 0.179029 0
M  V30 16027 H 1498.65 3.10573 -1.94782 0
M  V30 16028 H 1498.3 5.01618 -0.372666 0
M  V30 16029 H 1498 5.50314 -2.05982 0
M  V30 16030 H 1499.53 5.97545 -1.25587 0
M  V30 16031 H 1500.94 4.76965 -3.18083 0
M  V30 16032 H 1499.34 4.5307 -3.93507 0
M  V30 16033 H 1500.41 3.13729 -3.69733 0
M  V30 16034 N 1501.75 1.10074 1.1279 0
M  V30 16035 C 1502.97 0.863106 1.88587 0
M  V30 16036 C 1503.4 -0.580595 1.78915 0
M  V30 16037 O 1502.76 -1.40859 1.14142 0
M  V30 16038 C 1502.81 1.31142 3.35908 0
M  V30 16039 O 1501.91 0.474088 4.09666 0
M  V30 16040 H 1501.25 0.312034 0.586115 0
M  V30 16041 H 1503.78 1.46659 1.42662 0
M  V30 16042 H 1503.79 1.29974 3.86744 0
M  V30 16043 H 1502.47 2.36279 3.42265 0
M  V30 16044 H 1501.04 0.550665 3.68812 0
M  V30 16045 N 1503.23 -1.30138 0.888926 0
M  V30 16046 C 1504.45 -2.00679 0.523697 0
M  V30 16047 C 1504.88 -1.66167 -0.881479 0
M  V30 16048 O 1504.24 -0.880418 -1.58488 0
M  V30 16049 C 1504.28 -3.53535 0.710284 0
M  V30 16050 O 1503.39 -4.11689 -0.242066 0
M  V30 16051 H 1502.73 -0.631273 0.205888 0
M  V30 16052 H 1505.26 -1.65891 1.19756 0
M  V30 16053 H 1505.27 -4.03402 0.610794 0
M  V30 16054 H 1503.94 -3.77992 1.73478 0
M  V30 16055 H 1502.52 -3.72777 -0.0959393 0
M  V30 16056 N 1504.71 -0.650285 -1.43559 0
M  V30 16057 C 1505.62 0.0438076 -2.34559 0
M  V30 16058 C 1506.63 0.815316 -1.53716 0
M  V30 16059 O 1507.81 0.76323 -1.86378 0
M  V30 16060 C 1504.87 1.00028 -3.31957 0
M  V30 16061 C 1503.93 0.226027 -4.28705 0
M  V30 16062 C 1503.17 1.13694 -5.21449 0
M  V30 16063 O 1503.39 2.37614 -5.18551 0
M  V30 16064 O 1502.32 0.610924 -5.98792 0
M  V30 16065 H 1506.15 -0.705152 -2.954 0
M  V30 16066 H 1503.73 -0.410471 -1.43651 0
M  V30 16067 H 1505.62 1.55004 -3.91857 0
M  V30 16068 H 1504.29 1.72952 -2.73623 0
M  V30 16069 H 1503.2 -0.367244 -3.72293 0
M  V30 16070 H 1504.53 -0.463582 -4.90012 0
M  V30 16071 N 1506.18 1.52647 -0.392018 0
M  V30 16072 C 1507.41 2.06032 0.189293 0
M  V30 16073 C 1507.83 1.26351 1.40288 0
M  V30 16074 O 1507.18 0.310877 1.79833 0
M  V30 16075 C 1507.23 3.57187 0.55672 0
M  V30 16076 O 1506.96 4.33851 -0.608657 0
M  V30 16077 C 1508.46 4.26929 1.1936 0
M  V30 16078 H 1505.68 0.670419 0.0279177 0
M  V30 16079 H 1508.22 1.96739 -0.558033 0
M  V30 16080 H 1506.38 3.66545 1.25394 0
M  V30 16081 H 1506.79 5.23606 -0.306039 0
M  V30 16082 H 1508.26 5.33924 1.40104 0
M  V30 16083 H 1508.74 3.82315 2.16175 0
M  V30 16084 H 1509.35 4.21895 0.537069 0
M  V30 16085 N 1507.66 0.121921 1.57128 0
M  V30 16086 C 1508.61 -0.827205 2.15467 0
M  V30 16087 C 1509.58 -1.26155 1.08047 0
M  V30 16088 O 1510.76 -1.33855 1.35969 0
M  V30 16089 C 1507.9 -2.07077 2.76067 0
M  V30 16090 C 1507.02 -1.68452 3.97804 0
M  V30 16091 C 1506.15 -2.87797 4.46482 0
M  V30 16092 C 1505.19 -2.45426 5.60743 0
M  V30 16093 N 1504.33 -3.57695 6.04151 0
M  V30 16094 H 1509.17 -0.322879 2.96246 0
M  V30 16095 H 1506.71 -0.147677 1.46357 0
M  V30 16096 H 1508.66 -2.79943 3.09335 0
M  V30 16097 H 1507.29 -2.54963 1.97974 0
M  V30 16098 H 1506.35 -0.854487 3.70679 0
M  V30 16099 H 1507.66 -1.33316 4.80654 0
M  V30 16100 H 1506.81 -3.68885 4.81673 0
M  V30 16101 H 1505.55 -3.26162 3.62587 0
M  V30 16102 H 1504.56 -1.62772 5.25153 0
M  V30 16103 H 1505.78 -2.08175 6.46405 0
M  V30 16104 H 1503.73 -3.95728 5.23197 0
M  V30 16105 H 1503.64 -3.26491 6.81865 0
M  V30 16106 H 1504.91 -4.39213 6.43981 0
M  V30 16107 N 1509.14 -1.56867 -0.151857 0
M  V30 16108 C 1510.1 -1.96997 -1.17152 0
M  V30 16109 C 1511.1 -0.855905 -1.36128 0
M  V30 16110 O 1512.29 -1.12261 -1.33203 0
M  V30 16111 C 1509.43 -2.28171 -2.5328 0
M  V30 16112 H 1510.62 -2.88261 -0.827365 0
M  V30 16113 H 1508.17 -1.51226 -0.395024 0
M  V30 16114 H 1508.91 -1.39683 -2.92676 0
M  V30 16115 H 1508.69 -3.09394 -2.40869 0
M  V30 16116 H 1510.18 -2.60073 -3.26729 0
M  V30 16117 N 1510.62 0.421051 -1.51871 0
M  V30 16118 C 1511.86 1.17082 -1.65589 0
M  V30 16119 C 1512.2 1.90469 -0.378861 0
M  V30 16120 O 1511.47 1.84277 0.622259 0
M  V30 16121 C 1511.76 2.17483 -2.87007 0
M  V30 16122 C 1511.61 1.48071 -4.24729 0
M  V30 16123 C 1512.93 3.18288 -3.03942 0
M  V30 16124 H 1510.05 0.424284 -0.602621 0
M  V30 16125 H 1512.69 0.457998 -1.84397 0
M  V30 16126 H 1510.84 2.78273 -2.71102 0
M  V30 16127 H 1512.51 0.904926 -4.52337 0
M  V30 16128 H 1510.75 0.782814 -4.26678 0
M  V30 16129 H 1511.42 2.21272 -5.0571 0
M  V30 16130 H 1513.9 2.67565 -3.18666 0
M  V30 16131 H 1512.78 3.85815 -3.90433 0
M  V30 16132 H 1513.04 3.85333 -2.16728 0
M  V30 16133 N 1512.1 1.42293 0.677538 0
M  V30 16134 C 1513.03 1.48344 1.80323 0
M  V30 16135 C 1514.01 0.340276 1.66662 0
M  V30 16136 O 1515.19 0.554209 1.86124 0
M  V30 16137 C 1512.32 1.38247 3.18599 0
M  V30 16138 C 1511.28 2.50562 3.46991 0
M  V30 16139 C 1510.6 2.25524 4.84812 0
M  V30 16140 C 1511.9 3.92877 3.44158 0
M  V30 16141 H 1513.6 2.42558 1.75516 0
M  V30 16142 H 1511.14 1.16746 0.842999 0
M  V30 16143 H 1513.1 1.41089 3.97079 0
M  V30 16144 H 1511.82 0.405255 3.24076 0
M  V30 16145 H 1510.48 2.47032 2.7087 0
M  V30 16146 H 1510.13 1.26102 4.86937 0
M  V30 16147 H 1509.83 3.00797 5.04772 0
M  V30 16148 H 1511.35 2.3011 5.65581 0
M  V30 16149 H 1512.76 3.98024 4.12613 0
M  V30 16150 H 1511.16 4.6798 3.75653 0
M  V30 16151 H 1512.23 4.19743 2.42783 0
M  V30 16152 N 1513.57 -0.913576 1.28419 0
M  V30 16153 C 1514.48 -2.04922 1.14211 0
M  V30 16154 C 1515.5 -1.73865 0.0686424 0
M  V30 16155 O 1516.68 -1.99473 0.277968 0
M  V30 16156 C 1513.74 -3.37214 0.805445 0
M  V30 16157 C 1512.8 -3.81879 1.96129 0
M  V30 16158 C 1512.04 -5.07858 1.6406 0
M  V30 16159 O 1512.26 -5.67693 0.555032 0
M  V30 16160 O 1511.19 -5.4824 2.48428 0
M  V30 16161 H 1515.02 -2.19827 2.09547 0
M  V30 16162 H 1512.6 -1.03501 1.0774 0
M  V30 16163 H 1514.49 -4.16639 0.631648 0
M  V30 16164 H 1513.16 -3.23484 -0.118254 0
M  V30 16165 H 1512.07 -3.03281 2.19024 0
M  V30 16166 H 1513.4 -4.00173 2.8657 0
M  V30 16167 N 1515.05 -1.1067 -1.12204 0
M  V30 16168 C 1515.96 -0.770221 -2.21596 0
M  V30 16169 C 1516.98 0.233297 -1.72429 0
M  V30 16170 O 1518.15 0.0714493 -2.01273 0
M  V30 16171 C 1515.22 -0.209682 -3.46065 0
M  V30 16172 C 1514.28 -1.27079 -4.1006 0
M  V30 16173 C 1513.51 -0.736899 -5.28588 0
M  V30 16174 O 1513.74 0.435838 -5.68732 0
M  V30 16175 O 1512.67 -1.49797 -5.82962 0
M  V30 16176 H 1516.5 -1.6834 -2.52776 0
M  V30 16177 H 1514.08 -0.882012 -1.20586 0
M  V30 16178 H 1515.96 0.0989516 -4.21284 0
M  V30 16179 H 1514.64 0.676316 -3.16556 0
M  V30 16180 H 1513.55 -1.63231 -3.3661 0
M  V30 16181 H 1514.88 -2.12989 -4.4373 0
M  V30 16182 N 1516.53 1.29665 -0.895815 0
M  V30 16183 C 1517.78 1.95716 -0.519752 0
M  V30 16184 C 1518.11 1.7065 0.933212 0
M  V30 16185 O 1517.36 1.01014 1.67615 0
M  V30 16186 C 1517.66 3.49355 -0.754025 0
M  V30 16187 C 1517.33 3.94491 -2.18375 0
M  V30 16188 C 1515.99 4.06526 -2.57468 0
M  V30 16189 C 1518.34 4.17874 -3.11498 0
M  V30 16190 C 1515.67 4.39311 -3.88874 0
M  V30 16191 C 1518.02 4.52132 -4.42447 0
M  V30 16192 C 1516.68 4.62376 -4.81419 0
M  V30 16193 H 1515.95 0.716176 -0.190191 0
M  V30 16194 H 1518.6 1.54333 -1.13373 0
M  V30 16195 H 1516.91 3.91758 -0.0570932 0
M  V30 16196 H 1518.6 3.98551 -0.442493 0
M  V30 16197 H 1515.19 3.85638 -1.87033 0
M  V30 16198 H 1519.38 4.08046 -2.8251 0
M  V30 16199 H 1514.63 4.45444 -4.18795 0
M  V30 16200 H 1518.81 4.69175 -5.14634 0
M  V30 16201 H 1516.43 4.87535 -5.83278 0
M  V30 16202 N 1518.01 0.657889 1.43212 0
M  V30 16203 C 1519.26 0.172845 2.0136 0
M  V30 16204 C 1519.58 -1.21911 1.52193 0
M  V30 16205 O 1518.85 -1.81529 0.736492 0
M  V30 16206 H 1517.43 0.0609091 0.744513 0
M  V30 16207 H 1520.09 0.850605 1.75359 0
M  V30 16208 H 1519.19 0.161062 3.11684 0
M  V30 16209 N 1519.49 -1.52437 0.400108 0
M  V30 16210 C 1520.73 -2.01312 -0.178252 0
M  V30 16211 C 1521.06 -1.28797 -1.46411 0
M  V30 16212 O 1520.33 -0.411211 -1.91536 0
M  V30 16213 H 1518.91 -0.743819 -0.0688613 0
M  V30 16214 H 1521.57 -1.87434 0.53428 0
M  V30 16215 H 1520.66 -3.09768 -0.380793 0
M  V30 16216 N 1520.96 -0.130252 -1.57061 0
M  V30 16217 C 1522.21 0.525006 -1.95576 0
M  V30 16218 C 1522.54 1.65964 -1.0142 0
M  V30 16219 O 1521.79 1.95659 -0.0401898 0
M  V30 16220 C 1522.09 1.08776 -3.40445 0
M  V30 16221 C 1521.76 0.0733062 -4.5084 0
M  V30 16222 C 1520.42 -0.20561 -4.80761 0
M  V30 16223 C 1522.77 -0.617428 -5.1753 0
M  V30 16224 C 1520.1 -1.18135 -5.74683 0
M  V30 16225 C 1522.45 -1.58188 -6.12503 0
M  V30 16226 C 1521.12 -1.86866 -6.4081 0
M  V30 16227 H 1520.39 0.192113 -0.715663 0
M  V30 16228 H 1523.03 -0.21354 -1.90306 0
M  V30 16229 H 1521.34 1.9033 -3.42464 0
M  V30 16230 H 1523.04 1.60305 -3.67564 0
M  V30 16231 H 1519.63 0.30088 -4.27543 0
M  V30 16232 H 1523.81 -0.415124 -4.94561 0
M  V30 16233 H 1519.07 -1.41017 -5.94915 0
M  V30 16234 H 1523.24 -2.12271 -6.6326 0
M  V30 16235 H 1520.87 -2.62628 -7.13394 0
M  V30 16236 N 1522.44 1.56945 0.143535 0
M  V30 16237 C 1523.35 2.01795 1.1965 0
M  V30 16238 C 1524.37 0.933965 1.4681 0
M  V30 16239 O 1525.55 1.2437 1.58411 0
M  V30 16240 C 1522.61 2.39249 2.5092 0
M  V30 16241 C 1521.67 3.61613 2.31376 0
M  V30 16242 C 1520.9 3.97271 3.56386 0
M  V30 16243 O 1521.13 3.33552 4.62709 0
M  V30 16244 O 1520.06 4.90501 3.48844 0
M  V30 16245 H 1523.89 2.91687 0.845718 0
M  V30 16246 H 1521.47 1.45182 0.352518 0
M  V30 16247 H 1523.35 2.64184 3.28306 0
M  V30 16248 H 1522.03 1.52511 2.85521 0
M  V30 16249 H 1520.94 3.4186 1.51929 0
M  V30 16250 H 1522.27 4.48979 2.01689 0
M  V30 16251 N 1523.92 -0.412991 1.52093 0
M  V30 16252 C 1524.85 -1.50986 1.78117 0
M  V30 16253 C 1525.83 -1.57925 0.631963 0
M  V30 16254 O 1527.02 -1.73261 0.877168 0
M  V30 16255 C 1524.15 -2.88846 1.92835 0
M  V30 16256 C 1523.1 -2.96759 3.08412 0
M  V30 16257 C 1522.43 -4.36837 3.08347 0
M  V30 16258 C 1523.73 -2.68599 4.47942 0
M  V30 16259 H 1525.42 -1.29459 2.69964 0
M  V30 16260 H 1522.97 -0.621348 1.29905 0
M  V30 16261 H 1524.92 -3.65563 2.09623 0
M  V30 16262 H 1523.64 -3.11658 0.976553 0
M  V30 16263 H 1522.3 -2.22487 2.91368 0
M  V30 16264 H 1521.95 -4.56652 2.10897 0
M  V30 16265 H 1521.65 -4.43056 3.85973 0
M  V30 16266 H 1523.18 -5.15493 3.2726 0
M  V30 16267 H 1524.59 -3.35039 4.65212 0
M  V30 16268 H 1522.99 -2.86199 5.27456 0
M  V30 16269 H 1524.06 -1.64058 4.56304 0
M  V30 16270 N 1525.4 -1.4265 -0.669982 0
M  V30 16271 C 1526.31 -1.48916 -1.81276 0
M  V30 16272 C 1527.33 -0.377523 -1.69855 0
M  V30 16273 O 1528.5 -0.629151 -1.91321 0
M  V30 16274 C 1525.57 -1.39376 -3.17451 0
M  V30 16275 C 1524.63 -2.61072 -3.40793 0
M  V30 16276 C 1523.86 -2.51976 -4.70472 0
M  V30 16277 O 1524.08 -1.55827 -5.48702 0
M  V30 16278 O 1523.02 -3.42193 -4.95164 0
M  V30 16279 H 1526.84 -2.45382 -1.78945 0
M  V30 16280 H 1524.43 -1.24467 -0.826342 0
M  V30 16281 H 1526.31 -1.36435 -3.98702 0
M  V30 16282 H 1524.99 -0.460376 -3.20409 0
M  V30 16283 H 1523.89 -2.69587 -2.59372 0
M  V30 16284 H 1525.23 -3.53325 -3.42669 0
M  V30 16285 N 1526.88 0.906753 -1.28902 0
M  V30 16286 C 1527.81 2.02663 -1.15974 0
M  V30 16287 C 1528.79 1.70009 -0.0557202 0
M  V30 16288 O 1529.97 1.92786 -0.233952 0
M  V30 16289 C 1527.1 3.37283 -0.828115 0
M  V30 16290 C 1526.06 3.84123 -1.88767 0
M  V30 16291 C 1525.38 5.15787 -1.40953 0
M  V30 16292 C 1526.68 4.05217 -3.2954 0
M  V30 16293 H 1528.38 2.13738 -2.09658 0
M  V30 16294 H 1525.92 1.02699 -1.0094 0
M  V30 16295 H 1527.88 4.15127 -0.724408 0
M  V30 16296 H 1526.6 3.2628 0.14443 0
M  V30 16297 H 1525.26 3.0849 -1.98065 0
M  V30 16298 H 1524.91 5.01194 -0.425848 0
M  V30 16299 H 1524.61 5.48098 -2.11807 0
M  V30 16300 H 1526.13 5.9618 -1.31918 0
M  V30 16301 H 1527.55 4.73565 -3.23124 0
M  V30 16302 H 1525.94 4.48871 -3.9829 0
M  V30 16303 H 1527.01 3.0979 -3.73039 0
M  V30 16304 N 1528.36 1.11264 1.11616 0
M  V30 16305 C 1529.77 0.846176 1.35322 0
M  V30 16306 C 1529.97 -0.530043 1.94404 0
M  V30 16307 O 1529.03 -1.28122 2.1758 0
M  V30 16308 C 1530.34 1.9528 2.28662 0
M  V30 16309 C 1531.89 1.98225 2.42231 0
M  V30 16310 C 1532.36 3.08086 3.38891 0
M  V30 16311 N 1533.85 3.07448 3.46453 0
M  V30 16312 C 1534.59 3.89094 4.21181 0
M  V30 16313 N 1534.09 4.80698 4.989 0
M  V30 16314 N 1535.88 3.77279 4.16674 0
M  V30 16315 H 1528.03 1.99958 0.716284 0
M  V30 16316 H 1530.29 0.869439 0.377862 0
M  V30 16317 H 1530 2.94381 1.92439 0
M  V30 16318 H 1529.87 1.84739 3.28864 0
M  V30 16319 H 1532.26 0.997517 2.77729 0
M  V30 16320 H 1532.34 2.12842 1.41887 0
M  V30 16321 H 1531.98 4.06784 3.0412 0
M  V30 16322 H 1531.91 2.90709 4.39085 0
M  V30 16323 H 1534.41 2.41077 2.91016 0
M  V30 16324 H 1534.72 5.39535 5.53282 0
M  V30 16325 H 1533.06 4.84721 4.98067 0
M  V30 16326 H 1536.25 3.05059 3.55044 0
M  V30 16327 H 1536.43 4.41142 4.74655 0
M  V30 16328 N 1529.83 -1.29188 0.902679 0
M  V30 16329 C 1531.08 -1.95052 0.529076 0
M  V30 16330 C 1531.4 -1.7149 -0.92824 0
M  V30 16331 O 1530.67 -1.04834 -1.65489 0
M  V30 16332 H 1529.25 -0.721725 0.192671 0
M  V30 16333 H 1531.91 -1.57384 1.14962 0
M  V30 16334 H 1531.01 -3.03819 0.714179 0
M  V30 16335 N 1531.31 -0.665475 -1.42861 0
M  V30 16336 C 1532.59 -0.113252 -1.95272 0
M  V30 16337 C 1532.97 1.36972 -1.6063 0
M  V30 16338 O 1532.32 2.10129 -0.897662 0
M  V30 16339 C 1532.53 -0.372482 -3.47007 0
M  V30 16340 C 1533.87 -0.283982 -4.23649 0
M  V30 16341 O 1534.9 -0.305714 -3.54886 0
M  V30 16342 O 1533.76 -0.218171 -5.46064 0
M  V30 16343 H 1530.85 0.00253712 -0.826996 0
M  V30 16344 H 1533.4 -0.739561 -1.52737 0
M  V30 16345 H 1532.17 -1.40015 -3.65392 0
M  V30 16346 H 1531.79 0.286294 -3.96568 0
M  V30 16347 N 1532.79 1.52222 -0.408187 0
M  V30 16348 C 1534.04 2.02102 0.168154 0
M  V30 16349 C 1534.37 1.2933 1.4487 0
M  V30 16350 O 1533.64 0.399336 1.90356 0
M  V30 16351 C 1533.93 3.57679 0.416821 0
M  V30 16352 C 1533.78 4.41101 -0.880335 0
M  V30 16353 C 1535.1 4.23442 1.19936 0
M  V30 16354 H 1532.22 0.734583 0.0596402 0
M  V30 16355 H 1534.86 1.82121 -0.541467 0
M  V30 16356 H 1533.01 3.74835 1.02131 0
M  V30 16357 H 1534.68 4.35658 -1.51656 0
M  V30 16358 H 1532.92 4.07353 -1.49152 0
M  V30 16359 H 1533.6 5.48031 -0.660748 0
M  V30 16360 H 1536.07 4.10379 0.687605 0
M  V30 16361 H 1534.95 5.32239 1.3421 0
M  V30 16362 H 1535.21 3.82335 2.21973 0
M  V30 16363 N 1534.27 0.138579 1.5699 0
M  V30 16364 C 1535.18 -0.817548 2.19894 0
M  V30 16365 C 1536.19 -1.27806 1.18075 0
M  V30 16366 O 1537.37 -1.33699 1.5062 0
M  V30 16367 C 1534.43 -2.04244 2.80152 0
M  V30 16368 C 1533.5 -1.63197 3.97071 0
M  V30 16369 C 1532.73 -2.79847 4.54446 0
M  V30 16370 O 1532.95 -3.95827 4.10703 0
M  V30 16371 O 1531.89 -2.55804 5.44838 0
M  V30 16372 H 1535.71 -0.312123 3.02092 0
M  V30 16373 H 1533.3 -0.0880281 1.4914 0
M  V30 16374 H 1535.18 -2.75945 3.18485 0
M  V30 16375 H 1533.85 -2.53755 2.00973 0
M  V30 16376 H 1532.76 -0.885448 3.6347 0
M  V30 16377 H 1534.09 -1.1841 4.77745 0
M  V30 16378 N 1535.75 -1.57019 -0.13521 0
M  V30 16379 C 1536.68 -1.94319 -1.19646 0
M  V30 16380 C 1537.66 -0.810603 -1.40954 0
M  V30 16381 O 1538.84 -1.0673 -1.55374 0
M  V30 16382 C 1535.97 -2.22542 -2.55328 0
M  V30 16383 C 1535.01 -3.45151 -2.50546 0
M  V30 16384 S 1535.85 -4.98307 -1.96089 0
M  V30 16385 C 1537 -5.29665 -3.33476 0
M  V30 16386 H 1537.24 -2.8403 -0.878294 0
M  V30 16387 H 1534.77 -1.5058 -0.341313 0
M  V30 16388 H 1536.73 -2.39482 -3.33405 0
M  V30 16389 H 1535.39 -1.33474 -2.8433 0
M  V30 16390 H 1534.58 -3.62213 -3.50454 0
M  V30 16391 H 1534.18 -3.27514 -1.80583 0
M  V30 16392 H 1536.47 -5.23854 -4.29631 0
M  V30 16393 H 1537.42 -6.31031 -3.21256 0
M  V30 16394 H 1537.83 -4.57161 -3.31156 0
M  V30 16395 N 1537.22 0.404919 -1.52309 0
M  V30 16396 C 1538.17 1.49363 -1.75953 0
M  V30 16397 C 1539.14 1.54802 -0.60212 0
M  V30 16398 O 1540.33 1.71308 -0.840128 0
M  V30 16399 C 1537.47 2.86767 -1.91987 0
M  V30 16400 C 1536.58 2.90603 -3.19646 0
M  V30 16401 C 1535.71 4.19333 -3.26088 0
M  V30 16402 C 1534.75 4.17161 -4.47932 0
M  V30 16403 N 1533.89 5.37469 -4.51743 0
M  V30 16404 H 1538.73 1.28503 -2.6887 0
M  V30 16405 H 1536.27 0.623684 -1.33224 0
M  V30 16406 H 1538.23 3.66536 -1.99267 0
M  V30 16407 H 1536.86 3.06112 -1.02447 0
M  V30 16408 H 1535.91 2.033 -3.21517 0
M  V30 16409 H 1537.22 2.84864 -4.09456 0
M  V30 16410 H 1536.37 5.07497 -3.32463 0
M  V30 16411 H 1535.11 4.27774 -2.34224 0
M  V30 16412 H 1534.12 3.27386 -4.417 0
M  V30 16413 H 1535.34 4.10356 -5.41096 0
M  V30 16414 H 1533.29 5.46569 -3.62764 0
M  V30 16415 H 1533.21 5.3374 -5.35404 0
M  V30 16416 H 1534.47 6.27575 -4.62353 0
M  V30 16417 N 1538.7 1.43003 0.662408 0
M  V30 16418 C 1539.95 1.43848 1.41958 0
M  V30 16419 C 1540.27 0.06046 1.94906 0
M  V30 16420 O 1539.54 -0.90287 1.73854 0
M  V30 16421 H 1538.12 0.529587 0.526827 0
M  V30 16422 H 1540.78 1.7853 0.781867 0
M  V30 16423 H 1539.88 2.14562 2.26649 0
M  V30 16424 N 1540.18 -0.899904 1.29381 0
M  V30 16425 C 1541.13 -2.004 1.14493 0
M  V30 16426 C 1542.1 -1.66056 0.0383099 0
M  V30 16427 O 1543.28 -1.89687 0.20579 0
M  V30 16428 C 1540.42 -3.35039 0.827237 0
M  V30 16429 C 1539.54 -3.82166 2.01427 0
M  V30 16430 C 1538.67 -5.0538 1.63598 0
M  V30 16431 C 1537.71 -5.44876 2.78884 0
M  V30 16432 N 1536.85 -6.59276 2.41452 0
M  V30 16433 H 1541.69 -2.12466 2.08955 0
M  V30 16434 H 1539.22 -1.0405 1.03981 0
M  V30 16435 H 1541.18 -4.12511 0.62373 0
M  V30 16436 H 1539.81 -3.227 -0.0804772 0
M  V30 16437 H 1538.86 -3.00731 2.32949 0
M  V30 16438 H 1540.18 -4.07387 2.87814 0
M  V30 16439 H 1539.33 -5.90436 1.39534 0
M  V30 16440 H 1538.07 -4.81998 0.743593 0
M  V30 16441 H 1537.07 -4.58355 3.0363 0
M  V30 16442 H 1538.3 -5.7024 3.68786 0
M  V30 16443 H 1536.24 -6.37498 1.54701 0
M  V30 16444 H 1536.16 -6.84293 3.21372 0
M  V30 16445 H 1537.43 -7.47602 2.20708 0
M  V30 16446 N 1541.66 -1.11854 -1.11024 0
M  V30 16447 C 1542.91 -0.868355 -1.82494 0
M  V30 16448 C 1543.23 0.607622 -1.85292 0
M  V30 16449 O 1542.5 1.44147 -1.32659 0
M  V30 16450 H 1541.08 -0.31826 -0.67581 0
M  V30 16451 H 1543.74 -1.4118 -1.34366 0
M  V30 16452 H 1542.84 -1.24441 -2.86218 0
M  V30 16453 N 1543.14 1.28707 -0.909517 0
M  V30 16454 C 1544.08 2.27427 -0.393155 0
M  V30 16455 C 1545.05 1.57414 0.53009 0
M  V30 16456 O 1546.24 1.85339 0.453205 0
M  V30 16457 C 1543.38 3.4317 0.364507 0
M  V30 16458 C 1542.49 4.27942 -0.590757 0
M  V30 16459 C 1541.63 5.30878 0.184931 0
M  V30 16460 C 1540.67 6.07311 -0.764222 0
M  V30 16461 N 1539.8 7.02096 -0.0223203 0
M  V30 16462 H 1544.64 2.70974 -1.24005 0
M  V30 16463 H 1542.18 1.33265 -0.6228 0
M  V30 16464 H 1544.14 4.09063 0.819937 0
M  V30 16465 H 1542.77 3.00625 1.17578 0
M  V30 16466 H 1541.82 3.62131 -1.16471 0
M  V30 16467 H 1543.13 4.81102 -1.31689 0
M  V30 16468 H 1542.29 6.02635 0.701116 0
M  V30 16469 H 1541.02 4.78474 0.944143 0
M  V30 16470 H 1540.03 5.34408 -1.29182 0
M  V30 16471 H 1541.25 6.61804 -1.52292 0
M  V30 16472 H 1539.2 6.52048 0.718978 0
M  V30 16473 H 1539.12 7.5286 -0.688359 0
M  V30 16474 H 1540.39 7.78059 0.473807 0
M  V30 16475 N 1544.61 0.673042 1.42506 0
M  V30 16476 C 1545.86 0.194864 2.01862 0
M  V30 16477 C 1546.19 -1.19491 1.53087 0
M  V30 16478 O 1545.47 -1.80187 0.732322 0
M  V30 16479 C 1545.75 0.227559 3.5938 0
M  V30 16480 C 1545.6 1.65266 4.18338 0
M  V30 16481 C 1546.92 -0.425197 4.38041 0
M  V30 16482 H 1544.04 0.0722831 0.733447 0
M  V30 16483 H 1546.68 0.857493 1.6955 0
M  V30 16484 H 1544.83 -0.336658 3.87039 0
M  V30 16485 H 1546.51 2.26899 4.0164 0
M  V30 16486 H 1544.75 2.19388 3.74234 0
M  V30 16487 H 1545.42 1.62724 5.2747 0
M  V30 16488 H 1547.9 0.0550709 4.16064 0
M  V30 16489 H 1546.77 -0.371675 5.4764 0
M  V30 16490 H 1547.03 -1.50251 4.15785 0
M  V30 16491 N 1546.09 -1.52004 0.416254 0
M  V30 16492 C 1547.51 -1.59457 0.0674775 0
M  V30 16493 C 1547.71 -1.42865 -1.42098 0
M  V30 16494 O 1546.76 -1.2592 -2.18862 0
M  V30 16495 C 1548.08 -2.95272 0.56876 0
M  V30 16496 C 1549.63 -3.08525 0.527356 0
M  V30 16497 C 1550.1 -4.46832 1.00526 0
M  V30 16498 N 1551.59 -4.53092 0.962377 0
M  V30 16499 C 1552.33 -5.58393 1.30327 0
M  V30 16500 N 1551.82 -6.71212 1.71597 0
M  V30 16501 N 1553.62 -5.48639 1.22278 0
M  V30 16502 H 1545.77 -1.61036 1.38496 0
M  V30 16503 H 1548.03 -0.75795 0.569399 0
M  V30 16504 H 1547.74 -3.12717 1.60937 0
M  V30 16505 H 1547.61 -3.77196 -0.0177595 0
M  V30 16506 H 1550 -2.9076 -0.504225 0
M  V30 16507 H 1550.08 -2.28491 1.15002 0
M  V30 16508 H 1549.72 -4.6534 2.03521 0
M  V30 16509 H 1549.65 -5.25373 0.359345 0
M  V30 16510 H 1552.14 -3.72109 0.65904 0
M  V30 16511 H 1552.46 -7.47558 1.95901 0
M  V30 16512 H 1550.8 -6.72475 1.75507 0
M  V30 16513 H 1553.99 -4.59383 0.899175 0
M  V30 16514 H 1554.16 -6.30596 1.49175 0
M  V30 16515 N 1547.57 -0.146903 -1.56914 0
M  V30 16516 C 1548.8 0.511181 -2.00486 0
M  V30 16517 C 1549.21 1.58425 -1.02699 0
M  V30 16518 O 1548.57 1.82484 -0.0239878 0
M  V30 16519 C 1548.62 1.11191 -3.43975 0
M  V30 16520 O 1548.34 0.0817094 -4.38024 0
M  V30 16521 C 1549.84 1.85061 -4.02824 0
M  V30 16522 H 1547.06 0.133078 -0.657671 0
M  V30 16523 H 1549.61 -0.241457 -2.0307 0
M  V30 16524 H 1547.76 1.81517 -3.42243 0
M  V30 16525 H 1548.18 0.52181 -5.21898 0
M  V30 16526 H 1549.65 2.22385 -5.05222 0
M  V30 16527 H 1550.13 2.73649 -3.4353 0
M  V30 16528 H 1550.73 1.19434 -4.08186 0
M  V30 16529 N 1549.05 1.57088 0.126881 0
M  V30 16530 C 1550.28 1.8834 0.849211 0
M  V30 16531 C 1550.69 0.735386 1.74324 0
M  V30 16532 O 1550.03 -0.30318 1.81181 0
M  V30 16533 C 1550.09 3.14522 1.74116 0
M  V30 16534 C 1549.76 4.4542 1.02225 0
M  V30 16535 C 1550.75 5.18605 0.366722 0
M  V30 16536 C 1548.44 4.92128 1.00577 0
M  V30 16537 C 1550.43 6.36714 -0.295675 0
M  V30 16538 C 1548.12 6.10156 0.33957 0
M  V30 16539 C 1549.12 6.82296 -0.310005 0
M  V30 16540 O 1548.8 7.9808 -0.965594 0
M  V30 16541 H 1548.54 0.628129 0.24986 0
M  V30 16542 H 1551.09 2.05059 0.118236 0
M  V30 16543 H 1549.32 2.93864 2.51358 0
M  V30 16544 H 1551.01 3.31857 2.33722 0
M  V30 16545 H 1551.78 4.83578 0.371126 0
M  V30 16546 H 1547.65 4.35887 1.5008 0
M  V30 16547 H 1551.2 6.9296 -0.803275 0
M  V30 16548 H 1547.1 6.44641 0.332902 0
M  V30 16549 H 1547.86 8.13871 -0.869277 0
M  V30 16550 N 1550.53 -0.396836 1.52522 0
M  V30 16551 C 1551.77 -1.14098 1.68384 0
M  V30 16552 C 1552.13 -1.87877 0.414722 0
M  V30 16553 O 1551.42 -1.82247 -0.591318 0
M  V30 16554 C 1551.61 -2.15308 2.85267 0
M  V30 16555 C 1551.44 -1.51469 4.23423 0
M  V30 16556 C 1550.21 -1.28212 4.88763 0
M  V30 16557 C 1552.41 -0.968974 5.05089 0
M  V30 16558 N 1550.39 -0.603954 6.10922 0
M  V30 16559 C 1551.76 -0.418425 6.18586 0
M  V30 16560 C 1553.82 -0.864625 4.90335 0
M  V30 16561 C 1552.52 0.22626 7.18944 0
M  V30 16562 C 1554.55 -0.233774 5.90938 0
M  V30 16563 C 1553.91 0.306041 7.03735 0
M  V30 16564 H 1550.01 -0.403756 0.669705 0
M  V30 16565 H 1552.59 -0.431615 1.89856 0
M  V30 16566 H 1550.76 -2.8359 2.65389 0
M  V30 16567 H 1552.5 -2.82173 2.90104 0
M  V30 16568 H 1549.25 -1.55499 4.47344 0
M  V30 16569 H 1549.68 -0.28114 6.76416 0
M  V30 16570 H 1554.32 -1.26778 4.03345 0
M  V30 16571 H 1552.04 0.641447 8.0555 0
M  V30 16572 H 1555.62 -0.154387 5.81595 0
M  V30 16573 H 1554.5 0.786488 7.80246 0
M  V30 16574 N 1552.01 -1.43353 -0.654814 0
M  V30 16575 C 1552.94 -1.51194 -1.7794 0
M  V30 16576 C 1553.92 -0.366747 -1.66099 0
M  V30 16577 O 1555.1 -0.58375 -1.85219 0
M  V30 16578 C 1552.23 -1.43298 -3.16359 0
M  V30 16579 C 1551.19 -2.5605 -3.42961 0
M  V30 16580 C 1550.51 -2.33208 -4.81163 0
M  V30 16581 C 1551.81 -3.98303 -3.37864 0
M  V30 16582 H 1553.51 -2.4532 -1.71635 0
M  V30 16583 H 1551.05 -1.18072 -0.824319 0
M  V30 16584 H 1553 -1.47388 -3.94784 0
M  V30 16585 H 1551.73 -0.456761 -3.2339 0
M  V30 16586 H 1550.39 -2.5131 -2.66906 0
M  V30 16587 H 1550.04 -1.33833 -4.84869 0
M  V30 16588 H 1549.74 -3.08789 -4.99923 0
M  V30 16589 H 1551.26 -2.39079 -5.61848 0
M  V30 16590 H 1552.67 -4.04538 -4.06229 0
M  V30 16591 H 1551.07 -4.73897 -3.6816 0
M  V30 16592 H 1552.14 -4.23552 -2.36075 0
M  V30 16593 N 1553.48 0.89303 -1.29857 0
M  V30 16594 C 1554.41 2.01422 -1.18117 0
M  V30 16595 C 1555.39 1.6994 -0.0737487 0
M  V30 16596 O 1556.58 1.92527 -0.254387 0
M  V30 16597 C 1553.71 3.36385 -0.863842 0
M  V30 16598 C 1552.66 3.821 -1.92831 0
M  V30 16599 C 1551.99 5.14263 -1.46415 0
M  V30 16600 C 1553.29 4.01699 -3.33819 0
M  V30 16601 H 1554.98 2.11502 -2.11913 0
M  V30 16602 H 1552.53 1.01622 -1.02024 0
M  V30 16603 H 1554.48 4.14335 -0.768397 0
M  V30 16604 H 1553.21 3.26415 0.109816 0
M  V30 16605 H 1551.87 3.06372 -2.01325 0
M  V30 16606 H 1551.51 5.00714 -0.478983 0
M  V30 16607 H 1551.21 5.45821 -2.17609 0
M  V30 16608 H 1552.74 5.94747 -1.38234 0
M  V30 16609 H 1554.15 4.70111 -3.28129 0
M  V30 16610 H 1552.55 4.44621 -4.03029 0
M  V30 16611 H 1553.62 3.05816 -3.76304 0
M  V30 16612 N 1554.96 1.12442 1.10429 0
M  V30 16613 C 1556.21 0.878021 1.82031 0
M  V30 16614 C 1556.53 -0.597787 1.85611 0
M  V30 16615 O 1555.8 -1.43442 1.33422 0
M  V30 16616 H 1554.38 0.321839 0.674113 0
M  V30 16617 H 1557.04 1.41891 1.33615 0
M  V30 16618 H 1556.14 1.25957 2.85554 0
M  V30 16619 N 1556.44 -1.28223 0.91633 0
M  V30 16620 C 1557.35 -2.30956 0.411882 0
M  V30 16621 C 1558.37 -1.66609 -0.501753 0
M  V30 16622 O 1559.54 -1.97641 -0.387317 0
M  V30 16623 C 1556.61 -3.45053 -0.337558 0
M  V30 16624 C 1555.67 -4.2495 0.609609 0
M  V30 16625 C 1554.9 -5.33598 -0.104159 0
M  V30 16626 O 1555.12 -5.54786 -1.32546 0
M  V30 16627 O 1554.06 -5.99272 0.561851 0
M  V30 16628 H 1557.88 -2.76118 1.26461 0
M  V30 16629 H 1555.47 -1.32964 0.681246 0
M  V30 16630 H 1557.35 -4.14477 -0.760722 0
M  V30 16631 H 1556.03 -3.01968 -1.16607 0
M  V30 16632 H 1554.93 -3.58104 1.08222 0
M  V30 16633 H 1556.27 -4.7172 1.40502 0
M  V30 16634 N 1557.92 -0.68059 -1.42147 0
M  V30 16635 C 1559.33 -0.350691 -1.55699 0
M  V30 16636 C 1559.53 1.1435 -1.6591 0
M  V30 16637 O 1558.59 1.92905 -1.62923 0
M  V30 16638 C 1559.9 -1.08608 -2.80401 0
M  V30 16639 C 1561.45 -1.06897 -2.9418 0
M  V30 16640 C 1561.93 -1.78581 -4.2175 0
M  V30 16641 N 1563.42 -1.75477 -4.28675 0
M  V30 16642 C 1564.15 -2.27794 -5.26211 0
M  V30 16643 N 1563.65 -2.88518 -6.29865 0
M  V30 16644 N 1565.44 -2.18135 -5.18048 0
M  V30 16645 H 1557.59 -1.64988 -1.33763 0
M  V30 16646 H 1559.85 -0.695411 -0.644289 0
M  V30 16647 H 1559.56 -2.14113 -2.79014 0
M  V30 16648 H 1559.43 -0.655022 -3.71469 0
M  V30 16649 H 1561.82 -0.0222464 -2.95092 0
M  V30 16650 H 1561.9 -1.53897 -2.04327 0
M  V30 16651 H 1561.55 -2.83225 -4.21599 0
M  V30 16652 H 1561.48 -1.29027 -5.10548 0
M  V30 16653 H 1563.97 -1.31191 -3.54397 0
M  V30 16654 H 1564.28 -3.26043 -7.00654 0
M  V30 16655 H 1562.63 -2.92589 -6.3041 0
M  V30 16656 H 1565.82 -1.7038 -4.35991 0
M  V30 16657 H 1565.99 -2.59213 -5.93896 0
M  V30 16658 N 1559.4 1.51781 -0.424309 0
M  V30 16659 C 1560.64 2.0157 0.146203 0
M  V30 16660 C 1560.96 1.3111 1.44344 0
M  V30 16661 O 1560.23 0.441631 1.90857 0
M  V30 16662 H 1558.81 0.744821 0.057019 0
M  V30 16663 H 1561.48 1.8656 -0.564031 0
M  V30 16664 H 1560.57 3.10335 0.331464 0
M  V30 16665 N 1560.87 0.155222 1.56834 0
M  V30 16666 C 1562.1 -0.503763 2.01189 0
M  V30 16667 C 1562.52 -1.57086 1.03468 0
M  V30 16668 O 1561.88 -1.81296 0.0116895 0
M  V30 16669 C 1561.93 -1.07373 3.44243 0
M  V30 16670 O 1561.03 -2.18834 3.49551 0
M  V30 16671 H 1560.37 -0.122368 0.652627 0
M  V30 16672 H 1562.9 0.254377 2.03013 0
M  V30 16673 H 1562.91 -1.40036 3.83215 0
M  V30 16674 H 1561.59 -0.292339 4.14871 0
M  V30 16675 H 1560.17 -1.87337 3.22427 0
M  V30 16676 N 1562.35 -1.57153 -0.118549 0
M  V30 16677 C 1563.58 -1.89434 -0.844355 0
M  V30 16678 C 1564 -0.747203 -1.72622 0
M  V30 16679 O 1563.36 0.302252 -1.78763 0
M  V30 16680 C 1563.41 -3.20466 -1.65331 0
M  V30 16681 O 1562.51 -3.06403 -2.76027 0
M  V30 16682 H 1561.85 -0.621601 -0.23347 0
M  V30 16683 H 1564.38 -2.04351 -0.100811 0
M  V30 16684 H 1564.39 -3.53197 -2.04245 0
M  V30 16685 H 1563.07 -4.03551 -1.00594 0
M  V30 16686 H 1561.64 -2.85139 -2.40312 0
M  V30 16687 N 1563.83 0.388742 -1.5273 0
M  V30 16688 C 1565.06 1.15495 -1.71664 0
M  V30 16689 C 1565.47 1.83717 -0.435127 0
M  V30 16690 O 1564.83 1.72686 0.590411 0
M  V30 16691 C 1564.88 2.20279 -2.86635 0
M  V30 16692 O 1564.6 1.54838 -4.09825 0
M  V30 16693 C 1566.1 3.09625 -3.1725 0
M  V30 16694 H 1563.32 0.346271 -0.57475 0
M  V30 16695 H 1565.87 0.454729 -1.9938 0
M  V30 16696 H 1564.02 2.85936 -2.61379 0
M  V30 16697 H 1564.44 2.24466 -4.74042 0
M  V30 16698 H 1565.91 3.79177 -4.01159 0
M  V30 16699 H 1566.39 3.73147 -2.31643 0
M  V30 16700 H 1566.99 2.49612 -3.44345 0
M  V30 16701 N 1565.31 1.43698 0.647203 0
M  V30 16702 C 1566.72 1.27231 0.963563 0
M  V30 16703 C 1566.92 0.196385 2.00541 0
M  V30 16704 O 1565.98 -0.423162 2.48929 0
M  V30 16705 C 1567.29 2.63863 1.44211 0
M  V30 16706 C 1568.84 2.71444 1.55844 0
M  V30 16707 C 1569.32 4.08508 2.07087 0
M  V30 16708 N 1570.81 4.10603 2.14381 0
M  V30 16709 C 1571.54 5.13496 2.55166 0
M  V30 16710 N 1571.04 6.26759 2.95203 0
M  V30 16711 N 1572.83 5.0085 2.55158 0
M  V30 16712 H 1564.98 2.12358 -0.0420956 0
M  V30 16713 H 1567.24 0.946989 0.0437628 0
M  V30 16714 H 1566.95 3.43589 0.75096 0
M  V30 16715 H 1566.82 2.89666 2.41605 0
M  V30 16716 H 1569.21 1.92046 2.24058 0
M  V30 16717 H 1569.29 2.49399 0.56866 0
M  V30 16718 H 1568.94 4.88375 1.39472 0
M  V30 16719 H 1568.87 4.2792 3.06907 0
M  V30 16720 H 1571.36 3.2885 1.86188 0
M  V30 16721 H 1571.67 7.01096 3.25091 0
M  V30 16722 H 1570.02 6.30222 2.92993 0
M  V30 16723 H 1573.21 4.11428 2.2326 0
M  V30 16724 H 1573.38 5.81165 2.86621 0
M  V30 16725 N 1566.79 -0.886131 1.30328 0
M  V30 16726 C 1568.03 -1.6346 1.18849 0
M  V30 16727 C 1568.36 -1.93295 -0.257285 0
M  V30 16728 O 1567.63 -1.56858 -1.17356 0
M  V30 16729 H 1566.21 -0.605932 0.43687 0
M  V30 16730 H 1568.87 -1.06177 1.63439 0
M  V30 16731 H 1567.96 -2.58522 1.7485 0
M  V30 16732 O 1568.3 -1.25035 -1.02218 0
M  V30 16733 H 1568.99 -1.03132 -1.63962 0
M  V30 END ATOM
M  V30 BEGIN BOND
M  V30 END BOND
M  V30 END CTAB
M  END
$$$$
