drugbank_target|Q97R46 Bifunctional protein GlmU (DB03397)
 OpenBabel12092120273D

  0  0  0     0  0            999 V3000
M  V30 BEGIN CTAB
M  V30 COUNTS 6936 6987 0 0 0
M  V30 BEGIN ATOM
M  V30 1 H -0.908 1.98254 -0.117106 0
M  V30 2 N 0 1.576 0 0
M  V30 3 C 0.933 2.03868 1.02534 0
M  V30 4 C 1.911 0.928543 1.3348 0
M  V30 5 O 3.095 1.19667 1.45644 0
M  V30 6 C 0.222 2.43627 2.35294 0
M  V30 7 C -0.732 3.65373 2.2001 0
M  V30 8 S 0.101 5.13292 1.52614 0
M  V30 9 C 1.257 5.56322 2.86805 0
M  V30 10 H 1.49 2.90518 0.631377 0
M  V30 11 H -0.977 1.52953 0.210867 0
M  V30 12 H 0.981 2.67203 3.11629 0
M  V30 13 H -0.358 1.57376 2.7183 0
M  V30 14 H -1.165 3.90944 3.18086 0
M  V30 15 H -1.563 3.418 1.51819 0
M  V30 16 H 0.729 5.58782 3.83104 0
M  V30 17 H 1.672 6.56266 2.65933 0
M  V30 18 H 2.08 4.83886 2.90714 0
M  V30 19 N 1.4781 -0.272755 1.55222 0
M  V30 20 C 2.7031 -1.02683 1.80197 0
M  V30 21 C 3.1281 -1.79142 0.573551 0
M  V30 22 O 2.4861 -1.74917 -0.476849 0
M  V30 23 C 2.5341 -1.9609 3.02624 0
M  V30 24 O 1.6381 -3.04863 2.77727 0
M  V30 25 H 0.9791 -0.293557 0.595584 0
M  V30 26 H 3.5091 -0.30159 2.02365 0
M  V30 27 H 3.5191 -2.38039 3.31363 0
M  V30 28 H 2.1941 -1.39851 3.91682 0
M  V30 29 H 0.7711 -2.67228 2.60084 0
M  V30 30 N 2.9562 -1.48159 -0.537278 0
M  V30 31 C 3.9042 -1.62573 -1.66352 0
M  V30 32 C 4.8982 -0.492366 -1.62087 0
M  V30 33 O 6.1042 -0.670847 -1.67032 0
M  V30 34 H 2.4792 -0.511992 -0.550789 0
M  V30 35 H 4.4502 -2.57176 -1.51337 0
M  V30 36 C 3.1992 -1.67583 -3.04649 0
M  V30 37 H 2.5222 -2.54151 -3.08622 0
M  V30 38 H 3.9622 -1.81713 -3.83088 0
M  V30 39 C 2.4212 -0.413039 -3.34358 0
M  V30 40 O 2.9512 0.477259 -3.98855 0
M  V30 41 N 1.1572 -0.286961 -2.8918 0
M  V30 42 H 0.7042 -1.01241 -2.36871 0
M  V30 43 H 0.6622 0.556963 -3.09427 0
M  V30 44 N 4.4343 0.785586 -1.36625 0
M  V30 45 C 5.6813 1.54362 -1.31067 0
M  V30 46 C 6.0093 1.94195 0.10893 0
M  V30 47 O 5.2643 1.63262 1.07908 0
M  V30 48 C 5.5633 2.83007 -2.1827 0
M  V30 49 C 5.2293 2.62294 -3.6676 0
M  V30 50 C 3.8913 2.56353 -4.0723 0
M  V30 51 C 6.2433 2.43371 -4.6089 0
M  V30 52 C 3.5713 2.29461 -5.39967 0
M  V30 53 C 5.9233 2.18005 -5.93849 0
M  V30 54 C 4.5873 2.105 -6.3344 0
M  V30 55 H 3.8573 0.564851 -0.479609 0
M  V30 56 H 6.5043 0.906028 -1.68711 0
M  V30 57 H 4.8093 3.51253 -1.73576 0
M  V30 58 H 6.5063 3.40817 -2.11292 0
M  V30 59 H 3.0963 2.67774 -3.34656 0
M  V30 60 H 7.2803 2.46959 -4.30494 0
M  V30 61 H 2.5363 2.22135 -5.69619 0
M  V30 62 H 6.7103 2.02359 -6.66351 0
M  V30 63 H 4.3373 1.89425 -7.36222 0
M  V30 64 N 5.9124 1.20967 1.01018 0
M  V30 65 C 6.8754 0.965918 2.07853 0
M  V30 66 C 7.8754 -0.0610545 1.60684 0
M  V30 67 O 9.0654 0.175681 1.73312 0
M  V30 68 C 6.1974 0.455513 3.37843 0
M  V30 69 H 7.3904 1.91365 2.3091 0
M  V30 70 H 4.9434 1.02594 1.17916 0
M  V30 71 H 5.6784 -0.497381 3.20463 0
M  V30 72 H 5.4634 1.19622 3.73407 0
M  V30 73 H 6.9534 0.304667 4.16487 0
M  V30 74 N 7.3905 -1.2043 1.01659 0
M  V30 75 C 8.6395 -1.89118 0.701237 0
M  V30 76 C 8.9525 -1.79705 -0.772358 0
M  V30 77 O 10.1585 -2.43528 -1.20026 0
M  V30 78 C 8.6145 -3.39168 1.20388 0
M  V30 79 C 8.2225 -3.57166 2.70438 0
M  V30 80 C 9.9665 -4.1341 0.963953 0
M  V30 81 C 7.8735 -5.01042 3.14183 0
M  V30 82 H 6.8035 -0.708267 0.2586 0
M  V30 83 H 9.4545 -1.36239 1.22927 0
M  V30 84 H 7.8365 -3.91369 0.603824 0
M  V30 85 H 9.0105 -3.15351 3.35992 0
M  V30 86 H 7.3255 -2.96294 2.92572 0
M  V30 87 H 9.9225 -5.19491 1.26621 0
M  V30 88 H 10.2655 -4.16181 -0.099578 0
M  V30 89 H 10.7985 -3.67309 1.52738 0
M  V30 90 H 7.5375 -5.03426 4.19812 0
M  V30 91 H 7.0575 -5.43668 2.53348 0
M  V30 92 H 8.7365 -5.69623 3.0682 0
M  V30 93 N 8.8686 -0.792821 -1.36206 0
M  V30 94 C 10.1176 -0.363353 -1.984 0
M  V30 95 C 10.4306 1.07172 -1.63626 0
M  V30 96 O 11.6366 1.60362 -2.19081 0
M  V30 97 C 10.0926 -0.59872 -3.54885 0
M  V30 98 C 9.7006 -2.04543 -3.9858 0
M  V30 99 C 11.4446 -0.233926 -4.23855 0
M  V30 100 C 9.3516 -2.22727 -5.47856 0
M  V30 101 H 8.2816 -0.13212 -0.742334 0
M  V30 102 H 10.9326 -0.974935 -1.55458 0
M  V30 103 H 9.3146 0.0826222 -3.95914 0
M  V30 104 H 10.4886 -2.76345 -3.68741 0
M  V30 105 H 8.8036 -2.36879 -3.42458 0
M  V30 106 H 11.4006 -0.348027 -5.33566 0
M  V30 107 H 11.7436 0.818351 -4.08177 0
M  V30 108 H 12.2766 -0.868639 -3.882 0
M  V30 109 H 9.0156 -3.2635 -5.68486 0
M  V30 110 H 8.5356 -1.55434 -5.7931 0
M  V30 111 H 10.2146 -2.03607 -6.14128 0
M  V30 112 N 10.3467 1.47872 -0.545128 0
M  V30 113 C 11.2767 2.32661 0.197793 0
M  V30 114 C 12.2577 1.43041 0.920504 0
M  V30 115 O 13.4427 1.71912 0.90333 0
M  V30 116 C 10.5727 3.24569 1.23582 0
M  V30 117 C 9.5267 4.23333 0.630323 0
M  V30 118 C 8.8527 5.0448 1.77211 0
M  V30 119 C 10.1527 5.20704 -0.407974 0
M  V30 120 H 11.8467 2.95024 -0.510045 0
M  V30 121 H 9.3927 1.4187 -0.246731 0
M  V30 122 H 11.3457 3.8272 1.76362 0
M  V30 123 H 10.0697 2.60236 1.97344 0
M  V30 124 H 8.7287 3.6639 0.123922 0
M  V30 125 H 8.3767 4.36561 2.49847 0
M  V30 126 H 8.0767 5.71339 1.37281 0
M  V30 127 H 9.6007 5.65487 2.3034 0
M  V30 128 H 11.0147 5.7329 0.033305 0
M  V30 129 H 9.4117 5.95699 -0.725486 0
M  V30 130 H 10.4817 4.66917 -1.30828 0
M  V30 131 N 11.8248 0.280983 1.55075 0
M  V30 132 C 12.7878 -0.590896 2.21452 0
M  V30 133 C 13.7878 -1.07682 1.19421 0
M  V30 134 O 14.9778 -0.97605 1.44288 0
M  V30 135 C 12.1098 -1.81587 2.88511 0
M  V30 136 H 13.3028 -0.0112554 2.99898 0
M  V30 137 H 10.8558 0.0316438 1.56268 0
M  V30 138 H 11.5908 -2.43587 2.14093 0
M  V30 139 H 11.3758 -1.4753 3.63287 0
M  V30 140 H 12.8658 -2.43575 3.39206 0
M  V30 141 N 13.3029 -1.57598 0.00835791 0
M  V30 142 C 14.2659 -2.07884 -0.965242 0
M  V30 143 C 15.2659 -0.989825 -1.26725 0
M  V30 144 O 16.4559 -1.25218 -1.21104 0
M  V30 145 C 13.5879 -2.52731 -2.28779 0
M  V30 146 H 14.7809 -2.95178 -0.530112 0
M  V30 147 H 12.3339 -1.54458 -0.239283 0
M  V30 148 H 13.0689 -1.68705 -2.76964 0
M  V30 149 H 12.8539 -3.32272 -2.08177 0
M  V30 150 H 14.3439 -2.91933 -2.98605 0
M  V30 151 N 14.781 0.264519 -1.55364 0
M  V30 152 C 16.029 0.993021 -1.76021 0
M  V30 153 C 16.35 1.86511 -0.569099 0
M  V30 154 O 15.62 1.91438 0.415735 0
M  V30 155 H 14.2 0.369639 -0.649135 0
M  V30 156 H 16.862 0.286707 -1.9278 0
M  V30 157 H 15.958 1.62502 -2.66457 0
M  V30 158 N 16.2591 1.48442 0.529413 0
M  V30 159 C 17.2061 1.63007 1.63394 0
M  V30 160 C 18.1761 0.47212 1.59249 0
M  V30 161 O 19.3611 0.695673 1.77666 0
M  V30 162 C 16.5011 1.6763 3.01653 0
M  V30 163 C 15.6141 2.94535 3.16027 0
M  V30 164 C 14.7491 2.90316 4.44849 0
M  V30 165 C 13.7881 4.11923 4.52754 0
M  V30 166 N 12.9251 4.05777 5.72965 0
M  V30 167 H 17.7651 2.5733 1.50285 0
M  V30 168 H 15.3021 1.27613 0.731656 0
M  V30 169 H 17.2601 1.68292 3.81751 0
M  V30 170 H 15.8901 0.76797 3.13532 0
M  V30 171 H 14.9421 3.03615 2.29177 0
M  V30 172 H 16.2541 3.84512 3.17729 0
M  V30 173 H 15.4081 2.89382 5.33238 0
M  V30 174 H 14.1471 1.98068 4.45668 0
M  V30 175 H 13.1521 4.13131 3.62771 0
M  V30 176 H 14.3771 5.0533 4.53672 0
M  V30 177 H 12.3231 3.16351 5.74681 0
M  V30 178 H 12.2401 4.8946 5.76164 0
M  V30 179 H 13.5081 4.08904 6.6364 0
M  V30 180 N 17.7372 -0.778329 1.37039 0
M  V30 181 C 18.9852 -1.53361 1.31623 0
M  V30 182 C 19.3062 -1.94739 -0.100831 0
M  V30 183 O 18.5762 -1.65797 -1.04347 0
M  V30 184 H 17.1562 -0.568794 0.484234 0
M  V30 185 H 19.8182 -0.926742 1.71457 0
M  V30 186 H 18.9142 -2.43606 1.95096 0
M  V30 187 N 19.2153 -1.21501 -1.00376 0
M  V30 188 C 20.4433 -1.059 -1.77744 0
M  V30 189 C 20.8583 0.391125 -1.84704 0
M  V30 190 O 20.2153 1.27133 -1.30933 0
M  V30 191 C 20.2663 -1.65111 -3.21591 0
M  V30 192 O 19.9873 -3.0445 -3.15027 0
M  V30 193 C 21.4883 -1.54637 -4.15454 0
M  V30 194 H 18.7083 -0.371825 -0.558558 0
M  V30 195 H 21.2523 -1.60865 -1.26264 0
M  V30 196 H 19.4073 -1.14235 -3.70175 0
M  V30 197 H 19.8213 -3.3278 -4.0541 0
M  V30 198 H 21.2953 -2.00808 -5.14179 0
M  V30 199 H 21.7723 -0.501022 -4.36333 0
M  V30 200 H 22.3783 -2.04767 -3.72761 0
M  V30 201 N 20.6934 1.19889 -1.02296 0
M  V30 202 C 22.1094 1.41462 -0.738954 0
M  V30 203 C 22.3094 1.89721 0.678846 0
M  V30 204 O 21.3654 2.07016 1.4457 0
M  V30 205 C 22.6784 2.43083 -1.77005 0
M  V30 206 C 24.2264 2.5684 -1.78892 0
M  V30 207 C 24.7014 3.61709 -2.80945 0
M  V30 208 N 26.1924 3.69199 -2.79725 0
M  V30 209 C 26.9274 4.50019 -3.55345 0
M  V30 210 N 26.4234 5.34592 -4.40662 0
M  V30 211 N 28.2164 4.44612 -3.43914 0
M  V30 212 H 20.3674 0.868827 -1.93817 0
M  V30 213 H 22.6304 0.44399 -0.837602 0
M  V30 214 H 22.3364 2.14636 -2.78612 0
M  V30 215 H 22.2104 3.4217 -1.58744 0
M  V30 216 H 24.5974 2.84614 -0.779674 0
M  V30 217 H 24.6784 1.57927 -2.01228 0
M  V30 218 H 24.3224 3.34678 -3.82038 0
M  V30 219 H 24.2524 4.60259 -2.5587 0
M  V30 220 H 26.7434 3.08794 -2.17842 0
M  V30 221 H 27.0564 5.93363 -4.95116 0
M  V30 222 H 25.4014 5.34073 -4.44737 0
M  V30 223 H 28.5924 3.7758 -2.76679 0
M  V30 224 H 28.7654 5.0736 -4.031 0
M  V30 225 N 22.1715 0.800033 1.35784 0
M  V30 226 C 23.1045 0.151499 2.27697 0
M  V30 227 C 24.0825 -0.678663 1.4776 0
M  V30 228 O 25.2665 -0.647358 1.77035 0
M  V30 229 C 22.3935 -0.790492 3.29346 0
M  V30 230 C 21.4395 -0.0407832 4.26481 0
M  V30 231 S 22.2725 1.29077 5.19711 0
M  V30 232 C 23.4285 0.353055 6.24903 0
M  V30 233 H 23.6615 0.930796 2.82353 0
M  V30 234 H 21.1945 0.594767 1.42485 0
M  V30 235 H 23.1525 -1.3285 3.88409 0
M  V30 236 H 21.8135 -1.54312 2.73581 0
M  V30 237 H 21.0065 -0.755971 4.98298 0
M  V30 238 H 20.6085 0.427063 3.71554 0
M  V30 239 H 22.9005 -0.464147 6.75908 0
M  V30 240 H 23.8435 1.04023 7.00418 0
M  V30 241 H 24.2515 -0.0483344 5.64479 0
M  V30 242 N 23.6496 -1.47581 0.552962 0
M  V30 243 C 24.5966 -2.29957 -0.197108 0
M  V30 244 C 25.5666 -1.38799 -0.912359 0
M  V30 245 O 26.7516 -1.67761 -0.908888 0
M  V30 246 C 23.8916 -3.22672 -1.22379 0
M  V30 247 C 23.0046 -4.28919 -0.515038 0
M  V30 248 C 22.1396 -5.0879 -1.52664 0
M  V30 249 C 21.1786 -6.06815 -0.802631 0
M  V30 250 N 20.3156 -6.7966 -1.76086 0
M  V30 251 H 25.1556 -2.93578 0.511486 0
M  V30 252 H 22.6926 -1.4471 0.264067 0
M  V30 253 H 24.6506 -3.74845 -1.83159 0
M  V30 254 H 23.2806 -2.60925 -1.90047 0
M  V30 255 H 22.3326 -3.79835 0.207192 0
M  V30 256 H 23.6446 -4.98773 0.0523425 0
M  V30 257 H 22.7986 -5.65091 -2.20809 0
M  V30 258 H 21.5376 -4.38828 -2.12794 0
M  V30 259 H 20.5426 -5.49695 -0.107238 0
M  V30 260 H 21.7676 -6.78784 -0.207135 0
M  V30 261 H 19.7136 -6.12432 -2.35081 0
M  V30 262 H 19.6306 -7.45669 -1.24552 0
M  V30 263 H 20.8986 -7.40538 -2.43359 0
M  V30 264 N 25.1277 -0.289203 -1.54924 0
M  V30 265 C 26.3527 0.329299 -2.04769 0
M  V30 266 C 26.7777 1.4763 -1.16564 0
M  V30 267 O 26.1357 1.80527 -0.167186 0
M  V30 268 C 26.1837 0.774438 -3.52186 0
M  V30 269 O 25.2877 1.88038 -3.67036 0
M  V30 270 H 24.6287 0.0659259 -0.660719 0
M  V30 271 H 27.1587 -0.42761 -2.00082 0
M  V30 272 H 27.1687 1.06642 -3.93816 0
M  V30 273 H 25.8437 -0.0646707 -4.1585 0
M  V30 274 H 24.4207 1.58985 -3.3731 0
M  V30 275 N 26.6058 1.57591 -0.0167156 0
M  V30 276 C 27.8828 1.82547 0.702564 0
M  V30 277 C 28.2628 0.898018 1.91047 0
M  V30 278 O 27.6108 -0.0493456 2.28447 0
M  V30 279 C 27.8208 3.31459 1.09251 0
M  V30 280 C 29.1688 3.97622 1.48937 0
M  V30 281 O 30.1928 3.35881 1.18584 0
M  V30 282 O 29.0518 5.06415 2.05442 0
M  V30 283 H 26.1458 0.752268 0.343544 0
M  V30 284 H 28.6918 1.69644 -0.0434495 0
M  V30 285 H 27.4638 3.9061 0.23227 0
M  V30 286 H 27.0868 3.49422 1.89709 0
M  V30 287 N 28.0839 -0.256276 1.55502 0
M  V30 288 C 29.0139 -1.32102 1.92539 0
M  V30 289 C 29.9949 -1.50684 0.789194 0
M  V30 290 O 31.1799 -1.63449 1.04872 0
M  V30 291 C 28.3099 -2.67752 2.21192 0
M  V30 292 C 27.2639 -2.63878 3.36975 0
M  V30 293 C 26.5899 -4.03236 3.51147 0
M  V30 294 C 27.8899 -2.21682 4.72921 0
M  V30 295 H 29.5839 -1.01351 2.81724 0
M  V30 296 H 27.1299 -0.486105 1.35547 0
M  V30 297 H 29.0829 -3.42365 2.45691 0
M  V30 298 H 27.8069 -3.0012 1.28824 0
M  V30 299 H 26.4659 -1.91722 3.12471 0
M  V30 300 H 26.1139 -4.32854 2.56216 0
M  V30 301 H 25.8139 -4.01535 4.29003 0
M  V30 302 H 27.3379 -4.79563 3.77957 0
M  V30 303 H 28.7519 -2.86023 4.96854 0
M  V30 304 H 27.1489 -2.3111 5.53812 0
M  V30 305 H 28.2189 -1.16833 4.70615 0
M  V30 306 N 29.562 -1.4872 -0.521534 0
M  V30 307 C 30.973 -1.50607 -1.10337 0
M  V30 308 C 31.324 -0.280612 -1.94183 0
M  V30 309 O 30.449 0.611507 -2.0758 0
M  V30 310 C 31.044 -2.72903 -2.00772 0
M  V30 311 C 29.603 -2.77634 -2.54158 0
M  V30 312 C 28.75 -2.44241 -1.31307 0
M  V30 313 H 31.701 -1.55714 -0.306388 0
M  V30 314 H 31.722 -2.519 -2.85178 0
M  V30 315 H 31.234 -3.62077 -1.39721 0
M  V30 316 H 29.335 -1.92689 -3.18907 0
M  V30 317 H 29.448 -3.79283 -2.92714 0
M  V30 318 H 27.812 -1.95577 -1.63161 0
M  V30 319 H 28.595 -3.35666 -0.719943 0
M  V30 320 N 31.0401 0.771051 -1.3745 0
M  V30 321 C 31.9871 1.88435 -1.3327 0
M  V30 322 C 32.9571 1.64914 -0.198136 0
M  V30 323 O 34.1421 1.86821 -0.387606 0
M  V30 324 C 31.2821 3.25509 -1.14622 0
M  V30 325 C 30.3951 3.60979 -2.37314 0
M  V30 326 C 29.5301 4.87265 -2.11533 0
M  V30 327 C 28.5691 5.15469 -3.30088 0
M  V30 328 N 27.7061 6.32944 -3.03853 0
M  V30 329 H 32.5461 1.91344 -2.28455 0
M  V30 330 H 30.0831 0.935466 -1.13523 0
M  V30 331 H 32.0411 4.04582 -1.01831 0
M  V30 332 H 30.6711 3.21974 -0.230837 0
M  V30 333 H 29.7231 2.76885 -2.60842 0
M  V30 334 H 31.0351 3.77759 -3.25729 0
M  V30 335 H 30.1891 5.74244 -1.95777 0
M  V30 336 H 28.9281 4.7259 -1.20457 0
M  V30 337 H 27.9331 4.26966 -3.46382 0
M  V30 338 H 29.1581 5.32052 -4.22016 0
M  V30 339 H 27.1041 6.19625 -2.15407 0
M  V30 340 H 27.0211 6.50143 -3.85812 0
M  V30 341 H 28.2891 7.22857 -2.91716 0
M  V30 342 N 32.5182 1.22032 0.997298 0
M  V30 343 C 33.7642 1.04376 1.73878 0
M  V30 344 C 34.0972 -0.420716 1.89588 0
M  V30 345 O 33.3722 -1.31202 1.43583 0
M  V30 346 C 33.6552 1.75047 3.14691 0
M  V30 347 C 33.5082 3.29062 3.06656 0
M  V30 348 C 34.8272 1.49928 4.13775 0
M  V30 349 H 31.9462 0.380578 0.631133 0
M  V30 350 H 34.5882 1.50312 1.16217 0
M  V30 351 H 32.7382 1.35996 3.63919 0
M  V30 352 H 34.4102 3.7753 2.65083 0
M  V30 353 H 32.6532 3.58967 2.43568 0
M  V30 354 H 33.3242 3.73683 4.06282 0
M  V30 355 H 35.8002 1.83842 3.73285 0
M  V30 356 H 34.6762 2.01878 5.10428 0
M  V30 357 H 34.9372 0.430929 4.39995 0
M  V30 358 N 33.9963 -1.19345 1.0293 0
M  V30 359 C 34.9263 -2.2481 0.631105 0
M  V30 360 C 35.9073 -1.66245 -0.360104 0
M  V30 361 O 37.0923 -1.92677 -0.242726 0
M  V30 362 C 34.2223 -3.47295 -0.0184607 0
M  V30 363 C 33.1763 -4.18536 0.895073 0
M  V30 364 C 32.5023 -5.34586 0.110592 0
M  V30 365 C 33.8023 -4.73287 2.209 0
M  V30 366 H 35.4963 -2.58372 1.51275 0
M  V30 367 H 33.0423 -1.24194 0.728818 0
M  V30 368 H 34.9953 -4.20268 -0.308675 0
M  V30 369 H 33.7193 -3.12933 -0.934907 0
M  V30 370 H 32.3783 -3.47446 1.16949 0
M  V30 371 H 32.0263 -4.96469 -0.807902 0
M  V30 372 H 31.7263 -5.83183 0.719087 0
M  V30 373 H 33.2503 -6.10355 -0.172871 0
M  V30 374 H 34.6643 -5.38013 1.98028 0
M  V30 375 H 33.0613 -5.32373 2.76946 0
M  V30 376 H 34.1313 -3.91331 2.86336 0
M  V30 377 N 35.4744 -0.807222 -1.35358 0
M  V30 378 C 36.4244 -0.190706 -2.27201 0
M  V30 379 C 37.4084 0.635838 -1.47804 0
M  V30 380 O 38.6004 0.492991 -1.69996 0
M  V30 381 C 35.7294 0.659337 -3.36909 0
M  V30 382 C 34.8154 -0.176971 -4.23731 0
M  V30 383 N 35.2064 -1.24029 -4.90357 0
M  V30 384 C 33.5044 0.0412953 -4.45981 0
M  V30 385 C 34.2054 -1.75092 -5.54723 0
M  V30 386 N 33.1814 -1.05727 -5.33219 0
M  V30 387 H 36.9834 -1.0043 -2.76208 0
M  V30 388 H 34.4974 -0.648445 -1.48892 0
M  V30 389 H 36.4944 1.11706 -4.01656 0
M  V30 390 H 35.1544 1.47127 -2.89454 0
M  V30 391 H 36.1654 -1.62295 -4.91814 0
M  V30 392 H 32.8424 0.82232 -4.09322 0
M  V30 393 H 34.2324 -2.63963 -6.17878 0
M  V30 394 N 36.9525 1.47285 -0.560781 0
M  V30 395 C 37.8995 2.30058 0.18491 0
M  V30 396 C 38.8695 1.39281 0.904986 0
M  V30 397 O 40.0545 1.68241 0.899979 0
M  V30 398 C 37.1945 3.23317 1.20666 0
M  V30 399 C 36.3075 4.29186 0.492285 0
M  V30 400 C 35.4425 5.09592 1.49964 0
M  V30 401 C 34.4815 6.07232 0.770439 0
M  V30 402 N 33.6185 6.80584 1.72479 0
M  V30 403 H 38.4585 2.93302 -0.527048 0
M  V30 404 H 35.9955 1.44568 -0.271738 0
M  V30 405 H 37.9535 3.75811 1.81168 0
M  V30 406 H 36.5835 2.61929 1.88661 0
M  V30 407 H 35.6355 3.7972 -0.227333 0
M  V30 408 H 36.9475 4.98738 -0.0787929 0
M  V30 409 H 36.1015 5.66254 2.17809 0
M  V30 410 H 34.8405 4.3995 2.10464 0
M  V30 411 H 33.8455 5.49745 0.0780846 0
M  V30 412 H 35.0705 6.78884 0.171134 0
M  V30 413 H 33.0165 6.1367 2.3183 0
M  V30 414 H 32.9335 7.46319 1.20596 0
M  V30 415 H 34.2015 7.41818 2.39428 0
M  V30 416 N 38.4306 0.297415 1.54768 0
M  V30 417 C 39.6766 -0.313376 2.00364 0
M  V30 418 C 40.0096 -1.53815 1.18553 0
M  V30 419 O 39.2846 -1.92739 0.261103 0
M  V30 420 C 39.5676 -0.673525 3.53745 0
M  V30 421 C 39.4206 0.560133 4.46299 0
M  V30 422 C 40.7396 -1.50143 4.13697 0
M  V30 423 H 37.8586 -0.112428 0.728374 0
M  V30 424 H 40.5006 0.4088 1.8555 0
M  V30 425 H 38.6506 -1.28881 3.665 0
M  V30 426 H 40.3226 1.19863 4.45455 0
M  V30 427 H 38.5656 1.19405 4.17043 0
M  V30 428 H 39.2366 0.26405 5.51368 0
M  V30 429 H 41.7126 -0.981588 4.04356 0
M  V30 430 H 40.5886 -1.72221 5.21182 0
M  V30 431 H 40.8496 -2.48952 3.65343 0
M  V30 432 N 39.9087 -1.5758 0.0250728 0
M  V30 433 C 40.8717 -2.08896 -0.943139 0
M  V30 434 C 41.8717 -1.00321 -1.25668 0
M  V30 435 O 43.0617 -1.26495 -1.19769 0
M  V30 436 C 40.1937 -2.55143 -2.26086 0
M  V30 437 H 41.3867 -2.95723 -0.498775 0
M  V30 438 H 38.9397 -1.54703 -0.222888 0
M  V30 439 H 39.6747 -1.71633 -2.75159 0
M  V30 440 H 39.4597 -3.34461 -2.04641 0
M  V30 441 H 40.9497 -2.95083 -2.95492 0
M  V30 442 N 41.3868 0.248026 -1.55636 0
M  V30 443 C 42.6348 0.974295 -1.77065 0
M  V30 444 C 42.9558 1.85897 -0.588849 0
M  V30 445 O 42.2258 1.91868 0.395407 0
M  V30 446 H 40.8058 0.362733 -0.653019 0
M  V30 447 H 43.4678 0.266244 -1.93073 0
M  V30 448 H 42.5638 1.59667 -2.68166 0
M  V30 449 N 42.8649 1.48995 0.513639 0
M  V30 450 C 44.1139 1.57093 1.2651 0
M  V30 451 C 44.4269 0.257091 1.93903 0
M  V30 452 O 45.6329 0.216478 2.70636 0
M  V30 453 C 44.0889 2.77118 2.29638 0
M  V30 454 C 43.6969 4.15209 1.68241 0
M  V30 455 C 45.4409 2.94538 3.05692 0
M  V30 456 C 43.3479 5.26474 2.69406 0
M  V30 457 H 42.2779 0.584876 0.475854 0
M  V30 458 H 44.9289 1.7536 0.540487 0
M  V30 459 H 43.3109 2.52319 3.05207 0
M  V30 460 H 44.4849 4.50094 0.987505 0
M  V30 461 H 42.7999 4.03042 1.04623 0
M  V30 462 H 45.3969 3.74832 3.8132 0
M  V30 463 H 45.7399 2.04614 3.62545 0
M  V30 464 H 46.2729 3.19316 2.37238 0
M  V30 465 H 43.0119 6.18417 2.17351 0
M  V30 466 H 42.5319 4.96058 3.37175 0
M  V30 467 H 44.2109 5.55277 3.32078 0
M  V30 468 N 44.343 -0.763751 1.37857 0
M  V30 469 C 45.568 -1.55805 1.36893 0
M  V30 470 C 45.993 -1.88054 -0.0416135 0
M  V30 471 O 45.351 -1.49825 -1.02089 0
M  V30 472 C 45.399 -2.84012 2.22192 0
M  V30 473 O 44.503 -3.78732 1.63204 0
M  V30 474 H 43.844 -0.471638 0.46739 0
M  V30 475 H 46.374 -0.944657 1.81487 0
M  V30 476 H 46.384 -3.33037 2.35691 0
M  V30 477 H 45.059 -2.59869 3.24716 0
M  V30 478 H 43.636 -3.37402 1.58791 0
M  V30 479 N 45.8211 -1.22559 -0.990812 0
M  V30 480 C 46.7541 -0.940773 -2.07905 0
M  V30 481 C 47.7321 0.117082 -1.62178 0
M  V30 482 O 48.9161 -0.0149506 -1.88494 0
M  V30 483 C 46.0431 -0.415321 -3.36144 0
M  V30 484 C 45.0891 -1.45818 -4.00799 0
M  V30 485 S 45.9221 -3.03219 -4.41382 0
M  V30 486 C 47.0781 -2.52317 -5.72789 0
M  V30 487 H 47.3111 -1.8623 -2.31745 0
M  V30 488 H 44.8441 -1.05688 -1.12558 0
M  V30 489 H 46.8021 -0.118747 -4.10328 0
M  V30 490 H 45.4631 0.485121 -3.10331 0
M  V30 491 H 44.6561 -1.04044 -4.93144 0
M  V30 492 H 44.2581 -1.70356 -3.32949 0
M  V30 493 H 46.5501 -1.93688 -6.49224 0
M  V30 494 H 47.4931 -3.43161 -6.19392 0
M  V30 495 H 47.9011 -1.93529 -5.30289 0
M  V30 496 N 47.2992 1.18797 -1.03562 0
M  V30 497 C 48.2292 2.24472 -0.643019 0
M  V30 498 C 49.2102 1.66433 0.351283 0
M  V30 499 O 50.3952 1.92803 0.232505 0
M  V30 500 C 47.5252 3.473 4.24935e-05 0
M  V30 501 C 46.4792 4.18055 -0.917257 0
M  V30 502 C 45.8052 5.34519 -0.138941 0
M  V30 503 C 47.1052 4.72109 -2.23407 0
M  V30 504 H 48.7992 2.57566 -1.52643 0
M  V30 505 H 46.3452 1.23806 -0.735394 0
M  V30 506 H 48.2982 4.20426 0.286383 0
M  V30 507 H 47.0222 3.13424 0.918299 0
M  V30 508 H 45.6812 3.46821 -1.1879 0
M  V30 509 H 45.3292 4.96891 0.781562 0
M  V30 510 H 45.0292 5.82794 -0.750005 0
M  V30 511 H 46.5532 6.10438 0.1405 0
M  V30 512 H 47.9672 5.36955 -2.00879 0
M  V30 513 H 46.3642 5.30897 -2.79765 0
M  V30 514 H 47.4342 3.89807 -2.88407 0
M  V30 515 N 48.7773 0.814389 1.34928 0
M  V30 516 C 49.6873 0.231978 2.3345 0
M  V30 517 C 50.7033 -0.629139 1.62228 0
M  V30 518 O 51.8793 -0.539052 1.94052 0
M  V30 519 C 48.9443 -0.603482 3.41407 0
M  V30 520 C 48.0053 0.279037 4.28392 0
M  V30 521 C 47.2383 -0.516643 5.31193 0
M  V30 522 O 47.4613 -1.75068 5.4287 0
M  V30 523 O 46.3953 0.0965652 6.01823 0
M  V30 524 H 50.2213 1.04721 2.85074 0
M  V30 525 H 47.8063 0.576343 1.37836 0
M  V30 526 H 49.6883 -1.07908 4.0735 0
M  V30 527 H 48.3633 -1.39618 2.92042 0
M  V30 528 H 47.2703 0.801948 3.65403 0
M  V30 529 H 48.6033 1.03588 4.81176 0
M  V30 530 N 50.2554 -1.46986 0.568584 0
M  V30 531 C 51.2054 -2.27179 -0.193339 0
M  V30 532 C 52.1894 -1.35035 -0.874895 0
M  V30 533 O 53.3814 -1.5931 -0.771322 0
M  V30 534 C 50.5104 -3.21063 -1.21546 0
M  V30 535 C 49.5964 -4.2069 -0.536738 0
M  V30 536 N 49.9874 -5.04218 0.399673 0
M  V30 537 C 48.2854 -4.38961 -0.789254 0
M  V30 538 C 48.9864 -5.76242 0.795017 0
M  V30 539 N 47.9624 -5.434 0.1473 0
M  V30 540 H 51.7644 -2.89146 0.526458 0
M  V30 541 H 49.2784 -1.57664 0.389342 0
M  V30 542 H 51.2754 -3.77209 -1.77536 0
M  V30 543 H 49.9354 -2.60654 -1.93623 0
M  V30 544 H 50.9464 -5.12077 0.774454 0
M  V30 545 H 47.6234 -3.89713 -1.49767 0
M  V30 546 H 49.0134 -6.53417 1.56513 0
M  V30 547 N 51.7335 -0.305618 -1.54608 0
M  V30 548 C 52.9795 0.302746 -2.00528 0
M  V30 549 C 53.3125 1.53184 -1.19367 0
M  V30 550 O 52.5875 1.92598 -0.271321 0
M  V30 551 C 52.8705 0.654756 -3.54097 0
M  V30 552 C 52.7235 -0.583793 -4.45995 0
M  V30 553 C 54.0425 1.47947 -4.14487 0
M  V30 554 H 51.1615 0.108564 -0.72896 0
M  V30 555 H 53.8035 -0.418634 -1.85331 0
M  V30 556 H 51.9535 1.26935 -3.67178 0
M  V30 557 H 53.6255 -1.22224 -4.44814 0
M  V30 558 H 51.8685 -1.21615 -4.16404 0
M  V30 559 H 52.5395 -0.293287 -5.5122 0
M  V30 560 H 55.0155 0.96013 -4.04871 0
M  V30 561 H 53.8915 1.69454 -5.22088 0
M  V30 562 H 54.1525 2.47011 -3.66658 0
M  V30 563 N 53.2116 1.57565 -0.0334293 0
M  V30 564 C 54.4586 1.91978 0.644272 0
M  V30 565 C 54.7866 0.910231 1.71887 0
M  V30 566 O 54.0416 -0.0801961 1.95536 0
M  V30 567 C 54.3406 3.33112 1.29504 0
M  V30 568 C 54.0066 4.49537 0.350388 0
M  V30 569 C 52.6686 4.81115 0.0903974 0
M  V30 570 C 55.0206 5.20347 -0.298032 0
M  V30 571 C 52.3486 5.8086 -0.825746 0
M  V30 572 C 54.7006 6.2107 -1.20226 0
M  V30 573 C 53.3646 6.51088 -1.4711 0
M  V30 574 H 52.6346 0.702496 0.235756 0
M  V30 575 H 55.2816 1.91259 -0.0961176 0
M  V30 576 H 53.5866 3.30113 2.11028 0
M  V30 577 H 55.2836 3.57011 1.82603 0
M  V30 578 H 51.8736 4.24883 0.563205 0
M  V30 579 H 56.0576 4.96178 -0.110234 0
M  V30 580 H 51.3136 6.02461 -1.04169 0
M  V30 581 H 55.4876 6.75057 -1.71086 0
M  V30 582 H 53.1146 7.28193 -2.18264 0
M  V30 583 N 54.6897 -0.239769 1.55765 0
M  V30 584 C 56.1057 -0.588624 1.48349 0
M  V30 585 C 56.3057 -1.88005 0.72502 0
M  V30 586 O 55.3617 -2.51186 0.257269 0
M  V30 587 C 56.6747 -0.68474 2.928 0
M  V30 588 C 58.2227 -0.77659 3.03213 0
M  V30 589 C 58.6977 -0.904207 4.48986 0
M  V30 590 N 60.1887 -0.968896 4.52953 0
M  V30 591 C 60.9237 -1.08703 5.63002 0
M  V30 592 N 60.4197 -1.17026 6.82845 0
M  V30 593 N 62.2127 -1.12074 5.50814 0
M  V30 594 H 54.3637 0.607911 2.03515 0
M  V30 595 H 56.6267 0.21083 0.924259 0
M  V30 596 H 56.3327 0.194284 3.51163 0
M  V30 597 H 56.2067 -1.55435 3.43686 0
M  V30 598 H 58.5937 -1.64606 2.44926 0
M  V30 599 H 58.6747 0.118315 2.55526 0
M  V30 600 H 58.3187 -0.0392633 5.07885 0
M  V30 601 H 58.2487 -1.81426 4.9436 0
M  V30 602 H 60.7397 -0.915633 3.6664 0
M  V30 603 H 61.0527 -1.25966 7.62465 0
M  V30 604 H 59.3977 -1.13971 6.85591 0
M  V30 605 H 62.5887 -1.05226 4.5612 0
M  V30 606 H 62.7617 -1.20936 6.36615 0
M  V30 607 N 56.1678 -1.49265 -0.50573 0
M  V30 608 C 57.3928 -1.62478 -1.28902 0
M  V30 609 C 57.8178 -0.294332 -1.85783 0
M  V30 610 O 57.1758 0.737412 -1.65626 0
M  V30 611 C 57.2238 -2.69268 -2.39848 0
M  V30 612 O 56.3278 -2.28113 -3.43567 0
M  V30 613 H 55.6688 -0.54399 -0.380751 0
M  V30 614 H 58.1988 -1.95421 -0.605952 0
M  V30 615 H 58.2088 -2.91291 -2.85681 0
M  V30 616 H 56.8838 -3.65846 -1.97812 0
M  V30 617 H 55.4608 -2.16401 -3.03685 0
M  V30 618 N 57.6459 0.756429 -1.3826 0
M  V30 619 C 58.8919 1.51772 -1.34511 0
M  V30 620 C 59.2249 1.94089 0.0656691 0
M  V30 621 O 58.4999 1.65221 1.02626 0
M  V30 622 C 58.7829 2.77226 -2.29821 0
M  V30 623 C 58.6359 2.41065 -3.79747 0
M  V30 624 C 59.9549 3.79236 -2.23312 0
M  V30 625 H 57.0739 0.550578 -0.489931 0
M  V30 626 H 59.7159 0.866607 -1.69086 0
M  V30 627 H 57.8659 3.32784 -2.00467 0
M  V30 628 H 59.5379 1.91303 -4.19763 0
M  V30 629 H 57.7809 1.7356 -3.97567 0
M  V30 630 H 58.4519 3.3081 -4.41892 0
M  V30 631 H 60.9279 3.3321 -2.49219 0
M  V30 632 H 59.8039 4.64714 -2.92116 0
M  V30 633 H 60.0649 4.24615 -1.23102 0
M  V30 634 N 59.124 1.23083 0.984299 0
M  V30 635 C 60.372 1.05848 1.72165 0
M  V30 636 C 60.693 -0.406049 1.90726 0
M  V30 637 O 59.963 -1.29139 1.47309 0
M  V30 638 H 58.543 0.388685 0.637913 0
M  V30 639 H 61.205 1.54736 1.18503 0
M  V30 640 H 60.301 1.54327 2.71274 0
M  V30 641 N 60.6021 -1.18246 1.0419 0
M  V30 642 C 61.5651 -2.20128 0.638452 0
M  V30 643 C 62.5651 -1.57885 -0.304805 0
M  V30 644 O 63.7551 -1.73967 -0.0900369 0
M  V30 645 C 60.8871 -3.4084 -0.0637751 0
M  V30 646 H 62.0801 -2.57336 1.54007 0
M  V30 647 H 59.6331 -1.32152 0.834598 0
M  V30 648 H 60.3681 -3.09166 -0.979136 0
M  V30 649 H 60.1531 -3.8726 0.614198 0
M  V30 650 H 61.6431 -4.16274 -0.332512 0
M  V30 651 N 62.0802 -0.821533 -1.34494 0
M  V30 652 C 63.3292 -0.405355 -1.97585 0
M  V30 653 C 63.6422 1.03677 -1.65863 0
M  V30 654 O 64.8482 1.55679 -2.22433 0
M  V30 655 C 63.3042 -0.673861 -3.53535 0
M  V30 656 C 62.9122 -2.12951 -3.94152 0
M  V30 657 C 64.6562 -0.32378 -4.23263 0
M  V30 658 C 62.5632 -2.34298 -5.43009 0
M  V30 659 H 61.4932 -0.147836 -0.739365 0
M  V30 660 H 64.1442 -1.00769 -1.53355 0
M  V30 661 H 62.5262 -0.00137554 -3.96 0
M  V30 662 H 63.7002 -2.84104 -3.62797 0
M  V30 663 H 62.0152 -2.44089 -3.37356 0
M  V30 664 H 64.6122 -0.461126 -5.32708 0
M  V30 665 H 64.9552 0.731586 -4.09821 0
M  V30 666 H 65.4882 -0.950786 -3.8627 0
M  V30 667 H 62.2272 -3.38335 -5.61435 0
M  V30 668 H 61.7472 -1.67687 -5.75883 0
M  V30 669 H 63.4262 -2.16588 -6.09671 0
M  V30 670 N 63.5583 1.46682 -0.576371 0
M  V30 671 C 64.4903 2.28341 0.198231 0
M  V30 672 C 65.5033 1.38141 0.861453 0
M  V30 673 O 66.6923 1.62797 0.732082 0
M  V30 674 C 63.7923 3.12986 1.29972 0
M  V30 675 C 62.9653 4.31271 0.729639 0
M  V30 676 C 62.0243 4.97363 1.71803 0
M  V30 677 O 61.0503 5.55156 1.25658 0
M  V30 678 N 62.2523 4.93796 3.05198 0
M  V30 679 H 65.0173 2.9546 -0.502324 0
M  V30 680 H 62.5783 1.56525 -0.413715 0
M  V30 681 H 64.5703 3.54066 1.96008 0
M  V30 682 H 63.1403 2.47984 1.90323 0
M  V30 683 H 62.3603 3.94052 -0.108012 0
M  V30 684 H 63.6483 5.07739 0.328438 0
M  V30 685 H 63.0463 4.48077 3.45317 0
M  V30 686 H 61.6033 5.38837 3.6674 0
M  V30 687 N 65.0364 0.313813 1.54444 0
M  V30 688 C 66.4474 -0.176243 1.85866 0
M  V30 689 C 66.7984 -1.52405 1.23561 0
M  V30 690 O 65.9234 -2.09605 0.538016 0
M  V30 691 C 66.5184 -0.32657 3.37222 0
M  V30 692 C 65.0774 -0.760846 3.6863 0
M  V30 693 C 64.2244 0.123247 2.77026 0
M  V30 694 H 67.1754 0.534418 1.49431 0
M  V30 695 H 67.1964 -1.15908 3.62416 0
M  V30 696 H 66.7084 0.654531 3.82541 0
M  V30 697 H 64.8094 -1.75204 3.28838 0
M  V30 698 H 64.9224 -0.571353 4.75681 0
M  V30 699 H 63.2864 -0.399597 2.51546 0
M  V30 700 H 64.0694 1.10094 3.25168 0
M  V30 701 N 66.5145 -1.57545 0.0417849 0
M  V30 702 C 67.4245 -2.14451 -0.951213 0
M  V30 703 C 68.4405 -1.09992 -1.34825 0
M  V30 704 O 69.6165 -1.42114 -1.42708 0
M  V30 705 C 66.6815 -2.67063 -2.21084 0
M  V30 706 C 65.7425 -3.86284 -1.87304 0
M  V30 707 C 64.9755 -4.36378 -3.07261 0
M  V30 708 O 65.1985 -3.85587 -4.20332 0
M  V30 709 O 64.1325 -5.28077 -2.88822 0
M  V30 710 H 67.9585 -2.99601 -0.497287 0
M  V30 711 H 65.5435 -1.48317 -0.179567 0
M  V30 712 H 67.4255 -3.00914 -2.95006 0
M  V30 713 H 66.1005 -1.84989 -2.65633 0
M  V30 714 H 65.0075 -3.57338 -1.10727 0
M  V30 715 H 66.3405 -4.6956 -1.47562 0
M  V30 716 N 67.9926 0.231505 -1.5589 0
M  V30 717 C 68.9396 1.28682 -1.91598 0
M  V30 718 C 69.9096 1.47071 -0.771974 0
M  V30 719 O 71.0946 1.60802 -1.027 0
M  V30 720 C 68.2346 2.6342 -2.22944 0
M  V30 721 C 67.3476 2.52912 -3.50228 0
M  V30 722 C 66.4826 3.80106 -3.7107 0
M  V30 723 C 65.5216 3.64279 -4.91902 0
M  V30 724 N 64.6586 4.834 -5.09184 0
M  V30 725 H 69.4986 0.975305 -2.81588 0
M  V30 726 H 67.0356 0.470299 -1.39379 0
M  V30 727 H 68.9936 3.41869 -2.39126 0
M  V30 728 H 67.6236 2.92687 -1.36139 0
M  V30 729 H 66.6756 1.6595 -3.42294 0
M  V30 730 H 67.9876 2.37133 -4.38827 0
M  V30 731 H 67.1416 4.66999 -3.87295 0
M  V30 732 H 65.8806 3.98799 -2.80733 0
M  V30 733 H 64.8856 2.7577 -4.75637 0
M  V30 734 H 66.1106 3.47067 -5.83714 0
M  V30 735 H 64.0566 5.02425 -4.21788 0
M  V30 736 H 63.9736 4.70311 -5.91898 0
M  V30 737 H 65.2416 5.71747 -5.29835 0
M  V30 738 N 69.4707 1.49531 0.497807 0
M  V30 739 C 70.6987 1.62893 1.27567 0
M  V30 740 C 71.1137 0.301585 1.86376 0
M  V30 741 O 70.4707 -0.713335 1.67982 0
M  V30 742 C 70.5217 2.70013 2.40364 0
M  V30 743 O 70.2427 3.976 1.83972 0
M  V30 744 C 71.7437 2.94109 3.31685 0
M  V30 745 H 68.9637 0.548298 0.386794 0
M  V30 746 H 71.5077 1.95584 0.597245 0
M  V30 747 H 69.6627 2.40092 3.04031 0
M  V30 748 H 70.0767 4.56631 2.58047 0
M  V30 749 H 71.5507 3.72788 4.07104 0
M  V30 750 H 72.0277 2.04147 3.88871 0
M  V30 751 H 72.6337 3.2546 2.73781 0
M  V30 752 N 70.9488 -0.749086 1.3866 0
M  V30 753 C 72.1948 -1.51056 1.35314 0
M  V30 754 C 72.5278 -1.94121 -0.0553751 0
M  V30 755 O 71.8028 -1.65763 -1.01749 0
M  V30 756 C 72.0858 -2.76003 2.31288 0
M  V30 757 C 71.9388 -2.39047 3.8102 0
M  V30 758 C 73.2578 -3.78046 2.2532 0
M  V30 759 H 70.3768 -0.547972 0.492844 0
M  V30 760 H 73.0188 -0.857628 1.69543 0
M  V30 761 H 71.1688 -3.31716 2.02229 0
M  V30 762 H 72.8408 -1.89074 4.20771 0
M  V30 763 H 71.0838 -1.71449 3.98482 0
M  V30 764 H 71.7548 -3.28462 4.4364 0
M  V30 765 H 74.2308 -3.31884 2.50983 0
M  V30 766 H 73.1068 -4.63159 2.94576 0
M  V30 767 H 73.3678 -4.23957 1.25352 0
M  V30 768 N 72.4269 -1.23603 -0.977757 0
M  V30 769 C 73.6549 -1.09646 -1.75458 0
M  V30 770 C 74.0699 0.351859 -1.85492 0
M  V30 771 O 73.4269 1.24327 -1.336 0
M  V30 772 C 73.4779 -1.71895 -3.18016 0
M  V30 773 O 73.1989 -3.11063 -3.08498 0
M  V30 774 C 74.6999 -1.63415 -4.12081 0
M  V30 775 H 71.9199 -0.38359 -0.550545 0
M  V30 776 H 74.4639 -1.63507 -1.22824 0
M  V30 777 H 72.6189 -1.22061 -3.67668 0
M  V30 778 H 73.0329 -3.41305 -3.9826 0
M  V30 779 H 74.5069 -2.11669 -5.09804 0
M  V30 780 H 74.9839 -0.593462 -4.35172 0
M  V30 781 H 75.5899 -2.12628 -3.68334 0
M  V30 782 N 73.905 1.17692 -1.04816 0
M  V30 783 C 75.151 1.88137 -0.75711 0
M  V30 784 C 75.484 1.80604 0.713841 0
M  V30 785 O 74.759 1.21146 1.52164 0
M  V30 786 C 75.042 3.38318 -1.2334 0
M  V30 787 C 74.895 3.54622 -2.76701 0
M  V30 788 C 76.214 4.32214 -0.829415 0
M  V30 789 H 73.333 0.683163 -0.27651 0
M  V30 790 H 75.975 1.38424 -1.30149 0
M  V30 791 H 74.125 3.80787 -0.770286 0
M  V30 792 H 75.797 3.21194 -3.31107 0
M  V30 793 H 74.04 2.97026 -3.16161 0
M  V30 794 H 74.711 4.60028 -3.05088 0
M  V30 795 H 77.187 3.97565 -1.22805 0
M  V30 796 H 76.063 5.35838 -1.19033 0
M  V30 797 H 76.324 4.41294 0.266891 0
M  V30 798 N 75.3831 0.828654 1.34056 0
M  V30 799 C 76.6291 0.42008 1.98402 0
M  V30 800 C 76.9621 -1.01564 1.65525 0
M  V30 801 O 76.2371 -1.70834 0.929831 0
M  V30 802 C 76.5201 0.62927 3.54559 0
M  V30 803 C 76.3731 2.11152 3.97159 0
M  V30 804 C 77.6921 0.0688756 4.40046 0
M  V30 805 H 74.8111 0.154104 0.720709 0
M  V30 806 H 77.4531 1.04228 1.5886 0
M  V30 807 H 75.6031 0.0996418 3.88372 0
M  V30 808 H 77.2751 2.70522 3.73651 0
M  V30 809 H 75.5181 2.59985 3.47261 0
M  V30 810 H 76.1891 2.20868 5.05887 0
M  V30 811 H 78.6651 0.521458 4.1282 0
M  V30 812 H 77.5411 0.245006 5.48353 0
M  V30 813 H 77.8021 -1.0266 4.30015 0
M  V30 814 N 76.8612 -1.46375 0.584142 0
M  V30 815 C 78.1092 -2.01978 0.0701287 0
M  V30 816 C 78.4302 -1.4579 -1.295 0
M  V30 817 O 77.7002 -0.64314 -1.85042 0
M  V30 818 H 76.2802 -0.746648 0.0229345 0
M  V30 819 H 78.9422 -1.79461 0.760245 0
M  V30 820 H 78.0382 -3.121 0.0022064 0
M  V30 821 N 78.3393 -0.321999 -1.54275 0
M  V30 822 C 79.2893 0.560185 -2.21011 0
M  V30 823 C 80.2733 1.08283 -1.19011 0
M  V30 824 O 81.4653 1.02011 -1.44647 0
M  V30 825 C 78.5943 1.72137 -2.97025 0
M  V30 826 C 77.6803 1.21369 -4.06363 0
M  V30 827 N 78.0713 0.425566 -5.04007 0
M  V30 828 C 76.3693 1.49255 -4.20284 0
M  V30 829 C 77.0703 0.152601 -5.815 0
M  V30 830 N 76.0463 0.738294 -5.38563 0
M  V30 831 H 79.8483 -0.049265 -2.93859 0
M  V30 832 H 77.3623 -0.127779 -1.61897 0
M  V30 833 H 79.3593 2.36512 -3.43319 0
M  V30 834 H 78.0193 2.33431 -2.25699 0
M  V30 835 H 79.0303 0.068551 -5.17855 0
M  V30 836 H 75.7073 2.11145 -3.60172 0
M  V30 837 H 77.0973 -0.481764 -6.70171 0
M  V30 838 N 79.8174 1.5752 -0.0501392 0
M  V30 839 C 80.7644 2.1147 0.924603 0
M  V30 840 C 81.7344 1.02182 1.30951 0
M  V30 841 O 82.9194 1.29723 1.39916 0
M  V30 842 C 80.0594 2.66337 2.19451 0
M  V30 843 C 79.1724 3.89708 1.86418 0
M  V30 844 C 78.3074 4.32893 3.07859 0
M  V30 845 C 77.3464 5.48967 2.70742 0
M  V30 846 N 76.4834 5.87211 3.84874 0
M  V30 847 H 81.3234 2.94465 0.457639 0
M  V30 848 H 78.8604 1.45531 0.214266 0
M  V30 849 H 80.8184 2.96247 2.93758 0
M  V30 850 H 79.4484 1.86141 2.63726 0
M  V30 851 H 78.5004 3.66396 1.02264 0
M  V30 852 H 79.8124 4.74074 1.55096 0
M  V30 853 H 78.9664 4.6435 3.90466 0
M  V30 854 H 77.7054 3.47336 3.42358 0
M  V30 855 H 76.7104 5.17183 1.86551 0
M  V30 856 H 77.9354 6.3624 2.37436 0
M  V30 857 H 75.8814 5.04607 4.19175 0
M  V30 858 H 75.7984 6.66266 3.57247 0
M  V30 859 H 77.0664 6.23282 4.68123 0
M  V30 860 N 81.2955 -0.223234 1.56011 0
M  V30 861 C 82.2585 -1.26014 1.9145 0
M  V30 862 C 83.2585 -1.3989 0.792937 0
M  V30 863 O 84.4485 -1.38184 1.0607 0
M  V30 864 C 81.5805 -2.63422 2.16383 0
M  V30 865 H 82.7735 -0.95796 2.84189 0
M  V30 866 H 80.3265 -0.463576 1.49267 0
M  V30 867 H 81.0615 -2.98741 1.2619 0
M  V30 868 H 80.8465 -2.54728 2.98088 0
M  V30 869 H 82.3365 -3.38249 2.44903 0
M  V30 870 N 82.7736 -1.49793 -0.48987 0
M  V30 871 C 83.6836 -1.70036 -1.61632 0
M  V30 872 C 84.6996 -0.583102 -1.63939 0
M  V30 873 O 85.8756 -0.859169 -1.82154 0
M  V30 874 C 82.9406 -1.77277 -2.97949 0
M  V30 875 C 82.0016 -3.00918 -3.06181 0
M  V30 876 C 81.2346 -3.07804 -4.35996 0
M  V30 877 O 81.4576 -2.21982 -5.25433 0
M  V30 878 O 80.3916 -4.00369 -4.49431 0
M  V30 879 H 84.2176 -2.65486 -1.47482 0
M  V30 880 H 81.8026 -1.33666 -0.667362 0
M  V30 881 H 83.6846 -1.84329 -3.78947 0
M  V30 882 H 82.3596 -0.850076 -3.12339 0
M  V30 883 H 81.2666 -2.99377 -2.2433 0
M  V30 884 H 82.5996 -3.92704 -2.96723 0
M  V30 885 N 84.2517 0.741722 -1.39055 0
M  V30 886 C 85.1817 1.869 -1.39966 0
M  V30 887 C 86.1627 1.6804 -0.26392 0
M  V30 888 O 87.3477 1.88458 -0.468755 0
M  V30 889 C 84.4777 3.24572 -1.23574 0
M  V30 890 C 83.4317 3.58056 -2.34477 0
M  V30 891 C 82.7577 4.94593 -2.0318 0
M  V30 892 C 84.0577 3.61716 -3.76774 0
M  V30 893 H 85.7517 1.86395 -2.34302 0
M  V30 894 H 83.2977 0.895361 -1.1278 0
M  V30 895 H 85.2507 4.031 -1.22834 0
M  V30 896 H 83.9747 3.25587 -0.257045 0
M  V30 897 H 82.6337 2.81854 -2.34423 0
M  V30 898 H 82.2817 4.92181 -1.03765 0
M  V30 899 H 81.9817 5.17964 -2.77465 0
M  V30 900 H 83.5057 5.75486 -2.04079 0
M  V30 901 H 84.9197 4.30335 -3.78794 0
M  V30 902 H 83.3167 3.96603 -4.50362 0
M  V30 903 H 84.3867 2.61672 -4.08235 0
M  V30 904 N 85.7298 1.2412 0.971189 0
M  V30 905 C 86.9758 1.08041 1.71625 0
M  V30 906 C 87.3088 -0.380407 1.90438 0
M  V30 907 O 86.5838 -1.28127 1.46334 0
M  V30 908 C 86.8668 1.81682 3.10908 0
M  V30 909 C 86.7198 3.35493 2.99608 0
M  V30 910 C 88.0388 1.58671 4.10501 0
M  V30 911 H 85.1578 0.39388 0.622919 0
M  V30 912 H 87.7998 1.52743 1.13003 0
M  V30 913 H 85.9498 1.43684 3.60953 0
M  V30 914 H 87.6218 3.83068 2.57015 0
M  V30 915 H 85.8648 3.64052 2.35899 0
M  V30 916 H 86.5358 3.82217 3.98264 0
M  V30 917 H 89.0118 1.91719 3.69301 0
M  V30 918 H 87.8878 2.1266 5.06031 0
M  V30 919 H 88.1488 0.524161 4.38982 0
M  V30 920 N 87.2079 -1.17134 1.05439 0
M  V30 921 C 88.1179 -2.24878 0.668365 0
M  V30 922 C 89.1339 -1.71186 -0.311687 0
M  V30 923 O 90.3099 -2.00738 -0.163161 0
M  V30 924 C 87.3749 -3.46662 0.051648 0
M  V30 925 C 86.4359 -4.15429 1.08246 0
M  V30 926 C 85.6689 -5.31399 0.495082 0
M  V30 927 O 85.8919 -5.66153 -0.694743 0
M  V30 928 O 84.8259 -5.89187 1.23056 0
M  V30 929 H 88.6519 -2.60189 1.56637 0
M  V30 930 H 86.2369 -1.24482 0.826104 0
M  V30 931 H 88.1189 -4.20394 -0.290966 0
M  V30 932 H 86.7939 -3.13142 -0.819971 0
M  V30 933 H 85.7009 -3.43704 1.47711 0
M  V30 934 H 87.0339 -4.52982 1.92532 0
M  V30 935 N 88.686 -0.835752 -1.33615 0
M  V30 936 C 89.596 -0.269088 -2.33052 0
M  V30 937 C 90.612 0.603251 -1.63208 0
M  V30 938 O 91.788 0.508112 -1.94885 0
M  V30 939 C 88.853 0.549091 -3.42324 0
M  V30 940 C 87.914 -0.347156 -4.27894 0
M  V30 941 C 87.147 0.43207 -5.31948 0
M  V30 942 O 87.37 1.66409 -5.45586 0
M  V30 943 O 86.304 -0.192298 -6.01593 0
M  V30 944 H 90.13 -1.09243 -2.83372 0
M  V30 945 H 87.715 -0.598198 -1.36901 0
M  V30 946 H 89.597 1.01414 -4.09015 0
M  V30 947 H 88.272 1.34955 -2.94226 0
M  V30 948 H 87.179 -0.859979 -3.64081 0
M  V30 949 H 88.512 -1.1123 -4.79467 0
M  V30 950 N 90.1641 1.46063 -0.591896 0
M  V30 951 C 91.4101 2.02638 -0.0811191 0
M  V30 952 C 91.7431 1.4613 1.27905 0
M  V30 953 O 91.0181 0.629908 1.84017 0
M  V30 954 C 91.3011 3.60091 -0.0252436 0
M  V30 955 C 91.1541 4.26965 -1.41496 0
M  V30 956 C 92.4731 4.3496 0.670685 0
M  V30 957 H 89.5921 0.73635 -0.0309524 0
M  V30 958 H 92.2341 1.741 -0.760859 0
M  V30 959 H 90.3841 3.84535 0.553624 0
M  V30 960 H 92.0561 4.13756 -2.0397 0
M  V30 961 H 90.2991 3.85971 -1.98011 0
M  V30 962 H 90.9701 5.35781 -1.32825 0
M  V30 963 H 93.4461 4.15716 0.178825 0
M  V30 964 H 92.3221 5.44686 0.678837 0
M  V30 965 H 92.5831 4.06685 1.73379 0
M  V30 966 N 91.6422 0.330177 1.54103 0
M  V30 967 C 92.5722 -0.525353 2.27513 0
M  V30 968 C 93.5532 -1.11383 1.2856 0
M  V30 969 O 94.7382 -1.13773 1.57383 0
M  V30 970 C 91.8682 -1.6831 3.03791 0
M  V30 971 C 90.8222 -1.2236 4.10137 0
M  V30 972 C 90.1482 -2.46882 4.74293 0
M  V30 973 C 91.4482 -0.333697 5.21233 0
M  V30 974 H 93.1422 0.087013 2.99274 0
M  V30 975 H 90.6882 0.0432893 1.43935 0
M  V30 976 H 92.6412 -2.28795 3.5388 0
M  V30 977 H 91.3652 -2.32216 2.29659 0
M  V30 978 H 90.0242 -0.64165 3.60941 0
M  V30 979 H 89.6722 -3.09165 3.96769 0
M  V30 980 H 89.3722 -2.16825 5.46133 0
M  V30 981 H 90.8962 -3.08117 5.27159 0
M  V30 982 H 92.3102 -0.845013 5.67038 0
M  V30 983 H 90.7072 -0.125612 5.99969 0
M  V30 984 H 91.7772 0.633724 4.80741 0
M  V30 985 N 93.1203 -1.57491 0.0584922 0
M  V30 986 C 94.0833 -2.1085 -0.898617 0
M  V30 987 C 95.0833 -1.02964 -1.23511 0
M  V30 988 O 96.2733 -1.29007 -1.17059 0
M  V30 989 C 93.4053 -2.59881 -2.20623 0
M  V30 990 H 94.5983 -2.96715 -0.435936 0
M  V30 991 H 92.1513 -1.55141 -0.190023 0
M  V30 992 H 92.8863 -1.77431 -2.71457 0
M  V30 993 H 92.6713 -3.38727 -1.97501 0
M  V30 994 H 94.1613 -3.01285 -2.89166 0
M  V30 995 N 94.5984 0.214957 -1.56127 0
M  V30 996 C 95.8464 0.936518 -1.79091 0
M  V30 997 C 96.1674 1.84606 -0.628148 0
M  V30 998 O 95.4374 1.92664 0.35462 0
M  V30 999 H 94.0174 0.3488 -0.660566 0
M  V30 1000 H 96.6794 0.22523 -1.93594 0
M  V30 1001 H 95.7754 1.53943 -2.71492 0
M  V30 1002 N 96.0765 1.50051 0.48192 0
M  V30 1003 C 97.0085 1.64263 1.59844 0
M  V30 1004 C 98.0215 0.52451 1.54119 0
M  V30 1005 O 99.2105 0.797293 1.59704 0
M  V30 1006 C 96.3105 1.60102 2.98698 0
M  V30 1007 C 95.4835 2.87767 3.29407 0
M  V30 1008 C 94.5425 2.76397 4.47762 0
M  V30 1009 O 93.5685 3.50348 4.48603 0
M  V30 1010 N 94.7705 1.89222 5.48794 0
M  V30 1011 H 97.5355 2.60566 1.48073 0
M  V30 1012 H 95.0965 1.47379 0.670149 0
M  V30 1013 H 97.0885 1.50123 3.75826 0
M  V30 1014 H 95.6585 0.715798 3.04294 0
M  V30 1015 H 94.8785 3.11954 2.40994 0
M  V30 1016 H 96.1665 3.72365 3.4673 0
M  V30 1017 H 95.5645 1.28434 5.50928 0
M  V30 1018 H 94.1215 1.85154 6.24949 0
M  V30 1019 N 97.5546 -0.734337 1.39446 0
M  V30 1020 C 98.7826 -1.52358 1.39981 0
M  V30 1021 C 99.1976 -1.88799 -0.0054975 0
M  V30 1022 O 98.5546 -1.54146 -0.976998 0
M  V30 1023 C 98.6056 -2.81072 2.27333 0
M  V30 1024 O 98.3266 -2.46178 3.62392 0
M  V30 1025 C 99.8276 -3.75096 2.36259 0
M  V30 1026 H 97.0476 -0.470806 0.478103 0
M  V30 1027 H 99.5916 -0.907339 1.83269 0
M  V30 1028 H 97.7466 -3.39026 1.87457 0
M  V30 1029 H 98.1606 -3.28866 4.08592 0
M  V30 1030 H 99.6346 -4.62305 3.01626 0
M  V30 1031 H 100.112 -4.16892 1.38194 0
M  V30 1032 H 100.718 -3.23061 2.76608 0
M  V30 1033 N 99.0327 -1.24633 -0.964593 0
M  V30 1034 C 99.9427 -1.05859 -2.09359 0
M  V30 1035 C 100.959 0.00148855 -1.74 0
M  V30 1036 O 102.135 -0.197346 -2.00431 0
M  V30 1037 C 99.1997 -0.668879 -3.40187 0
M  V30 1038 C 98.2607 -1.80578 -3.89474 0
M  V30 1039 C 97.4937 -1.43457 -5.14058 0
M  V30 1040 O 97.7167 -0.325775 -5.69469 0
M  V30 1041 O 96.6507 -2.2613 -5.57807 0
M  V30 1042 H 100.477 -2.00516 -2.28094 0
M  V30 1043 H 98.0617 -1.03481 -1.0776 0
M  V30 1044 H 99.9437 -0.463211 -4.18846 0
M  V30 1045 H 98.6187 0.248536 -3.22744 0
M  V30 1046 H 97.5257 -2.06623 -3.11862 0
M  V30 1047 H 98.8587 -2.70208 -4.11398 0
M  V30 1048 N 100.511 1.16574 -1.06058 0
M  V30 1049 C 101.758 1.87047 -0.775873 0
M  V30 1050 C 102.086 1.81562 0.697534 0
M  V30 1051 O 101.341 1.22445 1.52662 0
M  V30 1052 C 101.64 3.36195 -1.21275 0
M  V30 1053 C 101.306 3.6188 -2.68986 0
M  V30 1054 C 99.9678 3.68599 -3.09335 0
M  V30 1055 C 102.32 3.72648 -3.64394 0
M  V30 1056 C 99.6478 3.83584 -4.43937 0
M  V30 1057 C 102 3.89154 -4.98741 0
M  V30 1058 C 100.664 3.94114 -5.3873 0
M  V30 1059 H 99.9338 0.684452 -0.283912 0
M  V30 1060 H 102.581 1.37853 -1.32925 0
M  V30 1061 H 100.886 3.87505 -0.578528 0
M  V30 1062 H 102.583 3.89103 -0.969542 0
M  V30 1063 H 99.1728 3.57281 -2.36744 0
M  V30 1064 H 103.357 3.66769 -3.34356 0
M  V30 1065 H 98.6128 3.85677 -4.74409 0
M  V30 1066 H 102.787 3.96427 -5.72554 0
M  V30 1067 H 100.414 4.05478 -6.43033 0
M  V30 1068 N 101.989 0.842826 1.3317 0
M  V30 1069 C 103.235 0.441099 1.97945 0
M  V30 1070 C 103.568 -0.998024 1.66593 0
M  V30 1071 O 102.843 -1.69839 0.947898 0
M  V30 1072 C 103.126 0.666841 3.53872 0
M  V30 1073 C 102.979 2.15352 3.94897 0
M  V30 1074 C 104.298 0.115544 4.39948 0
M  V30 1075 H 101.417 0.161739 0.719034 0
M  V30 1076 H 104.059 1.05907 1.57746 0
M  V30 1077 H 102.209 0.140828 3.88245 0
M  V30 1078 H 103.881 2.7447 3.70761 0
M  V30 1079 H 102.124 2.63653 3.44484 0
M  V30 1080 H 102.795 2.26221 5.03516 0
M  V30 1081 H 105.271 0.565213 4.12243 0
M  V30 1082 H 104.147 0.303152 5.48062 0
M  V30 1083 H 104.408 -0.980935 4.3108 0
M  V30 1084 N 103.467 -1.45747 0.599634 0
M  V30 1085 C 104.695 -2.06668 0.0978551 0
M  V30 1086 C 105.11 -1.44562 -1.21439 0
M  V30 1087 O 104.467 -0.556923 -1.73795 0
M  V30 1088 C 104.518 -3.61456 -0.0567044 0
M  V30 1089 O 104.239 -4.21242 1.20361 0
M  V30 1090 C 105.74 -4.39345 -0.590869 0
M  V30 1091 H 102.96 -0.667825 0.0651943 0
M  V30 1092 H 105.504 -1.87115 0.82511 0
M  V30 1093 H 103.659 -3.80378 -0.734251 0
M  V30 1094 H 104.073 -5.14323 1.02821 0
M  V30 1095 H 105.547 -5.48182 -0.648131 0
M  V30 1096 H 106.024 -4.08568 -1.61147 0
M  V30 1097 H 106.63 -4.25268 0.0523679 0
M  V30 1098 N 104.945 -0.338344 -1.53925 0
M  V30 1099 C 105.877 0.555117 -2.22376 0
M  V30 1100 C 106.89 1.06812 -1.22862 0
M  V30 1101 O 108.079 0.979163 -1.49247 0
M  V30 1102 C 105.179 1.77609 -2.88631 0
M  V30 1103 C 104.352 1.39927 -4.14414 0
M  V30 1104 C 103.411 2.47936 -4.64127 0
M  V30 1105 O 102.437 2.11461 -5.28463 0
M  V30 1106 N 103.639 3.79107 -4.39612 0
M  V30 1107 H 106.404 -0.0310778 -2.99684 0
M  V30 1108 H 103.965 -0.162226 -1.61085 0
M  V30 1109 H 105.957 2.49287 -3.18807 0
M  V30 1110 H 104.527 2.26978 -2.14941 0
M  V30 1111 H 103.747 0.513481 -3.90841 0
M  V30 1112 H 105.035 1.12341 -4.96243 0
M  V30 1113 H 104.433 4.11531 -3.88148 0
M  V30 1114 H 102.99 4.4697 -4.74406 0
M  V30 1115 N 106.423 1.57458 -0.0668435 0
M  V30 1116 C 107.648 1.9804 0.616027 0
M  V30 1117 C 108.073 0.944771 1.62652 0
M  V30 1118 O 107.431 -0.0902094 1.81075 0
M  V30 1119 C 107.479 3.37665 1.26549 0
M  V30 1120 O 106.583 3.36701 2.38131 0
M  V30 1121 H 105.924 0.644719 0.158849 0
M  V30 1122 H 108.454 2.04121 -0.139891 0
M  V30 1123 H 108.464 3.7474 1.6135 0
M  V30 1124 H 107.139 4.12573 0.525016 0
M  V30 1125 H 105.716 3.1139 2.0516 0
M  V30 1126 N 107.901 -0.206675 1.56239 0
M  V30 1127 C 108.811 -1.27686 1.96808 0
M  V30 1128 C 109.827 -1.50455 0.874035 0
M  V30 1129 O 111.003 -1.63295 1.17884 0
M  V30 1130 C 108.068 -2.60358 2.28942 0
M  V30 1131 C 107.129 -2.45762 3.51994 0
M  V30 1132 C 106.362 -3.72108 3.82585 0
M  V30 1133 O 106.585 -4.75776 3.14631 0
M  V30 1134 O 105.519 -3.6833 4.76043 0
M  V30 1135 H 109.345 -0.962593 2.88041 0
M  V30 1136 H 106.93 -0.410746 1.43643 0
M  V30 1137 H 108.812 -3.38687 2.50737 0
M  V30 1138 H 107.487 -2.91435 1.4088 0
M  V30 1139 H 106.394 -1.65584 3.35459 0
M  V30 1140 H 107.727 -2.19621 4.40486 0
M  V30 1141 N 109.379 -1.50304 -0.473955 0
M  V30 1142 C 110.311 -1.65109 -1.58971 0
M  V30 1143 C 111.324 -0.532676 -1.53839 0
M  V30 1144 O 112.513 -0.805751 -1.59279 0
M  V30 1145 C 109.613 -1.61684 -2.97845 0
M  V30 1146 C 108.786 -2.8951 -3.27876 0
M  V30 1147 C 107.845 -2.78768 -4.4629 0
M  V30 1148 O 106.871 -3.52722 -4.46739 0
M  V30 1149 N 108.073 -1.9213 -5.47783 0
M  V30 1150 H 110.838 -2.61347 -1.46689 0
M  V30 1151 H 108.399 -1.47732 -0.662324 0
M  V30 1152 H 110.391 -1.52114 -3.75024 0
M  V30 1153 H 108.961 -0.731925 -3.03911 0
M  V30 1154 H 108.181 -3.13228 -2.39336 0
M  V30 1155 H 109.469 -3.74199 -3.4475 0
M  V30 1156 H 108.867 -1.31353 -5.50239 0
M  V30 1157 H 107.424 -1.88466 -6.23958 0
M  V30 1158 N 110.857 0.726932 -1.39834 0
M  V30 1159 C 111.787 1.85405 -1.41941 0
M  V30 1160 C 112.768 1.67751 -0.281728 0
M  V30 1161 O 113.953 1.8795 -0.488717 0
M  V30 1162 C 111.083 3.23243 -1.2701 0
M  V30 1163 C 110.037 3.55549 -2.38262 0
M  V30 1164 C 109.363 4.9241 -2.08415 0
M  V30 1165 C 110.663 3.577 -3.80589 0
M  V30 1166 H 112.357 1.83899 -2.36266 0
M  V30 1167 H 109.903 0.883349 -1.13723 0
M  V30 1168 H 111.856 4.01775 -1.27103 0
M  V30 1169 H 110.58 3.25296 -0.291564 0
M  V30 1170 H 109.239 2.79351 -2.37399 0
M  V30 1171 H 108.887 4.91052 -1.0898 0
M  V30 1172 H 108.587 5.14992 -2.82943 0
M  V30 1173 H 110.111 5.73289 -2.10171 0
M  V30 1174 H 111.525 4.26293 -3.83337 0
M  V30 1175 H 109.922 3.91804 -4.54543 0
M  V30 1176 H 110.992 2.57328 -4.10987 0
M  V30 1177 N 112.336 1.25143 0.95797 0
M  V30 1178 C 113.584 1.09476 1.69881 0
M  V30 1179 C 113.905 -0.365502 1.91544 0
M  V30 1180 O 113.175 -1.25985 1.50015 0
M  V30 1181 H 111.755 0.402128 0.629525 0
M  V30 1182 H 114.417 1.57214 1.15194 0
M  V30 1183 H 113.513 1.60046 2.6794 0
M  V30 1184 N 113.814 -1.1601 1.06675 0
M  V30 1185 C 115.042 -1.90527 0.806667 0
M  V30 1186 C 115.457 -1.77643 -0.639396 0
M  V30 1187 O 114.814 -1.12369 -1.43803 0
M  V30 1188 C 114.865 -3.41106 1.19705 0
M  V30 1189 O 114.586 -3.53608 2.58636 0
M  V30 1190 C 116.087 -4.32663 0.965266 0
M  V30 1191 H 113.307 -0.604053 0.292166 0
M  V30 1192 H 115.851 -1.47026 1.4214 0
M  V30 1193 H 114.006 -3.82296 0.626774 0
M  V30 1194 H 114.42 -4.47011 2.74375 0
M  V30 1195 H 115.894 -5.36763 1.288 0
M  V30 1196 H 116.371 -4.39089 -0.0987936 0
M  V30 1197 H 116.977 -3.97206 1.52011 0
M  V30 1198 N 115.292 -0.849877 -1.32721 0
M  V30 1199 C 116.54 -0.450032 -1.97026 0
M  V30 1200 C 116.861 0.996604 -1.67609 0
M  V30 1201 O 116.131 1.6958 -0.980786 0
M  V30 1202 H 114.711 -0.163426 -0.728904 0
M  V30 1203 H 117.373 -1.08526 -1.6189 0
M  V30 1204 H 116.469 -0.591146 -3.0645 0
M  V30 1205 N 116.77 1.45427 -0.607355 0
M  V30 1206 C 117.72 2.27612 0.133038 0
M  V30 1207 C 118.704 1.37307 0.838785 0
M  V30 1208 O 119.896 1.61299 0.728813 0
M  V30 1209 C 117.025 3.24173 1.12991 0
M  V30 1210 C 116.111 4.21965 0.425011 0
M  V30 1211 N 116.502 5.02982 -0.533217 0
M  V30 1212 C 114.8 4.40899 0.672593 0
M  V30 1213 C 115.501 5.73931 -0.947518 0
M  V30 1214 N 114.477 5.42819 -0.291321 0
M  V30 1215 H 118.279 2.87649 -0.602935 0
M  V30 1216 H 115.793 1.56576 -0.431006 0
M  V30 1217 H 117.79 3.81783 1.67473 0
M  V30 1218 H 116.45 2.65696 1.86644 0
M  V30 1219 H 117.461 5.09843 -0.90995 0
M  V30 1220 H 114.138 3.93547 1.39382 0
M  V30 1221 H 115.528 6.49037 -1.73782 0
M  V30 1222 N 118.248 0.346503 1.53744 0
M  V30 1223 C 119.211 -0.496439 2.23759 0
M  V30 1224 C 120.211 -1.0252 1.2388 0
M  V30 1225 O 121.401 -0.913974 1.48297 0
M  V30 1226 C 118.533 -1.69187 2.95954 0
M  V30 1227 H 119.726 0.115952 2.99676 0
M  V30 1228 H 117.279 0.0978939 1.55993 0
M  V30 1229 H 118.014 -2.34288 2.24231 0
M  V30 1230 H 117.799 -1.31989 3.69217 0
M  V30 1231 H 119.289 -2.28969 3.49232 0
M  V30 1232 N 119.726 -1.57421 0.075193 0
M  V30 1233 C 120.972 -1.93905 -0.594025 0
M  V30 1234 C 121.305 -0.955701 -1.69056 0
M  V30 1235 O 120.58 0.0145373 -1.94495 0
M  V30 1236 C 120.863 -3.40638 -1.1678 0
M  V30 1237 C 120.716 -4.49733 -0.0776792 0
M  V30 1238 C 122.035 -3.88259 -2.07228 0
M  V30 1239 H 119.154 -0.705105 -0.214466 0
M  V30 1240 H 121.796 -1.8947 0.141854 0
M  V30 1241 H 119.946 -3.44549 -1.79494 0
M  V30 1242 H 121.618 -4.57942 0.555573 0
M  V30 1243 H 119.861 -4.29751 0.591286 0
M  V30 1244 H 120.532 -5.49549 -0.519603 0
M  V30 1245 H 123.008 -3.86376 -1.54445 0
M  V30 1246 H 121.884 -4.91533 -2.44308 0
M  V30 1247 H 122.145 -3.26396 -2.98191 0
M  V30 1248 N 121.204 0.198386 -1.56346 0
M  V30 1249 C 122.137 1.27381 -1.89339 0
M  V30 1250 C 123.115 1.44106 -0.753134 0
M  V30 1251 O 124.299 1.59549 -1.00381 0
M  V30 1252 C 121.426 2.6409 -2.12071 0
M  V30 1253 C 120.472 2.64253 -3.34772 0
M  V30 1254 S 121.305 2.16013 -4.89999 0
M  V30 1255 C 122.461 3.54553 -5.15794 0
M  V30 1256 H 122.694 0.992058 -2.8026 0
M  V30 1257 H 120.227 0.401726 -1.49082 0
M  V30 1258 H 122.185 3.42786 -2.2585 0
M  V30 1259 H 120.846 2.89478 -1.21906 0
M  V30 1260 H 120.039 3.64768 -3.47794 0
M  V30 1261 H 119.641 1.93637 -3.1997 0
M  V30 1262 H 121.933 4.50396 -5.06112 0
M  V30 1263 H 122.876 3.46428 -6.1757 0
M  V30 1264 H 123.284 3.49313 -4.43442 0
M  V30 1265 N 122.682 1.50554 0.465978 0
M  V30 1266 C 123.615 1.64436 1.58227 0
M  V30 1267 C 124.593 0.492367 1.54966 0
M  V30 1268 O 125.777 0.712536 1.74514 0
M  V30 1269 C 122.904 1.63165 2.96808 0
M  V30 1270 C 121.95 2.83987 3.18204 0
M  V30 1271 S 122.783 4.45219 2.97557 0
M  V30 1272 C 123.939 4.46649 4.3847 0
M  V30 1273 H 124.172 2.58861 1.46213 0
M  V30 1274 H 121.705 1.3988 0.653678 0
M  V30 1275 H 123.663 1.63116 3.76701 0
M  V30 1276 H 122.324 0.69967 3.06208 0
M  V30 1277 H 121.517 2.79416 4.19455 0
M  V30 1278 H 121.119 2.81629 2.46092 0
M  V30 1279 H 123.411 4.20526 5.31191 0
M  V30 1280 H 124.354 5.48295 4.48082 0
M  V30 1281 H 124.762 3.76296 4.20787 0
M  V30 1282 N 124.16 -0.719506 1.40217 0
M  V30 1283 C 125.388 -1.50864 1.41589 0
M  V30 1284 C 125.803 -1.88794 0.0145275 0
M  V30 1285 O 125.16 -1.55174 -0.960594 0
M  V30 1286 C 125.211 -2.78646 2.30302 0
M  V30 1287 O 124.932 -2.42321 3.64983 0
M  V30 1288 C 126.433 -3.72569 2.40224 0
M  V30 1289 H 123.653 -0.465709 0.48307 0
M  V30 1290 H 126.197 -0.88785 1.84221 0
M  V30 1291 H 124.352 -3.37019 1.91042 0
M  V30 1292 H 124.766 -3.24514 4.12057 0
M  V30 1293 H 126.24 -4.5908 3.06512 0
M  V30 1294 H 126.717 -4.15403 1.42608 0
M  V30 1295 H 127.323 -3.20109 2.80019 0
M  V30 1296 N 125.638 -1.25649 -0.95132 0
M  V30 1297 C 126.548 -1.08073 -2.08224 0
M  V30 1298 C 127.564 -0.0169666 -1.73992 0
M  V30 1299 O 128.74 -0.218593 -2.0021 0
M  V30 1300 C 125.805 -0.704922 -3.39458 0
M  V30 1301 C 124.866 -1.84699 -3.87537 0
M  V30 1302 C 124.099 -1.48902 -5.12508 0
M  V30 1303 O 124.322 -0.386156 -5.69091 0
M  V30 1304 O 123.256 -2.32033 -5.55378 0
M  V30 1305 H 127.082 -2.02924 -2.25954 0
M  V30 1306 H 124.667 -1.04618 -1.06656 0
M  V30 1307 H 126.549 -0.507609 -4.18332 0
M  V30 1308 H 125.224 0.214291 -3.2299 0
M  V30 1309 H 124.131 -2.09919 -3.09653 0
M  V30 1310 H 125.464 -2.74557 -4.08509 0
M  V30 1311 N 127.117 1.15442 -1.07289 0
M  V30 1312 C 128.528 1.67803 -0.818475 0
M  V30 1313 C 128.879 1.8489 0.656507 0
M  V30 1314 O 128.004 1.55176 1.50829 0
M  V30 1315 C 128.599 3.04805 -1.47917 0
M  V30 1316 C 127.158 3.54245 -1.27229 0
M  V30 1317 C 126.305 2.29986 -1.54925 0
M  V30 1318 H 129.256 0.996646 -1.23502 0
M  V30 1319 H 129.277 3.69702 -0.90005 0
M  V30 1320 H 128.789 2.92336 -2.55267 0
M  V30 1321 H 126.89 3.71956 -0.21899 0
M  V30 1322 H 127.003 4.35723 -1.99203 0
M  V30 1323 H 125.367 2.35496 -0.970242 0
M  V30 1324 H 126.15 2.20105 -2.63455 0
M  V30 1325 N 128.595 0.856903 1.32268 0
M  V30 1326 C 129.844 0.457599 1.96441 0
M  V30 1327 C 130.157 -0.992426 1.68553 0
M  V30 1328 O 131.363 -1.49727 2.26482 0
M  V30 1329 C 129.819 0.767358 3.51624 0
M  V30 1330 C 129.427 2.23326 3.88367 0
M  V30 1331 C 131.171 0.435887 4.22256 0
M  V30 1332 C 129.078 2.48613 5.36606 0
M  V30 1333 H 128.008 0.167387 0.735185 0
M  V30 1334 H 130.659 1.048 1.5063 0
M  V30 1335 H 129.041 0.106367 3.95857 0
M  V30 1336 H 130.215 2.93623 3.55137 0
M  V30 1337 H 128.53 2.52948 3.30766 0
M  V30 1338 H 131.127 0.602202 5.31298 0
M  V30 1339 H 131.47 -0.622672 4.11617 0
M  V30 1340 H 132.003 1.05286 3.83614 0
M  V30 1341 H 128.742 3.53101 5.52268 0
M  V30 1342 H 128.262 1.82896 5.71235 0
M  V30 1343 H 129.941 2.32676 6.03714 0
M  V30 1344 N 130.073 -1.45103 0.615059 0
M  V30 1345 C 131.003 -2.33339 -0.0865619 0
M  V30 1346 C 131.984 -1.4727 -0.851209 0
M  V30 1347 O 133.169 -1.76026 -0.820281 0
M  V30 1348 C 130.299 -3.30095 -1.07956 0
M  V30 1349 C 129.253 -4.25858 -0.427628 0
M  V30 1350 C 128.579 -5.12361 -1.5294 0
M  V30 1351 C 129.879 -5.18165 0.655944 0
M  V30 1352 H 131.573 -2.92254 0.650224 0
M  V30 1353 H 129.119 -1.40532 0.314138 0
M  V30 1354 H 131.072 -3.90698 -1.57901 0
M  V30 1355 H 129.796 -2.69355 -1.84703 0
M  V30 1356 H 128.455 -3.66564 0.0510292 0
M  V30 1357 H 128.103 -4.47984 -2.28734 0
M  V30 1358 H 127.803 -5.77238 -1.09865 0
M  V30 1359 H 129.327 -5.75833 -2.03098 0
M  V30 1360 H 130.741 -5.72796 0.240257 0
M  V30 1361 H 129.138 -5.91559 1.00888 0
M  V30 1362 H 130.208 -4.60144 1.52957 0
M  V30 1363 N 131.551 -0.354651 -1.53558 0
M  V30 1364 C 132.461 0.50515 -2.29097 0
M  V30 1365 C 133.477 1.10223 -1.34636 0
M  V30 1366 O 134.653 1.11553 -1.67684 0
M  V30 1367 C 131.718 1.63479 -3.05738 0
M  V30 1368 C 130.779 1.06636 -4.15845 0
M  V30 1369 C 130.012 2.14217 -4.88822 0
M  V30 1370 O 130.235 3.35137 -4.61562 0
M  V30 1371 O 129.169 1.77887 -5.75013 0
M  V30 1372 H 132.995 -0.109237 -3.03503 0
M  V30 1373 H 130.58 -0.119357 -1.48922 0
M  V30 1374 H 132.462 2.2918 -3.5363 0
M  V30 1375 H 131.137 2.23478 -2.34178 0
M  V30 1376 H 130.044 0.373565 -3.7223 0
M  V30 1377 H 131.377 0.511081 -4.89539 0
M  V30 1378 N 133.029 1.57378 -0.0835403 0
M  V30 1379 C 134.277 1.93547 0.581718 0
M  V30 1380 C 134.598 0.96524 1.69435 0
M  V30 1381 O 133.868 0.0153369 1.95894 0
M  V30 1382 H 132.448 0.714521 0.217874 0
M  V30 1383 H 135.11 1.94366 -0.144158 0
M  V30 1384 H 134.206 2.95665 0.999423 0
M  V30 1385 N 134.507 -0.190092 1.56449 0
M  V30 1386 C 135.437 -1.23816 1.97969 0
M  V30 1387 C 136.418 -1.47201 0.852395 0
M  V30 1388 O 137.603 -1.58854 1.1171 0
M  V30 1389 C 134.733 -2.5813 2.3235 0
M  V30 1390 C 133.687 -2.49348 3.47864 0
M  V30 1391 C 133.013 -3.8798 3.67934 0
M  V30 1392 C 134.313 -2.01424 4.81898 0
M  V30 1393 H 136.007 -0.89311 2.85769 0
M  V30 1394 H 133.553 -0.428177 1.37487 0
M  V30 1395 H 135.506 -3.31637 2.59991 0
M  V30 1396 H 134.23 -2.94386 1.41438 0
M  V30 1397 H 132.889 -1.78297 3.20321 0
M  V30 1398 H 132.537 -4.21597 2.74344 0
M  V30 1399 H 132.237 -3.82978 4.45648 0
M  V30 1400 H 133.761 -4.63101 3.97957 0
M  V30 1401 H 135.175 -2.64693 5.08538 0
M  V30 1402 H 133.572 -2.07413 5.63116 0
M  V30 1403 H 134.642 -0.967677 4.75146 0
M  V30 1404 N 135.985 -1.50799 -0.457987 0
M  V30 1405 C 137.21 -1.66496 -1.23668 0
M  V30 1406 C 137.635 -0.353288 -1.84752 0
M  V30 1407 O 136.993 0.684346 -1.67888 0
M  V30 1408 C 137.041 -2.76763 -2.3116 0
M  V30 1409 O 136.145 -2.38928 -3.36136 0
M  V30 1410 H 135.486 -0.555828 -0.363252 0
M  V30 1411 H 138.016 -1.9725 -0.543474 0
M  V30 1412 H 138.026 -3.00232 -2.76269 0
M  V30 1413 H 136.701 -3.71954 -1.86073 0
M  V30 1414 H 135.278 -2.25953 -2.96647 0
M  V30 1415 N 137.463 0.71206 -1.40597 0
M  V30 1416 C 138.711 1.46907 -1.38791 0
M  V30 1417 C 139.032 1.94998 0.00780391 0
M  V30 1418 O 138.302 1.70587 0.963174 0
M  V30 1419 H 136.882 0.545043 -0.51082 0
M  V30 1420 H 139.544 0.843882 -1.75683 0
M  V30 1421 H 138.64 2.34021 -2.06496 0
M  V30 1422 N 138.941 1.26152 0.944643 0
M  V30 1423 C 139.891 1.04081 2.02857 0
M  V30 1424 C 140.875 -0.0256555 1.6088 0
M  V30 1425 O 142.067 0.190884 1.75968 0
M  V30 1426 C 139.196 0.672118 3.36656 0
M  V30 1427 C 138.282 1.77586 3.85128 0
M  V30 1428 N 138.673 3.01272 4.06287 0
M  V30 1429 C 136.971 1.65867 4.1401 0
M  V30 1430 C 137.672 3.72983 4.46384 0
M  V30 1431 N 136.648 3.00653 4.52889 0
M  V30 1432 H 140.45 1.97968 2.17223 0
M  V30 1433 H 137.964 1.16618 1.13022 0
M  V30 1434 H 139.961 0.495166 4.13949 0
M  V30 1435 H 138.621 -0.259307 3.23663 0
M  V30 1436 H 139.632 3.37213 3.93075 0
M  V30 1437 H 136.309 0.796907 4.09824 0
M  V30 1438 H 137.699 4.792 4.70975 0
M  V30 1439 N 140.419 -1.14872 1.07899 0
M  V30 1440 C 141.647 -1.89661 0.82683 0
M  V30 1441 C 142.062 -1.78312 -0.620519 0
M  V30 1442 O 141.419 -1.13888 -1.42604 0
M  V30 1443 C 141.47 -3.39817 1.23316 0
M  V30 1444 O 141.191 -3.50845 2.62372 0
M  V30 1445 C 142.692 -4.31615 1.0111 0
M  V30 1446 H 139.912 -0.60092 0.298557 0
M  V30 1447 H 142.456 -1.4551 1.43691 0
M  V30 1448 H 140.611 -3.8161 0.667286 0
M  V30 1449 H 141.025 -4.44076 2.79101 0
M  V30 1450 H 142.499 -5.35367 1.34486 0
M  V30 1451 H 142.976 -4.39169 -0.0522168 0
M  V30 1452 H 143.582 -3.95572 1.56215 0
M  V30 1453 N 141.898 -0.863906 -1.31812 0
M  V30 1454 C 142.828 -0.330843 -2.31144 0
M  V30 1455 C 143.809 0.575005 -1.60087 0
M  V30 1456 O 144.994 0.493304 -1.8783 0
M  V30 1457 C 142.124 0.47374 -3.44054 0
M  V30 1458 C 141.078 -0.338481 -4.26659 0
M  V30 1459 C 140.404 0.591412 -5.31419 0
M  V30 1460 C 141.704 -1.56926 -4.98168 0
M  V30 1461 H 143.398 -1.16086 -2.75979 0
M  V30 1462 H 140.944 -0.559657 -1.32679 0
M  V30 1463 H 142.897 0.857143 -4.12591 0
M  V30 1464 H 141.621 1.33721 -2.9797 0
M  V30 1465 H 140.28 -0.703754 -3.59782 0
M  V30 1466 H 139.928 1.45199 -4.81587 0
M  V30 1467 H 139.628 0.0519022 -5.87577 0
M  V30 1468 H 141.152 0.97179 -6.02817 0
M  V30 1469 H 142.566 -1.25764 -5.59336 0
M  V30 1470 H 140.963 -2.04739 -5.64094 0
M  V30 1471 H 142.033 -2.32544 -4.25501 0
M  V30 1472 N 143.376 1.44774 -0.622745 0
M  V30 1473 C 144.622 2.0242 -0.124083 0
M  V30 1474 C 144.955 1.4881 1.24777 0
M  V30 1475 O 144.23 0.668799 1.8264 0
M  V30 1476 C 144.513 3.59957 -0.101619 0
M  V30 1477 C 144.366 4.23867 -1.50521 0
M  V30 1478 C 145.685 4.36284 0.578272 0
M  V30 1479 H 142.804 0.735528 -0.0465645 0
M  V30 1480 H 145.446 1.72447 -0.797617 0
M  V30 1481 H 143.596 3.85623 0.471934 0
M  V30 1482 H 145.268 4.09336 -2.12701 0
M  V30 1483 H 143.511 3.81684 -2.06154 0
M  V30 1484 H 144.182 5.32843 -1.4416 0
M  V30 1485 H 146.658 4.16001 0.0906057 0
M  V30 1486 H 145.534 5.46004 0.563149 0
M  V30 1487 H 145.795 4.10271 1.64713 0
M  V30 1488 N 144.854 0.36279 1.53368 0
M  V30 1489 C 146.103 -0.22888 2.00397 0
M  V30 1490 C 146.416 -1.50096 1.25421 0
M  V30 1491 O 147.622 -2.17106 1.63025 0
M  V30 1492 C 146.078 -0.458417 3.56969 0
M  V30 1493 C 145.686 0.798877 4.4082 0
M  V30 1494 C 147.43 -1.00789 4.12361 0
M  V30 1495 C 145.337 0.539078 5.88938 0
M  V30 1496 H 144.267 -0.089305 0.748693 0
M  V30 1497 H 146.918 0.481099 1.77081 0
M  V30 1498 H 145.3 -1.22959 3.76427 0
M  V30 1499 H 146.474 1.57262 4.33134 0
M  V30 1500 H 144.789 1.27137 3.96516 0
M  V30 1501 H 147.386 -1.21754 5.20653 0
M  V30 1502 H 147.729 -1.9692 3.66781 0
M  V30 1503 H 148.262 -0.296961 3.9669 0
M  V30 1504 H 145.001 1.47064 6.3879 0
M  V30 1505 H 144.521 -0.196222 5.99479 0
M  V30 1506 H 146.2 0.163542 6.46793 0
M  V30 1507 N 146.332 -1.57332 0.0918853 0
M  V30 1508 C 147.295 -2.12708 -0.85369 0
M  V30 1509 C 148.295 -1.05561 -1.213 0
M  V30 1510 O 149.485 -1.31461 -1.14296 0
M  V30 1511 C 146.617 -2.64503 -2.15061 0
M  V30 1512 H 147.81 -2.97573 -0.3729 0
M  V30 1513 H 145.363 -1.55509 -0.157072 0
M  V30 1514 H 146.098 -1.83149 -2.67632 0
M  V30 1515 H 145.883 -3.4284 -1.90272 0
M  V30 1516 H 147.373 -3.07351 -2.82711 0
M  V30 1517 N 147.81 0.181792 -1.56548 0
M  V30 1518 C 149.058 0.89832 -1.81038 0
M  V30 1519 C 149.379 1.83232 -0.667164 0
M  V30 1520 O 148.649 1.93372 0.313673 0
M  V30 1521 H 147.229 0.33471 -0.667816 0
M  V30 1522 H 149.891 0.184116 -1.94028 0
M  V30 1523 H 148.987 1.4815 -2.74696 0
M  V30 1524 N 149.288 1.51039 0.449983 0
M  V30 1525 C 150.565 1.53612 1.21089 0
M  V30 1526 C 150.945 0.292997 2.09057 0
M  V30 1527 O 150.293 -0.72259 2.16774 0
M  V30 1528 C 150.503 2.84337 2.0237 0
M  V30 1529 C 151.851 3.35807 2.59843 0
M  V30 1530 O 152.875 2.85802 2.12593 0
M  V30 1531 O 151.734 4.23029 3.45989 0
M  V30 1532 H 148.828 0.617057 0.550608 0
M  V30 1533 H 151.374 1.63344 0.460082 0
M  V30 1534 H 150.146 3.66278 1.37681 0
M  V30 1535 H 149.769 2.77708 2.84542 0
M  V30 1536 N 150.766 -0.704594 1.40972 0
M  V30 1537 C 151.994 -1.49354 1.43182 0
M  V30 1538 C 152.409 -1.88768 0.0345508 0
M  V30 1539 O 151.766 -1.56184 -0.944081 0
M  V30 1540 C 151.817 -2.76187 2.33244 0
M  V30 1541 O 151.538 -2.38436 3.67532 0
M  V30 1542 C 153.039 -3.7 2.44162 0
M  V30 1543 H 150.259 -0.460559 0.487982 0
M  V30 1544 H 152.803 -0.868261 1.85153 0
M  V30 1545 H 150.958 -3.34974 1.94606 0
M  V30 1546 H 151.372 -3.20126 4.15475 0
M  V30 1547 H 152.846 -4.55803 3.11364 0
M  V30 1548 H 153.323 -4.13867 1.47006 0
M  V30 1549 H 153.929 -3.17121 2.83398 0
M  V30 1550 N 152.244 -1.26651 -0.937939 0
M  V30 1551 C 153.655 -1.1125 -1.49934 0
M  V30 1552 C 154.006 0.306077 -1.93798 0
M  V30 1553 O 153.131 1.19792 -1.80219 0
M  V30 1554 C 153.726 -2.01339 -2.72485 0
M  V30 1555 C 152.285 -1.90074 -3.24883 0
M  V30 1556 C 151.432 -1.94498 -1.97651 0
M  V30 1557 H 154.383 -1.39693 -0.753091 0
M  V30 1558 H 154.404 -1.56319 -3.46907 0
M  V30 1559 H 153.916 -3.04577 -2.40529 0
M  V30 1560 H 152.017 -0.897827 -3.61621 0
M  V30 1561 H 152.13 -2.75778 -3.9177 0
M  V30 1562 H 150.494 -1.38591 -2.13693 0
M  V30 1563 H 151.277 -2.99372 -1.68022 0
M  V30 1564 N 153.722 1.14298 -1.08507 0
M  V30 1565 C 154.652 2.21542 -0.737646 0
M  V30 1566 C 155.633 1.67773 0.280377 0
M  V30 1567 O 156.818 1.93616 0.150521 0
M  V30 1568 C 153.948 3.46988 -0.147259 0
M  V30 1569 C 152.902 4.13789 -1.09374 0
M  V30 1570 C 152.228 5.33449 -0.365524 0
M  V30 1571 C 153.528 4.62208 -2.4323 0
M  V30 1572 H 155.222 2.5086 -1.6343 0
M  V30 1573 H 152.768 1.20576 -0.787243 0
M  V30 1574 H 154.721 4.21262 0.107808 0
M  V30 1575 H 153.445 3.17037 0.784538 0
M  V30 1576 H 152.104 3.4147 -1.33393 0
M  V30 1577 H 151.752 4.99759 0.57011 0
M  V30 1578 H 151.452 5.79088 -0.996512 0
M  V30 1579 H 152.976 6.10485 -0.118534 0
M  V30 1580 H 154.39 5.27952 -2.23472 0
M  V30 1581 H 152.787 5.18553 -3.02031 0
M  V30 1582 H 153.857 3.77224 -3.04681 0
M  V30 1583 N 155.201 0.870884 1.31352 0
M  V30 1584 C 156.45 0.478408 1.95944 0
M  V30 1585 C 156.763 -0.974493 1.69597 0
M  V30 1586 O 157.969 -1.47316 2.28058 0
M  V30 1587 C 156.425 0.804609 3.50791 0
M  V30 1588 C 156.033 2.27433 3.85977 0
M  V30 1589 C 157.777 0.480648 4.2177 0
M  V30 1590 C 155.684 2.5429 5.33939 0
M  V30 1591 H 154.614 0.175175 0.733369 0
M  V30 1592 H 157.265 1.06391 1.4951 0
M  V30 1593 H 155.647 0.148347 3.95722 0
M  V30 1594 H 156.821 2.97373 3.52002 0
M  V30 1595 H 155.136 2.56442 3.28065 0
M  V30 1596 H 157.733 0.658519 5.30629 0
M  V30 1597 H 158.076 -0.578979 4.12254 0
M  V30 1598 H 158.609 1.09349 3.82476 0
M  V30 1599 H 155.348 3.58939 5.48491 0
M  V30 1600 H 154.868 1.88945 5.69263 0
M  V30 1601 H 156.547 2.39066 6.01212 0
M  V30 1602 N 156.679 -1.44442 0.630414 0
M  V30 1603 C 157.907 -2.06414 0.141671 0
M  V30 1604 C 158.322 -1.47105 -1.18345 0
M  V30 1605 O 157.679 -0.593662 -1.72574 0
M  V30 1606 C 157.73 -3.61494 0.0199784 0
M  V30 1607 O 157.451 -4.18594 1.29269 0
M  V30 1608 C 158.952 -4.40499 -0.497544 0
M  V30 1609 H 156.172 -0.666292 0.0793452 0
M  V30 1610 H 158.716 -1.85323 0.864614 0
M  V30 1611 H 156.871 -3.8185 -0.653402 0
M  V30 1612 H 157.285 -5.12026 1.13707 0
M  V30 1613 H 158.759 -5.49433 -0.531708 0
M  V30 1614 H 159.236 -4.11895 -1.52445 0
M  V30 1615 H 159.842 -4.25061 0.142562 0
M  V30 1616 N 158.157 -0.370918 -1.53173 0
M  V30 1617 C 159.405 0.216673 -2.00935 0
M  V30 1618 C 159.726 1.48845 -1.25977 0
M  V30 1619 O 158.996 1.92286 -0.374551 0
M  V30 1620 H 157.576 0.0830565 -0.742368 0
M  V30 1621 H 160.238 -0.49838 -1.8842 0
M  V30 1622 H 159.334 0.439893 -3.08984 0
M  V30 1623 N 159.635 1.57281 -0.100228 0
M  V30 1624 C 160.545 2.17833 0.870965 0
M  V30 1625 C 161.561 1.14921 1.30649 0
M  V30 1626 O 162.737 1.47313 1.37335 0
M  V30 1627 C 159.802 2.75085 2.1102 0
M  V30 1628 C 158.863 3.9297 1.72838 0
M  V30 1629 C 158.096 4.47482 2.90854 0
M  V30 1630 O 158.319 4.00922 4.05731 0
M  V30 1631 O 157.253 5.38433 2.69023 0
M  V30 1632 H 161.079 3.0124 0.38575 0
M  V30 1633 H 158.664 1.48881 0.124397 0
M  V30 1634 H 160.546 3.11656 2.83634 0
M  V30 1635 H 159.221 1.94721 2.58584 0
M  V30 1636 H 158.128 3.61201 0.973883 0
M  V30 1637 H 159.461 4.74713 1.30033 0
M  V30 1638 N 161.113 -0.173488 1.56642 0
M  V30 1639 C 162.338 -0.910149 1.86363 0
M  V30 1640 C 162.763 -1.75132 0.686318 0
M  V30 1641 O 162.121 -1.77595 -0.364643 0
M  V30 1642 C 162.169 -1.76447 3.14482 0
M  V30 1643 O 161.273 -2.86584 2.96553 0
M  V30 1644 H 160.614 -0.255086 0.613047 0
M  V30 1645 H 163.144 -0.172283 2.03873 0
M  V30 1646 H 163.154 -2.16483 3.45831 0
M  V30 1647 H 161.829 -1.14658 3.99783 0
M  V30 1648 H 160.406 -2.50146 2.76553 0
M  V30 1649 N 162.591 -1.51276 -0.441967 0
M  V30 1650 C 163.521 -1.752 -1.54361 0
M  V30 1651 C 164.502 -0.601682 -1.59103 0
M  V30 1652 O 165.687 -0.843913 -1.74905 0
M  V30 1653 C 162.817 -1.87282 -2.92477 0
M  V30 1654 C 161.771 -3.02687 -3.02596 0
M  V30 1655 C 161.097 -2.99947 -4.42647 0
M  V30 1656 C 162.397 -4.4273 -2.77106 0
M  V30 1657 H 164.091 -2.67442 -1.34592 0
M  V30 1658 H 161.637 -1.28694 -0.646048 0
M  V30 1659 H 163.59 -2.02602 -3.695 0
M  V30 1660 H 162.314 -0.916844 -3.13467 0
M  V30 1661 H 160.973 -2.87065 -2.28012 0
M  V30 1662 H 160.621 -2.02136 -4.60597 0
M  V30 1663 H 160.321 -3.77439 -4.50348 0
M  V30 1664 H 161.845 -3.17354 -5.2165 0
M  V30 1665 H 163.259 -4.58727 -3.43864 0
M  V30 1666 H 161.656 -5.21893 -2.96222 0
M  V30 1667 H 162.726 -4.53087 -1.72744 0
M  V30 1668 N 164.069 0.697108 -1.41344 0
M  V30 1669 C 165.016 1.81106 -1.43071 0
M  V30 1670 C 165.986 1.63632 -0.285275 0
M  V30 1671 O 167.171 1.84504 -0.486091 0
M  V30 1672 C 164.311 3.18975 -1.31715 0
M  V30 1673 C 163.424 3.47892 -2.56115 0
M  V30 1674 C 162.559 4.75367 -2.37064 0
M  V30 1675 C 161.598 4.97247 -3.56948 0
M  V30 1676 N 160.735 6.15947 -3.36977 0
M  V30 1677 H 165.575 1.78965 -2.38276 0
M  V30 1678 H 163.112 0.873975 -1.18322 0
M  V30 1679 H 165.07 3.98615 -1.23133 0
M  V30 1680 H 163.7 3.20297 -0.401183 0
M  V30 1681 H 162.752 2.62669 -2.75153 0
M  V30 1682 H 164.064 3.59962 -3.45295 0
M  V30 1683 H 163.218 5.63059 -2.25941 0
M  V30 1684 H 161.957 4.65541 -1.45338 0
M  V30 1685 H 160.962 4.08004 -3.68527 0
M  V30 1686 H 162.187 5.08934 -4.49626 0
M  V30 1687 H 160.133 6.07336 -2.47949 0
M  V30 1688 H 160.05 6.28777 -4.19732 0
M  V30 1689 H 161.318 7.06377 -3.29623 0
M  V30 1690 N 165.547 1.27147 0.931209 0
M  V30 1691 C 166.495 1.09398 2.05268 0
M  V30 1692 C 167.489 0.0180591 1.6939 0
M  V30 1693 O 168.695 0.17551 1.79142 0
M  V30 1694 H 165.07 0.336986 0.672268 0
M  V30 1695 H 167.041 2.04416 2.17386 0
M  V30 1696 C 165.79 0.75424 3.39421 0
M  V30 1697 H 165.113 1.57404 3.67511 0
M  V30 1698 H 166.553 0.669903 4.18674 0
M  V30 1699 C 165.012 -0.541197 3.32525 0
M  V30 1700 O 165.542 -1.57664 3.69466 0
M  V30 1701 N 163.748 -0.535517 2.85623 0
M  V30 1702 H 163.295 0.307511 2.55758 0
M  V30 1703 H 163.253 -1.40236 2.81392 0
M  V30 1704 N 167.025 -1.13721 1.09112 0
M  V30 1705 C 167.955 -2.21148 0.749385 0
M  V30 1706 C 168.936 -1.6792 -0.271475 0
M  V30 1707 O 170.121 -1.93693 -0.140251 0
M  V30 1708 C 167.251 -3.46905 0.165659 0
M  V30 1709 C 166.205 -4.13203 1.11567 0
M  V30 1710 C 165.531 -5.33248 0.393809 0
M  V30 1711 C 166.831 -4.60912 2.45678 0
M  V30 1712 H 168.525 -2.4999 1.64758 0
M  V30 1713 H 166.071 -1.20156 0.793626 0
M  V30 1714 H 168.024 -4.21313 -0.085466 0
M  V30 1715 H 166.748 -3.17449 -0.767714 0
M  V30 1716 H 165.407 -3.40758 1.35202 0
M  V30 1717 H 165.055 -5.00054 -0.543599 0
M  V30 1718 H 164.755 -5.78552 1.02721 0
M  V30 1719 H 166.279 -6.10413 0.150908 0
M  V30 1720 H 167.693 -5.26759 2.26269 0
M  V30 1721 H 166.09 -5.16944 3.04776 0
M  V30 1722 H 167.16 -3.75603 3.06677 0
M  V30 1723 N 168.503 -0.877838 -1.30888 0
M  V30 1724 C 169.752 -0.488793 -1.95688 0
M  V30 1725 C 170.065 0.965485 -1.70111 0
M  V30 1726 O 171.271 1.46104 -2.28836 0
M  V30 1727 C 169.727 -0.823201 -3.50359 0
M  V30 1728 C 169.335 -2.29477 -3.84765 0
M  V30 1729 C 171.079 -0.503009 -4.21509 0
M  V30 1730 C 168.986 -2.57118 -5.32583 0
M  V30 1731 H 167.916 -0.179062 -0.732429 0
M  V30 1732 H 170.567 -1.07183 -1.48943 0
M  V30 1733 H 168.949 -0.169331 -3.95638 0
M  V30 1734 H 170.123 -2.99236 -3.5042 0
M  V30 1735 H 168.438 -2.58178 -3.267 0
M  V30 1736 H 171.035 -0.68665 -5.30273 0
M  V30 1737 H 171.378 0.557109 -4.12555 0
M  V30 1738 H 171.911 -1.11376 -3.8189 0
M  V30 1739 H 168.65 -3.61843 -5.4658 0
M  V30 1740 H 168.17 -1.91961 -5.68253 0
M  V30 1741 H 169.849 -2.42251 -5.99936 0
M  V30 1742 N 169.982 1.44106 -0.638065 0
M  V30 1743 C 171.259 1.95453 -0.0759321 0
M  V30 1744 C 171.639 1.57984 1.40015 0
M  V30 1745 O 170.987 0.857361 2.11806 0
M  V30 1746 C 171.197 3.47655 -0.306132 0
M  V30 1747 C 172.545 4.24114 -0.203008 0
M  V30 1748 O 173.569 3.55405 -0.237871 0
M  V30 1749 O 172.428 5.46381 -0.113827 0
M  V30 1750 H 169.522 0.826797 0.0183332 0
M  V30 1751 H 172.068 1.54122 -0.710251 0
M  V30 1752 H 170.84 3.68 -1.3301 0
M  V30 1753 H 170.463 3.95949 0.361991 0
M  V30 1754 N 171.46 0.379036 1.52974 0
M  V30 1755 C 172.707 -0.206421 2.01445 0
M  V30 1756 C 173.035 -1.47668 1.26587 0
M  V30 1757 O 172.29 -1.92514 0.351675 0
M  V30 1758 C 172.589 -0.53096 3.53434 0
M  V30 1759 C 172.255 0.646546 4.46241 0
M  V30 1760 C 170.917 0.969604 4.7133 0
M  V30 1761 C 173.269 1.43479 5.01062 0
M  V30 1762 C 170.597 2.08263 5.48492 0
M  V30 1763 C 172.949 2.53834 5.7944 0
M  V30 1764 C 171.613 2.86659 6.02812 0
M  V30 1765 H 170.883 -0.0755349 0.73714 0
M  V30 1766 H 173.53 0.514271 1.84465 0
M  V30 1767 H 171.835 -1.33285 3.68432 0
M  V30 1768 H 173.532 -0.996417 3.88423 0
M  V30 1769 H 170.122 0.384734 4.2687 0
M  V30 1770 H 174.306 1.19844 4.81613 0
M  V30 1771 H 169.562 2.34078 5.64816 0
M  V30 1772 H 173.736 3.15319 6.20924 0
M  V30 1773 H 171.363 3.73026 6.62387 0
M  V30 1774 N 172.938 -1.57226 0.108567 0
M  V30 1775 C 173.888 -2.11305 -0.856396 0
M  V30 1776 C 174.872 -1.03129 -1.23504 0
M  V30 1777 O 176.064 -1.29381 -1.20787 0
M  V30 1778 C 173.193 -2.70771 -2.11041 0
M  V30 1779 C 172.279 -3.86011 -1.7566 0
M  V30 1780 N 172.67 -4.93492 -1.10902 0
M  V30 1781 C 170.968 -3.95999 -2.05185 0
M  V30 1782 C 171.669 -5.73984 -0.944308 0
M  V30 1783 N 170.645 -5.2346 -1.46596 0
M  V30 1784 H 174.447 -2.91784 -0.352002 0
M  V30 1785 H 171.961 -1.62126 -0.0942324 0
M  V30 1786 H 173.958 -3.07851 -2.81128 0
M  V30 1787 H 172.618 -1.91751 -2.62034 0
M  V30 1788 H 173.629 -5.1208 -0.774235 0
M  V30 1789 H 170.306 -3.28007 -2.58298 0
M  V30 1790 H 171.696 -6.70479 -0.436813 0
M  V30 1791 N 174.416 0.165178 -1.56732 0
M  V30 1792 C 175.665 0.879143 -1.81532 0
M  V30 1793 C 175.978 1.83144 -0.686842 0
M  V30 1794 O 177.184 2.58823 -0.819944 0
M  V30 1795 C 175.64 1.61388 -3.21686 0
M  V30 1796 C 175.248 0.704904 -4.4242 0
M  V30 1797 C 176.992 2.3157 -3.55774 0
M  V30 1798 C 174.899 1.44022 -5.73595 0
M  V30 1799 H 173.829 0.332033 -0.676957 0
M  V30 1800 H 176.48 0.132008 -1.83025 0
M  V30 1801 H 174.862 2.40599 -3.14529 0
M  V30 1802 H 176.036 -0.0506815 -4.60772 0
M  V30 1803 H 174.351 0.112419 -4.16248 0
M  V30 1804 H 176.948 2.8719 -4.51028 0
M  V30 1805 H 177.291 3.07201 -2.8095 0
M  V30 1806 H 177.824 1.59297 -3.64513 0
M  V30 1807 H 174.563 0.72612 -6.51466 0
M  V30 1808 H 174.083 2.16898 -5.5921 0
M  V30 1809 H 175.762 1.98606 -6.15764 0
M  V30 1810 N 175.894 1.51508 0.433938 0
M  V30 1811 C 176.842 1.73646 1.54757 0
M  V30 1812 C 177.836 0.602854 1.5831 0
M  V30 1813 O 179.042 0.784318 1.62014 0
M  V30 1814 H 175.417 0.548718 0.51421 0
M  V30 1815 H 177.388 2.66991 1.33261 0
M  V30 1816 C 176.137 1.88172 2.92381 0
M  V30 1817 H 175.46 2.74808 2.90381 0
M  V30 1818 H 176.9 2.07672 3.6966 0
M  V30 1819 C 175.359 0.64239 3.30719 0
M  V30 1820 O 175.889 -0.201362 4.01195 0
M  V30 1821 N 174.095 0.485489 2.86516 0
M  V30 1822 H 173.642 1.17318 2.29334 0
M  V30 1823 H 173.6 -0.342482 3.12529 0
M  V30 1824 N 177.372 -0.689602 1.41712 0
M  V30 1825 C 178.322 -1.79571 1.40493 0
M  V30 1826 C 179.306 -1.58473 0.278409 0
M  V30 1827 O 180.498 -1.69204 0.519532 0
M  V30 1828 C 177.627 -3.17923 1.29536 0
M  V30 1829 C 176.713 -3.44695 2.47075 0
M  V30 1830 N 177.104 -3.42132 3.72531 0
M  V30 1831 C 175.402 -3.75269 2.41017 0
M  V30 1832 C 176.103 -3.67976 4.50521 0
M  V30 1833 N 175.079 -3.88014 3.80718 0
M  V30 1834 H 178.881 -1.75961 2.35404 0
M  V30 1835 H 176.395 -0.889839 1.35851 0
M  V30 1836 H 178.392 -3.97167 1.26745 0
M  V30 1837 H 177.052 -3.22741 0.356153 0
M  V30 1838 H 178.063 -3.22375 4.05333 0
M  V30 1839 H 174.74 -3.87421 1.55599 0
M  V30 1840 H 176.13 -3.7208 5.59469 0
M  V30 1841 N 178.85 -1.27639 -0.924453 0
M  V30 1842 C 179.797 -1.10644 -2.0255 0
M  V30 1843 C 180.767 -0.00658438 -1.66099 0
M  V30 1844 O 181.952 -0.16952 -1.90045 0
M  V30 1845 C 179.092 -0.76309 -3.36557 0
M  V30 1846 C 178.205 -1.94091 -3.85944 0
M  V30 1847 C 177.34 -1.53914 -5.08413 0
M  V30 1848 C 176.379 -2.68425 -5.50104 0
M  V30 1849 N 175.516 -2.28815 -6.63768 0
M  V30 1850 H 180.356 -2.04858 -2.16419 0
M  V30 1851 H 177.893 -1.01974 -1.06017 0
M  V30 1852 H 179.851 -0.544822 -4.13627 0
M  V30 1853 H 178.481 0.142102 -3.22487 0
M  V30 1854 H 177.533 -2.27162 -3.05125 0
M  V30 1855 H 178.845 -2.7998 -4.12811 0
M  V30 1856 H 177.999 -1.28231 -5.92994 0
M  V30 1857 H 176.738 -0.651391 -4.8333 0
M  V30 1858 H 175.743 -2.94819 -4.64071 0
M  V30 1859 H 176.968 -3.57826 -5.7718 0
M  V30 1860 H 174.914 -1.42495 -6.40337 0
M  V30 1861 H 174.831 -3.08242 -6.90306 0
M  V30 1862 H 176.099 -2.06387 -7.51681 0
M  V30 1863 N 180.328 1.1314 -1.09713 0
M  V30 1864 C 181.276 2.20717 -0.733934 0
M  V30 1865 C 182.27 1.6729 0.266506 0
M  V30 1866 O 183.476 1.79547 0.127656 0
M  V30 1867 H 179.851 0.719292 -0.21937 0
M  V30 1868 H 181.822 2.48611 -1.6503 0
M  V30 1869 C 180.571 3.47265 -0.173849 0
M  V30 1870 H 179.894 3.88716 -0.934873 0
M  V30 1871 H 181.334 4.23979 0.0423126 0
M  V30 1872 C 179.793 3.18724 1.09164 0
M  V30 1873 O 180.323 3.37762 2.17439 0
M  V30 1874 N 178.529 2.72583 1.00732 0
M  V30 1875 H 178.076 2.57291 0.126121 0
M  V30 1876 H 178.034 2.53862 1.85476 0
M  V30 1877 N 181.806 0.884767 1.30421 0
M  V30 1878 C 183.052 0.503851 1.96441 0
M  V30 1879 C 183.385 -0.944518 1.69684 0
M  V30 1880 O 182.66 -1.66737 1.00145 0
M  V30 1881 C 182.943 0.779085 3.51571 0
M  V30 1882 C 182.796 2.27807 3.87846 0
M  V30 1883 C 184.115 0.255452 4.39358 0
M  V30 1884 H 181.234 0.184533 0.713524 0
M  V30 1885 H 183.876 1.10872 1.54297 0
M  V30 1886 H 182.026 0.264274 3.876 0
M  V30 1887 H 183.698 2.86127 3.61841 0
M  V30 1888 H 181.941 2.74479 3.35922 0
M  V30 1889 H 182.612 2.42125 4.96064 0
M  V30 1890 H 185.088 0.696079 4.10236 0
M  V30 1891 H 183.964 0.477361 5.4682 0
M  V30 1892 H 184.225 -0.843293 4.33983 0
M  V30 1893 N 183.284 -1.43765 0.645699 0
M  V30 1894 C 184.247 -2.29163 -0.0409488 0
M  V30 1895 C 185.247 -1.41813 -0.757996 0
M  V30 1896 O 186.437 -1.63527 -0.600382 0
M  V30 1897 C 183.569 -3.23716 -1.06869 0
M  V30 1898 H 184.762 -2.91366 0.710345 0
M  V30 1899 H 182.315 -1.5092 0.406547 0
M  V30 1900 H 183.05 -2.66393 -1.84947 0
M  V30 1901 H 182.835 -3.88105 -0.558277 0
M  V30 1902 H 184.325 -3.87831 -1.54845 0
M  V30 1903 N 184.763 -0.387143 -1.52771 0
M  V30 1904 C 185.991 0.195869 -2.05971 0
M  V30 1905 C 186.406 1.40691 -1.25903 0
M  V30 1906 O 185.763 1.79931 -0.305134 0
M  V30 1907 C 185.814 0.56812 -3.57008 0
M  V30 1908 O 185.535 -0.594803 -4.34043 0
M  V30 1909 C 187.036 1.20723 -4.26545 0
M  V30 1910 H 184.256 0.0300578 -0.670326 0
M  V30 1911 H 186.8 -0.551749 -1.96916 0
M  V30 1912 H 184.955 1.26564 -3.66143 0
M  V30 1913 H 185.369 -0.289322 -5.23701 0
M  V30 1914 H 186.843 1.41807 -5.33474 0
M  V30 1915 H 187.32 2.17395 -3.81623 0
M  V30 1916 H 187.926 0.550535 -4.21722 0
M  V30 1917 N 186.241 1.57166 -0.116904 0
M  V30 1918 C 187.49 1.94298 0.541407 0
M  V30 1919 C 187.803 1.00236 1.67964 0
M  V30 1920 O 189.009 1.26826 2.40057 0
M  V30 1921 C 187.465 3.45306 1.01449 0
M  V30 1922 C 187.073 4.47899 -0.0951738 0
M  V30 1923 C 188.817 3.91361 1.6443 0
M  V30 1924 C 186.724 5.90083 0.394491 0
M  V30 1925 H 185.654 0.725308 0.206019 0
M  V30 1926 H 188.305 1.82446 -0.196419 0
M  V30 1927 H 186.687 3.52385 1.80667 0
M  V30 1928 H 187.861 4.52486 -0.871374 0
M  V30 1929 H 186.176 4.11583 -0.631505 0
M  V30 1930 H 188.773 4.95004 2.02176 0
M  V30 1931 H 189.116 3.3122 2.52189 0
M  V30 1932 H 189.649 3.87073 0.917559 0
M  V30 1933 H 186.388 6.53974 -0.447004 0
M  V30 1934 H 185.908 5.88921 1.13722 0
M  V30 1935 H 187.587 6.41307 0.856399 0
M  V30 1936 N 187.719 -0.156864 1.56817 0
M  V30 1937 C 188.649 -1.19589 2.00551 0
M  V30 1938 C 189.63 -1.4536 0.883426 0
M  V30 1939 O 190.815 -1.56449 1.15054 0
M  V30 1940 C 187.945 -2.53143 2.37773 0
M  V30 1941 C 186.899 -2.41913 3.53075 0
M  V30 1942 C 186.225 -3.80088 3.76081 0
M  V30 1943 C 187.525 -1.91157 4.86062 0
M  V30 1944 H 189.219 -0.832293 2.87599 0
M  V30 1945 H 186.765 -0.398918 1.38364 0
M  V30 1946 H 188.718 -3.26047 2.66967 0
M  V30 1947 H 187.442 -2.91319 1.4765 0
M  V30 1948 H 186.101 -1.71462 3.24031 0
M  V30 1949 H 185.749 -4.15683 2.83225 0
M  V30 1950 H 185.449 -3.73439 4.53671 0
M  V30 1951 H 186.973 -4.54556 4.0769 0
M  V30 1952 H 188.387 -2.53846 5.14038 0
M  V30 1953 H 186.784 -1.95422 5.67389 0
M  V30 1954 H 187.854 -0.866673 4.77092 0
M  V30 1955 N 189.197 -1.51736 -0.425897 0
M  V30 1956 C 190.425 -1.68794 -1.1965 0
M  V30 1957 C 190.84 -0.390164 -1.84725 0
M  V30 1958 O 190.197 0.632376 -1.71194 0
M  V30 1959 C 190.248 -2.81174 -2.27208 0
M  V30 1960 O 189.969 -4.05925 -1.64793 0
M  V30 1961 C 191.47 -3.09599 -3.17275 0
M  V30 1962 H 188.69 -0.566128 -0.360194 0
M  V30 1963 H 191.234 -1.98211 -0.503249 0
M  V30 1964 H 189.389 -2.54324 -2.9223 0
M  V30 1965 H 189.803 -4.68423 -2.35967 0
M  V30 1966 H 191.277 -3.91786 -3.88854 0
M  V30 1967 H 191.754 -2.22468 -3.78688 0
M  V30 1968 H 192.36 -3.38151 -2.57941 0
M  V30 1969 N 190.675 0.682077 -1.42076 0
M  V30 1970 C 191.638 1.77756 -1.44691 0
M  V30 1971 C 192.638 1.5726 -0.335535 0
M  V30 1972 O 193.828 1.63686 -0.596037 0
M  V30 1973 C 190.96 3.16301 -1.27146 0
M  V30 1974 H 192.153 1.76826 -2.42224 0
M  V30 1975 H 189.706 0.891012 -1.28416 0
M  V30 1976 H 190.441 3.22862 -0.305075 0
M  V30 1977 H 190.226 3.32581 -2.07683 0
M  V30 1978 H 191.716 3.96241 -1.31843 0
M  V30 1979 N 192.153 1.28127 0.917671 0
M  V30 1980 C 193.063 1.13556 2.05286 0
M  V30 1981 C 194.079 0.0630914 1.73886 0
M  V30 1982 O 195.255 0.271598 1.9956 0
M  V30 1983 C 192.32 0.794676 3.3747 0
M  V30 1984 C 191.381 1.94909 3.82504 0
M  V30 1985 C 190.614 1.62437 5.0838 0
M  V30 1986 O 190.837 0.536905 5.67867 0
M  V30 1987 O 189.771 2.46677 5.4903 0
M  V30 1988 H 193.597 2.08844 2.20495 0
M  V30 1989 H 191.182 1.07409 1.03845 0
M  V30 1990 H 193.064 0.618344 4.16839 0
M  V30 1991 H 191.739 -0.128581 3.23445 0
M  V30 1992 H 190.646 2.18055 3.03978 0
M  V30 1993 H 191.979 2.85291 4.01086 0
M  V30 1994 N 193.631 -1.12557 1.10312 0
M  V30 1995 C 194.859 -1.87864 0.866873 0
M  V30 1996 C 195.274 -1.79588 -0.582557 0
M  V30 1997 O 194.631 -1.16887 -1.40156 0
M  V30 1998 C 194.682 -3.37125 1.30496 0
M  V30 1999 O 194.403 -3.45201 2.69755 0
M  V30 2000 C 195.904 -4.29373 1.10243 0
M  V30 2001 H 193.124 -0.594452 0.311236 0
M  V30 2002 H 195.668 -1.42429 1.46745 0
M  V30 2003 H 193.823 -3.80109 0.748081 0
M  V30 2004 H 194.237 -4.38056 2.88457 0
M  V30 2005 H 195.711 -5.32394 1.45811 0
M  V30 2006 H 196.188 -4.39181 0.0409492 0
M  V30 2007 H 196.794 -3.92169 1.64571 0
M  V30 2008 N 195.109 -0.891671 -1.2995 0
M  V30 2009 C 196.386 -0.433307 -1.9074 0
M  V30 2010 C 196.766 1.08646 -1.80995 0
M  V30 2011 O 196.114 1.92476 -1.23147 0
M  V30 2012 C 196.324 -0.938895 -3.36134 0
M  V30 2013 C 197.672 -0.977829 -4.13187 0
M  V30 2014 O 198.696 -0.886015 -3.45005 0
M  V30 2015 O 197.555 -1.11453 -5.35015 0
M  V30 2016 H 194.649 -0.133699 -0.816121 0
M  V30 2017 H 197.195 -0.981011 -1.38471 0
M  V30 2018 H 195.967 -1.98281 -3.37343 0
M  V30 2019 H 195.59 -0.37074 -3.95868 0
M  V30 2020 N 196.587 1.43421 -0.653314 0
M  V30 2021 C 197.535 2.32546 0.0501531 0
M  V30 2022 C 198.529 1.48617 0.812985 0
M  V30 2023 O 199.735 1.64825 0.723375 0
M  V30 2024 H 196.11 0.751185 0.0350032 0
M  V30 2025 H 198.081 2.89602 -0.719261 0
M  V30 2026 C 196.83 3.32925 1.00279 0
M  V30 2027 H 196.153 3.97532 0.425236 0
M  V30 2028 H 197.593 3.9792 1.46409 0
M  V30 2029 C 196.052 2.63532 2.09886 0
M  V30 2030 O 196.582 2.45092 3.18265 0
M  V30 2031 N 194.788 2.22905 1.86445 0
M  V30 2032 H 194.335 2.38103 0.98309 0
M  V30 2033 H 194.293 1.76805 2.59976 0
M  V30 2034 N 198.065 0.39524 1.52563 0
M  V30 2035 C 199.476 -0.0774719 1.86539 0
M  V30 2036 C 199.827 -1.45641 1.31466 0
M  V30 2037 O 198.952 -2.06459 0.648367 0
M  V30 2038 C 199.547 -0.147356 3.38479 0
M  V30 2039 C 198.106 -0.564373 3.72145 0
M  V30 2040 C 197.253 0.269919 2.75983 0
M  V30 2041 H 200.204 0.612876 1.46388 0
M  V30 2042 H 200.225 -0.965343 3.68051 0
M  V30 2043 H 199.737 0.856387 3.78534 0
M  V30 2044 H 197.838 -1.57527 3.37663 0
M  V30 2045 H 197.951 -0.318402 4.78041 0
M  V30 2046 H 196.315 -0.265696 2.5331 0
M  V30 2047 H 197.098 1.27175 3.18875 0
M  V30 2048 N 199.544 -1.57102 0.125237 0
M  V30 2049 C 200.791 -1.95407 -0.531248 0
M  V30 2050 C 201.119 -1.0089 -1.66287 0
M  V30 2051 O 200.374 -0.0339431 -1.95671 0
M  V30 2052 C 200.673 -3.40096 -1.09862 0
M  V30 2053 C 200.339 -4.50815 -0.0876989 0
M  V30 2054 C 199.001 -4.80824 0.19026 0
M  V30 2055 C 201.353 -5.17724 0.600902 0
M  V30 2056 C 198.681 -5.75058 1.163 0
M  V30 2057 C 201.033 -6.13005 1.56231 0
M  V30 2058 C 199.697 -6.41403 1.8482 0
M  V30 2059 H 198.967 -0.715046 -0.194397 0
M  V30 2060 H 201.614 -1.90373 0.207463 0
M  V30 2061 H 199.919 -3.41855 -1.91422 0
M  V30 2062 H 201.616 -3.6705 -1.61478 0
M  V30 2063 H 198.206 -4.27444 -0.314528 0
M  V30 2064 H 202.39 -4.94691 0.399333 0
M  V30 2065 H 197.646 -5.95362 1.39117 0
M  V30 2066 H 201.82 -6.63934 2.10153 0
M  V30 2067 H 199.447 -7.14229 2.60349 0
M  V30 2068 N 201.022 0.148545 -1.56898 0
M  V30 2069 C 202.27 0.859717 -1.82902 0
M  V30 2070 C 202.591 1.81775 -0.70588 0
M  V30 2071 O 201.861 1.93994 0.272586 0
M  V30 2072 H 200.441 0.320469 -0.674766 0
M  V30 2073 H 203.103 0.142918 -1.94375 0
M  V30 2074 H 202.199 1.4229 -2.77777 0
M  V30 2075 N 202.5 1.5196 0.417844 0
M  V30 2076 C 203.73 1.69181 1.18581 0
M  V30 2077 C 204.138 0.397104 1.84986 0
M  V30 2078 O 203.481 -0.636011 1.72339 0
M  V30 2079 C 203.543 2.76497 2.29759 0
M  V30 2080 C 203.207 4.18514 1.83563 0
M  V30 2081 C 204.204 5.02648 1.32821 0
M  V30 2082 C 201.889 4.64708 1.90661 0
M  V30 2083 C 203.883 6.31044 0.897894 0
M  V30 2084 C 201.57 5.93096 1.47241 0
M  V30 2085 C 202.568 6.76093 0.968891 0
M  V30 2086 O 202.256 8.02078 0.540924 0
M  V30 2087 H 201.988 0.570457 0.362705 0
M  V30 2088 H 204.542 1.99249 0.498885 0
M  V30 2089 H 202.772 2.41786 3.01789 0
M  V30 2090 H 204.461 2.82403 2.91553 0
M  V30 2091 H 205.227 4.68154 1.26716 0
M  V30 2092 H 201.106 4.00216 2.28797 0
M  V30 2093 H 204.65 6.95776 0.504192 0
M  V30 2094 H 200.547 6.271 1.53022 0
M  V30 2095 H 201.315 8.15794 0.66502 0
M  V30 2096 N 203.978 -0.674533 1.42435 0
M  V30 2097 C 205.226 -1.43175 1.42637 0
M  V30 2098 C 205.547 -1.94951 0.0438992 0
M  V30 2099 O 204.817 -1.7308 -0.917607 0
M  V30 2100 H 203.397 -0.531307 0.525092 0
M  V30 2101 H 206.059 -0.797006 1.77859 0
M  V30 2102 H 205.155 -2.28463 2.12629 0
M  V30 2103 N 205.456 -1.28612 -0.910864 0
M  V30 2104 C 206.872 -1.06381 -1.18976 0
M  V30 2105 C 207.072 0.191998 -2.00583 0
M  V30 2106 O 206.128 0.892869 -2.36187 0
M  V30 2107 C 207.441 -2.31295 -1.92154 0
M  V30 2108 C 208.989 -2.36503 -2.05025 0
M  V30 2109 C 209.464 -3.61191 -2.81612 0
M  V30 2110 N 210.955 -3.61847 -2.89172 0
M  V30 2111 C 211.69 -4.55004 -3.4894 0
M  V30 2112 N 211.186 -5.58482 -4.09963 0
M  V30 2113 N 212.979 -4.42594 -3.46506 0
M  V30 2114 H 205.13 -2.09221 -0.366094 0
M  V30 2115 H 207.393 -0.921003 -0.224629 0
M  V30 2116 H 207.099 -3.228 -1.39618 0
M  V30 2117 H 206.973 -2.37934 -2.9269 0
M  V30 2118 H 209.36 -1.45494 -2.5674 0
M  V30 2119 H 209.441 -2.33857 -1.03657 0
M  V30 2120 H 209.085 -4.52545 -2.30576 0
M  V30 2121 H 209.015 -3.61092 -3.83302 0
M  V30 2122 H 211.506 -2.87022 -2.45819 0
M  V30 2123 H 211.819 -6.25704 -4.53557 0
M  V30 2124 H 210.164 -5.62305 -4.08459 0
M  V30 2125 H 213.355 -3.60953 -2.98045 0
M  V30 2126 H 213.528 -5.15381 -3.92793 0
M  V30 2127 N 206.934 1.1197 -1.10907 0
M  V30 2128 C 208.183 1.82947 -0.849302 0
M  V30 2129 C 208.496 1.85275 0.627112 0
M  V30 2130 O 209.702 2.52296 1.00295 0
M  V30 2131 C 208.158 3.28529 -1.46959 0
M  V30 2132 C 207.766 3.34546 -2.97965 0
M  V30 2133 C 209.51 4.04443 -1.28942 0
M  V30 2134 C 207.417 4.74491 -3.53004 0
M  V30 2135 H 206.347 0.685477 -0.314065 0
M  V30 2136 H 208.998 1.2604 -1.33365 0
M  V30 2137 H 207.38 3.85333 -0.912917 0
M  V30 2138 H 208.554 2.87654 -3.59989 0
M  V30 2139 H 206.869 2.72108 -3.15192 0
M  V30 2140 H 209.466 5.07787 -1.67502 0
M  V30 2141 H 209.809 4.15656 -0.231456 0
M  V30 2142 H 210.342 3.5401 -1.81443 0
M  V30 2143 H 207.081 4.68474 -4.58489 0
M  V30 2144 H 206.601 5.21816 -2.9575 0
M  V30 2145 H 208.28 5.4344 -3.51115 0
M  V30 2146 N 208.412 0.89855 1.29475 0
M  V30 2147 C 209.658 0.524658 1.95896 0
M  V30 2148 C 209.991 -0.926468 1.70676 0
M  V30 2149 O 209.266 -1.65665 1.01908 0
M  V30 2150 C 209.549 0.81633 3.50725 0
M  V30 2151 C 209.402 2.31907 3.85408 0
M  V30 2152 C 210.721 0.302038 4.39062 0
M  V30 2153 H 207.84 0.19209 0.711527 0
M  V30 2154 H 210.482 1.12502 1.53112 0
M  V30 2155 H 208.632 0.305369 3.87298 0
M  V30 2156 H 210.304 2.89949 3.58786 0
M  V30 2157 H 208.547 2.78027 3.32992 0
M  V30 2158 H 209.218 2.47373 4.93468 0
M  V30 2159 H 211.694 0.739551 4.09475 0
M  V30 2160 H 210.57 0.535331 5.46283 0
M  V30 2161 H 210.831 -0.797216 4.34853 0
M  V30 2162 N 209.89 -1.43072 0.660911 0
M  V30 2163 C 211.306 -1.56169 0.329173 0
M  V30 2164 C 211.506 -1.64317 -1.16629 0
M  V30 2165 O 210.562 -1.60245 -1.95135 0
M  V30 2166 C 211.875 -2.81873 1.04729 0
M  V30 2167 C 213.423 -2.95627 1.02828 0
M  V30 2168 C 213.898 -4.24174 1.72744 0
M  V30 2169 N 215.389 -4.31055 1.69545 0
M  V30 2170 C 216.124 -5.29304 2.20511 0
M  V30 2171 N 215.62 -6.33786 2.79799 0
M  V30 2172 N 217.413 -5.21008 2.10966 0
M  V30 2173 H 209.564 -1.36027 1.63127 0
M  V30 2174 H 211.827 -0.653823 0.686454 0
M  V30 2175 H 211.533 -2.81942 2.10242 0
M  V30 2176 H 211.407 -3.72338 0.603702 0
M  V30 2177 H 213.794 -2.95094 -0.0184742 0
M  V30 2178 H 213.875 -2.06431 1.51063 0
M  V30 2179 H 213.519 -4.25467 2.7738 0
M  V30 2180 H 213.449 -5.1228 1.2197 0
M  V30 2181 H 215.94 -3.56174 1.26288 0
M  V30 2182 H 216.253 -7.05086 3.16344 0
M  V30 2183 H 214.598 -6.34387 2.83863 0
M  V30 2184 H 217.789 -4.38301 1.64347 0
M  V30 2185 H 217.962 -5.97416 2.50993 0
M  V30 2186 N 211.368 -0.403325 -1.52352 0
M  V30 2187 C 212.316 0.439752 -2.28405 0
M  V30 2188 C 213.31 1.05089 -1.32863 0
M  V30 2189 O 214.516 0.989759 -1.50345 0
M  V30 2190 H 210.891 0.160587 -0.734653 0
M  V30 2191 H 212.862 -0.222983 -2.97566 0
M  V30 2192 C 211.611 1.54736 -3.11371 0
M  V30 2193 H 210.934 1.08643 -3.84755 0
M  V30 2194 H 212.374 2.1112 -3.67701 0
M  V30 2195 C 210.833 2.51141 -2.24566 0
M  V30 2196 O 211.363 3.54887 -1.88196 0
M  V30 2197 N 209.569 2.21213 -1.8845 0
M  V30 2198 H 209.116 1.36878 -2.18225 0
M  V30 2199 H 209.074 2.85963 -1.30662 0
M  V30 2200 N 212.846 1.57033 -0.133567 0
M  V30 2201 C 214.123 1.87256 0.56522 0
M  V30 2202 C 214.503 1.03726 1.83859 0
M  V30 2203 O 213.851 0.120247 2.28183 0
M  V30 2204 C 214.061 3.3865 0.843636 0
M  V30 2205 C 215.409 4.07574 1.19032 0
M  V30 2206 O 216.433 3.43752 0.933429 0
M  V30 2207 O 215.292 5.20259 1.67312 0
M  V30 2208 H 212.386 0.775678 0.286796 0
M  V30 2209 H 214.932 1.68855 -0.169168 0
M  V30 2210 H 213.704 3.91257 -0.0581149 0
M  V30 2211 H 213.327 3.62532 1.63268 0
M  V30 2212 N 214.325 -0.140222 1.56975 0
M  V30 2213 C 215.273 -1.19207 1.99731 0
M  V30 2214 C 216.267 -1.44089 0.890777 0
M  V30 2215 O 217.473 -1.44301 1.07597 0
M  V30 2216 H 213.848 -0.40142 0.635898 0
M  V30 2217 H 215.819 -0.804813 2.87342 0
M  V30 2218 C 214.568 -2.51617 2.39967 0
M  V30 2219 H 213.891 -2.33303 3.24669 0
M  V30 2220 H 215.331 -3.23827 2.73701 0
M  V30 2221 C 213.79 -3.12654 1.25496 0
M  V30 2222 O 214.32 -3.97786 0.559371 0
M  V30 2223 N 212.526 -2.72206 1.01746 0
M  V30 2224 H 212.073 -2.03074 1.58489 0
M  V30 2225 H 212.031 -3.13377 0.253461 0
M  V30 2226 N 215.803 -1.52179 -0.40978 0
M  V30 2227 C 216.766 -1.74853 -1.48186 0
M  V30 2228 C 217.766 -0.618417 -1.48433 0
M  V30 2229 O 218.956 -0.886286 -1.49969 0
M  V30 2230 C 216.088 -1.8303 -2.87598 0
M  V30 2231 H 217.281 -2.70559 -1.29374 0
M  V30 2232 H 214.834 -1.42586 -0.640233 0
M  V30 2233 H 215.569 -0.89236 -3.11781 0
M  V30 2234 H 215.354 -2.65187 -2.88822 0
M  V30 2235 H 216.844 -2.02316 -3.65319 0
M  V30 2236 N 217.281 0.66697 -1.42791 0
M  V30 2237 C 218.191 1.80962 -1.49299 0
M  V30 2238 C 219.207 1.69775 -0.381108 0
M  V30 2239 O 220.383 1.91188 -0.633188 0
M  V30 2240 C 217.448 3.17156 -1.40045 0
M  V30 2241 C 216.509 3.40242 -2.6179 0
M  V30 2242 C 215.742 4.69939 -2.52969 0
M  V30 2243 O 215.965 5.48372 -1.56985 0
M  V30 2244 O 214.899 4.94441 -3.43237 0
M  V30 2245 H 218.725 1.78427 -2.45759 0
M  V30 2246 H 216.31 0.823713 -1.24641 0
M  V30 2247 H 218.192 3.98413 -1.37276 0
M  V30 2248 H 216.867 3.20312 -0.467138 0
M  V30 2249 H 215.774 2.58802 -2.70134 0
M  V30 2250 H 217.107 3.41923 -3.54047 0
M  V30 2251 N 218.759 1.29093 0.90403 0
M  V30 2252 C 220.005 1.16986 1.65656 0
M  V30 2253 C 220.338 -0.278925 1.92186 0
M  V30 2254 O 219.613 -1.2019 1.5292 0
M  V30 2255 C 219.896 1.97908 3.0084 0
M  V30 2256 C 219.749 3.50903 2.81403 0
M  V30 2257 C 221.068 1.80208 4.01513 0
M  V30 2258 H 218.187 0.426346 0.601164 0
M  V30 2259 H 220.829 1.58518 1.04747 0
M  V30 2260 H 218.979 1.62616 3.52829 0
M  V30 2261 H 220.651 3.96153 2.36348 0
M  V30 2262 H 218.894 3.76045 2.1627 0
M  V30 2263 H 219.565 4.02791 3.77443 0
M  V30 2264 H 222.041 2.11025 3.58619 0
M  V30 2265 H 220.917 2.39184 4.94047 0
M  V30 2266 H 221.178 0.756119 4.35586 0
M  V30 2267 N 220.237 -1.11381 1.11499 0
M  V30 2268 C 221.167 -2.19509 0.796125 0
M  V30 2269 C 222.148 -1.68458 -0.235796 0
M  V30 2270 O 223.333 -1.93947 -0.0991344 0
M  V30 2271 C 220.463 -3.46475 0.239205 0
M  V30 2272 C 219.417 -4.10744 1.20307 0
M  V30 2273 C 218.743 -5.32293 0.50683 0
M  V30 2274 C 220.043 -4.55597 2.55399 0
M  V30 2275 H 221.737 -2.46439 1.70024 0
M  V30 2276 H 219.283 -1.18446 0.818935 0
M  V30 2277 H 221.236 -4.214 0.00392006 0
M  V30 2278 H 219.96 -3.19006 -0.700206 0
M  V30 2279 H 218.619 -3.37813 1.42399 0
M  V30 2280 H 218.267 -5.01095 -0.437408 0
M  V30 2281 H 217.967 -5.76243 1.1497 0
M  V30 2282 H 219.491 -6.09956 0.280351 0
M  V30 2283 H 220.905 -5.21841 2.37391 0
M  V30 2284 H 219.302 -5.10363 3.15673 0
M  V30 2285 H 220.372 -3.69013 3.14575 0
M  V30 2286 N 221.715 -0.905404 -1.28997 0
M  V30 2287 C 223.131 -0.60233 -1.47798 0
M  V30 2288 C 223.331 0.854645 -1.82478 0
M  V30 2289 O 222.387 1.63439 -1.92468 0
M  V30 2290 C 223.7 -1.53306 -2.58685 0
M  V30 2291 C 225.248 -1.53887 -2.72558 0
M  V30 2292 C 225.723 -2.45602 -3.86579 0
M  V30 2293 N 227.214 -2.43681 -3.93921 0
M  V30 2294 C 227.949 -3.11347 -4.81509 0
M  V30 2295 N 227.445 -3.88313 -5.73746 0
M  V30 2296 N 229.238 -3.00476 -4.75048 0
M  V30 2297 H 221.389 -1.84765 -1.04764 0
M  V30 2298 H 223.652 -0.792025 -0.520961 0
M  V30 2299 H 223.358 -2.57141 -2.39941 0
M  V30 2300 H 223.232 -1.25787 -3.55609 0
M  V30 2301 H 225.619 -0.507941 -2.90696 0
M  V30 2302 H 225.7 -1.85447 -1.76191 0
M  V30 2303 H 225.344 -3.48792 -3.69197 0
M  V30 2304 H 225.274 -2.11349 -4.82327 0
M  V30 2305 H 227.765 -1.87767 -3.27951 0
M  V30 2306 H 228.078 -4.36985 -6.37389 0
M  V30 2307 H 226.423 -3.92419 -5.73614 0
M  V30 2308 H 229.614 -2.39858 -4.01977 0
M  V30 2309 H 229.787 -3.53485 -5.43095 0
M  V30 2310 N 223.193 1.4272 -0.668489 0
M  V30 2311 C 224.442 2.00846 -0.185389 0
M  V30 2312 C 224.755 1.53442 1.21305 0
M  V30 2313 O 225.961 2.03944 1.79218 0
M  V30 2314 C 224.417 3.58805 -0.280591 0
M  V30 2315 C 224.025 4.15198 -1.68268 0
M  V30 2316 C 225.769 4.24255 0.14412 0
M  V30 2317 C 223.676 5.655 -1.73099 0
M  V30 2318 H 222.606 0.751145 -0.0655475 0
M  V30 2319 H 225.257 1.63516 -0.832752 0
M  V30 2320 H 223.639 3.93608 0.434553 0
M  V30 2321 H 224.813 3.91866 -2.42441 0
M  V30 2322 H 223.128 3.62176 -2.05469 0
M  V30 2323 H 225.725 5.34547 0.128086 0
M  V30 2324 H 226.068 3.99277 1.17827 0
M  V30 2325 H 226.601 3.94389 -0.519798 0
M  V30 2326 H 223.34 5.95268 -2.74475 0
M  V30 2327 H 222.86 5.90842 -1.03274 0
M  V30 2328 H 224.539 6.29808 -1.48158 0
M  V30 2329 N 224.671 0.411399 1.52136 0
M  V30 2330 C 225.917 -0.163888 2.02137 0
M  V30 2331 C 226.25 -1.44597 1.29636 0
M  V30 2332 O 225.525 -1.90272 0.403353 0
M  V30 2333 C 225.808 -0.40927 3.57767 0
M  V30 2334 C 225.661 0.889643 4.40914 0
M  V30 2335 C 226.98 -1.19042 4.23694 0
M  V30 2336 H 224.099 -0.0580896 0.734707 0
M  V30 2337 H 226.741 0.54531 1.82007 0
M  V30 2338 H 224.891 -1.0134 3.7505 0
M  V30 2339 H 226.563 1.52575 4.35337 0
M  V30 2340 H 224.806 1.50011 4.07037 0
M  V30 2341 H 225.477 0.672314 5.4789 0
M  V30 2342 H 227.953 -0.678942 4.10524 0
M  V30 2343 H 226.829 -1.33086 5.32522 0
M  V30 2344 H 227.09 -2.21166 3.82803 0
M  V30 2345 N 226.149 -1.5696 0.141893 0
M  V30 2346 C 227.059 -2.20066 -0.812905 0
M  V30 2347 C 228.075 -1.18344 -1.27557 0
M  V30 2348 O 229.251 -1.50902 -1.33381 0
M  V30 2349 C 226.316 -2.80583 -2.03652 0
M  V30 2350 C 225.377 -3.97414 -1.62359 0
M  V30 2351 C 224.61 -4.55036 -2.78887 0
M  V30 2352 O 224.833 -4.11538 -3.94959 0
M  V30 2353 O 223.767 -5.45376 -2.54653 0
M  V30 2354 H 227.593 -3.02157 -0.305746 0
M  V30 2355 H 225.178 -1.49159 -0.0848799 0
M  V30 2356 H 227.06 -3.19067 -2.75272 0
M  V30 2357 H 225.735 -2.01508 -2.5333 0
M  V30 2358 H 224.642 -3.63656 -0.877775 0
M  V30 2359 H 225.975 -4.77994 -1.17401 0
M  V30 2360 N 227.627 0.131896 -1.57047 0
M  V30 2361 C 228.559 1.1878 -1.9602 0
M  V30 2362 C 229.572 1.38363 -0.857875 0
M  V30 2363 O 230.761 1.37666 -1.13623 0
M  V30 2364 C 227.861 2.55008 -2.23213 0
M  V30 2365 C 227.034 2.56201 -3.54513 0
M  V30 2366 C 226.093 3.7408 -3.70069 0
M  V30 2367 O 225.119 3.58258 -4.42312 0
M  V30 2368 N 226.321 4.92137 -3.07866 0
M  V30 2369 H 229.086 0.85639 -2.87204 0
M  V30 2370 H 226.647 0.321309 -1.5868 0
M  V30 2371 H 228.639 3.32404 -2.30846 0
M  V30 2372 H 227.209 2.80382 -1.3822 0
M  V30 2373 H 226.429 1.64613 -3.58185 0
M  V30 2374 H 227.717 2.54043 -4.4084 0
M  V30 2375 H 227.115 5.07895 -2.49116 0
M  V30 2376 H 225.672 5.67254 -3.21039 0
M  V30 2377 N 229.106 1.52395 0.401703 0
M  V30 2378 C 230.053 1.76268 1.48991 0
M  V30 2379 C 231.023 0.605386 1.54675 0
M  V30 2380 O 232.208 0.843742 1.7113 0
M  V30 2381 C 229.348 1.92592 2.86361 0
M  V30 2382 C 228.461 3.20259 2.89928 0
M  V30 2383 C 227.596 3.26972 4.18644 0
M  V30 2384 C 226.635 4.48812 4.16214 0
M  V30 2385 N 225.772 4.52877 5.36514 0
M  V30 2386 H 230.612 2.6914 1.27935 0
M  V30 2387 H 228.149 1.33355 0.620871 0
M  V30 2388 H 230.107 2.0004 3.66115 0
M  V30 2389 H 228.737 1.03093 3.05895 0
M  V30 2390 H 227.789 3.21945 2.02621 0
M  V30 2391 H 229.101 4.10056 2.83999 0
M  V30 2392 H 228.255 3.33533 5.06794 0
M  V30 2393 H 226.994 2.35126 4.27278 0
M  V30 2394 H 225.999 4.4239 3.26453 0
M  V30 2395 H 227.224 5.41961 4.09213 0
M  V30 2396 H 225.17 3.63917 5.45802 0
M  V30 2397 H 225.087 5.36529 5.32609 0
M  V30 2398 H 226.355 4.63676 6.26597 0
M  V30 2399 N 230.584 -0.659388 1.43143 0
M  V30 2400 C 231.861 -1.41627 1.34912 0
M  V30 2401 C 232.241 -2.11099 -0.00607785 0
M  V30 2402 O 231.589 -2.04353 -1.02236 0
M  V30 2403 C 231.799 -2.40604 2.52805 0
M  V30 2404 C 233.147 -3.04789 2.95616 0
M  V30 2405 O 234.171 -2.50932 2.52807 0
M  V30 2406 O 233.03 -4.02421 3.69756 0
M  V30 2407 H 230.124 -0.63246 0.532844 0
M  V30 2408 H 232.67 -0.686814 1.5518 0
M  V30 2409 H 231.442 -1.88174 3.43083 0
M  V30 2410 H 231.065 -3.21009 2.34604 0
M  V30 2411 N 232.062 -1.29571 -0.897171 0
M  V30 2412 C 233.025 -1.14913 -1.98312 0
M  V30 2413 C 234.025 -0.0838629 -1.60581 0
M  V30 2414 O 235.215 -0.331006 -1.71026 0
M  V30 2415 C 232.347 -0.757835 -3.3237 0
M  V30 2416 H 233.54 -2.11377 -2.12743 0
M  V30 2417 H 231.093 -1.12793 -1.08201 0
M  V30 2418 H 231.828 0.206837 -3.2364 0
M  V30 2419 H 231.613 -1.52755 -3.61121 0
M  V30 2420 H 233.103 -0.678408 -4.12053 0
M  V30 2421 N 233.54 1.10788 -1.12088 0
M  V30 2422 C 234.768 1.86461 -0.896651 0
M  V30 2423 C 235.183 1.80492 0.553912 0
M  V30 2424 O 234.54 1.19102 1.38278 0
M  V30 2425 C 234.591 3.35006 -1.35843 0
M  V30 2426 O 234.312 3.40866 -2.75213 0
M  V30 2427 C 235.813 4.27565 -1.1706 0
M  V30 2428 H 233.033 0.589425 -0.320654 0
M  V30 2429 H 235.577 1.40076 -1.48993 0
M  V30 2430 H 233.732 3.7887 -0.808458 0
M  V30 2431 H 234.146 4.33411 -2.9539 0
M  V30 2432 H 235.62 5.30007 -1.54263 0
M  V30 2433 H 236.097 4.3906 -0.110814 0
M  V30 2434 H 236.703 3.89501 -1.70789 0
M  V30 2435 N 235.018 0.912232 1.28515 0
M  V30 2436 C 236.295 0.463597 1.90027 0
M  V30 2437 C 236.675 -1.05753 1.82701 0
M  V30 2438 O 236.023 -1.90492 1.26194 0
M  V30 2439 C 236.233 0.992253 3.34597 0
M  V30 2440 C 237.581 1.04344 4.11579 0
M  V30 2441 O 238.605 0.94079 3.43551 0
M  V30 2442 O 237.464 1.1995 5.33174 0
M  V30 2443 H 234.558 0.146666 0.813891 0
M  V30 2444 H 237.104 1.00292 1.36893 0
M  V30 2445 H 235.876 2.03623 3.34146 0
M  V30 2446 H 235.499 0.433672 3.95228 0
M  V30 2447 N 236.496 -1.42363 0.676048 0
M  V30 2448 C 237.743 -2.01522 0.19883 0
M  V30 2449 C 238.071 -1.53456 -1.19505 0
M  V30 2450 O 237.326 -0.727967 -1.81657 0
M  V30 2451 C 237.625 -3.56929 0.183431 0
M  V30 2452 C 237.291 -4.24431 1.52215 0
M  V30 2453 C 235.953 -4.42585 1.8887 0
M  V30 2454 C 238.305 -4.62459 2.40377 0
M  V30 2455 C 235.633 -4.96039 3.13309 0
M  V30 2456 C 237.985 -5.17294 3.64129 0
M  V30 2457 C 236.649 -5.33661 4.00951 0
M  V30 2458 H 235.919 -0.737419 0.0727571 0
M  V30 2459 H 238.566 -1.70531 0.871281 0
M  V30 2460 H 236.871 -3.87594 -0.572532 0
M  V30 2461 H 238.568 -4.00486 -0.203035 0
M  V30 2462 H 235.158 -4.10661 1.22701 0
M  V30 2463 H 239.342 -4.48105 2.13343 0
M  V30 2464 H 234.598 -5.06896 3.41857 0
M  V30 2465 H 238.772 -5.45704 4.32644 0
M  V30 2466 H 236.399 -5.74845 4.9745 0
M  V30 2467 N 237.974 -0.419461 -1.51915 0
M  V30 2468 C 238.884 0.407528 -2.31033 0
M  V30 2469 C 239.9 1.04413 -1.3919 0
M  V30 2470 O 241.076 1.0434 -1.72265 0
M  V30 2471 C 238.141 1.50365 -3.12396 0
M  V30 2472 C 237.202 0.889029 -4.19994 0
M  V30 2473 C 236.435 1.93291 -4.97468 0
M  V30 2474 O 236.658 3.15259 -4.75361 0
M  V30 2475 O 235.592 1.53339 -5.8204 0
M  V30 2476 H 239.418 -0.237865 -3.02767 0
M  V30 2477 H 237.003 -0.182413 -1.48282 0
M  V30 2478 H 238.885 2.13975 -3.63032 0
M  V30 2479 H 237.56 2.13345 -2.43445 0
M  V30 2480 H 236.467 0.215353 -3.7348 0
M  V30 2481 H 237.8 0.302991 -4.91267 0
M  V30 2482 N 239.452 1.56882 -0.150215 0
M  V30 2483 C 240.399 2.16922 0.788244 0
M  V30 2484 C 241.369 1.10303 1.24187 0
M  V30 2485 O 242.554 1.38359 1.31383 0
M  V30 2486 C 239.694 2.79754 2.02068 0
M  V30 2487 C 238.807 4.00775 1.61257 0
M  V30 2488 C 237.942 4.51595 2.79705 0
M  V30 2489 C 236.981 5.65074 2.35282 0
M  V30 2490 N 236.118 6.10499 3.4675 0
M  V30 2491 H 240.958 2.96779 0.269444 0
M  V30 2492 H 238.495 1.46599 0.12128 0
M  V30 2493 H 240.453 3.14329 2.74323 0
M  V30 2494 H 239.083 2.02536 2.51354 0
M  V30 2495 H 238.135 3.72158 0.787553 0
M  V30 2496 H 239.447 4.82978 1.24633 0
M  V30 2497 H 238.601 4.88242 3.60145 0
M  V30 2498 H 237.34 3.68406 3.19576 0
M  V30 2499 H 236.345 5.28 1.53283 0
M  V30 2500 H 237.57 6.50052 1.96493 0
M  V30 2501 H 235.516 5.30243 3.86236 0
M  V30 2502 H 235.433 6.87637 3.14152 0
M  V30 2503 H 236.701 6.51791 4.27537 0
M  V30 2504 N 240.93 -0.123565 1.57115 0
M  V30 2505 C 241.862 -1.17739 1.96648 0
M  V30 2506 C 242.875 -1.37906 0.865201 0
M  V30 2507 O 244.064 -1.37062 1.14351 0
M  V30 2508 C 241.164 -2.53821 2.24562 0
M  V30 2509 C 240.337 -2.54317 3.55867 0
M  V30 2510 C 239.396 -3.72112 3.72047 0
M  V30 2511 O 238.422 -3.55907 4.44206 0
M  V30 2512 N 239.624 -4.90498 3.10471 0
M  V30 2513 H 242.389 -0.841147 2.87654 0
M  V30 2514 H 239.95 -0.31289 1.58848 0
M  V30 2515 H 241.942 -3.31175 2.32606 0
M  V30 2516 H 240.512 -2.79645 1.39705 0
M  V30 2517 H 239.732 -1.62711 3.59053 0
M  V30 2518 H 241.02 -2.51701 4.42181 0
M  V30 2519 H 240.418 -5.06567 2.51806 0
M  V30 2520 H 238.975 -5.65544 3.24043 0
M  V30 2521 N 242.408 -1.52605 -0.393616 0
M  V30 2522 C 243.657 -1.66649 -1.13627 0
M  V30 2523 C 243.97 -0.410364 -1.91247 0
M  V30 2524 O 245.176 -0.430854 -2.68059 0
M  V30 2525 C 243.632 -2.9449 -2.06891 0
M  V30 2526 C 243.24 -4.27266 -1.34714 0
M  V30 2527 C 244.984 -3.17899 -2.81319 0
M  V30 2528 C 242.891 -5.46217 -2.26717 0
M  V30 2529 H 241.821 -0.62084 -0.427871 0
M  V30 2530 H 244.472 -1.791 -0.399428 0
M  V30 2531 H 242.854 -2.75774 -2.84191 0
M  V30 2532 H 244.028 -4.56518 -0.626714 0
M  V30 2533 H 242.343 -4.10081 -0.722643 0
M  V30 2534 H 244.94 -4.03949 -3.50328 0
M  V30 2535 H 245.283 -2.32777 -3.45139 0
M  V30 2536 H 245.816 -3.37159 -2.11113 0
M  V30 2537 H 242.555 -6.33733 -1.67521 0
M  V30 2538 H 242.075 -5.21283 -2.96689 0
M  V30 2539 H 243.754 -5.7991 -2.86903 0
M  V30 2540 N 243.887 0.651787 -1.4349 0
M  V30 2541 C 244.834 1.76462 -1.4876 0
M  V30 2542 C 245.804 1.62641 -0.337189 0
M  V30 2543 O 246.989 1.82864 -0.544544 0
M  V30 2544 C 244.129 3.14623 -1.41796 0
M  V30 2545 C 243.242 3.39568 -2.67053 0
M  V30 2546 C 242.377 4.67585 -2.52068 0
M  V30 2547 C 241.416 4.85639 -3.72587 0
M  V30 2548 N 240.553 6.04915 -3.56402 0
M  V30 2549 H 245.393 1.71293 -2.43849 0
M  V30 2550 H 242.93 0.835889 -1.21043 0
M  V30 2551 H 244.888 3.94496 -1.35753 0
M  V30 2552 H 243.518 3.18859 -0.50288 0
M  V30 2553 H 242.57 2.53783 -2.8337 0
M  V30 2554 H 243.882 3.48795 -3.56572 0
M  V30 2555 H 243.036 5.55586 -2.4374 0
M  V30 2556 H 241.775 4.60681 -1.60075 0
M  V30 2557 H 240.78 3.96073 -3.81321 0
M  V30 2558 H 242.005 4.94372 -4.65589 0
M  V30 2559 H 239.951 5.9914 -2.67146 0
M  V30 2560 H 239.868 6.15106 -4.39524 0
M  V30 2561 H 241.136 6.95533 -3.51929 0
M  V30 2562 N 245.365 1.30045 0.890287 0
M  V30 2563 C 246.275 1.17885 2.02831 0
M  V30 2564 C 247.291 0.0999609 1.73713 0
M  V30 2565 O 248.467 0.313867 1.98939 0
M  V30 2566 C 245.532 0.866079 3.35708 0
M  V30 2567 C 244.593 2.02979 3.78283 0
M  V30 2568 C 243.826 1.73184 5.0482 0
M  V30 2569 O 244.049 0.657237 5.66601 0
M  V30 2570 O 242.983 2.58267 5.43674 0
M  V30 2571 H 246.809 2.13474 2.16015 0
M  V30 2572 H 244.394 1.09587 1.01543 0
M  V30 2573 H 246.276 0.706623 4.15433 0
M  V30 2574 H 244.951 -0.0599443 3.23644 0
M  V30 2575 H 243.858 2.24454 2.99285 0
M  V30 2576 H 245.191 2.93734 3.94944 0
M  V30 2577 N 246.843 -1.10192 1.12674 0
M  V30 2578 C 248.092 -1.81573 0.8783 0
M  V30 2579 C 248.405 -1.86249 -0.597557 0
M  V30 2580 O 249.611 -2.5386 -0.962681 0
M  V30 2581 C 248.067 -3.26149 1.52167 0
M  V30 2582 C 247.675 -3.29763 3.03249 0
M  V30 2583 C 249.419 -4.0234 1.3536 0
M  V30 2584 C 247.326 -4.68815 3.60508 0
M  V30 2585 H 246.256 -0.680394 0.324931 0
M  V30 2586 H 248.907 -1.23902 1.35353 0
M  V30 2587 H 247.289 -3.83832 0.974104 0
M  V30 2588 H 248.463 -2.8189 3.6452 0
M  V30 2589 H 246.778 -2.67059 3.19481 0
M  V30 2590 H 249.375 -5.05058 1.75559 0
M  V30 2591 H 249.718 -4.15235 0.297554 0
M  V30 2592 H 250.251 -3.51079 1.87052 0
M  V30 2593 H 246.99 -4.61121 4.65884 0
M  V30 2594 H 246.51 -5.17045 3.04014 0
M  V30 2595 H 248.189 -5.37785 3.59717 0
M  V30 2596 N 248.321 -0.919034 -1.28029 0
M  V30 2597 C 249.269 -0.401753 -2.29104 0
M  V30 2598 C 250.263 0.509354 -1.61561 0
M  V30 2599 O 251.469 0.390014 -1.75724 0
M  V30 2600 H 247.844 -0.111331 -0.743713 0
M  V30 2601 H 249.815 -1.2672 -2.70156 0
M  V30 2602 C 248.564 0.338148 -3.46052 0
M  V30 2603 H 247.887 -0.353732 -3.98232 0
M  V30 2604 H 249.327 0.664653 -4.18758 0
M  V30 2605 C 247.786 1.54798 -2.99231 0
M  V30 2606 O 248.316 2.64696 -3.02157 0
M  V30 2607 N 246.522 1.3968 -2.54829 0
M  V30 2608 H 246.069 0.502698 -2.52647 0
M  V30 2609 H 246.027 2.20755 -2.23863 0
M  V30 2610 N 249.799 1.42003 -0.683588 0
M  V30 2611 C 251.027 2.05746 -0.218182 0
M  V30 2612 C 251.442 1.51396 1.12804 0
M  V30 2613 O 250.799 0.657303 1.70252 0
M  V30 2614 C 250.85 3.61171 -0.154131 0
M  V30 2615 O 250.571 4.13508 -1.44716 0
M  V30 2616 C 252.072 4.42042 0.333713 0
M  V30 2617 H 249.292 0.662888 -0.10402 0
M  V30 2618 H 251.836 1.81987 -0.9328 0
M  V30 2619 H 249.991 3.84012 0.511231 0
M  V30 2620 H 250.405 5.07453 -1.32632 0
M  V30 2621 H 251.879 5.51028 0.327423 0
M  V30 2622 H 252.356 4.17269 1.37053 0
M  V30 2623 H 252.962 4.24239 -0.300222 0
M  V30 2624 N 251.277 0.427512 1.51691 0
M  V30 2625 C 252.525 -0.141948 2.01601 0
M  V30 2626 C 252.846 -1.44067 1.31414 0
M  V30 2627 O 252.116 -1.90763 0.445658 0
M  V30 2628 H 250.696 -0.0554468 0.744939 0
M  V30 2629 H 253.358 0.567968 1.86441 0
M  V30 2630 H 252.454 -0.324913 3.10404 0
M  V30 2631 N 252.755 -1.56801 0.158532 0
M  V30 2632 C 253.983 -2.00859 -0.496303 0
M  V30 2633 C 254.398 -1.03871 -1.57659 0
M  V30 2634 O 253.755 -0.0375165 -1.82461 0
M  V30 2635 C 253.806 -3.4479 -1.08638 0
M  V30 2636 O 253.527 -4.38072 -0.0492322 0
M  V30 2637 C 255.028 -4.04185 -1.8207 0
M  V30 2638 H 252.248 -0.65864 -0.128199 0
M  V30 2639 H 254.792 -2.02885 0.256506 0
M  V30 2640 H 252.947 -3.43579 -1.78975 0
M  V30 2641 H 253.361 -5.2227 -0.483102 0
M  V30 2642 H 254.835 -5.06857 -2.18633 0
M  V30 2643 H 255.312 -3.45549 -2.71095 0
M  V30 2644 H 255.918 -4.0906 -1.16405 0
M  V30 2645 N 254.233 0.115231 -1.57178 0
M  V30 2646 C 255.463 0.835224 -1.88964 0
M  V30 2647 C 255.871 1.73774 -0.74829 0
M  V30 2648 O 255.214 1.81401 0.289739 0
M  V30 2649 C 255.276 1.7178 -3.15804 0
M  V30 2650 C 254.94 0.989198 -4.46166 0
M  V30 2651 C 255.937 0.328263 -5.18863 0
M  V30 2652 C 253.622 0.969256 -4.9286 0
M  V30 2653 C 255.616 -0.342873 -6.36477 0
M  V30 2654 C 253.303 0.294324 -6.10391 0
M  V30 2655 C 254.301 -0.360582 -6.82048 0
M  V30 2656 O 253.989 -1.02474 -7.97342 0
M  V30 2657 H 253.721 0.245197 -0.629964 0
M  V30 2658 H 256.275 0.10303 -2.05141 0
M  V30 2659 H 254.505 2.49173 -2.95719 0
M  V30 2660 H 256.194 2.31255 -3.33581 0
M  V30 2661 H 256.96 0.335263 -4.8384 0
M  V30 2662 H 252.839 1.46844 -4.36987 0
M  V30 2663 H 256.383 -0.854629 -6.92345 0
M  V30 2664 H 252.28 0.285099 -6.4487 0
M  V30 2665 H 253.048 -0.929594 -8.13204 0
M  V30 2666 N 255.711 1.52812 0.385517 0
M  V30 2667 C 256.957 1.68275 1.13188 0
M  V30 2668 C 257.29 0.423179 1.89533 0
M  V30 2669 O 256.565 -0.579113 1.85679 0
M  V30 2670 C 256.848 2.92001 2.1073 0
M  V30 2671 C 256.701 4.28067 1.38125 0
M  V30 2672 C 258.02 3.11283 3.11113 0
M  V30 2673 H 255.139 0.612352 0.410115 0
M  V30 2674 H 257.781 1.85415 0.414869 0
M  V30 2675 H 255.931 2.77519 2.71874 0
M  V30 2676 H 257.603 4.54324 0.799187 0
M  V30 2677 H 255.846 4.28388 0.683092 0
M  V30 2678 H 256.517 5.10733 2.09417 0
M  V30 2679 H 258.993 3.2482 2.6006 0
M  V30 2680 H 257.869 3.99325 3.76605 0
M  V30 2681 H 258.13 2.25656 3.80173 0
M  V30 2682 N 257.189 -0.644168 1.43834 0
M  V30 2683 C 258.436 -1.40395 1.4593 0
M  V30 2684 C 258.764 -1.94305 0.0869658 0
M  V30 2685 O 258.019 -1.73288 -0.909378 0
M  V30 2686 C 258.318 -2.59615 2.45631 0
M  V30 2687 C 257.984 -2.2407 3.91284 0
M  V30 2688 C 256.646 -2.14089 4.30952 0
M  V30 2689 C 258.998 -1.95775 4.83034 0
M  V30 2690 C 256.326 -1.73981 5.6031 0
M  V30 2691 C 258.678 -1.57163 6.12766 0
M  V30 2692 C 257.342 -1.45713 6.51402 0
M  V30 2693 H 256.612 -0.513741 0.533995 0
M  V30 2694 H 259.259 -0.731724 1.76969 0
M  V30 2695 H 257.564 -3.32011 2.08028 0
M  V30 2696 H 259.261 -3.17834 2.44504 0
M  V30 2697 H 255.851 -2.32753 3.59895 0
M  V30 2698 H 260.035 -2.02403 4.53152 0
M  V30 2699 H 255.291 -1.63709 5.89075 0
M  V30 2700 H 259.465 -1.34303 6.83327 0
M  V30 2701 H 257.092 -1.14406 7.51542 0
M  V30 2702 N 258.668 -1.30515 -0.883378 0
M  V30 2703 C 259.945 -1.10086 -1.6168 0
M  V30 2704 C 260.325 0.349269 -2.08191 0
M  V30 2705 O 259.673 1.34105 -1.85008 0
M  V30 2706 C 259.883 -2.10315 -2.78511 0
M  V30 2707 C 261.231 -2.42119 -3.48803 0
M  V30 2708 O 262.255 -2.08638 -2.88702 0
M  V30 2709 O 261.114 -2.99396 -4.57192 0
M  V30 2710 H 258.208 -0.422907 -0.710689 0
M  V30 2711 H 260.754 -1.41947 -0.930015 0
M  V30 2712 H 259.526 -3.07917 -2.41459 0
M  V30 2713 H 259.149 -1.79282 -3.54886 0
M  V30 2714 N 260.146 1.09593 -1.13257 0
M  V30 2715 C 261.094 2.18271 -0.803783 0
M  V30 2716 C 262.088 1.68054 0.213148 0
M  V30 2717 O 263.294 1.79862 0.0704699 0
M  V30 2718 H 259.669 0.711949 -0.242143 0
M  V30 2719 H 261.64 2.43235 -1.72856 0
M  V30 2720 C 260.389 3.46536 -0.28424 0
M  V30 2721 H 259.712 3.85545 -1.05807 0
M  V30 2722 H 261.152 4.23899 -0.0925945 0
M  V30 2723 C 259.611 3.22036 0.989684 0
M  V30 2724 O 260.141 3.44509 2.06584 0
M  V30 2725 N 258.347 2.7565 0.920086 0
M  V30 2726 H 257.894 2.57562 0.0442019 0
M  V30 2727 H 257.852 2.59635 1.77306 0
M  V30 2728 N 261.624 0.925811 1.2754 0
M  V30 2729 C 262.534 0.428993 2.30644 0
M  V30 2730 C 263.55 -0.489387 1.66976 0
M  V30 2731 O 264.726 -0.372653 1.97922 0
M  V30 2732 C 261.791 -0.311967 3.45294 0
M  V30 2733 C 260.852 0.641098 4.24486 0
M  V30 2734 C 260.085 -0.0645955 5.33661 0
M  V30 2735 O 260.308 -1.28429 5.55754 0
M  V30 2736 O 259.242 0.606265 5.98839 0
M  V30 2737 H 263.068 1.28504 2.75173 0
M  V30 2738 H 260.653 0.691086 1.32455 0
M  V30 2739 H 262.535 -0.729972 4.15029 0
M  V30 2740 H 261.21 -1.14365 3.02824 0
M  V30 2741 H 260.117 1.10874 3.57292 0
M  V30 2742 H 261.45 1.43995 4.70666 0
M  V30 2743 N 263.102 -1.41638 0.69111 0
M  V30 2744 C 264.518 -1.55435 0.362224 0
M  V30 2745 C 264.718 -1.66754 -1.13117 0
M  V30 2746 O 263.774 -1.64348 -1.91692 0
M  V30 2747 C 265.087 -2.79588 1.10684 0
M  V30 2748 C 266.635 -2.9338 1.09075 0
M  V30 2749 C 267.11 -4.20414 1.81703 0
M  V30 2750 N 268.601 -4.27362 1.7865 0
M  V30 2751 C 269.336 -5.24507 2.31689 0
M  V30 2752 N 268.832 -6.27708 2.93179 0
M  V30 2753 N 270.625 -5.16416 2.2197 0
M  V30 2754 H 262.776 -1.32536 1.65976 0
M  V30 2755 H 265.039 -0.639115 0.700168 0
M  V30 2756 H 264.745 -2.77419 2.16175 0
M  V30 2757 H 264.619 -3.70973 0.682545 0
M  V30 2758 H 267.006 -2.95067 0.0441238 0
M  V30 2759 H 267.087 -2.0318 1.55407 0
M  V30 2760 H 266.731 -4.19488 2.86343 0
M  V30 2761 H 266.661 -5.09578 1.32808 0
M  V30 2762 H 269.152 -3.53415 1.33815 0
M  V30 2763 H 269.465 -6.98217 3.31229 0
M  V30 2764 H 267.81 -6.28223 2.97255 0
M  V30 2765 H 271.001 -4.34716 1.73607 0
M  V30 2766 H 271.174 -5.91958 2.63609 0
M  V30 2767 N 264.58 -0.43555 -1.51462 0
M  V30 2768 C 265.51 0.367376 -2.30592 0
M  V30 2769 C 266.491 1.02263 -1.35928 0
M  V30 2770 O 267.676 1.02661 -1.64847 0
M  V30 2771 C 264.806 1.46983 -3.14664 0
M  V30 2772 C 263.76 0.938161 -4.17591 0
M  V30 2773 C 263.086 2.13622 -4.90173 0
M  V30 2774 C 264.386 -0.0261621 -5.22293 0
M  V30 2775 H 266.08 -0.292969 -2.97963 0
M  V30 2776 H 263.626 -0.14234 -1.43295 0
M  V30 2777 H 265.579 2.03873 -3.688 0
M  V30 2778 H 264.303 2.15843 -2.4511 0
M  V30 2779 H 262.962 0.391481 -3.64504 0
M  V30 2780 H 262.61 2.81098 -4.17124 0
M  V30 2781 H 262.31 1.78688 -5.59772 0
M  V30 2782 H 263.834 2.7107 -5.47132 0
M  V30 2783 H 265.248 0.452384 -5.71512 0
M  V30 2784 H 263.645 -0.287992 -5.99409 0
M  V30 2785 H 264.715 -0.963391 -4.75233 0
M  V30 2786 N 266.058 1.56714 -0.166846 0
M  V30 2787 C 267.305 1.96747 0.479252 0
M  V30 2788 C 267.633 1.05263 1.63554 0
M  V30 2789 O 266.888 0.0858098 1.95512 0
M  V30 2790 C 267.187 3.42889 1.00806 0
M  V30 2791 C 266.853 4.50889 -0.0318574 0
M  V30 2792 C 265.515 4.8015 -0.317675 0
M  V30 2793 C 267.867 5.15949 -0.737956 0
M  V30 2794 C 265.195 5.71772 -1.31506 0
M  V30 2795 C 267.547 6.08647 -1.72429 0
M  V30 2796 C 266.211 6.36277 -2.0176 0
M  V30 2797 H 265.481 0.719949 0.175371 0
M  V30 2798 H 268.128 1.89756 -0.257864 0
M  V30 2799 H 266.433 3.4681 1.82291 0
M  V30 2800 H 268.13 3.71203 1.51689 0
M  V30 2801 H 264.72 4.28128 0.201088 0
M  V30 2802 H 268.904 4.93458 -0.530351 0
M  V30 2803 H 264.16 5.91465 -1.54853 0
M  V30 2804 H 268.334 6.58129 -2.27682 0
M  V30 2805 H 265.961 7.07075 -2.79194 0
M  V30 2806 N 267.536 -0.106894 1.57237 0
M  V30 2807 C 268.446 -1.14911 2.0453 0
M  V30 2808 C 269.462 -1.44592 0.96795 0
M  V30 2809 O 270.638 -1.55468 1.2803 0
M  V30 2810 C 267.703 -2.45272 2.45036 0
M  V30 2811 C 266.764 -2.22879 3.66911 0
M  V30 2812 C 265.997 -3.47024 4.05475 0
M  V30 2813 O 266.22 -4.54804 3.44252 0
M  V30 2814 O 265.154 -3.3731 4.98504 0
M  V30 2815 H 268.98 -0.777461 2.9358 0
M  V30 2816 H 266.565 -0.318563 1.45964 0
M  V30 2817 H 268.447 -3.22055 2.71769 0
M  V30 2818 H 267.122 -2.81886 1.59129 0
M  V30 2819 H 266.029 -1.43915 3.45311 0
M  V30 2820 H 267.362 -1.91163 4.53561 0
M  V30 2821 N 269.014 -1.53014 -0.377408 0
M  V30 2822 C 269.977 -1.77957 -1.44444 0
M  V30 2823 C 270.977 -0.649763 -1.47087 0
M  V30 2824 O 272.167 -0.917897 -1.48055 0
M  V30 2825 C 269.299 -1.89089 -2.83651 0
M  V30 2826 H 270.492 -2.73243 -1.23606 0
M  V30 2827 H 268.045 -1.43912 -0.609844 0
M  V30 2828 H 268.78 -0.958293 -3.09818 0
M  V30 2829 H 268.565 -2.71254 -2.83132 0
M  V30 2830 H 270.055 -2.1002 -3.60945 0
M  V30 2831 N 270.492 0.636531 -1.44174 0
M  V30 2832 C 271.422 1.76003 -1.53444 0
M  V30 2833 C 272.403 1.65619 -0.387841 0
M  V30 2834 O 273.588 1.84461 -0.607257 0
M  V30 2835 C 270.718 3.14511 -1.4731 0
M  V30 2836 C 269.672 3.39677 -2.60391 0
M  V30 2837 C 268.998 4.78159 -2.39308 0
M  V30 2838 C 270.298 3.32772 -4.02567 0
M  V30 2839 H 271.992 1.68501 -2.47483 0
M  V30 2840 H 269.538 0.809237 -1.19111 0
M  V30 2841 H 271.491 3.92878 -1.52397 0
M  V30 2842 H 270.215 3.22783 -0.49785 0
M  V30 2843 H 268.874 2.63688 -2.54684 0
M  V30 2844 H 268.522 4.83128 -1.39988 0
M  V30 2845 H 268.222 4.95956 -3.15122 0
M  V30 2846 H 269.746 5.58762 -2.46205 0
M  V30 2847 H 271.16 4.01051 -4.09672 0
M  V30 2848 H 269.557 3.62104 -4.7854 0
M  V30 2849 H 270.627 2.30669 -4.2652 0
M  V30 2850 N 271.97 1.30982 0.876444 0
M  V30 2851 C 272.917 1.18085 1.98304 0
M  V30 2852 C 273.887 0.0682263 1.6596 0
M  V30 2853 O 275.072 0.239937 1.89285 0
M  V30 2854 C 272.212 0.887475 3.33493 0
M  V30 2855 C 271.325 2.08281 3.78475 0
M  V30 2856 C 270.46 1.72678 5.0235 0
M  V30 2857 C 269.499 2.88657 5.39762 0
M  V30 2858 N 268.636 2.53292 6.54819 0
M  V30 2859 H 273.476 2.1275 2.08666 0
M  V30 2860 H 271.013 1.05839 1.02159 0
M  V30 2861 H 272.971 0.697961 4.1132 0
M  V30 2862 H 271.601 -0.022315 3.22792 0
M  V30 2863 H 270.653 2.3833 2.96484 0
M  V30 2864 H 271.965 2.95108 4.02135 0
M  V30 2865 H 271.119 1.50151 5.87826 0
M  V30 2866 H 269.858 0.830327 4.8058 0
M  V30 2867 H 268.863 3.1184 4.52809 0
M  V30 2868 H 270.088 3.79002 5.63502 0
M  V30 2869 H 268.034 1.66163 6.34607 0
M  V30 2870 H 267.951 3.3365 6.7839 0
M  V30 2871 H 269.219 2.34143 7.43503 0
M  V30 2872 N 273.449 -1.08991 1.13837 0
M  V30 2873 C 274.397 -2.17841 0.815347 0
M  V30 2874 C 275.391 -1.68164 -0.204233 0
M  V30 2875 O 276.597 -1.79897 -0.0609304 0
M  V30 2876 H 272.972 -0.710654 0.245915 0
M  V30 2877 H 274.943 -2.42315 1.74143 0
M  V30 2878 C 273.692 -3.46381 0.302614 0
M  V30 2879 H 273.015 -3.84979 1.0785 0
M  V30 2880 H 274.455 -4.23844 0.115074 0
M  V30 2881 C 272.914 -3.22556 -0.972591 0
M  V30 2882 O 273.444 -3.45599 -2.04754 0
M  V30 2883 N 271.65 -2.76134 -0.905455 0
M  V30 2884 H 271.197 -2.57582 -0.0305421 0
M  V30 2885 H 271.155 -2.60571 -1.75926 0
M  V30 2886 N 274.927 -0.932562 -1.27047 0
M  V30 2887 C 276.176 -0.571351 -1.93439 0
M  V30 2888 C 276.489 0.892467 -1.74053 0
M  V30 2889 O 277.695 1.36267 -2.34826 0
M  V30 2890 C 276.151 -0.97106 -3.46552 0
M  V30 2891 C 275.759 -2.4559 -3.74686 0
M  V30 2892 C 277.503 -0.681333 -4.18997 0
M  V30 2893 C 275.41 -2.79475 -5.21198 0
M  V30 2894 H 274.34 -0.209966 -0.724176 0
M  V30 2895 H 276.991 -1.13403 -1.44263 0
M  V30 2896 H 275.373 -0.336983 -3.94564 0
M  V30 2897 H 276.547 -3.13829 -3.37414 0
M  V30 2898 H 274.862 -2.71802 -3.15456 0
M  V30 2899 H 277.459 -0.910939 -5.26883 0
M  V30 2900 H 277.802 0.381628 -4.14547 0
M  V30 2901 H 278.335 -1.27473 -3.76823 0
M  V30 2902 H 275.074 -3.847 -5.30741 0
M  V30 2903 H 274.594 -2.1589 -5.596 0
M  V30 2904 H 276.273 -2.67478 -5.89122 0
M  V30 2905 N 276.405 1.4127 -0.698611 0
M  V30 2906 C 277.353 2.32588 -0.023855 0
M  V30 2907 C 278.347 1.51128 0.765292 0
M  V30 2908 O 279.553 1.67043 0.670571 0
M  V30 2909 H 275.928 0.751918 0.0110871 0
M  V30 2910 H 277.899 2.87167 -0.811031 0
M  V30 2911 C 276.648 3.35947 0.896369 0
M  V30 2912 H 275.971 3.98684 0.298548 0
M  V30 2913 H 277.411 4.02376 1.33676 0
M  V30 2914 C 275.87 2.70076 2.01396 0
M  V30 2915 O 276.4 2.55093 3.10307 0
M  V30 2916 N 274.606 2.28724 1.79259 0
M  V30 2917 H 274.153 2.4111 0.906841 0
M  V30 2918 H 274.111 1.84986 2.54219 0
M  V30 2919 N 277.883 0.443576 1.51229 0
M  V30 2920 C 279.111 -0.11929 2.06556 0
M  V30 2921 C 279.526 -1.35921 1.31038 0
M  V30 2922 O 278.883 -1.78675 0.371704 0
M  V30 2923 C 278.934 -0.435228 3.5887 0
M  V30 2924 O 278.655 0.755486 4.31537 0
M  V30 2925 C 280.156 -1.04808 4.30732 0
M  V30 2926 H 277.376 -0.0051584 0.67098 0
M  V30 2927 H 279.92 0.624453 1.94733 0
M  V30 2928 H 278.075 -1.12887 3.70588 0
M  V30 2929 H 278.489 0.483491 5.22267 0
M  V30 2930 H 279.963 -1.2191 5.3837 0
M  V30 2931 H 280.44 -2.03081 3.89429 0
M  V30 2932 H 281.046 -0.393637 4.23474 0
M  V30 2933 N 279.361 -1.56624 0.175154 0
M  V30 2934 C 280.309 -2.19468 -0.770495 0
M  V30 2935 C 281.303 -1.15985 -1.23466 0
M  V30 2936 O 282.509 -1.34176 -1.19987 0
M  V30 2937 H 278.884 -0.703095 -0.266761 0
M  V30 2938 H 280.855 -2.97613 -0.216542 0
M  V30 2939 C 279.604 -2.85264 -1.98796 0
M  V30 2940 H 278.927 -3.64623 -1.63983 0
M  V30 2941 H 280.367 -3.327 -2.62843 0
M  V30 2942 C 278.826 -1.85239 -2.81404 0
M  V30 2943 O 279.356 -1.34024 -3.78682 0
M  V30 2944 N 277.562 -1.53911 -2.46495 0
M  V30 2945 H 277.109 -1.95751 -1.67449 0
M  V30 2946 H 277.067 -0.872382 -3.02054 0
M  V30 2947 N 280.839 0.0985539 -1.57292 0
M  V30 2948 C 281.787 1.1387 -2.02821 0
M  V30 2949 C 282.781 1.41676 -0.928666 0
M  V30 2950 O 283.987 1.41398 -1.11385 0
M  V30 2951 H 280.362 0.384419 -0.646317 0
M  V30 2952 H 282.333 0.728347 -2.89375 0
M  V30 2953 C 281.082 2.45166 -2.46554 0
M  V30 2954 H 280.405 2.24613 -3.3074 0
M  V30 2955 H 281.845 3.16456 -2.8219 0
M  V30 2956 C 280.304 3.09216 -1.33742 0
M  V30 2957 O 280.834 3.96163 -0.66464 0
M  V30 2958 N 279.04 2.69413 -1.08928 0
M  V30 2959 H 278.587 1.98801 -1.63817 0
M  V30 2960 H 278.545 3.12594 -0.336458 0
M  V30 2961 N 282.317 1.53212 0.369288 0
M  V30 2962 C 283.28 1.7872 1.43498 0
M  V30 2963 C 284.28 0.657554 1.46741 0
M  V30 2964 O 285.47 0.925736 1.47566 0
M  V30 2965 C 282.602 1.90591 2.82645 0
M  V30 2966 H 283.795 2.73894 1.22156 0
M  V30 2967 H 281.348 1.44233 0.602203 0
M  V30 2968 H 282.083 0.974709 3.09306 0
M  V30 2969 H 281.868 2.72751 2.8169 0
M  V30 2970 H 283.358 2.11931 3.59826 0
M  V30 2971 N 283.795 -0.628877 1.44509 0
M  V30 2972 C 284.727 -1.754 1.47538 0
M  V30 2973 C 285.74 -1.58575 0.368506 0
M  V30 2974 O 286.929 -1.66847 0.634376 0
M  V30 2975 C 284.029 -3.1315 1.29577 0
M  V30 2976 C 283.202 -3.56413 2.53551 0
M  V30 2977 C 282.261 -4.7305 2.30457 0
M  V30 2978 O 281.287 -4.81247 3.03957 0
M  V30 2979 N 282.489 -5.64903 1.3366 0
M  V30 2980 H 285.254 -1.73272 2.44534 0
M  V30 2981 H 282.815 -0.813512 1.39977 0
M  V30 2982 H 284.807 -3.88902 1.11971 0
M  V30 2983 H 283.377 -3.09908 0.409371 0
M  V30 2984 H 282.597 -2.70847 2.86419 0
M  V30 2985 H 283.885 -3.82071 3.36005 0
M  V30 2986 H 283.283 -5.60975 0.729604 0
M  V30 2987 H 281.84 -6.40275 1.22032 0
M  V30 2988 N 285.273 -1.31445 -0.869486 0
M  V30 2989 C 286.521 -1.20918 -1.61936 0
M  V30 2990 C 286.842 0.232683 -1.93607 0
M  V30 2991 O 286.112 1.15352 -1.58338 0
M  V30 2992 H 284.692 -0.44454 -0.600328 0
M  V30 2993 H 287.354 -1.64776 -1.0409 0
M  V30 2994 H 286.45 -1.78124 -2.56278 0
M  V30 2995 N 286.751 1.08385 -1.14413 0
M  V30 2996 C 287.661 2.18856 -0.844951 0
M  V30 2997 C 288.677 1.73121 0.174668 0
M  V30 2998 O 289.853 2.014 0.00312857 0
M  V30 2999 C 286.918 3.45155 -0.32696 0
M  V30 3000 C 285.979 4.05513 -1.40916 0
M  V30 3001 C 285.212 5.25784 -0.915793 0
M  V30 3002 O 285.435 5.69884 0.242651 0
M  V30 3003 O 284.369 5.77545 -1.69487 0
M  V30 3004 H 288.195 2.46919 -1.76818 0
M  V30 3005 H 285.78 1.17524 -0.922411 0
M  V30 3006 H 287.662 4.21377 -0.0440211 0
M  V30 3007 H 286.337 3.18668 0.568539 0
M  V30 3008 H 285.244 3.30879 -1.74556 0
M  V30 3009 H 286.577 4.3625 -2.27919 0
M  V30 3010 N 288.23 0.939286 1.26551 0
M  V30 3011 C 289.46 0.601663 1.97645 0
M  V30 3012 C 289.868 -0.827206 1.70159 0
M  V30 3013 O 289.211 -1.56291 0.965338 0
M  V30 3014 C 289.273 0.761725 3.51337 0
M  V30 3015 C 288.937 2.16487 4.0247 0
M  V30 3016 C 289.934 3.14016 4.14355 0
M  V30 3017 C 287.619 2.48494 4.36527 0
M  V30 3018 C 289.613 4.41654 4.59587 0
M  V30 3019 C 287.3 3.76364 4.81449 0
M  V30 3020 C 288.298 4.72758 4.92939 0
M  V30 3021 O 287.986 5.98352 5.36871 0
M  V30 3022 H 287.718 0.225758 0.637189 0
M  V30 3023 H 290.272 1.26178 1.62075 0
M  V30 3024 H 288.502 0.0444808 3.86674 0
M  V30 3025 H 290.191 0.427442 4.03643 0
M  V30 3026 H 290.957 2.90613 3.8829 0
M  V30 3027 H 286.836 1.74202 4.26819 0
M  V30 3028 H 290.38 5.16896 4.68471 0
M  V30 3029 H 286.277 3.99582 5.06956 0
M  V30 3030 H 287.045 6.01507 5.55096 0
M  V30 3031 N 289.708 -1.40897 0.706093 0
M  V30 3032 C 290.938 -2.05075 0.250523 0
M  V30 3033 C 291.346 -1.53275 -1.10921 0
M  V30 3034 O 290.689 -0.680281 -1.7064 0
M  V30 3035 C 290.751 -3.59219 0.142178 0
M  V30 3036 C 290.415 -4.33864 1.43566 0
M  V30 3037 C 291.412 -4.62448 2.37566 0
M  V30 3038 C 289.097 -4.72946 1.69195 0
M  V30 3039 C 291.091 -5.29088 3.5545 0
M  V30 3040 C 288.778 -5.3932 2.87362 0
M  V30 3041 C 289.776 -5.6732 3.80312 0
M  V30 3042 O 289.464 -6.32325 4.96408 0
M  V30 3043 H 289.196 -0.666645 0.112074 0
M  V30 3044 H 291.75 -1.81467 0.962239 0
M  V30 3045 H 289.98 -3.81609 -0.6254 0
M  V30 3046 H 291.669 -4.0495 -0.277584 0
M  V30 3047 H 292.435 -4.32727 2.19027 0
M  V30 3048 H 288.314 -4.50527 0.977042 0
M  V30 3049 H 291.858 -5.50859 4.28018 0
M  V30 3050 H 287.755 -5.68461 3.05814 0
M  V30 3051 H 288.523 -6.50821 4.9636 0
M  V30 3052 N 291.186 -0.45159 -1.50991 0
M  V30 3053 C 292.435 0.111653 -2.01391 0
M  V30 3054 C 292.748 1.42529 -1.33959 0
M  V30 3055 O 293.954 2.07232 -1.75405 0
M  V30 3056 C 292.41 0.249514 -3.59034 0
M  V30 3057 C 292.018 -1.05453 -4.35412 0
M  V30 3058 C 293.762 0.765762 -4.17536 0
M  V30 3059 C 291.669 -0.881529 -5.84793 0
M  V30 3060 H 290.599 0.0455022 -0.752626 0
M  V30 3061 H 293.25 -0.583524 -1.73975 0
M  V30 3062 H 291.632 1.00803 -3.82955 0
M  V30 3063 H 292.806 -1.82248 -4.23229 0
M  V30 3064 H 291.121 -1.50039 -3.88429 0
M  V30 3065 H 293.718 0.911913 -5.26866 0
M  V30 3066 H 294.061 1.75201 -3.77638 0
M  V30 3067 H 294.594 0.0651744 -3.97747 0
M  V30 3068 H 291.333 -1.84057 -6.29129 0
M  V30 3069 H 290.853 -0.153625 -5.99603 0
M  V30 3070 H 292.532 -0.540363 -6.4474 0
M  V30 3071 N 292.664 1.56529 -0.183458 0
M  V30 3072 C 293.892 2.01623 0.464285 0
M  V30 3073 C 294.307 1.06366 1.55986 0
M  V30 3074 O 293.664 0.0665398 1.82379 0
M  V30 3075 C 293.715 3.46475 1.03139 0
M  V30 3076 O 293.436 4.38095 -0.0204675 0
M  V30 3077 C 294.937 4.0703 1.75617 0
M  V30 3078 H 292.157 0.660596 0.117704 0
M  V30 3079 H 294.701 2.02451 -0.288751 0
M  V30 3080 H 292.856 3.46383 1.73486 0
M  V30 3081 H 293.27 5.22973 0.399952 0
M  V30 3082 H 294.744 5.10271 2.10542 0
M  V30 3083 H 295.221 3.49819 2.65563 0
M  V30 3084 H 295.827 4.1086 1.09882 0
M  V30 3085 N 294.142 -0.090211 1.57342 0
M  V30 3086 C 295.419 -0.824761 1.77361 0
M  V30 3087 C 295.799 -1.96698 0.76637 0
M  V30 3088 O 295.147 -2.27586 -0.204179 0
M  V30 3089 C 295.357 -1.31481 3.23286 0
M  V30 3090 C 296.705 -1.75563 3.86604 0
M  V30 3091 O 297.729 -1.41093 3.27065 0
M  V30 3092 O 296.588 -2.39317 4.91314 0
M  V30 3093 H 293.682 -0.393776 0.727234 0
M  V30 3094 H 296.228 -0.0717138 1.69548 0
M  V30 3095 H 295 -0.496671 3.88135 0
M  V30 3096 H 294.623 -2.12973 3.35751 0
M  V30 3097 N 295.62 -1.53406 -0.361157 0
M  V30 3098 C 296.866 -1.70054 -1.10496 0
M  V30 3099 C 297.199 -0.453278 -1.88836 0
M  V30 3100 O 296.474 0.5495 -1.86576 0
M  V30 3101 C 296.757 -2.95317 -2.06058 0
M  V30 3102 C 296.61 -4.3021 -1.31298 0
M  V30 3103 C 297.929 -3.16193 -3.06121 0
M  V30 3104 H 295.048 -0.618799 -0.400321 0
M  V30 3105 H 297.69 -1.86052 -0.385318 0
M  V30 3106 H 295.84 -2.81809 -2.67425 0
M  V30 3107 H 297.512 -4.55538 -0.726807 0
M  V30 3108 H 295.755 -4.29421 -0.614853 0
M  V30 3109 H 296.426 -5.14 -2.01265 0
M  V30 3110 H 298.902 -3.28916 -2.5486 0
M  V30 3111 H 297.778 -4.05266 -3.70204 0
M  V30 3112 H 298.039 -2.31676 -3.76535 0
M  V30 3113 N 297.098 0.621204 -1.44841 0
M  V30 3114 C 298.347 1.37658 -1.47422 0
M  V30 3115 C 298.66 1.95264 -0.114629 0
M  V30 3116 O 299.866 2.71494 -0.0180199 0
M  V30 3117 C 298.322 2.49285 -2.59586 0
M  V30 3118 C 297.93 1.98149 -4.01797 0
M  V30 3119 C 299.674 3.26409 -2.71399 0
M  V30 3120 C 297.581 3.07178 -5.05367 0
M  V30 3121 H 296.511 0.517344 -0.548517 0
M  V30 3122 H 299.162 0.667257 -1.70938 0
M  V30 3123 H 297.544 3.22839 -2.29328 0
M  V30 3124 H 298.718 1.31395 -4.41669 0
M  V30 3125 H 297.033 1.33812 -3.94314 0
M  V30 3126 H 299.63 4.07706 -3.45948 0
M  V30 3127 H 299.973 3.76535 -1.77559 0
M  V30 3128 H 300.506 2.5995 -3.01116 0
M  V30 3129 H 297.245 2.61985 -6.00869 0
M  V30 3130 H 296.765 3.72542 -4.70077 0
M  V30 3131 H 298.444 3.71789 -5.29511 0
M  V30 3132 N 298.576 1.31904 0.862503 0
M  V30 3133 C 299.824 1.21776 1.61292 0
M  V30 3134 C 300.145 -0.222413 1.93727 0
M  V30 3135 O 299.415 -1.1451 1.58947 0
M  V30 3136 H 297.995 0.447717 0.597962 0
M  V30 3137 H 300.657 1.65326 1.03215 0
M  V30 3138 H 299.753 1.7948 2.5533 0
M  V30 3139 N 300.054 -1.07777 1.14986 0
M  V30 3140 C 301.303 -1.79669 0.916617 0
M  V30 3141 C 301.616 -1.87474 -0.557917 0
M  V30 3142 O 302.822 -2.55845 -0.908617 0
M  V30 3143 C 301.278 -3.22848 1.59051 0
M  V30 3144 C 300.886 -3.23257 3.10176 0
M  V30 3145 C 302.63 -3.99379 1.43864 0
M  V30 3146 C 300.537 -4.61063 3.70372 0
M  V30 3147 H 299.467 -0.673349 0.33929 0
M  V30 3148 H 302.118 -1.21003 1.37951 0
M  V30 3149 H 300.5 -3.8168 1.0553 0
M  V30 3150 H 301.674 -2.74095 3.70417 0
M  V30 3151 H 299.989 -2.60222 3.25074 0
M  V30 3152 H 302.586 -5.0122 1.86232 0
M  V30 3153 H 302.929 -4.14511 0.385564 0
M  V30 3154 H 303.462 -3.47032 1.94457 0
M  V30 3155 H 300.201 -4.51135 4.7556 0
M  V30 3156 H 299.721 -5.1048 3.14913 0
M  V30 3157 H 301.4 -5.30034 3.71043 0
M  V30 3158 N 301.532 -0.945985 -1.26051 0
M  V30 3159 C 302.779 -0.596118 -1.93527 0
M  V30 3160 C 303.107 0.865559 -1.74179 0
M  V30 3161 O 302.362 1.63524 -1.0751 0
M  V30 3162 C 302.661 -0.890475 -3.46129 0
M  V30 3163 C 302.327 -2.3368 -3.85622 0
M  V30 3164 C 300.989 -2.73216 -3.96114 0
M  V30 3165 C 303.341 -3.27648 -4.05334 0
M  V30 3166 C 300.669 -4.05806 -4.2372 0
M  V30 3167 C 303.021 -4.59841 -4.3443 0
M  V30 3168 C 301.685 -4.99185 -4.43137 0
M  V30 3169 H 300.955 -0.218135 -0.708165 0
M  V30 3170 H 303.602 -1.1934 -1.49768 0
M  V30 3171 H 301.907 -0.210711 -3.91233 0
M  V30 3172 H 303.604 -0.598478 -3.96509 0
M  V30 3173 H 300.194 -2.02015 -3.78005 0
M  V30 3174 H 304.378 -2.98298 -3.96651 0
M  V30 3175 H 299.634 -4.35945 -4.28675 0
M  V30 3176 H 303.808 -5.32641 -4.48628 0
M  V30 3177 H 301.435 -6.01952 -4.64282 0
M  V30 3178 N 303.011 1.40521 -0.713556 0
M  V30 3179 C 304.427 1.54839 -0.386907 0
M  V30 3180 C 304.627 1.68532 1.1045 0
M  V30 3181 O 303.683 1.67377 1.89053 0
M  V30 3182 C 304.996 2.77792 -1.15118 0
M  V30 3183 C 306.544 2.91607 -1.13729 0
M  V30 3184 C 307.019 4.1747 -1.88368 0
M  V30 3185 N 308.51 4.24466 -1.85427 0
M  V30 3186 C 309.245 5.20755 -2.40004 0
M  V30 3187 N 308.741 6.22965 -3.03129 0
M  V30 3188 N 310.534 5.1282 -2.30158 0
M  V30 3189 H 302.685 1.29879 -1.68063 0
M  V30 3190 H 304.948 0.627896 -0.710247 0
M  V30 3191 H 304.654 2.73944 -2.20561 0
M  V30 3192 H 304.528 3.6984 -0.741477 0
M  V30 3193 H 306.915 2.94959 -0.0910608 0
M  V30 3194 H 306.996 2.00682 -1.5862 0
M  V30 3195 H 306.64 4.1488 -2.9298 0
M  V30 3196 H 306.57 5.074 -1.40898 0
M  V30 3197 H 309.061 3.51241 -1.3942 0
M  V30 3198 H 309.374 6.92859 -3.42295 0
M  V30 3199 H 307.719 6.23415 -3.07212 0
M  V30 3200 H 310.91 4.31899 -1.80501 0
M  V30 3201 H 311.083 5.87689 -2.72993 0
M  V30 3202 N 304.489 0.459591 1.5075 0
M  V30 3203 C 305.399 -0.34613 2.32033 0
M  V30 3204 C 306.415 -1.00686 1.41909 0
M  V30 3205 O 307.591 -0.997361 1.7497 0
M  V30 3206 C 304.656 -1.42029 3.16273 0
M  V30 3207 C 303.717 -0.777362 4.22203 0
M  V30 3208 C 302.95 -1.80034 5.02418 0
M  V30 3209 O 303.173 -3.02544 4.83553 0
M  V30 3210 O 302.107 -1.37853 5.85901 0
M  V30 3211 H 305.933 0.318054 3.0203 0
M  V30 3212 H 303.518 0.221663 1.47746 0
M  V30 3213 H 305.4 -2.04275 3.68578 0
M  V30 3214 H 304.075 -2.06815 2.49016 0
M  V30 3215 H 302.982 -0.116256 3.73919 0
M  V30 3216 H 304.315 -0.172634 4.91897 0
M  V30 3217 N 305.967 -1.56429 0.191757 0
M  V30 3218 C 307.195 -2.01867 -0.453586 0
M  V30 3219 C 307.61 -1.07191 -1.5542 0
M  V30 3220 O 306.967 -0.0762108 -1.82341 0
M  V30 3221 C 307.018 -3.47017 -1.013 0
M  V30 3222 O 306.739 -4.38078 0.0437005 0
M  V30 3223 C 308.24 -4.07956 -1.73456 0
M  V30 3224 H 305.46 -0.661211 -0.114199 0
M  V30 3225 H 308.004 -2.02295 0.299483 0
M  V30 3226 H 306.159 -3.47298 -1.71647 0
M  V30 3227 H 306.573 -5.23178 -0.372212 0
M  V30 3228 H 308.047 -5.1138 -2.07833 0
M  V30 3229 H 308.524 -3.51222 -2.63704 0
M  V30 3230 H 309.13 -4.11437 -1.07702 0
M  V30 3231 N 307.445 0.0818655 -1.57387 0
M  V30 3232 C 308.693 0.781368 -1.86384 0
M  V30 3233 C 309.014 1.78618 -0.782342 0
M  V30 3234 O 308.284 1.94976 0.190061 0
M  V30 3235 H 306.864 0.291562 -0.687751 0
M  V30 3236 H 309.526 0.060348 -1.94807 0
M  V30 3237 H 308.622 1.3038 -2.83562 0
M  V30 3238 N 308.923 1.53595 0.353017 0
M  V30 3239 C 309.833 1.83897 1.45667 0
M  V30 3240 C 310.849 0.728334 1.58023 0
M  V30 3241 O 312.025 1.01968 1.73679 0
M  V30 3242 C 309.09 2.03383 2.80778 0
M  V30 3243 C 308.151 3.27262 2.77845 0
M  V30 3244 C 307.384 3.45809 4.06512 0
M  V30 3245 O 307.607 2.68387 5.03314 0
M  V30 3246 O 306.541 4.39207 4.11559 0
M  V30 3247 H 310.367 2.77686 1.2298 0
M  V30 3248 H 307.952 1.39132 0.544308 0
M  V30 3249 H 309.834 2.17698 3.60812 0
M  V30 3250 H 308.509 1.12783 3.03417 0
M  V30 3251 H 307.416 3.18359 1.96465 0
M  V30 3252 H 308.749 4.17824 2.60161 0
M  V30 3253 N 310.401 -0.613514 1.45168 0
M  V30 3254 C 311.348 -1.72456 1.53387 0
M  V30 3255 C 312.318 -1.6169 0.380191 0
M  V30 3256 O 313.503 -1.81356 0.592836 0
M  V30 3257 C 310.643 -3.10753 1.50088 0
M  V30 3258 C 309.756 -3.32368 2.75963 0
M  V30 3259 C 308.891 -4.60737 2.64376 0
M  V30 3260 C 307.93 -4.7559 3.85332 0
M  V30 3261 N 307.067 -5.95253 3.72315 0
M  V30 3262 H 311.907 -1.64768 2.48305 0
M  V30 3263 H 309.444 -0.803503 1.23216 0
M  V30 3264 H 311.402 -3.90758 1.46164 0
M  V30 3265 H 310.032 -3.17413 0.587243 0
M  V30 3266 H 309.084 -2.4618 2.89999 0
M  V30 3267 H 310.396 -3.39218 3.65695 0
M  V30 3268 H 309.55 -5.48928 2.58385 0
M  V30 3269 H 308.289 -4.56275 1.72233 0
M  V30 3270 H 307.294 -3.85824 3.91688 0
M  V30 3271 H 308.519 -4.81854 4.78533 0
M  V30 3272 H 306.465 -5.91847 2.82937 0
M  V30 3273 H 306.382 -6.03236 4.55677 0
M  V30 3274 H 307.65 -6.85958 3.70246 0
M  V30 3275 N 311.879 -1.3236 -0.855495 0
M  V30 3276 C 313.125 -1.23054 -1.612 0
M  V30 3277 C 313.458 0.207404 -1.93089 0
M  V30 3278 O 312.733 1.14432 -1.57275 0
M  V30 3279 C 313.016 -2.08937 -2.93287 0
M  V30 3280 C 312.869 -3.61105 -2.68185 0
M  V30 3281 C 314.188 -1.94986 -3.94549 0
M  V30 3282 H 311.307 -0.448364 -0.584926 0
M  V30 3283 H 313.949 -1.62297 -0.987917 0
M  V30 3284 H 312.099 -1.75599 -3.46551 0
M  V30 3285 H 313.771 -4.04652 -2.21483 0
M  V30 3286 H 312.014 -3.83813 -2.02164 0
M  V30 3287 H 312.685 -4.16522 -3.62234 0
M  V30 3288 H 315.161 -2.24189 -3.5054 0
M  V30 3289 H 314.037 -2.57356 -4.84829 0
M  V30 3290 H 314.298 -0.917263 -4.3248 0
M  V30 3291 N 313.357 1.07166 -1.15556 0
M  V30 3292 C 314.605 1.79443 -0.929764 0
M  V30 3293 C 314.926 1.87246 0.544414 0
M  V30 3294 O 314.196 1.37473 1.39564 0
M  V30 3295 H 312.776 0.664625 -0.341003 0
M  V30 3296 H 315.438 1.29499 -1.45657 0
M  V30 3297 H 314.534 2.81832 -1.34079 0
M  V30 3298 N 314.835 0.952656 1.25548 0
M  V30 3299 C 315.798 0.475794 2.24207 0
M  V30 3300 C 316.798 -0.419428 1.55234 0
M  V30 3301 O 317.988 -0.216994 1.72843 0
M  V30 3302 C 315.12 -0.312814 3.39462 0
M  V30 3303 H 316.313 1.34779 2.67908 0
M  V30 3304 H 313.866 0.735739 1.37901 0
M  V30 3305 H 314.601 -1.20257 3.01179 0
M  V30 3306 H 314.386 0.329404 3.90714 0
M  V30 3307 H 315.876 -0.635986 4.12729 0
M  V30 3308 N 316.313 -1.40141 0.720998 0
M  V30 3309 C 317.543 -2.04798 0.27226 0
M  V30 3310 C 317.951 -1.54442 -1.09289 0
M  V30 3311 O 317.294 -0.698342 -1.69908 0
M  V30 3312 C 317.356 -3.59048 0.18027 0
M  V30 3313 C 317.02 -4.32317 1.48159 0
M  V30 3314 C 318.017 -4.59902 2.42458 0
M  V30 3315 C 315.702 -4.71125 1.74202 0
M  V30 3316 C 317.696 -5.25288 3.61042 0
M  V30 3317 C 315.383 -5.36242 2.93066 0
M  V30 3318 C 316.381 -5.63254 3.86308 0
M  V30 3319 O 316.069 -6.27024 5.03086 0
M  V30 3320 H 315.801 -0.665419 0.119139 0
M  V30 3321 H 318.355 -1.80436 0.981432 0
M  V30 3322 H 316.585 -3.82251 -0.58489 0
M  V30 3323 H 318.274 -4.05221 -0.234618 0
M  V30 3324 H 319.04 -4.30379 2.23604 0
M  V30 3325 H 314.919 -4.49466 1.02477 0
M  V30 3326 H 318.463 -5.46289 4.33837 0
M  V30 3327 H 314.36 -5.65185 3.11826 0
M  V30 3328 H 315.128 -6.4552 5.03235 0
M  V30 3329 N 317.792 -0.46758 -1.50504 0
M  V30 3330 C 319.02 0.0864133 -2.06719 0
M  V30 3331 C 319.435 1.33819 -1.33184 0
M  V30 3332 O 318.792 1.78061 -0.400083 0
M  V30 3333 C 318.843 0.378079 -3.59517 0
M  V30 3334 O 318.564 -0.824044 -4.3028 0
M  V30 3335 C 320.065 0.979426 -4.32345 0
M  V30 3336 H 317.285 -0.00551697 -0.670977 0
M  V30 3337 H 319.829 -0.655354 -1.93715 0
M  V30 3338 H 317.984 1.06977 -3.72337 0
M  V30 3339 H 318.398 -0.566518 -5.21432 0
M  V30 3340 H 319.872 1.1333 -5.40241 0
M  V30 3341 H 320.349 1.9686 -3.9261 0
M  V30 3342 H 320.955 0.326216 -4.24047 0
M  V30 3343 N 319.27 1.56325 -0.20005 0
M  V30 3344 C 320.2 2.22318 0.713916 0
M  V30 3345 C 321.181 1.18788 1.21752 0
M  V30 3346 O 322.366 1.47309 1.26545 0
M  V30 3347 C 319.496 2.88639 1.93144 0
M  V30 3348 C 318.45 3.98457 1.56255 0
M  V30 3349 C 317.776 4.51967 2.85709 0
M  V30 3350 C 319.076 5.16612 0.768747 0
M  V30 3351 H 320.77 2.98952 0.163755 0
M  V30 3352 H 318.316 1.43792 0.0773219 0
M  V30 3353 H 320.269 3.33491 2.57608 0
M  V30 3354 H 318.993 2.09419 2.50621 0
M  V30 3355 H 317.652 3.54305 0.941471 0
M  V30 3356 H 317.3 3.69503 3.41287 0
M  V30 3357 H 317 5.26071 2.6177 0
M  V30 3358 H 318.524 4.99523 3.51154 0
M  V30 3359 H 319.938 5.57977 1.3166 0
M  V30 3360 H 318.335 5.96812 0.627286 0
M  V30 3361 H 319.405 4.84358 -0.229168 0
M  V30 3362 N 320.748 -0.0735177 1.57428 0
M  V30 3363 C 321.695 -1.08756 2.0357 0
M  V30 3364 C 322.665 -1.38559 0.916 0
M  V30 3365 O 323.85 -1.49656 1.18354 0
M  V30 3366 C 320.99 -2.39657 2.48311 0
M  V30 3367 C 320.103 -2.16399 3.73892 0
M  V30 3368 C 319.238 -3.40852 4.07423 0
M  V30 3369 C 318.277 -3.1295 5.2605 0
M  V30 3370 N 317.414 -4.29729 5.55228 0
M  V30 3371 H 322.254 -0.687104 2.8997 0
M  V30 3372 H 319.791 -0.327709 1.43403 0
M  V30 3373 H 321.749 -3.16081 2.72303 0
M  V30 3374 H 320.379 -2.77508 1.64891 0
M  V30 3375 H 319.431 -1.30676 3.57251 0
M  V30 3376 H 320.743 -1.91788 4.60455 0
M  V30 3377 H 319.897 -4.25671 4.32306 0
M  V30 3378 H 318.636 -3.68537 3.19425 0
M  V30 3379 H 317.641 -2.26526 5.00965 0
M  V30 3380 H 318.866 -2.86589 6.15665 0
M  V30 3381 H 316.812 -4.57448 4.70188 0
M  V30 3382 H 316.729 -4.08385 6.36206 0
M  V30 3383 H 317.997 -5.1555 5.84661 0
M  V30 3384 N 322.226 -1.5378 -0.344866 0
M  V30 3385 C 323.503 -1.61589 -1.10219 0
M  V30 3386 C 323.883 -0.436316 -2.06542 0
M  V30 3387 O 323.231 0.571543 -2.21237 0
M  V30 3388 C 323.441 -2.97602 -1.82301 0
M  V30 3389 C 324.789 -3.5291 -2.36093 0
M  V30 3390 O 325.813 -2.99768 -1.924 0
M  V30 3391 O 324.672 -4.45859 -3.16026 0
M  V30 3392 H 321.766 -0.653522 -0.506792 0
M  V30 3393 H 324.312 -1.66126 -0.346465 0
M  V30 3394 H 323.084 -3.74893 -1.12121 0
M  V30 3395 H 322.707 -2.9665 -2.64735 0
M  V30 3396 N 323.704 0.605807 -1.45491 0
M  V30 3397 C 324.951 1.36476 -1.49601 0
M  V30 3398 C 325.279 1.94007 -0.138452 0
M  V30 3399 O 324.534 1.75638 0.863114 0
M  V30 3400 C 324.833 2.53012 -2.52428 0
M  V30 3401 C 324.499 2.13617 -3.97087 0
M  V30 3402 C 323.161 2.02587 -4.36477 0
M  V30 3403 C 325.513 1.82899 -4.88055 0
M  V30 3404 C 322.841 1.59064 -5.64726 0
M  V30 3405 C 325.193 1.40861 -6.16718 0
M  V30 3406 C 323.857 1.28391 -6.55036 0
M  V30 3407 H 323.127 0.499402 -0.547429 0
M  V30 3408 H 325.774 0.684546 -1.78847 0
M  V30 3409 H 324.079 3.26379 -2.16758 0
M  V30 3410 H 325.776 3.1124 -2.52845 0
M  V30 3411 H 322.366 2.23129 -3.65939 0
M  V30 3412 H 326.55 1.90317 -4.58359 0
M  V30 3413 H 321.806 1.48034 -5.93208 0
M  V30 3414 H 325.98 1.16138 -6.86648 0
M  V30 3415 H 323.607 0.944403 -7.54311 0
M  V30 3416 N 325.182 1.32811 0.848464 0
M  V30 3417 C 326.459 1.14334 1.58704 0
M  V30 3418 C 326.839 -0.293948 2.09043 0
M  V30 3419 O 326.187 -1.29153 1.88499 0
M  V30 3420 C 326.397 2.17626 2.72837 0
M  V30 3421 C 327.745 2.51282 3.42261 0
M  V30 3422 O 328.769 2.16219 2.83068 0
M  V30 3423 O 327.628 3.11413 4.49093 0
M  V30 3424 H 324.722 0.441601 0.699226 0
M  V30 3425 H 327.268 1.44362 0.892053 0
M  V30 3426 H 326.04 3.14211 2.3321 0
M  V30 3427 H 325.663 1.88628 3.50008 0
M  V30 3428 N 326.66 -1.06551 1.16123 0
M  V30 3429 C 327.57 -2.17484 0.879662 0
M  V30 3430 C 328.586 -1.73377 -0.147104 0
M  V30 3431 O 329.762 -2.01379 0.0289128 0
M  V30 3432 C 326.827 -3.44591 0.381829 0
M  V30 3433 C 325.888 -4.0322 1.4735 0
M  V30 3434 C 325.121 -5.24261 0.999324 0
M  V30 3435 O 325.344 -5.70198 -0.151957 0
M  V30 3436 O 324.278 -5.74775 1.78653 0
M  V30 3437 H 328.104 -2.44075 1.80724 0
M  V30 3438 H 325.689 -1.16042 0.940992 0
M  V30 3439 H 327.571 -4.21254 0.111053 0
M  V30 3440 H 326.246 -3.19532 -0.51777 0
M  V30 3441 H 325.153 -3.2806 1.79798 0
M  V30 3442 H 326.486 -4.32568 2.34831 0
M  V30 3443 N 328.138 -0.959301 -1.25041 0
M  V30 3444 C 329.363 -0.633507 -1.97488 0
M  V30 3445 C 329.788 0.788555 -1.70773 0
M  V30 3446 O 329.146 1.53394 -0.966431 0
M  V30 3447 C 329.194 -0.904057 -3.49083 0
M  V30 3448 O 328.298 0.0147939 -4.12397 0
M  V30 3449 H 327.639 -0.240368 -0.618966 0
M  V30 3450 H 330.169 -1.28717 -1.59038 0
M  V30 3451 H 330.179 -0.832203 -3.99423 0
M  V30 3452 H 328.854 -1.94048 -3.67856 0
M  V30 3453 H 327.431 -0.109664 -3.72739 0
M  V30 3454 N 329.616 1.39756 -0.72842 0
M  V30 3455 C 330.546 2.33289 -0.0991354 0
M  V30 3456 C 331.527 1.53568 0.731489 0
M  V30 3457 O 332.712 1.81987 0.677807 0
M  V30 3458 C 329.842 3.3763 0.813834 0
M  V30 3459 C 328.796 4.2791 0.0878663 0
M  V30 3460 C 328.122 5.22894 1.11741 0
M  V30 3461 C 329.422 5.11314 -1.06563 0
M  V30 3462 H 331.116 2.86163 -0.880408 0
M  V30 3463 H 328.662 1.37591 -0.424819 0
M  V30 3464 H 330.615 4.0201 1.26355 0
M  V30 3465 H 329.339 2.83181 1.62715 0
M  V30 3466 H 327.998 3.65 -0.342159 0
M  V30 3467 H 327.646 4.64744 1.92412 0
M  V30 3468 H 327.346 5.84143 0.636477 0
M  V30 3469 H 328.87 5.90151 1.56697 0
M  V30 3470 H 330.284 5.69076 -0.694671 0
M  V30 3471 H 328.681 5.81671 -1.47577 0
M  V30 3472 H 329.751 4.46534 -1.89038 0
M  V30 3473 N 331.094 0.475555 1.50254 0
M  V30 3474 C 332.342 -0.077738 2.0195 0
M  V30 3475 C 332.663 -1.39813 1.35931 0
M  V30 3476 O 331.933 -1.89249 0.506123 0
M  V30 3477 H 330.513 -0.031719 0.746326 0
M  V30 3478 H 333.175 0.626995 1.84539 0
M  V30 3479 H 332.271 -0.225995 3.11281 0
M  V30 3480 N 332.573 -1.56217 0.208337 0
M  V30 3481 C 333.819 -1.98242 -0.427552 0
M  V30 3482 C 334.152 -1.09554 -1.60348 0
M  V30 3483 O 333.427 -0.15035 -1.93918 0
M  V30 3484 C 333.71 -3.4931 -0.874907 0
M  V30 3485 C 333.563 -4.48773 0.303751 0
M  V30 3486 C 334.882 -4.04424 -1.73577 0
M  V30 3487 H 332.001 -0.720744 -0.153936 0
M  V30 3488 H 334.643 -1.87586 0.30192 0
M  V30 3489 H 332.793 -3.58522 -1.49648 0
M  V30 3490 H 334.465 -4.51586 0.941682 0
M  V30 3491 H 332.708 -4.23194 0.953375 0
M  V30 3492 H 333.379 -5.51976 -0.0519883 0
M  V30 3493 H 335.855 -3.98075 -1.21143 0
M  V30 3494 H 334.731 -5.1047 -2.01771 0
M  V30 3495 H 334.992 -3.50494 -2.69456 0
M  V30 3496 N 334.051 0.0651679 -1.57465 0
M  V30 3497 C 334.999 1.09542 -2.05191 0
M  V30 3498 C 335.993 1.39675 -0.958509 0
M  V30 3499 O 337.199 1.39003 -1.14359 0
M  V30 3500 H 333.574 0.370623 -0.654326 0
M  V30 3501 H 335.545 0.666802 -2.90854 0
M  V30 3502 C 334.294 2.39881 -2.51699 0
M  V30 3503 H 333.617 2.17547 -3.3543 0
M  V30 3504 H 335.057 3.104 -2.88839 0
M  V30 3505 C 333.516 3.0631 -1.40271 0
M  V30 3506 O 334.046 3.94664 -0.748523 0
M  V30 3507 N 332.252 2.67041 -1.14618 0
M  V30 3508 H 331.799 1.95281 -1.67997 0
M  V30 3509 H 331.757 3.1181 -0.402688 0
M  V30 3510 N 335.529 1.53961 0.336706 0
M  V30 3511 C 336.806 1.62171 1.09361 0
M  V30 3512 C 337.186 0.447263 2.06307 0
M  V30 3513 O 336.534 -0.559802 2.21537 0
M  V30 3514 C 336.744 2.98565 1.80721 0
M  V30 3515 C 338.092 3.54157 2.34218 0
M  V30 3516 O 339.116 3.00784 1.90807 0
M  V30 3517 O 337.975 4.47528 3.13657 0
M  V30 3518 H 335.069 0.6562 0.503319 0
M  V30 3519 H 337.615 1.66307 0.33765 0
M  V30 3520 H 336.387 3.75482 1.10132 0
M  V30 3521 H 336.01 2.9805 2.63158 0
M  V30 3522 N 337.007 -0.598083 1.45811 0
M  V30 3523 C 338.423 -0.919847 1.30426 0
M  V30 3524 C 338.623 -1.99759 0.264303 0
M  V30 3525 O 337.679 -2.50221 -0.338472 0
M  V30 3526 C 338.992 -1.35176 2.68603 0
M  V30 3527 C 340.54 -1.46546 2.76574 0
M  V30 3528 C 341.015 -1.9311 4.15298 0
M  V30 3529 N 342.506 -2.00328 4.1764 0
M  V30 3530 C 343.241 -2.37599 5.21856 0
M  V30 3531 N 342.737 -2.73771 6.36413 0
M  V30 3532 N 344.53 -2.38021 5.09218 0
M  V30 3533 H 336.681 0.114111 2.12093 0
M  V30 3534 H 338.944 -0.0116121 0.947929 0
M  V30 3535 H 338.65 -0.633969 3.45939 0
M  V30 3536 H 338.524 -2.3164 2.97696 0
M  V30 3537 H 340.911 -2.17415 1.99537 0
M  V30 3538 H 340.992 -0.483727 2.51185 0
M  V30 3539 H 340.636 -1.22824 4.92825 0
M  V30 3540 H 340.566 -2.92213 4.38086 0
M  V30 3541 H 343.057 -1.74925 3.34977 0
M  V30 3542 H 343.37 -3.0112 7.11721 0
M  V30 3543 H 341.715 -2.71445 6.39799 0
M  V30 3544 H 344.906 -2.09174 4.18765 0
M  V30 3545 H 345.079 -2.66741 5.90554 0
M  V30 3546 N 338.485 -1.33259 -0.841409 0
M  V30 3547 C 339.731 -1.24757 -1.59886 0
M  V30 3548 C 340.064 0.186913 -1.93298 0
M  V30 3549 O 339.339 1.12757 -1.5848 0
M  V30 3550 C 339.622 -2.12036 -2.91055 0
M  V30 3551 C 339.475 -3.63929 -2.6434 0
M  V30 3552 C 340.794 -1.9916 -3.92458 0
M  V30 3553 H 337.913 -0.454542 -0.580138 0
M  V30 3554 H 340.555 -1.63335 -0.970647 0
M  V30 3555 H 338.705 -1.79265 -3.44669 0
M  V30 3556 H 340.377 -4.06978 -2.17178 0
M  V30 3557 H 338.62 -3.85935 -1.98082 0
M  V30 3558 H 339.291 -4.20341 -3.57796 0
M  V30 3559 H 341.767 -2.27895 -3.48143 0
M  V30 3560 H 340.643 -2.62484 -4.82072 0
M  V30 3561 H 340.904 -0.963082 -4.31482 0
M  V30 3562 N 339.963 1.05934 -1.16686 0
M  V30 3563 C 340.926 2.11669 -0.879144 0
M  V30 3564 C 341.926 1.60294 0.127445 0
M  V30 3565 O 343.116 1.7389 -0.103865 0
M  V30 3566 C 340.248 3.39438 -0.315425 0
M  V30 3567 H 341.441 2.38626 -1.81653 0
M  V30 3568 H 338.994 1.22058 -0.976299 0
M  V30 3569 H 339.729 3.18132 0.629468 0
M  V30 3570 H 339.514 3.78034 -1.04079 0
M  V30 3571 H 341.004 4.17391 -0.132189 0
M  V30 3572 N 341.441 0.965919 1.2453 0
M  V30 3573 C 342.371 0.513476 2.27784 0
M  V30 3574 C 343.352 -0.445974 1.6415 0
M  V30 3575 O 344.537 -0.342485 1.91156 0
M  V30 3576 C 341.667 -0.198839 3.4673 0
M  V30 3577 C 340.621 0.676456 4.2262 0
M  V30 3578 C 339.947 -0.167248 5.34438 0
M  V30 3579 C 341.247 1.96017 4.84123 0
M  V30 3580 H 342.941 1.3765 2.65881 0
M  V30 3581 H 340.487 0.663321 1.27813 0
M  V30 3582 H 342.44 -0.526567 4.18097 0
M  V30 3583 H 341.164 -1.0962 3.07654 0
M  V30 3584 H 339.823 0.98743 3.53052 0
M  V30 3585 H 339.471 -1.0647 4.91603 0
M  V30 3586 H 339.171 0.415181 5.86131 0
M  V30 3587 H 340.695 -0.489688 6.08633 0
M  V30 3588 H 342.109 1.69814 5.47573 0
M  V30 3589 H 340.506 2.48918 5.4604 0
M  V30 3590 H 341.576 2.65622 4.05676 0
M  V30 3591 N 342.919 -1.39368 0.735821 0
M  V30 3592 C 343.882 -2.2896 0.104874 0
M  V30 3593 C 344.882 -1.46347 -0.666274 0
M  V30 3594 O 346.072 -1.67014 -0.49517 0
M  V30 3595 C 343.204 -3.29857 -0.860656 0
M  V30 3596 H 344.397 -2.86259 0.894205 0
M  V30 3597 H 341.95 -1.48029 0.501704 0
M  V30 3598 H 342.685 -2.77615 -1.67631 0
M  V30 3599 H 342.47 -3.9087 -0.310327 0
M  V30 3600 H 343.96 -3.96893 -1.29867 0
M  V30 3601 N 344.397 -0.483516 -1.5 0
M  V30 3602 C 345.625 0.0644831 -2.06799 0
M  V30 3603 C 346.04 1.32399 -1.34596 0
M  V30 3604 O 345.397 1.77626 -0.418946 0
M  V30 3605 C 345.448 0.339927 -3.59898 0
M  V30 3606 O 345.169 -0.869635 -4.29382 0
M  V30 3607 C 346.67 0.933515 -4.33359 0
M  V30 3608 H 343.89 -0.0126333 -0.670881 0
M  V30 3609 H 346.434 -0.675864 -1.93009 0
M  V30 3610 H 344.589 1.03022 -3.7345 0
M  V30 3611 H 345.003 -0.62179 -5.20801 0
M  V30 3612 H 346.477 1.07593 -5.41413 0
M  V30 3613 H 346.954 1.92685 -3.94676 0
M  V30 3614 H 347.56 0.281221 -4.24369 0
M  V30 3615 N 345.875 1.56104 -0.216619 0
M  V30 3616 C 346.838 2.18819 0.681962 0
M  V30 3617 C 347.838 1.14866 1.12528 0
M  V30 3618 O 349.028 1.40128 1.03488 0
M  V30 3619 C 346.16 2.80756 1.93362 0
M  V30 3620 H 347.353 2.99595 0.135254 0
M  V30 3621 H 344.906 1.56265 0.0330003 0
M  V30 3622 H 345.641 2.03837 2.52232 0
M  V30 3623 H 345.426 3.56876 1.62426 0
M  V30 3624 H 346.916 3.28844 2.57393 0
M  V30 3625 N 347.353 -0.0568162 1.57498 0
M  V30 3626 C 348.263 -1.08346 2.08083 0
M  V30 3627 C 349.279 -1.41439 1.01346 0
M  V30 3628 O 350.455 -1.51316 1.32912 0
M  V30 3629 C 347.52 -2.37352 2.52715 0
M  V30 3630 C 346.581 -2.11093 3.73816 0
M  V30 3631 C 345.814 -3.33949 4.1631 0
M  V30 3632 O 346.037 -4.43622 3.58547 0
M  V30 3633 O 344.971 -3.21279 5.08983 0
M  V30 3634 H 348.797 -0.683667 2.95905 0
M  V30 3635 H 346.382 -0.271965 1.46904 0
M  V30 3636 H 348.264 -3.13246 2.81877 0
M  V30 3637 H 346.939 -2.76681 1.68016 0
M  V30 3638 H 345.846 -1.32856 3.49714 0
M  V30 3639 H 347.179 -1.76637 4.59413 0
M  V30 3640 N 348.832 -1.54138 -0.328536 0
M  V30 3641 C 350.057 -1.76378 -1.09112 0
M  V30 3642 C 350.482 -0.508596 -1.81094 0
M  V30 3643 O 349.84 0.539598 -1.73084 0
M  V30 3644 C 349.888 -2.95358 -2.06872 0
M  V30 3645 O 348.992 -2.66556 -3.14677 0
M  V30 3646 H 348.333 -0.584614 -0.314838 0
M  V30 3647 H 350.863 -2.01146 -0.374348 0
M  V30 3648 H 350.873 -3.22566 -2.4983 0
M  V30 3649 H 349.548 -3.86385 -1.5388 0
M  V30 3650 H 348.125 -2.50282 -2.7643 0
M  V30 3651 N 350.31 0.590341 -1.46126 0
M  V30 3652 C 351.556 1.35082 -1.51264 0
M  V30 3653 C 351.889 1.93534 -0.160711 0
M  V30 3654 O 351.164 1.76045 0.826956 0
M  V30 3655 C 351.447 2.48588 -2.6053 0
M  V30 3656 C 351.3 1.95221 -4.05227 0
M  V30 3657 C 352.619 3.50662 -2.6594 0
M  V30 3658 H 349.738 0.489803 -0.550692 0
M  V30 3659 H 352.38 0.663887 -1.78024 0
M  V30 3660 H 350.53 3.07186 -2.37843 0
M  V30 3661 H 352.202 1.41139 -4.39178 0
M  V30 3662 H 350.445 1.26101 -4.15068 0
M  V30 3663 H 351.116 2.77121 -4.77397 0
M  V30 3664 H 353.592 3.01934 -2.86313 0
M  V30 3665 H 352.468 4.27551 -3.44226 0
M  V30 3666 H 352.729 4.07399 -1.71694 0
M  V30 3667 N 351.788 1.33704 0.83433 0
M  V30 3668 C 352.721 1.18675 1.94914 0
M  V30 3669 C 353.699 0.0811145 1.62398 0
M  V30 3670 O 354.883 0.244186 1.86912 0
M  V30 3671 C 352.01 0.821231 3.28593 0
M  V30 3672 C 351.056 1.93501 3.80079 0
M  V30 3673 S 351.889 3.54671 4.01209 0
M  V30 3674 C 353.045 3.20136 5.37833 0
M  V30 3675 H 353.278 2.13043 2.07364 0
M  V30 3676 H 350.811 1.18598 0.988624 0
M  V30 3677 H 352.769 0.617123 4.05835 0
M  V30 3678 H 351.43 -0.103927 3.13928 0
M  V30 3679 H 350.623 1.63273 4.76821 0
M  V30 3680 H 350.225 2.09601 3.09747 0
M  V30 3681 H 352.517 2.71242 6.20833 0
M  V30 3682 H 353.46 4.15975 5.73036 0
M  V30 3683 H 353.868 2.56613 5.02802 0
M  V30 3684 N 353.266 -1.05314 1.17247 0
M  V30 3685 C 354.682 -1.30452 0.919473 0
M  V30 3686 C 354.882 -1.9703 -0.42209 0
M  V30 3687 O 353.938 -2.24311 -1.15935 0
M  V30 3688 C 355.251 -2.17551 2.07586 0
M  V30 3689 C 356.799 -2.30937 2.11275 0
M  V30 3690 C 357.274 -3.21396 3.26296 0
M  V30 3691 N 358.765 -3.28981 3.26076 0
M  V30 3692 C 359.5 -3.99095 4.11716 0
M  V30 3693 N 358.996 -4.71648 5.07465 0
M  V30 3694 N 360.789 -3.95247 3.9967 0
M  V30 3695 H 352.94 -0.604988 2.03602 0
M  V30 3696 H 355.203 -0.329368 0.888944 0
M  V30 3697 H 354.909 -1.75921 3.0454 0
M  V30 3698 H 354.783 -3.18182 2.02584 0
M  V30 3699 H 357.17 -2.71809 1.14907 0
M  V30 3700 H 357.251 -1.2994 2.20339 0
M  V30 3701 H 356.895 -2.81238 4.22927 0
M  V30 3702 H 356.825 -4.22395 3.14467 0
M  V30 3703 H 359.316 -2.77286 2.5675 0
M  V30 3704 H 359.629 -5.22705 5.6921 0
M  V30 3705 H 357.974 -4.70594 5.11435 0
M  V30 3706 H 361.165 -3.37691 3.24164 0
M  V30 3707 H 361.338 -4.4962 4.66632 0
M  V30 3708 N 354.744 -0.972509 -1.24016 0
M  V30 3709 C 356.16 -0.679827 -1.44397 0
M  V30 3710 C 356.36 0.756716 -1.86751 0
M  V30 3711 O 355.416 1.53007 -2.00861 0
M  V30 3712 C 356.729 -1.66803 -2.50195 0
M  V30 3713 C 358.277 -1.68119 -2.64017 0
M  V30 3714 C 358.752 -2.65748 -3.73017 0
M  V30 3715 N 360.243 -2.64219 -3.8045 0
M  V30 3716 C 360.978 -3.36433 -4.64328 0
M  V30 3717 N 360.474 -4.1818 -5.52356 0
M  V30 3718 N 362.267 -3.25235 -4.58453 0
M  V30 3719 H 354.418 -1.90059 -0.948228 0
M  V30 3720 H 356.681 -0.818527 -0.478245 0
M  V30 3721 H 356.387 -2.69498 -2.25973 0
M  V30 3722 H 356.261 -1.4446 -3.48441 0
M  V30 3723 H 358.648 -0.661319 -2.87594 0
M  V30 3724 H 358.729 -1.94525 -1.66113 0
M  V30 3725 H 358.373 -3.67872 -3.50189 0
M  V30 3726 H 358.303 -2.36619 -4.70446 0
M  V30 3727 H 360.794 -2.04887 -3.17537 0
M  V30 3728 H 361.107 -4.70157 -6.13329 0
M  V30 3729 H 359.452 -4.22273 -5.52006 0
M  V30 3730 H 362.643 -2.60829 -3.88698 0
M  V30 3731 H 362.816 -3.81776 -5.23594 0
M  V30 3732 N 356.222 1.38976 -0.743202 0
M  V30 3733 C 357.638 1.53984 -0.419664 0
M  V30 3734 C 357.838 1.70837 1.0685 0
M  V30 3735 O 356.894 1.7135 1.8546 0
M  V30 3736 C 358.207 2.75287 -1.20985 0
M  V30 3737 C 359.755 2.89129 -1.19889 0
M  V30 3738 C 360.23 4.13381 -1.97181 0
M  V30 3739 N 361.721 4.20437 -1.94389 0
M  V30 3740 C 362.456 5.15547 -2.50996 0
M  V30 3741 N 361.952 6.16395 -3.16274 0
M  V30 3742 N 363.745 5.07822 -2.40984 0
M  V30 3743 H 355.896 1.26285 -1.7078 0
M  V30 3744 H 358.159 0.612689 -0.723406 0
M  V30 3745 H 357.865 2.69204 -2.26323 0
M  V30 3746 H 357.739 3.68184 -0.819759 0
M  V30 3747 H 360.126 2.947 -0.153606 0
M  V30 3748 H 360.207 1.97272 -1.62841 0
M  V30 3749 H 359.851 4.08572 -3.01714 0
M  V30 3750 H 359.781 5.04298 -1.51629 0
M  V30 3751 H 362.272 3.48205 -1.46839 0
M  V30 3752 H 362.585 6.85443 -3.56915 0
M  V30 3753 H 360.93 6.16758 -3.20367 0
M  V30 3754 H 364.121 4.27973 -1.89622 0
M  V30 3755 H 364.294 5.81767 -2.85397 0
M  V30 3756 N 357.7 0.491464 1.49741 0
M  V30 3757 C 358.949 -0.0582189 2.01616 0
M  V30 3758 C 359.262 -1.38927 1.3769 0
M  V30 3759 O 360.468 -2.02509 1.80838 0
M  V30 3760 C 358.924 -0.154235 3.59569 0
M  V30 3761 C 358.532 1.1696 4.32463 0
M  V30 3762 C 360.276 -0.65479 4.1942 0
M  V30 3763 C 358.183 1.03627 5.8225 0
M  V30 3764 H 357.113 -0.0255317 0.753568 0
M  V30 3765 H 359.764 0.629445 1.72367 0
M  V30 3766 H 358.146 -0.906138 3.85493 0
M  V30 3767 H 359.32 1.93405 4.18248 0
M  V30 3768 H 357.635 1.60285 3.84315 0
M  V30 3769 H 360.232 -0.771903 5.29099 0
M  V30 3770 H 360.575 -1.65127 3.8215 0
M  V30 3771 H 361.108 0.040304 3.9778 0
M  V30 3772 H 357.847 2.00672 6.24028 0
M  V30 3773 H 357.367 0.312546 5.98985 0
M  V30 3774 H 359.046 0.711114 6.4308 0
M  V30 3775 N 359.178 -1.55987 0.224894 0
M  V30 3776 C 360.126 -2.21808 -0.700283 0
M  V30 3777 C 361.12 -1.19854 -1.19714 0
M  V30 3778 O 362.326 -1.37925 -1.15658 0
M  V30 3779 H 358.701 -0.711226 -0.244258 0
M  V30 3780 H 360.672 -2.98152 -0.121749 0
M  V30 3781 C 359.421 -2.91444 -1.8962 0
M  V30 3782 H 358.744 -3.69655 -1.52299 0
M  V30 3783 H 360.184 -3.40894 -2.52125 0
M  V30 3784 C 358.643 -1.94098 -2.75368 0
M  V30 3785 O 359.173 -1.46004 -3.74227 0
M  V30 3786 N 357.379 -1.61675 -2.41474 0
M  V30 3787 H 356.926 -2.00979 -1.61137 0
M  V30 3788 H 356.884 -0.968036 -2.99126 0
M  V30 3789 N 360.656 0.0484629 -1.57525 0
M  V30 3790 C 361.606 1.06246 -2.01732 0
M  V30 3791 C 362.59 1.33155 -0.903245 0
M  V30 3792 O 363.782 1.33065 -1.16717 0
M  V30 3793 C 360.911 2.36943 -2.48421 0
M  V30 3794 C 359.997 2.13208 -3.6661 0
M  V30 3795 N 360.388 1.5947 -4.80003 0
M  V30 3796 C 358.686 2.43581 -3.7361 0
M  V30 3797 C 359.387 1.51092 -5.61735 0
M  V30 3798 N 358.363 1.9797 -5.0627 0
M  V30 3799 H 362.165 0.640675 -2.86832 0
M  V30 3800 H 359.679 0.255134 -1.60383 0
M  V30 3801 H 361.676 3.10374 -2.78341 0
M  V30 3802 H 360.336 2.79818 -1.64718 0
M  V30 3803 H 361.347 1.28008 -5.01831 0
M  V30 3804 H 358.024 2.89662 -3.00669 0
M  V30 3805 H 359.414 1.10199 -6.62801 0
M  V30 3806 N 362.134 1.5431 0.320358 0
M  V30 3807 C 363.081 1.83918 1.39438 0
M  V30 3808 C 364.051 0.686525 1.51248 0
M  V30 3809 O 365.236 0.933269 1.66417 0
M  V30 3810 C 362.376 2.075 2.75749 0
M  V30 3811 C 361.489 3.35177 2.72544 0
M  V30 3812 C 360.624 3.48704 4.00723 0
M  V30 3813 C 359.663 4.70244 3.91838 0
M  V30 3814 N 358.8 4.80679 5.11754 0
M  V30 3815 H 363.64 2.75544 1.13489 0
M  V30 3816 H 361.177 1.36459 0.549309 0
M  V30 3817 H 363.135 2.19166 3.54996 0
M  V30 3818 H 361.765 1.19163 3 0
M  V30 3819 H 360.817 3.32233 1.85271 0
M  V30 3820 H 362.129 4.24534 2.61863 0
M  V30 3821 H 361.283 3.59928 4.88402 0
M  V30 3822 H 360.022 2.57445 4.14214 0
M  V30 3823 H 359.027 4.59072 3.02544 0
M  V30 3824 H 360.252 5.6289 3.7991 0
M  V30 3825 H 358.198 3.92337 5.25745 0
M  V30 3826 H 358.115 5.64007 5.0342 0
M  V30 3827 H 359.383 4.96239 6.01138 0
M  V30 3828 N 363.613 -0.582584 1.46437 0
M  V30 3829 C 364.563 -1.68654 1.53426 0
M  V30 3830 C 365.547 -1.55971 0.395194 0
M  V30 3831 O 366.739 -1.64884 0.643612 0
M  V30 3832 C 363.868 -3.07439 1.52762 0
M  V30 3833 C 362.954 -3.25418 2.71963 0
M  V30 3834 N 363.345 -3.13556 3.96883 0
M  V30 3835 C 361.643 -3.56357 2.68189 0
M  V30 3836 C 362.344 -3.33543 4.76575 0
M  V30 3837 N 361.32 -3.58704 4.08451 0
M  V30 3838 H 365.122 -1.58014 2.47808 0
M  V30 3839 H 362.636 -0.786617 1.42078 0
M  V30 3840 H 364.633 -3.86671 1.55857 0
M  V30 3841 H 363.293 -3.1921 0.594573 0
M  V30 3842 H 364.304 -2.9142 4.28129 0
M  V30 3843 H 360.981 -3.74812 1.83908 0
M  V30 3844 H 362.371 -3.29555 5.85528 0
M  V30 3845 N 365.091 -1.34144 -0.827227 0
M  V30 3846 C 366.024 -1.19707 -1.94282 0
M  V30 3847 C 367.002 -0.0897256 -1.62352 0
M  V30 3848 O 368.186 -0.254095 -1.8678 0
M  V30 3849 C 365.313 -0.838646 -3.28153 0
M  V30 3850 C 364.359 -1.95514 -3.79047 0
M  V30 3851 S 365.192 -3.56793 -3.99323 0
M  V30 3852 C 366.348 -3.22983 -5.36127 0
M  V30 3853 H 366.581 -2.1414 -2.06231 0
M  V30 3854 H 364.114 -1.19121 -0.982321 0
M  V30 3855 H 366.072 -0.638637 -4.05502 0
M  V30 3856 H 364.733 0.0872776 -3.13979 0
M  V30 3857 H 363.926 -1.658 -4.75948 0
M  V30 3858 H 363.528 -2.11241 -3.08631 0
M  V30 3859 H 365.82 -2.74531 -6.19386 0
M  V30 3860 H 366.763 -4.19008 -5.70822 0
M  V30 3861 H 367.171 -2.59276 -5.01434 0
M  V30 3862 N 366.569 1.04691 -1.17803 0
M  V30 3863 C 367.815 1.78045 -0.970969 0
M  V30 3864 C 368.148 1.87686 0.498751 0
M  V30 3865 O 367.423 1.38035 1.37027 0
M  V30 3866 C 367.706 3.2166 -1.61884 0
M  V30 3867 C 367.559 3.20001 -3.161 0
M  V30 3868 C 368.878 4.1962 -1.3269 0
M  V30 3869 H 365.997 0.64633 -0.354155 0
M  V30 3870 H 368.639 1.22333 -1.45378 0
M  V30 3871 H 366.789 3.69232 -1.20831 0
M  V30 3872 H 368.461 2.80467 -3.66246 0
M  V30 3873 H 366.704 2.58203 -3.48588 0
M  V30 3874 H 367.375 4.21386 -3.56564 0
M  V30 3875 H 369.851 3.80567 -1.68249 0
M  V30 3876 H 368.727 5.18339 -1.80599 0
M  V30 3877 H 368.988 4.414 -0.248622 0
M  V30 3878 N 368.047 0.979072 1.23499 0
M  V30 3879 C 368.995 0.510604 2.26926 0
M  V30 3880 C 369.989 -0.431691 1.63807 0
M  V30 3881 O 371.195 -0.30573 1.77385 0
M  V30 3882 H 367.57 0.146688 0.737554 0
M  V30 3883 H 369.541 1.39466 2.63803 0
M  V30 3884 C 368.29 -0.172658 3.47271 0
M  V30 3885 H 367.613 0.543331 3.96091 0
M  V30 3886 H 369.053 -0.464101 4.21452 0
M  V30 3887 C 367.512 -1.40345 3.06276 0
M  V30 3888 O 368.042 -2.49978 3.14442 0
M  V30 3889 N 366.248 -1.27362 2.61203 0
M  V30 3890 H 365.795 -0.381584 2.54758 0
M  V30 3891 H 365.753 -2.09822 2.34141 0
M  V30 3892 N 369.525 -1.3858 0.750561 0
M  V30 3893 C 370.773 -1.99789 0.30477 0
M  V30 3894 C 371.094 -1.59874 -1.11649 0
M  V30 3895 O 370.364 -0.85417 -1.76297 0
M  V30 3896 H 368.944 -0.738902 0.109694 0
M  V30 3897 H 371.606 -1.69391 0.963983 0
M  V30 3898 H 370.702 -3.09952 0.365499 0
M  V30 3899 N 371.003 -0.499398 -1.49478 0
M  V30 3900 C 372.249 0.0457576 -2.02748 0
M  V30 3901 C 372.582 1.36793 -1.37846 0
M  V30 3902 O 371.857 1.87596 -0.513601 0
M  V30 3903 C 372.14 0.199986 -3.59544 0
M  V30 3904 C 371.993 -1.1452 -4.34977 0
M  V30 3905 C 373.312 0.94137 -4.29914 0
M  V30 3906 H 370.431 0.0151552 -0.736844 0
M  V30 3907 H 373.073 -0.650498 -1.78518 0
M  V30 3908 H 371.223 0.793007 -3.8032 0
M  V30 3909 H 372.895 -1.77697 -4.25701 0
M  V30 3910 H 371.138 -1.73488 -3.97598 0
M  V30 3911 H 371.809 -0.990607 -5.43039 0
M  V30 3912 H 374.285 0.43844 -4.13784 0
M  V30 3913 H 373.161 1.01812 -5.39375 0
M  V30 3914 H 373.422 1.98471 -3.95046 0
M  V30 3915 N 372.481 1.55866 -0.233164 0
M  V30 3916 C 373.706 2.03449 0.402906 0
M  V30 3917 C 374.131 1.11166 1.51736 0
M  V30 3918 O 373.489 0.101996 1.81013 0
M  V30 3919 C 373.537 3.49165 0.9009 0
M  V30 3920 O 372.641 3.60019 2.01147 0
M  V30 3921 H 371.982 0.657913 0.0897025 0
M  V30 3922 H 374.512 2.01493 -0.355201 0
M  V30 3923 H 374.522 3.89716 1.2077 0
M  V30 3924 H 373.197 4.15813 0.0852889 0
M  V30 3925 H 371.774 3.3136 1.71042 0
M  V30 3926 N 373.959 -0.0401083 1.57549 0
M  V30 3927 C 375.206 -0.733125 1.88763 0
M  V30 3928 C 375.534 -1.75946 0.829058 0
M  V30 3929 O 374.789 -1.94949 -0.171323 0
M  V30 3930 C 375.088 -1.44902 3.26708 0
M  V30 3931 C 374.754 -0.559707 4.47413 0
M  V30 3932 C 373.416 -0.314731 4.8017 0
M  V30 3933 C 375.768 0.0549743 5.21171 0
M  V30 3934 C 373.096 0.553886 5.8408 0
M  V30 3935 C 375.448 0.911229 6.26003 0
M  V30 3936 C 374.112 1.16577 6.57241 0
M  V30 3937 H 373.382 -0.268269 0.690733 0
M  V30 3938 H 376.029 0.00679408 1.91499 0
M  V30 3939 H 374.334 -2.26197 3.1991 0
M  V30 3940 H 376.031 -1.99058 3.48105 0
M  V30 3941 H 372.621 -0.760793 4.21794 0
M  V30 3942 H 376.805 -0.121344 4.96152 0
M  V30 3943 H 372.061 0.759518 6.06664 0
M  V30 3944 H 376.235 1.3941 6.82303 0
M  V30 3945 H 373.862 1.84058 7.37582 0
M  V30 3946 N 375.437 -1.54477 -0.31217 0
M  V30 3947 C 376.683 -1.73483 -1.0503 0
M  V30 3948 C 377.016 -0.513125 -1.87298 0
M  V30 3949 O 376.291 0.489864 -1.8823 0
M  V30 3950 C 376.574 -3.01723 -1.96558 0
M  V30 3951 C 376.427 -4.3417 -1.17545 0
M  V30 3952 C 377.746 -3.25772 -2.95907 0
M  V30 3953 H 374.865 -0.631222 -0.380432 0
M  V30 3954 H 377.507 -1.87184 -0.325932 0
M  V30 3955 H 375.657 -2.90174 -2.58324 0
M  V30 3956 H 377.329 -4.5762 -0.581513 0
M  V30 3957 H 375.572 -4.31159 -0.477925 0
M  V30 3958 H 376.243 -5.20143 -1.84811 0
M  V30 3959 H 378.719 -3.36857 -2.44267 0
M  V30 3960 H 377.595 -4.16838 -3.57123 0
M  V30 3961 H 377.856 -2.43537 -3.68974 0
M  V30 3962 N 376.915 0.57481 -1.46744 0
M  V30 3963 C 377.863 1.70435 -1.58286 0
M  V30 3964 C 378.857 1.63287 -0.450956 0
M  V30 3965 O 380.063 1.68685 -0.628121 0
M  V30 3966 H 376.438 0.56364 -0.497809 0
M  V30 3967 H 378.409 1.57833 -2.53242 0
M  V30 3968 C 377.158 3.08815 -1.59776 0
M  V30 3969 H 376.481 3.1499 -2.46214 0
M  V30 3970 H 377.921 3.87588 -1.71905 0
M  V30 3971 C 376.38 3.35301 -0.327812 0
M  V30 3972 O 376.91 3.97511 0.57861 0
M  V30 3973 N 375.116 2.89816 -0.213274 0
M  V30 3974 H 374.663 2.39371 -0.951798 0
M  V30 3975 H 374.621 3.0791 0.63553 0
M  V30 3976 N 378.394 1.34581 0.820102 0
M  V30 3977 C 379.805 1.24298 1.39309 0
M  V30 3978 C 380.156 -0.130351 1.95767 0
M  V30 3979 O 379.281 -1.0308 1.90272 0
M  V30 3980 C 379.876 2.25054 2.53251 0
M  V30 3981 C 378.435 2.18552 3.0645 0
M  V30 3982 C 377.582 2.11503 1.79337 0
M  V30 3983 H 380.533 1.45906 0.624262 0
M  V30 3984 H 380.554 1.86917 3.31425 0
M  V30 3985 H 380.066 3.24996 2.1213 0
M  V30 3986 H 378.167 1.21976 3.52069 0
M  V30 3987 H 378.28 3.0993 3.65349 0
M  V30 3988 H 376.644 1.57268 2.00347 0
M  V30 3989 H 377.427 3.13284 1.40386 0
M  V30 3990 N 379.872 -1.04064 1.18357 0
M  V30 3991 C 380.782 -2.15569 0.925596 0
M  V30 3992 C 381.798 -1.7365 -0.110295 0
M  V30 3993 O 382.974 -2.01273 0.0716218 0
M  V30 3994 C 380.039 -3.43704 0.454836 0
M  V30 3995 C 379.1 -4.00004 1.55869 0
M  V30 3996 C 378.333 -5.22023 1.1103 0
M  V30 3997 O 378.556 -5.70392 -0.0309756 0
M  V30 3998 O 377.49 -5.70856 1.90805 0
M  V30 3999 H 381.316 -2.40187 1.8586 0
M  V30 4000 H 378.901 -1.1402 0.965394 0
M  V30 4001 H 380.783 -4.20923 0.200382 0
M  V30 4002 H 379.458 -3.20559 -0.449876 0
M  V30 4003 H 378.365 -3.24172 1.86716 0
M  V30 4004 H 379.698 -4.2749 2.43953 0
M  V30 4005 N 381.35 -0.985608 -1.22978 0
M  V30 4006 C 382.313 -0.535071 -2.22867 0
M  V30 4007 C 383.313 0.378123 -1.56291 0
M  V30 4008 O 384.503 0.171092 -1.73358 0
M  V30 4009 C 381.635 0.222702 -3.40172 0
M  V30 4010 H 382.828 -1.41835 -2.6424 0
M  V30 4011 H 380.381 -0.772042 -1.35901 0
M  V30 4012 H 381.116 1.12229 -3.04262 0
M  V30 4013 H 380.901 -0.43288 -3.89703 0
M  V30 4014 H 382.391 0.526335 -4.1427 0
M  V30 4015 N 382.828 1.3818 -0.7579 0
M  V30 4016 C 384.056 2.04301 -0.326937 0
M  V30 4017 C 384.471 1.57163 1.0462 0
M  V30 4018 O 383.828 0.746626 1.66529 0
M  V30 4019 C 383.879 3.59846 -0.345363 0
M  V30 4020 O 383.6 4.05256 -1.66432 0
M  V30 4021 C 385.101 4.4319 0.098927 0
M  V30 4022 H 382.321 0.656443 -0.139012 0
M  V30 4023 H 384.865 1.76786 -1.02796 0
M  V30 4024 H 383.02 3.86182 0.306955 0
M  V30 4025 H 383.434 4.99709 -1.59345 0
M  V30 4026 H 384.908 5.51989 0.0348745 0
M  V30 4027 H 385.385 4.23947 1.14741 0
M  V30 4028 H 385.991 4.22051 -0.52468 0
M  V30 4029 N 384.306 0.507319 1.49211 0
M  V30 4030 C 385.536 -0.0315292 2.06576 0
M  V30 4031 C 385.944 -1.30791 1.36713 0
M  V30 4032 O 385.287 -1.78324 0.441181 0
M  V30 4033 C 385.349 -0.349104 3.57801 0
M  V30 4034 C 385.013 0.830475 4.49391 0
M  V30 4035 C 386.01 1.72271 4.90529 0
M  V30 4036 C 383.695 1.03107 4.91604 0
M  V30 4037 C 385.689 2.79964 5.72625 0
M  V30 4038 C 383.376 2.11116 5.73475 0
M  V30 4039 C 384.374 2.99379 6.1389 0
M  V30 4040 O 384.062 4.05523 6.94123 0
M  V30 4041 H 383.794 0.0201002 0.675701 0
M  V30 4042 H 386.348 0.705737 1.92895 0
M  V30 4043 H 384.578 -1.14005 3.69513 0
M  V30 4044 H 386.267 -0.827319 3.97379 0
M  V30 4045 H 387.033 1.57958 4.58557 0
M  V30 4046 H 382.912 0.353417 4.59643 0
M  V30 4047 H 386.456 3.48884 6.04091 0
M  V30 4048 H 382.353 2.25421 6.0486 0
M  V30 4049 H 383.121 4.02953 7.1244 0
M  V30 4050 N 385.784 -1.5574 0.241426 0
M  V30 4051 C 387.033 -1.97986 -0.385295 0
M  V30 4052 C 387.346 -1.13267 -1.59468 0
M  V30 4053 O 388.552 -1.45501 -2.2922 0
M  V30 4054 C 387.008 -3.52275 -0.736884 0
M  V30 4055 C 386.616 -4.45726 0.450796 0
M  V30 4056 C 388.36 -4.03189 -1.3281 0
M  V30 4057 C 386.267 -5.91352 0.0756662 0
M  V30 4058 H 385.197 -0.739386 -0.147731 0
M  V30 4059 H 387.848 -1.80308 0.340779 0
M  V30 4060 H 386.23 -3.65628 -1.52094 0
M  V30 4061 H 387.404 -4.44131 1.22819 0
M  V30 4062 H 385.719 -4.05264 0.956573 0
M  V30 4063 H 388.316 -5.09505 -1.62201 0
M  V30 4064 H 388.659 -3.50212 -2.25071 0
M  V30 4065 H 389.192 -3.93141 -0.607069 0
M  V30 4066 H 385.931 -6.48354 0.965272 0
M  V30 4067 H 385.451 -5.96095 -0.665635 0
M  V30 4068 H 387.13 -6.46084 -0.344075 0
M  V30 4069 N 387.262 0.0317525 -1.57568 0
M  V30 4070 C 388.539 0.758366 -1.803 0
M  V30 4071 C 388.919 1.93718 -0.838845 0
M  V30 4072 O 388.267 2.28187 0.119571 0
M  V30 4073 C 388.477 1.19392 -3.27943 0
M  V30 4074 C 389.825 1.61094 -3.92854 0
M  V30 4075 O 390.849 1.28857 -3.32076 0
M  V30 4076 O 389.708 2.20918 -4.99858 0
M  V30 4077 H 386.802 0.366514 -0.741348 0
M  V30 4078 H 389.348 0.00873765 -1.69698 0
M  V30 4079 H 388.12 0.352275 -3.89711 0
M  V30 4080 H 387.743 2.00365 -3.43424 0
M  V30 4081 N 388.74 1.54641 0.303973 0
M  V30 4082 C 389.989 1.7299 1.03717 0
M  V30 4083 C 390.302 0.521168 1.88529 0
M  V30 4084 O 391.508 0.586408 2.65092 0
M  V30 4085 C 389.964 3.06051 1.89369 0
M  V30 4086 C 389.572 4.34393 1.09574 0
M  V30 4087 C 391.316 3.3376 2.62306 0
M  V30 4088 C 389.223 5.58506 1.94486 0
M  V30 4089 H 388.153 0.64473 0.390947 0
M  V30 4090 H 390.804 1.81124 0.294328 0
M  V30 4091 H 389.186 2.91874 2.67629 0
M  V30 4092 H 390.36 4.59396 0.359485 0
M  V30 4093 H 388.675 4.13597 0.482324 0
M  V30 4094 H 391.272 4.23687 3.26181 0
M  V30 4095 H 391.615 2.52503 3.3098 0
M  V30 4096 H 392.148 3.48894 1.91097 0
M  V30 4097 H 388.887 6.42422 1.30287 0
M  V30 4098 H 388.407 5.37694 2.65792 0
M  V30 4099 H 390.086 5.95651 2.52605 0
M  V30 4100 N 390.218 -0.567019 1.47046 0
M  V30 4101 C 391.495 -1.3276 1.43646 0
M  V30 4102 C 391.875 -2.1071 0.128186 0
M  V30 4103 O 391.223 -2.10441 -0.890326 0
M  V30 4104 C 391.433 -2.2404 2.67595 0
M  V30 4105 C 392.781 -2.85372 3.14401 0
M  V30 4106 O 393.805 -2.34346 2.68254 0
M  V30 4107 O 392.664 -3.78091 3.946 0
M  V30 4108 H 389.758 -0.597293 0.571988 0
M  V30 4109 H 392.304 -0.586735 1.59234 0
M  V30 4110 H 391.076 -1.65975 3.54356 0
M  V30 4111 H 390.699 -3.05439 2.54544 0
M  V30 4112 N 391.696 -1.35014 -0.812953 0
M  V30 4113 C 392.942 -1.2812 -1.57204 0
M  V30 4114 C 393.275 0.145869 -1.93651 0
M  V30 4115 O 392.55 1.0937 -1.60836 0
M  V30 4116 C 392.833 -2.18162 -2.86492 0
M  V30 4117 C 392.686 -3.69454 -2.56561 0
M  V30 4118 C 394.005 -2.07439 -3.88145 0
M  V30 4119 H 391.124 -0.466746 -0.570366 0
M  V30 4120 H 393.766 -1.65357 -0.935783 0
M  V30 4121 H 391.916 -1.86535 -3.40789 0
M  V30 4122 H 393.588 -4.11493 -2.08497 0
M  V30 4123 H 391.831 -3.9005 -1.89851 0
M  V30 4124 H 392.502 -4.27835 -3.48799 0
M  V30 4125 H 394.978 -2.35228 -3.4323 0
M  V30 4126 H 393.854 -2.7265 -4.76396 0
M  V30 4127 H 394.115 -1.05439 -4.29343 0
M  V30 4128 N 393.175 1.03435 -1.18907 0
M  V30 4129 C 394.085 2.15075 -0.937015 0
M  V30 4130 C 395.101 1.73706 0.101085 0
M  V30 4131 O 396.277 2.01232 -0.0822948 0
M  V30 4132 C 393.342 3.43458 -0.473057 0
M  V30 4133 C 392.403 3.99172 -1.57989 0
M  V30 4134 C 391.636 5.21427 -1.13797 0
M  V30 4135 O 391.859 5.704 0.000725941 0
M  V30 4136 O 390.793 5.69837 -1.9383 0
M  V30 4137 H 394.619 2.39198 -1.87131 0
M  V30 4138 H 392.204 1.13506 -0.971427 0
M  V30 4139 H 394.086 4.20811 -0.222702 0
M  V30 4140 H 392.761 3.20793 0.432869 0
M  V30 4141 H 391.668 3.23178 -1.88433 0
M  V30 4142 H 393.001 4.2619 -2.46217 0
M  V30 4143 N 394.653 0.992116 1.22453 0
M  V30 4144 C 395.902 0.662992 1.90492 0
M  V30 4145 C 396.215 -0.808407 1.78113 0
M  V30 4146 O 397.421 -1.24908 2.41061 0
M  V30 4147 C 395.877 1.1353 3.41524 0
M  V30 4148 C 395.485 2.63187 3.62542 0
M  V30 4149 C 397.229 0.880465 4.15269 0
M  V30 4150 C 395.136 3.04024 5.0727 0
M  V30 4151 H 394.066 0.244278 0.713333 0
M  V30 4152 H 396.717 1.20157 1.38688 0
M  V30 4153 H 395.099 0.52485 3.92506 0
M  V30 4154 H 396.273 3.2957 3.22056 0
M  V30 4155 H 394.588 2.86543 3.02129 0
M  V30 4156 H 397.185 1.16128 5.21937 0
M  V30 4157 H 397.528 -0.183408 4.15896 0
M  V30 4158 H 398.061 1.45307 3.70312 0
M  V30 4159 H 394.8 4.09584 5.11782 0
M  V30 4160 H 394.32 2.42343 5.48662 0
M  V30 4161 H 395.999 2.95282 5.75689 0
M  V30 4162 N 396.131 -1.37776 0.765217 0
M  V30 4163 C 397.094 -2.28686 0.153416 0
M  V30 4164 C 398.094 -1.47727 -0.635081 0
M  V30 4165 O 399.284 -1.68027 -0.459632 0
M  V30 4166 C 396.416 -3.31608 -0.790495 0
M  V30 4167 H 397.609 -2.84297 0.954723 0
M  V30 4168 H 395.162 -1.46932 0.53299 0
M  V30 4169 H 395.897 -2.81109 -1.61705 0
M  V30 4170 H 395.682 -3.9144 -0.227348 0
M  V30 4171 H 397.172 -3.99559 -1.21419 0
M  V30 4172 N 397.609 -0.515225 -1.4894 0
M  V30 4173 C 398.834 0.022727 -2.07388 0
M  V30 4174 C 399.259 1.2876 -1.37122 0
M  V30 4175 O 398.617 1.76067 -0.432431 0
M  V30 4176 C 398.665 0.244869 -3.59768 0
M  V30 4177 O 397.769 1.31667 -3.90817 0
M  V30 4178 H 397.11 -0.0325506 -0.663202 0
M  V30 4179 H 399.64 -0.718918 -1.91553 0
M  V30 4180 H 399.65 0.47205 -4.0526 0
M  V30 4181 H 398.325 -0.679194 -4.10317 0
M  V30 4182 H 396.902 1.07331 -3.5712 0
M  V30 4183 N 399.087 1.5561 -0.249682 0
M  V30 4184 C 399.997 2.25143 0.659375 0
M  V30 4185 C 401.013 1.2685 1.19101 0
M  V30 4186 O 402.189 1.59732 1.22669 0
M  V30 4187 C 399.254 2.93945 1.8384 0
M  V30 4188 C 398.315 4.07655 1.34596 0
M  V30 4189 C 397.548 4.73167 2.46878 0
M  V30 4190 O 397.771 4.37768 3.65671 0
M  V30 4191 O 396.705 5.61623 2.16478 0
M  V30 4192 H 400.531 3.03545 0.0968698 0
M  V30 4193 H 398.116 1.49389 -0.018074 0
M  V30 4194 H 399.998 3.37271 2.52638 0
M  V30 4195 H 398.673 2.18481 2.38847 0
M  V30 4196 H 397.58 3.68839 0.625174 0
M  V30 4197 H 398.913 4.84946 0.841941 0
M  V30 4198 N 400.565 -0.0233959 1.57583 0
M  V30 4199 C 401.811 -0.714119 1.89811 0
M  V30 4200 C 402.144 -1.74702 0.848113 0
M  V30 4201 O 401.419 -1.94023 -0.136135 0
M  V30 4202 C 401.702 -1.37853 3.32669 0
M  V30 4203 C 401.555 -0.358764 4.48367 0
M  V30 4204 C 402.874 -2.31101 3.7454 0
M  V30 4205 H 399.993 -0.25814 0.690314 0
M  V30 4206 H 402.635 0.0230927 1.89986 0
M  V30 4207 H 400.785 -2.00689 3.3265 0
M  V30 4208 H 402.457 0.268115 4.6052 0
M  V30 4209 H 400.7 0.321387 4.32608 0
M  V30 4210 H 401.371 -0.862242 5.45224 0
M  V30 4211 H 403.847 -1.78304 3.75961 0
M  V30 4212 H 402.723 -2.74567 4.75294 0
M  V30 4213 H 402.984 -3.18018 3.0711 0
M  V30 4214 N 402.043 -1.548 -0.295768 0
M  V30 4215 C 402.975 -1.82492 -1.3867 0
M  V30 4216 C 403.988 -0.708134 -1.46592 0
M  V30 4217 O 405.177 -0.985686 -1.48817 0
M  V30 4218 C 402.277 -1.95256 -2.76999 0
M  V30 4219 C 401.45 -3.25709 -2.91946 0
M  V30 4220 C 400.509 -3.28824 -4.10806 0
M  V30 4221 O 399.535 -4.02328 -4.02643 0
M  V30 4222 N 400.737 -2.5459 -5.21694 0
M  V30 4223 H 403.502 -2.76646 -1.15269 0
M  V30 4224 H 401.063 -1.54438 -0.485849 0
M  V30 4225 H 403.055 -1.94736 -3.54768 0
M  V30 4226 H 401.625 -1.08072 -2.93324 0
M  V30 4227 H 400.845 -3.38959 -2.01247 0
M  V30 4228 H 402.133 -4.11786 -2.98847 0
M  V30 4229 H 401.531 -1.94512 -5.31208 0
M  V30 4230 H 400.088 -2.59818 -5.97778 0
M  V30 4231 N 403.521 0.559213 -1.47345 0
M  V30 4232 C 404.77 1.31281 -1.53128 0
M  V30 4233 C 405.083 1.94602 -0.197344 0
M  V30 4234 O 406.289 2.71173 -0.133154 0
M  V30 4235 C 404.745 2.38051 -2.69925 0
M  V30 4236 C 404.353 1.8093 -4.0984 0
M  V30 4237 C 406.097 3.14604 -2.84999 0
M  V30 4238 C 404.004 2.85468 -5.1794 0
M  V30 4239 H 402.934 0.493614 -0.569966 0
M  V30 4240 H 405.585 0.594155 -1.73615 0
M  V30 4241 H 403.967 3.12822 -2.42814 0
M  V30 4242 H 405.141 1.12544 -4.46845 0
M  V30 4243 H 403.456 1.16967 -3.99634 0
M  V30 4244 H 406.053 3.92666 -3.62929 0
M  V30 4245 H 406.396 3.68665 -1.93369 0
M  V30 4246 H 406.929 2.46945 -3.1187 0
M  V30 4247 H 403.668 2.36264 -6.1144 0
M  V30 4248 H 403.188 3.52269 -4.85455 0
M  V30 4249 H 404.867 3.48996 -5.44803 0
M  V30 4250 N 404.999 1.35443 0.805782 0
M  V30 4251 C 405.909 1.30546 1.94923 0
M  V30 4252 C 406.925 0.210233 1.72725 0
M  V30 4253 O 408.101 0.43975 1.9654 0
M  V30 4254 C 405.166 1.07782 3.29521 0
M  V30 4255 C 404.227 2.26625 3.64609 0
M  V30 4256 C 403.46 2.04938 4.92784 0
M  V30 4257 O 403.683 1.01624 5.61274 0
M  V30 4258 O 402.617 2.9232 5.26149 0
M  V30 4259 H 406.443 2.26779 2.02002 0
M  V30 4260 H 404.028 1.15823 0.943682 0
M  V30 4261 H 405.91 0.969392 4.10098 0
M  V30 4262 H 404.585 0.146003 3.23371 0
M  V30 4263 H 403.492 2.43033 2.84404 0
M  V30 4264 H 404.825 3.18257 3.75464 0
M  V30 4265 N 406.477 -1.02803 1.19454 0
M  V30 4266 C 407.44 -2.09264 0.934955 0
M  V30 4267 C 408.44 -1.60576 -0.0849015 0
M  V30 4268 O 409.63 -1.73554 0.149933 0
M  V30 4269 C 406.762 -3.38482 0.40531 0
M  V30 4270 H 407.955 -2.33726 1.87916 0
M  V30 4271 H 405.508 -1.19426 1.00832 0
M  V30 4272 H 406.243 -3.19689 -0.544899 0
M  V30 4273 H 406.028 -3.75142 1.14065 0
M  V30 4274 H 407.518 -4.16894 0.242806 0
M  V30 4275 N 407.956 -0.998596 -1.21925 0
M  V30 4276 C 408.904 -0.546641 -2.26085 0
M  V30 4277 C 409.898 0.405576 -1.64473 0
M  V30 4278 O 411.104 0.277471 -1.77849 0
M  V30 4279 H 407.479 -0.158403 -0.735127 0
M  V30 4280 H 409.45 -1.43645 -2.61551 0
M  V30 4281 C 408.199 0.117388 -3.47502 0
M  V30 4282 H 407.522 -0.606277 -3.95176 0
M  V30 4283 H 408.962 0.396993 -4.22137 0
M  V30 4284 C 407.421 1.35455 -3.0847 0
M  V30 4285 O 407.951 2.44944 -3.18379 0
M  V30 4286 N 406.157 1.23191 -2.63196 0
M  V30 4287 H 405.704 0.341006 -2.55333 0
M  V30 4288 H 405.662 2.06071 -2.37449 0
M  V30 4289 N 409.434 1.37368 -0.772513 0
M  V30 4290 C 410.68 1.99969 -0.337681 0
M  V30 4291 C 411.013 1.61184 1.08321 0
M  V30 4292 O 410.288 0.858395 1.74533 0
M  V30 4293 C 410.571 3.56858 -0.482121 0
M  V30 4294 C 410.424 4.0555 -1.94549 0
M  V30 4295 C 411.743 4.39955 0.113143 0
M  V30 4296 H 408.862 0.726464 -0.124171 0
M  V30 4297 H 411.504 1.63034 -0.975699 0
M  V30 4298 H 409.654 3.88452 0.0610361 0
M  V30 4299 H 411.326 3.84518 -2.54841 0
M  V30 4300 H 409.569 3.57715 -2.45403 0
M  V30 4301 H 410.24 5.14587 -1.9976 0
M  V30 4302 H 412.716 4.14623 -0.35031 0
M  V30 4303 H 411.592 5.48897 -0.0180514 0
M  V30 4304 H 411.853 4.25403 1.20354 0
M  V30 4305 N 410.912 0.523116 1.48665 0
M  V30 4306 C 412.14 -0.0096312 2.06898 0
M  V30 4307 C 412.555 -1.28784 1.38059 0
M  V30 4308 O 411.912 -1.76453 0.465893 0
M  V30 4309 C 411.963 -0.244386 3.60673 0
M  V30 4310 O 411.684 0.983172 4.26925 0
M  V30 4311 C 413.185 -0.818289 4.35682 0
M  V30 4312 H 410.405 0.0304161 0.67031 0
M  V30 4313 H 412.949 0.726799 1.91149 0
M  V30 4314 H 411.104 -0.930847 3.76051 0
M  V30 4315 H 411.518 0.759653 5.1897 0
M  V30 4316 H 412.992 -0.93201 5.44075 0
M  V30 4317 H 413.469 -1.82153 3.99646 0
M  V30 4318 H 414.075 -0.168609 4.24966 0
M  V30 4319 N 412.39 -1.55475 0.257931 0
M  V30 4320 C 413.32 -2.24815 -0.630912 0
M  V30 4321 C 414.301 -1.23224 -1.17259 0
M  V30 4322 O 415.486 -1.51904 -1.20991 0
M  V30 4323 C 412.616 -2.95609 -1.82298 0
M  V30 4324 C 411.57 -4.03982 -1.41359 0
M  V30 4325 C 410.896 -4.6226 -2.68738 0
M  V30 4326 C 412.196 -5.19109 -0.57648 0
M  V30 4327 H 413.89 -2.99354 -0.0526878 0
M  V30 4328 H 411.436 -1.4398 -0.023901 0
M  V30 4329 H 413.389 -3.42822 -2.45054 0
M  V30 4330 H 412.113 -2.18577 -2.42676 0
M  V30 4331 H 410.772 -3.57555 -0.809324 0
M  V30 4332 H 410.42 -3.81915 -3.27338 0
M  V30 4333 H 410.12 -5.35424 -2.42065 0
M  V30 4334 H 411.644 -5.12212 -3.32372 0
M  V30 4335 H 413.058 -5.62479 -1.10861 0
M  V30 4336 H 411.455 -5.98729 -0.405351 0
M  V30 4337 H 412.525 -4.83174 0.408776 0
M  V30 4338 N 413.868 0.0150385 -1.57593 0
M  V30 4339 C 414.815 1.01126 -2.07466 0
M  V30 4340 C 415.785 1.35064 -0.966794 0
M  V30 4341 O 416.97 1.4516 -1.23827 0
M  V30 4342 C 414.11 2.30276 -2.57035 0
M  V30 4343 C 413.223 2.02373 -3.81666 0
M  V30 4344 C 412.358 3.25496 -4.19793 0
M  V30 4345 C 411.397 2.93211 -5.37303 0
M  V30 4346 N 410.534 4.08826 -5.70794 0
M  V30 4347 H 415.374 0.57901 -2.92321 0
M  V30 4348 H 412.911 0.27426 -1.44521 0
M  V30 4349 H 414.869 3.05757 -2.83846 0
M  V30 4350 H 413.499 2.71197 -1.75077 0
M  V30 4351 H 412.551 1.17327 -3.61854 0
M  V30 4352 H 413.863 1.74567 -4.67256 0
M  V30 4353 H 413.017 4.09333 -4.47807 0
M  V30 4354 H 411.756 3.56428 -3.32882 0
M  V30 4355 H 410.761 2.07777 -5.09027 0
M  V30 4356 H 411.986 2.63542 -6.25877 0
M  V30 4357 H 409.932 4.39682 -4.86842 0
M  V30 4358 H 409.849 3.84491 -6.50924 0
M  V30 4359 H 411.117 4.93496 -6.03392 0
M  V30 4360 N 415.346 1.54954 0.287554 0
M  V30 4361 C 416.594 1.74528 1.01904 0
M  V30 4362 C 416.915 0.541349 1.87335 0
M  V30 4363 O 416.185 -0.444108 1.908 0
M  V30 4364 H 414.765 0.643576 0.379235 0
M  V30 4365 H 417.427 1.92333 0.315294 0
M  V30 4366 H 416.523 2.64015 1.6644 0
M  V30 4367 N 416.824 -0.551391 1.4764 0
M  V30 4368 C 417.756 -1.67333 1.56628 0
M  V30 4369 C 418.769 -1.56398 0.452045 0
M  V30 4370 O 419.958 -1.6325 0.721926 0
M  V30 4371 C 417.058 -3.05841 1.45994 0
M  V30 4372 C 416.231 -3.42472 2.72088 0
M  V30 4373 C 415.29 -4.60168 2.55209 0
M  V30 4374 O 414.316 -4.64458 3.2904 0
M  V30 4375 N 415.518 -5.57024 1.63416 0
M  V30 4376 H 418.283 -1.60066 2.53375 0
M  V30 4377 H 415.844 -0.738169 1.44093 0
M  V30 4378 H 417.836 -3.8242 1.32428 0
M  V30 4379 H 416.406 -3.07302 0.573071 0
M  V30 4380 H 415.626 -2.55284 3.00373 0
M  V30 4381 H 416.914 -3.63723 3.55785 0
M  V30 4382 H 416.312 -5.56319 1.02594 0
M  V30 4383 H 414.869 -6.32906 1.558 0
M  V30 4384 N 418.302 -1.35869 -0.798587 0
M  V30 4385 C 419.53 -1.32722 -1.58722 0
M  V30 4386 C 419.945 0.0935631 -1.88568 0
M  V30 4387 O 419.302 1.04784 -1.49421 0
M  V30 4388 C 419.353 -2.13974 -2.91371 0
M  V30 4389 O 419.074 -3.50514 -2.62815 0
M  V30 4390 C 420.575 -2.18504 -3.85708 0
M  V30 4391 H 417.795 -0.45562 -0.492596 0
M  V30 4392 H 420.339 -1.78837 -0.991843 0
M  V30 4393 H 418.494 -1.71438 -3.47402 0
M  V30 4394 H 418.908 -3.92806 -3.47568 0
M  V30 4395 H 420.382 -2.79732 -4.75872 0
M  V30 4396 H 420.859 -1.18597 -4.22885 0
M  V30 4397 H 421.465 -2.61236 -3.35612 0
M  V30 4398 N 419.78 1.02168 -1.19998 0
M  V30 4399 C 420.727 2.10601 -0.944228 0
M  V30 4400 C 421.697 1.65639 0.123664 0
M  V30 4401 O 422.882 1.9079 -0.0199941 0
M  V30 4402 C 420.022 3.41504 -0.496865 0
M  V30 4403 C 419.135 3.99973 -1.63234 0
M  V30 4404 C 418.27 5.18915 -1.13579 0
M  V30 4405 C 417.309 5.69456 -2.24468 0
M  V30 4406 N 416.446 6.79665 -1.76068 0
M  V30 4407 H 421.286 2.31814 -1.8726 0
M  V30 4408 H 418.823 1.13686 -0.933483 0
M  V30 4409 H 420.781 4.16626 -0.218843 0
M  V30 4410 H 419.411 3.2038 0.394508 0
M  V30 4411 H 418.463 3.21997 -2.0254 0
M  V30 4412 H 419.775 4.33492 -2.46752 0
M  V30 4413 H 418.929 6.01222 -0.813429 0
M  V30 4414 H 417.668 4.8695 -0.270434 0
M  V30 4415 H 416.673 4.85757 -2.57526 0
M  V30 4416 H 417.898 6.03459 -3.11472 0
M  V30 4417 H 415.844 6.49538 -0.918516 0
M  V30 4418 H 415.761 7.12349 -2.5317 0
M  V30 4419 H 417.029 7.65549 -1.46817 0
M  V30 4420 N 421.258 1.00505 1.21394 0
M  V30 4421 C 422.507 0.683159 1.89778 0
M  V30 4422 C 422.82 -0.789471 1.7896 0
M  V30 4423 O 424.026 -1.22344 2.42372 0
M  V30 4424 C 422.482 1.17146 3.40301 0
M  V30 4425 C 422.09 2.67017 3.5973 0
M  V30 4426 C 423.834 0.924461 4.14311 0
M  V30 4427 C 421.741 3.09387 5.04017 0
M  V30 4428 H 420.671 0.25183 0.710702 0
M  V30 4429 H 423.322 1.21622 1.37406 0
M  V30 4430 H 421.704 0.566451 3.91928 0
M  V30 4431 H 422.878 3.32968 3.18542 0
M  V30 4432 H 421.193 2.89732 2.99073 0
M  V30 4433 H 423.79 1.21658 5.20676 0
M  V30 4434 H 424.133 -0.139286 4.16067 0
M  V30 4435 H 424.666 1.49226 3.6875 0
M  V30 4436 H 421.405 4.14989 5.07409 0
M  V30 4437 H 420.925 2.48149 5.46061 0
M  V30 4438 H 422.604 3.01371 5.72525 0
M  V30 4439 N 422.737 -1.36956 0.779787 0
M  V30 4440 C 423.985 -1.99097 0.347079 0
M  V30 4441 C 424.306 -1.62206 -1.08232 0
M  V30 4442 O 423.576 -0.891373 -1.74446 0
M  V30 4443 H 422.156 -0.736409 0.125342 0
M  V30 4444 H 424.818 -1.67308 0.999696 0
M  V30 4445 H 423.914 -3.09107 0.431162 0
M  V30 4446 N 424.215 -0.530993 -1.48385 0
M  V30 4447 C 425.178 0.220497 -2.28137 0
M  V30 4448 C 426.178 0.866851 -1.35434 0
M  V30 4449 O 427.368 0.726746 -1.58316 0
M  V30 4450 C 424.5 1.31921 -3.1434 0
M  V30 4451 H 425.693 -0.479714 -2.96038 0
M  V30 4452 H 423.246 -0.286968 -1.53643 0
M  V30 4453 H 423.981 2.05264 -2.51072 0
M  V30 4454 H 423.766 0.86085 -3.82533 0
M  V30 4455 H 425.256 1.84776 -3.74497 0
M  V30 4456 N 425.693 1.55336 -0.266172 0
M  V30 4457 C 426.603 2.2583 0.635458 0
M  V30 4458 C 427.619 1.28106 1.17749 0
M  V30 4459 O 428.795 1.61024 1.20968 0
M  V30 4460 C 425.86 2.95879 1.80712 0
M  V30 4461 C 424.921 4.09059 1.30265 0
M  V30 4462 C 424.154 4.75759 2.41846 0
M  V30 4463 O 424.377 4.41622 3.61007 0
M  V30 4464 O 423.311 5.63888 2.1051 0
M  V30 4465 H 427.137 3.03631 0.0646693 0
M  V30 4466 H 424.722 1.49361 -0.0339177 0
M  V30 4467 H 426.604 3.39932 2.49047 0
M  V30 4468 H 425.279 2.21002 2.36516 0
M  V30 4469 H 424.186 3.69482 0.586019 0
M  V30 4470 H 425.519 4.85811 0.790458 0
M  V30 4471 N 427.171 -0.0066808 1.57599 0
M  V30 4472 C 428.399 -0.704087 1.94551 0
M  V30 4473 C 428.814 -1.67677 0.867746 0
M  V30 4474 O 428.171 -1.8185 -0.153925 0
M  V30 4475 C 428.222 -1.44177 3.31505 0
M  V30 4476 O 427.943 -0.508097 4.35144 0
M  V30 4477 C 429.444 -2.23429 3.82876 0
M  V30 4478 H 426.664 -0.196523 0.641576 0
M  V30 4479 H 429.208 0.042453 2.04456 0
M  V30 4480 H 427.363 -2.13999 3.22929 0
M  V30 4481 H 427.777 -1.02782 5.14331 0
M  V30 4482 H 429.251 -2.70552 4.8115 0
M  V30 4483 H 429.728 -3.05818 3.15233 0
M  V30 4484 H 430.334 -1.58636 3.94607 0
M  V30 4485 N 428.649 -1.55105 -0.279332 0
M  V30 4486 C 429.895 -1.75672 -1.01327 0
M  V30 4487 C 430.228 -0.552739 -1.86168 0
M  V30 4488 O 429.503 0.449827 -1.89227 0
M  V30 4489 C 429.786 -3.05825 -1.90114 0
M  V30 4490 C 429.639 -4.36565 -1.08309 0
M  V30 4491 C 430.958 -3.31975 -2.8893 0
M  V30 4492 H 428.077 -0.639149 -0.366957 0
M  V30 4493 H 430.719 -1.87833 -0.286154 0
M  V30 4494 H 428.869 -2.95588 -2.52111 0
M  V30 4495 H 430.541 -4.58751 -0.484314 0
M  V30 4496 H 428.784 -4.32076 -0.386362 0
M  V30 4497 H 429.455 -5.23946 -1.73737 0
M  V30 4498 H 431.931 -3.41963 -2.37067 0
M  V30 4499 H 430.807 -4.2432 -3.48201 0
M  V30 4500 H 431.068 -2.51309 -3.63725 0
M  V30 4501 N 430.127 0.543554 -1.4793 0
M  V30 4502 C 431.057 1.65888 -1.64327 0
M  V30 4503 C 432.038 1.62818 -0.492383 0
M  V30 4504 O 433.223 1.80226 -0.723338 0
M  V30 4505 C 430.353 3.04506 -1.67013 0
M  V30 4506 C 429.307 3.2243 -2.81466 0
M  V30 4507 C 428.633 4.61972 -2.69233 0
M  V30 4508 C 429.933 3.06496 -4.22915 0
M  V30 4509 H 431.627 1.52421 -2.57698 0
M  V30 4510 H 429.173 0.731849 -1.24016 0
M  V30 4511 H 431.126 3.82391 -1.77074 0
M  V30 4512 H 429.85 3.18964 -0.70212 0
M  V30 4513 H 428.509 2.46957 -2.70938 0
M  V30 4514 H 428.157 4.73247 -1.7043 0
M  V30 4515 H 427.857 4.74911 -3.46025 0
M  V30 4516 H 429.381 5.41974 -2.81242 0
M  V30 4517 H 430.795 3.74186 -4.34348 0
M  V30 4518 H 429.192 3.30938 -5.006 0
M  V30 4519 H 430.262 2.03077 -4.40327 0
M  V30 4520 N 431.605 1.3629 0.791371 0
M  V30 4521 C 432.833 1.33562 1.58016 0
M  V30 4522 C 433.248 -0.0835616 1.88615 0
M  V30 4523 O 432.605 -1.0399 1.49974 0
M  V30 4524 C 432.656 2.15517 2.90232 0
M  V30 4525 O 432.377 3.51902 2.60953 0
M  V30 4526 C 433.878 2.20546 3.84544 0
M  V30 4527 H 431.098 0.458226 0.490173 0
M  V30 4528 H 433.642 1.79361 0.982345 0
M  V30 4529 H 431.797 1.73278 3.46487 0
M  V30 4530 H 432.211 3.94644 3.4548 0
M  V30 4531 H 433.685 2.82252 4.74382 0
M  V30 4532 H 434.162 1.20838 4.2225 0
M  V30 4533 H 434.768 2.63013 3.34222 0
M  V30 4534 N 433.083 -1.0153 1.20538 0
M  V30 4535 C 434.031 -2.12215 0.952235 0
M  V30 4536 C 435.025 -1.69123 -0.0968735 0
M  V30 4537 O 436.231 -1.7992 0.0536006 0
M  V30 4538 H 432.606 -0.693576 0.290613 0
M  V30 4539 H 434.577 -2.3075 1.89201 0
M  V30 4540 C 433.326 -3.43755 0.522287 0
M  V30 4541 H 432.649 -3.7734 1.32115 0
M  V30 4542 H 434.089 -4.22254 0.384389 0
M  V30 4543 C 432.548 -3.28088 -0.765489 0
M  V30 4544 O 433.078 -3.57921 -1.8236 0
M  V30 4545 N 431.284 -2.81333 -0.728011 0
M  V30 4546 H 430.831 -2.57255 0.133332 0
M  V30 4547 H 430.789 -2.71232 -1.58999 0
M  V30 4548 N 434.561 -1.01147 -1.20859 0
M  V30 4549 C 435.809 -0.696486 -1.89719 0
M  V30 4550 C 436.13 0.775788 -1.78904 0
M  V30 4551 O 435.4 1.55759 -1.18811 0
M  V30 4552 H 433.98 -0.254628 -0.702263 0
M  V30 4553 H 436.642 -1.28197 -1.46804 0
M  V30 4554 H 435.738 -0.975357 -2.96468 0
M  V30 4555 N 436.039 1.36541 -0.78704 0
M  V30 4556 C 437.267 2.03561 -0.370199 0
M  V30 4557 C 437.682 1.59347 1.01263 0
M  V30 4558 O 437.039 0.781781 1.64907 0
M  V30 4559 C 437.09 3.59033 -0.421614 0
M  V30 4560 O 436.811 4.01634 -1.7499 0
M  V30 4561 C 438.312 4.433 0.00489763 0
M  V30 4562 H 435.532 0.653346 -0.152904 0
M  V30 4563 H 438.076 1.74566 -1.06522 0
M  V30 4564 H 436.231 3.86746 0.224971 0
M  V30 4565 H 436.645 4.96217 -1.69909 0
M  V30 4566 H 438.119 5.51939 -0.0822184 0
M  V30 4567 H 438.596 4.26285 1.05723 0
M  V30 4568 H 439.202 4.20843 -0.614085 0
M  V30 4569 N 437.518 0.538854 1.48102 0
M  V30 4570 C 438.748 0.0122958 2.06596 0
M  V30 4571 C 439.156 -1.27861 1.39457 0
M  V30 4572 O 438.499 -1.77348 0.478907 0
M  V30 4573 C 438.561 -0.273131 3.58461 0
M  V30 4574 C 438.225 0.92561 4.47528 0
M  V30 4575 C 439.222 1.82637 4.86765 0
M  V30 4576 C 436.907 1.13511 4.89306 0
M  V30 4577 C 438.901 2.92047 5.66558 0
M  V30 4578 C 436.588 2.23233 5.68868 0
M  V30 4579 C 437.586 3.12333 6.07402 0
M  V30 4580 O 437.274 4.20155 6.85365 0
M  V30 4581 H 437.006 0.0344283 0.675123 0
M  V30 4582 H 439.56 0.746494 1.91355 0
M  V30 4583 H 437.79 -1.06141 3.71848 0
M  V30 4584 H 439.479 -0.742842 3.99045 0
M  V30 4585 H 440.245 1.67649 4.55103 0
M  V30 4586 H 436.124 0.450835 4.5879 0
M  V30 4587 H 439.668 3.6162 5.96554 0
M  V30 4588 H 435.565 2.38201 5.99942 0
M  V30 4589 H 436.333 4.17975 7.03732 0
M  V30 4590 N 438.996 -1.55193 0.274407 0
M  V30 4591 C 440.242 -1.99877 -0.343086 0
M  V30 4592 C 440.575 -1.16256 -1.55558 0
M  V30 4593 O 439.85 -0.232462 -1.93106 0
M  V30 4594 C 440.133 -3.52706 -0.725965 0
M  V30 4595 C 439.986 -4.47081 0.493818 0
M  V30 4596 C 441.305 -4.11422 -1.56268 0
M  V30 4597 H 438.424 -0.726625 -0.123229 0
M  V30 4598 H 441.066 -1.86136 0.38121 0
M  V30 4599 H 439.216 -3.64546 -1.34307 0
M  V30 4600 H 440.888 -4.47186 1.13237 0
M  V30 4601 H 439.131 -4.1877 1.13201 0
M  V30 4602 H 439.802 -5.51699 0.18217 0
M  V30 4603 H 442.278 -4.02855 -1.04151 0
M  V30 4604 H 441.154 -5.18568 -1.79939 0
M  V30 4605 H 441.415 -3.61607 -2.54348 0
M  V30 4606 N 440.474 -0.00167713 -1.576 0
M  V30 4607 C 441.72 0.683832 -1.90923 0
M  V30 4608 C 442.053 1.7333 -0.875799 0
M  V30 4609 O 441.328 1.94215 0.10525 0
M  V30 4610 C 441.611 1.32543 -3.3482 0
M  V30 4611 C 441.464 0.287387 -4.48881 0
M  V30 4612 C 442.783 2.25114 -3.78169 0
M  V30 4613 H 439.902 0.247125 -0.694333 0
M  V30 4614 H 442.544 -0.0533149 -1.89925 0
M  V30 4615 H 440.694 1.95372 -3.35801 0
M  V30 4616 H 442.366 -0.341346 -4.60035 0
M  V30 4617 H 440.609 -0.39017 -4.32042 0
M  V30 4618 H 441.28 0.775393 -5.46527 0
M  V30 4619 H 443.756 1.723 -3.7875 0
M  V30 4620 H 442.632 2.66971 -4.79602 0
M  V30 4621 H 442.893 3.13092 -3.12131 0
M  V30 4622 N 441.952 1.55251 0.271103 0
M  V30 4623 C 443.229 1.66664 1.02384 0
M  V30 4624 C 443.609 0.534363 2.04225 0
M  V30 4625 O 442.957 -0.465337 2.23712 0
M  V30 4626 C 443.167 3.05961 1.67895 0
M  V30 4627 C 444.515 3.63772 2.18986 0
M  V30 4628 O 445.539 3.08606 1.77878 0
M  V30 4629 O 444.398 4.60429 2.94393 0
M  V30 4630 H 441.492 0.676957 0.475035 0
M  V30 4631 H 444.038 1.67589 0.26681 0
M  V30 4632 H 442.81 3.79815 0.941071 0
M  V30 4633 H 442.433 3.08943 2.5028 0
M  V30 4634 N 443.43 -0.535701 1.48216 0
M  V30 4635 C 444.655 -1.32149 1.59848 0
M  V30 4636 C 445.08 -1.86338 0.256842 0
M  V30 4637 O 444.438 -1.64107 -0.770632 0
M  V30 4638 C 444.486 -2.45224 2.64381 0
M  V30 4639 O 443.59 -3.48093 2.21144 0
M  V30 4640 H 442.931 -0.391634 0.536208 0
M  V30 4641 H 445.461 -0.645202 1.94161 0
M  V30 4642 H 445.471 -2.91491 2.85476 0
M  V30 4643 H 444.146 -2.05143 3.61786 0
M  V30 4644 H 442.723 -3.07984 2.10239 0
M  V30 4645 N 444.908 -1.36708 -0.784132 0
M  V30 4646 C 446.136 -1.34398 -1.57305 0
M  V30 4647 C 446.551 0.0735577 -1.88657 0
M  V30 4648 O 445.908 1.03193 -1.50524 0
M  V30 4649 C 445.959 -2.17053 -2.89085 0
M  V30 4650 O 445.68 -3.53281 -2.59083 0
M  V30 4651 C 447.181 -2.22583 -3.83369 0
M  V30 4652 H 444.401 -0.460819 -0.487736 0
M  V30 4653 H 446.945 -1.79879 -0.972819 0
M  V30 4654 H 445.1 -1.75113 -3.45564 0
M  V30 4655 H 445.514 -3.9647 -3.43383 0
M  V30 4656 H 446.988 -2.84763 -4.72878 0
M  V30 4657 H 447.465 -1.23075 -4.21603 0
M  V30 4658 H 448.071 -2.64781 -3.32823 0
M  V30 4659 N 446.386 1.0089 -1.21074 0
M  V30 4660 C 447.635 1.74019 -1.01981 0
M  V30 4661 C 447.948 1.90408 0.447665 0
M  V30 4662 O 449.154 2.60707 0.757906 0
M  V30 4663 C 447.61 3.13026 -1.77603 0
M  V30 4664 C 447.218 3.04623 -3.28495 0
M  V30 4665 C 448.962 3.90312 -1.66904 0
M  V30 4666 C 446.869 4.38685 -3.96623 0
M  V30 4667 H 445.799 0.652422 -0.377971 0
M  V30 4668 H 448.45 1.12755 -1.44771 0
M  V30 4669 H 446.832 3.74878 -1.27604 0
M  V30 4670 H 448.006 2.52032 -3.85767 0
M  V30 4671 H 446.321 2.40827 -3.39693 0
M  V30 4672 H 448.918 4.8951 -2.15138 0
M  V30 4673 H 449.261 4.11558 -0.62658 0
M  V30 4674 H 449.794 3.35104 -2.14359 0
M  V30 4675 H 446.533 4.22641 -5.01054 0
M  V30 4676 H 446.053 4.91252 -3.4414 0
M  V30 4677 H 447.732 5.075 -4.01314 0
M  V30 4678 N 447.864 1.01787 1.20321 0
M  V30 4679 C 449.112 0.706538 1.89347 0
M  V30 4680 C 449.433 -0.766289 1.79313 0
M  V30 4681 O 448.703 -1.55126 1.19635 0
M  V30 4682 H 447.283 0.258348 0.700903 0
M  V30 4683 H 449.945 1.28974 1.46122 0
M  V30 4684 H 449.041 0.991066 2.95946 0
M  V30 4685 N 449.342 -1.36122 0.79427 0
M  V30 4686 C 450.305 -2.28309 0.201889 0
M  V30 4687 C 451.305 -1.49041 -0.603603 0
M  V30 4688 O 452.495 -1.68964 -0.423888 0
M  V30 4689 C 449.627 -3.3321 -0.719978 0
M  V30 4690 H 450.82 -2.82208 1.01481 0
M  V30 4691 H 448.373 -1.45768 0.564037 0
M  V30 4692 H 449.108 -2.84475 -1.55706 0
M  V30 4693 H 448.893 -3.91835 -0.144266 0
M  V30 4694 H 450.383 -4.02044 -1.12916 0
M  V30 4695 N 450.82 -0.546701 -1.47814 0
M  V30 4696 C 452.068 -0.0187037 -2.02091 0
M  V30 4697 C 452.389 1.33168 -1.42447 0
M  V30 4698 O 451.659 1.86619 -0.595839 0
M  V30 4699 H 450.239 -0.00392531 -0.74699 0
M  V30 4700 H 452.901 -0.714327 -1.81338 0
M  V30 4701 H 451.997 0.0772219 -3.12004 0
M  V30 4702 N 452.299 1.55045 -0.282633 0
M  V30 4703 C 453.262 2.21515 0.588539 0
M  V30 4704 C 454.262 1.19535 1.07554 0
M  V30 4705 O 455.452 1.44391 0.974514 0
M  V30 4706 C 452.584 2.88704 1.8128 0
M  V30 4707 H 453.777 2.99899 0.00806397 0
M  V30 4708 H 451.33 1.56265 -0.0333067 0
M  V30 4709 H 452.065 2.14352 2.43359 0
M  V30 4710 H 451.85 3.63443 1.47144 0
M  V30 4711 H 453.34 3.39465 2.43214 0
M  V30 4712 N 453.777 0.010035 1.57597 0
M  V30 4713 C 455.023 -0.673697 1.91283 0
M  V30 4714 C 455.356 -1.72863 0.884979 0
M  V30 4715 O 454.631 -1.94268 -0.0949487 0
M  V30 4716 C 454.914 -1.30766 3.35518 0
M  V30 4717 C 454.767 -0.263578 4.49027 0
M  V30 4718 C 456.086 -2.23105 3.79358 0
M  V30 4719 H 453.205 -0.243439 0.695634 0
M  V30 4720 H 455.847 0.0633864 1.89894 0
M  V30 4721 H 453.997 -1.93588 3.36832 0
M  V30 4722 H 455.669 0.365738 4.59848 0
M  V30 4723 H 453.912 0.413077 4.31829 0
M  V30 4724 H 454.583 -0.746398 5.4693 0
M  V30 4725 H 457.059 -1.70289 3.79659 0
M  V30 4726 H 455.935 -2.64424 4.81011 0
M  V30 4727 H 456.196 -3.11433 3.13787 0
M  V30 4728 N 455.255 -1.55392 -0.262866 0
M  V30 4729 C 456.504 -1.75679 -0.990943 0
M  V30 4730 C 456.817 -0.57097 -1.87081 0
M  V30 4731 O 458.023 -0.656486 -2.63444 0
M  V30 4732 C 456.479 -3.10964 -1.81188 0
M  V30 4733 C 456.087 -4.37146 -0.980188 0
M  V30 4734 C 457.831 -3.40597 -2.53365 0
M  V30 4735 C 455.738 -5.63466 -1.7961 0
M  V30 4736 H 454.668 -0.654868 -0.373716 0
M  V30 4737 H 457.319 -1.81841 -0.246203 0
M  V30 4738 H 455.701 -2.98867 -2.59797 0
M  V30 4739 H 456.875 -4.60187 -0.237558 0
M  V30 4740 H 455.19 -4.14731 -0.372497 0
M  V30 4741 H 457.787 -4.32186 -3.14833 0
M  V30 4742 H 458.13 -2.6119 -3.24169 0
M  V30 4743 H 458.663 -3.53838 -1.81779 0
M  V30 4744 H 455.402 -6.4565 -1.13209 0
M  V30 4745 H 454.922 -5.44552 -2.51443 0
M  V30 4746 H 456.601 -6.02139 -2.36723 0
M  V30 4747 N 456.733 0.527833 -1.48498 0
M  V30 4748 C 457.961 1.30823 -1.6029 0
M  V30 4749 C 458.376 1.86945 -0.263974 0
M  V30 4750 O 457.733 1.6651 0.747034 0
M  V30 4751 C 457.784 2.45756 -2.65116 0
M  V30 4752 O 457.505 1.91946 -3.93813 0
M  V30 4753 C 459.006 3.37543 -2.87367 0
M  V30 4754 H 456.226 0.397763 -0.540394 0
M  V30 4755 H 458.77 0.636529 -1.94341 0
M  V30 4756 H 456.925 3.08806 -2.33917 0
M  V30 4757 H 457.339 2.67195 -4.51339 0
M  V30 4758 H 458.813 4.14532 -3.6451 0
M  V30 4759 H 459.29 3.92905 -1.9627 0
M  V30 4760 H 459.896 2.80283 -3.19878 0
M  V30 4761 N 458.211 1.37122 0.776871 0
M  V30 4762 C 459.159 1.32549 1.91138 0
M  V30 4763 C 460.153 0.215119 1.68029 0
M  V30 4764 O 461.359 0.382852 1.75881 0
M  V30 4765 H 457.734 0.412952 0.62847 0
M  V30 4766 H 459.705 2.28332 1.92112 0
M  V30 4767 C 458.454 1.14422 3.28333 0
M  V30 4768 H 457.777 1.99115 3.46689 0
M  V30 4769 H 459.217 1.15272 4.0803 0
M  V30 4770 C 457.676 -0.150434 3.36564 0
M  V30 4771 O 458.206 -1.13584 3.85307 0
M  V30 4772 N 456.412 -0.19939 2.89915 0
M  V30 4773 H 455.959 0.603142 2.5044 0
M  V30 4774 H 455.917 -1.06526 2.95803 0
M  V30 4775 N 459.689 -1.00246 1.21608 0
M  V30 4776 C 460.914 -1.78167 1.06167 0
M  V30 4777 C 461.339 -1.84138 -0.384035 0
M  V30 4778 O 460.697 -1.28683 -1.27712 0
M  V30 4779 C 460.745 -3.19786 1.66642 0
M  V30 4780 O 459.849 -4.02153 0.913613 0
M  V30 4781 H 459.19 -0.549 0.37349 0
M  V30 4782 H 461.72 -1.25994 1.61204 0
M  V30 4783 H 461.73 -3.70451 1.70969 0
M  V30 4784 H 460.405 -3.14754 2.7185 0
M  V30 4785 H 458.982 -3.60711 0.945635 0
M  V30 4786 N 461.167 -1.02423 -1.1978 0
M  V30 4787 C 462.1 -0.545641 -2.21581 0
M  V30 4788 C 463.078 0.411024 -1.57319 0
M  V30 4789 O 464.262 0.329223 -1.85603 0
M  V30 4790 C 461.389 0.204973 -3.38079 0
M  V30 4791 C 460.435 -0.70241 -4.20676 0
M  V30 4792 S 461.268 -2.17595 -4.89298 0
M  V30 4793 C 462.424 -1.43572 -6.09211 0
M  V30 4794 H 462.657 -1.4082 -2.61834 0
M  V30 4795 H 460.19 -0.833771 -1.29952 0
M  V30 4796 H 462.148 0.631924 -4.05607 0
M  V30 4797 H 460.809 1.0432 -2.9627 0
M  V30 4798 H 460.002 -0.123193 -5.03849 0
M  V30 4799 H 459.604 -1.06747 -3.58442 0
M  V30 4800 H 461.896 -0.719806 -6.73665 0
M  V30 4801 H 462.839 -2.24388 -6.71607 0
M  V30 4802 H 463.247 -0.935252 -5.56699 0
M  V30 4803 N 462.645 1.35699 -0.801477 0
M  V30 4804 C 463.894 1.98165 -0.375979 0
M  V30 4805 C 464.207 1.64306 1.06127 0
M  V30 4806 O 465.413 2.20097 1.58964 0
M  V30 4807 C 463.869 3.54497 -0.621305 0
M  V30 4808 C 463.477 3.9727 -2.07076 0
M  V30 4809 C 465.221 4.23697 -0.26091 0
M  V30 4810 C 463.128 5.46427 -2.26211 0
M  V30 4811 H 462.058 0.741478 -0.136844 0
M  V30 4812 H 464.709 1.54834 -0.984814 0
M  V30 4813 H 463.091 3.95958 0.0574112 0
M  V30 4814 H 464.265 3.66974 -2.78687 0
M  V30 4815 H 462.58 3.40943 -2.39054 0
M  V30 4816 H 465.177 5.33334 -0.381994 0
M  V30 4817 H 465.52 4.0869 0.792344 0
M  V30 4818 H 466.053 3.87639 -0.893339 0
M  V30 4819 H 462.792 5.66396 -3.29963 0
M  V30 4820 H 462.312 5.78309 -1.59119 0
M  V30 4821 H 463.991 6.12819 -2.07513 0
M  V30 4822 N 464.123 0.554532 1.47522 0
M  V30 4823 C 465.033 -0.197865 2.33764 0
M  V30 4824 C 466.049 -0.914576 1.48025 0
M  V30 4825 O 467.225 -0.884067 1.80959 0
M  V30 4826 C 464.29 -1.21628 3.24665 0
M  V30 4827 C 463.351 -0.507283 4.26292 0
M  V30 4828 C 462.584 -1.47718 5.1285 0
M  V30 4829 O 462.807 -2.7118 5.01814 0
M  V30 4830 O 461.741 -1.00313 5.93482 0
M  V30 4831 H 465.567 0.50949 2.99396 0
M  V30 4832 H 463.152 0.315176 1.46038 0
M  V30 4833 H 465.034 -1.80421 3.80823 0
M  V30 4834 H 463.709 -1.9056 2.61665 0
M  V30 4835 H 462.616 0.121778 3.73902 0
M  V30 4836 H 463.949 0.140544 4.91999 0
M  V30 4837 N 465.601 -1.54893 0.290851 0
M  V30 4838 C 466.511 -2.26812 -0.59945 0
M  V30 4839 C 467.527 -1.29963 -1.15696 0
M  V30 4840 O 468.703 -1.62928 -1.18391 0
M  V30 4841 C 465.768 -2.98716 -1.75982 0
M  V30 4842 C 464.829 -4.1108 -1.2374 0
M  V30 4843 C 464.062 -4.79546 -2.34246 0
M  V30 4844 O 464.285 -4.47309 -3.53936 0
M  V30 4845 O 463.219 -5.67165 -2.01512 0
M  V30 4846 H 467.045 -3.03696 -0.0163561 0
M  V30 4847 H 464.63 -1.49289 0.0576755 0
M  V30 4848 H 466.512 -3.43851 -2.43607 0
M  V30 4849 H 465.187 -2.24737 -2.3297 0
M  V30 4850 H 464.094 -3.70367 -0.527163 0
M  V30 4851 H 465.427 -4.87007 -0.71307 0
M  V30 4852 N 467.08 -0.0183926 -1.57589 0
M  V30 4853 C 468.305 0.676634 -1.96052 0
M  V30 4854 C 468.73 1.6548 -0.894307 0
M  V30 4855 O 468.088 1.80712 0.145849 0
M  V30 4856 C 468.136 1.36872 -3.33614 0
M  V30 4857 O 467.24 2.48372 -3.29219 0
M  V30 4858 H 466.581 0.1786 -0.63953 0
M  V30 4859 H 469.111 -0.077056 -2.04455 0
M  V30 4860 H 469.121 1.72797 -3.69601 0
M  V30 4861 H 467.796 0.651636 -4.10763 0
M  V30 4862 H 466.373 2.14639 -3.04934 0
M  V30 4863 N 468.558 1.5553 0.254621 0
M  V30 4864 C 469.783 1.81383 1.00573 0
M  V30 4865 C 470.208 0.594419 1.78461 0
M  V30 4866 O 469.566 -0.456403 1.75461 0
M  V30 4867 C 469.614 3.04892 1.92545 0
M  V30 4868 O 468.718 2.81266 3.01601 0
M  V30 4869 H 468.059 0.598969 0.286587 0
M  V30 4870 H 470.589 2.02703 0.277952 0
M  V30 4871 H 470.599 3.34119 2.34155 0
M  V30 4872 H 469.274 3.93287 1.3527 0
M  V30 4873 H 467.851 2.63185 2.64174 0
M  V30 4874 N 470.036 -0.519951 1.48776 0
M  V30 4875 C 471.282 -1.27711 1.57536 0
M  V30 4876 C 471.615 -1.92547 0.252866 0
M  V30 4877 O 470.89 -1.7979 -0.742021 0
M  V30 4878 C 471.173 -2.35875 2.72094 0
M  V30 4879 C 471.026 -1.75664 4.1408 0
M  V30 4880 C 472.345 -3.37575 2.82367 0
M  V30 4881 H 469.464 -0.462971 0.573434 0
M  V30 4882 H 472.106 -0.578194 1.80989 0
M  V30 4883 H 470.256 -2.95488 2.52228 0
M  V30 4884 H 471.928 -1.20025 4.45412 0
M  V30 4885 H 470.171 -1.06154 4.20611 0
M  V30 4886 H 470.842 -2.54029 4.90075 0
M  V30 4887 H 473.318 -2.87929 3.00393 0
M  V30 4888 H 472.194 -4.1064 3.64233 0
M  V30 4889 H 472.455 -3.98743 1.90936 0
M  V30 4890 N 471.514 -1.37532 -0.769588 0
M  V30 4891 C 472.477 -1.33292 -1.86456 0
M  V30 4892 C 473.477 -0.236537 -1.59051 0
M  V30 4893 O 474.667 -0.492511 -1.67093 0
M  V30 4894 C 471.799 -1.07118 -3.23633 0
M  V30 4895 H 472.992 -2.30692 -1.91628 0
M  V30 4896 H 470.545 -1.22593 -0.969572 0
M  V30 4897 H 471.28 -0.102578 -3.24138 0
M  V30 4898 H 471.065 -1.86479 -3.44917 0
M  V30 4899 H 472.555 -1.06806 -4.03711 0
M  V30 4900 N 472.992 0.995999 -1.22138 0
M  V30 4901 C 474.269 1.70834 -0.952642 0
M  V30 4902 C 474.649 2.04257 0.533119 0
M  V30 4903 O 473.997 1.72343 1.50034 0
M  V30 4904 C 474.207 2.96119 -1.84701 0
M  V30 4905 C 475.555 3.68962 -2.10124 0
M  V30 4906 O 476.579 3.0612 -1.82124 0
M  V30 4907 O 475.438 4.82017 -2.57531 0
M  V30 4908 H 472.532 0.745498 -0.357997 0
M  V30 4909 H 475.078 1.05262 -1.33109 0
M  V30 4910 H 473.85 2.67898 -2.85213 0
M  V30 4911 H 473.473 3.6943 -1.46995 0
M  V30 4912 N 474.47 1.03057 1.19235 0
M  V30 4913 C 475.718 0.726581 1.88587 0
M  V30 4914 C 476.039 -0.747227 1.80115 0
M  V30 4915 O 475.309 -1.53849 1.21274 0
M  V30 4916 H 473.889 0.265768 0.698124 0
M  V30 4917 H 476.551 1.30516 1.44746 0
M  V30 4918 H 475.647 1.0224 2.94879 0
M  V30 4919 N 475.948 -1.35272 0.808662 0
M  V30 4920 C 477.194 -1.99003 0.390581 0
M  V30 4921 C 477.527 -1.63999 -1.0401 0
M  V30 4922 O 476.802 -0.904368 -1.72196 0
M  V30 4923 C 477.085 -3.55454 0.576566 0
M  V30 4924 C 476.938 -4.00249 2.05233 0
M  V30 4925 C 478.257 -4.401 0.00354277 0
M  V30 4926 H 475.376 -0.722917 0.143388 0
M  V30 4927 H 478.018 -1.6039 1.01858 0
M  V30 4928 H 476.168 -3.88477 0.0419766 0
M  V30 4929 H 477.84 -3.77626 2.64946 0
M  V30 4930 H 476.083 -3.51082 2.54801 0
M  V30 4931 H 476.754 -5.0911 2.13333 0
M  V30 4932 H 479.23 -4.13548 0.460117 0
M  V30 4933 H 478.106 -5.48656 0.163575 0
M  V30 4934 H 478.367 -4.28444 -1.09032 0
M  V30 4935 N 477.426 -0.562348 -1.47226 0
M  V30 4936 C 478.675 -0.038041 -2.01664 0
M  V30 4937 C 478.988 1.32199 -1.44162 0
M  V30 4938 O 480.194 1.9365 -1.90294 0
M  V30 4939 C 478.65 -0.0174958 -3.59896 0
M  V30 4940 C 478.258 -1.3746 -4.2639 0
M  V30 4941 C 480.002 0.453934 -4.22066 0
M  V30 4942 C 477.909 -1.31289 -5.76643 0
M  V30 4943 H 476.839 -0.0104511 -0.753928 0
M  V30 4944 H 479.49 -0.710966 -1.69167 0
M  V30 4945 H 477.872 0.721182 -3.89378 0
M  V30 4946 H 479.046 -2.1314 -4.08544 0
M  V30 4947 H 477.361 -1.78438 -3.7623 0
M  V30 4948 H 479.958 0.518584 -5.32179 0
M  V30 4949 H 480.301 1.46706 -3.89594 0
M  V30 4950 H 480.834 -0.230044 -3.97134 0
M  V30 4951 H 477.573 -2.30217 -6.13743 0
M  V30 4952 H 477.093 -0.597973 -5.96812 0
M  V30 4953 H 478.772 -1.01713 -6.38955 0
M  V30 4954 N 478.904 1.54736 -0.299062 0
M  V30 4955 C 480.15 2.00397 0.311244 0
M  V30 4956 C 480.483 1.18716 1.53688 0
M  V30 4957 O 479.758 0.263154 1.92712 0
M  V30 4958 C 480.041 3.53817 0.669761 0
M  V30 4959 C 479.894 4.46239 -0.564882 0
M  V30 4960 C 481.213 4.13856 1.49702 0
M  V30 4961 H 478.332 0.728493 0.111653 0
M  V30 4962 H 480.974 1.85506 -0.410774 0
M  V30 4963 H 479.124 3.66637 1.28491 0
M  V30 4964 H 480.796 4.45328 -1.20337 0
M  V30 4965 H 479.039 4.16916 -1.19849 0
M  V30 4966 H 479.71 5.5134 -0.269918 0
M  V30 4967 H 482.186 4.04461 0.977284 0
M  V30 4968 H 481.062 5.21365 1.71666 0
M  V30 4969 H 481.323 3.65608 2.48563 0
M  V30 4970 N 480.382 0.0267497 1.57577 0
M  V30 4971 C 481.63 -0.651116 1.91324 0
M  V30 4972 C 481.951 -1.72804 0.90353 0
M  V30 4973 O 481.221 -1.95822 -0.0552946 0
M  V30 4974 H 479.801 -0.243491 0.706202 0
M  V30 4975 H 482.463 0.0739935 1.94759 0
M  V30 4976 H 481.559 -1.10536 2.9187 0
M  V30 4977 N 481.861 -1.55662 -0.24637 0
M  V30 4978 C 483.272 -1.67953 -0.81539 0
M  V30 4979 C 483.623 -0.624302 -1.86002 0
M  V30 4980 O 482.748 0.229328 -2.15181 0
M  V30 4981 C 483.343 -3.04484 -1.48576 0
M  V30 4982 C 481.902 -3.18713 -2.00248 0
M  V30 4983 C 481.049 -2.6383 -0.853766 0
M  V30 4984 H 484 -1.58685 -0.0221692 0
M  V30 4985 H 484.021 -2.98959 -2.3538 0
M  V30 4986 H 483.533 -3.81264 -0.725222 0
M  V30 4987 H 481.634 -2.46757 -2.79181 0
M  V30 4988 H 481.747 -4.25628 -2.1995 0
M  V30 4989 H 480.111 -2.21667 -1.25442 0
M  V30 4990 H 480.894 -3.43135 -0.106302 0
M  V30 4991 N 483.339 0.512053 -1.4905 0
M  V30 4992 C 484.569 1.28928 -1.61434 0
M  V30 4993 C 484.977 1.87107 -0.280647 0
M  V30 4994 O 484.32 1.68024 0.742537 0
M  V30 4995 C 484.382 2.466 -2.61588 0
M  V30 4996 C 484.046 2.09375 -4.06216 0
M  V30 4997 C 485.043 1.63994 -4.93358 0
M  V30 4998 C 482.728 2.19348 -4.51876 0
M  V30 4999 C 484.722 1.29076 -6.24194 0
M  V30 5000 C 482.409 1.84041 -5.82728 0
M  V30 5001 C 483.407 1.38978 -6.68711 0
M  V30 5002 O 483.095 1.04144 -7.97126 0
M  V30 5003 H 482.827 0.397668 -0.546659 0
M  V30 5004 H 485.381 0.622507 -1.9574 0
M  V30 5005 H 483.611 3.16318 -2.22441 0
M  V30 5006 H 485.3 3.08642 -2.63619 0
M  V30 5007 H 486.066 1.55744 -4.59313 0
M  V30 5008 H 481.945 2.53376 -3.85125 0
M  V30 5009 H 485.489 0.938303 -6.91261 0
M  V30 5010 H 481.386 1.91938 -6.16304 0
M  V30 5011 H 482.154 1.17387 -8.10039 0
M  V30 5012 N 484.817 1.37938 0.762283 0
M  V30 5013 C 485.78 1.34279 1.85747 0
M  V30 5014 C 486.78 0.244969 1.58923 0
M  V30 5015 O 487.97 0.501365 1.66829 0
M  V30 5016 C 485.102 1.08833 3.23061 0
M  V30 5017 H 486.295 2.31705 1.90401 0
M  V30 5018 H 483.848 1.23105 0.963057 0
M  V30 5019 H 484.583 0.119767 3.24079 0
M  V30 5020 H 484.368 1.88306 3.43923 0
M  V30 5021 H 485.858 1.08946 4.03138 0
M  V30 5022 N 486.295 -0.989507 1.22664 0
M  V30 5023 C 487.245 -2.06478 0.967005 0
M  V30 5024 C 488.229 -1.60682 -0.0836374 0
M  V30 5025 O 489.421 -1.76541 0.127322 0
M  V30 5026 C 486.55 -3.38861 0.550313 0
M  V30 5027 C 485.636 -3.9128 1.63587 0
M  V30 5028 N 486.027 -4.16884 2.86429 0
M  V30 5029 C 484.325 -4.1972 1.50834 0
M  V30 5030 C 485.026 -4.5954 3.56648 0
M  V30 5031 N 484.002 -4.63434 2.84131 0
M  V30 5032 H 487.804 -2.24219 1.90008 0
M  V30 5033 H 485.318 -1.17153 1.12467 0
M  V30 5034 H 487.315 -4.15465 0.345612 0
M  V30 5035 H 485.975 -3.22518 -0.375822 0
M  V30 5036 H 486.986 -4.04976 3.22823 0
M  V30 5037 H 483.663 -4.1243 0.648643 0
M  V30 5038 H 485.053 -4.87944 4.61909 0
M  V30 5039 N 487.773 -1.03688 -1.18687 0
M  V30 5040 C 489.022 -0.733235 -1.879 0
M  V30 5041 C 489.335 0.741745 -1.8099 0
M  V30 5042 O 490.541 1.15875 -2.4553 0
M  V30 5043 C 488.997 -1.26127 -3.37076 0
M  V30 5044 C 488.605 -2.76461 -3.52524 0
M  V30 5045 C 490.349 -1.03398 -4.11715 0
M  V30 5046 C 488.256 -3.22642 -4.95637 0
M  V30 5047 H 487.186 -0.270584 -0.703776 0
M  V30 5048 H 489.837 -1.25222 -1.34133 0
M  V30 5049 H 488.219 -0.670165 -3.90288 0
M  V30 5050 H 489.393 -3.41296 -3.09602 0
M  V30 5051 H 487.708 -2.97559 -2.91286 0
M  V30 5052 H 490.305 -1.3542 -5.17267 0
M  V30 5053 H 490.648 0.0289246 -4.1629 0
M  V30 5054 H 491.181 -1.5895 -3.64664 0
M  V30 5055 H 487.92 -4.28296 -4.96228 0
M  V30 5056 H 487.44 -2.62539 -5.39289 0
M  V30 5057 H 489.119 -3.16444 -5.64333 0
M  V30 5058 N 489.251 1.34841 -0.815825 0
M  V30 5059 C 490.667 1.51543 -0.500697 0
M  V30 5060 C 490.867 1.76261 0.976444 0
M  V30 5061 O 489.923 1.8094 1.76117 0
M  V30 5062 C 491.236 2.68487 -1.35407 0
M  V30 5063 C 492.784 2.82368 -1.35046 0
M  V30 5064 C 493.259 4.02347 -2.18816 0
M  V30 5065 N 494.75 4.09542 -2.16402 0
M  V30 5066 C 495.485 5.01517 -2.77971 0
M  V30 5067 N 494.981 5.98763 -3.48503 0
M  V30 5068 N 496.774 4.94334 -2.67563 0
M  V30 5069 H 488.925 1.17055 -1.77234 0
M  V30 5070 H 491.188 0.573481 -0.754866 0
M  V30 5071 H 490.894 2.56829 -2.40274 0
M  V30 5072 H 490.768 3.63321 -1.01377 0
M  V30 5073 H 493.155 2.93471 -0.309604 0
M  V30 5074 H 493.236 1.88363 -1.73069 0
M  V30 5075 H 492.88 3.92004 -3.22948 0
M  V30 5076 H 492.81 4.95551 -1.78148 0
M  V30 5077 H 495.301 3.39932 -1.65091 0
M  V30 5078 H 495.614 6.6556 -3.92747 0
M  V30 5079 H 493.959 5.98909 -3.52609 0
M  V30 5080 H 497.15 4.1732 -2.12041 0
M  V30 5081 H 497.323 5.6582 -3.15834 0
M  V30 5082 N 490.729 0.570148 1.46925 0
M  V30 5083 C 492.14 0.1402 1.86173 0
M  V30 5084 C 492.491 -1.29347 1.47526 0
M  V30 5085 O 491.616 -1.97508 0.884292 0
M  V30 5086 C 492.211 0.247661 3.37894 0
M  V30 5087 C 490.77 -0.127332 3.76185 0
M  V30 5088 C 489.917 0.589349 2.70965 0
M  V30 5089 H 492.868 0.779117 1.38259 0
M  V30 5090 H 492.889 -0.530341 3.76786 0
M  V30 5091 H 492.401 1.29121 3.65991 0
M  V30 5092 H 490.502 -1.17149 3.53704 0
M  V30 5093 H 490.615 0.240238 4.78497 0
M  V30 5094 H 488.979 0.0309824 2.54681 0
M  V30 5095 H 489.762 1.6343 3.01903 0
M  V30 5096 N 492.207 -1.54576 0.307264 0
M  V30 5097 C 493.155 -2.25208 -0.581723 0
M  V30 5098 C 494.149 -1.26031 -1.13192 0
M  V30 5099 O 495.355 -1.43862 -1.08184 0
M  V30 5100 H 491.73 -0.723173 -0.206214 0
M  V30 5101 H 493.701 -2.98378 0.0364663 0
M  V30 5102 C 492.45 -3.01086 -1.73904 0
M  V30 5103 H 491.773 -3.77208 -1.32491 0
M  V30 5104 H 493.213 -3.5378 -2.33701 0
M  V30 5105 C 491.672 -2.08422 -2.64692 0
M  V30 5106 O 492.202 -1.65636 -3.65961 0
M  V30 5107 N 490.408 -1.74247 -2.32564 0
M  V30 5108 H 489.955 -2.09238 -1.50257 0
M  V30 5109 H 489.913 -1.12524 -2.93574 0
M  V30 5110 N 493.685 -0.035106 -1.57561 0
M  V30 5111 C 494.91 0.655802 -1.96759 0
M  V30 5112 C 495.335 1.64523 -0.911809 0
M  V30 5113 O 494.693 1.80857 0.126673 0
M  V30 5114 C 494.741 1.33326 -3.35047 0
M  V30 5115 O 493.845 2.44866 -3.31835 0
M  V30 5116 H 493.186 0.171807 -0.641388 0
M  V30 5117 H 495.716 -0.0987369 -2.04362 0
M  V30 5118 H 495.726 1.68867 -3.71413 0
M  V30 5119 H 494.401 0.608033 -4.11431 0
M  V30 5120 H 492.978 2.11392 -3.07193 0
M  V30 5121 N 495.163 1.55791 0.238111 0
M  V30 5122 C 496.388 1.8244 0.986432 0
M  V30 5123 C 496.813 0.613314 1.7782 0
M  V30 5124 O 496.171 -0.437767 1.75935 0
M  V30 5125 C 496.219 3.06917 1.893 0
M  V30 5126 O 495.323 2.84449 2.98601 0
M  V30 5127 H 494.664 0.601975 0.280218 0
M  V30 5128 H 497.194 2.02987 0.256437 0
M  V30 5129 H 497.204 3.36583 2.30598 0
M  V30 5130 H 495.879 3.947 1.31091 0
M  V30 5131 H 494.456 2.65972 2.61368 0
M  V30 5132 N 496.642 -0.504142 1.49319 0
M  V30 5133 C 497.572 -1.61473 1.68667 0
M  V30 5134 C 498.553 -1.61455 0.535378 0
M  V30 5135 O 499.738 -1.78245 0.770868 0
M  V30 5136 C 496.868 -2.99971 1.75028 0
M  V30 5137 C 495.822 -3.14854 2.89916 0
M  V30 5138 C 495.148 -4.54671 2.81387 0
M  V30 5139 C 496.448 -2.95176 4.30893 0
M  V30 5140 H 498.142 -1.45535 2.61648 0
M  V30 5141 H 495.688 -0.698711 1.25913 0
M  V30 5142 H 497.641 -3.77562 1.8715 0
M  V30 5143 H 496.365 -3.1699 0.786441 0
M  V30 5144 H 495.024 -2.39687 2.77391 0
M  V30 5145 H 494.672 -4.68562 1.82917 0
M  V30 5146 H 494.372 -4.6557 3.58494 0
M  V30 5147 H 495.896 -5.34327 2.95512 0
M  V30 5148 H 497.31 -3.62538 4.44116 0
M  V30 5149 H 495.707 -3.17549 5.09198 0
M  V30 5150 H 496.777 -1.91332 4.45556 0
M  V30 5151 N 498.12 -1.38341 -0.754957 0
M  V30 5152 C 499.368 -1.34208 -1.51105 0
M  V30 5153 C 499.689 0.0677634 -1.94882 0
M  V30 5154 O 498.959 1.01517 -1.67544 0
M  V30 5155 H 497.539 -0.493819 -0.560493 0
M  V30 5156 H 500.201 -1.73005 -0.897507 0
M  V30 5157 H 499.297 -1.99203 -2.4026 0
M  V30 5158 N 499.598 0.982988 -1.23187 0
M  V30 5159 C 500.561 2.05649 -1.01198 0
M  V30 5160 C 501.561 1.6078 0.0252464 0
M  V30 5161 O 502.751 1.72878 -0.214243 0
M  V30 5162 C 499.883 3.36744 -0.530656 0
M  V30 5163 H 501.076 2.2659 -1.96461 0
M  V30 5164 H 498.629 1.15602 -1.05195 0
M  V30 5165 H 499.364 3.21492 0.425873 0
M  V30 5166 H 499.149 3.7065 -1.2791 0
M  V30 5167 H 500.639 4.15705 -0.397366 0
M  V30 5168 N 501.076 1.04316 1.18135 0
M  V30 5169 C 502.008 0.594444 2.21357 0
M  V30 5170 C 503.021 -0.337215 1.59269 0
M  V30 5171 O 504.21 -0.131337 1.78016 0
M  V30 5172 C 501.31 -0.151251 3.38562 0
M  V30 5173 C 500.483 0.788907 4.30227 0
M  V30 5174 C 499.542 0.0860572 5.2613 0
M  V30 5175 O 498.568 0.717302 5.64662 0
M  V30 5176 N 499.77 -1.17969 5.68387 0
M  V30 5177 H 502.535 1.48227 2.60478 0
M  V30 5178 H 500.096 0.92396 1.32946 0
M  V30 5179 H 502.088 -0.631352 3.99745 0
M  V30 5180 H 500.658 -0.940639 2.98112 0
M  V30 5181 H 499.878 1.44882 3.6661 0
M  V30 5182 H 501.166 1.42738 4.88368 0
M  V30 5183 H 500.564 -1.71302 5.3914 0
M  V30 5184 H 499.121 -1.60402 6.31755 0
M  V30 5185 N 502.554 -1.34406 0.822964 0
M  V30 5186 C 503.8 -1.98578 0.411666 0
M  V30 5187 C 504.133 -1.65093 -1.02264 0
M  V30 5188 O 503.408 -0.92258 -1.71227 0
M  V30 5189 C 503.691 -3.54823 0.614235 0
M  V30 5190 C 503.544 -3.9805 2.09466 0
M  V30 5191 C 504.863 -4.40071 0.050221 0
M  V30 5192 H 501.982 -0.721355 0.151047 0
M  V30 5193 H 504.624 -1.59301 1.03554 0
M  V30 5194 H 502.774 -3.88411 0.0831774 0
M  V30 5195 H 504.446 -3.74795 2.68936 0
M  V30 5196 H 502.689 -3.4836 2.5851 0
M  V30 5197 H 503.36 -5.06819 2.18721 0
M  V30 5198 H 505.836 -4.13037 0.503953 0
M  V30 5199 H 504.712 -5.48452 0.221759 0
M  V30 5200 H 504.973 -4.29576 -1.04482 0
M  V30 5201 N 504.032 -0.577932 -1.46621 0
M  V30 5202 C 504.982 0.178869 -2.27297 0
M  V30 5203 C 505.966 0.866279 -1.35589 0
M  V30 5204 O 507.158 0.761163 -1.59798 0
M  V30 5205 C 504.287 1.19499 -3.2183 0
M  V30 5206 C 503.373 0.50994 -4.21023 0
M  V30 5207 N 503.764 -0.43177 -5.03954 0
M  V30 5208 C 502.062 0.761287 -4.39455 0
M  V30 5209 C 502.763 -0.831693 -5.75724 0
M  V30 5210 N 501.739 -0.181897 -5.43296 0
M  V30 5211 H 505.541 -0.544859 -2.88805 0
M  V30 5212 H 503.055 -0.399373 -1.57413 0
M  V30 5213 H 505.052 1.75131 -3.78332 0
M  V30 5214 H 503.712 1.91959 -2.61881 0
M  V30 5215 H 504.723 -0.807045 -5.11573 0
M  V30 5216 H 501.4 1.47282 -3.90659 0
M  V30 5217 H 502.79 -1.6067 -6.52407 0
M  V30 5218 N 505.51 1.54411 -0.315457 0
M  V30 5219 C 506.759 1.99599 0.290395 0
M  V30 5220 C 507.072 1.20746 1.53882 0
M  V30 5221 O 508.278 1.56272 2.22017 0
M  V30 5222 C 506.734 3.5539 0.56797 0
M  V30 5223 C 506.342 4.43068 -0.662945 0
M  V30 5224 C 508.086 4.09067 1.13422 0
M  V30 5225 C 505.993 5.90317 -0.357722 0
M  V30 5226 H 504.923 0.745592 0.112286 0
M  V30 5227 H 507.574 1.78477 -0.426418 0
M  V30 5228 H 505.956 3.72468 1.34476 0
M  V30 5229 H 507.13 4.37765 -1.43869 0
M  V30 5230 H 505.445 4.00238 -1.14884 0
M  V30 5231 H 508.042 5.16663 1.37707 0
M  V30 5232 H 508.385 3.60552 2.08106 0
M  V30 5233 H 508.918 3.95589 0.418805 0
M  V30 5234 H 505.657 6.4301 -1.27351 0
M  V30 5235 H 505.177 5.98592 0.380472 0
M  V30 5236 H 506.856 6.4699 0.0354284 0
M  V30 5237 N 506.988 0.0434614 1.5754 0
M  V30 5238 C 508.236 -0.630786 1.92004 0
M  V30 5239 C 508.557 -1.71836 0.921807 0
M  V30 5240 O 507.827 -1.9587 -0.034522 0
M  V30 5241 H 506.407 -0.235988 0.708745 0
M  V30 5242 H 509.069 0.0946462 1.9467 0
M  V30 5243 H 508.165 -1.07434 2.93026 0
M  V30 5244 N 508.466 -1.55915 -0.229846 0
M  V30 5245 C 509.414 -1.9258 -1.30444 0
M  V30 5246 C 510.408 -0.806839 -1.48951 0
M  V30 5247 O 511.614 -0.991606 -1.50224 0
M  V30 5248 H 507.989 -0.611878 -0.437161 0
M  V30 5249 H 509.96 -2.82264 -0.96797 0
M  V30 5250 C 508.709 -2.25171 -2.6494 0
M  V30 5251 H 508.032 -3.10782 -2.51504 0
M  V30 5252 H 509.472 -2.54716 -3.38963 0
M  V30 5253 C 507.931 -1.07394 -3.19324 0
M  V30 5254 O 508.461 -0.330759 -4.00336 0
M  V30 5255 N 506.667 -0.859984 -2.77584 0
M  V30 5256 H 506.214 -1.46605 -2.11813 0
M  V30 5257 H 506.172 -0.0736671 -3.14314 0
M  V30 5258 N 509.944 0.496216 -1.49584 0
M  V30 5259 C 511.191 1.25003 -1.59312 0
M  V30 5260 C 511.519 1.92445 -0.28198 0
M  V30 5261 O 510.774 1.81557 0.730452 0
M  V30 5262 C 511.073 2.3359 -2.705 0
M  V30 5263 C 510.739 1.83574 -4.11839 0
M  V30 5264 C 509.401 1.69653 -4.50302 0
M  V30 5265 C 511.753 1.46193 -5.00277 0
M  V30 5266 C 509.081 1.16736 -5.74969 0
M  V30 5267 C 511.433 0.947265 -6.25468 0
M  V30 5268 C 510.097 0.794485 -6.62755 0
M  V30 5269 H 509.367 0.45742 -0.582965 0
M  V30 5270 H 512.014 0.549996 -1.83432 0
M  V30 5271 H 510.319 3.09401 -2.40371 0
M  V30 5272 H 512.016 2.91627 -2.75235 0
M  V30 5273 H 508.606 1.9537 -3.81482 0
M  V30 5274 H 512.79 1.55793 -4.71214 0
M  V30 5275 H 508.046 1.03623 -6.02555 0
M  V30 5276 H 512.22 0.648846 -6.93371 0
M  V30 5277 H 509.847 0.382271 -7.59238 0
M  V30 5278 N 511.423 1.38739 0.74761 0
M  V30 5279 C 512.669 1.35475 1.50912 0
M  V30 5280 C 513.002 -0.0533093 1.94127 0
M  V30 5281 O 512.277 -1.01572 1.65871 0
M  V30 5282 C 512.56 2.31582 2.75757 0
M  V30 5283 C 512.413 3.81274 2.38642 0
M  V30 5284 C 513.732 2.25722 3.77806 0
M  V30 5285 H 510.851 0.493427 0.547447 0
M  V30 5286 H 513.493 1.69634 0.855823 0
M  V30 5287 H 511.643 2.02582 3.31501 0
M  V30 5288 H 513.315 4.20972 1.88626 0
M  V30 5289 H 511.558 3.98664 1.71025 0
M  V30 5290 H 512.229 4.4399 3.27989 0
M  V30 5291 H 514.705 2.51336 3.31616 0
M  V30 5292 H 513.581 2.95069 4.62845 0
M  V30 5293 H 513.842 1.25803 4.23823 0
M  V30 5294 N 512.901 -0.976442 1.23707 0
M  V30 5295 C 513.811 -2.10359 1.03856 0
M  V30 5296 C 514.827 -1.73991 -0.0180919 0
M  V30 5297 O 516.003 -2.0061 0.178211 0
M  V30 5298 C 513.068 -3.40809 0.636387 0
M  V30 5299 C 512.129 -3.91179 1.76854 0
M  V30 5300 C 511.362 -5.15404 1.38546 0
M  V30 5301 O 511.585 -5.69754 0.27142 0
M  V30 5302 O 510.519 -5.5994 2.20797 0
M  V30 5303 H 514.345 -2.29997 1.98331 0
M  V30 5304 H 511.93 -1.08742 1.02448 0
M  V30 5305 H 513.812 -4.19269 0.423223 0
M  V30 5306 H 512.487 -3.22493 -0.279322 0
M  V30 5307 H 511.394 -3.13819 2.03638 0
M  V30 5308 H 512.727 -4.13958 2.6627 0
M  V30 5309 N 514.379 -1.04941 -1.1758 0
M  V30 5310 C 515.625 -0.759112 -1.88057 0
M  V30 5311 C 515.958 0.711918 -1.8068 0
M  V30 5312 O 515.233 1.52035 -1.21308 0
M  V30 5313 C 515.516 -1.237 -3.38187 0
M  V30 5314 C 515.369 -2.77078 -3.54327 0
M  V30 5315 C 516.688 -0.834014 -4.32125 0
M  V30 5316 H 513.807 -0.277237 -0.682868 0
M  V30 5317 H 516.449 -1.30296 -1.38286 0
M  V30 5318 H 514.599 -0.774337 -3.80705 0
M  V30 5319 H 516.271 -3.31449 -3.20842 0
M  V30 5320 H 514.514 -3.16477 -2.96689 0
M  V30 5321 H 515.185 -3.05577 -4.59703 0
M  V30 5322 H 517.661 -1.23228 -3.97434 0
M  V30 5323 H 516.537 -1.19603 -5.35711 0
M  V30 5324 H 516.798 0.262195 -4.41322 0
M  V30 5325 N 515.857 1.33968 -0.830081 0
M  V30 5326 C 516.804 2.29387 -0.255008 0
M  V30 5327 C 517.774 1.53923 0.624243 0
M  V30 5328 O 518.959 1.82262 0.564372 0
M  V30 5329 C 516.099 3.4034 0.571209 0
M  V30 5330 C 515.212 4.30729 -0.331083 0
M  V30 5331 C 514.347 5.2879 0.505389 0
M  V30 5332 C 513.386 6.10819 -0.395843 0
M  V30 5333 N 512.523 7.00948 0.401979 0
M  V30 5334 H 517.363 2.77972 -1.07404 0
M  V30 5335 H 514.9 1.36785 -0.541133 0
M  V30 5336 H 516.858 4.03361 1.06562 0
M  V30 5337 H 515.488 2.9297 1.35529 0
M  V30 5338 H 514.54 3.68507 -0.943759 0
M  V30 5339 H 515.852 4.88181 -1.02377 0
M  V30 5340 H 515.006 5.97297 1.06399 0
M  V30 5341 H 513.745 4.71894 1.23155 0
M  V30 5342 H 512.75 5.41238 -0.966529 0
M  V30 5343 H 513.975 6.69797 -1.12023 0
M  V30 5344 H 511.921 6.46512 1.11168 0
M  V30 5345 H 511.838 7.55643 -0.232167 0
M  V30 5346 H 513.106 7.73774 0.943102 0
M  V30 5347 N 517.335 0.585699 1.46312 0
M  V30 5348 C 518.583 0.072278 2.01971 0
M  V30 5349 C 518.904 -1.29345 1.45928 0
M  V30 5350 O 518.174 -1.84973 0.645109 0
M  V30 5351 H 516.754 0.023729 0.746623 0
M  V30 5352 H 519.416 0.762155 1.7938 0
M  V30 5353 H 518.512 0.00552767 3.121 0
M  V30 5354 N 518.813 -1.54241 0.323641 0
M  V30 5355 C 520.038 -2.05452 -0.283605 0
M  V30 5356 C 520.463 -1.19823 -1.44997 0
M  V30 5357 O 519.821 -0.207358 -1.8011 0
M  V30 5358 C 519.869 -3.53823 -0.695795 0
M  V30 5359 O 518.973 -3.71134 -1.79815 0
M  V30 5360 H 518.314 -0.662024 -0.0511917 0
M  V30 5361 H 520.844 -1.99079 0.472073 0
M  V30 5362 H 520.854 -3.96094 -0.978434 0
M  V30 5363 H 519.529 -4.15602 0.157287 0
M  V30 5364 H 518.106 -3.40768 -1.51431 0
M  V30 5365 N 520.291 -0.0518155 -1.57515 0
M  V30 5366 C 521.516 0.634896 -1.97443 0
M  V30 5367 C 521.941 1.63546 -0.929207 0
M  V30 5368 O 521.299 1.80981 0.107484 0
M  V30 5369 C 521.347 1.29765 -3.36442 0
M  V30 5370 O 520.451 2.41333 -3.34413 0
M  V30 5371 H 519.792 0.164994 -0.643174 0
M  V30 5372 H 522.322 -0.120407 -2.04245 0
M  V30 5373 H 522.332 1.64918 -3.73184 0
M  V30 5374 H 521.007 0.564361 -4.12053 0
M  V30 5375 H 519.584 2.08122 -3.09418 0
M  V30 5376 N 521.769 1.56035 0.221574 0
M  V30 5377 C 523.018 1.78245 0.944016 0
M  V30 5378 C 523.331 0.620371 1.85501 0
M  V30 5379 O 524.537 0.726103 2.6161 0
M  V30 5380 C 522.993 3.15659 1.7288 0
M  V30 5381 C 522.601 4.39591 0.863942 0
M  V30 5382 C 524.345 3.47195 2.44246 0
M  V30 5383 C 522.252 5.6803 1.64607 0
M  V30 5384 H 521.182 0.664547 0.356222 0
M  V30 5385 H 523.833 1.8243 0.197904 0
M  V30 5386 H 522.215 3.0565 2.51781 0
M  V30 5387 H 523.389 4.60655 0.115464 0
M  V30 5388 H 521.704 4.15572 0.262407 0
M  V30 5389 H 524.301 4.40381 3.03263 0
M  V30 5390 H 524.644 2.69693 3.1713 0
M  V30 5391 H 525.177 3.58533 1.72334 0
M  V30 5392 H 521.916 6.48425 0.960507 0
M  V30 5393 H 521.436 5.51027 2.36917 0
M  V30 5394 H 523.115 6.08203 2.20675 0
M  V30 5395 N 523.247 -0.488276 1.49845 0
M  V30 5396 C 524.495 -1.23911 1.59657 0
M  V30 5397 C 524.816 -1.92816 0.291005 0
M  V30 5398 O 524.086 -1.83328 -0.690485 0
M  V30 5399 H 522.666 -0.460357 0.588286 0
M  V30 5400 H 525.328 -0.564794 1.86537 0
M  V30 5401 H 524.424 -1.99625 2.39909 0
M  V30 5402 N 524.725 -1.39134 -0.740242 0
M  V30 5403 C 525.635 -1.39697 -1.88473 0
M  V30 5404 C 526.651 -0.292403 -1.71526 0
M  V30 5405 O 527.827 -0.533021 -1.94219 0
M  V30 5406 C 524.892 -1.23382 -3.24003 0
M  V30 5407 C 523.953 -2.43763 -3.53381 0
M  V30 5408 C 523.186 -2.28216 -4.82445 0
M  V30 5409 O 523.409 -1.28288 -5.55786 0
M  V30 5410 O 522.343 -3.1709 -5.11603 0
M  V30 5411 H 526.169 -2.36159 -1.90952 0
M  V30 5412 H 523.754 -1.20194 -0.887346 0
M  V30 5413 H 525.636 -1.16395 -4.05006 0
M  V30 5414 H 524.311 -0.300121 -3.22306 0
M  V30 5415 H 523.218 -2.56325 -2.72485 0
M  V30 5416 H 524.551 -3.35808 -3.59852 0
M  V30 5417 N 526.204 0.969867 -1.24223 0
M  V30 5418 C 527.152 2.08535 -1.03034 0
M  V30 5419 C 528.146 1.69366 0.0340379 0
M  V30 5420 O 529.352 1.79597 -0.12034 0
M  V30 5421 H 525.727 0.682313 -0.316154 0
M  V30 5422 H 527.698 2.23569 -1.97635 0
M  V30 5423 C 526.447 3.4158 -0.649509 0
M  V30 5424 H 525.77 3.72177 -1.46028 0
M  V30 5425 H 527.21 4.20536 -0.540841 0
M  V30 5426 C 525.669 3.30703 0.643194 0
M  V30 5427 O 526.199 3.64443 1.68951 0
M  V30 5428 N 524.405 2.83841 0.623095 0
M  V30 5429 H 523.952 2.56583 -0.228719 0
M  V30 5430 H 523.91 2.76946 1.48823 0
M  V30 5431 N 527.682 1.05563 1.17022 0
M  V30 5432 C 528.91 0.78845 1.91288 0
M  V30 5433 C 529.325 -0.656318 1.77025 0
M  V30 5434 O 528.682 -1.44869 1.10992 0
M  V30 5435 C 528.733 1.16444 3.42232 0
M  V30 5436 O 528.454 2.5525 3.5606 0
M  V30 5437 C 529.955 0.923937 4.33565 0
M  V30 5438 H 527.175 0.286389 0.606813 0
M  V30 5439 H 529.719 1.4073 1.48375 0
M  V30 5440 H 527.874 0.590266 3.82877 0
M  V30 5441 H 528.288 2.70097 4.49609 0
M  V30 5442 H 529.762 1.23672 5.37968 0
M  V30 5443 H 530.239 -0.140688 4.38975 0
M  V30 5444 H 530.845 1.48214 3.98639 0
M  V30 5445 N 529.16 -1.33526 0.837174 0
M  V30 5446 C 530.107 -2.29248 0.267169 0
M  V30 5447 C 531.077 -1.54252 -0.616071 0
M  V30 5448 O 532.262 -1.82559 -0.554699 0
M  V30 5449 C 529.402 -3.40638 -0.553152 0
M  V30 5450 C 528.515 -4.30548 0.353921 0
M  V30 5451 C 527.65 -5.29051 -0.477339 0
M  V30 5452 C 526.689 -6.106 0.42823 0
M  V30 5453 N 525.826 -7.01152 -0.364801 0
M  V30 5454 H 530.666 -2.77398 1.08877 0
M  V30 5455 H 528.203 -1.36496 0.54838 0
M  V30 5456 H 530.161 -4.03921 -1.04422 0
M  V30 5457 H 528.791 -2.93685 -1.33973 0
M  V30 5458 H 527.843 -3.68001 0.963289 0
M  V30 5459 H 529.155 -4.87631 1.04964 0
M  V30 5460 H 528.309 -5.97853 -1.0323 0
M  V30 5461 H 527.048 -4.72541 -1.2065 0
M  V30 5462 H 526.053 -5.40718 0.995219 0
M  V30 5463 H 527.278 -6.69193 1.15573 0
M  V30 5464 H 525.224 -6.47092 -1.07738 0
M  V30 5465 H 525.141 -7.5551 0.272238 0
M  V30 5466 H 526.409 -7.74263 -0.902054 0
M  V30 5467 N 530.638 -0.59345 -1.46 0
M  V30 5468 C 531.601 0.123538 -2.28867 0
M  V30 5469 C 532.601 0.808628 -1.38989 0
M  V30 5470 O 533.791 0.658945 -1.61256 0
M  V30 5471 C 530.923 1.1847 -3.19653 0
M  V30 5472 H 532.116 -0.604843 -2.93737 0
M  V30 5473 H 529.669 -0.351875 -1.52288 0
M  V30 5474 H 530.404 1.94431 -2.59552 0
M  V30 5475 H 530.189 0.69783 -3.8584 0
M  V30 5476 H 531.679 1.68726 -3.81997 0
M  V30 5477 N 532.116 1.54067 -0.331816 0
M  V30 5478 C 533.364 2.00319 0.267739 0
M  V30 5479 C 533.685 1.22148 1.52003 0
M  V30 5480 O 532.955 0.325494 1.93177 0
M  V30 5481 H 531.535 0.740014 0.101922 0
M  V30 5482 H 534.197 1.89628 -0.450267 0
M  V30 5483 H 533.293 3.07765 0.518385 0
M  V30 5484 N 533.594 0.0601682 1.57485 0
M  V30 5485 C 534.544 -0.920969 2.08572 0
M  V30 5486 C 535.528 -1.26617 0.992827 0
M  V30 5487 O 536.72 -1.24708 1.25606 0
M  V30 5488 C 533.849 -2.19267 2.64153 0
M  V30 5489 C 532.935 -1.87447 3.80427 0
M  V30 5490 N 533.326 -1.26025 4.89848 0
M  V30 5491 C 531.624 -2.17265 3.89502 0
M  V30 5492 C 532.325 -1.12036 5.70809 0
M  V30 5493 N 531.301 -1.62624 5.18705 0
M  V30 5494 H 535.103 -0.441561 2.90564 0
M  V30 5495 H 532.617 -0.144043 1.6176 0
M  V30 5496 H 534.614 -2.90462 2.99061 0
M  V30 5497 H 533.274 -2.67806 1.83603 0
M  V30 5498 H 534.285 -0.931336 5.09457 0
M  V30 5499 H 530.962 -2.68262 3.19909 0
M  V30 5500 H 532.352 -0.642783 6.68818 0
M  V30 5501 N 535.072 -1.5615 -0.213296 0
M  V30 5502 C 536.002 -1.96109 -1.26742 0
M  V30 5503 C 536.983 -0.830448 -1.48451 0
M  V30 5504 O 538.168 -1.09339 -1.60495 0
M  V30 5505 C 535.298 -2.28492 -2.61551 0
M  V30 5506 C 534.252 -3.44124 -2.54485 0
M  V30 5507 C 533.578 -3.62134 -3.93399 0
M  V30 5508 C 534.878 -4.78855 -2.08556 0
M  V30 5509 H 536.572 -2.84412 -0.935434 0
M  V30 5510 H 534.118 -1.36836 -0.44854 0
M  V30 5511 H 536.071 -2.55039 -3.3546 0
M  V30 5512 H 534.795 -1.37052 -2.96453 0
M  V30 5513 H 533.454 -3.17639 -1.83033 0
M  V30 5514 H 533.102 -2.68055 -4.25623 0
M  V30 5515 H 532.802 -4.39913 -3.89551 0
M  V30 5516 H 534.326 -3.91038 -4.68958 0
M  V30 5517 H 535.74 -5.04552 -2.72213 0
M  V30 5518 H 534.137 -5.59975 -2.1575 0
M  V30 5519 H 535.207 -4.73657 -1.03811 0
M  V30 5520 N 536.55 0.480323 -1.50102 0
M  V30 5521 C 537.778 1.25657 -1.64371 0
M  V30 5522 C 538.193 1.86011 -0.323316 0
M  V30 5523 O 537.55 1.68803 0.693682 0
M  V30 5524 C 537.601 2.37197 -2.728 0
M  V30 5525 O 537.322 1.7932 -3.9972 0
M  V30 5526 C 538.823 3.2823 -2.9796 0
M  V30 5527 H 536.043 0.380369 -0.552775 0
M  V30 5528 H 538.587 0.574379 -1.96268 0
M  V30 5529 H 536.742 3.01208 -2.43623 0
M  V30 5530 H 537.156 2.52701 -4.59611 0
M  V30 5531 H 538.63 4.02725 -3.77513 0
M  V30 5532 H 539.107 3.86462 -2.08671 0
M  V30 5533 H 539.713 2.69964 -3.28633 0
M  V30 5534 N 538.028 1.39524 0.732853 0
M  V30 5535 C 539.258 1.3994 1.51988 0
M  V30 5536 C 539.666 -0.00727973 1.89199 0
M  V30 5537 O 539.009 -0.989521 1.54771 0
M  V30 5538 C 539.071 2.21026 2.83527 0
M  V30 5539 C 538.735 3.69633 2.68738 0
M  V30 5540 C 539.732 4.62665 2.37143 0
M  V30 5541 C 537.417 4.13244 2.85542 0
M  V30 5542 C 539.411 5.97291 2.22536 0
M  V30 5543 C 537.098 5.47945 2.70554 0
M  V30 5544 C 538.096 6.39783 2.39097 0
M  V30 5545 O 537.784 7.72002 2.24204 0
M  V30 5546 H 537.516 0.479795 0.476206 0
M  V30 5547 H 540.07 1.8399 0.913054 0
M  V30 5548 H 538.3 1.71728 3.46477 0
M  V30 5549 H 539.989 2.13594 3.45156 0
M  V30 5550 H 540.755 4.30272 2.2381 0
M  V30 5551 H 536.634 3.42094 3.09019 0
M  V30 5552 H 540.178 6.68939 1.97905 0
M  V30 5553 H 536.075 5.79928 2.83466 0
M  V30 5554 H 536.843 7.8275 2.39258 0
M  V30 5555 N 539.506 -0.963266 1.24736 0
M  V30 5556 C 540.755 -1.70115 1.08369 0
M  V30 5557 C 541.068 -1.91939 -0.376688 0
M  V30 5558 O 542.274 -2.6334 -0.660624 0
M  V30 5559 C 540.73 -3.06218 1.89099 0
M  V30 5560 C 540.338 -2.92221 3.39574 0
M  V30 5561 C 542.082 -3.83848 1.81275 0
M  V30 5562 C 539.989 -4.23662 4.12631 0
M  V30 5563 H 538.919 -0.637944 0.401924 0
M  V30 5564 H 541.57 -1.07304 1.48856 0
M  V30 5565 H 539.952 -3.69884 1.41429 0
M  V30 5566 H 541.126 -2.37541 3.94856 0
M  V30 5567 H 539.441 -2.28054 3.48397 0
M  V30 5568 H 542.038 -4.81188 2.33158 0
M  V30 5569 H 542.381 -4.08949 0.778895 0
M  V30 5570 H 542.914 -3.26918 2.26649 0
M  V30 5571 H 539.653 -4.03753 5.16395 0
M  V30 5572 H 539.173 -4.78141 3.62135 0
M  V30 5573 H 540.852 -4.92256 4.19873 0
M  V30 5574 N 540.985 -1.06182 -1.16461 0
M  V30 5575 C 542.233 -0.776326 -1.86595 0
M  V30 5576 C 542.554 0.69921 -1.82033 0
M  V30 5577 O 541.824 1.50579 -1.2531 0
M  V30 5578 H 540.404 -0.284184 -0.690832 0
M  V30 5579 H 543.066 -1.34308 -1.41235 0
M  V30 5580 H 542.162 -1.10022 -2.92064 0
M  V30 5581 N 542.463 1.3308 -0.844243 0
M  V30 5582 C 543.411 2.31028 -0.269954 0
M  V30 5583 C 544.405 1.58381 0.600997 0
M  V30 5584 O 545.611 1.73203 0.48996 0
M  V30 5585 H 541.986 0.748866 -0.0685782 0
M  V30 5586 H 543.957 2.76967 -1.11049 0
M  V30 5587 C 542.706 3.43549 0.535676 0
M  V30 5588 H 542.029 3.99604 -0.125202 0
M  V30 5589 H 543.469 4.14267 0.903262 0
M  V30 5590 C 541.928 2.8988 1.71672 0
M  V30 5591 O 542.458 2.86511 2.81557 0
M  V30 5592 N 540.664 2.46416 1.54037 0
M  V30 5593 H 540.211 2.49356 0.64649 0
M  V30 5594 H 540.169 2.1086 2.33207 0
M  V30 5595 N 543.941 0.601185 1.45683 0
M  V30 5596 C 545.181 0.0968037 2.04171 0
M  V30 5597 C 545.545 -1.2466 1.46027 0
M  V30 5598 O 546.746 -1.84132 1.95829 0
M  V30 5599 C 545.017 0.051384 3.57363 0
M  V30 5600 S 546.576 -0.392737 4.37039 0
M  V30 5601 H 543.394 0.0464504 0.709481 0
M  V30 5602 H 545.996 0.797846 1.78479 0
M  V30 5603 H 544.7 1.03274 3.97193 0
M  V30 5604 H 544.231 -0.671853 3.87621 0
M  V30 5605 H 546.246 -1.64364 4.68187 0
M  V30 5606 N 545.419 -1.53889 0.339982 0
M  V30 5607 C 546.329 -2.28604 -0.526988 0
M  V30 5608 C 547.345 -1.33578 -1.11503 0
M  V30 5609 O 548.521 -1.66612 -1.13148 0
M  V30 5610 C 545.586 -3.04164 -1.66389 0
M  V30 5611 C 544.647 -4.14809 -1.10599 0
M  V30 5612 C 543.88 -4.86756 -2.18871 0
M  V30 5613 O 544.103 -4.58343 -3.39526 0
M  V30 5614 O 543.037 -5.73289 -1.83366 0
M  V30 5615 H 546.863 -3.03594 0.0802707 0
M  V30 5616 H 544.448 -1.4903 0.105141 0
M  V30 5617 H 546.33 -3.51427 -2.32544 0
M  V30 5618 H 545.005 -2.32035 -2.25703 0
M  V30 5619 H 543.912 -3.71857 -0.409067 0
M  V30 5620 H 545.245 -4.89029 -0.557771 0
M  V30 5621 N 546.897 -0.0685191 -1.57451 0
M  V30 5622 C 548.143 0.602239 -1.93652 0
M  V30 5623 C 548.476 1.6946 -0.948526 0
M  V30 5624 O 547.751 1.94487 0.022782 0
M  V30 5625 C 548.034 1.18223 -3.4014 0
M  V30 5626 C 547.887 0.0967431 -4.49696 0
M  V30 5627 C 549.206 2.08872 -3.87377 0
M  V30 5628 H 546.325 0.217453 -0.70419 0
M  V30 5629 H 548.967 -0.133821 -1.89528 0
M  V30 5630 H 547.117 1.80953 -3.43785 0
M  V30 5631 H 548.789 -0.536155 -4.58174 0
M  V30 5632 H 547.032 -0.573063 -4.29998 0
M  V30 5633 H 547.703 0.542894 -5.49324 0
M  V30 5634 H 550.179 1.56081 -3.85717 0
M  V30 5635 H 549.055 2.46389 -4.90493 0
M  V30 5636 H 549.316 2.99572 -3.25129 0
M  V30 5637 N 548.375 1.56261 0.205012 0
M  V30 5638 C 549.623 1.79684 0.925096 0
M  V30 5639 C 549.944 0.63989 1.84202 0
M  V30 5640 O 549.214 -0.342345 1.92885 0
M  V30 5641 H 547.794 0.662774 0.344587 0
M  V30 5642 H 550.456 1.93734 0.212899 0
M  V30 5643 H 549.552 2.72467 1.52211 0
M  V30 5644 N 549.853 -0.472356 1.50355 0
M  V30 5645 C 551.078 -1.25251 1.65309 0
M  V30 5646 C 551.503 -1.85081 0.335643 0
M  V30 5647 O 550.861 -1.67227 -0.700335 0
M  V30 5648 C 550.909 -2.3379 2.74544 0
M  V30 5649 O 550.013 -3.38401 2.35709 0
M  V30 5650 H 549.354 -0.368539 0.552336 0
M  V30 5651 H 551.884 -0.562271 1.96722 0
M  V30 5652 H 551.894 -2.79121 2.97583 0
M  V30 5653 H 550.569 -1.89614 3.70161 0
M  V30 5654 H 549.146 -2.9879 2.23112 0
M  V30 5655 N 551.331 -1.39911 -0.725443 0
M  V30 5656 C 552.279 -1.39552 -1.86086 0
M  V30 5657 C 553.273 -0.277334 -1.67114 0
M  V30 5658 O 554.479 -0.447865 -1.74339 0
M  V30 5659 H 550.854 -0.435993 -0.612711 0
M  V30 5660 H 552.825 -2.35305 -1.83505 0
M  V30 5661 C 551.574 -1.26529 -3.2386 0
M  V30 5662 H 550.897 -2.11845 -3.3906 0
M  V30 5663 H 552.337 -1.30336 -4.03471 0
M  V30 5664 C 550.796 0.0254168 -3.3689 0
M  V30 5665 O 551.326 0.992048 -3.89257 0
M  V30 5666 N 549.532 0.0916528 -2.90455 0
M  V30 5667 H 549.079 -0.695675 -2.48028 0
M  V30 5668 H 549.037 0.954745 -2.99553 0
M  V30 5669 N 552.809 0.956637 -1.25245 0
M  V30 5670 C 554.055 1.70352 -1.10036 0
M  V30 5671 C 554.388 1.90869 0.358156 0
M  V30 5672 O 553.663 1.47819 1.26411 0
M  V30 5673 C 553.946 3.08766 -1.85298 0
M  V30 5674 C 553.799 2.95672 -3.38966 0
M  V30 5675 C 555.118 4.08622 -1.63451 0
M  V30 5676 H 552.237 0.618279 -0.401123 0
M  V30 5677 H 554.879 1.11212 -1.54051 0
M  V30 5678 H 553.029 3.59252 -1.47887 0
M  V30 5679 H 554.701 2.52527 -3.86041 0
M  V30 5680 H 552.944 2.31634 -3.6678 0
M  V30 5681 H 553.615 3.93776 -3.86839 0
M  V30 5682 H 556.091 3.67038 -1.96015 0
M  V30 5683 H 554.967 5.03514 -2.18551 0
M  V30 5684 H 555.228 4.3834 -0.575357 0
M  V30 5685 N 554.287 1.06798 1.15896 0
M  V30 5686 C 555.235 0.677525 2.22514 0
M  V30 5687 C 556.229 -0.308994 1.66558 0
M  V30 5688 O 557.435 -0.173308 1.79164 0
M  V30 5689 H 553.81 0.200994 0.724642 0
M  V30 5690 H 555.781 1.5865 2.52731 0
M  V30 5691 C 554.53 0.0854153 3.47595 0
M  V30 5692 H 553.853 0.835645 3.90969 0
M  V30 5693 H 555.293 -0.150199 4.23734 0
M  V30 5694 C 553.752 -1.1724 3.15843 0
M  V30 5695 O 554.282 -2.25965 3.32119 0
M  V30 5696 N 552.488 -1.07636 2.69931 0
M  V30 5697 H 552.035 -0.191559 2.56887 0
M  V30 5698 H 551.993 -1.91876 2.4906 0
M  V30 5699 N 555.766 -1.3263 0.851289 0
M  V30 5700 C 557.013 -1.97368 0.453023 0
M  V30 5701 C 557.341 -1.67384 -0.990596 0
M  V30 5702 O 556.596 -0.952665 -1.70947 0
M  V30 5703 C 556.895 -3.51713 0.635015 0
M  V30 5704 C 556.561 -4.01676 2.04859 0
M  V30 5705 C 555.223 -4.15031 2.43522 0
M  V30 5706 C 557.575 -4.28206 2.97135 0
M  V30 5707 C 554.903 -4.52257 3.73739 0
M  V30 5708 C 557.255 -4.66889 4.26846 0
M  V30 5709 C 555.919 -4.7845 4.65448 0
M  V30 5710 H 555.189 -0.722219 0.165773 0
M  V30 5711 H 557.836 -1.58092 1.0807 0
M  V30 5712 H 556.141 -3.91726 -0.0759081 0
M  V30 5713 H 557.838 -3.99823 0.306964 0
M  V30 5714 H 554.428 -3.91764 1.73836 0
M  V30 5715 H 558.612 -4.174 2.68498 0
M  V30 5716 H 553.868 -4.59402 4.03435 0
M  V30 5717 H 558.042 -4.86372 4.98413 0
M  V30 5718 H 555.669 -5.07052 5.66395 0
M  V30 5719 N 557.244 -0.608902 -1.45362 0
M  V30 5720 C 558.492 -0.104401 -2.0183 0
M  V30 5721 C 558.813 1.27007 -1.47967 0
M  V30 5722 O 558.083 1.83924 -0.674455 0
M  V30 5723 H 556.663 -0.0356042 -0.746151 0
M  V30 5724 H 559.325 -0.790596 -1.78145 0
M  V30 5725 H 558.421 -0.0551793 -3.12051 0
M  V30 5726 N 558.722 1.53707 -0.348139 0
M  V30 5727 C 559.685 2.23812 0.494058 0
M  V30 5728 C 560.685 1.23989 1.02388 0
M  V30 5729 O 561.875 1.48395 0.912396 0
M  V30 5730 C 559.007 2.96133 1.68872 0
M  V30 5731 H 560.2 2.99663 -0.119141 0
M  V30 5732 H 557.753 1.55983 -0.0995539 0
M  V30 5733 H 558.488 2.24481 2.34049 0
M  V30 5734 H 558.273 3.69357 1.31596 0
M  V30 5735 H 559.763 3.49475 2.28597 0
M  V30 5736 N 560.2 0.0768682 1.57412 0
M  V30 5737 C 561.448 -0.589918 1.93299 0
M  V30 5738 C 561.769 -1.69842 0.958049 0
M  V30 5739 O 561.039 -1.95899 0.00703261 0
M  V30 5740 H 559.619 -0.220901 0.713591 0
M  V30 5741 H 562.281 0.135917 1.94425 0
M  V30 5742 H 561.377 -1.01195 2.95239 0
M  V30 5743 N 561.678 -1.56367 -0.196722 0
M  V30 5744 C 562.906 -1.84639 -0.933608 0
M  V30 5745 C 563.321 -0.659164 -1.76919 0
M  V30 5746 O 562.678 0.372142 -1.78665 0
M  V30 5747 C 562.729 -3.11694 -1.83109 0
M  V30 5748 O 562.45 -4.25838 -1.02924 0
M  V30 5749 C 563.951 -3.53132 -2.67979 0
M  V30 5750 H 561.171 -0.613188 -0.272473 0
M  V30 5751 H 563.715 -2.03475 -0.204465 0
M  V30 5752 H 561.87 -2.94759 -2.51387 0
M  V30 5753 H 562.284 -4.98178 -1.64069 0
M  V30 5754 H 563.758 -4.45005 -3.26611 0
M  V30 5755 H 564.235 -2.76045 -3.41608 0
M  V30 5756 H 564.841 -3.72592 -2.05074 0
M  V30 5757 N 563.156 0.464375 -1.50603 0
M  V30 5758 C 564.405 1.21277 -1.61167 0
M  V30 5759 C 564.718 1.92953 -0.320704 0
M  V30 5760 O 565.924 2.69778 -0.30534 0
M  V30 5761 C 564.38 2.20403 -2.84518 0
M  V30 5762 C 563.988 1.54499 -4.20516 0
M  V30 5763 C 565.732 2.95843 -3.0443 0
M  V30 5764 C 563.639 2.51951 -5.35047 0
M  V30 5765 H 562.569 0.456367 -0.600204 0
M  V30 5766 H 565.22 0.48254 -1.77042 0
M  V30 5767 H 563.602 2.96746 -2.62217 0
M  V30 5768 H 564.776 0.83899 -4.53098 0
M  V30 5769 H 563.091 0.913152 -4.06264 0
M  V30 5770 H 565.688 3.6879 -3.87167 0
M  V30 5771 H 566.031 3.55622 -2.16423 0
M  V30 5772 H 566.564 2.26611 -3.26944 0
M  V30 5773 H 563.303 1.96901 -6.25228 0
M  V30 5774 H 562.823 3.20683 -5.06875 0
M  V30 5775 H 564.502 3.13643 -5.65895 0
M  V30 5776 N 564.634 1.40294 0.718013 0
M  V30 5777 C 565.862 1.4175 1.50714 0
M  V30 5778 C 566.277 0.0165366 1.88793 0
M  V30 5779 O 565.634 -0.958942 1.55276 0
M  V30 5780 C 565.685 2.30598 2.784 0
M  V30 5781 O 565.406 3.6524 2.41932 0
M  V30 5782 C 566.907 2.4062 3.72313 0
M  V30 5783 H 564.127 0.483565 0.465194 0
M  V30 5784 H 566.671 1.84316 0.885889 0
M  V30 5785 H 564.826 1.91401 3.36815 0
M  V30 5786 H 565.24 4.12402 3.24076 0
M  V30 5787 H 566.714 3.07001 4.58753 0
M  V30 5788 H 567.191 1.4305 4.15251 0
M  V30 5789 H 567.797 2.80359 3.19811 0
M  V30 5790 N 566.112 -0.949982 1.2575 0
M  V30 5791 C 567.358 -1.69766 1.10938 0
M  V30 5792 C 567.691 -1.91056 -0.348028 0
M  V30 5793 O 566.966 -1.48488 -1.25625 0
M  V30 5794 C 567.249 -3.07779 1.86933 0
M  V30 5795 C 567.102 -2.9387 3.4053 0
M  V30 5796 C 568.421 -4.07749 1.65616 0
M  V30 5797 H 565.54 -0.616144 0.404396 0
M  V30 5798 H 568.182 -1.10394 1.54639 0
M  V30 5799 H 566.332 -3.58462 1.4979 0
M  V30 5800 H 568.004 -2.50476 3.87375 0
M  V30 5801 H 566.247 -2.29686 3.68004 0
M  V30 5802 H 566.918 -3.91719 3.88922 0
M  V30 5803 H 569.394 -3.65994 1.97959 0
M  V30 5804 H 568.27 -5.02348 2.21218 0
M  V30 5805 H 568.531 -4.38029 0.598595 0
M  V30 5806 N 567.59 -1.07411 -1.15328 0
M  V30 5807 C 568.538 -0.689316 -2.22151 0
M  V30 5808 C 569.532 0.300156 -1.6672 0
M  V30 5809 O 570.738 0.163804 -1.79253 0
M  V30 5810 H 567.113 -0.204834 -0.723566 0
M  V30 5811 H 569.084 -1.59988 -2.51886 0
M  V30 5812 C 567.833 -0.103848 -3.47545 0
M  V30 5813 H 567.156 -0.856367 -3.90521 0
M  V30 5814 H 568.596 0.127725 -4.23808 0
M  V30 5815 C 567.055 1.15563 -3.1646 0
M  V30 5816 O 567.585 2.242 -3.33312 0
M  V30 5817 N 565.791 1.06203 -2.70498 0
M  V30 5818 H 565.338 0.177933 -2.56985 0
M  V30 5819 H 565.296 1.90553 -2.50074 0
M  V30 5820 N 569.068 1.32177 -0.85831 0
M  V30 5821 C 570.298 2.01021 -0.476889 0
M  V30 5822 C 570.706 1.64653 0.931995 0
M  V30 5823 O 570.049 0.865713 1.62022 0
M  V30 5824 C 570.111 3.55413 -0.540528 0
M  V30 5825 C 569.775 4.1522 -1.90895 0
M  V30 5826 C 570.772 4.3318 -2.87491 0
M  V30 5827 C 568.457 4.51212 -2.20709 0
M  V30 5828 C 570.451 4.86306 -4.1205 0
M  V30 5829 C 568.138 5.04042 -3.45521 0
M  V30 5830 C 569.136 5.21538 -4.41007 0
M  V30 5831 O 568.824 5.73238 -5.63608 0
M  V30 5832 H 568.556 0.650059 -0.18547 0
M  V30 5833 H 571.11 1.69648 -1.15796 0
M  V30 5834 H 569.34 3.86196 0.19741 0
M  V30 5835 H 571.029 4.05526 -0.174191 0
M  V30 5836 H 571.795 4.05704 -2.65762 0
M  V30 5837 H 567.674 4.36878 -1.4717 0
M  V30 5838 H 571.218 4.99877 -4.86589 0
M  V30 5839 H 567.115 5.30952 -3.67098 0
M  V30 5840 H 567.883 5.91625 -5.65617 0
M  V30 5841 N 570.547 0.616602 1.45037 0
M  V30 5842 C 571.824 0.0469086 1.95544 0
M  V30 5843 C 572.204 -1.42345 1.55888 0
M  V30 5844 O 571.552 -2.13055 0.825824 0
M  V30 5845 C 571.762 0.254489 3.48071 0
M  V30 5846 C 573.11 0.140025 4.24369 0
M  V30 5847 O 574.134 0.185084 3.55719 0
M  V30 5848 O 572.993 0.0327034 5.4649 0
M  V30 5849 H 570.087 -0.0306051 0.826433 0
M  V30 5850 H 572.633 0.687293 1.55159 0
M  V30 5851 H 571.405 1.27532 3.69934 0
M  V30 5852 H 571.028 -0.42073 3.95368 0
M  V30 5853 N 572.025 -1.5352 0.356285 0
M  V30 5854 C 573.273 -2.00719 -0.235837 0
M  V30 5855 C 573.594 -1.24551 -1.5004 0
M  V30 5856 O 572.864 -0.356185 -1.92635 0
M  V30 5857 H 571.444 -0.741542 -0.0901366 0
M  V30 5858 H 574.106 -1.88887 0.480378 0
M  V30 5859 H 573.202 -3.08551 -0.469357 0
M  V30 5860 N 573.503 -0.0852151 -1.57369 0
M  V30 5861 C 574.45 0.877268 -2.13478 0
M  V30 5862 C 575.42 1.28642 -1.05073 0
M  V30 5863 O 576.605 1.36992 -1.32808 0
M  V30 5864 C 573.745 2.13464 -2.71159 0
M  V30 5865 C 572.858 1.77691 -3.93764 0
M  V30 5866 C 571.993 2.98139 -4.39643 0
M  V30 5867 C 571.032 2.58447 -5.54862 0
M  V30 5868 N 570.169 3.71698 -5.95639 0
M  V30 5869 H 575.009 0.391933 -2.95411 0
M  V30 5870 H 572.546 0.181796 -1.45972 0
M  V30 5871 H 574.504 2.87086 -3.02717 0
M  V30 5872 H 573.134 2.59514 -1.91969 0
M  V30 5873 H 572.186 0.940768 -3.68583 0
M  V30 5874 H 573.498 1.44497 -4.77412 0
M  V30 5875 H 572.652 3.80026 -4.72933 0
M  V30 5876 H 571.391 3.34536 -3.54876 0
M  V30 5877 H 570.396 1.74984 -5.21211 0
M  V30 5878 H 571.621 2.23205 -6.41371 0
M  V30 5879 H 569.567 4.07831 -5.13819 0
M  V30 5880 H 569.484 3.42317 -6.74059 0
M  V30 5881 H 570.752 4.54123 -6.33555 0
M  V30 5882 N 574.981 1.5647 0.188427 0
M  V30 5883 C 575.929 1.95971 1.25293 0
M  V30 5884 C 576.923 0.846047 1.4676 0
M  V30 5885 O 578.129 1.03109 1.47542 0
M  V30 5886 H 574.504 0.623253 0.420784 0
M  V30 5887 H 576.475 2.84731 0.892792 0
M  V30 5888 C 575.224 2.32116 2.58877 0
M  V30 5889 H 574.547 3.17341 2.43176 0
M  V30 5890 H 575.987 2.63613 3.3209 0
M  V30 5891 C 574.446 1.15823 3.16365 0
M  V30 5892 O 574.976 0.436785 3.99318 0
M  V30 5893 N 573.182 0.933278 2.75206 0
M  V30 5894 H 572.729 1.52169 2.07852 0
M  V30 5895 H 572.687 0.156976 3.14008 0
M  V30 5896 N 576.459 -0.456382 1.50847 0
M  V30 5897 C 577.406 -1.55249 1.70782 0
M  V30 5898 C 578.376 -1.56757 0.549231 0
M  V30 5899 O 579.561 -1.74061 0.7815 0
M  V30 5900 C 576.701 -2.93118 1.82143 0
M  V30 5901 C 575.814 -3.01285 3.09598 0
M  V30 5902 C 574.949 -4.30159 3.11667 0
M  V30 5903 C 573.988 -4.32124 4.33515 0
M  V30 5904 N 573.125 -5.52492 4.3324 0
M  V30 5905 H 577.965 -1.37555 2.64353 0
M  V30 5906 H 575.502 -0.668543 1.3103 0
M  V30 5907 H 577.46 -3.73088 1.86711 0
M  V30 5908 H 576.09 -3.09413 0.919978 0
M  V30 5909 H 575.142 -2.14096 3.14431 0
M  V30 5910 H 576.454 -2.98597 3.99551 0
M  V30 5911 H 575.608 -5.18489 3.15046 0
M  V30 5912 H 574.347 -4.35477 2.1957 0
M  V30 5913 H 573.352 -3.42189 4.30333 0
M  V30 5914 H 574.577 -4.28485 5.26856 0
M  V30 5915 H 572.523 -5.58567 3.44004 0
M  V30 5916 H 572.44 -5.51605 5.16979 0
M  V30 5917 H 573.708 -6.42906 4.40786 0
M  V30 5918 N 577.937 -1.40673 -0.710563 0
M  V30 5919 C 579.167 -1.4234 -1.49742 0
M  V30 5920 C 579.575 -0.022821 -1.89186 0
M  V30 5921 O 578.918 0.964773 -1.56326 0
M  V30 5922 C 578.98 -2.25509 -2.79975 0
M  V30 5923 C 578.644 -3.73862 -2.62824 0
M  V30 5924 C 579.641 -4.66379 -2.29752 0
M  V30 5925 C 577.326 -4.17735 -2.78932 0
M  V30 5926 C 579.32 -6.00756 -2.13006 0
M  V30 5927 C 577.007 -5.5218 -2.61802 0
M  V30 5928 C 578.005 -6.43505 -2.28888 0
M  V30 5929 O 577.693 -7.75472 -2.11894 0
M  V30 5930 H 577.425 -0.487311 -0.468513 0
M  V30 5931 H 579.979 -1.8542 -0.883668 0
M  V30 5932 H 578.209 -1.77218 -3.43701 0
M  V30 5933 H 579.898 -2.19058 -3.41714 0
M  V30 5934 H 580.664 -4.33778 -2.16936 0
M  V30 5935 H 576.543 -3.46967 -3.03537 0
M  V30 5936 H 580.087 -6.72003 -1.87237 0
M  V30 5937 H 575.984 -5.84365 -2.74204 0
M  V30 5938 H 576.752 -7.86458 -2.26775 0
M  V30 5939 N 579.415 0.9433 -1.26252 0
M  V30 5940 C 580.362 2.0417 -1.07625 0
M  V30 5941 C 581.332 1.6609 0.0180738 0
M  V30 5942 O 582.517 1.90276 -0.141289 0
M  V30 5943 C 579.657 3.37653 -0.713043 0
M  V30 5944 C 578.77 3.88783 -1.8834 0
M  V30 5945 C 577.905 5.10642 -1.4635 0
M  V30 5946 C 576.944 5.54028 -2.60229 0
M  V30 5947 N 576.081 6.67092 -2.18936 0
M  V30 5948 H 580.921 2.19436 -2.01623 0
M  V30 5949 H 578.458 1.07519 -1.00389 0
M  V30 5950 H 580.416 4.14391 -0.483358 0
M  V30 5951 H 579.046 3.22241 0.18996 0
M  V30 5952 H 578.098 3.08464 -2.22608 0
M  V30 5953 H 579.41 4.16922 -2.73821 0
M  V30 5954 H 578.564 5.94832 -1.19414 0
M  V30 5955 H 577.303 4.84244 -0.579568 0
M  V30 5956 H 576.308 4.68396 -2.87898 0
M  V30 5957 H 577.533 5.82429 -3.49219 0
M  V30 5958 H 575.479 6.42381 -1.32974 0
M  V30 5959 H 575.396 6.94806 -2.97961 0
M  V30 5960 H 576.664 7.54662 -1.95206 0
M  V30 5961 N 580.893 1.08022 1.14757 0
M  V30 5962 C 582.121 0.828847 1.89572 0
M  V30 5963 C 582.536 -0.618621 1.78377 0
M  V30 5964 O 581.893 -1.42482 1.1404 0
M  V30 5965 C 581.944 1.23677 3.39685 0
M  V30 5966 O 581.665 2.62746 3.50566 0
M  V30 5967 C 583.166 1.01569 4.31507 0
M  V30 5968 H 580.386 0.299196 0.600602 0
M  V30 5969 H 582.93 1.43846 1.45357 0
M  V30 5970 H 581.085 0.671347 3.81539 0
M  V30 5971 H 581.499 2.79573 4.43778 0
M  V30 5972 H 582.973 1.35055 5.35223 0
M  V30 5973 H 583.45 -0.0475433 4.39174 0
M  V30 5974 H 584.056 1.56636 3.95405 0
M  V30 5975 N 582.371 -1.3172 0.865308 0
M  V30 5976 C 583.617 -1.97168 0.474633 0
M  V30 5977 C 583.95 -1.68263 -0.969604 0
M  V30 5978 O 583.225 -0.976588 -1.68205 0
M  V30 5979 C 583.508 -3.52689 0.726808 0
M  V30 5980 C 583.361 -3.91185 2.22024 0
M  V30 5981 C 584.68 -4.39689 0.190201 0
M  V30 5982 H 581.799 -0.716185 0.17392 0
M  V30 5983 H 584.441 -1.55925 1.08569 0
M  V30 5984 H 582.591 -3.8795 0.206705 0
M  V30 5985 H 584.263 -3.66049 2.80724 0
M  V30 5986 H 582.506 -3.3996 2.69462 0
M  V30 5987 H 583.177 -4.99604 2.34735 0
M  V30 5988 H 585.653 -4.11225 0.635103 0
M  V30 5989 H 584.529 -5.47469 0.396132 0
M  V30 5990 H 584.79 -4.32683 -0.907625 0
M  V30 5991 N 583.85 -0.624285 -1.44708 0
M  V30 5992 C 585.099 -0.123539 -2.01321 0
M  V30 5993 C 585.412 1.25966 -1.49639 0
M  V30 5994 O 586.618 1.85405 -1.98336 0
M  V30 5995 C 585.074 -0.170124 -3.59498 0
M  V30 5996 C 584.682 -1.55421 -4.20176 0
M  V30 5997 C 586.426 0.274513 -4.23611 0
M  V30 5998 C 584.332 -1.55628 -5.70556 0
M  V30 5999 H 583.263 -0.0424183 -0.752806 0
M  V30 6000 H 585.913 -0.782076 -1.65999 0
M  V30 6001 H 584.296 0.555385 -3.92086 0
M  V30 6002 H 585.47 -2.30276 -3.99136 0
M  V30 6003 H 583.784 -1.94235 -3.68323 0
M  V30 6004 H 586.382 0.292402 -5.339 0
M  V30 6005 H 586.725 1.3005 -3.95465 0
M  V30 6006 H 587.258 -0.398275 -3.95801 0
M  V30 6007 H 583.997 -2.56041 -6.03426 0
M  V30 6008 H 583.517 -0.850563 -5.93739 0
M  V30 6009 H 585.196 -1.28721 -6.34066 0
M  V30 6010 N 585.328 1.53329 -0.364422 0
M  V30 6011 C 586.576 2.00842 0.225189 0
M  V30 6012 C 586.897 1.25345 1.49378 0
M  V30 6013 O 586.167 0.366396 1.92443 0
M  V30 6014 H 584.747 0.742009 0.0862027 0
M  V30 6015 H 587.409 1.8863 -0.490389 0
M  V30 6016 H 586.505 3.08795 0.452987 0
M  V30 6017 N 586.806 0.0935595 1.57322 0
M  V30 6018 C 587.754 -0.883457 2.15169 0
M  V30 6019 C 588.748 -1.29324 1.09415 0
M  V30 6020 O 589.954 -1.26795 1.27762 0
M  V30 6021 H 586.329 -0.302923 0.688289 0
M  V30 6022 H 588.3 -0.370845 2.96087 0
M  V30 6023 C 587.049 -2.13345 2.74552 0
M  V30 6024 H 586.372 -1.82702 3.55612 0
M  V30 6025 H 587.812 -2.7977 3.18598 0
M  V30 6026 C 586.271 -2.90646 1.70371 0
M  V30 6027 O 586.801 -3.85133 1.14173 0
M  V30 6028 N 585.007 -2.54157 1.40899 0
M  V30 6029 H 584.554 -1.77391 1.86789 0
M  V30 6030 H 584.512 -3.06178 0.714301 0
M  V30 6031 N 588.284 -1.56567 -0.180126 0
M  V30 6032 C 589.232 -1.96632 -1.24251 0
M  V30 6033 C 590.226 -0.853818 -1.46309 0
M  V30 6034 O 591.432 -1.0389 -1.46993 0
M  V30 6035 H 587.807 -0.625476 -0.417473 0
M  V30 6036 H 589.778 -2.85201 -0.877679 0
M  V30 6037 C 588.527 -2.33486 -2.57642 0
M  V30 6038 H 587.85 -3.18626 -2.4149 0
M  V30 6039 H 589.29 -2.65371 -3.30688 0
M  V30 6040 C 587.749 -1.17499 -3.15746 0
M  V30 6041 O 588.279 -0.457956 -3.99081 0
M  V30 6042 N 586.485 -0.94786 -2.74707 0
M  V30 6043 H 586.032 -1.53269 -2.07042 0
M  V30 6044 H 585.99 -0.173626 -3.1392 0
M  V30 6045 N 589.762 0.448376 -1.51087 0
M  V30 6046 C 591.008 1.20049 -1.6345 0
M  V30 6047 C 591.341 1.91121 -0.344444 0
M  V30 6048 O 590.616 1.83125 0.655396 0
M  V30 6049 C 590.899 2.22624 -2.83038 0
M  V30 6050 C 590.752 1.55708 -4.21989 0
M  V30 6051 C 592.071 3.23718 -2.98152 0
M  V30 6052 H 589.19 0.435085 -0.59487 0
M  V30 6053 H 591.832 0.491183 -1.83541 0
M  V30 6054 H 589.982 2.83117 -2.66039 0
M  V30 6055 H 591.654 0.986367 -4.50631 0
M  V30 6056 H 589.897 0.859647 -4.25197 0
M  V30 6057 H 590.568 2.30357 -5.01637 0
M  V30 6058 H 593.044 2.73269 -3.13788 0
M  V30 6059 H 591.92 3.92795 -3.83411 0
M  V30 6060 H 592.181 3.89179 -2.09743 0
M  V30 6061 N 591.24 1.41047 0.703093 0
M  V30 6062 C 592.487 1.4 1.46309 0
M  V30 6063 C 592.815 0.00654574 1.94499 0
M  V30 6064 O 592.07 -0.980255 1.6938 0
M  V30 6065 C 592.369 2.34686 2.6955 0
M  V30 6066 C 592.035 3.81684 2.40058 0
M  V30 6067 C 590.697 4.21731 2.31725 0
M  V30 6068 C 593.049 4.74525 2.15581 0
M  V30 6069 C 590.377 5.52637 1.97001 0
M  V30 6070 C 592.729 6.05744 1.82366 0
M  V30 6071 C 591.393 6.44819 1.72524 0
M  V30 6072 H 590.663 0.512295 0.535382 0
M  V30 6073 H 593.31 1.73792 0.804275 0
M  V30 6074 H 591.615 1.94122 3.40329 0
M  V30 6075 H 593.312 2.31152 3.27673 0
M  V30 6076 H 589.902 3.49963 2.47435 0
M  V30 6077 H 594.086 4.44395 2.20968 0
M  V30 6078 H 589.342 5.81802 1.87928 0
M  V30 6079 H 593.516 6.77189 1.62444 0
M  V30 6080 H 591.143 7.46168 1.45385 0
M  V30 6081 N 592.718 -0.936591 1.26751 0
M  V30 6082 C 593.964 -1.6858 1.12733 0
M  V30 6083 C 594.297 -1.91414 -0.327745 0
M  V30 6084 O 593.572 -1.49812 -1.24043 0
M  V30 6085 C 593.855 -3.05779 1.90187 0
M  V30 6086 C 593.708 -2.90242 3.43627 0
M  V30 6087 C 595.027 -4.0597 1.69931 0
M  V30 6088 H 592.146 -0.61182 0.410908 0
M  V30 6089 H 594.788 -1.08747 1.55801 0
M  V30 6090 H 592.938 -3.56853 1.53584 0
M  V30 6091 H 594.61 -2.46354 3.9001 0
M  V30 6092 H 592.853 -2.2577 3.70419 0
M  V30 6093 H 593.524 -3.87572 3.93055 0
M  V30 6094 H 596 -3.63874 2.0183 0
M  V30 6095 H 594.876 -4.99974 2.26534 0
M  V30 6096 H 595.137 -4.37369 0.64502 0
M  V30 6097 N 594.196 -1.08629 -1.14182 0
M  V30 6098 C 595.444 -0.815731 -1.84906 0
M  V30 6099 C 595.765 0.660441 -1.83475 0
M  V30 6100 O 595.035 1.47888 -1.28476 0
M  V30 6101 H 593.615 -0.298773 -0.684648 0
M  V30 6102 H 596.277 -1.37274 -1.38354 0
M  V30 6103 H 595.373 -1.16193 -2.89665 0
M  V30 6104 N 595.674 1.31259 -0.872281 0
M  V30 6105 C 596.899 2.0133 -0.498099 0
M  V30 6106 C 597.324 1.65031 0.902568 0
M  V30 6107 O 596.682 0.860164 1.59596 0
M  V30 6108 C 596.73 3.54411 -0.665205 0
M  V30 6109 O 595.834 4.11347 0.294473 0
M  V30 6110 H 595.175 0.633844 -0.197832 0
M  V30 6111 H 597.705 1.67402 -1.17633 0
M  V30 6112 H 597.715 4.04147 -0.559373 0
M  V30 6113 H 596.39 3.80171 -1.68651 0
M  V30 6114 H 594.967 3.72624 0.143403 0
M  V30 6115 N 597.152 0.631951 1.44375 0
M  V30 6116 C 598.1 -0.0846693 2.32446 0
M  V30 6117 C 599.094 -0.834957 1.47393 0
M  V30 6118 O 600.3 -0.747764 1.63733 0
M  V30 6119 H 596.675 -0.0461508 0.750583 0
M  V30 6120 H 598.646 0.67619 2.90638 0
M  V30 6121 C 597.395 -1.05211 3.314 0
M  V30 6122 H 596.718 -0.484203 3.96857 0
M  V30 6123 H 598.158 -1.523 3.95703 0
M  V30 6124 C 596.617 -2.13776 2.60387 0
M  V30 6125 O 597.147 -3.21869 2.4034 0
M  V30 6126 N 595.353 -1.89733 2.20113 0
M  V30 6127 H 594.9 -1.01833 2.36618 0
M  V30 6128 H 594.858 -2.62572 1.72926 0
M  V30 6129 N 598.631 -1.53133 0.372548 0
M  V30 6130 C 599.856 -2.0625 -0.218098 0
M  V30 6131 C 600.281 -1.24375 -1.41111 0
M  V30 6132 O 599.639 -0.264554 -1.79359 0
M  V30 6133 C 599.687 -3.55858 -0.582876 0
M  V30 6134 O 598.791 -3.76667 -1.67917 0
M  V30 6135 H 598.132 -0.663317 -0.030104 0
M  V30 6136 H 600.662 -1.97477 0.535169 0
M  V30 6137 H 600.672 -3.99007 -0.851925 0
M  V30 6138 H 599.347 -4.14892 0.289428 0
M  V30 6139 H 597.924 -3.45413 -1.40513 0
M  V30 6140 N 600.109 -0.101901 -1.5727 0
M  V30 6141 C 601.337 0.568392 -1.98939 0
M  V30 6142 C 601.752 1.61301 -0.981194 0
M  V30 6143 O 601.109 1.82478 0.0282869 0
M  V30 6144 C 601.16 1.20997 -3.40649 0
M  V30 6145 O 600.881 0.207129 -4.3761 0
M  V30 6146 C 602.382 1.96523 -3.97358 0
M  V30 6147 H 599.602 0.15186 -0.65359 0
M  V30 6148 H 602.146 -0.183198 -2.03678 0
M  V30 6149 H 600.301 1.91245 -3.36904 0
M  V30 6150 H 600.715 0.671071 -5.20189 0
M  V30 6151 H 602.189 2.36764 -4.98645 0
M  V30 6152 H 602.666 2.83376 -3.35552 0
M  V30 6153 H 603.272 1.31076 -4.04598 0
M  V30 6154 N 601.587 1.56661 0.17182 0
M  V30 6155 C 602.836 1.81158 0.886831 0
M  V30 6156 C 603.149 0.679072 1.83434 0
M  V30 6157 O 604.355 0.808964 2.59168 0
M  V30 6158 C 602.811 3.20999 1.6275 0
M  V30 6159 C 602.419 4.42117 0.723652 0
M  V30 6160 C 604.163 3.5479 2.33076 0
M  V30 6161 C 602.07 5.7298 1.46452 0
M  V30 6162 H 601 0.675543 0.334899 0
M  V30 6163 H 603.651 1.82967 0.139765 0
M  V30 6164 H 602.033 3.13506 2.4193 0
M  V30 6165 H 603.207 4.60789 -0.0311485 0
M  V30 6166 H 601.522 4.16197 0.130063 0
M  V30 6167 H 604.119 4.49806 2.89099 0
M  V30 6168 H 604.462 2.79646 3.08389 0
M  V30 6169 H 604.995 3.63834 1.6084 0
M  V30 6170 H 601.734 6.51152 0.753729 0
M  V30 6171 H 601.254 5.58285 2.19266 0
M  V30 6172 H 602.933 6.14916 2.01214 0
M  V30 6173 N 603.065 -0.440357 1.51323 0
M  V30 6174 C 604.314 -1.18697 1.63076 0
M  V30 6175 C 604.627 -1.92418 0.35136 0
M  V30 6176 O 605.833 -2.69258 0.348221 0
M  V30 6177 C 604.289 -2.15849 2.87988 0
M  V30 6178 C 603.897 -1.47789 4.22921 0
M  V30 6179 C 605.641 -2.90962 3.09098 0
M  V30 6180 C 603.548 -2.43407 5.38987 0
M  V30 6181 H 602.478 -0.44676 0.607389 0
M  V30 6182 H 605.129 -0.454313 1.77787 0
M  V30 6183 H 603.511 -2.92537 2.66905 0
M  V30 6184 H 604.685 -0.7668 4.54375 0
M  V30 6185 H 603 -0.848404 4.07665 0
M  V30 6186 H 605.597 -3.62584 3.92985 0
M  V30 6187 H 605.94 -3.52133 2.22053 0
M  V30 6188 H 606.473 -2.21381 3.30507 0
M  V30 6189 H 603.212 -1.86929 6.28282 0
M  V30 6190 H 602.732 -3.12579 5.11913 0
M  V30 6191 H 604.411 -3.046 5.70813 0
M  V30 6192 N 604.543 -1.41418 -0.695603 0
M  V30 6193 C 605.506 -1.42988 -1.79129 0
M  V30 6194 C 606.506 -0.320514 -1.57573 0
M  V30 6195 O 607.696 -0.58039 -1.64247 0
M  V30 6196 C 604.828 -1.24122 -3.175 0
M  V30 6197 H 606.021 -2.40526 -1.7913 0
M  V30 6198 H 603.574 -1.2756 -0.903225 0
M  V30 6199 H 604.309 -0.274253 -3.23138 0
M  V30 6200 H 604.094 -2.045 -3.34547 0
M  V30 6201 H 605.584 -1.28056 -3.97481 0
M  V30 6202 N 606.021 0.929856 -1.27246 0
M  V30 6203 C 607.432 1.49223 -1.12203 0
M  V30 6204 C 607.783 1.93989 0.293731 0
M  V30 6205 O 606.908 1.80978 1.18642 0
M  V30 6206 C 607.503 2.71198 -2.0307 0
M  V30 6207 C 606.062 3.23666 -1.92139 0
M  V30 6208 C 605.209 1.96409 -1.95752 0
M  V30 6209 H 608.16 0.744181 -1.4017 0
M  V30 6210 H 608.181 3.45905 -1.58524 0
M  V30 6211 H 607.693 2.38585 -3.06102 0
M  V30 6212 H 605.794 3.61042 -0.920834 0
M  V30 6213 H 605.907 3.90006 -2.78267 0
M  V30 6214 H 604.271 2.12806 -1.39949 0
M  V30 6215 H 605.054 1.66113 -3.00436 0
M  V30 6216 N 607.499 1.09233 1.13605 0
M  V30 6217 C 608.745 0.828385 1.8511 0
M  V30 6218 C 609.078 -0.64437 1.83198 0
M  V30 6219 O 608.353 -1.47428 1.26867 0
M  V30 6220 C 608.636 1.36167 3.33363 0
M  V30 6221 C 608.489 2.90038 3.438 0
M  V30 6222 C 609.808 0.993819 4.28732 0
M  V30 6223 H 606.927 0.30239 0.672108 0
M  V30 6224 H 609.569 1.35339 1.33355 0
M  V30 6225 H 607.719 0.9151 3.77569 0
M  V30 6226 H 609.391 3.43128 3.08319 0
M  V30 6227 H 607.634 3.27271 2.84739 0
M  V30 6228 H 608.305 3.22428 4.48045 0
M  V30 6229 H 610.781 1.37893 3.92587 0
M  V30 6230 H 609.657 1.39403 5.30903 0
M  V30 6231 H 609.918 -0.0982206 4.41991 0
M  V30 6232 N 608.977 -1.30795 0.87923 0
M  V30 6233 C 609.887 -2.32041 0.345565 0
M  V30 6234 C 610.903 -1.65103 -0.549265 0
M  V30 6235 O 612.079 -1.9645 -0.443763 0
M  V30 6236 C 609.144 -3.43944 -0.436245 0
M  V30 6237 C 608.205 -4.26521 0.48765 0
M  V30 6238 C 607.438 -5.33081 -0.256943 0
M  V30 6239 O 607.661 -5.50762 -1.48381 0
M  V30 6240 O 606.595 -6.00635 0.389985 0
M  V30 6241 H 610.421 -2.79627 1.18501 0
M  V30 6242 H 608.006 -1.3486 0.642885 0
M  V30 6243 H 609.888 -4.12128 -0.879119 0
M  V30 6244 H 608.563 -2.98504 -1.25208 0
M  V30 6245 H 607.47 -3.61057 0.979216 0
M  V30 6246 H 608.803 -4.75551 1.26933 0
M  V30 6247 N 610.455 -0.639598 -1.44038 0
M  V30 6248 C 611.385 0.0469443 -2.33453 0
M  V30 6249 C 612.366 0.82609 -1.48694 0
M  V30 6250 O 613.551 0.790285 -1.77393 0
M  V30 6251 C 610.681 1.02338 -3.3188 0
M  V30 6252 C 609.635 0.355284 -4.26523 0
M  V30 6253 C 608.961 1.44221 -5.14883 0
M  V30 6254 C 610.261 -0.743798 -5.16977 0
M  V30 6255 H 611.955 -0.699735 -2.91108 0
M  V30 6256 H 609.501 -0.337946 -1.39978 0
M  V30 6257 H 611.454 1.51247 -3.93322 0
M  V30 6258 H 610.178 1.80105 -2.72451 0
M  V30 6259 H 608.837 -0.113239 -3.66425 0
M  V30 6260 H 608.485 2.21097 -4.51802 0
M  V30 6261 H 608.185 1.00052 -5.79019 0
M  V30 6262 H 609.709 1.93295 -5.79197 0
M  V30 6263 H 611.123 -0.337444 -5.72306 0
M  V30 6264 H 609.52 -1.10914 -5.89761 0
M  V30 6265 H 610.59 -1.60745 -4.57481 0
M  V30 6266 N 611.933 1.52934 -0.380664 0
M  V30 6267 C 613.181 2.01069 0.203874 0
M  V30 6268 C 613.502 1.26922 1.4804 0
M  V30 6269 O 612.772 0.386787 1.92044 0
M  V30 6270 H 611.352 0.742882 0.0783279 0
M  V30 6271 H 614.014 1.88099 -0.510368 0
M  V30 6272 H 613.11 3.09258 0.42021 0
M  V30 6273 N 613.412 0.11024 1.57214 0
M  V30 6274 C 614.689 -0.592956 1.86396 0
M  V30 6275 C 615.069 -1.85379 1.00985 0
M  V30 6276 O 614.417 -2.28337 0.0863592 0
M  V30 6277 C 614.627 -0.893816 3.3736 0
M  V30 6278 C 615.975 -1.25069 4.05762 0
M  V30 6279 O 616.999 -0.984356 3.42329 0
M  V30 6280 O 615.858 -1.75017 5.17718 0
M  V30 6281 H 612.952 -0.29828 0.771335 0
M  V30 6282 H 615.498 0.144083 1.69087 0
M  V30 6283 H 614.27 2.6031e-05 3.913 0
M  V30 6284 H 613.893 -1.68631 3.60068 0
M  V30 6285 N 614.89 -1.56749 -0.16351 0
M  V30 6286 C 615.838 -1.97939 -1.22159 0
M  V30 6287 C 616.832 -0.869288 -1.45395 0
M  V30 6288 O 618.038 -1.05443 -1.45883 0
M  V30 6289 H 614.413 -0.629869 -0.410815 0
M  V30 6290 H 616.384 -2.86115 -0.847381 0
M  V30 6291 C 615.133 -2.36206 -2.55151 0
M  V30 6292 H 614.456 -3.2117 -2.38097 0
M  V30 6293 H 615.896 -2.68863 -3.27854 0
M  V30 6294 C 614.355 -1.20841 -3.14482 0
M  V30 6295 O 614.885 -0.500258 -3.98573 0
M  V30 6296 N 613.091 -0.976943 -2.73686 0
M  V30 6297 H 612.638 -1.55457 -2.05404 0
M  V30 6298 H 612.596 -0.206912 -3.13718 0
M  V30 6299 N 616.368 0.432326 -1.51554 0
M  V30 6300 C 617.593 1.20824 -1.68571 0
M  V30 6301 C 618.018 1.84126 -0.384596 0
M  V30 6302 O 617.376 1.69025 0.655751 0
M  V30 6303 C 617.424 2.26429 -2.80646 0
M  V30 6304 O 616.528 3.32032 -2.44598 0
M  V30 6305 H 615.869 0.353765 -0.561913 0
M  V30 6306 H 618.399 0.509916 -1.98144 0
M  V30 6307 H 618.409 2.71133 -3.04878 0
M  V30 6308 H 617.084 1.79733 -3.75058 0
M  V30 6309 H 615.661 2.92769 -2.30956 0
M  V30 6310 N 617.846 1.41785 0.688094 0
M  V30 6311 C 618.776 1.47 1.8142 0
M  V30 6312 C 619.757 0.327881 1.6691 0
M  V30 6313 O 620.942 0.540362 1.86531 0
M  V30 6314 C 618.072 1.35876 3.19617 0
M  V30 6315 C 617.026 2.47976 3.48844 0
M  V30 6316 C 616.352 2.21915 4.86475 0
M  V30 6317 C 617.652 3.90309 3.47068 0
M  V30 6318 H 619.346 2.41247 1.77314 0
M  V30 6319 H 616.892 1.16116 0.851651 0
M  V30 6320 H 618.845 1.38134 3.98117 0
M  V30 6321 H 617.569 0.38116 3.24368 0
M  V30 6322 H 616.228 2.45013 2.72698 0
M  V30 6323 H 615.876 1.2248 4.8786 0
M  V30 6324 H 615.576 2.97037 5.06994 0
M  V30 6325 H 617.1 2.25901 5.67275 0
M  V30 6326 H 618.514 3.94947 4.1556 0
M  V30 6327 H 616.911 4.65175 3.7912 0
M  V30 6328 H 617.981 4.17927 2.45896 0
M  V30 6329 N 619.324 -0.923095 1.27737 0
M  V30 6330 C 620.57 -1.67375 1.14514 0
M  V30 6331 C 620.903 -1.91751 -0.307424 0
M  V30 6332 O 620.178 -1.51119 -1.22447 0
M  V30 6333 C 620.461 -3.03745 1.9342 0
M  V30 6334 C 620.314 -2.86581 3.46686 0
M  V30 6335 C 621.633 -4.04144 1.74228 0
M  V30 6336 H 618.752 -0.607427 0.417374 0
M  V30 6337 H 621.394 -1.07089 1.56946 0
M  V30 6338 H 619.544 -3.55204 1.5736 0
M  V30 6339 H 621.216 -2.42203 3.92601 0
M  V30 6340 H 619.459 -2.21829 3.72793 0
M  V30 6341 H 620.13 -3.83381 3.97143 0
M  V30 6342 H 622.606 -3.61712 2.05678 0
M  V30 6343 H 621.482 -4.97543 2.31824 0
M  V30 6344 H 621.743 -4.36661 0.691373 0
M  V30 6345 N 620.802 -1.09834 -1.13024 0
M  V30 6346 C 622.05 -0.835297 -1.8403 0
M  V30 6347 C 622.371 0.640944 -1.84165 0
M  V30 6348 O 621.641 1.46517 -1.30037 0
M  V30 6349 H 620.221 -0.306018 -0.681441 0
M  V30 6350 H 622.883 -1.38734 -1.36891 0
M  V30 6351 H 621.979 -1.19258 -2.88416 0
M  V30 6352 N 622.28 1.30327 -0.886154 0
M  V30 6353 C 623.243 2.26376 -0.358687 0
M  V30 6354 C 624.243 1.52845 0.499498 0
M  V30 6355 O 625.433 1.71483 0.306485 0
M  V30 6356 C 622.565 3.37379 0.488726 0
M  V30 6357 H 623.758 2.74547 -1.20681 0
M  V30 6358 H 621.311 1.41536 -0.663113 0
M  V30 6359 H 622.046 2.94526 1.35739 0
M  V30 6360 H 621.831 3.91897 -0.126003 0
M  V30 6361 H 623.321 4.08868 0.84952 0
M  V30 6362 N 623.758 0.647228 1.43697 0
M  V30 6363 C 625.006 0.157876 2.01482 0
M  V30 6364 C 625.327 -1.23039 1.51282 0
M  V30 6365 O 624.597 -1.82071 0.722982 0
M  V30 6366 H 623.177 0.0553745 0.744945 0
M  V30 6367 H 625.839 0.83755 1.75986 0
M  V30 6368 H 624.935 0.137895 3.11795 0
M  V30 6369 N 625.236 -1.5273 0.388769 0
M  V30 6370 C 626.461 -2.0647 -0.19621 0
M  V30 6371 C 626.886 -1.25865 -1.39784 0
M  V30 6372 O 626.244 -0.283562 -1.79069 0
M  V30 6373 C 626.292 -3.56456 -0.5451 0
M  V30 6374 O 625.396 -3.78426 -1.63912 0
M  V30 6375 H 624.737 -0.663599 -0.023067 0
M  V30 6376 H 627.267 -1.96898 0.556084 0
M  V30 6377 H 627.277 -3.99888 -0.809557 0
M  V30 6378 H 625.952 -4.14561 0.333417 0
M  V30 6379 H 624.529 -3.46884 -1.36842 0
M  V30 6380 N 626.714 -0.118576 -1.57153 0
M  V30 6381 C 627.942 0.54726 -1.99531 0
M  V30 6382 C 628.357 1.60251 -0.998246 0
M  V30 6383 O 627.714 1.82498 0.00893106 0
M  V30 6384 C 627.765 1.17378 -3.41913 0
M  V30 6385 O 627.486 0.160703 -4.37805 0
M  V30 6386 C 628.987 1.92297 -3.9942 0
M  V30 6387 H 626.207 0.144919 -0.655164 0
M  V30 6388 H 628.751 -0.20479 -2.03472 0
M  V30 6389 H 626.906 1.87661 -3.38913 0
M  V30 6390 H 627.32 0.61586 -5.20872 0
M  V30 6391 H 628.794 2.31462 -5.01128 0
M  V30 6392 H 629.271 2.79801 -3.38538 0
M  V30 6393 H 629.877 1.26777 -4.05965 0
M  V30 6394 N 628.193 1.56834 0.155195 0
M  V30 6395 C 629.442 1.82088 0.867567 0
M  V30 6396 C 629.755 0.69849 1.82703 0
M  V30 6397 O 630.961 0.836407 2.58295 0
M  V30 6398 C 629.417 3.22707 1.59336 0
M  V30 6399 C 629.025 4.42859 0.676719 0
M  V30 6400 C 630.769 3.57242 2.293 0
M  V30 6401 C 628.676 5.74501 1.40367 0
M  V30 6402 H 627.606 0.679057 0.327715 0
M  V30 6403 H 630.257 1.83105 0.120351 0
M  V30 6404 H 628.639 3.16054 2.38591 0
M  V30 6405 H 629.813 4.60731 -0.0800196 0
M  V30 6406 H 628.128 4.16311 0.0859129 0
M  V30 6407 H 630.725 4.52847 2.84312 0
M  V30 6408 H 631.068 2.82901 3.05406 0
M  V30 6409 H 631.601 3.6552 1.56972 0
M  V30 6410 H 628.34 6.51915 0.684623 0
M  V30 6411 H 627.86 5.60579 2.13332 0
M  V30 6412 H 629.539 6.17016 1.94681 0
M  V30 6413 N 629.671 -0.424282 1.51781 0
M  V30 6414 C 630.899 -1.1947 1.68921 0
M  V30 6415 C 631.314 -1.84683 0.39213 0
M  V30 6416 O 630.671 -1.71261 -0.630554 0
M  V30 6417 C 630.722 -2.26909 2.81416 0
M  V30 6418 O 630.443 -1.64361 4.061 0
M  V30 6419 C 631.944 -3.16945 3.09937 0
M  V30 6420 H 629.164 -0.359591 0.566511 0
M  V30 6421 H 631.708 -0.501139 1.98265 0
M  V30 6422 H 629.863 -2.91959 2.54635 0
M  V30 6423 H 630.277 -2.35468 4.68674 0
M  V30 6424 H 631.751 -3.88437 3.922 0
M  V30 6425 H 632.228 -3.78451 2.22871 0
M  V30 6426 H 632.834 -2.57581 3.38426 0
M  V30 6427 N 631.149 -1.42148 -0.680565 0
M  V30 6428 C 632.096 -1.45175 -1.79424 0
M  V30 6429 C 633.066 -0.304352 -1.63288 0
M  V30 6430 O 634.251 -0.507591 -1.83924 0
M  V30 6431 C 631.391 -1.35429 -3.17416 0
M  V30 6432 C 630.504 -2.60158 -3.4488 0
M  V30 6433 C 629.639 -2.42596 -4.72568 0
M  V30 6434 C 628.678 -3.62727 -4.93047 0
M  V30 6435 N 627.815 -3.44143 -6.11973 0
M  V30 6436 H 632.655 -2.40349 -1.76172 0
M  V30 6437 H 630.192 -1.19334 -0.860107 0
M  V30 6438 H 632.15 -1.27777 -3.97151 0
M  V30 6439 H 630.78 -0.438536 -3.19807 0
M  V30 6440 H 629.832 -2.78199 -2.5944 0
M  V30 6441 H 631.144 -3.49473 -3.55908 0
M  V30 6442 H 630.298 -2.32497 -5.60384 0
M  V30 6443 H 629.037 -1.50761 -4.63813 0
M  V30 6444 H 628.042 -3.73264 -4.03676 0
M  V30 6445 H 629.267 -4.55534 -5.03652 0
M  V30 6446 H 627.213 -2.5502 -6.04401 0
M  V30 6447 H 627.13 -4.27041 -6.23836 0
M  V30 6448 H 628.398 -3.37845 -7.02482 0
M  V30 6449 N 632.627 0.916307 -1.28225 0
M  V30 6450 C 633.904 1.64429 -1.05936 0
M  V30 6451 C 634.284 2.07234 0.402139 0
M  V30 6452 O 633.632 1.81535 1.3877 0
M  V30 6453 C 633.842 2.83773 -2.03159 0
M  V30 6454 C 635.19 3.54852 -2.33164 0
M  V30 6455 O 636.214 2.93918 -2.01223 0
M  V30 6456 O 635.073 4.64663 -2.87664 0
M  V30 6457 H 632.167 0.721221 -0.404683 0
M  V30 6458 H 634.713 0.965838 -1.39534 0
M  V30 6459 H 633.485 2.49217 -3.01673 0
M  V30 6460 H 633.108 3.59333 -1.70192 0
M  V30 6461 N 634.105 1.10431 1.1244 0
M  V30 6462 C 635.351 0.847972 1.84221 0
M  V30 6463 C 635.684 -0.624903 1.83871 0
M  V30 6464 O 634.959 -1.46074 1.28423 0
M  V30 6465 C 635.242 1.39695 3.319 0
M  V30 6466 C 635.095 2.93668 3.40704 0
M  V30 6467 C 636.414 1.03924 4.27654 0
M  V30 6468 H 633.533 0.309502 0.668863 0
M  V30 6469 H 636.175 1.36745 1.31912 0
M  V30 6470 H 634.325 0.955095 3.76577 0
M  V30 6471 H 635.997 3.46379 3.04662 0
M  V30 6472 H 634.24 3.30272 2.81252 0
M  V30 6473 H 634.911 3.27162 4.446 0
M  V30 6474 H 637.387 1.42049 3.91102 0
M  V30 6475 H 636.263 1.45027 5.29394 0
M  V30 6476 H 636.524 -0.051336 4.4207 0
M  V30 6477 N 635.583 -1.29855 0.893053 0
M  V30 6478 C 636.994 -1.77946 0.564998 0
M  V30 6479 C 637.345 -1.73339 -0.919134 0
M  V30 6480 O 636.47 -1.3152 -1.71847 0
M  V30 6481 C 637.065 -3.23118 1.01883 0
M  V30 6482 C 635.624 -3.69013 0.742051 0
M  V30 6483 C 634.771 -2.50121 1.19727 0
M  V30 6484 H 637.722 -1.16611 1.07646 0
M  V30 6485 H 637.743 -3.78875 0.351249 0
M  V30 6486 H 637.255 -3.26439 2.09903 0
M  V30 6487 H 635.356 -3.71173 -0.325816 0
M  V30 6488 H 635.469 -4.60117 1.33527 0
M  V30 6489 H 633.833 -2.47128 0.616418 0
M  V30 6490 H 634.616 -2.56174 2.28538 0
M  V30 6491 N 637.061 -0.65484 -1.43351 0
M  V30 6492 C 638.024 0.0263562 -2.29185 0
M  V30 6493 C 639.024 0.748951 -1.42293 0
M  V30 6494 O 640.214 0.589957 -1.63906 0
M  V30 6495 C 637.346 1.04806 -3.2439 0
M  V30 6496 H 638.539 -0.728883 -2.90908 0
M  V30 6497 H 636.092 -0.416149 -1.50658 0
M  V30 6498 H 636.827 1.83247 -2.67565 0
M  V30 6499 H 636.612 0.533554 -3.88453 0
M  V30 6500 H 638.102 1.52372 -3.88809 0
M  V30 6501 N 638.539 1.52521 -0.396863 0
M  V30 6502 C 639.816 1.94112 0.240842 0
M  V30 6503 C 640.196 1.33288 1.637 0
M  V30 6504 O 639.544 0.503901 2.22875 0
M  V30 6505 C 639.754 3.48033 0.259567 0
M  V30 6506 C 641.102 4.21822 0.484866 0
M  V30 6507 O 642.126 3.54579 0.339453 0
M  V30 6508 O 640.985 5.41042 0.770412 0
M  V30 6509 H 638.079 0.812973 0.151671 0
M  V30 6510 H 640.625 1.63572 -0.451918 0
M  V30 6511 H 639.397 3.84655 -0.718078 0
M  V30 6512 H 639.02 3.84899 0.996937 0
M  V30 6513 N 640.017 0.126909 1.57088 0
M  V30 6514 C 640.98 -0.806097 2.14557 0
M  V30 6515 C 641.98 -1.18918 1.08236 0
M  V30 6516 O 643.17 -1.11339 1.33975 0
M  V30 6517 C 640.302 -2.09116 2.69227 0
M  V30 6518 H 641.495 -0.306522 2.98329 0
M  V30 6519 H 639.048 -0.122393 1.5582 0
M  V30 6520 H 639.783 -2.63486 1.89065 0
M  V30 6521 H 639.568 -1.82588 3.46993 0
M  V30 6522 H 641.058 -2.75794 3.13572 0
M  V30 6523 N 641.495 -1.56914 -0.146875 0
M  V30 6524 C 642.744 -1.82546 -0.857898 0
M  V30 6525 C 643.057 -0.708169 -1.8233 0
M  V30 6526 O 644.263 -0.850093 -2.57848 0
M  V30 6527 C 642.719 -3.23548 -1.57623 0
M  V30 6528 C 642.327 -4.43212 -0.653224 0
M  V30 6529 C 644.071 -3.58453 -2.27402 0
M  V30 6530 C 641.978 -5.75237 -1.37318 0
M  V30 6531 H 640.908 -0.680786 -0.32411 0
M  V30 6532 H 643.559 -1.83166 -0.110639 0
M  V30 6533 H 641.941 -3.17315 -2.36912 0
M  V30 6534 H 643.115 -4.60682 0.104452 0
M  V30 6535 H 641.43 -4.16351 -0.0638336 0
M  V30 6536 H 644.027 -4.54349 -2.81907 0
M  V30 6537 H 644.37 -2.84516 -3.03901 0
M  V30 6538 H 644.903 -3.66347 -1.55032 0
M  V30 6539 H 641.642 -6.52269 -0.650041 0
M  V30 6540 H 641.162 -5.61703 -2.10357 0
M  V30 6541 H 642.841 -6.18039 -1.91406 0
M  V30 6542 N 642.974 0.416227 -1.52004 0
M  V30 6543 C 643.937 1.48926 -1.74223 0
M  V30 6544 C 644.937 1.48693 -0.612119 0
M  V30 6545 O 646.127 1.50343 -0.879921 0
M  V30 6546 C 643.259 2.88372 -1.81809 0
M  V30 6547 H 644.452 1.3052 -2.70008 0
M  V30 6548 H 642.005 0.646271 -1.42313 0
M  V30 6549 H 642.74 3.12157 -0.879135 0
M  V30 6550 H 642.525 2.89944 -2.6396 0
M  V30 6551 H 644.015 3.66173 -2.00766 0
M  V30 6552 N 644.452 1.42507 0.673017 0
M  V30 6553 C 645.701 1.42364 1.42883 0
M  V30 6554 C 646.014 0.0441598 1.9555 0
M  V30 6555 O 647.22 -0.0798679 2.71382 0
M  V30 6556 C 645.676 2.5043 2.58482 0
M  V30 6557 C 645.284 3.94392 2.12506 0
M  V30 6558 C 647.028 2.59455 3.35981 0
M  V30 6559 C 644.935 4.93964 3.25198 0
M  V30 6560 H 643.865 0.52951 0.536782 0
M  V30 6561 H 646.516 1.68422 0.728448 0
M  V30 6562 H 644.898 2.1754 3.30896 0
M  V30 6563 H 646.072 4.36645 1.47233 0
M  V30 6564 H 644.387 3.89233 1.4794 0
M  V30 6565 H 646.984 3.31025 4.19912 0
M  V30 6566 H 647.327 1.63869 3.82691 0
M  V30 6567 H 647.86 2.91549 2.70637 0
M  V30 6568 H 644.599 5.91034 2.83477 0
M  V30 6569 H 644.119 4.56341 3.89247 0
M  V30 6570 H 645.798 5.15763 3.90637 0
M  V30 6571 N 645.93 -0.909495 1.28709 0
M  V30 6572 C 647.178 -1.65577 1.15882 0
M  V30 6573 C 647.499 -1.928 -0.292108 0
M  V30 6574 O 646.769 -1.54716 -1.20166 0
M  V30 6575 H 645.349 -0.613714 0.425869 0
M  V30 6576 H 648.011 -1.09108 1.61498 0
M  V30 6577 H 647.107 -2.61634 1.70159 0
M  V30 6578 N 647.408 -1.11026 -1.11852 0
M  V30 6579 C 648.824 -0.843294 -1.35502 0
M  V30 6580 C 649.024 0.534179 -1.9429 0
M  V30 6581 O 648.08 1.28585 -2.17307 0
M  V30 6582 C 649.393 -1.94793 -2.29077 0
M  V30 6583 C 650.941 -1.97709 -2.42652 0
M  V30 6584 C 651.416 -3.07364 -3.39546 0
M  V30 6585 N 652.907 -3.0671 -3.47107 0
M  V30 6586 C 653.642 -3.88197 -4.22008 0
M  V30 6587 N 653.138 -4.79635 -4.99922 0
M  V30 6588 N 654.931 -3.76391 -4.17476 0
M  V30 6589 H 647.082 -1.99805 -0.720538 0
M  V30 6590 H 649.345 -0.868633 -0.379711 0
M  V30 6591 H 649.051 -2.93971 -1.93065 0
M  V30 6592 H 648.925 -1.84039 -3.29256 0
M  V30 6593 H 651.312 -0.991604 -2.77941 0
M  V30 6594 H 651.393 -2.1254 -1.4234 0
M  V30 6595 H 651.037 -4.06136 -3.04985 0
M  V30 6596 H 650.967 -2.89774 -4.39703 0
M  V30 6597 H 653.458 -2.40457 -2.91528 0
M  V30 6598 H 653.771 -5.38357 -5.54429 0
M  V30 6599 H 652.116 -4.8366 -4.99097 0
M  V30 6600 H 655.307 -3.04303 -3.55693 0
M  V30 6601 H 655.48 -4.40131 -4.75593 0
M  V30 6602 N 648.886 1.2938 -0.899927 0
M  V30 6603 C 650.134 1.95164 -0.524924 0
M  V30 6604 C 650.455 1.71292 0.931888 0
M  V30 6605 O 649.725 1.04481 1.65712 0
M  V30 6606 H 648.305 0.722133 -0.191135 0
M  V30 6607 H 650.967 1.57628 -1.14627 0
M  V30 6608 H 650.063 3.0397 -0.707711 0
M  V30 6609 N 650.364 0.662433 1.43002 0
M  V30 6610 C 651.78 0.330835 1.56133 0
M  V30 6611 C 651.98 -1.16454 1.64441 0
M  V30 6612 O 651.036 -1.94964 1.60453 0
M  V30 6613 C 652.349 1.05029 2.81761 0
M  V30 6614 C 653.897 1.03142 2.95518 0
M  V30 6615 C 654.372 1.73196 4.2399 0
M  V30 6616 N 655.863 1.70004 4.30875 0
M  V30 6617 C 656.598 2.21074 5.29069 0
M  V30 6618 N 656.094 2.80473 6.33488 0
M  V30 6619 N 657.887 2.1152 5.20784 0
M  V30 6620 H 650.038 1.63272 1.35853 0
M  V30 6621 H 652.301 0.687149 0.653092 0
M  V30 6622 H 652.007 2.10542 2.81718 0
M  V30 6623 H 651.881 0.607664 3.72273 0
M  V30 6624 H 654.268 -0.0153339 2.95096 0
M  V30 6625 H 654.349 1.51282 2.0627 0
M  V30 6626 H 653.993 2.77833 4.25172 0
M  V30 6627 H 653.923 1.22515 5.1215 0
M  V30 6628 H 656.414 1.26667 3.56039 0
M  V30 6629 H 656.727 3.17094 7.04749 0
M  V30 6630 H 655.072 2.84538 6.34085 0
M  V30 6631 H 658.263 1.64814 4.38126 0
M  V30 6632 H 658.436 2.51629 5.97149 0
M  V30 6633 N 651.842 -1.52309 0.404946 0
M  V30 6634 C 652.774 -2.24579 -0.45791 0
M  V30 6635 C 653.787 -1.2739 -1.01369 0
M  V30 6636 O 654.976 -1.53363 -0.91335 0
M  V30 6637 C 652.076 -2.9608 -1.64893 0
M  V30 6638 C 651.249 -4.20106 -1.21777 0
M  V30 6639 C 650.308 -4.74468 -2.27523 0
M  V30 6640 O 649.334 -5.37157 -1.88285 0
M  V30 6641 N 650.536 -4.55678 -3.59635 0
M  V30 6642 H 653.301 -2.99265 0.161341 0
M  V30 6643 H 650.862 -1.60228 0.232107 0
M  V30 6644 H 652.854 -3.29344 -2.35191 0
M  V30 6645 H 651.424 -2.24606 -2.17419 0
M  V30 6646 H 650.644 -3.92704 -0.343071 0
M  V30 6647 H 651.932 -5.00658 -0.906596 0
M  V30 6648 H 651.33 -4.05673 -3.94266 0
M  V30 6649 H 649.887 -4.9339 -4.25922 0
M  V30 6650 N 653.32 -0.135238 -1.57019 0
M  V30 6651 C 654.569 0.518694 -1.94917 0
M  V30 6652 C 654.882 1.66783 -1.0219 0
M  V30 6653 O 656.088 2.38561 -1.29619 0
M  V30 6654 C 654.544 0.974123 -3.46466 0
M  V30 6655 C 654.152 -0.147439 -4.47757 0
M  V30 6656 C 655.896 1.59851 -3.93253 0
M  V30 6657 C 653.803 0.325599 -5.90503 0
M  V30 6658 H 652.733 0.19754 -0.727663 0
M  V30 6659 H 655.384 -0.217698 -1.82204 0
M  V30 6660 H 653.766 1.76542 -3.5447 0
M  V30 6661 H 654.94 -0.924122 -4.51438 0
M  V30 6662 H 653.255 -0.679496 -4.10818 0
M  V30 6663 H 655.852 1.96385 -4.9733 0
M  V30 6664 H 656.195 2.48306 -3.3414 0
M  V30 6665 H 656.728 0.872323 -3.88118 0
M  V30 6666 H 653.467 -0.523295 -6.53408 0
M  V30 6667 H 652.987 1.06841 -5.90208 0
M  V30 6668 H 654.666 0.781498 -6.42263 0
M  V30 6669 N 654.798 1.5699 0.138552 0
M  V30 6670 C 655.746 1.99858 1.18994 0
M  V30 6671 C 656.74 0.89231 1.43994 0
M  V30 6672 O 657.946 1.0775 1.44187 0
M  V30 6673 H 654.321 0.636325 0.400743 0
M  V30 6674 H 656.292 2.87427 0.801755 0
M  V30 6675 C 655.041 2.40235 2.51361 0
M  V30 6676 H 654.364 3.24917 2.32957 0
M  V30 6677 H 655.804 2.74045 3.23535 0
M  V30 6678 C 654.263 1.25829 3.1252 0
M  V30 6679 O 654.793 0.563604 3.97727 0
M  V30 6680 N 652.999 1.02036 2.72097 0
M  V30 6681 H 652.546 1.58705 2.02905 0
M  V30 6682 H 652.504 0.256796 3.1335 0
M  V30 6683 N 656.276 -0.40816 1.52223 0
M  V30 6684 C 657.223 -1.49737 1.75635 0
M  V30 6685 C 658.193 -1.5493 0.598824 0
M  V30 6686 O 659.378 -1.71487 0.83648 0
M  V30 6687 C 656.518 -2.87174 1.91376 0
M  V30 6688 C 655.631 -2.91283 3.19027 0
M  V30 6689 C 654.766 -4.20026 3.25195 0
M  V30 6690 C 653.805 -4.18113 4.47044 0
M  V30 6691 N 652.942 -5.38429 4.50598 0
M  V30 6692 H 657.782 -1.29075 2.68596 0
M  V30 6693 H 655.319 -0.626518 1.33091 0
M  V30 6694 H 657.277 -3.66959 1.98486 0
M  V30 6695 H 655.907 -3.06329 1.01795 0
M  V30 6696 H 654.959 -2.03984 3.21084 0
M  V30 6697 H 656.271 -2.85734 4.08849 0
M  V30 6698 H 655.425 -5.08204 3.31382 0
M  V30 6699 H 654.164 -4.28271 2.33313 0
M  V30 6700 H 653.169 -3.28325 4.41002 0
M  V30 6701 H 654.394 -4.11507 5.40221 0
M  V30 6702 H 652.34 -5.4734 3.616 0
M  V30 6703 H 652.257 -5.34879 5.34266 0
M  V30 6704 H 653.525 -6.28557 4.61016 0
M  V30 6705 N 657.755 -1.42862 -0.66545 0
M  V30 6706 C 659.032 -1.3431 -1.42197 0
M  V30 6707 C 659.412 0.0150265 -2.11095 0
M  V30 6708 O 658.76 1.03101 -2.03918 0
M  V30 6709 C 658.97 -2.51783 -2.41674 0
M  V30 6710 C 660.318 -2.94321 -3.0604 0
M  V30 6711 O 661.342 -2.51741 -2.52001 0
M  V30 6712 O 660.201 -3.68047 -4.03985 0
M  V30 6713 H 657.295 -0.530159 -0.634713 0
M  V30 6714 H 659.841 -1.54888 -0.693386 0
M  V30 6715 H 658.613 -3.42282 -1.89627 0
M  V30 6716 H 658.236 -2.33241 -3.22001 0
M  V30 6717 N 659.233 0.902656 -1.29189 0
M  V30 6718 C 660.143 2.03946 -1.15944 0
M  V30 6719 C 661.159 1.738 -0.0833803 0
M  V30 6720 O 662.335 1.9923 -0.29487 0
M  V30 6721 C 659.4 3.36519 -0.834006 0
M  V30 6722 C 658.461 3.80203 -1.9936 0
M  V30 6723 C 657.694 5.06449 -1.68359 0
M  V30 6724 O 657.917 5.67202 -0.603141 0
M  V30 6725 O 656.851 5.46114 -2.53067 0
M  V30 6726 H 660.677 2.18043 -2.11403 0
M  V30 6727 H 658.262 1.02584 -1.08613 0
M  V30 6728 H 660.144 4.16089 -0.666949 0
M  V30 6729 H 658.819 3.23573 0.0908245 0
M  V30 6730 H 657.726 3.01413 -2.21588 0
M  V30 6731 H 659.059 3.97729 -2.89952 0
M  V30 6732 N 660.711 1.11618 1.11262 0
M  V30 6733 C 661.941 0.88745 1.86569 0
M  V30 6734 C 662.349 -0.56636 1.80524 0
M  V30 6735 O 661.692 -1.40289 1.18594 0
M  V30 6736 C 661.754 1.27313 3.36202 0
M  V30 6737 C 661.418 2.73649 3.66013 0
M  V30 6738 C 662.415 3.71863 3.63337 0
M  V30 6739 C 660.1 3.10342 3.9496 0
M  V30 6740 C 662.094 5.04788 3.89188 0
M  V30 6741 C 659.781 4.43451 4.20469 0
M  V30 6742 C 660.779 5.40484 4.17572 0
M  V30 6743 O 660.467 6.71195 4.42439 0
M  V30 6744 H 660.199 0.317543 0.596777 0
M  V30 6745 H 662.753 1.48768 1.41624 0
M  V30 6746 H 660.983 0.616062 3.81761 0
M  V30 6747 H 662.672 1.01991 3.92877 0
M  V30 6748 H 663.438 3.44861 3.41022 0
M  V30 6749 H 659.317 2.35431 3.9635 0
M  V30 6750 H 662.861 5.80516 3.86842 0
M  V30 6751 H 658.758 4.70187 4.42261 0
M  V30 6752 H 659.526 6.77012 4.59997 0
M  V30 6753 N 662.189 -1.289 0.906776 0
M  V30 6754 C 663.152 -2.25777 0.394656 0
M  V30 6755 C 664.152 -1.53621 -0.475119 0
M  V30 6756 O 665.342 -1.71949 -0.279165 0
M  V30 6757 C 662.474 -3.38113 -0.43499 0
M  V30 6758 H 663.667 -2.72592 1.25033 0
M  V30 6759 H 661.22 -1.40463 0.685547 0
M  V30 6760 H 661.955 -2.96648 -1.31036 0
M  V30 6761 H 661.74 -3.91647 0.188334 0
M  V30 6762 H 663.23 -4.10168 -0.784365 0
M  V30 6763 N 663.667 -0.670007 -1.42649 0
M  V30 6764 C 664.895 -0.19854 -2.05945 0
M  V30 6765 C 665.31 1.14243 -1.50313 0
M  V30 6766 O 664.667 1.70872 -0.641027 0
M  V30 6767 C 664.718 -0.11966 -3.61302 0
M  V30 6768 O 664.439 -1.40764 -4.1487 0
M  V30 6769 C 665.94 0.375878 -4.41704 0
M  V30 6770 H 663.16 -0.0976894 -0.663851 0
M  V30 6771 H 665.704 -0.915392 -1.82868 0
M  V30 6772 H 663.859 0.547851 -3.83507 0
M  V30 6773 H 664.273 -1.27784 -5.08696 0
M  V30 6774 H 665.747 0.379988 -5.50691 0
M  V30 6775 H 666.224 1.41028 -4.15942 0
M  V30 6776 H 666.83 -0.259727 -4.24506 0
M  V30 6777 N 665.145 1.52092 -0.413018 0
M  V30 6778 C 666.561 1.59471 -0.0640836 0
M  V30 6779 C 666.761 1.42562 1.42402 0
M  V30 6780 O 665.817 1.25453 2.19129 0
M  V30 6781 C 667.13 2.95392 -0.562474 0
M  V30 6782 C 668.678 3.08637 -0.520788 0
M  V30 6783 C 669.153 4.47044 -0.995752 0
M  V30 6784 N 670.644 4.53296 -0.952732 0
M  V30 6785 C 671.379 5.58669 -1.29138 0
M  V30 6786 N 670.875 6.71576 -1.70168 0
M  V30 6787 N 672.668 5.48898 -1.2111 0
M  V30 6788 H 664.819 1.6133 -1.38153 0
M  V30 6789 H 667.082 0.75916 -0.567785 0
M  V30 6790 H 666.788 3.13059 -1.60271 0
M  V30 6791 H 666.662 3.77191 0.0257875 0
M  V30 6792 H 669.049 2.90652 0.510412 0
M  V30 6793 H 669.13 2.28735 -1.14515 0
M  V30 6794 H 668.774 4.65773 -2.0253 0
M  V30 6795 H 668.704 5.25448 -0.348162 0
M  V30 6796 H 671.195 3.72248 -0.651119 0
M  V30 6797 H 671.508 7.47973 -1.9431 0
M  V30 6798 H 669.853 6.72847 -1.74075 0
M  V30 6799 H 673.044 4.59573 -0.889396 0
M  V30 6800 H 673.217 6.30912 -1.47833 0
M  V30 6801 N 666.623 0.143563 1.56945 0
M  V30 6802 C 667.553 -0.7936 2.196 0
M  V30 6803 C 668.534 -1.25955 1.14321 0
M  V30 6804 O 669.719 -1.31773 1.42651 0
M  V30 6805 C 666.849 -2.03424 2.81489 0
M  V30 6806 C 665.803 -1.70519 3.92565 0
M  V30 6807 C 665.129 -3.01817 4.41373 0
M  V30 6808 C 666.429 -0.95449 5.13504 0
M  V30 6809 H 668.123 -0.271423 2.98167 0
M  V30 6810 H 665.669 -0.12911 1.4342 0
M  V30 6811 H 667.622 -2.69463 3.23987 0
M  V30 6812 H 666.346 -2.58008 2.00248 0
M  V30 6813 H 665.005 -1.06859 3.5068 0
M  V30 6814 H 664.653 -3.54386 3.56959 0
M  V30 6815 H 664.353 -2.80565 5.16292 0
M  V30 6816 H 665.877 -3.68934 4.86539 0
M  V30 6817 H 667.291 -1.5169 5.52868 0
M  V30 6818 H 665.688 -0.842035 5.94163 0
M  V30 6819 H 666.758 0.0544033 4.84869 0
M  V30 6820 N 668.101 -1.57061 -0.130224 0
M  V30 6821 C 669.512 -1.73539 -0.68856 0
M  V30 6822 C 669.863 -0.760554 -1.80859 0
M  V30 6823 O 668.988 0.0690796 -2.1629 0
M  V30 6824 C 669.583 -3.14666 -1.25581 0
M  V30 6825 C 668.142 -3.32689 -1.76055 0
M  V30 6826 C 667.289 -2.69436 -0.655712 0
M  V30 6827 H 670.24 -1.58412 0.0956002 0
M  V30 6828 H 670.261 -3.15595 -2.12556 0
M  V30 6829 H 669.773 -3.85593 -0.440412 0
M  V30 6830 H 667.874 -2.66786 -2.60108 0
M  V30 6831 H 667.987 -4.4077 -1.87772 0
M  V30 6832 H 666.351 -2.30362 -1.08654 0
M  V30 6833 H 667.134 -3.42979 0.14852 0
M  V30 6834 N 669.579 0.400081 -1.52437 0
M  V30 6835 C 670.529 1.48734 -1.72807 0
M  V30 6836 C 671.513 1.50004 -0.582032 0
M  V30 6837 O 672.705 1.55828 -0.839449 0
M  V30 6838 C 669.834 2.86568 -1.89034 0
M  V30 6839 C 668.92 2.8991 -3.09537 0
M  V30 6840 N 669.311 2.62937 -4.32086 0
M  V30 6841 C 667.609 3.21078 -3.09556 0
M  V30 6842 C 668.31 2.73079 -5.13617 0
M  V30 6843 N 667.286 3.06342 -4.49061 0
M  V30 6844 H 671.088 1.26689 -2.65193 0
M  V30 6845 H 668.602 0.607902 -1.50593 0
M  V30 6846 H 670.599 3.64834 -2.01746 0
M  V30 6847 H 669.259 3.09604 -0.978547 0
M  V30 6848 H 670.27 2.37163 -4.60406 0
M  V30 6849 H 666.947 3.49651 -2.28146 0
M  V30 6850 H 668.337 2.55863 -6.21276 0
M  V30 6851 N 671.057 1.43213 0.657864 0
M  V30 6852 C 672.007 1.44459 1.76396 0
M  V30 6853 C 672.991 0.313641 1.57814 0
M  V30 6854 O 674.183 0.557094 1.68004 0
M  V30 6855 C 671.312 1.36586 3.14959 0
M  V30 6856 C 670.398 2.54692 3.39106 0
M  V30 6857 N 670.789 3.80059 3.33749 0
M  V30 6858 C 669.087 2.49316 3.69807 0
M  V30 6859 C 669.788 4.58606 3.57849 0
M  V30 6860 N 668.764 3.89267 3.79437 0
M  V30 6861 H 672.566 2.39265 1.70673 0
M  V30 6862 H 670.08 1.378 0.859357 0
M  V30 6863 H 672.077 1.35561 3.94245 0
M  V30 6864 H 670.737 0.427956 3.21867 0
M  V30 6865 H 671.748 4.12414 3.13266 0
M  V30 6866 H 668.425 1.6419 3.83859 0
M  V30 6867 H 669.815 5.67619 3.59525 0
M  V30 6868 N 672.536 -0.895792 1.29666 0
M  V30 6869 C 673.947 -1.46195 1.1612 0
M  V30 6870 C 674.298 -1.94699 -0.242195 0
M  V30 6871 O 673.423 -1.8406 -1.13802 0
M  V30 6872 C 674.018 -2.65718 2.10189 0
M  V30 6873 C 672.577 -3.18458 2.00653 0
M  V30 6874 C 671.724 -1.91149 2.00891 0
M  V30 6875 H 674.675 -0.706756 1.42094 0
M  V30 6876 H 674.696 -3.4158 1.6764 0
M  V30 6877 H 674.208 -2.30386 3.12321 0
M  V30 6878 H 672.309 -3.58474 1.01623 0
M  V30 6879 H 672.422 -3.82491 2.88509 0
M  V30 6880 H 670.786 -2.09021 1.45542 0
M  V30 6881 H 671.569 -1.58089 3.04734 0
M  V30 6882 N 674.014 -1.12206 -1.10668 0
M  V30 6883 C 674.961 -0.787716 -2.16942 0
M  V30 6884 C 675.931 0.244442 -1.64291 0
M  V30 6885 O 677.116 0.119558 -1.90425 0
M  V30 6886 C 674.256 -0.24584 -3.44223 0
M  V30 6887 C 673.369 -1.33552 -4.10838 0
M  V30 6888 C 672.504 -0.753337 -5.25831 0
M  V30 6889 C 671.543 -1.82231 -5.84344 0
M  V30 6890 N 670.68 -1.25902 -6.90719 0
M  V30 6891 H 675.52 -1.69809 -2.44885 0
M  V30 6892 H 673.057 -0.847862 -1.20207 0
M  V30 6893 H 675.015 0.0863639 -4.17111 0
M  V30 6894 H 673.645 0.627702 -3.16638 0
M  V30 6895 H 672.697 -1.78454 -3.35944 0
M  V30 6896 H 674.009 -2.14396 -4.50373 0
M  V30 6897 H 673.163 -0.37166 -6.05561 0
M  V30 6898 H 671.902 0.0863297 -4.87624 0
M  V30 6899 H 670.907 -2.2132 -5.03287 0
M  V30 6900 H 672.132 -2.66515 -6.24617 0
M  V30 6901 H 670.078 -0.44114 -6.54515 0
M  V30 6902 H 669.995 -2.00408 -7.28953 0
M  V30 6903 H 671.263 -0.904498 -7.74235 0
M  V30 6904 N 675.492 1.28418 -0.913599 0
M  V30 6905 C 676.44 2.29272 -0.392037 0
M  V30 6906 C 677.434 1.61344 0.516198 0
M  V30 6907 O 678.64 1.75557 0.39746 0
M  V30 6908 H 675.015 0.744178 -0.108178 0
M  V30 6909 H 676.986 2.70691 -1.25574 0
M  V30 6910 C 675.735 3.45905 0.352815 0
M  V30 6911 H 675.058 3.98378 -0.336848 0
M  V30 6912 H 676.498 4.18473 0.682398 0
M  V30 6913 C 674.957 2.98572 1.56065 0
M  V30 6914 O 675.487 3.01033 2.65974 0
M  V30 6915 N 673.693 2.54235 1.40759 0
M  V30 6916 H 673.24 2.52432 0.513403 0
M  V30 6917 H 673.198 2.22925 2.21702 0
M  V30 6918 N 676.97 0.677563 1.42291 0
M  V30 6919 C 677.902 -0.0380218 2.29168 0
M  V30 6920 C 678.915 -0.762714 1.43828 0
M  V30 6921 O 680.104 -0.616413 1.67519 0
M  V30 6922 C 677.204 -1.07761 3.21311 0
M  V30 6923 C 676.377 -0.42618 4.35319 0
M  V30 6924 C 675.436 -1.36592 5.08162 0
M  V30 6925 O 674.462 -0.865174 5.62586 0
M  V30 6926 N 675.664 -2.69909 5.13935 0
M  V30 6927 H 678.429 0.707766 2.91223 0
M  V30 6928 H 675.99 0.52219 1.53247 0
M  V30 6929 H 677.982 -1.70761 3.6691 0
M  V30 6930 H 676.552 -1.72511 2.60689 0
M  V30 6931 H 675.772 0.383385 3.92331 0
M  V30 6932 H 677.06 0.0275277 5.08793 0
M  V30 6933 H 676.458 -3.13129 4.71134 0
M  V30 6934 H 675.015 -3.2815 5.6317 0
M  V30 6935 O 678.487 -1.51362 0.563185 0
M  V30 6936 H 679.178 -1.936 0.0623735 0
M  V30 END ATOM
M  V30 BEGIN BOND
M  V30 END BOND
M  V30 END CTAB
M  END
$$$$
