drugbank_target|A0A024R8I1 Voltage-dependent N-type calcium channel subunit alpha (DB00381; DB00996)
 OpenBabel12092121133D

  0  0  0     0  0            999 V3000
M  V30 BEGIN CTAB
M  V30 COUNTS 15705 15890 0 0 0
M  V30 BEGIN ATOM
M  V30 1 H -0.908 1.98254 -0.117106 0
M  V30 2 N 0 1.576 0 0
M  V30 3 C 0.933 2.03868 1.02534 0
M  V30 4 C 1.911 0.928543 1.3348 0
M  V30 5 O 3.095 1.19667 1.45644 0
M  V30 6 C 0.222 2.43627 2.35294 0
M  V30 7 C -0.732 3.65373 2.2001 0
M  V30 8 S 0.101 5.13292 1.52614 0
M  V30 9 C 1.257 5.56322 2.86805 0
M  V30 10 H 1.49 2.90518 0.631377 0
M  V30 11 H -0.977 1.52953 0.210867 0
M  V30 12 H 0.981 2.67203 3.11629 0
M  V30 13 H -0.358 1.57376 2.7183 0
M  V30 14 H -1.165 3.90944 3.18086 0
M  V30 15 H -1.563 3.418 1.51819 0
M  V30 16 H 0.729 5.58782 3.83104 0
M  V30 17 H 1.672 6.56266 2.65933 0
M  V30 18 H 2.08 4.83886 2.90714 0
M  V30 19 N 1.4781 -0.272755 1.55222 0
M  V30 20 C 2.7241 -1.00581 1.761 0
M  V30 21 C 3.0571 -1.85932 0.560625 0
M  V30 22 O 2.3321 -1.89416 -0.441801 0
M  V30 23 C 2.6151 -1.88816 3.06628 0
M  V30 24 C 2.4681 -1.06457 4.37021 0
M  V30 25 C 3.7871 -2.8752 3.33197 0
M  V30 26 H 0.9061 -0.364244 0.640699 0
M  V30 27 H 3.5481 -0.278189 1.87952 0
M  V30 28 H 1.6981 -2.50856 2.96654 0
M  V30 29 H 3.3701 -0.464863 4.58952 0
M  V30 30 H 1.6131 -0.368043 4.32236 0
M  V30 31 H 2.2841 -1.71514 5.24678 0
M  V30 32 H 4.7601 -2.35615 3.42965 0
M  V30 33 H 3.6361 -3.46399 4.25792 0
M  V30 34 H 3.8971 -3.62657 2.52849 0
M  V30 35 N 2.9562 -1.48159 -0.537278 0
M  V30 36 C 4.3722 -1.34118 -0.865129 0
M  V30 37 C 4.5722 -0.346678 -1.98495 0
M  V30 38 O 3.6282 0.234715 -2.51407 0
M  V30 39 C 4.9412 -2.73963 -1.23954 0
M  V30 40 C 6.4892 -2.82397 -1.34984 0
M  V30 41 C 6.9642 -4.22928 -1.75772 0
M  V30 42 N 8.4552 -4.25566 -1.82887 0
M  V30 43 C 9.1902 -5.31235 -2.15817 0
M  V30 44 N 8.6862 -6.47189 -2.47222 0
M  V30 45 N 10.4792 -5.18624 -2.16761 0
M  V30 46 H 2.6302 -2.1144 0.201715 0
M  V30 47 H 4.8932 -0.947598 0.0275949 0
M  V30 48 H 4.5992 -3.48264 -0.490381 0
M  V30 49 H 4.4732 -3.0702 -2.19132 0
M  V30 50 H 6.8602 -2.08356 -2.08978 0
M  V30 51 H 6.9412 -2.5297 -0.379448 0
M  V30 52 H 6.5852 -4.97482 -1.02341 0
M  V30 53 H 6.5152 -4.49794 -2.73848 0
M  V30 54 H 9.0062 -3.41924 -1.60924 0
M  V30 55 H 9.3192 -7.23564 -2.71433 0
M  V30 56 H 7.6642 -6.50476 -2.44757 0
M  V30 57 H 10.8552 -4.27056 -1.91679 0
M  V30 58 H 11.0282 -6.01078 -2.42093 0
M  V30 59 N 4.4343 0.785586 -1.36625 0
M  V30 60 C 5.6813 1.54362 -1.31067 0
M  V30 61 C 6.0093 1.94195 0.10893 0
M  V30 62 O 5.2643 1.63262 1.07908 0
M  V30 63 C 5.5633 2.83007 -2.1827 0
M  V30 64 C 5.2293 2.62294 -3.6676 0
M  V30 65 C 3.8913 2.56353 -4.0723 0
M  V30 66 C 6.2433 2.43371 -4.6089 0
M  V30 67 C 3.5713 2.29461 -5.39967 0
M  V30 68 C 5.9233 2.18005 -5.93849 0
M  V30 69 C 4.5873 2.105 -6.3344 0
M  V30 70 H 3.8573 0.564851 -0.479609 0
M  V30 71 H 6.5043 0.906028 -1.68711 0
M  V30 72 H 4.8093 3.51253 -1.73576 0
M  V30 73 H 6.5063 3.40817 -2.11292 0
M  V30 74 H 3.0963 2.67774 -3.34656 0
M  V30 75 H 7.2803 2.46959 -4.30494 0
M  V30 76 H 2.5363 2.22135 -5.69619 0
M  V30 77 H 6.7103 2.02359 -6.66351 0
M  V30 78 H 4.3373 1.89425 -7.36222 0
M  V30 79 N 5.9124 1.20967 1.01018 0
M  V30 80 C 7.1604 1.02172 1.74371 0
M  V30 81 C 7.4814 -0.446414 1.89821 0
M  V30 82 O 6.7514 -1.32234 1.44537 0
M  V30 83 H 5.3314 0.375066 0.646014 0
M  V30 84 H 7.9934 1.52187 1.21758 0
M  V30 85 H 7.0894 1.48538 2.74487 0
M  V30 86 N 7.3905 -1.2043 1.01659 0
M  V30 87 C 8.6675 -1.8548 0.621004 0
M  V30 88 C 9.0475 -1.9091 -0.900919 0
M  V30 89 O 8.3955 -1.41694 -1.79263 0
M  V30 90 C 8.6055 -3.25119 1.2688 0
M  V30 91 C 9.9535 -4.01403 1.38423 0
M  V30 92 O 10.9775 -3.34473 1.22501 0
M  V30 93 O 9.8365 -5.21265 1.64151 0
M  V30 94 H 6.9305 -0.798761 0.214266 0
M  V30 95 H 9.4765 -1.28019 1.11396 0
M  V30 96 H 8.2485 -3.15932 2.30873 0
M  V30 97 H 7.8715 -3.90212 0.762917 0
M  V30 98 N 8.8686 -0.792821 -1.36206 0
M  V30 99 C 9.7786 -0.194808 -2.3379 0
M  V30 100 C 10.7946 0.654869 -1.61206 0
M  V30 101 O 11.9706 0.569856 -1.9317 0
M  V30 102 C 9.0356 0.657721 -3.40404 0
M  V30 103 C 8.0966 -0.210849 -4.28782 0
M  V30 104 C 7.3296 0.601086 -5.30304 0
M  V30 105 O 7.5526 1.83682 -5.40016 0
M  V30 106 O 6.4866 -0.000808277 -6.019 0
M  V30 107 H 10.3126 -1.00172 -2.86704 0
M  V30 108 H 7.8976 -0.554341 -1.38735 0
M  V30 109 H 9.7796 1.14375 -4.05581 0
M  V30 110 H 8.4546 1.44247 -2.89784 0
M  V30 111 H 7.3616 -0.743714 -3.66633 0
M  V30 112 H 8.6946 -0.959195 -4.82763 0
M  V30 113 N 10.3467 1.47872 -0.545128 0
M  V30 114 C 11.2767 2.32661 0.197793 0
M  V30 115 C 12.2577 1.43041 0.920504 0
M  V30 116 O 13.4427 1.71912 0.90333 0
M  V30 117 C 10.5727 3.24569 1.23582 0
M  V30 118 C 9.5267 4.23333 0.630323 0
M  V30 119 C 8.8527 5.0448 1.77211 0
M  V30 120 C 10.1527 5.20704 -0.407974 0
M  V30 121 H 11.8467 2.95024 -0.510045 0
M  V30 122 H 9.3927 1.4187 -0.246731 0
M  V30 123 H 11.3457 3.8272 1.76362 0
M  V30 124 H 10.0697 2.60236 1.97344 0
M  V30 125 H 8.7287 3.6639 0.123922 0
M  V30 126 H 8.3767 4.36561 2.49847 0
M  V30 127 H 8.0767 5.71339 1.37281 0
M  V30 128 H 9.6007 5.65487 2.3034 0
M  V30 129 H 11.0147 5.7329 0.033305 0
M  V30 130 H 9.4117 5.95699 -0.725486 0
M  V30 131 H 10.4817 4.66917 -1.30828 0
M  V30 132 N 11.8248 0.280983 1.55075 0
M  V30 133 C 13.0728 -0.333455 1.9933 0
M  V30 134 C 13.3938 -1.55937 1.17085 0
M  V30 135 O 12.6638 -1.94143 0.261805 0
M  V30 136 H 11.2438 -0.126197 0.736263 0
M  V30 137 H 13.9058 0.387678 1.91005 0
M  V30 138 H 13.0018 -0.619292 3.05894 0
M  V30 139 N 13.3029 -1.57598 0.00835791 0
M  V30 140 C 14.5509 -1.90551 -0.6734 0
M  V30 141 C 14.8719 -0.883301 -1.73847 0
M  V30 142 O 14.1419 0.0781442 -1.95744 0
M  V30 143 H 12.7219 -0.703312 -0.251717 0
M  V30 144 H 15.3839 -1.94833 0.0512592 0
M  V30 145 H 14.4799 -2.9056 -1.13935 0
M  V30 146 N 14.781 0.264519 -1.55364 0
M  V30 147 C 16.197 0.61215 -1.47394 0
M  V30 148 C 16.397 1.89134 -0.695018 0
M  V30 149 O 15.453 2.51563 -0.217275 0
M  V30 150 C 16.766 0.731235 -2.91674 0
M  V30 151 C 18.314 0.82473 -3.01939 0
M  V30 152 C 18.789 0.975522 -4.4749 0
M  V30 153 N 20.28 1.04083 -4.51354 0
M  V30 154 C 21.015 1.17646 -5.61201 0
M  V30 155 N 20.511 1.27874 -6.80896 0
M  V30 156 N 22.304 1.20823 -5.48961 0
M  V30 157 H 14.455 -0.575456 -2.04456 0
M  V30 158 H 16.718 -0.196099 -0.927496 0
M  V30 159 H 16.424 -0.138392 -3.51428 0
M  V30 160 H 16.298 1.60883 -3.41169 0
M  V30 161 H 18.685 1.68482 -2.42276 0
M  V30 162 H 18.766 -0.0776479 -2.55682 0
M  V30 163 H 18.41 0.120058 -5.07758 0
M  V30 164 H 18.34 1.89268 -4.91412 0
M  V30 165 H 20.831 0.973846 -3.65136 0
M  V30 166 H 21.144 1.38081 -7.60364 0
M  V30 167 H 19.489 1.24863 -6.83692 0
M  V30 168 H 22.68 1.12469 -4.54388 0
M  V30 169 H 22.853 1.31049 -6.3461 0
M  V30 170 N 16.2591 1.48442 0.529413 0
M  V30 171 C 17.4891 1.59919 1.30804 0
M  V30 172 C 17.8971 0.258792 1.87422 0
M  V30 173 O 17.2401 -0.762096 1.67146 0
M  V30 174 C 17.3021 2.58693 2.49636 0
M  V30 175 C 16.9661 4.03745 2.14101 0
M  V30 176 C 17.9631 4.9141 1.6974 0
M  V30 177 C 15.6481 4.49285 2.24607 0
M  V30 178 C 17.6421 6.22645 1.36351 0
M  V30 179 C 15.3291 5.8054 1.9083 0
M  V30 180 C 16.3271 6.67043 1.46773 0
M  V30 181 O 16.0151 7.95856 1.1344 0
M  V30 182 H 15.7471 0.541981 0.404021 0
M  V30 183 H 18.3011 1.95 0.645309 0
M  V30 184 H 16.5311 2.18734 3.18892 0
M  V30 185 H 18.2201 2.59999 3.11698 0
M  V30 186 H 18.9861 4.57465 1.61094 0
M  V30 187 H 14.8651 3.82142 2.57854 0
M  V30 188 H 18.4091 6.90119 1.01891 0
M  V30 189 H 14.3061 6.14022 1.99117 0
M  V30 190 H 15.0741 8.08613 1.26832 0
M  V30 191 N 17.7372 -0.778329 1.37039 0
M  V30 192 C 18.9852 -1.53361 1.31623 0
M  V30 193 C 19.3062 -1.94739 -0.100831 0
M  V30 194 O 18.5762 -1.65797 -1.04347 0
M  V30 195 H 17.1562 -0.568794 0.484234 0
M  V30 196 H 19.8182 -0.926742 1.71457 0
M  V30 197 H 18.9142 -2.43606 1.95096 0
M  V30 198 N 19.2153 -1.21501 -1.00376 0
M  V30 199 C 20.4633 -1.03095 -1.73827 0
M  V30 200 C 20.7843 0.436341 -1.90055 0
M  V30 201 O 20.0543 1.31466 -1.45236 0
M  V30 202 H 18.6343 -0.378487 -0.644016 0
M  V30 203 H 21.2963 -1.52831 -1.20949 0
M  V30 204 H 20.3923 -1.49991 -2.73695 0
M  V30 205 N 20.6934 1.19889 -1.02296 0
M  V30 206 C 22.1044 1.71124 -0.746568 0
M  V30 207 C 22.4554 1.81939 0.734335 0
M  V30 208 O 21.5804 1.48639 1.57275 0
M  V30 209 C 22.1754 3.10804 -1.34857 0
M  V30 210 C 20.7344 3.59323 -1.1209 0
M  V30 211 C 19.8814 2.3635 -1.45031 0
M  V30 212 H 22.8324 1.04813 -1.19163 0
M  V30 213 H 22.8534 3.73186 -0.742437 0
M  V30 214 H 22.3654 3.029 -2.42638 0
M  V30 215 H 20.4664 3.7255 -0.0610337 0
M  V30 216 H 20.5794 4.4378 -1.80544 0
M  V30 217 H 18.9434 2.39399 -0.869487 0
M  V30 218 H 19.7264 2.31081 -2.53883 0
M  V30 219 N 22.1715 0.800033 1.35784 0
M  V30 220 C 23.4195 0.376597 1.9856 0
M  V30 221 C 23.7405 -1.05812 1.63795 0
M  V30 222 O 23.0105 -1.73103 0.917171 0
M  V30 223 H 21.5905 0.136261 0.734467 0
M  V30 224 H 24.2525 1.02442 1.65806 0
M  V30 225 H 23.3485 0.477002 3.08433 0
M  V30 226 N 23.6496 -1.47581 0.552962 0
M  V30 227 C 24.8976 -2.02082 0.0272703 0
M  V30 228 C 25.2186 -1.4301 -1.32563 0
M  V30 229 O 24.4886 -0.603745 -1.86365 0
M  V30 230 H 23.0686 -0.746966 0.00709182 0
M  V30 231 H 25.7306 -1.81033 0.722008 0
M  V30 232 H 24.8266 -3.12034 -0.0639951 0
M  V30 233 N 25.1277 -0.289203 -1.54924 0
M  V30 234 C 26.3757 0.322879 -1.99504 0
M  V30 235 C 26.6967 1.55313 -1.1791 0
M  V30 236 O 25.9667 1.94001 -0.272097 0
M  V30 237 H 24.5467 0.122291 -0.736922 0
M  V30 238 H 27.2087 -0.397802 -1.90797 0
M  V30 239 H 26.3047 0.603061 -3.06218 0
M  V30 240 N 26.6058 1.57591 -0.0167156 0
M  V30 241 C 27.5158 2.1291 0.98521 0
M  V30 242 C 28.5318 1.07834 1.36557 0
M  V30 243 O 29.7078 1.39826 1.44951 0
M  V30 244 C 26.7728 2.63512 2.25305 0
M  V30 245 C 25.8338 3.83256 1.93426 0
M  V30 246 C 25.0668 4.31435 3.14165 0
M  V30 247 O 25.2898 3.78851 4.26413 0
M  V30 248 O 24.2238 5.23416 2.97186 0
M  V30 249 H 28.0498 2.98772 0.544888 0
M  V30 250 H 25.6348 1.48012 0.203141 0
M  V30 251 H 27.5168 2.96183 2.99756 0
M  V30 252 H 26.1918 1.8074 2.68542 0
M  V30 253 H 25.0988 3.55531 1.16398 0
M  V30 254 H 26.4318 4.67153 1.55013 0
M  V30 255 N 28.0839 -0.256276 1.55502 0
M  V30 256 C 29.4999 -0.604325 1.47716 0
M  V30 257 C 29.6999 -1.88763 0.705039 0
M  V30 258 O 28.7559 -2.51445 0.230613 0
M  V30 259 C 30.0689 -0.715756 2.92057 0
M  V30 260 C 31.6169 -0.808706 3.02372 0
M  V30 261 C 32.0919 -0.951777 4.48001 0
M  V30 262 N 33.5829 -1.01688 4.519 0
M  V30 263 C 34.3179 -1.14668 5.61817 0
M  V30 264 N 33.8139 -1.24261 6.81565 0
M  V30 265 N 35.6069 -1.1791 5.49594 0
M  V30 266 H 27.7579 0.586291 2.04148 0
M  V30 267 H 30.0209 0.201015 0.926443 0
M  V30 268 H 29.7269 0.157027 3.51349 0
M  V30 269 H 29.6009 -1.59071 3.42018 0
M  V30 270 H 31.9879 -1.67195 2.43166 0
M  V30 271 H 32.0689 0.0912063 2.55637 0
M  V30 272 H 31.7129 -0.0931291 5.07815 0
M  V30 273 H 31.6429 -1.86659 4.92408 0
M  V30 274 H 34.1339 -0.954468 3.65648 0
M  V30 275 H 34.4469 -1.34046 7.61086 0
M  V30 276 H 32.7919 -1.21236 6.84344 0
M  V30 277 H 35.9829 -1.10057 4.54978 0
M  V30 278 H 36.1559 -1.27681 6.35296 0
M  V30 279 N 29.562 -1.4872 -0.521534 0
M  V30 280 C 30.525 -1.63379 -1.60748 0
M  V30 281 C 31.525 -0.50661 -1.52611 0
M  V30 282 O 32.715 -0.772601 -1.5613 0
M  V30 283 C 29.847 -1.61192 -3.00383 0
M  V30 284 H 31.04 -2.60217 -1.49087 0
M  V30 285 H 28.593 -1.37444 -0.744235 0
M  V30 286 H 29.328 -0.65863 -3.17541 0
M  V30 287 H 29.113 -2.43032 -3.07698 0
M  V30 288 H 30.603 -1.7466 -3.7932 0
M  V30 289 N 31.0401 0.771051 -1.3745 0
M  V30 290 C 32.4561 1.07171 -1.18265 0
M  V30 291 C 32.6561 2.01491 -0.019287 0
M  V30 292 O 31.7121 2.44244 0.640408 0
M  V30 293 C 33.0251 1.66854 -2.50161 0
M  V30 294 C 34.5731 1.79109 -2.56689 0
M  V30 295 C 35.0481 2.42205 -3.88717 0
M  V30 296 N 36.5391 2.49655 -3.90162 0
M  V30 297 C 37.2741 2.9933 -4.8907 0
M  V30 298 N 36.7701 3.49172 -5.98374 0
M  V30 299 N 38.5631 2.9821 -4.76474 0
M  V30 300 H 30.7141 0.144796 -2.11906 0
M  V30 301 H 32.9771 0.126863 -0.939473 0
M  V30 302 H 32.6831 1.05017 -3.35655 0
M  V30 303 H 32.5571 2.6614 -2.673 0
M  V30 304 H 34.9441 2.40077 -1.71601 0
M  V30 305 H 35.0251 0.785757 -2.43433 0
M  V30 306 H 34.6691 1.81875 -4.74219 0
M  V30 307 H 34.5991 3.43345 -3.99276 0
M  V30 308 H 37.0901 2.14383 -3.11205 0
M  V30 309 H 37.4031 3.8548 -6.69795 0
M  V30 310 H 35.7481 3.47275 -6.02018 0
M  V30 311 H 38.9391 2.58572 -3.90203 0
M  V30 312 H 39.1121 3.36613 -5.53711 0
M  V30 313 N 32.5182 1.22032 0.997298 0
M  V30 314 C 33.7662 1.04016 1.73278 0
M  V30 315 C 34.0872 -0.426255 1.90284 0
M  V30 316 O 33.3572 -1.30694 1.45931 0
M  V30 317 H 31.9372 0.381897 0.642 0
M  V30 318 H 34.5992 1.5347 1.20137 0
M  V30 319 H 33.6952 1.51441 2.72896 0
M  V30 320 N 33.9963 -1.19345 1.0293 0
M  V30 321 C 35.2443 -1.88665 0.724574 0
M  V30 322 C 35.5653 -1.80036 -0.749144 0
M  V30 323 O 34.8353 -1.2111 -1.53978 0
M  V30 324 H 33.4153 -0.698406 0.265025 0
M  V30 325 H 36.0773 -1.44885 1.30362 0
M  V30 326 H 35.1733 -2.94987 1.01926 0
M  V30 327 N 35.4744 -0.807222 -1.35358 0
M  V30 328 C 36.7224 -0.387122 -1.98358 0
M  V30 329 C 37.0434 1.04942 -1.64354 0
M  V30 330 O 36.3134 1.72615 -0.926339 0
M  V30 331 H 34.8934 -0.140154 -0.733734 0
M  V30 332 H 37.5554 -1.0332 -1.6526 0
M  V30 333 H 36.6514 -0.493352 -3.08176 0
M  V30 334 N 36.9525 1.47285 -0.560781 0
M  V30 335 C 37.9155 2.28535 0.174488 0
M  V30 336 C 38.9155 1.37153 0.839388 0
M  V30 337 O 40.1055 1.59748 0.694702 0
M  V30 338 C 37.2375 3.16934 1.25561 0
M  V30 339 H 38.4305 2.95012 -0.539262 0
M  V30 340 H 35.9835 1.53034 -0.317865 0
M  V30 341 H 36.7185 2.55157 2.00164 0
M  V30 342 H 36.5035 3.8419 0.783604 0
M  V30 343 H 37.9935 3.78143 1.77193 0
M  V30 344 N 38.4306 0.297415 1.54768 0
M  V30 345 C 39.6786 -0.312295 1.99673 0
M  V30 346 C 39.9996 -1.54686 1.18732 0
M  V30 347 O 39.2696 -1.93854 0.282382 0
M  V30 348 H 37.8496 -0.118381 0.73756 0
M  V30 349 H 40.5116 0.407915 1.90583 0
M  V30 350 H 39.6076 -0.586813 3.06534 0
M  V30 351 N 39.9087 -1.5758 0.0250728 0
M  V30 352 C 41.1567 -1.91255 -0.653151 0
M  V30 353 C 41.4777 -0.901691 -1.729 0
M  V30 354 O 40.7477 0.0573785 -1.95816 0
M  V30 355 H 39.3277 -0.705942 -0.244243 0
M  V30 356 H 41.9897 -1.94767 0.0719209 0
M  V30 357 H 41.0857 -2.91752 -1.10847 0
M  V30 358 N 41.3868 0.248026 -1.55636 0
M  V30 359 C 42.3498 1.29044 -1.89421 0
M  V30 360 C 43.3498 1.41134 -0.770581 0
M  V30 361 O 44.5398 1.39854 -1.03858 0
M  V30 362 C 41.6718 2.66831 -2.12165 0
M  V30 363 H 42.8648 1.00305 -2.82629 0
M  V30 364 H 40.4178 0.487265 -1.48511 0
M  V30 365 H 41.1528 3.00711 -1.21422 0
M  V30 366 H 40.9378 2.59438 -2.93997 0
M  V30 367 H 42.4278 3.42103 -2.3949 0
M  V30 368 N 42.8649 1.48995 0.513639 0
M  V30 369 C 44.1129 1.57531 1.26604 0
M  V30 370 C 44.4339 0.258236 1.93283 0
M  V30 371 O 43.7039 -0.721502 1.8213 0
M  V30 372 H 42.2839 0.580387 0.470276 0
M  V30 373 H 44.9459 1.85552 0.596373 0
M  V30 374 H 44.0419 2.36486 2.03669 0
M  V30 375 N 44.343 -0.763751 1.37857 0
M  V30 376 C 45.591 -1.51957 1.33243 0
M  V30 377 C 45.912 -1.94835 -0.0801709 0
M  V30 378 O 45.182 -1.66894 -1.02582 0
M  V30 379 H 43.762 -0.563626 0.49024 0
M  V30 380 H 46.424 -0.908504 1.7243 0
M  V30 381 H 45.52 -2.41523 1.97669 0
M  V30 382 N 45.8211 -1.22559 -0.990812 0
M  V30 383 C 47.2321 -1.04791 -1.54518 0
M  V30 384 C 47.5831 0.387998 -1.92325 0
M  V30 385 O 46.7081 1.27328 -1.74976 0
M  V30 386 C 47.3031 -1.896 -2.80779 0
M  V30 387 C 45.8621 -1.76124 -3.32652 0
M  V30 388 C 45.0091 -1.8594 -2.05722 0
M  V30 389 H 47.9601 -1.36374 -0.811662 0
M  V30 390 H 47.9811 -1.41464 -3.53225 0
M  V30 391 H 47.4931 -2.94101 -2.53231 0
M  V30 392 H 45.5941 -0.743643 -3.65104 0
M  V30 393 H 45.7071 -2.58913 -4.03114 0
M  V30 394 H 44.0711 -1.29403 -2.19379 0
M  V30 395 H 44.8541 -2.91976 -1.80568 0
M  V30 396 N 47.2992 1.18797 -1.03562 0
M  V30 397 C 48.5472 1.88278 -0.734569 0
M  V30 398 C 48.8682 1.8043 0.739586 0
M  V30 399 O 48.1382 1.21925 1.53333 0
M  V30 400 H 46.7182 0.696991 -0.268725 0
M  V30 401 H 49.3802 1.44192 -1.31129 0
M  V30 402 H 48.4762 2.94443 -1.03489 0
M  V30 403 N 48.7773 0.814389 1.34928 0
M  V30 404 C 50.1883 0.458364 1.80986 0
M  V30 405 C 50.5393 -1.02042 1.67577 0
M  V30 406 O 49.6643 -1.79352 1.21086 0
M  V30 407 C 50.2593 0.825212 3.28597 0
M  V30 408 C 48.8183 0.521677 3.72767 0
M  V30 409 C 47.9653 1.04668 2.56788 0
M  V30 410 H 50.9163 1.00533 1.22795 0
M  V30 411 H 50.9373 0.12571 3.80292 0
M  V30 412 H 50.4493 1.90154 3.38324 0
M  V30 413 H 48.5503 -0.545589 3.68584 0
M  V30 414 H 48.6633 1.05977 4.67232 0
M  V30 415 H 47.0273 0.468622 2.50352 0
M  V30 416 H 47.8103 2.12927 2.6929 0
M  V30 417 N 50.2554 -1.46986 0.568584 0
M  V30 418 C 51.5034 -2.02041 0.0487022 0
M  V30 419 C 51.8244 -1.44408 -1.31039 0
M  V30 420 O 51.0944 -0.623477 -1.85714 0
M  V30 421 H 49.6744 -0.746849 0.015014 0
M  V30 422 H 52.3364 -1.80257 0.741168 0
M  V30 423 H 51.4324 -3.12085 -0.0308961 0
M  V30 424 N 51.7335 -0.305618 -1.54608 0
M  V30 425 C 52.9815 0.301701 -1.99835 0
M  V30 426 C 53.3025 1.54054 -1.19551 0
M  V30 427 O 52.5725 1.93702 -0.292658 0
M  V30 428 H 51.1525 0.114468 -0.738178 0
M  V30 429 H 53.8145 -0.418016 -1.90364 0
M  V30 430 H 52.9105 0.570548 -3.06841 0
M  V30 431 N 53.2116 1.57565 -0.0334293 0
M  V30 432 C 54.1416 2.13511 0.945265 0
M  V30 433 C 55.1226 1.05231 1.33643 0
M  V30 434 O 56.3076 1.33084 1.41429 0
M  V30 435 C 53.4376 2.6657 2.22616 0
M  V30 436 C 52.3916 3.79676 1.97561 0
M  V30 437 C 51.7176 4.1918 3.31952 0
M  V30 438 C 53.0176 5.0557 1.31135 0
M  V30 439 H 54.7116 2.95538 0.479325 0
M  V30 440 H 52.2576 1.42166 0.229115 0
M  V30 441 H 54.2106 3.04344 2.91466 0
M  V30 442 H 52.9346 1.8171 2.71384 0
M  V30 443 H 51.5936 3.42347 1.31127 0
M  V30 444 H 51.2416 3.31296 3.78487 0
M  V30 445 H 50.9416 4.95402 3.15992 0
M  V30 446 H 52.4656 4.59541 4.02063 0
M  V30 447 H 53.8796 5.40903 1.89992 0
M  V30 448 H 52.2766 5.86818 1.25559 0
M  V30 449 H 53.3466 4.84062 0.284894 0
M  V30 450 N 54.6897 -0.239769 1.55765 0
M  V30 451 C 55.6217 -1.32001 1.87372 0
M  V30 452 C 56.6347 -1.43944 0.760522 0
M  V30 453 O 57.8237 -1.45167 1.0387 0
M  V30 454 C 54.9237 -2.69779 2.05115 0
M  V30 455 C 54.0967 -2.80014 3.36022 0
M  V30 456 C 53.1557 -3.98684 3.4342 0
M  V30 457 O 52.1817 -3.87877 4.16582 0
M  V30 458 N 53.3837 -5.12176 2.73232 0
M  V30 459 H 56.1487 -1.0522 2.80622 0
M  V30 460 H 53.7097 -0.429857 1.56089 0
M  V30 461 H 55.7017 -3.47517 2.07399 0
M  V30 462 H 54.2717 -2.89237 1.18577 0
M  V30 463 H 53.4917 -1.88896 3.45994 0
M  V30 464 H 54.7797 -2.83808 4.22292 0
M  V30 465 H 54.1777 -5.2385 2.13536 0
M  V30 466 H 52.7347 -5.88022 2.81199 0
M  V30 467 N 56.1678 -1.49265 -0.50573 0
M  V30 468 C 57.5788 -1.51769 -1.08734 0
M  V30 469 C 57.9298 -0.301192 -1.93874 0
M  V30 470 O 57.0548 0.589456 -2.08217 0
M  V30 471 C 57.6498 -2.75017 -1.97867 0
M  V30 472 C 56.2088 -2.80314 -2.51199 0
M  V30 473 C 55.3558 -2.4562 -1.28709 0
M  V30 474 H 58.3068 -1.56031 -0.289855 0
M  V30 475 H 58.3278 -2.5491 -2.82491 0
M  V30 476 H 57.8398 -3.63539 -1.35873 0
M  V30 477 H 55.9408 -1.96061 -3.16845 0
M  V30 478 H 56.0538 -3.82366 -2.88675 0
M  V30 479 H 54.4178 -1.97297 -1.61078 0
M  V30 480 H 55.2008 -3.36411 -0.6843 0
M  V30 481 N 57.6459 0.756429 -1.3826 0
M  V30 482 C 58.8939 1.51248 -1.34047 0
M  V30 483 C 59.2149 1.94875 0.0698372 0
M  V30 484 O 58.4849 1.67436 1.01696 0
M  V30 485 H 57.0649 0.561018 -0.493222 0
M  V30 486 H 59.7269 0.899347 -1.7291 0
M  V30 487 H 58.8229 2.40472 -1.98947 0
M  V30 488 N 59.124 1.23083 0.984299 0
M  V30 489 C 60.056 0.96636 2.07832 0
M  V30 490 C 61.069 -0.0582135 1.62696 0
M  V30 491 O 62.258 0.176843 1.77622 0
M  V30 492 C 59.358 0.433397 3.36117 0
M  V30 493 C 58.531 1.51722 4.10243 0
M  V30 494 C 57.59 0.989821 5.16807 0
M  V30 495 O 56.616 1.67794 5.43906 0
M  V30 496 N 57.818 -0.184367 5.80207 0
M  V30 497 H 60.583 1.90824 2.31098 0
M  V30 498 H 58.144 1.13888 1.1507 0
M  V30 499 H 60.136 0.065699 4.04647 0
M  V30 500 H 58.706 -0.413806 3.09849 0
M  V30 501 H 57.926 2.05786 3.36223 0
M  V30 502 H 59.214 2.24619 4.56534 0
M  V30 503 H 58.612 -0.760062 5.60571 0
M  V30 504 H 57.169 -0.493366 6.4993 0
M  V30 505 N 60.6021 -1.18246 1.0419 0
M  V30 506 C 62.0181 -1.40269 0.761366 0
M  V30 507 C 62.2181 -1.90777 -0.648578 0
M  V30 508 O 61.2741 -2.0929 -1.41258 0
M  V30 509 C 62.5871 -2.40237 1.8085 0
M  V30 510 C 64.1351 -2.53961 1.82955 0
M  V30 511 C 64.6101 -3.57194 2.86664 0
M  V30 512 N 66.1011 -3.64702 2.85563 0
M  V30 513 C 66.8361 -4.44309 3.6246 0
M  V30 514 N 66.3321 -5.27514 4.49111 0
M  V30 515 N 68.1251 -4.39084 3.50944 0
M  V30 516 H 60.2761 -0.837882 1.95175 0
M  V30 517 H 62.5391 -0.430608 0.84456 0
M  V30 518 H 62.2451 -2.10176 2.81991 0
M  V30 519 H 62.1191 -3.39601 1.64168 0
M  V30 520 H 64.5061 -2.83338 0.824855 0
M  V30 521 H 64.5871 -1.54706 2.03715 0
M  V30 522 H 64.2311 -3.28558 3.87314 0
M  V30 523 H 64.1611 -4.5613 2.6316 0
M  V30 524 H 66.6521 -3.05289 2.22727 0
M  V30 525 H 66.9651 -5.85411 5.04493 0
M  V30 526 H 65.3101 -5.2693 4.53178 0
M  V30 527 H 68.5011 -3.7313 2.82651 0
M  V30 528 H 68.6741 -5.00883 4.11121 0
M  V30 529 N 62.0802 -0.821533 -1.34494 0
M  V30 530 C 63.3262 -0.409552 -1.98622 0
M  V30 531 C 63.6592 1.0244 -1.64984 0
M  V30 532 O 62.9342 1.71325 -0.920758 0
M  V30 533 C 63.2172 -0.610458 -3.54888 0
M  V30 534 C 63.0702 -2.09043 -3.98273 0
M  V30 535 C 64.3892 -0.0455379 -4.40076 0
M  V30 536 H 61.5082 -0.15028 -0.721516 0
M  V30 537 H 64.1502 -1.03384 -1.59411 0
M  V30 538 H 62.3002 -0.079044 -3.8842 0
M  V30 539 H 63.9722 -2.68537 -3.75081 0
M  V30 540 H 62.2152 -2.58139 -3.48635 0
M  V30 541 H 62.8862 -2.18182 -5.07051 0
M  V30 542 H 65.3622 -0.499557 -4.1309 0
M  V30 543 H 64.2382 -0.215922 -5.48475 0
M  V30 544 H 64.4992 1.04939 -4.29465 0
M  V30 545 N 63.5583 1.46682 -0.576371 0
M  V30 546 C 64.4883 2.33028 0.148397 0
M  V30 547 C 65.4693 1.44961 0.889956 0
M  V30 548 O 66.6543 1.73789 0.866662 0
M  V30 549 C 63.7843 3.27117 1.1667 0
M  V30 550 C 62.7383 4.24575 0.540386 0
M  V30 551 C 62.0643 5.08126 1.6647 0
M  V30 552 C 63.3643 5.19722 -0.518331 0
M  V30 553 H 65.0583 2.93875 -0.572509 0
M  V30 554 H 62.6043 1.41315 -0.276768 0
M  V30 555 H 64.5573 3.86374 1.68204 0
M  V30 556 H 63.2813 2.64364 1.9178 0
M  V30 557 H 61.9403 3.66571 0.0461769 0
M  V30 558 H 61.5883 4.41762 2.40531 0
M  V30 559 H 61.2883 5.74122 1.25131 0
M  V30 560 H 62.8123 5.70246 2.18293 0
M  V30 561 H 64.2263 5.73232 -0.0883058 0
M  V30 562 H 62.6233 5.94026 -0.851679 0
M  V30 563 H 63.6933 4.64037 -1.40703 0
M  V30 564 N 65.0364 0.313813 1.54444 0
M  V30 565 C 66.2664 -0.293491 2.04505 0
M  V30 566 C 66.6744 -1.47086 1.19005 0
M  V30 567 O 66.0174 -1.82481 0.211257 0
M  V30 568 C 66.0794 -0.800455 3.50475 0
M  V30 569 C 65.7434 0.253322 4.56297 0
M  V30 570 C 66.7404 1.08612 5.08428 0
M  V30 571 C 64.4254 0.398708 5.00715 0
M  V30 572 C 66.4194 2.05013 6.0353 0
M  V30 573 C 64.1064 1.36614 5.95634 0
M  V30 574 C 65.1044 2.19033 6.46926 0
M  V30 575 O 64.7924 3.14134 7.39983 0
M  V30 576 H 64.5244 -0.0658325 0.672787 0
M  V30 577 H 67.0784 0.455177 2.00293 0
M  V30 578 H 65.3084 -1.59987 3.52053 0
M  V30 579 H 66.9974 -1.32504 3.83663 0
M  V30 580 H 67.7634 0.984736 4.74898 0
M  V30 581 H 63.6424 -0.23289 4.60411 0
M  V30 582 H 67.1864 2.69382 6.4349 0
M  V30 583 H 63.0834 1.4682 6.28581 0
M  V30 584 H 63.8514 3.0926 7.57826 0
M  V30 585 N 66.5145 -1.57545 0.0417849 0
M  V30 586 C 67.4615 -2.10977 -0.935805 0
M  V30 587 C 68.4315 -1.01486 -1.31491 0
M  V30 588 O 69.6165 -1.2898 -1.40602 0
M  V30 589 C 66.7565 -2.65169 -2.2086 0
M  V30 590 C 65.8695 -3.88714 -1.88482 0
M  V30 591 C 65.0045 -4.31254 -3.1015 0
M  V30 592 C 64.0435 -5.47524 -2.7365 0
M  V30 593 N 63.1805 -5.85162 -3.87982 0
M  V30 594 H 68.0205 -2.94218 -0.473249 0
M  V30 595 H 65.5575 -1.45415 -0.221981 0
M  V30 596 H 67.5155 -2.94685 -2.95325 0
M  V30 597 H 66.1455 -1.8474 -2.64709 0
M  V30 598 H 65.1975 -3.65849 -1.04205 0
M  V30 599 H 66.5095 -4.73245 -1.57608 0
M  V30 600 H 65.6635 -4.62273 -3.92923 0
M  V30 601 H 64.4025 -3.45516 -3.44195 0
M  V30 602 H 63.4075 -5.16187 -1.89291 0
M  V30 603 H 64.6325 -6.34971 -2.40807 0
M  V30 604 H 62.5785 -5.02377 -4.21846 0
M  V30 605 H 62.4955 -6.64362 -3.60775 0
M  V30 606 H 63.7635 -6.20791 -4.71422 0
M  V30 607 N 67.9926 0.231505 -1.5589 0
M  V30 608 C 68.9246 1.31006 -1.8807 0
M  V30 609 C 69.9376 1.43539 -0.768145 0
M  V30 610 O 71.1266 1.44614 -1.04638 0
M  V30 611 C 68.2266 2.68688 -2.06543 0
M  V30 612 C 67.3996 2.78228 -3.37502 0
M  V30 613 C 66.4586 3.96857 -3.4553 0
M  V30 614 O 65.4846 3.85662 -4.18633 0
M  V30 615 N 66.6866 5.1072 -2.75944 0
M  V30 616 H 69.4516 1.03731 -2.81176 0
M  V30 617 H 67.0126 0.421573 -1.56315 0
M  V30 618 H 69.0046 3.46412 -2.09239 0
M  V30 619 H 67.5746 2.88605 -1.20109 0
M  V30 620 H 66.7946 1.87059 -3.46991 0
M  V30 621 H 68.0826 2.81564 -4.23791 0
M  V30 622 H 67.4806 5.2271 -2.16311 0
M  V30 623 H 66.0376 5.86523 -2.84314 0
M  V30 624 N 69.4707 1.49531 0.497807 0
M  V30 625 C 70.6957 1.63159 1.28039 0
M  V30 626 C 71.1207 0.30418 1.85624 0
M  V30 627 O 70.4787 -0.728618 1.66015 0
M  V30 628 C 70.5267 2.70537 2.38416 0
M  V30 629 O 69.6307 2.29931 3.42353 0
M  V30 630 H 68.9717 0.546001 0.377861 0
M  V30 631 H 71.5017 1.9574 0.59558 0
M  V30 632 H 71.5117 2.92802 2.84132 0
M  V30 633 H 70.1867 3.6689 1.95869 0
M  V30 634 H 68.7637 2.18009 3.02533 0
M  V30 635 N 70.9488 -0.749086 1.3866 0
M  V30 636 C 72.1978 -1.50371 1.3443 0
M  V30 637 C 72.5108 -1.95503 -0.0616397 0
M  V30 638 O 73.7168 -2.70554 -0.226489 0
M  V30 639 C 72.1728 -2.71644 2.36088 0
M  V30 640 C 71.7808 -2.3352 3.82325 0
M  V30 641 C 73.5248 -3.49518 2.40909 0
M  V30 642 C 71.4318 -3.51431 4.75658 0
M  V30 643 H 70.3618 -0.564628 0.499712 0
M  V30 644 H 73.0128 -0.818449 1.64237 0
M  V30 645 H 71.3948 -3.42175 1.9933 0
M  V30 646 H 72.5688 -1.70627 4.28046 0
M  V30 647 H 70.8838 -1.6877 3.80665 0
M  V30 648 H 73.4808 -4.37197 3.07836 0
M  V30 649 H 73.8238 -3.90992 1.42937 0
M  V30 650 H 74.3568 -2.86005 2.76489 0
M  V30 651 H 71.0958 -3.15019 5.74842 0
M  V30 652 H 70.6158 -4.13352 4.34627 0
M  V30 653 H 72.2948 -4.17953 4.93887 0
M  V30 654 N 72.4269 -1.23603 -0.977757 0
M  V30 655 C 73.3899 -1.02069 -2.05218 0
M  V30 656 C 74.3899 0.0184305 -1.60789 0
M  V30 657 O 75.5799 -0.221569 -1.72785 0
M  V30 658 C 72.7119 -0.544926 -3.36517 0
M  V30 659 H 73.9049 -1.9742 -2.25755 0
M  V30 660 H 71.4579 -1.05684 -1.15155 0
M  V30 661 H 72.1929 0.412241 -3.21669 0
M  V30 662 H 71.9779 -1.2948 -3.70105 0
M  V30 663 H 73.4679 -0.414985 -4.15533 0
M  V30 664 N 73.905 1.17692 -1.04816 0
M  V30 665 C 74.837 2.21103 -0.603822 0
M  V30 666 C 75.85 1.59411 0.33046 0
M  V30 667 O 77.039 1.7807 0.12379 0
M  V30 668 C 74.139 3.38623 0.136898 0
M  V30 669 C 73.312 4.29888 -0.807137 0
M  V30 670 C 72.371 5.26088 -0.10836 0
M  V30 671 O 71.397 5.64353 -0.741232 0
M  V30 672 N 72.599 5.68882 1.15558 0
M  V30 673 H 75.364 2.59848 -1.49329 0
M  V30 674 H 72.925 1.32553 -0.929587 0
M  V30 675 H 74.917 4.00009 0.614401 0
M  V30 676 H 73.487 2.98508 0.927993 0
M  V30 677 H 72.707 3.65993 -1.46434 0
M  V30 678 H 73.995 4.87759 -1.44807 0
M  V30 679 H 73.393 5.39861 1.69015 0
M  V30 680 H 71.95 6.32429 1.57722 0
M  V30 681 N 75.3831 0.828654 1.34056 0
M  V30 682 C 76.7991 0.515135 1.51058 0
M  V30 683 C 76.9991 -0.959581 1.77184 0
M  V30 684 O 76.0551 -1.74382 1.82612 0
M  V30 685 C 77.3681 1.37963 2.67183 0
M  V30 686 C 78.9161 1.37735 2.81066 0
M  V30 687 C 79.3911 2.22645 4.00241 0
M  V30 688 N 80.8821 2.203 4.07458 0
M  V30 689 C 81.6171 2.82744 4.98842 0
M  V30 690 N 81.1131 3.54201 5.9541 0
M  V30 691 N 82.9061 2.72268 4.91759 0
M  V30 692 H 75.0571 1.78343 1.15358 0
M  V30 693 H 77.3201 0.760304 0.566252 0
M  V30 694 H 77.0261 2.42714 2.54525 0
M  V30 695 H 76.9001 1.0484 3.62338 0
M  V30 696 H 79.2871 0.337593 2.93163 0
M  V30 697 H 79.3681 1.74859 1.86703 0
M  V30 698 H 79.0121 3.26674 3.88905 0
M  V30 699 H 78.9421 1.82869 4.93829 0
M  V30 700 H 81.4331 1.68327 3.38341 0
M  V30 701 H 81.7461 3.9908 6.61782 0
M  V30 702 H 80.0911 3.58308 5.95517 0
M  V30 703 H 83.2821 2.16014 4.15278 0
M  V30 704 H 83.4551 3.21219 5.62781 0
M  V30 705 N 76.8612 -1.46375 0.584142 0
M  V30 706 C 77.8242 -2.28784 -0.138108 0
M  V30 707 C 78.8242 -1.38471 -0.817462 0
M  V30 708 O 80.0142 -1.60833 -0.669199 0
M  V30 709 C 77.1462 -3.18892 -1.20503 0
M  V30 710 H 78.3392 -2.94117 0.586127 0
M  V30 711 H 75.8922 -1.52509 0.342171 0
M  V30 712 H 76.6272 -2.58309 -1.96079 0
M  V30 713 H 76.4122 -3.85388 -0.722384 0
M  V30 714 H 77.9022 -3.80914 -1.71155 0
M  V30 715 N 78.3393 -0.321999 -1.54275 0
M  V30 716 C 79.7553 0.0306999 -1.5957 0
M  V30 717 C 79.9553 1.50614 -1.33857 0
M  V30 718 O 79.0113 2.2619 -1.12223 0
M  V30 719 C 80.3243 -0.386122 -2.98211 0
M  V30 720 C 81.8723 -0.336647 -3.11184 0
M  V30 721 C 82.3473 -0.728607 -4.52167 0
M  V30 722 N 83.8383 -0.681952 -4.58152 0
M  V30 723 C 84.5733 -0.957449 -5.6535 0
M  V30 724 N 84.0693 -1.3 -6.80494 0
M  V30 725 N 85.8623 -0.883113 -5.55119 0
M  V30 726 H 78.0133 -1.28332 -1.69247 0
M  V30 727 H 80.2763 -0.521716 -0.791528 0
M  V30 728 H 79.9823 -1.41404 -3.22022 0
M  V30 729 H 79.8563 0.249662 -3.76373 0
M  V30 730 H 82.2433 0.682058 -2.8711 0
M  V30 731 H 82.3243 -1.00734 -2.3513 0
M  V30 732 H 81.9683 -1.74522 -4.76974 0
M  V30 733 H 81.8983 -0.0356152 -5.26588 0
M  V30 734 H 84.3893 -0.428985 -3.75457 0
M  V30 735 H 84.7023 -1.49563 -7.58189 0
M  V30 736 H 83.0473 -1.33824 -6.81994 0
M  V30 737 H 86.2383 -0.615001 -4.64042 0
M  V30 738 H 86.4113 -1.10118 -6.38575 0
M  V30 739 N 79.8174 1.5752 -0.0501392 0
M  V30 740 C 81.0454 1.96963 0.633492 0
M  V30 741 C 81.4604 0.927631 1.6444 0
M  V30 742 O 80.8174 -0.0882665 1.82286 0
M  V30 743 C 80.8684 3.36487 1.32132 0
M  V30 744 O 80.5894 4.36693 0.350894 0
M  V30 745 C 82.0904 3.90682 2.09481 0
M  V30 746 H 79.3104 0.648244 0.173266 0
M  V30 747 H 81.8544 2.0417 -0.116134 0
M  V30 748 H 80.0094 3.30434 2.02218 0
M  V30 749 H 80.4234 5.17702 0.841735 0
M  V30 750 H 81.8974 4.90591 2.5303 0
M  V30 751 H 82.3744 3.26053 2.94255 0
M  V30 752 H 82.9804 4.00069 1.44307 0
M  V30 753 N 81.2955 -0.223234 1.56011 0
M  V30 754 C 82.2285 -1.30377 1.87289 0
M  V30 755 C 83.2065 -1.45286 0.730112 0
M  V30 756 O 84.3905 -1.61126 0.978302 0
M  V30 757 C 81.5175 -2.67431 2.07843 0
M  V30 758 C 80.5635 -2.69546 3.30526 0
M  V30 759 S 81.3965 -2.23781 4.865 0
M  V30 760 C 82.5525 -3.62714 5.10088 0
M  V30 761 H 82.7855 -1.03652 2.78646 0
M  V30 762 H 80.3185 -0.425393 1.48424 0
M  V30 763 H 82.2765 -3.46336 2.20368 0
M  V30 764 H 80.9375 -2.91381 1.17285 0
M  V30 765 H 80.1305 -3.70255 3.41947 0
M  V30 766 H 79.7325 -1.98703 3.16849 0
M  V30 767 H 82.0245 -4.58391 4.98883 0
M  V30 768 H 82.9675 -3.5621 6.11981 0
M  V30 769 H 83.3755 -3.56323 4.37829 0
M  V30 770 N 82.7736 -1.49793 -0.48987 0
M  V30 771 C 83.7366 -1.66752 -1.57246 0
M  V30 772 C 84.7366 -0.538867 -1.51502 0
M  V30 773 O 85.9266 -0.805545 -1.54456 0
M  V30 774 C 83.0586 -1.67528 -2.96896 0
M  V30 775 H 84.2516 -2.63321 -1.43534 0
M  V30 776 H 81.8046 -1.38992 -0.714914 0
M  V30 777 H 82.5396 -0.725837 -3.16073 0
M  V30 778 H 82.3246 -2.49504 -3.02473 0
M  V30 779 H 83.8146 -1.82667 -3.7553 0
M  V30 780 N 84.2517 0.741722 -1.39055 0
M  V30 781 C 85.1817 1.869 -1.39966 0
M  V30 782 C 86.1627 1.6804 -0.26392 0
M  V30 783 O 87.3477 1.88458 -0.468755 0
M  V30 784 C 84.4777 3.24572 -1.23574 0
M  V30 785 C 83.4317 3.58056 -2.34477 0
M  V30 786 C 82.7577 4.94593 -2.0318 0
M  V30 787 C 84.0577 3.61716 -3.76774 0
M  V30 788 H 85.7517 1.86395 -2.34302 0
M  V30 789 H 83.2977 0.895361 -1.1278 0
M  V30 790 H 85.2507 4.031 -1.22834 0
M  V30 791 H 83.9747 3.25587 -0.257045 0
M  V30 792 H 82.6337 2.81854 -2.34423 0
M  V30 793 H 82.2817 4.92181 -1.03765 0
M  V30 794 H 81.9817 5.17964 -2.77465 0
M  V30 795 H 83.5057 5.75486 -2.04079 0
M  V30 796 H 84.9197 4.30335 -3.78794 0
M  V30 797 H 83.3167 3.96603 -4.50362 0
M  V30 798 H 84.3867 2.61672 -4.08235 0
M  V30 799 N 85.7298 1.2412 0.971189 0
M  V30 800 C 86.9598 1.10415 1.7462 0
M  V30 801 C 87.3678 -0.346462 1.86001 0
M  V30 802 O 86.7108 -1.25104 1.34517 0
M  V30 803 C 86.7728 1.66596 3.18568 0
M  V30 804 C 86.4368 3.15446 3.3067 0
M  V30 805 C 87.4338 4.12636 3.16271 0
M  V30 806 C 85.1188 3.55337 3.55022 0
M  V30 807 C 87.1128 5.47699 3.26044 0
M  V30 808 C 84.7998 4.90542 3.64434 0
M  V30 809 C 85.7978 5.86532 3.49956 0
M  V30 810 O 85.4858 7.19279 3.59017 0
M  V30 811 H 85.2178 0.386616 0.55453 0
M  V30 812 H 87.7718 1.64633 1.22821 0
M  V30 813 H 86.0018 1.06808 3.71657 0
M  V30 814 H 87.6908 1.48232 3.77865 0
M  V30 815 H 88.4568 3.8316 2.97344 0
M  V30 816 H 84.3358 2.8113 3.65359 0
M  V30 817 H 87.8798 6.22603 3.14661 0
M  V30 818 H 83.7768 5.19691 3.82873 0
M  V30 819 H 84.5448 7.27153 3.75754 0
M  V30 820 N 87.2079 -1.17134 1.05439 0
M  V30 821 C 88.1559 -2.23289 0.651511 0
M  V30 822 C 89.1499 -1.66186 -0.328411 0
M  V30 823 O 90.3559 -1.78949 -0.194206 0
M  V30 824 H 86.7309 -0.726938 0.192523 0
M  V30 825 H 88.7019 -2.54565 1.55689 0
M  V30 826 C 87.4509 -3.47671 0.0448436 0
M  V30 827 H 86.7739 -3.91918 0.78996 0
M  V30 828 H 88.2139 -4.2353 -0.19964 0
M  V30 829 C 86.6729 -3.14453 -1.20918 0
M  V30 830 O 87.2029 -3.29459 -2.29825 0
M  V30 831 N 85.4089 -2.68657 -1.10779 0
M  V30 832 H 84.9559 -2.56646 -0.221526 0
M  V30 833 H 84.9139 -2.46804 -1.9477 0
M  V30 834 N 88.686 -0.835752 -1.33615 0
M  V30 835 C 90.097 -0.487099 -1.80234 0
M  V30 836 C 90.448 0.993627 -1.69179 0
M  V30 837 O 89.573 1.77403 -1.23924 0
M  V30 838 C 90.168 -0.877385 -3.27242 0
M  V30 839 C 88.727 -0.580915 -3.7189 0
M  V30 840 C 87.874 -1.0874 -2.5509 0
M  V30 841 H 90.825 -1.02474 -1.2118 0
M  V30 842 H 90.846 -0.186195 -3.80044 0
M  V30 843 H 90.358 -1.95512 -3.35256 0
M  V30 844 H 88.459 0.486881 -3.69405 0
M  V30 845 H 88.572 -1.13396 -4.65487 0
M  V30 846 H 86.936 -0.508392 -2.49575 0
M  V30 847 H 87.719 -2.17184 -2.65868 0
M  V30 848 N 90.1641 1.46063 -0.591896 0
M  V30 849 C 91.4131 2.01547 -0.0786637 0
M  V30 850 C 91.7261 1.46796 1.29268 0
M  V30 851 O 92.9321 1.94157 1.89777 0
M  V30 852 C 91.3881 3.59787 -0.0900024 0
M  V30 853 C 90.9961 4.23534 -1.46023 0
M  V30 854 C 92.7401 4.22895 0.368806 0
M  V30 855 C 90.6471 5.73881 -1.4288 0
M  V30 856 H 89.5771 0.753564 -0.0256388 0
M  V30 857 H 92.2281 1.677 -0.744905 0
M  V30 858 H 90.6101 3.90752 0.642586 0
M  V30 859 H 91.7841 4.04167 -2.21328 0
M  V30 860 H 90.0991 3.72558 -1.85982 0
M  V30 861 H 92.6961 5.33116 0.411258 0
M  V30 862 H 93.0391 3.9247 1.38827 0
M  V30 863 H 93.5721 3.9659 -0.31001 0
M  V30 864 H 90.3111 6.0898 -2.42536 0
M  V30 865 H 89.8311 5.95486 -0.718095 0
M  V30 866 H 91.5101 6.36776 -1.14565 0
M  V30 867 N 91.6422 0.330177 1.54103 0
M  V30 868 C 93.0532 -0.15652 1.86043 0
M  V30 869 C 93.4042 -1.51086 1.2517 0
M  V30 870 O 92.5292 -2.09023 0.560217 0
M  V30 871 C 93.1242 -0.290784 3.3755 0
M  V30 872 C 91.6832 -0.721705 3.69416 0
M  V30 873 C 90.8302 0.152622 2.7688 0
M  V30 874 H 93.7812 0.550237 1.48856 0
M  V30 875 H 93.8022 -1.12058 3.63625 0
M  V30 876 H 93.3142 0.695068 3.81825 0
M  V30 877 H 91.4152 -1.71706 3.30678 0
M  V30 878 H 91.5282 -0.520869 4.7626 0
M  V30 879 H 89.8922 -0.372894 2.51956 0
M  V30 880 H 90.6752 1.13536 3.23982 0
M  V30 881 N 93.1203 -1.57491 0.0584922 0
M  V30 882 C 94.3663 -1.93264 -0.614558 0
M  V30 883 C 94.6993 -0.937717 -1.7006 0
M  V30 884 O 93.9743 0.0351652 -1.94468 0
M  V30 885 C 94.2573 -3.3938 -1.20386 0
M  V30 886 C 94.1103 -4.49625 -0.125375 0
M  V30 887 C 95.4293 -3.86039 -2.11334 0
M  V30 888 H 92.5483 -0.702791 -0.221933 0
M  V30 889 H 95.1903 -1.8961 0.12175 0
M  V30 890 H 93.3403 -3.42626 -1.83139 0
M  V30 891 H 95.0123 -4.58506 0.506971 0
M  V30 892 H 93.2553 -4.30354 0.545672 0
M  V30 893 H 93.9263 -5.48967 -0.577861 0
M  V30 894 H 96.4023 -3.84716 -1.58534 0
M  V30 895 H 95.2783 -4.88914 -2.49507 0
M  V30 896 H 95.5393 -3.23215 -3.01636 0
M  V30 897 N 94.5984 0.214957 -1.56127 0
M  V30 898 C 95.5454 1.26642 -1.92952 0
M  V30 899 C 96.5154 1.46244 -0.78753 0
M  V30 900 O 97.7004 1.59704 -1.04399 0
M  V30 901 C 94.8404 2.6104 -2.25726 0
M  V30 902 C 93.9534 2.49183 -3.52891 0
M  V30 903 C 93.0884 3.76149 -3.7508 0
M  V30 904 C 92.1274 3.59041 -4.95738 0
M  V30 905 N 91.2644 4.77972 -5.14283 0
M  V30 906 H 96.1044 0.945384 -2.82607 0
M  V30 907 H 93.6414 0.455489 -1.3987 0
M  V30 908 H 95.5994 3.39313 -2.42739 0
M  V30 909 H 94.2294 2.91227 -1.39236 0
M  V30 910 H 93.2814 1.6231 -3.44034 0
M  V30 911 H 94.5934 2.32466 -4.41318 0
M  V30 912 H 93.7474 4.62865 -3.92226 0
M  V30 913 H 92.4864 3.95799 -2.84947 0
M  V30 914 H 91.4914 2.7071 -4.78535 0
M  V30 915 H 92.7164 3.40856 -5.87362 0
M  V30 916 H 90.6624 4.97923 -4.27093 0
M  V30 917 H 90.5794 4.64006 -5.96853 0
M  V30 918 H 91.8474 5.66096 -5.35869 0
M  V30 919 N 96.0765 1.50051 0.48192 0
M  V30 920 C 97.0085 1.64263 1.59844 0
M  V30 921 C 98.0215 0.52451 1.54119 0
M  V30 922 O 99.2105 0.797293 1.59704 0
M  V30 923 C 96.3105 1.60102 2.98698 0
M  V30 924 C 95.4835 2.87767 3.29407 0
M  V30 925 C 94.5425 2.76397 4.47762 0
M  V30 926 O 93.5685 3.50348 4.48603 0
M  V30 927 N 94.7705 1.89222 5.48794 0
M  V30 928 H 97.5355 2.60566 1.48073 0
M  V30 929 H 95.0965 1.47379 0.670149 0
M  V30 930 H 97.0885 1.50123 3.75826 0
M  V30 931 H 95.6585 0.715798 3.04294 0
M  V30 932 H 94.8785 3.11954 2.40994 0
M  V30 933 H 96.1665 3.72365 3.4673 0
M  V30 934 H 95.5645 1.28434 5.50928 0
M  V30 935 H 94.1215 1.85154 6.24949 0
M  V30 936 N 97.5546 -0.734337 1.39446 0
M  V30 937 C 98.5026 -1.86971 1.38364 0
M  V30 938 C 99.4966 -1.67288 0.266687 0
M  V30 939 O 100.703 -1.74621 0.436755 0
M  V30 940 H 97.0776 -0.615474 0.432082 0
M  V30 941 H 99.0486 -1.85 2.34132 0
M  V30 942 C 97.7976 -3.2466 1.24465 0
M  V30 943 H 97.1206 -3.40402 2.09682 0
M  V30 944 H 98.5606 -4.04292 1.27764 0
M  V30 945 C 97.0196 -3.36867 -0.0468674 0
M  V30 946 O 97.5496 -3.88618 -1.01681 0
M  V30 947 N 95.7556 -2.90391 -0.110145 0
M  V30 948 H 95.3026 -2.48466 0.679868 0
M  V30 949 H 95.2606 -2.98939 -0.973799 0
M  V30 950 N 99.0327 -1.24633 -0.964593 0
M  V30 951 C 100.273 -1.09981 -1.72289 0
M  V30 952 C 100.637 0.354792 -1.88693 0
M  V30 953 O 101.838 0.62289 -2.61483 0
M  V30 954 C 100.109 -1.82262 -3.07434 0
M  V30 955 S 101.668 -1.83379 -3.98645 0
M  V30 956 H 98.4857 -0.393292 -0.59232 0
M  V30 957 H 101.088 -1.58009 -1.15123 0
M  V30 958 H 99.7917 -2.87206 -2.93157 0
M  V30 959 H 99.3227 -1.3458 -3.69664 0
M  V30 960 H 101.338 -0.903691 -4.87901 0
M  V30 961 N 100.511 1.16574 -1.06058 0
M  V30 962 C 101.758 1.87047 -0.775873 0
M  V30 963 C 102.086 1.81562 0.697534 0
M  V30 964 O 101.341 1.22445 1.52662 0
M  V30 965 C 101.64 3.36195 -1.21275 0
M  V30 966 C 101.306 3.6188 -2.68986 0
M  V30 967 C 99.9678 3.68599 -3.09335 0
M  V30 968 C 102.32 3.72648 -3.64394 0
M  V30 969 C 99.6478 3.83584 -4.43937 0
M  V30 970 C 102 3.89154 -4.98741 0
M  V30 971 C 100.664 3.94114 -5.3873 0
M  V30 972 H 99.9338 0.684452 -0.283912 0
M  V30 973 H 102.581 1.37853 -1.32925 0
M  V30 974 H 100.886 3.87505 -0.578528 0
M  V30 975 H 102.583 3.89103 -0.969542 0
M  V30 976 H 99.1728 3.57281 -2.36744 0
M  V30 977 H 103.357 3.66769 -3.34356 0
M  V30 978 H 98.6128 3.85677 -4.74409 0
M  V30 979 H 102.787 3.96427 -5.72554 0
M  V30 980 H 100.414 4.05478 -6.43033 0
M  V30 981 N 101.989 0.842826 1.3317 0
M  V30 982 C 103.217 0.454055 2.01856 0
M  V30 983 C 103.632 -0.94587 1.63397 0
M  V30 984 O 102.989 -1.61534 0.849302 0
M  V30 985 C 103.04 0.569715 3.56982 0
M  V30 986 O 102.761 1.91448 3.94055 0
M  V30 987 C 104.262 0.178412 4.42941 0
M  V30 988 H 101.482 0.17979 0.646465 0
M  V30 989 H 104.026 1.1365 1.70012 0
M  V30 990 H 102.181 -0.0648587 3.87346 0
M  V30 991 H 102.595 1.90282 4.88767 0
M  V30 992 H 104.069 0.310376 5.51127 0
M  V30 993 H 104.546 -0.880056 4.30293 0
M  V30 994 H 105.152 0.787579 4.17944 0
M  V30 995 N 103.467 -1.45747 0.599634 0
M  V30 996 C 104.713 -2.02592 0.0918643 0
M  V30 997 C 105.046 -1.46806 -1.27128 0
M  V30 998 O 104.321 -0.639658 -1.83681 0
M  V30 999 C 104.604 -3.60073 0.0443398 0
M  V30 1000 C 104.457 -4.26208 1.43759 0
M  V30 1001 C 105.776 -4.35309 -0.647608 0
M  V30 1002 H 102.895 -0.736175 0.034857 0
M  V30 1003 H 105.537 -1.73694 0.770081 0
M  V30 1004 H 103.687 -3.84823 -0.533224 0
M  V30 1005 H 105.359 -4.12668 2.06162 0
M  V30 1006 H 103.602 -3.84916 2.00056 0
M  V30 1007 H 104.273 -5.35069 1.35665 0
M  V30 1008 H 106.749 -4.15805 -0.156776 0
M  V30 1009 H 105.625 -5.45038 -0.649942 0
M  V30 1010 H 105.886 -4.07598 -1.71219 0
M  V30 1011 N 104.945 -0.338344 -1.53925 0
M  V30 1012 C 105.893 0.536231 -2.26335 0
M  V30 1013 C 106.887 1.1063 -1.28286 0
M  V30 1014 O 108.093 1.05264 -1.46012 0
M  V30 1015 H 104.468 0.191602 -0.727181 0
M  V30 1016 H 106.439 -0.0965747 -2.98244 0
M  V30 1017 C 105.188 1.67803 -3.04528 0
M  V30 1018 H 104.511 1.24864 -3.79801 0
M  V30 1019 H 105.951 2.26526 -3.58416 0
M  V30 1020 C 104.41 2.60439 -2.13712 0
M  V30 1021 O 104.94 3.6255 -1.72975 0
M  V30 1022 N 103.146 2.29006 -1.78898 0
M  V30 1023 H 102.693 1.46011 -2.12223 0
M  V30 1024 H 102.651 2.91248 -1.18416 0
M  V30 1025 N 106.423 1.57458 -0.0668435 0
M  V30 1026 C 107.839 1.56947 0.289772 0
M  V30 1027 C 108.039 1.07584 1.70376 0
M  V30 1028 O 107.095 0.739486 2.41429 0
M  V30 1029 C 108.408 3.0052 0.103943 0
M  V30 1030 C 109.956 3.12517 0.173857 0
M  V30 1031 C 110.431 4.57997 0.0163682 0
M  V30 1032 N 111.922 4.63144 0.0721352 0
M  V30 1033 C 112.657 5.73394 -0.0253794 0
M  V30 1034 N 112.153 6.92576 -0.176133 0
M  V30 1035 N 113.946 5.62091 0.0313305 0
M  V30 1036 H 106.097 1.87863 -0.991027 0
M  V30 1037 H 108.36 0.86583 -0.38606 0
M  V30 1038 H 108.066 3.40729 -0.871572 0
M  V30 1039 H 107.94 3.67304 0.858366 0
M  V30 1040 H 110.327 2.72197 1.13985 0
M  V30 1041 H 110.408 2.48381 -0.611586 0
M  V30 1042 H 110.052 4.99005 -0.946374 0
M  V30 1043 H 109.982 5.20158 0.821153 0
M  V30 1044 H 112.473 3.77436 0.187263 0
M  V30 1045 H 112.786 7.72418 -0.242821 0
M  V30 1046 H 111.131 6.94678 -0.211429 0
M  V30 1047 H 114.322 4.67867 0.147773 0
M  V30 1048 H 114.495 6.47982 -0.048121 0
M  V30 1049 N 107.901 -0.206675 1.56239 0
M  V30 1050 C 109.126 -0.949474 1.8439 0
M  V30 1051 C 109.551 -1.76549 0.649016 0
M  V30 1052 O 108.909 -1.76782 -0.402231 0
M  V30 1053 C 108.957 -1.83078 3.10668 0
M  V30 1054 O 108.061 -2.9281 2.90407 0
M  V30 1055 H 107.402 -0.268033 0.607499 0
M  V30 1056 H 109.932 -0.215488 2.03462 0
M  V30 1057 H 109.942 -2.2377 3.41161 0
M  V30 1058 H 108.617 -1.23112 3.97261 0
M  V30 1059 H 107.194 -2.55956 2.71184 0
M  V30 1060 N 109.379 -1.50304 -0.473955 0
M  V30 1061 C 110.309 -1.71886 -1.58042 0
M  V30 1062 C 111.29 -0.567799 -1.60344 0
M  V30 1063 O 112.475 -0.806623 -1.76656 0
M  V30 1064 C 109.605 -1.81036 -2.96384 0
M  V30 1065 C 108.559 -2.962 -3.08949 0
M  V30 1066 C 107.885 -2.9049 -4.48909 0
M  V30 1067 C 109.185 -4.36752 -2.86434 0
M  V30 1068 H 110.879 -2.64527 -1.40234 0
M  V30 1069 H 108.425 -1.27295 -0.673201 0
M  V30 1070 H 110.378 -1.94719 -3.73714 0
M  V30 1071 H 109.102 -0.850147 -3.15341 0
M  V30 1072 H 107.761 -2.82164 -2.3405 0
M  V30 1073 H 107.409 -1.92321 -4.64781 0
M  V30 1074 H 107.109 -3.67802 -4.58253 0
M  V30 1075 H 108.633 -3.06218 -5.28264 0
M  V30 1076 H 110.047 -4.5133 -3.53517 0
M  V30 1077 H 108.444 -5.15493 -3.07225 0
M  V30 1078 H 109.514 -4.49321 -1.82316 0
M  V30 1079 N 110.857 0.726932 -1.39834 0
M  V30 1080 C 112.104 1.48664 -1.37496 0
M  V30 1081 C 112.432 1.94482 0.0264678 0
M  V30 1082 O 111.687 1.67692 1.00886 0
M  V30 1083 C 111.986 2.73495 -2.30077 0
M  V30 1084 C 111.652 2.46502 -3.77555 0
M  V30 1085 C 110.314 2.3885 -4.17737 0
M  V30 1086 C 112.666 2.23604 -4.70798 0
M  V30 1087 C 109.994 2.06352 -5.49214 0
M  V30 1088 C 112.346 1.92622 -6.02561 0
M  V30 1089 C 111.01 1.83444 -6.41798 0
M  V30 1090 H 110.28 0.544001 -0.503135 0
M  V30 1091 H 112.927 0.833657 -1.72402 0
M  V30 1092 H 111.232 3.43575 -1.88317 0
M  V30 1093 H 112.929 3.31549 -2.25558 0
M  V30 1094 H 109.519 2.5334 -3.45712 0
M  V30 1095 H 113.703 2.28479 -4.40581 0
M  V30 1096 H 108.959 1.97776 -5.78528 0
M  V30 1097 H 113.133 1.73914 -6.74334 0
M  V30 1098 H 110.76 1.58029 -7.43593 0
M  V30 1099 N 112.336 1.25143 0.95797 0
M  V30 1100 C 113.582 1.09855 1.70469 0
M  V30 1101 C 113.915 -0.360187 1.90831 0
M  V30 1102 O 113.19 -1.26568 1.47685 0
M  V30 1103 C 113.473 1.8497 3.08963 0
M  V30 1104 C 113.326 3.38652 2.96032 0
M  V30 1105 C 114.645 1.63016 4.08795 0
M  V30 1106 H 111.764 0.400465 0.618706 0
M  V30 1107 H 114.406 1.53933 1.11376 0
M  V30 1108 H 112.556 1.47505 3.59409 0
M  V30 1109 H 114.228 3.85772 2.52938 0
M  V30 1110 H 112.471 3.66534 2.32025 0
M  V30 1111 H 113.142 3.8642 3.94187 0
M  V30 1112 H 115.618 1.95625 3.67247 0
M  V30 1113 H 114.494 2.18015 5.03747 0
M  V30 1114 H 114.755 0.570692 4.38401 0
M  V30 1115 N 113.814 -1.1601 1.06675 0
M  V30 1116 C 115.061 -1.86633 0.785781 0
M  V30 1117 C 115.389 -1.81929 -0.687896 0
M  V30 1118 O 114.644 -1.23253 -1.52011 0
M  V30 1119 C 114.943 -3.35547 1.23057 0
M  V30 1120 C 114.609 -3.60448 2.70902 0
M  V30 1121 C 113.271 -3.66954 3.11285 0
M  V30 1122 C 115.623 -3.7071 3.66365 0
M  V30 1123 C 112.951 -3.81225 4.45965 0
M  V30 1124 C 115.303 -3.86503 5.00797 0
M  V30 1125 C 113.967 -3.91252 5.40813 0
M  V30 1126 H 113.237 -0.682937 0.287538 0
M  V30 1127 H 115.884 -1.37146 1.33654 0
M  V30 1128 H 114.189 -3.87193 0.59907 0
M  V30 1129 H 115.886 -3.88583 0.990163 0
M  V30 1130 H 112.476 -3.56021 2.38636 0
M  V30 1131 H 116.66 -3.64991 3.36296 0
M  V30 1132 H 111.916 -3.83155 4.76447 0
M  V30 1133 H 116.09 -3.93385 5.74649 0
M  V30 1134 H 113.717 -4.02062 6.45174 0
M  V30 1135 N 115.292 -0.849877 -1.32721 0
M  V30 1136 C 116.517 -0.463856 -2.02146 0
M  V30 1137 C 116.942 0.930449 -1.63476 0
M  V30 1138 O 116.3 1.61033 -0.832952 0
M  V30 1139 C 116.348 -0.604955 -3.55489 0
M  V30 1140 O 115.452 0.36425 -4.10788 0
M  V30 1141 H 114.793 -0.187046 -0.637111 0
M  V30 1142 H 117.323 -1.14775 -1.69375 0
M  V30 1143 H 117.333 -0.490696 -4.05038 0
M  V30 1144 H 116.008 -1.62174 -3.82978 0
M  V30 1145 H 114.585 0.206628 -3.72327 0
M  V30 1146 N 116.77 1.45427 -0.607355 0
M  V30 1147 C 117.68 2.34325 0.113463 0
M  V30 1148 C 118.696 1.51226 0.860617 0
M  V30 1149 O 119.872 1.84029 0.818255 0
M  V30 1150 C 116.937 3.28839 1.09844 0
M  V30 1151 C 115.998 4.27844 0.353271 0
M  V30 1152 C 115.231 5.17842 1.29133 0
M  V30 1153 O 115.454 5.11264 2.52913 0
M  V30 1154 O 114.388 5.96713 0.788523 0
M  V30 1155 H 118.214 2.97364 -0.617094 0
M  V30 1156 H 115.799 1.44807 -0.367619 0
M  V30 1157 H 117.681 3.8708 1.66575 0
M  V30 1158 H 116.356 2.68365 1.81003 0
M  V30 1159 H 115.263 3.7322 -0.256494 0
M  V30 1160 H 116.596 4.91173 -0.317822 0
M  V30 1161 N 118.248 0.346503 1.53744 0
M  V30 1162 C 119.525 -0.304532 1.93215 0
M  V30 1163 C 119.905 -1.67993 1.27834 0
M  V30 1164 O 119.253 -2.24411 0.430352 0
M  V30 1165 C 119.463 -0.373852 3.46992 0
M  V30 1166 C 120.811 -0.62329 4.2 0
M  V30 1167 O 121.835 -0.455847 3.53271 0
M  V30 1168 O 120.694 -0.947879 5.38217 0
M  V30 1169 H 117.788 -0.178318 0.807547 0
M  V30 1170 H 120.334 0.397895 1.64969 0
M  V30 1171 H 119.106 0.591224 3.86808 0
M  V30 1172 H 118.729 -1.12294 3.81413 0
M  V30 1173 N 119.726 -1.57421 0.075193 0
M  V30 1174 C 120.674 -2.14124 -0.908508 0
M  V30 1175 C 121.668 -1.07898 -1.30592 0
M  V30 1176 O 122.874 -1.26273 -1.28277 0
M  V30 1177 H 119.249 -0.684707 -0.310935 0
M  V30 1178 H 121.22 -2.95634 -0.405374 0
M  V30 1179 C 119.969 -2.72044 -2.16535 0
M  V30 1180 H 119.292 -3.53456 -1.86839 0
M  V30 1181 H 120.732 -3.15311 -2.83469 0
M  V30 1182 C 119.191 -1.66968 -2.92615 0
M  V30 1183 O 119.721 -1.0967 -3.86439 0
M  V30 1184 N 117.927 -1.37923 -2.55784 0
M  V30 1185 H 117.474 -1.84706 -1.79559 0
M  V30 1186 H 117.432 -0.67852 -3.06991 0
M  V30 1187 N 121.204 0.198386 -1.56346 0
M  V30 1188 C 122.45 0.920648 -1.80698 0
M  V30 1189 C 122.783 1.83045 -0.648697 0
M  V30 1190 O 122.058 1.91308 0.350925 0
M  V30 1191 C 122.341 1.73971 -3.15287 0
M  V30 1192 C 122.194 0.85485 -4.41602 0
M  V30 1193 C 123.513 2.71296 -3.46535 0
M  V30 1194 H 120.632 0.333261 -0.657348 0
M  V30 1195 H 123.274 0.188198 -1.89066 0
M  V30 1196 H 121.424 2.36416 -3.08285 0
M  V30 1197 H 123.096 0.245362 -4.60647 0
M  V30 1198 H 121.339 0.161398 -4.335 0
M  V30 1199 H 122.01 1.46286 -5.32264 0
M  V30 1200 H 124.486 2.18983 -3.53816 0
M  V30 1201 H 123.362 3.2569 -4.41834 0
M  V30 1202 H 123.623 3.5018 -2.69864 0
M  V30 1203 N 122.682 1.50554 0.465978 0
M  V30 1204 C 123.928 1.62038 1.21949 0
M  V30 1205 C 124.261 0.322116 1.9151 0
M  V30 1206 O 123.536 -0.676723 1.82348 0
M  V30 1207 C 123.819 2.80421 2.25912 0
M  V30 1208 C 123.672 4.20144 1.60622 0
M  V30 1209 C 124.991 2.94354 3.27176 0
M  V30 1210 H 122.11 0.589752 0.441998 0
M  V30 1211 H 124.752 1.82956 0.51257 0
M  V30 1212 H 122.902 2.62717 2.86203 0
M  V30 1213 H 124.574 4.49449 1.03889 0
M  V30 1214 H 122.817 4.24165 0.909211 0
M  V30 1215 H 123.488 4.98914 2.36196 0
M  V30 1216 H 125.964 3.10578 2.76913 0
M  V30 1217 H 124.84 3.788 3.97242 0
M  V30 1218 H 125.101 2.05186 3.916 0
M  V30 1219 N 124.16 -0.719506 1.40217 0
M  V30 1220 C 125.576 -1.02707 1.22161 0
M  V30 1221 C 125.776 -2.0128 0.0940557 0
M  V30 1222 O 124.832 -2.46452 -0.549318 0
M  V30 1223 C 126.145 -1.57454 2.56181 0
M  V30 1224 C 127.693 -1.69458 2.63159 0
M  V30 1225 C 128.168 -2.27611 3.97438 0
M  V30 1226 N 129.659 -2.35002 3.99159 0
M  V30 1227 C 130.394 -2.80972 4.99842 0
M  V30 1228 N 129.89 -3.26723 6.10921 0
M  V30 1229 N 131.683 -2.80321 4.87213 0
M  V30 1230 H 123.834 -0.0660492 2.12297 0
M  V30 1231 H 126.097 -0.0919077 0.943534 0
M  V30 1232 H 125.803 -0.924873 3.39321 0
M  V30 1233 H 125.677 -2.56036 2.76993 0
M  V30 1234 H 128.064 -2.33543 1.80393 0
M  V30 1235 H 128.145 -0.694867 2.46181 0
M  V30 1236 H 127.789 -1.6415 4.80643 0
M  V30 1237 H 127.719 -3.2829 4.11744 0
M  V30 1238 H 130.21 -2.02685 3.18947 0
M  V30 1239 H 130.523 -3.60355 6.8364 0
M  V30 1240 H 128.868 -3.24692 6.14492 0
M  V30 1241 H 132.059 -2.43912 3.9953 0
M  V30 1242 H 132.232 -3.15831 5.65822 0
M  V30 1243 N 125.638 -1.25649 -0.95132 0
M  V30 1244 C 126.585 -1.06323 -2.04851 0
M  V30 1245 C 127.555 0.0286491 -1.66075 0
M  V30 1246 O 128.74 -0.12917 -1.90362 0
M  V30 1247 C 125.88 -0.691529 -3.381 0
M  V30 1248 C 124.993 -1.85861 -3.89974 0
M  V30 1249 C 124.128 -1.43096 -5.11563 0
M  V30 1250 C 123.167 -2.56696 -5.55674 0
M  V30 1251 N 122.304 -2.14684 -6.68472 0
M  V30 1252 H 127.144 -2.00222 -2.20715 0
M  V30 1253 H 124.681 -0.997027 -1.08156 0
M  V30 1254 H 126.639 -0.456963 -4.1469 0
M  V30 1255 H 125.269 0.210474 -3.22113 0
M  V30 1256 H 124.321 -2.20639 -3.09875 0
M  V30 1257 H 125.633 -2.71161 -4.18657 0
M  V30 1258 H 124.787 -1.15624 -5.9558 0
M  V30 1259 H 123.526 -0.548722 -4.84603 0
M  V30 1260 H 122.531 -2.84909 -4.7022 0
M  V30 1261 H 123.756 -3.45503 -5.8464 0
M  V30 1262 H 121.702 -1.28881 -6.43215 0
M  V30 1263 H 121.619 -2.9353 -6.96689 0
M  V30 1264 H 122.887 -1.90397 -7.5589 0
M  V30 1265 N 127.117 1.15442 -1.07289 0
M  V30 1266 C 128.347 1.89821 -0.815576 0
M  V30 1267 C 128.755 1.7823 0.634867 0
M  V30 1268 O 128.098 1.13152 1.44715 0
M  V30 1269 C 128.16 3.40817 -1.14385 0
M  V30 1270 C 127.824 3.76193 -2.59476 0
M  V30 1271 C 128.821 3.77269 -3.57721 0
M  V30 1272 C 126.506 4.0652 -2.95037 0
M  V30 1273 C 128.5 4.08176 -4.89562 0
M  V30 1274 C 126.187 4.37092 -4.27076 0
M  V30 1275 C 127.185 4.37902 -5.24148 0
M  V30 1276 O 126.873 4.67741 -6.53815 0
M  V30 1277 H 126.605 0.608465 -0.294528 0
M  V30 1278 H 129.159 1.472 -1.43252 0
M  V30 1279 H 127.389 3.83835 -0.469865 0
M  V30 1280 H 129.078 3.96485 -0.869179 0
M  V30 1281 H 129.844 3.5394 -3.3159 0
M  V30 1282 H 125.723 4.05049 -2.20128 0
M  V30 1283 H 129.267 4.08723 -5.65324 0
M  V30 1284 H 125.164 4.59889 -4.5296 0
M  V30 1285 H 125.932 4.85509 -6.58957 0
M  V30 1286 N 128.595 0.856903 1.32268 0
M  V30 1287 C 129.558 0.308171 2.27119 0
M  V30 1288 C 130.558 -0.533421 1.51695 0
M  V30 1289 O 131.748 -0.344607 1.70757 0
M  V30 1290 C 128.88 -0.563757 3.36206 0
M  V30 1291 H 130.073 1.14535 2.77167 0
M  V30 1292 H 127.626 0.631421 1.42978 0
M  V30 1293 H 128.361 -1.42266 2.91429 0
M  V30 1294 H 128.146 0.0386749 3.92081 0
M  V30 1295 H 129.636 -0.940386 4.06874 0
M  V30 1296 N 130.073 -1.45103 0.615059 0
M  V30 1297 C 131.02 -2.30586 -0.0993978 0
M  V30 1298 C 131.99 -1.42544 -0.852669 0
M  V30 1299 O 133.175 -1.71465 -0.836917 0
M  V30 1300 C 130.315 -3.27572 -1.08583 0
M  V30 1301 C 129.428 -4.30717 -0.332656 0
M  V30 1302 C 128.563 -5.14807 -1.30947 0
M  V30 1303 C 127.602 -6.09673 -0.544538 0
M  V30 1304 N 126.739 -6.86517 -1.47101 0
M  V30 1305 H 131.579 -2.91144 0.635542 0
M  V30 1306 H 129.116 -1.4346 0.325206 0
M  V30 1307 H 131.074 -3.82276 -1.67095 0
M  V30 1308 H 129.704 -2.68751 -1.78809 0
M  V30 1309 H 128.756 -3.78615 0.368107 0
M  V30 1310 H 130.068 -4.98102 0.263842 0
M  V30 1311 H 129.222 -5.73948 -1.96643 0
M  V30 1312 H 127.961 -4.47458 -1.9399 0
M  V30 1313 H 126.966 -5.49656 0.126003 0
M  V30 1314 H 128.191 -6.79052 0.080947 0
M  V30 1315 H 126.137 -6.21851 -2.08895 0
M  V30 1316 H 126.054 -7.50281 -0.928137 0
M  V30 1317 H 127.322 -7.50194 -2.11731 0
M  V30 1318 N 131.551 -0.354651 -1.53558 0
M  V30 1319 C 132.967 -0.00315426 -1.596 0
M  V30 1320 C 133.167 1.47741 -1.37021 0
M  V30 1321 O 132.223 2.23759 -1.16996 0
M  V30 1322 C 133.536 -0.44929 -2.97325 0
M  V30 1323 C 135.084 -0.402578 -3.104 0
M  V30 1324 C 135.559 -0.824355 -4.5052 0
M  V30 1325 N 137.05 -0.778979 -4.56603 0
M  V30 1326 C 137.785 -1.07715 -5.63192 0
M  V30 1327 N 137.281 -1.44405 -6.77583 0
M  V30 1328 N 139.074 -1.00066 -5.53121 0
M  V30 1329 H 131.225 -1.31893 -1.66487 0
M  V30 1330 H 133.488 -0.538388 -0.780284 0
M  V30 1331 H 133.194 -1.48202 -3.1895 0
M  V30 1332 H 133.068 0.169772 -3.76818 0
M  V30 1333 H 135.455 0.621004 -2.88492 0
M  V30 1334 H 135.536 -1.05699 -2.32941 0
M  V30 1335 H 135.18 -1.846 -4.73165 0
M  V30 1336 H 135.11 -0.147304 -5.26394 0
M  V30 1337 H 137.601 -0.508528 -3.74463 0
M  V30 1338 H 137.914 -1.65612 -7.54846 0
M  V30 1339 H 136.259 -1.4826 -6.79002 0
M  V30 1340 H 139.45 -0.713293 -4.62633 0
M  V30 1341 H 139.623 -1.23638 -6.36096 0
M  V30 1342 N 133.029 1.57378 -0.0835403 0
M  V30 1343 C 134.278 1.93106 0.582498 0
M  V30 1344 C 134.591 0.96651 1.70053 0
M  V30 1345 O 135.797 1.21705 2.42693 0
M  V30 1346 C 134.253 3.43076 1.08751 0
M  V30 1347 C 133.861 4.48 -0.000146404 0
M  V30 1348 C 135.605 3.87785 1.72694 0
M  V30 1349 C 133.512 5.89113 0.519568 0
M  V30 1350 H 132.442 0.720775 0.221358 0
M  V30 1351 H 135.093 1.82821 -0.157675 0
M  V30 1352 H 133.475 3.48474 1.88101 0
M  V30 1353 H 134.649 4.54233 -0.775199 0
M  V30 1354 H 132.964 4.1283 -0.54406 0
M  V30 1355 H 135.561 4.90604 2.1263 0
M  V30 1356 H 135.904 3.25796 2.59158 0
M  V30 1357 H 136.437 3.8504 0.999457 0
M  V30 1358 H 133.176 6.54775 -0.308186 0
M  V30 1359 H 132.696 5.86376 1.26188 0
M  V30 1360 H 134.375 6.39346 0.992237 0
M  V30 1361 N 134.507 -0.190092 1.56449 0
M  V30 1362 C 135.735 -0.925772 1.85033 0
M  V30 1363 C 136.15 -1.76638 0.666658 0
M  V30 1364 O 135.507 -1.78822 -0.364565 0
M  V30 1365 C 135.558 -1.81786 3.12468 0
M  V30 1366 O 135.279 -1.01118 4.26271 0
M  V30 1367 C 136.78 -2.6648 3.54265 0
M  V30 1368 H 134 -0.269872 0.614337 0
M  V30 1369 H 136.544 -0.195837 2.0356 0
M  V30 1370 H 134.699 -2.50136 2.95822 0
M  V30 1371 H 135.113 -1.61956 4.98869 0
M  V30 1372 H 136.587 -3.24722 4.46385 0
M  V30 1373 H 137.064 -3.40434 2.77491 0
M  V30 1374 H 137.67 -2.03493 3.73458 0
M  V30 1375 N 135.985 -1.50799 -0.457987 0
M  V30 1376 C 136.895 -1.73426 -1.57989 0
M  V30 1377 C 137.911 -0.617745 -1.62665 0
M  V30 1378 O 139.087 -0.897614 -1.80291 0
M  V30 1379 C 136.152 -1.83557 -2.94122 0
M  V30 1380 C 135.213 -3.07345 -2.99729 0
M  V30 1381 C 134.446 -3.16983 -4.29368 0
M  V30 1382 O 134.669 -2.33077 -5.20607 0
M  V30 1383 O 133.603 -4.09812 -4.40837 0
M  V30 1384 H 137.429 -2.68555 -1.41817 0
M  V30 1385 H 135.014 -1.35052 -0.638859 0
M  V30 1386 H 136.896 -1.92326 -3.74952 0
M  V30 1387 H 135.571 -0.916137 -3.10465 0
M  V30 1388 H 134.478 -3.04068 -2.1793 0
M  V30 1389 H 135.811 -3.9891 -2.88326 0
M  V30 1390 N 137.463 0.71206 -1.40597 0
M  V30 1391 C 138.709 1.47292 -1.40274 0
M  V30 1392 C 139.064 1.92399 -0.00576812 0
M  V30 1393 O 138.357 1.65507 0.965297 0
M  V30 1394 C 138.551 2.71039 -2.32965 0
M  V30 1395 C 138.38 2.38035 -3.81536 0
M  V30 1396 C 137.15 2.29203 -4.50327 0
M  V30 1397 C 139.348 2.02076 -4.72938 0
M  V30 1398 N 137.33 1.88911 -5.84111 0
M  V30 1399 C 138.701 1.72412 -5.95545 0
M  V30 1400 C 140.756 1.88742 -4.60739 0
M  V30 1401 C 139.459 1.30756 -7.07316 0
M  V30 1402 C 141.485 1.4849 -5.72455 0
M  V30 1403 C 140.847 1.19726 -6.94151 0
M  V30 1404 H 136.946 0.536919 -0.568544 0
M  V30 1405 H 139.53 0.825424 -1.76337 0
M  V30 1406 H 137.701 3.33533 -1.99023 0
M  V30 1407 H 139.433 3.37404 -2.23474 0
M  V30 1408 H 136.188 2.47059 -4.04053 0
M  V30 1409 H 136.612 1.71293 -6.54972 0
M  V30 1410 H 141.254 2.0964 -3.67166 0
M  V30 1411 H 138.972 1.08601 -8.00769 0
M  V30 1412 H 142.558 1.38747 -5.65014 0
M  V30 1413 H 141.438 0.890482 -7.79128 0
M  V30 1414 N 138.941 1.26152 0.944643 0
M  V30 1415 C 140.352 1.10454 1.50522 0
M  V30 1416 C 140.703 -0.31635 1.93633 0
M  V30 1417 O 139.828 -1.20746 1.79581 0
M  V30 1418 C 140.423 1.99891 2.73549 0
M  V30 1419 C 138.982 1.88348 3.25886 0
M  V30 1420 C 138.129 1.93447 1.9868 0
M  V30 1421 H 141.08 1.39292 0.760489 0
M  V30 1422 H 141.101 1.54477 3.47732 0
M  V30 1423 H 140.613 3.03297 2.42141 0
M  V30 1424 H 138.714 0.878636 3.62092 0
M  V30 1425 H 138.827 2.73696 3.93227 0
M  V30 1426 H 137.191 1.37456 2.14425 0
M  V30 1427 H 137.974 2.98476 1.69607 0
M  V30 1428 N 140.419 -1.14872 1.07899 0
M  V30 1429 C 141.83 -1.67367 0.827363 0
M  V30 1430 C 142.181 -1.85236 -0.646693 0
M  V30 1431 O 141.306 -1.55974 -1.50004 0
M  V30 1432 C 141.901 -3.04016 1.49532 0
M  V30 1433 C 140.46 -3.53566 1.29106 0
M  V30 1434 C 139.607 -2.29161 1.56143 0
M  V30 1435 H 142.558 -0.990083 1.24028 0
M  V30 1436 H 142.579 -3.69219 0.919643 0
M  V30 1437 H 142.091 -2.90978 2.56814 0
M  V30 1438 H 140.192 -3.71835 0.238713 0
M  V30 1439 H 140.305 -4.34661 2.01511 0
M  V30 1440 H 138.669 -2.34978 0.982717 0
M  V30 1441 H 139.452 -2.18705 2.64619 0
M  V30 1442 N 141.898 -0.863906 -1.31812 0
M  V30 1443 C 143.145 -0.471836 -1.96926 0
M  V30 1444 C 143.473 0.974578 -1.68322 0
M  V30 1445 O 142.728 1.7003 -0.968933 0
M  V30 1446 C 143.027 -0.668547 -3.51091 0
M  V30 1447 C 142.693 -2.08683 -3.99703 0
M  V30 1448 C 141.355 -2.47471 -4.12688 0
M  V30 1449 C 143.707 -3.01207 -4.25351 0
M  V30 1450 C 141.035 -3.78037 -4.4867 0
M  V30 1451 C 143.387 -4.31282 -4.62794 0
M  V30 1452 C 142.051 -4.69992 -4.73987 0
M  V30 1453 H 141.321 -0.172657 -0.720604 0
M  V30 1454 H 143.968 -1.09573 -1.57054 0
M  V30 1455 H 142.273 0.0385252 -3.91781 0
M  V30 1456 H 143.97 -0.345102 -3.99512 0
M  V30 1457 H 140.56 -1.77566 -3.90087 0
M  V30 1458 H 144.744 -2.72469 -4.14819 0
M  V30 1459 H 140 -4.078 -4.55532 0
M  V30 1460 H 144.174 -5.03031 -4.81594 0
M  V30 1461 H 141.801 -5.71207 -5.01624 0
M  V30 1462 N 143.376 1.44774 -0.622745 0
M  V30 1463 C 144.286 2.34433 0.0886031 0
M  V30 1464 C 145.302 1.52131 0.844529 0
M  V30 1465 O 146.478 1.84886 0.798691 0
M  V30 1466 C 143.543 3.29986 1.0635 0
M  V30 1467 C 142.604 4.28195 0.307873 0
M  V30 1468 C 141.837 5.19183 1.23633 0
M  V30 1469 O 142.06 5.13918 2.47476 0
M  V30 1470 O 140.994 5.97515 0.725189 0
M  V30 1471 H 144.82 2.96693 -0.648599 0
M  V30 1472 H 142.405 1.44408 -0.382957 0
M  V30 1473 H 144.287 3.88825 1.6246 0
M  V30 1474 H 142.962 2.70269 1.78146 0
M  V30 1475 H 141.869 3.72927 -0.296064 0
M  V30 1476 H 143.202 4.90808 -0.3699 0
M  V30 1477 N 144.854 0.36279 1.53368 0
M  V30 1478 C 146.084 -0.228281 2.05335 0
M  V30 1479 C 146.492 -1.43226 1.23625 0
M  V30 1480 O 145.835 -1.81717 0.269206 0
M  V30 1481 C 145.897 -0.688549 3.52845 0
M  V30 1482 C 145.561 0.398362 4.5526 0
M  V30 1483 C 146.558 1.24732 5.04716 0
M  V30 1484 C 144.243 0.557805 4.99193 0
M  V30 1485 C 146.237 2.2411 5.96702 0
M  V30 1486 C 143.924 1.55495 5.90986 0
M  V30 1487 C 144.922 2.39503 6.39631 0
M  V30 1488 O 144.61 3.37517 7.29615 0
M  V30 1489 H 144.342 -0.044395 0.674541 0
M  V30 1490 H 146.896 0.518668 1.98744 0
M  V30 1491 H 145.126 -1.48706 3.56964 0
M  V30 1492 H 146.815 -1.20231 3.87685 0
M  V30 1493 H 147.581 1.13532 4.71525 0
M  V30 1494 H 143.46 -0.0862959 4.60919 0
M  V30 1495 H 147.004 2.89718 6.34594 0
M  V30 1496 H 142.901 1.66744 6.23592 0
M  V30 1497 H 143.669 3.33213 7.47604 0
M  V30 1498 N 146.332 -1.57332 0.0918853 0
M  V30 1499 C 147.265 -2.09499 -0.904735 0
M  V30 1500 C 148.243 -1.00479 -1.27839 0
M  V30 1501 O 149.427 -1.27954 -1.38419 0
M  V30 1502 C 146.554 -2.56931 -2.2069 0
M  V30 1503 C 145.6 -3.77579 -1.98334 0
M  V30 1504 S 146.433 -5.21317 -1.22428 0
M  V30 1505 C 147.589 -5.72097 -2.53882 0
M  V30 1506 H 147.822 -2.93705 -0.460922 0
M  V30 1507 H 145.355 -1.53923 -0.121332 0
M  V30 1508 H 147.313 -2.84917 -2.95521 0
M  V30 1509 H 145.974 -1.72956 -2.62192 0
M  V30 1510 H 145.167 -4.08824 -2.94752 0
M  V30 1511 H 144.769 -3.5007 -1.31633 0
M  V30 1512 H 147.061 -5.80168 -3.49874 0
M  V30 1513 H 148.004 -6.70654 -2.27219 0
M  V30 1514 H 148.412 -5.00012 -2.62007 0
M  V30 1515 N 147.81 0.181792 -1.56548 0
M  V30 1516 C 149.059 0.898348 -1.8059 0
M  V30 1517 C 149.372 1.83862 -0.667379 0
M  V30 1518 O 150.578 2.59678 -0.792446 0
M  V30 1519 C 149.034 1.64791 -3.19956 0
M  V30 1520 C 148.642 0.751789 -4.41647 0
M  V30 1521 C 150.386 2.35331 -3.53298 0
M  V30 1522 C 148.293 1.50098 -5.72035 0
M  V30 1523 H 147.223 0.339194 -0.673397 0
M  V30 1524 H 149.874 0.151413 -1.82874 0
M  V30 1525 H 148.256 2.43921 -3.11959 0
M  V30 1526 H 149.43 -0.0018076 -4.608 0
M  V30 1527 H 147.745 0.156562 -4.16106 0
M  V30 1528 H 150.342 2.91958 -4.47956 0
M  V30 1529 H 150.685 3.10164 -2.77676 0
M  V30 1530 H 151.218 1.63154 -3.62803 0
M  V30 1531 H 147.957 0.795175 -6.50659 0
M  V30 1532 H 147.477 2.22817 -5.56878 0
M  V30 1533 H 149.156 2.05125 -6.13622 0
M  V30 1534 N 149.288 1.51039 0.449983 0
M  V30 1535 C 150.218 1.74379 1.55288 0
M  V30 1536 C 151.199 0.593236 1.5942 0
M  V30 1537 O 152.384 0.834625 1.7535 0
M  V30 1538 C 149.514 1.85728 2.93466 0
M  V30 1539 C 148.468 3.01078 3.04197 0
M  V30 1540 C 147.794 2.97595 4.44231 0
M  V30 1541 C 149.094 4.41254 2.7945 0
M  V30 1542 H 150.788 2.66725 1.36008 0
M  V30 1543 H 148.334 1.2835 0.652864 0
M  V30 1544 H 150.287 2.0064 3.70569 0
M  V30 1545 H 149.011 0.900207 3.13949 0
M  V30 1546 H 147.67 2.85851 2.29531 0
M  V30 1547 H 147.318 1.99691 4.61663 0
M  V30 1548 H 147.018 3.75046 4.52343 0
M  V30 1549 H 148.542 3.14583 5.23326 0
M  V30 1550 H 149.956 4.56897 3.46292 0
M  V30 1551 H 148.353 5.20315 2.98985 0
M  V30 1552 H 149.423 4.52164 1.75144 0
M  V30 1553 N 150.766 -0.704594 1.40972 0
M  V30 1554 C 151.729 -1.80035 1.41845 0
M  V30 1555 C 152.729 -1.57774 0.310474 0
M  V30 1556 O 153.919 -1.64613 0.56992 0
M  V30 1557 C 151.051 -3.18284 1.22098 0
M  V30 1558 H 152.244 -1.80658 2.3938 0
M  V30 1559 H 149.797 -0.911329 1.26982 0
M  V30 1560 H 150.532 -3.23306 0.253672 0
M  V30 1561 H 150.317 -3.35843 2.02366 0
M  V30 1562 H 151.807 -3.98289 1.25522 0
M  V30 1563 N 152.244 -1.26651 -0.937939 0
M  V30 1564 C 153.472 -1.15173 -1.7188 0
M  V30 1565 C 153.887 0.292668 -1.86518 0
M  V30 1566 O 153.244 1.20014 -1.37488 0
M  V30 1567 C 153.295 -1.81925 -3.12387 0
M  V30 1568 O 153.016 -3.2072 -2.98446 0
M  V30 1569 C 154.517 -1.76442 -4.06673 0
M  V30 1570 H 151.737 -0.400911 -0.538063 0
M  V30 1571 H 154.281 -1.67332 -1.1756 0
M  V30 1572 H 152.436 -1.33696 -3.63599 0
M  V30 1573 H 152.85 -3.53802 -3.872 0
M  V30 1574 H 154.324 -2.27781 -5.02812 0
M  V30 1575 H 154.801 -0.731608 -4.33064 0
M  V30 1576 H 155.407 -2.24238 -3.61382 0
M  V30 1577 N 153.722 1.14298 -1.08507 0
M  V30 1578 C 154.971 1.84708 -0.810305 0
M  V30 1579 C 155.284 1.83903 0.666271 0
M  V30 1580 O 156.49 2.50112 1.05624 0
M  V30 1581 C 154.946 3.31572 -1.39957 0
M  V30 1582 C 154.554 3.40791 -2.90801 0
M  V30 1583 C 156.298 4.07087 -1.20334 0
M  V30 1584 C 154.205 4.81872 -3.4286 0
M  V30 1585 H 153.135 0.691985 -0.299454 0
M  V30 1586 H 155.786 1.28841 -1.30661 0
M  V30 1587 H 154.168 3.87183 -0.830976 0
M  V30 1588 H 155.342 2.95225 -3.53806 0
M  V30 1589 H 153.657 2.78732 -3.0935 0
M  V30 1590 H 156.254 5.11225 -1.56693 0
M  V30 1591 H 156.597 4.16054 -0.143237 0
M  V30 1592 H 157.13 3.57779 -1.73893 0
M  V30 1593 H 153.869 4.78094 -4.48449 0
M  V30 1594 H 153.389 5.27972 -2.84615 0
M  V30 1595 H 155.068 5.50765 -3.39509 0
M  V30 1596 N 155.201 0.870884 1.31352 0
M  V30 1597 C 156.45 0.478408 1.95944 0
M  V30 1598 C 156.763 -0.974493 1.69597 0
M  V30 1599 O 157.969 -1.47316 2.28058 0
M  V30 1600 C 156.425 0.804609 3.50791 0
M  V30 1601 C 156.033 2.27433 3.85977 0
M  V30 1602 C 157.777 0.480648 4.2177 0
M  V30 1603 C 155.684 2.5429 5.33939 0
M  V30 1604 H 154.614 0.175175 0.733369 0
M  V30 1605 H 157.265 1.06391 1.4951 0
M  V30 1606 H 155.647 0.148347 3.95722 0
M  V30 1607 H 156.821 2.97373 3.52002 0
M  V30 1608 H 155.136 2.56442 3.28065 0
M  V30 1609 H 157.733 0.658519 5.30629 0
M  V30 1610 H 158.076 -0.578979 4.12254 0
M  V30 1611 H 158.609 1.09349 3.82476 0
M  V30 1612 H 155.348 3.58939 5.48491 0
M  V30 1613 H 154.868 1.88945 5.69263 0
M  V30 1614 H 156.547 2.39066 6.01212 0
M  V30 1615 N 156.679 -1.44442 0.630414 0
M  V30 1616 C 157.642 -2.29107 -0.0652523 0
M  V30 1617 C 158.642 -1.41002 -0.772995 0
M  V30 1618 O 159.832 -1.62881 -0.617692 0
M  V30 1619 C 156.964 -3.22564 -1.10296 0
M  V30 1620 H 158.157 -2.92103 0.679401 0
M  V30 1621 H 155.71 -1.51343 0.390517 0
M  V30 1622 H 156.445 -2.64416 -1.87762 0
M  V30 1623 H 156.23 -3.87491 -0.59941 0
M  V30 1624 H 157.72 -3.86167 -1.5895 0
M  V30 1625 N 158.157 -0.370918 -1.53173 0
M  V30 1626 C 159.105 0.488101 -2.27421 0
M  V30 1627 C 160.099 1.07884 -1.30604 0
M  V30 1628 O 161.305 1.02143 -1.48212 0
M  V30 1629 H 157.68 0.176134 -0.731082 0
M  V30 1630 H 159.651 -0.159815 -2.97972 0
M  V30 1631 C 158.4 1.61306 -3.08019 0
M  V30 1632 H 157.723 1.1678 -3.82364 0
M  V30 1633 H 159.163 2.18872 -3.63141 0
M  V30 1634 C 157.622 2.55848 -2.19188 0
M  V30 1635 O 158.152 3.58799 -1.80626 0
M  V30 1636 N 156.358 2.2516 -1.83715 0
M  V30 1637 H 155.905 1.41476 -2.15273 0
M  V30 1638 H 155.863 2.8867 -1.24567 0
M  V30 1639 N 159.635 1.57281 -0.100228 0
M  V30 1640 C 160.875 1.96419 0.56558 0
M  V30 1641 C 161.239 0.981265 1.65031 0
M  V30 1642 O 162.44 1.26133 2.37369 0
M  V30 1643 C 160.711 3.39996 1.10171 0
M  V30 1644 S 162.27 4.01134 1.77867 0
M  V30 1645 H 159.088 0.68667 0.184406 0
M  V30 1646 H 161.69 1.94662 -0.180851 0
M  V30 1647 H 160.394 4.09296 0.300803 0
M  V30 1648 H 159.925 3.45361 1.88385 0
M  V30 1649 H 161.94 3.90358 3.06326 0
M  V30 1650 N 161.113 -0.173488 1.56642 0
M  V30 1651 C 162.362 -0.888758 1.81063 0
M  V30 1652 C 162.675 -1.83506 0.67712 0
M  V30 1653 O 163.881 -2.59254 0.806206 0
M  V30 1654 C 162.337 -1.63091 3.20826 0
M  V30 1655 C 161.945 -0.728357 4.4204 0
M  V30 1656 C 163.689 -2.33454 3.54541 0
M  V30 1657 C 161.596 -1.47062 5.72823 0
M  V30 1658 H 160.526 -0.335618 0.675186 0
M  V30 1659 H 163.177 -0.141712 1.82952 0
M  V30 1660 H 161.559 -2.42263 3.13248 0
M  V30 1661 H 162.733 0.0262449 4.60793 0
M  V30 1662 H 161.048 -0.134492 4.16183 0
M  V30 1663 H 163.645 -2.89578 4.49498 0
M  V30 1664 H 163.988 -3.08687 2.79317 0
M  V30 1665 H 164.521 -1.61227 3.63663 0
M  V30 1666 H 161.26 -0.760658 6.51072 0
M  V30 1667 H 160.78 -2.1986 5.58052 0
M  V30 1668 H 162.459 -2.01868 6.14702 0
M  V30 1669 N 162.591 -1.51276 -0.441967 0
M  V30 1670 C 163.837 -1.63958 -1.19355 0
M  V30 1671 C 164.17 -0.352543 -1.90973 0
M  V30 1672 O 163.445 0.647627 -1.83401 0
M  V30 1673 C 163.728 -2.83979 -2.21422 0
M  V30 1674 C 163.581 -4.22646 -1.53918 0
M  V30 1675 C 164.9 -2.99521 -3.22451 0
M  V30 1676 H 162.019 -0.596709 -0.432559 0
M  V30 1677 H 164.661 -1.83748 -0.483398 0
M  V30 1678 H 162.811 -2.67237 -2.81987 0
M  V30 1679 H 164.483 -4.51045 -0.967256 0
M  V30 1680 H 162.726 -4.25558 -0.841615 0
M  V30 1681 H 163.397 -5.02609 -2.28229 0
M  V30 1682 H 165.873 -3.14944 -2.71937 0
M  V30 1683 H 164.749 -3.85072 -3.91166 0
M  V30 1684 H 165.01 -2.11391 -3.88287 0
M  V30 1685 N 164.069 0.697108 -1.41344 0
M  V30 1686 C 164.999 1.82353 -1.45841 0
M  V30 1687 C 165.98 1.67115 -0.317247 0
M  V30 1688 O 167.165 1.86871 -0.528474 0
M  V30 1689 C 164.295 3.20476 -1.33838 0
M  V30 1690 C 163.249 3.50415 -2.4575 0
M  V30 1691 C 162.575 4.87878 -2.18813 0
M  V30 1692 C 163.875 3.49546 -3.88091 0
M  V30 1693 H 165.569 1.78846 -2.40113 0
M  V30 1694 H 163.115 0.859028 -1.15571 0
M  V30 1695 H 165.068 3.98988 -1.35596 0
M  V30 1696 H 163.792 3.24604 -0.360498 0
M  V30 1697 H 162.451 2.74253 -2.43271 0
M  V30 1698 H 162.099 4.8863 -1.19371 0
M  V30 1699 H 161.799 5.08875 -2.93803 0
M  V30 1700 H 163.323 5.68702 -2.22284 0
M  V30 1701 H 164.737 4.18066 -3.92293 0
M  V30 1702 H 163.134 3.82075 -4.62751 0
M  V30 1703 H 164.204 2.48552 -4.16353 0
M  V30 1704 N 165.547 1.27147 0.931209 0
M  V30 1705 C 166.51 1.09615 2.01289 0
M  V30 1706 C 167.51 0.0412581 1.60747 0
M  V30 1707 O 168.7 0.285545 1.71844 0
M  V30 1708 C 165.832 0.669447 3.34262 0
M  V30 1709 H 167.025 2.05662 2.18273 0
M  V30 1710 H 164.578 1.09885 1.11153 0
M  V30 1711 H 165.313 -0.292572 3.22978 0
M  V30 1712 H 165.098 1.43127 3.65044 0
M  V30 1713 H 166.588 0.568921 4.13706 0
M  V30 1714 N 167.025 -1.13721 1.09112 0
M  V30 1715 C 167.955 -2.21148 0.749385 0
M  V30 1716 C 168.936 -1.6792 -0.271475 0
M  V30 1717 O 170.121 -1.93693 -0.140251 0
M  V30 1718 C 167.251 -3.46905 0.165659 0
M  V30 1719 C 166.205 -4.13203 1.11567 0
M  V30 1720 C 165.531 -5.33248 0.393809 0
M  V30 1721 C 166.831 -4.60912 2.45678 0
M  V30 1722 H 168.525 -2.4999 1.64758 0
M  V30 1723 H 166.071 -1.20156 0.793626 0
M  V30 1724 H 168.024 -4.21313 -0.085466 0
M  V30 1725 H 166.748 -3.17449 -0.767714 0
M  V30 1726 H 165.407 -3.40758 1.35202 0
M  V30 1727 H 165.055 -5.00054 -0.543599 0
M  V30 1728 H 164.755 -5.78552 1.02721 0
M  V30 1729 H 166.279 -6.10413 0.150908 0
M  V30 1730 H 167.693 -5.26759 2.26269 0
M  V30 1731 H 166.09 -5.16944 3.04776 0
M  V30 1732 H 167.16 -3.75603 3.06677 0
M  V30 1733 N 168.503 -0.877838 -1.30888 0
M  V30 1734 C 169.413 -0.343096 -2.32078 0
M  V30 1735 C 170.429 0.551022 -1.65045 0
M  V30 1736 O 171.605 0.445854 -1.96403 0
M  V30 1737 C 168.67 0.439905 -3.43898 0
M  V30 1738 C 167.731 -0.483111 -4.26573 0
M  V30 1739 C 166.964 0.262616 -5.33053 0
M  V30 1740 O 167.187 1.48967 -5.50604 0
M  V30 1741 O 166.121 -0.383593 -6.00676 0
M  V30 1742 H 169.947 -1.18203 -2.79753 0
M  V30 1743 H 167.532 -0.64145 -1.34929 0
M  V30 1744 H 169.414 0.883504 -4.12034 0
M  V30 1745 H 168.089 1.25526 -2.98371 0
M  V30 1746 H 166.996 -0.975374 -3.61161 0
M  V30 1747 H 168.329 -1.26427 -4.75686 0
M  V30 1748 N 169.982 1.44106 -0.638065 0
M  V30 1749 C 170.914 2.28976 0.101205 0
M  V30 1750 C 171.927 1.4167 0.802088 0
M  V30 1751 O 173.116 1.65755 0.662375 0
M  V30 1752 C 170.216 3.18217 1.16581 0
M  V30 1753 C 169.389 4.33978 0.546066 0
M  V30 1754 C 168.448 5.04202 1.50554 0
M  V30 1755 O 167.474 5.59986 1.01999 0
M  V30 1756 N 168.676 5.06296 2.8398 0
M  V30 1757 H 171.441 2.93064 -0.627186 0
M  V30 1758 H 169.002 1.54629 -0.479731 0
M  V30 1759 H 170.994 3.62061 1.80815 0
M  V30 1760 H 169.564 2.55833 1.79634 0
M  V30 1761 H 168.784 3.93239 -0.275046 0
M  V30 1762 H 170.072 5.08675 0.112793 0
M  V30 1763 H 169.47 4.62319 3.26002 0
M  V30 1764 H 168.027 5.53907 3.43556 0
M  V30 1765 N 171.46 0.379036 1.52974 0
M  V30 1766 C 172.41 -0.477772 2.22938 0
M  V30 1767 C 173.394 -1.03792 1.22948 0
M  V30 1768 O 174.586 -0.965725 1.48333 0
M  V30 1769 C 171.715 -1.60994 3.03209 0
M  V30 1770 C 170.801 -1.06203 4.10587 0
M  V30 1771 N 171.192 -0.238214 5.05239 0
M  V30 1772 C 169.49 -1.33554 4.25534 0
M  V30 1773 C 170.191 0.0633235 5.81666 0
M  V30 1774 N 169.167 -0.537901 5.40932 0
M  V30 1775 H 172.969 0.158295 2.93473 0
M  V30 1776 H 170.483 0.187778 1.61311 0
M  V30 1777 H 172.48 -2.23607 3.5186 0
M  V30 1778 H 171.14 -2.24893 2.34207 0
M  V30 1779 H 172.151 0.123695 5.17752 0
M  V30 1780 H 168.828 -1.97632 3.6776 0
M  V30 1781 H 170.218 0.730161 6.67921 0
M  V30 1782 N 172.938 -1.57226 0.108567 0
M  V30 1783 C 173.868 -2.17778 -0.84232 0
M  V30 1784 C 174.849 -1.11487 -1.2847 0
M  V30 1785 O 176.034 -1.39681 -1.34918 0
M  V30 1786 C 173.164 -2.76888 -2.09644 0
M  V30 1787 C 172.118 -3.88669 -1.79221 0
M  V30 1788 C 171.444 -4.34541 -3.11574 0
M  V30 1789 C 172.744 -5.11251 -1.06864 0
M  V30 1790 H 174.438 -2.97489 -0.337774 0
M  V30 1791 H 171.984 -1.43097 -0.161025 0
M  V30 1792 H 173.937 -3.17904 -2.76614 0
M  V30 1793 H 172.661 -1.94451 -2.62405 0
M  V30 1794 H 171.32 -3.48213 -1.14644 0
M  V30 1795 H 170.968 -3.48977 -3.62249 0
M  V30 1796 H 170.668 -5.09914 -2.91996 0
M  V30 1797 H 172.192 -4.782 -3.7968 0
M  V30 1798 H 173.606 -5.49352 -1.63968 0
M  V30 1799 H 172.003 -5.9214 -0.974178 0
M  V30 1800 H 173.073 -4.8487 -0.0536168 0
M  V30 1801 N 174.416 0.165178 -1.56732 0
M  V30 1802 C 175.827 0.727046 -1.71962 0
M  V30 1803 C 176.178 1.82508 -0.720078 0
M  V30 1804 O 175.303 2.16082 0.117242 0
M  V30 1805 C 175.898 1.32559 -3.11791 0
M  V30 1806 C 174.457 1.83422 -3.28684 0
M  V30 1807 C 173.604 0.715567 -2.67908 0
M  V30 1808 H 176.555 -0.0602896 -1.58585 0
M  V30 1809 H 176.576 2.19533 -3.10782 0
M  V30 1810 H 176.088 0.526195 -3.84516 0
M  V30 1811 H 174.189 2.65986 -2.60926 0
M  V30 1812 H 174.302 1.97543 -4.36478 0
M  V30 1813 H 172.666 1.13758 -2.27884 0
M  V30 1814 H 173.449 -0.0720836 -3.43224 0
M  V30 1815 N 175.894 1.51508 0.433938 0
M  V30 1816 C 177.171 1.54888 1.19453 0
M  V30 1817 C 177.551 0.315154 2.08734 0
M  V30 1818 O 176.899 -0.699558 2.17528 0
M  V30 1819 C 177.109 2.86467 1.99342 0
M  V30 1820 C 178.457 3.38545 2.56267 0
M  V30 1821 O 179.481 2.88041 2.0955 0
M  V30 1822 O 178.34 4.26675 3.41483 0
M  V30 1823 H 175.434 0.622863 0.544032 0
M  V30 1824 H 177.98 1.63823 0.442732 0
M  V30 1825 H 176.752 3.67718 1.33788 0
M  V30 1826 H 176.375 2.8071 2.8158 0
M  V30 1827 N 177.372 -0.689602 1.41712 0
M  V30 1828 C 178.62 -1.4468 1.4111 0
M  V30 1829 C 178.941 -1.94986 0.0232196 0
M  V30 1830 O 178.211 -1.72097 -0.935913 0
M  V30 1831 H 176.791 -0.536847 0.519427 0
M  V30 1832 H 179.453 -0.815825 1.77004 0
M  V30 1833 H 178.549 -2.30706 2.10193 0
M  V30 1834 N 178.85 -1.27639 -0.924453 0
M  V30 1835 C 180.127 -1.04887 -1.651 0
M  V30 1836 C 180.507 0.415327 -2.06974 0
M  V30 1837 O 179.855 1.39923 -1.80648 0
M  V30 1838 C 180.065 -2.01348 -2.85061 0
M  V30 1839 C 181.413 -2.30899 -3.56329 0
M  V30 1840 O 182.437 -1.99348 -2.95193 0
M  V30 1841 O 181.296 -2.84699 -4.66485 0
M  V30 1842 H 178.39 -0.400083 -0.723784 0
M  V30 1843 H 180.936 -1.38916 -0.974703 0
M  V30 1844 H 179.708 -3.0008 -2.51133 0
M  V30 1845 H 179.331 -1.679 -3.6041 0
M  V30 1846 N 180.328 1.1314 -1.09713 0
M  V30 1847 C 181.275 2.18642 -0.739196 0
M  V30 1848 C 182.245 1.63706 0.280978 0
M  V30 1849 O 183.43 1.90111 0.161946 0
M  V30 1850 C 180.57 3.44685 -0.169102 0
M  V30 1851 C 179.683 4.13711 -1.24367 0
M  V30 1852 C 178.818 5.27379 -0.636019 0
M  V30 1853 C 177.857 5.88259 -1.69169 0
M  V30 1854 N 176.994 6.93352 -1.10485 0
M  V30 1855 H 181.834 2.48607 -1.64312 0
M  V30 1856 H 179.371 1.22066 -0.820875 0
M  V30 1857 H 181.329 4.16815 0.179256 0
M  V30 1858 H 179.959 3.15161 0.698079 0
M  V30 1859 H 179.011 3.39835 -1.70927 0
M  V30 1860 H 180.323 4.55037 -2.04311 0
M  V30 1861 H 179.477 6.06238 -0.236677 0
M  V30 1862 H 178.216 4.8731 0.194928 0
M  V30 1863 H 177.221 5.08092 -2.10055 0
M  V30 1864 H 178.446 6.30399 -2.52536 0
M  V30 1865 H 176.392 6.55335 -0.295234 0
M  V30 1866 H 176.309 7.33236 -1.84121 0
M  V30 1867 H 177.577 7.76057 -0.73181 0
M  V30 1868 N 181.806 0.884767 1.30421 0
M  V30 1869 C 183.034 0.518044 2.0031 0
M  V30 1870 C 183.449 -0.893408 1.66324 0
M  V30 1871 O 182.806 -1.5875 0.900262 0
M  V30 1872 C 182.857 0.682997 3.54989 0
M  V30 1873 O 182.578 2.03888 3.87764 0
M  V30 1874 C 184.079 0.31924 4.42149 0
M  V30 1875 H 181.299 0.200265 0.640418 0
M  V30 1876 H 183.843 1.19001 1.6631 0
M  V30 1877 H 181.998 0.0584052 3.87356 0
M  V30 1878 H 182.412 2.05735 4.82466 0
M  V30 1879 H 183.886 0.485555 5.4986 0
M  V30 1880 H 184.363 -0.742717 4.32875 0
M  V30 1881 H 184.969 0.920147 4.15227 0
M  V30 1882 N 183.284 -1.43765 0.645699 0
M  V30 1883 C 184.695 -1.85193 0.236719 0
M  V30 1884 C 185.046 -1.54045 -1.21509 0
M  V30 1885 O 184.171 -0.985694 -1.92647 0
M  V30 1886 C 184.766 -3.36151 0.422845 0
M  V30 1887 C 183.325 -3.76338 0.0682492 0
M  V30 1888 C 182.472 -2.67538 0.729306 0
M  V30 1889 H 185.423 -1.34025 0.849883 0
M  V30 1890 H 185.444 -3.79032 -0.333904 0
M  V30 1891 H 184.956 -3.5879 1.47958 0
M  V30 1892 H 183.057 -3.59312 -0.986179 0
M  V30 1893 H 183.17 -4.76603 0.488469 0
M  V30 1894 H 181.534 -2.54176 0.163235 0
M  V30 1895 H 182.317 -2.93006 1.78892 0
M  V30 1896 N 184.763 -0.387143 -1.52771 0
M  V30 1897 C 185.696 0.493123 -2.22808 0
M  V30 1898 C 186.674 1.0658 -1.22798 0
M  V30 1899 O 187.858 1.11785 -1.51777 0
M  V30 1900 C 184.985 1.68238 -2.93962 0
M  V30 1901 C 184.031 1.23515 -4.08223 0
M  V30 1902 S 184.864 0.21848 -5.35054 0
M  V30 1903 C 186.02 1.41357 -6.09729 0
M  V30 1904 H 186.253 -0.101625 -2.97126 0
M  V30 1905 H 183.786 -0.171323 -1.53447 0
M  V30 1906 H 185.744 2.36443 -3.35567 0
M  V30 1907 H 184.405 2.24842 -2.19328 0
M  V30 1908 H 183.598 2.12304 -4.57103 0
M  V30 1909 H 183.2 0.632044 -3.68621 0
M  V30 1910 H 185.492 2.34101 -6.3577 0
M  V30 1911 H 186.435 0.965736 -7.01484 0
M  V30 1912 H 186.843 1.6294 -5.40473 0
M  V30 1913 N 186.241 1.57166 -0.116904 0
M  V30 1914 C 187.466 1.999 0.55271 0
M  V30 1915 C 187.891 0.996039 1.59564 0
M  V30 1916 O 187.249 -0.032556 1.81271 0
M  V30 1917 C 187.297 3.4152 1.15742 0
M  V30 1918 O 186.401 3.44106 2.27299 0
M  V30 1919 H 185.742 0.649447 0.138258 0
M  V30 1920 H 188.272 2.03573 -0.204759 0
M  V30 1921 H 188.282 3.79684 1.49346 0
M  V30 1922 H 186.957 4.14034 0.393493 0
M  V30 1923 H 185.534 3.17759 1.9515 0
M  V30 1924 N 187.719 -0.156864 1.56817 0
M  V30 1925 C 188.629 -1.2136 2.00771 0
M  V30 1926 C 189.645 -1.47598 0.921459 0
M  V30 1927 O 190.821 -1.59462 1.2302 0
M  V30 1928 C 187.886 -2.52943 2.37109 0
M  V30 1929 C 186.947 -2.34439 3.59634 0
M  V30 1930 C 186.18 -3.59748 3.94229 0
M  V30 1931 O 186.403 -4.65526 3.29609 0
M  V30 1932 O 185.337 -3.52998 4.8752 0
M  V30 1933 H 189.163 -0.870468 2.90958 0
M  V30 1934 H 186.748 -0.36484 1.44877 0
M  V30 1935 H 188.63 -3.30538 2.61386 0
M  V30 1936 H 187.305 -2.86806 1.5008 0
M  V30 1937 H 186.212 -1.54828 3.40557 0
M  V30 1938 H 187.545 -2.05496 4.4725 0
M  V30 1939 N 189.197 -1.51736 -0.425897 0
M  V30 1940 C 190.613 -1.40166 -0.76326 0
M  V30 1941 C 190.813 -0.492962 -1.95377 0
M  V30 1942 O 189.869 0.0475815 -2.52455 0
M  V30 1943 C 191.182 -2.82403 -1.03291 0
M  V30 1944 C 192.73 -2.91632 -1.13665 0
M  V30 1945 C 193.205 -4.34801 -1.43916 0
M  V30 1946 N 194.696 -4.3796 -1.50816 0
M  V30 1947 C 195.431 -5.4578 -1.75817 0
M  V30 1948 N 194.927 -6.63744 -1.98534 0
M  V30 1949 N 196.72 -5.33274 -1.77694 0
M  V30 1950 H 188.871 -2.09361 0.358 0
M  V30 1951 H 191.134 -0.942941 0.0978094 0
M  V30 1952 H 190.84 -3.50943 -0.230696 0
M  V30 1953 H 190.714 -3.22428 -1.95754 0
M  V30 1954 H 193.101 -2.23284 -1.92947 0
M  V30 1955 H 193.182 -2.55088 -0.190756 0
M  V30 1956 H 192.826 -5.03703 -0.65157 0
M  V30 1957 H 192.756 -4.68868 -2.39729 0
M  V30 1958 H 195.247 -3.52919 -1.35118 0
M  V30 1959 H 195.56 -7.41704 -2.17013 0
M  V30 1960 H 193.905 -6.66839 -1.95832 0
M  V30 1961 H 197.096 -4.40098 -1.59473 0
M  V30 1962 H 197.269 -6.1738 -1.9684 0
M  V30 1963 N 190.675 0.682077 -1.42076 0
M  V30 1964 C 191.605 1.80796 -1.47767 0
M  V30 1965 C 192.586 1.6677 -0.334954 0
M  V30 1966 O 193.771 1.863 -0.548264 0
M  V30 1967 C 190.901 3.19038 -1.37229 0
M  V30 1968 C 189.855 3.47789 -2.49453 0
M  V30 1969 C 189.181 4.8553 -2.23975 0
M  V30 1970 C 190.481 3.45411 -3.91776 0
M  V30 1971 H 192.175 1.7629 -2.41997 0
M  V30 1972 H 189.721 0.846721 -1.16476 0
M  V30 1973 H 191.674 3.97528 -1.39821 0
M  V30 1974 H 190.398 3.24204 -0.394907 0
M  V30 1975 H 189.057 2.71657 -2.46166 0
M  V30 1976 H 188.705 4.87337 -1.24547 0
M  V30 1977 H 188.405 5.0573 -2.99184 0
M  V30 1978 H 189.929 5.66312 -2.28304 0
M  V30 1979 H 191.343 4.13882 -3.96705 0
M  V30 1980 H 189.74 3.77145 -4.66778 0
M  V30 1981 H 190.81 2.44122 -4.18966 0
M  V30 1982 N 192.153 1.28127 0.917671 0
M  V30 1983 C 193.43 1.05761 1.64542 0
M  V30 1984 C 193.81 -0.404344 2.07191 0
M  V30 1985 O 193.158 -1.38963 1.81388 0
M  V30 1986 C 193.368 2.02857 2.83989 0
M  V30 1987 C 194.716 2.32786 3.551 0
M  V30 1988 O 195.74 2.0091 2.94132 0
M  V30 1989 O 194.599 2.87169 4.64969 0
M  V30 1990 H 191.693 0.403916 0.721652 0
M  V30 1991 H 194.239 1.39431 0.967322 0
M  V30 1992 H 193.011 3.01407 2.49538 0
M  V30 1993 H 192.634 1.69809 3.59514 0
M  V30 1994 N 193.631 -1.12557 1.10312 0
M  V30 1995 C 194.908 -1.80363 0.756878 0
M  V30 1996 C 195.288 -1.97067 -0.756824 0
M  V30 1997 O 194.636 -1.54601 -1.68259 0
M  V30 1998 C 194.846 -3.14812 1.50647 0
M  V30 1999 C 196.194 -3.90029 1.67817 0
M  V30 2000 O 197.218 -3.24464 1.46974 0
M  V30 2001 O 196.077 -5.07652 2.02365 0
M  V30 2002 H 193.171 -0.780667 0.272926 0
M  V30 2003 H 195.717 -1.19404 1.20586 0
M  V30 2004 H 194.489 -2.97936 2.53672 0
M  V30 2005 H 194.112 -3.83478 1.05026 0
M  V30 2006 N 195.109 -0.891671 -1.2995 0
M  V30 2007 C 196.337 -0.52866 -2.00032 0
M  V30 2008 C 196.752 0.884574 -1.66795 0
M  V30 2009 O 196.109 1.5827 -0.908669 0
M  V30 2010 C 196.16 -0.701814 -3.54622 0
M  V30 2011 O 195.881 -2.05942 -3.86678 0
M  V30 2012 C 197.382 -0.342683 -4.41973 0
M  V30 2013 H 194.602 -0.203659 -0.639347 0
M  V30 2014 H 197.146 -1.19881 -1.65677 0
M  V30 2015 H 195.301 -0.0789468 -3.8732 0
M  V30 2016 H 195.715 -2.08291 -4.81368 0
M  V30 2017 H 197.189 -0.514709 -5.49595 0
M  V30 2018 H 197.666 0.71975 -4.33262 0
M  V30 2019 H 198.272 -0.942154 -4.14733 0
M  V30 2020 N 196.587 1.43421 -0.653314 0
M  V30 2021 C 197.497 2.34568 0.0388565 0
M  V30 2022 C 198.513 1.53888 0.81207 0
M  V30 2023 O 199.689 1.86539 0.759294 0
M  V30 2024 C 196.754 3.32167 0.993269 0
M  V30 2025 C 195.815 4.28751 0.216977 0
M  V30 2026 C 195.048 5.21688 1.12593 0
M  V30 2027 O 195.271 5.19052 2.36519 0
M  V30 2028 O 194.205 5.98919 0.598284 0
M  V30 2029 H 198.031 2.95251 -0.711386 0
M  V30 2030 H 195.616 1.43564 -0.413502 0
M  V30 2031 H 197.498 3.92183 1.54176 0
M  V30 2032 H 196.173 2.73987 1.72374 0
M  V30 2033 H 195.08 3.72215 -0.375101 0
M  V30 2034 H 196.413 4.89913 -0.473924 0
M  V30 2035 N 198.065 0.39524 1.52563 0
M  V30 2036 C 199.476 -0.0774719 1.86539 0
M  V30 2037 C 199.827 -1.45641 1.31466 0
M  V30 2038 O 198.952 -2.06459 0.648367 0
M  V30 2039 C 199.547 -0.147356 3.38479 0
M  V30 2040 C 198.106 -0.564373 3.72145 0
M  V30 2041 C 197.253 0.269919 2.75983 0
M  V30 2042 H 200.204 0.612876 1.46388 0
M  V30 2043 H 200.225 -0.965343 3.68051 0
M  V30 2044 H 199.737 0.856387 3.78534 0
M  V30 2045 H 197.838 -1.57527 3.37663 0
M  V30 2046 H 197.951 -0.318402 4.78041 0
M  V30 2047 H 196.315 -0.265696 2.5331 0
M  V30 2048 H 197.098 1.27175 3.18875 0
M  V30 2049 N 199.544 -1.57102 0.125237 0
M  V30 2050 C 200.774 -1.99472 -0.538015 0
M  V30 2051 C 201.182 -1.00395 -1.60366 0
M  V30 2052 O 200.525 0.0103875 -1.83697 0
M  V30 2053 C 200.587 -3.38262 -1.21734 0
M  V30 2054 C 200.251 -4.56021 -0.298897 0
M  V30 2055 C 201.248 -5.17817 0.464943 0
M  V30 2056 C 198.933 -5.01869 -0.208149 0
M  V30 2057 C 200.927 -6.23852 1.3072 0
M  V30 2058 C 198.614 -6.07763 0.637736 0
M  V30 2059 C 199.612 -6.68622 1.39403 0
M  V30 2060 O 199.3 -7.7247 2.22586 0
M  V30 2061 H 199.032 -0.659934 -0.146501 0
M  V30 2062 H 201.586 -2.04321 0.210267 0
M  V30 2063 H 199.816 -3.30185 -2.01282 0
M  V30 2064 H 201.505 -3.6488 -1.77813 0
M  V30 2065 H 202.271 -4.83308 0.404741 0
M  V30 2066 H 198.15 -4.54241 -0.786522 0
M  V30 2067 H 201.694 -6.71284 1.898 0
M  V30 2068 H 197.591 -6.41701 0.699309 0
M  V30 2069 H 198.359 -7.89595 2.15596 0
M  V30 2070 N 201.022 0.148545 -1.56898 0
M  V30 2071 C 202.269 0.861418 -1.83264 0
M  V30 2072 C 202.597 1.81239 -0.705883 0
M  V30 2073 O 201.852 1.93305 0.305212 0
M  V30 2074 C 202.151 1.67064 -3.1595 0
M  V30 2075 C 201.817 0.866591 -4.42494 0
M  V30 2076 C 200.479 0.644762 -4.76861 0
M  V30 2077 C 202.831 0.30418 -5.20312 0
M  V30 2078 C 200.159 -0.15021 -5.86508 0
M  V30 2079 C 202.511 -0.477824 -6.30793 0
M  V30 2080 C 201.175 -0.710244 -6.63711 0
M  V30 2081 H 200.445 0.315215 -0.670612 0
M  V30 2082 H 203.092 0.125142 -1.91091 0
M  V30 2083 H 201.397 2.47698 -3.03567 0
M  V30 2084 H 203.094 2.22566 -3.33565 0
M  V30 2085 H 199.684 1.04955 -4.15551 0
M  V30 2086 H 203.868 0.462844 -4.94137 0
M  V30 2087 H 199.124 -0.339796 -6.10455 0
M  V30 2088 H 203.298 -0.92076 -6.90286 0
M  V30 2089 H 200.925 -1.3281 -7.48509 0
M  V30 2090 N 202.5 1.5196 0.417844 0
M  V30 2091 C 203.749 1.6482 1.16264 0
M  V30 2092 C 204.062 0.379886 1.91876 0
M  V30 2093 O 205.268 0.388154 2.68711 0
M  V30 2094 C 203.724 2.91161 2.1155 0
M  V30 2095 C 203.332 4.25068 1.41495 0
M  V30 2096 C 205.076 3.13383 2.86341 0
M  V30 2097 C 202.983 5.42541 2.35379 0
M  V30 2098 H 201.913 0.613954 0.437694 0
M  V30 2099 H 204.564 1.78442 0.427871 0
M  V30 2100 H 202.946 2.71218 2.88543 0
M  V30 2101 H 204.12 4.55463 0.699263 0
M  V30 2102 H 202.435 4.0888 0.787792 0
M  V30 2103 H 205.032 3.98324 3.5671 0
M  V30 2104 H 205.375 2.27256 3.48798 0
M  V30 2105 H 205.908 3.33757 2.1645 0
M  V30 2106 H 202.647 6.30987 1.77582 0
M  V30 2107 H 202.167 5.16497 3.04945 0
M  V30 2108 H 203.846 5.75272 2.96093 0
M  V30 2109 N 203.978 -0.674533 1.42435 0
M  V30 2110 C 205.226 -1.43175 1.42637 0
M  V30 2111 C 205.547 -1.94951 0.0438992 0
M  V30 2112 O 204.817 -1.7308 -0.917607 0
M  V30 2113 H 203.397 -0.531307 0.525092 0
M  V30 2114 H 206.059 -0.797006 1.77859 0
M  V30 2115 H 205.155 -2.28463 2.12629 0
M  V30 2116 N 205.456 -1.28612 -0.910864 0
M  V30 2117 C 206.705 -1.15311 -1.65488 0
M  V30 2118 C 207.018 0.296999 -1.93332 0
M  V30 2119 O 208.224 0.551168 -2.65847 0
M  V30 2120 C 206.68 -2.01599 -2.98137 0
M  V30 2121 C 206.288 -3.51367 -2.7793 0
M  V30 2122 C 208.032 -1.96993 -3.76024 0
M  V30 2123 C 205.939 -4.29797 -4.06237 0
M  V30 2124 H 204.869 -0.42796 -0.620779 0
M  V30 2125 H 207.52 -1.53166 -1.01057 0
M  V30 2126 H 205.902 -1.56603 -3.63719 0
M  V30 2127 H 207.076 -4.0434 -2.21011 0
M  V30 2128 H 205.391 -3.57529 -2.13452 0
M  V30 2129 H 207.988 -2.52856 -4.71135 0
M  V30 2130 H 208.331 -0.94733 -4.05378 0
M  V30 2131 H 208.864 -2.39973 -3.17266 0
M  V30 2132 H 205.603 -5.32648 -3.82055 0
M  V30 2133 H 205.123 -3.81596 -4.62757 0
M  V30 2134 H 206.802 -4.39869 -4.74473 0
M  V30 2135 N 206.934 1.1197 -1.10907 0
M  V30 2136 C 208.181 1.83588 -0.854507 0
M  V30 2137 C 208.509 1.84357 0.6199 0
M  V30 2138 O 207.764 1.28809 1.47332 0
M  V30 2139 C 208.063 3.30749 -1.35425 0
M  V30 2140 C 207.729 3.50146 -2.84093 0
M  V30 2141 C 206.391 3.55148 -3.2469 0
M  V30 2142 C 208.743 3.56857 -3.79872 0
M  V30 2143 C 206.071 3.6441 -4.59806 0
M  V30 2144 C 208.423 3.6765 -5.14797 0
M  V30 2145 C 207.087 3.7091 -5.54961 0
M  V30 2146 H 206.357 0.671795 -0.312686 0
M  V30 2147 H 209.004 1.32091 -1.38652 0
M  V30 2148 H 207.309 3.84703 -0.742361 0
M  V30 2149 H 209.006 3.8464 -1.1337 0
M  V30 2150 H 205.596 3.46919 -2.51685 0
M  V30 2151 H 209.78 3.52258 -3.49611 0
M  V30 2152 H 205.036 3.65208 -4.9034 0
M  V30 2153 H 209.21 3.71786 -5.88853 0
M  V30 2154 H 206.837 3.7784 -6.59652 0
M  V30 2155 N 208.412 0.89855 1.29475 0
M  V30 2156 C 209.652 0.530771 1.97388 0
M  V30 2157 C 210.016 -0.905832 1.69289 0
M  V30 2158 O 211.217 -1.38042 2.30646 0
M  V30 2159 C 209.488 0.81369 3.48014 0
M  V30 2160 S 211.047 0.550048 4.35339 0
M  V30 2161 H 207.865 0.196956 0.683176 0
M  V30 2162 H 210.467 1.16074 1.57312 0
M  V30 2163 H 209.171 1.85749 3.65958 0
M  V30 2164 H 208.702 0.171795 3.93025 0
M  V30 2165 H 210.717 -0.605423 4.92493 0
M  V30 2166 N 209.89 -1.43072 0.660911 0
M  V30 2167 C 211.137 -2.01721 0.177445 0
M  V30 2168 C 211.465 -1.5218 -1.21126 0
M  V30 2169 O 210.72 -0.708659 -1.82419 0
M  V30 2170 C 211.019 -3.57103 0.145563 0
M  V30 2171 C 210.685 -4.26021 1.47705 0
M  V30 2172 C 209.347 -4.44563 1.84165 0
M  V30 2173 C 211.699 -4.64983 2.35458 0
M  V30 2174 C 209.027 -4.99334 3.0803 0
M  V30 2175 C 211.379 -5.21127 3.58622 0
M  V30 2176 C 210.043 -5.37884 3.95268 0
M  V30 2177 H 209.313 -0.73815 0.0649317 0
M  V30 2178 H 211.96 -1.71446 0.853144 0
M  V30 2179 H 210.265 -3.86965 -0.61361 0
M  V30 2180 H 211.962 -4.00248 -0.2455 0
M  V30 2181 H 208.552 -4.11939 1.18339 0
M  V30 2182 H 212.736 -4.50343 2.08579 0
M  V30 2183 H 207.992 -5.10493 3.36462 0
M  V30 2184 H 212.166 -5.50262 4.26831 0
M  V30 2185 H 209.793 -5.80089 4.91325 0
M  V30 2186 N 211.368 -0.403325 -1.52352 0
M  V30 2187 C 212.278 0.432009 -2.30588 0
M  V30 2188 C 213.294 1.05884 -1.38075 0
M  V30 2189 O 214.47 1.06161 -1.71148 0
M  V30 2190 C 211.535 1.53669 -3.10784 0
M  V30 2191 C 210.596 0.933525 -4.19027 0
M  V30 2192 C 209.829 1.98557 -4.9539 0
M  V30 2193 O 210.052 3.20283 -4.71991 0
M  V30 2194 O 208.986 1.59504 -5.80381 0
M  V30 2195 H 212.812 -0.205739 -3.03002 0
M  V30 2196 H 210.397 -0.166675 -1.48467 0
M  V30 2197 H 212.279 2.17814 -3.60742 0
M  V30 2198 H 210.954 2.15915 -2.41169 0
M  V30 2199 H 209.861 0.254954 -3.7323 0
M  V30 2200 H 211.194 0.35508 -4.90918 0
M  V30 2201 N 212.846 1.57033 -0.133567 0
M  V30 2202 C 213.809 2.14897 0.796995 0
M  V30 2203 C 214.809 1.0874 1.18458 0
M  V30 2204 O 215.999 1.34446 1.1077 0
M  V30 2205 C 213.131 2.70112 2.07973 0
M  V30 2206 H 214.324 2.98457 0.293873 0
M  V30 2207 H 211.877 1.55871 0.115787 0
M  V30 2208 H 212.612 1.9018 2.62682 0
M  V30 2209 H 212.397 3.47764 1.81115 0
M  V30 2210 H 213.887 3.14738 2.74462 0
M  V30 2211 N 214.325 -0.140222 1.56975 0
M  V30 2212 C 215.573 -0.850005 1.83356 0
M  V30 2213 C 215.894 -1.81399 0.71551 0
M  V30 2214 O 215.164 -1.94136 -0.262294 0
M  V30 2215 H 213.744 -0.316886 0.676456 0
M  V30 2216 H 216.406 -0.132608 1.94448 0
M  V30 2217 H 215.502 -1.40814 2.78528 0
M  V30 2218 N 215.803 -1.52179 -0.40978 0
M  V30 2219 C 217.052 -1.65434 -1.15388 0
M  V30 2220 C 217.365 -0.390056 -1.91671 0
M  V30 2221 O 218.571 -0.402399 -2.68501 0
M  V30 2222 C 217.027 -2.92279 -2.10003 0
M  V30 2223 C 216.635 -4.25813 -1.39239 0
M  V30 2224 C 218.379 -3.14897 -2.84675 0
M  V30 2225 C 216.286 -5.43782 -2.32498 0
M  V30 2226 H 215.216 -0.616267 -0.434432 0
M  V30 2227 H 217.867 -1.78666 -0.418401 0
M  V30 2228 H 216.249 -2.72744 -2.871 0
M  V30 2229 H 217.423 -4.55828 -0.675099 0
M  V30 2230 H 215.738 -4.09292 -0.766097 0
M  V30 2231 H 218.335 -4.0021 -3.54593 0
M  V30 2232 H 218.678 -2.29103 -3.47588 0
M  V30 2233 H 219.211 -3.34901 -2.14677 0
M  V30 2234 H 215.95 -6.3192 -1.74233 0
M  V30 2235 H 215.47 -5.18106 -3.02201 0
M  V30 2236 H 217.149 -5.76834 -2.93038 0
M  V30 2237 N 217.281 0.66697 -1.42791 0
M  V30 2238 C 218.228 1.7803 -1.4688 0
M  V30 2239 C 219.198 1.6299 -0.319919 0
M  V30 2240 O 220.383 1.83432 -0.525118 0
M  V30 2241 C 217.523 3.1611 -1.38451 0
M  V30 2242 C 216.636 3.42381 -2.63437 0
M  V30 2243 C 215.771 4.70232 -2.47094 0
M  V30 2244 C 214.81 4.89564 -3.67415 0
M  V30 2245 N 213.947 6.08661 -3.49966 0
M  V30 2246 H 218.787 1.7387 -2.42019 0
M  V30 2247 H 216.324 0.84868 -1.20149 0
M  V30 2248 H 218.282 3.95914 -1.31561 0
M  V30 2249 H 216.912 3.19374 -0.469033 0
M  V30 2250 H 215.964 2.56774 -2.80662 0
M  V30 2251 H 217.276 3.52557 -3.52853 0
M  V30 2252 H 216.43 5.5814 -2.37834 0
M  V30 2253 H 215.169 4.62353 -1.5518 0
M  V30 2254 H 214.174 4.00096 -3.77099 0
M  V30 2255 H 215.399 4.99282 -4.6032 0
M  V30 2256 H 213.345 6.0194 -2.60776 0
M  V30 2257 H 213.262 6.19733 -4.32975 0
M  V30 2258 H 214.53 6.99226 -3.44532 0
M  V30 2259 N 218.759 1.29093 0.90403 0
M  V30 2260 C 220.008 1.16187 1.64874 0
M  V30 2261 C 220.321 -0.286742 1.93487 0
M  V30 2262 O 221.527 -0.537062 2.66135 0
M  V30 2263 C 219.983 2.03177 2.97064 0
M  V30 2264 C 219.591 3.52836 2.76062 0
M  V30 2265 C 221.335 1.98984 3.74974 0
M  V30 2266 C 219.242 4.31945 4.03952 0
M  V30 2267 H 218.172 0.431246 0.618501 0
M  V30 2268 H 220.823 1.53699 1.00243 0
M  V30 2269 H 219.205 1.5853 3.62883 0
M  V30 2270 H 220.379 4.05507 2.18863 0
M  V30 2271 H 218.694 3.58656 2.11553 0
M  V30 2272 H 221.291 2.55351 4.69787 0
M  V30 2273 H 221.634 0.968815 4.0487 0
M  V30 2274 H 222.167 2.41652 3.15989 0
M  V30 2275 H 218.906 5.34667 3.79225 0
M  V30 2276 H 218.426 3.84045 4.60727 0
M  V30 2277 H 220.105 4.42379 4.72133 0
M  V30 2278 N 220.237 -1.11381 1.11499 0
M  V30 2279 C 221.486 -1.82494 0.858993 0
M  V30 2280 C 221.799 -1.85605 -0.617278 0
M  V30 2281 O 223.005 -2.52824 -0.989552 0
M  V30 2282 C 221.461 -3.27745 1.48699 0
M  V30 2283 C 221.069 -3.32961 2.99735 0
M  V30 2284 C 222.813 -4.03754 1.31085 0
M  V30 2285 C 220.72 -4.72612 3.55516 0
M  V30 2286 H 219.65 -0.683802 0.317696 0
M  V30 2287 H 222.301 -1.25331 1.34031 0
M  V30 2288 H 220.683 -3.84844 0.933339 0
M  V30 2289 H 221.857 -2.85741 3.61509 0
M  V30 2290 H 220.172 -2.70433 3.16631 0
M  V30 2291 H 222.769 -5.06891 1.70192 0
M  V30 2292 H 223.112 -4.15527 0.253496 0
M  V30 2293 H 223.645 -3.53043 1.83318 0
M  V30 2294 H 220.384 -4.66036 4.60967 0
M  V30 2295 H 219.904 -5.2024 2.98513 0
M  V30 2296 H 221.583 -5.4157 3.53992 0
M  V30 2297 N 221.715 -0.905404 -1.28997 0
M  V30 2298 C 222.678 -0.392253 -2.25819 0
M  V30 2299 C 223.678 0.476753 -1.5357 0
M  V30 2300 O 224.868 0.280994 -1.71919 0
M  V30 2301 C 222 0.438588 -3.38067 0
M  V30 2302 H 223.193 -1.24743 -2.72725 0
M  V30 2303 H 220.746 -0.684051 -1.40536 0
M  V30 2304 H 221.481 1.31352 -2.96508 0
M  V30 2305 H 221.266 -0.184167 -3.91667 0
M  V30 2306 H 222.756 0.78873 -4.10084 0
M  V30 2307 N 223.193 1.4272 -0.668489 0
M  V30 2308 C 224.123 2.335 -0.000100175 0
M  V30 2309 C 225.104 1.50328 0.795964 0
M  V30 2310 O 226.289 1.78949 0.754385 0
M  V30 2311 C 223.419 3.33874 0.956302 0
M  V30 2312 C 222.373 4.27152 0.269278 0
M  V30 2313 C 221.699 5.17684 1.33818 0
M  V30 2314 C 222.999 5.15373 -0.847805 0
M  V30 2315 H 224.693 2.89639 -0.758244 0
M  V30 2316 H 222.239 1.39269 -0.366079 0
M  V30 2317 H 224.192 3.9629 1.43292 0
M  V30 2318 H 222.916 2.76025 1.74579 0
M  V30 2319 H 221.575 3.66123 -0.187042 0
M  V30 2320 H 221.223 4.56165 2.1195 0
M  V30 2321 H 220.923 5.80918 0.883659 0
M  V30 2322 H 222.447 5.82974 1.81586 0
M  V30 2323 H 223.861 5.7151 -0.452681 0
M  V30 2324 H 222.258 5.87407 -1.22773 0
M  V30 2325 H 223.328 4.5415 -1.69929 0
M  V30 2326 N 224.671 0.411399 1.52136 0
M  V30 2327 C 225.919 -0.163322 2.01439 0
M  V30 2328 C 226.24 -1.45453 1.29879 0
M  V30 2329 O 225.51 -1.91225 0.4254 0
M  V30 2330 H 224.09 -0.0633447 0.744309 0
M  V30 2331 H 226.752 0.548161 1.87033 0
M  V30 2332 H 225.848 -0.357817 3.10042 0
M  V30 2333 N 226.149 -1.5696 0.141893 0
M  V30 2334 C 227.396 -1.9596 -0.510492 0
M  V30 2335 C 227.724 -1.02648 -1.65208 0
M  V30 2336 O 226.979 -0.0546947 -1.95624 0
M  V30 2337 C 227.278 -3.41242 -1.06249 0
M  V30 2338 C 226.944 -4.50882 -0.0398791 0
M  V30 2339 C 225.606 -4.80595 0.241247 0
M  V30 2340 C 227.958 -5.17058 0.65578 0
M  V30 2341 C 225.286 -5.73792 1.22393 0
M  V30 2342 C 227.638 -6.11313 1.62724 0
M  V30 2343 C 226.302 -6.39407 1.91612 0
M  V30 2344 H 225.572 -0.717068 -0.186802 0
M  V30 2345 H 228.219 -1.90142 0.227643 0
M  V30 2346 H 226.524 -3.43866 -1.87785 0
M  V30 2347 H 228.221 -3.68742 -1.57576 0
M  V30 2348 H 224.811 -4.27754 -0.269174 0
M  V30 2349 H 228.995 -4.94239 0.451779 0
M  V30 2350 H 224.251 -5.93853 1.45424 0
M  V30 2351 H 228.425 -6.61668 2.17183 0
M  V30 2352 H 226.052 -7.11427 2.6791 0
M  V30 2353 N 227.627 0.131896 -1.57047 0
M  V30 2354 C 228.873 0.843179 -1.84441 0
M  V30 2355 C 229.206 1.80129 -0.725749 0
M  V30 2356 O 228.481 1.92624 0.269469 0
M  V30 2357 C 228.764 1.60442 -3.22382 0
M  V30 2358 C 228.617 0.666782 -4.4483 0
M  V30 2359 C 229.936 2.56354 -3.5773 0
M  V30 2360 H 227.055 0.305081 -0.670891 0
M  V30 2361 H 229.697 0.107839 -1.89694 0
M  V30 2362 H 227.847 2.23128 -3.18035 0
M  V30 2363 H 229.519 0.0497646 -4.61273 0
M  V30 2364 H 227.762 -0.022609 -4.33794 0
M  V30 2365 H 228.433 1.23579 -5.37989 0
M  V30 2366 H 230.909 2.0378 -3.62785 0
M  V30 2367 H 229.785 3.06657 -4.5525 0
M  V30 2368 H 230.046 3.38419 -2.84473 0
M  V30 2369 N 229.106 1.52395 0.401703 0
M  V30 2370 C 230.353 1.66817 1.14796 0
M  V30 2371 C 230.681 0.401772 1.90305 0
M  V30 2372 O 229.936 -0.615487 1.85769 0
M  V30 2373 C 230.235 2.84578 2.16217 0
M  V30 2374 C 229.901 4.22513 1.5746 0
M  V30 2375 C 228.563 4.60029 1.41161 0
M  V30 2376 C 230.915 5.0844 1.14622 0
M  V30 2377 C 228.243 5.81144 0.80552 0
M  V30 2378 C 230.595 6.30167 0.55428 0
M  V30 2379 C 229.259 6.66426 0.378482 0
M  V30 2380 H 228.529 0.610428 0.420069 0
M  V30 2381 H 231.176 1.86512 0.434212 0
M  V30 2382 H 229.481 2.59248 2.93764 0
M  V30 2383 H 231.178 2.92933 2.73845 0
M  V30 2384 H 227.768 3.92953 1.71132 0
M  V30 2385 H 231.952 4.80034 1.26021 0
M  V30 2386 H 227.208 6.07855 0.657399 0
M  V30 2387 H 231.382 6.96071 0.213983 0
M  V30 2388 H 229.009 7.60143 -0.0932606 0
M  V30 2389 N 230.584 -0.659388 1.43143 0
M  V30 2390 C 231.534 -1.7655 1.44271 0
M  V30 2391 C 232.518 -1.57847 0.311961 0
M  V30 2392 O 233.71 -1.68064 0.555306 0
M  V30 2393 C 230.839 -3.15104 1.36251 0
M  V30 2394 C 229.925 -3.39377 2.54331 0
M  V30 2395 N 230.316 -3.34153 3.79704 0
M  V30 2396 C 228.614 -3.70072 2.48922 0
M  V30 2397 C 229.315 -3.58337 4.58225 0
M  V30 2398 N 228.291 -3.79851 3.88863 0
M  V30 2399 H 232.093 -1.70928 2.39083 0
M  V30 2400 H 229.607 -0.860823 1.37708 0
M  V30 2401 H 231.604 -3.94389 1.35141 0
M  V30 2402 H 230.264 -3.21913 0.424531 0
M  V30 2403 H 231.275 -3.13704 4.1208 0
M  V30 2404 H 227.952 -3.84034 1.63781 0
M  V30 2405 H 229.342 -3.60129 5.67236 0
M  V30 2406 N 232.062 -1.29571 -0.897171 0
M  V30 2407 C 233.009 -1.14916 -2.00158 0
M  V30 2408 C 233.979 -0.0418149 -1.66047 0
M  V30 2409 O 235.164 -0.209793 -1.89643 0
M  V30 2410 C 232.304 -0.834307 -3.34863 0
M  V30 2411 C 231.417 -2.02234 -3.8174 0
M  V30 2412 C 230.552 -1.64664 -5.05034 0
M  V30 2413 C 229.591 -2.80033 -5.44286 0
M  V30 2414 N 228.728 -2.42843 -6.58765 0
M  V30 2415 H 233.568 -2.09403 -2.12025 0
M  V30 2416 H 231.105 -1.042 -1.0383 0
M  V30 2417 H 233.063 -0.632436 -4.12379 0
M  V30 2418 H 231.693 0.0736656 -3.22716 0
M  V30 2419 H 230.745 -2.33583 -3.00238 0
M  V30 2420 H 232.057 -2.88673 -4.06779 0
M  V30 2421 H 231.211 -1.4078 -5.9014 0
M  V30 2422 H 229.95 -0.753766 -4.8184 0
M  V30 2423 H 228.955 -3.04596 -4.57713 0
M  V30 2424 H 230.18 -3.69989 -5.6946 0
M  V30 2425 H 228.126 -1.56046 -6.3717 0
M  V30 2426 H 228.043 -3.22815 -6.83613 0
M  V30 2427 H 229.311 -2.22285 -7.47134 0
M  V30 2428 N 233.54 1.10788 -1.12088 0
M  V30 2429 C 234.788 1.8231 -0.872205 0
M  V30 2430 C 235.109 1.85419 0.603709 0
M  V30 2431 O 234.379 1.32963 1.43867 0
M  V30 2432 H 232.959 0.675137 -0.319686 0
M  V30 2433 H 235.621 1.34068 -1.41463 0
M  V30 2434 H 234.717 2.85955 -1.25045 0
M  V30 2435 N 235.018 0.912232 1.28515 0
M  V30 2436 C 236.243 0.559774 1.99703 0
M  V30 2437 C 236.668 -0.851393 1.67729 0
M  V30 2438 O 236.026 -1.56875 0.908834 0
M  V30 2439 C 236.074 0.773874 3.52198 0
M  V30 2440 O 235.178 -0.167842 4.12058 0
M  V30 2441 H 234.519 0.21723 0.627461 0
M  V30 2442 H 237.049 1.22725 1.63706 0
M  V30 2443 H 237.059 0.683386 4.02236 0
M  V30 2444 H 235.734 1.80261 3.74805 0
M  V30 2445 H 234.311 -0.0287509 3.72889 0
M  V30 2446 N 236.496 -1.42363 0.676048 0
M  V30 2447 C 237.726 -2.05561 0.206967 0
M  V30 2448 C 238.134 -1.50887 -1.14148 0
M  V30 2449 O 237.477 -0.643933 -1.72044 0
M  V30 2450 C 237.539 -3.5944 0.0659508 0
M  V30 2451 C 237.203 -4.36812 1.34331 0
M  V30 2452 C 238.2 -4.67383 2.27704 0
M  V30 2453 C 235.885 -4.76429 1.59125 0
M  V30 2454 C 237.879 -5.36509 3.44147 0
M  V30 2455 C 235.566 -5.45294 2.75857 0
M  V30 2456 C 236.564 -5.75259 3.68193 0
M  V30 2457 O 236.252 -6.42712 4.82883 0
M  V30 2458 H 235.984 -0.668872 0.0979084 0
M  V30 2459 H 238.538 -1.83467 0.923531 0
M  V30 2460 H 236.768 -3.80197 -0.706204 0
M  V30 2461 H 238.457 -4.0427 -0.363418 0
M  V30 2462 H 239.223 -4.37275 2.09799 0
M  V30 2463 H 235.102 -4.52498 0.881258 0
M  V30 2464 H 238.646 -5.59814 4.16238 0
M  V30 2465 H 234.543 -5.7482 2.93688 0
M  V30 2466 H 235.311 -6.61204 4.82444 0
M  V30 2467 N 237.974 -0.419461 -1.51915 0
M  V30 2468 C 238.904 0.391813 -2.30189 0
M  V30 2469 C 239.885 1.03699 -1.34836 0
M  V30 2470 O 241.07 1.04403 -1.63748 0
M  V30 2471 C 238.2 1.50312 -3.13087 0
M  V30 2472 C 237.154 0.9824 -4.16573 0
M  V30 2473 C 236.48 2.18809 -4.8788 0
M  V30 2474 C 237.78 0.0292356 -5.22292 0
M  V30 2475 H 239.474 -0.26135 -2.98257 0
M  V30 2476 H 237.02 -0.127134 -1.43438 0
M  V30 2477 H 238.973 2.07773 -3.66617 0
M  V30 2478 H 237.697 2.18431 -2.42807 0
M  V30 2479 H 236.356 0.430119 -3.64068 0
M  V30 2480 H 236.004 2.85507 -4.14119 0
M  V30 2481 H 235.704 1.84615 -5.57845 0
M  V30 2482 H 237.228 2.76858 -5.44226 0
M  V30 2483 H 238.642 0.512976 -5.71 0
M  V30 2484 H 237.039 -0.2244 -5.9968 0
M  V30 2485 H 238.109 -0.912931 -4.76228 0
M  V30 2486 N 239.452 1.56882 -0.150215 0
M  V30 2487 C 240.868 1.58263 0.20617 0
M  V30 2488 C 241.068 1.16464 1.64434 0
M  V30 2489 O 240.124 0.866422 2.3717 0
M  V30 2490 C 241.437 3.00649 -0.0555025 0
M  V30 2491 C 242.985 3.12999 0.00795388 0
M  V30 2492 C 243.46 4.5744 -0.226429 0
M  V30 2493 N 244.951 4.62875 -0.173469 0
M  V30 2494 C 245.686 5.72454 -0.329288 0
M  V30 2495 N 245.182 6.90669 -0.543005 0
M  V30 2496 N 246.975 5.61467 -0.266666 0
M  V30 2497 H 239.126 1.82345 -1.08922 0
M  V30 2498 H 241.389 0.844149 -0.431413 0
M  V30 2499 H 241.095 3.3563 -1.05096 0
M  V30 2500 H 240.969 3.71337 0.66246 0
M  V30 2501 H 243.356 2.77857 0.993966 0
M  V30 2502 H 243.437 2.4479 -0.742388 0
M  V30 2503 H 243.081 4.93287 -1.20956 0
M  V30 2504 H 243.011 5.2378 0.544274 0
M  V30 2505 H 245.502 3.77898 -0.0130709 0
M  V30 2506 H 245.815 7.70045 -0.651922 0
M  V30 2507 H 244.16 6.92581 -0.579366 0
M  V30 2508 H 247.351 4.67992 -0.100441 0
M  V30 2509 H 247.524 6.46816 -0.391535 0
M  V30 2510 N 240.93 -0.123565 1.57115 0
M  V30 2511 C 241.878 -1.17082 2.00984 0
M  V30 2512 C 242.872 -1.43136 0.906009 0
M  V30 2513 O 244.078 -1.43152 1.09121 0
M  V30 2514 H 240.453 -0.394653 0.64012 0
M  V30 2515 H 242.424 -0.774292 2.88179 0
M  V30 2516 C 241.173 -2.49057 2.42623 0
M  V30 2517 H 240.496 -2.29846 3.27125 0
M  V30 2518 H 241.936 -3.20906 2.7712 0
M  V30 2519 C 240.395 -3.11305 1.28805 0
M  V30 2520 O 240.925 -3.97171 0.60153 0
M  V30 2521 N 239.131 -2.71111 1.04628 0
M  V30 2522 H 238.678 -2.01382 1.60634 0
M  V30 2523 H 238.636 -3.1309 0.286685 0
M  V30 2524 N 242.408 -1.52605 -0.393616 0
M  V30 2525 C 243.656 -1.67093 -1.13685 0
M  V30 2526 C 243.977 -0.411011 -1.90619 0
M  V30 2527 O 243.247 0.574491 -1.87287 0
M  V30 2528 H 241.827 -0.615923 -0.422668 0
M  V30 2529 H 244.489 -1.89704 -0.447039 0
M  V30 2530 H 243.585 -2.51922 -1.84232 0
M  V30 2531 N 243.887 0.651787 -1.4349 0
M  V30 2532 C 245.133 1.4121 -1.46395 0
M  V30 2533 C 245.488 1.92202 -0.087366 0
M  V30 2534 O 244.781 1.69452 0.894231 0
M  V30 2535 C 244.975 2.60914 -2.44251 0
M  V30 2536 C 244.804 2.21639 -3.91288 0
M  V30 2537 C 243.574 2.09897 -4.59643 0
M  V30 2538 C 245.772 1.81835 -4.81083 0
M  V30 2539 N 243.754 1.63967 -5.91598 0
M  V30 2540 C 245.125 1.46998 -6.02322 0
M  V30 2541 C 247.18 1.69031 -4.6833 0
M  V30 2542 C 245.883 1.00638 -7.12225 0
M  V30 2543 C 247.909 1.24077 -5.78238 0
M  V30 2544 C 247.271 0.901772 -6.98604 0
M  V30 2545 H 243.37 0.512322 -0.590805 0
M  V30 2546 H 245.954 0.74989 -1.7968 0
M  V30 2547 H 244.125 3.24792 -2.1299 0
M  V30 2548 H 245.857 3.27622 -2.37584 0
M  V30 2549 H 242.612 2.297 -4.14168 0
M  V30 2550 H 243.036 1.43359 -6.61647 0
M  V30 2551 H 247.678 1.93878 -3.75727 0
M  V30 2552 H 245.396 0.745399 -8.04655 0
M  V30 2553 H 248.982 1.14657 -5.7039 0
M  V30 2554 H 247.862 0.559226 -7.82203 0
M  V30 2555 N 245.365 1.30045 0.890287 0
M  V30 2556 C 246.312 1.15976 1.99545 0
M  V30 2557 C 247.282 0.0506202 1.66023 0
M  V30 2558 O 248.467 0.219847 1.89529 0
M  V30 2559 C 245.607 0.852054 3.34416 0
M  V30 2560 C 244.72 2.04255 3.80662 0
M  V30 2561 C 243.855 1.6734 5.04154 0
M  V30 2562 C 242.894 2.82916 5.42794 0
M  V30 2563 N 242.031 2.46333 6.57468 0
M  V30 2564 H 246.871 2.10524 2.10911 0
M  V30 2565 H 244.408 1.04749 1.03276 0
M  V30 2566 H 246.366 0.654296 4.12037 0
M  V30 2567 H 244.996 -0.0565502 3.2275 0
M  V30 2568 H 244.048 2.35172 2.98995 0
M  V30 2569 H 245.36 2.90826 4.05242 0
M  V30 2570 H 244.514 1.43908 5.89386 0
M  V30 2571 H 243.253 0.779308 4.81433 0
M  V30 2572 H 242.258 3.0702 4.56091 0
M  V30 2573 H 243.483 3.73004 5.6749 0
M  V30 2574 H 241.429 1.59423 6.36334 0
M  V30 2575 H 241.346 3.26436 6.81891 0
M  V30 2576 H 242.614 2.26244 7.45945 0
M  V30 2577 N 246.843 -1.10192 1.12674 0
M  V30 2578 C 248.089 -1.82475 0.884915 0
M  V30 2579 C 248.422 -1.85093 -0.58773 0
M  V30 2580 O 247.697 -1.3134 -1.43457 0
M  V30 2581 C 247.98 -3.29018 1.46353 0
M  V30 2582 C 247.833 -3.34718 3.00473 0
M  V30 2583 C 249.152 -4.25473 1.12519 0
M  V30 2584 H 246.271 -0.662492 0.322915 0
M  V30 2585 H 248.913 -1.2913 1.39375 0
M  V30 2586 H 247.063 -3.74576 1.03077 0
M  V30 2587 H 248.735 -2.97622 3.52447 0
M  V30 2588 H 246.978 -2.74541 3.35872 0
M  V30 2589 H 247.649 -4.37918 3.36053 0
M  V30 2590 H 250.125 -3.88161 1.499 0
M  V30 2591 H 249.001 -5.26365 1.55663 0
M  V30 2592 H 249.262 -4.42084 0.0377407 0
M  V30 2593 N 248.321 -0.919034 -1.28029 0
M  V30 2594 C 249.254 -0.355887 -2.25408 0
M  V30 2595 C 250.232 0.542874 -1.5327 0
M  V30 2596 O 251.416 0.485338 -1.82145 0
M  V30 2597 C 248.543 0.490759 -3.35126 0
M  V30 2598 C 247.589 -0.343358 -4.25116 0
M  V30 2599 S 248.422 -1.75344 -5.05979 0
M  V30 2600 C 249.578 -0.914244 -6.19187 0
M  V30 2601 H 249.811 -1.18123 -2.72826 0
M  V30 2602 H 247.344 -0.720636 -1.36551 0
M  V30 2603 H 249.302 0.973404 -3.98792 0
M  V30 2604 H 247.963 1.29054 -2.86363 0
M  V30 2605 H 247.156 0.304266 -5.03081 0
M  V30 2606 H 246.758 -0.759851 -3.662 0
M  V30 2607 H 249.05 -0.146282 -6.77342 0
M  V30 2608 H 249.993 -1.66661 -6.88208 0
M  V30 2609 H 250.401 -0.460082 -5.62622 0
M  V30 2610 N 249.799 1.42003 -0.683588 0
M  V30 2611 C 251.076 1.95112 -0.138075 0
M  V30 2612 C 251.456 1.62359 1.34918 0
M  V30 2613 O 250.804 0.924311 2.08971 0
M  V30 2614 C 251.014 3.46505 -0.416581 0
M  V30 2615 C 252.362 4.23254 -0.337834 0
M  V30 2616 O 253.386 3.54468 -0.35082 0
M  V30 2617 O 252.245 5.45743 -0.287596 0
M  V30 2618 H 249.339 0.826961 -0.00797996 0
M  V30 2619 H 251.885 1.51784 -0.758924 0
M  V30 2620 H 250.657 3.63582 -1.4465 0
M  V30 2621 H 250.28 3.969 0.235839 0
M  V30 2622 N 251.277 0.427512 1.51691 0
M  V30 2623 C 252.524 -0.142229 2.02 0
M  V30 2624 C 252.852 -1.43566 1.31221 0
M  V30 2625 O 252.107 -1.91298 0.412744 0
M  V30 2626 C 252.406 -0.418249 3.54944 0
M  V30 2627 C 252.072 0.788187 4.43958 0
M  V30 2628 C 250.734 1.11906 4.68007 0
M  V30 2629 C 253.086 1.59347 4.96244 0
M  V30 2630 C 250.414 2.25608 5.41588 0
M  V30 2631 C 252.766 2.7214 5.71072 0
M  V30 2632 C 251.43 3.05692 5.93387 0
M  V30 2633 H 250.7 -0.0520451 0.73917 0
M  V30 2634 H 253.347 0.572697 1.82736 0
M  V30 2635 H 251.652 -1.21496 3.72486 0
M  V30 2636 H 253.349 -0.872339 3.91397 0
M  V30 2637 H 249.939 0.520344 4.2543 0
M  V30 2638 H 254.123 1.35106 4.77556 0
M  V30 2639 H 249.379 2.51929 5.57083 0
M  V30 2640 H 253.553 3.34914 6.10578 0
M  V30 2641 H 251.18 3.9391 6.50184 0
M  V30 2642 N 252.755 -1.56801 0.158532 0
M  V30 2643 C 254.001 -1.96781 -0.490405 0
M  V30 2644 C 254.334 -1.04397 -1.63753 0
M  V30 2645 O 253.609 -0.0885805 -1.94298 0
M  V30 2646 C 253.892 -3.4635 -0.985594 0
M  V30 2647 C 253.745 -4.49512 0.160824 0
M  V30 2648 C 255.064 -3.98697 -1.86355 0
M  V30 2649 H 252.183 -0.715482 -0.176788 0
M  V30 2650 H 254.825 -1.88451 0.242088 0
M  V30 2651 H 252.975 -3.53579 -1.60978 0
M  V30 2652 H 254.647 -4.54353 0.797537 0
M  V30 2653 H 252.89 -4.26013 0.818256 0
M  V30 2654 H 253.561 -5.51531 -0.227569 0
M  V30 2655 H 256.037 -3.94019 -1.33746 0
M  V30 2656 H 254.913 -5.03792 -2.17909 0
M  V30 2657 H 255.174 -3.41744 -2.8047 0
M  V30 2658 N 254.233 0.115231 -1.57178 0
M  V30 2659 C 255.479 0.82357 -1.85325 0
M  V30 2660 C 255.812 1.79349 -0.744814 0
M  V30 2661 O 255.087 1.92899 0.249024 0
M  V30 2662 C 255.37 1.57014 -3.24066 0
M  V30 2663 C 255.223 0.619565 -4.45513 0
M  V30 2664 C 256.542 2.52545 -3.60429 0
M  V30 2665 H 253.661 0.297948 -0.674089 0
M  V30 2666 H 256.303 0.0877138 -1.89797 0
M  V30 2667 H 254.453 2.19742 -3.20383 0
M  V30 2668 H 256.125 0.000837639 -4.613 0
M  V30 2669 H 254.368 -0.0686174 -4.33746 0
M  V30 2670 H 255.039 1.17866 -5.3927 0
M  V30 2671 H 257.515 1.9992 -3.64926 0
M  V30 2672 H 256.391 3.01811 -4.58477 0
M  V30 2673 H 256.652 3.35383 -2.88047 0
M  V30 2674 N 255.711 1.52812 0.385517 0
M  V30 2675 C 256.957 1.68275 1.13188 0
M  V30 2676 C 257.29 0.423179 1.89533 0
M  V30 2677 O 256.565 -0.579113 1.85679 0
M  V30 2678 C 256.848 2.92001 2.1073 0
M  V30 2679 C 256.701 4.28067 1.38125 0
M  V30 2680 C 258.02 3.11283 3.11113 0
M  V30 2681 H 255.139 0.612352 0.410115 0
M  V30 2682 H 257.781 1.85415 0.414869 0
M  V30 2683 H 255.931 2.77519 2.71874 0
M  V30 2684 H 257.603 4.54324 0.799187 0
M  V30 2685 H 255.846 4.28388 0.683092 0
M  V30 2686 H 256.517 5.10733 2.09417 0
M  V30 2687 H 258.993 3.2482 2.6006 0
M  V30 2688 H 257.869 3.99325 3.76605 0
M  V30 2689 H 258.13 2.25656 3.80173 0
M  V30 2690 N 257.189 -0.644168 1.43834 0
M  V30 2691 C 258.119 -1.76814 1.52509 0
M  V30 2692 C 259.1 -1.65823 0.379052 0
M  V30 2693 O 260.285 -1.84781 0.597466 0
M  V30 2694 C 257.415 -3.15288 1.4564 0
M  V30 2695 C 256.369 -3.41053 2.58586 0
M  V30 2696 C 255.695 -4.79421 2.36769 0
M  V30 2697 C 256.995 -3.34902 4.00797 0
M  V30 2698 H 258.689 -1.69812 2.46586 0
M  V30 2699 H 256.235 -0.815542 1.1868 0
M  V30 2700 H 258.188 -3.93681 1.50311 0
M  V30 2701 H 256.912 -3.23043 0.480725 0
M  V30 2702 H 255.571 -2.65035 2.53282 0
M  V30 2703 H 255.219 -4.83863 1.37424 0
M  V30 2704 H 254.919 -4.9762 3.12487 0
M  V30 2705 H 256.443 -5.6006 2.43238 0
M  V30 2706 H 257.857 -4.03218 4.07539 0
M  V30 2707 H 256.254 -3.64637 4.76613 0
M  V30 2708 H 257.324 -2.32928 4.25291 0
M  V30 2709 N 258.668 -1.30515 -0.883378 0
M  V30 2710 C 259.896 -1.22359 -1.66841 0
M  V30 2711 C 260.311 0.213296 -1.87591 0
M  V30 2712 O 259.668 1.14075 -1.42454 0
M  V30 2713 C 259.719 -1.95011 -3.04389 0
M  V30 2714 O 259.44 -3.3309 -2.84575 0
M  V30 2715 C 260.941 -1.93532 -3.98824 0
M  V30 2716 H 258.161 -0.423371 -0.520575 0
M  V30 2717 H 260.705 -1.72167 -1.10357 0
M  V30 2718 H 258.86 -1.48997 -3.57601 0
M  V30 2719 H 259.274 -3.69907 -3.71846 0
M  V30 2720 H 260.748 -2.48902 -4.92699 0
M  V30 2721 H 261.225 -0.914627 -4.29571 0
M  V30 2722 H 261.831 -2.39364 -3.51547 0
M  V30 2723 N 260.146 1.09593 -1.13257 0
M  V30 2724 C 261.394 1.81375 -0.891492 0
M  V30 2725 C 261.715 1.86049 0.584009 0
M  V30 2726 O 260.985 1.34481 1.42449 0
M  V30 2727 H 259.565 0.671708 -0.326828 0
M  V30 2728 H 262.227 1.3256 -1.42877 0
M  V30 2729 H 261.323 2.84612 -1.28071 0
M  V30 2730 N 261.624 0.925811 1.2754 0
M  V30 2731 C 262.873 0.561084 1.93739 0
M  V30 2732 C 263.186 -0.901685 1.73577 0
M  V30 2733 O 264.392 -1.37511 2.34101 0
M  V30 2734 C 262.848 0.952668 3.47062 0
M  V30 2735 C 262.456 2.43599 3.75983 0
M  V30 2736 C 264.2 0.659103 4.19352 0
M  V30 2737 C 262.107 2.76707 5.22673 0
M  V30 2738 H 261.037 0.206122 0.725279 0
M  V30 2739 H 263.688 1.12637 1.44863 0
M  V30 2740 H 262.07 0.316053 3.94737 0
M  V30 2741 H 263.244 3.12035 3.39073 0
M  V30 2742 H 261.559 2.70125 3.16893 0
M  V30 2743 H 264.156 0.882985 5.27359 0
M  V30 2744 H 264.499 -0.403607 4.14339 0
M  V30 2745 H 265.032 1.25473 3.77494 0
M  V30 2746 H 261.771 3.8188 5.32774 0
M  V30 2747 H 261.291 2.12919 5.60737 0
M  V30 2748 H 262.97 2.6435 5.90532 0
M  V30 2749 N 263.102 -1.41638 0.69111 0
M  V30 2750 C 264.032 -2.3347 0.037248 0
M  V30 2751 C 265.013 -1.51575 -0.771947 0
M  V30 2752 O 266.198 -1.80126 -0.72582 0
M  V30 2753 C 263.328 -3.35354 -0.903064 0
M  V30 2754 C 262.282 -4.27526 -0.201288 0
M  V30 2755 C 261.608 -5.19747 -1.25565 0
M  V30 2756 C 262.908 -5.13959 0.929689 0
M  V30 2757 H 264.602 -2.88397 0.804227 0
M  V30 2758 H 262.148 -1.38669 0.388189 0
M  V30 2759 H 264.101 -3.98519 -1.36969 0
M  V30 2760 H 262.825 -2.78767 -1.70166 0
M  V30 2761 H 261.484 -3.65779 0.245265 0
M  V30 2762 H 261.132 -4.59479 -2.04666 0
M  V30 2763 H 260.832 -5.8225 -0.791128 0
M  V30 2764 H 262.356 -5.85789 -1.72288 0
M  V30 2765 H 263.77 -5.70718 0.543546 0
M  V30 2766 H 262.167 -5.85379 1.32103 0
M  V30 2767 H 263.237 -4.51389 1.77133 0
M  V30 2768 N 264.58 -0.43555 -1.51462 0
M  V30 2769 C 265.543 0.365137 -2.26273 0
M  V30 2770 C 266.543 0.951227 -1.29647 0
M  V30 2771 O 267.733 0.825958 -1.53374 0
M  V30 2772 C 264.865 1.51645 -3.05314 0
M  V30 2773 H 266.058 -0.290474 -2.9849 0
M  V30 2774 H 263.611 -0.188676 -1.55157 0
M  V30 2775 H 264.346 2.20816 -2.3751 0
M  V30 2776 H 264.131 1.10238 -3.76284 0
M  V30 2777 H 265.621 2.08218 -3.61987 0
M  V30 2778 N 266.058 1.56714 -0.166846 0
M  V30 2779 C 267.286 2.0112 0.485644 0
M  V30 2780 C 267.701 1.04705 1.57106 0
M  V30 2781 O 267.058 0.0471923 1.82439 0
M  V30 2782 C 267.109 3.45361 1.06808 0
M  V30 2783 O 266.83 4.38092 0.0259995 0
M  V30 2784 C 268.331 4.05145 1.79924 0
M  V30 2785 H 265.551 0.65931 0.124704 0
M  V30 2786 H 268.095 2.02746 -0.267262 0
M  V30 2787 H 266.25 3.44524 1.7715 0
M  V30 2788 H 266.664 5.22519 0.455398 0
M  V30 2789 H 268.138 5.08009 2.15942 0
M  V30 2790 H 268.615 3.46982 2.69258 0
M  V30 2791 H 269.221 4.09672 1.14234 0
M  V30 2792 N 267.536 -0.106894 1.57237 0
M  V30 2793 C 268.499 -1.11466 2.0027 0
M  V30 2794 C 269.499 -1.33623 0.894519 0
M  V30 2795 O 270.689 -1.29935 1.16028 0
M  V30 2796 C 267.821 -2.46646 2.35327 0
M  V30 2797 H 269.014 -0.744516 2.90512 0
M  V30 2798 H 266.567 -0.351576 1.52295 0
M  V30 2799 H 267.302 -2.88558 1.48003 0
M  V30 2800 H 267.087 -2.31915 3.16161 0
M  V30 2801 H 268.577 -3.19151 2.69318 0
M  V30 2802 N 269.014 -1.53014 -0.377408 0
M  V30 2803 C 270.262 -1.6829 -1.11906 0
M  V30 2804 C 270.583 -0.431206 -1.90173 0
M  V30 2805 O 269.853 0.554595 -1.87886 0
M  V30 2806 H 268.433 -0.620371 -0.416112 0
M  V30 2807 H 271.095 -1.90167 -0.426893 0
M  V30 2808 H 270.191 -2.53862 -1.8155 0
M  V30 2809 N 270.492 0.636531 -1.44174 0
M  V30 2810 C 271.72 1.42353 -1.50144 0
M  V30 2811 C 272.135 1.88389 -0.124575 0
M  V30 2812 O 271.492 1.6051 0.868489 0
M  V30 2813 C 271.543 2.64744 -2.46156 0
M  V30 2814 O 271.264 2.20629 -3.7849 0
M  V30 2815 C 272.765 3.57929 -2.61537 0
M  V30 2816 H 269.985 0.436752 -0.5094 0
M  V30 2817 H 272.529 0.778933 -1.89084 0
M  V30 2818 H 270.684 3.25307 -2.10366 0
M  V30 2819 H 271.098 2.99938 -4.30276 0
M  V30 2820 H 272.572 4.40428 -3.32757 0
M  V30 2821 H 273.049 4.06382 -1.66585 0
M  V30 2822 H 273.655 3.03238 -2.98206 0
M  V30 2823 N 271.97 1.30982 0.876444 0
M  V30 2824 C 273.247 1.10942 1.61094 0
M  V30 2825 C 273.627 -0.338223 2.08373 0
M  V30 2826 O 272.975 -1.33122 1.85717 0
M  V30 2827 C 273.185 2.11789 2.77392 0
M  V30 2828 C 274.533 2.43965 3.47514 0
M  V30 2829 O 275.557 2.10166 2.87591 0
M  V30 2830 O 274.416 3.01817 4.55597 0
M  V30 2831 H 271.51 0.42667 0.708436 0
M  V30 2832 H 274.056 1.42438 0.922474 0
M  V30 2833 H 272.828 3.09194 2.39823 0
M  V30 2834 H 272.451 1.81161 3.5393 0
M  V30 2835 N 273.449 -1.08991 1.13837 0
M  V30 2836 C 274.696 -1.81258 0.902882 0
M  V30 2837 C 275.024 -1.85936 -0.570803 0
M  V30 2838 O 274.279 -1.3267 -1.43865 0
M  V30 2839 C 274.578 -3.27042 1.44147 0
M  V30 2840 C 274.244 -3.4249 2.93276 0
M  V30 2841 C 272.906 -3.46414 3.33992 0
M  V30 2842 C 275.258 -3.4666 3.892 0
M  V30 2843 C 272.586 -3.52091 4.69307 0
M  V30 2844 C 274.938 -3.53872 5.24364 0
M  V30 2845 C 273.602 -3.56066 5.646 0
M  V30 2846 H 272.872 -0.663268 0.330388 0
M  V30 2847 H 275.519 -1.28368 1.42105 0
M  V30 2848 H 273.824 -3.82599 0.844097 0
M  V30 2849 H 275.521 -3.81499 1.23528 0
M  V30 2850 H 272.111 -3.40124 2.60794 0
M  V30 2851 H 276.295 -3.42865 3.58828 0
M  V30 2852 H 271.551 -3.52079 4.9985 0
M  V30 2853 H 275.725 -3.56043 5.98503 0
M  V30 2854 H 273.352 -3.60218 6.69438 0
M  V30 2855 N 274.927 -0.932562 -1.27047 0
M  V30 2856 C 276.204 -0.49377 -1.89265 0
M  V30 2857 C 276.584 1.02833 -1.8436 0
M  V30 2858 O 275.932 1.88461 -1.29209 0
M  V30 2859 C 276.142 -1.04536 -3.32976 0
M  V30 2860 C 277.49 -1.10879 -4.09867 0
M  V30 2861 O 278.514 -0.995327 -3.42011 0
M  V30 2862 O 277.373 -1.28417 -5.31198 0
M  V30 2863 H 274.467 -0.159596 -0.811454 0
M  V30 2864 H 277.013 -1.02457 -1.3528 0
M  V30 2865 H 275.785 -2.08913 -3.30864 0
M  V30 2866 H 275.408 -0.496494 -3.94488 0
M  V30 2867 N 276.405 1.4127 -0.698611 0
M  V30 2868 C 277.335 2.33447 -0.049629 0
M  V30 2869 C 278.316 1.51982 0.763898 0
M  V30 2870 O 279.501 1.80509 0.716257 0
M  V30 2871 C 276.631 3.35828 0.885267 0
M  V30 2872 C 275.585 4.27627 0.178613 0
M  V30 2873 C 274.911 5.20406 1.22807 0
M  V30 2874 C 276.211 5.13459 -0.956933 0
M  V30 2875 H 277.905 2.87966 -0.81951 0
M  V30 2876 H 275.451 1.38461 -0.395538 0
M  V30 2877 H 277.404 3.9924 1.34854 0
M  V30 2878 H 276.128 2.79666 1.68685 0
M  V30 2879 H 274.787 3.65643 -0.26466 0
M  V30 2880 H 274.435 4.60558 2.02226 0
M  V30 2881 H 274.135 5.82661 0.760239 0
M  V30 2882 H 275.659 5.86695 1.69179 0
M  V30 2883 H 277.073 5.70421 -0.573805 0
M  V30 2884 H 275.47 5.8467 -1.35205 0
M  V30 2885 H 276.54 4.50443 -1.79524 0
M  V30 2886 N 277.883 0.443576 1.51229 0
M  V30 2887 C 279.299 0.0962001 1.5931 0
M  V30 2888 C 279.499 -1.39501 1.45402 0
M  V30 2889 O 278.555 -2.16557 1.29843 0
M  V30 2890 C 279.868 0.621875 2.94199 0
M  V30 2891 C 281.416 0.582865 3.07525 0
M  V30 2892 C 281.891 1.08562 4.44948 0
M  V30 2893 N 283.382 1.04387 4.51284 0
M  V30 2894 C 284.117 1.40368 5.55954 0
M  V30 2895 N 283.613 1.83664 6.68011 0
M  V30 2896 N 285.406 1.32145 5.46346 0
M  V30 2897 H 277.557 1.41376 1.58514 0
M  V30 2898 H 279.82 0.582965 0.747567 0
M  V30 2899 H 279.526 1.66546 3.09767 0
M  V30 2900 H 279.4 0.0502125 3.77167 0
M  V30 2901 H 281.787 -0.451749 2.91622 0
M  V30 2902 H 281.868 1.191 2.26382 0
M  V30 2903 H 281.512 2.11873 4.61598 0
M  V30 2904 H 281.442 0.453956 5.2464 0
M  V30 2905 H 283.933 0.725986 3.70861 0
M  V30 2906 H 284.246 2.0934 7.43906 0
M  V30 2907 H 282.591 1.87596 6.69203 0
M  V30 2908 H 285.782 0.981808 4.57688 0
M  V30 2909 H 285.955 1.60514 6.27805 0
M  V30 2910 N 279.361 -1.56624 0.175154 0
M  V30 2911 C 280.589 -2.01374 -0.474971 0
M  V30 2912 C 281.004 -1.05537 -1.56548 0
M  V30 2913 O 280.361 -0.0568668 -1.82411 0
M  V30 2914 C 280.412 -3.45923 -1.04975 0
M  V30 2915 O 280.133 -4.381 -0.00276605 0
M  V30 2916 C 281.634 -4.06093 -1.77773 0
M  V30 2917 H 278.854 -0.659962 -0.121206 0
M  V30 2918 H 281.398 -2.02601 0.27801 0
M  V30 2919 H 279.553 -3.45458 -1.75321 0
M  V30 2920 H 279.967 -5.22753 -0.427681 0
M  V30 2921 H 281.441 -5.09147 -2.13245 0
M  V30 2922 H 281.918 -3.48405 -2.67414 0
M  V30 2923 H 282.524 -4.10272 -1.12059 0
M  V30 2924 N 280.839 0.0985539 -1.57292 0
M  V30 2925 C 281.769 1.12064 -2.04851 0
M  V30 2926 C 282.75 1.41981 -0.936767 0
M  V30 2927 O 283.935 1.52071 -1.20781 0
M  V30 2928 C 281.065 2.44144 -2.47004 0
M  V30 2929 C 280.019 2.28643 -3.6181 0
M  V30 2930 C 279.345 3.65869 -3.89929 0
M  V30 2931 C 280.645 1.72986 -4.92822 0
M  V30 2932 H 282.339 0.724979 -2.9049 0
M  V30 2933 H 279.885 0.34729 -1.39749 0
M  V30 2934 H 281.838 3.15914 -2.78884 0
M  V30 2935 H 280.562 2.85639 -1.5836 0
M  V30 2936 H 279.221 1.59318 -3.30172 0
M  V30 2937 H 278.869 4.04885 -2.98458 0
M  V30 2938 H 278.569 3.56344 -4.67218 0
M  V30 2939 H 280.093 4.39112 -4.2428 0
M  V30 2940 H 281.507 2.34593 -5.23105 0
M  V30 2941 H 279.904 1.74229 -5.74251 0
M  V30 2942 H 280.974 0.689007 -4.7998 0
M  V30 2943 N 282.317 1.53212 0.369288 0
M  V30 2944 C 283.733 1.42902 0.710712 0
M  V30 2945 C 283.933 0.565135 1.93413 0
M  V30 2946 O 282.989 0.0461484 2.52458 0
M  V30 2947 C 284.302 2.86042 0.927382 0
M  V30 2948 C 285.85 2.9565 1.02762 0
M  V30 2949 C 286.325 4.39843 1.27679 0
M  V30 2950 N 287.816 4.43256 1.34457 0
M  V30 2951 C 288.551 5.51929 1.55439 0
M  V30 2952 N 288.047 6.70655 1.73762 0
M  V30 2953 N 289.84 5.39502 1.57779 0
M  V30 2954 H 281.991 2.07888 -0.435457 0
M  V30 2955 H 284.254 0.938661 -0.132739 0
M  V30 2956 H 283.96 3.51557 0.100287 0
M  V30 2957 H 283.834 3.29472 1.83653 0
M  V30 2958 H 286.221 2.30291 1.84527 0
M  V30 2959 H 286.302 2.5562 0.0959504 0
M  V30 2960 H 285.946 5.05774 0.464175 0
M  V30 2961 H 285.876 4.77443 2.22162 0
M  V30 2962 H 288.367 3.5769 1.21926 0
M  V30 2963 H 288.68 7.49248 1.89335 0
M  V30 2964 H 287.025 6.73648 1.70948 0
M  V30 2965 H 290.216 4.45713 1.43029 0
M  V30 2966 H 290.389 6.2426 1.7379 0
M  V30 2967 N 283.795 -0.628877 1.44509 0
M  V30 2968 C 284.758 -1.72263 1.51188 0
M  V30 2969 C 285.758 -1.55907 0.39367 0
M  V30 2970 O 286.948 -1.61361 0.656377 0
M  V30 2971 C 284.08 -3.11365 1.38798 0
M  V30 2972 H 285.273 -1.67714 2.4862 0
M  V30 2973 H 282.826 -0.842737 1.31634 0
M  V30 2974 H 283.561 -3.21507 0.424693 0
M  V30 2975 H 283.346 -3.24644 2.19884 0
M  V30 2976 H 284.836 -3.91075 1.46458 0
M  V30 2977 N 285.273 -1.31445 -0.869486 0
M  V30 2978 C 286.519 -1.21337 -1.62496 0
M  V30 2979 C 286.852 0.227872 -1.92858 0
M  V30 2980 O 286.127 1.16094 -1.56053 0
M  V30 2981 C 286.41 -2.05814 -2.95487 0
M  V30 2982 C 286.263 -3.5824 -2.72 0
M  V30 2983 C 287.582 -1.9079 -3.96594 0
M  V30 2984 H 284.701 -0.442135 -0.589649 0
M  V30 2985 H 287.343 -1.6124 -1.00507 0
M  V30 2986 H 285.493 -1.71913 -3.48394 0
M  V30 2987 H 287.165 -4.0228 -2.25762 0
M  V30 2988 H 285.408 -3.81647 -2.06224 0
M  V30 2989 H 286.079 -4.12657 -3.66631 0
M  V30 2990 H 288.555 -2.20459 -3.52898 0
M  V30 2991 H 287.431 -2.52199 -4.87531 0
M  V30 2992 H 287.692 -0.871341 -4.33428 0
M  V30 2993 N 286.751 1.08385 -1.14413 0
M  V30 2994 C 288.167 1.32844 -0.884563 0
M  V30 2995 C 288.367 1.95841 0.474181 0
M  V30 2996 O 287.423 2.21158 1.21842 0
M  V30 2997 C 288.736 2.22978 -2.01745 0
M  V30 2998 C 290.284 2.36458 -2.05077 0
M  V30 2999 C 290.759 3.29934 -3.1766 0
M  V30 3000 N 292.25 3.37511 -3.17239 0
M  V30 3001 C 292.985 4.09871 -4.0099 0
M  V30 3002 N 292.481 4.84936 -4.94781 0
M  V30 3003 N 294.274 4.05704 -3.89051 0
M  V30 3004 H 286.425 0.658756 -2.01926 0
M  V30 3005 H 288.688 0.352821 -0.879899 0
M  V30 3006 H 288.394 1.83934 -2.99769 0
M  V30 3007 H 288.268 3.23441 -1.94077 0
M  V30 3008 H 290.655 2.7476 -1.0766 0
M  V30 3009 H 290.736 1.35736 -2.16816 0
M  V30 3010 H 290.38 2.92352 -4.15322 0
M  V30 3011 H 290.31 4.30584 -3.03158 0
M  V30 3012 H 292.801 2.83996 -2.49308 0
M  V30 3013 H 293.114 5.37612 -5.55151 0
M  V30 3014 H 291.459 4.83988 -4.98779 0
M  V30 3015 H 294.65 3.46167 -3.15097 0
M  V30 3016 H 294.823 4.61834 -4.54547 0
M  V30 3017 N 288.23 0.939286 1.26551 0
M  V30 3018 C 289.476 0.586715 1.94128 0
M  V30 3019 C 289.809 -0.8717 1.73537 0
M  V30 3020 O 289.084 -1.62339 1.07127 0
M  V30 3021 C 289.367 0.927497 3.4795 0
M  V30 3022 C 289.22 2.44052 3.77834 0
M  V30 3023 C 290.539 0.441569 4.37879 0
M  V30 3024 H 287.658 0.21463 0.705055 0
M  V30 3025 H 290.3 1.17316 1.49455 0
M  V30 3026 H 288.45 0.428431 3.8613 0
M  V30 3027 H 290.122 3.01216 3.4938 0
M  V30 3028 H 288.365 2.8848 3.23978 0
M  V30 3029 H 289.036 2.62947 4.85348 0
M  V30 3030 H 291.512 0.869448 4.06915 0
M  V30 3031 H 290.388 0.708856 5.44304 0
M  V30 3032 H 290.649 -0.658467 4.37169 0
M  V30 3033 N 289.708 -1.40897 0.706093 0
M  V30 3034 C 290.638 -2.33418 0.0620085 0
M  V30 3035 C 291.619 -1.52385 -0.755827 0
M  V30 3036 O 292.804 -1.80886 -0.706674 0
M  V30 3037 C 289.934 -3.36293 -0.867445 0
M  V30 3038 C 288.888 -4.27716 -0.155932 0
M  V30 3039 C 288.214 -5.2105 -1.20046 0
M  V30 3040 C 289.514 -5.12944 0.984149 0
M  V30 3041 H 291.208 -2.87527 0.83477 0
M  V30 3042 H 288.754 -1.38249 0.402875 0
M  V30 3043 H 290.707 -3.99949 -1.32735 0
M  V30 3044 H 289.431 -2.80556 -1.67199 0
M  V30 3045 H 288.09 -3.65498 0.284047 0
M  V30 3046 H 287.738 -4.61624 -1.99781 0
M  V30 3047 H 287.438 -5.83056 -0.729328 0
M  V30 3048 H 288.962 -5.87584 -1.66066 0
M  V30 3049 H 290.376 -5.70109 0.604048 0
M  V30 3050 H 288.773 -5.83945 1.38304 0
M  V30 3051 H 289.843 -4.49485 1.81911 0
M  V30 3052 N 291.186 -0.45159 -1.50991 0
M  V30 3053 C 292.602 -0.104647 -1.59257 0
M  V30 3054 C 292.802 1.38728 -1.4614 0
M  V30 3055 O 291.858 2.15866 -1.30989 0
M  V30 3056 C 293.171 -0.637468 -2.93865 0
M  V30 3057 C 294.719 -0.599166 -3.07212 0
M  V30 3058 C 295.194 -1.1092 -4.44366 0
M  V30 3059 N 296.685 -1.06778 -4.50725 0
M  V30 3060 C 297.42 -1.43314 -5.55201 0
M  V30 3061 N 296.916 -1.87204 -6.67028 0
M  V30 3062 N 298.709 -1.3504 -5.45638 0
M  V30 3063 H 290.86 -1.42214 -1.57762 0
M  V30 3064 H 293.123 -0.586921 -0.744465 0
M  V30 3065 H 292.829 -1.68187 -3.08879 0
M  V30 3066 H 292.703 -0.0702139 -3.77135 0
M  V30 3067 H 295.09 0.436277 -2.91857 0
M  V30 3068 H 295.171 -1.20299 -2.25747 0
M  V30 3069 H 294.815 -2.14318 -4.60467 0
M  V30 3070 H 294.745 -0.481773 -5.24392 0
M  V30 3071 H 297.236 -0.745643 -3.70471 0
M  V30 3072 H 297.549 -2.13282 -7.42786 0
M  V30 3073 H 295.894 -1.91142 -6.68199 0
M  V30 3074 H 299.085 -1.00607 -4.57161 0
M  V30 3075 H 299.258 -1.63841 -6.26945 0
M  V30 3076 N 292.664 1.56529 -0.183458 0
M  V30 3077 C 294.075 1.83739 0.331177 0
M  V30 3078 C 294.426 1.10373 1.62211 0
M  V30 3079 O 293.551 0.36071 2.13373 0
M  V30 3080 C 294.146 3.33306 0.607646 0
M  V30 3081 C 292.705 3.60969 1.06668 0
M  V30 3082 C 291.852 2.77086 0.109029 0
M  V30 3083 H 294.803 1.53379 -0.407484 0
M  V30 3084 H 294.824 3.51444 1.45832 0
M  V30 3085 H 294.336 3.86677 -0.332086 0
M  V30 3086 H 292.437 3.13021 2.0211 0
M  V30 3087 H 292.55 4.69231 0.967447 0
M  V30 3088 H 290.914 2.47319 0.608714 0
M  V30 3089 H 291.697 3.33241 -0.82494 0
M  V30 3090 N 294.142 -0.090211 1.57342 0
M  V30 3091 C 295.072 -1.10976 2.05443 0
M  V30 3092 C 296.053 -1.41482 0.944284 0
M  V30 3093 O 297.238 -1.51428 1.21586 0
M  V30 3094 C 294.368 -2.42831 2.48295 0
M  V30 3095 C 293.322 -2.26721 3.63018 0
M  V30 3096 C 292.648 -3.63796 3.91863 0
M  V30 3097 C 293.948 -1.7037 4.93732 0
M  V30 3098 H 295.642 -0.709564 2.9087 0
M  V30 3099 H 293.188 -0.339874 1.39932 0
M  V30 3100 H 295.141 -3.14431 2.80555 0
M  V30 3101 H 293.865 -2.84795 1.59873 0
M  V30 3102 H 292.524 -1.57565 3.31012 0
M  V30 3103 H 292.172 -4.03297 3.00601 0
M  V30 3104 H 291.872 -3.53861 4.69101 0
M  V30 3105 H 293.396 -4.36855 4.26603 0
M  V30 3106 H 294.81 -2.31816 5.24342 0
M  V30 3107 H 293.207 -1.71181 5.75167 0
M  V30 3108 H 294.277 -0.663542 4.80339 0
M  V30 3109 N 295.62 -1.53406 -0.361157 0
M  V30 3110 C 296.567 -1.80156 -1.44265 0
M  V30 3111 C 297.537 -0.646183 -1.53015 0
M  V30 3112 O 298.722 -0.888818 -1.68833 0
M  V30 3113 C 295.862 -2.00116 -2.81154 0
M  V30 3114 C 294.975 -3.27833 -2.81335 0
M  V30 3115 C 294.11 -3.37957 -4.09828 0
M  V30 3116 C 293.149 -4.59689 -4.04168 0
M  V30 3117 N 292.286 -4.66942 -5.24318 0
M  V30 3118 H 297.126 -2.72438 -1.20754 0
M  V30 3119 H 294.663 -1.34954 -0.585296 0
M  V30 3120 H 296.621 -2.09677 -3.60682 0
M  V30 3121 H 295.251 -1.11167 -3.03054 0
M  V30 3122 H 294.303 -3.27204 -1.94014 0
M  V30 3123 H 295.615 -4.17442 -2.73027 0
M  V30 3124 H 294.769 -3.46853 -4.97773 0
M  V30 3125 H 293.508 -2.46372 -4.20894 0
M  V30 3126 H 292.513 -4.50889 -3.14609 0
M  V30 3127 H 293.738 -5.5262 -3.947 0
M  V30 3128 H 291.684 -3.7826 -5.35962 0
M  V30 3129 H 291.601 -5.50462 -5.18197 0
M  V30 3130 H 292.869 -4.80127 -6.14084 0
M  V30 3131 N 297.098 0.621204 -1.44841 0
M  V30 3132 C 298.028 1.74366 -1.55303 0
M  V30 3133 C 299.009 1.65199 -0.405385 0
M  V30 3134 O 300.194 1.83807 -0.626787 0
M  V30 3135 C 297.324 3.12931 -1.50637 0
M  V30 3136 C 296.278 3.36896 -2.63979 0
M  V30 3137 C 295.604 4.75594 -2.44366 0
M  V30 3138 C 296.904 3.28483 -4.06074 0
M  V30 3139 H 298.598 1.65867 -2.49256 0
M  V30 3140 H 296.144 0.796558 -1.19962 0
M  V30 3141 H 298.097 3.9124 -1.56555 0
M  V30 3142 H 296.821 3.22237 -0.532057 0
M  V30 3143 H 295.48 2.60972 -2.57467 0
M  V30 3144 H 295.128 4.81616 -1.45105 0
M  V30 3145 H 294.828 4.92586 -3.20364 0
M  V30 3146 H 296.352 5.5612 -2.52117 0
M  V30 3147 H 297.766 3.96684 -4.13902 0
M  V30 3148 H 296.163 3.57008 -4.82354 0
M  V30 3149 H 297.233 2.26133 -4.28943 0
M  V30 3150 N 298.576 1.31904 0.862503 0
M  V30 3151 C 299.822 1.22197 1.61851 0
M  V30 3152 C 300.155 -0.217641 1.92977 0
M  V30 3153 O 299.43 -1.15264 1.56666 0
M  V30 3154 C 299.713 2.07378 2.94391 0
M  V30 3155 C 299.566 3.59678 2.70096 0
M  V30 3156 C 300.885 1.92891 3.95577 0
M  V30 3157 H 298.004 0.445255 0.587296 0
M  V30 3158 H 300.646 1.6177 0.99651 0
M  V30 3159 H 298.796 1.73758 3.47477 0
M  V30 3160 H 300.468 4.03472 2.23625 0
M  V30 3161 H 298.711 3.82735 2.04197 0
M  V30 3162 H 299.382 4.14595 3.64438 0
M  V30 3163 H 301.858 2.22327 3.51724 0
M  V30 3164 H 300.734 2.54781 4.86187 0
M  V30 3165 H 300.995 0.894315 4.3296 0
M  V30 3166 N 300.054 -1.07777 1.14986 0
M  V30 3167 C 301.279 -1.84558 0.946213 0
M  V30 3168 C 301.704 -1.81323 -0.500362 0
M  V30 3169 O 301.062 -1.20301 -1.35637 0
M  V30 3170 C 301.11 -3.29736 1.45968 0
M  V30 3171 O 300.214 -4.07149 0.65601 0
M  V30 3172 H 299.555 -0.571641 0.33782 0
M  V30 3173 H 302.085 -1.35991 1.52865 0
M  V30 3174 H 302.095 -3.80574 1.47063 0
M  V30 3175 H 300.77 -3.31406 2.51283 0
M  V30 3176 H 299.347 -3.65994 0.714322 0
M  V30 3177 N 301.532 -0.945985 -1.26051 0
M  V30 3178 C 302.78 -0.594941 -1.93145 0
M  V30 3179 C 303.101 0.86953 -1.7454 0
M  V30 3180 O 302.371 1.61838 -1.10387 0
M  V30 3181 H 300.951 -0.217044 -0.714773 0
M  V30 3182 H 303.613 -1.20235 -1.53393 0
M  V30 3183 H 302.709 -0.816835 -3.01221 0
M  V30 3184 N 303.011 1.40521 -0.713556 0
M  V30 3185 C 304.26 2.00155 -0.249192 0
M  V30 3186 C 304.573 1.57224 1.16362 0
M  V30 3187 O 305.779 2.09542 1.72639 0
M  V30 3188 C 304.235 3.5773 -0.3946 0
M  V30 3189 C 303.843 4.09635 -1.81392 0
M  V30 3190 C 305.587 4.24499 0.00907364 0
M  V30 3191 C 303.494 5.59707 -1.91003 0
M  V30 3192 H 302.424 0.74868 -0.0894114 0
M  V30 3193 H 305.075 1.60784 -0.884352 0
M  V30 3194 H 303.457 3.94792 0.30911 0
M  V30 3195 H 304.631 3.83955 -2.54785 0
M  V30 3196 H 302.946 3.55456 -2.16888 0
M  V30 3197 H 305.543 5.34683 -0.0420404 0
M  V30 3198 H 305.886 4.02824 1.05065 0
M  V30 3199 H 306.419 3.92536 -0.645007 0
M  V30 3200 H 303.158 5.86234 -2.93275 0
M  V30 3201 H 302.678 5.87258 -1.22019 0
M  V30 3202 H 304.357 6.24776 -1.6812 0
M  V30 3203 N 304.489 0.459591 1.5075 0
M  V30 3204 C 305.9 0.00171547 1.867 0
M  V30 3205 C 306.251 -1.39934 1.37525 0
M  V30 3206 O 305.376 -2.03523 0.735349 0
M  V30 3207 C 305.971 -0.00366298 3.388 0
M  V30 3208 C 304.53 -0.406026 3.74204 0
M  V30 3209 C 303.677 0.38673 2.7459 0
M  V30 3210 H 306.628 0.674413 1.43657 0
M  V30 3211 H 306.649 -0.808371 3.71814 0
M  V30 3212 H 306.161 1.01617 3.74561 0
M  V30 3213 H 304.262 -1.43063 3.4404 0
M  V30 3214 H 304.375 -0.115362 4.78961 0
M  V30 3215 H 302.739 -0.158019 2.54209 0
M  V30 3216 H 303.522 1.40585 3.13194 0
M  V30 3217 N 305.967 -1.56429 0.191757 0
M  V30 3218 C 307.192 -2.02309 -0.456706 0
M  V30 3219 C 307.617 -1.07103 -1.5463 0
M  V30 3220 O 306.975 -0.0539677 -1.8122 0
M  V30 3221 C 307.023 -3.46654 -0.993159 0
M  V30 3222 O 306.127 -3.54559 -2.10622 0
M  V30 3223 H 305.468 -0.655303 -0.107114 0
M  V30 3224 H 307.998 -2.02364 0.301653 0
M  V30 3225 H 308.008 -3.86377 -1.31061 0
M  V30 3226 H 306.683 -4.1544 -0.195504 0
M  V30 3227 H 305.26 -3.26708 -1.79767 0
M  V30 3228 N 307.445 0.0818655 -1.57387 0
M  V30 3229 C 308.375 1.09885 -2.06028 0
M  V30 3230 C 309.356 1.4098 -0.951774 0
M  V30 3231 O 310.541 1.50781 -1.22387 0
M  V30 3232 C 307.671 2.4151 -2.4958 0
M  V30 3233 C 306.625 2.24792 -3.64215 0
M  V30 3234 C 305.951 3.61712 -3.93787 0
M  V30 3235 C 307.251 1.67749 -4.94629 0
M  V30 3236 H 308.945 0.694128 -2.91243 0
M  V30 3237 H 306.491 0.332448 -1.4011 0
M  V30 3238 H 308.444 3.12939 -2.82219 0
M  V30 3239 H 307.168 2.83943 -1.61381 0
M  V30 3240 H 305.827 1.55807 -3.31843 0
M  V30 3241 H 305.475 4.01697 -3.02735 0
M  V30 3242 H 305.175 3.51368 -4.70971 0
M  V30 3243 H 306.699 4.34587 -4.28913 0
M  V30 3244 H 308.113 2.29032 -5.25564 0
M  V30 3245 H 306.51 1.68128 -5.76067 0
M  V30 3246 H 307.58 0.638059 -4.80684 0
M  V30 3247 N 308.923 1.53595 0.353017 0
M  V30 3248 C 309.855 1.77219 1.45348 0
M  V30 3249 C 310.868 0.65324 1.49119 0
M  V30 3250 O 312.057 0.929775 1.52373 0
M  V30 3251 C 309.157 1.84841 2.84055 0
M  V30 3252 C 308.33 3.14649 3.03833 0
M  V30 3253 C 307.389 3.13351 4.22727 0
M  V30 3254 O 306.415 3.87107 4.17297 0
M  V30 3255 N 307.617 2.35052 5.30783 0
M  V30 3256 H 310.382 2.72178 1.25457 0
M  V30 3257 H 307.943 1.52528 0.542833 0
M  V30 3258 H 309.935 1.81435 3.61751 0
M  V30 3259 H 308.505 0.971114 2.97133 0
M  V30 3260 H 307.725 3.31256 2.13689 0
M  V30 3261 H 309.013 4.00411 3.13925 0
M  V30 3262 H 308.411 1.74663 5.38061 0
M  V30 3263 H 306.968 2.37453 6.07009 0
M  V30 3264 N 310.401 -0.613514 1.45168 0
M  V30 3265 C 311.647 -1.37471 1.49096 0
M  V30 3266 C 311.98 -1.93765 0.129901 0
M  V30 3267 O 311.255 -1.74707 -0.854858 0
M  V30 3268 C 311.538 -2.52701 2.56542 0
M  V30 3269 C 311.391 -2.01643 4.0207 0
M  V30 3270 C 312.71 -3.54849 2.60327 0
M  V30 3271 H 309.829 -0.498502 0.54283 0
M  V30 3272 H 312.471 -0.692125 1.76945 0
M  V30 3273 H 310.621 -3.10931 2.32926 0
M  V30 3274 H 312.293 -1.48108 4.36877 0
M  V30 3275 H 310.536 -1.32688 4.13009 0
M  V30 3276 H 311.207 -2.84681 4.72928 0
M  V30 3277 H 313.683 -3.0645 2.81474 0
M  V30 3278 H 312.559 -4.32973 3.37381 0
M  V30 3279 H 312.82 -4.10079 1.6519 0
M  V30 3280 N 311.879 -1.3236 -0.855495 0
M  V30 3281 C 313.125 -1.23054 -1.612 0
M  V30 3282 C 313.458 0.207404 -1.93089 0
M  V30 3283 O 312.733 1.14432 -1.57275 0
M  V30 3284 C 313.016 -2.08937 -2.93287 0
M  V30 3285 C 312.869 -3.61105 -2.68185 0
M  V30 3286 C 314.188 -1.94986 -3.94549 0
M  V30 3287 H 311.307 -0.448364 -0.584926 0
M  V30 3288 H 313.949 -1.62297 -0.987917 0
M  V30 3289 H 312.099 -1.75599 -3.46551 0
M  V30 3290 H 313.771 -4.04652 -2.21483 0
M  V30 3291 H 312.014 -3.83813 -2.02164 0
M  V30 3292 H 312.685 -4.16522 -3.62234 0
M  V30 3293 H 315.161 -2.24189 -3.5054 0
M  V30 3294 H 314.037 -2.57356 -4.84829 0
M  V30 3295 H 314.298 -0.917263 -4.3248 0
M  V30 3296 N 313.357 1.07166 -1.15556 0
M  V30 3297 C 314.287 2.16403 -0.877046 0
M  V30 3298 C 315.268 1.69217 0.173111 0
M  V30 3299 O 316.453 1.94181 0.027084 0
M  V30 3300 C 313.583 3.45349 -0.367632 0
M  V30 3301 C 312.537 4.05995 -1.35468 0
M  V30 3302 C 311.863 5.30045 -0.704038 0
M  V30 3303 C 313.163 4.45804 -2.72132 0
M  V30 3304 H 314.857 2.39959 -1.79053 0
M  V30 3305 H 312.403 1.15325 -0.862331 0
M  V30 3306 H 314.356 4.21095 -0.160317 0
M  V30 3307 H 313.08 3.21385 0.581326 0
M  V30 3308 H 311.739 3.32296 -1.54839 0
M  V30 3309 H 311.387 5.02373 0.251128 0
M  V30 3310 H 311.087 5.71579 -1.36277 0
M  V30 3311 H 312.611 6.08495 -0.50654 0
M  V30 3312 H 314.025 5.12671 -2.56595 0
M  V30 3313 H 312.422 4.98296 -3.34397 0
M  V30 3314 H 313.492 3.57083 -3.28054 0
M  V30 3315 N 314.835 0.952656 1.25548 0
M  V30 3316 C 315.782 0.47008 2.25962 0
M  V30 3317 C 316.752 -0.476384 1.59122 0
M  V30 3318 O 317.937 -0.39007 1.8677 0
M  V30 3319 C 315.077 -0.247881 3.44209 0
M  V30 3320 C 314.19 0.735591 4.25691 0
M  V30 3321 C 313.325 -0.0047306 5.312 0
M  V30 3322 C 312.364 0.969805 6.04368 0
M  V30 3323 N 311.501 0.260486 7.01617 0
M  V30 3324 H 316.341 1.33126 2.66611 0
M  V30 3325 H 313.878 0.66765 1.31076 0
M  V30 3326 H 315.836 -0.680695 4.1161 0
M  V30 3327 H 314.466 -1.07312 3.0444 0
M  V30 3328 H 313.518 1.28689 3.57971 0
M  V30 3329 H 314.83 1.47934 4.76358 0
M  V30 3330 H 313.984 -0.496275 6.04667 0
M  V30 3331 H 312.723 -0.781282 4.81401 0
M  V30 3332 H 311.728 1.47237 5.29718 0
M  V30 3333 H 312.953 1.74655 6.56256 0
M  V30 3334 H 310.899 -0.497364 6.54112 0
M  V30 3335 H 310.816 0.943362 7.50091 0
M  V30 3336 H 312.084 -0.209587 7.79218 0
M  V30 3337 N 316.313 -1.40141 0.720998 0
M  V30 3338 C 317.538 -2.05618 0.271258 0
M  V30 3339 C 317.963 -1.53978 -1.08039 0
M  V30 3340 O 317.321 -0.677463 -1.68167 0
M  V30 3341 C 317.369 -3.59609 0.267197 0
M  V30 3342 O 316.473 -4.05526 -0.749814 0
M  V30 3343 H 315.814 -0.651904 0.126162 0
M  V30 3344 H 318.344 -1.79439 0.982997 0
M  V30 3345 H 318.354 -4.0786 0.106744 0
M  V30 3346 H 317.029 -3.96559 1.25354 0
M  V30 3347 H 315.606 -3.68722 -0.556644 0
M  V30 3348 N 317.792 -0.46758 -1.50504 0
M  V30 3349 C 319.041 0.0902868 -2.01498 0
M  V30 3350 C 319.354 1.411 -1.35463 0
M  V30 3351 O 320.56 2.0536 -1.77594 0
M  V30 3352 C 319.016 0.21142 -3.59278 0
M  V30 3353 C 318.624 -1.10065 -4.34269 0
M  V30 3354 C 320.368 0.721433 -4.18325 0
M  V30 3355 C 318.275 -0.943505 -5.83825 0
M  V30 3356 H 317.205 0.037517 -0.753066 0
M  V30 3357 H 319.856 -0.601943 -1.73346 0
M  V30 3358 H 318.238 0.967352 -3.84003 0
M  V30 3359 H 319.412 -1.86726 -4.21272 0
M  V30 3360 H 317.727 -1.5415 -3.86816 0
M  V30 3361 H 320.324 0.85598 -5.27804 0
M  V30 3362 H 320.667 1.71186 -3.79475 0
M  V30 3363 H 321.2 0.0229843 -3.97793 0
M  V30 3364 H 317.939 -1.90719 -6.27141 0
M  V30 3365 H 317.459 -0.217213 -5.99407 0
M  V30 3366 H 319.138 -0.608715 -6.4413 0
M  V30 3367 N 319.27 1.56325 -0.20005 0
M  V30 3368 C 320.203 2.15234 0.758267 0
M  V30 3369 C 321.181 1.09046 1.20614 0
M  V30 3370 O 322.365 1.37186 1.29276 0
M  V30 3371 C 319.492 2.71524 2.02466 0
M  V30 3372 C 318.538 3.90345 1.71852 0
M  V30 3373 S 319.371 5.28513 0.862249 0
M  V30 3374 C 320.527 5.88227 2.13868 0
M  V30 3375 H 320.76 2.96183 0.2575 0
M  V30 3376 H 318.293 1.54393 0.0150099 0
M  V30 3377 H 320.251 3.04598 2.75191 0
M  V30 3378 H 318.912 1.90607 2.49655 0
M  V30 3379 H 318.105 4.28158 2.65888 0
M  V30 3380 H 317.707 3.58306 1.07205 0
M  V30 3381 H 319.999 6.02891 3.09076 0
M  V30 3382 H 320.942 6.84714 1.80479 0
M  V30 3383 H 321.35 5.16874 2.2694 0
M  V30 3384 N 320.748 -0.0735177 1.57428 0
M  V30 3385 C 321.695 -1.08756 2.0357 0
M  V30 3386 C 322.665 -1.38559 0.916 0
M  V30 3387 O 323.85 -1.49656 1.18354 0
M  V30 3388 C 320.99 -2.39657 2.48311 0
M  V30 3389 C 320.103 -2.16399 3.73892 0
M  V30 3390 C 319.238 -3.40852 4.07423 0
M  V30 3391 C 318.277 -3.1295 5.2605 0
M  V30 3392 N 317.414 -4.29729 5.55228 0
M  V30 3393 H 322.254 -0.687104 2.8997 0
M  V30 3394 H 319.791 -0.327709 1.43403 0
M  V30 3395 H 321.749 -3.16081 2.72303 0
M  V30 3396 H 320.379 -2.77508 1.64891 0
M  V30 3397 H 319.431 -1.30676 3.57251 0
M  V30 3398 H 320.743 -1.91788 4.60455 0
M  V30 3399 H 319.897 -4.25671 4.32306 0
M  V30 3400 H 318.636 -3.68537 3.19425 0
M  V30 3401 H 317.641 -2.26526 5.00965 0
M  V30 3402 H 318.866 -2.86589 6.15665 0
M  V30 3403 H 316.812 -4.57448 4.70188 0
M  V30 3404 H 316.729 -4.08385 6.36206 0
M  V30 3405 H 317.997 -5.1555 5.84661 0
M  V30 3406 N 322.226 -1.5378 -0.344866 0
M  V30 3407 C 323.189 -1.80981 -1.40637 0
M  V30 3408 C 324.189 -0.680816 -1.45676 0
M  V30 3409 O 325.379 -0.949095 -1.46075 0
M  V30 3410 C 322.511 -1.95063 -2.79577 0
M  V30 3411 H 323.704 -2.75803 -1.17783 0
M  V30 3412 H 321.257 -1.45173 -0.579181 0
M  V30 3413 H 321.992 -1.02379 -3.07716 0
M  V30 3414 H 321.777 -2.77198 -2.77315 0
M  V30 3415 H 323.267 -2.17629 -3.56409 0
M  V30 3416 N 323.704 0.605807 -1.45491 0
M  V30 3417 C 324.637 1.73022 -1.48791 0
M  V30 3418 C 325.615 1.58917 -0.344112 0
M  V30 3419 O 326.799 1.80453 -0.544876 0
M  V30 3420 C 323.926 3.10865 -1.34463 0
M  V30 3421 C 322.972 3.43554 -2.5273 0
M  V30 3422 S 323.805 3.38196 -4.15191 0
M  V30 3423 C 324.961 4.78616 -4.03333 0
M  V30 3424 H 325.194 1.69961 -2.43928 0
M  V30 3425 H 322.727 0.782611 -1.33096 0
M  V30 3426 H 324.685 3.90398 -1.26884 0
M  V30 3427 H 323.346 3.1144 -0.40794 0
M  V30 3428 H 322.539 4.43924 -2.38637 0
M  V30 3429 H 322.141 2.71541 -2.5718 0
M  V30 3430 H 324.433 5.68463 -3.68587 0
M  V30 3431 H 325.376 4.97767 -5.03621 0
M  V30 3432 H 325.784 4.54381 -3.34959 0
M  V30 3433 N 325.182 1.32811 0.848464 0
M  V30 3434 C 326.428 1.23907 1.60546 0
M  V30 3435 C 326.761 -0.197161 1.93197 0
M  V30 3436 O 326.036 -1.13596 1.5788 0
M  V30 3437 C 326.319 2.10489 2.92175 0
M  V30 3438 C 326.172 3.62522 2.66266 0
M  V30 3439 C 327.491 1.97075 3.93509 0
M  V30 3440 H 324.61 0.451459 0.58254 0
M  V30 3441 H 327.252 1.62818 0.979296 0
M  V30 3442 H 325.402 1.77434 3.45614 0
M  V30 3443 H 327.074 4.05821 2.19334 0
M  V30 3444 H 325.317 3.84879 2.00126 0
M  V30 3445 H 325.988 4.18437 3.6002 0
M  V30 3446 H 328.464 2.26045 3.49346 0
M  V30 3447 H 327.34 2.59923 4.83457 0
M  V30 3448 H 327.601 0.940186 4.31987 0
M  V30 3449 N 326.66 -1.06551 1.16123 0
M  V30 3450 C 328.071 -1.60768 0.949232 0
M  V30 3451 C 328.422 -1.89523 -0.507508 0
M  V30 3452 O 327.547 -1.66671 -1.38021 0
M  V30 3453 C 328.142 -2.92086 1.71671 0
M  V30 3454 C 326.701 -3.43015 1.54977 0
M  V30 3455 C 325.848 -2.16947 1.72711 0
M  V30 3456 H 328.799 -0.895354 1.31031 0
M  V30 3457 H 328.82 -3.6138 1.19099 0
M  V30 3458 H 328.332 -2.71127 2.7769 0
M  V30 3459 H 326.433 -3.69039 0.513873 0
M  V30 3460 H 326.546 -4.18516 2.33198 0
M  V30 3461 H 324.91 -2.27041 1.15431 0
M  V30 3462 H 325.693 -1.98473 2.80113 0
M  V30 3463 N 328.138 -0.959301 -1.25041 0
M  V30 3464 C 329.068 -0.501388 -2.28053 0
M  V30 3465 C 330.049 0.454673 -1.63911 0
M  V30 3466 O 331.234 0.352618 -1.90972 0
M  V30 3467 C 328.364 0.217224 -3.4662 0
M  V30 3468 C 327.318 -0.654034 -4.22973 0
M  V30 3469 C 326.644 0.195589 -5.34342 0
M  V30 3470 C 327.944 -1.93447 -4.85155 0
M  V30 3471 H 329.638 -1.36238 -2.66608 0
M  V30 3472 H 327.184 -0.656534 -1.28163 0
M  V30 3473 H 329.137 0.548732 -4.17812 0
M  V30 3474 H 327.861 1.1125 -3.07068 0
M  V30 3475 H 326.52 -0.968693 -3.5357 0
M  V30 3476 H 326.168 1.09076 -4.91031 0
M  V30 3477 H 325.868 -0.384091 -5.86343 0
M  V30 3478 H 327.392 0.521958 -6.08365 0
M  V30 3479 H 328.806 -1.66908 -5.48466 0
M  V30 3480 H 327.203 -2.46018 -5.47353 0
M  V30 3481 H 328.273 -2.63466 -4.07079 0
M  V30 3482 N 329.616 1.39756 -0.72842 0
M  V30 3483 C 330.546 2.33289 -0.0991354 0
M  V30 3484 C 331.527 1.53568 0.731489 0
M  V30 3485 O 332.712 1.81987 0.677807 0
M  V30 3486 C 329.842 3.3763 0.813834 0
M  V30 3487 C 328.796 4.2791 0.0878663 0
M  V30 3488 C 328.122 5.22894 1.11741 0
M  V30 3489 C 329.422 5.11314 -1.06563 0
M  V30 3490 H 331.116 2.86163 -0.880408 0
M  V30 3491 H 328.662 1.37591 -0.424819 0
M  V30 3492 H 330.615 4.0201 1.26355 0
M  V30 3493 H 329.339 2.83181 1.62715 0
M  V30 3494 H 327.998 3.65 -0.342159 0
M  V30 3495 H 327.646 4.64744 1.92412 0
M  V30 3496 H 327.346 5.84143 0.636477 0
M  V30 3497 H 328.87 5.90151 1.56697 0
M  V30 3498 H 330.284 5.69076 -0.694671 0
M  V30 3499 H 328.681 5.81671 -1.47577 0
M  V30 3500 H 329.751 4.46534 -1.89038 0
M  V30 3501 N 331.094 0.475555 1.50254 0
M  V30 3502 C 332.026 -0.352649 2.26471 0
M  V30 3503 C 333.039 -0.953165 1.3198 0
M  V30 3504 O 334.228 -0.840815 1.57457 0
M  V30 3505 C 331.328 -1.50902 3.0345 0
M  V30 3506 C 330.501 -1.02047 4.25329 0
M  V30 3507 C 329.56 -2.05142 4.84565 0
M  V30 3508 O 328.586 -1.63023 5.45355 0
M  V30 3509 N 329.788 -3.37987 4.71959 0
M  V30 3510 H 332.553 0.300767 2.98187 0
M  V30 3511 H 330.114 0.306598 1.5897 0
M  V30 3512 H 332.106 -2.19572 3.39956 0
M  V30 3513 H 330.676 -2.06705 2.34504 0
M  V30 3514 H 329.896 -0.159507 3.93877 0
M  V30 3515 H 331.184 -0.672061 5.04342 0
M  V30 3516 H 330.582 -3.74913 4.23623 0
M  V30 3517 H 329.139 -4.02443 5.12721 0
M  V30 3518 N 332.573 -1.56217 0.208337 0
M  V30 3519 C 333.822 -1.97124 -0.427204 0
M  V30 3520 C 334.135 -1.09859 -1.61835 0
M  V30 3521 O 335.341 -1.40606 -2.32255 0
M  V30 3522 C 333.797 -3.50633 -0.811442 0
M  V30 3523 C 333.405 -4.46582 0.35615 0
M  V30 3524 C 335.149 -4.00282 -1.41332 0
M  V30 3525 C 333.056 -5.91379 -0.0497852 0
M  V30 3526 H 331.986 -0.736086 -0.163381 0
M  V30 3527 H 334.637 -1.8099 0.302456 0
M  V30 3528 H 333.019 -3.62319 -1.59815 0
M  V30 3529 H 334.193 -4.46636 1.1337 0
M  V30 3530 H 332.508 -4.07202 0.870396 0
M  V30 3531 H 335.105 -5.0595 -1.72972 0
M  V30 3532 H 335.448 -3.45359 -2.32449 0
M  V30 3533 H 335.981 -3.91764 -0.690323 0
M  V30 3534 H 332.72 -6.50255 0.827529 0
M  V30 3535 H 332.24 -5.94549 -0.791926 0
M  V30 3536 H 333.919 -6.45209 -0.481042 0
M  V30 3537 N 334.051 0.0651679 -1.57465 0
M  V30 3538 C 335.299 0.761555 -1.87202 0
M  V30 3539 C 335.62 1.77778 -0.801243 0
M  V30 3540 O 334.89 1.95166 0.16937 0
M  V30 3541 H 333.47 0.284251 -0.690804 0
M  V30 3542 H 336.132 0.0396827 -1.9486 0
M  V30 3543 H 335.228 1.27365 -2.84929 0
M  V30 3544 N 335.529 1.53961 0.336706 0
M  V30 3545 C 336.459 1.85417 1.41925 0
M  V30 3546 C 337.44 0.709856 1.5458 0
M  V30 3547 O 338.625 0.962396 1.68676 0
M  V30 3548 C 335.755 2.06985 2.78881 0
M  V30 3549 C 334.709 3.22813 2.81026 0
M  V30 3550 C 334.035 3.29727 4.20932 0
M  V30 3551 C 335.335 4.60767 2.45949 0
M  V30 3552 H 337.029 2.76079 1.15848 0
M  V30 3553 H 334.575 1.32839 0.555859 0
M  V30 3554 H 336.528 2.27575 3.54665 0
M  V30 3555 H 335.252 1.13061 3.06406 0
M  V30 3556 H 333.911 3.0209 2.07695 0
M  V30 3557 H 333.559 2.33385 4.45579 0
M  V30 3558 H 333.259 4.07566 4.23277 0
M  V30 3559 H 334.783 3.52536 4.98549 0
M  V30 3560 H 336.197 4.81325 3.11446 0
M  V30 3561 H 334.594 5.4106 2.59566 0
M  V30 3562 H 335.664 4.6391 1.41122 0
M  V30 3563 N 337.007 -0.598083 1.45811 0
M  V30 3564 C 337.937 -1.71873 1.58057 0
M  V30 3565 C 338.918 -1.64533 0.431615 0
M  V30 3566 O 340.103 -1.82787 0.65595 0
M  V30 3567 C 337.233 -3.10495 1.55597 0
M  V30 3568 C 336.187 -3.32654 2.69305 0
M  V30 3569 C 335.513 -4.71646 2.51902 0
M  V30 3570 C 336.813 -3.21981 4.11248 0
M  V30 3571 H 338.507 -1.61881 2.51863 0
M  V30 3572 H 336.053 -0.777372 1.21214 0
M  V30 3573 H 338.006 -3.88699 1.6276 0
M  V30 3574 H 336.73 -3.2135 0.583255 0
M  V30 3575 H 335.389 -2.56843 2.61586 0
M  V30 3576 H 335.037 -4.79246 1.52748 0
M  V30 3577 H 334.737 -4.87426 3.2816 0
M  V30 3578 H 336.261 -5.52038 2.60933 0
M  V30 3579 H 337.675 -3.90049 4.20161 0
M  V30 3580 H 336.072 -3.49289 4.87972 0
M  V30 3581 H 337.142 -2.1928 4.32486 0
M  V30 3582 N 338.485 -1.33259 -0.841409 0
M  V30 3583 C 339.415 -1.25926 -1.96634 0
M  V30 3584 C 340.396 -0.140349 -1.6952 0
M  V30 3585 O 341.581 -0.329707 -1.91381 0
M  V30 3586 C 338.711 -0.99512 -3.32738 0
M  V30 3587 C 337.665 -2.0767 -3.74242 0
M  V30 3588 C 336.991 -1.66474 -5.08125 0
M  V30 3589 C 338.291 -3.49318 -3.88297 0
M  V30 3590 H 339.985 -2.20046 -2.03027 0
M  V30 3591 H 337.531 -1.05931 -0.975425 0
M  V30 3592 H 339.484 -0.930323 -4.11002 0
M  V30 3593 H 338.208 -0.0183004 -3.26595 0
M  V30 3594 H 336.867 -2.13187 -2.98239 0
M  V30 3595 H 336.515 -0.675012 -4.9845 0
M  V30 3596 H 336.215 -2.3885 -5.36865 0
M  V30 3597 H 337.739 -1.61455 -5.88867 0
M  V30 3598 H 339.153 -3.46316 -4.56879 0
M  V30 3599 H 337.55 -4.20158 -4.28471 0
M  V30 3600 H 338.62 -3.8801 -2.9082 0
M  V30 3601 N 339.963 1.05934 -1.16686 0
M  V30 3602 C 341.21 1.788 -0.950622 0
M  V30 3603 C 341.538 1.87384 0.521305 0
M  V30 3604 O 340.793 1.36438 1.40297 0
M  V30 3605 C 341.092 3.23105 -1.52767 0
M  V30 3606 C 340.758 3.34594 -3.02254 0
M  V30 3607 C 339.42 3.37437 -3.43059 0
M  V30 3608 C 341.772 3.36219 -3.98254 0
M  V30 3609 C 339.1 3.39525 -4.78477 0
M  V30 3610 C 341.452 3.39845 -5.33562 0
M  V30 3611 C 340.116 3.40971 -5.73842 0
M  V30 3612 H 339.386 0.654275 -0.347857 0
M  V30 3613 H 342.033 1.24555 -1.45459 0
M  V30 3614 H 340.338 3.80227 -0.94524 0
M  V30 3615 H 342.035 3.7809 -1.336 0
M  V30 3616 H 338.625 3.3309 -2.6972 0
M  V30 3617 H 342.809 3.33231 -3.67792 0
M  V30 3618 H 338.065 3.38703 -5.09009 0
M  V30 3619 H 342.239 3.4005 -6.07733 0
M  V30 3620 H 339.866 3.42342 -6.78753 0
M  V30 3621 N 341.441 0.965919 1.2453 0
M  V30 3622 C 342.688 0.626831 1.92554 0
M  V30 3623 C 343.016 -0.837739 1.75534 0
M  V30 3624 O 342.271 -1.61793 1.10098 0
M  V30 3625 C 342.57 0.945428 3.44669 0
M  V30 3626 C 342.236 2.39785 3.81856 0
M  V30 3627 C 340.898 2.79483 3.91718 0
M  V30 3628 C 343.25 3.34055 4.00071 0
M  V30 3629 C 340.578 4.12496 4.1721 0
M  V30 3630 C 342.93 4.66694 4.27059 0
M  V30 3631 C 341.594 5.06172 4.3514 0
M  V30 3632 H 340.864 0.229374 0.704605 0
M  V30 3633 H 343.511 1.21707 1.4785 0
M  V30 3634 H 341.816 0.272926 3.90848 0
M  V30 3635 H 343.513 0.661484 3.95507 0
M  V30 3636 H 340.103 2.08003 3.74743 0
M  V30 3637 H 344.287 3.04571 3.91855 0
M  V30 3638 H 339.543 4.42709 4.21685 0
M  V30 3639 H 343.717 5.3971 4.40097 0
M  V30 3640 H 341.344 6.09262 4.54646 0
M  V30 3641 N 342.919 -1.39368 0.735821 0
M  V30 3642 C 343.882 -2.2896 0.104874 0
M  V30 3643 C 344.882 -1.46347 -0.666274 0
M  V30 3644 O 346.072 -1.67014 -0.49517 0
M  V30 3645 C 343.204 -3.29857 -0.860656 0
M  V30 3646 H 344.397 -2.86259 0.894205 0
M  V30 3647 H 341.95 -1.48029 0.501704 0
M  V30 3648 H 342.685 -2.77615 -1.67631 0
M  V30 3649 H 342.47 -3.9087 -0.310327 0
M  V30 3650 H 343.96 -3.96893 -1.29867 0
M  V30 3651 N 344.397 -0.483516 -1.5 0
M  V30 3652 C 345.646 0.0689102 -2.01582 0
M  V30 3653 C 345.959 1.39655 -1.36952 0
M  V30 3654 O 347.165 2.03465 -1.79762 0
M  V30 3655 C 345.621 0.173302 -3.59483 0
M  V30 3656 C 345.229 -1.14665 -4.33077 0
M  V30 3657 C 346.973 0.677024 -4.19066 0
M  V30 3658 C 344.88 -1.00537 -5.82792 0
M  V30 3659 H 343.81 0.0295277 -0.753422 0
M  V30 3660 H 346.461 -0.620295 -1.72698 0
M  V30 3661 H 344.843 0.926569 -3.85007 0
M  V30 3662 H 346.017 -1.91184 -4.19268 0
M  V30 3663 H 344.332 -1.58244 -3.85159 0
M  V30 3664 H 346.929 0.799952 -5.28682 0
M  V30 3665 H 347.272 1.67151 -3.81269 0
M  V30 3666 H 347.805 -0.0192083 -3.97795 0
M  V30 3667 H 344.544 -1.9736 -6.25083 0
M  V30 3668 H 344.064 -0.280776 -5.99142 0
M  V30 3669 H 345.743 -0.677 -6.43448 0
M  V30 3670 N 345.875 1.56104 -0.216619 0
M  V30 3671 C 346.805 2.23063 0.690296 0
M  V30 3672 C 347.786 1.20072 1.20485 0
M  V30 3673 O 348.971 1.48643 1.24976 0
M  V30 3674 C 346.101 2.90672 1.90072 0
M  V30 3675 C 345.055 4.00092 1.5202 0
M  V30 3676 C 344.381 4.54972 2.80899 0
M  V30 3677 C 345.681 5.17398 0.71391 0
M  V30 3678 H 347.375 2.99109 0.132038 0
M  V30 3679 H 344.921 1.43866 0.0620664 0
M  V30 3680 H 346.874 3.36204 2.54057 0
M  V30 3681 H 345.598 2.12066 2.48386 0
M  V30 3682 H 344.257 3.55283 0.903839 0
M  V30 3683 H 343.905 3.73102 3.37348 0
M  V30 3684 H 343.605 5.28817 2.56176 0
M  V30 3685 H 345.129 5.0322 3.45836 0
M  V30 3686 H 346.543 5.59342 1.25735 0
M  V30 3687 H 344.94 5.97444 0.563951 0
M  V30 3688 H 346.01 4.84088 -0.280527 0
M  V30 3689 N 347.353 -0.0568162 1.57498 0
M  V30 3690 C 348.286 -1.09817 2.00039 0
M  V30 3691 C 349.264 -1.3674 0.879819 0
M  V30 3692 O 350.448 -1.49863 1.14338 0
M  V30 3693 C 347.575 -2.43924 2.34986 0
M  V30 3694 C 346.621 -2.33039 3.57204 0
M  V30 3695 S 347.454 -1.7102 5.07457 0
M  V30 3696 C 348.61 -3.06674 5.45621 0
M  V30 3697 H 348.843 -0.735701 2.88053 0
M  V30 3698 H 346.376 -0.265871 1.52094 0
M  V30 3699 H 348.334 -3.2106 2.55795 0
M  V30 3700 H 346.995 -2.77327 1.47474 0
M  V30 3701 H 346.188 -3.31973 3.79223 0
M  V30 3702 H 345.79 -1.64043 3.36104 0
M  V30 3703 H 348.082 -4.03 5.44608 0
M  V30 3704 H 349.025 -2.8942 6.46252 0
M  V30 3705 H 349.433 -3.07969 4.73091 0
M  V30 3706 N 348.832 -1.54138 -0.328536 0
M  V30 3707 C 350.079 -1.72105 -1.06706 0
M  V30 3708 C 350.407 -0.492111 -1.88171 0
M  V30 3709 O 349.662 0.526153 -1.88494 0
M  V30 3710 C 349.961 -2.9457 -2.02393 0
M  V30 3711 C 349.627 -4.29544 -1.37122 0
M  V30 3712 C 348.289 -4.6624 -1.19052 0
M  V30 3713 C 350.641 -5.1333 -0.902331 0
M  V30 3714 C 347.969 -5.84325 -0.527331 0
M  V30 3715 C 350.321 -6.32094 -0.252988 0
M  V30 3716 C 348.985 -6.67473 -0.0600901 0
M  V30 3717 H 348.255 -0.629775 -0.390466 0
M  V30 3718 H 350.902 -1.88372 -0.34473 0
M  V30 3719 H 349.207 -2.72969 -2.81061 0
M  V30 3720 H 350.904 -3.05665 -2.59557 0
M  V30 3721 H 347.494 -4.0067 -1.52188 0
M  V30 3722 H 351.678 -4.855 -1.02974 0
M  V30 3723 H 346.934 -6.103 -0.366634 0
M  V30 3724 H 351.108 -6.96299 0.118366 0
M  V30 3725 H 348.735 -7.58832 0.455828 0
M  V30 3726 N 350.31 0.590341 -1.46126 0
M  V30 3727 C 351.273 1.68194 -1.55703 0
M  V30 3728 C 352.273 1.54808 -0.434868 0
M  V30 3729 O 353.463 1.59564 -0.698928 0
M  V30 3730 C 350.595 3.07575 -1.47005 0
M  V30 3731 H 351.788 1.61064 -2.52979 0
M  V30 3732 H 349.341 0.807541 -1.33823 0
M  V30 3733 H 350.076 3.20268 -0.509785 0
M  V30 3734 H 349.861 3.187 -2.28414 0
M  V30 3735 H 351.351 3.87055 -1.56776 0
M  V30 3736 N 351.788 1.33704 0.83433 0
M  V30 3737 C 353.037 1.24763 1.58484 0
M  V30 3738 C 353.35 -0.183775 1.94735 0
M  V30 3739 O 354.556 -0.395234 2.68608 0
M  V30 3740 C 353.012 2.18638 2.85876 0
M  V30 3741 C 352.62 3.66974 2.56971 0
M  V30 3742 C 354.364 2.18581 3.63899 0
M  V30 3743 C 352.271 4.5275 3.80488 0
M  V30 3744 H 351.201 0.463425 0.594772 0
M  V30 3745 H 353.852 1.58797 0.919551 0
M  V30 3746 H 352.234 1.77542 3.5397 0
M  V30 3747 H 353.408 4.16538 1.9706 0
M  V30 3748 H 351.723 3.69366 1.92244 0
M  V30 3749 H 354.32 2.79894 4.55591 0
M  V30 3750 H 354.663 1.18207 3.99165 0
M  V30 3751 H 355.196 2.58062 3.02735 0
M  V30 3752 H 351.935 5.54017 3.5035 0
M  V30 3753 H 351.455 4.07927 4.39722 0
M  V30 3754 H 353.134 4.66784 4.4802 0
M  V30 3755 N 353.266 -1.05314 1.17247 0
M  V30 3756 C 354.515 -1.77685 0.954521 0
M  V30 3757 C 354.828 -1.88616 -0.518025 0
M  V30 3758 O 356.034 -2.57714 -0.854144 0
M  V30 3759 C 354.49 -3.19402 1.65863 0
M  V30 3760 C 354.098 -3.16605 3.16963 0
M  V30 3761 C 355.842 -3.96237 1.52303 0
M  V30 3762 C 353.749 -4.53103 3.80068 0
M  V30 3763 H 352.679 -0.666 0.353496 0
M  V30 3764 H 355.33 -1.1805 1.40486 0
M  V30 3765 H 353.712 -3.79355 1.13602 0
M  V30 3766 H 354.886 -2.66176 3.76148 0
M  V30 3767 H 353.201 -2.53268 3.30521 0
M  V30 3768 H 355.798 -4.97157 1.96822 0
M  V30 3769 H 356.141 -4.136 0.473401 0
M  V30 3770 H 356.674 -3.42829 2.01775 0
M  V30 3771 H 353.413 -4.40946 4.85023 0
M  V30 3772 H 352.933 -5.03686 3.2567 0
M  V30 3773 H 354.612 -5.22045 3.82202 0
M  V30 3774 N 354.744 -0.972509 -1.24016 0
M  V30 3775 C 355.992 -0.635776 -1.91839 0
M  V30 3776 C 356.313 0.832312 -1.76345 0
M  V30 3777 O 355.583 1.5946 -1.13795 0
M  V30 3778 H 354.163 -0.232157 -0.710009 0
M  V30 3779 H 356.825 -1.23462 -1.50809 0
M  V30 3780 H 355.921 -0.880545 -2.99421 0
M  V30 3781 N 356.222 1.38976 -0.743202 0
M  V30 3782 C 357.152 2.33171 -0.123873 0
M  V30 3783 C 358.133 1.54336 0.71516 0
M  V30 3784 O 359.318 1.82696 0.658467 0
M  V30 3785 C 356.448 3.38474 0.777978 0
M  V30 3786 C 355.402 4.27979 0.0424758 0
M  V30 3787 C 354.728 5.2405 1.06189 0
M  V30 3788 C 356.028 5.10155 -1.1198 0
M  V30 3789 H 357.722 2.85213 -0.910709 0
M  V30 3790 H 355.268 1.37133 -0.439388 0
M  V30 3791 H 357.221 4.03328 1.22084 0
M  V30 3792 H 355.945 2.84891 1.59702 0
M  V30 3793 H 354.604 3.64616 -0.380853 0
M  V30 3794 H 354.252 4.66758 1.87472 0
M  V30 3795 H 353.952 5.84785 0.574485 0
M  V30 3796 H 355.476 5.9178 1.50428 0
M  V30 3797 H 356.89 5.68307 -0.75499 0
M  V30 3798 H 355.287 5.80073 -1.53738 0
M  V30 3799 H 356.357 4.44504 -1.93764 0
M  V30 3800 N 357.7 0.491464 1.49741 0
M  V30 3801 C 358.61 -0.296835 2.32715 0
M  V30 3802 C 359.626 -0.976536 1.44013 0
M  V30 3803 O 360.802 -0.960023 1.77047 0
M  V30 3804 C 357.867 -1.35288 3.19215 0
M  V30 3805 C 356.928 -0.687632 4.23757 0
M  V30 3806 C 356.161 -1.69336 5.06123 0
M  V30 3807 O 356.384 -2.92219 4.89861 0
M  V30 3808 O 355.318 -1.25394 5.88693 0
M  V30 3809 H 359.144 0.382048 3.01287 0
M  V30 3810 H 356.729 0.252953 1.47243 0
M  V30 3811 H 358.611 -1.96411 3.72828 0
M  V30 3812 H 357.286 -2.01487 2.53347 0
M  V30 3813 H 356.193 -0.0369159 3.74082 0
M  V30 3814 H 357.526 -0.0682566 4.92153 0
M  V30 3815 N 359.178 -1.55987 0.224894 0
M  V30 3816 C 360.425 -1.9839 -0.4059 0
M  V30 3817 C 360.753 -1.11261 -1.59535 0
M  V30 3818 O 360.008 -0.158314 -1.95059 0
M  V30 3819 C 360.307 -3.46394 -0.880106 0
M  V30 3820 C 359.973 -4.5046 0.19918 0
M  V30 3821 C 358.635 -4.7864 0.495661 0
M  V30 3822 C 360.987 -5.12855 0.928939 0
M  V30 3823 C 358.315 -5.66497 1.52636 0
M  V30 3824 C 360.667 -6.01828 1.949 0
M  V30 3825 C 359.331 -6.28351 2.25236 0
M  V30 3826 H 358.601 -0.725961 -0.148529 0
M  V30 3827 H 361.248 -1.88668 0.328113 0
M  V30 3828 H 359.553 -3.53337 -1.69294 0
M  V30 3829 H 361.25 -3.76577 -1.37808 0
M  V30 3830 H 357.84 -4.28579 -0.0420526 0
M  V30 3831 H 362.024 -4.9115 0.713129 0
M  V30 3832 H 357.28 -5.8531 1.76698 0
M  V30 3833 H 361.454 -6.49225 2.51951 0
M  V30 3834 H 359.081 -6.96226 3.05244 0
M  V30 3835 N 360.656 0.0484629 -1.57525 0
M  V30 3836 C 361.886 0.754326 -1.92337 0
M  V30 3837 C 362.294 1.70443 -0.82132 0
M  V30 3838 O 361.637 1.82466 0.21254 0
M  V30 3839 C 361.699 1.58231 -3.22805 0
M  V30 3840 C 361.363 0.799074 -4.4996 0
M  V30 3841 C 362.36 0.1079 -5.19788 0
M  V30 3842 C 360.045 0.759345 -4.96527 0
M  V30 3843 C 362.039 -0.612516 -6.3445 0
M  V30 3844 C 359.726 0.0351713 -6.1109 0
M  V30 3845 C 360.724 -0.649537 -6.79904 0
M  V30 3846 O 360.412 -1.36199 -7.92278 0
M  V30 3847 H 360.144 0.218257 -0.639797 0
M  V30 3848 H 362.698 0.0159295 -2.05394 0
M  V30 3849 H 360.928 2.36406 -3.06021 0
M  V30 3850 H 362.617 2.16898 -3.43089 0
M  V30 3851 H 363.383 0.129748 -4.84826 0
M  V30 3852 H 359.262 1.28177 -4.42822 0
M  V30 3853 H 362.806 -1.14751 -6.88097 0
M  V30 3854 H 358.703 0.0113314 -6.45499 0
M  V30 3855 H 359.471 -1.27366 -8.0853 0
M  V30 3856 N 362.134 1.5431 0.320358 0
M  V30 3857 C 363.067 1.78769 1.41834 0
M  V30 3858 C 364.045 0.63783 1.49568 0
M  V30 3859 O 365.229 0.875628 1.66928 0
M  V30 3860 C 362.356 1.90712 2.79905 0
M  V30 3861 C 361.402 3.13023 2.89687 0
M  V30 3862 S 362.235 4.71554 2.53766 0
M  V30 3863 C 363.391 4.86408 3.93902 0
M  V30 3864 H 363.624 2.71619 1.20874 0
M  V30 3865 H 361.157 1.45474 0.517377 0
M  V30 3866 H 363.115 1.98279 3.59438 0
M  V30 3867 H 361.776 0.988343 2.98145 0
M  V30 3868 H 360.969 3.18124 3.90913 0
M  V30 3869 H 360.571 3.03803 2.18128 0
M  V30 3870 H 362.863 4.69241 4.88691 0
M  V30 3871 H 363.806 5.88508 3.93782 0
M  V30 3872 H 364.214 4.14689 3.83005 0
M  V30 3873 N 363.613 -0.582584 1.46437 0
M  V30 3874 C 364.861 -1.33814 1.51453 0
M  V30 3875 C 365.182 -1.94277 0.167792 0
M  V30 3876 O 364.452 -1.78566 -0.805677 0
M  V30 3877 H 363.032 -0.496838 0.557818 0
M  V30 3878 H 365.694 -0.682281 1.82568 0
M  V30 3879 H 364.79 -2.14479 2.26728 0
M  V30 3880 N 365.091 -1.34144 -0.827227 0
M  V30 3881 C 366.038 -1.25364 -1.93785 0
M  V30 3882 C 367.008 -0.129774 -1.65592 0
M  V30 3883 O 368.193 -0.310024 -1.88264 0
M  V30 3884 C 365.333 -1.01064 -3.2997 0
M  V30 3885 C 364.446 -2.22185 -3.70484 0
M  V30 3886 C 363.581 -1.91203 -4.95595 0
M  V30 3887 C 362.62 -3.08491 -5.28677 0
M  V30 3888 N 361.757 -2.77421 -6.44967 0
M  V30 3889 H 366.597 -2.20347 -2.00627 0
M  V30 3890 H 364.134 -1.09558 -0.981608 0
M  V30 3891 H 366.092 -0.850139 -4.08446 0
M  V30 3892 H 364.722 -0.0975026 -3.22653 0
M  V30 3893 H 363.774 -2.4917 -2.87434 0
M  V30 3894 H 365.086 -3.0983 -3.90905 0
M  V30 3895 H 364.24 -1.71864 -5.81848 0
M  V30 3896 H 362.979 -1.00812 -4.77167 0
M  V30 3897 H 361.984 -3.28431 -4.40923 0
M  V30 3898 H 363.209 -3.99655 -5.49047 0
M  V30 3899 H 361.155 -1.89601 -6.28003 0
M  V30 3900 H 361.072 -3.58598 -6.6554 0
M  V30 3901 H 362.34 -2.61577 -7.34301 0
M  V30 3902 N 366.569 1.04691 -1.17803 0
M  V30 3903 C 367.816 1.77782 -0.969532 0
M  V30 3904 C 368.144 1.87926 0.501401 0
M  V30 3905 O 367.399 1.37918 1.38842 0
M  V30 3906 C 367.698 3.21467 -1.56186 0
M  V30 3907 C 367.364 3.3137 -3.05786 0
M  V30 3908 C 366.026 3.3378 -3.46619 0
M  V30 3909 C 368.378 3.31976 -4.01797 0
M  V30 3910 C 365.706 3.34431 -4.82051 0
M  V30 3911 C 368.058 3.34167 -5.37136 0
M  V30 3912 C 366.722 3.34866 -5.77426 0
M  V30 3913 H 365.992 0.650549 -0.354777 0
M  V30 3914 H 368.639 1.23006 -1.46772 0
M  V30 3915 H 366.944 3.79203 -0.985515 0
M  V30 3916 H 368.641 3.76652 -1.37602 0
M  V30 3917 H 365.231 3.3021 -2.73238 0
M  V30 3918 H 369.415 3.29311 -3.71306 0
M  V30 3919 H 364.671 3.33285 -5.12573 0
M  V30 3920 H 368.845 3.33585 -6.11305 0
M  V30 3921 H 366.472 3.35124 -6.82346 0
M  V30 3922 N 368.047 0.979072 1.23499 0
M  V30 3923 C 368.997 0.489378 2.22686 0
M  V30 3924 C 369.981 -0.434871 1.54912 0
M  V30 3925 O 371.173 -0.263941 1.75021 0
M  V30 3926 C 368.302 -0.208178 3.42668 0
M  V30 3927 C 367.388 0.735563 4.17672 0
M  V30 3928 N 367.779 1.87763 4.69658 0
M  V30 3929 C 366.077 0.548625 4.42613 0
M  V30 3930 C 366.778 2.46886 5.26709 0
M  V30 3931 N 365.754 1.75287 5.14563 0
M  V30 3932 H 369.556 1.36062 2.60508 0
M  V30 3933 H 367.07 0.83958 1.39014 0
M  V30 3934 H 369.067 -0.576295 4.12898 0
M  V30 3935 H 367.727 -1.07572 3.06363 0
M  V30 3936 H 368.738 2.25885 4.66043 0
M  V30 3937 H 365.415 -0.274006 4.166 0
M  V30 3938 H 366.805 3.43326 5.77561 0
M  V30 3939 N 369.525 -1.3858 0.750561 0
M  V30 3940 C 370.472 -2.30483 0.120835 0
M  V30 3941 C 371.442 -1.50022 -0.712923 0
M  V30 3942 O 372.627 -1.78662 -0.669676 0
M  V30 3943 C 369.767 -3.36431 -0.768666 0
M  V30 3944 C 368.88 -4.31927 0.0793922 0
M  V30 3945 C 368.015 -5.24944 -0.81283 0
M  V30 3946 C 367.054 -6.12088 0.0390447 0
M  V30 3947 N 366.191 -6.97412 -0.809969 0
M  V30 3948 H 371.031 -2.83761 0.91015 0
M  V30 3949 H 368.568 -1.39707 0.460463 0
M  V30 3950 H 370.526 -3.96462 -1.29898 0
M  V30 3951 H 369.156 -2.8457 -1.5238 0
M  V30 3952 H 368.208 -3.73382 0.727303 0
M  V30 3953 H 369.52 -4.93319 0.737401 0
M  V30 3954 H 368.674 -5.90078 -1.41042 0
M  V30 3955 H 367.413 -4.63911 -1.50458 0
M  V30 3956 H 366.418 -5.45952 0.649328 0
M  V30 3957 H 367.643 -6.75189 0.727809 0
M  V30 3958 H 365.589 -6.38931 -1.48672 0
M  V30 3959 H 365.506 -7.55712 -0.208789 0
M  V30 3960 H 366.774 -7.66959 -1.39263 0
M  V30 3961 N 371.003 -0.499398 -1.49478 0
M  V30 3962 C 371.966 0.268838 -2.27618 0
M  V30 3963 C 372.966 0.895383 -1.33565 0
M  V30 3964 O 374.156 0.760164 -1.56739 0
M  V30 3965 C 371.288 1.38559 -3.11471 0
M  V30 3966 H 372.481 -0.416812 -2.96989 0
M  V30 3967 H 370.034 -0.254313 -1.54217 0
M  V30 3968 H 370.769 2.10544 -2.46661 0
M  V30 3969 H 370.554 0.941797 -3.80621 0
M  V30 3970 H 372.044 1.92678 -3.70493 0
M  V30 3971 N 372.481 1.55866 -0.233164 0
M  V30 3972 C 373.721 2.00506 0.397078 0
M  V30 3973 C 374.085 1.1176 1.56121 0
M  V30 3974 O 375.286 1.45796 2.25825 0
M  V30 3975 C 373.557 3.4811 0.809601 0
M  V30 3976 S 375.116 4.14765 1.43231 0
M  V30 3977 H 371.934 0.699828 0.125547 0
M  V30 3978 H 374.536 1.92429 -0.345177 0
M  V30 3979 H 373.24 4.10373 -0.0471601 0
M  V30 3980 H 372.771 3.60085 1.58438 0
M  V30 3981 H 374.786 4.14914 2.7214 0
M  V30 3982 N 373.959 -0.0401083 1.57549 0
M  V30 3983 C 375.206 -0.733125 1.88763 0
M  V30 3984 C 375.534 -1.75946 0.829058 0
M  V30 3985 O 374.789 -1.94949 -0.171323 0
M  V30 3986 C 375.088 -1.44902 3.26708 0
M  V30 3987 C 374.754 -0.559707 4.47413 0
M  V30 3988 C 373.416 -0.314731 4.8017 0
M  V30 3989 C 375.768 0.0549743 5.21171 0
M  V30 3990 C 373.096 0.553886 5.8408 0
M  V30 3991 C 375.448 0.911229 6.26003 0
M  V30 3992 C 374.112 1.16577 6.57241 0
M  V30 3993 H 373.382 -0.268269 0.690733 0
M  V30 3994 H 376.029 0.00679408 1.91499 0
M  V30 3995 H 374.334 -2.26197 3.1991 0
M  V30 3996 H 376.031 -1.99058 3.48105 0
M  V30 3997 H 372.621 -0.760793 4.21794 0
M  V30 3998 H 376.805 -0.121344 4.96152 0
M  V30 3999 H 372.061 0.759518 6.06664 0
M  V30 4000 H 376.235 1.3941 6.82303 0
M  V30 4001 H 373.862 1.84058 7.37582 0
M  V30 4002 N 375.437 -1.54477 -0.31217 0
M  V30 4003 C 376.848 -1.64344 -0.885891 0
M  V30 4004 C 377.199 -0.54485 -1.88483 0
M  V30 4005 O 376.324 0.320387 -2.14015 0
M  V30 4006 C 376.919 -2.97908 -1.61357 0
M  V30 4007 C 375.478 -3.09933 -2.13585 0
M  V30 4008 C 374.625 -2.59971 -0.964897 0
M  V30 4009 H 377.576 -1.58448 -0.0894528 0
M  V30 4010 H 377.597 -2.88706 -2.47848 0
M  V30 4011 H 377.109 -3.77845 -0.886277 0
M  V30 4012 H 375.21 -2.34694 -2.89395 0
M  V30 4013 H 375.323 -4.15916 -2.37804 0
M  V30 4014 H 373.687 -2.16147 -1.34731 0
M  V30 4015 H 374.47 -3.42376 -0.251742 0
M  V30 4016 N 376.915 0.57481 -1.46744 0
M  V30 4017 C 377.863 1.70435 -1.58286 0
M  V30 4018 C 378.857 1.63287 -0.450956 0
M  V30 4019 O 380.063 1.68685 -0.628121 0
M  V30 4020 H 376.438 0.56364 -0.497809 0
M  V30 4021 H 378.409 1.57833 -2.53242 0
M  V30 4022 C 377.158 3.08815 -1.59776 0
M  V30 4023 H 376.481 3.1499 -2.46214 0
M  V30 4024 H 377.921 3.87588 -1.71905 0
M  V30 4025 C 376.38 3.35301 -0.327812 0
M  V30 4026 O 376.91 3.97511 0.57861 0
M  V30 4027 N 375.116 2.89816 -0.213274 0
M  V30 4028 H 374.663 2.39371 -0.951798 0
M  V30 4029 H 374.621 3.0791 0.63553 0
M  V30 4030 N 378.394 1.34581 0.820102 0
M  V30 4031 C 379.619 1.30333 1.61332 0
M  V30 4032 C 380.044 -0.119339 1.87721 0
M  V30 4033 O 379.402 -1.08197 1.45475 0
M  V30 4034 C 379.45 2.10258 2.92957 0
M  V30 4035 O 378.554 1.47404 3.85157 0
M  V30 4036 H 377.895 0.447488 0.490561 0
M  V30 4037 H 380.425 1.77425 1.01889 0
M  V30 4038 H 380.435 2.21718 3.42498 0
M  V30 4039 H 379.11 3.13693 2.73074 0
M  V30 4040 H 377.687 1.44703 3.43679 0
M  V30 4041 N 379.872 -1.04064 1.18357 0
M  V30 4042 C 381.1 -1.80916 1.00384 0
M  V30 4043 C 381.515 -1.83414 -0.447738 0
M  V30 4044 O 380.872 -1.26962 -1.31099 0
M  V30 4045 C 380.923 -3.26516 1.55144 0
M  V30 4046 O 380.644 -3.2424 2.94618 0
M  V30 4047 C 382.145 -4.20013 1.41789 0
M  V30 4048 H 379.365 -0.569728 0.354474 0
M  V30 4049 H 381.909 -1.31151 1.56906 0
M  V30 4050 H 380.064 -3.73512 1.02798 0
M  V30 4051 H 380.478 -4.15452 3.20156 0
M  V30 4052 H 381.952 -5.20111 1.84901 0
M  V30 4053 H 382.429 -4.37667 0.36661 0
M  V30 4054 H 383.035 -3.78881 1.93207 0
M  V30 4055 N 381.35 -0.985608 -1.22978 0
M  V30 4056 C 382.627 -0.573599 -1.87001 0
M  V30 4057 C 383.007 0.949213 -1.88555 0
M  V30 4058 O 382.355 1.82811 -1.37086 0
M  V30 4059 C 382.565 -1.18564 -3.28243 0
M  V30 4060 C 383.913 -1.28163 -4.04796 0
M  V30 4061 O 384.937 -1.13949 -3.37482 0
M  V30 4062 O 383.796 -1.50832 -5.25273 0
M  V30 4063 H 380.89 -0.193868 -0.803955 0
M  V30 4064 H 383.436 -1.08102 -1.30813 0
M  V30 4065 H 382.208 -2.22758 -3.21706 0
M  V30 4066 H 381.831 -0.663363 -3.92027 0
M  V30 4067 N 382.828 1.3818 -0.7579 0
M  V30 4068 C 383.791 2.28764 -0.141286 0
M  V30 4069 C 384.791 1.47388 0.642907 0
M  V30 4070 O 385.981 1.67781 0.468536 0
M  V30 4071 C 383.113 3.31184 0.808069 0
M  V30 4072 H 384.306 2.848 -0.939633 0
M  V30 4073 H 381.859 1.47212 -0.525191 0
M  V30 4074 H 382.594 2.80247 1.63193 0
M  V30 4075 H 382.379 3.91314 0.248104 0
M  V30 4076 H 383.869 3.98909 1.23536 0
M  V30 4077 N 384.306 0.507319 1.49211 0
M  V30 4078 C 385.216 -0.272136 2.33016 0
M  V30 4079 C 386.232 -0.961206 1.45041 0
M  V30 4080 O 387.408 -0.941191 1.78055 0
M  V30 4081 C 384.473 -1.31895 3.20631 0
M  V30 4082 C 383.534 -0.642648 4.24463 0
M  V30 4083 C 382.767 -1.63959 5.07891 0
M  V30 4084 O 382.99 -2.87007 4.92933 0
M  V30 4085 O 381.924 -1.19143 5.8999 0
M  V30 4086 H 385.75 0.413982 3.00865 0
M  V30 4087 H 383.335 0.268556 1.46966 0
M  V30 4088 H 385.217 -1.92446 3.7489 0
M  V30 4089 H 383.892 -1.98788 2.5547 0
M  V30 4090 H 382.799 0.00276252 3.741 0
M  V30 4091 H 384.132 -0.0160534 4.92197 0
M  V30 4092 N 385.784 -1.5574 0.241426 0
M  V30 4093 C 387.195 -1.84842 -0.262755 0
M  V30 4094 C 387.546 -1.16317 -1.58003 0
M  V30 4095 O 386.671 -0.439653 -2.11887 0
M  V30 4096 C 387.266 -3.35332 -0.483523 0
M  V30 4097 C 385.825 -3.6468 -0.931977 0
M  V30 4098 C 384.972 -2.77299 -0.0061151 0
M  V30 4099 H 387.923 -1.51761 0.464129 0
M  V30 4100 H 387.944 -3.56615 -1.32688 0
M  V30 4101 H 387.456 -3.85178 0.47537 0
M  V30 4102 H 385.557 -3.20307 -1.90353 0
M  V30 4103 H 385.67 -4.72498 -0.792628 0
M  V30 4104 H 384.034 -2.49408 -0.516503 0
M  V30 4105 H 384.817 -3.2995 0.948052 0
M  V30 4106 N 387.262 0.0317525 -1.57568 0
M  V30 4107 C 388.508 0.724175 -1.8943 0
M  V30 4108 C 388.841 1.75149 -0.838836 0
M  V30 4109 O 388.116 1.93948 0.146422 0
M  V30 4110 C 388.399 1.39615 -3.31933 0
M  V30 4111 C 388.252 0.382537 -4.4817 0
M  V30 4112 C 389.571 2.33084 -3.73309 0
M  V30 4113 H 386.69 0.261797 -0.688935 0
M  V30 4114 H 389.332 -0.013017 -1.89996 0
M  V30 4115 H 387.482 2.02451 -3.31581 0
M  V30 4116 H 389.154 -0.243689 -4.60656 0
M  V30 4117 H 387.397 -0.29844 -4.32772 0
M  V30 4118 H 388.068 0.891145 -5.44759 0
M  V30 4119 H 390.544 1.80295 -3.7501 0
M  V30 4120 H 389.42 2.77084 -4.73831 0
M  V30 4121 H 389.681 3.19643 -3.05419 0
M  V30 4122 N 388.74 1.54641 0.303973 0
M  V30 4123 C 389.988 1.73437 1.0375 0
M  V30 4124 C 390.309 0.521449 1.87899 0
M  V30 4125 O 389.579 -0.46432 1.90318 0
M  V30 4126 H 388.159 0.639518 0.386039 0
M  V30 4127 H 390.821 1.91988 0.335675 0
M  V30 4128 H 389.917 2.62235 1.69231 0
M  V30 4129 N 390.218 -0.567019 1.47046 0
M  V30 4130 C 391.495 -1.3276 1.43646 0
M  V30 4131 C 391.875 -2.1071 0.128186 0
M  V30 4132 O 391.223 -2.10441 -0.890326 0
M  V30 4133 C 391.433 -2.2404 2.67595 0
M  V30 4134 C 392.781 -2.85372 3.14401 0
M  V30 4135 O 393.805 -2.34346 2.68254 0
M  V30 4136 O 392.664 -3.78091 3.946 0
M  V30 4137 H 389.758 -0.597293 0.571988 0
M  V30 4138 H 392.304 -0.586735 1.59234 0
M  V30 4139 H 391.076 -1.65975 3.54356 0
M  V30 4140 H 390.699 -3.05439 2.54544 0
M  V30 4141 N 391.696 -1.35014 -0.812953 0
M  V30 4142 C 392.943 -1.27931 -1.56971 0
M  V30 4143 C 393.271 0.148034 -1.93936 0
M  V30 4144 O 392.526 1.11175 -1.61054 0
M  V30 4145 C 392.825 -2.12524 -2.87347 0
M  V30 4146 C 392.491 -3.61401 -2.6963 0
M  V30 4147 C 391.153 -4.01983 -2.64506 0
M  V30 4148 C 393.505 -4.55894 -2.52607 0
M  V30 4149 C 390.833 -5.35235 -2.40293 0
M  V30 4150 C 393.185 -5.89336 -2.29925 0
M  V30 4151 C 391.849 -6.2907 -2.23219 0
M  V30 4152 H 391.119 -0.468131 -0.574399 0
M  V30 4153 H 393.766 -1.66851 -0.939836 0
M  V30 4154 H 392.071 -1.66463 -3.54679 0
M  V30 4155 H 393.768 -2.04383 -3.45005 0
M  V30 4156 H 390.358 -3.29193 -2.74463 0
M  V30 4157 H 394.542 -4.25431 -2.55583 0
M  V30 4158 H 389.798 -5.65028 -2.33566 0
M  V30 4159 H 393.972 -6.62139 -2.15743 0
M  V30 4160 H 391.599 -7.32256 -2.04219 0
M  V30 4161 N 393.175 1.03435 -1.18907 0
M  V30 4162 C 394.586 1.58195 -0.991523 0
M  V30 4163 C 394.937 1.90801 0.457081 0
M  V30 4164 O 394.062 1.70272 1.33553 0
M  V30 4165 C 394.657 2.87432 -1.79355 0
M  V30 4166 C 393.216 3.38785 -1.64017 0
M  V30 4167 C 392.363 2.12292 -1.78402 0
M  V30 4168 H 395.314 0.860299 -1.33359 0
M  V30 4169 H 395.335 3.58096 -1.28638 0
M  V30 4170 H 394.847 2.63669 -2.84781 0
M  V30 4171 H 392.948 3.67547 -0.611536 0
M  V30 4172 H 393.061 4.12186 -2.44212 0
M  V30 4173 H 391.425 2.23901 -1.2141 0
M  V30 4174 H 392.208 1.90977 -2.85277 0
M  V30 4175 N 394.653 0.992116 1.22453 0
M  V30 4176 C 395.893 0.675727 1.92907 0
M  V30 4177 C 396.257 -0.777762 1.75542 0
M  V30 4178 O 397.458 -1.20553 2.40251 0
M  V30 4179 C 395.729 1.0696 3.4102 0
M  V30 4180 S 397.288 0.871456 4.30059 0
M  V30 4181 H 394.106 0.247089 0.666684 0
M  V30 4182 H 396.708 1.27423 1.48269 0
M  V30 4183 H 395.412 2.12383 3.51172 0
M  V30 4184 H 394.943 0.462858 3.90668 0
M  V30 4185 H 396.958 -0.238436 4.95627 0
M  V30 4186 N 396.131 -1.37776 0.765217 0
M  V30 4187 C 397.379 -1.99454 0.325943 0
M  V30 4188 C 397.7 -1.61049 -1.09947 0
M  V30 4189 O 396.97 -0.872821 -1.75381 0
M  V30 4190 H 395.55 -0.737697 0.117525 0
M  V30 4191 H 398.212 -1.68359 0.981895 0
M  V30 4192 H 397.308 -3.09547 0.398353 0
M  V30 4193 N 397.609 -0.515225 -1.4894 0
M  V30 4194 C 398.556 0.255567 -2.29381 0
M  V30 4195 C 399.526 0.947387 -1.36432 0
M  V30 4196 O 400.711 0.951288 -1.65394 0
M  V30 4197 C 397.851 1.30551 -3.19453 0
M  V30 4198 C 396.964 0.624029 -4.27469 0
M  V30 4199 C 396.099 1.65563 -5.0474 0
M  V30 4200 C 395.138 0.956802 -6.04576 0
M  V30 4201 N 394.275 1.93326 -6.74959 0
M  V30 4202 H 399.115 -0.436607 -2.94784 0
M  V30 4203 H 396.652 -0.227154 -1.45336 0
M  V30 4204 H 398.61 1.92639 -3.70062 0
M  V30 4205 H 397.24 1.96626 -2.56004 0
M  V30 4206 H 396.292 -0.110459 -3.8024 0
M  V30 4207 H 397.604 0.0746092 -4.98744 0
M  V30 4208 H 396.758 2.35119 -5.59289 0
M  V30 4209 H 395.497 2.23893 -4.3327 0
M  V30 4210 H 394.502 0.247097 -5.49244 0
M  V30 4211 H 395.727 0.379814 -6.78037 0
M  V30 4212 H 393.673 2.50591 -6.06251 0
M  V30 4213 H 393.59 1.43489 -7.42258 0
M  V30 4214 H 394.858 2.62126 -7.34105 0
M  V30 4215 N 399.087 1.5561 -0.249682 0
M  V30 4216 C 399.997 2.25143 0.659375 0
M  V30 4217 C 401.013 1.2685 1.19101 0
M  V30 4218 O 402.189 1.59732 1.22669 0
M  V30 4219 C 399.254 2.93945 1.8384 0
M  V30 4220 C 398.315 4.07655 1.34596 0
M  V30 4221 C 397.548 4.73167 2.46878 0
M  V30 4222 O 397.771 4.37768 3.65671 0
M  V30 4223 O 396.705 5.61623 2.16478 0
M  V30 4224 H 400.531 3.03545 0.0968698 0
M  V30 4225 H 398.116 1.49389 -0.018074 0
M  V30 4226 H 399.998 3.37271 2.52638 0
M  V30 4227 H 398.673 2.18481 2.38847 0
M  V30 4228 H 397.58 3.68839 0.625174 0
M  V30 4229 H 398.913 4.84946 0.841941 0
M  V30 4230 N 400.565 -0.0233959 1.57583 0
M  V30 4231 C 401.528 -1.00693 2.05897 0
M  V30 4232 C 402.528 -1.28693 0.964092 0
M  V30 4233 O 403.718 -1.23602 1.22753 0
M  V30 4234 C 400.85 -2.33825 2.4807 0
M  V30 4235 H 402.043 -0.589476 2.9405 0
M  V30 4236 H 399.596 -0.270354 1.53944 0
M  V30 4237 H 400.331 -2.80307 1.6309 0
M  V30 4238 H 400.116 -2.1483 3.2801 0
M  V30 4239 H 401.606 -3.04426 2.85857 0
M  V30 4240 N 402.043 -1.548 -0.295768 0
M  V30 4241 C 403.454 -1.65274 -0.868411 0
M  V30 4242 C 403.805 -0.56481 -1.87894 0
M  V30 4243 O 402.93 0.29767 -2.14343 0
M  V30 4244 C 403.525 -2.99603 -1.58188 0
M  V30 4245 C 402.084 -3.12181 -2.10286 0
M  V30 4246 C 401.231 -2.6098 -0.93727 0
M  V30 4247 H 404.182 -1.58534 -0.0726422 0
M  V30 4248 H 404.203 -2.91319 -2.44772 0
M  V30 4249 H 403.715 -3.78764 -0.846151 0
M  V30 4250 H 401.816 -2.3775 -2.8689 0
M  V30 4251 H 401.929 -4.18415 -2.33379 0
M  V30 4252 H 400.293 -2.17564 -1.32431 0
M  V30 4253 H 401.076 -3.42623 -0.215414 0
M  V30 4254 N 403.521 0.559213 -1.47345 0
M  V30 4255 C 404.484 1.64854 -1.59235 0
M  V30 4256 C 405.484 1.53851 -0.467607 0
M  V30 4257 O 406.674 1.58045 -0.732617 0
M  V30 4258 C 403.806 3.04388 -1.53496 0
M  V30 4259 H 404.999 1.55662 -2.56339 0
M  V30 4260 H 402.552 0.778973 -1.35505 0
M  V30 4261 H 403.287 3.19115 -0.577604 0
M  V30 4262 H 403.072 3.13783 -2.35123 0
M  V30 4263 H 404.562 3.83642 -1.6495 0
M  V30 4264 N 404.999 1.35443 0.805782 0
M  V30 4265 C 406.415 1.15499 1.10146 0
M  V30 4266 C 406.615 -0.0319975 2.01475 0
M  V30 4267 O 405.671 -0.70236 2.42535 0
M  V30 4268 C 406.984 2.45833 1.73166 0
M  V30 4269 C 408.532 2.52047 1.85583 0
M  V30 4270 C 409.007 3.82427 2.52019 0
M  V30 4271 N 410.498 3.83682 2.59504 0
M  V30 4272 C 411.233 4.81294 3.11679 0
M  V30 4273 N 410.729 5.89294 3.64287 0
M  V30 4274 N 412.522 4.6873 3.1024 0
M  V30 4275 H 404.673 2.11469 0.198678 0
M  V30 4276 H 406.936 0.93594 0.150731 0
M  V30 4277 H 406.642 3.32874 1.13526 0
M  V30 4278 H 406.516 2.6044 2.72857 0
M  V30 4279 H 408.903 1.65435 2.44367 0
M  V30 4280 H 408.984 2.41354 0.847455 0
M  V30 4281 H 408.628 4.69437 1.93885 0
M  V30 4282 H 408.558 3.90409 3.53395 0
M  V30 4283 H 411.049 3.05648 2.22234 0
M  V30 4284 H 411.362 6.59768 4.02401 0
M  V30 4285 H 409.707 5.92985 3.62483 0
M  V30 4286 H 412.898 3.83496 2.68419 0
M  V30 4287 H 413.071 5.44965 3.50596 0
M  V30 4288 N 406.477 -1.02803 1.19454 0
M  V30 4289 C 407.407 -2.12999 0.956758 0
M  V30 4290 C 408.388 -1.69743 -0.110188 0
M  V30 4291 O 409.573 -1.94148 0.0450038 0
M  V30 4292 C 406.703 -3.43746 0.495553 0
M  V30 4293 C 405.657 -4.00688 1.50443 0
M  V30 4294 C 404.983 -5.27067 0.900275 0
M  V30 4295 C 406.283 -4.35397 2.8849 0
M  V30 4296 H 407.977 -2.33148 1.87836 0
M  V30 4297 H 405.523 -1.12045 0.904539 0
M  V30 4298 H 407.476 -4.2021 0.316493 0
M  V30 4299 H 406.2 -3.23321 -0.461646 0
M  V30 4300 H 404.859 -3.2632 1.67065 0
M  V30 4301 H 404.507 -5.02959 -0.064503 0
M  V30 4302 H 404.207 -5.66127 1.57397 0
M  V30 4303 H 405.731 -6.06196 0.73203 0
M  V30 4304 H 407.145 -5.02795 2.75446 0
M  V30 4305 H 405.542 -4.85541 3.52661 0
M  V30 4306 H 406.612 -3.44662 3.41081 0
M  V30 4307 N 407.956 -0.998596 -1.21925 0
M  V30 4308 C 409.196 -0.685948 -1.92546 0
M  V30 4309 C 409.56 0.768441 -1.75952 0
M  V30 4310 O 410.761 1.19277 -2.40887 0
M  V30 4311 C 409.032 -1.08767 -3.40448 0
M  V30 4312 S 410.591 -0.894251 -4.29591 0
M  V30 4313 H 407.409 -0.250622 -0.665364 0
M  V30 4314 H 410.011 -1.28207 -1.47591 0
M  V30 4315 H 408.715 -2.14242 -3.50041 0
M  V30 4316 H 408.246 -0.48357 -3.90417 0
M  V30 4317 H 410.261 0.212149 -4.95746 0
M  V30 4318 N 409.434 1.37368 -0.772513 0
M  V30 4319 C 410.344 2.34053 -0.160081 0
M  V30 4320 C 411.36 1.60216 0.678728 0
M  V30 4321 O 412.536 1.92303 0.59847 0
M  V30 4322 C 409.601 3.3939 0.708182 0
M  V30 4323 C 408.662 4.29048 -0.147172 0
M  V30 4324 C 407.895 5.29354 0.679744 0
M  V30 4325 O 408.118 5.3723 1.91678 0
M  V30 4326 O 407.052 6.01835 0.0885444 0
M  V30 4327 H 410.878 2.88159 -0.959053 0
M  V30 4328 H 408.463 1.39543 -0.533685 0
M  V30 4329 H 410.345 4.03839 1.20384 0
M  V30 4330 H 409.02 2.8761 1.48533 0
M  V30 4331 H 407.927 3.67697 -0.689205 0
M  V30 4332 H 409.26 4.84134 -0.887423 0
M  V30 4333 N 410.912 0.523116 1.48665 0
M  V30 4334 C 412.16 -0.0134497 2.02096 0
M  V30 4335 C 412.481 -1.35418 1.40311 0
M  V30 4336 O 411.751 -1.87543 0.566074 0
M  V30 4337 H 410.331 -0.00795915 0.746958 0
M  V30 4338 H 412.993 0.685388 1.82451 0
M  V30 4339 H 412.089 -0.126849 3.11842 0
M  V30 4340 N 412.39 -1.55475 0.257931 0
M  V30 4341 C 413.667 -1.91155 -0.414629 0
M  V30 4342 C 414.047 -1.18008 -1.75035 0
M  V30 4343 O 413.395 -0.301193 -2.26506 0
M  V30 4344 C 413.605 -3.44283 -0.571859 0
M  V30 4345 C 414.953 -4.15744 -0.862678 0
M  V30 4346 O 415.977 -3.50083 -0.657314 0
M  V30 4347 O 414.836 -5.31909 -1.2544 0
M  V30 4348 H 411.93 -0.796016 -0.22425 0
M  V30 4349 H 414.476 -1.66976 0.302814 0
M  V30 4350 H 413.248 -3.89558 0.368844 0
M  V30 4351 H 412.871 -3.7436 -1.33943 0
M  V30 4352 N 413.868 0.0150385 -1.57593 0
M  V30 4353 C 415.096 0.714395 -1.94175 0
M  V30 4354 C 415.511 1.68135 -0.858841 0
M  V30 4355 O 414.868 1.81766 0.163567 0
M  V30 4356 C 414.919 1.45933 -3.30735 0
M  V30 4357 O 414.64 0.531167 -4.34868 0
M  V30 4358 C 416.141 2.25456 -3.81686 0
M  V30 4359 H 413.361 0.199923 -0.640525 0
M  V30 4360 H 415.905 -0.0316096 -2.04476 0
M  V30 4361 H 414.06 2.15709 -3.21789 0
M  V30 4362 H 414.474 1.05509 -5.13778 0
M  V30 4363 H 415.948 2.731 -4.79709 0
M  V30 4364 H 416.425 3.07485 -3.13607 0
M  V30 4365 H 417.031 1.60727 -3.9376 0
M  V30 4366 N 415.346 1.54954 0.287554 0
M  V30 4367 C 416.256 1.8991 1.37736 0
M  V30 4368 C 417.272 0.794701 1.54792 0
M  V30 4369 O 418.448 1.09243 1.69198 0
M  V30 4370 C 415.513 2.15108 2.71899 0
M  V30 4371 C 414.574 3.38752 2.63715 0
M  V30 4372 C 413.807 3.62739 3.91479 0
M  V30 4373 O 414.03 2.89492 4.91478 0
M  V30 4374 O 412.964 4.56267 3.92561 0
M  V30 4375 H 416.79 2.82652 1.11092 0
M  V30 4376 H 414.375 1.41315 0.484807 0
M  V30 4377 H 416.257 2.32806 3.51254 0
M  V30 4378 H 414.932 1.25551 2.9836 0
M  V30 4379 H 413.839 3.26405 1.82786 0
M  V30 4380 H 415.172 4.28483 2.42205 0
M  V30 4381 N 416.824 -0.551391 1.4764 0
M  V30 4382 C 418.064 -1.31901 1.56145 0
M  V30 4383 C 418.428 -1.90724 0.221013 0
M  V30 4384 O 419.629 -2.6819 0.180945 0
M  V30 4385 C 417.9 -2.39517 2.65267 0
M  V30 4386 S 419.459 -3.26289 2.93395 0
M  V30 4387 H 416.277 -0.448965 0.551318 0
M  V30 4388 H 418.879 -0.630599 1.85051 0
M  V30 4389 H 417.583 -1.94747 3.6125 0
M  V30 4390 H 417.114 -3.13092 2.38195 0
M  V30 4391 H 419.129 -4.39122 2.31055 0
M  V30 4392 N 418.302 -1.35869 -0.798587 0
M  V30 4393 C 419.718 -1.16082 -1.09532 0
M  V30 4394 C 419.918 0.0213124 -2.01489 0
M  V30 4395 O 418.974 0.689488 -2.42904 0
M  V30 4396 C 420.287 -2.46748 -1.7186 0
M  V30 4397 C 421.835 -2.53028 -1.84244 0
M  V30 4398 C 422.31 -3.83758 -2.49988 0
M  V30 4399 N 423.801 -3.85053 -2.57465 0
M  V30 4400 C 424.536 -4.8294 -3.09122 0
M  V30 4401 N 424.032 -5.91217 -3.61157 0
M  V30 4402 N 425.825 -4.70369 -3.0775 0
M  V30 4403 H 417.976 -2.11571 -0.187461 0
M  V30 4404 H 420.239 -0.936726 -0.145765 0
M  V30 4405 H 419.945 -3.33471 -1.11759 0
M  V30 4406 H 419.819 -2.61883 -2.71472 0
M  V30 4407 H 422.206 -1.66729 -2.43486 0
M  V30 4408 H 422.287 -2.418 -0.834643 0
M  V30 4409 H 421.931 -4.70459 -1.91393 0
M  V30 4410 H 421.861 -3.92278 -3.5132 0
M  V30 4411 H 424.352 -3.06822 -2.20609 0
M  V30 4412 H 424.665 -6.61892 -3.98896 0
M  V30 4413 H 423.01 -5.94899 -3.59333 0
M  V30 4414 H 426.201 -3.84914 -2.66381 0
M  V30 4415 H 426.374 -5.46816 -3.47701 0
M  V30 4416 N 419.78 1.02168 -1.19998 0
M  V30 4417 C 420.69 2.14069 -0.959774 0
M  V30 4418 C 421.706 1.73804 0.082655 0
M  V30 4419 O 422.882 2.01133 -0.103633 0
M  V30 4420 C 419.947 3.42936 -0.509459 0
M  V30 4421 C 419.008 3.97474 -1.62213 0
M  V30 4422 C 418.241 5.2019 -1.19321 0
M  V30 4423 O 418.464 5.70369 -0.0597726 0
M  V30 4424 O 417.398 5.67749 -1.99863 0
M  V30 4425 H 421.224 2.37199 -1.89658 0
M  V30 4426 H 418.809 1.12469 -0.983411 0
M  V30 4427 H 420.691 4.20551 -0.267322 0
M  V30 4428 H 419.366 3.21234 0.398821 0
M  V30 4429 H 418.273 3.21161 -1.9185 0
M  V30 4430 H 419.606 4.23555 -2.50723 0
M  V30 4431 N 421.258 1.00505 1.21394 0
M  V30 4432 C 422.488 0.705584 1.94178 0
M  V30 4433 C 422.896 -0.735846 1.74304 0
M  V30 4434 O 422.239 -1.50954 1.04683 0
M  V30 4435 C 422.301 0.94689 3.46806 0
M  V30 4436 C 421.965 2.37517 3.90429 0
M  V30 4437 C 422.962 3.35539 3.97127 0
M  V30 4438 C 420.647 2.71284 4.22742 0
M  V30 4439 C 422.641 4.65395 4.3553 0
M  V30 4440 C 420.328 4.01356 4.60822 0
M  V30 4441 C 421.326 4.98223 4.67186 0
M  V30 4442 O 421.014 6.25969 5.04399 0
M  V30 4443 H 420.746 0.259216 0.624326 0
M  V30 4444 H 423.3 1.34592 1.55159 0
M  V30 4445 H 421.53 0.249386 3.85895 0
M  V30 4446 H 423.219 0.640804 4.0081 0
M  V30 4447 H 423.985 3.10786 3.7234 0
M  V30 4448 H 419.864 1.96581 4.16985 0
M  V30 4449 H 423.408 5.41002 4.40412 0
M  V30 4450 H 419.305 4.25893 4.85063 0
M  V30 4451 H 420.073 6.30085 5.22431 0
M  V30 4452 N 422.737 -1.36956 0.779787 0
M  V30 4453 C 423.983 -2.00237 0.357324 0
M  V30 4454 C 424.338 -1.60787 -1.05666 0
M  V30 4455 O 423.631 -0.847836 -1.71821 0
M  V30 4456 C 423.825 -3.54585 0.447686 0
M  V30 4457 C 423.654 -4.09025 1.86891 0
M  V30 4458 C 422.424 -4.39612 2.49138 0
M  V30 4459 C 424.622 -4.29461 2.82963 0
M  V30 4460 N 422.604 -4.79816 3.82949 0
M  V30 4461 C 423.975 -4.72363 4.01588 0
M  V30 4462 C 426.03 -4.1161 2.80145 0
M  V30 4463 C 424.733 -4.99284 5.17791 0
M  V30 4464 C 426.759 -4.39672 3.95528 0
M  V30 4465 C 426.121 -4.82822 5.12896 0
M  V30 4466 H 422.22 -0.76148 0.177968 0
M  V30 4467 H 424.804 -1.6613 1.01533 0
M  V30 4468 H 422.975 -3.87982 -0.180184 0
M  V30 4469 H 424.707 -4.047 0.0023955 0
M  V30 4470 H 421.462 -4.28975 2.00693 0
M  V30 4471 H 421.886 -5.04216 4.51769 0
M  V30 4472 H 426.528 -3.77415 1.90572 0
M  V30 4473 H 424.246 -5.32365 6.07958 0
M  V30 4474 H 427.832 -4.27441 3.94697 0
M  V30 4475 H 426.712 -5.04118 6.00695 0
M  V30 4476 N 424.215 -0.530993 -1.48385 0
M  V30 4477 C 425.626 -0.0907905 -1.86479 0
M  V30 4478 C 425.977 1.33213 -1.44044 0
M  V30 4479 O 425.102 1.99783 -0.831615 0
M  V30 4480 C 425.697 -0.157987 -3.38431 0
M  V30 4481 C 424.256 0.227026 -3.75715 0
M  V30 4482 C 423.403 -0.5173 -2.72432 0
M  V30 4483 H 426.354 -0.742186 -1.40276 0
M  V30 4484 H 426.375 0.630053 -3.75247 0
M  V30 4485 H 425.887 -1.19372 -3.69286 0
M  V30 4486 H 423.988 1.26486 -3.50474 0
M  V30 4487 H 424.101 -0.113288 -4.78966 0
M  V30 4488 H 422.465 0.0365527 -2.54674 0
M  V30 4489 H 423.248 -1.55368 -3.0613 0
M  V30 4490 N 425.693 1.55336 -0.266172 0
M  V30 4491 C 426.941 1.99003 0.35246 0
M  V30 4492 C 427.262 1.15591 1.57047 0
M  V30 4493 O 426.532 0.243268 1.94384 0
M  V30 4494 H 425.112 0.735025 0.133217 0
M  V30 4495 H 427.774 1.91367 -0.369434 0
M  V30 4496 H 426.87 3.05289 0.648453 0
M  V30 4497 N 427.171 -0.0066808 1.57599 0
M  V30 4498 C 428.582 -0.550379 1.78403 0
M  V30 4499 C 428.933 -1.74339 0.900014 0
M  V30 4500 O 428.058 -2.16166 0.100713 0
M  V30 4501 C 428.653 -1.00523 3.23544 0
M  V30 4502 C 427.212 -1.49428 3.45468 0
M  V30 4503 C 426.359 -0.442444 2.73748 0
M  V30 4504 H 429.31 0.219508 1.57175 0
M  V30 4505 H 429.331 -1.87157 3.31289 0
M  V30 4506 H 428.843 -0.136735 3.87859 0
M  V30 4507 H 426.944 -2.3839 2.86358 0
M  V30 4508 H 427.057 -1.52635 4.54136 0
M  V30 4509 H 425.421 -0.902578 2.38171 0
M  V30 4510 H 426.204 0.416973 3.40758 0
M  V30 4511 N 428.649 -1.55105 -0.279332 0
M  V30 4512 C 429.597 -1.88333 -1.36505 0
M  V30 4513 C 430.591 -0.759043 -1.51443 0
M  V30 4514 O 431.797 -0.943312 -1.53302 0
M  V30 4515 H 428.172 -0.59766 -0.456406 0
M  V30 4516 H 430.143 -2.79041 -1.05728 0
M  V30 4517 C 428.892 -2.16628 -2.7197 0
M  V30 4518 H 428.215 -3.02624 -2.61264 0
M  V30 4519 H 429.655 -2.43803 -3.46895 0
M  V30 4520 C 428.114 -0.971807 -3.22579 0
M  V30 4521 O 428.644 -0.203228 -4.01186 0
M  V30 4522 N 426.85 -0.771238 -2.80179 0
M  V30 4523 H 426.397 -1.39792 -2.1637 0
M  V30 4524 H 426.355 0.0263667 -3.14389 0
M  V30 4525 N 430.127 0.543554 -1.4793 0
M  V30 4526 C 431.374 1.30008 -1.55255 0
M  V30 4527 C 431.702 1.93245 -0.220612 0
M  V30 4528 O 430.957 1.79141 0.787843 0
M  V30 4529 C 431.256 2.42078 -2.62932 0
M  V30 4530 C 430.922 1.96583 -4.0579 0
M  V30 4531 C 429.584 1.83893 -4.44676 0
M  V30 4532 C 431.936 1.62034 -4.95373 0
M  V30 4533 C 429.264 1.34969 -5.70964 0
M  V30 4534 C 431.616 1.14577 -6.22137 0
M  V30 4535 C 430.28 1.00493 -6.59892 0
M  V30 4536 H 429.55 0.475735 -0.568117 0
M  V30 4537 H 432.197 0.608075 -1.81589 0
M  V30 4538 H 430.502 3.16892 -2.30406 0
M  V30 4539 H 432.199 3.00236 -2.65818 0
M  V30 4540 H 428.789 2.07407 -3.75074 0
M  V30 4541 H 432.973 1.70705 -4.66019 0
M  V30 4542 H 428.229 1.2274 -5.98953 0
M  V30 4543 H 432.403 0.869109 -6.90955 0
M  V30 4544 H 430.03 0.623624 -7.57638 0
M  V30 4545 N 431.605 1.3629 0.791371 0
M  V30 4546 C 432.853 1.30154 1.5461 0
M  V30 4547 C 433.174 -0.119409 1.94634 0
M  V30 4548 O 432.444 -1.05924 1.64794 0
M  V30 4549 H 431.024 0.478784 0.573389 0
M  V30 4550 H 433.686 1.70565 0.94306 0
M  V30 4551 H 432.782 1.92762 2.45457 0
M  V30 4552 N 433.083 -1.0153 1.20538 0
M  V30 4553 C 434.332 -1.74558 1.01057 0
M  V30 4554 C 434.645 -1.90168 -0.457756 0
M  V30 4555 O 435.851 -2.60301 -0.771722 0
M  V30 4556 C 434.307 -3.13963 1.75941 0
M  V30 4557 C 433.915 -3.06361 3.26875 0
M  V30 4558 C 435.659 -3.91191 1.64832 0
M  V30 4559 C 433.566 -4.40782 3.94291 0
M  V30 4560 H 432.496 -0.654417 0.374505 0
M  V30 4561 H 435.147 -1.13521 1.44171 0
M  V30 4562 H 433.529 -3.75549 1.25614 0
M  V30 4563 H 434.703 -2.54074 3.84425 0
M  V30 4564 H 433.018 -2.42625 3.38411 0
M  V30 4565 H 435.615 -4.90644 2.12539 0
M  V30 4566 H 435.958 -4.11884 0.604745 0
M  V30 4567 H 436.491 -3.36236 2.12579 0
M  V30 4568 H 433.23 -4.25292 4.98805 0
M  V30 4569 H 432.75 -4.9307 3.41529 0
M  V30 4570 H 434.429 -5.09621 3.98617 0
M  V30 4571 N 434.561 -1.01147 -1.20859 0
M  V30 4572 C 435.789 -0.716911 -1.94082 0
M  V30 4573 C 436.204 0.721568 -1.74467 0
M  V30 4574 O 435.561 1.48889 -1.05539 0
M  V30 4575 C 435.612 -1.03662 -3.46318 0
M  V30 4576 O 435.333 -2.4186 -3.65288 0
M  V30 4577 C 436.834 -0.762386 -4.36695 0
M  V30 4578 H 434.054 -0.26367 -0.617024 0
M  V30 4579 H 436.598 -1.35127 -1.53496 0
M  V30 4580 H 434.753 -0.447757 -3.84804 0
M  V30 4581 H 435.167 -2.53224 -4.59323 0
M  V30 4582 H 436.641 -1.03621 -5.42187 0
M  V30 4583 H 437.118 0.303514 -4.3815 0
M  V30 4584 H 437.724 -1.33316 -4.03865 0
M  V30 4585 N 436.039 1.36541 -0.78704 0
M  V30 4586 C 436.987 2.31965 -0.171724 0
M  V30 4587 C 437.981 1.55689 0.667631 0
M  V30 4588 O 439.187 1.70969 0.562981 0
M  V30 4589 H 435.562 0.751101 -0.0367545 0
M  V30 4590 H 437.533 2.81428 -0.992017 0
M  V30 4591 C 436.282 3.40968 0.680904 0
M  V30 4592 H 435.605 3.99775 0.0443961 0
M  V30 4593 H 437.045 4.10063 1.07815 0
M  V30 4594 C 435.504 2.82338 1.83813 0
M  V30 4595 O 436.034 2.74311 2.93456 0
M  V30 4596 N 434.24 2.39661 1.6435 0
M  V30 4597 H 433.787 2.46389 0.751668 0
M  V30 4598 H 433.745 2.00779 2.4194 0
M  V30 4599 N 437.518 0.538854 1.48102 0
M  V30 4600 C 438.765 0.0080018 2.02498 0
M  V30 4601 C 439.093 -1.33437 1.41509 0
M  V30 4602 O 438.348 -1.87709 0.553507 0
M  V30 4603 C 438.647 -0.153808 3.57069 0
M  V30 4604 C 438.313 1.11533 4.36888 0
M  V30 4605 C 436.975 1.46314 4.58417 0
M  V30 4606 C 439.327 1.95718 4.83057 0
M  V30 4607 C 436.655 2.6516 5.23361 0
M  V30 4608 C 439.007 3.13751 5.49312 0
M  V30 4609 C 437.671 3.48866 5.69077 0
M  V30 4610 H 436.941 0.00292807 0.740994 0
M  V30 4611 H 439.588 0.706668 1.77984 0
M  V30 4612 H 437.893 -0.935309 3.80472 0
M  V30 4613 H 439.59 -0.579607 3.96789 0
M  V30 4614 H 436.18 0.834484 4.20398 0
M  V30 4615 H 440.364 1.70158 4.66219 0
M  V30 4616 H 435.62 2.92558 5.36861 0
M  V30 4617 H 439.794 3.79282 5.84053 0
M  V30 4618 H 437.421 4.41054 6.19173 0
M  V30 4619 N 438.996 -1.55193 0.274407 0
M  V30 4620 C 440.273 -1.91584 -0.394331 0
M  V30 4621 C 440.653 -1.19858 -1.73774 0
M  V30 4622 O 440.001 -0.3252 -2.26174 0
M  V30 4623 C 440.211 -3.4487 -0.535311 0
M  V30 4624 C 441.559 -4.16636 -0.818534 0
M  V30 4625 O 442.583 -3.5076 -0.620146 0
M  V30 4626 O 441.442 -5.33209 -1.19792 0
M  V30 4627 H 438.536 -0.798349 -0.215794 0
M  V30 4628 H 441.082 -1.66646 0.320507 0
M  V30 4629 H 439.854 -3.89145 0.410141 0
M  V30 4630 H 439.477 -3.75759 -1.29964 0
M  V30 4631 N 440.474 -0.00167713 -1.576 0
M  V30 4632 C 441.422 1.0074 -2.09652 0
M  V30 4633 C 442.416 1.35483 -1.01689 0
M  V30 4634 O 443.622 1.34028 -1.20152 0
M  V30 4635 H 439.997 0.342537 -0.669457 0
M  V30 4636 H 441.968 0.542841 -2.93421 0
M  V30 4637 C 440.717 2.2899 -2.61647 0
M  V30 4638 H 440.04 2.03124 -3.44355 0
M  V30 4639 H 441.48 2.9787 -3.01744 0
M  V30 4640 C 439.939 3.00085 -1.53136 0
M  V30 4641 O 440.469 3.91135 -0.91524 0
M  V30 4642 N 438.675 2.6194 -1.25841 0
M  V30 4643 H 438.222 1.8798 -1.76129 0
M  V30 4644 H 438.18 3.09822 -0.534576 0
M  V30 4645 N 441.952 1.55251 0.271103 0
M  V30 4646 C 443.201 1.75151 1.00025 0
M  V30 4647 C 443.514 0.561041 1.87381 0
M  V30 4648 O 444.72 0.642506 2.63788 0
M  V30 4649 C 443.176 3.09999 1.82835 0
M  V30 4650 C 442.784 4.3662 1.00336 0
M  V30 4651 C 444.528 3.39249 2.55168 0
M  V30 4652 C 442.435 5.62506 1.82595 0
M  V30 4653 H 441.365 0.652877 0.377183 0
M  V30 4654 H 444.016 1.81708 0.255843 0
M  V30 4655 H 442.398 2.97485 2.61378 0
M  V30 4656 H 443.572 4.60055 0.261959 0
M  V30 4657 H 441.887 4.14527 0.394486 0
M  V30 4658 H 444.484 4.3051 3.1712 0
M  V30 4659 H 444.827 2.59467 3.2555 0
M  V30 4660 H 445.36 3.52869 1.83653 0
M  V30 4661 H 442.099 6.45041 1.16631 0
M  V30 4662 H 441.619 5.43211 2.54327 0
M  V30 4663 H 443.298 6.00875 2.39913 0
M  V30 4664 N 443.43 -0.535701 1.48216 0
M  V30 4665 C 444.36 -1.65014 1.65204 0
M  V30 4666 C 445.341 -1.62554 0.501011 0
M  V30 4667 O 446.526 -1.7984 0.732886 0
M  V30 4668 C 443.656 -3.03616 1.68626 0
M  V30 4669 C 442.61 -3.20932 2.83172 0
M  V30 4670 C 441.936 -4.60537 2.71679 0
M  V30 4671 C 443.236 -3.04249 4.24535 0
M  V30 4672 H 444.93 -1.51053 2.58502 0
M  V30 4673 H 442.476 -0.725262 1.24402 0
M  V30 4674 H 444.429 -3.81446 1.79099 0
M  V30 4675 H 443.153 -3.18587 0.719026 0
M  V30 4676 H 441.812 -2.45517 2.72244 0
M  V30 4677 H 441.46 -4.72336 1.72937 0
M  V30 4678 H 441.16 -4.73069 3.48538 0
M  V30 4679 H 442.684 -5.40475 2.84112 0
M  V30 4680 H 444.098 -3.71877 4.36326 0
M  V30 4681 H 442.495 -3.28278 5.02348 0
M  V30 4682 H 443.565 -2.00739 4.41397 0
M  V30 4683 N 444.908 -1.36708 -0.784132 0
M  V30 4684 C 446.155 -1.31231 -1.54222 0
M  V30 4685 C 446.483 0.106864 -1.94206 0
M  V30 4686 O 445.738 1.07734 -1.63376 0
M  V30 4687 C 446.037 -2.18571 -2.82774 0
M  V30 4688 C 445.703 -3.67039 -2.61903 0
M  V30 4689 C 444.365 -4.07503 -2.55919 0
M  V30 4690 C 446.717 -4.61149 -2.4288 0
M  V30 4691 C 444.045 -5.40211 -2.28886 0
M  V30 4692 C 446.397 -5.94081 -2.17373 0
M  V30 4693 C 445.061 -6.33664 -2.09825 0
M  V30 4694 H 444.331 -0.48021 -0.56434 0
M  V30 4695 H 446.978 -1.68807 -0.904233 0
M  V30 4696 H 445.283 -1.73949 -3.51068 0
M  V30 4697 H 446.98 -2.11655 -3.40592 0
M  V30 4698 H 443.57 -3.34941 -2.67418 0
M  V30 4699 H 447.754 -4.30756 -2.46501 0
M  V30 4700 H 443.01 -5.69855 -2.21529 0
M  V30 4701 H 447.184 -6.66566 -2.01649 0
M  V30 4702 H 444.811 -7.36423 -1.88641 0
M  V30 4703 N 446.386 1.0089 -1.21074 0
M  V30 4704 C 447.349 2.0775 -0.968129 0
M  V30 4705 C 448.349 1.6069 0.0593445 0
M  V30 4706 O 449.539 1.73293 -0.177525 0
M  V30 4707 C 446.671 3.37794 -0.459108 0
M  V30 4708 H 447.864 2.30707 -1.9161 0
M  V30 4709 H 445.417 1.17807 -1.02719 0
M  V30 4710 H 446.152 3.20516 0.49397 0
M  V30 4711 H 445.937 3.7328 -1.20019 0
M  V30 4712 H 447.427 4.16454 -0.309099 0
M  V30 4713 N 447.864 1.01787 1.20321 0
M  V30 4714 C 449.113 0.703249 1.89043 0
M  V30 4715 C 449.426 -0.770445 1.79787 0
M  V30 4716 O 450.632 -1.19767 2.43656 0
M  V30 4717 C 449.088 1.20749 3.3904 0
M  V30 4718 C 448.696 2.70817 3.56878 0
M  V30 4719 C 450.44 0.968352 4.13308 0
M  V30 4720 C 448.347 3.14716 5.00708 0
M  V30 4721 H 447.277 0.259354 0.707991 0
M  V30 4722 H 449.928 1.23072 1.36108 0
M  V30 4723 H 448.31 0.607989 3.91305 0
M  V30 4724 H 449.484 3.36327 3.14993 0
M  V30 4725 H 447.799 2.92888 2.95983 0
M  V30 4726 H 450.396 1.27173 5.19356 0
M  V30 4727 H 450.739 -0.095149 4.16191 0
M  V30 4728 H 451.272 1.53129 3.67146 0
M  V30 4729 H 448.011 4.20347 5.02979 0
M  V30 4730 H 447.531 2.53927 5.43398 0
M  V30 4731 H 449.21 3.07426 5.69296 0
M  V30 4732 N 449.342 -1.36122 0.79427 0
M  V30 4733 C 450.272 -2.32551 0.210328 0
M  V30 4734 C 451.253 -1.56884 -0.657386 0
M  V30 4735 O 452.438 -1.85014 -0.590207 0
M  V30 4736 C 449.568 -3.41128 -0.651819 0
M  V30 4737 C 448.522 -4.27842 0.116395 0
M  V30 4738 C 447.848 -5.2763 -0.86666 0
M  V30 4739 C 449.148 -5.05647 1.30837 0
M  V30 4740 H 450.842 -2.81636 1.01594 0
M  V30 4741 H 448.388 -1.35407 0.489981 0
M  V30 4742 H 450.341 -4.07581 -1.07031 0
M  V30 4743 H 449.065 -2.90622 -1.49019 0
M  V30 4744 H 447.724 -3.62952 0.515915 0
M  V30 4745 H 447.372 -4.73395 -1.70019 0
M  V30 4746 H 447.072 -5.86514 -0.35705 0
M  V30 4747 H 448.596 -5.96955 -1.28361 0
M  V30 4748 H 450.01 -5.65113 0.965393 0
M  V30 4749 H 448.407 -5.73967 1.75161 0
M  V30 4750 H 449.477 -4.37006 2.10128 0
M  V30 4751 N 450.82 -0.546701 -1.47814 0
M  V30 4752 C 452.048 -0.0232857 -2.06887 0
M  V30 4753 C 452.463 1.26571 -1.4009 0
M  V30 4754 O 451.82 1.7569 -0.493906 0
M  V30 4755 C 451.871 0.186975 -3.61016 0
M  V30 4756 O 451.592 -1.05097 -4.25307 0
M  V30 4757 C 453.093 0.748872 -4.36929 0
M  V30 4758 H 450.313 -0.0410763 -0.669742 0
M  V30 4759 H 452.857 -0.757117 -1.89968 0
M  V30 4760 H 451.012 0.870903 -3.77484 0
M  V30 4761 H 451.426 -0.842121 -5.17695 0
M  V30 4762 H 452.9 0.845334 -5.45489 0
M  V30 4763 H 453.377 1.75772 -4.02493 0
M  V30 4764 H 453.983 0.100979 -4.2518 0
M  V30 4765 N 452.299 1.55045 -0.282633 0
M  V30 4766 C 453.545 2.00056 0.332481 0
M  V30 4767 C 453.878 1.1708 1.54939 0
M  V30 4768 O 453.153 0.2427 1.9298 0
M  V30 4769 C 453.436 3.53086 0.70725 0
M  V30 4770 C 453.289 4.46813 -0.517521 0
M  V30 4771 C 454.608 4.12245 1.54084 0
M  V30 4772 H 451.727 0.727268 0.119373 0
M  V30 4773 H 454.369 1.85932 -0.391076 0
M  V30 4774 H 452.519 3.65253 1.32372 0
M  V30 4775 H 454.191 4.46579 -1.15607 0
M  V30 4776 H 452.434 4.18163 -1.1542 0
M  V30 4777 H 453.105 5.51595 -0.211426 0
M  V30 4778 H 455.581 4.03401 1.02013 0
M  V30 4779 H 454.457 5.19515 1.77186 0
M  V30 4780 H 454.718 3.62951 2.52427 0
M  V30 4781 N 453.777 0.010035 1.57597 0
M  V30 4782 C 455.024 -0.6727 1.91 0
M  V30 4783 C 455.352 -1.73219 0.884614 0
M  V30 4784 O 454.607 -1.95395 -0.109215 0
M  V30 4785 C 454.906 -1.34434 3.31153 0
M  V30 4786 C 454.572 -0.417083 4.48967 0
M  V30 4787 C 453.234 -0.161809 4.80928 0
M  V30 4788 C 455.586 0.220753 5.20732 0
M  V30 4789 C 452.914 0.739426 5.82022 0
M  V30 4790 C 455.266 1.10993 6.22787 0
M  V30 4791 C 453.93 1.37428 6.532 0
M  V30 4792 H 453.2 -0.246158 0.698918 0
M  V30 4793 H 455.847 0.0677145 1.9138 0
M  V30 4794 H 454.152 -2.15905 3.26944 0
M  V30 4795 H 455.849 -1.87883 3.54261 0
M  V30 4796 H 452.439 -0.626217 4.24001 0
M  V30 4797 H 456.623 0.0365643 4.96287 0
M  V30 4798 H 451.879 0.952139 6.03941 0
M  V30 4799 H 456.053 1.61046 6.77523 0
M  V30 4800 H 453.68 2.0743 7.31353 0
M  V30 4801 N 455.255 -1.55392 -0.262866 0
M  V30 4802 C 456.187 -1.85392 -1.34768 0
M  V30 4803 C 457.2 -0.739069 -1.45057 0
M  V30 4804 O 458.389 -1.01703 -1.46693 0
M  V30 4805 C 455.489 -2.01088 -2.72795 0
M  V30 4806 C 454.662 -3.31828 -2.84972 0
M  V30 4807 C 453.721 -3.37464 -4.03738 0
M  V30 4808 O 452.747 -4.10778 -3.94018 0
M  V30 4809 N 453.949 -2.65599 -5.16176 0
M  V30 4810 H 456.714 -2.79029 -1.09375 0
M  V30 4811 H 454.275 -1.55434 -0.452981 0
M  V30 4812 H 456.267 -2.02217 -3.50557 0
M  V30 4813 H 454.837 -1.1427 -2.90966 0
M  V30 4814 H 454.057 -3.43152 -1.94012 0
M  V30 4815 H 455.345 -4.18032 -2.90045 0
M  V30 4816 H 454.743 -2.05736 -5.26962 0
M  V30 4817 H 453.3 -2.72439 -5.92132 0
M  V30 4818 N 456.733 0.527833 -1.48498 0
M  V30 4819 C 457.973 1.29401 -1.58224 0
M  V30 4820 C 458.337 1.90348 -0.251327 0
M  V30 4821 O 459.538 2.67868 -0.223588 0
M  V30 4822 C 457.809 2.35266 -2.69044 0
M  V30 4823 S 459.368 3.2158 -2.98549 0
M  V30 4824 H 456.186 0.440138 -0.558391 0
M  V30 4825 H 458.788 0.601079 -1.8603 0
M  V30 4826 H 457.492 1.88975 -3.64303 0
M  V30 4827 H 457.023 3.09263 -2.43146 0
M  V30 4828 H 459.038 4.35391 -2.38011 0
M  V30 4829 N 458.211 1.37122 0.776871 0
M  V30 4830 C 459.46 1.31373 1.53049 0
M  V30 4831 C 459.773 -0.101016 1.95339 0
M  V30 4832 O 460.979 -0.280953 2.70042 0
M  V30 4833 C 459.435 2.30567 2.76346 0
M  V30 4834 C 459.043 3.77543 2.41175 0
M  V30 4835 C 460.787 2.33818 3.54301 0
M  V30 4836 C 458.694 4.68481 3.60943 0
M  V30 4837 H 457.624 0.488234 0.574581 0
M  V30 4838 H 460.275 1.62554 0.851372 0
M  V30 4839 H 458.657 1.92396 3.46121 0
M  V30 4840 H 459.831 4.24521 1.79216 0
M  V30 4841 H 458.146 3.77187 1.76405 0
M  V30 4842 H 460.743 2.98965 4.4331 0
M  V30 4843 H 461.086 1.3503 3.93793 0
M  V30 4844 H 461.619 2.7067 2.91518 0
M  V30 4845 H 458.358 5.68378 3.26537 0
M  V30 4846 H 457.878 4.2621 4.22025 0
M  V30 4847 H 459.557 4.85366 4.27819 0
M  V30 4848 N 459.689 -1.00246 1.21608 0
M  V30 4849 C 460.917 -1.77631 1.06089 0
M  V30 4850 C 461.332 -1.84746 -0.38916 0
M  V30 4851 O 460.689 -1.31068 -1.26994 0
M  V30 4852 C 460.74 -3.21415 1.65453 0
M  V30 4853 O 460.461 -3.14703 3.04785 0
M  V30 4854 C 461.962 -4.15289 1.55079 0
M  V30 4855 H 459.182 -0.558162 0.37242 0
M  V30 4856 H 461.726 -1.26093 1.60999 0
M  V30 4857 H 459.881 -3.70053 1.14629 0
M  V30 4858 H 460.295 -4.05056 3.33212 0
M  V30 4859 H 461.769 -5.13965 2.01355 0
M  V30 4860 H 462.246 -4.36279 0.505665 0
M  V30 4861 H 462.852 -3.72543 2.05163 0
M  V30 4862 N 461.167 -1.02423 -1.1978 0
M  V30 4863 C 462.1 -0.545641 -2.21581 0
M  V30 4864 C 463.078 0.411024 -1.57319 0
M  V30 4865 O 464.262 0.329223 -1.85603 0
M  V30 4866 C 461.389 0.204973 -3.38079 0
M  V30 4867 C 460.435 -0.70241 -4.20676 0
M  V30 4868 S 461.268 -2.17595 -4.89298 0
M  V30 4869 C 462.424 -1.43572 -6.09211 0
M  V30 4870 H 462.657 -1.4082 -2.61834 0
M  V30 4871 H 460.19 -0.833771 -1.29952 0
M  V30 4872 H 462.148 0.631924 -4.05607 0
M  V30 4873 H 460.809 1.0432 -2.9627 0
M  V30 4874 H 460.002 -0.123193 -5.03849 0
M  V30 4875 H 459.604 -1.06747 -3.58442 0
M  V30 4876 H 461.896 -0.719806 -6.73665 0
M  V30 4877 H 462.839 -2.24388 -6.71607 0
M  V30 4878 H 463.247 -0.935252 -5.56699 0
M  V30 4879 N 462.645 1.35699 -0.801477 0
M  V30 4880 C 463.555 2.33661 -0.209691 0
M  V30 4881 C 464.571 1.6162 0.644591 0
M  V30 4882 O 465.747 1.93529 0.557545 0
M  V30 4883 C 462.812 3.40816 0.636033 0
M  V30 4884 C 461.873 4.28639 -0.238147 0
M  V30 4885 C 461.106 5.30676 0.567307 0
M  V30 4886 O 461.329 5.41174 1.8024 0
M  V30 4887 O 460.263 6.01887 -0.0391336 0
M  V30 4888 H 464.089 2.8606 -1.01996 0
M  V30 4889 H 461.674 1.38379 -0.563164 0
M  V30 4890 H 463.556 4.06301 1.11791 0
M  V30 4891 H 462.231 2.90696 1.42399 0
M  V30 4892 H 461.138 3.66152 -0.767044 0
M  V30 4893 H 462.471 4.82143 -0.989915 0
M  V30 4894 N 464.123 0.554532 1.47522 0
M  V30 4895 C 465.371 0.0294208 2.02079 0
M  V30 4896 C 465.692 -1.32411 1.43151 0
M  V30 4897 O 464.962 -1.863 0.605728 0
M  V30 4898 H 463.542 0.00788672 0.746958 0
M  V30 4899 H 466.204 0.723934 1.80956 0
M  V30 4900 H 465.3 -0.0606745 3.12041 0
M  V30 4901 N 465.601 -1.54893 0.290851 0
M  V30 4902 C 466.847 -2.00949 -0.314784 0
M  V30 4903 C 467.202 -1.1757 -1.52299 0
M  V30 4904 O 466.495 -0.241558 -1.90071 0
M  V30 4905 C 466.689 -3.49815 -0.732397 0
M  V30 4906 C 466.518 -4.47603 0.433799 0
M  V30 4907 C 465.288 -4.96806 0.922599 0
M  V30 4908 C 467.486 -4.98233 1.27546 0
M  V30 4909 N 465.468 -5.78426 2.05662 0
M  V30 4910 C 466.839 -5.77455 2.25712 0
M  V30 4911 C 468.894 -4.80439 1.307 0
M  V30 4912 C 467.597 -6.40778 3.26796 0
M  V30 4913 C 469.623 -5.44574 2.30637 0
M  V30 4914 C 468.985 -6.23619 3.27533 0
M  V30 4915 H 465.084 -0.777905 -0.0799257 0
M  V30 4916 H 467.668 -1.9015 0.418458 0
M  V30 4917 H 465.839 -3.60925 -1.43483 0
M  V30 4918 H 467.571 -3.82681 -1.31671 0
M  V30 4919 H 464.326 -4.70961 0.49926 0
M  V30 4920 H 464.75 -6.23923 2.62772 0
M  V30 4921 H 469.392 -4.18918 0.571622 0
M  V30 4922 H 467.11 -7.01439 4.01258 0
M  V30 4923 H 470.696 -5.32739 2.33838 0
M  V30 4924 H 469.576 -6.72367 4.03599 0
M  V30 4925 N 467.08 -0.0183926 -1.57589 0
M  V30 4926 C 468.308 0.673046 -1.95647 0
M  V30 4927 C 468.723 1.66275 -0.894312 0
M  V30 4928 O 468.08 1.82072 0.124975 0
M  V30 4929 C 468.131 1.38884 -3.33756 0
M  V30 4930 O 467.852 0.438806 -4.35897 0
M  V30 4931 C 469.353 2.1731 -3.86383 0
M  V30 4932 H 466.573 0.186292 -0.644621 0
M  V30 4933 H 469.117 -0.0749748 -2.04363 0
M  V30 4934 H 467.272 2.08835 -3.26293 0
M  V30 4935 H 467.686 0.945869 -5.15901 0
M  V30 4936 H 469.16 2.62863 -4.85394 0
M  V30 4937 H 469.637 3.00764 -3.20059 0
M  V30 4938 H 470.243 1.52339 -3.97081 0
M  V30 4939 N 468.558 1.5553 0.254621 0
M  V30 4940 C 469.835 1.6774 1.00611 0
M  V30 4941 C 470.215 0.555993 2.03647 0
M  V30 4942 O 469.563 -0.441583 2.24193 0
M  V30 4943 C 469.773 3.07725 1.6464 0
M  V30 4944 C 471.121 3.66074 2.15116 0
M  V30 4945 O 472.145 3.10476 1.74595 0
M  V30 4946 O 471.004 4.63526 2.89493 0
M  V30 4947 H 468.098 0.681958 0.467828 0
M  V30 4948 H 470.644 1.67863 0.24902 0
M  V30 4949 H 469.416 3.80792 0.900734 0
M  V30 4950 H 469.039 3.1158 2.46989 0
M  V30 4951 N 470.036 -0.519951 1.48776 0
M  V30 4952 C 471.285 -1.27175 1.56555 0
M  V30 4953 C 471.598 -1.9401 0.248869 0
M  V30 4954 O 472.804 -2.70725 0.205004 0
M  V30 4955 C 471.26 -2.30811 2.76142 0
M  V30 4956 C 470.868 -1.7 4.14493 0
M  V30 4957 C 472.612 -3.06937 2.9324 0
M  V30 4958 C 470.519 -2.71635 5.25327 0
M  V30 4959 H 469.449 -0.478329 0.582853 0
M  V30 4960 H 472.1 -0.547916 1.75129 0
M  V30 4961 H 470.482 -3.06274 2.51023 0
M  V30 4962 H 471.656 -1.00658 4.49672 0
M  V30 4963 H 469.971 -1.06331 4.02595 0
M  V30 4964 H 472.568 -3.82905 3.73213 0
M  V30 4965 H 472.911 -3.63409 2.03075 0
M  V30 4966 H 473.444 -2.38589 3.18308 0
M  V30 4967 H 470.183 -2.1997 6.1749 0
M  V30 4968 H 469.703 -3.39275 4.94624 0
M  V30 4969 H 471.382 -3.34429 5.53865 0
M  V30 4970 N 471.514 -1.37532 -0.769588 0
M  V30 4971 C 472.444 -1.36172 -1.89682 0
M  V30 4972 C 473.425 -0.23001 -1.68538 0
M  V30 4973 O 474.61 -0.43069 -1.89364 0
M  V30 4974 C 471.74 -1.1701 -3.26995 0
M  V30 4975 C 470.694 -2.27216 -3.62708 0
M  V30 4976 C 470.02 -1.93174 -4.98586 0
M  V30 4977 C 471.32 -3.6941 -3.69234 0
M  V30 4978 H 473.014 -2.30499 -1.91078 0
M  V30 4979 H 470.56 -1.10953 -0.917902 0
M  V30 4980 H 472.513 -1.14688 -4.05493 0
M  V30 4981 H 471.237 -0.191395 -3.26039 0
M  V30 4982 H 469.896 -2.28697 -2.86519 0
M  V30 4983 H 469.544 -0.938281 -4.94171 0
M  V30 4984 H 469.244 -2.66973 -5.23449 0
M  V30 4985 H 470.768 -1.92443 -5.79481 0
M  V30 4986 H 472.182 -3.70047 -4.37879 0
M  V30 4987 H 470.579 -4.4228 -4.05597 0
M  V30 4988 H 471.649 -4.0288 -2.69844 0
M  V30 4989 N 472.992 0.995999 -1.22138 0
M  V30 4990 C 474.222 1.76809 -1.06874 0
M  V30 4991 C 474.63 1.85265 0.383866 0
M  V30 4992 O 473.973 1.31969 1.27789 0
M  V30 4993 C 474.035 3.2186 -1.60144 0
M  V30 4994 C 473.699 3.36958 -3.0872 0
M  V30 4995 C 474.696 3.2452 -4.0618 0
M  V30 4996 C 472.381 3.62109 -3.48112 0
M  V30 4997 C 474.375 3.37013 -5.41019 0
M  V30 4998 C 472.062 3.74243 -4.831 0
M  V30 4999 C 473.06 3.61702 -5.79362 0
M  V30 5000 O 472.748 3.73436 -7.119 0
M  V30 5001 H 472.48 0.562207 -0.375365 0
M  V30 5002 H 475.034 1.26113 -1.62125 0
M  V30 5003 H 473.264 3.73734 -0.992981 0
M  V30 5004 H 474.953 3.80775 -1.40589 0
M  V30 5005 H 475.719 3.05004 -3.77091 0
M  V30 5006 H 471.598 3.70949 -2.73712 0
M  V30 5007 H 475.142 3.27141 -6.16137 0
M  V30 5008 H 471.039 3.93266 -5.11872 0
M  V30 5009 H 471.807 3.90328 -7.19435 0
M  V30 5010 N 474.47 1.03057 1.19235 0
M  V30 5011 C 475.418 0.606391 2.24557 0
M  V30 5012 C 476.412 -0.361826 1.65491 0
M  V30 5013 O 477.618 -0.23022 1.78522 0
M  V30 5014 H 473.993 0.177838 0.730669 0
M  V30 5015 H 475.964 1.50529 2.5765 0
M  V30 5016 C 474.713 -0.0252127 3.47691 0
M  V30 5017 H 474.036 0.710838 3.9343 0
M  V30 5018 H 475.476 -0.284931 4.23042 0
M  V30 5019 C 473.935 -1.27229 3.11953 0
M  V30 5020 O 474.465 -2.36416 3.24762 0
M  V30 5021 N 472.671 -1.16169 2.6637 0
M  V30 5022 H 472.218 -0.273189 2.56147 0
M  V30 5023 H 472.176 -1.99703 2.42829 0
M  V30 5024 N 475.948 -1.35272 0.808662 0
M  V30 5025 C 477.176 -2.02946 0.402537 0
M  V30 5026 C 477.591 -1.60937 -0.987147 0
M  V30 5027 O 476.948 -0.807917 -1.63643 0
M  V30 5028 C 476.999 -3.58317 0.47868 0
M  V30 5029 O 476.72 -3.98799 1.81358 0
M  V30 5030 C 478.221 -4.43251 0.0656281 0
M  V30 5031 H 475.441 -0.650831 0.163279 0
M  V30 5032 H 477.985 -1.72849 1.09286 0
M  V30 5033 H 476.14 -3.87055 -0.163415 0
M  V30 5034 H 476.554 -4.93451 1.77781 0
M  V30 5035 H 478.028 -5.51738 0.170017 0
M  V30 5036 H 478.505 -4.27913 -0.989278 0
M  V30 5037 H 479.111 -4.19813 0.68096 0
M  V30 5038 N 477.426 -0.562348 -1.47226 0
M  V30 5039 C 478.374 0.195476 -2.31777 0
M  V30 5040 C 479.368 0.90433 -1.43242 0
M  V30 5041 O 480.574 0.825031 -1.59979 0
M  V30 5042 H 476.949 0.0819095 -0.747526 0
M  V30 5043 H 478.92 -0.536753 -2.93533 0
M  V30 5044 C 477.669 1.20902 -3.26003 0
M  V30 5045 H 476.992 0.672997 -3.94095 0
M  V30 5046 H 478.432 1.71006 -3.87986 0
M  V30 5047 C 476.891 2.25955 -2.49891 0
M  V30 5048 O 477.421 3.32969 -2.2471 0
M  V30 5049 N 475.627 2.00019 -2.1081 0
M  V30 5050 H 475.174 1.13006 -2.31489 0
M  V30 5051 H 475.132 2.70523 -1.60201 0
M  V30 5052 N 478.904 1.54736 -0.299062 0
M  V30 5053 C 480.181 1.92187 0.363802 0
M  V30 5054 C 480.561 1.22607 1.71845 0
M  V30 5055 O 479.909 0.361141 2.25628 0
M  V30 5056 C 480.119 3.45678 0.480377 0
M  V30 5057 C 481.467 4.17885 0.752147 0
M  V30 5058 O 482.491 3.51702 0.564264 0
M  V30 5059 O 481.35 5.35048 1.11294 0
M  V30 5060 H 478.444 0.801681 0.203066 0
M  V30 5061 H 480.99 1.66115 -0.346978 0
M  V30 5062 H 479.762 3.88443 -0.471999 0
M  V30 5063 H 479.385 3.77779 1.2397 0
M  V30 5064 N 480.382 0.0267497 1.57577 0
M  V30 5065 C 481.345 -0.940916 2.08996 0
M  V30 5066 C 482.345 -1.25561 1.00455 0
M  V30 5067 O 483.535 -1.19634 1.26623 0
M  V30 5068 C 480.667 -2.25814 2.55384 0
M  V30 5069 H 481.86 -0.495628 2.95776 0
M  V30 5070 H 479.413 -0.221241 1.54726 0
M  V30 5071 H 480.148 -2.74976 1.71926 0
M  V30 5072 H 479.933 -2.04285 3.34679 0
M  V30 5073 H 481.423 -2.95178 2.95398 0
M  V30 5074 N 481.861 -1.55662 -0.24637 0
M  V30 5075 C 482.824 -1.89558 -1.28842 0
M  V30 5076 C 483.824 -0.772082 -1.41052 0
M  V30 5077 O 485.014 -1.04007 -1.39743 0
M  V30 5078 C 482.146 -2.12449 -2.66605 0
M  V30 5079 H 483.339 -2.82735 -1.00004 0
M  V30 5080 H 480.892 -1.48562 -0.485684 0
M  V30 5081 H 481.627 -1.21742 -3.00582 0
M  V30 5082 H 481.412 -2.94273 -2.59125 0
M  V30 5083 H 482.902 -2.39854 -3.41847 0
M  V30 5084 N 483.339 0.512053 -1.4905 0
M  V30 5085 C 484.587 1.26436 -1.57665 0
M  V30 5086 C 484.908 1.93255 -0.260293 0
M  V30 5087 O 484.178 1.82206 0.719564 0
M  V30 5088 H 482.758 0.469658 -0.580888 0
M  V30 5089 H 485.42 0.594398 -1.85615 0
M  V30 5090 H 484.516 2.03417 -2.36702 0
M  V30 5091 N 484.817 1.37938 0.762283 0
M  V30 5092 C 485.765 1.34569 1.89721 0
M  V30 5093 C 486.759 0.232929 1.67791 0
M  V30 5094 O 487.965 0.401485 1.75465 0
M  V30 5095 H 484.34 0.419594 0.624055 0
M  V30 5096 H 486.311 2.30357 1.8968 0
M  V30 5097 C 485.06 1.17898 3.27101 0
M  V30 5098 H 484.383 2.02781 3.44558 0
M  V30 5099 H 485.823 1.19593 4.06784 0
M  V30 5100 C 484.282 -0.114728 3.36705 0
M  V30 5101 O 484.812 -1.0949 3.8649 0
M  V30 5102 N 483.018 -0.16863 2.9011 0
M  V30 5103 H 482.565 0.62967 2.49786 0
M  V30 5104 H 482.523 -1.03383 2.96916 0
M  V30 5105 N 486.295 -0.989507 1.22664 0
M  V30 5106 C 487.523 -1.76496 1.07967 0
M  V30 5107 C 487.938 -1.85148 -0.369543 0
M  V30 5108 O 487.295 -1.32408 -1.25596 0
M  V30 5109 C 487.346 -3.19642 1.68853 0
M  V30 5110 O 487.067 -3.11453 3.08105 0
M  V30 5111 C 488.568 -4.13621 1.59475 0
M  V30 5112 H 485.788 -0.55418 0.378319 0
M  V30 5113 H 488.332 -1.24378 1.62328 0
M  V30 5114 H 486.487 -3.68816 1.18547 0
M  V30 5115 H 486.901 -4.01499 3.37489 0
M  V30 5116 H 488.375 -5.11801 2.06795 0
M  V30 5117 H 488.852 -4.35718 0.55191 0
M  V30 5118 H 489.458 -3.70346 2.09103 0
M  V30 5119 N 487.773 -1.03688 -1.18687 0
M  V30 5120 C 489.019 -0.74888 -1.89112 0
M  V30 5121 C 489.374 0.715345 -1.78607 0
M  V30 5122 O 488.667 1.51498 -1.17299 0
M  V30 5123 C 488.861 -1.14477 -3.3857 0
M  V30 5124 C 488.69 -2.64594 -3.63621 0
M  V30 5125 C 487.46 -3.31685 -3.812 0
M  V30 5126 C 489.658 -3.62811 -3.64517 0
M  V30 5127 N 487.64 -4.70822 -3.93955 0
M  V30 5128 C 489.011 -4.87603 -3.8294 0
M  V30 5129 C 491.066 -3.56495 -3.47585 0
M  V30 5130 C 489.769 -6.0684 -3.86184 0
M  V30 5131 C 491.795 -4.75155 -3.52111 0
M  V30 5132 C 491.157 -5.98765 -3.71026 0
M  V30 5133 H 487.256 -0.32603 -0.710794 0
M  V30 5134 H 489.84 -1.3258 -1.42586 0
M  V30 5135 H 488.011 -0.595974 -3.838 0
M  V30 5136 H 489.743 -0.808187 -3.96548 0
M  V30 5137 H 486.498 -2.82091 -3.80423 0
M  V30 5138 H 486.922 -5.43122 -4.04163 0
M  V30 5139 H 491.564 -2.61907 -3.31911 0
M  V30 5140 H 489.282 -7.01788 -4.00648 0
M  V30 5141 H 492.868 -4.71905 -3.40289 0
M  V30 5142 H 491.748 -6.89047 -3.74412 0
M  V30 5143 N 489.251 1.34841 -0.815825 0
M  V30 5144 C 490.199 2.31549 -0.220888 0
M  V30 5145 C 491.193 1.5707 0.634457 0
M  V30 5146 O 492.399 1.72125 0.526589 0
M  V30 5147 H 488.774 0.750153 -0.0526782 0
M  V30 5148 H 490.745 2.7926 -1.05149 0
M  V30 5149 C 489.494 3.42335 0.608427 0
M  V30 5150 H 488.817 3.9978 -0.0404121 0
M  V30 5151 H 490.257 4.12258 0.990931 0
M  V30 5152 C 488.716 2.86173 1.77782 0
M  V30 5153 O 489.246 2.80474 2.87571 0
M  V30 5154 N 487.452 2.43093 1.59229 0
M  V30 5155 H 486.999 2.47928 0.699237 0
M  V30 5156 H 486.957 2.05866 2.37627 0
M  V30 5157 N 490.729 0.570148 1.46925 0
M  V30 5158 C 491.975 0.0593124 2.03314 0
M  V30 5159 C 492.33 -1.28139 1.43521 0
M  V30 5160 O 491.623 -1.82411 0.586245 0
M  V30 5161 C 491.817 -0.0780336 3.57315 0
M  V30 5162 C 491.646 1.2478 4.32042 0
M  V30 5163 C 490.416 1.81859 4.7144 0
M  V30 5164 C 492.614 2.16808 4.66368 0
M  V30 5165 N 490.596 3.08313 5.30864 0
M  V30 5166 C 491.967 3.27845 5.2623 0
M  V30 5167 C 494.022 2.16643 4.48297 0
M  V30 5168 C 492.725 4.38832 5.69929 0
M  V30 5169 C 494.751 3.26652 4.93004 0
M  V30 5170 C 494.113 4.36408 5.52926 0
M  V30 5171 H 490.212 0.0641804 0.779362 0
M  V30 5172 H 492.796 0.760285 1.79242 0
M  V30 5173 H 490.967 -0.748151 3.81126 0
M  V30 5174 H 492.699 -0.59211 4.00345 0
M  V30 5175 H 489.454 1.35502 4.53802 0
M  V30 5176 H 489.878 3.72802 5.65108 0
M  V30 5177 H 494.52 1.33065 4.01315 0
M  V30 5178 H 492.238 5.23162 6.15896 0
M  V30 5179 H 495.824 3.27627 4.80782 0
M  V30 5180 H 494.704 5.20127 5.86888 0
M  V30 5181 N 492.207 -1.54576 0.307264 0
M  V30 5182 C 493.137 -2.26708 -0.55907 0
M  V30 5183 C 494.118 -1.26893 -1.1328 0
M  V30 5184 O 495.303 -1.55677 -1.16097 0
M  V30 5185 C 492.433 -3.01259 -1.72801 0
M  V30 5186 C 491.387 -4.08275 -1.28435 0
M  V30 5187 C 490.713 -4.70575 -2.53895 0
M  V30 5188 C 492.013 -5.2068 -0.411038 0
M  V30 5189 H 493.707 -2.9937 0.042576 0
M  V30 5190 H 491.253 -1.43983 0.0219173 0
M  V30 5191 H 493.206 -3.50444 -2.34023 0
M  V30 5192 H 491.93 -2.26187 -2.356 0
M  V30 5193 H 490.589 -3.59949 -0.695161 0
M  V30 5194 H 490.237 -3.92136 -3.15021 0
M  V30 5195 H 489.937 -5.42854 -2.24908 0
M  V30 5196 H 491.461 -5.22527 -3.15908 0
M  V30 5197 H 492.875 -5.65721 -0.929097 0
M  V30 5198 H 491.272 -5.99716 -0.214664 0
M  V30 5199 H 492.342 -4.81629 0.562287 0
M  V30 5200 N 493.685 -0.035106 -1.57561 0
M  V30 5201 C 494.915 0.651312 -1.96065 0
M  V30 5202 C 495.323 1.6585 -0.910514 0
M  V30 5203 O 494.666 1.83336 0.11552 0
M  V30 5204 C 494.728 1.40897 -3.30739 0
M  V30 5205 C 494.392 0.559436 -4.53563 0
M  V30 5206 C 495.389 -0.16778 -5.19629 0
M  V30 5207 C 493.074 0.495079 -4.99854 0
M  V30 5208 C 495.068 -0.947963 -6.30311 0
M  V30 5209 C 492.755 -0.288804 -6.10417 0
M  V30 5210 C 493.753 -1.00903 -6.75505 0
M  V30 5211 O 493.441 -1.78005 -7.83945 0
M  V30 5212 H 493.173 0.184036 -0.650467 0
M  V30 5213 H 495.727 -0.0929677 -2.05189 0
M  V30 5214 H 493.957 2.19852 -3.18123 0
M  V30 5215 H 495.646 1.98407 -3.54104 0
M  V30 5216 H 496.412 -0.12743 -4.84833 0
M  V30 5217 H 492.291 1.04524 -4.48994 0
M  V30 5218 H 495.835 -1.51064 -6.81047 0
M  V30 5219 H 491.732 -0.33085 -6.44652 0
M  V30 5220 H 492.5 -1.70046 -8.00641 0
M  V30 5221 N 495.163 1.55791 0.238111 0
M  V30 5222 C 496.41 1.78033 0.964907 0
M  V30 5223 C 496.738 0.600984 1.84982 0
M  V30 5224 O 495.993 -0.41536 1.91241 0
M  V30 5225 C 496.292 3.05869 1.84875 0
M  V30 5226 C 495.958 4.36808 1.11846 0
M  V30 5227 C 494.62 4.72388 0.916662 0
M  V30 5228 C 496.972 5.17717 0.60151 0
M  V30 5229 C 494.3 5.86406 0.185756 0
M  V30 5230 C 496.652 6.32494 -0.115972 0
M  V30 5231 C 495.316 6.66688 -0.329168 0
M  V30 5232 H 494.586 0.651469 0.353085 0
M  V30 5233 H 497.233 1.90061 0.234318 0
M  V30 5234 H 495.538 2.88891 2.64668 0
M  V30 5235 H 497.235 3.20278 2.41294 0
M  V30 5236 H 493.825 4.08862 1.28569 0
M  V30 5237 H 498.009 4.90678 0.744932 0
M  V30 5238 H 493.265 6.11399 0.0101886 0
M  V30 5239 H 497.439 6.94425 -0.524127 0
M  V30 5240 H 495.066 7.54884 -0.897474 0
M  V30 5241 N 496.642 -0.504142 1.49319 0
M  V30 5242 C 497.891 -1.25507 1.57895 0
M  V30 5243 C 498.204 -1.93735 0.269433 0
M  V30 5244 O 499.41 -2.70492 0.233706 0
M  V30 5245 C 497.866 -2.27869 2.78574 0
M  V30 5246 C 497.474 -1.65594 4.16272 0
M  V30 5247 C 499.218 -3.0381 2.96479 0
M  V30 5248 C 497.125 -2.66048 5.28178 0
M  V30 5249 H 496.055 -0.47212 0.587894 0
M  V30 5250 H 498.706 -0.52931 1.757 0
M  V30 5251 H 497.088 -3.03594 2.54257 0
M  V30 5252 H 498.262 -0.958826 4.50714 0
M  V30 5253 H 496.577 -1.02055 4.037 0
M  V30 5254 H 499.174 -3.78925 3.77253 0
M  V30 5255 H 499.517 -3.61235 2.06918 0
M  V30 5256 H 500.05 -2.352 3.20821 0
M  V30 5257 H 496.789 -2.13408 6.19788 0
M  V30 5258 H 496.309 -3.34009 4.98195 0
M  V30 5259 H 497.988 -3.28536 5.57381 0
M  V30 5260 N 498.12 -1.38341 -0.754957 0
M  V30 5261 C 499.531 -1.30803 -1.3322 0
M  V30 5262 C 499.882 0.0368 -1.96165 0
M  V30 5263 O 499.007 0.938844 -1.94974 0
M  V30 5264 C 499.602 -2.3688 -2.42225 0
M  V30 5265 C 498.161 -2.32925 -2.95674 0
M  V30 5266 C 497.308 -2.19819 -1.69042 0
M  V30 5267 H 500.259 -1.48719 -0.553937 0
M  V30 5268 H 500.28 -2.02517 -3.22129 0
M  V30 5269 H 499.792 -3.34747 -1.96383 0
M  V30 5270 H 497.893 -1.38635 -3.45848 0
M  V30 5271 H 498.006 -3.27008 -3.50146 0
M  V30 5272 H 496.37 -1.66648 -1.92615 0
M  V30 5273 H 497.153 -3.19625 -1.25279 0
M  V30 5274 N 499.598 0.982988 -1.23187 0
M  V30 5275 C 500.528 2.09301 -1.03515 0
M  V30 5276 C 501.509 1.70035 0.0471136 0
M  V30 5277 O 502.694 1.93847 -0.117029 0
M  V30 5278 C 499.824 3.4167 -0.622791 0
M  V30 5279 C 498.778 3.94828 -1.65211 0
M  V30 5280 C 498.104 5.23362 -1.09527 0
M  V30 5281 C 499.404 4.2439 -3.04451 0
M  V30 5282 H 501.098 2.26016 -1.96359 0
M  V30 5283 H 498.644 1.08611 -0.945501 0
M  V30 5284 H 500.597 4.18746 -0.472233 0
M  V30 5285 H 499.321 3.24811 0.341329 0
M  V30 5286 H 497.98 3.19895 -1.79061 0
M  V30 5287 H 497.628 5.02852 -0.122211 0
M  V30 5288 H 497.328 5.59895 -1.783 0
M  V30 5289 H 498.852 6.03062 -0.956511 0
M  V30 5290 H 500.266 4.92225 -2.93917 0
M  V30 5291 H 498.663 4.72118 -3.70438 0
M  V30 5292 H 499.733 3.31765 -3.53638 0
M  V30 5293 N 501.076 1.04316 1.18135 0
M  V30 5294 C 502.325 0.74319 1.87509 0
M  V30 5295 C 502.638 -0.732136 1.81381 0
M  V30 5296 O 503.844 -1.14572 2.46141 0
M  V30 5297 C 502.3 1.27913 3.36402 0
M  V30 5298 C 501.908 2.78326 3.51053 0
M  V30 5299 C 503.652 1.0558 4.11161 0
M  V30 5300 C 501.559 3.25266 4.93919 0
M  V30 5301 H 500.489 0.274313 0.702331 0
M  V30 5302 H 503.14 1.25931 1.33467 0
M  V30 5303 H 501.522 0.690853 3.89927 0
M  V30 5304 H 502.696 3.42933 3.07788 0
M  V30 5305 H 501.011 2.991 2.89704 0
M  V30 5306 H 503.608 1.38161 5.16542 0
M  V30 5307 H 503.951 -0.00684729 4.16299 0
M  V30 5308 H 504.484 1.60882 3.63816 0
M  V30 5309 H 501.223 4.30922 4.9395 0
M  V30 5310 H 500.743 2.65396 5.3789 0
M  V30 5311 H 502.422 3.19433 5.62647 0
M  V30 5312 N 502.554 -1.34406 0.822964 0
M  V30 5313 C 503.803 -1.97542 0.407458 0
M  V30 5314 C 504.116 -1.65973 -1.035 0
M  V30 5315 O 505.322 -2.22598 -1.55442 0
M  V30 5316 C 503.778 -3.53463 0.677623 0
M  V30 5317 C 503.386 -3.93925 2.1337 0
M  V30 5318 C 505.13 -4.23229 0.328284 0
M  V30 5319 C 503.037 -5.42759 2.34876 0
M  V30 5320 H 501.967 -0.739207 0.148623 0
M  V30 5321 H 504.618 -1.53248 1.00932 0
M  V30 5322 H 503 -3.96 0.00558965 0
M  V30 5323 H 504.174 -3.62494 2.8449 0
M  V30 5324 H 502.489 -3.37097 2.44448 0
M  V30 5325 H 505.086 -5.32659 0.466794 0
M  V30 5326 H 505.429 -4.09899 -0.727224 0
M  V30 5327 H 505.962 -3.86169 0.954896 0
M  V30 5328 H 502.701 -5.61075 3.38932 0
M  V30 5329 H 502.221 -5.75704 1.68299 0
M  V30 5330 H 503.9 -6.0944 2.17236 0
M  V30 5331 N 504.032 -0.577932 -1.46621 0
M  V30 5332 C 505.281 -0.0594281 -2.01612 0
M  V30 5333 C 505.594 1.30663 -1.45556 0
M  V30 5334 O 506.8 1.91621 -1.92337 0
M  V30 5335 C 505.256 -0.0556666 -3.59857 0
M  V30 5336 C 504.864 -1.41975 -4.24908 0
M  V30 5337 C 506.608 0.409143 -4.22524 0
M  V30 5338 C 504.515 -1.37397 -5.75218 0
M  V30 5339 H 503.445 -0.0184469 -0.753774 0
M  V30 5340 H 506.096 -0.728869 -1.68404 0
M  V30 5341 H 504.478 0.679843 -3.90121 0
M  V30 5342 H 505.652 -2.17461 -4.0626 0
M  V30 5343 H 503.967 -1.82419 -3.74316 0
M  V30 5344 H 506.564 0.46211 -5.32699 0
M  V30 5345 H 506.907 1.42565 -3.91128 0
M  V30 5346 H 507.44 -0.272152 -3.96868 0
M  V30 5347 H 504.179 -2.36714 -6.11267 0
M  V30 5348 H 503.699 -0.661239 -5.96144 0
M  V30 5349 H 505.378 -1.08484 -6.3784 0
M  V30 5350 N 505.51 1.54411 -0.315457 0
M  V30 5351 C 506.758 2.00023 0.288971 0
M  V30 5352 C 507.079 1.20529 1.5329 0
M  V30 5353 O 506.349 0.304986 1.93511 0
M  V30 5354 H 504.929 0.738891 0.109766 0
M  V30 5355 H 507.591 1.90094 -0.430129 0
M  V30 5356 H 506.687 3.07198 0.550999 0
M  V30 5357 N 506.988 0.0434614 1.5754 0
M  V30 5358 C 508.213 -0.645358 1.97104 0
M  V30 5359 C 508.638 -1.64037 0.920521 0
M  V30 5360 O 507.996 -1.80922 -0.11708 0
M  V30 5361 C 508.044 -1.31547 3.35749 0
M  V30 5362 O 507.148 -2.43103 3.33129 0
M  V30 5363 H 506.489 -0.168403 0.64229 0
M  V30 5364 H 509.019 0.109573 2.04306 0
M  V30 5365 H 509.029 -1.66895 3.72304 0
M  V30 5366 H 507.704 -0.586205 4.11748 0
M  V30 5367 H 506.281 -2.0976 3.0831 0
M  V30 5368 N 508.466 -1.55915 -0.229846 0
M  V30 5369 C 509.713 -1.78542 -0.955452 0
M  V30 5370 C 510.041 -0.610785 -1.84661 0
M  V30 5371 O 509.296 0.405213 -1.91459 0
M  V30 5372 C 509.595 -3.06845 -1.8325 0
M  V30 5373 C 509.261 -4.37395 -1.09528 0
M  V30 5374 C 507.923 -4.72868 -0.891598 0
M  V30 5375 C 510.275 -5.18029 -0.574046 0
M  V30 5376 C 507.603 -5.86496 -0.154655 0
M  V30 5377 C 509.955 -6.32423 0.149513 0
M  V30 5378 C 508.619 -6.66504 0.364519 0
M  V30 5379 H 507.889 -0.653333 -0.349625 0
M  V30 5380 H 510.536 -1.90183 -0.224235 0
M  V30 5381 H 508.841 -2.90291 -2.63132 0
M  V30 5382 H 510.538 -3.21553 -2.39592 0
M  V30 5383 H 507.128 -4.09538 -1.26399 0
M  V30 5384 H 511.312 -4.91066 -0.718899 0
M  V30 5385 H 506.568 -6.11396 0.0222356 0
M  V30 5386 H 510.742 -6.94137 0.560947 0
M  V30 5387 H 508.369 -7.54397 0.937495 0
M  V30 5388 N 509.944 0.496216 -1.49584 0
M  V30 5389 C 511.191 1.25003 -1.59312 0
M  V30 5390 C 511.519 1.92445 -0.28198 0
M  V30 5391 O 510.774 1.81557 0.730452 0
M  V30 5392 C 511.073 2.3359 -2.705 0
M  V30 5393 C 510.739 1.83574 -4.11839 0
M  V30 5394 C 509.401 1.69653 -4.50302 0
M  V30 5395 C 511.753 1.46193 -5.00277 0
M  V30 5396 C 509.081 1.16736 -5.74969 0
M  V30 5397 C 511.433 0.947265 -6.25468 0
M  V30 5398 C 510.097 0.794485 -6.62755 0
M  V30 5399 H 509.367 0.45742 -0.582965 0
M  V30 5400 H 512.014 0.549996 -1.83432 0
M  V30 5401 H 510.319 3.09401 -2.40371 0
M  V30 5402 H 512.016 2.91627 -2.75235 0
M  V30 5403 H 508.606 1.9537 -3.81482 0
M  V30 5404 H 512.79 1.55793 -4.71214 0
M  V30 5405 H 508.046 1.03623 -6.02555 0
M  V30 5406 H 512.22 0.648846 -6.93371 0
M  V30 5407 H 509.847 0.382271 -7.59238 0
M  V30 5408 N 511.423 1.38739 0.74761 0
M  V30 5409 C 512.356 1.3083 1.86972 0
M  V30 5410 C 513.334 0.184229 1.61553 0
M  V30 5411 O 514.518 0.36256 1.8498 0
M  V30 5412 C 511.645 1.02854 3.22705 0
M  V30 5413 C 510.691 2.17281 3.67003 0
M  V30 5414 S 511.524 3.79468 3.77842 0
M  V30 5415 C 512.68 3.53692 5.16385 0
M  V30 5416 H 512.913 2.258 1.93395 0
M  V30 5417 H 510.446 1.24646 0.911199 0
M  V30 5418 H 512.404 0.87397 4.01089 0
M  V30 5419 H 511.065 0.0959295 3.13953 0
M  V30 5420 H 510.258 1.93267 4.65472 0
M  V30 5421 H 509.86 2.28876 2.9579 0
M  V30 5422 H 512.152 3.10176 6.02327 0
M  V30 5423 H 513.095 4.51576 5.45422 0
M  V30 5424 H 513.503 2.8807 4.85464 0
M  V30 5425 N 512.901 -0.976442 1.23707 0
M  V30 5426 C 513.831 -2.08749 1.04624 0
M  V30 5427 C 514.812 -1.70057 -0.0380956 0
M  V30 5428 O 515.997 -1.93782 0.127308 0
M  V30 5429 C 513.127 -3.41335 0.640902 0
M  V30 5430 C 512.081 -3.93947 1.67302 0
M  V30 5431 C 511.407 -5.22774 1.12301 0
M  V30 5432 C 512.707 -4.22769 3.06697 0
M  V30 5433 H 514.401 -2.24972 1.97555 0
M  V30 5434 H 511.947 -1.08108 0.951247 0
M  V30 5435 H 513.9 -4.18489 0.494434 0
M  V30 5436 H 512.624 -3.24988 -0.324099 0
M  V30 5437 H 511.283 -3.18941 1.80755 0
M  V30 5438 H 510.931 -5.0278 0.148877 0
M  V30 5439 H 510.631 -5.58942 1.81267 0
M  V30 5440 H 512.155 -6.02546 0.988479 0
M  V30 5441 H 513.569 -4.90659 2.96524 0
M  V30 5442 H 511.966 -4.70147 3.72937 0
M  V30 5443 H 513.036 -3.29885 3.55392 0
M  V30 5444 N 514.379 -1.04941 -1.1758 0
M  V30 5445 C 515.327 -0.64204 -2.23563 0
M  V30 5446 C 516.321 0.335453 -1.66045 0
M  V30 5447 O 517.527 0.20179 -1.78865 0
M  V30 5448 H 513.902 -0.18944 -0.727748 0
M  V30 5449 H 515.873 -1.54609 -2.55223 0
M  V30 5450 C 514.622 -0.0301051 -3.47687 0
M  V30 5451 H 513.945 -0.773339 -3.92249 0
M  V30 5452 H 515.385 0.217592 -4.23441 0
M  V30 5453 C 513.844 1.2225 -3.13937 0
M  V30 5454 O 514.374 2.3122 -3.28482 0
M  V30 5455 N 512.58 1.11917 -2.68185 0
M  V30 5456 H 512.127 0.232403 -2.5655 0
M  V30 5457 H 512.085 1.95814 -2.45976 0
M  V30 5458 N 515.857 1.33968 -0.830081 0
M  V30 5459 C 516.787 2.31911 -0.271911 0
M  V30 5460 C 517.768 1.58571 0.61556 0
M  V30 5461 O 518.953 1.86514 0.540946 0
M  V30 5462 C 516.083 3.42737 0.561146 0
M  V30 5463 C 515.037 4.27383 -0.229789 0
M  V30 5464 C 514.363 5.29742 0.726463 0
M  V30 5465 C 515.663 5.02 -1.44197 0
M  V30 5466 H 517.357 2.78844 -1.09025 0
M  V30 5467 H 514.903 1.34061 -0.52571 0
M  V30 5468 H 516.856 4.10276 0.961867 0
M  V30 5469 H 515.58 2.94471 1.41261 0
M  V30 5470 H 514.239 3.61456 -0.611964 0
M  V30 5471 H 513.887 4.77736 1.57408 0
M  V30 5472 H 513.587 5.87255 0.20142 0
M  V30 5473 H 515.111 6.00149 1.12489 0
M  V30 5474 H 516.525 5.62355 -1.11488 0
M  V30 5475 H 514.922 5.69122 -1.90317 0
M  V30 5476 H 515.992 4.31281 -2.2164 0
M  V30 5477 N 517.335 0.585699 1.46312 0
M  V30 5478 C 518.581 0.0725284 2.0267 0
M  V30 5479 C 518.914 -1.28523 1.45586 0
M  V30 5480 O 518.189 -1.84283 0.622101 0
M  V30 5481 C 518.472 0.0099788 3.60099 0
M  V30 5482 C 518.325 1.39685 4.27561 0
M  V30 5483 C 519.644 -0.689117 4.34671 0
M  V30 5484 H 516.763 0.0278307 0.736474 0
M  V30 5485 H 519.405 0.753472 1.74421 0
M  V30 5486 H 517.555 -0.56992 3.84297 0
M  V30 5487 H 519.227 2.02215 4.14617 0
M  V30 5488 H 517.47 1.96374 3.86807 0
M  V30 5489 H 518.141 1.30553 5.36339 0
M  V30 5490 H 520.617 -0.196446 4.15636 0
M  V30 5491 H 519.493 -0.701921 5.44393 0
M  V30 5492 H 519.754 -1.75101 4.05946 0
M  V30 5493 N 518.813 -1.54241 0.323641 0
M  V30 5494 C 519.743 -2.27289 -0.534993 0
M  V30 5495 C 520.724 -1.28087 -1.11927 0
M  V30 5496 O 521.909 -1.56899 -1.14439 0
M  V30 5497 C 519.039 -3.03075 -1.69596 0
M  V30 5498 C 517.993 -4.09614 -1.24098 0
M  V30 5499 C 517.319 -4.73242 -2.4889 0
M  V30 5500 C 518.619 -5.21087 -0.355789 0
M  V30 5501 H 520.313 -2.99308 0.0743257 0
M  V30 5502 H 517.859 -1.43952 0.0371874 0
M  V30 5503 H 519.812 -3.52907 -2.30293 0
M  V30 5504 H 518.536 -2.28673 -2.33187 0
M  V30 5505 H 517.195 -3.60666 -0.656945 0
M  V30 5506 H 516.843 -3.95455 -3.10845 0
M  V30 5507 H 516.543 -5.45209 -2.19138 0
M  V30 5508 H 518.067 -5.25848 -3.10348 0
M  V30 5509 H 519.481 -5.66675 -0.869042 0
M  V30 5510 H 517.878 -5.9991 -0.151045 0
M  V30 5511 H 518.948 -4.81005 0.613339 0
M  V30 5512 N 520.291 -0.0518155 -1.57515 0
M  V30 5513 C 521.539 0.620595 -1.92336 0
M  V30 5514 C 521.86 1.71345 -0.930907 0
M  V30 5515 O 521.13 1.95885 0.0241341 0
M  V30 5516 H 519.71 0.232226 -0.709986 0
M  V30 5517 H 522.372 -0.104969 -1.94617 0
M  V30 5518 H 521.468 1.05879 -2.93592 0
M  V30 5519 N 521.769 1.56035 0.221574 0
M  V30 5520 C 523.015 1.79312 0.947372 0
M  V30 5521 C 523.348 0.621453 1.83988 0
M  V30 5522 O 522.623 -0.379287 1.90766 0
M  V30 5523 C 522.906 3.1267 1.78633 0
M  V30 5524 C 522.759 4.40284 0.920312 0
M  V30 5525 C 524.078 3.4247 2.7641 0
M  V30 5526 H 521.197 0.652328 0.342982 0
M  V30 5527 H 523.839 1.88765 0.216244 0
M  V30 5528 H 521.989 3.04741 2.40967 0
M  V30 5529 H 523.661 4.60232 0.313718 0
M  V30 5530 H 521.904 4.33212 0.225734 0
M  V30 5531 H 522.575 5.30033 1.54171 0
M  V30 5532 H 525.051 3.50526 2.24211 0
M  V30 5533 H 523.927 4.3695 3.32213 0
M  V30 5534 H 524.188 2.64635 3.54148 0
M  V30 5535 N 523.247 -0.488276 1.49845 0
M  V30 5536 C 524.177 -1.59675 1.70371 0
M  V30 5537 C 525.158 -1.60878 0.552473 0
M  V30 5538 O 526.343 -1.77417 0.78973 0
M  V30 5539 C 523.473 -2.98098 1.782 0
M  V30 5540 C 522.427 -3.11761 2.93239 0
M  V30 5541 C 521.753 -4.51661 2.86193 0
M  V30 5542 C 523.053 -2.90589 4.33999 0
M  V30 5543 H 524.747 -1.42752 2.63177 0
M  V30 5544 H 522.293 -0.685317 1.26647 0
M  V30 5545 H 524.246 -3.75555 1.91144 0
M  V30 5546 H 522.97 -3.16138 0.820018 0
M  V30 5547 H 521.629 -2.36732 2.79917 0
M  V30 5548 H 521.277 -4.66595 1.87877 0
M  V30 5549 H 520.977 -4.61742 3.63412 0
M  V30 5550 H 522.501 -5.31162 3.01163 0
M  V30 5551 H 523.915 -3.57807 4.47936 0
M  V30 5552 H 522.312 -3.1213 5.12538 0
M  V30 5553 H 523.382 -1.86595 4.4756 0
M  V30 5554 N 524.725 -1.39134 -0.740242 0
M  V30 5555 C 525.95 -1.39518 -1.53459 0
M  V30 5556 C 526.375 0.00968883 -1.88098 0
M  V30 5557 O 525.733 0.995312 -1.51536 0
M  V30 5558 C 525.781 -2.26981 -2.802 0
M  V30 5559 O 524.885 -1.69609 -3.75908 0
M  V30 5560 H 524.226 -0.475328 -0.463637 0
M  V30 5561 H 526.756 -1.83064 -0.913717 0
M  V30 5562 H 526.766 -2.41309 -3.28989 0
M  V30 5563 H 525.441 -3.29081 -2.5432 0
M  V30 5564 H 524.018 -1.64495 -3.34658 0
M  V30 5565 N 526.204 0.969867 -1.24223 0
M  V30 5566 C 527.452 1.70918 -1.0785 0
M  V30 5567 C 527.773 1.91186 0.383763 0
M  V30 5568 O 527.043 1.48806 1.27411 0
M  V30 5569 H 525.623 0.633334 -0.396103 0
M  V30 5570 H 528.285 1.16689 -1.56108 0
M  V30 5571 H 527.381 2.69455 -1.57482 0
M  V30 5572 N 527.682 1.05563 1.17022 0
M  V30 5573 C 528.592 0.670758 2.24807 0
M  V30 5574 C 529.608 -0.309865 1.71219 0
M  V30 5575 O 530.784 -0.161025 2.00755 0
M  V30 5576 C 527.849 0.055337 3.46656 0
M  V30 5577 C 526.91 1.08688 4.15314 0
M  V30 5578 C 526.143 0.500736 5.31346 0
M  V30 5579 O 526.366 -0.688718 5.66227 0
M  V30 5580 O 525.3 1.23683 5.89055 0
M  V30 5581 H 529.126 1.56914 2.60023 0
M  V30 5582 H 526.711 0.827428 1.24395 0
M  V30 5583 H 528.593 -0.286492 4.20425 0
M  V30 5584 H 527.268 -0.816638 3.13229 0
M  V30 5585 H 526.175 1.48077 3.43546 0
M  V30 5586 H 527.508 1.93014 4.52777 0
M  V30 5587 N 529.16 -1.33526 0.837174 0
M  V30 5588 C 530.407 -1.97837 0.432064 0
M  V30 5589 C 530.735 -1.66324 -1.00829 0
M  V30 5590 O 529.99 -0.93448 -1.71948 0
M  V30 5591 C 530.289 -3.52367 0.597675 0
M  V30 5592 C 529.955 -4.03826 2.00587 0
M  V30 5593 C 528.617 -4.1759 2.39106 0
M  V30 5594 C 530.969 -4.31333 2.92576 0
M  V30 5595 C 528.297 -4.56195 3.68921 0
M  V30 5596 C 530.649 -4.7139 4.2187 0
M  V30 5597 C 529.313 -4.8336 4.60347 0
M  V30 5598 H 528.583 -0.723937 0.158104 0
M  V30 5599 H 531.23 -1.5923 1.06387 0
M  V30 5600 H 529.535 -3.91624 -0.117452 0
M  V30 5601 H 531.232 -4.00126 0.26454 0
M  V30 5602 H 527.822 -3.93586 1.69671 0
M  V30 5603 H 532.006 -4.20224 2.64056 0
M  V30 5604 H 527.262 -4.63655 3.9854 0
M  V30 5605 H 531.436 -4.91631 4.93226 0
M  V30 5606 H 529.063 -5.1303 5.60985 0
M  V30 5607 N 530.638 -0.59345 -1.46 0
M  V30 5608 C 531.601 0.123538 -2.28867 0
M  V30 5609 C 532.601 0.808628 -1.38989 0
M  V30 5610 O 533.791 0.658945 -1.61256 0
M  V30 5611 C 530.923 1.1847 -3.19653 0
M  V30 5612 H 532.116 -0.604843 -2.93737 0
M  V30 5613 H 529.669 -0.351875 -1.52288 0
M  V30 5614 H 530.404 1.94431 -2.59552 0
M  V30 5615 H 530.189 0.69783 -3.8584 0
M  V30 5616 H 531.679 1.68726 -3.81997 0
M  V30 5617 N 532.116 1.54067 -0.331816 0
M  V30 5618 C 533.063 2.24623 0.530372 0
M  V30 5619 C 534.033 1.24009 1.10503 0
M  V30 5620 O 535.218 1.52712 1.14384 0
M  V30 5621 C 532.358 3.01374 1.68129 0
M  V30 5622 C 531.471 4.16821 1.13507 0
M  V30 5623 C 530.606 4.81085 2.25234 0
M  V30 5624 C 529.645 5.88621 1.67903 0
M  V30 5625 N 528.782 6.46713 2.73326 0
M  V30 5626 H 533.622 2.97898 -0.0778607 0
M  V30 5627 H 531.159 1.47014 -0.0501965 0
M  V30 5628 H 533.117 3.44125 2.35868 0
M  V30 5629 H 531.747 2.30419 2.26069 0
M  V30 5630 H 530.799 3.78796 0.348979 0
M  V30 5631 H 532.111 4.94203 0.675633 0
M  V30 5632 H 531.265 5.26846 3.00862 0
M  V30 5633 H 530.004 4.03102 2.74518 0
M  V30 5634 H 529.009 5.42254 0.907773 0
M  V30 5635 H 530.234 6.68506 1.19487 0
M  V30 5636 H 528.18 5.71599 3.21886 0
M  V30 5637 H 528.097 7.19532 2.3197 0
M  V30 5638 H 529.365 6.97129 3.48758 0
M  V30 5639 N 533.594 0.0601682 1.57485 0
M  V30 5640 C 534.504 -0.926121 2.15546 0
M  V30 5641 C 535.52 -1.33532 1.11558 0
M  V30 5642 O 536.696 -1.4104 1.4377 0
M  V30 5643 C 533.761 -2.17952 2.69625 0
M  V30 5644 C 532.822 -1.82783 3.88444 0
M  V30 5645 C 532.055 -3.02148 4.39935 0
M  V30 5646 O 532.278 -4.15803 3.90466 0
M  V30 5647 O 531.212 -2.82639 5.31412 0
M  V30 5648 H 535.038 -0.462289 3.00161 0
M  V30 5649 H 532.623 -0.162246 1.48516 0
M  V30 5650 H 534.505 -2.91474 3.04337 0
M  V30 5651 H 533.18 -2.63456 1.88077 0
M  V30 5652 H 532.087 -1.06549 3.58606 0
M  V30 5653 H 533.42 -1.42072 4.7125 0
M  V30 5654 N 535.072 -1.5615 -0.213296 0
M  V30 5655 C 536.488 -1.49327 -0.56336 0
M  V30 5656 C 536.688 -0.756826 -1.86747 0
M  V30 5657 O 535.744 -0.299866 -2.50713 0
M  V30 5658 C 537.057 -2.9392 -0.634944 0
M  V30 5659 C 538.605 -3.04487 -0.725013 0
M  V30 5660 C 539.08 -4.50456 -0.82787 0
M  V30 5661 N 540.571 -4.54533 -0.891876 0
M  V30 5662 C 541.306 -5.64766 -0.991315 0
M  V30 5663 N 540.802 -6.84733 -1.05419 0
M  V30 5664 N 542.595 -5.52637 -1.02709 0
M  V30 5665 H 534.746 -2.02453 0.642366 0
M  V30 5666 H 537.009 -0.920548 0.226487 0
M  V30 5667 H 536.715 -3.50783 0.253859 0
M  V30 5668 H 536.589 -3.46274 -1.49579 0
M  V30 5669 H 538.976 -2.47685 -1.60425 0
M  V30 5670 H 539.057 -2.55289 0.161669 0
M  V30 5671 H 538.701 -5.07878 0.0469464 0
M  V30 5672 H 538.631 -4.97369 -1.73009 0
M  V30 5673 H 541.122 -3.68141 -0.85327 0
M  V30 5674 H 541.435 -7.64493 -1.13007 0
M  V30 5675 H 539.78 -6.87427 -1.02318 0
M  V30 5676 H 542.971 -4.5784 -0.974687 0
M  V30 5677 H 543.144 -6.38576 -1.10113 0
M  V30 5678 N 536.55 0.480323 -1.50102 0
M  V30 5679 C 537.46 1.60547 -1.71061 0
M  V30 5680 C 538.476 1.63564 -0.593529 0
M  V30 5681 O 539.652 1.81604 -0.870751 0
M  V30 5682 C 536.717 2.96814 -1.79171 0
M  V30 5683 C 535.778 3.04259 -3.02861 0
M  V30 5684 C 535.011 4.34027 -3.10574 0
M  V30 5685 O 535.234 5.24009 -2.25323 0
M  V30 5686 O 534.168 4.46873 -4.03223 0
M  V30 5687 H 537.994 1.45788 -2.6642 0
M  V30 5688 H 535.579 0.658838 -1.34088 0
M  V30 5689 H 537.461 3.77765 -1.86738 0
M  V30 5690 H 536.136 3.11791 -0.869947 0
M  V30 5691 H 535.043 2.22419 -3.008 0
M  V30 5692 H 536.376 2.94216 -3.94586 0
M  V30 5693 N 538.028 1.39524 0.732853 0
M  V30 5694 C 539.444 1.21176 1.03868 0
M  V30 5695 C 539.644 0.0748448 2.01361 0
M  V30 5696 O 538.7 -0.57281 2.45917 0
M  V30 5697 C 540.013 2.54667 1.59892 0
M  V30 5698 C 541.561 2.6153 1.71962 0
M  V30 5699 C 542.036 3.95248 2.31394 0
M  V30 5700 N 543.527 3.96899 2.38801 0
M  V30 5701 C 544.262 4.97138 2.85729 0
M  V30 5702 N 543.758 6.07775 3.32537 0
M  V30 5703 N 545.551 4.84516 2.84957 0
M  V30 5704 H 537.702 2.12225 0.086304 0
M  V30 5705 H 539.965 0.942614 0.100907 0
M  V30 5706 H 539.671 3.38423 0.95721 0
M  V30 5707 H 539.545 2.74538 2.58668 0
M  V30 5708 H 541.932 1.78156 2.35254 0
M  V30 5709 H 542.013 2.45507 0.718327 0
M  V30 5710 H 541.657 4.79054 1.68729 0
M  V30 5711 H 541.587 4.08593 3.32204 0
M  V30 5712 H 544.078 3.16998 2.05719 0
M  V30 5713 H 544.391 6.8017 3.66862 0
M  V30 5714 H 542.736 6.11366 3.30541 0
M  V30 5715 H 545.927 3.97185 2.47713 0
M  V30 5716 H 546.1 5.62783 3.21215 0
M  V30 5717 N 539.506 -0.963266 1.24736 0
M  V30 5718 C 540.752 -1.70933 1.09131 0
M  V30 5719 C 541.085 -1.90676 -0.368273 0
M  V30 5720 O 540.36 -1.47147 -1.27193 0
M  V30 5721 C 540.643 -3.09744 1.83658 0
M  V30 5722 C 540.496 -2.97465 3.37394 0
M  V30 5723 C 541.815 -4.09483 1.61282 0
M  V30 5724 H 538.934 -0.620398 0.397838 0
M  V30 5725 H 541.576 -1.12028 1.53459 0
M  V30 5726 H 539.726 -3.60031 1.4598 0
M  V30 5727 H 541.398 -2.54571 3.84696 0
M  V30 5728 H 539.641 -2.33576 3.65547 0
M  V30 5729 H 540.312 -3.95822 3.84745 0
M  V30 5730 H 542.788 -3.68073 1.94066 0
M  V30 5731 H 541.664 -5.04666 2.15878 0
M  V30 5732 H 541.925 -4.38639 0.552102 0
M  V30 5733 N 540.985 -1.06182 -1.16461 0
M  V30 5734 C 541.895 -0.682671 -2.24448 0
M  V30 5735 C 542.911 0.30078 -1.71381 0
M  V30 5736 O 544.087 0.150376 -2.00838 0
M  V30 5737 C 541.152 -0.0737202 -3.46622 0
M  V30 5738 C 540.213 -1.10889 -4.14731 0
M  V30 5739 C 539.446 -0.528908 -5.31073 0
M  V30 5740 O 539.669 0.65868 -5.66584 0
M  V30 5741 O 538.603 -1.26805 -5.88391 0
M  V30 5742 H 542.429 -1.58291 -2.59187 0
M  V30 5743 H 540.014 -0.834013 -1.23954 0
M  V30 5744 H 541.896 0.264192 -4.20571 0
M  V30 5745 H 540.571 0.800015 -3.13658 0
M  V30 5746 H 539.478 -1.49896 -3.42756 0
M  V30 5747 H 540.811 -1.95412 -4.51747 0
M  V30 5748 N 542.463 1.3308 -0.844243 0
M  V30 5749 C 543.411 2.31028 -0.269954 0
M  V30 5750 C 544.405 1.58381 0.600997 0
M  V30 5751 O 545.611 1.73203 0.48996 0
M  V30 5752 H 541.986 0.748866 -0.0685782 0
M  V30 5753 H 543.957 2.76967 -1.11049 0
M  V30 5754 C 542.706 3.43549 0.535676 0
M  V30 5755 H 542.029 3.99604 -0.125202 0
M  V30 5756 H 543.469 4.14267 0.903262 0
M  V30 5757 C 541.928 2.8988 1.71672 0
M  V30 5758 O 542.458 2.86511 2.81557 0
M  V30 5759 N 540.664 2.46416 1.54037 0
M  V30 5760 H 540.211 2.49356 0.64649 0
M  V30 5761 H 540.169 2.1086 2.33207 0
M  V30 5762 N 543.941 0.601185 1.45683 0
M  V30 5763 C 545.357 0.264315 1.57396 0
M  V30 5764 C 545.557 -1.23324 1.59353 0
M  V30 5765 O 544.613 -2.01594 1.52039 0
M  V30 5766 C 545.926 0.929839 2.85962 0
M  V30 5767 C 547.474 0.905156 2.99626 0
M  V30 5768 C 547.949 1.55057 4.30954 0
M  V30 5769 N 549.44 1.51576 4.37697 0
M  V30 5770 C 550.175 1.98436 5.37969 0
M  V30 5771 N 549.671 2.53352 6.44813 0
M  V30 5772 N 551.464 1.89242 5.29286 0
M  V30 5773 H 543.615 1.57363 1.42656 0
M  V30 5774 H 545.878 0.658831 0.681649 0
M  V30 5775 H 545.584 1.98404 2.90394 0
M  V30 5776 H 545.458 0.449224 3.74515 0
M  V30 5777 H 547.845 -0.14048 2.94765 0
M  V30 5778 H 547.926 1.42397 2.12501 0
M  V30 5779 H 547.57 2.5955 4.36573 0
M  V30 5780 H 547.5 1.00682 5.16886 0
M  V30 5781 H 549.991 1.11452 3.61091 0
M  V30 5782 H 550.304 2.86918 7.17564 0
M  V30 5783 H 548.649 2.57388 6.45582 0
M  V30 5784 H 551.84 1.46083 4.44722 0
M  V30 5785 H 552.013 2.26075 6.07284 0
M  V30 5786 N 545.419 -1.53889 0.339982 0
M  V30 5787 C 546.835 -1.59595 -0.0120752 0
M  V30 5788 C 547.035 -1.35605 -1.49042 0
M  V30 5789 O 546.091 -1.14856 -2.24865 0
M  V30 5790 C 547.404 -2.9774 0.420898 0
M  V30 5791 C 548.952 -3.1077 0.37294 0
M  V30 5792 C 549.427 -4.51286 0.781327 0
M  V30 5793 N 550.918 -4.57325 0.735374 0
M  V30 5794 C 551.653 -5.64194 1.02336 0
M  V30 5795 N 551.149 -6.7893 1.37933 0
M  V30 5796 N 552.942 -5.54051 0.947838 0
M  V30 5797 H 545.093 -1.67738 1.30299 0
M  V30 5798 H 547.356 -0.785385 0.530918 0
M  V30 5799 H 547.062 -3.20349 1.45152 0
M  V30 5800 H 546.936 -3.76639 -0.205721 0
M  V30 5801 H 549.323 -2.87886 -0.648505 0
M  V30 5802 H 549.404 -2.33939 1.03472 0
M  V30 5803 H 549.048 -4.74905 1.80077 0
M  V30 5804 H 548.978 -5.26511 0.0970679 0
M  V30 5805 H 551.469 -3.74931 0.472773 0
M  V30 5806 H 551.782 -7.56392 1.58402 0
M  V30 5807 H 550.127 -6.80386 1.41774 0
M  V30 5808 H 553.318 -4.63293 0.669115 0
M  V30 5809 H 553.491 -6.37246 1.17563 0
M  V30 5810 N 546.897 -0.0685191 -1.57451 0
M  V30 5811 C 547.86 0.885173 -2.11417 0
M  V30 5812 C 548.86 1.22853 -1.03748 0
M  V30 5813 O 550.05 1.16235 -1.2975 0
M  V30 5814 C 547.182 2.18964 -2.61281 0
M  V30 5815 H 548.375 0.417034 -2.96986 0
M  V30 5816 H 545.928 0.18014 -1.55258 0
M  V30 5817 H 546.663 2.70321 -1.79156 0
M  V30 5818 H 546.448 1.9534 -3.39977 0
M  V30 5819 H 547.938 2.87242 -3.0312 0
M  V30 5820 N 548.375 1.56261 0.205012 0
M  V30 5821 C 549.622 1.8004 0.926927 0
M  V30 5822 C 549.95 0.640086 1.83666 0
M  V30 5823 O 549.205 -0.374702 1.92079 0
M  V30 5824 C 549.504 3.09722 1.78345 0
M  V30 5825 C 549.17 4.39082 1.02555 0
M  V30 5826 C 547.832 4.74226 0.816256 0
M  V30 5827 C 550.184 5.18877 0.491559 0
M  V30 5828 C 547.512 5.86668 0.0613287 0
M  V30 5829 C 549.864 6.32105 -0.250107 0
M  V30 5830 C 548.528 6.6584 -0.470508 0
M  V30 5831 H 547.798 0.658812 0.339187 0
M  V30 5832 H 550.445 1.90515 0.19395 0
M  V30 5833 H 548.75 2.9444 2.5848 0
M  V30 5834 H 550.447 3.25324 2.34446 0
M  V30 5835 H 547.037 4.11497 1.19868 0
M  V30 5836 H 551.221 4.92147 0.640684 0
M  V30 5837 H 546.477 6.11283 -0.119501 0
M  V30 5838 H 550.651 6.93157 -0.671307 0
M  V30 5839 H 548.278 7.5281 -1.05739 0
M  V30 5840 N 549.853 -0.472356 1.50355 0
M  V30 5841 C 550.783 -1.57859 1.72055 0
M  V30 5842 C 551.764 -1.60283 0.569505 0
M  V30 5843 O 552.949 -1.7657 0.808503 0
M  V30 5844 C 550.079 -2.96191 1.81351 0
M  V30 5845 C 549.033 -3.08633 2.96529 0
M  V30 5846 C 548.359 -4.486 2.90968 0
M  V30 5847 C 549.659 -2.85969 4.37057 0
M  V30 5848 H 551.353 -1.39953 2.64676 0
M  V30 5849 H 548.899 -0.671846 1.27367 0
M  V30 5850 H 550.852 -3.73507 1.95117 0
M  V30 5851 H 549.576 -3.15251 0.853502 0
M  V30 5852 H 548.235 -2.33749 2.82413 0
M  V30 5853 H 547.883 -4.64577 1.92815 0
M  V30 5854 H 547.583 -4.57861 3.68289 0
M  V30 5855 H 549.107 -5.27938 3.0678 0
M  V30 5856 H 550.521 -3.53036 4.51706 0
M  V30 5857 H 548.918 -3.06677 5.15819 0
M  V30 5858 H 549.988 -1.81838 4.49514 0
M  V30 5859 N 551.331 -1.39911 -0.725443 0
M  V30 5860 C 552.278 -1.39393 -1.83952 0
M  V30 5861 C 553.248 -0.252249 -1.64173 0
M  V30 5862 O 554.433 -0.44882 -1.85446 0
M  V30 5863 C 551.573 -1.25262 -3.21564 0
M  V30 5864 C 550.686 -2.49054 -3.52982 0
M  V30 5865 C 549.821 -2.27439 -4.80047 0
M  V30 5866 C 548.86 -3.46857 -5.04338 0
M  V30 5867 N 547.997 -3.24499 -6.22611 0
M  V30 5868 H 552.837 -2.34622 -1.83729 0
M  V30 5869 H 550.374 -1.16537 -0.897636 0
M  V30 5870 H 552.332 -1.15077 -4.01015 0
M  V30 5871 H 550.962 -0.33657 -3.21041 0
M  V30 5872 H 550.014 -2.69805 -2.6816 0
M  V30 5873 H 551.326 -3.37973 -3.66846 0
M  V30 5874 H 550.48 -2.14551 -5.67497 0
M  V30 5875 H 549.219 -1.35929 -4.68374 0
M  V30 5876 H 548.224 -3.60232 -4.15346 0
M  V30 5877 H 549.449 -4.3928 -5.17889 0
M  V30 5878 H 547.395 -2.35663 -6.12208 0
M  V30 5879 H 547.312 -4.06978 -6.37106 0
M  V30 5880 H 548.58 -3.15325 -7.12875 0
M  V30 5881 N 552.809 0.956637 -1.25245 0
M  V30 5882 C 553.739 2.07058 -1.07931 0
M  V30 5883 C 554.72 1.70096 0.0110361 0
M  V30 5884 O 555.905 1.93555 -0.158121 0
M  V30 5885 C 553.035 3.40272 -0.695124 0
M  V30 5886 C 551.989 3.91235 -1.73549 0
M  V30 5887 C 551.315 5.20921 -1.20604 0
M  V30 5888 C 552.615 4.17837 -3.13385 0
M  V30 5889 H 554.309 2.218 -2.01109 0
M  V30 5890 H 551.855 1.06581 -0.968326 0
M  V30 5891 H 553.808 4.1765 -0.560949 0
M  V30 5892 H 552.532 3.25462 0.272355 0
M  V30 5893 H 551.191 3.16025 -1.85807 0
M  V30 5894 H 550.839 5.02479 -0.228846 0
M  V30 5895 H 550.539 5.55987 -1.90136 0
M  V30 5896 H 552.063 6.00897 -1.08421 0
M  V30 5897 H 553.477 4.8588 -3.04292 0
M  V30 5898 H 551.874 4.64154 -3.80369 0
M  V30 5899 H 552.944 3.2419 -3.60595 0
M  V30 5900 N 554.287 1.06798 1.15896 0
M  V30 5901 C 555.703 0.792423 1.38538 0
M  V30 5902 C 555.903 -0.60592 1.92174 0
M  V30 5903 O 554.959 -1.36561 2.12385 0
M  V30 5904 C 556.272 1.86157 2.36149 0
M  V30 5905 C 557.82 1.88567 2.49823 0
M  V30 5906 C 558.295 2.9455 3.5072 0
M  V30 5907 N 559.786 2.93616 3.58251 0
M  V30 5908 C 560.521 3.72267 4.36125 0
M  V30 5909 N 560.017 4.60751 5.17379 0
M  V30 5910 N 561.81 3.60637 4.31158 0
M  V30 5911 H 553.961 1.96993 0.794198 0
M  V30 5912 H 556.224 0.853942 0.411688 0
M  V30 5913 H 555.93 2.86603 2.03843 0
M  V30 5914 H 555.804 1.71692 3.3586 0
M  V30 5915 H 558.191 0.887765 2.8143 0
M  V30 5916 H 558.272 2.0711 1.5013 0
M  V30 5917 H 557.916 3.94537 3.19849 0
M  V30 5918 H 557.846 2.73255 4.50155 0
M  V30 5919 H 560.337 2.29472 3.00252 0
M  V30 5920 H 560.65 5.17408 5.74028 0
M  V30 5921 H 558.995 4.64803 5.16704 0
M  V30 5922 H 562.186 2.90892 3.66742 0
M  V30 5923 H 562.359 4.22176 4.91601 0
M  V30 5924 N 555.766 -1.3263 0.851289 0
M  V30 5925 C 557.182 -1.50162 0.5407 0
M  V30 5926 C 557.382 -1.78788 -0.929369 0
M  V30 5927 O 556.438 -1.85545 -1.71258 0
M  V30 5928 C 557.751 -2.64803 1.42478 0
M  V30 5929 C 559.299 -2.78688 1.42485 0
M  V30 5930 C 559.774 -3.96405 2.29407 0
M  V30 5931 N 561.265 -4.0366 2.27184 0
M  V30 5932 C 562 -4.93971 2.9117 0
M  V30 5933 N 561.496 -5.89313 3.64256 0
M  V30 5934 N 563.289 -4.87066 2.80576 0
M  V30 5935 H 555.44 -1.12315 1.80275 0
M  V30 5936 H 557.703 -0.553266 0.769806 0
M  V30 5937 H 557.409 -2.50368 2.46999 0
M  V30 5938 H 557.283 -3.60506 1.10974 0
M  V30 5939 H 559.67 -2.92547 0.387304 0
M  V30 5940 H 559.751 -1.83708 1.78002 0
M  V30 5941 H 559.395 -3.83304 3.33228 0
M  V30 5942 H 559.325 -4.90654 1.91224 0
M  V30 5943 H 561.816 -3.35435 1.74045 0
M  V30 5944 H 562.129 -6.54913 4.10255 0
M  V30 5945 H 560.474 -5.8935 3.68364 0
M  V30 5946 H 563.665 -4.11552 2.23031 0
M  V30 5947 H 563.838 -5.57248 3.30725 0
M  V30 5948 N 557.244 -0.608902 -1.45362 0
M  V30 5949 C 558.176 0.147318 -2.28726 0
M  V30 5950 C 559.189 0.830468 -1.40025 0
M  V30 5951 O 560.378 0.695636 -1.64387 0
M  V30 5952 C 557.478 1.22968 -3.15804 0
M  V30 5953 C 556.651 0.633391 -4.3279 0
M  V30 5954 C 555.71 1.60682 -5.01067 0
M  V30 5955 O 554.736 1.13261 -5.57818 0
M  V30 5956 N 555.938 2.94123 -5.00472 0
M  V30 5957 H 558.703 -0.568014 -2.94268 0
M  V30 5958 H 556.264 -0.448479 -1.55564 0
M  V30 5959 H 558.256 1.88072 -3.58345 0
M  V30 5960 H 556.826 1.84752 -2.52162 0
M  V30 5961 H 556.046 -0.195762 -3.93714 0
M  V30 5962 H 557.334 0.215255 -5.08344 0
M  V30 5963 H 556.732 3.3525 -4.55657 0
M  V30 5964 H 555.289 3.54646 -5.46872 0
M  V30 5965 N 558.722 1.53707 -0.348139 0
M  V30 5966 C 559.654 2.22725 0.540946 0
M  V30 5967 C 560.667 1.2354 1.06027 0
M  V30 5968 O 561.856 1.49867 0.96964 0
M  V30 5969 C 558.956 2.89756 1.75768 0
M  V30 5970 C 558.129 4.15297 1.37285 0
M  V30 5971 C 557.188 4.65697 2.44976 0
M  V30 5972 O 556.214 5.29798 2.08092 0
M  V30 5973 N 557.416 4.42017 3.763 0
M  V30 5974 H 560.181 2.99658 -0.0501592 0
M  V30 5975 H 557.742 1.60979 -0.17248 0
M  V30 5976 H 559.734 3.20388 2.47252 0
M  V30 5977 H 558.304 2.16382 2.25605 0
M  V30 5978 H 557.524 3.9116 0.488584 0
M  V30 5979 H 558.812 4.96948 1.09179 0
M  V30 5980 H 558.21 3.9076 4.09051 0
M  V30 5981 H 556.767 4.77242 4.4394 0
M  V30 5982 N 560.2 0.0768682 1.57412 0
M  V30 5983 C 561.132 -0.918248 2.10002 0
M  V30 5984 C 562.145 -1.25808 1.03325 0
M  V30 5985 O 563.334 -1.21438 1.30824 0
M  V30 5986 C 560.434 -2.23263 2.54964 0
M  V30 5987 C 559.607 -2.07088 3.8527 0
M  V30 5988 C 558.666 -3.21876 4.16272 0
M  V30 5989 O 557.692 -2.96643 4.8579 0
M  V30 5990 N 558.894 -4.4712 3.70221 0
M  V30 5991 H 561.659 -0.469209 2.96004 0
M  V30 5992 H 559.22 -0.108725 1.61535 0
M  V30 5993 H 561.212 -2.9897 2.72762 0
M  V30 5994 H 559.782 -2.59649 1.74072 0
M  V30 5995 H 559.002 -1.15818 3.76802 0
M  V30 5996 H 560.29 -1.93537 4.70554 0
M  V30 5997 H 559.688 -4.70506 3.1407 0
M  V30 5998 H 558.245 -5.19837 3.93209 0
M  V30 5999 N 561.678 -1.56367 -0.196722 0
M  V30 6000 C 562.927 -1.79724 -0.915539 0
M  V30 6001 C 563.24 -0.649804 -1.84491 0
M  V30 6002 O 564.446 -0.767631 -2.60422 0
M  V30 6003 C 562.902 -3.18369 -1.67836 0
M  V30 6004 C 562.51 -4.4091 -0.793897 0
M  V30 6005 C 564.254 -3.51037 -2.38691 0
M  V30 6006 C 562.161 -5.70577 -1.55549 0
M  V30 6007 H 561.091 -0.67013 -0.345604 0
M  V30 6008 H 563.742 -1.82721 -0.168856 0
M  V30 6009 H 562.124 -3.09617 -2.46887 0
M  V30 6010 H 563.298 -4.60781 -0.042163 0
M  V30 6011 H 561.613 -4.15937 -0.19626 0
M  V30 6012 H 564.21 -4.4515 -2.96219 0
M  V30 6013 H 564.553 -2.74704 -3.12799 0
M  V30 6014 H 565.086 -3.61229 -1.66608 0
M  V30 6015 H 561.825 -6.49871 -0.857226 0
M  V30 6016 H 561.345 -5.54726 -2.2812 0
M  V30 6017 H 563.024 -6.11637 -2.10971 0
M  V30 6018 N 563.156 0.464375 -1.50603 0
M  V30 6019 C 564.066 1.58723 -1.72754 0
M  V30 6020 C 565.082 1.62925 -0.610844 0
M  V30 6021 O 566.258 1.8067 -0.889963 0
M  V30 6022 C 563.323 2.94897 -1.82309 0
M  V30 6023 C 562.384 3.0103 -3.06071 0
M  V30 6024 C 561.617 4.30708 -3.1516 0
M  V30 6025 O 561.84 5.2159 -2.30868 0
M  V30 6026 O 560.774 4.42571 -4.0794 0
M  V30 6027 H 564.6 1.42954 -2.67951 0
M  V30 6028 H 562.185 0.644579 -1.3478 0
M  V30 6029 H 564.067 3.75764 -1.90735 0
M  V30 6030 H 562.742 3.10851 -0.902967 0
M  V30 6031 H 561.649 2.19217 -3.03142 0
M  V30 6032 H 562.982 2.90014 -3.97684 0
M  V30 6033 N 564.634 1.40294 0.718013 0
M  V30 6034 C 566.05 1.2227 1.02577 0
M  V30 6035 C 566.25 0.0961976 2.0127 0
M  V30 6036 O 565.306 -0.546695 2.46511 0
M  V30 6037 C 566.619 2.56348 1.57182 0
M  V30 6038 C 568.167 2.6334 1.69178 0
M  V30 6039 C 568.642 3.9768 2.27188 0
M  V30 6040 N 570.133 3.99409 2.34578 0
M  V30 6041 C 570.868 5.00141 2.8044 0
M  V30 6042 N 570.364 6.11268 3.26073 0
M  V30 6043 N 572.157 4.87511 2.79802 0
M  V30 6044 H 564.308 2.12304 0.0637899 0
M  V30 6045 H 566.571 0.943632 0.0909036 0
M  V30 6046 H 566.277 3.3942 0.921262 0
M  V30 6047 H 566.151 2.77266 2.55741 0
M  V30 6048 H 568.538 1.80641 2.33351 0
M  V30 6049 H 568.619 2.46255 0.692247 0
M  V30 6050 H 568.263 4.80817 1.63638 0
M  V30 6051 H 568.193 4.12093 3.27852 0
M  V30 6052 H 570.684 3.19162 2.02346 0
M  V30 6053 H 570.997 6.84023 3.59628 0
M  V30 6054 H 569.342 6.14837 3.24038 0
M  V30 6055 H 572.533 3.9979 2.43487 0
M  V30 6056 H 572.706 5.66158 3.15228 0
M  V30 6057 N 566.112 -0.949982 1.2575 0
M  V30 6058 C 567.022 -2.08109 1.08295 0
M  V30 6059 C 568.038 -1.7399 0.0188181 0
M  V30 6060 O 569.214 -2.00187 0.220724 0
M  V30 6061 C 566.279 -3.39383 0.708534 0
M  V30 6062 C 565.34 -3.8734 1.85111 0
M  V30 6063 C 564.573 -5.12349 1.49447 0
M  V30 6064 O 564.796 -5.6905 0.392212 0
M  V30 6065 O 563.73 -5.5513 2.32624 0
M  V30 6066 H 567.556 -2.25738 2.03165 0
M  V30 6067 H 565.141 -1.06545 1.04731 0
M  V30 6068 H 567.023 -4.18277 0.512061 0
M  V30 6069 H 565.698 -3.23013 -0.210854 0
M  V30 6070 H 564.605 -3.09429 2.10248 0
M  V30 6071 H 565.938 -4.08216 2.74991 0
M  V30 6072 N 567.59 -1.07411 -1.15328 0
M  V30 6073 C 568.52 -0.716472 -2.22236 0
M  V30 6074 C 569.501 0.296373 -1.67498 0
M  V30 6075 O 570.686 0.168989 -1.93463 0
M  V30 6076 C 567.816 -0.114142 -3.47112 0
M  V30 6077 C 566.77 -1.05421 -4.14814 0
M  V30 6078 C 566.096 -0.314604 -5.33774 0
M  V30 6079 C 567.396 -2.38808 -4.64508 0
M  V30 6080 H 569.09 -1.61029 -2.52408 0
M  V30 6081 H 566.636 -0.775702 -1.21321 0
M  V30 6082 H 568.589 0.148001 -4.2114 0
M  V30 6083 H 567.313 0.814755 -3.16274 0
M  V30 6084 H 565.972 -1.30128 -3.42728 0
M  V30 6085 H 565.62 0.617772 -4.99192 0
M  V30 6086 H 565.32 -0.941209 -5.80013 0
M  V30 6087 H 566.844 -0.0602747 -6.1057 0
M  V30 6088 H 568.258 -2.18424 -5.3006 0
M  V30 6089 H 566.655 -2.97069 -5.21412 0
M  V30 6090 H 567.725 -3.01067 -3.80114 0
M  V30 6091 N 569.068 1.32177 -0.85831 0
M  V30 6092 C 570.016 2.30729 -0.294442 0
M  V30 6093 C 571.01 1.59009 0.584165 0
M  V30 6094 O 572.216 1.73713 0.471562 0
M  V30 6095 H 568.591 0.748097 -0.0765171 0
M  V30 6096 H 570.562 2.75774 -1.1398 0
M  V30 6097 C 569.311 3.44098 0.499208 0
M  V30 6098 H 568.634 3.99449 -0.167579 0
M  V30 6099 H 570.074 4.15202 0.859273 0
M  V30 6100 C 568.533 2.91684 1.68588 0
M  V30 6101 O 569.063 2.89481 2.78503 0
M  V30 6102 N 567.269 2.48036 1.51415 0
M  V30 6103 H 566.816 2.50027 0.620006 0
M  V30 6104 H 566.774 2.13322 2.30957 0
M  V30 6105 N 570.547 0.616602 1.45037 0
M  V30 6106 C 571.795 0.115103 2.01772 0
M  V30 6107 C 572.116 -1.2622 1.48639 0
M  V30 6108 O 571.386 -1.83563 0.684199 0
M  V30 6109 H 569.966 0.0395607 0.745952 0
M  V30 6110 H 572.628 0.800032 1.77723 0
M  V30 6111 H 571.724 0.0717274 3.12018 0
M  V30 6112 N 572.025 -1.5352 0.356285 0
M  V30 6113 C 573.255 -2.05236 -0.236983 0
M  V30 6114 C 573.663 -1.23016 -1.43749 0
M  V30 6115 O 573.006 -0.2615 -1.81829 0
M  V30 6116 C 573.068 -3.52549 -0.7035 0
M  V30 6117 C 572.732 -4.55425 0.379059 0
M  V30 6118 C 573.729 -5.0524 1.22592 0
M  V30 6119 C 571.414 -4.99425 0.536638 0
M  V30 6120 C 573.408 -5.97647 2.21578 0
M  V30 6121 C 571.095 -5.9164 1.52988 0
M  V30 6122 C 572.093 -6.4064 2.3679 0
M  V30 6123 O 571.781 -7.31039 3.34421 0
M  V30 6124 H 571.513 -0.674346 -0.047254 0
M  V30 6125 H 574.067 -1.98962 0.510238 0
M  V30 6126 H 572.297 -3.56331 -1.50217 0
M  V30 6127 H 573.986 -3.87171 -1.21873 0
M  V30 6128 H 574.752 -4.72002 1.11532 0
M  V30 6129 H 570.631 -4.60879 -0.105834 0
M  V30 6130 H 574.175 -6.35816 2.87025 0
M  V30 6131 H 570.072 -6.24293 1.64099 0
M  V30 6132 H 570.84 -7.49009 3.30041 0
M  V30 6133 N 573.503 -0.0852151 -1.57369 0
M  V30 6134 C 574.433 0.874556 -2.16503 0
M  V30 6135 C 575.414 1.30111 -1.09568 0
M  V30 6136 O 576.599 1.36977 -1.37662 0
M  V30 6137 C 573.729 2.13731 -2.73745 0
M  V30 6138 C 572.683 1.84971 -3.85966 0
M  V30 6139 C 572.009 3.17991 -4.29867 0
M  V30 6140 C 573.309 1.14442 -5.09608 0
M  V30 6141 H 575.003 0.381899 -2.96954 0
M  V30 6142 H 572.549 0.18225 -1.42842 0
M  V30 6143 H 574.502 2.81302 -3.13763 0
M  V30 6144 H 573.226 2.65263 -1.90534 0
M  V30 6145 H 571.885 1.19801 -3.46473 0
M  V30 6146 H 571.533 3.6739 -3.4356 0
M  V30 6147 H 571.233 2.99534 -5.05523 0
M  V30 6148 H 572.757 3.86737 -4.72511 0
M  V30 6149 H 574.171 1.72105 -5.46857 0
M  V30 6150 H 572.568 1.06197 -5.90629 0
M  V30 6151 H 573.638 0.12559 -4.84737 0
M  V30 6152 N 574.981 1.5647 0.188427 0
M  V30 6153 C 575.891 1.98285 1.2538 0
M  V30 6154 C 576.907 0.891535 1.49424 0
M  V30 6155 O 578.083 1.19782 1.61908 0
M  V30 6156 C 575.148 2.31965 2.57669 0
M  V30 6157 C 574.209 3.54838 2.41638 0
M  V30 6158 C 573.442 3.86901 3.67618 0
M  V30 6159 O 573.665 3.20163 4.72072 0
M  V30 6160 O 572.599 4.80309 3.62749 0
M  V30 6161 H 576.425 2.89145 0.928912 0
M  V30 6162 H 574.01 1.44112 0.393955 0
M  V30 6163 H 575.892 2.54673 3.35737 0
M  V30 6164 H 574.567 1.44271 2.89771 0
M  V30 6165 H 573.474 3.37369 1.61658 0
M  V30 6166 H 574.807 4.43019 2.14465 0
M  V30 6167 N 576.459 -0.456382 1.50847 0
M  V30 6168 C 577.705 -1.20618 1.63777 0
M  V30 6169 C 578.06 -1.8936 0.340677 0
M  V30 6170 O 577.353 -1.79786 -0.662378 0
M  V30 6171 C 577.547 -2.26336 2.76599 0
M  V30 6172 C 577.376 -1.67968 4.17153 0
M  V30 6173 C 576.146 -1.47293 4.83356 0
M  V30 6174 C 578.344 -1.16643 5.00898 0
M  V30 6175 N 576.326 -0.843222 6.08081 0
M  V30 6176 C 577.697 -0.660843 6.16468 0
M  V30 6177 C 579.752 -1.05637 4.86565 0
M  V30 6178 C 578.455 -0.0560365 7.19278 0
M  V30 6179 C 580.481 -0.465485 5.89565 0
M  V30 6180 C 579.843 0.0296516 7.04394 0
M  V30 6181 H 575.942 -0.429725 0.653345 0
M  V30 6182 H 578.526 -0.505784 1.88016 0
M  V30 6183 H 576.697 -2.93785 2.54056 0
M  V30 6184 H 578.429 -2.9334 2.78808 0
M  V30 6185 H 575.184 -1.72934 4.40898 0
M  V30 6186 H 575.608 -0.546357 6.74792 0
M  V30 6187 H 580.25 -1.42508 3.98059 0
M  V30 6188 H 577.968 0.324845 8.07447 0
M  V30 6189 H 581.554 -0.382493 5.80541 0
M  V30 6190 H 580.434 0.479705 7.82731 0
M  V30 6191 N 577.937 -1.40673 -0.710563 0
M  V30 6192 C 579.186 -1.38525 -1.46607 0
M  V30 6193 C 579.499 0.0077024 -1.95598 0
M  V30 6194 O 580.705 0.151792 -2.71075 0
M  V30 6195 C 579.161 -2.43489 -2.6503 0
M  V30 6196 C 578.769 -3.88619 -2.22888 0
M  V30 6197 C 580.513 -2.50456 -3.42742 0
M  V30 6198 C 578.42 -4.85168 -3.3818 0
M  V30 6199 H 577.35 -0.515092 -0.550632 0
M  V30 6200 H 580.001 -1.66431 -0.772846 0
M  V30 6201 H 578.383 -2.0869 -3.36548 0
M  V30 6202 H 579.557 -4.32588 -1.58758 0
M  V30 6203 H 577.872 -3.85174 -1.58208 0
M  V30 6204 H 580.469 -3.19776 -4.28541 0
M  V30 6205 H 580.812 -1.53665 -3.86902 0
M  V30 6206 H 581.345 -2.84271 -2.78271 0
M  V30 6207 H 578.084 -5.8331 -2.99047 0
M  V30 6208 H 577.604 -4.4586 -4.01209 0
M  V30 6209 H 579.283 -5.05225 -4.04174 0
M  V30 6210 N 579.415 0.9433 -1.26252 0
M  V30 6211 C 580.662 1.68925 -1.11672 0
M  V30 6212 C 580.99 1.91499 0.340329 0
M  V30 6213 O 580.245 1.49189 1.26653 0
M  V30 6214 C 580.544 3.07073 -1.82868 0
M  V30 6215 C 580.21 3.04262 -3.32769 0
M  V30 6216 C 578.872 3.03203 -3.7366 0
M  V30 6217 C 581.224 2.96729 -4.28487 0
M  V30 6218 C 578.552 2.92373 -5.0866 0
M  V30 6219 C 580.904 2.87442 -5.63525 0
M  V30 6220 C 579.568 2.84724 -6.03729 0
M  V30 6221 H 578.838 0.618141 -0.408635 0
M  V30 6222 H 581.485 1.10124 -1.56668 0
M  V30 6223 H 579.79 3.69486 -1.30335 0
M  V30 6224 H 581.487 3.63635 -1.69029 0
M  V30 6225 H 578.077 3.05865 -3.00241 0
M  V30 6226 H 582.261 2.96658 -3.97879 0
M  V30 6227 H 577.517 2.88645 -5.38975 0
M  V30 6228 H 581.691 2.80576 -6.37377 0
M  V30 6229 H 579.318 2.76089 -7.08293 0
M  V30 6230 N 580.893 1.08022 1.14757 0
M  V30 6231 C 581.84 0.706657 2.19716 0
M  V30 6232 C 582.81 -0.30525 1.63271 0
M  V30 6233 O 583.995 -0.19015 1.8985 0
M  V30 6234 C 581.135 0.117914 3.44898 0
M  V30 6235 C 580.248 1.18212 4.15512 0
M  V30 6236 C 579.383 0.557659 5.28265 0
M  V30 6237 C 578.422 1.60418 5.90705 0
M  V30 6238 N 577.559 1.0018 6.94916 0
M  V30 6239 H 582.399 1.60603 2.51019 0
M  V30 6240 H 579.936 0.802664 1.23271 0
M  V30 6241 H 581.894 -0.241112 4.16503 0
M  V30 6242 H 580.524 -0.744788 3.1409 0
M  V30 6243 H 579.576 1.65863 3.42335 0
M  V30 6244 H 580.888 1.97533 4.5802 0
M  V30 6245 H 580.042 0.146654 6.06523 0
M  V30 6246 H 578.781 -0.267249 4.86967 0
M  V30 6247 H 577.786 2.02489 5.11154 0
M  V30 6248 H 579.011 2.43149 6.34078 0
M  V30 6249 H 576.957 0.197917 6.55701 0
M  V30 6250 H 576.874 1.73216 7.35889 0
M  V30 6251 H 578.142 0.616523 7.77058 0
M  V30 6252 N 582.371 -1.3172 0.865308 0
M  V30 6253 C 583.334 -2.26918 0.322627 0
M  V30 6254 C 584.334 -1.52031 -0.523751 0
M  V30 6255 O 585.524 -1.70973 -0.333727 0
M  V30 6256 C 582.656 -3.36558 -0.542338 0
M  V30 6257 H 583.849 -2.76432 1.16298 0
M  V30 6258 H 581.402 -1.42573 0.640512 0
M  V30 6259 H 582.137 -2.92329 -1.40407 0
M  V30 6260 H 581.922 -3.92048 0.0636395 0
M  V30 6261 H 583.412 -4.07465 -0.91446 0
M  V30 6262 N 583.85 -0.624285 -1.44708 0
M  V30 6263 C 584.76 0.0861083 -2.34442 0
M  V30 6264 C 585.776 0.84291 -1.5222 0
M  V30 6265 O 586.952 0.796723 -1.84971 0
M  V30 6266 C 584.017 1.05999 -3.30099 0
M  V30 6267 C 583.077 0.303316 -4.28227 0
M  V30 6268 C 582.311 1.23081 -5.19314 0
M  V30 6269 O 582.534 2.46929 -5.14181 0
M  V30 6270 O 581.468 0.71883 -5.97592 0
M  V30 6271 H 585.293 -0.651756 -2.96624 0
M  V30 6272 H 582.879 -0.384493 -1.44368 0
M  V30 6273 H 584.76 1.62046 -3.88997 0
M  V30 6274 H 583.436 1.77859 -2.70459 0
M  V30 6275 H 582.343 -0.300033 -3.72895 0
M  V30 6276 H 583.676 -0.375123 -4.90768 0
M  V30 6277 N 585.328 1.53329 -0.364422 0
M  V30 6278 C 586.238 2.29414 0.490552 0
M  V30 6279 C 587.254 1.35335 1.09363 0
M  V30 6280 O 588.43 1.68391 1.10483 0
M  V30 6281 C 585.495 3.06772 1.61529 0
M  V30 6282 C 584.556 4.16516 1.03986 0
M  V30 6283 C 583.789 4.90176 2.111 0
M  V30 6284 O 584.012 4.63687 3.32191 0
M  V30 6285 O 582.946 5.76134 1.74222 0
M  V30 6286 H 586.772 3.03428 -0.12856 0
M  V30 6287 H 584.357 1.48843 -0.128837 0
M  V30 6288 H 586.239 3.55082 2.26924 0
M  V30 6289 H 584.914 2.35596 2.21983 0
M  V30 6290 H 583.821 3.7246 0.349856 0
M  V30 6291 H 585.154 4.89855 0.4799 0
M  V30 6292 N 586.806 0.0935595 1.57322 0
M  V30 6293 C 588.052 -0.571355 1.94585 0
M  V30 6294 C 588.385 -1.67929 0.975366 0
M  V30 6295 O 587.66 -1.94498 0.00816206 0
M  V30 6296 C 587.943 -1.12797 3.41978 0
M  V30 6297 C 587.796 -0.0251881 4.49793 0
M  V30 6298 C 589.115 -2.02682 3.90651 0
M  V30 6299 H 586.234 -0.206223 0.70756 0
M  V30 6300 H 588.876 0.163956 1.89291 0
M  V30 6301 H 587.026 -1.75461 3.4662 0
M  V30 6302 H 588.698 0.608979 4.57263 0
M  V30 6303 H 586.941 0.641399 4.29032 0
M  V30 6304 H 587.612 -0.455433 5.50118 0
M  V30 6305 H 590.088 -1.49925 3.88152 0
M  V30 6306 H 588.964 -2.38555 4.94351 0
M  V30 6307 H 589.225 -2.94362 3.29854 0
M  V30 6308 N 588.284 -1.56567 -0.180126 0
M  V30 6309 C 589.217 -1.90813 -1.25163 0
M  V30 6310 C 590.195 -0.7699 -1.43218 0
M  V30 6311 O 591.379 -1.02236 -1.58367 0
M  V30 6312 C 588.506 -2.15138 -2.61597 0
M  V30 6313 C 587.552 -3.37834 -2.60328 0
M  V30 6314 S 588.385 -4.92486 -2.1028 0
M  V30 6315 C 589.541 -5.19896 -3.48509 0
M  V30 6316 H 589.774 -2.81398 -0.959283 0
M  V30 6317 H 587.307 -1.49541 -0.3843 0
M  V30 6318 H 589.265 -2.29835 -3.40127 0
M  V30 6319 H 587.926 -1.25276 -2.88036 0
M  V30 6320 H 587.119 -3.52027 -3.60684 0
M  V30 6321 H 586.721 -3.22208 -1.8989 0
M  V30 6322 H 589.013 -5.11334 -4.44459 0
M  V30 6323 H 589.956 -6.21571 -3.39198 0
M  V30 6324 H 590.364 -4.47489 -3.44114 0
M  V30 6325 N 589.762 0.448376 -1.51087 0
M  V30 6326 C 590.692 1.55102 -1.74544 0
M  V30 6327 C 591.673 1.59357 -0.594932 0
M  V30 6328 O 592.858 1.75261 -0.836491 0
M  V30 6329 C 589.988 2.93268 -1.86041 0
M  V30 6330 C 588.942 3.03877 -3.01402 0
M  V30 6331 C 588.268 4.43914 -2.98068 0
M  V30 6332 C 589.568 2.7898 -4.41551 0
M  V30 6333 H 591.262 1.35724 -2.66869 0
M  V30 6334 H 588.808 0.651498 -1.28419 0
M  V30 6335 H 590.761 3.70356 -2.01034 0
M  V30 6336 H 589.485 3.13853 -0.903548 0
M  V30 6337 H 588.144 2.29227 -2.86096 0
M  V30 6338 H 587.792 4.6145 -2.00182 0
M  V30 6339 H 587.492 4.51944 -3.75527 0
M  V30 6340 H 589.016 5.22991 -3.1514 0
M  V30 6341 H 590.43 3.45805 -4.57265 0
M  V30 6342 H 588.827 2.98431 -5.20633 0
M  V30 6343 H 589.897 1.74663 -4.5235 0
M  V30 6344 N 591.24 1.41047 0.703093 0
M  V30 6345 C 592.203 1.42036 1.79884 0
M  V30 6346 C 593.203 0.312153 1.57741 0
M  V30 6347 O 594.393 0.571672 1.64553 0
M  V30 6348 C 591.525 1.22437 3.18154 0
M  V30 6349 H 592.718 2.39572 1.80403 0
M  V30 6350 H 590.271 1.27079 0.909977 0
M  V30 6351 H 591.006 0.257112 3.23279 0
M  V30 6352 H 590.791 2.02723 3.35627 0
M  V30 6353 H 592.281 1.25946 3.98155 0
M  V30 6354 N 592.718 -0.936591 1.26751 0
M  V30 6355 C 593.628 -2.06949 1.10496 0
M  V30 6356 C 594.644 -1.7396 0.037271 0
M  V30 6357 O 595.82 -1.99941 0.241944 0
M  V30 6358 C 592.885 -3.38612 0.744491 0
M  V30 6359 C 591.946 -3.85355 1.89209 0
M  V30 6360 C 591.179 -5.10735 1.54873 0
M  V30 6361 O 591.402 -5.68602 0.452546 0
M  V30 6362 O 590.336 -5.52632 2.38499 0
M  V30 6363 H 594.162 -2.23571 2.05547 0
M  V30 6364 H 591.747 -1.05428 1.05855 0
M  V30 6365 H 593.629 -4.17711 0.556396 0
M  V30 6366 H 592.304 -3.23218 -0.176582 0
M  V30 6367 H 591.211 -3.07182 2.13518 0
M  V30 6368 H 592.544 -4.05277 2.79305 0
M  V30 6369 N 594.196 -1.08629 -1.14182 0
M  V30 6370 C 595.106 -0.730126 -2.22949 0
M  V30 6371 C 596.122 0.26436 -1.7198 0
M  V30 6372 O 597.298 0.107742 -2.01112 0
M  V30 6373 C 594.363 -0.147227 -3.46387 0
M  V30 6374 C 593.424 -1.19662 -4.12286 0
M  V30 6375 C 592.657 -0.641437 -5.29831 0
M  V30 6376 O 592.88 0.538351 -5.67854 0
M  V30 6377 O 591.814 -1.39257 -5.85569 0
M  V30 6378 H 595.64 -1.63753 -2.55771 0
M  V30 6379 H 593.225 -0.860118 -1.22157 0
M  V30 6380 H 595.107 0.174923 -4.21037 0
M  V30 6381 H 593.782 0.733304 -3.15285 0
M  V30 6382 H 592.689 -1.57133 -3.395 0
M  V30 6383 H 594.022 -2.0495 -4.475 0
M  V30 6384 N 595.674 1.31259 -0.872281 0
M  V30 6385 C 596.951 1.91362 -0.404943 0
M  V30 6386 C 597.331 1.79362 1.11321 0
M  V30 6387 O 596.679 1.20277 1.94283 0
M  V30 6388 C 596.889 3.3749 -0.888893 0
M  V30 6389 C 598.237 4.14593 -0.916384 0
M  V30 6390 O 599.261 3.46282 -0.834701 0
M  V30 6391 O 598.12 5.3661 -1.03498 0
M  V30 6392 H 595.214 0.818016 -0.121569 0
M  V30 6393 H 597.76 1.39912 -0.960346 0
M  V30 6394 H 596.532 3.40249 -1.93251 0
M  V30 6395 H 596.155 3.96375 -0.311932 0
M  V30 6396 N 597.152 0.631951 1.44375 0
M  V30 6397 C 598.568 0.297642 1.568 0
M  V30 6398 C 598.768 -1.19916 1.61934 0
M  V30 6399 O 597.824 -1.98324 1.56281 0
M  V30 6400 C 599.137 0.990286 2.83926 0
M  V30 6401 C 600.685 0.968507 2.97639 0
M  V30 6402 C 601.16 1.64163 4.27568 0
M  V30 6403 N 602.651 1.60826 4.34384 0
M  V30 6404 C 603.386 2.09802 5.33639 0
M  V30 6405 N 602.882 2.66973 6.39294 0
M  V30 6406 N 604.675 2.00426 5.25153 0
M  V30 6407 H 596.826 1.60353 1.39286 0
M  V30 6408 H 599.089 0.673142 0.667521 0
M  V30 6409 H 598.795 2.04519 2.8612 0
M  V30 6410 H 598.669 0.528563 3.73478 0
M  V30 6411 H 601.056 -0.0779247 2.94997 0
M  V30 6412 H 601.137 1.46873 2.09433 0
M  V30 6413 H 600.781 2.68752 4.3097 0
M  V30 6414 H 600.711 1.11624 5.14634 0
M  V30 6415 H 603.202 1.19087 3.58646 0
M  V30 6416 H 603.515 3.02074 7.11316 0
M  V30 6417 H 601.86 2.71024 6.39977 0
M  V30 6418 H 605.051 1.55483 4.41523 0
M  V30 6419 H 605.224 2.38906 6.02352 0
M  V30 6420 N 598.631 -1.53133 0.372548 0
M  V30 6421 C 599.579 -2.27473 -0.485681 0
M  V30 6422 C 600.573 -1.30719 -1.07745 0
M  V30 6423 O 601.779 -1.48321 -1.01985 0
M  V30 6424 H 598.154 -0.731269 -0.175356 0
M  V30 6425 H 600.125 -2.97955 0.162986 0
M  V30 6426 C 598.874 -3.08191 -1.60978 0
M  V30 6427 H 598.197 -3.82488 -1.16373 0
M  V30 6428 H 599.637 -3.63373 -2.18485 0
M  V30 6429 C 598.096 -2.19461 -2.55614 0
M  V30 6430 O 598.626 -1.81008 -3.58607 0
M  V30 6431 N 596.832 -1.83955 -2.24965 0
M  V30 6432 H 596.379 -2.15423 -1.41247 0
M  V30 6433 H 596.337 -1.24874 -2.88538 0
M  V30 6434 N 600.109 -0.101901 -1.5727 0
M  V30 6435 C 601.072 0.840129 -2.13247 0
M  V30 6436 C 602.072 1.20625 -1.06331 0
M  V30 6437 O 603.262 1.13456 -1.32186 0
M  V30 6438 C 600.394 2.13372 -2.65867 0
M  V30 6439 H 601.587 0.353945 -2.97804 0
M  V30 6440 H 599.14 0.147167 -1.55606 0
M  V30 6441 H 599.875 2.66461 -1.84849 0
M  V30 6442 H 599.66 1.88085 -3.44044 0
M  V30 6443 H 601.15 2.80748 -3.09145 0
M  V30 6444 N 601.587 1.56661 0.17182 0
M  V30 6445 C 602.497 1.99604 1.2327 0
M  V30 6446 C 603.513 0.907333 1.4847 0
M  V30 6447 O 604.689 1.21492 1.60629 0
M  V30 6448 C 601.754 2.34685 2.55194 0
M  V30 6449 C 600.815 3.57381 2.3786 0
M  V30 6450 C 600.048 3.90779 3.63494 0
M  V30 6451 O 600.271 3.25152 4.6865 0
M  V30 6452 O 599.205 4.84129 3.57634 0
M  V30 6453 H 603.031 2.90114 0.898192 0
M  V30 6454 H 600.616 1.44522 0.378647 0
M  V30 6455 H 602.498 2.5822 3.33017 0
M  V30 6456 H 601.173 1.47336 2.88225 0
M  V30 6457 H 600.08 3.39064 1.5807 0
M  V30 6458 H 601.413 4.45268 2.09754 0
M  V30 6459 N 603.065 -0.440357 1.51323 0
M  V30 6460 C 603.975 -1.55955 1.75258 0
M  V30 6461 C 604.991 -1.61933 0.636687 0
M  V30 6462 O 606.167 -1.79231 0.918593 0
M  V30 6463 C 603.232 -2.9196 1.86977 0
M  V30 6464 C 602.293 -2.96122 3.10822 0
M  V30 6465 C 601.526 -4.2564 3.21973 0
M  V30 6466 O 601.749 -5.17851 2.39137 0
M  V30 6467 O 600.683 -4.36025 4.14929 0
M  V30 6468 H 604.509 -1.38673 2.70191 0
M  V30 6469 H 602.094 -0.623055 1.35788 0
M  V30 6470 H 603.976 -3.72682 1.96688 0
M  V30 6471 H 602.651 -3.09375 0.952307 0
M  V30 6472 H 601.558 -2.14366 3.06591 0
M  V30 6473 H 602.891 -2.83651 4.02247 0
M  V30 6474 N 604.543 -1.41418 -0.695603 0
M  V30 6475 C 605.49 -1.43264 -1.80954 0
M  V30 6476 C 606.46 -0.287016 -1.63601 0
M  V30 6477 O 607.645 -0.488054 -1.84452 0
M  V30 6478 C 604.785 -1.32054 -3.18835 0
M  V30 6479 C 603.898 -2.56485 -3.4762 0
M  V30 6480 C 603.033 -2.3757 -4.75115 0
M  V30 6481 C 602.072 -3.57477 -4.96867 0
M  V30 6482 N 601.209 -3.37632 -6.15588 0
M  V30 6483 H 606.049 -2.38467 -1.78711 0
M  V30 6484 H 603.586 -1.18415 -0.872715 0
M  V30 6485 H 605.544 -1.23558 -3.98484 0
M  V30 6486 H 604.174 -0.404592 -3.20254 0
M  V30 6487 H 603.226 -2.75432 -2.62376 0
M  V30 6488 H 604.538 -3.45678 -3.59594 0
M  V30 6489 H 603.692 -2.2654 -5.62818 0
M  V30 6490 H 602.431 -1.45834 -4.65386 0
M  V30 6491 H 601.436 -3.68961 -4.07612 0
M  V30 6492 H 602.661 -4.50167 -5.08455 0
M  V30 6493 H 600.607 -2.48596 -6.07072 0
M  V30 6494 H 600.524 -4.20401 -6.2833 0
M  V30 6495 H 601.792 -3.30375 -7.06026 0
M  V30 6496 N 606.021 0.929856 -1.27246 0
M  V30 6497 C 607.246 1.71674 -1.16374 0
M  V30 6498 C 607.671 1.86064 0.276024 0
M  V30 6499 O 607.029 1.3591 1.19992 0
M  V30 6500 C 607.077 3.09526 -1.85003 0
M  V30 6501 O 606.181 3.96142 -1.14653 0
M  V30 6502 H 605.522 0.52629 -0.404863 0
M  V30 6503 H 608.052 1.16381 -1.68276 0
M  V30 6504 H 608.062 3.59852 -1.92276 0
M  V30 6505 H 606.737 2.98369 -2.89739 0
M  V30 6506 H 605.314 3.54584 -1.15433 0
M  V30 6507 N 607.499 1.09233 1.13605 0
M  V30 6508 C 608.91 0.846839 1.6639 0
M  V30 6509 C 609.261 -0.625031 1.85978 0
M  V30 6510 O 608.386 -1.48173 1.57714 0
M  V30 6511 C 608.981 1.5307 3.0225 0
M  V30 6512 C 607.54 1.33223 3.52035 0
M  V30 6513 C 606.687 1.58806 2.27323 0
M  V30 6514 H 609.638 1.25175 0.975541 0
M  V30 6515 H 609.659 0.96267 3.68121 0
M  V30 6516 H 609.171 2.60192 2.87961 0
M  V30 6517 H 607.272 0.282091 3.71531 0
M  V30 6518 H 607.385 2.0657 4.32279 0
M  V30 6519 H 605.749 1.01007 2.33815 0
M  V30 6520 H 606.532 2.67153 2.15602 0
M  V30 6521 N 608.977 -1.30795 0.87923 0
M  V30 6522 C 609.907 -2.30742 0.357796 0
M  V30 6523 C 610.888 -1.60747 -0.556283 0
M  V30 6524 O 612.073 -1.88393 -0.47135 0
M  V30 6525 C 609.203 -3.44583 -0.433555 0
M  V30 6526 C 608.157 -4.26235 0.388251 0
M  V30 6527 C 607.483 -5.32073 -0.529352 0
M  V30 6528 C 608.783 -4.96303 1.62729 0
M  V30 6529 H 610.477 -2.74605 1.19299 0
M  V30 6530 H 608.023 -1.32017 0.575104 0
M  V30 6531 H 609.976 -4.13563 -0.808934 0
M  V30 6532 H 608.7 -2.99511 -1.30234 0
M  V30 6533 H 607.359 -3.58936 0.745695 0
M  V30 6534 H 607.007 -4.83249 -1.39569 0
M  V30 6535 H 606.707 -5.87598 0.0166741 0
M  V30 6536 H 608.231 -6.0391 -0.901373 0
M  V30 6537 H 609.645 -5.5783 1.32283 0
M  V30 6538 H 608.042 -5.61666 2.11309 0
M  V30 6539 H 609.112 -4.22758 2.37494 0
M  V30 6540 N 610.455 -0.639598 -1.44038 0
M  V30 6541 C 611.732 -0.078012 -1.95444 0
M  V30 6542 C 612.112 1.39847 -1.58133 0
M  V30 6543 O 611.46 2.11714 -0.859614 0
M  V30 6544 C 611.67 -0.309832 -3.47622 0
M  V30 6545 C 613.018 -0.207521 -4.24093 0
M  V30 6546 O 614.042 -0.241653 -3.55379 0
M  V30 6547 O 612.901 -0.119641 -5.46369 0
M  V30 6548 H 609.995 0.0174534 -0.826816 0
M  V30 6549 H 612.541 -0.711891 -1.54046 0
M  V30 6550 H 611.313 -1.33401 -3.67858 0
M  V30 6551 H 610.936 0.357777 -3.95987 0
M  V30 6552 N 611.933 1.52934 -0.380664 0
M  V30 6553 C 613.179 2.01765 0.20458 0
M  V30 6554 C 613.512 1.26696 1.47179 0
M  V30 6555 O 612.787 0.364936 1.91046 0
M  V30 6556 C 613.07 3.56869 0.481269 0
M  V30 6557 C 612.923 4.42617 -0.800629 0
M  V30 6558 C 614.242 4.2121 1.27554 0
M  V30 6559 H 611.361 0.733388 0.0728803 0
M  V30 6560 H 614.003 1.83068 -0.50853 0
M  V30 6561 H 612.153 3.72932 1.08875 0
M  V30 6562 H 613.825 4.38323 -1.43773 0
M  V30 6563 H 612.068 4.09977 -1.4178 0
M  V30 6564 H 612.739 5.49134 -0.561791 0
M  V30 6565 H 615.215 4.09072 0.761514 0
M  V30 6566 H 614.091 5.29732 1.43788 0
M  V30 6567 H 614.352 3.78269 2.28833 0
M  V30 6568 N 613.412 0.11024 1.57214 0
M  V30 6569 C 614.342 -0.840002 2.17867 0
M  V30 6570 C 615.323 -1.28352 1.11624 0
M  V30 6571 O 616.508 -1.3477 1.39824 0
M  V30 6572 C 613.638 -2.09349 2.77111 0
M  V30 6573 C 612.592 -1.78807 3.8886 0
M  V30 6574 C 611.918 -3.11112 4.34872 0
M  V30 6575 C 613.218 -1.0632 5.11364 0
M  V30 6576 H 614.912 -0.334608 2.97524 0
M  V30 6577 H 612.458 -0.159502 1.43114 0
M  V30 6578 H 614.411 -2.76275 3.18198 0
M  V30 6579 H 613.135 -2.62198 1.9473 0
M  V30 6580 H 611.794 -1.14273 3.48335 0
M  V30 6581 H 611.442 -3.61877 3.49362 0
M  V30 6582 H 611.142 -2.91453 5.10224 0
M  V30 6583 H 612.666 -3.79171 4.78604 0
M  V30 6584 H 614.08 -1.63383 5.49526 0
M  V30 6585 H 612.477 -0.967876 5.92243 0
M  V30 6586 H 613.547 -0.0484569 4.84876 0
M  V30 6587 N 614.89 -1.56749 -0.16351 0
M  V30 6588 C 615.837 -1.97011 -1.2023 0
M  V30 6589 C 616.807 -0.835186 -1.43575 0
M  V30 6590 O 617.992 -1.09594 -1.56185 0
M  V30 6591 C 615.132 -2.34186 -2.53478 0
M  V30 6592 C 614.245 -3.60893 -2.37446 0
M  V30 6593 C 613.38 -3.87245 -3.63614 0
M  V30 6594 C 612.419 -5.07274 -3.42548 0
M  V30 6595 N 611.556 -5.29719 -4.60806 0
M  V30 6596 H 616.396 -2.85562 -0.851958 0
M  V30 6597 H 613.933 -1.41292 -0.409257 0
M  V30 6598 H 615.891 -2.53764 -3.31149 0
M  V30 6599 H 614.521 -1.48736 -2.86492 0
M  V30 6600 H 613.573 -3.49185 -1.50911 0
M  V30 6601 H 614.885 -4.48722 -2.1783 0
M  V30 6602 H 614.039 -4.07232 -4.49719 0
M  V30 6603 H 612.778 -2.97806 -3.86216 0
M  V30 6604 H 611.783 -4.87177 -2.5483 0
M  V30 6605 H 613.008 -5.98251 -3.2136 0
M  V30 6606 H 610.954 -4.43233 -4.83612 0
M  V30 6607 H 610.871 -6.11786 -4.44132 0
M  V30 6608 H 612.139 -5.54192 -5.48171 0
M  V30 6609 N 616.368 0.432326 -1.51554 0
M  V30 6610 C 617.784 0.769195 -1.39841 0
M  V30 6611 C 617.984 1.95584 -0.484675 0
M  V30 6612 O 617.04 2.52433 0.0582829 0
M  V30 6613 C 618.353 1.04487 -2.81963 0
M  V30 6614 C 619.901 1.149 -2.91148 0
M  V30 6615 C 620.376 1.45758 -4.34187 0
M  V30 6616 N 621.867 1.52671 -4.37317 0
M  V30 6617 C 622.602 1.78129 -5.4503 0
M  V30 6618 N 622.098 2.01345 -6.62897 0
M  V30 6619 N 623.891 1.79953 -5.32516 0
M  V30 6620 H 616.042 -0.349122 -2.09511 0
M  V30 6621 H 618.305 -0.0938113 -0.943347 0
M  V30 6622 H 618.011 0.24557 -3.50842 0
M  V30 6623 H 617.885 1.97119 -3.21596 0
M  V30 6624 H 620.272 1.93891 -2.22464 0
M  V30 6625 H 620.353 0.201568 -2.55005 0
M  V30 6626 H 619.997 0.672917 -5.03423 0
M  V30 6627 H 619.927 2.41715 -4.67848 0
M  V30 6628 H 622.418 1.36612 -3.52343 0
M  V30 6629 H 622.731 2.20155 -7.40778 0
M  V30 6630 H 621.076 1.98657 -6.66003 0
M  V30 6631 H 624.267 1.61337 -4.39418 0
M  V30 6632 H 624.44 1.99455 -6.1654 0
M  V30 6633 N 617.846 1.41785 0.688094 0
M  V30 6634 C 618.809 1.43936 1.78368 0
M  V30 6635 C 619.809 0.328866 1.57401 0
M  V30 6636 O 620.999 0.589093 1.63937 0
M  V30 6637 C 618.131 1.25804 3.16838 0
M  V30 6638 H 619.324 2.41472 1.77852 0
M  V30 6639 H 616.877 1.28037 0.896448 0
M  V30 6640 H 617.612 0.291386 3.22988 0
M  V30 6641 H 617.397 2.06272 3.33458 0
M  V30 6642 H 618.887 1.30162 3.96797 0
M  V30 6643 N 619.324 -0.923095 1.27737 0
M  V30 6644 C 620.287 -2.00587 1.10894 0
M  V30 6645 C 621.287 -1.60718 0.0514927 0
M  V30 6646 O 622.477 -1.71658 0.296481 0
M  V30 6647 C 619.609 -3.33829 0.690717 0
M  V30 6648 H 620.802 -2.16959 2.07048 0
M  V30 6649 H 618.355 -1.10451 1.1059 0
M  V30 6650 H 619.09 -3.23157 -0.272 0
M  V30 6651 H 618.875 -3.64125 1.45448 0
M  V30 6652 H 620.365 -4.13336 0.595252 0
M  V30 6653 N 620.802 -1.09834 -1.13024 0
M  V30 6654 C 622.03 -0.858902 -1.8823 0
M  V30 6655 C 622.445 0.590164 -1.79339 0
M  V30 6656 O 621.802 1.4065 -1.16292 0
M  V30 6657 C 621.853 -1.29066 -3.37675 0
M  V30 6658 O 621.574 -2.6829 -3.46341 0
M  V30 6659 C 623.075 -1.08421 -4.29837 0
M  V30 6660 H 620.295 -0.308713 -0.595766 0
M  V30 6661 H 622.839 -1.4614 -1.4305 0
M  V30 6662 H 620.994 -0.731961 -3.80422 0
M  V30 6663 H 621.408 -2.86598 -4.39274 0
M  V30 6664 H 622.882 -1.43553 -5.33007 0
M  V30 6665 H 623.359 -0.0223315 -4.39194 0
M  V30 6666 H 623.965 -1.62907 -3.92863 0
M  V30 6667 N 622.28 1.30327 -0.886154 0
M  V30 6668 C 623.227 2.28099 -0.352069 0
M  V30 6669 C 624.197 1.56433 0.558397 0
M  V30 6670 O 625.382 1.84492 0.486561 0
M  V30 6671 C 622.522 3.42456 0.426346 0
M  V30 6672 C 621.635 4.28938 -0.513472 0
M  V30 6673 C 620.77 5.30458 0.280657 0
M  V30 6674 C 619.809 6.0859 -0.654556 0
M  V30 6675 N 618.946 7.02022 0.104322 0
M  V30 6676 H 623.786 2.73166 -1.19097 0
M  V30 6677 H 621.323 1.34367 -0.598662 0
M  V30 6678 H 623.281 4.07518 0.893587 0
M  V30 6679 H 621.911 2.98455 1.22981 0
M  V30 6680 H 620.963 3.64173 -1.09921 0
M  V30 6681 H 622.275 4.83399 -1.2299 0
M  V30 6682 H 621.429 6.01273 0.8097 0
M  V30 6683 H 620.168 4.76693 1.03029 0
M  V30 6684 H 619.173 5.36651 -1.19522 0
M  V30 6685 H 620.398 6.64443 -1.4033 0
M  V30 6686 H 618.344 6.50645 0.836472 0
M  V30 6687 H 618.261 7.53979 -0.552453 0
M  V30 6688 H 619.529 7.77077 0.614069 0
M  V30 6689 N 623.758 0.647228 1.43697 0
M  V30 6690 C 624.705 -0.0480092 2.3075 0
M  V30 6691 C 625.675 -0.820705 1.44408 0
M  V30 6692 O 626.86 -0.798515 1.73287 0
M  V30 6693 C 624 -1.01259 3.2991 0
M  V30 6694 C 623.113 -0.236629 4.31351 0
M  V30 6695 C 622.248 -1.19447 5.17596 0
M  V30 6696 C 621.287 -0.408595 6.10735 0
M  V30 6697 N 620.424 -1.31772 6.89623 0
M  V30 6698 H 625.264 0.700238 2.89656 0
M  V30 6699 H 622.801 0.357082 1.427 0
M  V30 6700 H 624.759 -1.58538 3.85903 0
M  V30 6701 H 623.389 -1.72778 2.72667 0
M  V30 6702 H 622.441 0.452353 3.77701 0
M  V30 6703 H 623.753 0.374731 4.9739 0
M  V30 6704 H 622.907 -1.83809 5.78186 0
M  V30 6705 H 621.646 -1.83975 4.51669 0
M  V30 6706 H 620.651 0.24841 5.49239 0
M  V30 6707 H 621.876 0.232188 6.78703 0
M  V30 6708 H 619.822 -1.94991 6.2635 0
M  V30 6709 H 619.739 -0.760779 7.52162 0
M  V30 6710 H 621.007 -1.94967 7.54724 0
M  V30 6711 N 625.236 -1.5273 0.388769 0
M  V30 6712 C 626.461 -2.0647 -0.19621 0
M  V30 6713 C 626.886 -1.25865 -1.39784 0
M  V30 6714 O 626.244 -0.283562 -1.79069 0
M  V30 6715 C 626.292 -3.56456 -0.5451 0
M  V30 6716 O 625.396 -3.78426 -1.63912 0
M  V30 6717 H 624.737 -0.663599 -0.023067 0
M  V30 6718 H 627.267 -1.96898 0.556084 0
M  V30 6719 H 627.277 -3.99888 -0.809557 0
M  V30 6720 H 625.952 -4.14561 0.333417 0
M  V30 6721 H 624.529 -3.46884 -1.36842 0
M  V30 6722 N 626.714 -0.118576 -1.57153 0
M  V30 6723 C 628.13 0.238014 -1.57815 0
M  V30 6724 C 628.33 1.66747 -1.13127 0
M  V30 6725 O 627.386 2.38867 -0.818462 0
M  V30 6726 C 628.699 0.00508207 -3.007 0
M  V30 6727 C 630.247 0.0710139 -3.12919 0
M  V30 6728 C 630.722 -0.13422 -4.57803 0
M  V30 6729 N 632.213 -0.0801755 -4.63131 0
M  V30 6730 C 632.948 -0.213885 -5.73001 0
M  V30 6731 N 632.444 -0.403742 -6.91623 0
M  V30 6732 N 634.237 -0.15349 -5.6189 0
M  V30 6733 H 626.388 -1.05226 -1.84503 0
M  V30 6734 H 628.651 -0.414318 -0.852669 0
M  V30 6735 H 628.357 -0.983125 -3.3768 0
M  V30 6736 H 628.231 0.73714 -3.69927 0
M  V30 6737 H 630.618 1.04975 -2.75798 0
M  V30 6738 H 630.699 -0.692918 -2.46236 0
M  V30 6739 H 630.343 -1.10992 -4.95624 0
M  V30 6740 H 630.273 0.649692 -5.22577 0
M  V30 6741 H 632.764 0.0630689 -3.77847 0
M  V30 6742 H 633.077 -0.496645 -7.71202 0
M  V30 6743 H 631.422 -0.43971 -6.93608 0
M  V30 6744 H 634.613 -0.00613174 -4.681 0
M  V30 6745 H 634.786 -0.261138 -6.47474 0
M  V30 6746 N 628.193 1.56834 0.155195 0
M  V30 6747 C 629.141 1.98584 1.21107 0
M  V30 6748 C 630.135 0.876987 1.44932 0
M  V30 6749 O 631.341 1.06215 1.45322 0
M  V30 6750 H 627.716 0.632039 0.407469 0
M  V30 6751 H 629.687 2.86561 0.832195 0
M  V30 6752 C 628.436 2.37555 2.53895 0
M  V30 6753 H 627.759 3.22428 2.3639 0
M  V30 6754 H 629.199 2.70598 3.26424 0
M  V30 6755 C 627.658 1.22507 3.13837 0
M  V30 6756 O 628.188 0.521388 3.98302 0
M  V30 6757 N 626.394 0.991444 2.73164 0
M  V30 6758 H 625.941 1.56544 2.04577 0
M  V30 6759 H 625.899 0.223546 3.13604 0
M  V30 6760 N 629.671 -0.424282 1.51781 0
M  V30 6761 C 630.948 -1.18464 1.55646 0
M  V30 6762 C 631.328 -2.08529 0.328438 0
M  V30 6763 O 630.676 -2.17969 -0.685693 0
M  V30 6764 C 630.886 -1.97514 2.87731 0
M  V30 6765 C 632.234 -2.54106 3.40169 0
M  V30 6766 O 633.258 -2.07711 2.89369 0
M  V30 6767 O 632.117 -3.38759 4.28841 0
M  V30 6768 H 629.211 -0.540055 0.626314 0
M  V30 6769 H 631.757 -0.432291 1.64102 0
M  V30 6770 H 630.529 -1.31444 3.68562 0
M  V30 6771 H 630.152 -2.79787 2.82498 0
M  V30 6772 N 631.149 -1.42148 -0.680565 0
M  V30 6773 C 632.079 -1.4796 -1.80638 0
M  V30 6774 C 633.06 -0.336728 -1.66734 0
M  V30 6775 O 634.245 -0.550247 -1.86242 0
M  V30 6776 C 631.375 -1.37569 -3.18892 0
M  V30 6777 C 630.329 -2.49823 -3.47524 0
M  V30 6778 C 629.655 -2.24491 -4.85291 0
M  V30 6779 C 630.955 -3.92144 -3.44994 0
M  V30 6780 H 632.649 -2.42184 -1.76032 0
M  V30 6781 H 630.195 -1.16566 -0.845481 0
M  V30 6782 H 632.148 -1.40243 -3.97379 0
M  V30 6783 H 630.872 -0.398357 -3.24162 0
M  V30 6784 H 629.531 -2.46455 -2.71395 0
M  V30 6785 H 629.179 -1.25066 -4.87204 0
M  V30 6786 H 628.879 -2.99722 -5.05411 0
M  V30 6787 H 630.403 -2.28906 -5.66069 0
M  V30 6788 H 631.817 -3.97145 -4.13459 0
M  V30 6789 H 630.214 -4.67179 -3.76648 0
M  V30 6790 H 631.284 -4.19225 -2.43676 0
M  V30 6791 N 632.627 0.916307 -1.28225 0
M  V30 6792 C 633.876 1.65975 -1.14608 0
M  V30 6793 C 634.189 1.93204 0.305191 0
M  V30 6794 O 635.395 2.65611 0.562432 0
M  V30 6795 C 633.851 2.98989 -2.00333 0
M  V30 6796 C 633.459 2.79417 -3.50186 0
M  V30 6797 C 635.203 3.76856 -1.95397 0
M  V30 6798 C 633.11 4.08056 -4.28071 0
M  V30 6799 H 632.04 0.622587 -0.425324 0
M  V30 6800 H 634.691 1.01705 -1.52736 0
M  V30 6801 H 633.073 3.6438 -1.5506 0
M  V30 6802 H 634.247 2.22723 -4.034 0
M  V30 6803 H 632.562 2.14966 -3.56621 0
M  V30 6804 H 635.159 4.72203 -2.50856 0
M  V30 6805 H 635.502 4.05776 -0.930137 0
M  V30 6806 H 636.035 3.1828 -2.38626 0
M  V30 6807 H 632.774 3.8431 -5.31024 0
M  V30 6808 H 632.294 4.64371 -3.79631 0
M  V30 6809 H 633.973 4.76333 -4.37854 0
M  V30 6810 N 634.105 1.10431 1.1244 0
M  V30 6811 C 635.055 0.722378 2.16254 0
M  V30 6812 C 636.039 -0.268427 1.58645 0
M  V30 6813 O 637.231 -0.077169 1.76832 0
M  V30 6814 C 634.36 0.155763 3.42946 0
M  V30 6815 C 633.446 1.17361 4.07538 0
M  V30 6816 N 633.837 2.36429 4.47141 0
M  V30 6817 C 632.135 1.01412 4.34317 0
M  V30 6818 C 632.836 3.01259 4.97612 0
M  V30 6819 N 631.812 2.28777 4.93115 0
M  V30 6820 H 635.614 1.62876 2.4464 0
M  V30 6821 H 633.128 0.982031 1.29344 0
M  V30 6822 H 635.125 -0.135936 4.16678 0
M  V30 6823 H 633.785 -0.745339 3.1603 0
M  V30 6824 H 634.796 2.73954 4.39511 0
M  V30 6825 H 631.473 0.168574 4.1716 0
M  V30 6826 H 632.863 4.02541 5.37968 0
M  V30 6827 N 635.583 -1.29855 0.893053 0
M  V30 6828 C 636.546 -2.26183 0.370687 0
M  V30 6829 C 637.546 -1.53108 -0.491385 0
M  V30 6830 O 638.736 -1.71643 -0.297386 0
M  V30 6831 C 635.868 -3.37633 -0.470827 0
M  V30 6832 H 637.061 -2.73903 1.22135 0
M  V30 6833 H 634.614 -1.41183 0.67061 0
M  V30 6834 H 635.349 -2.95241 -1.34175 0
M  V30 6835 H 635.134 -3.91825 0.146784 0
M  V30 6836 H 636.624 -4.09313 -0.827825 0
M  V30 6837 N 637.061 -0.65484 -1.43351 0
M  V30 6838 C 637.971 0.0363603 -2.34572 0
M  V30 6839 C 638.987 0.810432 -1.53974 0
M  V30 6840 O 640.163 0.757308 -1.86619 0
M  V30 6841 C 637.228 0.989733 -3.32273 0
M  V30 6842 C 636.289 0.212414 -4.28774 0
M  V30 6843 C 635.522 1.12038 -5.21808 0
M  V30 6844 O 635.745 2.35967 -5.19303 0
M  V30 6845 O 634.679 0.59191 -5.98982 0
M  V30 6846 H 638.505 -0.714527 -2.95175 0
M  V30 6847 H 636.09 -0.415029 -1.4352 0
M  V30 6848 H 637.972 1.53759 -3.92347 0
M  V30 6849 H 636.647 1.72082 -2.74171 0
M  V30 6850 H 635.554 -0.379062 -3.72175 0
M  V30 6851 H 636.887 -0.479138 -4.89862 0
M  V30 6852 N 638.539 1.52521 -0.396863 0
M  V30 6853 C 639.449 2.30403 0.44178 0
M  V30 6854 C 640.465 1.37625 1.06468 0
M  V30 6855 O 641.641 1.70697 1.06886 0
M  V30 6856 C 638.706 3.1013 1.54986 0
M  V30 6857 C 637.767 4.18628 0.951279 0
M  V30 6858 C 637 4.94543 2.00655 0
M  V30 6859 O 637.223 4.70629 3.22281 0
M  V30 6860 O 636.157 5.797 1.61962 0
M  V30 6861 H 639.983 3.03087 -0.192892 0
M  V30 6862 H 637.568 1.48537 -0.16038 0
M  V30 6863 H 639.45 3.59816 2.19341 0
M  V30 6864 H 638.125 2.40251 2.16935 0
M  V30 6865 H 637.032 3.73119 0.270773 0
M  V30 6866 H 638.365 4.90763 0.375887 0
M  V30 6867 N 640.017 0.126909 1.57088 0
M  V30 6868 C 641.265 -0.528123 1.95078 0
M  V30 6869 C 641.586 -1.66708 1.0116 0
M  V30 6870 O 640.856 -1.95777 0.0693527 0
M  V30 6871 H 639.436 -0.198087 0.720257 0
M  V30 6872 H 642.098 0.197703 1.93895 0
M  V30 6873 H 641.194 -0.917507 2.98309 0
M  V30 6874 N 641.495 -1.56914 -0.146875 0
M  V30 6875 C 642.405 -2.0154 -1.20079 0
M  V30 6876 C 643.421 -0.930838 -1.47008 0
M  V30 6877 O 644.597 -1.24032 -1.58676 0
M  V30 6878 C 641.662 -2.38715 -2.51428 0
M  V30 6879 C 640.723 -3.6112 -2.32145 0
M  V30 6880 C 639.956 -3.96512 -3.57231 0
M  V30 6881 O 640.179 -3.32566 -4.63418 0
M  V30 6882 O 639.113 -4.89758 -3.49887 0
M  V30 6883 H 642.939 -2.91506 -0.851924 0
M  V30 6884 H 640.524 -1.45106 -0.355607 0
M  V30 6885 H 642.406 -2.63485 -3.28867 0
M  V30 6886 H 641.081 -1.51903 -2.85845 0
M  V30 6887 H 639.988 -3.41536 -1.52656 0
M  V30 6888 H 641.321 -4.48549 -2.02644 0
M  V30 6889 N 642.974 0.416227 -1.52004 0
M  V30 6890 C 644.251 1.17637 -1.56272 0
M  V30 6891 C 644.631 2.08352 -0.339493 0
M  V30 6892 O 643.979 2.1833 0.674124 0
M  V30 6893 C 644.189 1.95986 -2.88774 0
M  V30 6894 C 645.537 2.52299 -3.41512 0
M  V30 6895 O 646.561 2.06174 -2.90467 0
M  V30 6896 O 645.42 3.3648 -4.30631 0
M  V30 6897 H 642.514 0.536726 -0.629169 0
M  V30 6898 H 645.06 0.423583 -1.64329 0
M  V30 6899 H 643.832 1.29487 -3.69254 0
M  V30 6900 H 643.455 2.78285 -2.83978 0
M  V30 6901 N 644.452 1.42507 0.673017 0
M  V30 6902 C 645.868 1.25472 0.986355 0
M  V30 6903 C 646.068 0.160181 2.00862 0
M  V30 6904 O 645.124 -0.467993 2.48125 0
M  V30 6905 C 646.437 2.61219 1.48947 0
M  V30 6906 C 647.985 2.68589 1.60715 0
M  V30 6907 C 648.46 4.04707 2.14422 0
M  V30 6908 N 649.951 4.0667 2.21752 0
M  V30 6909 C 650.686 5.0881 2.64386 0
M  V30 6910 N 650.182 6.21332 3.0646 0
M  V30 6911 N 651.975 4.96166 2.64151 0
M  V30 6912 H 644.126 2.124 -0.00378532 0
M  V30 6913 H 646.389 0.946046 0.0608367 0
M  V30 6914 H 646.095 3.42179 0.812812 0
M  V30 6915 H 645.969 2.85261 2.46791 0
M  V30 6916 H 648.356 1.87974 2.27486 0
M  V30 6917 H 648.437 2.48333 0.613552 0
M  V30 6918 H 648.081 4.8578 1.48258 0
M  V30 6919 H 648.011 4.22315 3.14575 0
M  V30 6920 H 650.502 3.25438 1.92089 0
M  V30 6921 H 650.815 6.95118 3.37684 0
M  V30 6922 H 649.16 6.24835 3.04313 0
M  V30 6923 H 652.351 4.07334 2.30644 0
M  V30 6924 H 652.524 5.759 2.97057 0
M  V30 6925 N 645.93 -0.909495 1.28709 0
M  V30 6926 C 647.177 -1.65905 1.16111 0
M  V30 6927 C 647.505 -1.92334 -0.289436 0
M  V30 6928 O 646.76 -1.52495 -1.22653 0
M  V30 6929 C 647.059 -3.02117 1.90945 0
M  V30 6930 C 646.725 -2.95332 3.40719 0
M  V30 6931 C 645.387 -2.93189 3.81567 0
M  V30 6932 C 647.739 -2.85264 4.36204 0
M  V30 6933 C 645.067 -2.78784 5.16233 0
M  V30 6934 C 647.419 -2.724 5.70948 0
M  V30 6935 C 646.083 -2.68617 6.11066 0
M  V30 6936 H 645.353 -0.60709 0.42488 0
M  V30 6937 H 648 -1.05932 1.59533 0
M  V30 6938 H 646.305 -3.65901 1.40085 0
M  V30 6939 H 648.002 -3.59026 1.7861 0
M  V30 6940 H 644.592 -2.97797 3.08245 0
M  V30 6941 H 648.776 -2.86005 4.05605 0
M  V30 6942 H 644.032 -2.74254 5.46438 0
M  V30 6943 H 648.206 -2.63579 6.44592 0
M  V30 6944 H 645.833 -2.57213 7.15364 0
M  V30 6945 N 647.408 -1.11026 -1.11852 0
M  V30 6946 C 648.371 -0.768006 -2.1595 0
M  V30 6947 C 649.371 0.210538 -1.59416 0
M  V30 6948 O 650.561 -0.0133978 -1.74195 0
M  V30 6949 C 647.693 -0.138678 -3.40618 0
M  V30 6950 H 648.886 -1.69012 -2.4774 0
M  V30 6951 H 646.439 -0.911578 -1.26964 0
M  V30 6952 H 647.174 0.793872 -3.14433 0
M  V30 6953 H 646.959 -0.843012 -3.8293 0
M  V30 6954 H 648.449 0.0848039 -4.17514 0
M  V30 6955 N 648.886 1.2938 -0.899927 0
M  V30 6956 C 650.163 1.9046 -0.445443 0
M  V30 6957 C 650.543 1.81683 1.07492 0
M  V30 6958 O 649.891 1.24371 1.91688 0
M  V30 6959 C 650.101 3.35529 -0.960279 0
M  V30 6960 C 651.449 4.12556 -1.00412 0
M  V30 6961 O 652.473 3.44434 -0.907965 0
M  V30 6962 O 651.332 5.34294 -1.14857 0
M  V30 6963 H 648.426 0.815253 -0.138893 0
M  V30 6964 H 650.972 1.37844 -0.989808 0
M  V30 6965 H 649.744 3.36074 -2.00425 0
M  V30 6966 H 649.367 3.95624 -0.395939 0
M  V30 6967 N 650.364 0.662433 1.43002 0
M  V30 6968 C 651.294 -0.00979809 2.33498 0
M  V30 6969 C 652.275 -0.802329 1.49989 0
M  V30 6970 O 653.46 -0.761964 1.78627 0
M  V30 6971 C 650.59 -0.970446 3.33466 0
M  V30 6972 C 649.544 -0.287383 4.27034 0
M  V30 6973 C 648.87 -1.36012 5.17112 0
M  V30 6974 C 650.17 0.82595 5.15728 0
M  V30 6975 H 651.864 0.745959 2.89958 0
M  V30 6976 H 649.41 0.360172 1.39423 0
M  V30 6977 H 651.363 -1.44971 3.95679 0
M  V30 6978 H 650.087 -1.75748 2.75282 0
M  V30 6979 H 648.746 0.17152 3.66199 0
M  V30 6980 H 648.394 -2.13882 4.55262 0
M  V30 6981 H 648.094 -0.908276 5.80538 0
M  V30 6982 H 649.618 -1.84056 5.82199 0
M  V30 6983 H 651.032 0.42845 5.71697 0
M  V30 6984 H 649.429 1.20282 5.87922 0
M  V30 6985 H 650.499 1.68003 4.54866 0
M  V30 6986 N 651.842 -1.52309 0.404946 0
M  V30 6987 C 653.082 -2.03677 -0.171779 0
M  V30 6988 C 653.446 -1.28419 -1.42733 0
M  V30 6989 O 654.647 -1.69991 -2.08222 0
M  V30 6990 C 652.918 -3.54951 -0.417701 0
M  V30 6991 S 654.477 -4.28114 -0.962472 0
M  V30 6992 H 651.295 -0.709445 -0.0469912 0
M  V30 6993 H 653.897 -1.874 0.556901 0
M  V30 6994 H 652.601 -4.07306 0.50295 0
M  V30 6995 H 652.132 -3.75462 -1.17437 0
M  V30 6996 H 654.147 -4.42589 -2.24342 0
M  V30 6997 N 653.32 -0.135238 -1.57019 0
M  V30 6998 C 654.283 0.794707 -2.14981 0
M  V30 6999 C 655.283 1.18342 -1.08866 0
M  V30 7000 O 656.473 1.10627 -1.34563 0
M  V30 7001 C 653.605 2.07685 -2.70333 0
M  V30 7002 H 654.798 0.290696 -2.98488 0
M  V30 7003 H 652.351 0.114128 -1.55883 0
M  V30 7004 H 653.086 2.6248 -1.9046 0
M  V30 7005 H 652.871 1.80745 -3.47957 0
M  V30 7006 H 654.361 2.74127 -3.1503 0
M  V30 7007 N 654.798 1.5699 0.138552 0
M  V30 7008 C 656.044 1.84081 0.85099 0
M  V30 7009 C 656.377 0.718107 1.80435 0
M  V30 7010 O 655.652 -0.277633 1.92508 0
M  V30 7011 C 655.935 3.21699 1.61808 0
M  V30 7012 C 655.788 4.44544 0.685633 0
M  V30 7013 C 657.107 3.5664 2.57868 0
M  V30 7014 H 654.226 0.669592 0.307922 0
M  V30 7015 H 656.868 1.89646 0.11588 0
M  V30 7016 H 655.018 3.17086 2.24474 0
M  V30 7017 H 656.69 4.61248 0.0693179 0
M  V30 7018 H 654.933 4.338 -0.00421993 0
M  V30 7019 H 655.604 5.3746 1.25858 0
M  V30 7020 H 658.08 3.61918 2.05316 0
M  V30 7021 H 656.956 4.53946 3.08584 0
M  V30 7022 H 657.217 2.83036 3.39622 0
M  V30 7023 N 656.276 -0.40816 1.52223 0
M  V30 7024 C 657.524 -1.15274 1.66001 0
M  V30 7025 C 657.845 -1.91003 0.392803 0
M  V30 7026 O 657.115 -1.8673 -0.592336 0
M  V30 7027 H 655.695 -0.428526 0.611861 0
M  V30 7028 H 658.357 -0.46512 1.89269 0
M  V30 7029 H 657.453 -1.86628 2.50153 0
M  V30 7030 N 657.755 -1.42862 -0.66545 0
M  V30 7031 C 658.98 -1.47456 -1.45848 0
M  V30 7032 C 659.405 -0.0900312 -1.87884 0
M  V30 7033 O 658.763 0.913587 -1.56599 0
M  V30 7034 C 658.811 -2.41514 -2.67774 0
M  V30 7035 O 657.915 -1.89296 -3.66389 0
M  V30 7036 H 657.256 -0.499236 -0.437789 0
M  V30 7037 H 659.786 -1.8765 -0.815394 0
M  V30 7038 H 659.796 -2.58409 -3.15735 0
M  V30 7039 H 658.471 -3.42099 -2.36519 0
M  V30 7040 H 657.048 -1.82003 -3.25468 0
M  V30 7041 N 659.233 0.902656 -1.29189 0
M  V30 7042 C 660.644 1.46809 -1.15343 0
M  V30 7043 C 660.995 1.94568 0.252517 0
M  V30 7044 O 660.12 1.83454 1.14777 0
M  V30 7045 C 660.715 2.66829 -2.08776 0
M  V30 7046 C 659.274 3.19518 -1.98961 0
M  V30 7047 C 658.421 1.92212 -1.99874 0
M  V30 7048 H 661.372 0.714282 -1.41717 0
M  V30 7049 H 661.393 3.42465 -1.65826 0
M  V30 7050 H 660.905 2.32039 -3.11094 0
M  V30 7051 H 659.006 3.59008 -0.99721 0
M  V30 7052 H 659.119 3.84016 -2.86477 0
M  V30 7053 H 657.483 2.0979 -1.44431 0
M  V30 7054 H 658.266 1.59702 -3.03891 0
M  V30 7055 N 660.711 1.11618 1.11262 0
M  V30 7056 C 661.958 0.86618 1.8304 0
M  V30 7057 C 662.286 -0.608149 1.84748 0
M  V30 7058 O 661.541 -1.46508 1.29745 0
M  V30 7059 C 661.84 1.37529 3.2988 0
M  V30 7060 C 661.506 2.86317 3.4833 0
M  V30 7061 C 660.168 3.26945 3.53073 0
M  V30 7062 C 662.52 3.82136 3.54431 0
M  V30 7063 C 659.848 4.62117 3.61475 0
M  V30 7064 C 662.2 5.17128 3.64365 0
M  V30 7065 C 660.864 5.57312 3.67369 0
M  V30 7066 H 660.134 0.316958 0.66979 0
M  V30 7067 H 662.781 1.3949 1.31205 0
M  V30 7068 H 661.086 0.766842 3.84222 0
M  V30 7069 H 662.783 1.15817 3.83911 0
M  V30 7070 H 659.373 2.53889 3.45309 0
M  V30 7071 H 663.557 3.51847 3.50025 0
M  V30 7072 H 658.813 4.92655 3.62079 0
M  V30 7073 H 662.987 5.91208 3.68029 0
M  V30 7074 H 660.614 6.62045 3.73632 0
M  V30 7075 N 662.189 -1.289 0.906776 0
M  V30 7076 C 663.152 -2.25777 0.394656 0
M  V30 7077 C 664.152 -1.53621 -0.475119 0
M  V30 7078 O 665.342 -1.71949 -0.279165 0
M  V30 7079 C 662.474 -3.38113 -0.43499 0
M  V30 7080 H 663.667 -2.72592 1.25033 0
M  V30 7081 H 661.22 -1.40463 0.685547 0
M  V30 7082 H 661.955 -2.96648 -1.31036 0
M  V30 7083 H 661.74 -3.91647 0.188334 0
M  V30 7084 H 663.23 -4.10168 -0.784365 0
M  V30 7085 N 663.667 -0.670007 -1.42649 0
M  V30 7086 C 665.083 -0.33911 -1.55956 0
M  V30 7087 C 665.283 1.1558 -1.65056 0
M  V30 7088 O 664.339 1.94111 -1.61485 0
M  V30 7089 C 665.652 -1.06522 -2.812 0
M  V30 7090 C 667.2 -1.04708 -2.94966 0
M  V30 7091 C 667.675 -1.75442 -4.23065 0
M  V30 7092 N 669.166 -1.72286 -4.29967 0
M  V30 7093 C 669.901 -2.23877 -5.27889 0
M  V30 7094 N 669.397 -2.83829 -6.31991 0
M  V30 7095 N 671.19 -2.14279 -5.19654 0
M  V30 7096 H 663.341 -1.6399 -1.34986 0
M  V30 7097 H 665.604 -0.690603 -0.649439 0
M  V30 7098 H 665.31 -2.12033 -2.80597 0
M  V30 7099 H 665.184 -0.627398 -3.71946 0
M  V30 7100 H 667.571 -0.000315966 -2.951 0
M  V30 7101 H 667.652 -1.52374 -2.05465 0
M  V30 7102 H 667.296 -2.80084 -4.23693 0
M  V30 7103 H 667.226 -1.25229 -5.11493 0
M  V30 7104 H 669.717 -1.28554 -3.55362 0
M  V30 7105 H 670.03 -3.20827 -7.03057 0
M  V30 7106 H 668.375 -2.87896 -6.32567 0
M  V30 7107 H 671.566 -1.67135 -4.37245 0
M  V30 7108 H 671.739 -2.54792 -5.95806 0
M  V30 7109 N 665.145 1.52092 -0.413018 0
M  V30 7110 C 666.108 2.25706 0.398687 0
M  V30 7111 C 667.108 1.28221 0.970368 0
M  V30 7112 O 668.298 1.52131 0.848635 0
M  V30 7113 C 665.43 3.03029 1.5616 0
M  V30 7114 H 666.623 2.98888 -0.246131 0
M  V30 7115 H 664.176 1.5542 -0.165622 0
M  V30 7116 H 664.911 2.34205 2.24317 0
M  V30 7117 H 664.696 3.74606 1.15812 0
M  V30 7118 H 666.186 3.58857 2.13569 0
M  V30 7119 N 666.623 0.143563 1.56945 0
M  V30 7120 C 667.848 -0.518701 2.00809 0
M  V30 7121 C 668.273 -1.5785 1.02298 0
M  V30 7122 O 667.631 -1.813 -0.0017839 0
M  V30 7123 C 667.679 -1.09929 3.43436 0
M  V30 7124 O 666.783 -2.21425 3.47915 0
M  V30 7125 H 666.124 -0.127215 0.6517 0
M  V30 7126 H 668.654 0.239283 2.03196 0
M  V30 7127 H 668.664 -1.4288 3.82164 0
M  V30 7128 H 667.339 -0.323162 4.14643 0
M  V30 7129 H 665.916 -1.89728 3.21026 0
M  V30 7130 N 668.101 -1.57061 -0.130224 0
M  V30 7131 C 669.031 -2.02552 -1.16168 0
M  V30 7132 C 670.012 -0.907971 -1.4384 0
M  V30 7133 O 671.197 -1.17693 -1.54473 0
M  V30 7134 C 668.327 -2.42035 -2.49071 0
M  V30 7135 C 667.281 -3.5713 -2.35886 0
M  V30 7136 C 666.607 -3.82478 -3.7365 0
M  V30 7137 C 667.907 -4.89236 -1.8288 0
M  V30 7138 H 669.601 -2.8897 -0.783359 0
M  V30 7139 H 667.147 -1.39021 -0.375376 0
M  V30 7140 H 669.1 -2.72462 -3.21469 0
M  V30 7141 H 667.824 -1.52573 -2.88771 0
M  V30 7142 H 666.483 -3.26895 -1.65938 0
M  V30 7143 H 666.131 -2.9024 -4.10816 0
M  V30 7144 H 665.831 -4.59944 -3.65685 0
M  V30 7145 H 667.355 -4.15347 -4.47571 0
M  V30 7146 H 668.769 -5.18272 -2.45085 0
M  V30 7147 H 667.166 -5.70624 -1.85763 0
M  V30 7148 H 668.236 -4.78494 -0.785571 0
M  V30 7149 N 669.579 0.400081 -1.52437 0
M  V30 7150 C 670.526 1.48803 -1.76426 0
M  V30 7151 C 671.496 1.5461 -0.607032 0
M  V30 7152 O 672.681 1.71041 -0.845563 0
M  V30 7153 C 669.821 2.86156 -1.92896 0
M  V30 7154 C 668.934 2.89587 -3.20567 0
M  V30 7155 C 668.069 4.18296 -3.27417 0
M  V30 7156 C 667.108 4.15736 -4.49255 0
M  V30 7157 N 666.245 5.36032 -4.53447 0
M  V30 7158 H 671.085 1.27649 -2.69276 0
M  V30 7159 H 668.622 0.619451 -1.33421 0
M  V30 7160 H 670.58 3.65901 -2.00429 0
M  V30 7161 H 669.21 3.05785 -1.03418 0
M  V30 7162 H 668.262 2.02278 -3.22161 0
M  V30 7163 H 669.574 2.83562 -4.10358 0
M  V30 7164 H 668.728 5.06439 -3.34072 0
M  V30 7165 H 667.467 4.27028 -2.35581 0
M  V30 7166 H 666.472 3.25982 -4.42737 0
M  V30 7167 H 667.697 4.08636 -5.42396 0
M  V30 7168 H 665.643 5.45415 -3.64498 0
M  V30 7169 H 665.56 5.32038 -5.37096 0
M  V30 7170 H 666.828 6.26104 -4.64343 0
M  V30 7171 N 671.057 1.43213 0.657864 0
M  V30 7172 C 672.282 1.48227 1.45064 0
M  V30 7173 C 672.707 0.0999939 1.87834 0
M  V30 7174 O 672.065 -0.905269 1.57081 0
M  V30 7175 C 672.113 2.42931 2.6649 0
M  V30 7176 O 671.217 1.91237 3.6538 0
M  V30 7177 H 670.558 0.501551 0.435135 0
M  V30 7178 H 673.088 1.8808 0.805431 0
M  V30 7179 H 673.098 2.6008 3.1436 0
M  V30 7180 H 671.773 3.43348 2.34701 0
M  V30 7181 H 670.35 1.83726 3.24498 0
M  V30 7182 N 672.536 -0.895792 1.29666 0
M  V30 7183 C 673.784 -1.64339 1.17631 0
M  V30 7184 C 674.105 -1.93099 -0.271643 0
M  V30 7185 O 673.375 -1.55981 -1.18518 0
M  V30 7186 H 671.955 -0.609162 0.432354 0
M  V30 7187 H 674.617 -1.07389 1.62646 0
M  V30 7188 H 673.713 -2.59815 1.72924 0
M  V30 7189 N 674.014 -1.12206 -1.10668 0
M  V30 7190 C 674.961 -0.787716 -2.16942 0
M  V30 7191 C 675.931 0.244442 -1.64291 0
M  V30 7192 O 677.116 0.119558 -1.90425 0
M  V30 7193 C 674.256 -0.24584 -3.44223 0
M  V30 7194 C 673.369 -1.33552 -4.10838 0
M  V30 7195 C 672.504 -0.753337 -5.25831 0
M  V30 7196 C 671.543 -1.82231 -5.84344 0
M  V30 7197 N 670.68 -1.25902 -6.90719 0
M  V30 7198 H 675.52 -1.69809 -2.44885 0
M  V30 7199 H 673.057 -0.847862 -1.20207 0
M  V30 7200 H 675.015 0.0863639 -4.17111 0
M  V30 7201 H 673.645 0.627702 -3.16638 0
M  V30 7202 H 672.697 -1.78454 -3.35944 0
M  V30 7203 H 674.009 -2.14396 -4.50373 0
M  V30 7204 H 673.163 -0.37166 -6.05561 0
M  V30 7205 H 671.902 0.0863297 -4.87624 0
M  V30 7206 H 670.907 -2.2132 -5.03287 0
M  V30 7207 H 672.132 -2.66515 -6.24617 0
M  V30 7208 H 670.078 -0.44114 -6.54515 0
M  V30 7209 H 669.995 -2.00408 -7.28953 0
M  V30 7210 H 671.263 -0.904498 -7.74235 0
M  V30 7211 N 675.492 1.28418 -0.913599 0
M  V30 7212 C 676.72 1.99106 -0.562536 0
M  V30 7213 C 677.135 1.68273 0.856137 0
M  V30 7214 O 676.492 0.935401 1.56705 0
M  V30 7215 C 676.543 3.5338 -0.761903 0
M  V30 7216 O 676.264 3.83127 -2.12475 0
M  V30 7217 C 677.765 4.41328 -0.417651 0
M  V30 7218 H 674.985 0.635798 -0.214481 0
M  V30 7219 H 677.529 1.63618 -1.22676 0
M  V30 7220 H 675.684 3.8713 -0.144676 0
M  V30 7221 H 676.098 4.77763 -2.16431 0
M  V30 7222 H 677.572 5.48642 -0.607919 0
M  V30 7223 H 678.049 4.34422 0.646108 0
M  V30 7224 H 678.655 4.13074 -1.01241 0
M  V30 7225 N 676.97 0.677563 1.42291 0
M  V30 7226 C 677.88 0.000962654 2.346 0
M  V30 7227 C 678.896 -0.785833 1.55244 0
M  V30 7228 O 680.072 -0.727523 1.87801 0
M  V30 7229 C 677.137 -0.936746 3.33805 0
M  V30 7230 C 676.198 -0.144173 4.29058 0
M  V30 7231 C 675.431 -1.03722 5.23524 0
M  V30 7232 O 675.654 -2.27675 5.22992 0
M  V30 7233 O 674.588 -0.496542 5.99848 0
M  V30 7234 H 678.414 0.761397 2.94001 0
M  V30 7235 H 675.999 0.43781 1.42841 0
M  V30 7236 H 677.881 -1.47497 3.94744 0
M  V30 7237 H 676.556 -1.67698 2.76874 0
M  V30 7238 H 675.463 0.438224 3.71524 0
M  V30 7239 H 676.796 0.55701 4.89038 0
M  V30 7240 N 678.448 -1.51871 0.421078 0
M  V30 7241 C 679.673 -2.0684 -0.152371 0
M  V30 7242 C 680.098 -1.28802 -1.37083 0
M  V30 7243 O 679.456 -0.321482 -1.78427 0
M  V30 7244 C 679.504 -3.57532 -0.469368 0
M  V30 7245 O 678.608 -3.81818 -1.55848 0
M  V30 7246 H 677.949 -0.663939 -0.00898586 0
M  V30 7247 H 680.479 -1.95674 0.597724 0
M  V30 7248 H 680.489 -4.01515 -0.724553 0
M  V30 7249 H 679.164 -4.13761 0.421276 0
M  V30 7250 H 677.741 -3.49709 -1.29453 0
M  V30 7251 N 679.926 -0.151884 -1.56866 0
M  V30 7252 C 681.151 0.508044 -2.01081 0
M  V30 7253 C 681.576 1.57306 -1.03134 0
M  V30 7254 O 680.934 1.81298 -0.0078309 0
M  V30 7255 C 680.982 1.08106 -3.44014 0
M  V30 7256 O 680.086 2.19577 -3.49084 0
M  V30 7257 H 679.427 0.123757 -0.652365 0
M  V30 7258 H 681.957 -0.250055 -2.03066 0
M  V30 7259 H 681.967 1.40851 -3.82916 0
M  V30 7260 H 680.642 0.301168 -4.14808 0
M  V30 7261 H 679.219 1.88023 -3.22027 0
M  V30 7262 N 681.404 1.57128 0.121893 0
M  V30 7263 C 682.629 1.89254 0.848385 0
M  V30 7264 C 683.054 0.743527 1.72781 0
M  V30 7265 O 682.412 -0.306056 1.78698 0
M  V30 7266 C 682.46 3.20113 1.66012 0
M  V30 7267 O 681.564 3.05815 2.76679 0
M  V30 7268 H 680.905 0.621103 0.234793 0
M  V30 7269 H 683.435 2.0433 0.10516 0
M  V30 7270 H 683.445 3.52761 2.04996 0
M  V30 7271 H 682.12 4.03336 1.01452 0
M  V30 7272 H 680.697 2.84627 2.40918 0
M  V30 7273 N 682.882 -0.391992 1.52647 0
M  V30 7274 C 684.112 -1.15692 1.71169 0
M  V30 7275 C 684.52 -1.84285 0.428444 0
M  V30 7276 O 683.863 -1.73393 -0.606669 0
M  V30 7277 C 683.925 -2.25033 2.80357 0
M  V30 7278 C 683.589 -1.76433 4.21569 0
M  V30 7279 C 684.586 -1.2427 5.0483 0
M  V30 7280 C 682.271 -1.82746 4.67877 0
M  V30 7281 C 684.265 -0.790657 6.32477 0
M  V30 7282 C 681.952 -1.37153 5.9551 0
M  V30 7283 C 682.95 -0.853997 6.7764 0
M  V30 7284 O 682.638 -0.404708 8.02881 0
M  V30 7285 H 682.37 -0.35297 0.576531 0
M  V30 7286 H 684.924 -0.464994 2.00067 0
M  V30 7287 H 683.154 -2.97641 2.46874 0
M  V30 7288 H 684.843 -2.86718 2.87311 0
M  V30 7289 H 685.609 -1.18752 4.70237 0
M  V30 7290 H 681.488 -2.21971 4.04042 0
M  V30 7291 H 685.032 -0.386024 6.96531 0
M  V30 7292 H 680.929 -1.42356 6.29607 0
M  V30 7293 H 681.697 -0.526459 8.16805 0
M  V30 7294 N 684.36 -1.4356 -0.65026 0
M  V30 7295 C 685.607 -1.45333 -1.41012 0
M  V30 7296 C 685.935 -0.0787282 -1.94341 0
M  V30 7297 O 685.19 0.916715 -1.72901 0
M  V30 7298 C 685.489 -2.44528 -2.60654 0
M  V30 7299 C 685.155 -3.90331 -2.25727 0
M  V30 7300 C 683.817 -4.3004 -2.15914 0
M  V30 7301 C 686.169 -4.822 -1.97821 0
M  V30 7302 C 683.497 -5.59568 -1.76354 0
M  V30 7303 C 685.849 -6.12095 -1.59759 0
M  V30 7304 C 684.513 -6.50778 -1.48473 0
M  V30 7305 H 683.783 -0.531813 -0.516 0
M  V30 7306 H 686.43 -1.76657 -0.739219 0
M  V30 7307 H 684.735 -2.06619 -3.3289 0
M  V30 7308 H 686.432 -2.43155 -3.18868 0
M  V30 7309 H 683.022 -3.58905 -2.34276 0
M  V30 7310 H 687.206 -4.5229 -2.04322 0
M  V30 7311 H 682.462 -5.88376 -1.66205 0
M  V30 7312 H 686.636 -6.82751 -1.37198 0
M  V30 7313 H 684.263 -7.5105 -1.17591 0
M  V30 7314 N 685.838 0.888903 -1.30139 0
M  V30 7315 C 687.254 1.17153 -1.08385 0
M  V30 7316 C 687.454 2.0088 0.157925 0
M  V30 7317 O 686.51 2.37668 0.852652 0
M  V30 7318 C 687.823 1.882 -2.34523 0
M  V30 7319 C 689.371 2.00981 -2.39949 0
M  V30 7320 C 689.846 2.75441 -3.65918 0
M  V30 7321 N 691.337 2.82989 -3.66704 0
M  V30 7322 C 692.072 3.41167 -4.60861 0
M  V30 7323 N 691.568 4.00425 -5.6536 0
M  V30 7324 N 693.361 3.38944 -4.48412 0
M  V30 7325 H 685.512 0.33053 -2.09812 0
M  V30 7326 H 687.775 0.208964 -0.924683 0
M  V30 7327 H 687.481 1.34119 -3.25123 0
M  V30 7328 H 687.355 2.88609 -2.42868 0
M  V30 7329 H 689.742 2.54234 -1.4983 0
M  V30 7330 H 689.823 0.996725 -2.35582 0
M  V30 7331 H 689.467 2.22861 -4.56394 0
M  V30 7332 H 689.397 3.77118 -3.67546 0
M  V30 7333 H 691.888 2.40912 -2.91153 0
M  V30 7334 H 692.201 4.42871 -6.33313 0
M  V30 7335 H 690.546 3.98856 -5.69157 0
M  V30 7336 H 693.737 2.91875 -3.6596 0
M  V30 7337 H 693.91 3.83989 -5.21974 0
M  V30 7338 N 687.317 1.12792 1.10072 0
M  V30 7339 C 688.733 0.864745 1.34143 0
M  V30 7340 C 688.933 -0.503201 1.95116 0
M  V30 7341 O 687.989 -1.25111 2.19325 0
M  V30 7342 C 689.302 1.98413 2.25949 0
M  V30 7343 C 690.85 2.01545 2.39476 0
M  V30 7344 C 691.325 3.12727 3.34613 0
M  V30 7345 N 692.816 3.12194 3.42183 0
M  V30 7346 C 693.551 3.94862 4.15779 0
M  V30 7347 N 693.047 4.87528 4.92228 0
M  V30 7348 N 694.84 3.82985 4.11435 0
M  V30 7349 H 686.991 2.00926 0.68866 0
M  V30 7350 H 689.254 0.874564 0.365844 0
M  V30 7351 H 688.96 2.97005 1.88364 0
M  V30 7352 H 688.834 1.89254 3.26287 0
M  V30 7353 H 691.221 1.0357 2.76328 0
M  V30 7354 H 691.302 2.14777 1.3894 0
M  V30 7355 H 690.946 4.10936 2.98486 0
M  V30 7356 H 690.876 2.96732 4.35037 0
M  V30 7357 H 693.367 2.45065 2.87666 0
M  V30 7358 H 693.68 5.47109 5.45794 0
M  V30 7359 H 692.025 4.91539 4.9134 0
M  V30 7360 H 695.216 3.09923 3.50807 0
M  V30 7361 H 695.389 4.47641 4.68531 0
M  V30 7362 N 688.795 -1.27931 0.920396 0
M  V30 7363 C 689.742 -2.27085 0.412422 0
M  V30 7364 C 690.712 -1.57858 -0.516725 0
M  V30 7365 O 691.897 -1.85717 -0.437475 0
M  V30 7366 C 689.037 -3.43466 -0.335399 0
M  V30 7367 C 688.15 -4.27425 0.627017 0
M  V30 7368 C 687.285 -5.31016 -0.139916 0
M  V30 7369 C 686.324 -6.06641 0.815683 0
M  V30 7370 N 685.461 -7.02052 0.0818439 0
M  V30 7371 H 690.301 -2.69913 1.26298 0
M  V30 7372 H 687.838 -1.32732 0.634076 0
M  V30 7373 H 689.796 -4.09744 -0.785226 0
M  V30 7374 H 688.426 -3.01611 -1.15025 0
M  V30 7375 H 687.478 -3.6113 1.19537 0
M  V30 7376 H 688.79 -4.79969 1.35763 0
M  V30 7377 H 687.944 -6.03208 -0.649998 0
M  V30 7378 H 686.683 -4.79257 -0.903543 0
M  V30 7379 H 685.688 -5.33294 1.33708 0
M  V30 7380 H 686.913 -6.60489 1.57897 0
M  V30 7381 H 684.859 -6.52634 -0.663671 0
M  V30 7382 H 684.776 -7.52249 0.752163 0
M  V30 7383 H 686.044 -7.78432 -0.407825 0
M  V30 7384 N 690.273 -0.685099 -1.4193 0
M  V30 7385 C 691.183 -0.013404 -2.34596 0
M  V30 7386 C 692.199 0.777589 -1.55658 0
M  V30 7387 O 693.375 0.717553 -1.88184 0
M  V30 7388 C 690.44 0.919031 -3.34297 0
M  V30 7389 C 689.501 0.121417 -4.29128 0
M  V30 7390 C 688.734 1.00944 -5.24067 0
M  V30 7391 O 688.957 2.24898 -5.24192 0
M  V30 7392 O 687.891 0.464724 -6.00103 0
M  V30 7393 H 691.717 -0.776978 -2.93593 0
M  V30 7394 H 689.302 -0.445379 -1.42607 0
M  V30 7395 H 691.184 1.45402 -3.9552 0
M  V30 7396 H 689.859 1.66228 -2.77759 0
M  V30 7397 H 688.766 -0.45792 -3.71287 0
M  V30 7398 H 690.099 -0.582937 -4.88736 0
M  V30 7399 N 691.751 1.51645 -0.429126 0
M  V30 7400 C 692.698 2.27542 0.386446 0
M  V30 7401 C 693.668 1.30786 1.02393 0
M  V30 7402 O 694.853 1.59678 1.0444 0
M  V30 7403 C 691.993 3.11457 1.48623 0
M  V30 7404 C 691.106 4.23196 0.867691 0
M  V30 7405 C 690.241 4.94435 1.94183 0
M  V30 7406 C 689.28 5.98108 1.30129 0
M  V30 7407 N 688.417 6.62786 2.31644 0
M  V30 7408 H 693.257 2.968 -0.267155 0
M  V30 7409 H 690.794 1.46397 -0.143591 0
M  V30 7410 H 692.752 3.58429 2.13506 0
M  V30 7411 H 691.382 2.44329 2.10957 0
M  V30 7412 H 690.434 3.80248 0.107373 0
M  V30 7413 H 691.746 4.97499 0.35997 0
M  V30 7414 H 690.9 5.44914 2.66747 0
M  V30 7415 H 689.639 4.19744 2.48326 0
M  V30 7416 H 688.644 5.4693 0.561082 0
M  V30 7417 H 689.869 6.74751 0.767303 0
M  V30 7418 H 687.815 5.90913 2.84883 0
M  V30 7419 H 687.732 7.32828 1.85741 0
M  V30 7420 H 689 7.17897 3.03717 0
M  V30 7421 N 693.229 0.160201 1.56784 0
M  V30 7422 C 694.162 -0.812797 2.13234 0
M  V30 7423 C 695.14 -1.2335 1.05942 0
M  V30 7424 O 696.324 -1.32725 1.33852 0
M  V30 7425 C 693.451 -2.09311 2.66283 0
M  V30 7426 C 692.497 -1.8173 3.85845 0
M  V30 7427 S 693.33 -0.996473 5.26147 0
M  V30 7428 C 694.486 -2.28769 5.82594 0
M  V30 7429 H 694.719 -0.332794 2.95432 0
M  V30 7430 H 692.252 -0.0542971 1.54304 0
M  V30 7431 H 694.21 -2.82854 2.97496 0
M  V30 7432 H 692.871 -2.54425 1.84192 0
M  V30 7433 H 692.064 -2.76699 4.21253 0
M  V30 7434 H 691.666 -1.16289 3.55462 0
M  V30 7435 H 693.958 -3.24319 5.9483 0
M  V30 7436 H 694.901 -1.97846 6.79899 0
M  V30 7437 H 695.309 -2.40021 5.10931 0
M  V30 7438 N 694.707 -1.5719 -0.113559 0
M  V30 7439 C 695.954 -1.85138 -0.820382 0
M  V30 7440 C 696.282 -0.74608 -1.79622 0
M  V30 7441 O 695.537 0.262077 -1.93937 0
M  V30 7442 C 695.836 -3.19593 -1.59984 0
M  V30 7443 C 695.502 -4.44315 -0.767809 0
M  V30 7444 C 694.164 -4.78179 -0.538379 0
M  V30 7445 C 696.516 -5.2086 -0.188203 0
M  V30 7446 C 693.844 -5.86028 0.28082 0
M  V30 7447 C 696.196 -6.29572 0.618217 0
M  V30 7448 C 694.86 -6.61964 0.857912 0
M  V30 7449 H 694.13 -0.677467 -0.300199 0
M  V30 7450 H 696.777 -1.91322 -0.0825443 0
M  V30 7451 H 695.082 -3.0901 -2.40874 0
M  V30 7452 H 696.779 -3.3844 -2.1508 0
M  V30 7453 H 693.369 -4.17786 -0.956724 0
M  V30 7454 H 697.553 -4.95045 -0.352658 0
M  V30 7455 H 692.809 -6.09547 0.475693 0
M  V30 7456 H 696.983 -6.88064 1.0743 0
M  V30 7457 H 694.61 -7.45365 1.49451 0
M  V30 7458 N 696.185 0.383891 -1.52853 0
M  V30 7459 C 697.601 0.724316 -1.42218 0
M  V30 7460 C 697.801 1.93943 -0.546654 0
M  V30 7461 O 696.857 2.5249 -0.0220562 0
M  V30 7462 C 698.17 0.954635 -2.85144 0
M  V30 7463 C 699.718 1.05579 -2.94656 0
M  V30 7464 C 700.193 1.3187 -4.38605 0
M  V30 7465 N 701.684 1.38681 -4.41952 0
M  V30 7466 C 702.419 1.60699 -5.50421 0
M  V30 7467 N 701.915 1.80154 -6.68967 0
M  V30 7468 N 703.708 1.6292 -5.37972 0
M  V30 7469 H 695.859 -0.4156 -2.08294 0
M  V30 7470 H 698.122 -0.123776 -0.939885 0
M  V30 7471 H 697.828 0.133829 -3.51445 0
M  V30 7472 H 697.702 1.86788 -3.27704 0
M  V30 7473 H 700.089 1.86716 -2.2852 0
M  V30 7474 H 700.17 0.120338 -2.55517 0
M  V30 7475 H 699.814 0.512416 -5.05309 0
M  V30 7476 H 699.744 2.26708 -4.75301 0
M  V30 7477 H 702.235 1.25334 -3.56511 0
M  V30 7478 H 702.548 1.96476 -7.47407 0
M  V30 7479 H 700.893 1.77368 -6.71986 0
M  V30 7480 H 704.084 1.47276 -4.44328 0
M  V30 7481 H 704.257 1.79739 -6.22574 0
M  V30 7482 N 697.663 1.43903 0.642637 0
M  V30 7483 C 698.91 1.46079 1.40239 0
M  V30 7484 C 699.238 0.0890335 1.94296 0
M  V30 7485 O 698.493 -0.907533 1.73385 0
M  V30 7486 C 698.792 2.45907 2.59354 0
M  V30 7487 C 698.458 3.91522 2.23654 0
M  V30 7488 C 697.12 4.31179 2.1363 0
M  V30 7489 C 699.472 4.83242 1.95261 0
M  V30 7490 C 696.8 5.60495 1.73384 0
M  V30 7491 C 699.152 6.12933 1.56511 0
M  V30 7492 C 697.816 6.51556 1.4502 0
M  V30 7493 H 697.086 0.534542 0.513172 0
M  V30 7494 H 699.733 1.77047 0.72984 0
M  V30 7495 H 698.038 2.08381 3.3179 0
M  V30 7496 H 699.735 2.44842 3.17574 0
M  V30 7497 H 696.325 3.60142 2.32369 0
M  V30 7498 H 700.509 4.53367 2.0192 0
M  V30 7499 H 695.765 5.89249 1.63082 0
M  V30 7500 H 699.939 6.83469 1.33576 0
M  V30 7501 H 697.566 7.51663 1.13606 0
M  V30 7502 N 699.141 -0.881989 1.30609 0
M  V30 7503 C 700.388 -1.63405 1.19604 0
M  V30 7504 C 700.716 -1.92905 -0.248574 0
M  V30 7505 O 699.971 -1.55062 -1.19391 0
M  V30 7506 C 700.27 -2.97999 1.97311 0
M  V30 7507 C 699.936 -2.88039 3.46907 0
M  V30 7508 C 698.598 -2.85029 3.877 0
M  V30 7509 C 700.95 -2.75948 4.42156 0
M  V30 7510 C 698.278 -2.67772 5.2203 0
M  V30 7511 C 700.63 -2.60228 5.76597 0
M  V30 7512 C 699.294 -2.55595 6.16626 0
M  V30 7513 H 698.564 -0.597941 0.437662 0
M  V30 7514 H 701.211 -1.02524 1.61744 0
M  V30 7515 H 699.516 -3.62847 1.47815 0
M  V30 7516 H 701.213 -3.55156 1.86186 0
M  V30 7517 H 697.803 -2.91192 3.14492 0
M  V30 7518 H 701.987 -2.77337 4.1158 0
M  V30 7519 H 697.243 -2.62601 5.52133 0
M  V30 7520 H 701.417 -2.49847 6.50038 0
M  V30 7521 H 699.044 -2.41981 7.20659 0
M  V30 7522 N 700.619 -1.13374 -1.09472 0
M  V30 7523 C 701.868 -0.889844 -1.8101 0
M  V30 7524 C 702.181 0.585686 -1.86625 0
M  V30 7525 O 703.387 0.946497 -2.54467 0
M  V30 7526 C 701.843 -1.54241 -3.25174 0
M  V30 7527 C 701.451 -3.05343 -3.27826 0
M  V30 7528 C 703.195 -1.37919 -4.0147 0
M  V30 7529 C 701.102 -3.63486 -4.6651 0
M  V30 7530 H 700.032 -0.329256 -0.678311 0
M  V30 7531 H 702.683 -1.36139 -1.23038 0
M  V30 7532 H 701.065 -0.998525 -3.83204 0
M  V30 7533 H 702.239 -3.66307 -2.79563 0
M  V30 7534 H 700.554 -3.21175 -2.65019 0
M  V30 7535 H 703.151 -1.78771 -5.03929 0
M  V30 7536 H 703.494 -0.323987 -4.15037 0
M  V30 7537 H 704.027 -1.89284 -3.49881 0
M  V30 7538 H 700.766 -4.68811 -4.58145 0
M  V30 7539 H 700.286 -3.073 -5.15099 0
M  V30 7540 H 701.965 -3.63134 -5.35484 0
M  V30 7541 N 702.098 1.27442 -0.927168 0
M  V30 7542 C 703.514 1.46754 -0.627329 0
M  V30 7543 C 703.714 1.83902 0.823549 0
M  V30 7544 O 702.77 1.95215 1.60148 0
M  V30 7545 C 704.083 2.56045 -1.57674 0
M  V30 7546 C 705.631 2.69906 -1.58491 0
M  V30 7547 C 706.106 3.82355 -2.52128 0
M  V30 7548 N 707.597 3.89728 -2.50332 0
M  V30 7549 C 708.332 4.76155 -3.19475 0
M  V30 7550 N 707.828 5.67073 -3.97995 0
M  V30 7551 N 709.621 4.6988 -3.08496 0
M  V30 7552 H 701.772 1.01613 -1.86517 0
M  V30 7553 H 704.035 0.507443 -0.800753 0
M  V30 7554 H 703.741 2.35542 -2.61176 0
M  V30 7555 H 703.615 3.53423 -1.31804 0
M  V30 7556 H 706.002 2.89792 -0.557208 0
M  V30 7557 H 706.083 1.73018 -1.8841 0
M  V30 7558 H 705.727 3.63224 -3.55008 0
M  V30 7559 H 705.657 4.7867 -2.19505 0
M  V30 7560 H 708.148 3.24717 -1.93306 0
M  V30 7561 H 708.461 6.2988 -4.4774 0
M  V30 7562 H 706.806 5.6687 -4.02098 0
M  V30 7563 H 709.997 3.97848 -2.46646 0
M  V30 7564 H 710.17 5.37017 -3.62652 0
M  V30 7565 N 703.576 0.692616 1.41565 0
M  V30 7566 C 704.992 0.363878 1.55397 0
M  V30 7567 C 705.192 -1.1294 1.66874 0
M  V30 7568 O 704.248 -1.91517 1.64552 0
M  V30 7569 C 705.561 1.10982 2.7947 0
M  V30 7570 C 707.109 1.09387 2.93263 0
M  V30 7571 C 707.584 1.8215 4.20221 0
M  V30 7572 N 709.075 1.79105 4.27172 0
M  V30 7573 C 709.81 2.32247 5.2426 0
M  V30 7574 N 709.306 2.93847 6.27396 0
M  V30 7575 N 711.099 2.22519 5.1618 0
M  V30 7576 H 703.25 1.66116 1.3236 0
M  V30 7577 H 705.513 0.700848 0.63837 0
M  V30 7578 H 705.219 2.1647 2.77188 0
M  V30 7579 H 705.093 0.686492 3.709 0
M  V30 7580 H 707.48 0.0472638 2.95062 0
M  V30 7581 H 707.561 1.55623 2.03015 0
M  V30 7582 H 707.205 2.86789 4.19183 0
M  V30 7583 H 707.135 1.33351 5.09436 0
M  V30 7584 H 709.626 1.34191 3.53272 0
M  V30 7585 H 709.939 3.31972 6.97864 0
M  V30 7586 H 708.284 2.97924 6.27906 0
M  V30 7587 H 711.475 1.7407 4.34531 0
M  V30 7588 H 711.648 2.64239 5.91677 0
M  V30 7589 N 705.054 -1.51416 0.437162 0
M  V30 7590 C 705.987 -2.24309 -0.419602 0
M  V30 7591 C 706.965 -1.26236 -1.02485 0
M  V30 7592 O 708.149 -1.5537 -1.06735 0
M  V30 7593 C 705.276 -2.99335 -1.58482 0
M  V30 7594 C 704.322 -4.12064 -1.10027 0
M  V30 7595 S 705.155 -5.35483 -0.0424476 0
M  V30 7596 C 706.311 -6.14047 -1.21234 0
M  V30 7597 H 706.544 -2.96632 0.199259 0
M  V30 7598 H 704.077 -1.528 0.22168 0
M  V30 7599 H 706.035 -3.43159 -2.25282 0
M  V30 7600 H 704.696 -2.26602 -2.17509 0
M  V30 7601 H 703.889 -4.63836 -1.97161 0
M  V30 7602 H 703.491 -3.70499 -0.510507 0
M  V30 7603 H 705.783 -6.43123 -2.13072 0
M  V30 7604 H 706.726 -7.04279 -0.734582 0
M  V30 7605 H 707.134 -5.45538 -1.45082 0
M  V30 7606 N 706.532 -0.168513 -1.56696 0
M  V30 7607 C 707.778 0.477865 -1.9709 0
M  V30 7608 C 708.111 1.63084 -1.05438 0
M  V30 7609 O 707.386 1.94238 -0.10095 0
M  V30 7610 C 707.669 0.963521 -3.4697 0
M  V30 7611 C 707.522 -0.189443 -4.49401 0
M  V30 7612 C 708.841 1.83813 -3.99876 0
M  V30 7613 H 705.96 0.172229 -0.716593 0
M  V30 7614 H 708.602 -0.254083 -1.88293 0
M  V30 7615 H 706.752 1.58724 -3.54597 0
M  V30 7616 H 708.424 -0.826451 -4.53836 0
M  V30 7617 H 706.667 -0.845366 -4.25483 0
M  V30 7618 H 707.338 0.192446 -5.51664 0
M  V30 7619 H 709.814 1.31235 -3.94863 0
M  V30 7620 H 708.69 2.14697 -5.0517 0
M  V30 7621 H 708.951 2.78289 -3.43523 0
M  V30 7622 N 708.01 1.57248 0.105221 0
M  V30 7623 C 708.957 2.01338 1.12835 0
M  V30 7624 C 709.927 0.887897 1.40377 0
M  V30 7625 O 711.112 1.15315 1.5201 0
M  V30 7626 C 708.252 2.43432 2.44611 0
M  V30 7627 C 707.365 3.69457 2.23888 0
M  V30 7628 C 706.5 4.00473 3.48991 0
M  V30 7629 C 705.539 5.19638 3.23485 0
M  V30 7630 N 704.676 5.46457 4.40828 0
M  V30 7631 H 709.516 2.88527 0.745386 0
M  V30 7632 H 707.053 1.42714 0.356535 0
M  V30 7633 H 709.011 2.65879 3.21503 0
M  V30 7634 H 707.641 1.59266 2.80774 0
M  V30 7635 H 706.693 3.54545 1.37847 0
M  V30 7636 H 708.005 4.56497 2.01026 0
M  V30 7637 H 707.159 4.23642 4.34295 0
M  V30 7638 H 705.898 3.11935 3.74897 0
M  V30 7639 H 704.903 4.96299 2.36574 0
M  V30 7640 H 706.128 6.09766 2.98935 0
M  V30 7641 H 704.074 4.60876 4.66829 0
M  V30 7642 H 703.991 6.27849 4.2112 0
M  V30 7643 H 705.259 5.74155 5.27225 0
M  V30 7644 N 709.488 -0.375779 1.53054 0
M  V30 7645 C 710.451 -1.44254 1.7811 0
M  V30 7646 C 711.451 -1.47018 0.651328 0
M  V30 7647 O 712.641 -1.47957 0.919472 0
M  V30 7648 C 709.773 -2.8345 1.89391 0
M  V30 7649 H 710.966 -1.23316 2.73374 0
M  V30 7650 H 708.519 -0.608312 1.43977 0
M  V30 7651 H 709.254 -3.09716 0.961589 0
M  V30 7652 H 709.039 -2.82844 2.71555 0
M  V30 7653 H 710.529 -3.60722 2.10404 0
M  V30 7654 N 710.966 -1.44241 -0.634997 0
M  V30 7655 C 711.898 -1.46793 -1.76024 0
M  V30 7656 C 712.911 -0.361781 -1.58729 0
M  V30 7657 O 714.1 -0.627297 -1.67114 0
M  V30 7658 C 711.2 -1.28248 -3.13697 0
M  V30 7659 C 710.373 -2.52038 -3.57485 0
M  V30 7660 C 709.432 -2.2845 -4.74022 0
M  V30 7661 O 708.458 -3.01915 -4.82531 0
M  V30 7662 N 709.66 -1.31264 -5.65464 0
M  V30 7663 H 712.425 -2.43797 -1.74307 0
M  V30 7664 H 709.986 -1.39631 -0.819438 0
M  V30 7665 H 711.978 -1.10321 -3.89373 0
M  V30 7666 H 710.548 -0.39623 -3.10079 0
M  V30 7667 H 709.768 -2.85268 -2.72059 0
M  V30 7668 H 711.056 -3.34382 -3.83492 0
M  V30 7669 H 710.454 -0.705817 -5.6128 0
M  V30 7670 H 709.011 -1.19316 -6.40786 0
M  V30 7671 N 712.444 0.87505 -1.31075 0
M  V30 7672 C 713.669 1.66583 -1.23551 0
M  V30 7673 C 714.094 1.87067 0.19686 0
M  V30 7674 O 713.452 1.40877 1.1412 0
M  V30 7675 C 713.5 3.01401 -1.97965 0
M  V30 7676 O 712.604 3.90923 -1.31351 0
M  V30 7677 H 711.945 0.508645 -0.426821 0
M  V30 7678 H 714.475 1.09139 -1.7306 0
M  V30 7679 H 714.485 3.51374 -2.07366 0
M  V30 7680 H 713.16 2.85812 -3.02133 0
M  V30 7681 H 711.737 3.49369 -1.30368 0
M  V30 7682 N 713.922 1.13953 1.08869 0
M  V30 7683 C 715.169 0.90481 1.81161 0
M  V30 7684 C 715.497 -0.568824 1.85996 0
M  V30 7685 O 714.752 -1.43723 1.32823 0
M  V30 7686 C 715.051 1.44495 3.26888 0
M  V30 7687 C 714.717 2.93641 3.42178 0
M  V30 7688 C 713.379 3.34361 3.46059 0
M  V30 7689 C 715.731 3.89568 3.46246 0
M  V30 7690 C 713.059 4.69681 3.51592 0
M  V30 7691 C 715.411 5.2474 3.53314 0
M  V30 7692 C 714.075 5.64979 3.55465 0
M  V30 7693 H 713.345 0.331094 0.662916 0
M  V30 7694 H 715.992 1.42242 1.28217 0
M  V30 7695 H 714.297 0.848169 3.82509 0
M  V30 7696 H 715.994 1.23934 3.81368 0
M  V30 7697 H 712.584 2.61156 3.39846 0
M  V30 7698 H 716.768 3.59192 3.42483 0
M  V30 7699 H 712.024 5.00224 3.51547 0
M  V30 7700 H 716.198 5.98882 3.55406 0
M  V30 7701 H 713.825 6.69821 3.59505 0
M  V30 7702 N 715.4 -1.26948 0.933913 0
M  V30 7703 C 716.63 -1.97898 0.593279 0
M  V30 7704 C 717.038 -1.69806 -0.834412 0
M  V30 7705 O 716.381 -0.958704 -1.56699 0
M  V30 7706 C 716.443 -3.51657 0.746825 0
M  V30 7707 C 716.107 -4.03384 2.14779 0
M  V30 7708 C 717.104 -4.15682 3.12257 0
M  V30 7709 C 714.789 -4.37577 2.46641 0
M  V30 7710 C 716.783 -4.61455 4.39702 0
M  V30 7711 C 714.47 -4.8304 3.7432 0
M  V30 7712 C 715.468 -4.94939 4.70664 0
M  V30 7713 O 715.156 -5.39403 5.96071 0
M  V30 7714 H 714.888 -0.63814 0.223055 0
M  V30 7715 H 717.442 -1.62608 1.2549 0
M  V30 7716 H 715.672 -3.8669 0.0280889 0
M  V30 7717 H 717.361 -4.03821 0.410328 0
M  V30 7718 H 718.127 -3.89519 2.88964 0
M  V30 7719 H 714.006 -4.27554 1.72391 0
M  V30 7720 H 717.55 -4.70658 5.14905 0
M  V30 7721 H 713.447 -5.08646 3.97429 0
M  V30 7722 H 714.215 -5.57641 5.99148 0
M  V30 7723 N 716.879 -0.700114 -1.41195 0
M  V30 7724 C 718.125 -0.242122 -2.01954 0
M  V30 7725 C 718.48 1.14697 -1.54475 0
M  V30 7726 O 717.773 1.76392 -0.748095 0
M  V30 7727 C 717.967 -0.243986 -3.56566 0
M  V30 7728 C 717.796 -1.63172 -4.19053 0
M  V30 7729 C 716.566 -2.23566 -4.53152 0
M  V30 7730 C 718.764 -2.57916 -4.44954 0
M  V30 7731 N 716.746 -3.54856 -5.00949 0
M  V30 7732 C 718.117 -3.73892 -4.94576 0
M  V30 7733 C 720.172 -2.56125 -4.26971 0
M  V30 7734 C 718.875 -4.88363 -5.28104 0
M  V30 7735 C 720.901 -3.69712 -4.61592 0
M  V30 7736 C 720.263 -4.84418 -5.11389 0
M  V30 7737 H 716.362 -0.134088 -0.770418 0
M  V30 7738 H 718.946 -0.918576 -1.71669 0
M  V30 7739 H 717.117 0.401971 -3.86314 0
M  V30 7740 H 718.849 0.229261 -4.0405 0
M  V30 7741 H 715.604 -1.75809 -4.39759 0
M  V30 7742 H 716.028 -4.22167 -5.29249 0
M  V30 7743 H 720.67 -1.68656 -3.87705 0
M  V30 7744 H 718.388 -5.76488 -5.66292 0
M  V30 7745 H 721.974 -3.69583 -4.49332 0
M  V30 7746 H 720.854 -5.70855 -5.37675 0
M  V30 7747 N 718.357 1.51182 -0.445186 0
M  V30 7748 C 719.603 2.02452 0.11882 0
M  V30 7749 C 719.936 1.32824 1.41673 0
M  V30 7750 O 719.211 0.445637 1.89326 0
M  V30 7751 C 719.494 3.5859 0.329475 0
M  V30 7752 C 719.347 4.38823 -0.987638 0
M  V30 7753 C 720.666 4.26241 1.09575 0
M  V30 7754 H 717.785 0.735819 0.0417092 0
M  V30 7755 H 720.427 1.80747 -0.585718 0
M  V30 7756 H 718.577 3.77214 0.9296 0
M  V30 7757 H 720.249 4.3183 -1.62235 0
M  V30 7758 H 718.492 4.03594 -1.59041 0
M  V30 7759 H 719.163 5.46257 -0.794192 0
M  V30 7760 H 721.639 4.11934 0.587328 0
M  V30 7761 H 720.515 5.35354 1.21191 0
M  V30 7762 H 720.776 3.87635 2.12584 0
M  V30 7763 N 719.835 0.176821 1.56605 0
M  V30 7764 C 721.081 -0.467406 1.9734 0
M  V30 7765 C 721.414 -1.62523 1.06301 0
M  V30 7766 O 720.689 -1.94182 0.11125 0
M  V30 7767 C 720.972 -0.945106 3.47476 0
M  V30 7768 C 720.825 0.213273 4.49294 0
M  V30 7769 C 722.144 -1.8169 4.00845 0
M  V30 7770 H 719.263 -0.168426 0.717497 0
M  V30 7771 H 721.905 0.264065 1.88156 0
M  V30 7772 H 720.055 -1.56841 3.55434 0
M  V30 7773 H 721.727 0.850508 4.53392 0
M  V30 7774 H 719.97 0.867918 4.25029 0
M  V30 7775 H 720.641 -0.163187 5.51759 0
M  V30 7776 H 723.117 -1.29139 3.95553 0
M  V30 7777 H 721.993 -2.12015 5.06301 0
M  V30 7778 H 722.254 -2.76463 3.44994 0
M  V30 7779 N 721.313 -1.57302 -0.09688 0
M  V30 7780 C 722.243 -2.0497 -1.11846 0
M  V30 7781 C 723.224 -0.938278 -1.41882 0
M  V30 7782 O 724.409 -1.20943 -1.51942 0
M  V30 7783 C 721.539 -2.47264 -2.43881 0
M  V30 7784 C 720.493 -3.62053 -2.28257 0
M  V30 7785 C 719.819 -3.90318 -3.65453 0
M  V30 7786 C 721.119 -4.93005 -1.72461 0
M  V30 7787 H 722.813 -2.90567 -0.721888 0
M  V30 7788 H 720.359 -1.39786 -0.345803 0
M  V30 7789 H 722.312 -2.7922 -3.15617 0
M  V30 7790 H 721.036 -1.58664 -2.8547 0
M  V30 7791 H 719.695 -3.30341 -1.58967 0
M  V30 7792 H 719.343 -2.98889 -4.04567 0
M  V30 7793 H 719.043 -4.67597 -3.55846 0
M  V30 7794 H 720.567 -4.24747 -4.3866 0
M  V30 7795 H 721.981 -5.23354 -2.34036 0
M  V30 7796 H 720.378 -5.74436 -1.73618 0
M  V30 7797 H 721.448 -4.80053 -0.683898 0
M  V30 7798 N 722.791 0.367657 -1.53252 0
M  V30 7799 C 724.031 1.11923 -1.71034 0
M  V30 7800 C 724.395 1.86618 -0.45143 0
M  V30 7801 O 725.596 2.63996 -0.505915 0
M  V30 7802 C 723.867 2.05461 -2.92439 0
M  V30 7803 S 725.426 2.88167 -3.30916 0
M  V30 7804 H 722.244 0.378549 -0.601848 0
M  V30 7805 H 724.846 0.400757 -1.91348 0
M  V30 7806 H 723.55 1.49346 -3.82262 0
M  V30 7807 H 723.081 2.81784 -2.7452 0
M  V30 7808 H 725.096 4.07746 -2.82767 0
M  V30 7809 N 724.269 1.44576 0.627338 0
M  V30 7810 C 725.515 1.47777 1.38888 0
M  V30 7811 C 725.848 0.111406 1.9388 0
M  V30 7812 O 725.123 -0.87149 1.73883 0
M  V30 7813 C 725.406 2.54119 2.55138 0
M  V30 7814 C 725.259 4.00128 2.0547 0
M  V30 7815 C 726.578 2.56929 3.57317 0
M  V30 7816 H 723.697 0.538048 0.50366 0
M  V30 7817 H 726.339 1.76277 0.708978 0
M  V30 7818 H 724.489 2.29948 3.13139 0
M  V30 7819 H 726.161 4.35444 1.5227 0
M  V30 7820 H 724.404 4.11724 1.36623 0
M  V30 7821 H 725.075 4.7019 2.89181 0
M  V30 7822 H 727.551 2.78536 3.09122 0
M  V30 7823 H 726.427 3.33234 4.36173 0
M  V30 7824 H 726.688 1.6127 4.11636 0
M  V30 7825 N 725.747 -0.868086 1.31537 0
M  V30 7826 C 726.993 -1.62367 1.2151 0
M  V30 7827 C 727.326 -1.92883 -0.225819 0
M  V30 7828 O 726.601 -1.56176 -1.15927 0
M  V30 7829 C 726.884 -2.95268 2.06129 0
M  V30 7830 C 726.737 -2.71619 3.58529 0
M  V30 7831 C 728.056 -3.96391 1.91212 0
M  V30 7832 H 725.175 -0.589178 0.442762 0
M  V30 7833 H 727.817 -1.00336 1.61347 0
M  V30 7834 H 725.967 -3.4821 1.72284 0
M  V30 7835 H 727.639 -2.25334 4.0252 0
M  V30 7836 H 725.882 -2.05817 3.81866 0
M  V30 7837 H 726.553 -3.66192 4.13047 0
M  V30 7838 H 729.029 -3.52663 2.20834 0
M  V30 7839 H 727.905 -4.87263 2.52718 0
M  V30 7840 H 728.166 -4.33335 0.875953 0
M  V30 7841 N 727.225 -1.14528 -1.08264 0
M  V30 7842 C 728.188 -0.83632 -2.13397 0
M  V30 7843 C 729.188 0.159715 -1.60005 0
M  V30 7844 O 730.378 -0.0688098 -1.74064 0
M  V30 7845 C 727.51 -0.246973 -3.40004 0
M  V30 7846 H 728.703 -1.76808 -2.42237 0
M  V30 7847 H 726.256 -0.951509 -1.24 0
M  V30 7848 H 726.991 0.693436 -3.168 0
M  V30 7849 H 726.776 -0.964412 -3.80055 0
M  V30 7850 H 728.266 -0.0480679 -4.17572 0
M  V30 7851 N 728.703 1.26451 -0.940633 0
M  V30 7852 C 729.633 2.28773 -0.467479 0
M  V30 7853 C 730.614 1.63218 0.478955 0
M  V30 7854 O 731.799 1.90427 0.380929 0
M  V30 7855 C 728.929 3.46259 0.268656 0
M  V30 7856 C 727.883 4.23898 -0.591171 0
M  V30 7857 C 727.209 5.33993 0.274891 0
M  V30 7858 C 728.509 4.87974 -1.86223 0
M  V30 7859 H 730.203 2.68601 -1.32265 0
M  V30 7860 H 727.749 1.29123 -0.637436 0
M  V30 7861 H 729.702 4.16951 0.610696 0
M  V30 7862 H 728.426 3.05383 1.15796 0
M  V30 7863 H 727.085 3.54969 -0.916098 0
M  V30 7864 H 726.733 4.89358 1.16353 0
M  V30 7865 H 726.433 5.86849 -0.297006 0
M  V30 7866 H 727.957 6.07523 0.612213 0
M  V30 7867 H 729.371 5.50883 -1.58747 0
M  V30 7868 H 727.768 5.50945 -2.37866 0
M  V30 7869 H 728.838 4.10945 -2.57394 0
M  V30 7870 N 730.181 0.707592 1.40822 0
M  V30 7871 C 731.129 0.0386643 2.32568 0
M  V30 7872 C 732.123 -0.755653 1.51612 0
M  V30 7873 O 733.329 -0.659921 1.67467 0
M  V30 7874 H 729.704 -0.00629912 0.751974 0
M  V30 7875 H 731.675 0.8293 2.86645 0
M  V30 7876 C 730.424 -0.87496 3.36511 0
M  V30 7877 H 729.747 -0.273157 3.98866 0
M  V30 7878 H 731.187 -1.31111 4.03219 0
M  V30 7879 C 729.646 -1.99672 2.71353 0
M  V30 7880 O 730.176 -3.08676 2.57064 0
M  V30 7881 N 728.382 -1.77799 2.29861 0
M  V30 7882 H 727.929 -0.89147 2.41683 0
M  V30 7883 H 727.887 -2.53036 1.86601 0
M  V30 7884 N 731.66 -1.50943 0.453197 0
M  V30 7885 C 732.888 -2.06628 -0.106135 0
M  V30 7886 C 733.303 -1.31901 -1.35084 0
M  V30 7887 O 732.66 -0.383074 -1.78434 0
M  V30 7888 C 732.711 -3.5914 -0.412368 0
M  V30 7889 O 732.432 -4.31047 0.782948 0
M  V30 7890 C 733.933 -4.31391 -1.02064 0
M  V30 7891 H 731.153 -0.670999 -0.000885896 0
M  V30 7892 H 733.697 -1.94331 0.63684 0
M  V30 7893 H 731.852 -3.71299 -1.10526 0
M  V30 7894 H 732.266 -5.21948 0.516736 0
M  V30 7895 H 733.74 -5.39135 -1.1848 0
M  V30 7896 H 734.217 -3.90714 -2.00598 0
M  V30 7897 H 734.823 -4.23716 -0.366664 0
M  V30 7898 N 733.138 -0.185124 -1.56509 0
M  V30 7899 C 734.068 0.735098 -2.21627 0
M  V30 7900 C 735.049 1.2288 -1.1762 0
M  V30 7901 O 736.234 1.27945 -1.46095 0
M  V30 7902 C 733.364 1.95889 -2.86783 0
M  V30 7903 C 732.318 1.6005 -3.96948 0
M  V30 7904 C 731.644 2.90009 -4.4922 0
M  V30 7905 C 732.944 0.818008 -5.15855 0
M  V30 7906 H 734.638 0.192274 -2.98782 0
M  V30 7907 H 732.184 0.0910393 -1.43712 0
M  V30 7908 H 734.137 2.60779 -3.31017 0
M  V30 7909 H 732.861 2.52608 -2.07018 0
M  V30 7910 H 731.52 0.975237 -3.5339 0
M  V30 7911 H 731.168 3.44797 -3.6623 0
M  V30 7912 H 730.868 2.66778 -5.23549 0
M  V30 7913 H 732.392 3.55904 -4.9615 0
M  V30 7914 H 733.806 1.36979 -5.56695 0
M  V30 7915 H 732.203 0.684207 -5.96187 0
M  V30 7916 H 733.273 -0.182939 -4.84555 0
M  V30 7917 N 734.616 1.57351 0.0885366 0
M  V30 7918 C 735.856 1.88248 0.796362 0
M  V30 7919 C 736.22 0.776915 1.75579 0
M  V30 7920 O 737.421 0.968485 2.50747 0
M  V30 7921 C 735.692 3.24385 1.50031 0
M  V30 7922 S 737.251 3.76991 2.24551 0
M  V30 7923 H 734.069 0.659697 0.265181 0
M  V30 7924 H 736.671 1.95428 0.0531843 0
M  V30 7925 H 735.375 4.02764 0.788 0
M  V30 7926 H 734.906 3.20361 2.28325 0
M  V30 7927 H 736.921 3.50933 3.508 0
M  V30 7928 N 736.094 -0.359525 1.53444 0
M  V30 7929 C 737.34 -1.10315 1.70172 0
M  V30 7930 C 737.673 -1.88788 0.455287 0
M  V30 7931 O 736.948 -1.86635 -0.547514 0
M  V30 7932 C 737.231 -2.05744 2.95536 0
M  V30 7933 C 737.084 -1.3084 4.3035 0
M  V30 7934 C 738.403 -3.05784 3.16518 0
M  V30 7935 H 735.522 -0.399662 0.619225 0
M  V30 7936 H 738.164 -0.383338 1.86093 0
M  V30 7937 H 736.314 -2.67125 2.82093 0
M  V30 7938 H 737.986 -0.721959 4.55615 0
M  V30 7939 H 736.229 -0.610283 4.29486 0
M  V30 7940 H 736.9 -2.00718 5.14214 0
M  V30 7941 H 739.376 -2.5451 3.29187 0
M  V30 7942 H 738.252 -3.69772 4.05659 0
M  V30 7943 H 738.513 -3.76289 2.32076 0
M  V30 7944 N 737.572 -1.44907 -0.619662 0
M  V30 7945 C 738.535 -1.52282 -1.71297 0
M  V30 7946 C 739.535 -0.40359 -1.55653 0
M  V30 7947 O 740.725 -0.666638 -1.6094 0
M  V30 7948 C 737.857 -1.40778 -3.10474 0
M  V30 7949 H 739.05 -2.49683 -1.66128 0
M  V30 7950 H 736.603 -1.32168 -0.834339 0
M  V30 7951 H 737.338 -0.445156 -3.2123 0
M  V30 7952 H 737.123 -2.21947 -3.23237 0
M  V30 7953 H 738.613 -1.48946 -3.90135 0
M  V30 7954 N 739.05 0.861098 -1.31996 0
M  V30 7955 C 739.983 1.97266 -1.14724 0
M  V30 7956 C 740.961 1.62528 -0.0483789 0
M  V30 7957 O 742.145 1.87366 -0.206478 0
M  V30 7958 C 739.272 3.30181 -0.754861 0
M  V30 7959 C 738.318 3.839 -1.85804 0
M  V30 7960 S 739.151 4.08274 -3.46515 0
M  V30 7961 C 740.307 5.44174 -3.09235 0
M  V30 7962 H 740.54 2.11614 -2.08822 0
M  V30 7963 H 738.073 1.01232 -1.16582 0
M  V30 7964 H 740.031 4.06996 -0.535232 0
M  V30 7965 H 738.692 3.13655 0.167155 0
M  V30 7966 H 737.885 4.80013 -1.53633 0
M  V30 7967 H 737.487 3.13907 -2.03318 0
M  V30 7968 H 739.779 6.26172 -2.58679 0
M  V30 7969 H 740.722 5.81301 -4.04345 0
M  V30 7970 H 741.13 5.0787 -2.46431 0
M  V30 7971 N 740.528 1.15101 1.07655 0
M  V30 7972 C 741.774 0.925343 1.80458 0
M  V30 7973 C 742.107 -0.546354 1.86356 0
M  V30 7974 O 741.382 -1.40496 1.34503 0
M  V30 7975 C 741.665 1.53646 3.25676 0
M  V30 7976 C 741.518 3.07854 3.27942 0
M  V30 7977 C 742.837 1.21968 4.22861 0
M  V30 7978 H 739.956 0.337592 0.655134 0
M  V30 7979 H 742.598 1.42217 1.25993 0
M  V30 7980 H 740.748 1.11395 3.72187 0
M  V30 7981 H 742.42 3.58989 2.89697 0
M  V30 7982 H 740.663 3.41904 2.66991 0
M  V30 7983 H 741.334 3.45725 4.30324 0
M  V30 7984 H 743.81 1.5851 3.84726 0
M  V30 7985 H 742.686 1.67349 5.22767 0
M  V30 7986 H 742.947 0.136207 4.4189 0
M  V30 7987 N 742.006 -1.2595 0.947325 0
M  V30 7988 C 742.956 -2.23859 0.432547 0
M  V30 7989 C 743.94 -1.53755 -0.474154 0
M  V30 7990 O 745.132 -1.74293 -0.308397 0
M  V30 7991 C 742.261 -3.42027 -0.295318 0
M  V30 7992 C 741.347 -4.19409 0.62903 0
M  V30 7993 N 741.738 -4.74284 1.7575 0
M  V30 7994 C 740.036 -4.43866 0.435805 0
M  V30 7995 C 740.737 -5.32821 2.33401 0
M  V30 7996 N 739.713 -5.18858 1.62135 0
M  V30 7997 H 743.515 -2.63886 1.29388 0
M  V30 7998 H 741.029 -1.41105 0.80393 0
M  V30 7999 H 743.026 -4.11297 -0.681188 0
M  V30 8000 H 741.686 -3.03526 -1.15334 0
M  V30 8001 H 742.697 -4.71641 2.13952 0
M  V30 8002 H 739.374 -4.15768 -0.37994 0
M  V30 8003 H 740.764 -5.86111 3.28517 0
M  V30 8004 N 743.484 -0.715051 -1.40445 0
M  V30 8005 C 744.714 -0.263576 -2.04912 0
M  V30 8006 C 745.122 1.09943 -1.53978 0
M  V30 8007 O 744.465 1.70203 -0.691133 0
M  V30 8008 C 744.527 -0.165048 -3.59121 0
M  V30 8009 C 744.191 -1.46325 -4.32941 0
M  V30 8010 C 745.188 -2.40506 -4.60926 0
M  V30 8011 C 742.873 -1.72203 -4.7186 0
M  V30 8012 C 744.867 -3.58812 -5.26814 0
M  V30 8013 C 742.554 -2.9079 -5.3748 0
M  V30 8014 C 743.552 -3.83917 -5.64887 0
M  V30 8015 O 743.24 -5.00424 -6.29151 0
M  V30 8016 H 742.972 -0.116317 -0.665918 0
M  V30 8017 H 745.526 -0.973774 -1.8085 0
M  V30 8018 H 743.756 0.601088 -3.82 0
M  V30 8019 H 745.445 0.251794 -4.05118 0
M  V30 8020 H 746.211 -2.21778 -4.31323 0
M  V30 8021 H 742.09 -1.00571 -4.49896 0
M  V30 8022 H 745.634 -4.31517 -5.48123 0
M  V30 8023 H 741.531 -3.09428 -5.66502 0
M  V30 8024 H 742.299 -5.00494 -6.47648 0
M  V30 8025 N 744.962 1.50701 -0.461195 0
M  V30 8026 C 745.91 2.29918 0.352231 0
M  V30 8027 C 746.904 1.36778 0.999403 0
M  V30 8028 O 748.11 1.54015 0.931639 0
M  V30 8029 H 744.485 0.740249 0.132423 0
M  V30 8030 H 746.456 2.96497 -0.336424 0
M  V30 8031 C 745.205 3.17052 1.42736 0
M  V30 8032 H 744.528 3.88623 0.938747 0
M  V30 8033 H 745.968 3.75493 1.96928 0
M  V30 8034 C 744.427 2.3399 2.42384 0
M  V30 8035 O 744.957 2.01608 3.47444 0
M  V30 8036 N 743.163 1.96758 2.13857 0
M  V30 8037 H 742.71 2.23292 1.28447 0
M  V30 8038 H 742.668 1.41484 2.80766 0
M  V30 8039 N 746.441 0.193421 1.56409 0
M  V30 8040 C 747.373 -0.759944 2.16235 0
M  V30 8041 C 748.386 -1.17797 1.12373 0
M  V30 8042 O 749.575 -1.11399 1.39472 0
M  V30 8043 C 746.675 -2.03735 2.70823 0
M  V30 8044 C 745.848 -1.77939 3.9957 0
M  V30 8045 C 744.907 -2.90111 4.39001 0
M  V30 8046 O 743.933 -2.59791 5.06456 0
M  V30 8047 N 745.135 -4.18426 4.02368 0
M  V30 8048 H 747.9 -0.248348 2.98669 0
M  V30 8049 H 745.461 0.0113966 1.61896 0
M  V30 8050 H 747.453 -2.77914 2.94187 0
M  V30 8051 H 746.023 -2.46022 1.92852 0
M  V30 8052 H 745.243 -0.875491 3.84355 0
M  V30 8053 H 746.531 -1.58099 4.83614 0
M  V30 8054 H 745.929 -4.45913 3.48106 0
M  V30 8055 H 744.486 -4.89237 4.30686 0
M  V30 8056 N 747.919 -1.57396 -0.0801906 0
M  V30 8057 C 749.33 -1.75642 -0.633002 0
M  V30 8058 C 749.681 -0.817708 -1.78348 0
M  V30 8059 O 748.806 0.000233743 -2.164 0
M  V30 8060 C 749.401 -3.18502 -1.15507 0
M  V30 8061 C 747.96 -3.38121 -1.65381 0
M  V30 8062 C 747.107 -2.71386 -0.569661 0
M  V30 8063 H 750.058 -1.58027 0.145949 0
M  V30 8064 H 750.079 -3.22198 -2.02408 0
M  V30 8065 H 749.591 -3.86799 -0.317515 0
M  V30 8066 H 747.692 -2.74926 -2.51488 0
M  V30 8067 H 747.805 -4.46521 -1.73654 0
M  V30 8068 H 746.169 -2.33702 -1.0127 0
M  V30 8069 H 746.952 -3.42332 0.257561 0
M  V30 8070 N 749.397 0.351382 -1.53633 0
M  V30 8071 C 750.813 0.693987 -1.43722 0
M  V30 8072 C 751.013 1.9274 -0.587669 0
M  V30 8073 O 750.069 2.52387 -0.0756082 0
M  V30 8074 C 751.382 0.893937 -2.87105 0
M  V30 8075 C 752.93 0.993051 -2.96829 0
M  V30 8076 C 753.405 1.22537 -4.41303 0
M  V30 8077 N 754.896 1.29275 -4.44795 0
M  V30 8078 C 755.631 1.48988 -5.53706 0
M  V30 8079 N 755.127 1.65924 -6.72637 0
M  V30 8080 N 756.92 1.51472 -5.41306 0
M  V30 8081 H 749.071 -0.459688 -2.07366 0
M  V30 8082 H 751.334 -0.143684 -0.937048 0
M  V30 8083 H 751.04 0.0592517 -3.5165 0
M  V30 8084 H 750.914 1.79795 -3.31592 0
M  V30 8085 H 753.301 1.81827 -2.32429 0
M  V30 8086 H 753.382 0.0661119 -2.55715 0
M  V30 8087 H 753.026 0.405117 -5.06282 0
M  V30 8088 H 752.956 2.16575 -4.80003 0
M  V30 8089 H 755.447 1.17743 -3.59089 0
M  V30 8090 H 755.76 1.80578 -7.51406 0
M  V30 8091 H 754.105 1.63075 -6.75597 0
M  V30 8092 H 757.296 1.37818 -4.47352 0
M  V30 8093 H 757.469 1.66493 -6.26246 0
M  V30 8094 N 750.875 1.45233 0.611969 0
M  V30 8095 C 752.291 1.29542 0.932251 0
M  V30 8096 C 752.491 0.24523 2.00002 0
M  V30 8097 O 751.547 -0.362333 2.49887 0
M  V30 8098 C 752.86 2.67301 1.37733 0
M  V30 8099 C 754.408 2.75163 1.49178 0
M  V30 8100 C 754.883 4.13437 1.97064 0
M  V30 8101 N 756.374 4.15709 2.04304 0
M  V30 8102 C 757.109 5.19566 2.42568 0
M  V30 8103 N 756.605 6.33771 2.79832 0
M  V30 8104 N 758.398 5.06923 2.42869 0
M  V30 8105 H 750.549 2.12192 -0.0938679 0
M  V30 8106 H 752.812 0.947775 0.0206569 0
M  V30 8107 H 752.518 3.45318 0.666951 0
M  V30 8108 H 752.392 2.95472 2.3447 0
M  V30 8109 H 754.779 1.97453 2.19309 0
M  V30 8110 H 754.86 2.50712 0.507674 0
M  V30 8111 H 754.504 4.91631 1.27521 0
M  V30 8112 H 754.434 4.35277 2.9638 0
M  V30 8113 H 756.925 3.33293 1.78113 0
M  V30 8114 H 757.238 7.08815 3.07898 0
M  V30 8115 H 755.583 6.37179 2.77538 0
M  V30 8116 H 758.774 4.1675 2.1316 0
M  V30 8117 H 758.947 5.87981 2.72364 0
M  V30 8118 N 752.353 -0.854086 1.3245 0
M  V30 8119 C 753.283 -1.97827 1.24044 0
M  V30 8120 C 754.264 -1.69646 0.124166 0
M  V30 8121 O 755.449 -1.91687 0.31143 0
M  V30 8122 C 752.579 -3.33673 0.963324 0
M  V30 8123 C 751.533 -3.76207 2.04089 0
M  V30 8124 C 750.859 -5.0969 1.61618 0
M  V30 8125 C 752.159 -3.91612 3.45597 0
M  V30 8126 H 753.853 -2.05118 2.18099 0
M  V30 8127 H 751.399 -0.985489 1.04996 0
M  V30 8128 H 753.352 -4.11871 0.891061 0
M  V30 8129 H 752.076 -3.26597 -0.0128649 0
M  V30 8130 H 750.735 -3.0026 2.10332 0
M  V30 8131 H 750.383 -4.99072 0.627418 0
M  V30 8132 H 750.083 -5.3912 2.33717 0
M  V30 8133 H 751.607 -5.90381 1.55829 0
M  V30 8134 H 753.021 -4.60163 3.4194 0
M  V30 8135 H 751.418 -4.3246 4.16051 0
M  V30 8136 H 752.488 -2.9451 3.85217 0
M  V30 8137 N 753.831 -1.1567 -1.07043 0
M  V30 8138 C 755.059 -0.957471 -1.83412 0
M  V30 8139 C 755.474 0.494271 -1.82215 0
M  V30 8140 O 754.831 1.34288 -1.23584 0
M  V30 8141 C 754.882 -1.46784 -3.30359 0
M  V30 8142 O 754.603 -2.86271 -3.31633 0
M  V30 8143 C 756.104 -1.31054 -4.23485 0
M  V30 8144 H 753.324 -0.33986 -0.578564 0
M  V30 8145 H 755.868 -1.53518 -1.35102 0
M  V30 8146 H 754.023 -0.932586 -3.76007 0
M  V30 8147 H 754.437 -3.0948 -4.23465 0
M  V30 8148 H 755.911 -1.71605 -5.24648 0
M  V30 8149 H 756.388 -0.255107 -4.38458 0
M  V30 8150 H 756.994 -1.83503 -3.83676 0
M  V30 8151 N 755.309 1.25446 -0.953992 0
M  V30 8152 C 756.537 1.97215 -0.625595 0
M  V30 8153 C 756.952 1.70911 0.802168 0
M  V30 8154 O 756.309 0.984782 1.5365 0
M  V30 8155 C 756.36 3.50777 -0.873943 0
M  V30 8156 O 756.081 3.76173 -2.24556 0
M  V30 8157 C 757.582 4.39776 -0.557845 0
M  V30 8158 H 754.802 0.628652 -0.2346 0
M  V30 8159 H 757.346 1.59632 -1.27819 0
M  V30 8160 H 755.501 3.86474 -0.267765 0
M  V30 8161 H 755.915 4.70636 -2.31522 0
M  V30 8162 H 757.389 5.46431 -0.782157 0
M  V30 8163 H 757.866 4.36257 0.507573 0
M  V30 8164 H 758.472 4.09644 -1.14332 0
M  V30 8165 N 756.787 0.722489 1.40064 0
M  V30 8166 C 758.015 0.274838 2.05066 0
M  V30 8167 C 758.43 -1.08586 1.54449 0
M  V30 8168 O 757.787 -1.68375 0.704003 0
M  V30 8169 C 757.838 0.253673 3.60609 0
M  V30 8170 O 757.559 1.56064 4.0936 0
M  V30 8171 C 759.06 -0.211684 4.42794 0
M  V30 8172 H 756.28 0.12226 0.659768 0
M  V30 8173 H 758.824 0.982632 1.79345 0
M  V30 8174 H 756.979 -0.405137 3.85276 0
M  V30 8175 H 757.393 1.46576 5.03603 0
M  V30 8176 H 758.867 -0.175341 5.51721 0
M  V30 8177 H 759.344 -1.25493 4.2089 0
M  V30 8178 H 759.95 0.4171 4.2325 0
M  V30 8179 N 758.265 -1.50454 0.469181 0
M  V30 8180 C 759.195 -2.31353 -0.31592 0
M  V30 8181 C 760.176 -1.38172 -0.992094 0
M  V30 8182 O 761.361 -1.67093 -0.989633 0
M  V30 8183 C 758.491 -3.1786 -1.39937 0
M  V30 8184 C 757.445 -4.19578 -0.844909 0
M  V30 8185 C 756.771 -4.9481 -2.0265 0
M  V30 8186 C 758.071 -5.22106 0.142499 0
M  V30 8187 H 759.765 -2.97237 0.359269 0
M  V30 8188 H 757.311 -1.42942 0.174224 0
M  V30 8189 H 759.264 -3.7325 -1.95607 0
M  V30 8190 H 757.988 -2.49858 -2.1033 0
M  V30 8191 H 756.647 -3.65285 -0.310189 0
M  V30 8192 H 756.295 -4.23282 -2.71737 0
M  V30 8193 H 755.995 -5.63613 -1.66174 0
M  V30 8194 H 757.519 -5.53035 -2.58815 0
M  V30 8195 H 758.933 -5.72378 -0.324966 0
M  V30 8196 H 757.33 -5.98618 0.421441 0
M  V30 8197 H 758.4 -4.7297 1.06901 0
M  V30 8198 N 759.743 -0.201713 -1.56304 0
M  V30 8199 C 760.973 0.440084 -2.01858 0
M  V30 8200 C 761.381 1.55279 -1.08098 0
M  V30 8201 O 760.724 1.83529 -0.0792216 0
M  V30 8202 C 760.786 1.05091 -3.43797 0
M  V30 8203 C 760.45 0.0761208 -4.56937 0
M  V30 8204 C 761.447 -0.716951 -5.14933 0
M  V30 8205 C 759.132 -0.0368815 -5.02286 0
M  V30 8206 C 761.126 -1.60993 -6.16733 0
M  V30 8207 C 758.813 -0.933409 -6.03929 0
M  V30 8208 C 759.811 -1.71849 -6.61027 0
M  V30 8209 O 759.499 -2.59998 -7.60695 0
M  V30 8210 H 759.231 0.114139 -0.666294 0
M  V30 8211 H 761.785 -0.309672 -2.03052 0
M  V30 8212 H 760.015 1.84938 -3.3961 0
M  V30 8213 H 761.704 1.59804 -3.73118 0
M  V30 8214 H 762.47 -0.63999 -4.80759 0
M  V30 8215 H 758.349 0.564034 -4.57537 0
M  V30 8216 H 761.893 -2.22315 -6.61227 0
M  V30 8217 H 757.79 -1.01146 -6.37526 0
M  V30 8218 H 758.558 -2.53851 -7.7814 0
M  V30 8219 N 761.222 1.57436 0.0718424 0
M  V30 8220 C 762.469 1.87248 0.771007 0
M  V30 8221 C 762.797 0.793441 1.7758 0
M  V30 8222 O 762.052 -0.210565 1.94564 0
M  V30 8223 C 762.351 3.23723 1.51455 0
M  V30 8224 C 762.017 4.46194 0.649736 0
M  V30 8225 C 760.679 4.79438 0.411409 0
M  V30 8226 C 763.031 5.21176 0.05004 0
M  V30 8227 C 760.359 5.85077 -0.436096 0
M  V30 8228 C 762.711 6.27712 -0.784919 0
M  V30 8229 C 761.375 6.59457 -1.03312 0
M  V30 8230 H 760.645 0.685188 0.282132 0
M  V30 8231 H 763.292 1.91474 0.0317896 0
M  V30 8232 H 761.597 3.15287 2.32597 0
M  V30 8233 H 763.294 3.44023 2.06031 0
M  V30 8234 H 759.884 4.20175 0.84562 0
M  V30 8235 H 764.068 4.95806 0.221282 0
M  V30 8236 H 759.324 6.08071 -0.637136 0
M  V30 8237 H 763.498 6.84974 -1.25635 0
M  V30 8238 H 761.125 7.4114 -1.6916 0
M  V30 8239 N 762.7 -0.34323 1.53817 0
M  V30 8240 C 763.663 -1.40444 1.8113 0
M  V30 8241 C 764.663 -1.45604 0.682366 0
M  V30 8242 O 765.853 -1.45974 0.950649 0
M  V30 8243 C 762.985 -2.79369 1.95361 0
M  V30 8244 H 764.178 -1.17489 2.75928 0
M  V30 8245 H 761.731 -0.577636 1.45234 0
M  V30 8246 H 762.466 -3.07607 1.02707 0
M  V30 8247 H 762.251 -2.7702 2.77493 0
M  V30 8248 H 763.741 -3.56178 2.18008 0
M  V30 8249 N 764.178 -1.45556 -0.604258 0
M  V30 8250 C 765.088 -1.57025 -1.74299 0
M  V30 8251 C 766.104 -0.45456 -1.67958 0
M  V30 8252 O 767.28 -0.715711 -1.88254 0
M  V30 8253 C 764.345 -1.53702 -3.10768 0
M  V30 8254 C 763.406 -2.76335 -3.28538 0
M  V30 8255 C 762.639 -2.73161 -4.58496 0
M  V30 8256 O 762.862 -1.80678 -5.41028 0
M  V30 8257 O 761.796 -3.64409 -4.79051 0
M  V30 8258 H 765.622 -2.53284 -1.67573 0
M  V30 8259 H 763.207 -1.28104 -0.768745 0
M  V30 8260 H 765.089 -1.54468 -3.92068 0
M  V30 8261 H 763.764 -0.605957 -3.17978 0
M  V30 8262 H 762.671 -2.8113 -2.46813 0
M  V30 8263 H 764.004 -3.68578 -3.26207 0
M  V30 8264 N 765.656 0.84705 -1.32902 0
M  V30 8265 C 766.903 1.60176 -1.23894 0
M  V30 8266 C 767.231 1.93496 0.197341 0
M  V30 8267 O 766.486 1.58173 1.15238 0
M  V30 8268 C 766.785 2.92663 -2.05142 0
M  V30 8269 C 766.451 2.7874 -3.54422 0
M  V30 8270 C 765.113 2.7465 -3.95121 0
M  V30 8271 C 767.465 2.64128 -4.49317 0
M  V30 8272 C 764.793 2.53837 -5.28946 0
M  V30 8273 C 767.145 2.44849 -5.83294 0
M  V30 8274 C 765.809 2.39156 -6.23186 0
M  V30 8275 H 765.079 0.586127 -0.453361 0
M  V30 8276 H 767.726 0.981994 -1.64405 0
M  V30 8277 H 766.031 3.588 -1.57383 0
M  V30 8278 H 767.728 3.50095 -1.95537 0
M  V30 8279 H 764.318 2.82751 -3.22102 0
M  V30 8280 H 768.502 2.66327 -4.18788 0
M  V30 8281 H 763.758 2.4787 -5.58901 0
M  V30 8282 H 767.932 2.32524 -6.56434 0
M  V30 8283 H 765.559 2.22789 -7.26821 0
M  V30 8284 N 767.134 1.16236 1.06428 0
M  V30 8285 C 768.38 0.944431 1.79467 0
M  V30 8286 C 768.713 -0.526558 1.86925 0
M  V30 8287 O 767.988 -1.39061 1.35986 0
M  V30 8288 C 768.271 1.57092 3.24028 0
M  V30 8289 C 768.124 3.11315 3.24658 0
M  V30 8290 C 769.443 1.26447 4.21544 0
M  V30 8291 H 766.562 0.344521 0.651517 0
M  V30 8292 H 769.204 1.43545 1.24478 0
M  V30 8293 H 767.354 1.15337 3.70985 0
M  V30 8294 H 769.026 3.62042 2.85873 0
M  V30 8295 H 767.269 3.44716 2.6335 0
M  V30 8296 H 767.94 3.50269 4.26633 0
M  V30 8297 H 770.416 1.62581 3.83023 0
M  V30 8298 H 769.292 1.72885 5.20963 0
M  V30 8299 H 769.553 0.183068 4.41721 0
M  V30 8300 N 768.612 -1.24939 0.960631 0
M  V30 8301 C 769.859 -1.92818 0.618663 0
M  V30 8302 C 770.187 -1.75177 -0.845173 0
M  V30 8303 O 769.442 -1.09412 -1.62258 0
M  V30 8304 C 769.741 -3.45066 0.930809 0
M  V30 8305 C 769.407 -3.82869 2.38164 0
M  V30 8306 C 768.069 -3.92899 2.7782 0
M  V30 8307 C 770.421 -4.01483 3.32356 0
M  V30 8308 C 767.749 -4.18955 4.10723 0
M  V30 8309 C 770.101 -4.29033 4.6488 0
M  V30 8310 C 768.765 -4.37282 5.04322 0
M  V30 8311 H 768.035 -0.705571 0.226385 0
M  V30 8312 H 770.682 -1.48365 1.21079 0
M  V30 8313 H 768.987 -3.9096 0.256355 0
M  V30 8314 H 770.684 -3.95783 0.644712 0
M  V30 8315 H 767.274 -3.75622 2.06413 0
M  V30 8316 H 771.458 -3.93143 3.02907 0
M  V30 8317 H 766.714 -4.23558 4.40918 0
M  V30 8318 H 770.888 -4.42381 5.3784 0
M  V30 8319 H 768.515 -4.57225 6.0733 0
M  V30 8320 N 770.09 -0.729906 -1.39679 0
M  V30 8321 C 771.02 -0.101618 -2.33279 0
M  V30 8322 C 772.001 0.729854 -1.53646 0
M  V30 8323 O 773.186 0.67587 -1.82059 0
M  V30 8324 C 770.316 0.81024 -3.37716 0
M  V30 8325 C 769.27 0.0833126 -4.27919 0
M  V30 8326 C 768.596 1.11185 -5.23012 0
M  V30 8327 C 769.896 -1.07107 -5.112 0
M  V30 8328 H 771.59 -0.883452 -2.86069 0
M  V30 8329 H 769.136 -0.426283 -1.37546 0
M  V30 8330 H 771.089 1.25927 -4.02145 0
M  V30 8331 H 769.813 1.62413 -2.83354 0
M  V30 8332 H 768.472 -0.346043 -3.64963 0
M  V30 8333 H 768.12 1.91917 -4.64948 0
M  V30 8334 H 767.82 0.63026 -5.8421 0
M  V30 8335 H 769.344 1.56068 -5.90318 0
M  V30 8336 H 770.758 -0.700726 -5.69002 0
M  V30 8337 H 769.155 -1.48196 -5.81514 0
M  V30 8338 H 770.225 -1.89513 -4.46332 0
M  V30 8339 N 771.568 1.50203 -0.477153 0
M  V30 8340 C 772.816 2.01959 0.0755889 0
M  V30 8341 C 773.137 1.3608 1.39668 0
M  V30 8342 O 772.407 0.508136 1.89195 0
M  V30 8343 H 770.987 0.74636 0.0309248 0
M  V30 8344 H 773.649 1.84473 -0.628959 0
M  V30 8345 H 772.745 3.11305 0.222683 0
M  V30 8346 N 773.046 0.209999 1.56195 0
M  V30 8347 C 773.976 -0.699746 2.22769 0
M  V30 8348 C 774.957 -1.20993 1.1956 0
M  V30 8349 O 776.142 -1.25605 1.48112 0
M  V30 8350 C 773.272 -1.91302 2.89863 0
M  V30 8351 C 772.226 -1.53715 3.99444 0
M  V30 8352 C 771.552 -2.82826 4.53777 0
M  V30 8353 C 772.852 -0.735836 5.17091 0
M  V30 8354 H 774.546 -0.144716 2.9905 0
M  V30 8355 H 772.092 -0.0681645 1.43839 0
M  V30 8356 H 774.045 -2.5548 3.35124 0
M  V30 8357 H 772.769 -2.49283 2.11011 0
M  V30 8358 H 771.428 -0.918892 3.54897 0
M  V30 8359 H 771.076 -3.38927 3.71669 0
M  V30 8360 H 770.776 -2.58415 5.27727 0
M  V30 8361 H 772.3 -3.47966 5.01749 0
M  V30 8362 H 773.714 -1.28105 5.58804 0
M  V30 8363 H 772.111 -0.589272 5.972 0
M  V30 8364 H 773.181 0.260004 4.84202 0
M  V30 8365 N 774.524 -1.57472 -0.0634922 0
M  V30 8366 C 775.771 -1.87654 -0.761066 0
M  V30 8367 C 776.099 -0.802847 -1.77157 0
M  V30 8368 O 775.354 0.200244 -1.94673 0
M  V30 8369 C 775.653 -3.24521 -1.49736 0
M  V30 8370 C 775.319 -4.46532 -0.626065 0
M  V30 8371 C 773.981 -4.7965 -0.385978 0
M  V30 8372 C 776.333 -5.21195 -0.0224001 0
M  V30 8373 C 773.661 -5.84837 0.467118 0
M  V30 8374 C 776.013 -6.27286 0.818198 0
M  V30 8375 C 774.677 -6.58899 1.06808 0
M  V30 8376 H 773.947 -0.686675 -0.278494 0
M  V30 8377 H 776.594 -1.91488 -0.0216348 0
M  V30 8378 H 774.899 -3.16516 -2.30921 0
M  V30 8379 H 776.596 -3.45111 -2.04204 0
M  V30 8380 H 773.186 -4.20618 -0.823325 0
M  V30 8381 H 777.37 -4.95917 -0.194985 0
M  V30 8382 H 772.626 -6.07725 0.669375 0
M  V30 8383 H 776.8 -6.84298 1.29265 0
M  V30 8384 H 774.427 -7.40233 1.73088 0
M  V30 8385 N 776.003 0.335068 -1.53997 0
M  V30 8386 C 776.933 1.41727 -1.85568 0
M  V30 8387 C 777.914 1.54505 -0.7115 0
M  V30 8388 O 779.099 1.68573 -0.964191 0
M  V30 8389 C 776.229 2.7866 -2.07282 0
M  V30 8390 C 775.183 2.80682 -3.23112 0
M  V30 8391 C 774.509 4.20581 -3.30175 0
M  V30 8392 C 775.809 2.45458 -4.61029 0
M  V30 8393 H 777.503 1.15555 -2.76202 0
M  V30 8394 H 775.049 0.554445 -1.32898 0
M  V30 8395 H 777.002 3.54423 -2.27952 0
M  V30 8396 H 775.726 3.06286 -1.13387 0
M  V30 8397 H 774.385 2.07373 -3.02311 0
M  V30 8398 H 774.033 4.4533 -2.33859 0
M  V30 8399 H 773.733 4.22843 -4.08016 0
M  V30 8400 H 775.257 4.98174 -3.53066 0
M  V30 8401 H 776.671 3.10934 -4.81656 0
M  V30 8402 H 775.068 2.5899 -5.41336 0
M  V30 8403 H 776.138 1.40628 -4.6406 0
M  V30 8404 N 777.481 1.45874 0.596531 0
M  V30 8405 C 778.709 1.54013 1.38158 0
M  V30 8406 C 779.124 0.17648 1.87973 0
M  V30 8407 O 778.481 -0.823895 1.62844 0
M  V30 8408 C 778.532 2.53363 2.57855 0
M  V30 8409 O 778.253 3.8443 2.10108 0
M  V30 8410 C 779.754 2.71308 3.50581 0
M  V30 8411 H 776.974 0.521251 0.422538 0
M  V30 8412 H 779.518 1.9116 0.726493 0
M  V30 8413 H 777.673 2.19257 3.19382 0
M  V30 8414 H 778.087 4.38384 2.87958 0
M  V30 8415 H 779.561 3.44776 4.31084 0
M  V30 8416 H 780.038 1.77728 4.01633 0
M  V30 8417 H 780.644 3.06455 2.94899 0
M  V30 8418 N 778.959 -0.83999 1.33349 0
M  V30 8419 C 779.869 -1.98182 1.25543 0
M  V30 8420 C 780.885 -1.73204 0.166208 0
M  V30 8421 O 782.061 -1.97596 0.389589 0
M  V30 8422 C 779.126 -3.32157 0.993614 0
M  V30 8423 C 778.187 -3.70258 2.17273 0
M  V30 8424 C 777.42 -4.9784 1.92331 0
M  V30 8425 O 777.643 -5.63679 0.873074 0
M  V30 8426 O 776.577 -5.33418 2.78835 0
M  V30 8427 H 780.403 -2.07708 2.21565 0
M  V30 8428 H 777.988 -0.972852 1.13384 0
M  V30 8429 H 779.87 -4.12433 0.864711 0
M  V30 8430 H 778.545 -3.23637 0.0636596 0
M  V30 8431 H 777.452 -2.90497 2.35716 0
M  V30 8432 H 778.785 -3.83442 3.08598 0
M  V30 8433 N 780.437 -1.16799 -1.0581 0
M  V30 8434 C 781.37 -0.822491 -2.12862 0
M  V30 8435 C 782.348 0.208006 -1.61264 0
M  V30 8436 O 783.532 0.0909652 -1.8828 0
M  V30 8437 C 780.659 -0.225826 -3.37946 0
M  V30 8438 C 779.705 -1.23071 -4.08357 0
M  V30 8439 S 780.538 -2.77944 -4.5772 0
M  V30 8440 C 781.694 -2.19741 -5.86059 0
M  V30 8441 H 781.927 -1.72917 -2.41841 0
M  V30 8442 H 779.46 -0.991982 -1.18318 0
M  V30 8443 H 781.418 0.111955 -4.10347 0
M  V30 8444 H 780.079 0.658692 -3.07116 0
M  V30 8445 H 779.272 -0.761758 -4.9821 0
M  V30 8446 H 778.874 -1.51383 -3.41993 0
M  V30 8447 H 781.166 -1.5691 -6.59079 0
M  V30 8448 H 782.109 -3.07823 -6.37692 0
M  V30 8449 H 782.517 -1.63433 -5.40324 0
M  V30 8450 N 781.915 1.24427 -0.967243 0
M  V30 8451 C 783.14 1.9708 -0.646069 0
M  V30 8452 C 783.565 1.71272 0.777665 0
M  V30 8453 O 782.923 0.976179 1.52776 0
M  V30 8454 C 782.971 3.48501 -0.926266 0
M  V30 8455 O 782.075 4.12398 -0.0114653 0
M  V30 8456 H 781.416 0.617423 -0.244304 0
M  V30 8457 H 783.946 1.58215 -1.29727 0
M  V30 8458 H 783.956 3.98885 -0.857619 0
M  V30 8459 H 782.631 3.66613 -1.96386 0
M  V30 8460 H 781.208 3.72661 -0.133396 0
M  V30 8461 N 783.393 0.737304 1.3929 0
M  V30 8462 C 784.323 0.113988 2.33222 0
M  V30 8463 C 785.304 -0.721695 1.54031 0
M  V30 8464 O 786.489 -0.666206 1.82415 0
M  V30 8465 C 783.619 -0.792319 3.38141 0
M  V30 8466 C 782.573 -0.0606178 4.27957 0
M  V30 8467 C 781.899 -1.08409 5.23595 0
M  V30 8468 C 783.199 1.09817 5.10625 0
M  V30 8469 H 784.893 0.898611 2.85596 0
M  V30 8470 H 782.439 0.433571 1.37318 0
M  V30 8471 H 784.392 -1.23793 4.02807 0
M  V30 8472 H 783.116 -1.60908 2.84211 0
M  V30 8473 H 781.775 0.365393 3.64775 0
M  V30 8474 H 781.423 -1.89449 4.6596 0
M  V30 8475 H 781.123 -0.599269 5.84536 0
M  V30 8476 H 782.647 -1.52936 5.91137 0
M  V30 8477 H 784.061 0.730892 5.68622 0
M  V30 8478 H 782.458 1.51278 5.80719 0
M  V30 8479 H 783.528 1.91878 4.45321 0
M  V30 8480 N 784.871 -1.49948 0.485112 0
M  V30 8481 C 785.818 -2.28819 -0.301729 0
M  V30 8482 C 786.788 -1.34496 -0.974683 0
M  V30 8483 O 787.973 -1.63444 -0.984418 0
M  V30 8484 C 785.113 -3.16758 -1.36961 0
M  V30 8485 C 784.226 -4.26125 -0.710027 0
M  V30 8486 C 783.361 -5.01302 -1.75699 0
M  V30 8487 C 782.4 -6.02525 -1.07841 0
M  V30 8488 N 781.537 -6.70927 -2.06886 0
M  V30 8489 H 786.377 -2.95604 0.377127 0
M  V30 8490 H 783.914 -1.45764 0.197826 0
M  V30 8491 H 785.872 -3.66106 -2.00056 0
M  V30 8492 H 784.502 -2.51991 -2.01744 0
M  V30 8493 H 783.554 -3.80385 0.0338278 0
M  V30 8494 H 784.866 -4.98493 -0.175079 0
M  V30 8495 H 784.02 -5.54438 -2.46339 0
M  V30 8496 H 782.759 -4.28672 -2.32577 0
M  V30 8497 H 781.764 -5.48635 -0.357706 0
M  V30 8498 H 782.989 -6.77134 -0.516345 0
M  V30 8499 H 780.935 -6.01079 -2.62755 0
M  V30 8500 H 780.852 -7.39216 -1.58414 0
M  V30 8501 H 782.12 -7.28675 -2.76863 0
M  V30 8502 N 786.349 -0.21828 -1.56081 0
M  V30 8503 C 787.282 0.733096 -2.16104 0
M  V30 8504 C 788.26 1.19333 -1.10447 0
M  V30 8505 O 789.444 1.27666 -1.38685 0
M  V30 8506 C 786.571 1.99283 -2.73868 0
M  V30 8507 C 785.617 1.67285 -3.92324 0
M  V30 8508 S 786.45 0.800511 -5.29483 0
M  V30 8509 C 787.606 2.06988 -5.90683 0
M  V30 8510 H 787.839 0.222917 -2.96463 0
M  V30 8511 H 785.372 -0.00300946 -1.544 0
M  V30 8512 H 787.33 2.71618 -3.07789 0
M  V30 8513 H 785.991 2.47414 -1.93508 0
M  V30 8514 H 785.184 2.60874 -4.31232 0
M  V30 8515 H 784.786 1.03016 -3.59533 0
M  V30 8516 H 787.078 3.02019 -6.06457 0
M  V30 8517 H 788.021 1.72476 -6.86773 0
M  V30 8518 H 788.429 2.20893 -5.19487 0
M  V30 8519 N 787.827 1.57504 0.0551401 0
M  V30 8520 C 789.057 1.92015 0.762472 0
M  V30 8521 C 789.465 0.814088 1.7079 0
M  V30 8522 O 788.808 -0.220273 1.82375 0
M  V30 8523 C 788.87 3.22132 1.59598 0
M  V30 8524 C 788.534 4.49617 0.818141 0
M  V30 8525 C 789.531 5.19738 0.129933 0
M  V30 8526 C 787.216 4.96201 0.780387 0
M  V30 8527 C 789.21 6.34704 -0.585616 0
M  V30 8528 C 786.897 6.11069 0.0610756 0
M  V30 8529 C 787.895 6.80174 -0.62071 0
M  V30 8530 O 787.583 7.92849 -1.3284 0
M  V30 8531 H 787.315 0.638866 0.220967 0
M  V30 8532 H 789.869 2.05385 0.0246362 0
M  V30 8533 H 788.099 3.05016 2.37701 0
M  V30 8534 H 789.788 3.42166 2.18351 0
M  V30 8535 H 790.554 4.84767 0.150299 0
M  V30 8536 H 786.433 4.42275 1.30054 0
M  V30 8537 H 789.977 6.88578 -1.11833 0
M  V30 8538 H 785.874 6.45488 0.0386945 0
M  V30 8539 H 786.642 8.09062 -1.23938 0
M  V30 8540 N 789.305 -0.326896 1.54172 0
M  V30 8541 C 790.553 -1.06313 1.71878 0
M  V30 8542 C 790.874 -1.88652 0.493498 0
M  V30 8543 O 790.144 -1.89608 -0.492522 0
M  V30 8544 H 788.724 -0.39549 0.633716 0
M  V30 8545 H 791.386 -0.364139 1.91468 0
M  V30 8546 H 790.482 -1.73105 2.59694 0
M  V30 8547 N 790.784 -1.46188 -0.588786 0
M  V30 8548 C 791.714 -1.59148 -1.70863 0
M  V30 8549 C 792.695 -0.442083 -1.64255 0
M  V30 8550 O 793.88 -0.667575 -1.82365 0
M  V30 8551 C 791.01 -1.5757 -3.09498 0
M  V30 8552 C 789.964 -2.71418 -3.30932 0
M  V30 8553 C 789.29 -2.549 -4.70032 0
M  V30 8554 C 790.59 -4.1329 -3.19356 0
M  V30 8555 H 792.284 -2.52889 -1.60274 0
M  V30 8556 H 789.83 -1.21707 -0.769638 0
M  V30 8557 H 791.783 -1.65231 -3.87655 0
M  V30 8558 H 790.507 -0.603705 -3.20972 0
M  V30 8559 H 789.166 -2.63216 -2.55172 0
M  V30 8560 H 788.814 -1.55797 -4.78264 0
M  V30 8561 H 788.514 -3.31257 -4.85327 0
M  V30 8562 H 790.038 -2.64443 -5.50366 0
M  V30 8563 H 791.452 -4.22636 -3.87365 0
M  V30 8564 H 789.849 -4.90187 -3.46175 0
M  V30 8565 H 790.919 -4.33874 -2.16522 0
M  V30 8566 N 792.262 0.832906 -1.33792 0
M  V30 8567 C 793.51 1.58539 -1.25338 0
M  V30 8568 C 793.831 1.94175 0.179204 0
M  V30 8569 O 793.101 1.61458 1.10941 0
M  V30 8570 H 791.681 0.58784 -0.460926 0
M  V30 8571 H 794.343 0.995064 -1.67584 0
M  V30 8572 H 793.439 2.51268 -1.85123 0
M  V30 8573 N 793.74 1.17359 1.05189 0
M  V30 8574 C 795.151 0.96793 1.5965 0
M  V30 8575 C 795.502 -0.485355 1.90102 0
M  V30 8576 O 794.627 -1.36066 1.6827 0
M  V30 8577 C 795.222 1.75068 2.90063 0
M  V30 8578 C 793.781 1.58969 3.41183 0
M  V30 8579 C 792.928 1.75231 2.14917 0
M  V30 8580 H 795.879 1.32067 0.880001 0
M  V30 8581 H 795.9 1.23308 3.59966 0
M  V30 8582 H 795.412 2.80835 2.67868 0
M  V30 8583 H 793.513 0.556906 3.68415 0
M  V30 8584 H 793.626 2.38067 4.15766 0
M  V30 8585 H 791.99 1.18073 2.25679 0
M  V30 8586 H 792.773 2.8241 1.95191 0
M  V30 8587 N 795.218 -1.23913 0.973828 0
M  V30 8588 C 796.634 -1.44325 0.681363 0
M  V30 8589 C 796.834 -1.86832 -0.754728 0
M  V30 8590 O 795.89 -2.01024 -1.52793 0
M  V30 8591 C 797.203 -2.50017 1.67069 0
M  V30 8592 C 798.751 -2.63838 1.68399 0
M  V30 8593 C 799.226 -3.72734 2.66145 0
M  V30 8594 N 800.717 -3.80169 2.64624 0
M  V30 8595 C 801.452 -4.6397 3.36927 0
M  V30 8596 N 800.948 -5.51911 4.18767 0
M  V30 8597 N 802.741 -4.58106 3.25722 0
M  V30 8598 H 794.892 -0.946204 1.9016 0
M  V30 8599 H 797.155 -0.477374 0.819035 0
M  V30 8600 H 796.861 -2.25686 2.69738 0
M  V30 8601 H 796.735 -3.48287 1.4483 0
M  V30 8602 H 799.122 -2.87524 0.664379 0
M  V30 8603 H 799.203 -1.65906 1.94702 0
M  V30 8604 H 798.847 -3.49797 3.68245 0
M  V30 8605 H 798.777 -4.70193 2.3712 0
M  V30 8606 H 801.268 -3.17319 2.05224 0
M  V30 8607 H 801.581 -6.12828 4.70809 0
M  V30 8608 H 799.926 -5.51556 4.2286 0
M  V30 8609 H 803.117 -3.8842 2.61242 0
M  V30 8610 H 803.29 -5.23188 3.82333 0
M  V30 8611 N 796.696 -0.74468 -1.38897 0
M  V30 8612 C 797.921 -0.306119 -2.05128 0
M  V30 8613 C 798.346 1.0541 -1.55789 0
M  V30 8614 O 797.704 1.66993 -0.705909 0
M  V30 8615 C 797.752 -0.328195 -3.59103 0
M  V30 8616 O 796.856 0.680876 -4.06741 0
M  V30 8617 H 796.197 -0.137209 -0.649669 0
M  V30 8618 H 798.727 -1.01331 -1.77745 0
M  V30 8619 H 798.737 -0.175956 -4.0762 0
M  V30 8620 H 797.412 -1.32067 -3.94374 0
M  V30 8621 H 795.989 0.49398 -3.69614 0
M  V30 8622 N 798.174 1.49689 -0.493057 0
M  V30 8623 C 799.404 2.06536 0.0512397 0
M  V30 8624 C 799.812 1.35459 1.32089 0
M  V30 8625 O 799.155 0.424145 1.78736 0
M  V30 8626 C 799.217 3.57452 0.383231 0
M  V30 8627 C 798.881 4.50163 -0.787555 0
M  V30 8628 C 799.878 4.92151 -1.67582 0
M  V30 8629 C 797.563 4.92565 -0.984109 0
M  V30 8630 C 799.557 5.7527 -2.74487 0
M  V30 8631 C 797.244 5.75463 -2.05634 0
M  V30 8632 C 798.242 6.16719 -2.93507 0
M  V30 8633 O 797.93 6.97961 -3.98881 0
M  V30 8634 H 797.662 0.675862 -0.0136516 0
M  V30 8635 H 800.216 1.9356 -0.687298 0
M  V30 8636 H 798.446 3.68408 1.17526 0
M  V30 8637 H 800.135 3.96572 0.8652 0
M  V30 8638 H 800.901 4.60043 -1.53575 0
M  V30 8639 H 796.78 4.5996 -0.309541 0
M  V30 8640 H 800.324 6.07392 -3.43104 0
M  V30 8641 H 796.221 6.06983 -2.19639 0
M  V30 8642 H 796.989 7.16253 -3.96137 0
M  V30 8643 N 799.652 0.226554 1.55963 0
M  V30 8644 C 800.899 -0.403789 1.98433 0
M  V30 8645 C 801.227 -1.59416 1.1143 0
M  V30 8646 O 800.482 -1.95042 0.160389 0
M  V30 8647 C 800.781 -0.87642 3.46488 0
M  V30 8648 C 800.447 0.203973 4.50438 0
M  V30 8649 C 799.109 0.500754 4.78587 0
M  V30 8650 C 801.461 0.934396 5.12756 0
M  V30 8651 C 798.789 1.53239 5.66334 0
M  V30 8652 C 801.141 1.9554 6.0162 0
M  V30 8653 C 799.805 2.25905 6.28111 0
M  V30 8654 H 799.075 -0.147757 0.726119 0
M  V30 8655 H 801.722 0.330121 1.88633 0
M  V30 8656 H 800.027 -1.68918 3.53517 0
M  V30 8657 H 801.724 -1.37407 3.76723 0
M  V30 8658 H 798.314 -0.0374917 4.28584 0
M  V30 8659 H 802.498 0.718355 4.91074 0
M  V30 8660 H 797.754 1.77321 5.85122 0
M  V30 8661 H 801.928 2.52642 6.48957 0
M  V30 8662 H 799.555 3.05985 6.959 0
M  V30 8663 N 801.13 -1.57531 -0.0467866 0
M  V30 8664 C 802.546 -1.54451 -0.402107 0
M  V30 8665 C 802.746 -0.950275 -1.77685 0
M  V30 8666 O 801.802 -0.563602 -2.4613 0
M  V30 8667 C 803.115 -2.9899 -0.320212 0
M  V30 8668 C 804.663 -3.10452 -0.398588 0
M  V30 8669 C 805.138 -4.56689 -0.346335 0
M  V30 8670 N 806.629 -4.6142 -0.405666 0
M  V30 8671 C 807.364 -5.72087 -0.387845 0
M  V30 8672 N 806.86 -6.92045 -0.32336 0
M  V30 8673 N 808.653 -5.60404 -0.436263 0
M  V30 8674 H 800.804 -1.94515 0.853087 0
M  V30 8675 H 803.067 -0.891397 0.322669 0
M  V30 8676 H 802.773 -3.46124 0.623794 0
M  V30 8677 H 802.647 -3.60164 -1.1208 0
M  V30 8678 H 805.034 -2.63276 -1.33302 0
M  V30 8679 H 805.115 -2.52142 0.431026 0
M  V30 8680 H 804.759 -5.04527 0.584356 0
M  V30 8681 H 804.689 -5.12889 -1.19382 0
M  V30 8682 H 807.18 -3.75105 -0.458737 0
M  V30 8683 H 807.493 -7.7216 -0.314375 0
M  V30 8684 H 805.838 -6.94396 -0.28967 0
M  V30 8685 H 809.029 -4.65586 -0.48451 0
M  V30 8686 H 809.202 -6.46645 -0.418907 0
M  V30 8687 N 802.608 0.318715 -1.54344 0
M  V30 8688 C 803.833 1.07987 -1.77069 0
M  V30 8689 C 804.258 1.80766 -0.520117 0
M  V30 8690 O 803.616 1.73424 0.528566 0
M  V30 8691 C 803.664 2.04987 -2.96669 0
M  V30 8692 O 802.768 3.12974 -2.68554 0
M  V30 8693 H 802.109 0.311109 -0.586606 0
M  V30 8694 H 804.639 0.361533 -2.0138 0
M  V30 8695 H 804.649 2.47771 -3.2415 0
M  V30 8696 H 803.324 1.51417 -3.87357 0
M  V30 8697 H 801.901 2.74831 -2.52037 0
M  V30 8698 N 804.086 1.46499 0.581025 0
M  V30 8699 C 805.311 1.55708 1.37002 0
M  V30 8700 C 805.736 0.19942 1.8704 0
M  V30 8701 O 805.094 -0.820731 1.61659 0
M  V30 8702 C 805.142 2.56716 2.53238 0
M  V30 8703 O 804.246 2.10336 3.54729 0
M  V30 8704 H 803.587 0.523912 0.407937 0
M  V30 8705 H 806.117 1.92085 0.704602 0
M  V30 8706 H 806.127 2.76378 3.00132 0
M  V30 8707 H 804.802 3.55307 2.16171 0
M  V30 8708 H 803.379 2.00669 3.14303 0
M  V30 8709 N 805.565 -0.825799 1.34232 0
M  V30 8710 C 806.812 -1.58185 1.26427 0
M  V30 8711 C 807.14 -1.93786 -0.166533 0
M  V30 8712 O 806.395 -1.59986 -1.12707 0
M  V30 8713 C 806.694 -2.89362 2.09772 0
M  V30 8714 C 806.36 -2.73066 3.58812 0
M  V30 8715 C 805.022 -2.68329 3.99441 0
M  V30 8716 C 807.374 -2.56946 4.53462 0
M  V30 8717 C 804.702 -2.4539 5.32917 0
M  V30 8718 C 807.054 -2.35538 5.87115 0
M  V30 8719 C 805.718 -2.29212 6.26912 0
M  V30 8720 H 804.988 -0.57884 0.462629 0
M  V30 8721 H 807.635 -0.955714 1.65947 0
M  V30 8722 H 805.94 -3.56251 1.63071 0
M  V30 8723 H 807.637 -3.4694 2.01081 0
M  V30 8724 H 804.227 -2.77591 3.26559 0
M  V30 8725 H 808.411 -2.59631 4.22972 0
M  V30 8726 H 803.667 -2.38947 5.62774 0
M  V30 8727 H 807.841 -2.22051 6.6005 0
M  V30 8728 H 805.468 -2.11197 7.30274 0
M  V30 8729 N 807.043 -1.17915 -1.04565 0
M  V30 8730 C 807.991 -0.897919 -2.1457 0
M  V30 8731 C 808.985 0.139883 -1.68821 0
M  V30 8732 O 810.191 -0.00779463 -1.79998 0
M  V30 8733 H 806.566 -0.272867 -0.700748 0
M  V30 8734 H 808.537 -1.83268 -2.3549 0
M  V30 8735 C 807.286 -0.434634 -3.44973 0
M  V30 8736 H 806.609 -1.22469 -3.8058 0
M  V30 8737 H 808.049 -0.276804 -4.23095 0
M  V30 8738 C 806.508 0.848738 -3.26034 0
M  V30 8739 O 807.038 1.9141 -3.53164 0
M  V30 8740 N 805.244 0.799373 -2.79389 0
M  V30 8741 H 804.791 -0.0678192 -2.57511 0
M  V30 8742 H 804.749 1.6585 -2.67098 0
M  V30 8743 N 808.521 1.23394 -0.980386 0
M  V30 8744 C 809.761 1.93543 -0.657288 0
M  V30 8745 C 810.125 1.74791 0.794477 0
M  V30 8746 O 811.326 2.39089 1.2284 0
M  V30 8747 C 809.597 3.42025 -1.03701 0
M  V30 8748 S 811.156 4.30871 -0.830379 0
M  V30 8749 H 807.974 0.669012 -0.240717 0
M  V30 8750 H 810.576 1.49478 -1.26002 0
M  V30 8751 H 809.28 3.53183 -2.09022 0
M  V30 8752 H 808.811 3.91091 -0.425559 0
M  V30 8753 H 810.826 4.95377 0.285719 0
M  V30 8754 N 809.999 0.752036 1.385 0
M  V30 8755 C 811.246 0.307503 2.00152 0
M  V30 8756 C 811.574 -1.11033 1.59693 0
M  V30 8757 O 810.829 -1.77455 0.825125 0
M  V30 8758 C 811.128 0.376155 3.55415 0
M  V30 8759 C 810.794 1.74942 4.15579 0
M  V30 8760 C 809.456 2.12525 4.31725 0
M  V30 8761 C 811.808 2.65031 4.48785 0
M  V30 8762 C 809.136 3.39671 4.78373 0
M  V30 8763 C 811.488 3.91567 4.96848 0
M  V30 8764 C 810.152 4.2922 5.11201 0
M  V30 8765 H 809.422 0.112523 0.732407 0
M  V30 8766 H 812.069 0.962213 1.65571 0
M  V30 8767 H 810.374 -0.362121 3.90123 0
M  V30 8768 H 812.071 0.0138065 4.00998 0
M  V30 8769 H 808.661 1.44726 4.03426 0
M  V30 8770 H 812.845 2.3726 4.35914 0
M  V30 8771 H 808.101 3.68765 4.8767 0
M  V30 8772 H 812.275 4.61517 5.21512 0
M  V30 8773 H 809.902 5.27805 5.47107 0
M  V30 8774 N 811.477 -1.49425 0.500989 0
M  V30 8775 C 812.754 -1.9531 -0.106551 0
M  V30 8776 C 813.134 -1.44248 -1.54129 0
M  V30 8777 O 812.482 -0.656237 -2.18874 0
M  V30 8778 C 812.692 -3.48995 -0.0191972 0
M  V30 8779 C 814.04 -4.24161 -0.193129 0
M  V30 8780 O 815.064 -3.56075 -0.0943843 0
M  V30 8781 O 813.923 -5.45064 -0.395869 0
M  V30 8782 H 811.017 -0.82149 -0.0953068 0
M  V30 8783 H 813.563 -1.6007 0.563526 0
M  V30 8784 H 812.335 -3.78794 0.981353 0
M  V30 8785 H 811.958 -3.90852 -0.72942 0
M  V30 8786 N 812.955 -0.234822 -1.55841 0
M  V30 8787 C 814.202 0.39326 -1.98645 0
M  V30 8788 C 814.53 1.58823 -1.12274 0
M  V30 8789 O 813.785 1.94954 -0.170731 0
M  V30 8790 C 814.084 0.858032 -3.46947 0
M  V30 8791 C 813.75 -0.227858 -4.50324 0
M  V30 8792 C 812.412 -0.526128 -4.78315 0
M  V30 8793 C 814.764 -0.961576 -5.12253 0
M  V30 8794 C 812.092 -1.5624 -5.65514 0
M  V30 8795 C 814.444 -1.98728 -6.00575 0
M  V30 8796 C 813.108 -2.29233 -6.26904 0
M  V30 8797 H 812.378 0.143904 -0.726892 0
M  V30 8798 H 815.025 -0.34012 -1.88455 0
M  V30 8799 H 813.33 1.67041 -3.54408 0
M  V30 8800 H 815.027 1.35407 -3.77447 0
M  V30 8801 H 811.617 0.0147624 -4.28597 0
M  V30 8802 H 815.801 -0.744388 -4.90686 0
M  V30 8803 H 811.057 -1.80422 -5.84173 0
M  V30 8804 H 815.231 -2.5608 -6.47608 0
M  V30 8805 H 812.858 -3.09671 -6.94268 0
M  V30 8806 N 814.433 1.57553 0.0384317 0
M  V30 8807 C 815.681 1.88468 0.729672 0
M  V30 8808 C 816.002 0.831302 1.76393 0
M  V30 8809 O 815.272 -0.13622 1.95426 0
M  V30 8810 H 813.852 0.695529 0.272485 0
M  V30 8811 H 816.514 1.94899 0.0066032 0
M  V30 8812 H 815.61 2.8705 1.22511 0
M  V30 8813 N 815.911 -0.310526 1.54511 0
M  V30 8814 C 817.157 -1.04846 1.73595 0
M  V30 8815 C 817.49 -1.87244 0.515118 0
M  V30 8816 O 816.765 -1.88282 -0.48786 0
M  V30 8817 C 817.048 -1.96237 3.01932 0
M  V30 8818 C 816.901 -1.17082 4.34295 0
M  V30 8819 C 818.22 -2.9556 3.26086 0
M  V30 8820 H 815.339 -0.37976 0.631626 0
M  V30 8821 H 817.981 -0.32394 1.87218 0
M  V30 8822 H 816.131 -2.58015 2.90449 0
M  V30 8823 H 817.803 -0.576643 4.57682 0
M  V30 8824 H 816.046 -0.473336 4.3121 0
M  V30 8825 H 816.717 -1.84257 5.20339 0
M  V30 8826 H 819.193 -2.43908 3.37117 0
M  V30 8827 H 818.069 -3.5668 4.17218 0
M  V30 8828 H 818.33 -3.68715 2.4393 0
M  V30 8829 N 817.389 -1.46805 -0.573248 0
M  V30 8830 C 818.638 -1.51868 -1.32736 0
M  V30 8831 C 818.951 -0.178765 -1.94781 0
M  V30 8832 O 820.157 -0.107272 -2.71288 0
M  V30 8833 C 818.613 -2.67641 -2.40616 0
M  V30 8834 C 818.221 -4.08094 -1.84832 0
M  V30 8835 C 819.965 -2.81984 -3.17309 0
M  V30 8836 C 817.872 -5.15193 -2.90397 0
M  V30 8837 H 816.802 -0.56523 -0.49903 0
M  V30 8838 H 819.453 -1.7304 -0.610695 0
M  V30 8839 H 817.835 -2.39818 -3.15124 0
M  V30 8840 H 819.009 -4.45751 -1.16803 0
M  V30 8841 H 817.324 -3.985 -1.20775 0
M  V30 8842 H 819.921 -3.59166 -3.96111 0
M  V30 8843 H 820.264 -1.89842 -3.70494 0
M  V30 8844 H 820.797 -3.095 -2.4991 0
M  V30 8845 H 817.536 -6.09158 -2.42088 0
M  V30 8846 H 817.056 -4.82071 -3.56886 0
M  V30 8847 H 818.735 -5.41448 -3.54179 0
M  V30 8848 N 818.867 0.818669 -1.34668 0
M  V30 8849 C 820.113 1.57746 -1.27453 0
M  V30 8850 C 820.446 1.93588 0.154077 0
M  V30 8851 O 819.721 1.60371 1.10051 0
M  V30 8852 C 820.004 2.87414 -2.16945 0
M  V30 8853 C 819.857 2.58125 -3.68363 0
M  V30 8854 C 821.176 3.89021 -2.05792 0
M  V30 8855 H 818.295 0.572339 -0.464324 0
M  V30 8856 H 820.937 0.942784 -1.64959 0
M  V30 8857 H 819.087 3.41576 -1.85089 0
M  V30 8858 H 820.759 2.10239 -4.10606 0
M  V30 8859 H 819.002 1.91503 -3.89242 0
M  V30 8860 H 819.673 3.5061 -4.26353 0
M  V30 8861 H 822.149 3.44224 -2.33771 0
M  V30 8862 H 821.025 4.77548 -2.70628 0
M  V30 8863 H 821.286 4.29786 -1.03618 0
M  V30 8864 N 820.346 1.18468 1.03938 0
M  V30 8865 C 821.594 0.978895 1.76811 0
M  V30 8866 C 821.915 -0.49257 1.88676 0
M  V30 8867 O 821.185 -1.3572 1.41269 0
M  V30 8868 H 819.765 0.359201 0.654968 0
M  V30 8869 H 822.427 1.49173 1.25433 0
M  V30 8870 H 821.523 1.418 2.78027 0
M  V30 8871 N 821.824 -1.22873 0.986916 0
M  V30 8872 C 823.049 -1.96028 0.677341 0
M  V30 8873 C 823.474 -1.72487 -0.750319 0
M  V30 8874 O 822.832 -1.00036 -1.51203 0
M  V30 8875 C 822.88 -3.46983 0.981593 0
M  V30 8876 O 821.984 -4.12328 0.0770729 0
M  V30 8877 H 821.325 -0.613458 0.254096 0
M  V30 8878 H 823.855 -1.56132 1.32227 0
M  V30 8879 H 823.865 -3.9747 0.920969 0
M  V30 8880 H 822.54 -3.63442 2.02194 0
M  V30 8881 H 821.117 -3.72402 0.192666 0
M  V30 8882 N 823.302 -0.75937 -1.38099 0
M  V30 8883 C 824.548 -0.318584 -2.00282 0
M  V30 8884 C 824.881 1.09854 -1.60143 0
M  V30 8885 O 824.156 1.75344 -0.841702 0
M  V30 8886 C 824.439 -0.448047 -3.57302 0
M  V30 8887 C 824.292 -1.9067 -4.07388 0
M  V30 8888 C 825.611 0.155119 -4.39827 0
M  V30 8889 H 822.73 -0.117233 -0.727616 0
M  V30 8890 H 825.372 -0.960097 -1.63958 0
M  V30 8891 H 823.522 0.0981003 -3.88376 0
M  V30 8892 H 825.194 -2.5116 -3.86932 0
M  V30 8893 H 823.437 -2.41979 -3.6004 0
M  V30 8894 H 824.108 -1.94841 -5.1647 0
M  V30 8895 H 826.584 -0.31073 -4.14938 0
M  V30 8896 H 825.46 0.0343264 -5.48889 0
M  V30 8897 H 825.721 1.24407 -4.24235 0
M  V30 8898 N 824.78 1.49157 -0.508906 0
M  V30 8899 C 826.027 2.02473 0.0327983 0
M  V30 8900 C 826.355 1.38792 1.36261 0
M  V30 8901 O 825.61 0.515576 1.88786 0
M  V30 8902 C 825.909 3.56687 0.225717 0
M  V30 8903 C 825.575 4.39046 -1.02708 0
M  V30 8904 C 824.237 4.61271 -1.37048 0
M  V30 8905 C 826.589 4.86902 -1.85946 0
M  V30 8906 C 823.917 5.28598 -2.54562 0
M  V30 8907 C 826.269 5.55521 -3.0262 0
M  V30 8908 C 824.933 5.7599 -3.3733 0
M  V30 8909 H 824.203 0.740903 0.0120017 0
M  V30 8910 H 826.85 1.79372 -0.670665 0
M  V30 8911 H 825.155 3.78511 1.01177 0
M  V30 8912 H 826.852 3.95541 0.659433 0
M  V30 8913 H 823.442 4.21994 -0.749615 0
M  V30 8914 H 827.626 4.69553 -1.6073 0
M  V30 8915 H 822.882 5.42646 -2.81682 0
M  V30 8916 H 827.056 5.91576 -3.67438 0
M  V30 8917 H 824.683 6.27934 -4.2849 0
M  V30 8918 N 826.258 0.243083 1.55714 0
M  V30 8919 C 827.168 -0.668913 2.24862 0
M  V30 8920 C 828.184 -1.19638 1.26344 0
M  V30 8921 O 829.36 -1.23345 1.5921 0
M  V30 8922 C 826.425 -1.85084 2.93163 0
M  V30 8923 C 825.486 -1.36323 4.07081 0
M  V30 8924 C 824.719 -2.48882 4.72116 0
M  V30 8925 O 824.942 -3.67523 4.36214 0
M  V30 8926 O 823.876 -2.18857 5.60701 0
M  V30 8927 H 827.702 -0.109737 3.03502 0
M  V30 8928 H 825.287 0.0117411 1.49395 0
M  V30 8929 H 827.169 -2.54065 3.36197 0
M  V30 8930 H 825.844 -2.39771 2.17466 0
M  V30 8931 H 824.751 -0.640804 3.68571 0
M  V30 8932 H 826.084 -0.86249 4.84584 0
M  V30 8933 N 827.736 -1.57571 -0.0300757 0
M  V30 8934 C 828.982 -1.89506 -0.722159 0
M  V30 8935 C 829.315 -0.840699 -1.7506 0
M  V30 8936 O 828.59 0.144358 -1.93964 0
M  V30 8937 C 828.873 -3.32081 -1.39262 0
M  V30 8938 C 828.726 -4.48211 -0.377768 0
M  V30 8939 C 830.045 -3.73557 -2.32687 0
M  V30 8940 H 827.164 -0.689213 -0.261064 0
M  V30 8941 H 829.806 -1.89994 0.0150388 0
M  V30 8942 H 827.956 -3.31796 -2.02098 0
M  V30 8943 H 829.628 -4.6063 0.248591 0
M  V30 8944 H 827.871 -4.3274 0.303045 0
M  V30 8945 H 828.542 -5.44854 -0.885347 0
M  V30 8946 H 831.018 -3.75202 -1.79896 0
M  V30 8947 H 829.894 -4.74125 -2.7658 0
M  V30 8948 H 830.155 -3.05759 -3.19317 0
M  V30 8949 N 829.214 0.302327 -1.54673 0
M  V30 8950 C 830.46 1.03924 -1.74149 0
M  V30 8951 C 830.793 1.86968 -0.525041 0
M  V30 8952 O 830.068 1.88538 0.477868 0
M  V30 8953 C 830.351 1.94633 -3.02969 0
M  V30 8954 C 830.204 1.14778 -4.34909 0
M  V30 8955 C 831.523 2.93826 -3.27649 0
M  V30 8956 H 828.642 0.376405 -0.633631 0
M  V30 8957 H 831.284 0.314007 -1.87387 0
M  V30 8958 H 829.434 2.56471 -2.91813 0
M  V30 8959 H 831.106 0.552363 -4.57981 0
M  V30 8960 H 829.349 0.450462 -4.31455 0
M  V30 8961 H 830.02 1.81495 -5.21309 0
M  V30 8962 H 832.496 2.42117 -3.38406 0
M  V30 8963 H 831.372 3.54462 -4.19104 0
M  V30 8964 H 831.633 3.67416 -2.45882 0
M  V30 8965 N 830.692 1.47107 0.565454 0
M  V30 8966 C 831.938 1.54519 1.3227 0
M  V30 8967 C 832.293 0.201313 1.91344 0
M  V30 8968 O 831.586 -0.792058 1.74462 0
M  V30 8969 C 831.78 2.59309 2.45954 0
M  V30 8970 C 831.609 4.03756 1.98019 0
M  V30 8971 C 830.379 4.71293 1.8224 0
M  V30 8972 C 832.577 4.91029 1.52955 0
M  V30 8973 N 830.559 6.00288 1.28557 0
M  V30 8974 C 831.93 6.09986 1.10981 0
M  V30 8975 C 833.985 4.77539 1.4093 0
M  V30 8976 C 832.688 7.16943 0.581796 0
M  V30 8977 C 834.714 5.84584 0.895307 0
M  V30 8978 C 834.076 7.02725 0.485454 0
M  V30 8979 H 830.175 0.620177 0.476345 0
M  V30 8980 H 832.759 1.83814 0.641901 0
M  V30 8981 H 830.93 2.31896 3.11575 0
M  V30 8982 H 832.662 2.56614 3.1294 0
M  V30 8983 H 829.417 4.27074 2.04707 0
M  V30 8984 H 829.841 6.68991 1.03828 0
M  V30 8985 H 834.483 3.86574 1.71231 0
M  V30 8986 H 832.201 8.07661 0.266399 0
M  V30 8987 H 835.787 5.76191 0.805939 0
M  V30 8988 H 834.667 7.84144 0.0938828 0
M  V30 8989 N 832.17 -0.811516 1.35101 0
M  V30 8990 C 833.133 -1.90467 1.27495 0
M  V30 8991 C 834.133 -1.59703 0.187516 0
M  V30 8992 O 835.323 -1.68528 0.440896 0
M  V30 8993 C 832.455 -3.26774 0.971154 0
M  V30 8994 H 833.648 -1.98631 2.2469 0
M  V30 8995 H 831.201 -1.00681 1.19553 0
M  V30 8996 H 831.936 -3.243 0.0028557 0
M  V30 8997 H 831.721 -3.50488 1.75785 0
M  V30 8998 H 833.211 -4.06804 0.943414 0
M  V30 8999 N 833.648 -1.19017 -1.03309 0
M  V30 9000 C 834.611 -0.926076 -2.09658 0
M  V30 9001 C 835.611 0.0917077 -1.60538 0
M  V30 9002 O 836.801 -0.142574 -1.73616 0
M  V30 9003 C 833.933 -0.390958 -3.38651 0
M  V30 9004 H 835.126 -1.86923 -2.3452 0
M  V30 9005 H 832.679 -1.00325 -1.19853 0
M  V30 9006 H 833.414 0.558446 -3.19456 0
M  V30 9007 H 833.199 -1.12474 -3.75622 0
M  V30 9008 H 834.689 -0.225131 -4.16993 0
M  V30 9009 N 835.127 1.22348 -0.993418 0
M  V30 9010 C 836.376 1.90422 -0.665019 0
M  V30 9011 C 836.689 1.78199 0.806512 0
M  V30 9012 O 837.895 2.41193 1.24652 0
M  V30 9013 C 836.351 3.41403 -1.13893 0
M  V30 9014 C 835.959 3.62262 -2.63572 0
M  V30 9015 C 837.703 4.15175 -0.884884 0
M  V30 9016 C 835.61 5.06947 -3.04564 0
M  V30 9017 H 834.54 0.713073 -0.245037 0
M  V30 9018 H 837.191 1.3856 -1.20305 0
M  V30 9019 H 835.573 3.9245 -0.529027 0
M  V30 9020 H 836.747 3.21705 -3.29913 0
M  V30 9021 H 835.062 3.01824 -2.86865 0
M  V30 9022 H 837.659 5.21813 -1.16684 0
M  V30 9023 H 838.002 4.15915 0.178982 0
M  V30 9024 H 838.535 3.70157 -1.45701 0
M  V30 9025 H 835.274 5.11346 -4.10128 0
M  V30 9026 H 834.794 5.48404 -2.42927 0
M  V30 9027 H 836.473 5.75374 -2.95894 0
M  V30 9028 N 836.605 0.766683 1.37694 0
M  V30 9029 C 837.552 0.147725 2.30327 0
M  V30 9030 C 838.522 -0.695366 1.50844 0
M  V30 9031 O 839.707 -0.64878 1.79431 0
M  V30 9032 C 836.847 -0.72935 3.37305 0
M  V30 9033 C 835.96 0.129795 4.31805 0
M  V30 9034 C 835.095 -0.751511 5.25857 0
M  V30 9035 C 834.134 0.110475 6.12 0
M  V30 9036 N 833.271 -0.728522 6.9831 0
M  V30 9037 H 838.111 0.943204 2.82679 0
M  V30 9038 H 835.648 0.476736 1.3916 0
M  V30 9039 H 837.606 -1.25263 3.97951 0
M  V30 9040 H 836.236 -1.49048 2.86329 0
M  V30 9041 H 835.288 0.770829 3.72508 0
M  V30 9042 H 836.6 0.794923 4.92425 0
M  V30 9043 H 835.754 -1.34146 5.91684 0
M  V30 9044 H 834.493 -1.45034 4.65636 0
M  V30 9045 H 833.498 0.712999 5.45157 0
M  V30 9046 H 834.723 0.806557 6.74293 0
M  V30 9047 H 832.669 -1.41206 6.40622 0
M  V30 9048 H 832.586 -0.12058 7.55904 0
M  V30 9049 H 833.854 -1.30303 7.68532 0
M  V30 9050 N 838.083 -1.48885 0.516809 0
M  V30 9051 C 839.494 -1.86557 0.0729921 0
M  V30 9052 C 839.845 -1.42767 -1.34581 0
M  V30 9053 O 838.97 -0.812514 -2.00567 0
M  V30 9054 C 839.565 -3.38567 0.125686 0
M  V30 9055 C 838.124 -3.75481 -0.262867 0
M  V30 9056 C 837.271 -2.72913 0.491281 0
M  V30 9057 H 840.222 -1.40978 0.728767 0
M  V30 9058 H 840.243 -3.74629 -0.665831 0
M  V30 9059 H 839.755 -3.70408 1.15842 0
M  V30 9060 H 837.856 -3.49251 -1.29824 0
M  V30 9061 H 837.969 -4.79052 0.067579 0
M  V30 9062 H 836.333 -2.54627 -0.0608525 0
M  V30 9063 H 837.116 -3.07599 1.5244 0
M  V30 9064 N 839.561 -0.251338 -1.55583 0
M  V30 9065 C 840.809 0.371434 -1.98657 0
M  V30 9066 C 841.13 1.58143 -1.14087 0
M  V30 9067 O 840.4 1.94607 -0.224708 0
M  V30 9068 H 838.98 0.140225 -0.733721 0
M  V30 9069 H 841.642 -0.351157 -1.9171 0
M  V30 9070 H 840.738 0.677554 -3.04657 0
M  V30 9071 N 841.039 1.57585 0.0217189 0
M  V30 9072 C 842.264 1.94267 0.726309 0
M  V30 9073 C 842.689 0.851904 1.67703 0
M  V30 9074 O 842.047 -0.191792 1.80283 0
M  V30 9075 C 842.095 3.30023 1.45318 0
M  V30 9076 O 841.199 3.22791 2.5667 0
M  V30 9077 H 840.54 0.634777 0.194818 0
M  V30 9078 H 843.07 2.04585 -0.0249985 0
M  V30 9079 H 843.08 3.65084 1.82147 0
M  V30 9080 H 841.755 4.08972 0.755962 0
M  V30 9081 H 840.332 2.99373 2.2233 0
M  V30 9082 N 842.517 -0.29412 1.54831 0
M  V30 9083 C 843.742 -1.05156 1.78765 0
M  V30 9084 C 844.167 -1.79916 0.548809 0
M  V30 9085 O 843.525 -1.74243 -0.500909 0
M  V30 9086 C 843.573 -2.00242 2.99893 0
M  V30 9087 O 842.677 -3.08662 2.73499 0
M  V30 9088 H 842.018 -0.301737 0.591482 0
M  V30 9089 H 844.548 -0.329449 2.0193 0
M  V30 9090 H 844.558 -2.42583 3.28051 0
M  V30 9091 H 843.233 -1.45235 3.89717 0
M  V30 9092 H 841.81 -2.70786 2.56377 0
M  V30 9093 N 843.995 -1.47404 -0.557645 0
M  V30 9094 C 845.242 -1.54007 -1.31484 0
M  V30 9095 C 845.57 -0.202162 -1.93447 0
M  V30 9096 O 844.825 0.804901 -1.78381 0
M  V30 9097 C 845.124 -2.6061 -2.44575 0
M  V30 9098 C 844.79 -4.03896 -2.00446 0
M  V30 9099 C 843.452 -4.42901 -1.88127 0
M  V30 9100 C 845.804 -4.93804 -1.66754 0
M  V30 9101 C 843.132 -5.6965 -1.40411 0
M  V30 9102 C 845.484 -6.21016 -1.20509 0
M  V30 9103 C 844.148 -6.58903 -1.06786 0
M  V30 9104 H 843.418 -0.563552 -0.481134 0
M  V30 9105 H 846.065 -1.81001 -0.625375 0
M  V30 9106 H 844.37 -2.27371 -3.19076 0
M  V30 9107 H 846.067 -2.62941 -3.02759 0
M  V30 9108 H 842.657 -3.73077 -2.10977 0
M  V30 9109 H 846.841 -4.64369 -1.75144 0
M  V30 9110 H 842.097 -5.97755 -1.2845 0
M  V30 9111 H 846.271 -6.90095 -0.935001 0
M  V30 9112 H 843.898 -7.57008 -0.695891 0
M  V30 9113 N 845.473 0.80434 -1.35529 0
M  V30 9114 C 846.721 1.55845 -1.28673 0
M  V30 9115 C 847.042 1.94511 0.137976 0
M  V30 9116 O 846.312 1.63775 1.07492 0
M  V30 9117 H 844.892 0.577931 -0.473291 0
M  V30 9118 H 847.554 0.959293 -1.69657 0
M  V30 9119 H 846.65 2.47285 -1.90411 0
M  V30 9120 N 846.951 1.19563 1.02676 0
M  V30 9121 C 848.2 0.993864 1.75514 0
M  V30 9122 C 848.513 -0.475882 1.89723 0
M  V30 9123 O 849.719 -0.796525 2.59553 0
M  V30 9124 C 848.175 1.72937 3.15628 0
M  V30 9125 C 847.783 3.23937 3.09466 0
M  V30 9126 C 849.527 1.61092 3.92746 0
M  V30 9127 C 847.434 3.90067 4.44524 0
M  V30 9128 H 846.364 0.368244 0.657961 0
M  V30 9129 H 849.015 1.43081 1.14891 0
M  V30 9130 H 847.397 1.22025 3.76731 0
M  V30 9131 H 848.571 3.81983 2.57731 0
M  V30 9132 H 846.886 3.3608 2.45843 0
M  V30 9133 H 849.483 2.07848 4.92649 0
M  V30 9134 H 849.826 0.565415 4.12442 0
M  V30 9135 H 850.359 2.09361 3.3825 0
M  V30 9136 H 847.098 4.94725 4.30032 0
M  V30 9137 H 846.618 3.36809 4.96306 0
M  V30 9138 H 848.297 3.93736 5.13401 0
M  V30 9139 N 848.429 -1.21819 0.999893 0
M  V30 9140 C 849.654 -1.95298 0.698094 0
M  V30 9141 C 850.079 -1.73273 -0.731982 0
M  V30 9142 O 849.437 -1.01634 -1.50134 0
M  V30 9143 C 849.485 -3.45922 1.01834 0
M  V30 9144 O 848.589 -4.12223 0.120801 0
M  V30 9145 H 847.93 -0.610729 0.260588 0
M  V30 9146 H 850.46 -1.5472 1.33876 0
M  V30 9147 H 850.47 -3.96471 0.963074 0
M  V30 9148 H 849.145 -3.61278 2.06037 0
M  V30 9149 H 847.722 -3.72177 0.232153 0
M  V30 9150 N 849.908 -0.773975 -1.37286 0
M  V30 9151 C 851.154 -0.339809 -1.99933 0
M  V30 9152 C 851.487 1.0815 -1.61299 0
M  V30 9153 O 850.762 1.74442 -0.860252 0
M  V30 9154 C 851.045 -0.485919 -3.56806 0
M  V30 9155 C 850.898 -1.9498 -4.05343 0
M  V30 9156 C 852.217 0.108461 -4.39966 0
M  V30 9157 H 849.336 -0.124944 -0.726332 0
M  V30 9158 H 851.978 -0.977433 -1.6293 0
M  V30 9159 H 850.128 0.0569023 -3.88458 0
M  V30 9160 H 851.8 -2.5525 -3.84246 0
M  V30 9161 H 850.043 -2.45784 -3.57453 0
M  V30 9162 H 850.714 -2.00308 -5.14374 0
M  V30 9163 H 853.19 -0.354722 -4.14585 0
M  V30 9164 H 852.066 -0.0238926 -5.48895 0
M  V30 9165 H 852.327 1.19901 -4.25531 0
M  V30 9166 N 851.386 1.48609 -0.524698 0
M  V30 9167 C 852.316 2.32366 0.229837 0
M  V30 9168 C 853.297 1.41759 0.940129 0
M  V30 9169 O 854.482 1.7065 0.926936 0
M  V30 9170 C 851.612 3.22835 1.28043 0
M  V30 9171 C 850.566 4.22424 0.688603 0
M  V30 9172 C 849.892 5.0199 1.84146 0
M  V30 9173 C 851.192 5.21217 -0.336176 0
M  V30 9174 H 852.886 2.95698 -0.469339 0
M  V30 9175 H 850.432 1.42197 -0.227156 0
M  V30 9176 H 852.385 3.80253 1.8162 0
M  V30 9177 H 851.109 2.57492 2.00912 0
M  V30 9178 H 849.768 3.66185 0.174402 0
M  V30 9179 H 849.416 4.33076 2.5584 0
M  V30 9180 H 849.116 5.69392 1.45142 0
M  V30 9181 H 850.64 5.62259 2.38111 0
M  V30 9182 H 852.054 5.7319 0.112307 0
M  V30 9183 H 850.451 5.96642 -0.643324 0
M  V30 9184 H 851.521 4.68676 -1.24381 0
M  V30 9185 N 852.864 0.259585 1.55447 0
M  V30 9186 C 854.28 -0.094961 1.59317 0
M  V30 9187 C 854.48 -1.55884 1.2768 0
M  V30 9188 O 853.536 -2.30528 1.0302 0
M  V30 9189 C 854.849 0.265669 2.99524 0
M  V30 9190 C 856.397 0.211007 3.12288 0
M  V30 9191 C 856.872 0.545851 4.54736 0
M  V30 9192 N 858.363 0.496823 4.60528 0
M  V30 9193 C 859.098 0.728909 5.68748 0
M  V30 9194 N 858.594 1.02479 6.85179 0
M  V30 9195 N 860.387 0.658756 5.58226 0
M  V30 9196 H 852.538 1.2141 1.7428 0
M  V30 9197 H 854.801 0.489404 0.811904 0
M  V30 9198 H 854.507 1.28316 3.27457 0
M  V30 9199 H 854.381 -0.401089 3.75061 0
M  V30 9200 H 856.768 -0.797172 2.84129 0
M  V30 9201 H 856.849 0.911799 2.38998 0
M  V30 9202 H 856.493 1.55164 4.83618 0
M  V30 9203 H 856.423 -0.17656 5.26304 0
M  V30 9204 H 858.914 0.277376 3.76881 0
M  V30 9205 H 859.227 1.18897 7.63599 0
M  V30 9206 H 857.572 1.0624 6.86832 0
M  V30 9207 H 860.763 0.427553 4.66143 0
M  V30 9208 H 860.936 0.84302 6.42493 0
M  V30 9209 N 854.342 -1.57594 -0.0133615 0
M  V30 9210 C 855.305 -2.06534 -0.993799 0
M  V30 9211 C 856.305 -0.972267 -1.28077 0
M  V30 9212 O 857.495 -1.23537 -1.22818 0
M  V30 9213 C 854.627 -2.49554 -2.3224 0
M  V30 9214 H 855.82 -2.94419 -0.570741 0
M  V30 9215 H 853.373 -1.54113 -0.260546 0
M  V30 9216 H 854.108 -1.64872 -2.79263 0
M  V30 9217 H 853.893 -3.29371 -2.12737 0
M  V30 9218 H 855.383 -2.8779 -3.026 0
M  V30 9219 N 855.82 0.285905 -1.54985 0
M  V30 9220 C 856.75 1.35752 -1.89983 0
M  V30 9221 C 857.731 1.52163 -0.760295 0
M  V30 9222 O 858.916 1.65421 -1.01733 0
M  V30 9223 C 856.046 2.71925 -2.16042 0
M  V30 9224 C 855 2.70261 -3.31878 0
M  V30 9225 C 854.326 4.09864 -3.43388 0
M  V30 9226 C 855.626 2.30667 -4.68604 0
M  V30 9227 H 857.32 1.06709 -2.79738 0
M  V30 9228 H 854.866 0.511884 -1.34595 0
M  V30 9229 H 856.819 3.46992 -2.39113 0
M  V30 9230 H 855.543 3.02523 -1.23074 0
M  V30 9231 H 854.202 1.97651 -3.08755 0
M  V30 9232 H 853.85 4.37664 -2.47909 0
M  V30 9233 H 853.55 4.09648 -4.21262 0
M  V30 9234 H 855.074 4.86689 -3.68736 0
M  V30 9235 H 856.488 2.95453 -4.91305 0
M  V30 9236 H 854.885 2.41637 -5.49301 0
M  V30 9237 H 855.955 1.25793 -4.68299 0
M  V30 9238 N 857.298 1.47698 0.54982 0
M  V30 9239 C 858.714 1.3338 0.876468 0
M  V30 9240 C 858.914 0.329837 1.98782 0
M  V30 9241 O 857.97 -0.256022 2.51199 0
M  V30 9242 C 859.283 2.72903 1.26272 0
M  V30 9243 C 860.831 2.81243 1.37373 0
M  V30 9244 C 861.306 4.21423 1.79351 0
M  V30 9245 N 862.797 4.24 1.86489 0
M  V30 9246 C 863.532 5.29386 2.20313 0
M  V30 9247 N 863.028 6.4507 2.527 0
M  V30 9248 N 864.821 5.16768 2.2115 0
M  V30 9249 H 856.972 2.11603 -0.183781 0
M  V30 9250 H 859.235 0.947798 -0.0195601 0
M  V30 9251 H 858.941 3.47836 0.519889 0
M  V30 9252 H 858.815 3.05151 2.21727 0
M  V30 9253 H 861.202 2.06577 2.10737 0
M  V30 9254 H 861.283 2.52639 0.400882 0
M  V30 9255 H 860.927 4.96597 1.06555 0
M  V30 9256 H 860.857 4.47456 2.77652 0
M  V30 9257 H 863.348 3.40547 1.63817 0
M  V30 9258 H 863.661 7.21236 2.77557 0
M  V30 9259 H 862.006 6.48377 2.50263 0
M  V30 9260 H 865.197 4.25416 1.95293 0
M  V30 9261 H 865.37 5.99004 2.4718 0
M  V30 9262 N 858.776 -0.797141 1.35954 0
M  V30 9263 C 859.706 -1.92387 1.32323 0
M  V30 9264 C 860.687 -1.68967 0.196007 0
M  V30 9265 O 861.872 -1.90193 0.39245 0
M  V30 9266 C 859.002 -3.29286 1.10398 0
M  V30 9267 C 857.956 -3.67212 2.19862 0
M  V30 9268 C 857.282 -5.02377 1.8309 0
M  V30 9269 C 858.582 -3.76602 3.61896 0
M  V30 9270 H 860.276 -1.95683 2.26602 0
M  V30 9271 H 857.822 -0.94007 1.09081 0
M  V30 9272 H 859.775 -4.07721 1.06495 0
M  V30 9273 H 858.499 -3.26358 0.125668 0
M  V30 9274 H 857.158 -2.91069 2.22878 0
M  V30 9275 H 856.806 -4.95961 0.838527 0
M  V30 9276 H 856.506 -5.28722 2.56372 0
M  V30 9277 H 858.03 -5.8324 1.80729 0
M  V30 9278 H 859.444 -4.45246 3.6115 0
M  V30 9279 H 857.841 -4.14425 4.34018 0
M  V30 9280 H 858.911 -2.77906 3.97361 0
M  V30 9281 N 860.254 -1.20106 -1.0204 0
M  V30 9282 C 861.184 -0.970301 -2.12385 0
M  V30 9283 C 862.165 0.099378 -1.69809 0
M  V30 9284 O 863.35 -0.057365 -1.94115 0
M  V30 9285 C 860.48 -0.517431 -3.43424 0
M  V30 9286 C 859.434 -1.52992 -3.99722 0
M  V30 9287 C 858.76 -0.933817 -5.26483 0
M  V30 9288 C 860.06 -2.91257 -4.33551 0
M  V30 9289 H 861.754 -1.89316 -2.31948 0
M  V30 9290 H 859.3 -0.911655 -1.11467 0
M  V30 9291 H 861.253 -0.343243 -4.2 0
M  V30 9292 H 859.977 0.441049 -3.23608 0
M  V30 9293 H 858.636 -1.6914 -3.2525 0
M  V30 9294 H 858.284 0.0324763 -5.0299 0
M  V30 9295 H 857.984 -1.60999 -5.65113 0
M  V30 9296 H 859.508 -0.770614 -6.05718 0
M  V30 9297 H 860.922 -2.78642 -5.0103 0
M  V30 9298 H 859.319 -3.55745 -4.83286 0
M  V30 9299 H 860.389 -3.43269 -3.42483 0
M  V30 9300 N 861.732 1.21287 -1.00634 0
M  V30 9301 C 863.148 1.42467 -0.719389 0
M  V30 9302 C 863.348 1.88767 0.704927 0
M  V30 9303 O 862.404 2.05004 1.47409 0
M  V30 9304 C 863.717 2.455 -1.73639 0
M  V30 9305 C 865.265 2.59281 -1.75335 0
M  V30 9306 C 865.74 3.65547 -2.75934 0
M  V30 9307 N 867.231 3.73019 -2.74611 0
M  V30 9308 C 867.966 4.54873 -3.4911 0
M  V30 9309 N 867.462 5.40614 -4.33253 0
M  V30 9310 N 869.255 4.49309 -3.37754 0
M  V30 9311 H 861.406 0.895454 -1.92602 0
M  V30 9312 H 863.669 0.455491 -0.831404 0
M  V30 9313 H 863.375 2.18455 -2.75627 0
M  V30 9314 H 863.249 3.44325 -1.54014 0
M  V30 9315 H 865.636 2.85661 -0.740377 0
M  V30 9316 H 865.717 1.60685 -1.99032 0
M  V30 9317 H 865.361 3.39911 -3.77389 0
M  V30 9318 H 865.291 4.63741 -2.49503 0
M  V30 9319 H 867.782 3.11766 -2.13565 0
M  V30 9320 H 868.095 6.0013 -4.86892 0
M  V30 9321 H 866.44 5.40151 -4.37335 0
M  V30 9322 H 869.631 3.81357 -2.71449 0
M  V30 9323 H 869.804 5.12867 -3.9607 0
M  V30 9324 N 863.21 0.781244 1.36873 0
M  V30 9325 C 864.459 0.34652 1.98701 0
M  V30 9326 C 864.772 -1.08555 1.62712 0
M  V30 9327 O 865.978 -1.62213 2.17713 0
M  V30 9328 C 864.434 0.568611 3.5538 0
M  V30 9329 C 864.042 2.01156 4.003 0
M  V30 9330 C 865.786 0.197983 4.24038 0
M  V30 9331 C 863.693 2.18074 5.49725 0
M  V30 9332 H 862.623 0.125821 0.743428 0
M  V30 9333 H 865.274 0.961721 1.56279 0
M  V30 9334 H 863.656 -0.116185 3.9583 0
M  V30 9335 H 864.83 2.73209 3.71071 0
M  V30 9336 H 863.145 2.33967 3.44454 0
M  V30 9337 H 865.742 0.302778 5.33842 0
M  V30 9338 H 866.085 -0.852927 4.07469 0
M  V30 9339 H 866.618 0.835696 3.88923 0
M  V30 9340 H 863.357 3.21519 5.71232 0
M  V30 9341 H 862.877 1.50517 5.80607 0
M  V30 9342 H 864.556 1.98393 6.15832 0
M  V30 9343 N 864.689 -1.48329 0.532571 0
M  V30 9344 C 865.936 -2.025 -0.000582356 0
M  V30 9345 C 866.264 -1.40942 -1.34036 0
M  V30 9346 O 865.519 -0.545545 -1.87942 0
M  V30 9347 C 865.818 -3.57 -0.168943 0
M  V30 9348 C 865.484 -4.37357 1.0968 0
M  V30 9349 C 864.146 -4.59033 1.44369 0
M  V30 9350 C 866.498 -4.83882 1.93669 0
M  V30 9351 C 863.826 -5.24481 2.62939 0
M  V30 9352 C 866.178 -5.50637 3.11419 0
M  V30 9353 C 864.842 -5.70551 3.46451 0
M  V30 9354 H 864.112 -0.741 -0.000213099 0
M  V30 9355 H 866.759 -1.78282 0.699117 0
M  V30 9356 H 865.064 -3.80072 -0.951429 0
M  V30 9357 H 866.761 -3.9654 -0.596422 0
M  V30 9358 H 863.351 -4.20748 0.816655 0
M  V30 9359 H 867.535 -4.66936 1.6818 0
M  V30 9360 H 862.791 -5.38096 2.9028 0
M  V30 9361 H 866.965 -5.85655 3.76803 0
M  V30 9362 H 864.592 -6.21037 4.38425 0
M  V30 9363 N 866.167 -0.267825 -1.55308 0
M  V30 9364 C 867.114 0.6228 -2.22238 0
M  V30 9365 C 868.084 1.15536 -1.19334 0
M  V30 9366 O 869.269 1.206 -1.47852 0
M  V30 9367 C 866.409 1.80447 -2.94164 0
M  V30 9368 C 865.522 1.30646 -4.11771 0
M  V30 9369 C 864.657 2.44935 -4.7136 0
M  V30 9370 C 863.696 1.92099 -5.81175 0
M  V30 9371 N 862.833 2.99834 -6.34857 0
M  V30 9372 H 867.673 0.0453874 -2.97965 0
M  V30 9373 H 865.21 0.0106371 -1.47096 0
M  V30 9374 H 867.168 2.49896 -3.34078 0
M  V30 9375 H 865.798 2.35403 -2.20874 0
M  V30 9376 H 864.85 0.505314 -3.77029 0
M  V30 9377 H 866.162 0.879409 -4.90987 0
M  V30 9378 H 865.316 3.2239 -5.13955 0
M  V30 9379 H 864.055 2.90951 -3.91406 0
M  V30 9380 H 863.06 1.13122 -5.38037 0
M  V30 9381 H 864.285 1.47027 -6.62993 0
M  V30 9382 H 862.231 3.45246 -5.578 0
M  V30 9383 H 862.148 2.61524 -7.09324 0
M  V30 9384 H 863.416 3.77286 -6.82111 0
M  V30 9385 N 867.645 1.57599 0.00500368 0
M  V30 9386 C 868.891 1.90631 0.691919 0
M  V30 9387 C 869.224 0.868443 1.737 0
M  V30 9388 O 868.499 -0.113482 1.94169 0
M  V30 9389 C 868.782 3.34255 1.33961 0
M  V30 9390 C 868.635 4.48755 0.306413 0
M  V30 9391 C 869.954 3.77211 2.26715 0
M  V30 9392 H 867.073 0.693279 0.250066 0
M  V30 9393 H 869.715 1.89946 -0.0452634 0
M  V30 9394 H 867.865 3.3497 1.96793 0
M  V30 9395 H 869.537 4.60176 -0.321841 0
M  V30 9396 H 867.78 4.32203 -0.371852 0
M  V30 9397 H 868.451 5.46193 0.798554 0
M  V30 9398 H 870.927 3.78017 1.73904 0
M  V30 9399 H 869.803 4.78466 2.69002 0
M  V30 9400 H 870.064 3.10801 3.14413 0
M  V30 9401 N 869.123 -0.277682 1.55134 0
M  V30 9402 C 870.351 -1.02826 1.7954 0
M  V30 9403 C 870.766 -1.80105 0.566373 0
M  V30 9404 O 870.123 -1.76491 -0.464448 0
M  V30 9405 C 870.174 -1.99053 3.01762 0
M  V30 9406 O 869.895 -1.24906 4.19917 0
M  V30 9407 C 871.396 -2.85961 3.38735 0
M  V30 9408 H 868.616 -0.303958 0.598206 0
M  V30 9409 H 871.16 -0.309884 2.02138 0
M  V30 9410 H 869.315 -2.66359 2.81303 0
M  V30 9411 H 869.729 -1.89725 4.88983 0
M  V30 9412 H 871.203 -3.49286 4.27438 0
M  V30 9413 H 871.68 -3.55486 2.57928 0
M  V30 9414 H 872.286 -2.24152 3.61436 0
M  V30 9415 N 870.601 -1.47988 -0.541979 0
M  V30 9416 C 871.548 -1.61615 -1.6477 0
M  V30 9417 C 872.518 -0.458602 -1.59644 0
M  V30 9418 O 873.703 -0.680585 -1.78249 0
M  V30 9419 C 870.843 -1.65066 -3.03063 0
M  V30 9420 C 869.956 -2.91845 -3.18513 0
M  V30 9421 C 869.091 -2.86534 -4.47294 0
M  V30 9422 C 868.13 -4.0807 -4.5623 0
M  V30 9423 N 867.267 -4.00905 -5.76385 0
M  V30 9424 H 872.107 -2.56046 -1.52461 0
M  V30 9425 H 869.644 -1.26989 -0.742449 0
M  V30 9426 H 871.602 -1.65049 -3.83164 0
M  V30 9427 H 870.232 -0.74136 -3.14171 0
M  V30 9428 H 869.284 -3.01661 -2.31743 0
M  V30 9429 H 870.596 -3.81804 -3.20978 0
M  V30 9430 H 869.75 -2.84851 -5.35672 0
M  V30 9431 H 868.489 -1.94283 -4.47332 0
M  V30 9432 H 867.494 -4.10041 -3.66261 0
M  V30 9433 H 868.719 -5.01465 -4.5794 0
M  V30 9434 H 866.665 -3.11467 -5.77342 0
M  V30 9435 H 866.582 -4.84557 -5.80293 0
M  V30 9436 H 867.85 -4.03263 -6.67083 0
M  V30 9437 N 872.079 0.78992 -1.36375 0
M  V30 9438 C 873.309 1.57644 -1.33536 0
M  V30 9439 C 873.717 1.89007 0.0855075 0
M  V30 9440 O 873.06 1.50547 1.05267 0
M  V30 9441 C 873.122 2.92424 -2.09113 0
M  V30 9442 C 872.786 2.83793 -3.58205 0
M  V30 9443 C 873.783 2.56072 -4.52464 0
M  V30 9444 C 871.468 3.02386 -4.01084 0
M  V30 9445 C 873.462 2.47044 -5.87578 0
M  V30 9446 C 871.149 2.9298 -5.36289 0
M  V30 9447 C 872.147 2.65347 -6.29349 0
M  V30 9448 O 871.835 2.55935 -7.62071 0
M  V30 9449 H 871.567 0.495639 -0.459694 0
M  V30 9450 H 874.121 0.988354 -1.80058 0
M  V30 9451 H 872.351 3.53282 -1.57254 0
M  V30 9452 H 874.04 3.53693 -1.99139 0
M  V30 9453 H 874.806 2.4141 -4.2065 0
M  V30 9454 H 870.685 3.229 -3.29023 0
M  V30 9455 H 874.229 2.25396 -6.60184 0
M  V30 9456 H 870.126 3.07204 -5.67711 0
M  V30 9457 H 870.894 2.7142 -7.72187 0
M  V30 9458 N 873.557 1.20646 1.01402 0
M  V30 9459 C 874.803 1.02974 1.75408 0
M  V30 9460 C 875.158 -0.433294 1.87458 0
M  V30 9461 O 874.451 -1.31741 1.39122 0
M  V30 9462 C 874.645 1.64991 3.17037 0
M  V30 9463 C 874.474 3.17174 3.18796 0
M  V30 9464 C 873.244 3.86165 3.2589 0
M  V30 9465 C 875.442 4.14369 3.04636 0
M  V30 9466 N 873.424 5.25614 3.1718 0
M  V30 9467 C 874.795 5.4051 3.03724 0
M  V30 9468 C 876.85 4.05534 2.88872 0
M  V30 9469 C 875.553 6.58836 2.88664 0
M  V30 9470 C 877.579 5.23486 2.75166 0
M  V30 9471 C 876.941 6.48535 2.74922 0
M  V30 9472 H 873.04 0.431068 0.65246 0
M  V30 9473 H 875.624 1.52858 1.20593 0
M  V30 9474 H 873.795 1.17688 3.70141 0
M  V30 9475 H 875.527 1.40612 3.79487 0
M  V30 9476 H 872.282 3.37038 3.32719 0
M  V30 9477 H 872.706 5.98625 3.16192 0
M  V30 9478 H 877.348 3.09661 2.87872 0
M  V30 9479 H 875.066 7.5488 2.88413 0
M  V30 9480 H 878.652 5.18464 2.63982 0
M  V30 9481 H 877.532 7.3827 2.64439 0
M  V30 9482 N 875.035 -1.20752 1.01276 0
M  V30 9483 C 876.26 -1.94547 0.718769 0
M  V30 9484 C 876.685 -1.7404 -0.713563 0
M  V30 9485 O 876.043 -1.03221 -1.49047 0
M  V30 9486 C 876.091 -3.44823 1.05497 0
M  V30 9487 O 875.195 -4.12072 0.164516 0
M  V30 9488 H 874.536 -0.607931 0.267051 0
M  V30 9489 H 877.066 -1.53292 1.35509 0
M  V30 9490 H 877.076 -3.95427 1.00507 0
M  V30 9491 H 875.751 -3.59072 2.09858 0
M  V30 9492 H 874.328 -3.71909 0.271615 0
M  V30 9493 N 876.513 -0.788492 -1.36457 0
M  V30 9494 C 877.738 -0.371224 -2.04051 0
M  V30 9495 C 878.163 1.004 -1.59064 0
M  V30 9496 O 877.521 1.64663 -0.758679 0
M  V30 9497 C 877.569 -0.442275 -3.57877 0
M  V30 9498 O 876.673 0.55113 -4.08701 0
M  V30 9499 H 876.014 -0.157808 -0.644975 0
M  V30 9500 H 878.544 -1.06935 -1.74431 0
M  V30 9501 H 878.554 -0.305548 -4.06854 0
M  V30 9502 H 877.229 -1.44547 -3.89973 0
M  V30 9503 H 875.806 0.37614 -3.70998 0
M  V30 9504 N 877.991 1.48044 -0.54043 0
M  V30 9505 C 878.921 2.32597 0.205178 0
M  V30 9506 C 879.902 1.42748 0.925041 0
M  V30 9507 O 881.087 1.71624 0.908784 0
M  V30 9508 C 878.217 3.24175 1.24612 0
M  V30 9509 C 877.171 4.23131 0.64376 0
M  V30 9510 C 876.497 5.03915 1.78812 0
M  V30 9511 C 877.797 5.20831 -0.39144 0
M  V30 9512 H 879.491 2.95184 -0.500676 0
M  V30 9513 H 877.037 1.41948 -0.242225 0
M  V30 9514 H 878.99 3.82158 1.77576 0
M  V30 9515 H 877.714 2.59608 1.98169 0
M  V30 9516 H 876.373 3.66349 0.135554 0
M  V30 9517 H 876.021 4.35765 2.51232 0
M  V30 9518 H 875.721 5.709 1.39094 0
M  V30 9519 H 877.245 5.64753 2.32134 0
M  V30 9520 H 878.659 5.73277 0.0515064 0
M  V30 9521 H 877.056 5.95926 -0.706569 0
M  V30 9522 H 878.126 4.6733 -1.29345 0
M  V30 9523 N 879.47 0.276058 1.55163 0
M  V30 9524 C 880.886 -0.0780579 1.59409 0
M  V30 9525 C 881.086 -1.54521 1.29327 0
M  V30 9526 O 880.142 -2.29422 1.05459 0
M  V30 9527 C 881.455 0.297422 2.99225 0
M  V30 9528 C 883.003 0.244117 3.12047 0
M  V30 9529 C 883.478 0.594051 4.54131 0
M  V30 9530 N 884.969 0.54564 4.59975 0
M  V30 9531 C 885.704 0.789192 5.67943 0
M  V30 9532 N 885.2 1.09741 6.84053 0
M  V30 9533 N 886.993 0.717926 5.57496 0
M  V30 9534 H 879.144 1.23251 1.72982 0
M  V30 9535 H 881.407 0.497988 0.806667 0
M  V30 9536 H 881.113 1.31782 3.26077 0
M  V30 9537 H 880.987 -0.361286 3.75466 0
M  V30 9538 H 883.374 -0.766992 2.84958 0
M  V30 9539 H 883.455 0.937097 2.38017 0
M  V30 9540 H 883.099 1.60285 4.81945 0
M  V30 9541 H 883.029 -0.120728 5.26462 0
M  V30 9542 H 885.52 0.317334 3.76565 0
M  V30 9543 H 885.833 1.26989 7.62295 0
M  V30 9544 H 884.178 1.13519 6.85666 0
M  V30 9545 H 887.369 0.47697 4.65664 0
M  V30 9546 H 887.542 0.911118 6.41563 0
M  V30 9547 N 880.948 -1.576 0.00335426 0
M  V30 9548 C 881.896 -2.09759 -1.00517 0
M  V30 9549 C 882.89 -1.01833 -1.35375 0
M  V30 9550 O 884.096 -1.20294 -1.339 0
M  V30 9551 H 880.471 -0.669821 -0.341825 0
M  V30 9552 H 882.442 -2.93478 -0.539718 0
M  V30 9553 C 881.191 -2.6189 -2.28711 0
M  V30 9554 H 880.514 -3.44571 -2.02758 0
M  V30 9555 H 881.954 -3.02061 -2.97548 0
M  V30 9556 C 880.413 -1.53455 -2.99922 0
M  V30 9557 O 880.943 -0.919402 -3.91037 0
M  V30 9558 N 879.149 -1.2612 -2.61806 0
M  V30 9559 H 878.696 -1.76329 -1.87792 0
M  V30 9560 H 878.654 -0.537872 -3.09765 0
M  V30 9561 N 882.426 0.269451 -1.5528 0
M  V30 9562 C 883.356 1.33729 -1.91413 0
M  V30 9563 C 884.337 1.51348 -0.776391 0
M  V30 9564 O 885.522 1.64332 -1.03482 0
M  V30 9565 C 882.652 2.69618 -2.18914 0
M  V30 9566 C 881.606 2.66725 -3.34726 0
M  V30 9567 C 880.932 4.06199 -3.47716 0
M  V30 9568 C 882.232 2.25684 -4.71025 0
M  V30 9569 H 883.926 1.03736 -2.80854 0
M  V30 9570 H 881.472 0.497579 -1.3513 0
M  V30 9571 H 883.425 3.44436 -2.42779 0
M  V30 9572 H 882.149 3.01201 -1.26275 0
M  V30 9573 H 880.808 1.94365 -3.10834 0
M  V30 9574 H 880.456 4.3501 -2.52537 0
M  V30 9575 H 880.156 4.05157 -4.25583 0
M  V30 9576 H 881.68 4.8275 -3.73877 0
M  V30 9577 H 883.094 2.90225 -4.94411 0
M  V30 9578 H 881.491 2.35797 -5.51833 0
M  V30 9579 H 882.561 1.20819 -4.69607 0
M  V30 9580 N 883.904 1.48273 0.534124 0
M  V30 9581 C 885.15 1.56311 1.29208 0
M  V30 9582 C 885.483 0.234481 1.92779 0
M  V30 9583 O 884.758 -0.759143 1.79073 0
M  V30 9584 C 885.041 2.69831 2.3846 0
M  V30 9585 C 884.894 4.12385 1.79608 0
M  V30 9586 C 886.213 2.79133 3.40254 0
M  V30 9587 H 883.332 0.56899 0.468422 0
M  V30 9588 H 885.974 1.80429 0.595438 0
M  V30 9589 H 884.124 2.49397 2.97881 0
M  V30 9590 H 885.796 4.44246 1.24269 0
M  V30 9591 H 884.039 4.19579 1.10162 0
M  V30 9592 H 884.71 4.87629 2.58693 0
M  V30 9593 H 887.186 2.97632 2.90783 0
M  V30 9594 H 886.062 3.60298 4.14097 0
M  V30 9595 H 886.323 1.87122 4.00547 0
M  V30 9596 N 885.382 -0.782676 1.36792 0
M  V30 9597 C 886.628 -1.54311 1.3159 0
M  V30 9598 C 886.961 -1.93928 -0.102696 0
M  V30 9599 O 886.236 -1.63233 -1.05761 0
M  V30 9600 C 886.519 -2.81561 2.24489 0
M  V30 9601 C 886.372 -2.48268 3.75078 0
M  V30 9602 C 887.691 -3.83428 2.16034 0
M  V30 9603 H 884.81 -0.559828 0.479335 0
M  V30 9604 H 887.452 -0.898717 1.67401 0
M  V30 9605 H 885.602 -3.36549 1.9408 0
M  V30 9606 H 887.274 -1.99279 4.16036 0
M  V30 9607 H 885.517 -1.81116 3.94182 0
M  V30 9608 H 886.188 -3.39183 4.35499 0
M  V30 9609 H 888.664 -3.37905 2.42815 0
M  V30 9610 H 887.54 -4.70204 2.83194 0
M  V30 9611 H 887.801 -4.26887 1.14976 0
M  V30 9612 N 886.86 -1.21182 -1.00761 0
M  V30 9613 C 888.085 -1.05411 -1.78615 0
M  V30 9614 C 888.51 0.391837 -1.83973 0
M  V30 9615 O 887.868 1.28256 -1.28141 0
M  V30 9616 C 887.916 -1.65285 -3.20489 0
M  V30 9617 O 887.02 -0.896558 -4.02536 0
M  V30 9618 H 886.361 -0.37116 -0.550578 0
M  V30 9619 H 888.891 -1.60669 -1.26676 0
M  V30 9620 H 888.901 -1.69397 -3.71172 0
M  V30 9621 H 887.576 -2.70514 -3.15904 0
M  V30 9622 H 886.153 -0.930335 -3.61108 0
M  V30 9623 N 888.338 1.20213 -1.01915 0
M  V30 9624 C 889.268 2.25336 -0.612023 0
M  V30 9625 C 890.249 1.65933 0.374186 0
M  V30 9626 O 891.434 1.92464 0.259053 0
M  V30 9627 C 888.564 3.47267 0.047904 0
M  V30 9628 C 887.518 4.1928 -0.859557 0
M  V30 9629 C 886.844 5.3466 -0.0652655 0
M  V30 9630 C 888.144 4.75143 -2.1688 0
M  V30 9631 H 889.838 2.59645 -1.49079 0
M  V30 9632 H 887.384 1.24808 -0.718263 0
M  V30 9633 H 889.337 4.19991 0.344294 0
M  V30 9634 H 888.061 3.12129 0.961404 0
M  V30 9635 H 886.72 3.48425 -1.13999 0
M  V30 9636 H 886.368 4.95767 0.849964 0
M  V30 9637 H 886.068 5.83772 -0.669618 0
M  V30 9638 H 887.592 6.10187 0.224612 0
M  V30 9639 H 889.006 5.39672 -1.9346 0
M  V30 9640 H 887.403 5.34702 -2.72422 0
M  V30 9641 H 888.473 3.93744 -2.83008 0
M  V30 9642 N 889.816 0.795718 1.36037 0
M  V30 9643 C 890.746 0.212803 2.32528 0
M  V30 9644 C 891.727 -0.655716 1.56953 0
M  V30 9645 O 892.912 -0.588238 1.85077 0
M  V30 9646 C 890.042 -0.648189 3.41198 0
M  V30 9647 C 888.996 0.120948 4.27829 0
M  V30 9648 C 888.322 -0.861044 5.27722 0
M  V30 9649 C 889.622 1.31375 5.05508 0
M  V30 9650 H 891.316 1.01893 2.81528 0
M  V30 9651 H 888.862 0.491422 1.35355 0
M  V30 9652 H 890.815 -1.06597 4.07695 0
M  V30 9653 H 889.539 -1.48709 2.9078 0
M  V30 9654 H 888.198 0.519777 3.62897 0
M  V30 9655 H 887.846 -1.69515 4.73575 0
M  V30 9656 H 887.546 -0.350808 5.86552 0
M  V30 9657 H 889.07 -1.27726 5.97092 0
M  V30 9658 H 890.484 0.971406 5.6501 0
M  V30 9659 H 888.881 1.75772 5.73781 0
M  V30 9660 H 889.951 2.10593 4.36782 0
M  V30 9661 N 891.294 -1.47756 0.548274 0
M  V30 9662 C 892.242 -2.3158 -0.217584 0
M  V30 9663 C 893.236 -1.42372 -0.917957 0
M  V30 9664 O 894.442 -1.59184 -0.840259 0
M  V30 9665 H 890.817 -0.74671 -0.0890388 0
M  V30 9666 H 892.788 -2.94032 0.508719 0
M  V30 9667 C 891.537 -3.24834 -1.24008 0
M  V30 9668 H 890.86 -3.93435 -0.710572 0
M  V30 9669 H 892.3 -3.86336 -1.74701 0
M  V30 9670 C 890.759 -2.47724 -2.2833 0
M  V30 9671 O 891.289 -2.21522 -3.35098 0
M  V30 9672 N 889.495 -2.08891 -2.02022 0
M  V30 9673 H 889.042 -2.30401 -1.1521 0
M  V30 9674 H 889 -1.57613 -2.7204 0
M  V30 9675 N 892.772 -0.284283 -1.55015 0
M  V30 9676 C 893.997 0.335799 -2.04664 0
M  V30 9677 C 894.422 1.47999 -1.16094 0
M  V30 9678 O 893.78 1.8058 -0.161454 0
M  V30 9679 C 893.828 0.785615 -3.51938 0
M  V30 9680 O 892.932 1.89202 -3.66437 0
M  V30 9681 H 892.273 0.0680233 -0.660506 0
M  V30 9682 H 894.803 -0.421255 -2.00216 0
M  V30 9683 H 894.813 1.07892 -3.93476 0
M  V30 9684 H 893.488 -0.0514675 -4.15868 0
M  V30 9685 H 892.065 1.60055 -3.36804 0
M  V30 9686 N 894.251 1.57596 -0.0117121 0
M  V30 9687 C 895.184 2.04624 1.01016 0
M  V30 9688 C 896.162 0.938437 1.32786 0
M  V30 9689 O 897.346 1.20746 1.44751 0
M  V30 9690 C 894.473 2.45369 2.33477 0
M  V30 9691 C 893.519 3.66998 2.17289 0
M  V30 9692 S 894.352 5.14412 1.48795 0
M  V30 9693 C 895.508 5.58438 2.82662 0
M  V30 9694 H 895.741 2.9098 0.60977 0
M  V30 9695 H 893.274 1.53106 0.199494 0
M  V30 9696 H 895.232 2.69511 3.09635 0
M  V30 9697 H 893.893 1.59391 2.70653 0
M  V30 9698 H 893.086 3.93297 3.15172 0
M  V30 9699 H 892.688 3.42918 1.49275 0
M  V30 9700 H 894.98 5.61614 3.78941 0
M  V30 9701 H 895.923 6.58224 2.61049 0
M  V30 9702 H 896.331 4.86033 2.8711 0
M  V30 9703 N 895.729 -0.261212 1.5542 0
M  V30 9704 C 896.676 -1.32315 1.89107 0
M  V30 9705 C 897.646 -1.48517 0.743767 0
M  V30 9706 O 898.831 -1.62733 0.996123 0
M  V30 9707 C 895.971 -2.67626 2.17877 0
M  V30 9708 C 895.084 -2.59549 3.45338 0
M  V30 9709 C 894.219 -3.87118 3.63748 0
M  V30 9710 C 893.258 -3.736 4.8486 0
M  V30 9711 N 892.395 -4.93029 4.99867 0
M  V30 9712 H 897.235 -1.02886 2.79675 0
M  V30 9713 H 894.772 -0.496812 1.38456 0
M  V30 9714 H 896.73 -3.4637 2.32559 0
M  V30 9715 H 895.36 -2.95232 1.30529 0
M  V30 9716 H 894.412 -1.72452 3.39064 0
M  V30 9717 H 895.724 -2.45465 4.34222 0
M  V30 9718 H 894.878 -4.74305 3.78312 0
M  V30 9719 H 893.617 -4.04084 2.73071 0
M  V30 9720 H 892.622 -2.84797 4.70288 0
M  V30 9721 H 893.847 -3.58143 5.76984 0
M  V30 9722 H 891.793 -5.10383 4.12123 0
M  V30 9723 H 891.71 -4.81521 5.82815 0
M  V30 9724 H 892.978 -5.81754 5.18828 0
M  V30 9725 N 897.207 -1.48554 -0.526253 0
M  V30 9726 C 898.432 -1.60686 -1.31129 0
M  V30 9727 C 898.857 -0.268701 -1.86171 0
M  V30 9728 O 898.215 0.760167 -1.64594 0
M  V30 9729 C 898.263 -2.65938 -2.43536 0
M  V30 9730 O 897.367 -2.23356 -3.46678 0
M  V30 9731 H 896.708 -0.538691 -0.388211 0
M  V30 9732 H 899.238 -1.94567 -0.632826 0
M  V30 9733 H 899.248 -2.87327 -2.89668 0
M  V30 9734 H 897.923 -3.63085 -2.02835 0
M  V30 9735 H 896.5 -2.12196 -3.06639 0
M  V30 9736 N 898.685 0.775411 -1.37205 0
M  V30 9737 C 899.934 1.52909 -1.31536 0
M  V30 9738 C 900.247 1.9535 0.0989374 0
M  V30 9739 O 901.453 2.70072 0.278079 0
M  V30 9740 C 899.909 2.761 -2.30861 0
M  V30 9741 C 899.517 2.40773 -3.77799 0
M  V30 9742 C 901.261 3.54052 -2.34195 0
M  V30 9743 C 899.168 3.60444 -4.68865 0
M  V30 9744 H 898.098 0.574061 -0.488845 0
M  V30 9745 H 900.749 0.849642 -1.62645 0
M  V30 9746 H 899.131 3.45916 -1.92764 0
M  V30 9747 H 900.305 1.78764 -4.24712 0
M  V30 9748 H 898.62 1.76004 -3.77375 0
M  V30 9749 H 901.217 4.42992 -2.99437 0
M  V30 9750 H 901.56 3.93649 -1.35449 0
M  V30 9751 H 902.093 2.91229 -2.7098 0
M  V30 9752 H 898.832 3.25932 -5.68725 0
M  V30 9753 H 898.352 4.21571 -4.26659 0
M  V30 9754 H 900.031 4.27302 -4.85821 0
M  V30 9755 N 900.163 1.21714 1.00117 0
M  V30 9756 C 901.412 1.03087 1.73367 0
M  V30 9757 C 901.725 -0.435532 1.90689 0
M  V30 9758 O 902.931 -0.741291 2.61184 0
M  V30 9759 C 901.387 1.79593 3.11888 0
M  V30 9760 C 900.995 3.30428 3.02525 0
M  V30 9761 C 902.739 1.69386 3.89241 0
M  V30 9762 C 900.646 3.99408 4.3615 0
M  V30 9763 H 899.576 0.382117 0.650002 0
M  V30 9764 H 902.227 1.45486 1.11831 0
M  V30 9765 H 900.609 1.29988 3.74058 0
M  V30 9766 H 901.783 3.87364 2.49571 0
M  V30 9767 H 900.098 3.4122 2.38659 0
M  V30 9768 H 902.695 2.18251 4.8813 0
M  V30 9769 H 903.038 0.652773 4.1115 0
M  V30 9770 H 903.571 2.16489 3.33733 0
M  V30 9771 H 900.31 5.03735 4.19442 0
M  V30 9772 H 899.83 3.47261 4.8905 0
M  V30 9773 H 901.509 4.04537 5.04934 0
M  V30 9774 N 901.641 -1.19671 1.02551 0
M  V30 9775 C 902.866 -1.93774 0.739363 0
M  V30 9776 C 903.291 -1.74787 -0.695064 0
M  V30 9777 O 902.649 -1.04796 -1.47944 0
M  V30 9778 C 902.697 -3.43684 1.09149 0
M  V30 9779 O 901.801 -4.11874 0.208213 0
M  V30 9780 H 901.142 -0.605064 0.273484 0
M  V30 9781 H 903.672 -1.51846 1.37128 0
M  V30 9782 H 903.682 -3.94339 1.04695 0
M  V30 9783 H 902.357 -3.56826 2.13654 0
M  V30 9784 H 900.934 -3.716 0.311045 0
M  V30 9785 N 903.119 -0.802921 -1.35613 0
M  V30 9786 C 904.049 -0.225131 -2.32412 0
M  V30 9787 C 905.03 0.647383 -1.57299 0
M  V30 9788 O 906.215 0.578414 -1.85386 0
M  V30 9789 C 903.345 0.630085 -3.41537 0
M  V30 9790 C 902.299 -0.143635 -4.27759 0
M  V30 9791 C 901.625 0.833046 -5.28171 0
M  V30 9792 C 902.925 -1.34054 -5.04804 0
M  V30 9793 H 904.619 -1.03385 -2.80984 0
M  V30 9794 H 902.165 -0.498593 -1.35093 0
M  V30 9795 H 904.118 1.04433 -4.08254 0
M  V30 9796 H 902.842 1.47165 -2.91565 0
M  V30 9797 H 901.501 -0.539015 -3.62616 0
M  V30 9798 H 901.149 1.67001 -4.74468 0
M  V30 9799 H 900.849 0.319697 -5.8673 0
M  V30 9800 H 902.373 1.24558 -5.97761 0
M  V30 9801 H 903.787 -1.00136 -5.64487 0
M  V30 9802 H 902.184 -1.78812 -5.72841 0
M  V30 9803 H 903.254 -2.12906 -4.35659 0
M  V30 9804 N 904.597 1.47463 -0.556102 0
M  V30 9805 C 905.527 2.32801 0.180497 0
M  V30 9806 C 906.508 1.43721 0.909848 0
M  V30 9807 O 907.693 1.72578 0.89053 0
M  V30 9808 C 904.823 3.25478 1.21167 0
M  V30 9809 C 903.777 4.2379 0.598846 0
M  V30 9810 C 903.103 5.05783 1.73457 0
M  V30 9811 C 904.403 5.20387 -0.446659 0
M  V30 9812 H 906.097 2.94636 -0.531956 0
M  V30 9813 H 903.643 1.41683 -0.257267 0
M  V30 9814 H 905.596 3.8402 1.73513 0
M  V30 9815 H 904.32 2.61695 1.95405 0
M  V30 9816 H 902.979 3.66472 0.0966897 0
M  V30 9817 H 902.627 4.38405 2.46596 0
M  V30 9818 H 902.327 5.72343 1.33031 0
M  V30 9819 H 903.851 5.67183 2.26131 0
M  V30 9820 H 905.265 5.73299 -0.00930019 0
M  V30 9821 H 903.662 5.95143 -0.769735 0
M  V30 9822 H 904.732 4.65932 -1.34295 0
M  V30 9823 N 906.075 0.2925 1.54862 0
M  V30 9824 C 907.322 -0.319263 1.99967 0
M  V30 9825 C 907.65 -1.54547 1.18092 0
M  V30 9826 O 906.905 -1.94186 0.242969 0
M  V30 9827 C 907.204 -0.728674 3.49893 0
M  V30 9828 C 906.87 0.394836 4.49168 0
M  V30 9829 C 905.532 0.703289 4.76033 0
M  V30 9830 C 907.884 1.15103 5.08331 0
M  V30 9831 C 905.212 1.77121 5.59325 0
M  V30 9832 C 907.564 2.20881 5.92785 0
M  V30 9833 C 906.228 2.52342 6.17964 0
M  V30 9834 H 905.498 -0.116827 0.731733 0
M  V30 9835 H 908.145 0.40983 1.87063 0
M  V30 9836 H 906.45 -1.53772 3.60363 0
M  V30 9837 H 908.147 -1.21305 3.82212 0
M  V30 9838 H 904.737 0.144319 4.28357 0
M  V30 9839 H 908.921 0.92599 4.87585 0
M  V30 9840 H 904.177 2.01978 5.77074 0
M  V30 9841 H 908.351 2.79939 6.37657 0
M  V30 9842 H 905.978 3.35225 6.82296 0
M  V30 9843 N 907.553 -1.57587 0.0200696 0
M  V30 9844 C 908.483 -2.12702 -0.963333 0
M  V30 9845 C 909.464 -1.04094 -1.34531 0
M  V30 9846 O 910.649 -1.31881 -1.42552 0
M  V30 9847 C 907.779 -2.64673 -2.24868 0
M  V30 9848 C 906.733 -3.77987 -2.00772 0
M  V30 9849 C 906.059 -4.16351 -3.35494 0
M  V30 9850 C 907.359 -5.0444 -1.35416 0
M  V30 9851 H 909.053 -2.95121 -0.504363 0
M  V30 9852 H 906.599 -1.41966 -0.24116 0
M  V30 9853 H 908.552 -3.01862 -2.94036 0
M  V30 9854 H 907.276 -1.79403 -2.72914 0
M  V30 9855 H 905.935 -3.41223 -1.34025 0
M  V30 9856 H 905.583 -3.28075 -3.81282 0
M  V30 9857 H 905.283 -4.92705 -3.20181 0
M  V30 9858 H 906.807 -4.56115 -4.05945 0
M  V30 9859 H 908.221 -5.39273 -1.94571 0
M  V30 9860 H 906.618 -5.85732 -1.30529 0
M  V30 9861 H 907.688 -4.83803 -0.325923 0
M  V30 9862 N 909.032 0.252966 -1.55557 0
M  V30 9863 C 909.962 1.31691 -1.9282 0
M  V30 9864 C 910.943 1.50516 -0.7924 0
M  V30 9865 O 912.128 1.63225 -1.05219 0
M  V30 9866 C 909.258 2.67281 -2.21762 0
M  V30 9867 C 908.212 2.6316 -3.37536 0
M  V30 9868 C 907.538 4.02488 -3.52005 0
M  V30 9869 C 908.838 2.20675 -4.73392 0
M  V30 9870 H 910.532 1.00751 -2.81939 0
M  V30 9871 H 908.078 0.483219 -1.3565 0
M  V30 9872 H 910.031 3.41842 -2.46419 0
M  V30 9873 H 908.755 2.99845 -1.29463 0
M  V30 9874 H 907.414 1.91057 -3.12878 0
M  V30 9875 H 907.062 4.32307 -2.57137 0
M  V30 9876 H 906.762 4.00621 -4.29857 0
M  V30 9877 H 908.286 4.78758 -3.78977 0
M  V30 9878 H 909.7 2.84965 -4.97461 0
M  V30 9879 H 908.097 2.29931 -5.54303 0
M  V30 9880 H 909.167 1.15831 -4.70862 0
M  V30 9881 N 910.51 1.48831 0.518367 0
M  V30 9882 C 911.757 1.57439 1.27355 0
M  V30 9883 C 912.085 0.25338 1.92843 0
M  V30 9884 O 911.34 -0.757323 1.80452 0
M  V30 9885 C 911.639 2.67003 2.3758 0
M  V30 9886 C 911.305 4.09069 1.89667 0
M  V30 9887 C 909.967 4.47733 1.76319 0
M  V30 9888 C 912.319 4.98052 1.53603 0
M  V30 9889 C 909.647 5.73173 1.25258 0
M  V30 9890 C 911.999 6.23992 1.04001 0
M  V30 9891 C 910.663 6.61503 0.892784 0
M  V30 9892 H 909.933 0.57611 0.466023 0
M  V30 9893 H 912.58 1.82595 0.577166 0
M  V30 9894 H 910.885 2.35751 3.12936 0
M  V30 9895 H 912.582 2.70876 2.95681 0
M  V30 9896 H 909.172 3.7854 2.01011 0
M  V30 9897 H 913.356 4.68849 1.62771 0
M  V30 9898 H 908.612 6.0095 1.12557 0
M  V30 9899 H 912.786 6.92331 0.751706 0
M  V30 9900 H 910.413 7.58587 0.494939 0
M  V30 9901 N 911.988 -0.768124 1.37614 0
M  V30 9902 C 912.918 -1.89537 1.36374 0
M  V30 9903 C 913.899 -1.68513 0.231803 0
M  V30 9904 O 915.084 -1.89318 0.432705 0
M  V30 9905 C 912.214 -3.26871 1.17358 0
M  V30 9906 C 911.168 -3.62466 2.27602 0
M  V30 9907 C 910.494 -4.9838 1.93705 0
M  V30 9908 C 911.794 -3.68841 3.69802 0
M  V30 9909 H 913.488 -1.90832 2.30702 0
M  V30 9910 H 911.034 -0.91672 1.11051 0
M  V30 9911 H 912.987 -4.05371 1.15119 0
M  V30 9912 H 911.711 -3.26018 0.194865 0
M  V30 9913 H 910.37 -2.86276 2.29002 0
M  V30 9914 H 910.018 -4.94071 0.943539 0
M  V30 9915 H 909.718 -5.23165 2.6753 0
M  V30 9916 H 911.242 -5.79276 1.93059 0
M  V30 9917 H 912.656 -4.37485 3.70513 0
M  V30 9918 H 911.053 -4.05126 4.42711 0
M  V30 9919 H 912.123 -2.69415 4.03167 0
M  V30 9920 N 913.466 -1.22244 -0.994698 0
M  V30 9921 C 914.713 -1.04591 -1.73398 0
M  V30 9922 C 915.041 0.419223 -1.89928 0
M  V30 9923 O 914.296 1.32714 -1.43824 0
M  V30 9924 C 914.595 -1.70014 -3.14372 0
M  V30 9925 C 914.261 -3.19903 -3.17762 0
M  V30 9926 C 912.923 -3.60803 -3.18394 0
M  V30 9927 C 915.275 -4.15851 -3.14194 0
M  V30 9928 C 912.603 -4.96135 -3.13157 0
M  V30 9929 C 914.955 -5.51157 -3.10498 0
M  V30 9930 C 913.619 -5.91439 -3.09445 0
M  V30 9931 H 912.889 -0.382725 -0.63451 0
M  V30 9932 H 915.536 -1.51981 -1.16508 0
M  V30 9933 H 913.841 -1.14945 -3.7456 0
M  V30 9934 H 915.538 -1.53848 -3.70313 0
M  V30 9935 H 912.128 -2.87336 -3.18019 0
M  V30 9936 H 916.312 -3.85272 -3.12857 0
M  V30 9937 H 911.568 -5.26578 -3.10685 0
M  V30 9938 H 915.742 -6.2523 -3.06692 0
M  V30 9939 H 913.369 -6.96271 -3.05141 0
M  V30 9940 N 914.944 1.19125 -1.03184 0
M  V30 9941 C 916.193 1.8821 -0.725264 0
M  V30 9942 C 916.506 1.80674 0.749411 0
M  V30 9943 O 917.712 2.45037 1.16915 0
M  V30 9944 C 916.168 3.37607 -1.24697 0
M  V30 9945 C 915.776 3.53693 -2.74964 0
M  V30 9946 C 917.52 4.12149 -1.01652 0
M  V30 9947 C 915.427 4.97001 -3.20538 0
M  V30 9948 H 914.357 0.704916 -0.267599 0
M  V30 9949 H 917.008 1.34663 -1.24652 0
M  V30 9950 H 915.39 3.90569 -0.653614 0
M  V30 9951 H 916.564 3.11046 -3.39981 0
M  V30 9952 H 914.879 2.92544 -2.96322 0
M  V30 9953 H 917.476 5.17837 -1.33226 0
M  V30 9954 H 917.819 4.16274 0.0465712 0
M  V30 9955 H 918.352 3.65334 -1.57403 0
M  V30 9956 H 915.091 4.9804 -4.26189 0
M  V30 9957 H 914.611 5.40398 -2.60251 0
M  V30 9958 H 916.29 5.65669 -3.14049 0
M  V30 9959 N 916.422 0.810101 1.35185 0
M  V30 9960 C 917.668 0.392698 1.98962 0
M  V30 9961 C 918.001 -1.03835 1.64109 0
M  V30 9962 O 917.276 -1.721 0.9062 0
M  V30 9963 C 917.559 0.580349 3.55393 0
M  V30 9964 C 917.412 2.05658 4.00031 0
M  V30 9965 C 918.731 0.00822618 4.40099 0
M  V30 9966 H 915.85 0.144157 0.722764 0
M  V30 9967 H 918.492 1.02029 1.60281 0
M  V30 9968 H 916.642 0.0461106 3.88473 0
M  V30 9969 H 918.314 2.65348 3.77344 0
M  V30 9970 H 916.557 2.55174 3.50811 0
M  V30 9971 H 917.228 2.13875 5.08883 0
M  V30 9972 H 919.704 0.464517 4.13499 0
M  V30 9973 H 918.58 0.169414 5.48638 0
M  V30 9974 H 918.841 -1.08576 4.2856 0
M  V30 9975 N 917.9 -1.47166 0.563914 0
M  V30 9976 C 919.146 -2.02756 0.0424338 0
M  V30 9977 C 919.479 -1.43662 -1.3067 0
M  V30 9978 O 918.754 -0.594676 -1.85186 0
M  V30 9979 C 919.037 -3.60074 -0.0434793 0
M  V30 9980 C 918.89 -4.29587 1.33323 0
M  V30 9981 C 920.209 -4.336 -0.753568 0
M  V30 9982 H 917.328 -0.736806 0.0168946 0
M  V30 9983 H 919.97 -1.75521 0.727496 0
M  V30 9984 H 918.12 -3.83409 -0.626906 0
M  V30 9985 H 919.792 -4.17573 1.96037 0
M  V30 9986 H 918.035 -3.8968 1.9061 0
M  V30 9987 H 918.706 -5.38218 1.22576 0
M  V30 9988 H 921.182 -4.15299 -0.258126 0
M  V30 9989 H 920.058 -5.43291 -0.782659 0
M  V30 9990 H 920.319 -4.03302 -1.81108 0
M  V30 9991 N 919.378 -0.300708 -1.54705 0
M  V30 9992 C 920.625 0.308654 -2.00134 0
M  V30 9993 C 920.953 1.53918 -1.1891 0
M  V30 9994 O 920.208 1.94054 -0.253263 0
M  V30 9995 C 920.507 0.710108 -3.50275 0
M  V30 9996 C 920.173 -0.418651 -4.48952 0
M  V30 9997 C 918.835 -0.728524 -4.75653 0
M  V30 9998 C 921.187 -1.17797 -5.07714 0
M  V30 9999 C 918.515 -1.80085 -5.58378 0
M  V30 10000 C 920.867 -2.24022 -5.91606 0
M  V30 10001 C 919.531 -2.55616 -6.16617 0
M  V30 10002 H 918.801 0.112945 -0.732342 0
M  V30 10003 H 921.448 -0.419744 -1.86843 0
M  V30 10004 H 919.753 1.51859 -3.61173 0
M  V30 10005 H 921.45 1.19277 -3.8285 0
M  V30 10006 H 918.04 -0.167034 -4.28274 0
M  V30 10007 H 922.224 -0.951835 -4.87087 0
M  V30 10008 H 917.48 -2.05036 -5.75995 0
M  V30 10009 H 921.654 -2.83317 -6.36164 0
M  V30 10010 H 919.281 -3.38839 -6.80509 0
M  V30 10011 N 920.856 1.57574 -0.0284266 0
M  V30 10012 C 921.819 2.09096 0.938691 0
M  V30 10013 C 922.819 1.00588 1.25454 0
M  V30 10014 O 924.009 1.2675 1.19499 0
M  V30 10015 C 921.141 2.55624 2.25542 0
M  V30 10016 H 922.334 2.95829 0.49248 0
M  V30 10017 H 919.887 1.5475 0.219594 0
M  V30 10018 H 920.622 1.72218 2.74793 0
M  V30 10019 H 920.407 3.34896 2.03929 0
M  V30 10020 H 921.897 2.95712 2.94863 0
M  V30 10021 N 922.334 -0.244713 1.55689 0
M  V30 10022 C 923.264 -1.30667 1.93516 0
M  V30 10023 C 924.245 -1.50094 0.800371 0
M  V30 10024 O 925.43 -1.62665 1.06083 0
M  V30 10025 C 922.56 -2.66101 2.23176 0
M  V30 10026 C 921.514 -2.61366 3.38927 0
M  V30 10027 C 920.84 -4.00616 3.54134 0
M  V30 10028 C 922.14 -2.18161 4.74555 0
M  V30 10029 H 923.834 -0.992546 2.82469 0
M  V30 10030 H 921.38 -0.476018 1.35905 0
M  V30 10031 H 923.333 -3.4053 2.48228 0
M  V30 10032 H 922.057 -2.99154 1.31051 0
M  V30 10033 H 920.716 -1.89395 3.13887 0
M  V30 10034 H 920.364 -4.30938 2.59426 0
M  V30 10035 H 920.064 -3.98335 4.31975 0
M  V30 10036 H 921.588 -4.76741 3.8151 0
M  V30 10037 H 923.002 -2.82323 4.98965 0
M  V30 10038 H 921.399 -2.26988 5.55515 0
M  V30 10039 H 922.469 -1.13333 4.7147 0
M  V30 10040 N 923.813 -1.49104 -0.510467 0
M  V30 10041 C 924.743 -1.67981 -1.62187 0
M  V30 10042 C 925.724 -0.528529 -1.6168 0
M  V30 10043 O 926.909 -0.763305 -1.7857 0
M  V30 10044 C 924.039 -1.73755 -3.0071 0
M  V30 10045 C 922.993 -2.88579 -3.1608 0
M  V30 10046 C 922.319 -2.79457 -4.5586 0
M  V30 10047 C 923.619 -4.29638 -2.97 0
M  V30 10048 H 925.313 -2.61029 -1.46643 0
M  V30 10049 H 922.859 -1.25615 -0.704042 0
M  V30 10050 H 924.812 -1.85548 -3.78352 0
M  V30 10051 H 923.536 -0.772996 -3.17321 0
M  V30 10052 H 922.195 -2.76372 -2.40861 0
M  V30 10053 H 921.843 -1.80929 -4.69333 0
M  V30 10054 H 921.543 -3.56518 -4.67086 0
M  V30 10055 H 923.067 -2.93245 -5.35574 0
M  V30 10056 H 924.481 -4.42575 -3.64418 0
M  V30 10057 H 922.878 -5.07847 -3.19704 0
M  V30 10058 H 923.948 -4.44741 -1.93219 0
M  V30 10059 N 925.291 0.760815 -1.38019 0
M  V30 10060 C 926.539 1.51673 -1.33566 0
M  V30 10061 C 926.86 1.94852 0.076024 0
M  V30 10062 O 926.13 1.67112 1.02227 0
M  V30 10063 H 924.71 0.562581 -0.491438 0
M  V30 10064 H 927.372 0.904832 -1.72623 0
M  V30 10065 H 926.468 2.41102 -1.98182 0
M  V30 10066 N 926.769 1.22769 0.988202 0
M  V30 10067 C 927.702 0.945196 2.07705 0
M  V30 10068 C 928.68 -0.11363 1.62202 0
M  V30 10069 O 929.864 0.0189624 1.8849 0
M  V30 10070 C 926.991 0.422474 3.36055 0
M  V30 10071 C 926.037 1.4667 4.00487 0
M  V30 10072 S 926.87 3.04158 4.40736 0
M  V30 10073 C 928.026 2.53536 5.7225 0
M  V30 10074 H 928.259 1.86723 2.31348 0
M  V30 10075 H 925.792 1.05928 1.12333 0
M  V30 10076 H 927.75 0.12748 4.10302 0
M  V30 10077 H 926.411 -0.478515 3.10434 0
M  V30 10078 H 925.604 1.05093 4.92921 0
M  V30 10079 H 925.206 1.71064 3.32585 0
M  V30 10080 H 927.498 1.95069 6.4881 0
M  V30 10081 H 928.441 3.44479 6.1866 0
M  V30 10082 H 928.849 1.94658 5.29876 0
M  V30 10083 N 928.247 -1.18576 1.03814 0
M  V30 10084 C 929.179 -2.21607 0.585055 0
M  V30 10085 C 930.192 -1.59125 -0.343963 0
M  V30 10086 O 931.381 -1.77959 -0.138882 0
M  V30 10087 C 928.481 -3.38495 -0.165602 0
M  V30 10088 C 927.654 -4.30557 0.770662 0
M  V30 10089 C 926.713 -5.26161 0.0637534 0
M  V30 10090 O 925.739 -5.64961 0.693359 0
M  V30 10091 N 926.941 -5.67882 -1.20377 0
M  V30 10092 H 929.706 -2.61104 1.47121 0
M  V30 10093 H 927.267 -1.33336 0.918316 0
M  V30 10094 H 929.259 -3.99474 -0.648292 0
M  V30 10095 H 927.829 -2.97711 -0.953268 0
M  V30 10096 H 927.049 -3.67221 1.43326 0
M  V30 10097 H 928.337 -4.88969 1.40667 0
M  V30 10098 H 927.735 -5.38409 -1.73586 0
M  V30 10099 H 926.292 -6.31069 -1.63079 0
M  V30 10100 N 929.725 -0.817259 -1.34754 0
M  V30 10101 C 930.655 -0.249769 -2.3216 0
M  V30 10102 C 931.636 0.630663 -1.57977 0
M  V30 10103 O 932.821 0.558719 -1.85989 0
M  V30 10104 C 929.951 0.593825 -3.42186 0
M  V30 10105 C 928.905 -0.188997 -4.27583 0
M  V30 10106 C 928.231 0.776979 -5.29025 0
M  V30 10107 C 929.531 -1.39401 -5.03354 0
M  V30 10108 H 931.225 -1.06359 -2.79872 0
M  V30 10109 H 928.771 -0.512894 -1.34556 0
M  V30 10110 H 930.724 1.00097 -4.09339 0
M  V30 10111 H 929.448 1.44064 -2.93109 0
M  V30 10112 H 928.107 -0.577445 -3.62024 0
M  V30 10113 H 927.755 1.61959 -4.76212 0
M  V30 10114 H 927.455 0.257448 -5.87036 0
M  V30 10115 H 928.979 1.18211 -5.99048 0
M  V30 10116 H 930.393 -1.06117 -5.63393 0
M  V30 10117 H 928.79 -1.84878 -5.70912 0
M  V30 10118 H 929.86 -2.17515 -4.33377 0
M  V30 10119 N 931.203 1.46865 -0.571711 0
M  V30 10120 C 932.45 2.0243 -0.0531071 0
M  V30 10121 C 932.778 1.44446 1.30252 0
M  V30 10122 O 932.033 0.595182 1.8643 0
M  V30 10123 C 932.332 3.57323 0.0742311 0
M  V30 10124 C 931.998 4.34295 -1.21237 0
M  V30 10125 C 930.66 4.55044 -1.56489 0
M  V30 10126 C 933.012 4.78577 -2.0643 0
M  V30 10127 C 930.34 5.17325 -2.76752 0
M  V30 10128 C 932.692 5.42186 -3.25909 0
M  V30 10129 C 931.356 5.61165 -3.61456 0
M  V30 10130 H 930.626 0.740745 -0.0194333 0
M  V30 10131 H 933.273 1.76366 -0.74614 0
M  V30 10132 H 931.578 3.82461 0.850325 0
M  V30 10133 H 933.275 3.97982 0.491077 0
M  V30 10134 H 929.865 4.18435 -0.927922 0
M  V30 10135 H 934.049 4.62313 -1.80501 0
M  V30 10136 H 929.305 5.30211 -3.04444 0
M  V30 10137 H 933.479 5.75459 -3.92198 0
M  V30 10138 H 931.106 6.09195 -4.54737 0
M  V30 10139 N 932.681 0.308908 1.54543 0
M  V30 10140 C 933.929 -0.297447 1.99899 0
M  V30 10141 C 934.25 -1.53799 1.19878 0
M  V30 10142 O 933.52 -1.93639 0.29678 0
M  V30 10143 H 932.1 -0.112897 0.738419 0
M  V30 10144 H 934.762 0.422067 1.90275 0
M  V30 10145 H 933.858 -0.564016 3.06961 0
M  V30 10146 N 934.159 -1.57557 0.0367827 0
M  V30 10147 C 935.407 -1.91735 -0.63892 0
M  V30 10148 C 935.728 -0.914515 -1.72226 0
M  V30 10149 O 934.998 0.0428248 -1.95853 0
M  V30 10150 H 933.578 -0.707738 -0.23899 0
M  V30 10151 H 936.24 -1.94708 0.0863931 0
M  V30 10152 H 935.336 -2.92568 -1.08676 0
M  V30 10153 N 935.637 0.236453 -1.55816 0
M  V30 10154 C 936.569 1.31602 -1.87653 0
M  V30 10155 C 937.582 1.43782 -0.763584 0
M  V30 10156 O 938.771 1.44945 -1.04178 0
M  V30 10157 C 935.871 2.69342 -2.05689 0
M  V30 10158 C 935.044 2.79298 -3.36617 0
M  V30 10159 C 934.103 3.97952 -3.44268 0
M  V30 10160 O 933.129 3.86989 -4.17406 0
M  V30 10161 N 934.331 5.11594 -2.74321 0
M  V30 10162 H 937.096 1.04623 -2.80845 0
M  V30 10163 H 934.657 0.426534 -1.5618 0
M  V30 10164 H 936.649 3.47074 -2.08138 0
M  V30 10165 H 935.219 2.88984 -1.19192 0
M  V30 10166 H 934.439 1.8816 -3.46395 0
M  V30 10167 H 935.727 2.82908 -4.22895 0
M  V30 10168 H 935.125 5.23394 -2.14651 0
M  V30 10169 H 933.682 5.87422 -2.8245 0
M  V30 10170 N 937.115 1.49373 0.502552 0
M  V30 10171 C 938.362 1.58781 1.25678 0
M  V30 10172 C 938.69 0.273819 1.92563 0
M  V30 10173 O 937.945 -0.738141 1.81246 0
M  V30 10174 C 938.244 2.69508 2.34735 0
M  V30 10175 C 937.91 4.11057 1.85318 0
M  V30 10176 C 936.572 4.49578 1.7156 0
M  V30 10177 C 938.924 4.99653 1.48312 0
M  V30 10178 C 936.252 5.74469 1.19172 0
M  V30 10179 C 938.604 6.2506 0.97377 0
M  V30 10180 C 937.268 6.62412 0.822573 0
M  V30 10181 H 936.538 0.581021 0.459887 0
M  V30 10182 H 939.185 1.83197 0.557767 0
M  V30 10183 H 937.49 2.39057 3.10418 0
M  V30 10184 H 939.187 2.73997 2.92791 0
M  V30 10185 H 935.777 3.80651 1.96985 0
M  V30 10186 H 939.961 4.70549 1.57789 0
M  V30 10187 H 935.217 6.0211 1.06176 0
M  V30 10188 H 939.391 6.93089 0.678233 0
M  V30 10189 H 937.018 7.59069 0.414453 0
M  V30 10190 N 938.594 -0.753485 1.38421 0
M  V30 10191 C 939.542 -1.8886 1.35774 0
M  V30 10192 C 940.536 -1.67639 0.243608 0
M  V30 10193 O 941.742 -1.75206 0.412649 0
M  V30 10194 H 938.117 -0.62137 0.42356 0
M  V30 10195 H 940.088 -1.88209 2.3156 0
M  V30 10196 C 938.837 -3.26344 1.19979 0
M  V30 10197 H 938.16 -3.43259 2.04971 0
M  V30 10198 H 939.6 -4.06015 1.22181 0
M  V30 10199 C 938.059 -3.36771 -0.0932867 0
M  V30 10200 O 938.589 -3.8718 -1.07027 0
M  V30 10201 N 936.795 -2.90212 -0.150154 0
M  V30 10202 H 936.342 -2.4938 0.645562 0
M  V30 10203 H 936.3 -2.97569 -1.0149 0
M  V30 10204 N 940.072 -1.23292 -0.981677 0
M  V30 10205 C 941.319 -1.06424 -1.72279 0
M  V30 10206 C 941.647 0.399055 -1.90362 0
M  V30 10207 O 940.902 1.31181 -1.45224 0
M  V30 10208 C 941.201 -1.73339 -3.12551 0
M  V30 10209 C 940.867 -3.23256 -3.14351 0
M  V30 10210 C 939.529 -3.64159 -3.14549 0
M  V30 10211 C 941.881 -4.1916 -3.09765 0
M  V30 10212 C 939.209 -4.99428 -3.07877 0
M  V30 10213 C 941.561 -5.54419 -3.04635 0
M  V30 10214 C 940.225 -5.94688 -3.03154 0
M  V30 10215 H 939.495 -0.389434 -0.630415 0
M  V30 10216 H 942.142 -1.53208 -1.1489 0
M  V30 10217 H 940.447 -1.18911 -3.73319 0
M  V30 10218 H 942.144 -1.57767 -3.68661 0
M  V30 10219 H 938.734 -2.90693 -3.14953 0
M  V30 10220 H 942.918 -3.88569 -3.08753 0
M  V30 10221 H 938.174 -5.29844 -3.05083 0
M  V30 10222 H 942.348 -6.28448 -3.00043 0
M  V30 10223 H 939.975 -6.99468 -2.97739 0
M  V30 10224 N 941.55 1.18024 -1.04442 0
M  V30 10225 C 942.482 2.21294 -0.596799 0
M  V30 10226 C 943.495 1.59305 0.33552 0
M  V30 10227 O 944.684 1.7803 0.129443 0
M  V30 10228 C 941.784 3.38578 0.147648 0
M  V30 10229 C 940.957 4.30143 -0.793484 0
M  V30 10230 C 940.016 5.2612 -0.0916561 0
M  V30 10231 O 939.042 5.64586 -0.72331 0
M  V30 10232 N 940.244 5.68512 1.17364 0
M  V30 10233 H 943.009 2.6032 -1.48504 0
M  V30 10234 H 940.57 1.32847 -0.925374 0
M  V30 10235 H 942.562 3.99812 0.627098 0
M  V30 10236 H 941.132 2.98212 0.937466 0
M  V30 10237 H 940.352 3.66456 -1.45272 0
M  V30 10238 H 941.64 4.88216 -1.43258 0
M  V30 10239 H 941.038 5.39322 1.70729 0
M  V30 10240 H 939.595 6.31925 1.5973 0
M  V30 10241 N 943.028 0.824394 1.34319 0
M  V30 10242 C 944.305 0.335692 1.92698 0
M  V30 10243 C 944.685 -1.17715 1.75232 0
M  V30 10244 O 944.033 -1.98493 1.13194 0
M  V30 10245 C 944.243 0.766647 3.40475 0
M  V30 10246 C 945.591 0.766323 4.17627 0
M  V30 10247 O 946.615 0.709321 3.49066 0
M  V30 10248 O 945.474 0.840856 5.39992 0
M  V30 10249 H 942.568 0.0919996 0.821867 0
M  V30 10250 H 945.114 0.909282 1.43283 0
M  V30 10251 H 943.886 1.80859 3.46995 0
M  V30 10252 H 943.509 0.168833 3.97241 0
M  V30 10253 N 944.506 -1.46559 0.579492 0
M  V30 10254 C 945.416 -2.34066 -0.15816 0
M  V30 10255 C 946.432 -1.49556 -0.88932 0
M  V30 10256 O 947.608 -1.82434 -0.853226 0
M  V30 10257 C 944.673 -3.26683 -1.161 0
M  V30 10258 C 943.734 -4.27092 -0.434855 0
M  V30 10259 C 942.967 -5.15283 -1.38992 0
M  V30 10260 O 943.19 -5.06345 -2.62623 0
M  V30 10261 O 942.124 -5.95099 -0.902253 0
M  V30 10262 H 945.95 -2.98488 0.560234 0
M  V30 10263 H 943.535 -1.45482 0.339918 0
M  V30 10264 H 945.417 -3.8383 -1.73932 0
M  V30 10265 H 944.092 -2.64862 -1.86091 0
M  V30 10266 H 942.999 -3.73641 0.185224 0
M  V30 10267 H 944.332 -4.9169 0.224031 0
M  V30 10268 N 945.984 -0.3171 -1.54377 0
M  V30 10269 C 947.212 0.289558 -2.04864 0
M  V30 10270 C 947.627 1.46284 -1.19359 0
M  V30 10271 O 946.984 1.81135 -0.222795 0
M  V30 10272 C 947.035 0.730273 -3.54047 0
M  V30 10273 O 946.756 -0.396325 -4.36304 0
M  V30 10274 C 948.257 1.40041 -4.20599 0
M  V30 10275 H 945.477 0.0605836 -0.668259 0
M  V30 10276 H 948.021 -0.461411 -1.99227 0
M  V30 10277 H 946.176 1.43123 -3.59992 0
M  V30 10278 H 946.59 -0.0502901 -5.24476 0
M  V30 10279 H 948.064 1.65979 -5.26455 0
M  V30 10280 H 948.541 2.34565 -3.71316 0
M  V30 10281 H 949.147 0.742206 -4.18774 0
M  V30 10282 N 947.462 1.57535 -0.0451378 0
M  V30 10283 C 948.873 1.80116 0.491426 0
M  V30 10284 C 949.224 0.956846 1.71286 0
M  V30 10285 O 948.349 0.17173 2.15718 0
M  V30 10286 C 948.944 3.26674 0.898315 0
M  V30 10287 C 947.503 3.50194 1.37989 0
M  V30 10288 C 946.65 2.75054 0.352202 0
M  V30 10289 H 949.601 1.56368 -0.271065 0
M  V30 10290 H 949.622 3.37263 1.76164 0
M  V30 10291 H 949.134 3.88099 0.009141 0
M  V30 10292 H 947.235 2.94041 2.28846 0
M  V30 10293 H 947.348 4.58909 1.37622 0
M  V30 10294 H 945.712 2.4101 0.823784 0
M  V30 10295 H 946.495 3.39203 -0.528782 0
M  V30 10296 N 948.94 -0.228186 1.55939 0
M  V30 10297 C 950.168 -0.970618 1.8272 0
M  V30 10298 C 950.583 -1.78212 0.623385 0
M  V30 10299 O 949.94 -1.77879 -0.408063 0
M  V30 10300 C 949.991 -1.89352 3.07942 0
M  V30 10301 O 949.712 -1.11483 4.23678 0
M  V30 10302 C 951.213 -2.75039 3.47661 0
M  V30 10303 H 948.433 -0.284772 0.607574 0
M  V30 10304 H 950.977 -0.245419 2.03022 0
M  V30 10305 H 949.132 -2.57275 2.89635 0
M  V30 10306 H 949.546 -1.74073 4.94772 0
M  V30 10307 H 951.02 -3.35511 4.38334 0
M  V30 10308 H 951.497 -3.471 2.69106 0
M  V30 10309 H 952.103 -2.1254 3.68384 0
M  V30 10310 N 950.418 -1.49637 -0.494624 0
M  V30 10311 C 951.646 -1.63164 -1.2722 0
M  V30 10312 C 952.061 -0.305552 -1.86311 0
M  V30 10313 O 951.418 0.709758 -1.68133 0
M  V30 10314 C 951.469 -2.70524 -2.39789 0
M  V30 10315 O 951.19 -3.97991 -1.83126 0
M  V30 10316 C 952.691 -2.94814 -3.31058 0
M  V30 10317 H 949.911 -0.54912 -0.385627 0
M  V30 10318 H 952.455 -1.95711 -0.593081 0
M  V30 10319 H 950.61 -2.40738 -3.03519 0
M  V30 10320 H 951.024 -4.57179 -2.57075 0
M  V30 10321 H 952.498 -3.73653 -4.06309 0
M  V30 10322 H 952.975 -2.04974 -3.88436 0
M  V30 10323 H 953.581 -3.26042 -2.73088 0
M  V30 10324 N 951.896 0.746133 -1.38819 0
M  V30 10325 C 952.844 1.88137 -1.36774 0
M  V30 10326 C 953.838 1.67508 -0.252495 0
M  V30 10327 O 955.044 1.74985 -0.421935 0
M  V30 10328 H 951.419 0.619116 -0.426849 0
M  V30 10329 H 953.39 1.86978 -2.32555 0
M  V30 10330 C 952.139 3.25703 -1.21708 0
M  V30 10331 H 951.462 3.42168 -2.06788 0
M  V30 10332 H 952.902 4.05361 -1.24332 0
M  V30 10333 C 951.361 3.36816 0.0754257 0
M  V30 10334 O 951.891 3.87742 1.04972 0
M  V30 10335 N 950.097 2.90287 0.134761 0
M  V30 10336 H 949.644 2.49034 -0.658779 0
M  V30 10337 H 949.602 2.98103 0.999109 0
M  V30 10338 N 953.375 1.23811 0.975125 0
M  V30 10339 C 954.622 1.07336 1.71712 0
M  V30 10340 C 954.95 -0.388954 1.90571 0
M  V30 10341 O 954.205 -1.30409 1.45918 0
M  V30 10342 C 954.504 1.74994 3.11628 0
M  V30 10343 C 954.17 3.24918 3.12632 0
M  V30 10344 C 952.832 3.65822 3.12614 0
M  V30 10345 C 955.184 4.20797 3.07538 0
M  V30 10346 C 952.512 5.01054 3.05224 0
M  V30 10347 C 954.864 5.56027 3.0169 0
M  V30 10348 C 953.528 5.96287 2.99996 0
M  V30 10349 H 952.798 0.392771 0.62834 0
M  V30 10350 H 955.445 1.53815 1.14075 0
M  V30 10351 H 953.75 1.20889 3.72684 0
M  V30 10352 H 955.447 1.5972 3.67819 0
M  V30 10353 H 952.037 2.92359 3.13407 0
M  V30 10354 H 956.221 3.902 3.06688 0
M  V30 10355 H 951.477 5.31454 3.02268 0
M  V30 10356 H 955.651 6.3003 2.96706 0
M  V30 10357 H 953.278 7.01037 2.94025 0
M  V30 10358 N 954.853 -1.17469 1.05066 0
M  V30 10359 C 956.13 -1.83625 0.673872 0
M  V30 10360 C 956.51 -1.93412 -0.845871 0
M  V30 10361 O 955.858 -1.4677 -1.75131 0
M  V30 10362 C 956.068 -3.21352 1.36139 0
M  V30 10363 C 957.416 -3.97274 1.49863 0
M  V30 10364 O 958.44 -3.30827 1.3203 0
M  V30 10365 O 957.299 -5.16349 1.79013 0
M  V30 10366 H 954.393 -0.792297 0.237055 0
M  V30 10367 H 956.939 -1.24776 1.15017 0
M  V30 10368 H 955.711 -3.0919 2.39827 0
M  V30 10369 H 955.334 -3.87867 0.874364 0
M  V30 10370 N 956.331 -0.831506 -1.3388 0
M  V30 10371 C 957.559 -0.436925 -2.02234 0
M  V30 10372 C 957.974 0.959689 -1.6259 0
M  V30 10373 O 957.331 1.62248 -0.835576 0
M  V30 10374 C 957.382 -0.539429 -3.57453 0
M  V30 10375 O 957.103 -1.88101 -3.95664 0
M  V30 10376 C 958.604 -0.140852 -4.43076 0
M  V30 10377 H 955.824 -0.174302 -0.647966 0
M  V30 10378 H 958.368 -1.12204 -1.70969 0
M  V30 10379 H 956.523 0.0976959 -3.87277 0
M  V30 10380 H 956.937 -1.86131 -4.90363 0
M  V30 10381 H 958.411 -0.26364 -5.5137 0
M  V30 10382 H 958.888 0.916505 -4.29531 0
M  V30 10383 H 959.494 -0.752117 -4.18597 0
M  V30 10384 N 957.809 1.4625 -0.587256 0
M  V30 10385 C 959.056 2.02363 -0.0745746 0
M  V30 10386 C 959.384 1.4582 1.28712 0
M  V30 10387 O 958.639 0.614922 1.85788 0
M  V30 10388 C 958.938 3.57382 0.036328 0
M  V30 10389 C 958.604 4.32985 -1.25837 0
M  V30 10390 C 957.266 4.53358 -1.61306 0
M  V30 10391 C 959.618 4.76361 -2.11494 0
M  V30 10392 C 956.946 5.14361 -2.82223 0
M  V30 10393 C 959.298 5.38699 -3.31641 0
M  V30 10394 C 957.962 5.57299 -3.67388 0
M  V30 10395 H 957.232 0.740497 -0.0272888 0
M  V30 10396 H 959.879 1.75565 -0.764804 0
M  V30 10397 H 958.184 3.83342 0.809712 0
M  V30 10398 H 959.881 3.9848 0.448838 0
M  V30 10399 H 956.471 4.17427 -0.972251 0
M  V30 10400 H 960.655 4.60372 -1.85394 0
M  V30 10401 H 955.911 5.26952 -3.10051 0
M  V30 10402 H 960.085 5.71267 -3.9828 0
M  V30 10403 H 957.712 6.04338 -4.61173 0
M  V30 10404 N 959.287 0.325282 1.54207 0
M  V30 10405 C 960.698 -0.162426 1.85992 0
M  V30 10406 C 961.049 -1.51482 1.2469 0
M  V30 10407 O 960.174 -2.092 0.553578 0
M  V30 10408 C 960.769 -0.3015 3.37456 0
M  V30 10409 C 959.328 -0.73343 3.69185 0
M  V30 10410 C 958.475 0.143831 2.76927 0
M  V30 10411 H 961.426 0.545508 1.4903 0
M  V30 10412 H 961.447 -1.13212 3.63268 0
M  V30 10413 H 960.959 0.682942 3.82044 0
M  V30 10414 H 959.06 -1.72755 3.30131 0
M  V30 10415 H 959.173 -0.535987 4.76092 0
M  V30 10416 H 957.537 -0.380892 2.51836 0
M  V30 10417 H 958.32 1.12507 3.24341 0
M  V30 10418 N 960.765 -1.57509 0.0534917 0
M  V30 10419 C 961.728 -2.10563 -0.905307 0
M  V30 10420 C 962.728 -1.02571 -1.23838 0
M  V30 10421 O 963.918 -1.28635 -1.17468 0
M  V30 10422 C 961.05 -2.5918 -2.21447 0
M  V30 10423 H 962.243 -2.96575 -0.445354 0
M  V30 10424 H 959.796 -1.55079 -0.194947 0
M  V30 10425 H 960.531 -1.76568 -2.72019 0
M  V30 10426 H 960.316 -3.38098 -1.98575 0
M  V30 10427 H 961.806 -3.00365 -2.90122 0
M  V30 10428 N 962.243 0.219913 -1.56058 0
M  V30 10429 C 963.206 1.25606 -1.91718 0
M  V30 10430 C 964.206 1.39721 -0.795912 0
M  V30 10431 O 965.396 1.37958 -1.06364 0
M  V30 10432 C 962.528 2.62961 -2.16943 0
M  V30 10433 H 963.721 0.951909 -2.84392 0
M  V30 10434 H 961.274 0.460398 -1.49365 0
M  V30 10435 H 962.009 2.98472 -1.26826 0
M  V30 10436 H 961.794 2.54093 -2.98629 0
M  V30 10437 H 963.284 3.37727 -2.45622 0
M  V30 10438 N 963.721 1.49897 0.486681 0
M  V30 10439 C 964.97 1.59349 1.23656 0
M  V30 10440 C 965.283 0.292024 1.93408 0
M  V30 10441 O 966.489 0.265258 2.70201 0
M  V30 10442 C 964.945 2.81215 2.24602 0
M  V30 10443 C 964.553 4.18177 1.60725 0
M  V30 10444 C 966.297 3.00004 3.00329 0
M  V30 10445 C 964.204 5.31247 2.59866 0
M  V30 10446 H 963.134 0.593363 0.465227 0
M  V30 10447 H 965.785 1.76306 0.508769 0
M  V30 10448 H 964.167 2.57783 3.00606 0
M  V30 10449 H 965.341 4.51802 0.90616 0
M  V30 10450 H 963.656 4.04864 0.973362 0
M  V30 10451 H 966.253 3.81649 3.74497 0
M  V30 10452 H 966.596 2.1112 3.58795 0
M  V30 10453 H 967.129 3.23544 2.3144 0
M  V30 10454 H 963.868 6.22236 2.06161 0
M  V30 10455 H 963.388 5.02059 3.28172 0
M  V30 10456 H 965.067 5.61177 3.22009 0
M  V30 10457 N 965.199 -0.738761 1.39212 0
M  V30 10458 C 966.129 -1.86602 1.40364 0
M  V30 10459 C 967.11 -1.67984 0.267495 0
M  V30 10460 O 968.295 -1.88358 0.472765 0
M  V30 10461 C 965.425 -3.24308 1.24265 0
M  V30 10462 C 964.379 -3.57557 2.35239 0
M  V30 10463 C 963.705 -4.94159 2.04233 0
M  V30 10464 C 965.005 -3.60914 3.77543 0
M  V30 10465 H 966.699 -1.85896 2.34698 0
M  V30 10466 H 964.245 -0.892959 1.1297 0
M  V30 10467 H 966.198 -4.02838 1.23692 0
M  V30 10468 H 964.922 -3.25531 0.263974 0
M  V30 10469 H 963.581 -2.81354 2.35022 0
M  V30 10470 H 963.229 -4.91959 1.04813 0
M  V30 10471 H 962.929 -5.17373 2.78567 0
M  V30 10472 H 964.453 -5.7505 2.05303 0
M  V30 10473 H 965.867 -4.29528 3.79709 0
M  V30 10474 H 964.264 -3.95644 4.51205 0
M  V30 10475 H 965.334 -2.60803 4.08791 0
M  V30 10476 N 966.677 -1.24326 -0.968545 0
M  V30 10477 C 967.905 -1.10947 -1.74638 0
M  V30 10478 C 968.32 0.338064 -1.85749 0
M  V30 10479 O 967.677 1.23331 -1.3452 0
M  V30 10480 C 967.728 -1.74254 -3.1673 0
M  V30 10481 O 967.449 -3.13347 -3.06178 0
M  V30 10482 C 968.95 -1.66473 -4.10855 0
M  V30 10483 H 966.17 -0.38767 -0.547679 0
M  V30 10484 H 968.714 -1.64415 -1.21605 0
M  V30 10485 H 966.869 -1.2479 -3.66751 0
M  V30 10486 H 967.283 -3.44255 -3.95713 0
M  V30 10487 H 968.757 -2.15452 -5.08217 0
M  V30 10488 H 969.234 -0.625785 -4.34719 0
M  V30 10489 H 969.84 -2.15359 -3.66743 0
M  V30 10490 N 968.156 1.1691 -1.05688 0
M  V30 10491 C 969.402 1.8757 -0.771071 0
M  V30 10492 C 969.735 1.8113 0.700399 0
M  V30 10493 O 969.01 1.22273 1.5126 0
M  V30 10494 C 969.293 3.37392 -1.25851 0
M  V30 10495 C 969.146 3.52556 -2.79329 0
M  V30 10496 C 970.465 4.31585 -0.861512 0
M  V30 10497 H 967.584 0.681089 -0.281579 0
M  V30 10498 H 970.226 1.37453 -1.31174 0
M  V30 10499 H 968.376 3.80204 -0.798563 0
M  V30 10500 H 970.048 3.18725 -3.33485 0
M  V30 10501 H 968.291 2.94668 -3.1836 0
M  V30 10502 H 968.962 4.57748 -3.08498 0
M  V30 10503 H 971.438 3.96642 -1.25756 0
M  V30 10504 H 970.314 5.34939 -1.23012 0
M  V30 10505 H 970.575 4.4148 0.234089 0
M  V30 10506 N 969.634 0.838594 1.33437 0
M  V30 10507 C 970.881 0.434169 1.97791 0
M  V30 10508 C 971.209 -1.00652 1.66431 0
M  V30 10509 O 970.464 -1.71848 0.936309 0
M  V30 10510 C 970.763 0.601425 3.52303 0
M  V30 10511 C 970.429 2.01017 4.03612 0
M  V30 10512 C 969.091 2.39551 4.17336 0
M  V30 10513 C 971.443 2.93035 4.31022 0
M  V30 10514 C 968.771 3.69406 4.55802 0
M  V30 10515 C 971.123 4.22372 4.7094 0
M  V30 10516 C 969.787 4.60862 4.82869 0
M  V30 10517 H 969.057 0.158874 0.723768 0
M  V30 10518 H 971.704 1.06556 1.59116 0
M  V30 10519 H 970.009 -0.113284 3.91636 0
M  V30 10520 H 971.706 0.268798 4.00098 0
M  V30 10521 H 968.296 1.7009 3.93405 0
M  V30 10522 H 972.48 2.64503 4.19943 0
M  V30 10523 H 967.736 3.99033 4.63231 0
M  V30 10524 H 971.91 4.93749 4.91106 0
M  V30 10525 H 969.537 5.6153 5.12433 0
M  V30 10526 N 971.112 -1.45937 0.595003 0
M  V30 10527 C 972.044 -2.28575 -0.169137 0
M  V30 10528 C 973.057 -1.39226 -0.843792 0
M  V30 10529 O 974.246 -1.63716 -0.711291 0
M  V30 10530 C 971.346 -3.14616 -1.25976 0
M  V30 10531 C 970.519 -4.32166 -0.67466 0
M  V30 10532 C 969.578 -4.99511 -1.65456 0
M  V30 10533 O 968.604 -5.56712 -1.18578 0
M  V30 10534 N 969.806 -4.97643 -2.98885 0
M  V30 10535 H 972.571 -2.94797 0.539908 0
M  V30 10536 H 970.132 -1.55985 0.433614 0
M  V30 10537 H 972.124 -3.56534 -1.91483 0
M  V30 10538 H 970.694 -2.50387 -1.8715 0
M  V30 10539 H 969.914 -3.93882 0.158184 0
M  V30 10540 H 971.202 -5.08116 -0.263753 0
M  V30 10541 H 970.6 -4.52438 -3.39583 0
M  V30 10542 H 969.157 -5.43463 -3.59848 0
M  V30 10543 N 972.59 -0.333456 -1.54032 0
M  V30 10544 C 973.839 0.267081 -1.99924 0
M  V30 10545 C 974.152 1.52463 -1.22534 0
M  V30 10546 O 975.358 2.20178 -1.58852 0
M  V30 10547 C 973.814 0.526456 -3.56029 0
M  V30 10548 C 973.422 -0.714607 -4.42264 0
M  V30 10549 C 975.166 1.0864 -4.10363 0
M  V30 10550 C 973.073 -0.42659 -5.89859 0
M  V30 10551 H 972.003 0.103577 -0.746852 0
M  V30 10552 H 974.654 -0.447218 -1.77967 0
M  V30 10553 H 973.036 1.3012 -3.74012 0
M  V30 10554 H 974.21 -1.48968 -4.36056 0
M  V30 10555 H 972.525 -1.19547 -3.9887 0
M  V30 10556 H 975.122 1.31668 -5.18235 0
M  V30 10557 H 975.465 2.03884 -3.62956 0
M  V30 10558 H 975.998 0.37261 -3.96051 0
M  V30 10559 H 972.737 -1.34847 -6.4148 0
M  V30 10560 H 972.257 0.310588 -5.98995 0
M  V30 10561 H 973.936 -0.0400807 -6.46988 0
M  V30 10562 N 974.068 1.57479 -0.061844 0
M  V30 10563 C 974.998 2.15181 0.9066 0
M  V30 10564 C 975.979 1.07624 1.31724 0
M  V30 10565 O 977.164 1.35614 1.39006 0
M  V30 10566 C 974.294 2.70542 2.17771 0
M  V30 10567 C 973.248 3.83178 1.9068 0
M  V30 10568 C 972.574 4.25099 3.24337 0
M  V30 10569 C 973.874 5.07853 1.21994 0
M  V30 10570 H 975.568 2.96355 0.42594 0
M  V30 10571 H 973.114 1.42556 0.203435 0
M  V30 10572 H 975.067 3.09552 2.85929 0
M  V30 10573 H 973.791 1.86575 2.68062 0
M  V30 10574 H 972.45 3.44656 1.24931 0
M  V30 10575 H 972.098 3.38069 3.72449 0
M  V30 10576 H 971.798 5.01021 3.07005 0
M  V30 10577 H 973.322 4.66718 3.93709 0
M  V30 10578 H 974.736 5.44242 1.80204 0
M  V30 10579 H 973.133 5.88987 1.14954 0
M  V30 10580 H 974.203 4.84497 0.197536 0
M  V30 10581 N 975.546 -0.211634 1.56173 0
M  V30 10582 C 976.774 -0.951184 1.83739 0
M  V30 10583 C 977.189 -1.7754 0.642252 0
M  V30 10584 O 976.546 -1.78302 -0.389174 0
M  V30 10585 C 976.597 -1.86075 3.09933 0
M  V30 10586 O 976.318 -1.06983 4.24837 0
M  V30 10587 C 977.819 -2.71337 3.50559 0
M  V30 10588 H 975.039 -0.278312 0.61056 0
M  V30 10589 H 977.583 -0.223871 2.03271 0
M  V30 10590 H 975.738 -2.54189 2.92347 0
M  V30 10591 H 976.152 -1.68815 4.9659 0
M  V30 10592 H 977.626 -3.30843 4.41868 0
M  V30 10593 H 978.103 -3.44226 2.72773 0
M  V30 10594 H 978.709 -2.0862 3.70618 0
M  V30 10595 N 977.024 -1.50153 -0.478725 0
M  V30 10596 C 978.272 -1.60443 -1.22892 0
M  V30 10597 C 978.593 -0.303276 -1.92627 0
M  V30 10598 O 977.863 0.678798 -1.83764 0
M  V30 10599 H 976.443 -0.591205 -0.456602 0
M  V30 10600 H 979.105 -1.86893 -0.552905 0
M  V30 10601 H 978.201 -2.41175 -1.98094 0
M  V30 10602 N 978.502 0.731368 -1.39602 0
M  V30 10603 C 979.412 1.87579 -1.40894 0
M  V30 10604 C 980.428 1.71336 -0.303319 0
M  V30 10605 O 981.604 1.93875 -0.545377 0
M  V30 10606 C 978.669 3.23211 -1.25442 0
M  V30 10607 C 977.73 3.51822 -2.46008 0
M  V30 10608 C 976.963 4.80982 -2.31284 0
M  V30 10609 O 977.186 5.54958 -1.31824 0
M  V30 10610 O 976.12 5.09574 -3.20341 0
M  V30 10611 H 979.946 1.89444 -2.3737 0
M  V30 10612 H 977.531 0.879675 -1.20756 0
M  V30 10613 H 979.413 4.04257 -1.18972 0
M  V30 10614 H 978.088 3.22108 -0.320637 0
M  V30 10615 H 976.995 2.70847 -2.58055 0
M  V30 10616 H 978.328 3.57707 -3.38093 0
M  V30 10617 N 979.98 1.24838 0.961938 0
M  V30 10618 C 981.257 0.99939 1.68141 0
M  V30 10619 C 981.637 -0.476588 2.0565 0
M  V30 10620 O 980.985 -1.45224 1.76415 0
M  V30 10621 C 981.195 1.92797 2.90913 0
M  V30 10622 C 982.543 2.20219 3.63027 0
M  V30 10623 O 983.567 1.90496 3.00981 0
M  V30 10624 O 982.426 2.70725 4.74731 0
M  V30 10625 H 979.52 0.37842 0.735342 0
M  V30 10626 H 982.066 1.35961 1.01551 0
M  V30 10627 H 980.838 2.92492 2.59931 0
M  V30 10628 H 980.461 1.57127 3.65235 0
M  V30 10629 N 981.458 -1.16348 1.06306 0
M  V30 10630 C 982.704 -1.87397 0.79082 0
M  V30 10631 C 983.059 -1.80156 -0.675382 0
M  V30 10632 O 982.352 -1.20644 -1.48847 0
M  V30 10633 C 982.546 -3.35936 1.21991 0
M  V30 10634 C 982.375 -3.57637 2.72628 0
M  V30 10635 C 981.145 -3.73717 3.40094 0
M  V30 10636 C 983.343 -3.56345 3.70841 0
M  V30 10637 N 981.325 -3.83369 4.7948 0
M  V30 10638 C 982.696 -3.71983 4.96013 0
M  V30 10639 C 984.751 -3.39558 3.64149 0
M  V30 10640 C 983.454 -3.7257 6.15292 0
M  V30 10641 C 985.48 -3.41439 4.8288 0
M  V30 10642 C 984.842 -3.57596 6.06881 0
M  V30 10643 H 980.941 -0.703355 0.341782 0
M  V30 10644 H 983.525 -1.39597 1.35723 0
M  V30 10645 H 981.696 -3.82378 0.681319 0
M  V30 10646 H 983.428 -3.94649 0.896319 0
M  V30 10647 H 980.183 -3.74045 2.90495 0
M  V30 10648 H 980.607 -3.91964 5.5199 0
M  V30 10649 H 985.249 -3.25994 2.69235 0
M  V30 10650 H 982.967 -3.84916 7.10539 0
M  V30 10651 H 986.553 -3.29693 4.79368 0
M  V30 10652 H 985.433 -3.58971 6.97216 0
M  V30 10653 N 982.937 -0.845659 -1.3299 0
M  V30 10654 C 983.885 -0.272412 -2.30999 0
M  V30 10655 C 984.879 0.599311 -1.58444 0
M  V30 10656 O 986.085 0.488117 -1.73255 0
M  V30 10657 H 982.46 -0.0693751 -0.748793 0
M  V30 10658 H 984.431 -1.11343 -2.76849 0
M  V30 10659 C 983.18 0.532019 -3.43606 0
M  V30 10660 H 982.503 -0.129455 -3.9959 0
M  V30 10661 H 983.943 0.898853 -4.14363 0
M  V30 10662 C 982.402 1.71364 -2.90062 0
M  V30 10663 O 982.932 2.81252 -2.8681 0
M  V30 10664 N 981.138 1.53775 -2.4658 0
M  V30 10665 H 980.685 0.643836 -2.49424 0
M  V30 10666 H 980.643 2.32982 -2.11108 0
M  V30 10667 N 984.415 1.45619 -0.602734 0
M  V30 10668 C 985.378 2.28941 0.108962 0
M  V30 10669 C 986.378 1.39501 0.799762 0
M  V30 10670 O 987.568 1.61673 0.648663 0
M  V30 10671 C 984.7 3.204 1.16432 0
M  V30 10672 H 985.893 2.93346 -0.623534 0
M  V30 10673 H 983.446 1.52061 -0.361565 0
M  V30 10674 H 984.181 2.60785 1.92774 0
M  V30 10675 H 983.966 3.86277 0.673248 0
M  V30 10676 H 985.456 3.83063 1.6629 0
M  V30 10677 N 985.893 0.34162 1.53853 0
M  V30 10678 C 987.139 -0.255862 2.01179 0
M  V30 10679 C 987.472 -1.50356 1.22909 0
M  V30 10680 O 986.747 -1.91913 0.316198 0
M  V30 10681 C 987.03 -0.571934 3.55529 0
M  V30 10682 C 986.883 0.687727 4.44511 0
M  V30 10683 C 988.202 -1.38233 4.17827 0
M  V30 10684 H 985.321 -0.091521 0.731295 0
M  V30 10685 H 987.963 0.461775 1.84303 0
M  V30 10686 H 986.113 -1.18331 3.70041 0
M  V30 10687 H 987.785 1.32572 4.4184 0
M  V30 10688 H 986.028 1.313 4.13452 0
M  V30 10689 H 986.699 0.421858 5.50386 0
M  V30 10690 H 989.175 -0.865374 4.07002 0
M  V30 10691 H 988.051 -1.57223 5.25901 0
M  V30 10692 H 988.312 -2.38386 3.72323 0
M  V30 10693 N 987.371 -1.57444 0.0701946 0
M  V30 10694 C 988.304 -2.08232 -0.93352 0
M  V30 10695 C 989.282 -0.987073 -1.29212 0
M  V30 10696 O 990.466 -1.26035 -1.40169 0
M  V30 10697 C 987.593 -2.53866 -2.2421 0
M  V30 10698 C 986.639 -3.7481 -2.03518 0
M  V30 10699 S 987.472 -5.1958 -1.29601 0
M  V30 10700 C 988.628 -5.68544 -2.61742 0
M  V30 10701 H 988.861 -2.93042 -0.501354 0
M  V30 10702 H 986.394 -1.53741 -0.142533 0
M  V30 10703 H 988.352 -2.80818 -2.99419 0
M  V30 10704 H 987.013 -1.69327 -2.64551 0
M  V30 10705 H 986.206 -4.04724 -3.00358 0
M  V30 10706 H 985.808 -3.48222 -1.36445 0
M  V30 10707 H 988.1 -5.75291 -3.57836 0
M  V30 10708 H 989.043 -6.67459 -2.3644 0
M  V30 10709 H 989.451 -4.96354 -2.68873 0
M  V30 10710 N 988.849 0.203349 -1.56283 0
M  V30 10711 C 990.079 0.940061 -1.83974 0
M  V30 10712 C 990.487 1.77703 -0.649486 0
M  V30 10713 O 989.83 1.79487 0.391189 0
M  V30 10714 C 989.892 1.89249 -3.05655 0
M  V30 10715 C 989.556 1.23828 -4.39904 0
M  V30 10716 C 990.553 0.619231 -5.16199 0
M  V30 10717 C 988.238 1.2446 -4.86636 0
M  V30 10718 C 990.232 0.0152287 -6.37398 0
M  V30 10719 C 987.919 0.636764 -6.07773 0
M  V30 10720 C 988.917 0.0231481 -6.82996 0
M  V30 10721 O 988.605 -0.575187 -8.0184 0
M  V30 10722 H 988.337 0.280199 -0.615194 0
M  V30 10723 H 990.891 0.218111 -2.04239 0
M  V30 10724 H 989.121 2.65392 -2.81254 0
M  V30 10725 H 990.81 2.4963 -3.20062 0
M  V30 10726 H 991.576 0.606545 -4.81192 0
M  V30 10727 H 987.455 1.71161 -4.28048 0
M  V30 10728 H 990.999 -0.464333 -6.96053 0
M  V30 10729 H 986.896 0.646924 -6.4225 0
M  V30 10730 H 987.664 -0.471284 -8.17142 0
M  V30 10731 N 990.327 1.50405 0.470755 0
M  V30 10732 C 991.277 1.65681 1.56633 0
M  V30 10733 C 992.261 0.511424 1.52556 0
M  V30 10734 O 993.453 0.765844 1.59574 0
M  V30 10735 C 990.582 1.7546 2.95074 0
M  V30 10736 C 989.668 2.95676 3.04034 0
M  V30 10737 N 990.059 4.1935 2.82807 0
M  V30 10738 C 988.357 2.94241 3.35169 0
M  V30 10739 C 989.058 5.0032 2.96741 0
M  V30 10740 N 988.034 4.34282 3.26956 0
M  V30 10741 H 991.836 2.58994 1.38922 0
M  V30 10742 H 989.35 1.47593 0.67749 0
M  V30 10743 H 991.347 1.84508 3.73848 0
M  V30 10744 H 990.007 0.833057 3.13832 0
M  V30 10745 H 991.018 4.48842 2.58382 0
M  V30 10746 H 987.695 2.11587 3.59913 0
M  V30 10747 H 989.085 6.08664 2.84566 0
M  V30 10748 N 991.805 -0.723954 1.39988 0
M  V30 10749 C 993.053 -1.48078 1.3754 0
M  V30 10750 C 993.374 -1.94985 -0.0243358 0
M  V30 10751 O 992.644 -1.69764 -0.977602 0
M  V30 10752 H 991.224 -0.549354 0.506181 0
M  V30 10753 H 993.886 -0.858746 1.74962 0
M  V30 10754 H 992.982 -2.35763 2.04505 0
M  V30 10755 N 993.283 -1.25346 -0.955304 0
M  V30 10756 C 994.532 -1.0945 -1.69421 0
M  V30 10757 C 994.845 0.364459 -1.92175 0
M  V30 10758 O 996.051 0.643843 -2.63755 0
M  V30 10759 C 994.507 -1.91045 -3.05008 0
M  V30 10760 C 994.115 -3.41428 -2.90053 0
M  V30 10761 C 995.859 -1.83716 -3.82686 0
M  V30 10762 C 993.766 -4.1532 -4.21026 0
M  V30 10763 H 992.696 -0.405978 -0.635372 0
M  V30 10764 H 995.347 -1.49536 -1.06354 0
M  V30 10765 H 993.729 -1.43781 -3.68975 0
M  V30 10766 H 994.903 -3.9636 -2.35022 0
M  V30 10767 H 993.218 -3.49842 -2.25831 0
M  V30 10768 H 995.815 -2.36217 -4.79693 0
M  V30 10769 H 996.158 -0.804919 -4.08444 0
M  V30 10770 H 996.691 -2.28726 -3.25468 0
M  V30 10771 H 993.43 -5.18955 -4.00457 0
M  V30 10772 H 992.95 -3.65172 -4.75825 0
M  V30 10773 H 994.629 -4.22999 -4.89572 0
M  V30 10774 N 994.761 1.15782 -1.06922 0
M  V30 10775 C 995.671 2.24008 -0.696948 0
M  V30 10776 C 996.687 1.71569 0.289862 0
M  V30 10777 O 997.863 2.00929 0.137585 0
M  V30 10778 C 994.928 3.46568 -0.0957895 0
M  V30 10779 C 993.989 4.14017 -1.13528 0
M  V30 10780 C 993.222 5.30725 -0.562713 0
M  V30 10781 O 993.445 5.66992 0.62259 0
M  V30 10782 O 992.379 5.87572 -1.30549 0
M  V30 10783 H 996.205 2.58174 -1.59938 0
M  V30 10784 H 993.79 1.2342 -0.841889 0
M  V30 10785 H 995.672 4.20731 0.237407 0
M  V30 10786 H 994.347 3.14161 0.780027 0
M  V30 10787 H 993.254 3.41795 -1.52076 0
M  V30 10788 H 994.587 4.50493 -1.98285 0
M  V30 10789 N 996.239 0.8527 1.3254 0
M  V30 10790 C 997.464 0.468157 2.02047 0
M  V30 10791 C 997.889 -0.926967 1.63673 0
M  V30 10792 O 997.247 -1.60855 0.836378 0
M  V30 10793 C 997.295 0.612519 3.5536 0
M  V30 10794 O 996.399 -0.355506 4.10865 0
M  V30 10795 H 995.74 0.188401 0.636711 0
M  V30 10796 H 998.27 1.15135 1.6913 0
M  V30 10797 H 998.28 0.499315 4.04933 0
M  V30 10798 H 996.955 1.62988 3.82632 0
M  V30 10799 H 995.532 -0.198703 3.7237 0
M  V30 10800 N 997.718 -1.45297 0.610449 0
M  V30 10801 C 998.65 -2.28742 -0.144884 0
M  V30 10802 C 999.663 -1.40114 -0.828977 0
M  V30 10803 O 1000.85 -1.64461 -0.693887 0
M  V30 10804 C 997.952 -3.15934 -1.22632 0
M  V30 10805 C 997.125 -4.32857 -0.628785 0
M  V30 10806 C 996.184 -5.01237 -1.60148 0
M  V30 10807 O 995.21 -5.57938 -1.12667 0
M  V30 10808 N 996.412 -5.00785 -2.9359 0
M  V30 10809 H 999.177 -2.94207 0.571145 0
M  V30 10810 H 996.738 -1.55517 0.450134 0
M  V30 10811 H 998.73 -3.58545 -1.87691 0
M  V30 10812 H 997.3 -2.52358 -1.84483 0
M  V30 10813 H 996.52 -3.93693 0.199951 0
M  V30 10814 H 997.808 -5.08367 -0.209845 0
M  V30 10815 H 997.206 -4.56014 -3.34765 0
M  V30 10816 H 995.763 -5.4725 -3.54064 0
M  V30 10817 N 999.196 -0.349774 -1.5367 0
M  V30 10818 C 1000.44 0.244343 -2.00617 0
M  V30 10819 C 1000.76 1.50567 -1.23914 0
M  V30 10820 O 1000.03 1.92784 -0.348016 0
M  V30 10821 H 998.615 0.0932792 -0.741153 0
M  V30 10822 H 1001.28 -0.472367 -1.89089 0
M  V30 10823 H 1000.37 0.482433 -3.08349 0
M  V30 10824 N 1000.67 1.57404 -0.0785433 0
M  V30 10825 C 1001.92 1.93361 0.58786 0
M  V30 10826 C 1002.24 0.959856 1.6974 0
M  V30 10827 O 1001.51 0.0091173 1.95898 0
M  V30 10828 H 1000.09 0.713825 0.220141 0
M  V30 10829 H 1002.75 1.94411 -0.137986 0
M  V30 10830 H 1001.85 2.95346 1.00881 0
M  V30 10831 N 1002.15 -0.195058 1.56388 0
M  V30 10832 C 1003.4 -0.9168 1.80894 0
M  V30 10833 C 1003.73 -1.82907 0.652592 0
M  V30 10834 O 1003.01 -1.91382 -0.346853 0
M  V30 10835 C 1003.29 -1.733 3.15657 0
M  V30 10836 C 1003.14 -0.845449 4.41783 0
M  V30 10837 C 1004.46 -2.70557 3.47112 0
M  V30 10838 H 1001.58 -0.331861 0.658056 0
M  V30 10839 H 1004.22 -0.184174 1.89105 0
M  V30 10840 H 1002.37 -2.3576 3.08787 0
M  V30 10841 H 1004.04 -0.235557 4.60698 0
M  V30 10842 H 1002.29 -0.152172 4.33533 0
M  V30 10843 H 1002.96 -1.45152 5.32574 0
M  V30 10844 H 1005.43 -2.1823 3.54281 0
M  V30 10845 H 1004.31 -3.24749 4.42526 0
M  V30 10846 H 1004.57 -3.49605 2.70608 0
M  V30 10847 N 1003.63 -1.50653 -0.462772 0
M  V30 10848 C 1004.85 -1.66103 -1.24196 0
M  V30 10849 C 1005.28 -0.347421 -1.84864 0
M  V30 10850 O 1004.64 0.689673 -1.6767 0
M  V30 10851 C 1004.69 -2.76027 -2.32037 0
M  V30 10852 O 1003.79 -2.37859 -3.36893 0
M  V30 10853 H 1003.13 -0.554672 -0.365014 0
M  V30 10854 H 1005.66 -1.97076 -0.549734 0
M  V30 10855 H 1005.67 -2.99354 -2.77221 0
M  V30 10856 H 1004.35 -3.71361 -1.87253 0
M  V30 10857 H 1002.92 -2.2501 -2.97363 0
M  V30 10858 N 1005.11 0.71652 -1.4037 0
M  V30 10859 C 1006.06 1.8306 -1.40562 0
M  V30 10860 C 1007.03 1.64009 -0.262697 0
M  V30 10861 O 1008.21 1.85157 -0.460619 0
M  V30 10862 C 1005.35 3.2076 -1.27307 0
M  V30 10863 C 1004.46 3.51389 -2.51296 0
M  V30 10864 C 1003.6 4.78589 -2.30491 0
M  V30 10865 C 1002.64 5.02119 -3.50061 0
M  V30 10866 N 1001.77 6.20533 -3.28457 0
M  V30 10867 H 1006.61 1.82231 -2.35788 0
M  V30 10868 H 1004.15 0.890198 -1.17106 0
M  V30 10869 H 1006.11 4.00274 -1.17628 0
M  V30 10870 H 1004.74 3.2082 -0.357005 0
M  V30 10871 H 1003.79 2.66436 -2.71507 0
M  V30 10872 H 1005.1 3.64686 -3.40302 0
M  V30 10873 H 1004.26 5.66119 -2.1816 0
M  V30 10874 H 1003 4.67499 -1.38909 0
M  V30 10875 H 1002 4.13044 -3.6287 0
M  V30 10876 H 1003.23 5.15082 -4.42569 0
M  V30 10877 H 1001.17 6.10695 -2.39556 0
M  V30 10878 H 1001.09 6.34502 -4.11027 0
M  V30 10879 H 1002.36 7.10853 -3.19857 0
M  V30 10880 N 1006.59 1.25851 0.948643 0
M  V30 10881 C 1007.83 1.10735 1.69062 0
M  V30 10882 C 1008.16 -0.351257 1.9181 0
M  V30 10883 O 1007.43 -1.24867 1.50947 0
M  V30 10884 H 1006.01 0.406796 0.626519 0
M  V30 10885 H 1008.67 1.58066 1.14022 0
M  V30 10886 H 1007.76 1.62033 2.66743 0
M  V30 10887 N 1008.06 -1.15214 1.07534 0
M  V30 10888 C 1009 -2.18999 0.641461 0
M  V30 10889 C 1009.98 -1.58958 -0.342238 0
M  V30 10890 O 1011.16 -1.86859 -0.248218 0
M  V30 10891 C 1008.29 -3.38651 -0.0577939 0
M  V30 10892 C 1007.33 -4.17225 0.884641 0
M  V30 10893 S 1008.17 -4.79375 2.38663 0
M  V30 10894 C 1009.32 -6.02393 1.69923 0
M  V30 10895 H 1009.55 -2.55464 1.52071 0
M  V30 10896 H 1007.09 -1.26205 0.889481 0
M  V30 10897 H 1009.05 -4.07971 -0.454982 0
M  V30 10898 H 1007.71 -3.00526 -0.913407 0
M  V30 10899 H 1006.9 -5.02837 0.342133 0
M  V30 10900 H 1006.5 -3.53463 1.2223 0
M  V30 10901 H 1008.79 -6.69899 1.01201 0
M  V30 10902 H 1009.74 -6.61216 2.53375 0
M  V30 10903 H 1010.14 -5.52106 1.1764 0
M  V30 10904 N 1009.54 -0.859717 -1.32086 0
M  V30 10905 C 1010.79 -0.465581 -1.97075 0
M  V30 10906 C 1011.12 0.979917 -1.68012 0
M  V30 10907 O 1010.37 1.70337 -0.96353 0
M  V30 10908 C 1010.67 -0.657397 -3.51302 0
M  V30 10909 C 1010.34 -2.07413 -4.00363 0
M  V30 10910 C 1009 -2.4616 -4.13472 0
M  V30 10911 C 1011.35 -2.99855 -4.26305 0
M  V30 10912 C 1008.68 -3.76611 -4.49868 0
M  V30 10913 C 1011.03 -4.2981 -4.64161 0
M  V30 10914 C 1009.7 -4.68485 -4.75476 0
M  V30 10915 H 1008.97 -0.170368 -0.721149 0
M  V30 10916 H 1011.61 -1.09074 -1.57401 0
M  V30 10917 H 1009.92 0.0509638 -3.91767 0
M  V30 10918 H 1011.61 -0.332416 -3.9962 0
M  V30 10919 H 1008.2 -1.76327 -3.90649 0
M  V30 10920 H 1012.39 -2.7115 -4.15682 0
M  V30 10921 H 1007.64 -4.06352 -4.56824 0
M  V30 10922 H 1011.82 -5.015 -4.83188 0
M  V30 10923 H 1009.45 -5.69612 -5.03435 0
M  V30 10924 N 1011.02 1.44971 -0.618145 0
M  V30 10925 C 1012.25 2.07039 -0.122395 0
M  V30 10926 C 1012.67 1.45793 1.18853 0
M  V30 10927 O 1012.03 0.55453 1.72611 0
M  V30 10928 C 1012.08 3.60599 -0.0073864 0
M  V30 10929 O 1011.18 3.99069 1.04007 0
M  V30 10930 H 1010.52 0.6593 -0.0788615 0
M  V30 10931 H 1013.05 1.86055 -0.851147 0
M  V30 10932 H 1013.06 4.07569 0.187417 0
M  V30 10933 H 1011.74 4.04561 -0.964544 0
M  V30 10934 H 1010.31 3.63753 0.820879 0
M  V30 10935 N 1012.5 0.357919 1.53482 0
M  V30 10936 C 1013.72 -0.237769 2.06033 0
M  V30 10937 C 1014.15 -1.42292 1.23023 0
M  V30 10938 O 1013.51 -1.79604 0.247427 0
M  V30 10939 C 1013.55 -0.616806 3.55286 0
M  V30 10940 O 1012.66 -1.71503 3.75047 0
M  V30 10941 H 1012 -0.0364322 0.663 0
M  V30 10942 H 1014.53 0.516301 1.97979 0
M  V30 10943 H 1014.54 -0.88996 3.98175 0
M  V30 10944 H 1013.21 0.249825 4.15149 0
M  V30 10945 H 1011.79 -1.43803 3.44057 0
M  V30 10946 N 1013.98 -1.5736 0.0868897 0
M  V30 10947 C 1015.22 -1.94054 -0.578741 0
M  V30 10948 C 1015.55 -0.968047 -1.68698 0
M  V30 10949 O 1014.81 0.0137824 -1.95695 0
M  V30 10950 C 1015.11 -3.37316 -1.18123 0
M  V30 10951 C 1014.77 -4.50467 -0.197607 0
M  V30 10952 C 1013.43 -4.81145 0.072952 0
M  V30 10953 C 1015.79 -5.19036 0.474473 0
M  V30 10954 C 1013.11 -5.77723 1.02242 0
M  V30 10955 C 1015.47 -6.16632 1.41236 0
M  V30 10956 C 1014.13 -6.45719 1.69124 0
M  V30 10957 H 1013.4 -0.710093 -0.211776 0
M  V30 10958 H 1016.05 -1.90822 0.160978 0
M  V30 10959 H 1014.35 -3.37085 -1.99701 0
M  V30 10960 H 1016.05 -3.63003 -1.7038 0
M  V30 10961 H 1012.64 -4.2655 -0.418669 0
M  V30 10962 H 1016.82 -4.95518 0.278581 0
M  V30 10963 H 1012.08 -5.98578 1.24557 0
M  V30 10964 H 1016.25 -6.68862 1.939 0
M  V30 10965 H 1013.88 -7.20365 2.42855 0
M  V30 10966 N 1015.45 0.186762 -1.56489 0
M  V30 10967 C 1016.68 0.920495 -1.84961 0
M  V30 10968 C 1017.09 1.77004 -0.668297 0
M  V30 10969 O 1016.44 1.79891 0.37213 0
M  V30 10970 C 1016.5 1.85997 -3.07645 0
M  V30 10971 C 1016.16 1.19156 -4.41193 0
M  V30 10972 C 1017.16 0.564446 -5.16827 0
M  V30 10973 C 1014.84 1.19292 -4.87929 0
M  V30 10974 C 1016.84 -0.0523768 -6.37378 0
M  V30 10975 C 1014.52 0.572266 -6.08415 0
M  V30 10976 C 1015.52 -0.049294 -6.82982 0
M  V30 10977 O 1015.21 -0.660201 -8.01184 0
M  V30 10978 H 1014.94 0.273659 -0.618132 0
M  V30 10979 H 1017.5 0.196437 -2.04459 0
M  V30 10980 H 1015.73 2.62394 -2.84053 0
M  V30 10981 H 1017.42 2.46221 -3.22692 0
M  V30 10982 H 1018.18 0.555474 -4.81809 0
M  V30 10983 H 1014.06 1.66611 -4.29839 0
M  V30 10984 H 1017.6 -0.538133 -6.95521 0
M  V30 10985 H 1013.5 0.578769 -6.429 0
M  V30 10986 H 1014.27 -0.557926 -8.16596 0
M  V30 10987 N 1016.93 1.50896 0.454776 0
M  V30 10988 C 1018.18 1.62699 1.20562 0
M  V30 10989 C 1018.51 0.334943 1.91594 0
M  V30 10990 O 1017.76 -0.680106 1.83502 0
M  V30 10991 C 1018.06 2.76839 2.26042 0
M  V30 10992 C 1017.73 4.16745 1.72147 0
M  V30 10993 C 1016.39 4.54809 1.5717 0
M  V30 10994 C 1018.74 5.04118 1.32341 0
M  V30 10995 C 1016.07 5.7797 1.00835 0
M  V30 10996 C 1018.42 6.27842 0.774419 0
M  V30 10997 C 1017.09 6.64694 0.611415 0
M  V30 10998 H 1016.36 0.595358 0.441169 0
M  V30 10999 H 1019 1.84879 0.499202 0
M  V30 11000 H 1017.31 2.48812 3.02655 0
M  V30 11001 H 1019 2.83173 2.83926 0
M  V30 11002 H 1015.59 3.86725 1.84775 0
M  V30 11003 H 1019.78 4.75331 1.42739 0
M  V30 11004 H 1015.03 6.05183 0.869669 0
M  V30 11005 H 1019.21 6.94896 0.457389 0
M  V30 11006 H 1016.84 7.60004 0.172751 0
M  V30 11007 N 1018.41 -0.709066 1.40748 0
M  V30 11008 C 1019.66 -1.4646 1.38681 0
M  V30 11009 C 1019.97 -1.95599 -0.0056209 0
M  V30 11010 O 1021.18 -2.71091 -0.148907 0
M  V30 11011 C 1019.63 -2.64771 2.43771 0
M  V30 11012 C 1019.24 -2.22474 3.88856 0
M  V30 11013 C 1020.99 -3.42475 2.50821 0
M  V30 11014 C 1018.89 -3.37663 4.85528 0
M  V30 11015 H 1017.82 -0.550084 0.515678 0
M  V30 11016 H 1020.47 -0.771074 1.66513 0
M  V30 11017 H 1018.86 -3.36325 2.09048 0
M  V30 11018 H 1020.03 -1.58297 4.32757 0
M  V30 11019 H 1018.35 -1.57798 3.85342 0
M  V30 11020 H 1020.94 -4.28201 3.20232 0
M  V30 11021 H 1021.29 -3.86738 1.54076 0
M  V30 11022 H 1021.82 -2.77969 2.84567 0
M  V30 11023 H 1018.56 -2.98426 5.83628 0
M  V30 11024 H 1018.08 -4.00734 4.46287 0
M  V30 11025 H 1019.76 -4.03636 5.05655 0
M  V30 11026 N 1019.89 -1.26353 -0.941956 0
M  V30 11027 C 1021.14 -1.12017 -1.69056 0
M  V30 11028 C 1021.47 0.335856 -1.91274 0
M  V30 11029 O 1020.74 1.24677 -1.49285 0
M  V30 11030 C 1021.03 -1.88889 -3.06583 0
M  V30 11031 C 1020.88 -3.42394 -2.91696 0
M  V30 11032 C 1022.2 -1.68209 -4.06686 0
M  V30 11033 H 1019.32 -0.408311 -0.613556 0
M  V30 11034 H 1021.96 -1.55339 -1.09407 0
M  V30 11035 H 1020.11 -1.5207 -3.57501 0
M  V30 11036 H 1021.78 -3.88962 -2.48005 0
M  V30 11037 H 1020.02 -3.69459 -2.27338 0
M  V30 11038 H 1020.7 -3.91408 -3.89235 0
M  V30 11039 H 1023.17 -2.00286 -3.64726 0
M  V30 11040 H 1022.05 -2.24412 -5.00929 0
M  V30 11041 H 1022.31 -0.626474 -4.37639 0
M  V30 11042 N 1021.37 1.14642 -1.08144 0
M  V30 11043 C 1022.3 2.21775 -0.730609 0
M  V30 11044 C 1023.28 1.67683 0.285702 0
M  V30 11045 O 1024.46 1.93567 0.156667 0
M  V30 11046 C 1021.59 3.47033 -0.136242 0
M  V30 11047 C 1020.55 4.14134 -1.0806 0
M  V30 11048 C 1019.87 5.33563 -0.348585 0
M  V30 11049 C 1021.17 4.62978 -2.41761 0
M  V30 11050 H 1022.87 2.51378 -1.62633 0
M  V30 11051 H 1020.41 1.20825 -0.783411 0
M  V30 11052 H 1022.37 4.21226 0.121182 0
M  V30 11053 H 1021.09 3.16786 0.7946 0
M  V30 11054 H 1019.75 3.41892 -1.32308 0
M  V30 11055 H 1019.4 4.99575 0.585974 0
M  V30 11056 H 1019.1 5.79402 -0.978122 0
M  V30 11057 H 1020.62 6.10519 -0.0991508 0
M  V30 11058 H 1022.04 5.28659 -2.21795 0
M  V30 11059 H 1020.43 5.1951 -3.00383 0
M  V30 11060 H 1021.5 3.78189 -3.03482 0
M  V30 11061 N 1022.85 0.866709 1.31628 0
M  V30 11062 C 1024.07 0.49039 2.01004 0
M  V30 11063 C 1024.49 -0.916244 1.65077 0
M  V30 11064 O 1023.85 -1.59975 0.8783 0
M  V30 11065 C 1023.9 0.634011 3.55897 0
M  V30 11066 O 1023.62 1.98525 3.90537 0
M  V30 11067 C 1025.12 0.258277 4.42547 0
M  V30 11068 H 1022.34 0.191421 0.643117 0
M  V30 11069 H 1024.88 1.16698 1.67934 0
M  V30 11070 H 1023.04 0.00501801 3.874 0
M  V30 11071 H 1023.45 1.99067 4.85255 0
M  V30 11072 H 1024.93 0.409733 5.50477 0
M  V30 11073 H 1025.4 -0.802301 4.3181 0
M  V30 11074 H 1026.01 0.862837 4.16456 0
M  V30 11075 N 1024.32 -1.44642 0.625825 0
M  V30 11076 C 1025.25 -2.33397 -0.0692188 0
M  V30 11077 C 1026.23 -1.47898 -0.840241 0
M  V30 11078 O 1027.42 -1.7663 -0.807176 0
M  V30 11079 C 1024.55 -3.30888 -1.055 0
M  V30 11080 C 1023.5 -4.26164 -0.395968 0
M  V30 11081 C 1022.83 -5.13483 -1.49128 0
M  V30 11082 C 1024.13 -5.17663 0.694433 0
M  V30 11083 H 1025.82 -2.91763 0.671925 0
M  V30 11084 H 1023.37 -1.40294 0.324573 0
M  V30 11085 H 1025.32 -3.91861 -1.54993 0
M  V30 11086 H 1024.05 -2.7072 -1.82696 0
M  V30 11087 H 1022.71 -3.66516 0.0782691 0
M  V30 11088 H 1022.35 -4.49672 -2.25399 0
M  V30 11089 H 1022.05 -5.78038 -1.05573 0
M  V30 11090 H 1023.58 -5.77327 -1.98813 0
M  V30 11091 H 1024.99 -5.72602 0.282818 0
M  V30 11092 H 1023.39 -5.90793 1.05281 0
M  V30 11093 H 1024.46 -4.58994 1.56372 0
M  V30 11094 N 1025.8 -0.366053 -1.5329 0
M  V30 11095 C 1027.05 0.223493 -2.01263 0
M  V30 11096 C 1027.38 1.48736 -1.25331 0
M  V30 11097 O 1026.63 1.92805 -0.335341 0
M  V30 11098 C 1026.93 0.560906 -3.52971 0
M  V30 11099 C 1026.6 -0.60869 -4.46773 0
M  V30 11100 C 1025.26 -0.929609 -4.72135 0
M  V30 11101 C 1027.61 -1.39225 -5.02261 0
M  V30 11102 C 1024.94 -2.03606 -5.50238 0
M  V30 11103 C 1027.29 -2.48912 -5.81572 0
M  V30 11104 C 1025.95 -2.81538 -6.05221 0
M  V30 11105 H 1025.22 0.0817818 -0.736473 0
M  V30 11106 H 1027.87 -0.498613 -1.84895 0
M  V30 11107 H 1026.18 1.36403 -3.67289 0
M  V30 11108 H 1027.87 1.02931 -3.87564 0
M  V30 11109 H 1024.46 -0.348529 -4.27181 0
M  V30 11110 H 1028.65 -1.15757 -4.82612 0
M  V30 11111 H 1023.9 -2.29281 -5.6678 0
M  V30 11112 H 1028.08 -3.10044 -6.23575 0
M  V30 11113 H 1025.7 -3.67396 -6.65525 0
M  V30 11114 N 1027.28 1.57312 -0.0952337 0
M  V30 11115 C 1028.53 1.93974 0.567319 0
M  V30 11116 C 1028.85 0.977805 1.68713 0
M  V30 11117 O 1028.12 0.0298944 1.95877 0
M  V30 11118 H 1026.7 0.71612 0.212558 0
M  V30 11119 H 1029.36 1.94254 -0.158598 0
M  V30 11120 H 1028.46 2.964 0.977423 0
M  V30 11121 N 1028.76 -0.17846 1.56586 0
M  V30 11122 C 1029.71 -1.24042 1.96765 0
M  V30 11123 C 1030.7 -1.46218 0.855375 0
M  V30 11124 O 1031.91 -1.46882 1.04046 0
M  V30 11125 H 1028.28 -0.416807 0.62592 0
M  V30 11126 H 1030.25 -0.874644 2.85294 0
M  V30 11127 C 1029 -2.57394 2.3376 0
M  V30 11128 H 1028.32 -2.41151 3.18883 0
M  V30 11129 H 1029.76 -3.30405 2.65723 0
M  V30 11130 C 1028.22 -3.15621 1.17835 0
M  V30 11131 O 1028.75 -3.99032 0.462202 0
M  V30 11132 N 1026.96 -2.74606 0.950783 0
M  V30 11133 H 1026.51 -2.06878 1.5349 0
M  V30 11134 H 1026.46 -3.13902 0.176967 0
M  V30 11135 N 1030.24 -1.51135 -0.446768 0
M  V30 11136 C 1031.47 -1.66887 -1.21788 0
M  V30 11137 C 1031.87 -0.361729 -1.8571 0
M  V30 11138 O 1031.22 0.668784 -1.71093 0
M  V30 11139 C 1031.28 -2.72062 -2.34994 0
M  V30 11140 C 1030.94 -4.14935 -1.91516 0
M  V30 11141 C 1031.94 -5.00021 -1.42389 0
M  V30 11142 C 1029.62 -4.60985 -1.99495 0
M  V30 11143 C 1031.62 -6.29216 -1.01816 0
M  V30 11144 C 1029.31 -5.90179 -1.58532 0
M  V30 11145 C 1030.3 -6.74121 -1.09774 0
M  V30 11146 O 1029.99 -8.009 -0.69389 0
M  V30 11147 H 1029.72 -0.563431 -0.373525 0
M  V30 11148 H 1032.28 -1.98261 -0.536818 0
M  V30 11149 H 1030.51 -2.35983 -3.06348 0
M  V30 11150 H 1032.2 -2.76788 -2.96889 0
M  V30 11151 H 1032.96 -4.6565 -1.35627 0
M  V30 11152 H 1028.84 -3.95777 -2.36393 0
M  V30 11153 H 1032.39 -6.94687 -0.636879 0
M  V30 11154 H 1028.28 -6.24066 -1.64962 0
M  V30 11155 H 1029.05 -8.14376 -0.820582 0
M  V30 11156 N 1031.71 0.701592 -1.41122 0
M  V30 11157 C 1032.94 1.49049 -1.43499 0
M  V30 11158 C 1033.36 1.88761 -0.0385684 0
M  V30 11159 O 1032.71 1.56384 0.940755 0
M  V30 11160 C 1032.76 2.7569 -2.33832 0
M  V30 11161 O 1032.49 2.37653 -3.68039 0
M  V30 11162 C 1033.99 3.69479 -2.44949 0
M  V30 11163 H 1031.21 0.459519 -0.488961 0
M  V30 11164 H 1033.75 0.864318 -1.85337 0
M  V30 11165 H 1031.91 3.34559 -1.95318 0
M  V30 11166 H 1032.32 3.19241 -4.16156 0
M  V30 11167 H 1033.79 4.55139 -3.12334 0
M  V30 11168 H 1034.27 4.13553 -1.47887 0
M  V30 11169 H 1034.88 3.16517 -2.84072 0
M  V30 11170 N 1033.19 1.2685 0.935242 0
M  V30 11171 C 1034.12 1.1143 2.05196 0
M  V30 11172 C 1035.1 0.0178362 1.70091 0
M  V30 11173 O 1036.29 0.190951 1.93259 0
M  V30 11174 C 1033.42 0.752779 3.39044 0
M  V30 11175 C 1032.37 1.80164 3.88233 0
M  V30 11176 C 1031.7 1.29428 5.18799 0
M  V30 11177 C 1033 3.20431 4.12457 0
M  V30 11178 H 1034.69 2.04845 2.18355 0
M  V30 11179 H 1032.24 0.986276 1.04922 0
M  V30 11180 H 1034.19 0.631757 4.16637 0
M  V30 11181 H 1032.91 -0.217075 3.25878 0
M  V30 11182 H 1031.57 1.91144 3.12825 0
M  V30 11183 H 1031.22 0.3141 5.02018 0
M  V30 11184 H 1030.92 1.99546 5.5268 0
M  V30 11185 H 1032.45 1.18605 5.9897 0
M  V30 11186 H 1033.86 3.12495 4.80645 0
M  V30 11187 H 1032.26 3.88193 4.57631 0
M  V30 11188 H 1033.33 3.66046 3.18023 0
M  V30 11189 N 1034.67 -1.14067 1.0875 0
M  V30 11190 C 1035.6 -2.21385 0.74236 0
M  V30 11191 C 1036.58 -1.67833 -0.276805 0
M  V30 11192 O 1037.77 -1.93647 -0.1464 0
M  V30 11193 C 1034.9 -3.46956 0.154644 0
M  V30 11194 C 1033.85 -4.13555 1.10255 0
M  V30 11195 C 1033.18 -5.3337 0.376877 0
M  V30 11196 C 1034.48 -4.6169 2.44213 0
M  V30 11197 H 1036.17 -2.50512 1.63964 0
M  V30 11198 H 1033.72 -1.20408 0.789807 0
M  V30 11199 H 1035.67 -4.21284 -0.0988419 0
M  V30 11200 H 1034.39 -3.17203 -0.777789 0
M  V30 11201 H 1033.05 -3.41186 1.34119 0
M  V30 11202 H 1032.7 -4.99879 -0.559472 0
M  V30 11203 H 1032.4 -5.78875 1.00884 0
M  V30 11204 H 1033.92 -6.10458 0.131527 0
M  V30 11205 H 1035.34 -5.27475 2.24595 0
M  V30 11206 H 1033.74 -5.17909 3.03134 0
M  V30 11207 H 1034.81 -3.76574 3.05483 0
M  V30 11208 N 1036.15 -0.873678 -1.31166 0
M  V30 11209 C 1037.1 -0.321349 -2.3037 0
M  V30 11210 C 1038.09 0.565568 -1.5968 0
M  V30 11211 O 1039.3 0.451257 -1.74252 0
M  V30 11212 H 1035.67 -0.0852425 -0.747153 0
M  V30 11213 H 1037.64 -1.17191 -2.74425 0
M  V30 11214 C 1036.39 0.459016 -3.44657 0
M  V30 11215 H 1035.71 -0.214185 -3.99226 0
M  V30 11216 H 1037.15 0.810758 -4.16176 0
M  V30 11217 C 1035.61 1.65173 -2.93632 0
M  V30 11218 O 1036.14 2.75105 -2.92711 0
M  V30 11219 N 1034.35 1.4851 -2.49786 0
M  V30 11220 H 1033.9 0.590785 -2.50734 0
M  V30 11221 H 1033.85 2.28452 -2.16002 0
M  V30 11222 N 1037.63 1.44308 -0.633487 0
M  V30 11223 C 1038.87 2.02322 -0.139123 0
M  V30 11224 C 1039.21 1.49733 1.23667 0
M  V30 11225 O 1038.48 0.682353 1.82138 0
M  V30 11226 C 1038.76 3.59871 -0.128366 0
M  V30 11227 C 1038.62 4.22737 -1.53667 0
M  V30 11228 C 1039.94 4.36702 0.545834 0
M  V30 11229 H 1037.05 0.735161 -0.0520293 0
M  V30 11230 H 1039.7 1.7185 -0.810411 0
M  V30 11231 H 1037.85 3.85963 0.443263 0
M  V30 11232 H 1039.52 4.07744 -2.15737 0
M  V30 11233 H 1037.76 3.80142 -2.08985 0
M  V30 11234 H 1038.43 5.31757 -1.48116 0
M  V30 11235 H 1040.91 4.16057 0.0596879 0
M  V30 11236 H 1039.78 5.46407 0.522557 0
M  V30 11237 H 1040.05 4.11483 1.6166 0
M  V30 11238 N 1039.1 0.374177 1.53094 0
M  V30 11239 C 1040.35 -0.212816 2.01379 0
M  V30 11240 C 1040.68 -1.48069 1.26118 0
M  V30 11241 O 1039.93 -1.92625 0.345561 0
M  V30 11242 C 1040.23 -0.542179 3.53264 0
M  V30 11243 C 1039.9 0.632375 4.46444 0
M  V30 11244 C 1038.56 0.954635 4.71636 0
M  V30 11245 C 1040.91 1.41887 5.01515 0
M  V30 11246 C 1038.24 2.06521 5.4915 0
M  V30 11247 C 1040.59 2.51993 5.80243 0
M  V30 11248 C 1039.26 2.84744 6.03719 0
M  V30 11249 H 1038.53 -0.0778749 0.736897 0
M  V30 11250 H 1041.17 0.508412 1.84628 0
M  V30 11251 H 1039.48 -1.34454 3.68007 0
M  V30 11252 H 1041.18 -1.00874 3.88105 0
M  V30 11253 H 1037.77 0.371179 4.2699 0
M  V30 11254 H 1041.95 1.18315 4.81991 0
M  V30 11255 H 1037.21 2.32284 5.65557 0
M  V30 11256 H 1041.38 3.13346 6.21922 0
M  V30 11257 H 1039.01 3.70921 6.63568 0
M  V30 11258 N 1040.58 -1.57259 0.103575 0
M  V30 11259 C 1041.51 -2.17509 -0.84923 0
M  V30 11260 C 1042.49 -1.11079 -1.28824 0
M  V30 11261 O 1043.68 -1.39252 -1.35361 0
M  V30 11262 C 1040.81 -2.76221 -2.10522 0
M  V30 11263 C 1039.76 -3.88098 -1.80454 0
M  V30 11264 C 1039.09 -4.33549 -3.12952 0
M  V30 11265 C 1040.39 -5.10909 -1.08486 0
M  V30 11266 H 1042.08 -2.9738 -0.347217 0
M  V30 11267 H 1039.63 -1.43045 -0.165568 0
M  V30 11268 H 1041.58 -3.17024 -2.77621 0
M  V30 11269 H 1040.31 -1.93617 -2.63021 0
M  V30 11270 H 1038.96 -3.47847 -1.15749 0
M  V30 11271 H 1038.61 -3.47825 -3.63355 0
M  V30 11272 H 1038.31 -5.08984 -2.93614 0
M  V30 11273 H 1039.84 -4.76992 -3.81196 0
M  V30 11274 H 1041.25 -5.48828 -1.65711 0
M  V30 11275 H 1039.65 -5.91828 -0.992973 0
M  V30 11276 H 1040.72 -4.84851 -0.0690108 0
M  V30 11277 N 1042.06 0.170153 -1.56679 0
M  V30 11278 C 1043.02 1.19443 -1.95617 0
M  V30 11279 C 1044.02 1.37118 -0.83996 0
M  V30 11280 O 1045.21 1.34504 -1.10699 0
M  V30 11281 C 1042.35 2.55926 -2.25199 0
M  V30 11282 H 1043.54 0.86095 -2.87276 0
M  V30 11283 H 1041.09 0.412646 -1.50755 0
M  V30 11284 H 1041.83 2.94286 -1.36257 0
M  V30 11285 H 1041.61 2.44464 -3.06562 0
M  V30 11286 H 1043.1 3.29742 -2.56242 0
M  V30 11287 N 1043.54 1.5137 0.438746 0
M  V30 11288 C 1044.79 1.63202 1.18524 0
M  V30 11289 C 1045.1 0.353408 1.92381 0
M  V30 11290 O 1046.31 0.351086 2.6922 0
M  V30 11291 C 1044.76 2.88218 2.15542 0
M  V30 11292 C 1044.37 4.23078 1.47339 0
M  V30 11293 C 1046.11 3.09407 2.90633 0
M  V30 11294 C 1044.02 5.39246 2.42833 0
M  V30 11295 H 1042.95 0.607864 0.446114 0
M  V30 11296 H 1045.6 1.77835 0.452421 0
M  V30 11297 H 1043.98 2.67216 2.92253 0
M  V30 11298 H 1045.16 4.54457 0.761964 0
M  V30 11299 H 1043.47 4.07755 0.844065 0
M  V30 11300 H 1046.07 3.9337 3.62165 0
M  V30 11301 H 1046.41 2.22428 3.51897 0
M  V30 11302 H 1046.95 3.30743 2.21029 0
M  V30 11303 H 1043.69 6.2848 1.8626 0
M  V30 11304 H 1043.21 5.12245 3.12034 0
M  V30 11305 H 1044.88 5.71137 3.03992 0
M  V30 11306 N 1045.02 -0.694098 1.41492 0
M  V30 11307 C 1045.98 -1.78976 1.43179 0
M  V30 11308 C 1046.98 -1.57539 0.322191 0
M  V30 11309 O 1048.17 -1.64185 0.582138 0
M  V30 11310 C 1045.3 -3.17368 1.2446 0
M  V30 11311 H 1046.49 -1.78874 2.40716 0
M  V30 11312 H 1044.05 -0.901867 1.27656 0
M  V30 11313 H 1044.78 -3.23109 0.277691 0
M  V30 11314 H 1044.57 -3.3433 2.04856 0
M  V30 11315 H 1046.06 -3.97345 1.28479 0
M  V30 11316 N 1046.49 -1.27344 -0.928501 0
M  V30 11317 C 1047.74 -1.13804 -1.67859 0
M  V30 11318 C 1048.07 0.31555 -1.91619 0
M  V30 11319 O 1047.35 1.23087 -1.50599 0
M  V30 11320 C 1047.63 -1.9213 -3.04562 0
M  V30 11321 C 1047.48 -3.45468 -2.88048 0
M  V30 11322 C 1048.8 -1.72513 -4.04879 0
M  V30 11323 H 1045.92 -0.414796 -0.609191 0
M  V30 11324 H 1048.56 -1.5649 -1.07753 0
M  V30 11325 H 1046.71 -1.55853 -3.55868 0
M  V30 11326 H 1048.39 -3.9157 -2.43865 0
M  V30 11327 H 1046.63 -3.71849 -2.23407 0
M  V30 11328 H 1047.3 -3.95515 -3.85061 0
M  V30 11329 H 1049.78 -2.04143 -3.62581 0
M  V30 11330 H 1048.65 -2.29713 -4.98521 0
M  V30 11331 H 1048.91 -0.672856 -4.3695 0
M  V30 11332 N 1047.97 1.13488 -1.09353 0
M  V30 11333 C 1049.25 1.80998 -0.741559 0
M  V30 11334 C 1049.63 1.96418 0.773505 0
M  V30 11335 O 1048.98 1.53168 1.69563 0
M  V30 11336 C 1049.19 3.16078 -1.47972 0
M  V30 11337 C 1050.54 3.91438 -1.64504 0
M  V30 11338 O 1051.56 3.25699 -1.44218 0
M  V30 11339 O 1050.42 5.0935 -1.98054 0
M  V30 11340 H 1047.51 0.782953 -0.266297 0
M  V30 11341 H 1050.06 1.20422 -1.19569 0
M  V30 11342 H 1048.83 3.00076 -2.51137 0
M  V30 11343 H 1048.45 3.84354 -1.01772 0
M  V30 11344 N 1049.45 0.880621 1.30701 0
M  V30 11345 C 1050.4 0.333562 2.30196 0
M  V30 11346 C 1051.39 -0.557092 1.59978 0
M  V30 11347 O 1052.6 -0.442009 1.74489 0
M  V30 11348 H 1048.97 0.0892036 0.746691 0
M  V30 11349 H 1050.95 1.18644 2.73799 0
M  V30 11350 C 1049.69 -0.440731 3.44895 0
M  V30 11351 H 1049.02 0.235353 3.99107 0
M  V30 11352 H 1050.46 -0.788676 4.166 0
M  V30 11353 C 1048.92 -1.63613 2.94504 0
M  V30 11354 O 1049.45 -2.73549 2.94166 0
M  V30 11355 N 1047.65 -1.47183 2.5057 0
M  V30 11356 H 1047.2 -0.577479 2.51044 0
M  V30 11357 H 1047.16 -2.27303 2.17211 0
M  V30 11358 N 1050.93 -1.4397 0.641131 0
M  V30 11359 C 1051.86 -2.33458 -0.04446 0
M  V30 11360 C 1052.84 -1.48781 -0.824507 0
M  V30 11361 O 1054.03 -1.77477 -0.788397 0
M  V30 11362 C 1051.16 -3.31989 -1.01984 0
M  V30 11363 C 1050.11 -4.2656 -0.350745 0
M  V30 11364 C 1049.44 -5.15036 -1.43673 0
M  V30 11365 C 1050.74 -5.16897 0.749299 0
M  V30 11366 H 1052.43 -2.91034 0.702832 0
M  V30 11367 H 1049.98 -1.39942 0.339435 0
M  V30 11368 H 1051.93 -3.93483 -1.50828 0
M  V30 11369 H 1050.65 -2.72643 -1.79815 0
M  V30 11370 H 1049.31 -3.66413 0.117139 0
M  V30 11371 H 1048.96 -4.52037 -2.20617 0
M  V30 11372 H 1048.66 -5.79125 -0.994358 0
M  V30 11373 H 1050.18 -5.79403 -1.92678 0
M  V30 11374 H 1051.6 -5.7227 0.343534 0
M  V30 11375 H 1049.99 -5.89643 1.11541 0
M  V30 11376 H 1051.06 -4.5731 1.61232 0
M  V30 11377 N 1052.41 -0.382291 -1.52893 0
M  V30 11378 C 1053.37 0.44408 -2.24857 0
M  V30 11379 C 1054.37 0.996004 -1.26239 0
M  V30 11380 O 1055.56 0.879114 -1.5039 0
M  V30 11381 C 1052.69 1.62234 -2.99822 0
M  V30 11382 H 1053.89 -0.185862 -2.99324 0
M  V30 11383 H 1051.44 -0.134275 -1.55722 0
M  V30 11384 H 1052.17 2.28991 -2.29638 0
M  V30 11385 H 1051.96 1.23336 -3.72197 0
M  V30 11386 H 1053.45 2.20756 -3.54481 0
M  V30 11387 N 1053.89 1.57202 -0.111913 0
M  V30 11388 C 1054.83 2.16186 0.858286 0
M  V30 11389 C 1055.83 1.10917 1.28039 0
M  V30 11390 O 1057.03 1.29233 1.25295 0
M  V30 11391 H 1053.41 0.691777 0.29487 0
M  V30 11392 H 1055.38 2.96499 0.336265 0
M  V30 11393 C 1054.13 2.77024 2.10127 0
M  V30 11394 H 1053.45 3.5772 1.78539 0
M  V30 11395 H 1054.89 3.21841 2.76033 0
M  V30 11396 C 1053.35 1.73752 2.88638 0
M  V30 11397 O 1053.88 1.18659 3.83774 0
M  V30 11398 N 1052.09 1.43855 2.52496 0
M  V30 11399 H 1051.63 1.88846 1.75199 0
M  V30 11400 H 1051.59 0.749985 3.05324 0
M  V30 11401 N 1055.36 -0.161842 1.56767 0
M  V30 11402 C 1056.33 -1.18404 1.96247 0
M  V30 11403 C 1057.33 -1.3667 0.84722 0
M  V30 11404 O 1058.52 -1.33915 1.11411 0
M  V30 11405 C 1055.65 -2.54728 2.26553 0
M  V30 11406 H 1056.84 -0.845703 2.87729 0
M  V30 11407 H 1054.39 -0.404645 1.50971 0
M  V30 11408 H 1055.13 -2.93559 1.37816 0
M  V30 11409 H 1054.91 -2.42834 3.07854 0
M  V30 11410 H 1056.4 -3.28378 2.57987 0
M  V30 11411 N 1056.84 -1.516 -0.430713 0
M  V30 11412 C 1057.77 -1.69594 -1.54177 0
M  V30 11413 C 1058.79 -0.576518 -1.5225 0
M  V30 11414 O 1059.98 -0.85104 -1.56906 0
M  V30 11415 C 1057.08 -1.70148 -2.93092 0
M  V30 11416 C 1056.25 -2.98782 -3.1945 0
M  V30 11417 C 1055.31 -2.91435 -4.38123 0
M  V30 11418 O 1054.33 -3.65372 -4.36454 0
M  V30 11419 N 1055.54 -2.0774 -5.42056 0
M  V30 11420 H 1058.3 -2.65442 -1.39143 0
M  V30 11421 H 1055.86 -1.49569 -0.61974 0
M  V30 11422 H 1057.85 -1.62793 -3.70514 0
M  V30 11423 H 1056.42 -0.818667 -3.0169 0
M  V30 11424 H 1055.64 -3.19954 -2.30267 0
M  V30 11425 H 1056.93 -3.83919 -3.33892 0
M  V30 11426 H 1056.33 -1.47059 -5.46251 0
M  V30 11427 H 1054.89 -2.06259 -6.18305 0
M  V30 11428 N 1058.32 0.686584 -1.41858 0
M  V30 11429 C 1059.23 1.83002 -1.46791 0
M  V30 11430 C 1060.25 1.70284 -0.357675 0
M  V30 11431 O 1061.42 1.92042 -0.606781 0
M  V30 11432 C 1058.49 3.19056 -1.35661 0
M  V30 11433 C 1057.55 3.43817 -2.57077 0
M  V30 11434 C 1056.78 4.7338 -2.46469 0
M  V30 11435 O 1057 5.50483 -1.49413 0
M  V30 11436 O 1055.94 4.99124 -3.36391 0
M  V30 11437 H 1059.76 1.81797 -2.43277 0
M  V30 11438 H 1057.35 0.840812 -1.23494 0
M  V30 11439 H 1059.23 4.00267 -1.31773 0
M  V30 11440 H 1057.91 3.20925 -0.422951 0
M  V30 11441 H 1056.81 2.625 -2.66541 0
M  V30 11442 H 1058.15 3.4677 -3.49302 0
M  V30 11443 N 1059.8 1.27835 0.921735 0
M  V30 11444 C 1060.73 1.136 2.04003 0
M  V30 11445 C 1061.71 0.0358756 1.70062 0
M  V30 11446 O 1062.89 0.211438 1.93046 0
M  V30 11447 C 1060.02 0.788697 3.38226 0
M  V30 11448 C 1058.98 1.84272 3.863 0
M  V30 11449 C 1058.3 1.34923 5.17397 0
M  V30 11450 C 1059.6 3.24788 4.09035 0
M  V30 11451 H 1061.3 2.07149 2.1617 0
M  V30 11452 H 1058.84 0.997349 1.0387 0
M  V30 11453 H 1060.8 0.675911 4.15944 0
M  V30 11454 H 1059.52 -0.182499 3.2609 0
M  V30 11455 H 1058.18 1.94451 3.1078 0
M  V30 11456 H 1057.83 0.367328 5.01657 0
M  V30 11457 H 1057.53 2.05397 5.50532 0
M  V30 11458 H 1059.05 1.24951 5.97678 0
M  V30 11459 H 1060.47 3.17575 4.77304 0
M  V30 11460 H 1058.86 3.93025 4.53488 0
M  V30 11461 H 1059.93 3.69398 3.14122 0
M  V30 11462 N 1061.28 -1.12907 1.09954 0
M  V30 11463 C 1062.5 -1.88138 0.860905 0
M  V30 11464 C 1062.92 -1.79402 -0.588256 0
M  V30 11465 O 1062.28 -1.16442 -1.40526 0
M  V30 11466 C 1062.33 -3.37537 1.29425 0
M  V30 11467 O 1062.05 -3.46056 2.68658 0
M  V30 11468 C 1063.55 -4.29721 1.08879 0
M  V30 11469 H 1060.77 -0.595437 0.309347 0
M  V30 11470 H 1063.31 -1.42894 1.46292 0
M  V30 11471 H 1061.47 -3.80344 0.736009 0
M  V30 11472 H 1061.88 -4.38969 2.87065 0
M  V30 11473 H 1063.36 -5.32854 1.4412 0
M  V30 11474 H 1063.83 -4.39192 0.0270053 0
M  V30 11475 H 1064.44 -3.9269 1.63325 0
M  V30 11476 N 1062.75 -0.88754 -1.30232 0
M  V30 11477 C 1063.7 -0.354497 -2.28061 0
M  V30 11478 C 1064.67 0.556732 -1.56492 0
M  V30 11479 O 1065.86 0.484597 -1.84543 0
M  V30 11480 C 1063 0.422701 -3.42501 0
M  V30 11481 C 1062.11 -0.518036 -4.28883 0
M  V30 11482 C 1061.24 0.275011 -5.30488 0
M  V30 11483 C 1060.28 -0.661032 -6.0852 0
M  V30 11484 N 1059.42 0.0968509 -7.02033 0
M  V30 11485 H 1064.26 -1.19388 -2.73039 0
M  V30 11486 H 1061.8 -0.600091 -1.34303 0
M  V30 11487 H 1063.75 0.889249 -4.07613 0
M  V30 11488 H 1062.38 1.22664 -2.98586 0
M  V30 11489 H 1061.44 -1.10308 -3.64055 0
M  V30 11490 H 1062.75 -1.23504 -4.83268 0
M  V30 11491 H 1061.9 0.803301 -6.01358 0
M  V30 11492 H 1060.64 1.02522 -4.76802 0
M  V30 11493 H 1059.65 -1.20093 -5.36524 0
M  V30 11494 H 1060.87 -1.41037 -6.64293 0
M  V30 11495 H 1058.82 0.829548 -6.50734 0
M  V30 11496 H 1058.73 -0.560476 -7.5392 0
M  V30 11497 H 1060 0.6058 -7.77142 0
M  V30 11498 N 1064.23 1.43628 -0.648757 0
M  V30 11499 C 1065.51 1.95391 -0.0904551 0
M  V30 11500 C 1065.89 1.59021 1.38837 0
M  V30 11501 O 1065.24 0.873078 2.11163 0
M  V30 11502 C 1065.45 3.47418 -0.33196 0
M  V30 11503 C 1066.8 4.23952 -0.234521 0
M  V30 11504 O 1067.82 3.55218 -0.264276 0
M  V30 11505 O 1066.68 5.46282 -0.154428 0
M  V30 11506 H 1063.77 0.82691 0.0121884 0
M  V30 11507 H 1066.32 1.5359 -0.721685 0
M  V30 11508 H 1065.09 3.67001 -1.35741 0
M  V30 11509 H 1064.71 3.96207 0.332556 0
M  V30 11510 N 1065.71 0.390394 1.52688 0
M  V30 11511 C 1066.62 -0.451543 2.30213 0
M  V30 11512 C 1067.64 -1.07051 1.37172 0
M  V30 11513 O 1068.81 -1.07609 1.70242 0
M  V30 11514 C 1065.88 -1.56299 3.0947 0
M  V30 11515 C 1064.94 -0.969017 4.18221 0
M  V30 11516 C 1064.17 -2.0275 4.93688 0
M  V30 11517 O 1064.39 -3.24273 4.69258 0
M  V30 11518 O 1063.33 -1.64418 5.79008 0
M  V30 11519 H 1067.15 0.180042 3.03166 0
M  V30 11520 H 1064.74 0.154082 1.48603 0
M  V30 11521 H 1066.62 -2.20864 3.58883 0
M  V30 11522 H 1065.3 -2.17952 2.3933 0
M  V30 11523 H 1064.2 -0.286587 3.73001 0
M  V30 11524 H 1065.54 -0.396687 4.90599 0
M  V30 11525 N 1067.19 -1.57141 0.120249 0
M  V30 11526 C 1068.1 -2.18925 -0.843155 0
M  V30 11527 C 1069.11 -1.16575 -1.29175 0
M  V30 11528 O 1070.29 -1.4905 -1.35448 0
M  V30 11529 C 1067.36 -2.7775 -2.075 0
M  V30 11530 C 1066.42 -3.95139 -1.6782 0
M  V30 11531 C 1065.65 -4.51149 -2.85132 0
M  V30 11532 O 1065.87 -4.06056 -4.00593 0
M  V30 11533 O 1064.81 -5.41815 -2.62145 0
M  V30 11534 H 1068.63 -3.01707 -0.347357 0
M  V30 11535 H 1066.22 -1.49028 -0.105427 0
M  V30 11536 H 1068.1 -3.15243 -2.79643 0
M  V30 11537 H 1066.77 -1.97998 -2.56083 0
M  V30 11538 H 1065.68 -3.62412 -0.927807 0
M  V30 11539 H 1067.01 -4.7633 -1.23977 0
M  V30 11540 N 1068.67 0.153526 -1.5685 0
M  V30 11541 C 1069.58 1.20932 -2.01029 0
M  V30 11542 C 1070.59 1.47401 -0.924598 0
M  V30 11543 O 1071.77 1.592 -1.23359 0
M  V30 11544 C 1068.83 2.52438 -2.37647 0
M  V30 11545 C 1067.89 2.33673 -3.60132 0
M  V30 11546 C 1067.13 3.58909 -3.94994 0
M  V30 11547 O 1067.35 4.64823 -3.30599 0
M  V30 11548 O 1066.28 3.5196 -4.8827 0
M  V30 11549 H 1070.11 0.864273 -2.91143 0
M  V30 11550 H 1067.7 0.361755 -1.44954 0
M  V30 11551 H 1069.58 3.29981 -2.62088 0
M  V30 11552 H 1068.25 2.86486 -1.5069 0
M  V30 11553 H 1067.16 1.54102 -3.40886 0
M  V30 11554 H 1068.49 2.04544 -4.47686 0
M  V30 11555 N 1070.14 1.51827 0.422667 0
M  V30 11556 C 1071.08 1.68901 1.53453 0
M  V30 11557 C 1072.06 0.536549 1.53492 0
M  V30 11558 O 1073.24 0.762226 1.72402 0
M  V30 11559 C 1070.37 1.71599 2.92013 0
M  V30 11560 C 1069.41 2.92984 3.0994 0
M  V30 11561 S 1070.25 4.53559 2.84683 0
M  V30 11562 C 1071.4 4.59024 4.25498 0
M  V30 11563 H 1071.63 2.62943 1.38739 0
M  V30 11564 H 1069.17 1.41695 0.613347 0
M  V30 11565 H 1071.13 1.73838 3.71874 0
M  V30 11566 H 1069.79 0.787083 3.04079 0
M  V30 11567 H 1068.98 2.91315 4.1128 0
M  V30 11568 H 1068.58 2.88562 2.37924 0
M  V30 11569 H 1070.87 4.35567 5.18929 0
M  V30 11570 H 1071.82 5.60904 4.32195 0
M  V30 11571 H 1072.22 3.88193 4.09837 0
M  V30 11572 N 1071.62 -0.679052 1.4222 0
M  V30 11573 C 1072.53 -1.82221 1.47759 0
M  V30 11574 C 1073.55 -1.70092 0.3667 0
M  V30 11575 O 1074.72 -1.91718 0.616957 0
M  V30 11576 C 1071.79 -3.18332 1.37351 0
M  V30 11577 C 1070.85 -3.42449 2.58896 0
M  V30 11578 C 1070.08 -4.72067 2.48976 0
M  V30 11579 O 1070.31 -5.49683 1.5233 0
M  V30 11580 O 1069.24 -4.97333 3.39033 0
M  V30 11581 H 1073.07 -1.80504 2.44238 0
M  V30 11582 H 1070.65 -0.834251 1.23938 0
M  V30 11583 H 1072.53 -3.99563 1.33893 0
M  V30 11584 H 1071.21 -3.20696 0.439965 0
M  V30 11585 H 1070.12 -2.61083 2.6793 0
M  V30 11586 H 1071.45 -3.44912 3.51136 0
M  V30 11587 N 1073.1 -1.28322 -0.914942 0
M  V30 11588 C 1074.01 -1.13993 -2.05043 0
M  V30 11589 C 1075.03 -0.0667921 -1.73872 0
M  V30 11590 O 1076.2 -0.275845 -1.99502 0
M  V30 11591 C 1073.27 -0.801856 -3.373 0
M  V30 11592 C 1072.33 -1.95723 -3.82088 0
M  V30 11593 C 1071.56 -1.63519 -5.08033 0
M  V30 11594 O 1071.78 -0.54899 -5.67752 0
M  V30 11595 O 1070.72 -2.47844 -5.48504 0
M  V30 11596 H 1074.54 -2.09313 -2.2005 0
M  V30 11597 H 1072.13 -1.0763 -1.03616 0
M  V30 11598 H 1074.01 -0.627214 -4.16706 0
M  V30 11599 H 1072.69 0.121696 -3.23471 0
M  V30 11600 H 1071.59 -2.18702 -3.03514 0
M  V30 11601 H 1072.93 -2.86144 -4.00478 0
M  V30 11602 N 1074.58 1.12322 -1.10551 0
M  V30 11603 C 1075.54 2.16273 -0.758844 0
M  V30 11604 C 1076.54 1.59325 0.217294 0
M  V30 11605 O 1077.73 1.74199 -0.00601346 0
M  V30 11606 C 1074.86 3.40674 -0.124238 0
M  V30 11607 H 1076.06 2.48454 -1.6796 0
M  V30 11608 H 1073.61 1.2735 -0.906188 0
M  V30 11609 H 1074.34 3.14094 0.807194 0
M  V30 11610 H 1074.13 3.83284 -0.826772 0
M  V30 11611 H 1075.62 4.17474 0.102502 0
M  V30 11612 N 1076.06 0.894434 1.2976 0
M  V30 11613 C 1077.02 0.373094 2.26143 0
M  V30 11614 C 1078.02 -0.489756 1.5316 0
M  V30 11615 O 1079.21 -0.29556 1.71674 0
M  V30 11616 C 1076.34 -0.467234 3.37683 0
M  V30 11617 H 1077.53 1.22427 2.73773 0
M  V30 11618 H 1075.09 0.672112 1.41111 0
M  V30 11619 H 1075.82 -1.33861 2.95384 0
M  V30 11620 H 1075.61 0.150954 3.91809 0
M  V30 11621 H 1077.1 -0.823469 4.094 0
M  V30 11622 N 1077.53 -1.43282 0.656365 0
M  V30 11623 C 1078.48 -2.32556 -0.0452037 0
M  V30 11624 C 1079.48 -1.48789 -0.80982 0
M  V30 11625 O 1080.68 -1.64979 -0.719865 0
M  V30 11626 H 1077.06 -0.751258 -0.0334043 0
M  V30 11627 H 1079.03 -2.89448 0.725423 0
M  V30 11628 C 1077.78 -3.33138 -0.995706 0
M  V30 11629 H 1077.1 -3.97622 -0.416774 0
M  V30 11630 H 1078.54 -3.98231 -1.45562 0
M  V30 11631 C 1077 -2.63978 -2.09325 0
M  V30 11632 O 1077.53 -2.45769 -3.17743 0
M  V30 11633 N 1075.74 -2.23301 -1.8597 0
M  V30 11634 H 1075.28 -2.38312 -0.97802 0
M  V30 11635 H 1075.24 -1.77358 -2.59599 0
M  V30 11636 N 1079.01 -0.398486 -1.52479 0
M  V30 11637 C 1079.95 0.467426 -2.24383 0
M  V30 11638 C 1080.96 1.01908 -1.26959 0
M  V30 11639 O 1082.15 0.919843 -1.52974 0
M  V30 11640 C 1079.25 1.66146 -2.95379 0
M  V30 11641 C 1078.42 1.23557 -4.19586 0
M  V30 11642 C 1077.48 2.29532 -4.73499 0
M  V30 11643 O 1076.51 1.90561 -5.36354 0
M  V30 11644 N 1077.71 3.61564 -4.5415 0
M  V30 11645 H 1080.47 -0.148653 -2.99331 0
M  V30 11646 H 1078.03 -0.225313 -1.60325 0
M  V30 11647 H 1080.03 2.36585 -3.28344 0
M  V30 11648 H 1078.6 2.18369 -2.23682 0
M  V30 11649 H 1077.82 0.359715 -3.92555 0
M  V30 11650 H 1079.1 0.927812 -5.00269 0
M  V30 11651 H 1078.5 3.95983 -4.03998 0
M  V30 11652 H 1077.06 4.2801 -4.9158 0
M  V30 11653 N 1080.49 1.57075 -0.12858 0
M  V30 11654 C 1081.44 2.15816 0.818064 0
M  V30 11655 C 1082.41 1.08581 1.25696 0
M  V30 11656 O 1083.59 1.36535 1.33277 0
M  V30 11657 C 1080.73 2.76943 2.05905 0
M  V30 11658 C 1079.85 3.98514 1.66764 0
M  V30 11659 C 1078.98 4.47698 2.85902 0
M  V30 11660 C 1078.02 5.61778 2.43047 0
M  V30 11661 N 1077.16 6.05662 3.5513 0
M  V30 11662 H 1082 2.9638 0.310318 0
M  V30 11663 H 1079.53 1.46418 0.141472 0
M  V30 11664 H 1081.49 3.10519 2.78629 0
M  V30 11665 H 1080.12 1.99053 2.54122 0
M  V30 11666 H 1079.17 3.71038 0.838766 0
M  V30 11667 H 1080.49 4.81215 1.31277 0
M  V30 11668 H 1079.64 4.83233 3.66839 0
M  V30 11669 H 1078.38 3.63967 3.24622 0
M  V30 11670 H 1077.38 5.25838 1.60544 0
M  V30 11671 H 1078.61 6.47282 2.05433 0
M  V30 11672 H 1076.56 5.2487 3.93506 0
M  V30 11673 H 1076.47 6.83242 3.23598 0
M  V30 11674 H 1077.74 6.45838 4.36479 0
M  V30 11675 N 1081.97 -0.145205 1.5693 0
M  V30 11676 C 1082.9 -1.18096 2.01434 0
M  V30 11677 C 1083.88 -1.447 0.894204 0
M  V30 11678 O 1085.07 -1.55589 1.16214 0
M  V30 11679 C 1082.2 -2.51369 2.39647 0
M  V30 11680 C 1081.15 -2.39283 3.54863 0
M  V30 11681 C 1080.48 -3.77283 3.78895 0
M  V30 11682 C 1081.78 -1.8754 4.87469 0
M  V30 11683 H 1083.47 -0.810897 2.8821 0
M  V30 11684 H 1081.02 -0.388624 1.38657 0
M  V30 11685 H 1082.97 -3.24054 2.69382 0
M  V30 11686 H 1081.69 -2.90214 1.49811 0
M  V30 11687 H 1080.35 -1.6905 3.25296 0
M  V30 11688 H 1080 -4.13567 2.86307 0
M  V30 11689 H 1079.7 -3.70057 4.56433 0
M  V30 11690 H 1081.22 -4.51514 4.11057 0
M  V30 11691 H 1082.64 -2.50019 5.1591 0
M  V30 11692 H 1081.03 -1.912 5.68826 0
M  V30 11693 H 1082.1 -0.831194 4.77723 0
M  V30 11694 N 1083.45 -1.52049 -0.414609 0
M  V30 11695 C 1084.41 -1.74382 -1.4874 0
M  V30 11696 C 1085.41 -0.613701 -1.48628 0
M  V30 11697 O 1086.6 -0.88152 -1.50249 0
M  V30 11698 C 1083.73 -1.82116 -2.88178 0
M  V30 11699 H 1084.93 -2.70147 -1.30233 0
M  V30 11700 H 1082.48 -1.42382 -0.644756 0
M  V30 11701 H 1083.21 -0.882457 -3.12063 0
M  V30 11702 H 1083 -2.64268 -2.89663 0
M  V30 11703 H 1084.49 -2.01155 -3.65959 0
M  V30 11704 N 1084.93 0.6715 -1.42579 0
M  V30 11705 C 1085.86 1.79693 -1.49107 0
M  V30 11706 C 1086.84 1.66516 -0.347338 0
M  V30 11707 O 1088.02 1.85887 -0.562094 0
M  V30 11708 C 1085.15 3.1801 -1.39596 0
M  V30 11709 C 1084.11 3.45926 -2.5203 0
M  V30 11710 C 1083.43 4.83852 -2.27577 0
M  V30 11711 C 1084.73 3.4249 -3.94333 0
M  V30 11712 H 1086.43 1.74486 -2.433 0
M  V30 11713 H 1083.97 0.838042 -1.17102 0
M  V30 11714 H 1085.92 3.96478 -1.42771 0
M  V30 11715 H 1084.65 3.23901 -0.418989 0
M  V30 11716 H 1083.31 2.6982 -2.48178 0
M  V30 11717 H 1082.96 4.86398 -1.28165 0
M  V30 11718 H 1082.66 5.03493 -3.02934 0
M  V30 11719 H 1084.18 5.646 -2.32506 0
M  V30 11720 H 1085.59 4.10922 -3.9977 0
M  V30 11721 H 1083.99 3.73666 -4.69568 0
M  V30 11722 H 1085.06 2.41002 -4.20768 0
M  V30 11723 N 1086.4 1.28806 0.908124 0
M  V30 11724 C 1087.34 1.09018 2.01613 0
M  V30 11725 C 1088.35 0.0402059 1.6275 0
M  V30 11726 O 1089.54 0.283853 1.76229 0
M  V30 11727 C 1086.64 0.635712 3.32884 0
M  V30 11728 C 1085.81 1.76235 4.00325 0
M  V30 11729 C 1084.87 1.3003 5.09881 0
M  V30 11730 O 1083.9 2.00354 5.32773 0
M  V30 11731 N 1085.1 0.166575 5.80261 0
M  V30 11732 H 1087.86 2.0444 2.19144 0
M  V30 11733 H 1085.42 1.20633 1.07978 0
M  V30 11734 H 1087.42 0.310097 4.0351 0
M  V30 11735 H 1085.99 -0.225816 3.11783 0
M  V30 11736 H 1085.21 2.25727 3.23173 0
M  V30 11737 H 1086.49 2.51796 4.42127 0
M  V30 11738 H 1085.89 -0.419934 5.64139 0
M  V30 11739 H 1084.45 -0.0997281 6.51724 0
M  V30 11740 N 1087.88 -1.11734 1.11145 0
M  V30 11741 C 1088.83 -2.17683 0.766979 0
M  V30 11742 C 1089.8 -1.64051 -0.260108 0
M  V30 11743 O 1090.98 -1.90302 -0.137723 0
M  V30 11744 C 1088.12 -3.44442 0.212982 0
M  V30 11745 C 1087.24 -4.12094 1.29626 0
M  V30 11746 C 1086.37 -5.26526 0.703127 0
M  V30 11747 C 1085.41 -5.86057 1.76647 0
M  V30 11748 N 1084.55 -6.91889 1.19306 0
M  V30 11749 H 1089.39 -2.46495 1.67465 0
M  V30 11750 H 1086.92 -1.21011 0.836353 0
M  V30 11751 H 1088.88 -4.17009 -0.126162 0
M  V30 11752 H 1087.51 -3.16025 -0.657888 0
M  V30 11753 H 1086.56 -3.37631 1.75241 0
M  V30 11754 H 1087.88 -4.52398 2.10089 0
M  V30 11755 H 1087.03 -6.05888 0.313859 0
M  V30 11756 H 1085.77 -4.87519 -0.132856 0
M  V30 11757 H 1084.77 -5.05375 2.16508 0
M  V30 11758 H 1086 -6.27132 2.60543 0
M  V30 11759 H 1083.95 -6.54906 0.378664 0
M  V30 11760 H 1083.86 -7.30832 1.93443 0
M  V30 11761 H 1085.13 -7.75062 0.830578 0
M  V30 11762 N 1089.36 -0.901303 -1.29284 0
M  V30 11763 C 1090.32 -0.385081 -2.25942 0
M  V30 11764 C 1091.32 0.481626 -1.53418 0
M  V30 11765 O 1092.51 0.286451 -1.71829 0
M  V30 11766 C 1089.64 0.449319 -3.37926 0
M  V30 11767 H 1090.84 -1.23877 -2.7312 0
M  V30 11768 H 1088.39 -0.679586 -1.40753 0
M  V30 11769 H 1089.13 1.32292 -2.9609 0
M  V30 11770 H 1088.91 -0.171731 -3.91724 0
M  V30 11771 H 1090.4 0.801746 -4.09831 0
M  V30 11772 N 1090.84 1.42931 -0.663954 0
M  V30 11773 C 1091.78 2.3079 0.0210764 0
M  V30 11774 C 1092.75 1.45356 0.803796 0
M  V30 11775 O 1093.94 1.74207 0.778237 0
M  V30 11776 C 1091.08 3.31069 0.974023 0
M  V30 11777 C 1090.19 4.31598 0.186273 0
M  V30 11778 C 1089.33 5.18955 1.13399 0
M  V30 11779 C 1088.37 6.1117 0.337292 0
M  V30 11780 N 1087.5 6.91114 1.23715 0
M  V30 11781 H 1092.34 2.88819 -0.733995 0
M  V30 11782 H 1089.88 1.42274 -0.373711 0
M  V30 11783 H 1091.84 3.87727 1.54024 0
M  V30 11784 H 1090.47 2.74665 1.69585 0
M  V30 11785 H 1089.52 3.77147 -0.496402 0
M  V30 11786 H 1090.83 4.96919 -0.432753 0
M  V30 11787 H 1089.99 5.80292 1.77049 0
M  V30 11788 H 1088.73 4.53785 1.78691 0
M  V30 11789 H 1087.73 5.48911 -0.312492 0
M  V30 11790 H 1088.96 6.78386 -0.31138 0
M  V30 11791 H 1086.9 6.28583 1.87668 0
M  V30 11792 H 1086.82 7.52999 0.672946 0
M  V30 11793 H 1088.09 7.56948 1.86146 0
M  V30 11794 N 1092.32 0.406567 1.52266 0
M  V30 11795 C 1093.23 -0.4271 2.30679 0
M  V30 11796 C 1094.24 -1.0559 1.383 0
M  V30 11797 O 1095.42 -1.05797 1.71374 0
M  V30 11798 C 1092.48 -1.53008 3.1111 0
M  V30 11799 C 1091.54 -0.924604 4.19225 0
M  V30 11800 C 1090.78 -1.97502 4.95811 0
M  V30 11801 O 1091 -3.19277 4.72671 0
M  V30 11802 O 1089.93 -1.58268 5.80719 0
M  V30 11803 H 1093.76 0.212187 3.02958 0
M  V30 11804 H 1091.34 0.169835 1.48432 0
M  V30 11805 H 1093.23 -2.17046 3.61205 0
M  V30 11806 H 1091.9 -2.15401 2.41628 0
M  V30 11807 H 1090.81 -0.247009 3.73284 0
M  V30 11808 H 1092.14 -0.34463 4.90992 0
M  V30 11809 N 1093.79 -1.57004 0.136909 0
M  V30 11810 C 1095.04 -1.96087 -0.517477 0
M  V30 11811 C 1095.37 -1.0213 -1.65176 0
M  V30 11812 O 1094.65 -0.0617958 -1.94402 0
M  V30 11813 C 1094.93 -3.44958 -1.03323 0
M  V30 11814 C 1094.78 -4.49691 0.0988609 0
M  V30 11815 C 1096.1 -3.96091 -1.91832 0
M  V30 11816 H 1093.22 -0.712978 -0.186632 0
M  V30 11817 H 1095.86 -1.88767 0.216095 0
M  V30 11818 H 1094.01 -3.51327 -1.65836 0
M  V30 11819 H 1095.69 -4.55409 0.734847 0
M  V30 11820 H 1093.93 -4.271 0.75947 0
M  V30 11821 H 1094.6 -5.51165 -0.303554 0
M  V30 11822 H 1097.08 -3.92139 -1.39164 0
M  V30 11823 H 1095.95 -5.00742 -2.24831 0
M  V30 11824 H 1096.21 -3.37846 -2.85153 0
M  V30 11825 N 1095.27 0.136881 -1.57004 0
M  V30 11826 C 1096.24 1.15267 -1.98106 0
M  V30 11827 C 1097.24 1.35305 -0.868856 0
M  V30 11828 O 1098.43 1.32126 -1.13527 0
M  V30 11829 C 1095.56 2.51092 -2.30577 0
M  V30 11830 H 1096.75 0.799821 -2.89038 0
M  V30 11831 H 1094.3 0.380576 -1.51596 0
M  V30 11832 H 1095.04 2.9133 -1.42469 0
M  V30 11833 H 1094.82 2.37906 -3.11678 0
M  V30 11834 H 1096.31 3.24232 -2.63179 0
M  V30 11835 N 1096.75 1.52266 0.40654 0
M  V30 11836 C 1097.66 1.78688 1.52012 0
M  V30 11837 C 1098.68 0.6726 1.60475 0
M  V30 11838 O 1099.85 0.95829 1.77141 0
M  V30 11839 C 1096.92 1.93434 2.87722 0
M  V30 11840 C 1095.98 3.17341 2.89125 0
M  V30 11841 C 1095.21 3.31374 4.18362 0
M  V30 11842 O 1095.43 2.50613 5.12396 0
M  V30 11843 O 1094.37 4.24539 4.26674 0
M  V30 11844 H 1098.19 2.73213 1.3262 0
M  V30 11845 H 1095.78 1.37142 0.592653 0
M  V30 11846 H 1097.66 2.04941 3.68208 0
M  V30 11847 H 1096.34 1.02099 3.07177 0
M  V30 11848 H 1095.24 3.1129 2.07483 0
M  V30 11849 H 1096.58 4.08466 2.7462 0
M  V30 11850 N 1098.23 -0.663929 1.42933 0
M  V30 11851 C 1099.47 -1.42603 1.44195 0
M  V30 11852 C 1099.81 -1.94101 0.0620284 0
M  V30 11853 O 1099.08 -1.71609 -0.91546 0
M  V30 11854 C 1099.37 -2.61522 2.47544 0
M  V30 11855 C 1099.22 -2.15587 3.94769 0
M  V30 11856 C 1100.54 -3.6374 2.47753 0
M  V30 11857 H 1097.66 -0.517189 0.525056 0
M  V30 11858 H 1100.3 -0.75361 1.74415 0
M  V30 11859 H 1098.45 -3.1889 2.21904 0
M  V30 11860 H 1100.12 -1.63303 4.31428 0
M  V30 11861 H 1098.36 -1.47057 4.08114 0
M  V30 11862 H 1099.03 -3.01053 4.62678 0
M  V30 11863 H 1101.51 -3.16111 2.70579 0
M  V30 11864 H 1100.39 -4.44512 3.22025 0
M  V30 11865 H 1100.65 -4.15607 1.50742 0
M  V30 11866 N 1099.71 -1.29285 -0.901281 0
M  V30 11867 C 1100.93 -1.20169 -1.69039 0
M  V30 11868 C 1101.36 0.234509 -1.86632 0
M  V30 11869 O 1100.71 1.16935 -1.38549 0
M  V30 11870 C 1100.76 -1.91852 -3.05328 0
M  V30 11871 O 1099.87 -1.23448 -3.9349 0
M  V30 11872 H 1099.21 -0.416486 -0.517141 0
M  V30 11873 H 1101.74 -1.70826 -1.12603 0
M  V30 11874 H 1101.75 -2.00244 -3.5548 0
M  V30 11875 H 1100.42 -2.96313 -2.91841 0
M  V30 11876 H 1099 -1.23303 -3.51924 0
M  V30 11877 N 1101.18 1.11143 -1.11736 0
M  V30 11878 C 1102.6 1.64462 -0.883693 0
M  V30 11879 C 1102.95 1.87324 0.583448 0
M  V30 11880 O 1102.07 1.60975 1.44623 0
M  V30 11881 C 1102.67 2.98765 -1.59764 0
M  V30 11882 C 1101.23 3.4898 -1.41032 0
M  V30 11883 C 1100.37 2.23729 -1.63831 0
M  V30 11884 H 1103.32 0.947415 -1.27317 0
M  V30 11885 H 1103.34 3.65885 -1.04443 0
M  V30 11886 H 1102.86 2.82094 -2.66542 0
M  V30 11887 H 1100.96 3.7081 -0.364781 0
M  V30 11888 H 1101.07 4.27571 -2.16148 0
M  V30 11889 H 1099.43 2.31507 -1.06191 0
M  V30 11890 H 1100.22 2.09597 -2.7189 0
M  V30 11891 N 1102.66 0.908147 1.28804 0
M  V30 11892 C 1103.6 0.336764 2.25701 0
M  V30 11893 C 1104.57 -0.555849 1.52804 0
M  V30 11894 O 1105.76 -0.500763 1.81727 0
M  V30 11895 C 1102.88 -0.519154 3.34698 0
M  V30 11896 C 1101.93 0.307304 4.25391 0
M  V30 11897 S 1102.76 1.71048 5.07447 0
M  V30 11898 C 1103.92 0.861715 6.1994 0
M  V30 11899 H 1104.15 1.15806 2.73818 0
M  V30 11900 H 1101.69 0.709033 1.37157 0
M  V30 11901 H 1103.64 -1.00718 3.97952 0
M  V30 11902 H 1102.3 -1.31477 2.85259 0
M  V30 11903 H 1101.5 -0.346906 5.02805 0
M  V30 11904 H 1101.1 0.728777 3.66831 0
M  V30 11905 H 1103.39 0.088851 6.77442 0
M  V30 11906 H 1104.33 1.60821 6.89596 0
M  V30 11907 H 1104.74 0.412366 5.62992 0
M  V30 11908 N 1104.14 -1.42577 0.671525 0
M  V30 11909 C 1105.37 -2.06442 0.199152 0
M  V30 11910 C 1105.79 -1.50104 -1.1336 0
M  V30 11911 O 1105.15 -0.618211 -1.70434 0
M  V30 11912 C 1105.2 -3.60323 0.141215 0
M  V30 11913 O 1104.3 -4.02655 -0.891238 0
M  V30 11914 H 1103.64 -0.655919 0.103277 0
M  V30 11915 H 1106.17 -1.82768 0.919614 0
M  V30 11916 H 1106.18 -4.07984 -0.0360209 0
M  V30 11917 H 1104.86 -4.00702 1.11403 0
M  V30 11918 H 1103.43 -3.66549 -0.685309 0
M  V30 11919 N 1105.62 -0.414636 -1.52048 0
M  V30 11920 C 1106.58 0.396285 -2.25748 0
M  V30 11921 C 1107.58 0.969003 -1.28324 0
M  V30 11922 O 1108.77 0.847016 -1.52221 0
M  V30 11923 C 1105.9 1.55838 -3.03195 0
M  V30 11924 H 1107.1 -0.249311 -2.98862 0
M  V30 11925 H 1104.65 -0.167276 -1.55402 0
M  V30 11926 H 1105.38 2.24068 -2.34444 0
M  V30 11927 H 1105.17 1.15414 -3.74729 0
M  V30 11928 H 1106.66 2.13187 -3.59084 0
M  V30 11929 N 1107.1 1.56929 -0.145233 0
M  V30 11930 C 1108.06 2.15483 0.781002 0
M  V30 11931 C 1109.06 1.09617 1.17647 0
M  V30 11932 O 1110.25 1.35265 1.09768 0
M  V30 11933 C 1107.38 2.7165 2.05959 0
M  V30 11934 H 1108.57 2.98667 0.271685 0
M  V30 11935 H 1106.13 1.55952 0.1042 0
M  V30 11936 H 1106.86 1.92127 2.61262 0
M  V30 11937 H 1106.65 3.491 1.78526 0
M  V30 11938 H 1108.14 3.16769 2.72116 0
M  V30 11939 N 1108.58 -0.128553 1.57075 0
M  V30 11940 C 1109.52 -1.17719 2.00611 0
M  V30 11941 C 1110.52 -1.43423 0.90146 0
M  V30 11942 O 1111.72 -1.43498 1.08666 0
M  V30 11943 H 1108.1 -0.396683 0.638864 0
M  V30 11944 H 1110.07 -0.783437 2.87932 0
M  V30 11945 C 1108.82 -2.49826 2.41831 0
M  V30 11946 H 1108.14 -2.30883 3.26394 0
M  V30 11947 H 1109.58 -3.21784 2.761 0
M  V30 11948 C 1108.04 -3.11712 1.27816 0
M  V30 11949 O 1108.57 -3.9736 0.588917 0
M  V30 11950 N 1106.78 -2.71442 1.03767 0
M  V30 11951 H 1106.32 -2.01891 1.59994 0
M  V30 11952 H 1106.28 -3.1318 0.276743 0
M  V30 11953 N 1110.05 -1.5248 -0.398459 0
M  V30 11954 C 1111.3 -1.66287 -1.14155 0
M  V30 11955 C 1111.62 -0.40429 -1.91376 0
M  V30 11956 O 1112.82 -0.422341 -2.68195 0
M  V30 11957 C 1111.28 -2.93831 -2.07825 0
M  V30 11958 C 1110.89 -4.26836 -1.3607 0
M  V30 11959 C 1112.63 -3.17004 -2.82327 0
M  V30 11960 C 1110.54 -5.45495 -2.28451 0
M  V30 11961 H 1109.47 -0.619478 -0.42984 0
M  V30 11962 H 1112.12 -1.78972 -0.405112 0
M  V30 11963 H 1110.5 -2.7487 -2.85065 0
M  V30 11964 H 1111.67 -4.56317 -0.641205 0
M  V30 11965 H 1109.99 -4.0985 -0.735659 0
M  V30 11966 H 1112.59 -4.02834 -3.51609 0
M  V30 11967 H 1112.93 -2.3168 -3.45876 0
M  V30 11968 H 1113.46 -3.36487 -2.12183 0
M  V30 11969 H 1110.2 -6.33198 -1.69532 0
M  V30 11970 H 1109.72 -5.20338 -2.98343 0
M  V30 11971 H 1111.4 -5.78996 -2.88743 0
M  V30 11972 N 1111.53 0.65634 -1.43283 0
M  V30 11973 C 1112.76 1.44906 -1.48382 0
M  V30 11974 C 1113.18 1.87823 -0.101993 0
M  V30 11975 O 1112.54 1.57178 0.903597 0
M  V30 11976 C 1112.59 2.66231 -2.43215 0
M  V30 11977 O 1111.69 3.65176 -1.91625 0
M  V30 11978 H 1111.03 0.434601 -0.502014 0
M  V30 11979 H 1113.56 0.803429 -1.88165 0
M  V30 11980 H 1113.57 3.14083 -2.60414 0
M  V30 11981 H 1112.25 2.34336 -3.43598 0
M  V30 11982 H 1110.82 3.24302 -1.84072 0
M  V30 11983 N 1113.01 1.29761 0.894412 0
M  V30 11984 C 1114.26 1.17409 1.64006 0
M  V30 11985 C 1114.57 -0.272355 1.93695 0
M  V30 11986 O 1115.78 -0.517269 2.66527 0
M  V30 11987 C 1114.23 2.05379 2.95546 0
M  V30 11988 C 1113.84 3.54878 2.73433 0
M  V30 11989 C 1115.59 2.01765 3.73485 0
M  V30 11990 C 1113.49 4.34935 4.00731 0
M  V30 11991 H 1112.42 0.43583 0.615279 0
M  V30 11992 H 1115.07 1.5444 0.990983 0
M  V30 11993 H 1113.46 1.61222 3.61695 0
M  V30 11994 H 1114.63 4.07122 2.15844 0
M  V30 11995 H 1112.94 3.60218 2.08882 0
M  V30 11996 H 1115.54 2.58835 4.67877 0
M  V30 11997 H 1115.88 0.998876 4.04139 0
M  V30 11998 H 1116.42 2.43994 3.14184 0
M  V30 11999 H 1113.16 5.3747 3.75241 0
M  V30 12000 H 1112.68 3.87458 4.5786 0
M  V30 12001 H 1114.36 4.45875 4.68833 0
M  V30 12002 N 1114.49 -1.10549 1.12324 0
M  V30 12003 C 1115.45 -2.15039 0.793156 0
M  V30 12004 C 1116.45 -1.59651 -0.19192 0
M  V30 12005 O 1117.64 -1.74167 0.0337262 0
M  V30 12006 C 1114.77 -3.40433 0.17842 0
M  V30 12007 H 1115.97 -2.4575 1.71892 0
M  V30 12008 H 1113.52 -1.25892 0.926333 0
M  V30 12009 H 1114.25 -3.15338 -0.757122 0
M  V30 12010 H 1114.04 -3.81921 0.887645 0
M  V30 12011 H 1115.53 -4.17584 -0.0360724 0
M  V30 12012 N 1115.97 -0.914965 -1.28321 0
M  V30 12013 C 1116.93 -0.409024 -2.25521 0
M  V30 12014 C 1117.93 0.465327 -1.5392 0
M  V30 12015 O 1119.12 0.26821 -1.72123 0
M  V30 12016 C 1116.25 0.413452 -3.38383 0
M  V30 12017 H 1117.44 -1.26767 -2.71791 0
M  V30 12018 H 1115 -0.694477 -1.40024 0
M  V30 12019 H 1115.73 1.29145 -2.97476 0
M  V30 12020 H 1115.52 -0.213268 -3.9152 0
M  V30 12021 H 1117.01 0.758232 -4.10659 0
M  V30 12022 N 1117.44 1.42219 -0.679077 0
M  V30 12023 C 1118.86 1.55737 -0.349034 0
M  V30 12024 C 1119.06 1.65789 1.14527 0
M  V30 12025 O 1118.12 1.62717 1.93079 0
M  V30 12026 C 1119.43 2.80516 -1.0831 0
M  V30 12027 C 1120.98 2.94294 -1.06584 0
M  V30 12028 C 1121.45 4.2194 -1.78132 0
M  V30 12029 N 1122.94 4.28861 -1.75021 0
M  V30 12030 C 1123.68 5.26453 -2.27234 0
M  V30 12031 N 1123.17 6.30171 -2.87847 0
M  V30 12032 N 1124.97 5.1828 -2.17584 0
M  V30 12033 H 1117.12 1.33939 -1.64846 0
M  V30 12034 H 1119.38 0.645029 -0.694725 0
M  V30 12035 H 1119.09 2.79241 -2.13816 0
M  V30 12036 H 1118.96 3.71539 -0.651069 0
M  V30 12037 H 1121.35 2.95094 -0.0191061 0
M  V30 12038 H 1121.43 2.04491 -1.53679 0
M  V30 12039 H 1121.07 4.21901 -2.82776 0
M  V30 12040 H 1121 5.10685 -1.28483 0
M  V30 12041 H 1123.49 3.54537 -1.30814 0
M  V30 12042 H 1123.81 7.01 -3.25298 0
M  V30 12043 H 1122.15 6.30721 -2.91918 0
M  V30 12044 H 1125.34 4.36172 -1.69916 0
M  V30 12045 H 1125.52 5.94172 -2.58581 0
M  V30 12046 N 1118.92 0.422693 1.51826 0
M  V30 12047 C 1119.85 -0.43167 2.25098 0
M  V30 12048 C 1120.87 -0.998758 1.28564 0
M  V30 12049 O 1122.06 -0.89539 1.54418 0
M  V30 12050 C 1119.16 -1.61426 2.97985 0
M  V30 12051 C 1118.33 -1.16866 4.21499 0
M  V30 12052 C 1117.39 -2.2197 4.77091 0
M  V30 12053 O 1116.41 -1.82004 5.39317 0
M  V30 12054 N 1117.62 -3.54293 4.59844 0
M  V30 12055 H 1120.38 0.196255 2.99057 0
M  V30 12056 H 1117.94 0.25079 1.59946 0
M  V30 12057 H 1119.93 -2.31331 3.32066 0
M  V30 12058 H 1118.5 -2.14783 2.27128 0
M  V30 12059 H 1117.72 -0.297217 3.93078 0
M  V30 12060 H 1119.01 -0.848106 5.01682 0
M  V30 12061 H 1118.41 -3.89505 4.10247 0
M  V30 12062 H 1116.97 -4.20135 4.98327 0
M  V30 12063 N 1120.4 -1.5685 0.153553 0
M  V30 12064 C 1121.33 -2.14231 -0.814729 0
M  V30 12065 C 1122.34 -1.09339 -1.20619 0
M  V30 12066 O 1123.53 -1.36592 -1.14913 0
M  V30 12067 C 1120.63 -2.6555 -2.10562 0
M  V30 12068 C 1119.81 -3.94912 -1.8805 0
M  V30 12069 C 1118.87 -4.31476 -3.0119 0
M  V30 12070 O 1117.89 -4.9968 -2.72596 0
M  V30 12071 N 1119.09 -3.91588 -4.28531 0
M  V30 12072 H 1121.86 -2.9794 -0.324277 0
M  V30 12073 H 1119.42 -1.61873 -0.0298087 0
M  V30 12074 H 1121.41 -2.87019 -2.85311 0
M  V30 12075 H 1119.98 -1.86529 -2.5085 0
M  V30 12076 H 1119.2 -3.82002 -0.973024 0
M  V30 12077 H 1120.49 -4.79433 -1.70356 0
M  V30 12078 H 1119.89 -3.36645 -4.54628 0
M  V30 12079 H 1118.44 -4.18095 -5.00039 0
M  V30 12080 N 1121.88 0.120221 -1.57141 0
M  V30 12081 C 1122.83 1.16654 -2.01233 0
M  V30 12082 C 1123.82 1.42943 -0.909053 0
M  V30 12083 O 1125.03 1.4292 -1.09426 0
M  V30 12084 H 1121.4 0.393289 -0.640958 0
M  V30 12085 H 1123.37 0.768156 -2.88343 0
M  V30 12086 C 1122.12 2.4854 -2.43152 0
M  V30 12087 H 1121.44 2.29149 -3.27614 0
M  V30 12088 H 1122.88 3.20315 -2.77802 0
M  V30 12089 C 1121.34 3.1103 -1.29468 0
M  V30 12090 O 1121.87 3.97042 -0.609982 0
M  V30 12091 N 1120.08 2.70888 -1.05205 0
M  V30 12092 H 1119.63 2.01039 -1.61062 0
M  V30 12093 H 1119.58 3.13028 -0.293347 0
M  V30 12094 N 1123.36 1.52689 0.390367 0
M  V30 12095 C 1124.58 1.71839 1.16129 0
M  V30 12096 C 1125.01 0.435226 1.82996 0
M  V30 12097 O 1124.36 -0.60889 1.70769 0
M  V30 12098 C 1124.41 2.86784 2.18603 0
M  V30 12099 O 1123.52 2.53662 3.25161 0
M  V30 12100 H 1122.86 0.571455 0.338135 0
M  V30 12101 H 1125.39 1.99475 0.45508 0
M  V30 12102 H 1125.4 3.12239 2.62622 0
M  V30 12103 H 1124.07 3.79872 1.69322 0
M  V30 12104 H 1122.65 2.38942 2.86289 0
M  V30 12105 N 1124.83 -0.648732 1.43629 0
M  V30 12106 C 1125.8 -1.74331 1.488 0
M  V30 12107 C 1126.8 -1.56434 0.372147 0
M  V30 12108 O 1127.99 -1.6225 0.634078 0
M  V30 12109 C 1125.12 -3.13248 1.34494 0
M  V30 12110 H 1126.31 -1.71125 2.46285 0
M  V30 12111 H 1123.87 -0.860798 1.30461 0
M  V30 12112 H 1124.6 -3.22062 0.380345 0
M  V30 12113 H 1124.39 -3.27643 2.15389 0
M  V30 12114 H 1125.88 -3.93056 1.41055 0
M  V30 12115 N 1126.31 -1.30234 -0.887518 0
M  V30 12116 C 1127.26 -1.164 -1.99298 0
M  V30 12117 C 1128.23 -0.0541536 -1.66012 0
M  V30 12118 O 1129.41 -0.223881 -1.89482 0
M  V30 12119 C 1126.55 -0.859169 -3.34234 0
M  V30 12120 C 1125.67 -2.05065 -3.80227 0
M  V30 12121 C 1124.8 -1.68413 -5.03796 0
M  V30 12122 C 1123.84 -2.8407 -5.4219 0
M  V30 12123 N 1122.98 -2.47732 -6.56942 0
M  V30 12124 H 1127.82 -2.10973 -2.10463 0
M  V30 12125 H 1125.36 -1.04969 -1.03053 0
M  V30 12126 H 1127.31 -0.663064 -4.11897 0
M  V30 12127 H 1125.94 0.0496808 -3.22762 0
M  V30 12128 H 1125 -2.35808 -2.98494 0
M  V30 12129 H 1126.31 -2.91688 -4.04623 0
M  V30 12130 H 1125.46 -1.45162 -5.89078 0
M  V30 12131 H 1124.2 -0.789553 -4.81266 0
M  V30 12132 H 1123.21 -3.0799 -4.55437 0
M  V30 12133 H 1124.43 -3.74211 -5.66695 0
M  V30 12134 H 1122.38 -1.60777 -6.35993 0
M  V30 12135 H 1122.29 -3.27887 -6.81195 0
M  V30 12136 H 1123.56 -2.27831 -7.45462 0
M  V30 12137 N 1127.79 1.09952 -1.12909 0
M  V30 12138 C 1128.75 2.14615 -0.804548 0
M  V30 12139 C 1129.75 1.5975 0.18345 0
M  V30 12140 O 1130.94 1.74147 -0.0429623 0
M  V30 12141 C 1128.08 3.40333 -0.196471 0
M  V30 12142 H 1129.27 2.44835 -1.73193 0
M  V30 12143 H 1126.82 1.25399 -0.932997 0
M  V30 12144 H 1127.56 3.15735 0.740388 0
M  V30 12145 H 1127.34 3.81444 -0.907886 0
M  V30 12146 H 1128.83 4.17598 0.0139264 0
M  V30 12147 N 1129.27 0.921757 1.27833 0
M  V30 12148 C 1130.68 0.621102 1.47019 0
M  V30 12149 C 1130.88 -0.831338 1.83551 0
M  V30 12150 O 1129.94 -1.60974 1.94534 0
M  V30 12151 C 1131.25 1.56588 2.56712 0
M  V30 12152 C 1132.8 1.57346 2.70576 0
M  V30 12153 C 1133.28 2.50505 3.8342 0
M  V30 12154 N 1134.77 2.48678 3.90786 0
M  V30 12155 C 1135.5 3.17454 4.77505 0
M  V30 12156 N 1135 3.95588 5.68755 0
M  V30 12157 N 1136.79 3.06501 4.71183 0
M  V30 12158 H 1128.94 1.86085 1.02403 0
M  V30 12159 H 1131.21 0.798595 0.510833 0
M  V30 12160 H 1130.91 2.60175 2.36647 0
M  V30 12161 H 1130.79 1.30305 3.53978 0
M  V30 12162 H 1133.17 0.544919 2.90025 0
M  V30 12163 H 1133.25 1.87675 1.73815 0
M  V30 12164 H 1132.9 3.53466 3.64725 0
M  V30 12165 H 1132.83 2.17474 4.79596 0
M  V30 12166 H 1135.32 1.91928 3.25534 0
M  V30 12167 H 1135.63 4.45066 6.31772 0
M  V30 12168 H 1133.98 3.99692 5.6857 0
M  V30 12169 H 1137.17 2.44958 3.9889 0
M  V30 12170 H 1137.34 3.60372 5.3855 0
M  V30 12171 N 1130.75 -1.41857 0.686609 0
M  V30 12172 C 1131.97 -2.06219 0.221037 0
M  V30 12173 C 1132.4 -1.51298 -1.11762 0
M  V30 12174 O 1131.75 -0.636253 -1.69769 0
M  V30 12175 C 1131.8 -3.60153 0.179425 0
M  V30 12176 O 1130.91 -4.03577 -0.848481 0
M  V30 12177 H 1130.25 -0.654787 0.110228 0
M  V30 12178 H 1132.78 -1.81783 0.938948 0
M  V30 12179 H 1132.79 -4.07999 0.00725332 0
M  V30 12180 H 1131.46 -3.99498 1.15647 0
M  V30 12181 H 1130.04 -3.67255 -0.646393 0
M  V30 12182 N 1132.22 -0.430739 -1.51599 0
M  V30 12183 C 1133.47 0.138133 -2.02329 0
M  V30 12184 C 1133.8 1.42934 -1.31466 0
M  V30 12185 O 1133.08 1.89743 -0.427551 0
M  V30 12186 C 1133.36 0.363677 -3.58259 0
M  V30 12187 C 1133.21 -0.94572 -4.39746 0
M  V30 12188 C 1134.53 1.13637 -4.25176 0
M  V30 12189 H 1131.65 0.0487287 -0.735387 0
M  V30 12190 H 1134.29 -0.568444 -1.81297 0
M  V30 12191 H 1132.44 0.965552 -3.7631 0
M  V30 12192 H 1134.12 -1.58107 -4.33359 0
M  V30 12193 H 1132.36 -1.55183 -4.05094 0
M  V30 12194 H 1133.03 -0.742031 -5.4699 0
M  V30 12195 H 1135.51 0.626608 -4.11355 0
M  V30 12196 H 1134.38 1.26294 -5.34173 0
M  V30 12197 H 1134.64 2.16273 -3.85588 0
M  V30 12198 N 1133.7 1.56767 -0.161869 0
M  V30 12199 C 1134.95 1.97661 0.479751 0
M  V30 12200 C 1135.3 1.04583 1.61493 0
M  V30 12201 O 1134.6 0.0836772 1.91417 0
M  V30 12202 C 1134.79 3.42567 1.01894 0
M  V30 12203 C 1134.62 4.49657 -0.0624633 0
M  V30 12204 C 1133.39 5.0273 -0.508935 0
M  V30 12205 C 1135.59 5.07069 -0.85941 0
M  V30 12206 N 1133.57 5.93442 -1.57163 0
M  V30 12207 C 1134.94 5.94131 -1.77225 0
M  V30 12208 C 1137 4.89596 -0.905543 0
M  V30 12209 C 1135.7 6.6559 -2.72731 0
M  V30 12210 C 1137.72 5.61769 -1.8485 0
M  V30 12211 C 1137.09 6.48551 -2.74884 0
M  V30 12212 H 1133.19 0.76864 0.14393 0
M  V30 12213 H 1135.77 1.92957 -0.259906 0
M  V30 12214 H 1133.94 3.47835 1.72815 0
M  V30 12215 H 1135.67 3.70493 1.62841 0
M  V30 12216 H 1132.43 4.73476 -0.1084 0
M  V30 12217 H 1132.85 6.43502 -2.10319 0
M  V30 12218 H 1137.49 4.22209 -0.223516 0
M  V30 12219 H 1135.21 7.32197 -3.41927 0
M  V30 12220 H 1138.8 5.50239 -1.89018 0
M  V30 12221 H 1137.68 7.03417 -3.46661 0
M  V30 12222 N 1135.18 -0.111886 1.57202 0
M  V30 12223 C 1136.09 -1.1556 2.04165 0
M  V30 12224 C 1137.11 -1.44898 0.963354 0
M  V30 12225 O 1138.28 -1.55873 1.27536 0
M  V30 12226 C 1135.35 -2.46048 2.44256 0
M  V30 12227 C 1134.41 -2.24043 3.66201 0
M  V30 12228 C 1133.64 -3.4831 4.04371 0
M  V30 12229 O 1133.86 -4.55895 3.42806 0
M  V30 12230 O 1132.8 -3.38891 4.9743 0
M  V30 12231 H 1136.62 -0.786778 2.93332 0
M  V30 12232 H 1134.21 -0.323196 1.45862 0
M  V30 12233 H 1136.09 -3.22916 2.70745 0
M  V30 12234 H 1134.77 -2.8239 1.58233 0
M  V30 12235 H 1133.67 -1.4501 3.44852 0
M  V30 12236 H 1135.01 -1.92602 4.52952 0
M  V30 12237 N 1136.66 -1.52894 -0.382264 0
M  V30 12238 C 1137.59 -1.74413 -1.48703 0
M  V30 12239 C 1138.6 -0.624663 -1.50339 0
M  V30 12240 O 1139.79 -0.900527 -1.54119 0
M  V30 12241 C 1136.89 -1.79387 -2.8753 0
M  V30 12242 C 1136.07 -3.08794 -3.09783 0
M  V30 12243 C 1135.12 -3.05226 -4.2863 0
M  V30 12244 O 1134.15 -3.79073 -4.24609 0
M  V30 12245 N 1135.35 -2.2488 -5.35172 0
M  V30 12246 H 1138.12 -2.69734 -1.30628 0
M  V30 12247 H 1135.68 -1.51465 -0.571842 0
M  V30 12248 H 1137.67 -1.74498 -3.65147 0
M  V30 12249 H 1136.24 -0.914233 -2.98932 0
M  V30 12250 H 1135.46 -3.27118 -2.19971 0
M  V30 12251 H 1136.75 -3.94347 -3.21509 0
M  V30 12252 H 1136.15 -1.64363 -5.41296 0
M  V30 12253 H 1134.7 -2.25825 -6.1143 0
M  V30 12254 N 1138.14 0.641106 -1.43971 0
M  V30 12255 C 1139.55 0.958161 -1.27638 0
M  V30 12256 C 1139.75 2.00456 -0.204885 0
M  V30 12257 O 1138.81 2.49106 0.412606 0
M  V30 12258 C 1140.12 1.43091 -2.64472 0
M  V30 12259 C 1141.67 1.54692 -2.72102 0
M  V30 12260 C 1142.15 2.05353 -4.09382 0
M  V30 12261 N 1143.64 2.12638 -4.11509 0
M  V30 12262 C 1144.37 2.52987 -5.14573 0
M  V30 12263 N 1143.87 2.92544 -6.28005 0
M  V30 12264 N 1145.66 2.53033 -5.01927 0
M  V30 12265 H 1137.81 -0.0510973 -2.12339 0
M  V30 12266 H 1140.07 0.039748 -0.947166 0
M  V30 12267 H 1139.78 0.736389 -3.43904 0
M  V30 12268 H 1139.65 2.40375 -2.90688 0
M  V30 12269 H 1142.04 2.23242 -1.92994 0
M  V30 12270 H 1142.12 0.558083 -2.49638 0
M  V30 12271 H 1141.77 1.37401 -4.88962 0
M  V30 12272 H 1141.7 3.0509 -4.29218 0
M  V30 12273 H 1144.19 1.84792 -3.29636 0
M  V30 12274 H 1144.5 3.22116 -7.02468 0
M  V30 12275 H 1142.85 2.90319 -6.31458 0
M  V30 12276 H 1146.04 2.21514 -4.1237 0
M  V30 12277 H 1146.21 2.84155 -5.82375 0
M  V30 12278 N 1139.62 1.30703 0.880598 0
M  V30 12279 C 1140.58 1.17429 1.96832 0
M  V30 12280 C 1141.58 0.104305 1.60461 0
M  V30 12281 O 1142.77 0.352758 1.70591 0
M  V30 12282 C 1139.9 0.800099 3.31378 0
M  V30 12283 H 1141.09 2.14069 2.10034 0
M  V30 12284 H 1138.65 1.14162 1.06755 0
M  V30 12285 H 1139.38 -0.165606 3.23877 0
M  V30 12286 H 1139.17 1.57341 3.59146 0
M  V30 12287 H 1140.66 0.730826 4.11155 0
M  V30 12288 N 1141.09 -1.09351 1.1349 0
M  V30 12289 C 1142.32 -1.85844 0.92069 0
M  V30 12290 C 1142.74 -1.80616 -0.525303 0
M  V30 12291 O 1142.1 -1.1842 -1.37282 0
M  V30 12292 C 1142.15 -3.31716 1.4141 0
M  V30 12293 O 1141.25 -4.08014 0.599838 0
M  V30 12294 H 1140.59 -0.576242 0.32991 0
M  V30 12295 H 1143.12 -1.38084 1.50976 0
M  V30 12296 H 1143.13 -3.82564 1.41805 0
M  V30 12297 H 1141.81 -3.34837 2.46692 0
M  V30 12298 H 1140.39 -3.66944 0.663816 0
M  V30 12299 N 1142.57 -0.928524 -1.27343 0
M  V30 12300 C 1143.5 -0.385563 -2.25934 0
M  V30 12301 C 1144.52 0.484178 -1.55433 0
M  V30 12302 O 1145.71 0.296668 -1.76017 0
M  V30 12303 C 1142.81 0.466116 -3.35679 0
M  V30 12304 C 1141.98 -0.384523 -4.35707 0
M  V30 12305 C 1141.04 0.404644 -5.24642 0
M  V30 12306 O 1140.06 -0.187943 -5.6889 0
M  V30 12307 N 1141.27 1.70426 -5.54919 0
M  V30 12308 H 1144.03 -1.23306 -2.73159 0
M  V30 12309 H 1141.59 -0.796039 -1.40978 0
M  V30 12310 H 1143.58 1.00115 -3.92121 0
M  V30 12311 H 1142.15 1.21437 -2.88048 0
M  V30 12312 H 1141.37 -1.10085 -3.78517 0
M  V30 12313 H 1142.66 -0.966033 -4.99545 0
M  V30 12314 H 1142.06 2.20802 -5.20829 0
M  V30 12315 H 1140.62 2.1858 -6.14057 0
M  V30 12316 N 1144.05 1.41491 -0.694123 0
M  V30 12317 C 1144.98 2.33462 -0.0422169 0
M  V30 12318 C 1145.96 1.51739 0.76872 0
M  V30 12319 O 1147.15 1.8028 0.721985 0
M  V30 12320 C 1144.28 3.35545 0.895925 0
M  V30 12321 C 1143.23 4.27568 0.192188 0
M  V30 12322 C 1142.56 5.20014 1.24459 0
M  V30 12323 C 1143.86 5.1376 -0.940626 0
M  V30 12324 H 1145.55 2.88225 -0.810363 0
M  V30 12325 H 1143.1 1.38586 -0.39114 0
M  V30 12326 H 1145.05 3.9881 1.36121 0
M  V30 12327 H 1143.77 2.79129 1.69572 0
M  V30 12328 H 1142.43 3.65726 -0.25305 0
M  V30 12329 H 1142.08 4.59913 2.03687 0
M  V30 12330 H 1141.78 5.82417 0.778734 0
M  V30 12331 H 1143.3 5.86155 1.71041 0
M  V30 12332 H 1144.72 5.70601 -0.555692 0
M  V30 12333 H 1143.11 5.85097 -1.33349 0
M  V30 12334 H 1144.18 4.51011 -1.78093 0
M  V30 12335 N 1145.53 0.438773 1.51369 0
M  V30 12336 C 1146.94 0.0911416 1.5934 0
M  V30 12337 C 1147.14 -1.39962 1.44958 0
M  V30 12338 O 1146.2 -2.16968 1.29155 0
M  V30 12339 C 1147.51 0.612531 2.94395 0
M  V30 12340 C 1149.06 0.573098 3.07709 0
M  V30 12341 C 1149.54 1.07149 4.4529 0
M  V30 12342 N 1151.03 1.02953 4.51614 0
M  V30 12343 C 1151.76 1.38602 5.56397 0
M  V30 12344 N 1151.26 1.81543 6.68591 0
M  V30 12345 N 1153.05 1.30409 5.46763 0
M  V30 12346 H 1145.2 1.40872 1.58962 0
M  V30 12347 H 1147.46 0.580589 0.749414 0
M  V30 12348 H 1147.17 1.65562 3.10294 0
M  V30 12349 H 1147.04 0.0382375 3.77181 0
M  V30 12350 H 1149.43 -0.461006 2.91477 0
M  V30 12351 H 1149.51 1.18381 2.26759 0
M  V30 12352 H 1149.16 2.10406 4.62268 0
M  V30 12353 H 1149.09 0.437297 5.24781 0
M  V30 12354 H 1151.58 0.714208 3.7109 0
M  V30 12355 H 1151.89 2.06977 7.44567 0
M  V30 12356 H 1150.24 1.8547 6.69795 0
M  V30 12357 H 1153.43 0.967272 4.57997 0
M  V30 12358 H 1153.6 1.5852 6.28312 0
M  V30 12359 N 1147.01 -1.56678 0.170181 0
M  V30 12360 C 1147.94 -2.20916 -0.756213 0
M  V30 12361 C 1148.92 -1.16442 -1.23997 0
M  V30 12362 O 1150.1 -1.44867 -1.29333 0
M  V30 12363 C 1147.23 -2.84901 -1.98617 0
M  V30 12364 C 1146.19 -3.95403 -1.63831 0
M  V30 12365 C 1145.51 -4.46432 -2.94282 0
M  V30 12366 C 1146.81 -5.15051 -0.867195 0
M  V30 12367 H 1148.51 -2.98585 -0.220776 0
M  V30 12368 H 1146.05 -1.43619 -0.104748 0
M  V30 12369 H 1148 -3.28514 -2.63926 0
M  V30 12370 H 1146.73 -2.04598 -2.54572 0
M  V30 12371 H 1145.39 -3.52444 -1.00891 0
M  V30 12372 H 1145.04 -3.62923 -3.48276 0
M  V30 12373 H 1144.74 -5.20979 -2.71762 0
M  V30 12374 H 1146.26 -4.92731 -3.60622 0
M  V30 12375 H 1147.67 -5.55363 -1.42285 0
M  V30 12376 H 1146.07 -5.95507 -0.741065 0
M  V30 12377 H 1147.14 -4.84707 0.136693 0
M  V30 12378 N 1148.48 0.103547 -1.57259 0
M  V30 12379 C 1149.42 1.15225 -1.98131 0
M  V30 12380 C 1150.43 1.36793 -0.882692 0
M  V30 12381 O 1151.62 1.35595 -1.16088 0
M  V30 12382 C 1148.72 2.50941 -2.27776 0
M  V30 12383 C 1147.89 2.49765 -3.59077 0
M  V30 12384 C 1146.95 3.67344 -3.76756 0
M  V30 12385 O 1145.98 3.50221 -4.48702 0
M  V30 12386 N 1147.18 4.86504 -3.16692 0
M  V30 12387 H 1149.94 0.804448 -2.88702 0
M  V30 12388 H 1147.5 0.292636 -1.59233 0
M  V30 12389 H 1149.5 3.28186 -2.36804 0
M  V30 12390 H 1148.07 2.77843 -1.43255 0
M  V30 12391 H 1147.29 1.58125 -3.61096 0
M  V30 12392 H 1148.57 2.4605 -4.4535 0
M  V30 12393 H 1147.97 5.03319 -2.58236 0
M  V30 12394 H 1146.53 5.61371 -3.31218 0
M  V30 12395 N 1149.96 1.53094 0.37415 0
M  V30 12396 C 1150.91 1.79585 1.47824 0
M  V30 12397 C 1151.9 0.664513 1.55822 0
M  V30 12398 O 1153.11 0.84729 1.58811 0
M  V30 12399 H 1149.48 0.568474 0.492282 0
M  V30 12400 H 1151.46 2.72014 1.22681 0
M  V30 12401 C 1150.2 1.995 2.84772 0
M  V30 12402 H 1149.53 2.85991 2.79373 0
M  V30 12403 H 1150.97 2.22018 3.61226 0
M  V30 12404 C 1149.43 0.771673 3.27943 0
M  V30 12405 O 1149.96 -0.0437737 4.01676 0
M  V30 12406 N 1148.16 0.597547 2.8439 0
M  V30 12407 H 1147.71 1.26227 2.24554 0
M  V30 12408 H 1147.67 -0.219578 3.13632 0
M  V30 12409 N 1151.44 -0.633461 1.44309 0
M  V30 12410 C 1152.37 -1.75676 1.53819 0
M  V30 12411 C 1153.35 -1.65537 0.391365 0
M  V30 12412 O 1154.54 -1.84332 0.611181 0
M  V30 12413 C 1151.67 -3.14197 1.47979 0
M  V30 12414 C 1150.62 -3.39122 2.61113 0
M  V30 12415 C 1149.95 -4.77648 2.40325 0
M  V30 12416 C 1151.25 -3.31914 4.03274 0
M  V30 12417 H 1152.94 -1.67974 2.47841 0
M  V30 12418 H 1150.49 -0.8067 1.19283 0
M  V30 12419 H 1152.44 -3.92553 1.53233 0
M  V30 12420 H 1151.16 -3.22677 0.504718 0
M  V30 12421 H 1149.82 -2.63145 2.55245 0
M  V30 12422 H 1149.47 -4.82829 1.41016 0
M  V30 12423 H 1149.17 -4.95284 3.16177 0
M  V30 12424 H 1150.69 -5.58237 2.47394 0
M  V30 12425 H 1152.11 -4.00178 4.10524 0
M  V30 12426 H 1150.5 -3.61085 4.7931 0
M  V30 12427 H 1151.57 -2.29761 4.2701 0
M  V30 12428 N 1152.92 -1.31168 -0.873655 0
M  V30 12429 C 1154.33 -1.09745 -1.1588 0
M  V30 12430 C 1154.53 0.134471 -2.01051 0
M  V30 12431 O 1153.59 0.824857 -2.38647 0
M  V30 12432 C 1154.9 -2.36704 -1.85451 0
M  V30 12433 C 1156.45 -2.42278 -1.98167 0
M  V30 12434 C 1156.93 -3.69108 -2.71152 0
M  V30 12435 N 1158.42 -3.69981 -2.7869 0
M  V30 12436 C 1159.15 -4.64811 -3.35765 0
M  V30 12437 N 1158.65 -5.69995 -3.938 0
M  V30 12438 N 1160.44 -4.52337 -3.33688 0
M  V30 12439 H 1152.59 -2.10184 -0.306021 0
M  V30 12440 H 1154.86 -0.927058 -0.198159 0
M  V30 12441 H 1154.56 -3.26666 -1.30316 0
M  V30 12442 H 1154.44 -2.46219 -2.85755 0
M  V30 12443 H 1156.82 -1.52787 -2.52468 0
M  V30 12444 H 1156.9 -2.3673 -0.969164 0
M  V30 12445 H 1156.55 -4.58963 -2.1752 0
M  V30 12446 H 1156.48 -3.71922 -3.72803 0
M  V30 12447 H 1158.97 -2.93944 -2.37498 0
M  V30 12448 H 1159.28 -6.38438 -4.3545 0
M  V30 12449 H 1157.63 -5.73773 -3.92186 0
M  V30 12450 H 1160.82 -3.69341 -2.87584 0
M  V30 12451 H 1160.99 -5.2642 -3.77871 0
M  V30 12452 N 1154.4 1.08748 -1.14068 0
M  V30 12453 C 1155.36 2.1375 -0.827266 0
M  V30 12454 C 1156.36 1.59936 0.166496 0
M  V30 12455 O 1157.55 1.74092 -0.0614305 0
M  V30 12456 C 1154.68 3.40106 -0.232557 0
M  V30 12457 H 1155.87 2.42985 -1.7578 0
M  V30 12458 H 1153.43 1.24402 -0.946244 0
M  V30 12459 H 1154.16 3.16503 0.706859 0
M  V30 12460 H 1153.95 3.8046 -0.948293 0
M  V30 12461 H 1155.44 4.17589 -0.0303662 0
M  V30 12462 N 1155.87 0.935264 1.26849 0
M  V30 12463 C 1157.1 0.595704 1.98661 0
M  V30 12464 C 1157.52 -0.821001 1.69237 0
M  V30 12465 O 1156.88 -1.55211 0.936982 0
M  V30 12466 C 1156.93 0.837275 3.50745 0
M  V30 12467 O 1156.03 -0.0934914 4.12294 0
M  V30 12468 H 1155.38 0.228512 0.623441 0
M  V30 12469 H 1157.91 1.25658 1.61466 0
M  V30 12470 H 1157.92 0.755827 4.00938 0
M  V30 12471 H 1156.59 1.86993 3.71492 0
M  V30 12472 H 1155.17 0.0385124 3.7288 0
M  V30 12473 N 1157.35 -1.41121 0.701616 0
M  V30 12474 C 1158.59 -2.02993 0.239383 0
M  V30 12475 C 1158.96 -1.5439 -1.1414 0
M  V30 12476 O 1160.16 -2.08229 -1.69982 0
M  V30 12477 C 1158.43 -3.56128 0.301232 0
M  V30 12478 S 1159.99 -4.38716 -0.0860681 0
M  V30 12479 H 1156.81 -0.704494 0.0959645 0
M  V30 12480 H 1159.41 -1.72461 0.920736 0
M  V30 12481 H 1158.11 -3.88996 1.30805 0
M  V30 12482 H 1157.64 -3.91371 -0.399069 0
M  V30 12483 H 1159.66 -4.78537 -1.31212 0
M  V30 12484 N 1158.83 -0.446794 -1.51134 0
M  V30 12485 C 1159.74 0.36579 -2.31731 0
M  V30 12486 C 1160.76 1.01886 -1.41051 0
M  V30 12487 O 1161.93 1.01216 -1.74119 0
M  V30 12488 C 1159 1.44705 -3.15058 0
M  V30 12489 C 1158.06 0.813129 -4.21529 0
M  V30 12490 C 1157.29 1.84287 -5.00873 0
M  V30 12491 O 1157.51 3.06633 -4.8097 0
M  V30 12492 O 1156.45 1.42816 -5.84711 0
M  V30 12493 H 1160.27 -0.292436 -3.02289 0
M  V30 12494 H 1157.86 -0.209129 -1.47929 0
M  V30 12495 H 1159.74 2.07393 -3.66833 0
M  V30 12496 H 1158.42 2.08919 -2.47254 0
M  V30 12497 H 1157.32 0.147953 -3.73807 0
M  V30 12498 H 1158.66 0.214331 -4.91733 0
M  V30 12499 N 1160.31 1.56586 -0.178487 0
M  V30 12500 C 1161.27 2.17091 0.73512 0
M  V30 12501 C 1162.27 1.12088 1.15295 0
M  V30 12502 O 1163.46 1.37563 1.06874 0
M  V30 12503 C 1160.59 2.75957 2.00151 0
M  V30 12504 H 1161.79 2.99176 0.208272 0
M  V30 12505 H 1159.34 1.56138 0.0710967 0
M  V30 12506 H 1160.07 1.97626 2.57127 0
M  V30 12507 H 1159.86 3.52809 1.7108 0
M  V30 12508 H 1161.35 3.2247 2.65335 0
M  V30 12509 N 1161.79 -0.095206 1.57312 0
M  V30 12510 C 1162.72 -1.11627 2.05089 0
M  V30 12511 C 1163.7 -1.41782 0.939787 0
M  V30 12512 O 1164.88 -1.51813 1.21105 0
M  V30 12513 C 1162.01 -2.43618 2.47523 0
M  V30 12514 C 1160.97 -2.27872 3.62296 0
M  V30 12515 C 1160.29 -3.65038 3.90706 0
M  V30 12516 C 1161.59 -1.71936 4.93189 0
M  V30 12517 H 1163.29 -0.718795 2.90644 0
M  V30 12518 H 1160.83 -0.344315 1.39823 0
M  V30 12519 H 1162.79 -3.1532 2.79556 0
M  V30 12520 H 1161.51 -2.85301 1.58968 0
M  V30 12521 H 1160.17 -1.58615 3.3051 0
M  V30 12522 H 1159.82 -4.04249 2.99319 0
M  V30 12523 H 1159.52 -3.55349 4.67976 0
M  V30 12524 H 1161.04 -4.38208 4.25213 0
M  V30 12525 H 1162.45 -2.33479 5.23603 0
M  V30 12526 H 1160.85 -1.73006 5.74621 0
M  V30 12527 H 1161.92 -0.678789 4.80125 0
M  V30 12528 N 1163.26 -1.53291 -0.366026 0
M  V30 12529 C 1164.49 -1.73108 -1.1277 0
M  V30 12530 C 1164.9 -0.459662 -1.83531 0
M  V30 12531 O 1164.25 0.577151 -1.74398 0
M  V30 12532 C 1164.31 -2.84137 -2.20242 0
M  V30 12533 C 1163.97 -4.24503 -1.69252 0
M  V30 12534 C 1164.97 -5.06866 -1.15684 0
M  V30 12535 C 1162.65 -4.70912 -1.74778 0
M  V30 12536 C 1164.65 -6.33728 -0.683191 0
M  V30 12537 C 1162.33 -5.97752 -1.27025 0
M  V30 12538 C 1163.33 -6.78992 -0.738858 0
M  V30 12539 O 1163.02 -8.03452 -0.268375 0
M  V30 12540 H 1162.75 -0.582439 -0.343134 0
M  V30 12541 H 1165.31 -2.00828 -0.430969 0
M  V30 12542 H 1163.54 -2.5189 -2.93408 0
M  V30 12543 H 1165.23 -2.92136 -2.818 0
M  V30 12544 H 1165.99 -4.72185 -1.10753 0
M  V30 12545 H 1161.87 -4.07751 -2.15081 0
M  V30 12546 H 1165.41 -6.97086 -0.267746 0
M  V30 12547 H 1161.31 -6.31933 -1.31649 0
M  V30 12548 H 1162.08 -8.17581 -0.387745 0
M  V30 12549 N 1164.74 0.6258 -1.44643 0
M  V30 12550 C 1165.97 1.41726 -1.51422 0
M  V30 12551 C 1166.39 1.87565 -0.14181 0
M  V30 12552 O 1165.75 1.59059 0.870054 0
M  V30 12553 C 1165.8 2.61012 -2.48807 0
M  V30 12554 O 1164.9 3.61029 -1.99328 0
M  V30 12555 H 1164.24 0.423855 -0.511119 0
M  V30 12556 H 1166.77 0.763336 -1.89827 0
M  V30 12557 H 1166.78 3.08489 -2.67018 0
M  V30 12558 H 1165.46 2.26995 -3.48491 0
M  V30 12559 H 1164.04 3.20325 -1.90909 0
M  V30 12560 N 1166.22 1.31629 0.866686 0
M  V30 12561 C 1167.13 1.21524 2.00671 0
M  V30 12562 C 1168.15 0.131277 1.73504 0
M  V30 12563 O 1169.32 0.349699 1.98341 0
M  V30 12564 C 1166.39 0.926491 3.34091 0
M  V30 12565 C 1165.45 2.09769 3.7456 0
M  V30 12566 C 1164.68 1.82262 5.01614 0
M  V30 12567 O 1164.9 0.759329 5.65323 0
M  V30 12568 O 1163.84 2.68031 5.38928 0
M  V30 12569 H 1167.66 2.17335 2.1213 0
M  V30 12570 H 1165.25 1.11401 0.995499 0
M  V30 12571 H 1167.13 0.78144 4.14091 0
M  V30 12572 H 1165.81 -0.00155829 3.237 0
M  V30 12573 H 1164.71 2.29816 2.95187 0
M  V30 12574 H 1166.05 3.0081 3.89582 0
M  V30 12575 N 1167.7 -1.08142 1.14644 0
M  V30 12576 C 1168.63 -2.14476 0.779437 0
M  V30 12577 C 1169.61 -1.60812 -0.240454 0
M  V30 12578 O 1170.79 -1.88059 -0.128881 0
M  V30 12579 C 1167.92 -3.38333 0.157692 0
M  V30 12580 C 1166.97 -4.10754 1.14819 0
M  V30 12581 S 1167.8 -4.63227 2.68666 0
M  V30 12582 C 1168.96 -5.90367 2.07888 0
M  V30 12583 H 1169.19 -2.45276 1.68009 0
M  V30 12584 H 1166.72 -1.20292 0.967942 0
M  V30 12585 H 1168.68 -4.10038 -0.194607 0
M  V30 12586 H 1167.34 -3.05726 -0.720435 0
M  V30 12587 H 1166.53 -4.99644 0.661226 0
M  V30 12588 H 1166.14 -3.44974 1.44462 0
M  V30 12589 H 1168.43 -6.62107 1.43599 0
M  V30 12590 H 1169.37 -6.43764 2.94913 0
M  V30 12591 H 1169.78 -5.43507 1.52514 0
M  V30 12592 N 1169.18 -0.941978 -1.26351 0
M  V30 12593 C 1170.45 -0.507822 -1.88893 0
M  V30 12594 C 1170.83 1.0146 -1.85119 0
M  V30 12595 O 1170.18 1.87495 -1.30606 0
M  V30 12596 C 1170.39 -1.07007 -3.3219 0
M  V30 12597 C 1171.74 -1.13922 -4.09032 0
M  V30 12598 O 1172.76 -1.02072 -3.41262 0
M  V30 12599 O 1171.62 -1.32362 -5.30229 0
M  V30 12600 H 1168.72 -0.165621 -0.810246 0
M  V30 12601 H 1171.26 -1.03459 -1.34515 0
M  V30 12602 H 1170.04 -2.11366 -3.29302 0
M  V30 12603 H 1169.66 -0.525797 -3.94108 0
M  V30 12604 N 1170.66 1.40747 -0.709091 0
M  V30 12605 C 1172.07 1.83955 -0.318968 0
M  V30 12606 C 1172.42 1.59304 1.14527 0
M  V30 12607 O 1171.54 1.07052 1.88066 0
M  V30 12608 C 1172.14 3.33934 -0.572147 0
M  V30 12609 C 1170.7 3.75661 -0.235802 0
M  V30 12610 C 1169.84 2.64024 -0.847743 0
M  V30 12611 H 1172.79 1.30107 -0.908734 0
M  V30 12612 H 1172.82 3.80143 0.164752 0
M  V30 12613 H 1172.33 3.51844 -1.63791 0
M  V30 12614 H 1170.43 3.63348 0.825164 0
M  V30 12615 H 1170.54 4.73955 -0.700263 0
M  V30 12616 H 1168.91 2.53197 -0.276283 0
M  V30 12617 H 1169.69 2.84748 -1.91765 0
M  V30 12618 N 1172.13 0.454803 1.50895 0
M  V30 12619 C 1173.04 -0.353495 2.31921 0
M  V30 12620 C 1174.06 -1.01136 1.41589 0
M  V30 12621 O 1175.24 -1.00291 1.74653 0
M  V30 12622 C 1172.3 -1.43032 3.15821 0
M  V30 12623 C 1171.36 -0.790763 4.21954 0
M  V30 12624 C 1170.59 -1.81628 5.01843 0
M  V30 12625 O 1170.82 -3.04078 4.8259 0
M  V30 12626 O 1169.75 -1.39713 5.8546 0
M  V30 12627 H 1173.58 0.308463 3.02129 0
M  V30 12628 H 1171.16 0.216971 1.47816 0
M  V30 12629 H 1173.04 -2.05444 3.67927 0
M  V30 12630 H 1171.72 -2.07605 2.48358 0
M  V30 12631 H 1170.63 -0.128127 3.73881 0
M  V30 12632 H 1171.96 -0.188251 4.9184 0
M  V30 12633 N 1173.61 -1.56489 0.186789 0
M  V30 12634 C 1174.52 -2.22304 -0.749543 0
M  V30 12635 C 1175.54 -1.21949 -1.24115 0
M  V30 12636 O 1176.71 -1.5466 -1.29005 0
M  V30 12637 C 1173.78 -2.863 -1.95533 0
M  V30 12638 C 1172.84 -4.01901 -1.5091 0
M  V30 12639 C 1172.07 -4.62837 -2.6574 0
M  V30 12640 O 1172.3 -4.22681 -3.8301 0
M  V30 12641 O 1171.23 -5.52446 -2.38929 0
M  V30 12642 H 1175.06 -3.02909 -0.21908 0
M  V30 12643 H 1172.64 -1.49341 -0.0421249 0
M  V30 12644 H 1174.52 -3.2682 -2.6602 0
M  V30 12645 H 1173.2 -2.08681 -2.47455 0
M  V30 12646 H 1172.1 -3.66021 -0.773261 0
M  V30 12647 H 1173.44 -4.8116 -1.03663 0
M  V30 12648 N 1175.09 0.086862 -1.5736 0
M  V30 12649 C 1176.51 0.441284 -1.53378 0
M  V30 12650 C 1176.71 1.80046 -0.904748 0
M  V30 12651 O 1175.76 2.47484 -0.500781 0
M  V30 12652 C 1177.07 0.3962 -2.98078 0
M  V30 12653 C 1178.62 0.477468 -3.09337 0
M  V30 12654 C 1179.1 0.462448 -4.55659 0
M  V30 12655 N 1180.59 0.522963 -4.60238 0
M  V30 12656 C 1181.32 0.533313 -5.70914 0
M  V30 12657 N 1180.82 0.499376 -6.90998 0
M  V30 12658 N 1182.61 0.578742 -5.59113 0
M  V30 12659 H 1174.76 -0.803308 -1.96623 0
M  V30 12660 H 1177.03 -0.299879 -0.89932 0
M  V30 12661 H 1176.73 -0.535505 -3.47599 0
M  V30 12662 H 1176.61 1.21209 -3.57195 0
M  V30 12663 H 1178.99 1.39959 -2.59799 0
M  V30 12664 H 1179.07 -0.366717 -2.53158 0
M  V30 12665 H 1178.72 -0.455768 -5.05851 0
M  V30 12666 H 1178.65 1.32396 -5.09685 0
M  V30 12667 H 1181.14 0.554051 -3.73816 0
M  V30 12668 H 1181.45 0.510784 -7.7111 0
M  V30 12669 H 1179.8 0.466296 -6.93434 0
M  V30 12670 H 1182.99 0.602841 -4.64202 0
M  V30 12671 H 1183.16 0.583339 -6.45369 0
M  V30 12672 N 1176.57 1.53483 0.357892 0
M  V30 12673 C 1177.5 1.83444 1.44466 0
M  V30 12674 C 1178.48 0.688486 1.55544 0
M  V30 12675 O 1179.66 0.93906 1.69986 0
M  V30 12676 C 1176.79 2.03122 2.81707 0
M  V30 12677 C 1175.75 3.1891 2.85448 0
M  V30 12678 C 1175.07 3.23895 4.25436 0
M  V30 12679 C 1176.37 4.57334 2.52275 0
M  V30 12680 H 1178.07 2.74456 1.19642 0
M  V30 12681 H 1175.61 1.3206 0.574112 0
M  V30 12682 H 1177.57 2.22666 3.57768 0
M  V30 12683 H 1176.29 1.08827 3.07935 0
M  V30 12684 H 1174.95 2.99199 2.11838 0
M  V30 12685 H 1174.6 2.27223 4.48753 0
M  V30 12686 H 1174.3 4.01694 4.28854 0
M  V30 12687 H 1175.82 3.45632 5.0336 0
M  V30 12688 H 1177.24 4.76988 3.1805 0
M  V30 12689 H 1175.63 5.37431 2.66998 0
M  V30 12690 H 1176.7 4.61921 1.47501 0
M  V30 12691 N 1178.05 -0.61812 1.44973 0
M  V30 12692 C 1179.46 -0.937734 1.29146 0
M  V30 12693 C 1179.66 -2.00104 0.236749 0
M  V30 12694 O 1178.72 -2.49731 -0.372923 0
M  V30 12695 C 1180.03 -1.38865 2.66715 0
M  V30 12696 C 1181.58 -1.50343 2.74529 0
M  V30 12697 C 1182.05 -1.98814 4.12598 0
M  V30 12698 N 1183.54 -2.06064 4.14839 0
M  V30 12699 C 1184.28 -2.44768 5.18533 0
M  V30 12700 N 1183.78 -2.82516 6.32579 0
M  V30 12701 N 1185.57 -2.45016 5.05889 0
M  V30 12702 H 1177.72 0.084872 2.1223 0
M  V30 12703 H 1179.98 -0.0246744 0.947679 0
M  V30 12704 H 1179.69 -0.681583 3.45032 0
M  V30 12705 H 1179.56 -2.3572 2.94475 0
M  V30 12706 H 1181.95 -2.20144 1.96522 0
M  V30 12707 H 1182.03 -0.518297 2.50494 0
M  V30 12708 H 1181.67 -1.29604 4.91086 0
M  V30 12709 H 1181.6 -2.98223 4.34017 0
M  V30 12710 H 1184.1 -1.79525 3.32535 0
M  V30 12711 H 1184.41 -3.109 7.07504 0
M  V30 12712 H 1182.75 -2.80237 6.35997 0
M  V30 12713 H 1185.94 -2.14925 4.15842 0
M  V30 12714 H 1186.12 -2.74854 5.86821 0
M  V30 12715 N 1179.52 -1.32087 -0.859693 0
M  V30 12716 C 1180.77 -1.2236 -1.61351 0
M  V30 12717 C 1181.1 0.215796 -1.93299 0
M  V30 12718 O 1180.35 1.16742 -1.57066 0
M  V30 12719 C 1180.65 -2.0234 -2.94607 0
M  V30 12720 C 1180.32 -3.51746 -2.82109 0
M  V30 12721 C 1178.98 -3.92482 -2.78408 0
M  V30 12722 C 1181.33 -4.46776 -2.68403 0
M  V30 12723 C 1178.66 -5.265 -2.58873 0
M  V30 12724 C 1181.01 -5.80931 -2.50404 0
M  V30 12725 C 1179.68 -6.20875 -2.45092 0
M  V30 12726 H 1178.95 -0.447748 -0.590426 0
M  V30 12727 H 1181.59 -1.63461 -0.997637 0
M  V30 12728 H 1179.9 -1.53952 -3.60286 0
M  V30 12729 H 1181.6 -1.92187 -3.51945 0
M  V30 12730 H 1178.19 -3.19389 -2.85812 0
M  V30 12731 H 1182.37 -4.16228 -2.70311 0
M  V30 12732 H 1177.63 -5.5651 -2.53192 0
M  V30 12733 H 1181.8 -6.54185 -2.38777 0
M  V30 12734 H 1179.43 -7.24662 -2.29714 0
M  V30 12735 N 1181 1.07532 -1.15215 0
M  V30 12736 C 1181.96 2.1286 -0.84989 0
M  V30 12737 C 1182.96 1.60103 0.149524 0
M  V30 12738 O 1184.15 1.74017 -0.0798918 0
M  V30 12739 C 1181.29 3.3984 -0.268617 0
M  V30 12740 H 1182.48 2.41106 -1.78347 0
M  V30 12741 H 1180.03 1.23392 -0.959386 0
M  V30 12742 H 1180.77 3.17235 0.67325 0
M  V30 12743 H 1180.55 3.79433 -0.988592 0
M  V30 12744 H 1182.04 4.17533 -0.0746554 0
M  V30 12745 N 1182.48 0.948665 1.2585 0
M  V30 12746 C 1183.71 0.617229 1.97479 0
M  V30 12747 C 1184.12 -0.809406 1.7057 0
M  V30 12748 O 1183.48 -1.54066 0.97826 0
M  V30 12749 C 1183.53 0.859065 3.51144 0
M  V30 12750 O 1183.25 2.2296 3.77121 0
M  V30 12751 C 1184.75 0.539197 4.40009 0
M  V30 12752 H 1181.97 0.231933 0.629641 0
M  V30 12753 H 1184.52 1.27141 1.60173 0
M  V30 12754 H 1182.67 0.25138 3.86584 0
M  V30 12755 H 1183.09 2.29524 4.71613 0
M  V30 12756 H 1184.56 0.758986 5.46757 0
M  V30 12757 H 1185.04 -0.526062 4.36038 0
M  V30 12758 H 1185.64 1.12594 4.10125 0
M  V30 12759 N 1183.96 -1.40369 0.716545 0
M  V30 12760 C 1185.19 -2.05181 0.266143 0
M  V30 12761 C 1185.6 -1.53988 -1.09239 0
M  V30 12762 O 1184.96 -0.696859 -1.68672 0
M  V30 12763 C 1185.01 -3.60713 0.238384 0
M  V30 12764 O 1184.73 -4.10018 1.54328 0
M  V30 12765 C 1186.23 -4.42701 -0.230453 0
M  V30 12766 H 1183.45 -0.66028 0.119463 0
M  V30 12767 H 1186 -1.7976 0.97502 0
M  V30 12768 H 1184.15 -3.85101 -0.421466 0
M  V30 12769 H 1184.56 -5.0422 1.4444 0
M  V30 12770 H 1186.04 -5.51642 -0.198728 0
M  V30 12771 H 1186.52 -4.20354 -1.27276 0
M  V30 12772 H 1187.12 -4.23423 0.399155 0
M  V30 12773 N 1185.44 -0.462799 -1.50652 0
M  V30 12774 C 1186.85 -0.11648 -1.59174 0
M  V30 12775 C 1187.05 1.37638 -1.47167 0
M  V30 12776 O 1186.11 2.14886 -1.3259 0
M  V30 12777 C 1187.42 -0.659289 -2.93383 0
M  V30 12778 C 1188.97 -0.62198 -3.06758 0
M  V30 12779 C 1189.44 -1.14219 -4.43529 0
M  V30 12780 N 1190.94 -1.10125 -4.49919 0
M  V30 12781 C 1191.67 -1.47436 -5.54121 0
M  V30 12782 N 1191.17 -1.92156 -6.65618 0
M  V30 12783 N 1192.96 -1.39091 -5.44619 0
M  V30 12784 H 1185.11 -1.43383 -1.56701 0
M  V30 12785 H 1187.37 -0.592438 -0.740082 0
M  V30 12786 H 1187.08 -1.70477 -3.07621 0
M  V30 12787 H 1186.95 -0.0982388 -3.77072 0
M  V30 12788 H 1189.34 0.414576 -2.92173 0
M  V30 12789 H 1189.42 -1.21974 -2.24847 0
M  V30 12790 H 1189.07 -2.17734 -4.58862 0
M  V30 12791 H 1189 -0.52073 -5.24019 0
M  V30 12792 H 1191.49 -0.773154 -3.69906 0
M  V30 12793 H 1191.8 -2.18796 -7.4118 0
M  V30 12794 H 1190.14 -1.96103 -6.6676 0
M  V30 12795 H 1193.34 -1.04001 -4.564 0
M  V30 12796 H 1193.51 -1.68496 -6.2571 0
M  V30 12797 N 1186.91 1.56388 -0.195085 0
M  V30 12798 C 1187.86 2.15705 0.738595 0
M  V30 12799 C 1188.85 1.09782 1.1763 0
M  V30 12800 O 1190.04 1.35844 1.1347 0
M  V30 12801 C 1187.17 2.81994 1.95791 0
M  V30 12802 C 1186.26 3.95108 1.54111 0
M  V30 12803 N 1186.65 4.98856 0.835261 0
M  V30 12804 C 1184.94 4.06709 1.8304 0
M  V30 12805 C 1185.65 5.78317 0.626417 0
M  V30 12806 N 1184.62 5.30746 1.17513 0
M  V30 12807 H 1188.42 2.93281 0.190597 0
M  V30 12808 H 1185.94 1.62399 0.00470391 0
M  V30 12809 H 1187.93 3.22883 2.63728 0
M  V30 12810 H 1186.59 2.05906 2.51063 0
M  V30 12811 H 1187.61 5.1557 0.490732 0
M  V30 12812 H 1184.28 3.41749 2.39821 0
M  V30 12813 H 1185.67 6.71867 0.0664935 0
M  V30 12814 N 1188.39 -0.0785156 1.57404 0
M  V30 12815 C 1189.32 -1.09446 2.06262 0
M  V30 12816 C 1190.3 -1.40777 0.954772 0
M  V30 12817 O 1191.49 -1.5052 1.22708 0
M  V30 12818 C 1188.62 -2.40979 2.50093 0
M  V30 12819 C 1187.57 -2.24017 3.64692 0
M  V30 12820 C 1186.9 -3.60873 3.94556 0
M  V30 12821 C 1188.2 -1.66696 4.94985 0
M  V30 12822 H 1189.89 -0.687928 2.9139 0
M  V30 12823 H 1187.44 -0.329466 1.4018 0
M  V30 12824 H 1189.39 -3.12337 2.82884 0
M  V30 12825 H 1188.12 -2.83599 1.61985 0
M  V30 12826 H 1186.77 -1.55101 3.32174 0
M  V30 12827 H 1186.42 -4.01051 3.0359 0
M  V30 12828 H 1186.12 -3.50365 4.71718 0
M  V30 12829 H 1187.65 -4.33673 4.29837 0
M  V30 12830 H 1189.06 -2.27913 5.2605 0
M  V30 12831 H 1187.46 -1.66902 5.76423 0
M  V30 12832 H 1188.53 -0.627827 4.80818 0
M  V30 12833 N 1189.87 -1.5367 -0.349747 0
M  V30 12834 C 1191.29 -1.43796 -0.692457 0
M  V30 12835 C 1191.49 -0.58972 -1.92677 0
M  V30 12836 O 1190.54 -0.078294 -2.52379 0
M  V30 12837 C 1191.86 -2.872 -0.890881 0
M  V30 12838 C 1193.4 -2.96935 -0.989892 0
M  V30 12839 C 1193.88 -4.41433 -1.22068 0
M  V30 12840 N 1195.37 -4.44932 -1.28802 0
M  V30 12841 C 1196.1 -5.53864 -1.48398 0
M  V30 12842 N 1195.6 -6.72814 -1.65208 0
M  V30 12843 N 1197.39 -5.41467 -1.50896 0
M  V30 12844 H 1189.54 -2.07317 0.461895 0
M  V30 12845 H 1191.81 -0.936895 0.144681 0
M  V30 12846 H 1191.51 -3.51656 -0.0555095 0
M  V30 12847 H 1191.39 -3.31784 -1.79442 0
M  V30 12848 H 1193.77 -2.32622 -1.81579 0
M  V30 12849 H 1193.86 -2.55721 -0.0633906 0
M  V30 12850 H 1193.5 -5.06325 -0.399729 0
M  V30 12851 H 1193.43 -4.80233 -2.16064 0
M  V30 12852 H 1195.92 -3.59214 -1.17361 0
M  V30 12853 H 1196.23 -7.51598 -1.79779 0
M  V30 12854 H 1194.58 -6.7577 -1.62356 0
M  V30 12855 H 1197.77 -4.47498 -1.37342 0
M  V30 12856 H 1197.94 -6.26423 -1.65826 0
M  V30 12857 N 1191.35 0.610423 -1.45298 0
M  V30 12858 C 1192.76 1.19234 -1.43667 0
M  V30 12859 C 1193.11 1.95523 -0.162794 0
M  V30 12860 O 1192.24 2.03507 0.735789 0
M  V30 12861 C 1192.83 2.16892 -2.60276 0
M  V30 12862 C 1191.39 2.70465 -2.61774 0
M  V30 12863 C 1190.54 1.45821 -2.35863 0
M  V30 12864 H 1193.49 0.399895 -1.53579 0
M  V30 12865 H 1193.51 2.99875 -2.34212 0
M  V30 12866 H 1193.02 1.61339 -3.52975 0
M  V30 12867 H 1191.12 3.29965 -1.73072 0
M  V30 12868 H 1191.23 3.15092 -3.60907 0
M  V30 12869 H 1189.6 1.74678 -1.85364 0
M  V30 12870 H 1190.38 0.921403 -3.30704 0
M  V30 12871 N 1192.83 1.32541 0.852676 0
M  V30 12872 C 1194.1 1.1383 1.59067 0
M  V30 12873 C 1194.48 -0.300584 2.08949 0
M  V30 12874 O 1193.83 -1.29751 1.88088 0
M  V30 12875 C 1194.04 2.16758 2.73527 0
M  V30 12876 C 1195.39 2.50194 3.43057 0
M  V30 12877 O 1196.41 2.15319 2.83754 0
M  V30 12878 O 1195.27 3.09985 4.50079 0
M  V30 12879 H 1192.37 0.439379 0.700625 0
M  V30 12880 H 1194.91 1.44078 0.896632 0
M  V30 12881 H 1193.68 3.13469 2.34207 0
M  V30 12882 H 1193.31 1.87515 3.50605 0
M  V30 12883 N 1194.3 -1.0692 1.15784 0
M  V30 12884 C 1195.24 -2.13637 0.802141 0
M  V30 12885 C 1196.22 -1.61058 -0.223384 0
M  V30 12886 O 1197.4 -1.88185 -0.108927 0
M  V30 12887 C 1194.53 -3.38146 0.193568 0
M  V30 12888 C 1193.57 -4.09513 1.19169 0
M  V30 12889 S 1194.41 -4.60351 2.73564 0
M  V30 12890 C 1195.56 -5.88129 2.14138 0
M  V30 12891 H 1195.79 -2.4348 1.70601 0
M  V30 12892 H 1193.33 -1.19259 0.980646 0
M  V30 12893 H 1195.29 -4.10222 -0.151106 0
M  V30 12894 H 1193.95 -3.06473 -0.687968 0
M  V30 12895 H 1193.14 -4.98914 0.714183 0
M  V30 12896 H 1192.74 -3.43422 1.48113 0
M  V30 12897 H 1195.03 -6.60547 1.50614 0
M  V30 12898 H 1195.98 -6.406 3.01724 0
M  V30 12899 H 1196.38 -5.41859 1.5827 0
M  V30 12900 N 1195.78 -0.955326 -1.25345 0
M  V30 12901 C 1196.73 -0.474888 -2.25862 0
M  V30 12902 C 1197.7 0.472996 -1.59223 0
M  V30 12903 O 1198.88 0.386094 -1.86853 0
M  V30 12904 C 1196.02 0.240554 -3.44261 0
M  V30 12905 C 1195.14 -0.74465 -4.25534 0
M  V30 12906 C 1194.27 -0.00657513 -5.312 0
M  V30 12907 C 1193.31 -0.982666 -6.04161 0
M  V30 12908 N 1192.45 -0.275418 -7.0156 0
M  V30 12909 H 1197.29 -1.33693 -2.66327 0
M  V30 12910 H 1194.83 -0.670439 -1.30933 0
M  V30 12911 H 1196.78 0.671933 -4.11753 0
M  V30 12912 H 1195.41 1.06664 -3.04668 0
M  V30 12913 H 1194.47 -1.29451 -3.57696 0
M  V30 12914 H 1195.78 -1.48948 -4.76042 0
M  V30 12915 H 1194.93 0.483404 -6.04771 0
M  V30 12916 H 1193.67 0.771035 -4.81567 0
M  V30 12917 H 1192.68 -1.48364 -5.29404 0
M  V30 12918 H 1193.9 -1.76052 -6.55883 0
M  V30 12919 H 1191.85 0.483441 -6.54216 0
M  V30 12920 H 1191.76 -0.959324 -7.49889 0
M  V30 12921 H 1193.03 0.193002 -7.79261 0
M  V30 12922 N 1197.26 1.39987 -0.723979 0
M  V30 12923 C 1198.49 2.05037 -0.27702 0
M  V30 12924 C 1198.9 1.54565 1.08421 0
M  V30 12925 O 1198.26 0.705795 1.683 0
M  V30 12926 C 1198.31 3.60582 -0.25751 0
M  V30 12927 O 1198.03 4.09194 -1.565 0
M  V30 12928 C 1199.53 4.42817 0.206972 0
M  V30 12929 H 1196.75 0.659637 -0.122963 0
M  V30 12930 H 1199.3 1.7924 -0.98454 0
M  V30 12931 H 1197.45 3.85319 0.401037 0
M  V30 12932 H 1197.87 5.03447 -1.47112 0
M  V30 12933 H 1199.34 5.5174 0.16947 0
M  V30 12934 H 1199.82 4.21023 1.25045 0
M  V30 12935 H 1200.42 4.23205 -0.421604 0
M  V30 12936 N 1198.74 0.470782 1.50404 0
M  V30 12937 C 1199.69 -0.342183 2.25418 0
M  V30 12938 C 1200.67 -0.961726 1.28995 0
M  V30 12939 O 1201.87 -0.874327 1.53898 0
M  V30 12940 C 1198.99 -1.42378 3.12383 0
M  V30 12941 C 1198.08 -0.811982 4.16254 0
M  V30 12942 N 1198.47 0.0675245 5.05755 0
M  V30 12943 C 1196.77 -1.07596 4.32827 0
M  V30 12944 C 1197.47 0.414693 5.8022 0
M  V30 12945 N 1196.45 -0.210047 5.43194 0
M  V30 12946 H 1200.25 0.335344 2.91981 0
M  V30 12947 H 1197.76 0.284911 1.59881 0
M  V30 12948 H 1199.76 -2.01936 3.64729 0
M  V30 12949 H 1198.42 -2.1033 2.47369 0
M  V30 12950 H 1199.43 0.436333 5.16059 0
M  V30 12951 H 1196.11 -1.75048 3.79031 0
M  V30 12952 H 1197.5 1.13243 6.62288 0
M  V30 12953 N 1200.22 -1.56282 0.203376 0
M  V30 12954 C 1201.15 -2.2247 -0.709183 0
M  V30 12955 C 1202.13 -1.19046 -1.21499 0
M  V30 12956 O 1203.31 -1.47578 -1.26231 0
M  V30 12957 C 1200.44 -2.8905 -1.92529 0
M  V30 12958 C 1199.4 -3.98789 -1.55407 0
M  V30 12959 C 1198.72 -4.52574 -2.84747 0
M  V30 12960 C 1200.02 -5.16774 -0.75775 0
M  V30 12961 H 1201.72 -2.98986 -0.157392 0
M  V30 12962 H 1199.26 -1.43808 -0.0742613 0
M  V30 12963 H 1201.22 -3.34038 -2.56898 0
M  V30 12964 H 1199.94 -2.09952 -2.50175 0
M  V30 12965 H 1198.6 -3.54504 -0.933928 0
M  V30 12966 H 1198.25 -3.70229 -3.40499 0
M  V30 12967 H 1197.95 -5.26627 -2.6065 0
M  V30 12968 H 1199.47 -5.00269 -3.5009 0
M  V30 12969 H 1200.89 -5.58256 -1.30472 0
M  V30 12970 H 1199.28 -5.96945 -0.614583 0
M  V30 12971 H 1200.35 -4.84308 0.239476 0
M  V30 12972 N 1201.7 0.070167 -1.57444 0
M  V30 12973 C 1202.97 0.802108 -1.78397 0
M  V30 12974 C 1203.35 1.95706 -0.791356 0
M  V30 12975 O 1202.7 2.27827 0.17518 0
M  V30 12976 C 1202.91 1.27354 -3.24934 0
M  V30 12977 C 1204.26 1.70626 -3.88808 0
M  V30 12978 O 1205.28 1.36916 -3.28835 0
M  V30 12979 O 1204.14 2.33041 -4.94322 0
M  V30 12980 H 1201.24 0.384483 -0.73219 0
M  V30 12981 H 1203.78 0.0501168 -1.69626 0
M  V30 12982 H 1202.55 0.447204 -3.88736 0
M  V30 12983 H 1202.18 2.0868 -3.38435 0
M  V30 12984 N 1203.17 1.53854 0.341593 0
M  V30 12985 C 1204.59 1.44161 0.684821 0
M  V30 12986 C 1204.79 0.599929 1.92362 0
M  V30 12987 O 1203.85 0.0916771 2.52334 0
M  V30 12988 C 1205.16 2.87668 0.875637 0
M  V30 12989 C 1206.71 2.97455 0.974131 0
M  V30 12990 C 1207.18 4.42075 1.19725 0
M  V30 12991 N 1208.67 4.45609 1.2644 0
M  V30 12992 C 1209.41 5.54643 1.45459 0
M  V30 12993 N 1208.9 6.7368 1.61637 0
M  V30 12994 N 1210.7 5.4226 1.48022 0
M  V30 12995 H 1202.85 2.07069 -0.472883 0
M  V30 12996 H 1205.11 0.936114 -0.149648 0
M  V30 12997 H 1204.82 3.51681 0.0368595 0
M  V30 12998 H 1204.69 3.32731 1.7768 0
M  V30 12999 H 1207.08 2.33582 1.80343 0
M  V30 13000 H 1207.16 2.55751 0.0498282 0
M  V30 13001 H 1206.8 5.06529 0.372872 0
M  V30 13002 H 1206.73 4.81372 2.13515 0
M  V30 13003 H 1209.22 3.59831 1.15455 0
M  V30 13004 H 1209.54 7.52541 1.7579 0
M  V30 13005 H 1207.88 6.76622 1.5877 0
M  V30 13006 H 1211.07 4.48221 1.34966 0
M  V30 13007 H 1211.25 6.27293 1.62502 0
M  V30 13008 N 1204.65 -0.602709 1.4562 0
M  V30 13009 C 1206.06 -1.1847 1.44297 0
M  V30 13010 C 1206.41 -1.95434 0.17316 0
M  V30 13011 O 1205.54 -2.03894 -0.724986 0
M  V30 13012 C 1206.13 -2.15508 2.61422 0
M  V30 13013 C 1204.69 -2.69073 2.63204 0
M  V30 13014 C 1203.84 -1.44568 2.36633 0
M  V30 13015 H 1206.79 -0.391745 1.53789 0
M  V30 13016 H 1206.81 -2.98628 2.35799 0
M  V30 13017 H 1206.32 -1.59464 3.53826 0
M  V30 13018 H 1204.42 -3.29042 1.7482 0
M  V30 13019 H 1204.54 -3.13173 3.62573 0
M  V30 13020 H 1202.9 -1.73692 1.86287 0
M  V30 13021 H 1203.68 -0.903852 3.31188 0
M  V30 13022 N 1206.13 -1.32992 -0.845635 0
M  V30 13023 C 1207.06 -1.25301 -1.97033 0
M  V30 13024 C 1208.04 -0.134966 -1.69564 0
M  V30 13025 O 1209.23 -0.323629 -1.91484 0
M  V30 13026 C 1206.36 -0.984551 -3.33052 0
M  V30 13027 C 1205.31 -2.06481 -3.749 0
M  V30 13028 C 1204.64 -1.6486 -5.08651 0
M  V30 13029 C 1205.94 -3.48083 -3.89404 0
M  V30 13030 H 1207.63 -2.194 -2.03725 0
M  V30 13031 H 1205.18 -1.05621 -0.978783 0
M  V30 13032 H 1207.13 -0.917269 -4.11296 0
M  V30 13033 H 1205.85 -0.00793116 -3.26599 0
M  V30 13034 H 1204.51 -2.1224 -2.98915 0
M  V30 13035 H 1204.16 -0.659183 -4.98662 0
M  V30 13036 H 1203.86 -2.37145 -5.37621 0
M  V30 13037 H 1205.38 -1.59585 -5.89377 0
M  V30 13038 H 1206.8 -3.44863 -4.57976 0
M  V30 13039 H 1205.19 -4.18796 -4.29802 0
M  V30 13040 H 1206.26 -3.87084 -2.92051 0
M  V30 13041 N 1207.61 1.06304 -1.1635 0
M  V30 13042 C 1208.85 1.79366 -0.94634 0
M  V30 13043 C 1209.19 1.86981 0.524569 0
M  V30 13044 O 1208.46 1.36134 1.38917 0
M  V30 13045 C 1208.74 3.23861 -1.57436 0
M  V30 13046 C 1208.6 3.24327 -3.1166 0
M  V30 13047 C 1209.92 4.21409 -1.26895 0
M  V30 13048 H 1207.04 0.65115 -0.345215 0
M  V30 13049 H 1209.68 1.24325 -1.43678 0
M  V30 13050 H 1207.83 3.70862 -1.15731 0
M  V30 13051 H 1209.5 2.85488 -3.62346 0
M  V30 13052 H 1207.74 2.62983 -3.44997 0
M  V30 13053 H 1208.41 4.2626 -3.50723 0
M  V30 13054 H 1210.89 3.8285 -1.62989 0
M  V30 13055 H 1209.77 5.20778 -1.73439 0
M  V30 13056 H 1210.03 4.41701 -0.187768 0
M  V30 13057 N 1209.09 0.96196 1.24836 0
M  V30 13058 C 1210.33 0.621634 1.93038 0
M  V30 13059 C 1210.66 -0.840257 1.75081 0
M  V30 13060 O 1209.94 -1.60381 1.10038 0
M  V30 13061 C 1210.22 0.990107 3.46221 0
M  V30 13062 C 1210.08 2.50827 3.73371 0
M  V30 13063 C 1211.39 0.520478 4.37011 0
M  V30 13064 H 1208.51 0.227312 0.701069 0
M  V30 13065 H 1211.16 1.19993 1.47315 0
M  V30 13066 H 1209.31 0.498008 3.85295 0
M  V30 13067 H 1210.98 3.07469 3.4389 0
M  V30 13068 H 1209.22 2.94277 3.18722 0
M  V30 13069 H 1209.89 2.71659 4.80526 0
M  V30 13070 H 1212.37 0.942703 4.05281 0
M  V30 13071 H 1211.24 0.806918 5.42937 0
M  V30 13072 H 1211.5 -0.579507 4.38285 0
M  V30 13073 N 1210.56 -1.39601 0.731392 0
M  V30 13074 C 1211.47 -2.34425 0.090527 0
M  V30 13075 C 1212.49 -1.58131 -0.725992 0
M  V30 13076 O 1213.67 -1.90441 -0.655294 0
M  V30 13077 C 1210.73 -3.37138 -0.808624 0
M  V30 13078 C 1209.79 -4.29295 0.0197365 0
M  V30 13079 C 1209.02 -5.27102 -0.836593 0
M  V30 13080 O 1209.25 -5.31302 -2.07543 0
M  V30 13081 O 1208.18 -6.01307 -0.267172 0
M  V30 13082 H 1212.01 -2.9088 0.873084 0
M  V30 13083 H 1209.59 -1.41066 0.492024 0
M  V30 13084 H 1211.47 -4.00087 -1.32319 0
M  V30 13085 H 1210.15 -2.83074 -1.57006 0
M  V30 13086 H 1209.06 -3.69581 0.579744 0
M  V30 13087 H 1210.39 -4.86555 0.743308 0
M  V30 13088 N 1212.04 -0.478751 -1.50152 0
M  V30 13089 C 1212.97 0.301182 -2.31549 0
M  V30 13090 C 1213.95 0.983276 -1.38801 0
M  V30 13091 O 1215.14 0.978973 -1.67719 0
M  V30 13092 C 1212.27 1.3791 -3.18745 0
M  V30 13093 C 1211.22 0.818175 -4.20107 0
M  V30 13094 C 1210.55 1.99496 -4.9609 0
M  V30 13095 C 1211.85 -0.17574 -5.22004 0
M  V30 13096 H 1213.54 -0.378188 -2.97002 0
M  V30 13097 H 1211.09 -0.183323 -1.42828 0
M  V30 13098 H 1213.04 1.93227 -3.74488 0
M  V30 13099 H 1211.77 2.08735 -2.51192 0
M  V30 13100 H 1210.42 0.286924 -3.65475 0
M  V30 13101 H 1210.07 2.69036 -4.25004 0
M  V30 13102 H 1209.77 1.62582 -5.6466 0
M  V30 13103 H 1211.3 2.55288 -5.54671 0
M  V30 13104 H 1212.71 0.288513 -5.72574 0
M  V30 13105 H 1211.11 -0.459549 -5.98338 0
M  V30 13106 H 1212.18 -1.09911 -4.72279 0
M  V30 13107 N 1213.52 1.56172 -0.211661 0
M  V30 13108 C 1214.77 1.97648 0.421871 0
M  V30 13109 C 1215.09 1.10026 1.60995 0
M  V30 13110 O 1214.36 0.175109 1.95116 0
M  V30 13111 H 1212.94 0.729914 0.158852 0
M  V30 13112 H 1215.6 1.92542 -0.302254 0
M  V30 13113 H 1214.7 3.02834 0.754868 0
M  V30 13114 N 1215 -0.0618163 1.57479 0
M  V30 13115 C 1216.41 -0.416827 1.54061 0
M  V30 13116 C 1216.61 -1.78584 0.933277 0
M  V30 13117 O 1215.67 -2.46656 0.54009 0
M  V30 13118 C 1216.98 -0.348728 2.98671 0
M  V30 13119 C 1218.53 -0.428194 3.10057 0
M  V30 13120 C 1219.01 -0.389898 4.56337 0
M  V30 13121 N 1220.5 -0.449677 4.61012 0
M  V30 13122 C 1221.23 -0.442418 5.71691 0
M  V30 13123 N 1220.73 -0.389381 6.91705 0
M  V30 13124 N 1222.52 -0.489719 5.59963 0
M  V30 13125 H 1214.67 0.834487 1.9532 0
M  V30 13126 H 1216.94 0.314149 0.894435 0
M  V30 13127 H 1216.64 0.590738 3.46703 0
M  V30 13128 H 1216.52 -1.15511 3.59078 0
M  V30 13129 H 1218.9 -1.35808 2.61992 0
M  V30 13130 H 1218.98 0.406946 2.52542 0
M  V30 13131 H 1218.63 0.536186 5.05062 0
M  V30 13132 H 1218.56 -1.24271 5.11727 0
M  V30 13133 H 1221.05 -0.49451 3.74651 0
M  V30 13134 H 1221.36 -0.388042 7.71825 0
M  V30 13135 H 1219.71 -0.355918 6.94088 0
M  V30 13136 H 1222.9 -0.528915 4.65102 0
M  V30 13137 H 1223.07 -0.480592 6.46215 0
M  V30 13138 N 1216.48 -1.54033 -0.333429 0
M  V30 13139 C 1217.75 -1.62404 -1.09015 0
M  V30 13140 C 1218.13 -0.451653 -2.06212 0
M  V30 13141 O 1217.48 0.555086 -2.21655 0
M  V30 13142 C 1217.69 -2.98949 -1.80085 0
M  V30 13143 C 1219.04 -3.54655 -2.33464 0
M  V30 13144 O 1220.06 -3.0119 -1.90166 0
M  V30 13145 O 1218.92 -4.48195 -3.12703 0
M  V30 13146 H 1216.02 -0.65727 -0.501921 0
M  V30 13147 H 1218.56 -1.66378 -0.33411 0
M  V30 13148 H 1217.33 -3.75716 -1.09332 0
M  V30 13149 H 1216.96 -2.98609 -2.62523 0
M  V30 13150 N 1217.95 0.594978 -1.45938 0
M  V30 13151 C 1219.2 1.35093 -1.50314 0
M  V30 13152 C 1219.52 1.94412 -0.151315 0
M  V30 13153 O 1218.79 1.77876 0.820787 0
M  V30 13154 H 1217.37 0.501549 -0.553586 0
M  V30 13155 H 1220.04 0.697735 -1.81983 0
M  V30 13156 H 1219.13 2.16393 -2.24901 0
M  V30 13157 N 1219.43 1.33438 0.838571 0
M  V30 13158 C 1220.4 1.23632 1.92997 0
M  V30 13159 C 1221.4 0.155302 1.60048 0
M  V30 13160 O 1222.59 0.406852 1.69382 0
M  V30 13161 C 1219.72 0.90512 3.28665 0
M  V30 13162 H 1220.91 2.20643 2.03117 0
M  V30 13163 H 1218.46 1.17501 1.03069 0
M  V30 13164 H 1219.2 -0.0624833 3.2424 0
M  V30 13165 H 1218.98 1.68688 3.53959 0
M  V30 13166 H 1220.47 0.861262 4.08622 0
M  V30 13167 N 1220.91 -1.05686 1.16912 0
M  V30 13168 C 1222.33 -1.30744 0.915327 0
M  V30 13169 C 1222.53 -1.96895 -0.428344 0
M  V30 13170 O 1221.58 -2.23941 -1.16647 0
M  V30 13171 C 1222.9 -2.18209 2.06894 0
M  V30 13172 C 1224.44 -2.31607 2.1054 0
M  V30 13173 C 1224.92 -3.2243 3.25273 0
M  V30 13174 N 1226.41 -3.30015 3.2503 0
M  V30 13175 C 1227.14 -4.00401 4.10447 0
M  V30 13176 N 1226.64 -4.73256 5.05965 0
M  V30 13177 N 1228.43 -3.96514 3.98413 0
M  V30 13178 H 1220.58 -0.611449 2.03409 0
M  V30 13179 H 1222.85 -0.332188 0.887894 0
M  V30 13180 H 1222.55 -1.76887 3.0398 0
M  V30 13181 H 1222.43 -3.18823 2.01573 0
M  V30 13182 H 1224.81 -2.72173 1.14044 0
M  V30 13183 H 1224.9 -1.30639 2.19925 0
M  V30 13184 H 1224.54 -2.82579 4.22032 0
M  V30 13185 H 1224.47 -4.23392 3.13125 0
M  V30 13186 H 1226.96 -2.781 2.55869 0
M  V30 13187 H 1227.27 -5.24509 5.67547 0
M  V30 13188 H 1225.62 -4.72215 5.09939 0
M  V30 13189 H 1228.81 -3.38719 3.2309 0
M  V30 13190 H 1228.98 -4.511 4.65202 0
M  V30 13191 N 1222.39 -0.968567 -1.24324 0
M  V30 13192 C 1223.64 -0.629682 -1.9204 0
M  V30 13193 C 1223.96 0.837906 -1.7608 0
M  V30 13194 O 1223.23 1.5982 -1.13289 0
M  V30 13195 H 1221.81 -0.229901 -0.710742 0
M  V30 13196 H 1224.47 -1.22982 -1.512 0
M  V30 13197 H 1223.57 -0.871034 -2.99699 0
M  V30 13198 N 1223.87 1.39211 -0.738786 0
M  V30 13199 C 1225.28 1.83237 -0.357916 0
M  V30 13200 C 1225.63 1.61698 1.11123 0
M  V30 13201 O 1224.75 1.11017 1.85753 0
M  V30 13202 C 1225.35 3.32645 -0.64285 0
M  V30 13203 C 1223.91 3.75076 -0.315432 0
M  V30 13204 C 1223.05 2.62166 -0.903556 0
M  V30 13205 H 1226.01 1.2815 -0.936127 0
M  V30 13206 H 1226.03 3.80407 0.0840812 0
M  V30 13207 H 1225.54 3.4829 -1.71218 0
M  V30 13208 H 1223.64 3.65017 0.747907 0
M  V30 13209 H 1223.75 4.72363 -0.800638 0
M  V30 13210 H 1222.12 2.52554 -0.329927 0
M  V30 13211 H 1222.9 2.80616 -1.97761 0
M  V30 13212 N 1225.34 0.486708 1.49896 0
M  V30 13213 C 1226.59 -0.0629451 2.02702 0
M  V30 13214 C 1226.92 -1.37956 1.36681 0
M  V30 13215 O 1226.2 -1.88025 0.497678 0
M  V30 13216 C 1226.48 -0.230461 3.59362 0
M  V30 13217 C 1226.33 1.10828 4.35933 0
M  V30 13218 C 1227.65 -0.977785 4.29101 0
M  V30 13219 H 1224.77 -0.0214017 0.736689 0
M  V30 13220 H 1227.41 0.635339 1.79063 0
M  V30 13221 H 1225.56 -0.825222 3.79634 0
M  V30 13222 H 1227.24 1.74082 4.27192 0
M  V30 13223 H 1225.48 1.7011 3.99055 0
M  V30 13224 H 1226.15 0.944532 5.43859 0
M  V30 13225 H 1228.63 -0.473505 4.13397 0
M  V30 13226 H 1227.5 -1.06382 5.38492 0
M  V30 13227 H 1227.76 -2.01813 3.9335 0
M  V30 13228 N 1226.82 -1.56058 0.219941 0
M  V30 13229 C 1228.07 -1.97869 -0.411383 0
M  V30 13230 C 1228.39 -1.10878 -1.60409 0
M  V30 13231 O 1227.66 -0.185454 -1.9502 0
M  V30 13232 H 1226.24 -0.730747 -0.154979 0
M  V30 13233 H 1228.9 -1.92379 0.312461 0
M  V30 13234 H 1228 -3.0323 -0.738798 0
M  V30 13235 N 1228.3 0.053464 -1.57509 0
M  V30 13236 C 1229.55 0.747622 -1.87763 0
M  V30 13237 C 1229.87 1.77178 -0.814433 0
M  V30 13238 O 1229.14 1.95287 0.154862 0
M  V30 13239 H 1227.72 0.279109 -0.692898 0
M  V30 13240 H 1230.38 0.0252006 -1.94884 0
M  V30 13241 H 1229.48 1.25244 -2.85868 0
M  V30 13242 N 1229.78 1.54207 0.325255 0
M  V30 13243 C 1230.73 1.83474 1.40021 0
M  V30 13244 C 1231.7 0.681719 1.51466 0
M  V30 13245 O 1232.88 0.92798 1.66713 0
M  V30 13246 C 1230.02 2.06624 2.76407 0
M  V30 13247 C 1229.13 3.3431 2.73607 0
M  V30 13248 C 1228.27 3.4743 4.01828 0
M  V30 13249 C 1227.31 4.68997 3.93329 0
M  V30 13250 N 1226.45 4.79052 5.13277 0
M  V30 13251 H 1231.29 2.75182 1.14363 0
M  V30 13252 H 1228.82 1.36284 0.553639 0
M  V30 13253 H 1230.78 2.18037 3.5569 0
M  V30 13254 H 1229.41 1.18209 3.00377 0
M  V30 13255 H 1228.46 3.31643 1.86324 0
M  V30 13256 H 1229.77 4.237 2.6321 0
M  V30 13257 H 1228.93 3.58376 4.89542 0
M  V30 13258 H 1227.67 2.56128 4.1503 0
M  V30 13259 H 1226.67 4.58109 3.04 0
M  V30 13260 H 1227.9 5.61681 3.81695 0
M  V30 13261 H 1225.84 3.90666 5.26988 0
M  V30 13262 H 1225.76 5.62406 5.05208 0
M  V30 13263 H 1227.03 4.94328 6.02711 0
M  V30 13264 N 1231.26 -0.58723 1.46251 0
M  V30 13265 C 1232.22 -1.67863 1.5606 0
M  V30 13266 C 1233.22 -1.54715 0.438162 0
M  V30 13267 O 1234.41 -1.59415 0.702323 0
M  V30 13268 C 1231.54 -3.07262 1.47659 0
M  V30 13269 H 1232.74 -1.60525 2.53321 0
M  V30 13270 H 1230.29 -0.804691 1.33994 0
M  V30 13271 H 1231.02 -3.20159 0.5166 0
M  V30 13272 H 1230.81 -3.18213 2.29092 0
M  V30 13273 H 1232.3 -3.8672 1.57599 0
M  V30 13274 N 1232.74 -1.33881 -0.831482 0
M  V30 13275 C 1234.15 -1.13376 -1.1233 0
M  V30 13276 C 1234.35 0.0704402 -2.01377 0
M  V30 13277 O 1233.41 0.748516 -2.4115 0
M  V30 13278 C 1234.72 -2.42484 -1.77826 0
M  V30 13279 C 1236.27 -2.4846 -1.90359 0
M  V30 13280 C 1236.74 -3.77548 -2.59272 0
M  V30 13281 N 1238.23 -3.7866 -2.66778 0
M  V30 13282 C 1238.97 -4.75258 -3.20807 0
M  V30 13283 N 1238.47 -5.82234 -3.75466 0
M  V30 13284 N 1240.26 -4.62724 -3.19128 0
M  V30 13285 H 1232.41 -2.11051 -0.238998 0
M  V30 13286 H 1234.67 -0.932893 -0.168565 0
M  V30 13287 H 1234.38 -3.30647 -1.19857 0
M  V30 13288 H 1234.25 -2.55186 -2.77777 0
M  V30 13289 H 1236.64 -1.60742 -2.47479 0
M  V30 13290 H 1236.72 -2.39693 -0.893359 0
M  V30 13291 H 1236.36 -4.65651 -2.02808 0
M  V30 13292 H 1236.29 -3.83594 -3.60781 0
M  V30 13293 H 1238.79 -3.01351 -2.28026 0
M  V30 13294 H 1239.1 -6.51968 -4.14918 0
M  V30 13295 H 1237.44 -5.85959 -3.73733 0
M  V30 13296 H 1240.63 -3.78303 -2.75688 0
M  V30 13297 H 1240.81 -5.38175 -3.60932 0
M  V30 13298 N 1234.21 1.05064 -1.1747 0
M  V30 13299 C 1235.62 1.59547 -0.969628 0
M  V30 13300 C 1235.98 1.90153 0.483332 0
M  V30 13301 O 1235.1 1.68415 1.35887 0
M  V30 13302 C 1235.7 2.89877 -1.75377 0
M  V30 13303 C 1234.25 3.41013 -1.59332 0
M  V30 13304 C 1233.4 2.1473 -1.7546 0
M  V30 13305 H 1236.35 0.878595 -1.3216 0
M  V30 13306 H 1236.37 3.59834 -1.23691 0
M  V30 13307 H 1235.89 2.67569 -2.8112 0
M  V30 13308 H 1233.99 3.68355 -0.560827 0
M  V30 13309 H 1234.1 4.15512 -2.38509 0
M  V30 13310 H 1232.46 2.25553 -1.18313 0
M  V30 13311 H 1233.25 1.9489 -2.82618 0
M  V30 13312 N 1235.69 0.975146 1.23809 0
M  V30 13313 C 1236.6 0.51917 2.28783 0
M  V30 13314 C 1237.62 -0.423487 1.68768 0
M  V30 13315 O 1238.79 -0.294699 1.99232 0
M  V30 13316 C 1235.86 -0.176229 3.46252 0
M  V30 13317 C 1234.92 0.807177 4.21643 0
M  V30 13318 C 1234.15 0.144869 5.33503 0
M  V30 13319 O 1234.38 -1.06522 5.60365 0
M  V30 13320 O 1233.31 0.84079 5.95999 0
M  V30 13321 H 1237.14 1.39204 2.69919 0
M  V30 13322 H 1234.72 0.74253 1.29641 0
M  V30 13323 H 1236.6 -0.566547 4.17574 0
M  V30 13324 H 1235.28 -1.02394 3.07078 0
M  V30 13325 H 1234.18 1.2481 3.52666 0
M  V30 13326 H 1235.52 1.62354 4.64653 0
M  V30 13327 N 1237.17 -1.38817 0.746158 0
M  V30 13328 C 1238.13 -2.28876 0.121886 0
M  V30 13329 C 1239.13 -1.46838 -0.655379 0
M  V30 13330 O 1240.32 -1.67377 -0.482744 0
M  V30 13331 C 1237.45 -3.30487 -0.836118 0
M  V30 13332 H 1238.65 -2.85586 0.915453 0
M  V30 13333 H 1236.2 -1.47652 0.512691 0
M  V30 13334 H 1236.94 -2.78853 -1.65563 0
M  V30 13335 H 1236.72 -3.9109 -0.281271 0
M  V30 13336 H 1238.21 -3.97848 -1.26914 0
M  V30 13337 N 1238.65 -0.49465 -1.49636 0
M  V30 13338 C 1239.61 0.276064 -2.27531 0
M  V30 13339 C 1240.61 0.899619 -1.3328 0
M  V30 13340 O 1241.8 0.765136 -1.56497 0
M  V30 13341 C 1238.93 1.39547 -3.1103 0
M  V30 13342 H 1240.13 -0.407381 -2.9712 0
M  V30 13343 H 1237.68 -0.249416 -1.54297 0
M  V30 13344 H 1238.41 2.11326 -2.45992 0
M  V30 13345 H 1238.2 0.953877 -3.8032 0
M  V30 13346 H 1239.69 1.93853 -3.69879 0
M  V30 13347 N 1240.13 1.55939 -0.228214 0
M  V30 13348 C 1241.04 2.24213 0.690339 0
M  V30 13349 C 1242.05 1.25197 1.20838 0
M  V30 13350 O 1243.23 1.58026 1.24859 0
M  V30 13351 C 1240.29 2.91384 1.87873 0
M  V30 13352 C 1239.35 4.05761 1.40201 0
M  V30 13353 C 1238.59 4.6972 2.53376 0
M  V30 13354 O 1238.81 4.32687 3.71669 0
M  V30 13355 O 1237.74 5.58587 2.24198 0
M  V30 13356 H 1241.57 3.03383 0.138692 0
M  V30 13357 H 1239.15 1.494 0.00251504 0
M  V30 13358 H 1241.04 3.33758 2.57262 0
M  V30 13359 H 1239.71 2.15168 2.41835 0
M  V30 13360 H 1238.62 3.67943 0.675945 0
M  V30 13361 H 1239.95 4.83739 0.908691 0
M  V30 13362 N 1241.6 -0.0451101 1.57535 0
M  V30 13363 C 1242.57 -1.03521 2.0449 0
M  V30 13364 C 1243.57 -1.30009 0.946265 0
M  V30 13365 O 1244.76 -1.25282 1.21038 0
M  V30 13366 C 1241.89 -2.37221 2.44824 0
M  V30 13367 H 1243.08 -0.629943 2.93209 0
M  V30 13368 H 1240.64 -0.291544 1.53557 0
M  V30 13369 H 1241.37 -2.82528 1.59212 0
M  V30 13370 H 1241.16 -2.19329 3.25018 0
M  V30 13371 H 1242.65 -3.08337 2.81635 0
M  V30 13372 N 1243.08 -1.54377 -0.317073 0
M  V30 13373 C 1244.49 -1.64062 -0.891105 0
M  V30 13374 C 1244.84 -0.538863 -1.88655 0
M  V30 13375 O 1243.97 0.32718 -2.13912 0
M  V30 13376 C 1244.56 -2.97395 -1.62302 0
M  V30 13377 C 1243.12 -3.09253 -2.14568 0
M  V30 13378 C 1242.27 -2.59664 -0.973146 0
M  V30 13379 H 1245.22 -1.58418 -0.0944829 0
M  V30 13380 H 1245.24 -2.87918 -2.48764 0
M  V30 13381 H 1244.75 -3.77562 -0.898268 0
M  V30 13382 H 1242.86 -2.33774 -2.90139 0
M  V30 13383 H 1242.97 -4.15159 -2.39123 0
M  V30 13384 H 1241.33 -2.15719 -1.35416 0
M  V30 13385 H 1242.12 -3.42294 -0.262611 0
M  V30 13386 N 1244.56 0.579466 -1.4656 0
M  V30 13387 C 1245.47 1.71609 -1.59961 0
M  V30 13388 C 1246.49 1.67162 -0.483002 0
M  V30 13389 O 1247.66 1.87012 -0.747561 0
M  V30 13390 C 1244.73 3.08114 -1.58954 0
M  V30 13391 C 1243.79 3.238 -2.81872 0
M  V30 13392 C 1243.02 4.53794 -2.80904 0
M  V30 13393 O 1243.24 5.37884 -1.89835 0
M  V30 13394 O 1242.18 4.72796 -3.72488 0
M  V30 13395 H 1246 1.6325 -2.56092 0
M  V30 13396 H 1243.59 0.746891 -1.2939 0
M  V30 13397 H 1245.47 3.8939 -1.611 0
M  V30 13398 H 1244.15 3.16903 -0.65984 0
M  V30 13399 H 1243.05 2.42006 -2.85279 0
M  V30 13400 H 1244.39 3.19904 -3.74062 0
M  V30 13401 N 1246.04 1.3432 0.824371 0
M  V30 13402 C 1247.29 1.26345 1.57738 0
M  V30 13403 C 1247.61 -0.166836 1.94285 0
M  V30 13404 O 1246.88 -1.09911 1.62162 0
M  V30 13405 H 1245.46 0.46466 0.584893 0
M  V30 13406 H 1248.12 1.68214 0.984373 0
M  V30 13407 H 1247.22 1.8672 2.50084 0
M  V30 13408 N 1247.52 -1.0444 1.18026 0
M  V30 13409 C 1248.76 -1.77838 0.974756 0
M  V30 13410 C 1249.1 -1.87792 -0.494755 0
M  V30 13411 O 1248.37 -1.38327 -1.36733 0
M  V30 13412 C 1248.65 -3.21315 1.62569 0
M  V30 13413 C 1248.51 -3.19327 3.16781 0
M  V30 13414 C 1249.83 -4.19337 1.33583 0
M  V30 13415 H 1246.94 -0.645575 0.35553 0
M  V30 13416 H 1249.59 -1.22023 1.45638 0
M  V30 13417 H 1247.74 -3.68974 1.21617 0
M  V30 13418 H 1249.41 -2.79687 3.66842 0
M  V30 13419 H 1247.65 -2.57461 3.49137 0
M  V30 13420 H 1248.32 -4.20626 3.5746 0
M  V30 13421 H 1250.8 -3.80208 1.69059 0
M  V30 13422 H 1249.67 -5.17953 1.81702 0
M  V30 13423 H 1249.94 -4.41346 0.258016 0
M  V30 13424 N 1248.99 -0.981699 -1.2329 0
M  V30 13425 C 1250.27 -0.567659 -1.87182 0
M  V30 13426 C 1250.65 0.955194 -1.88253 0
M  V30 13427 O 1250 1.83245 -1.36504 0
M  V30 13428 C 1250.21 -1.17522 -3.28618 0
M  V30 13429 C 1251.56 -1.26877 -4.052 0
M  V30 13430 O 1252.58 -1.12877 -3.37842 0
M  V30 13431 O 1251.44 -1.49163 -5.2575 0
M  V30 13432 H 1248.53 -0.191315 -0.804567 0
M  V30 13433 H 1251.08 -1.07686 -1.31155 0
M  V30 13434 H 1249.85 -2.21735 -3.22411 0
M  V30 13435 H 1249.48 -0.650913 -3.92236 0
M  V30 13436 N 1250.47 1.3842 -0.753509 0
M  V30 13437 C 1251.88 1.82847 -0.377331 0
M  V30 13438 C 1252.23 1.62867 1.09401 0
M  V30 13439 O 1251.36 1.12981 1.84565 0
M  V30 13440 C 1251.95 3.31945 -0.678095 0
M  V30 13441 C 1250.51 3.7472 -0.355196 0
M  V30 13442 C 1249.66 2.61193 -0.931311 0
M  V30 13443 H 1252.61 1.2715 -0.949667 0
M  V30 13444 H 1252.63 3.80475 0.0437292 0
M  V30 13445 H 1252.14 3.46455 -1.74902 0
M  V30 13446 H 1250.25 3.65789 0.70915 0
M  V30 13447 H 1250.36 4.71487 -0.850693 0
M  V30 13448 H 1248.72 2.5219 -0.356695 0
M  V30 13449 H 1249.51 2.78503 -2.00727 0
M  V30 13450 N 1251.95 0.502579 1.49372 0
M  V30 13451 C 1253.36 0.055187 1.86618 0
M  V30 13452 C 1253.71 -1.35938 1.41476 0
M  V30 13453 O 1252.84 -2.01333 0.793338 0
M  V30 13454 C 1253.43 0.0933734 3.38671 0
M  V30 13455 C 1251.99 -0.298685 3.75213 0
M  V30 13456 C 1251.14 0.465216 2.7337 0
M  V30 13457 H 1254.09 0.715281 1.41667 0
M  V30 13458 H 1254.11 -0.701549 3.73977 0
M  V30 13459 H 1253.62 1.12303 3.71497 0
M  V30 13460 H 1251.72 -1.33151 3.47996 0
M  V30 13461 H 1251.84 0.0218637 4.79095 0
M  V30 13462 H 1250.2 -0.0851469 2.54558 0
M  V30 13463 H 1250.98 1.49498 3.09039 0
M  V30 13464 N 1253.43 -1.55816 0.23648 0
M  V30 13465 C 1254.84 -1.59159 -0.118601 0
M  V30 13466 C 1255.04 -1.25352 -1.57763 0
M  V30 13467 O 1254.1 -0.995863 -2.32032 0
M  V30 13468 C 1255.41 -2.99885 0.221175 0
M  V30 13469 C 1256.96 -3.12567 0.164624 0
M  V30 13470 C 1257.44 -4.55496 0.478285 0
M  V30 13471 N 1258.93 -4.61215 0.428402 0
M  V30 13472 C 1259.66 -5.69768 0.644398 0
M  V30 13473 N 1259.16 -6.86624 0.922966 0
M  V30 13474 N 1260.95 -5.59143 0.575814 0
M  V30 13475 H 1253.1 -1.76063 1.18809 0
M  V30 13476 H 1255.37 -0.819079 0.477297 0
M  V30 13477 H 1255.07 -3.29326 1.2344 0
M  V30 13478 H 1254.95 -3.74425 -0.456723 0
M  V30 13479 H 1257.33 -2.82914 -0.839263 0
M  V30 13480 H 1257.41 -2.40325 0.876219 0
M  V30 13481 H 1257.06 -4.85868 1.47968 0
M  V30 13482 H 1256.99 -5.25984 -0.254671 0
M  V30 13483 H 1259.48 -3.77251 0.221398 0
M  V30 13484 H 1259.79 -7.6528 1.07548 0
M  V30 13485 H 1258.14 -6.88333 0.960325 0
M  V30 13486 H 1261.33 -4.66727 0.358307 0
M  V30 13487 H 1261.5 -6.43674 0.747548 0
M  V30 13488 N 1254.91 0.036755 -1.57557 0
M  V30 13489 C 1256.32 0.392264 -1.54704 0
M  V30 13490 C 1256.52 1.77076 -0.96157 0
M  V30 13491 O 1255.58 2.45766 -0.579263 0
M  V30 13492 C 1256.89 0.301168 -2.99188 0
M  V30 13493 C 1258.44 0.378813 -3.10699 0
M  V30 13494 C 1258.91 0.317249 -4.569 0
M  V30 13495 N 1260.41 0.376277 -4.61669 0
M  V30 13496 C 1261.14 0.351411 -5.72322 0
M  V30 13497 N 1260.64 0.279288 -6.92237 0
M  V30 13498 N 1262.43 0.400571 -5.60671 0
M  V30 13499 H 1254.58 -0.865455 -1.93968 0
M  V30 13500 H 1256.84 -0.328339 -0.889324 0
M  V30 13501 H 1256.55 -0.64582 -3.4572 0
M  V30 13502 H 1256.42 1.09784 -3.6087 0
M  V30 13503 H 1258.81 1.31623 -2.6412 0
M  V30 13504 H 1258.89 -0.447072 -2.51863 0
M  V30 13505 H 1258.54 -0.616469 -5.04145 0
M  V30 13506 H 1258.47 1.16114 -5.13639 0
M  V30 13507 H 1260.96 0.434843 -3.7539 0
M  V30 13508 H 1261.27 0.265202 -7.72345 0
M  V30 13509 H 1259.61 0.24545 -6.94566 0
M  V30 13510 H 1262.81 0.454854 -4.65885 0
M  V30 13511 H 1262.98 0.377724 -6.46898 0
M  V30 13512 N 1256.39 1.54543 0.308881 0
M  V30 13513 C 1257.34 1.81332 1.38212 0
M  V30 13514 C 1258.32 0.670056 1.46284 0
M  V30 13515 O 1259.51 0.930476 1.50569 0
M  V30 13516 C 1256.64 2.05713 2.7484 0
M  V30 13517 C 1255.73 3.26202 2.71023 0
M  V30 13518 N 1256.12 4.46933 2.36822 0
M  V30 13519 C 1254.42 3.28071 3.02135 0
M  V30 13520 C 1255.12 5.28923 2.42106 0
M  V30 13521 N 1254.09 4.66455 2.79143 0
M  V30 13522 H 1257.89 2.72246 1.10722 0
M  V30 13523 H 1255.41 1.53936 0.51743 0
M  V30 13524 H 1257.41 2.23049 3.52214 0
M  V30 13525 H 1256.07 1.16062 3.03249 0
M  V30 13526 H 1257.08 4.73674 2.09413 0
M  V30 13527 H 1253.75 2.48501 3.3549 0
M  V30 13528 H 1255.14 6.35369 2.1853 0
M  V30 13529 N 1257.86 -0.571685 1.46866 0
M  V30 13530 C 1258.81 -1.6751 1.54676 0
M  V30 13531 C 1259.8 -1.55673 0.406774 0
M  V30 13532 O 1260.99 -1.64401 0.655847 0
M  V30 13533 C 1258.12 -3.06295 1.55043 0
M  V30 13534 C 1257.2 -3.23388 2.74374 0
M  V30 13535 N 1257.6 -3.10598 3.99202 0
M  V30 13536 C 1255.89 -3.54354 2.7083 0
M  V30 13537 C 1256.59 -3.29993 4.79041 0
M  V30 13538 N 1255.57 -3.55659 4.11106 0
M  V30 13539 H 1259.37 -1.56168 2.48975 0
M  V30 13540 H 1256.89 -0.776036 1.42658 0
M  V30 13541 H 1258.88 -3.85502 1.58726 0
M  V30 13542 H 1257.54 -3.18759 0.618278 0
M  V30 13543 H 1258.55 -2.8823 4.30283 0
M  V30 13544 H 1255.23 -3.73435 1.86688 0
M  V30 13545 H 1256.62 -3.25194 5.87961 0
M  V30 13546 N 1259.34 -1.34755 -0.817236 0
M  V30 13547 C 1260.76 -1.14561 -1.11121 0
M  V30 13548 C 1260.96 0.0490776 -2.0144 0
M  V30 13549 O 1260.01 0.722897 -2.41931 0
M  V30 13550 C 1261.33 -2.44356 -1.75244 0
M  V30 13551 C 1262.87 -2.50465 -1.87713 0
M  V30 13552 C 1263.35 -3.80276 -2.55253 0
M  V30 13553 N 1264.84 -3.81468 -2.62747 0
M  V30 13554 C 1265.58 -4.78634 -3.15749 0
M  V30 13555 N 1265.07 -5.86184 -3.6927 0
M  V30 13556 N 1266.86 -4.66083 -3.14203 0
M  V30 13557 H 1259.02 -2.11293 -0.2166 0
M  V30 13558 H 1261.28 -0.934629 -0.158661 0
M  V30 13559 H 1260.98 -3.31899 -1.16344 0
M  V30 13560 H 1260.86 -2.58117 -2.75055 0
M  V30 13561 H 1263.25 -1.63358 -2.45761 0
M  V30 13562 H 1263.33 -2.40627 -0.867887 0
M  V30 13563 H 1262.97 -4.67776 -1.97858 0
M  V30 13564 H 1262.9 -3.87399 -3.56693 0
M  V30 13565 H 1265.39 -3.03753 -2.24817 0
M  V30 13566 H 1265.7 -6.56332 -4.0798 0
M  V30 13567 H 1264.05 -5.8989 -3.67498 0
M  V30 13568 H 1267.24 -3.81206 -2.7166 0
M  V30 13569 H 1267.41 -5.41973 -3.55203 0
M  V30 13570 N 1260.82 1.03812 -1.18578 0
M  V30 13571 C 1261.77 2.10206 -0.883037 0
M  V30 13572 C 1262.75 1.60215 0.148303 0
M  V30 13573 O 1263.95 1.76911 -0.0560957 0
M  V30 13574 C 1261.07 3.40802 -0.41335 0
M  V30 13575 C 1260.16 3.97553 -1.47691 0
M  V30 13576 N 1260.55 4.28085 -2.69401 0
M  V30 13577 C 1258.85 4.25456 -1.33802 0
M  V30 13578 C 1259.55 4.73535 -3.37845 0
M  V30 13579 N 1258.53 4.74504 -2.6523 0
M  V30 13580 H 1262.33 2.31692 -1.80821 0
M  V30 13581 H 1259.84 1.21589 -1.07656 0
M  V30 13582 H 1261.84 4.1652 -0.177953 0
M  V30 13583 H 1260.5 3.20742 0.505449 0
M  V30 13584 H 1261.51 4.17653 -3.06246 0
M  V30 13585 H 1258.19 4.14709 -0.481961 0
M  V30 13586 H 1259.58 5.06157 -4.41876 0
M  V30 13587 N 1262.3 0.988223 1.22768 0
M  V30 13588 C 1263.71 0.69816 1.4352 0
M  V30 13589 C 1263.91 -0.732872 1.877 0
M  V30 13590 O 1262.97 -1.50436 2.02793 0
M  V30 13591 C 1264.28 1.69975 2.4805 0
M  V30 13592 C 1265.83 1.71467 2.61855 0
M  V30 13593 C 1266.31 2.70477 3.69603 0
M  V30 13594 N 1267.8 2.69043 3.77055 0
M  V30 13595 C 1268.53 3.42319 4.60006 0
M  V30 13596 N 1268.03 4.2518 5.46986 0
M  V30 13597 N 1269.82 3.31047 4.54274 0
M  V30 13598 H 1261.97 1.91251 0.923948 0
M  V30 13599 H 1264.23 0.82455 0.467783 0
M  V30 13600 H 1263.94 2.72354 2.22523 0
M  V30 13601 H 1263.81 1.48885 3.46573 0
M  V30 13602 H 1266.2 0.697889 2.86729 0
M  V30 13603 H 1266.28 1.96625 1.63622 0
M  V30 13604 H 1265.93 3.72302 3.45476 0
M  V30 13605 H 1265.86 2.42591 4.67394 0
M  V30 13606 H 1268.35 2.08914 3.14902 0
M  V30 13607 H 1268.66 4.77929 6.07292 0
M  V30 13608 H 1267.01 4.29268 5.46584 0
M  V30 13609 H 1270.2 2.65758 3.85345 0
M  V30 13610 H 1270.37 3.88413 5.1869 0
M  V30 13611 N 1263.78 -1.38018 0.760839 0
M  V30 13612 C 1265.05 -1.94054 0.245437 0
M  V30 13613 C 1265.43 -1.6955 -1.25761 0
M  V30 13614 O 1264.78 -1.03812 -2.03557 0
M  V30 13615 C 1264.99 -3.43681 0.606986 0
M  V30 13616 C 1266.34 -4.20748 0.570673 0
M  V30 13617 O 1267.36 -3.51995 0.545715 0
M  V30 13618 O 1266.22 -5.43327 0.588043 0
M  V30 13619 H 1263.32 -0.825264 0.0535607 0
M  V30 13620 H 1265.86 -1.47369 0.841453 0
M  V30 13621 H 1264.63 -3.55054 1.64476 0
M  V30 13622 H 1264.26 -3.97597 -0.0166576 0
M  V30 13623 N 1265.25 -0.510493 -1.49103 0
M  V30 13624 C 1266.2 0.262848 -2.29298 0
M  V30 13625 C 1267.17 0.951714 -1.36131 0
M  V30 13626 O 1268.36 0.956534 -1.65091 0
M  V30 13627 C 1265.5 1.31565 -3.19037 0
M  V30 13628 C 1264.61 0.637598 -4.27269 0
M  V30 13629 C 1263.74 1.67165 -5.04212 0
M  V30 13630 C 1262.78 0.975992 -6.04269 0
M  V30 13631 N 1261.92 1.95468 -6.74342 0
M  V30 13632 H 1266.76 -0.427246 -2.94921 0
M  V30 13633 H 1264.3 -0.222538 -1.45407 0
M  V30 13634 H 1266.25 1.93813 -3.69449 0
M  V30 13635 H 1264.88 1.97438 -2.55379 0
M  V30 13636 H 1263.94 -0.0983863 -3.80273 0
M  V30 13637 H 1265.25 0.0904435 -4.98718 0
M  V30 13638 H 1264.4 2.36893 -5.5854 0
M  V30 13639 H 1263.14 2.25267 -4.32557 0
M  V30 13640 H 1262.15 0.264534 -5.49163 0
M  V30 13641 H 1263.37 0.40134 -6.77913 0
M  V30 13642 H 1261.32 2.52515 -6.05452 0
M  V30 13643 H 1261.23 1.45845 -7.41799 0
M  V30 13644 H 1262.5 2.64455 -7.33269 0
M  V30 13645 N 1266.73 1.55688 -0.24474 0
M  V30 13646 C 1268.01 1.90796 0.430821 0
M  V30 13647 C 1268.39 1.1652 1.76029 0
M  V30 13648 O 1267.74 0.281978 2.26753 0
M  V30 13649 C 1267.95 3.43786 0.601027 0
M  V30 13650 C 1269.29 4.14998 0.897894 0
M  V30 13651 O 1270.32 3.49513 0.68697 0
M  V30 13652 O 1269.18 5.30826 1.29945 0
M  V30 13653 H 1266.27 0.794086 0.230991 0
M  V30 13654 H 1268.82 1.67227 -0.288646 0
M  V30 13655 H 1267.59 3.89856 -0.335804 0
M  V30 13656 H 1267.21 3.73211 1.37112 0
M  V30 13657 N 1268.21 -0.0283989 1.57574 0
M  V30 13658 C 1269.16 -1.02881 2.06601 0
M  V30 13659 C 1270.13 -1.35879 0.955308 0
M  V30 13660 O 1271.31 -1.46205 1.22592 0
M  V30 13661 C 1268.45 -2.32447 2.55073 0
M  V30 13662 C 1267.56 -2.05602 3.79937 0
M  V30 13663 C 1266.7 -3.29043 4.17018 0
M  V30 13664 C 1265.74 -2.97755 5.34797 0
M  V30 13665 N 1264.88 -4.1365 5.67308 0
M  V30 13666 H 1269.72 -0.603772 2.91819 0
M  V30 13667 H 1267.25 -0.286503 1.44283 0
M  V30 13668 H 1269.21 -3.08152 2.81244 0
M  V30 13669 H 1267.84 -2.72672 1.72771 0
M  V30 13670 H 1266.89 -1.2039 3.60847 0
M  V30 13671 H 1268.2 -1.78522 4.65759 0
M  V30 13672 H 1267.36 -4.13115 4.4432 0
M  V30 13673 H 1266.1 -3.59237 3.29849 0
M  V30 13674 H 1265.1 -2.12085 5.07247 0
M  V30 13675 H 1266.33 -2.68839 6.23621 0
M  V30 13676 H 1264.27 -4.43794 4.83097 0
M  V30 13677 H 1264.19 -3.89996 6.47641 0
M  V30 13678 H 1265.46 -4.98594 5.99186 0
M  V30 13679 N 1269.69 -1.54705 -0.300681 0
M  V30 13680 C 1270.92 -1.77993 -1.0548 0
M  V30 13681 C 1271.33 -0.539574 -1.80926 0
M  V30 13682 O 1270.69 0.490597 -1.75782 0
M  V30 13683 C 1270.74 -2.98774 -2.0351 0
M  V30 13684 O 1270.46 -4.18016 -1.31126 0
M  V30 13685 C 1271.96 -3.34452 -2.90958 0
M  V30 13686 H 1269.18 -0.593628 -0.312805 0
M  V30 13687 H 1271.72 -2.01656 -0.339858 0
M  V30 13688 H 1269.88 -2.77318 -2.70506 0
M  V30 13689 H 1270.29 -4.86113 -1.96963 0
M  V30 13690 H 1271.77 -4.22206 -3.55593 0
M  V30 13691 H 1272.24 -2.52622 -3.59275 0
M  V30 13692 H 1272.85 -3.58069 -2.29493 0
M  V30 13693 N 1271.17 0.563888 -1.47167 0
M  V30 13694 C 1272.58 1.14603 -1.47388 0
M  V30 13695 C 1272.93 1.94907 -0.224916 0
M  V30 13696 O 1272.05 2.05745 0.670672 0
M  V30 13697 C 1272.65 2.08501 -2.67044 0
M  V30 13698 C 1271.21 2.62 -2.70246 0
M  V30 13699 C 1270.35 1.38244 -2.40383 0
M  V30 13700 H 1273.31 0.350833 -1.54774 0
M  V30 13701 H 1273.33 2.92272 -2.43634 0
M  V30 13702 H 1272.84 1.50027 -3.57929 0
M  V30 13703 H 1270.94 3.24292 -1.83482 0
M  V30 13704 H 1271.05 3.0345 -3.70749 0
M  V30 13705 H 1269.42 1.68692 -1.90827 0
M  V30 13706 H 1270.2 0.815726 -3.33468 0
M  V30 13707 N 1272.64 1.35187 0.810078 0
M  V30 13708 C 1273.61 1.27698 1.90331 0
M  V30 13709 C 1274.61 0.189216 1.59683 0
M  V30 13710 O 1275.8 0.442689 1.68481 0
M  V30 13711 C 1272.93 0.974631 3.26671 0
M  V30 13712 H 1274.12 2.24902 1.98392 0
M  V30 13713 H 1271.68 1.1966 1.00554 0
M  V30 13714 H 1272.41 0.0063068 3.24299 0
M  V30 13715 H 1272.2 1.76158 3.50301 0
M  V30 13716 H 1273.69 0.947743 4.06703 0
M  V30 13717 N 1274.12 -1.03182 1.19127 0
M  V30 13718 C 1275.09 -2.09559 0.928307 0
M  V30 13719 C 1276.09 -1.60548 -0.0899992 0
M  V30 13720 O 1277.28 -1.736 0.144422 0
M  V30 13721 C 1274.41 -3.38609 0.394561 0
M  V30 13722 H 1275.6 -2.34321 1.87173 0
M  V30 13723 H 1273.15 -1.19746 1.00452 0
M  V30 13724 H 1273.89 -3.19515 -0.555046 0
M  V30 13725 H 1273.67 -3.75502 1.12873 0
M  V30 13726 H 1275.16 -4.16969 0.229569 0
M  V30 13727 N 1275.6 -0.99472 -1.22242 0
M  V30 13728 C 1276.85 -0.670275 -1.90661 0
M  V30 13729 C 1277.17 0.800369 -1.77818 0
M  V30 13730 O 1276.44 1.57381 -1.16653 0
M  V30 13731 H 1275.02 -0.244925 -0.705706 0
M  V30 13732 H 1277.68 -1.26162 -1.48557 0
M  V30 13733 H 1276.78 -0.934408 -2.97784 0
M  V30 13734 N 1277.08 1.37613 -0.768148 0
M  V30 13735 C 1278.36 1.93921 -0.255724 0
M  V30 13736 C 1278.74 1.70215 1.2486 0
M  V30 13737 O 1278.08 1.0489 2.03003 0
M  V30 13738 C 1278.29 3.43354 -0.625204 0
M  V30 13739 C 1279.64 4.20439 -0.592978 0
M  V30 13740 O 1280.67 3.51701 -0.564375 0
M  V30 13741 O 1279.52 5.43008 -0.616849 0
M  V30 13742 H 1276.62 0.824968 -0.0579366 0
M  V30 13743 H 1279.16 1.46921 -0.849257 0
M  V30 13744 H 1277.94 3.54177 -1.66356 0
M  V30 13745 H 1277.56 3.976 -0.00442816 0
M  V30 13746 N 1278.56 0.518393 1.4883 0
M  V30 13747 C 1279.49 -0.287642 2.27388 0
M  V30 13748 C 1280.5 -0.914974 1.34655 0
M  V30 13749 O 1281.69 -0.795373 1.598 0
M  V30 13750 C 1278.79 -1.42149 3.07647 0
M  V30 13751 C 1277.96 -0.898238 4.28078 0
M  V30 13752 C 1277.02 -1.91179 4.90242 0
M  V30 13753 O 1276.05 -1.47337 5.498 0
M  V30 13754 N 1277.25 -3.24331 4.81445 0
M  V30 13755 H 1280.02 0.386047 2.97203 0
M  V30 13756 H 1277.58 0.352002 1.58027 0
M  V30 13757 H 1279.57 -2.09745 3.46106 0
M  V30 13758 H 1278.14 -1.99903 2.40328 0
M  V30 13759 H 1277.36 -0.0466326 3.94172 0
M  V30 13760 H 1278.65 -0.527338 5.0606 0
M  V30 13761 H 1278.04 -3.62627 4.34187 0
M  V30 13762 H 1276.6 -3.87593 5.24037 0
M  V30 13763 N 1280.03 -1.55556 0.252993 0
M  V30 13764 C 1281.31 -1.91022 -0.420696 0
M  V30 13765 C 1281.69 -1.17452 -1.75409 0
M  V30 13766 O 1281.04 -0.294 -2.26601 0
M  V30 13767 C 1281.25 -3.441 -0.582787 0
M  V30 13768 C 1282.6 -4.15468 -0.875873 0
M  V30 13769 O 1283.62 -3.49872 -0.668425 0
M  V30 13770 O 1282.48 -5.31508 -1.27128 0
M  V30 13771 H 1279.57 -0.7953 -0.226776 0
M  V30 13772 H 1282.12 -1.67072 0.297511 0
M  V30 13773 H 1280.89 -3.89673 0.356474 0
M  V30 13774 H 1280.52 -3.73933 -1.3513 0
M  V30 13775 N 1281.51 0.0200419 -1.57587 0
M  V30 13776 C 1282.93 0.375834 -1.55112 0
M  V30 13777 C 1283.13 1.76047 -0.980297 0
M  V30 13778 O 1282.18 2.45138 -0.605297 0
M  V30 13779 C 1283.5 0.269418 -2.99491 0
M  V30 13780 C 1285.05 0.345838 -3.11084 0
M  V30 13781 C 1285.52 0.268771 -4.57211 0
M  V30 13782 N 1287.01 0.32729 -4.62042 0
M  V30 13783 C 1287.75 0.290688 -5.72663 0
M  V30 13784 N 1287.24 0.205851 -6.92494 0
M  V30 13785 N 1289.04 0.341082 -5.61064 0
M  V30 13786 H 1281.19 -0.885979 -1.93039 0
M  V30 13787 H 1283.45 -0.337753 -0.885792 0
M  V30 13788 H 1283.16 -0.682452 -3.45015 0
M  V30 13789 H 1283.03 1.0595 -3.62014 0
M  V30 13790 H 1285.42 1.28814 -2.65501 0
M  V30 13791 H 1285.5 -0.47376 -2.51375 0
M  V30 13792 H 1285.14 -0.669906 -5.03463 0
M  V30 13793 H 1285.07 1.10659 -5.14842 0
M  V30 13794 H 1287.56 0.395004 -3.7583 0
M  V30 13795 H 1287.88 0.18327 -7.72583 0
M  V30 13796 H 1286.22 0.171768 -6.94788 0
M  V30 13797 H 1289.41 0.405415 -4.66341 0
M  V30 13798 H 1289.58 0.309091 -6.47262 0
M  V30 13799 N 1282.99 1.54862 0.292472 0
M  V30 13800 C 1283.95 1.8565 1.34413 0
M  V30 13801 C 1284.95 0.729868 1.43281 0
M  V30 13802 O 1286.14 0.998128 1.42769 0
M  V30 13803 C 1283.28 2.0444 2.72795 0
M  V30 13804 H 1284.47 2.79642 1.08354 0
M  V30 13805 H 1282.02 1.47055 0.529574 0
M  V30 13806 H 1282.76 1.12765 3.04063 0
M  V30 13807 H 1282.54 2.86451 2.67747 0
M  V30 13808 H 1284.03 2.296 3.48817 0
M  V30 13809 N 1284.47 -0.556076 1.47464 0
M  V30 13810 C 1285.38 -1.69043 1.62671 0
M  V30 13811 C 1286.39 -1.66372 0.509535 0
M  V30 13812 O 1287.57 -1.85799 0.777218 0
M  V30 13813 C 1284.64 -3.05546 1.63836 0
M  V30 13814 C 1283.7 -3.19275 2.86988 0
M  V30 13815 C 1282.93 -4.49267 2.88088 0
M  V30 13816 O 1283.15 -5.34796 1.98368 0
M  V30 13817 O 1282.09 -4.66811 3.79962 0
M  V30 13818 H 1285.91 -1.59155 2.58657 0
M  V30 13819 H 1283.5 -0.726211 1.30562 0
M  V30 13820 H 1285.38 -3.86778 1.67275 0
M  V30 13821 H 1284.05 -3.15814 0.710173 0
M  V30 13822 H 1282.96 -2.37437 2.89093 0
M  V30 13823 H 1284.29 -3.13912 3.79104 0
M  V30 13824 N 1285.95 -1.35615 -0.802897 0
M  V30 13825 C 1286.91 -1.28705 -1.89651 0
M  V30 13826 C 1287.91 -0.197681 -1.5958 0
M  V30 13827 O 1289.1 -0.451618 -1.68244 0
M  V30 13828 C 1286.23 -0.991941 -3.26149 0
M  V30 13829 H 1287.43 -2.25951 -1.97196 0
M  V30 13830 H 1284.98 -1.20192 -0.999179 0
M  V30 13831 H 1285.71 -0.0235051 -3.24291 0
M  V30 13832 H 1285.5 -1.78013 -3.49362 0
M  V30 13833 H 1286.99 -0.969298 -4.06195 0
M  V30 13834 N 1287.43 1.02549 -1.19673 0
M  V30 13835 C 1288.84 1.57454 -1.00325 0
M  V30 13836 C 1289.19 1.91136 0.442889 0
M  V30 13837 O 1288.31 1.7126 1.32284 0
M  V30 13838 C 1288.91 2.86091 -1.81486 0
M  V30 13839 C 1287.47 3.37557 -1.6653 0
M  V30 13840 C 1286.61 2.1096 -1.79975 0
M  V30 13841 H 1289.56 0.850364 -1.33994 0
M  V30 13842 H 1289.59 3.5713 -1.31296 0
M  V30 13843 H 1289.1 2.61546 -2.86733 0
M  V30 13844 H 1287.2 3.67083 -0.638834 0
M  V30 13845 H 1287.31 4.1036 -2.47269 0
M  V30 13846 H 1285.68 2.22993 -1.23071 0
M  V30 13847 H 1286.46 1.88852 -2.86688 0
M  V30 13848 N 1288.9 1.00119 1.21713 0
M  V30 13849 C 1289.85 0.558388 2.23943 0
M  V30 13850 C 1290.82 -0.413576 1.60869 0
M  V30 13851 O 1292.01 -0.316478 1.88157 0
M  V30 13852 C 1289.15 -0.112618 3.44916 0
M  V30 13853 C 1288.26 0.902071 4.22477 0
M  V30 13854 C 1287.39 0.203722 5.30809 0
M  V30 13855 C 1286.43 1.20622 6.00097 0
M  V30 13856 N 1285.57 0.535607 7.00054 0
M  V30 13857 H 1290.41 1.43486 2.61182 0
M  V30 13858 H 1287.95 0.718572 1.28355 0
M  V30 13859 H 1289.9 -0.51865 4.13964 0
M  V30 13860 H 1288.53 -0.952827 3.08417 0
M  V30 13861 H 1287.59 1.42637 3.52645 0
M  V30 13862 H 1288.9 1.66513 4.70186 0
M  V30 13863 H 1288.05 -0.258614 6.06149 0
M  V30 13864 H 1286.79 -0.591773 4.84096 0
M  V30 13865 H 1285.8 1.6791 5.23532 0
M  V30 13866 H 1287.02 2.00273 6.48897 0
M  V30 13867 H 1284.97 -0.2403 6.5556 0
M  V30 13868 H 1284.88 1.23698 7.45812 0
M  V30 13869 H 1286.15 0.0963489 7.7944 0
M  V30 13870 N 1290.38 -1.37203 0.775435 0
M  V30 13871 C 1291.34 -2.28566 0.170406 0
M  V30 13872 C 1292.34 -1.48195 -0.624085 0
M  V30 13873 O 1293.53 -1.68364 -0.447132 0
M  V30 13874 C 1290.67 -3.32186 -0.765829 0
M  V30 13875 H 1291.86 -2.8358 0.975824 0
M  V30 13876 H 1289.41 -1.46531 0.543895 0
M  V30 13877 H 1290.15 -2.82303 -1.59611 0
M  V30 13878 H 1289.93 -3.91598 -0.198251 0
M  V30 13879 H 1291.42 -4.0045 -1.18446 0
M  V30 13880 N 1291.86 -0.526279 -1.48553 0
M  V30 13881 C 1292.77 0.24244 -2.33344 0
M  V30 13882 C 1293.79 0.942658 -1.46253 0
M  V30 13883 O 1294.96 0.91844 -1.79239 0
M  V30 13884 C 1292.03 1.27801 -3.22285 0
M  V30 13885 C 1291.09 0.588543 -4.25247 0
M  V30 13886 C 1290.32 1.57478 -5.09938 0
M  V30 13887 O 1290.54 2.80707 -4.96548 0
M  V30 13888 O 1289.48 1.11621 -5.9146 0
M  V30 13889 H 1293.3 -0.452262 -3.00314 0
M  V30 13890 H 1290.89 -0.287249 -1.46613 0
M  V30 13891 H 1292.77 1.87656 -3.7731 0
M  V30 13892 H 1291.45 1.95519 -2.57981 0
M  V30 13893 H 1290.35 -0.0504022 -3.74066 0
M  V30 13894 H 1291.69 -0.046627 -4.92178 0
M  V30 13895 N 1293.34 1.5542 -0.261239 0
M  V30 13896 C 1294.56 2.04142 0.366144 0
M  V30 13897 C 1294.99 1.13884 1.49706 0
M  V30 13898 O 1294.35 0.134629 1.80799 0
M  V30 13899 C 1294.39 3.50733 0.837774 0
M  V30 13900 O 1293.5 3.63588 1.94621 0
M  V30 13901 H 1292.84 0.659424 0.077821 0
M  V30 13902 H 1295.37 2.0082 -0.391487 0
M  V30 13903 H 1295.38 3.91831 1.13721 0
M  V30 13904 H 1294.05 4.15899 0.0102742 0
M  V30 13905 H 1292.63 3.34391 1.65037 0
M  V30 13906 N 1294.82 -0.0116844 1.57596 0
M  V30 13907 C 1296.06 -0.697577 1.89679 0
M  V30 13908 C 1296.38 -1.74956 0.861122 0
M  V30 13909 O 1295.65 -1.95629 -0.103031 0
M  V30 13910 H 1294.23 -0.26064 0.700054 0
M  V30 13911 H 1296.9 0.0264782 1.94882 0
M  V30 13912 H 1295.99 -1.17621 2.89088 0
M  V30 13913 N 1296.29 -1.55015 -0.284256 0
M  V30 13914 C 1297.2 -1.90203 -1.37332 0
M  V30 13915 C 1298.22 -0.797994 -1.54622 0
M  V30 13916 O 1299.4 -1.09602 -1.68965 0
M  V30 13917 C 1296.46 -2.15687 -2.71441 0
M  V30 13918 C 1295.52 -3.39313 -2.62993 0
M  V30 13919 C 1294.75 -3.63571 -3.90707 0
M  V30 13920 O 1294.98 -2.90538 -4.9086 0
M  V30 13921 O 1293.91 -4.57102 -3.91589 0
M  V30 13922 H 1297.74 -2.82888 -1.1049 0
M  V30 13923 H 1295.32 -1.41418 -0.481798 0
M  V30 13924 H 1297.2 -2.33553 -3.50758 0
M  V30 13925 H 1295.88 -1.26185 -2.98092 0
M  V30 13926 H 1294.79 -3.26793 -1.82091 0
M  V30 13927 H 1296.12 -4.28997 -2.41293 0
M  V30 13928 N 1297.77 0.548248 -1.47757 0
M  V30 13929 C 1299.18 1.13033 -1.48595 0
M  V30 13930 C 1299.53 1.94657 -0.245575 0
M  V30 13931 O 1298.66 2.06445 0.648813 0
M  V30 13932 C 1299.25 2.05657 -2.69241 0
M  V30 13933 C 1297.81 2.59119 -2.73009 0
M  V30 13934 C 1296.96 1.35686 -2.41836 0
M  V30 13935 H 1299.91 0.334397 -1.55137 0
M  V30 13936 H 1299.93 2.89671 -2.4672 0
M  V30 13937 H 1299.44 1.46222 -3.595 0
M  V30 13938 H 1297.54 3.22327 -1.86912 0
M  V30 13939 H 1297.66 2.99501 -3.73946 0
M  V30 13940 H 1296.02 1.66659 -1.92606 0
M  V30 13941 H 1296.8 0.780311 -3.34314 0
M  V30 13942 N 1299.25 1.36039 0.795694 0
M  V30 13943 C 1300.5 1.29663 1.55023 0
M  V30 13944 C 1300.82 -0.125588 1.94595 0
M  V30 13945 O 1300.09 -1.06447 1.64456 0
M  V30 13946 H 1298.67 0.476962 0.574906 0
M  V30 13947 H 1301.33 1.70265 0.948471 0
M  V30 13948 H 1300.43 1.91982 2.46068 0
M  V30 13949 N 1300.73 -1.01913 1.20215 0
M  V30 13950 C 1301.69 -2.08563 0.950481 0
M  V30 13951 C 1302.69 -1.60634 -0.0729659 0
M  V30 13952 O 1303.88 -1.73437 0.162826 0
M  V30 13953 C 1301.01 -3.38171 0.430453 0
M  V30 13954 H 1302.21 -2.32323 1.89647 0
M  V30 13955 H 1299.76 -1.18674 1.01716 0
M  V30 13956 H 1300.49 -3.20086 -0.521126 0
M  V30 13957 H 1300.28 -3.74284 1.1685 0
M  V30 13958 H 1301.77 -4.16702 0.273781 0
M  V30 13959 N 1302.21 -1.00763 -1.2118 0
M  V30 13960 C 1303.62 -0.720905 -1.42391 0
M  V30 13961 C 1303.82 0.702918 -1.88842 0
M  V30 13962 O 1302.88 1.47191 -2.05161 0
M  V30 13963 C 1304.19 -1.739 -2.45315 0
M  V30 13964 C 1305.74 -1.75611 -2.59094 0
M  V30 13965 C 1306.21 -2.76323 -3.65253 0
M  V30 13966 N 1307.71 -2.75007 -3.72727 0
M  V30 13967 C 1308.44 -3.49594 -4.54502 0
M  V30 13968 N 1307.94 -4.33828 -5.40153 0
M  V30 13969 N 1309.73 -3.38232 -4.4895 0
M  V30 13970 H 1301.88 -1.92697 -0.893404 0
M  V30 13971 H 1304.14 -0.831888 -0.454606 0
M  V30 13972 H 1303.85 -2.75859 -2.18162 0
M  V30 13973 H 1303.72 -1.5438 -3.44161 0
M  V30 13974 H 1306.11 -0.743416 -2.85582 0
M  V30 13975 H 1306.19 -1.99203 -1.60474 0
M  V30 13976 H 1305.84 -3.77751 -3.39509 0
M  V30 13977 H 1305.77 -2.49996 -4.63476 0
M  V30 13978 H 1308.26 -2.13897 -3.11539 0
M  V30 13979 H 1308.57 -4.8753 -5.99612 0
M  V30 13980 H 1306.91 -4.3791 -5.39685 0
M  V30 13981 H 1310.11 -2.71855 -3.81068 0
M  V30 13982 H 1310.28 -3.96615 -5.12445 0
M  V30 13983 N 1303.68 1.3679 -0.7827 0
M  V30 13984 C 1304.59 2.33928 -0.17747 0
M  V30 13985 C 1305.61 1.60716 0.666802 0
M  V30 13986 O 1306.79 1.92742 0.584162 0
M  V30 13987 C 1303.85 3.39907 0.68294 0
M  V30 13988 C 1302.91 4.28926 -0.179053 0
M  V30 13989 C 1302.15 5.29844 0.640386 0
M  V30 13990 O 1302.37 5.38639 1.87681 0
M  V30 13991 O 1301.3 6.01884 0.0438164 0
M  V30 13992 H 1305.13 2.87439 -0.980441 0
M  V30 13993 H 1302.71 1.39142 -0.54404 0
M  V30 13994 H 1304.6 4.04722 1.17379 0
M  V30 13995 H 1303.27 2.88706 1.46391 0
M  V30 13996 H 1302.18 3.67174 -0.716512 0
M  V30 13997 H 1303.51 4.83461 -0.923377 0
M  V30 13998 N 1305.16 0.53415 1.48272 0
M  V30 13999 C 1306.07 -0.230062 2.33469 0
M  V30 14000 C 1307.09 -0.934889 1.46751 0
M  V30 14001 O 1308.26 -0.908921 1.79724 0
M  V30 14002 C 1305.33 -1.2609 3.22958 0
M  V30 14003 C 1304.39 -0.565983 4.25553 0
M  V30 14004 C 1303.62 -1.54771 5.10766 0
M  V30 14005 O 1303.85 -2.7807 4.9803 0
M  V30 14006 O 1302.78 -1.08482 5.92043 0
M  V30 14007 H 1306.61 0.468182 3.0007 0
M  V30 14008 H 1304.19 0.29502 1.46458 0
M  V30 14009 H 1306.07 -1.85652 3.783 0
M  V30 14010 H 1304.75 -1.94148 2.59014 0
M  V30 14011 H 1303.66 0.0702391 3.74034 0
M  V30 14012 H 1304.99 0.0727277 4.92146 0
M  V30 14013 N 1306.64 -1.55279 0.269478 0
M  V30 14014 C 1308.06 -1.59374 -0.0848147 0
M  V30 14015 C 1308.26 -1.2867 -1.55068 0
M  V30 14016 O 1307.31 -1.04486 -2.29867 0
M  V30 14017 C 1308.63 -2.99349 0.284735 0
M  V30 14018 C 1310.17 -3.12147 0.230887 0
M  V30 14019 C 1310.65 -4.54379 0.574795 0
M  V30 14020 N 1312.14 -4.60202 0.526136 0
M  V30 14021 C 1312.87 -5.68273 0.765109 0
M  V30 14022 N 1312.37 -6.84512 1.0684 0
M  V30 14023 N 1314.16 -5.57796 0.694287 0
M  V30 14024 H 1306.31 -1.73503 1.22517 0
M  V30 14025 H 1308.58 -0.808771 0.494564 0
M  V30 14026 H 1308.28 -3.26633 1.30398 0
M  V30 14027 H 1308.16 -3.75309 -0.377199 0
M  V30 14028 H 1310.54 -2.84631 -0.779064 0
M  V30 14029 H 1310.63 -2.38412 0.926998 0
M  V30 14030 H 1310.27 -4.8262 1.58241 0
M  V30 14031 H 1310.2 -5.26406 -0.143044 0
M  V30 14032 H 1312.69 -3.76696 0.301368 0
M  V30 14033 H 1313 -7.62826 1.23757 0
M  V30 14034 H 1311.35 -6.86141 1.10612 0
M  V30 14035 H 1314.54 -4.65862 0.457226 0
M  V30 14036 H 1314.71 -6.41943 0.883913 0
M  V30 14037 N 1308.12 0.00332656 -1.576 0
M  V30 14038 C 1309.53 0.546581 -1.7852 0
M  V30 14039 C 1309.88 1.74147 -0.903722 0
M  V30 14040 O 1309.01 2.16144 -0.105314 0
M  V30 14041 C 1309.6 0.998344 -3.23757 0
M  V30 14042 C 1308.16 1.48693 -3.45785 0
M  V30 14043 C 1307.31 0.436617 -2.73841 0
M  V30 14044 H 1310.26 -0.222852 -1.57128 0
M  V30 14045 H 1310.28 1.86452 -3.31686 0
M  V30 14046 H 1309.79 0.128479 -3.87887 0
M  V30 14047 H 1307.89 2.3778 -2.86865 0
M  V30 14048 H 1308 1.51668 -4.5446 0
M  V30 14049 H 1306.37 0.897506 -2.38363 0
M  V30 14050 H 1307.15 -0.424225 -3.40669 0
M  V30 14051 N 1309.6 1.55164 0.276031 0
M  V30 14052 C 1311.01 1.46936 0.623061 0
M  V30 14053 C 1311.21 0.680977 1.89644 0
M  V30 14054 O 1310.27 0.198618 2.51718 0
M  V30 14055 C 1311.58 2.91123 0.752839 0
M  V30 14056 C 1313.13 3.01319 0.847093 0
M  V30 14057 C 1313.6 4.46755 1.00867 0
M  V30 14058 N 1315.1 4.5057 1.07427 0
M  V30 14059 C 1315.83 5.60314 1.21804 0
M  V30 14060 N 1315.33 6.7993 1.32919 0
M  V30 14061 N 1317.12 5.4805 1.2489 0
M  V30 14062 H 1309.27 2.04877 -0.560282 0
M  V30 14063 H 1311.53 0.928925 -0.189217 0
M  V30 14064 H 1311.24 3.51521 -0.112333 0
M  V30 14065 H 1311.11 3.39967 1.63408 0
M  V30 14066 H 1313.5 2.41021 1.70274 0
M  V30 14067 H 1313.58 2.55733 -0.0586896 0
M  V30 14068 H 1313.23 5.07655 0.1577 0
M  V30 14069 H 1313.16 4.89995 1.92906 0
M  V30 14070 H 1315.65 3.64404 1.00089 0
M  V30 14071 H 1315.96 7.59319 1.43714 0
M  V30 14072 H 1314.3 6.82747 1.29929 0
M  V30 14073 H 1317.5 4.53542 1.15834 0
M  V30 14074 H 1317.67 6.33621 1.3575 0
M  V30 14075 N 1311.07 -0.540404 1.48045 0
M  V30 14076 C 1312.49 -1.12243 1.49192 0
M  V30 14077 C 1312.84 -1.94524 0.255895 0
M  V30 14078 O 1311.96 -2.06786 -0.637855 0
M  V30 14079 C 1312.56 -2.04227 2.70327 0
M  V30 14080 C 1311.12 -2.57668 2.7438 0
M  V30 14081 C 1310.26 -1.34402 2.42552 0
M  V30 14082 H 1313.21 -0.326165 1.55312 0
M  V30 14083 H 1313.23 -2.88359 2.48253 0
M  V30 14084 H 1312.75 -1.44314 3.60271 0
M  V30 14085 H 1310.85 -3.21331 1.88618 0
M  V30 14086 H 1310.96 -2.97514 3.7553 0
M  V30 14087 H 1309.32 -1.65635 1.93487 0
M  V30 14088 H 1310.11 -0.762571 3.34723 0
M  V30 14089 N 1312.55 -1.36459 -0.788468 0
M  V30 14090 C 1313.5 -1.27391 -1.89092 0
M  V30 14091 C 1314.49 -0.165201 -1.6005 0
M  V30 14092 O 1315.68 -0.398097 -1.72465 0
M  V30 14093 C 1312.81 -1.06639 -3.26317 0
M  V30 14094 C 1311.89 -2.21981 -3.61366 0
M  V30 14095 N 1312.28 -3.47302 -3.67716 0
M  V30 14096 C 1310.58 -2.13767 -3.91433 0
M  V30 14097 C 1311.28 -4.2326 -3.99031 0
M  V30 14098 N 1310.26 -3.52211 -4.14063 0
M  V30 14099 H 1314.06 -2.22318 -1.92229 0
M  V30 14100 H 1311.58 -1.29191 -0.98404 0
M  V30 14101 H 1313.57 -0.982292 -4.05162 0
M  V30 14102 H 1312.23 -0.126129 -3.24455 0
M  V30 14103 H 1313.24 -3.81424 -3.50337 0
M  V30 14104 H 1309.92 -1.27702 -3.9749 0
M  V30 14105 H 1311.31 -5.31643 -4.1086 0
M  V30 14106 N 1314.03 1.01274 -1.20754 0
M  V30 14107 C 1315.45 1.27256 -0.963221 0
M  V30 14108 C 1315.65 1.98349 0.354972 0
M  V30 14109 O 1314.7 2.28116 1.08255 0
M  V30 14110 C 1316.02 2.1038 -2.14851 0
M  V30 14111 C 1317.56 2.23633 -2.18991 0
M  V30 14112 C 1318.04 3.10136 -3.37016 0
M  V30 14113 N 1319.53 3.17724 -3.37054 0
M  V30 14114 C 1320.26 3.84891 -4.25025 0
M  V30 14115 N 1319.76 4.54152 -5.23181 0
M  V30 14116 N 1321.55 3.81454 -4.12855 0
M  V30 14117 H 1313.7 0.535534 -2.05538 0
M  V30 14118 H 1315.97 0.299006 -0.899611 0
M  V30 14119 H 1315.67 1.65484 -3.10335 0
M  V30 14120 H 1315.55 3.11122 -2.13267 0
M  V30 14121 H 1317.93 2.67753 -1.24067 0
M  V30 14122 H 1318.02 1.22387 -2.24622 0
M  V30 14123 H 1317.66 2.66721 -4.32229 0
M  V30 14124 H 1317.59 4.11478 -3.28623 0
M  V30 14125 H 1320.08 2.68412 -2.66014 0
M  V30 14126 H 1320.39 5.03084 -5.86623 0
M  V30 14127 H 1318.74 4.52964 -5.27113 0
M  V30 14128 H 1321.93 3.26494 -3.35439 0
M  V30 14129 H 1322.1 4.33523 -4.81624 0
M  V30 14130 N 1315.51 1.01404 1.20644 0
M  V30 14131 C 1316.73 0.720839 1.9447 0
M  V30 14132 C 1317.16 -0.711711 1.74116 0
M  V30 14133 O 1316.52 -1.48938 1.03379 0
M  V30 14134 C 1316.57 1.05864 3.4471 0
M  V30 14135 O 1315.67 0.168901 4.12054 0
M  V30 14136 H 1315.01 0.267698 0.607646 0
M  V30 14137 H 1317.54 1.35672 1.53147 0
M  V30 14138 H 1317.55 1.00928 3.9532 0
M  V30 14139 H 1316.23 2.1024 3.58848 0
M  V30 14140 H 1314.8 0.275572 3.7188 0
M  V30 14141 N 1316.99 -1.36373 0.789944 0
M  V30 14142 C 1317.94 -2.27425 0.161798 0
M  V30 14143 C 1318.92 -1.46983 -0.654583 0
M  V30 14144 O 1320.11 -1.69355 -0.51457 0
M  V30 14145 C 1317.24 -3.36043 -0.702128 0
M  V30 14146 C 1316.33 -4.23921 0.123071 0
M  V30 14147 N 1316.72 -4.91895 1.17784 0
M  V30 14148 C 1315.02 -4.45892 -0.0980072 0
M  V30 14149 C 1315.72 -5.56905 1.68023 0
M  V30 14150 N 1314.69 -5.34521 0.989371 0
M  V30 14151 H 1318.5 -2.77463 0.969093 0
M  V30 14152 H 1316.01 -1.49705 0.629458 0
M  V30 14153 H 1318.01 -4.00203 -1.16805 0
M  V30 14154 H 1316.67 -2.8756 -1.50796 0
M  V30 14155 H 1317.68 -4.93838 1.56027 0
M  V30 14156 H 1314.36 -4.08243 -0.874307 0
M  V30 14157 H 1315.75 -6.21185 2.56085 0
M  V30 14158 N 1318.47 -0.542005 -1.47987 0
M  V30 14159 C 1319.69 -0.0146835 -2.07395 0
M  V30 14160 C 1320.12 1.26266 -1.39422 0
M  V30 14161 O 1319.47 1.75259 -0.464118 0
M  V30 14162 C 1319.52 0.179937 -3.60151 0
M  V30 14163 O 1318.63 1.24596 -3.93128 0
M  V30 14164 H 1317.97 -0.0445076 -0.662507 0
M  V30 14165 H 1320.5 -0.753352 -1.90226 0
M  V30 14166 H 1320.51 0.398876 -4.06046 0
M  V30 14167 H 1319.18 -0.753093 -4.09025 0
M  V30 14168 H 1317.76 1.00872 -3.58997 0
M  V30 14169 N 1319.94 1.55134 -0.277709 0
M  V30 14170 C 1320.89 2.2263 0.608637 0
M  V30 14171 C 1321.86 1.20067 1.14774 0
M  V30 14172 O 1323.05 1.48617 1.19657 0
M  V30 14173 C 1320.19 2.95308 1.78571 0
M  V30 14174 C 1319.3 4.12595 1.28021 0
M  V30 14175 C 1318.43 4.7291 2.41929 0
M  V30 14176 C 1317.47 5.82386 1.88395 0
M  V30 14177 N 1316.61 6.36754 2.95786 0
M  V30 14178 H 1321.45 2.97988 0.0264138 0
M  V30 14179 H 1318.99 1.471 0.00127068 0
M  V30 14180 H 1320.94 3.35662 2.47764 0
M  V30 14181 H 1319.57 2.22368 2.33992 0
M  V30 14182 H 1318.63 3.77343 0.481297 0
M  V30 14183 H 1319.94 4.91537 0.848128 0
M  V30 14184 H 1319.09 5.15997 3.1911 0
M  V30 14185 H 1317.83 3.93251 2.88453 0
M  V30 14186 H 1316.84 5.38746 1.09694 0
M  V30 14187 H 1318.06 6.63916 1.42803 0
M  V30 14188 H 1316.01 5.59987 3.41687 0
M  V30 14189 H 1315.92 7.10975 2.57002 0
M  V30 14190 H 1317.19 6.845 3.72935 0
M  V30 14191 N 1321.42 0.00503138 1.57599 0
M  V30 14192 C 1322.33 -1.00097 2.12174 0
M  V30 14193 C 1323.35 -1.37353 1.06818 0
M  V30 14194 O 1324.52 -1.45984 1.38747 0
M  V30 14195 C 1321.59 -2.27252 2.61835 0
M  V30 14196 C 1320.65 -1.96262 3.81811 0
M  V30 14197 C 1319.88 -3.17355 4.29094 0
M  V30 14198 O 1320.11 -4.2921 3.75679 0
M  V30 14199 O 1319.04 -3.01059 5.21198 0
M  V30 14200 H 1322.87 -0.567024 2.9836 0
M  V30 14201 H 1320.45 -0.214109 1.47858 0
M  V30 14202 H 1322.33 -3.01944 2.93952 0
M  V30 14203 H 1321.01 -2.69875 1.78744 0
M  V30 14204 H 1319.91 -1.19031 3.54658 0
M  V30 14205 H 1321.25 -1.58473 4.65991 0
M  V30 14206 N 1322.9 -1.55308 -0.267798 0
M  V30 14207 C 1323.86 -1.87765 -1.31442 0
M  V30 14208 C 1324.86 -0.752571 -1.42102 0
M  V30 14209 O 1326.05 -1.02072 -1.41163 0
M  V30 14210 C 1323.18 -2.08754 -2.69508 0
M  V30 14211 H 1324.38 -2.8133 -1.03891 0
M  V30 14212 H 1321.93 -1.47879 -0.506111 0
M  V30 14213 H 1322.67 -1.17588 -3.02231 0
M  V30 14214 H 1322.45 -2.90674 -2.63156 0
M  V30 14215 H 1323.94 -2.3512 -3.4512 0
M  V30 14216 N 1324.38 0.532545 -1.4833 0
M  V30 14217 C 1325.34 1.61955 -1.62183 0
M  V30 14218 C 1326.34 1.52982 -0.495281 0
M  V30 14219 O 1327.53 1.56698 -0.761005 0
M  V30 14220 C 1324.66 3.0157 -1.58961 0
M  V30 14221 H 1325.86 1.51013 -2.59105 0
M  V30 14222 H 1323.41 0.754405 -1.36888 0
M  V30 14223 H 1324.14 3.18021 -0.635069 0
M  V30 14224 H 1323.93 3.09491 -2.40744 0
M  V30 14225 H 1325.42 3.80604 -1.71843 0
M  V30 14226 N 1325.86 1.36875 0.78122 0
M  V30 14227 C 1327.1 1.31299 1.53639 0
M  V30 14228 C 1327.42 -0.104942 1.94717 0
M  V30 14229 O 1326.69 -1.04696 1.65576 0
M  V30 14230 H 1325.27 0.483032 0.569815 0
M  V30 14231 H 1327.94 1.71261 0.930359 0
M  V30 14232 H 1327.03 1.94581 2.44018 0
M  V30 14233 N 1327.33 -1.00632 1.21289 0
M  V30 14234 C 1328.74 -1.55838 1.02817 0
M  V30 14235 C 1329.1 -1.91816 -0.412425 0
M  V30 14236 O 1328.22 -1.73342 -1.29543 0
M  V30 14237 C 1328.82 -2.83168 1.86014 0
M  V30 14238 C 1327.37 -3.34865 1.71879 0
M  V30 14239 C 1326.52 -2.0807 1.83309 0
M  V30 14240 H 1329.47 -0.828939 1.3533 0
M  V30 14241 H 1329.49 -3.54996 1.36961 0
M  V30 14242 H 1329.01 -2.56951 2.90857 0
M  V30 14243 H 1327.11 -3.6602 0.697153 0
M  V30 14244 H 1327.22 -4.06374 2.53766 0
M  V30 14245 H 1325.58 -2.21006 1.26603 0
M  V30 14246 H 1326.37 -1.84267 2.89656 0
M  V30 14247 N 1328.81 -1.02043 -1.20104 0
M  V30 14248 C 1330.22 -0.742954 -1.71281 0
M  V30 14249 C 1330.57 0.738173 -1.81784 0
M  V30 14250 O 1329.7 1.57588 -1.48307 0
M  V30 14251 C 1330.29 -1.342 -3.11088 0
M  V30 14252 C 1328.85 -1.11331 -3.59559 0
M  V30 14253 C 1328 -1.44532 -2.36655 0
M  V30 14254 H 1330.95 -1.18942 -1.05064 0
M  V30 14255 H 1330.97 -0.734558 -3.73342 0
M  V30 14256 H 1330.48 -2.41998 -3.03411 0
M  V30 14257 H 1328.58 -0.05317 -3.72562 0
M  V30 14258 H 1328.7 -1.79606 -4.4416 0
M  V30 14259 H 1327.06 -0.864431 -2.39582 0
M  V30 14260 H 1327.84 -2.53394 -2.31616 0
M  V30 14261 N 1330.29 1.35952 -0.797165 0
M  V30 14262 C 1331.2 2.33726 -0.202271 0
M  V30 14263 C 1332.22 1.61415 0.649719 0
M  V30 14264 O 1333.39 1.93351 0.563686 0
M  V30 14265 C 1330.46 3.40612 0.64685 0
M  V30 14266 C 1329.52 4.28712 -0.224536 0
M  V30 14267 C 1328.75 5.30493 0.584153 0
M  V30 14268 O 1328.97 5.40599 1.81957 0
M  V30 14269 O 1327.91 6.01897 -0.0200239 0
M  V30 14270 H 1331.73 2.86383 -1.01087 0
M  V30 14271 H 1329.32 1.38557 -0.558768 0
M  V30 14272 H 1331.2 4.05944 1.1308 0
M  V30 14273 H 1329.88 2.90243 1.43321 0
M  V30 14274 H 1328.78 3.66394 -0.755415 0
M  V30 14275 H 1330.12 4.82454 -0.974603 0
M  V30 14276 N 1331.77 0.549846 1.47697 0
M  V30 14277 C 1332.73 -0.191427 2.28399 0
M  V30 14278 C 1333.73 -0.849533 1.36527 0
M  V30 14279 O 1334.92 -0.706526 1.59229 0
M  V30 14280 C 1332.05 -1.27907 3.15995 0
M  V30 14281 H 1333.25 0.517375 2.95404 0
M  V30 14282 H 1330.8 0.30651 1.53265 0
M  V30 14283 H 1331.53 -2.0205 2.53665 0
M  V30 14284 H 1331.32 -0.812066 3.83599 0
M  V30 14285 H 1332.81 -1.79992 3.76819 0
M  V30 14286 N 1333.25 -1.54984 0.285932 0
M  V30 14287 C 1334.66 -1.59455 -0.0679061 0
M  V30 14288 C 1334.86 -1.30308 -1.53695 0
M  V30 14289 O 1333.92 -1.06918 -2.28746 0
M  V30 14290 C 1335.23 -2.9903 0.316469 0
M  V30 14291 C 1336.78 -3.11885 0.263982 0
M  V30 14292 C 1337.25 -4.53744 0.622956 0
M  V30 14293 N 1338.75 -4.59618 0.574917 0
M  V30 14294 C 1339.48 -5.67429 0.825339 0
M  V30 14295 N 1338.98 -6.83341 1.14094 0
M  V30 14296 N 1340.77 -5.57028 0.75341 0
M  V30 14297 H 1332.92 -1.72194 1.2435 0
M  V30 14298 H 1335.18 -0.80348 0.503114 0
M  V30 14299 H 1334.89 -3.25232 1.33855 0
M  V30 14300 H 1334.76 -3.75688 -0.337371 0
M  V30 14301 H 1337.15 -2.85441 -0.748832 0
M  V30 14302 H 1337.23 -2.37416 0.952233 0
M  V30 14303 H 1336.88 -4.80915 1.63351 0
M  V30 14304 H 1336.81 -5.26528 -0.0872039 0
M  V30 14305 H 1339.3 -3.76356 0.341305 0
M  V30 14306 H 1339.61 -7.61471 1.3184 0
M  V30 14307 H 1337.95 -6.8493 1.17883 0
M  V30 14308 H 1341.15 -4.6535 0.506611 0
M  V30 14309 H 1341.32 -6.4097 0.95195 0
M  V30 14310 N 1334.72 -0.0133892 -1.57594 0
M  V30 14311 C 1335.95 0.682855 -1.95836 0
M  V30 14312 C 1336.37 1.65763 -0.889049 0
M  V30 14313 O 1335.73 1.80665 0.151585 0
M  V30 14314 C 1335.78 1.37931 -3.33178 0
M  V30 14315 O 1334.88 2.49416 -3.28429 0
M  V30 14316 H 1334.23 0.180629 -0.638959 0
M  V30 14317 H 1336.76 -0.0705644 -2.04478 0
M  V30 14318 H 1336.77 1.73969 -3.69051 0
M  V30 14319 H 1335.44 0.664675 -4.10554 0
M  V30 14320 H 1334.02 2.15606 -3.04251 0
M  V30 14321 N 1336.2 1.55448 0.259558 0
M  V30 14322 C 1337.11 1.92364 1.34289 0
M  V30 14323 C 1338.13 0.822492 1.53333 0
M  V30 14324 O 1339.3 1.12277 1.672 0
M  V30 14325 C 1336.37 2.19978 2.67975 0
M  V30 14326 C 1335.43 3.43454 2.57562 0
M  V30 14327 C 1334.66 3.69741 3.84873 0
M  V30 14328 O 1334.89 2.9831 4.86176 0
M  V30 14329 O 1333.82 4.63274 3.84267 0
M  V30 14330 H 1337.65 2.8461 1.05975 0
M  V30 14331 H 1335.23 1.42167 0.459239 0
M  V30 14332 H 1337.11 2.39104 3.46998 0
M  V30 14333 H 1335.79 1.30912 2.96047 0
M  V30 14334 H 1334.7 3.29649 1.76869 0
M  V30 14335 H 1336.03 4.32782 2.34437 0
M  V30 14336 N 1337.68 -0.524672 1.4861 0
M  V30 14337 C 1339.1 -0.853703 1.34848 0
M  V30 14338 C 1339.3 -1.98194 0.363529 0
M  V30 14339 O 1338.35 -2.51597 -0.213348 0
M  V30 14340 C 1339.67 -1.21622 2.75006 0
M  V30 14341 C 1341.21 -1.3258 2.83534 0
M  V30 14342 C 1341.69 -1.72172 4.24406 0
M  V30 14343 N 1343.18 -1.79265 4.27105 0
M  V30 14344 C 1343.91 -2.11296 5.33049 0
M  V30 14345 N 1343.41 -2.41714 6.49266 0
M  V30 14346 N 1345.2 -2.12347 5.20447 0
M  V30 14347 H 1337.35 0.219671 2.11261 0
M  V30 14348 H 1339.62 0.0356444 0.94733 0
M  V30 14349 H 1339.32 -0.460776 3.48669 0
M  V30 14350 H 1339.2 -2.16516 3.0887 0
M  V30 14351 H 1341.58 -2.072 2.10124 0
M  V30 14352 H 1341.67 -0.357943 2.53283 0
M  V30 14353 H 1341.31 -0.981108 4.98334 0
M  V30 14354 H 1341.24 -2.70017 4.52104 0
M  V30 14355 H 1343.73 -1.58013 3.43279 0
M  V30 14356 H 1344.04 -2.65276 7.25843 0
M  V30 14357 H 1342.39 -2.39222 6.52532 0
M  V30 14358 H 1345.58 -1.88044 4.28669 0
M  V30 14359 H 1345.75 -2.36978 6.03113 0
M  V30 14360 N 1339.16 -1.37287 -0.77395 0
M  V30 14361 C 1340.41 -1.32112 -1.5294 0
M  V30 14362 C 1340.73 0.0946137 -1.9477 0
M  V30 14363 O 1340 1.03817 -1.66129 0
M  V30 14364 H 1338.58 -0.486047 -0.567245 0
M  V30 14365 H 1341.24 -1.71752 -0.921263 0
M  V30 14366 H 1340.34 -1.95873 -2.42982 0
M  V30 14367 N 1340.64 0.999871 -1.21821 0
M  V30 14368 C 1342.05 1.26228 -0.976664 0
M  V30 14369 C 1342.25 1.98714 0.333915 0
M  V30 14370 O 1341.31 2.29252 1.05829 0
M  V30 14371 C 1342.62 2.08089 -2.1707 0
M  V30 14372 C 1344.17 2.21298 -2.21351 0
M  V30 14373 C 1344.64 3.06544 -3.40287 0
M  V30 14374 N 1346.14 3.14131 -3.40405 0
M  V30 14375 C 1346.87 3.80362 -4.29083 0
M  V30 14376 N 1346.37 4.48577 -5.27968 0
M  V30 14377 N 1348.16 3.77053 -4.16878 0
M  V30 14378 H 1340.31 0.513704 -2.06094 0
M  V30 14379 H 1342.57 0.289447 -0.902732 0
M  V30 14380 H 1342.28 1.62183 -3.12073 0
M  V30 14381 H 1342.15 3.08843 -2.16554 0
M  V30 14382 H 1344.54 2.66422 -1.269 0
M  V30 14383 H 1344.62 1.19997 -2.25908 0
M  V30 14384 H 1344.27 2.62122 -4.35034 0
M  V30 14385 H 1344.2 4.0797 -3.32969 0
M  V30 14386 H 1346.69 2.65576 -2.68846 0
M  V30 14387 H 1347 4.96833 -5.91926 0
M  V30 14388 H 1345.34 4.47348 -5.31888 0
M  V30 14389 H 1348.54 3.22918 -3.38883 0
M  V30 14390 H 1348.71 4.2839 -4.86195 0
M  V30 14391 N 1342.11 1.02678 1.19562 0
M  V30 14392 C 1343.36 0.72059 1.88817 0
M  V30 14393 C 1343.68 -0.752942 1.79877 0
M  V30 14394 O 1342.95 -1.54233 1.20785 0
M  V30 14395 H 1341.53 0.26355 0.698964 0
M  V30 14396 H 1344.2 1.30056 1.4516 0
M  V30 14397 H 1343.29 1.01303 2.95202 0
M  V30 14398 N 1343.59 -1.35528 0.804364 0
M  V30 14399 C 1345 -1.81321 0.444933 0
M  V30 14400 C 1345.35 -1.66816 -1.03281 0
M  V30 14401 O 1344.48 -1.19753 -1.80245 0
M  V30 14402 C 1345.07 -3.29199 0.800827 0
M  V30 14403 C 1343.63 -3.73144 0.494026 0
M  V30 14404 C 1342.78 -2.57557 1.02761 0
M  V30 14405 H 1345.73 -1.23537 0.996203 0
M  V30 14406 H 1345.75 -3.80375 0.0975117 0
M  V30 14407 H 1345.26 -3.39725 1.8764 0
M  V30 14408 H 1343.37 -3.68169 -0.572901 0
M  V30 14409 H 1343.48 -4.68005 1.0251 0
M  V30 14410 H 1341.84 -2.50692 0.450048 0
M  V30 14411 H 1342.63 -2.70861 2.10925 0
M  V30 14412 N 1345.07 -0.557671 -1.47404 0
M  V30 14413 C 1346.32 -0.0337216 -2.02072 0
M  V30 14414 C 1346.64 1.32106 -1.43433 0
M  V30 14415 O 1345.91 1.86171 -0.609692 0
M  V30 14416 H 1344.49 -0.00947648 -0.74694 0
M  V30 14417 H 1347.15 -0.727784 -1.80802 0
M  V30 14418 H 1346.25 0.0540331 -3.12053 0
M  V30 14419 N 1346.55 1.54831 -0.294147 0
M  V30 14420 C 1347.96 1.85627 0.199866 0
M  V30 14421 C 1348.31 1.21613 1.53964 0
M  V30 14422 O 1347.44 0.511317 2.10272 0
M  V30 14423 C 1348.03 3.3678 0.369428 0
M  V30 14424 C 1346.59 3.67633 0.807663 0
M  V30 14425 C 1345.74 2.7716 -0.0880078 0
M  V30 14426 H 1348.69 1.50099 -0.515371 0
M  V30 14427 H 1348.71 3.60913 1.20508 0
M  V30 14428 H 1348.22 3.83342 -0.605831 0
M  V30 14429 H 1346.32 3.26583 1.79372 0
M  V30 14430 H 1346.44 4.74916 0.631799 0
M  V30 14431 H 1344.8 2.51017 0.431553 0
M  V30 14432 H 1345.58 3.26542 -1.0595 0
M  V30 14433 N 1348.03 0.0217466 1.57585 0
M  V30 14434 C 1348.94 -0.978407 2.13224 0
M  V30 14435 C 1349.95 -1.36212 1.08269 0
M  V30 14436 O 1351.13 -1.44504 1.40288 0
M  V30 14437 C 1348.19 -2.24462 2.6423 0
M  V30 14438 C 1347.26 -1.92201 3.83871 0
M  V30 14439 C 1346.49 -3.12786 4.32436 0
M  V30 14440 O 1346.71 -4.25201 3.8021 0
M  V30 14441 O 1345.65 -2.95514 5.24362 0
M  V30 14442 H 1349.47 -0.535347 2.98944 0
M  V30 14443 H 1347.06 -0.198414 1.48077 0
M  V30 14444 H 1348.94 -2.98809 2.97138 0
M  V30 14445 H 1347.61 -2.67964 1.81596 0
M  V30 14446 H 1346.52 -1.15262 3.55901 0
M  V30 14447 H 1347.85 -1.53521 4.67645 0
M  V30 14448 N 1349.51 -1.55583 -0.251311 0
M  V30 14449 C 1350.75 -1.76859 -0.978031 0
M  V30 14450 C 1351.07 -0.584924 -1.86021 0
M  V30 14451 O 1350.34 0.399456 -1.91784 0
M  V30 14452 H 1348.92 -0.652252 -0.364111 0
M  V30 14453 H 1351.59 -1.93016 -0.270319 0
M  V30 14454 H 1350.68 -2.67828 -1.60233 0
M  V30 14455 N 1350.98 0.516783 -1.48886 0
M  V30 14456 C 1352.23 1.26936 -1.57263 0
M  V30 14457 C 1352.55 1.93337 -0.254156 0
M  V30 14458 O 1351.82 1.81977 0.725345 0
M  V30 14459 H 1350.4 0.4715 -0.579393 0
M  V30 14460 H 1353.06 0.600289 -1.85425 0
M  V30 14461 H 1352.16 2.04167 -2.36055 0
M  V30 14462 N 1352.46 1.37696 0.766659 0
M  V30 14463 C 1353.88 1.18607 1.06792 0
M  V30 14464 C 1354.08 0.0257195 2.01484 0
M  V30 14465 O 1353.13 -0.632608 2.44447 0
M  V30 14466 C 1354.45 2.50692 1.66054 0
M  V30 14467 C 1355.99 2.57259 1.78288 0
M  V30 14468 C 1356.47 3.89488 2.40963 0
M  V30 14469 N 1357.96 3.90957 2.48408 0
M  V30 14470 C 1358.7 4.90023 2.97767 0
M  V30 14471 N 1358.19 5.99485 3.4726 0
M  V30 14472 N 1359.98 4.77423 2.96688 0
M  V30 14473 H 1352.14 2.11951 0.138031 0
M  V30 14474 H 1354.4 0.939873 0.123863 0
M  V30 14475 H 1354.1 3.35989 1.03945 0
M  V30 14476 H 1353.98 2.68148 2.65286 0
M  V30 14477 H 1356.37 1.72366 2.39528 0
M  V30 14478 H 1356.45 2.43682 0.777981 0
M  V30 14479 H 1356.09 4.74797 1.8036 0
M  V30 14480 H 1356.02 4.0037 3.42069 0
M  V30 14481 H 1358.51 3.11888 2.13388 0
M  V30 14482 H 1358.82 6.71022 3.8334 0
M  V30 14483 H 1357.17 6.03123 3.45351 0
M  V30 14484 H 1360.36 3.91026 2.57325 0
M  V30 14485 H 1360.53 5.54783 3.34844 0
M  V30 14486 N 1353.94 -0.993397 1.22349 0
M  V30 14487 C 1355.36 -1.25708 0.983345 0
M  V30 14488 C 1355.56 -1.98888 -0.323372 0
M  V30 14489 O 1354.61 -2.2981 -1.04612 0
M  V30 14490 C 1355.92 -2.06935 2.1817 0
M  V30 14491 C 1357.47 -2.20121 2.22521 0
M  V30 14492 C 1357.95 -3.04735 3.41907 0
M  V30 14493 N 1359.44 -3.12322 3.42066 0
M  V30 14494 C 1360.17 -3.78081 4.31095 0
M  V30 14495 N 1359.67 -4.45771 5.3034 0
M  V30 14496 N 1361.46 -3.74837 4.18872 0
M  V30 14497 H 1353.61 -0.502767 2.06364 0
M  V30 14498 H 1355.88 -0.284656 0.904254 0
M  V30 14499 H 1355.58 -1.60525 3.12929 0
M  V30 14500 H 1355.46 -3.0769 2.18189 0
M  V30 14501 H 1357.84 -2.65745 1.28311 0
M  V30 14502 H 1357.92 -1.18798 2.26541 0
M  V30 14503 H 1357.57 -2.59811 4.36418 0
M  V30 14504 H 1357.5 -4.06198 3.35128 0
M  V30 14505 H 1359.99 -2.64146 2.7025 0
M  V30 14506 H 1360.3 -4.93687 5.94553 0
M  V30 14507 H 1358.65 -4.44521 5.34253 0
M  V30 14508 H 1361.84 -3.21116 3.40591 0
M  V30 14509 H 1362.01 -4.25806 4.8846 0
M  V30 14510 N 1355.42 -1.03311 -1.19015 0
M  V30 14511 C 1356.37 -0.588076 -2.20285 0
M  V30 14512 C 1357.35 0.365442 -1.56695 0
M  V30 14513 O 1358.54 0.185725 -1.76023 0
M  V30 14514 C 1355.67 0.0553478 -3.43255 0
M  V30 14515 C 1354.76 -0.920863 -4.13982 0
M  V30 14516 N 1355.15 -2.08495 -4.60829 0
M  V30 14517 C 1353.45 -0.74522 -4.3973 0
M  V30 14518 C 1354.15 -2.701 -5.1519 0
M  V30 14519 N 1353.12 -1.98031 -5.06246 0
M  V30 14520 H 1356.93 -1.47529 -2.54189 0
M  V30 14521 H 1354.44 -0.900663 -1.35136 0
M  V30 14522 H 1356.44 0.39182 -4.15055 0
M  V30 14523 H 1355.1 0.938199 -3.1085 0
M  V30 14524 H 1356.11 -2.46418 -4.5552 0
M  V30 14525 H 1352.79 0.088182 -4.17407 0
M  V30 14526 H 1354.18 -3.6871 -5.61696 0
M  V30 14527 N 1356.9 1.35099 -0.81154 0
M  V30 14528 C 1357.85 2.27139 -0.197958 0
M  V30 14529 C 1358.83 1.48006 0.631116 0
M  V30 14530 O 1360.02 1.70152 0.487562 0
M  V30 14531 C 1357.15 3.37118 0.648577 0
M  V30 14532 C 1356.24 4.23672 -0.190498 0
M  V30 14533 N 1356.63 4.89959 -1.25594 0
M  V30 14534 C 1354.93 4.45992 0.0270572 0
M  V30 14535 C 1355.63 5.54161 -1.76862 0
M  V30 14536 N 1354.6 5.32879 -1.07428 0
M  V30 14537 H 1358.4 2.75886 -1.01311 0
M  V30 14538 H 1355.92 1.48685 -0.653195 0
M  V30 14539 H 1357.92 4.0201 1.10423 0
M  V30 14540 H 1356.58 2.89922 1.46202 0
M  V30 14541 H 1357.59 4.91293 -1.63864 0
M  V30 14542 H 1354.26 4.09582 0.809248 0
M  V30 14543 H 1355.65 6.17032 -2.65935 0
M  V30 14544 N 1358.37 0.56548 1.47106 0
M  V30 14545 C 1359.79 0.225855 1.57994 0
M  V30 14546 C 1359.99 -1.27173 1.56299 0
M  V30 14547 O 1359.05 -2.05242 1.47078 0
M  V30 14548 C 1360.36 0.859829 2.88145 0
M  V30 14549 C 1361.91 0.831821 3.01744 0
M  V30 14550 C 1362.38 1.44502 4.34607 0
M  V30 14551 N 1363.87 1.40857 4.41263 0
M  V30 14552 C 1364.61 1.85258 5.42648 0
M  V30 14553 N 1364.1 2.37553 6.508 0
M  V30 14554 N 1365.9 1.76279 5.33744 0
M  V30 14555 H 1358.05 1.53837 1.46451 0
M  V30 14556 H 1360.31 0.642013 0.697512 0
M  V30 14557 H 1360.02 1.91264 2.95146 0
M  V30 14558 H 1359.89 0.357762 3.755 0
M  V30 14559 H 1362.28 -0.212319 2.94335 0
M  V30 14560 H 1362.36 1.37173 2.1591 0
M  V30 14561 H 1362 2.48827 4.42773 0
M  V30 14562 H 1361.93 0.880479 5.19187 0
M  V30 14563 H 1364.42 1.02614 3.63702 0
M  V30 14564 H 1364.74 2.69335 7.24347 0
M  V30 14565 H 1363.08 2.41569 6.51667 0
M  V30 14566 H 1366.27 1.35195 4.48152 0
M  V30 14567 H 1366.45 2.11199 6.12616 0
M  V30 14568 N 1359.85 -1.54672 0.302354 0
M  V30 14569 C 1361.27 -1.59519 -0.0509899 0
M  V30 14570 C 1361.47 -1.31931 -1.52304 0
M  V30 14571 O 1360.52 -1.09338 -2.27599 0
M  V30 14572 C 1361.84 -2.98678 0.348168 0
M  V30 14573 C 1363.39 -3.11587 0.297046 0
M  V30 14574 C 1363.86 -4.53057 0.671046 0
M  V30 14575 N 1365.35 -4.58983 0.623633 0
M  V30 14576 C 1366.09 -5.66522 0.885476 0
M  V30 14577 N 1365.58 -6.82092 1.21336 0
M  V30 14578 N 1367.38 -5.56198 0.812448 0
M  V30 14579 H 1359.53 -1.70865 1.2617 0
M  V30 14580 H 1361.79 -0.798099 0.511608 0
M  V30 14581 H 1361.5 -3.23794 1.37297 0
M  V30 14582 H 1361.37 -3.76025 -0.297505 0
M  V30 14583 H 1363.76 -2.86219 -0.718515 0
M  V30 14584 H 1363.84 -2.36392 0.977361 0
M  V30 14585 H 1363.48 -4.79155 1.68442 0
M  V30 14586 H 1363.41 -5.26591 -0.0313537 0
M  V30 14587 H 1365.9 -3.75972 0.381203 0
M  V30 14588 H 1366.22 -7.6003 1.39909 0
M  V30 14589 H 1364.56 -6.83641 1.25141 0
M  V30 14590 H 1367.75 -4.64787 0.555939 0
M  V30 14591 H 1367.92 -6.39924 1.01988 0
M  V30 14592 N 1361.33 -0.0301034 -1.57571 0
M  V30 14593 C 1362.58 0.647042 -1.91462 0
M  V30 14594 C 1362.9 1.72612 -0.907206 0
M  V30 14595 O 1362.17 1.95833 0.0511268 0
M  V30 14596 H 1360.75 0.241988 -0.706718 0
M  V30 14597 H 1363.41 -0.0781385 -1.94743 0
M  V30 14598 H 1362.51 1.09915 -2.92105 0
M  V30 14599 N 1362.81 1.55714 0.243056 0
M  V30 14600 C 1364.03 1.82126 0.992219 0
M  V30 14601 C 1364.46 0.607665 1.78014 0
M  V30 14602 O 1363.82 -0.443351 1.75796 0
M  V30 14603 C 1363.86 3.06314 1.90274 0
M  V30 14604 O 1362.97 2.83499 2.99503 0
M  V30 14605 H 1362.31 0.601082 0.282128 0
M  V30 14606 H 1364.84 2.02904 0.262881 0
M  V30 14607 H 1364.85 3.35849 2.31666 0
M  V30 14608 H 1363.52 3.94282 1.32344 0
M  V30 14609 H 1362.1 2.65141 2.62211 0
M  V30 14610 N 1364.29 -0.50888 1.49158 0
M  V30 14611 C 1365.7 -1.09054 1.51539 0
M  V30 14612 C 1366.05 -1.93938 0.297099 0
M  V30 14613 O 1365.17 -2.08092 -0.593849 0
M  V30 14614 C 1365.77 -1.98447 2.74599 0
M  V30 14615 C 1364.33 -2.5179 2.79783 0
M  V30 14616 C 1363.47 -1.29227 2.45348 0
M  V30 14617 H 1366.43 -0.293148 1.55969 0
M  V30 14618 H 1366.45 -2.83028 2.54314 0
M  V30 14619 H 1365.96 -1.3664 3.63251 0
M  V30 14620 H 1364.06 -3.17258 1.95392 0
M  V30 14621 H 1364.17 -2.89481 3.81756 0
M  V30 14622 H 1362.54 -1.61494 1.96957 0
M  V30 14623 H 1363.32 -0.6914 3.36266 0
M  V30 14624 N 1365.76 -1.381 -0.759346 0
M  V30 14625 C 1366.67 -1.37086 -1.9038 0
M  V30 14626 C 1367.69 -0.268738 -1.71912 0
M  V30 14627 O 1368.87 -0.506205 -1.94935 0
M  V30 14628 C 1365.93 -1.18905 -3.25672 0
M  V30 14629 C 1364.99 -2.3887 -3.56707 0
M  V30 14630 C 1364.23 -2.21546 -4.85544 0
M  V30 14631 O 1364.45 -1.20616 -5.57501 0
M  V30 14632 O 1363.38 -3.10009 -5.15924 0
M  V30 14633 H 1367.21 -2.33505 -1.94188 0
M  V30 14634 H 1364.79 -1.18959 -0.903826 0
M  V30 14635 H 1366.68 -1.10803 -4.06572 0
M  V30 14636 H 1365.35 -0.255675 -3.22689 0
M  V30 14637 H 1364.26 -2.52546 -2.75992 0
M  V30 14638 H 1365.59 -3.30817 -3.64446 0
M  V30 14639 N 1367.24 0.986894 -1.22875 0
M  V30 14640 C 1368.15 2.11232 -1.02069 0
M  V30 14641 C 1369.17 1.73969 0.0328424 0
M  V30 14642 O 1370.34 2.00754 -0.161197 0
M  V30 14643 C 1367.41 3.41337 -0.60747 0
M  V30 14644 C 1366.47 3.92665 -1.73531 0
M  V30 14645 C 1365.7 5.1656 -1.34171 0
M  V30 14646 O 1365.93 5.69964 -0.223106 0
M  V30 14647 O 1364.86 5.61791 -2.16041 0
M  V30 14648 H 1368.69 2.3167 -1.96374 0
M  V30 14649 H 1366.27 1.09607 -1.01522 0
M  V30 14650 H 1368.15 4.19613 -0.387661 0
M  V30 14651 H 1366.83 3.22244 0.306653 0
M  V30 14652 H 1365.74 3.15534 -2.0097 0
M  V30 14653 H 1367.07 4.162 -2.62751 0
M  V30 14654 N 1368.72 1.0394 1.18466 0
M  V30 14655 C 1369.68 0.633804 2.20262 0
M  V30 14656 C 1370.68 -0.308136 1.5782 0
M  V30 14657 O 1371.87 -0.0937087 1.73948 0
M  V30 14658 C 1369.01 -0.0709693 3.40826 0
M  V30 14659 H 1370.2 1.53463 2.57661 0
M  V30 14660 H 1367.75 0.831806 1.32328 0
M  V30 14661 H 1368.49 -0.985659 3.08958 0
M  V30 14662 H 1368.27 0.606023 3.87388 0
M  V30 14663 H 1369.76 -0.341298 4.16203 0
M  V30 14664 N 1370.2 -1.34667 0.818693 0
M  V30 14665 C 1371.16 -2.27908 0.243037 0
M  V30 14666 C 1372.16 -1.50106 -0.576622 0
M  V30 14667 O 1373.35 -1.69701 -0.393342 0
M  V30 14668 C 1370.48 -3.34455 -0.659759 0
M  V30 14669 H 1371.68 -2.80332 1.06555 0
M  V30 14670 H 1369.23 -1.44727 0.590237 0
M  V30 14671 H 1369.96 -2.87238 -1.50549 0
M  V30 14672 H 1369.75 -3.92031 -0.073567 0
M  V30 14673 H 1371.24 -4.04016 -1.05646 0
M  V30 14674 N 1371.68 -0.573274 -1.46804 0
M  V30 14675 C 1372.59 0.168081 -2.33997 0
M  V30 14676 C 1373.6 0.895652 -1.49178 0
M  V30 14677 O 1374.78 0.860951 -1.8207 0
M  V30 14678 C 1371.84 1.17483 -3.26188 0
M  V30 14679 C 1370.9 0.452956 -4.26904 0
M  V30 14680 C 1370.14 1.41175 -5.1469 0
M  V30 14681 O 1370.36 2.64767 -5.05227 0
M  V30 14682 O 1369.29 0.927472 -5.94711 0
M  V30 14683 H 1373.12 -0.547576 -2.98723 0
M  V30 14684 H 1370.71 -0.333747 -1.45624 0
M  V30 14685 H 1372.59 1.75557 -3.8309 0
M  V30 14686 H 1371.26 1.87213 -2.6407 0
M  V30 14687 H 1370.17 -0.169383 -3.73716 0
M  V30 14688 H 1371.5 -0.203186 -4.9178 0
M  V30 14689 N 1373.15 1.5451 -0.310553 0
M  V30 14690 C 1374.57 1.59543 0.0425296 0
M  V30 14691 C 1374.77 1.32737 1.51602 0
M  V30 14692 O 1373.83 1.10543 2.27016 0
M  V30 14693 C 1375.14 2.98489 -0.364002 0
M  V30 14694 C 1376.69 3.11425 -0.313566 0
M  V30 14695 C 1377.16 4.52695 -0.695064 0
M  V30 14696 N 1378.65 4.58645 -0.647966 0
M  V30 14697 C 1379.39 5.66044 -0.915508 0
M  V30 14698 N 1378.88 6.81439 -1.24951 0
M  V30 14699 N 1380.68 5.55759 -0.841933 0
M  V30 14700 H 1372.83 1.70194 -1.27074 0
M  V30 14701 H 1375.09 0.795374 -0.515833 0
M  V30 14702 H 1374.8 3.23061 -1.39012 0
M  V30 14703 H 1374.67 3.76177 0.27756 0
M  V30 14704 H 1377.06 2.86596 0.703326 0
M  V30 14705 H 1377.14 2.35871 -0.989883 0
M  V30 14706 H 1376.78 4.78255 -1.70981 0
M  V30 14707 H 1376.71 5.266 0.00342684 0
M  V30 14708 H 1379.2 3.75765 -0.401137 0
M  V30 14709 H 1379.52 7.59277 -1.43938 0
M  V30 14710 H 1377.86 6.82968 -1.28764 0
M  V30 14711 H 1381.05 4.64486 -0.58058 0
M  V30 14712 H 1381.23 6.39374 -1.0538 0
M  V30 14713 N 1374.63 0.0384594 1.57553 0
M  V30 14714 C 1375.54 -0.955737 2.14249 0
M  V30 14715 C 1376.56 -1.35056 1.09708 0
M  V30 14716 O 1377.74 -1.43008 1.41812 0
M  V30 14717 C 1374.8 -2.21647 2.66596 0
M  V30 14718 C 1373.86 -1.88119 3.85888 0
M  V30 14719 C 1373.09 -3.08182 4.35729 0
M  V30 14720 O 1373.32 -4.21145 3.84699 0
M  V30 14721 O 1372.25 -2.89936 5.27467 0
M  V30 14722 H 1376.08 -0.50361 2.99495 0
M  V30 14723 H 1373.66 -0.182698 1.48279 0
M  V30 14724 H 1375.54 -2.9564 3.00291 0
M  V30 14725 H 1374.22 -2.66022 1.84428 0
M  V30 14726 H 1373.13 -1.11481 3.57103 0
M  V30 14727 H 1374.46 -1.48553 4.69247 0
M  V30 14728 N 1376.11 -1.55841 -0.234795 0
M  V30 14729 C 1377.52 -1.68555 -0.802886 0
M  V30 14730 C 1377.87 -0.638107 -1.85533 0
M  V30 14731 O 1377 0.21333 -2.15346 0
M  V30 14732 C 1377.59 -3.0558 -1.46309 0
M  V30 14733 C 1376.15 -3.20192 -1.97874 0
M  V30 14734 C 1375.3 -2.64457 -0.834136 0
M  V30 14735 H 1378.25 -1.58697 -0.0103759 0
M  V30 14736 H 1378.27 -3.007 -2.33152 0
M  V30 14737 H 1377.78 -3.81792 -0.696868 0
M  V30 14738 H 1375.88 -2.48825 -2.77339 0
M  V30 14739 H 1376 -4.27251 -2.1678 0
M  V30 14740 H 1374.36 -2.22593 -1.23791 0
M  V30 14741 H 1375.14 -3.43205 -0.0807988 0
M  V30 14742 N 1377.59 0.500963 -1.49426 0
M  V30 14743 C 1379.01 0.832142 -1.36189 0
M  V30 14744 C 1379.21 1.9759 -0.395014 0
M  V30 14745 O 1378.26 2.51905 0.173294 0
M  V30 14746 C 1379.57 1.17232 -2.76907 0
M  V30 14747 C 1381.12 1.28052 -2.85607 0
M  V30 14748 C 1381.6 1.65399 -4.27092 0
M  V30 14749 N 1383.09 1.72448 -4.29902 0
M  V30 14750 C 1383.82 2.02789 -5.36343 0
M  V30 14751 N 1383.32 2.31354 -6.53029 0
M  V30 14752 N 1385.11 2.0404 -5.23759 0
M  V30 14753 H 1377.26 -0.253253 -2.10885 0
M  V30 14754 H 1379.53 -0.0507111 -0.946643 0
M  V30 14755 H 1379.23 0.405247 -3.49357 0
M  V30 14756 H 1379.11 2.11574 -3.12276 0
M  V30 14757 H 1381.49 2.03831 -2.13394 0
M  V30 14758 H 1381.57 0.317603 -2.53821 0
M  V30 14759 H 1381.22 0.901704 -4.99832 0
M  V30 14760 H 1381.15 2.6279 -4.56343 0
M  V30 14761 H 1383.64 1.52532 -3.45749 0
M  V30 14762 H 1383.95 2.53695 -7.29972 0
M  V30 14763 H 1382.3 2.28811 -6.56255 0
M  V30 14764 H 1385.49 1.812 -4.31606 0
M  V30 14765 H 1385.66 2.27353 -6.06807 0
M  V30 14766 N 1379.07 1.38501 0.752011 0
M  V30 14767 C 1380.48 1.19733 1.05529 0
M  V30 14768 C 1380.68 0.047088 2.01445 0
M  V30 14769 O 1379.74 -0.606645 2.45104 0
M  V30 14770 C 1381.05 2.52439 1.63386 0
M  V30 14771 C 1382.6 2.59136 1.7555 0
M  V30 14772 C 1383.08 3.92022 2.36819 0
M  V30 14773 N 1384.57 3.9357 2.44248 0
M  V30 14774 C 1385.3 4.93154 2.92553 0
M  V30 14775 N 1384.8 6.03135 3.40882 0
M  V30 14776 N 1386.59 4.80543 2.91607 0
M  V30 14777 H 1378.74 2.12085 0.115543 0
M  V30 14778 H 1381 0.941134 0.113888 0
M  V30 14779 H 1380.71 3.37072 1.00376 0
M  V30 14780 H 1380.58 2.70947 2.62427 0
M  V30 14781 H 1382.97 1.74897 2.37687 0
M  V30 14782 H 1383.05 2.44494 0.752092 0
M  V30 14783 H 1382.7 4.76684 1.75314 0
M  V30 14784 H 1382.63 4.03976 3.37803 0
M  V30 14785 H 1385.12 3.14133 2.10068 0
M  V30 14786 H 1385.43 6.7505 3.76201 0
M  V30 14787 H 1383.78 6.06752 3.38935 0
M  V30 14788 H 1386.97 3.93733 2.53163 0
M  V30 14789 H 1387.14 5.58303 3.28941 0
M  V30 14790 N 1380.55 -0.980364 1.23396 0
M  V30 14791 C 1381.5 -2.05753 0.982323 0
M  V30 14792 C 1382.48 -1.6074 -0.0716939 0
M  V30 14793 O 1383.67 -1.76442 0.140438 0
M  V30 14794 C 1380.8 -3.38442 0.575481 0
M  V30 14795 C 1379.89 -3.90054 1.6649 0
M  V30 14796 N 1380.28 -4.14744 2.89519 0
M  V30 14797 C 1378.58 -4.18588 1.53949 0
M  V30 14798 C 1379.28 -4.56877 3.60053 0
M  V30 14799 N 1378.25 -4.61309 2.87567 0
M  V30 14800 H 1382.05 -2.22801 1.91669 0
M  V30 14801 H 1379.57 -1.16314 1.13335 0
M  V30 14802 H 1381.57 -4.15197 0.376477 0
M  V30 14803 H 1380.23 -3.22788 -0.351844 0
M  V30 14804 H 1381.24 -4.02566 3.25824 0
M  V30 14805 H 1377.91 -4.11937 0.679275 0
M  V30 14806 H 1379.3 -4.84498 4.65523 0
M  V30 14807 N 1382.02 -1.04567 -1.17913 0
M  V30 14808 C 1383.44 -0.76584 -1.40025 0
M  V30 14809 C 1383.64 0.642484 -1.90983 0
M  V30 14810 O 1382.7 1.40589 -2.0974 0
M  V30 14811 C 1384.01 -1.81616 -2.39658 0
M  V30 14812 C 1385.56 -1.83765 -2.53376 0
M  V30 14813 C 1386.03 -2.87803 -3.56277 0
M  V30 14814 N 1387.52 -2.86726 -3.63789 0
M  V30 14815 C 1388.26 -3.63876 -4.4315 0
M  V30 14816 N 1387.75 -4.50793 -5.26077 0
M  V30 14817 N 1389.55 -3.52344 -4.37962 0
M  V30 14818 H 1381.7 -1.95442 -0.831647 0
M  V30 14819 H 1383.96 -0.84593 -0.42791 0
M  V30 14820 H 1383.67 -2.8266 -2.09275 0
M  V30 14821 H 1383.54 -1.65251 -3.39075 0
M  V30 14822 H 1385.93 -0.833896 -2.83073 0
M  V30 14823 H 1386.01 -2.04208 -1.54055 0
M  V30 14824 H 1385.65 -3.88361 -3.2732 0
M  V30 14825 H 1385.58 -2.64614 -4.55288 0
M  V30 14826 H 1388.07 -2.237 -3.04576 0
M  V30 14827 H 1388.39 -5.0636 -5.83798 0
M  V30 14828 H 1386.73 -4.54858 -5.2548 0
M  V30 14829 H 1389.92 -2.8384 -3.72226 0
M  V30 14830 H 1390.1 -4.12718 -4.99568 0
M  V30 14831 N 1383.5 1.34231 -0.825823 0
M  V30 14832 C 1384.46 2.27776 -0.25512 0
M  V30 14833 C 1385.46 1.50409 0.568654 0
M  V30 14834 O 1386.65 1.69907 0.384337 0
M  V30 14835 C 1383.79 3.348 0.642013 0
M  V30 14836 H 1384.98 2.79763 -1.0804 0
M  V30 14837 H 1382.53 1.44412 -0.597904 0
M  V30 14838 H 1383.27 2.88032 1.49024 0
M  V30 14839 H 1383.05 3.92064 0.0527756 0
M  V30 14840 H 1384.54 4.0457 1.03502 0
M  V30 14841 N 1384.98 0.581051 1.46498 0
M  V30 14842 C 1385.93 -0.174031 2.27335 0
M  V30 14843 C 1386.91 -0.863391 1.35773 0
M  V30 14844 O 1388.11 -0.75776 1.59959 0
M  V30 14845 C 1385.23 -1.18814 3.22084 0
M  V30 14846 C 1384.32 -0.500978 4.21131 0
M  V30 14847 N 1384.71 0.442495 5.03861 0
M  V30 14848 C 1383.01 -0.751932 4.39616 0
M  V30 14849 C 1383.71 0.843944 5.75545 0
M  V30 14850 N 1382.69 0.19346 5.43256 0
M  V30 14851 H 1386.49 0.551004 2.88689 0
M  V30 14852 H 1384 0.402722 1.57327 0
M  V30 14853 H 1386 -1.74325 3.78703 0
M  V30 14854 H 1384.66 -1.91401 2.62289 0
M  V30 14855 H 1385.67 0.817931 5.114 0
M  V30 14856 H 1382.35 -1.46451 3.90971 0
M  V30 14857 H 1383.74 1.62058 6.52063 0
M  V30 14858 N 1386.46 -1.54343 0.318742 0
M  V30 14859 C 1387.87 -1.59564 -0.034068 0
M  V30 14860 C 1388.07 -1.33539 -1.50896 0
M  V30 14861 O 1387.13 -1.11746 -2.26427 0
M  V30 14862 C 1388.44 -2.98291 0.379827 0
M  V30 14863 C 1389.99 -3.11255 0.330078 0
M  V30 14864 C 1390.47 -4.5232 0.719061 0
M  V30 14865 N 1391.96 -4.58295 0.67228 0
M  V30 14866 C 1392.69 -5.65551 0.945513 0
M  V30 14867 N 1392.19 -6.80767 1.28563 0
M  V30 14868 N 1393.98 -5.55305 0.871394 0
M  V30 14869 H 1386.13 -1.69518 1.27975 0
M  V30 14870 H 1388.39 -0.792627 0.520044 0
M  V30 14871 H 1388.1 -3.22319 1.40724 0
M  V30 14872 H 1387.97 -3.76319 -0.257606 0
M  V30 14873 H 1390.36 -2.86965 -0.688117 0
M  V30 14874 H 1390.44 -2.35342 1.00238 0
M  V30 14875 H 1390.09 -4.77342 1.73515 0
M  V30 14876 H 1390.02 -5.26594 0.0245001 0
M  V30 14877 H 1392.51 -3.75547 0.421059 0
M  V30 14878 H 1392.82 -7.58503 1.47963 0
M  V30 14879 H 1391.17 -6.82275 1.32385 0
M  V30 14880 H 1394.36 -4.64171 0.605205 0
M  V30 14881 H 1394.53 -6.38806 1.08769 0
M  V30 14882 N 1387.94 -0.0468143 -1.5753 0
M  V30 14883 C 1388.89 0.938619 -2.07783 0
M  V30 14884 C 1389.87 1.27454 -0.982057 0
M  V30 14885 O 1391.06 1.25769 -1.24544 0
M  V30 14886 C 1388.19 2.21499 -2.62285 0
M  V30 14887 C 1387.28 1.90665 -3.78824 0
M  V30 14888 N 1387.67 1.30174 -4.88762 0
M  V30 14889 C 1385.97 2.20559 -3.87646 0
M  V30 14890 C 1386.67 1.16872 -5.69838 0
M  V30 14891 N 1385.64 1.67016 -5.17307 0
M  V30 14892 H 1389.44 0.466179 -2.90179 0
M  V30 14893 H 1386.96 0.157752 -1.61632 0
M  V30 14894 H 1388.96 2.92987 -2.96588 0
M  V30 14895 H 1387.62 2.69353 -1.81326 0
M  V30 14896 H 1388.63 0.974495 -5.08649 0
M  V30 14897 H 1385.3 2.70964 -3.17623 0
M  V30 14898 H 1386.69 0.699463 -6.68249 0
M  V30 14899 N 1389.41 1.55964 0.226527 0
M  V30 14900 C 1390.35 1.88487 1.30405 0
M  V30 14901 C 1391.36 0.772723 1.43293 0
M  V30 14902 O 1392.55 1.05099 1.44279 0
M  V30 14903 C 1389.65 2.074 2.68027 0
M  V30 14904 C 1388.82 3.38389 2.77149 0
M  V30 14905 C 1387.88 3.46795 3.95752 0
M  V30 14906 O 1386.91 4.19862 3.84323 0
M  V30 14907 N 1388.11 2.77573 5.09836 0
M  V30 14908 H 1390.87 2.81506 1.02833 0
M  V30 14909 H 1388.43 1.56449 0.416581 0
M  V30 14910 H 1390.43 2.10344 3.45742 0
M  V30 14911 H 1389 1.2103 2.8822 0
M  V30 14912 H 1388.22 3.47586 1.8595 0
M  V30 14913 H 1389.5 4.24688 2.8021 0
M  V30 14914 H 1388.9 2.17979 5.22017 0
M  V30 14915 H 1387.46 2.86185 5.85612 0
M  V30 14916 N 1390.89 -0.493031 1.4969 0
M  V30 14917 C 1392.17 -1.25436 1.50084 0
M  V30 14918 C 1392.55 -2.0981 0.233038 0
M  V30 14919 O 1391.9 -2.14617 -0.784342 0
M  V30 14920 C 1392.11 -2.10425 2.78428 0
M  V30 14921 C 1393.46 -2.69349 3.28232 0
M  V30 14922 O 1394.48 -2.20686 2.796 0
M  V30 14923 O 1393.34 -3.57956 4.12953 0
M  V30 14924 H 1390.43 -0.568044 0.601045 0
M  V30 14925 H 1392.98 -0.506648 1.6196 0
M  V30 14926 H 1391.75 -1.48108 3.62187 0
M  V30 14927 H 1391.37 -2.92374 2.6945 0
M  V30 14928 N 1392.37 -1.38898 -0.744656 0
M  V30 14929 C 1393.78 -1.31789 -1.32244 0
M  V30 14930 C 1394.13 0.0222208 -1.96187 0
M  V30 14931 O 1393.26 0.924328 -1.95666 0
M  V30 14932 C 1393.85 -2.38674 -2.40458 0
M  V30 14933 C 1392.41 -2.35116 -2.93935 0
M  V30 14934 C 1391.56 -2.21069 -1.67403 0
M  V30 14935 H 1394.51 -1.49126 -0.54287 0
M  V30 14936 H 1394.53 -2.04905 -3.20615 0
M  V30 14937 H 1394.04 -3.36197 -1.9389 0
M  V30 14938 H 1392.14 -1.41201 -3.44809 0
M  V30 14939 H 1392.26 -3.29602 -3.47706 0
M  V30 14940 H 1390.62 -1.68074 -1.91372 0
M  V30 14941 H 1391.4 -3.20547 -1.229 0
M  V30 14942 N 1393.85 0.973806 -1.23914 0
M  V30 14943 C 1395.07 1.7564 -1.10296 0
M  V30 14944 C 1395.5 1.84984 0.340954 0
M  V30 14945 O 1394.86 1.31629 1.24674 0
M  V30 14946 C 1394.9 3.15809 -1.7406 0
M  V30 14947 O 1394.01 3.99911 -1.00722 0
M  V30 14948 H 1393.35 0.540133 -0.386202 0
M  V30 14949 H 1395.88 1.22197 -1.64101 0
M  V30 14950 H 1395.89 3.66359 -1.79568 0
M  V30 14951 H 1394.56 3.08324 -2.79122 0
M  V30 14952 H 1393.14 3.58405 -1.02956 0
M  V30 14953 N 1395.33 1.05191 1.17357 0
M  V30 14954 C 1396.27 0.652868 2.21374 0
M  V30 14955 C 1397.24 -0.344974 1.62478 0
M  V30 14956 O 1398.43 -0.23639 1.8933 0
M  V30 14957 C 1395.57 0.0337737 3.45083 0
M  V30 14958 C 1394.68 1.08045 4.18271 0
M  V30 14959 C 1393.82 0.428673 5.29468 0
M  V30 14960 C 1392.86 1.45966 5.94441 0
M  V30 14961 N 1391.99 0.832042 6.97152 0
M  V30 14962 H 1396.83 1.54434 2.54861 0
M  V30 14963 H 1394.37 0.772365 1.25192 0
M  V30 14964 H 1396.33 -0.342607 4.15791 0
M  V30 14965 H 1394.96 -0.821159 3.12181 0
M  V30 14966 H 1394.01 1.57466 3.46278 0
M  V30 14967 H 1395.32 1.86305 4.62701 0
M  V30 14968 H 1394.48 -0.00129344 6.067 0
M  V30 14969 H 1393.21 -0.385919 4.86171 0
M  V30 14970 H 1392.22 1.89964 5.1594 0
M  V30 14971 H 1393.44 2.27615 6.39819 0
M  V30 14972 H 1391.39 0.0379612 6.55989 0
M  V30 14973 H 1391.31 1.55219 7.39894 0
M  V30 14974 H 1392.58 0.42685 7.7833 0
M  V30 14975 N 1396.8 -1.33791 0.83293 0
M  V30 14976 C 1397.71 -2.33108 0.264169 0
M  V30 14977 C 1398.73 -1.6308 -0.606694 0
M  V30 14978 O 1399.91 -1.94777 -0.512225 0
M  V30 14979 C 1396.97 -3.42208 -0.556315 0
M  V30 14980 C 1396.03 -4.27966 0.338123 0
M  V30 14981 C 1395.27 -5.31856 -0.443297 0
M  V30 14982 O 1395.49 -5.45234 -1.6756 0
M  V30 14983 O 1394.42 -6.01632 0.179599 0
M  V30 14984 H 1398.25 -2.83602 1.08645 0
M  V30 14985 H 1395.83 -1.37027 0.595307 0
M  V30 14986 H 1397.72 -4.088 -1.02277 0
M  V30 14987 H 1396.39 -2.9394 -1.35575 0
M  V30 14988 H 1395.3 -3.64262 0.852293 0
M  V30 14989 H 1396.63 -4.79701 1.10217 0
M  V30 14990 N 1398.28 -0.588812 -1.46187 0
M  V30 14991 C 1399.51 -0.0806571 -2.07243 0
M  V30 14992 C 1399.93 1.21766 -1.43369 0
M  V30 14993 O 1399.29 1.73694 -0.51964 0
M  V30 14994 C 1399.34 0.065267 -3.60541 0
M  V30 14995 O 1398.44 1.12026 -3.96893 0
M  V30 14996 H 1397.78 -0.0655622 -0.660755 0
M  V30 14997 H 1400.31 -0.813489 -1.87733 0
M  V30 14998 H 1400.32 0.269494 -4.07109 0
M  V30 14999 H 1399 -0.88284 -4.06422 0
M  V30 15000 H 1397.58 0.894 -3.62025 0
M  V30 15001 N 1399.76 1.54172 -0.326923 0
M  V30 15002 C 1401.17 1.86009 0.160446 0
M  V30 15003 C 1401.52 1.24851 1.51349 0
M  V30 15004 O 1400.65 0.555804 2.09141 0
M  V30 15005 C 1401.24 3.37488 0.297909 0
M  V30 15006 C 1399.8 3.69263 0.7295 0
M  V30 15007 C 1398.95 2.76911 -0.146778 0
M  V30 15008 H 1401.9 1.48972 -0.547093 0
M  V30 15009 H 1401.92 3.63388 1.12825 0
M  V30 15010 H 1401.43 3.81971 -0.687007 0
M  V30 15011 H 1399.53 3.30314 1.72404 0
M  V30 15012 H 1399.65 4.76149 0.53092 0
M  V30 15013 H 1398.01 2.51876 0.378212 0
M  V30 15014 H 1398.79 3.24221 -1.12852 0
M  V30 15015 N 1401.24 0.0551678 1.57503 0
M  V30 15016 C 1402.65 -0.3014 1.56728 0
M  V30 15017 C 1402.85 -1.71169 1.06317 0
M  V30 15018 O 1401.91 -2.4197 0.721566 0
M  V30 15019 C 1403.22 -0.12622 3.00435 0
M  V30 15020 C 1404.77 -0.197022 3.12379 0
M  V30 15021 C 1405.25 -0.0503235 4.57972 0
M  V30 15022 N 1406.74 -0.106471 4.63078 0
M  V30 15023 C 1407.47 -0.0171325 5.73397 0
M  V30 15024 N 1406.97 0.124781 6.92688 0
M  V30 15025 N 1408.76 -0.0730028 5.62053 0
M  V30 15026 H 1400.91 0.977072 1.88592 0
M  V30 15027 H 1403.18 0.37963 0.868668 0
M  V30 15028 H 1402.88 0.846286 3.41366 0
M  V30 15029 H 1402.76 -0.885574 3.66657 0
M  V30 15030 H 1405.14 -1.16 2.71345 0
M  V30 15031 H 1405.22 0.593155 2.48828 0
M  V30 15032 H 1404.87 0.909352 4.99693 0
M  V30 15033 H 1404.8 -0.859695 5.19535 0
M  V30 15034 H 1407.29 -0.215241 3.77287 0
M  V30 15035 H 1407.6 0.185548 7.72577 0
M  V30 15036 H 1405.95 0.15992 6.94816 0
M  V30 15037 H 1409.14 -0.182456 4.67744 0
M  V30 15038 H 1409.31 7.85052e-05 6.48 0
M  V30 15039 N 1402.72 -1.56081 -0.218252 0
M  V30 15040 C 1403.65 -1.89176 -1.29403 0
M  V30 15041 C 1404.66 -0.780312 -1.42881 0
M  V30 15042 O 1405.85 -1.05863 -1.4372 0
M  V30 15043 C 1402.95 -2.08818 -2.66923 0
M  V30 15044 C 1402.12 -3.39854 -2.75351 0
M  V30 15045 C 1401.18 -3.48889 -3.93908 0
M  V30 15046 O 1400.21 -4.21894 -3.82091 0
M  V30 15047 N 1401.41 -2.80273 -5.08357 0
M  V30 15048 H 1404.18 -2.82047 -1.01338 0
M  V30 15049 H 1401.74 -1.56667 -0.408278 0
M  V30 15050 H 1403.73 -2.12175 -3.44622 0
M  V30 15051 H 1402.3 -1.22557 -2.87574 0
M  V30 15052 H 1401.52 -3.48568 -1.84104 0
M  V30 15053 H 1402.81 -4.26168 -2.77954 0
M  V30 15054 H 1402.2 -2.20744 -5.20854 0
M  V30 15055 H 1400.76 -2.89286 -5.84086 0
M  V30 15056 N 1404.2 0.485086 -1.49949 0
M  V30 15057 C 1405.44 1.23571 -1.5992 0
M  V30 15058 C 1405.76 1.92754 -0.295108 0
M  V30 15059 O 1405.03 1.83474 0.686582 0
M  V30 15060 H 1403.61 0.459104 -0.589264 0
M  V30 15061 H 1406.28 0.560822 -1.86657 0
M  V30 15062 H 1405.37 1.99114 -2.40333 0
M  V30 15063 N 1405.67 1.39291 0.737279 0
M  V30 15064 C 1407.09 1.20845 1.04253 0
M  V30 15065 C 1407.29 0.0684513 2.01384 0
M  V30 15066 O 1406.35 -0.580615 2.45734 0
M  V30 15067 C 1407.66 2.54158 1.60699 0
M  V30 15068 C 1409.21 2.60983 1.72791 0
M  V30 15069 C 1409.68 3.94511 2.32647 0
M  V30 15070 N 1411.17 3.96138 2.4006 0
M  V30 15071 C 1411.91 4.96229 2.87306 0
M  V30 15072 N 1411.4 6.06716 3.34465 0
M  V30 15073 N 1413.2 4.83609 2.86494 0
M  V30 15074 H 1405.35 2.12196 0.0930416 0
M  V30 15075 H 1407.61 0.942289 0.103899 0
M  V30 15076 H 1407.32 3.38118 0.96795 0
M  V30 15077 H 1407.19 2.73715 2.59538 0
M  V30 15078 H 1409.58 1.77408 2.35818 0
M  V30 15079 H 1409.66 2.45278 0.726118 0
M  V30 15080 H 1409.3 4.78516 1.70249 0
M  V30 15081 H 1409.23 4.07536 3.33499 0
M  V30 15082 H 1411.72 3.16344 2.06725 0
M  V30 15083 H 1412.04 6.79002 3.6902 0
M  V30 15084 H 1410.38 6.10313 3.3248 0
M  V30 15085 H 1413.57 3.96396 2.48973 0
M  V30 15086 H 1413.75 5.6176 3.23001 0
M  V30 15087 N 1407.15 -0.967221 1.24429 0
M  V30 15088 C 1408.11 -2.04344 1.03808 0
M  V30 15089 C 1409.11 -1.60799 -0.00476972 0
M  V30 15090 O 1410.3 -1.72591 0.236241 0
M  V30 15091 C 1407.44 -3.36041 0.573496 0
M  V30 15092 H 1408.63 -2.2407 1.9933 0
M  V30 15093 H 1406.18 -1.14253 1.06658 0
M  V30 15094 H 1406.92 -3.22008 -0.384898 0
M  V30 15095 H 1406.7 -3.68991 1.32619 0
M  V30 15096 H 1408.19 -4.15165 0.450272 0
M  V30 15097 N 1408.63 -1.05812 -1.16797 0
M  V30 15098 C 1409.59 -0.668766 -2.19226 0
M  V30 15099 C 1410.59 0.28299 -1.5829 0
M  V30 15100 O 1411.78 0.0660233 -1.74075 0
M  V30 15101 C 1408.91 0.0167379 -3.40896 0
M  V30 15102 H 1410.11 -1.57543 -2.55187 0
M  V30 15103 H 1407.66 -0.852753 -1.30988 0
M  V30 15104 H 1408.4 0.936382 -3.10487 0
M  V30 15105 H 1408.18 -0.667576 -3.86375 0
M  V30 15106 H 1409.67 0.275041 -4.16693 0
M  V30 15107 N 1410.11 1.33347 -0.840014 0
M  V30 15108 C 1411.52 1.50615 -0.52795 0
M  V30 15109 C 1411.72 1.77993 0.944493 0
M  V30 15110 O 1410.78 1.84087 1.72824 0
M  V30 15111 C 1412.09 2.66001 -1.40228 0
M  V30 15112 C 1413.64 2.79886 -1.40117 0
M  V30 15113 C 1414.12 3.98335 -2.26038 0
M  V30 15114 N 1415.61 4.05572 -2.23753 0
M  V30 15115 C 1416.34 4.96422 -2.86972 0
M  V30 15116 N 1415.84 5.9238 -3.59247 0
M  V30 15117 N 1417.63 4.89428 -2.76436 0
M  V30 15118 H 1409.78 1.13839 -1.79317 0
M  V30 15119 H 1412.04 0.559772 -0.765088 0
M  V30 15120 H 1411.75 2.52453 -2.44868 0
M  V30 15121 H 1411.62 3.61434 -1.07914 0
M  V30 15122 H 1414.01 2.92865 -0.362487 0
M  V30 15123 H 1414.09 1.85211 -1.76439 0
M  V30 15124 H 1413.74 3.86115 -3.29966 0
M  V30 15125 H 1413.67 4.92257 -1.87057 0
M  V30 15126 H 1416.16 3.36899 -1.71195 0
M  V30 15127 H 1416.47 6.58367 -4.04688 0
M  V30 15128 H 1414.82 5.92451 -3.63354 0
M  V30 15129 H 1418.01 4.13428 -2.19534 0
M  V30 15130 H 1418.18 5.60032 -3.25989 0
M  V30 15131 N 1411.59 0.596556 1.45873 0
M  V30 15132 C 1412.55 -0.118666 2.28893 0
M  V30 15133 C 1413.55 -0.805668 1.3916 0
M  V30 15134 O 1414.74 -0.655511 1.61396 0
M  V30 15135 C 1411.87 -1.17789 3.19904 0
M  V30 15136 H 1413.06 0.611093 2.93608 0
M  V30 15137 H 1410.62 0.355115 1.52212 0
M  V30 15138 H 1411.35 -1.93878 2.59965 0
M  V30 15139 H 1411.14 -0.689616 3.85988 0
M  V30 15140 H 1412.63 -1.67912 3.82355 0
M  V30 15141 N 1413.06 -1.53996 0.335095 0
M  V30 15142 C 1414.03 -2.23385 -0.513015 0
M  V30 15143 C 1415.03 -1.23117 -1.03435 0
M  V30 15144 O 1416.22 -1.47616 -0.924944 0
M  V30 15145 C 1413.35 -2.94691 -1.71377 0
M  V30 15146 H 1414.54 -2.99753 0.0937306 0
M  V30 15147 H 1412.09 -1.56061 0.086326 0
M  V30 15148 H 1412.83 -2.22488 -2.35944 0
M  V30 15149 H 1412.61 -3.68228 -1.34723 0
M  V30 15150 H 1414.1 -3.47525 -2.31552 0
M  V30 15151 N 1414.54 -0.0635198 -1.57472 0
M  V30 15152 C 1415.95 0.470372 -1.80678 0
M  V30 15153 C 1416.3 1.70158 -0.976771 0
M  V30 15154 O 1415.43 2.15502 -0.196893 0
M  V30 15155 C 1416.02 0.860129 -3.277 0
M  V30 15156 C 1414.58 1.33893 -3.51781 0
M  V30 15157 C 1413.73 0.320078 -2.75447 0
M  V30 15158 H 1416.68 -0.289295 -1.56041 0
M  V30 15159 H 1416.7 1.72216 -3.39296 0
M  V30 15160 H 1416.21 -0.0361525 -3.88083 0
M  V30 15161 H 1414.31 2.25399 -2.96692 0
M  V30 15162 H 1414.43 1.32257 -4.60483 0
M  V30 15163 H 1412.79 0.795601 -2.41955 0
M  V30 15164 H 1413.57 -0.568332 -3.38563 0
M  V30 15165 N 1416.02 1.56195 0.209972 0
M  V30 15166 C 1417.44 1.49446 0.56018 0
M  V30 15167 C 1417.64 0.760799 1.86585 0
M  V30 15168 O 1416.69 0.305201 2.50649 0
M  V30 15169 C 1418 2.94054 0.628687 0
M  V30 15170 C 1419.55 3.04641 0.718531 0
M  V30 15171 C 1420.03 4.50631 0.81828 0
M  V30 15172 N 1421.52 4.54721 0.8822 0
M  V30 15173 C 1422.25 5.64976 0.979292 0
M  V30 15174 N 1421.75 6.84955 1.03961 0
M  V30 15175 N 1423.54 5.52854 1.01533 0
M  V30 15176 H 1415.69 2.02316 -0.646674 0
M  V30 15177 H 1417.96 0.920063 -0.228446 0
M  V30 15178 H 1417.66 3.50728 -0.261324 0
M  V30 15179 H 1417.54 3.46592 1.48842 0
M  V30 15180 H 1419.92 2.48026 1.59898 0
M  V30 15181 H 1420 2.55254 -0.167102 0
M  V30 15182 H 1419.65 5.07867 -0.0577557 0
M  V30 15183 H 1419.58 4.97736 1.7195 0
M  V30 15184 H 1422.07 3.68322 0.845433 0
M  V30 15185 H 1422.38 7.64732 1.11379 0
M  V30 15186 H 1420.73 6.87643 1.00854 0
M  V30 15187 H 1423.92 4.58046 0.96494 0
M  V30 15188 H 1424.09 6.38809 1.08754 0
M  V30 15189 N 1417.5 -0.477127 1.50204 0
M  V30 15190 C 1418.91 -0.81037 1.37496 0
M  V30 15191 C 1419.11 -1.96937 0.426399 0
M  V30 15192 O 1418.17 -2.52148 -0.133197 0
M  V30 15193 C 1419.48 -1.12811 2.78737 0
M  V30 15194 C 1421.03 -1.23492 2.87608 0
M  V30 15195 C 1421.51 -1.58583 4.29669 0
M  V30 15196 N 1423 -1.65586 4.32591 0
M  V30 15197 C 1423.73 -1.94231 5.39502 0
M  V30 15198 N 1423.23 -2.20936 6.56627 0
M  V30 15199 N 1425.02 -1.95682 5.26939 0
M  V30 15200 H 1417.17 0.286771 2.10455 0
M  V30 15201 H 1419.43 0.0657649 0.945716 0
M  V30 15202 H 1419.14 -0.349616 3.49958 0
M  V30 15203 H 1419.01 -2.0658 3.15602 0
M  V30 15204 H 1421.4 -2.0041 2.1661 0
M  V30 15205 H 1421.48 -0.277182 2.54294 0
M  V30 15206 H 1421.13 -0.822071 5.01203 0
M  V30 15207 H 1421.06 -2.55497 4.60466 0
M  V30 15208 H 1423.55 -1.47012 3.48132 0
M  V30 15209 H 1423.86 -2.42049 7.33916 0
M  V30 15210 H 1422.21 -2.18341 6.59812 0
M  V30 15211 H 1425.4 -1.74311 4.34434 0
M  V30 15212 H 1425.57 -2.1767 6.10347 0
M  V30 15213 N 1418.98 -1.3968 -0.729882 0
M  V30 15214 C 1420.39 -1.33184 -1.30839 0
M  V30 15215 C 1420.74 0.00141129 -1.962 0
M  V30 15216 O 1419.86 0.903523 -1.96635 0
M  V30 15217 C 1420.46 -2.41211 -2.37913 0
M  V30 15218 C 1419.02 -2.3822 -2.91424 0
M  V30 15219 C 1418.16 -2.22832 -1.65049 0
M  V30 15220 H 1421.12 -1.49694 -0.527023 0
M  V30 15221 H 1421.14 -2.08294 -3.18424 0
M  V30 15222 H 1420.65 -3.38234 -1.90313 0
M  V30 15223 H 1418.75 -1.4485 -3.43292 0
M  V30 15224 H 1418.86 -3.33271 -3.44191 0
M  V30 15225 H 1417.23 -1.70095 -1.89578 0
M  V30 15226 H 1418.01 -3.21832 -1.19494 0
M  V30 15227 N 1420.45 0.960609 -1.2494 0
M  V30 15228 C 1421.87 1.51915 -1.0853 0
M  V30 15229 C 1422.22 1.93215 0.340949 0
M  V30 15230 O 1421.34 1.78031 1.2302 0
M  V30 15231 C 1421.94 2.76069 -1.96396 0
M  V30 15232 C 1420.5 3.28255 -1.84189 0
M  V30 15233 C 1419.64 2.01124 -1.90905 0
M  V30 15234 H 1422.59 0.778141 -1.38314 0
M  V30 15235 H 1422.61 3.49668 -1.50042 0
M  V30 15236 H 1422.13 2.45979 -3.00193 0
M  V30 15237 H 1420.23 3.6318 -0.832518 0
M  V30 15238 H 1420.34 3.96675 -2.68673 0
M  V30 15239 H 1418.7 2.16155 -1.34718 0
M  V30 15240 H 1419.49 1.73389 -2.96295 0
M  V30 15241 N 1421.93 1.0643 1.16234 0
M  V30 15242 C 1423.16 0.802671 1.91238 0
M  V30 15243 C 1423.58 -0.637222 1.76978 0
M  V30 15244 O 1422.94 -1.44419 1.09603 0
M  V30 15245 C 1422.99 1.20389 3.3991 0
M  V30 15246 O 1422.09 0.343516 4.10967 0
M  V30 15247 H 1421.43 0.29323 0.595745 0
M  V30 15248 H 1423.96 1.42046 1.47255 0
M  V30 15249 H 1423.97 1.17604 3.90683 0
M  V30 15250 H 1422.65 2.2527 3.49608 0
M  V30 15251 H 1421.23 0.433051 3.70377 0
M  V30 15252 N 1423.41 -1.329 0.847073 0
M  V30 15253 C 1424.66 -1.9712 0.445872 0
M  V30 15254 C 1424.98 -1.67398 -1.00014 0
M  V30 15255 O 1424.25 -0.977204 -1.69787 0
M  V30 15256 H 1422.83 -0.729247 0.161887 0
M  V30 15257 H 1425.49 -1.62118 1.08184 0
M  V30 15258 H 1424.59 -3.06575 0.584676 0
M  V30 15259 N 1424.89 -0.604284 -1.45555 0
M  V30 15260 C 1425.85 0.106526 -2.28952 0
M  V30 15261 C 1426.85 0.798277 -1.39586 0
M  V30 15262 O 1428.04 0.646943 -1.61741 0
M  V30 15263 C 1425.17 1.16091 -3.20524 0
M  V30 15264 H 1426.37 -0.626655 -2.9328 0
M  V30 15265 H 1423.92 -0.363183 -1.52022 0
M  V30 15266 H 1424.65 1.92496 -2.6099 0
M  V30 15267 H 1424.44 0.669137 -3.86348 0
M  V30 15268 H 1425.93 1.65882 -3.8324 0
M  V30 15269 N 1426.37 1.53816 -0.343257 0
M  V30 15270 C 1427.78 1.86169 0.140709 0
M  V30 15271 C 1428.13 1.26449 1.50017 0
M  V30 15272 O 1427.25 0.577955 2.08539 0
M  V30 15273 C 1427.85 3.37785 0.262097 0
M  V30 15274 C 1426.41 3.70016 0.690294 0
M  V30 15275 C 1425.55 2.7674 -0.17614 0
M  V30 15276 H 1428.51 1.48383 -0.562863 0
M  V30 15277 H 1428.53 3.64564 1.08964 0
M  V30 15278 H 1428.04 3.81221 -0.727481 0
M  V30 15279 H 1426.14 3.32124 1.68891 0
M  V30 15280 H 1426.25 4.76686 0.480388 0
M  V30 15281 H 1424.62 2.52263 0.351476 0
M  V30 15282 H 1425.4 3.23006 -1.16285 0
M  V30 15283 N 1427.84 0.0718701 1.57436 0
M  V30 15284 C 1429.09 -0.596052 1.9311 0
M  V30 15285 C 1429.41 -1.70146 0.952652 0
M  V30 15286 O 1428.68 -1.959 0.000812941 0
M  V30 15287 H 1427.26 -0.223165 0.712886 0
M  V30 15288 H 1429.93 0.129744 1.94468 0
M  V30 15289 H 1429.02 -1.02132 2.94916 0
M  V30 15290 N 1429.32 -1.56304 -0.201686 0
M  V30 15291 C 1430.57 -1.79881 -0.921269 0
M  V30 15292 C 1430.89 -0.643809 -1.84065 0
M  V30 15293 O 1430.16 0.338239 -1.92958 0
M  V30 15294 H 1428.74 -0.663506 -0.343175 0
M  V30 15295 H 1431.4 -1.93779 -0.208775 0
M  V30 15296 H 1430.5 -2.7279 -1.51631 0
M  V30 15297 N 1430.8 0.469154 -1.50455 0
M  V30 15298 C 1432.05 1.21868 -1.61222 0
M  V30 15299 C 1432.37 1.9243 -0.315535 0
M  V30 15300 O 1431.64 1.84192 0.667083 0
M  V30 15301 H 1430.22 0.452828 -0.594101 0
M  V30 15302 H 1432.88 0.540993 -1.87241 0
M  V30 15303 H 1431.98 1.96554 -2.42431 0
M  V30 15304 N 1432.28 1.40065 0.722464 0
M  V30 15305 C 1433.19 1.42086 1.86678 0
M  V30 15306 C 1434.2 0.314223 1.71139 0
M  V30 15307 O 1435.38 0.55771 1.93524 0
M  V30 15308 C 1432.45 1.27498 3.22405 0
M  V30 15309 C 1431.51 2.48243 3.50248 0
M  V30 15310 C 1430.74 2.34342 4.79499 0
M  V30 15311 O 1430.96 1.35355 5.54108 0
M  V30 15312 O 1429.9 3.23579 5.07523 0
M  V30 15313 H 1433.72 2.38571 1.87929 0
M  V30 15314 H 1431.31 1.21314 0.871968 0
M  V30 15315 H 1433.19 1.21543 4.03491 0
M  V30 15316 H 1431.86 0.341141 3.21897 0
M  V30 15317 H 1430.77 2.59775 2.69199 0
M  V30 15318 H 1432.1 3.40364 3.55547 0
M  V30 15319 N 1433.76 -0.95397 1.25448 0
M  V30 15320 C 1435.17 -1.22516 1.02284 0
M  V30 15321 C 1435.37 -1.99816 -0.259933 0
M  V30 15322 O 1434.43 -2.33022 -0.972479 0
M  V30 15323 C 1435.74 -1.9989 2.24643 0
M  V30 15324 C 1437.29 -2.1293 2.29412 0
M  V30 15325 C 1437.77 -2.93703 3.51429 0
M  V30 15326 N 1439.26 -3.01281 3.51829 0
M  V30 15327 C 1439.99 -3.64174 4.42905 0
M  V30 15328 N 1439.49 -4.28673 5.44253 0
M  V30 15329 N 1441.28 -3.61321 4.30585 0
M  V30 15330 H 1433.43 -0.436859 2.07859 0
M  V30 15331 H 1435.69 -0.255744 0.912852 0
M  V30 15332 H 1435.4 -1.50489 3.17877 0
M  V30 15333 H 1435.27 -3.00593 2.27868 0
M  V30 15334 H 1437.66 -2.61528 1.367 0
M  V30 15335 H 1437.74 -1.1153 2.30206 0
M  V30 15336 H 1437.39 -2.45795 4.44463 0
M  V30 15337 H 1437.32 -3.95331 3.47881 0
M  V30 15338 H 1439.81 -2.55414 2.78517 0
M  V30 15339 H 1440.12 -4.74522 6.09958 0
M  V30 15340 H 1438.47 -4.27299 5.48125 0
M  V30 15341 H 1441.66 -3.10118 3.50634 0
M  V30 15342 H 1441.83 -4.1005 5.0176 0
M  V30 15343 N 1435.24 -1.07045 -1.15668 0
M  V30 15344 C 1436.48 -0.790172 -1.86013 0
M  V30 15345 C 1436.8 0.685663 -1.82548 0
M  V30 15346 O 1436.07 1.49644 -1.26426 0
M  V30 15347 H 1434.65 -0.28931 -0.688701 0
M  V30 15348 H 1437.32 -1.35354 -1.40233 0
M  V30 15349 H 1436.41 -1.1219 -2.91239 0
M  V30 15350 N 1436.71 1.32449 -0.85411 0
M  V30 15351 C 1437.96 1.96881 -0.45632 0
M  V30 15352 C 1438.28 1.67926 0.991248 0
M  V30 15353 O 1437.55 0.986195 1.69266 0
M  V30 15354 H 1436.13 0.728378 -0.165752 0
M  V30 15355 H 1438.79 1.61542 -1.09042 0
M  V30 15356 H 1437.89 3.0626 -0.600927 0
M  V30 15357 N 1438.19 0.611994 1.45232 0
M  V30 15358 C 1439.15 -0.0943825 2.29006 0
M  V30 15359 C 1440.15 -0.790863 1.40007 0
M  V30 15360 O 1441.34 -0.638356 1.62082 0
M  V30 15361 C 1438.48 -1.1439 3.21135 0
M  V30 15362 H 1439.67 0.6422 2.92943 0
M  V30 15363 H 1437.22 0.37124 1.51827 0
M  V30 15364 H 1437.96 -1.9111 2.62007 0
M  V30 15365 H 1437.74 -0.648638 3.86698 0
M  V30 15366 H 1439.23 -1.63848 3.84114 0
M  V30 15367 N 1439.67 -1.53632 0.351409 0
M  V30 15368 C 1440.92 -2.00643 -0.242208 0
M  V30 15369 C 1441.24 -1.24074 -1.50435 0
M  V30 15370 O 1440.51 -0.350067 -1.92747 0
M  V30 15371 H 1439.09 -0.741252 -0.0924904 0
M  V30 15372 H 1441.75 -1.89039 0.474379 0
M  V30 15373 H 1440.85 -3.084 -0.479151 0
M  V30 15374 N 1441.15 -0.0802183 -1.57396 0
M  V30 15375 C 1442.11 0.869437 -2.12069 0
M  V30 15376 C 1443.11 1.22079 -1.04658 0
M  V30 15377 O 1444.3 1.15267 -1.3061 0
M  V30 15378 C 1441.43 2.17016 -2.62901 0
M  V30 15379 H 1442.63 0.394952 -2.97288 0
M  V30 15380 H 1440.18 0.168597 -1.55388 0
M  V30 15381 H 1440.91 2.68983 -1.8116 0
M  V30 15382 H 1440.7 1.92808 -3.4142 0
M  V30 15383 H 1442.19 2.84982 -3.05246 0
M  V30 15384 N 1442.63 1.56409 0.193394 0
M  V30 15385 C 1443.59 1.93822 1.22334 0
M  V30 15386 C 1444.59 0.819513 1.3835 0
M  V30 15387 O 1445.78 1.0869 1.36132 0
M  V30 15388 C 1442.91 2.21375 2.59241 0
M  V30 15389 H 1444.1 2.85967 0.903502 0
M  V30 15390 H 1441.66 1.50125 0.43498 0
M  V30 15391 H 1442.39 1.31874 2.96277 0
M  V30 15392 H 1442.18 3.02899 2.48988 0
M  V30 15393 H 1443.67 2.51319 3.33509 0
M  V30 15394 N 1444.1 -0.461169 1.50702 0
M  V30 15395 C 1445.07 -1.54032 1.69725 0
M  V30 15396 C 1446.07 -1.50445 0.567707 0
M  V30 15397 O 1447.26 -1.52889 0.834901 0
M  V30 15398 C 1444.39 -2.93642 1.73168 0
M  V30 15399 H 1445.58 -1.38478 2.66015 0
M  V30 15400 H 1443.13 -0.688235 1.40332 0
M  V30 15401 H 1443.87 -3.14629 0.786078 0
M  V30 15402 H 1443.65 -2.97652 2.55236 0
M  V30 15403 H 1445.14 -3.71972 1.89807 0
M  V30 15404 N 1445.58 -1.40446 -0.715026 0
M  V30 15405 C 1446.99 -1.34564 -1.29419 0
M  V30 15406 C 1447.34 -0.0193984 -1.9619 0
M  V30 15407 O 1446.47 0.882616 -1.97582 0
M  V30 15408 C 1447.06 -2.43721 -2.35342 0
M  V30 15409 C 1445.62 -2.41297 -2.88881 0
M  V30 15410 C 1444.77 -2.2457 -1.62676 0
M  V30 15411 H 1447.72 -1.50244 -0.511116 0
M  V30 15412 H 1447.74 -2.1166 -3.16197 0
M  V30 15413 H 1447.25 -3.40234 -1.86715 0
M  V30 15414 H 1445.35 -1.48483 -3.41736 0
M  V30 15415 H 1445.47 -3.36903 -3.40637 0
M  V30 15416 H 1443.83 -1.72096 -1.87763 0
M  V30 15417 H 1444.61 -3.23082 -1.16074 0
M  V30 15418 N 1447.06 0.947303 -1.25952 0
M  V30 15419 C 1448.31 1.68945 -1.10915 0
M  V30 15420 C 1448.63 1.91848 0.349216 0
M  V30 15421 O 1447.9 1.5108 1.24706 0
M  V30 15422 H 1446.48 0.626086 -0.407462 0
M  V30 15423 H 1449.14 1.13854 -1.58187 0
M  V30 15424 H 1448.24 2.6657 -1.62317 0
M  V30 15425 N 1448.54 1.07657 1.15099 0
M  V30 15426 C 1449.95 0.823828 1.67541 0
M  V30 15427 C 1450.3 -0.650601 1.85099 0
M  V30 15428 O 1449.43 -1.50333 1.55657 0
M  V30 15429 C 1450.02 1.4889 3.04331 0
M  V30 15430 C 1448.58 1.28359 3.53837 0
M  V30 15431 C 1447.73 1.55659 2.2949 0
M  V30 15432 H 1450.68 1.23819 0.992699 0
M  V30 15433 H 1450.7 0.911848 3.69412 0
M  V30 15434 H 1450.21 2.56199 2.9152 0
M  V30 15435 H 1448.31 0.230864 3.71884 0
M  V30 15436 H 1448.42 2.00593 4.35085 0
M  V30 15437 H 1446.79 0.977755 2.35185 0
M  V30 15438 H 1447.57 2.64157 2.19263 0
M  V30 15439 N 1450.02 -1.31994 0.861122 0
M  V30 15440 C 1450.98 -2.27019 0.315421 0
M  V30 15441 C 1451.98 -1.51864 -0.528575 0
M  V30 15442 O 1453.17 -1.70867 -0.339154 0
M  V30 15443 C 1450.3 -3.36384 -0.553021 0
M  V30 15444 H 1451.49 -2.768 1.1542 0
M  V30 15445 H 1449.05 -1.42776 0.635982 0
M  V30 15446 H 1449.78 -2.91882 -1.41335 0
M  V30 15447 H 1449.57 -3.92067 0.0511919 0
M  V30 15448 H 1451.06 -4.07172 -0.927392 0
M  V30 15449 N 1451.49 -0.619688 -1.44906 0
M  V30 15450 C 1452.43 0.130316 -2.28829 0
M  V30 15451 C 1453.44 0.820039 -1.40639 0
M  V30 15452 O 1454.63 0.683401 -1.649 0
M  V30 15453 C 1451.73 1.20618 -3.16709 0
M  V30 15454 C 1450.9 0.60121 -4.33248 0
M  V30 15455 C 1449.96 1.56954 -5.02247 0
M  V30 15456 O 1448.99 1.09112 -5.58644 0
M  V30 15457 N 1450.19 2.90395 -5.02644 0
M  V30 15458 H 1452.95 -0.589867 -2.93838 0
M  V30 15459 H 1450.51 -0.460028 -1.55227 0
M  V30 15460 H 1452.51 1.85404 -3.59732 0
M  V30 15461 H 1451.08 1.82873 -2.53528 0
M  V30 15462 H 1450.3 -0.225015 -3.93557 0
M  V30 15463 H 1451.58 0.177471 -5.0849 0
M  V30 15464 H 1450.98 3.31855 -4.58136 0
M  V30 15465 H 1449.54 3.50572 -5.49493 0
M  V30 15466 N 1452.97 1.53444 -0.359552 0
M  V30 15467 C 1454.22 2.00769 0.231564 0
M  V30 15468 C 1454.54 1.2487 1.49775 0
M  V30 15469 O 1453.81 0.360284 1.92558 0
M  V30 15470 H 1452.39 0.741732 0.0885581 0
M  V30 15471 H 1455.05 1.88785 -0.484397 0
M  V30 15472 H 1454.15 3.0865 0.462789 0
M  V30 15473 N 1454.45 0.0885642 1.57351 0
M  V30 15474 C 1455.41 -0.858178 2.12528 0
M  V30 15475 C 1456.41 -1.21522 1.05304 0
M  V30 15476 O 1457.6 -1.14573 1.3122 0
M  V30 15477 C 1454.74 -2.15619 2.64048 0
M  V30 15478 H 1455.93 -0.37918 2.97493 0
M  V30 15479 H 1453.48 -0.160354 1.55475 0
M  V30 15480 H 1454.22 -2.68018 1.82584 0
M  V30 15481 H 1454 -1.90995 3.42437 0
M  V30 15482 H 1455.49 -2.83359 3.06753 0
M  V30 15483 N 1455.93 -1.56509 -0.185096 0
M  V30 15484 C 1456.89 -1.94468 -1.21305 0
M  V30 15485 C 1457.89 -0.826838 -1.37913 0
M  V30 15486 O 1459.08 -1.09411 -1.35554 0
M  V30 15487 C 1456.21 -2.22747 -2.58063 0
M  V30 15488 H 1457.41 -2.86442 -0.888323 0
M  V30 15489 H 1454.96 -1.50354 -0.427012 0
M  V30 15490 H 1455.69 -1.33443 -2.95573 0
M  V30 15491 H 1455.48 -3.04215 -2.47378 0
M  V30 15492 H 1456.97 -2.53084 -3.32172 0
M  V30 15493 N 1457.41 0.45317 -1.50944 0
M  V30 15494 C 1458.65 1.21354 -1.64476 0
M  V30 15495 C 1459.01 1.88859 -0.345879 0
M  V30 15496 O 1460.21 2.66421 -0.356808 0
M  V30 15497 C 1458.48 2.21565 -2.80435 0
M  V30 15498 S 1460.04 3.06302 -3.14205 0
M  V30 15499 H 1456.86 0.411762 -0.579632 0
M  V30 15500 H 1459.46 0.50762 -1.88795 0
M  V30 15501 H 1458.17 1.70585 -3.73268 0
M  V30 15502 H 1457.7 2.96761 -2.58257 0
M  V30 15503 H 1459.71 4.22988 -2.59414 0
M  V30 15504 N 1458.88 1.40823 0.707568 0
M  V30 15505 C 1460.11 1.43061 1.50161 0
M  V30 15506 C 1460.53 0.0342144 1.88069 0
M  V30 15507 O 1459.89 -0.959674 1.53818 0
M  V30 15508 C 1459.94 2.33459 2.74826 0
M  V30 15509 O 1459.04 1.78336 3.71847 0
M  V30 15510 H 1458.39 0.48602 0.452417 0
M  V30 15511 H 1460.92 1.85147 0.870742 0
M  V30 15512 H 1460.93 2.48922 3.23267 0
M  V30 15513 H 1459.6 3.34927 2.46571 0
M  V30 15514 H 1458.18 1.7226 3.30728 0
M  V30 15515 N 1460.36 -0.94061 1.26453 0
M  V30 15516 C 1461.78 -1.21424 1.03578 0
M  V30 15517 C 1461.98 -2.00081 -0.238726 0
M  V30 15518 O 1461.03 -2.3404 -0.947709 0
M  V30 15519 C 1462.35 -1.97496 2.26751 0
M  V30 15520 C 1463.9 -2.10485 2.31657 0
M  V30 15521 C 1464.37 -2.89959 3.54525 0
M  V30 15522 N 1465.86 -2.97533 3.55005 0
M  V30 15523 C 1466.6 -3.59456 4.46742 0
M  V30 15524 N 1466.09 -4.22876 5.48769 0
M  V30 15525 N 1467.89 -3.56734 4.34393 0
M  V30 15526 H 1460.04 -0.414788 2.08311 0
M  V30 15527 H 1462.3 -0.246047 0.915513 0
M  V30 15528 H 1462.01 -1.47109 3.19456 0
M  V30 15529 H 1461.88 -2.98159 2.31043 0
M  V30 15530 H 1464.27 -2.60064 1.39466 0
M  V30 15531 H 1464.35 -1.09082 2.31376 0
M  V30 15532 H 1463.99 -2.41067 4.47045 0
M  V30 15533 H 1463.92 -3.91619 3.52054 0
M  V30 15534 H 1466.41 -2.52446 2.81211 0
M  V30 15535 H 1466.73 -4.68026 6.14956 0
M  V30 15536 H 1465.07 -4.21461 5.52626 0
M  V30 15537 H 1468.26 -3.06381 3.53904 0
M  V30 15538 H 1468.43 -4.04706 5.0608 0
M  V30 15539 N 1461.84 -1.08266 -1.14527 0
M  V30 15540 C 1463.09 -0.809856 -1.85164 0
M  V30 15541 C 1463.41 0.666263 -1.83265 0
M  V30 15542 O 1462.68 1.48295 -1.28006 0
M  V30 15543 H 1461.26 -0.296598 -0.685594 0
M  V30 15544 H 1463.92 -1.36834 -1.38789 0
M  V30 15545 H 1463.02 -1.15272 -2.90032 0
M  V30 15546 N 1463.32 1.31536 -0.86811 0
M  V30 15547 C 1464.56 1.98573 -0.484592 0
M  V30 15548 C 1464.92 1.6713 0.945066 0
M  V30 15549 O 1466.12 2.27364 1.43384 0
M  V30 15550 C 1464.4 3.49817 -0.732305 0
M  V30 15551 S 1465.95 4.36503 -0.448369 0
M  V30 15552 H 1462.77 0.687584 -0.180969 0
M  V30 15553 H 1465.37 1.59976 -1.12373 0
M  V30 15554 H 1464.08 3.70191 -1.77163 0
M  V30 15555 H 1463.61 3.93318 -0.0800886 0
M  V30 15556 H 1465.62 4.90947 0.720116 0
M  V30 15557 N 1464.8 0.627364 1.44575 0
M  V30 15558 C 1466.05 0.130094 2.01681 0
M  V30 15559 C 1466.37 -1.25112 1.49572 0
M  V30 15560 O 1465.64 -1.8305 0.697822 0
M  V30 15561 H 1464.22 0.0451032 0.745637 0
M  V30 15562 H 1466.88 0.813218 1.77124 0
M  V30 15563 H 1465.97 0.0949131 3.11956 0
M  V30 15564 N 1466.28 -1.53251 0.367684 0
M  V30 15565 C 1467.19 -2.29518 -0.485669 0
M  V30 15566 C 1468.2 -1.35568 -1.09075 0
M  V30 15567 O 1469.38 -1.68626 -1.10124 0
M  V30 15568 C 1466.44 -3.07115 -1.60876 0
M  V30 15569 C 1465.5 -4.16736 -1.031 0
M  V30 15570 C 1464.74 -4.90624 -2.10056 0
M  V30 15571 O 1464.96 -4.64393 -3.31203 0
M  V30 15572 O 1463.89 -5.76503 -1.72996 0
M  V30 15573 H 1467.72 -3.034 0.135017 0
M  V30 15574 H 1465.3 -1.48816 0.132005 0
M  V30 15575 H 1467.19 -3.55564 -2.26168 0
M  V30 15576 H 1465.86 -2.36068 -2.21481 0
M  V30 15577 H 1464.77 -3.72534 -0.341928 0
M  V30 15578 H 1466.1 -4.89956 -0.469473 0
M  V30 15579 N 1467.75 -0.0969077 -1.57302 0
M  V30 15580 C 1469 0.565254 -1.94034 0
M  V30 15581 C 1469.32 1.68609 -0.9796 0
M  V30 15582 O 1468.59 1.95874 -0.0319788 0
M  V30 15583 H 1467.17 0.211796 -0.716346 0
M  V30 15584 H 1469.83 -0.160665 -1.94237 0
M  V30 15585 H 1468.93 0.974268 -2.96504 0
M  V30 15586 N 1469.23 1.56605 0.176793 0
M  V30 15587 C 1470.51 1.72546 0.921261 0
M  V30 15588 C 1470.89 0.656794 2.00623 0
M  V30 15589 O 1470.24 -0.329303 2.26115 0
M  V30 15590 C 1470.45 3.15548 1.491 0
M  V30 15591 C 1471.79 3.7634 1.96604 0
M  V30 15592 O 1472.82 3.18791 1.58905 0
M  V30 15593 O 1471.68 4.77377 2.66033 0
M  V30 15594 H 1468.77 0.704425 0.43326 0
M  V30 15595 H 1471.32 1.68895 0.165052 0
M  V30 15596 H 1470.09 3.84808 0.709839 0
M  V30 15597 H 1469.71 3.23502 2.31154 0
M  V30 15598 N 1470.71 -0.445159 1.51182 0
M  V30 15599 C 1471.66 -1.53798 1.68316 0
M  V30 15600 C 1472.64 -1.51666 0.537244 0
M  V30 15601 O 1473.84 -1.58251 0.792818 0
M  V30 15602 C 1470.96 -2.92053 1.80444 0
M  V30 15603 C 1470.05 -2.98971 3.00794 0
M  V30 15604 N 1470.44 -2.75648 4.24089 0
M  V30 15605 C 1468.74 -3.30127 2.99887 0
M  V30 15606 C 1469.44 -2.88206 5.05284 0
M  V30 15607 N 1468.42 -3.19538 4.39769 0
M  V30 15608 H 1472.22 -1.34506 2.61315 0
M  V30 15609 H 1469.73 -0.652341 1.48722 0
M  V30 15610 H 1471.73 -3.70663 1.90827 0
M  V30 15611 H 1470.39 -3.12372 0.886204 0
M  V30 15612 H 1471.4 -2.50727 4.53163 0
M  V30 15613 H 1468.08 -3.5627 2.17665 0
M  V30 15614 H 1469.47 -2.74194 6.13406 0
M  V30 15615 N 1472.19 -1.41197 -0.700089 0
M  V30 15616 C 1473.44 -1.40034 -1.45722 0
M  V30 15617 C 1473.76 -0.00876281 -1.94998 0
M  V30 15618 O 1473.03 0.948647 -1.71399 0
M  V30 15619 H 1471.61 -0.515433 -0.540683 0
M  V30 15620 H 1474.27 -1.76394 -0.828926 0
M  V30 15621 H 1473.36 -2.08477 -2.32258 0
M  V30 15622 N 1473.67 0.933891 -1.2695 0
M  V30 15623 C 1474.58 2.06713 -1.10936 0
M  V30 15624 C 1475.59 1.73952 -0.0409734 0
M  V30 15625 O 1476.77 1.9989 -0.246199 0
M  V30 15626 C 1473.83 3.38453 -0.751696 0
M  V30 15627 C 1472.89 3.84951 -1.90029 0
M  V30 15628 C 1472.13 5.10404 -1.55959 0
M  V30 15629 O 1472.35 5.68504 -0.464646 0
M  V30 15630 O 1471.28 5.52123 -2.39675 0
M  V30 15631 H 1475.11 2.23133 -2.06023 0
M  V30 15632 H 1472.69 1.05202 -1.06079 0
M  V30 15633 H 1474.58 4.17591 -0.565285 0
M  V30 15634 H 1473.25 3.23255 0.169703 0
M  V30 15635 H 1472.16 3.06727 -2.14172 0
M  V30 15636 H 1473.49 4.04681 -2.80167 0
M  V30 15637 N 1475.14 1.08871 1.13951 0
M  V30 15638 C 1476.39 0.819665 1.84732 0
M  V30 15639 C 1476.71 -0.656535 1.83615 0
M  V30 15640 O 1475.98 -1.47614 1.28791 0
M  V30 15641 H 1474.56 0.30023 0.684011 0
M  V30 15642 H 1477.22 1.37568 1.38062 0
M  V30 15643 H 1476.32 1.16809 2.89417 0
M  V30 15644 N 1476.62 -1.31073 0.875073 0
M  V30 15645 C 1477.87 -1.9613 0.487584 0
M  V30 15646 C 1478.19 -1.69482 -0.964407 0
M  V30 15647 O 1477.46 -1.013 -1.67676 0
M  V30 15648 H 1476.04 -0.725649 0.177319 0
M  V30 15649 H 1478.7 -1.59787 1.11598 0
M  V30 15650 H 1477.8 -3.05265 0.649574 0
M  V30 15651 N 1478.1 -0.635022 -1.4424 0
M  V30 15652 C 1479.05 0.0895375 -2.27824 0
M  V30 15653 C 1480.03 0.812405 -1.38884 0
M  V30 15654 O 1481.23 0.69787 -1.62662 0
M  V30 15655 C 1478.36 1.06778 -3.26272 0
M  V30 15656 C 1477.44 0.344333 -4.227 0
M  V30 15657 N 1477.83 -0.629195 -5.01871 0
M  V30 15658 C 1476.13 0.588254 -4.42104 0
M  V30 15659 C 1476.83 -1.05697 -5.72017 0
M  V30 15660 N 1475.81 -0.394953 -5.42163 0
M  V30 15661 H 1479.61 -0.65777 -2.86445 0
M  V30 15662 H 1477.12 -0.460836 -1.55724 0
M  V30 15663 H 1479.12 1.6015 -3.84913 0
M  V30 15664 H 1477.78 1.81535 -2.69212 0
M  V30 15665 H 1478.79 -1.00717 -5.08012 0
M  V30 15666 H 1475.47 1.31839 -3.96137 0
M  V30 15667 H 1476.86 -1.86148 -6.45599 0
M  V30 15668 N 1479.58 1.53054 -0.375806 0
M  V30 15669 C 1480.83 2.01003 0.210257 0
M  V30 15670 C 1481.15 1.26451 1.48442 0
M  V30 15671 O 1480.42 0.380687 1.92166 0
M  V30 15672 H 1479 0.74263 0.0806861 0
M  V30 15673 H 1481.66 1.8826 -0.504393 0
M  V30 15674 H 1480.76 3.09123 0.430027 0
M  V30 15675 N 1481.06 0.105248 1.57248 0
M  V30 15676 C 1481.97 -0.864007 2.1811 0
M  V30 15677 C 1482.98 -1.30282 1.15337 0
M  V30 15678 O 1484.16 -1.36864 1.4775 0
M  V30 15679 C 1481.22 -2.1014 2.75757 0
M  V30 15680 C 1480.28 -1.71583 3.9352 0
M  V30 15681 C 1479.52 -2.89424 4.48408 0
M  V30 15682 O 1479.74 -4.04449 4.02215 0
M  V30 15683 O 1478.67 -2.67303 5.39289 0
M  V30 15684 H 1482.5 -0.376131 3.01362 0
M  V30 15685 H 1480.09 -0.119643 1.4892 0
M  V30 15686 H 1481.97 -2.82638 3.1256 0
M  V30 15687 H 1480.64 -2.57961 1.95545 0
M  V30 15688 H 1479.55 -0.962347 3.6151 0
M  V30 15689 H 1480.88 -1.28517 4.75126 0
M  V30 15690 N 1482.53 -1.56697 -0.168486 0
M  V30 15691 C 1483.78 -1.81794 -0.882907 0
M  V30 15692 C 1484.1 -0.682707 -1.82658 0
M  V30 15693 O 1483.37 0.297234 -1.93632 0
M  V30 15694 H 1481.95 -0.670636 -0.329024 0
M  V30 15695 H 1484.62 -1.94178 -0.167625 0
M  V30 15696 H 1483.71 -2.75945 -1.45811 0
M  V30 15697 N 1484.01 0.437135 -1.51416 0
M  V30 15698 C 1485.26 1.18421 -1.63771 0
M  V30 15699 C 1485.58 1.91718 -0.356282 0
M  V30 15700 O 1484.85 1.85566 0.627863 0
M  V30 15701 H 1483.43 0.440125 -0.603572 0
M  V30 15702 H 1486.09 0.501155 -1.88347 0
M  V30 15703 H 1485.19 1.91367 -2.46546 0
M  V30 15704 O 1485.53 1.50614 0.582893 0
M  V30 15705 H 1486.22 1.48988 1.23784 0
M  V30 END ATOM
M  V30 BEGIN BOND
M  V30 END BOND
M  V30 END CTAB
M  END
$$$$
