drugbank_target|P30532 Neuronal acetylcholine receptor subunit alpha-5 (DB00184; DB00898)
 OpenBabel12092120343D

  0  0  0     0  0            999 V3000
M  V30 BEGIN CTAB
M  V30 COUNTS 7515 7607 0 0 0
M  V30 BEGIN ATOM
M  V30 1 H -0.908 1.98254 -0.117106 0
M  V30 2 N 0 1.576 0 0
M  V30 3 C 0.933 2.03868 1.02534 0
M  V30 4 C 1.911 0.928543 1.3348 0
M  V30 5 O 3.095 1.19667 1.45644 0
M  V30 6 C 0.222 2.43627 2.35294 0
M  V30 7 C -0.732 3.65373 2.2001 0
M  V30 8 S 0.101 5.13292 1.52614 0
M  V30 9 C 1.257 5.56322 2.86805 0
M  V30 10 H 1.49 2.90518 0.631377 0
M  V30 11 H -0.977 1.52953 0.210867 0
M  V30 12 H 0.981 2.67203 3.11629 0
M  V30 13 H -0.358 1.57376 2.7183 0
M  V30 14 H -1.165 3.90944 3.18086 0
M  V30 15 H -1.563 3.418 1.51819 0
M  V30 16 H 0.729 5.58782 3.83104 0
M  V30 17 H 1.672 6.56266 2.65933 0
M  V30 18 H 2.08 4.83886 2.90714 0
M  V30 19 N 1.4781 -0.272755 1.55222 0
M  V30 20 C 2.4411 -1.32041 1.87344 0
M  V30 21 C 3.4411 -1.42342 0.74803 0
M  V30 22 O 4.6311 -1.41488 1.0162 0
M  V30 23 C 1.7631 -2.70173 2.07893 0
M  V30 24 H 2.9561 -1.04789 2.80997 0
M  V30 25 H 0.5091 -0.51083 1.47717 0
M  V30 26 H 1.2441 -3.02605 1.16622 0
M  V30 27 H 1.0291 -2.64082 2.89833 0
M  V30 28 H 2.5191 -3.45869 2.34017 0
M  V30 29 N 2.9562 -1.48159 -0.537278 0
M  V30 30 C 3.9192 -1.61665 -1.62472 0
M  V30 31 C 4.9192 -0.490395 -1.5314 0
M  V30 32 O 6.1092 -0.755998 -1.5694 0
M  V30 33 C 3.2412 -1.57997 -3.02076 0
M  V30 34 H 4.4342 -2.58621 -1.51839 0
M  V30 35 H 1.9872 -1.36647 -0.758771 0
M  V30 36 H 2.7222 -0.624913 -3.18222 0
M  V30 37 H 2.5072 -2.39755 -3.10258 0
M  V30 38 H 3.9972 -1.70627 -3.81151 0
M  V30 39 N 4.4343 0.785586 -1.36625 0
M  V30 40 C 5.8503 1.08419 -1.17122 0
M  V30 41 C 6.0503 2.015 0.00208491 0
M  V30 42 O 5.1063 2.43551 0.666278 0
M  V30 43 C 6.4193 1.69498 -2.48377 0
M  V30 44 C 7.9673 1.81821 -2.54775 0
M  V30 45 C 8.4423 2.46315 -3.86126 0
M  V30 46 N 9.9333 2.53779 -3.87492 0
M  V30 47 C 10.6683 3.045 -4.85868 0
M  V30 48 N 10.1643 3.55499 -5.94637 0
M  V30 49 N 11.9573 3.03247 -4.73284 0
M  V30 50 H 4.1083 0.167264 -2.1174 0
M  V30 51 H 6.3713 0.13682 -0.938075 0
M  V30 52 H 6.0773 1.08571 -3.34522 0
M  V30 53 H 5.9513 2.6896 -2.64462 0
M  V30 54 H 8.3383 2.41884 -1.69045 0
M  V30 55 H 8.4193 0.811532 -2.42586 0
M  V30 56 H 8.0633 1.86895 -4.72263 0
M  V30 57 H 7.9933 3.47561 -3.95612 0
M  V30 58 H 10.4843 2.17672 -3.08913 0
M  V30 59 H 10.7973 3.92562 -6.65669 0
M  V30 60 H 9.1423 3.5364 -5.98301 0
M  V30 61 H 12.3333 2.62696 -3.87438 0
M  V30 62 H 12.5063 3.42467 -5.50109 0
M  V30 63 N 5.9124 1.20967 1.01018 0
M  V30 64 C 7.1604 1.02172 1.74371 0
M  V30 65 C 7.4814 -0.446414 1.89821 0
M  V30 66 O 6.7514 -1.32234 1.44537 0
M  V30 67 H 5.3314 0.375066 0.646014 0
M  V30 68 H 7.9934 1.52187 1.21758 0
M  V30 69 H 7.0894 1.48538 2.74487 0
M  V30 70 N 7.3905 -1.2043 1.01659 0
M  V30 71 C 8.6155 -1.94318 0.724942 0
M  V30 72 C 9.0405 -1.74266 -0.708034 0
M  V30 73 O 8.3985 -1.03694 -1.48719 0
M  V30 74 C 8.4465 -3.44486 1.06591 0
M  V30 75 O 7.5505 -4.12017 0.177599 0
M  V30 76 H 6.8915 -0.60708 0.26898 0
M  V30 77 H 9.4215 -1.52861 1.35995 0
M  V30 78 H 9.4315 -3.95106 1.01762 0
M  V30 79 H 8.1065 -3.58404 2.10997 0
M  V30 80 H 6.6835 -3.71821 0.283421 0
M  V30 81 N 8.8686 -0.792821 -1.36206 0
M  V30 82 C 10.1166 -0.366062 -1.98757 0
M  V30 83 C 10.4376 1.0668 -1.63231 0
M  V30 84 O 9.7076 1.73587 -0.907978 0
M  V30 85 H 8.2876 -0.132364 -0.735179 0
M  V30 86 H 10.9496 -1.01562 -1.66347 0
M  V30 87 H 10.0456 -0.460638 -3.08682 0
M  V30 88 N 10.3467 1.47872 -0.545128 0
M  V30 89 C 11.7577 1.86384 -0.108581 0
M  V30 90 C 12.1087 1.45309 1.31832 0
M  V30 91 O 11.2337 0.850641 1.9898 0
M  V30 92 C 11.8287 3.38265 -0.190274 0
M  V30 93 C 10.3877 3.75914 0.191164 0
M  V30 94 C 9.5347 2.71926 -0.543273 0
M  V30 95 H 12.4857 1.39561 -0.755537 0
M  V30 96 H 12.5067 3.75831 0.594217 0
M  V30 97 H 12.0187 3.6813 -1.2289 0
M  V30 98 H 10.1197 3.51665 1.23136 0
M  V30 99 H 10.2327 4.78836 -0.158987 0
M  V30 100 H 8.5967 2.54697 0.0122495 0
M  V30 101 H 9.3797 3.04634 -1.58282 0
M  V30 102 N 11.8248 0.280983 1.55075 0
M  V30 103 C 13.2408 -0.0729964 1.59433 0
M  V30 104 C 13.4408 -1.5411 1.29817 0
M  V30 105 O 12.4968 -2.29086 1.06187 0
M  V30 106 C 13.8098 0.306921 2.9913 0
M  V30 107 C 15.3578 0.254023 3.11968 0
M  V30 108 C 15.8328 0.608467 4.5394 0
M  V30 109 N 17.3238 0.560241 4.59799 0
M  V30 110 C 18.0588 0.80722 5.6769 0
M  V30 111 N 17.5548 1.11912 6.83701 0
M  V30 112 N 19.3478 0.735623 5.57266 0
M  V30 113 H 11.4988 1.238 1.7259 0
M  V30 114 H 13.7618 0.500547 0.805082 0
M  V30 115 H 13.4678 1.32816 3.25657 0
M  V30 116 H 13.3418 -0.349363 3.75579 0
M  V30 117 H 15.7288 -0.75794 2.852 0
M  V30 118 H 15.8098 0.944649 2.37718 0
M  V30 119 H 15.4538 1.61814 4.81434 0
M  V30 120 H 15.3838 -0.104013 5.26497 0
M  V30 121 H 17.8748 0.329288 3.76463 0
M  V30 122 H 18.1878 1.29409 7.61888 0
M  V30 123 H 16.5328 1.15695 6.85303 0
M  V30 124 H 19.7238 0.491752 4.6551 0
M  V30 125 H 19.8968 0.931482 6.4127 0
M  V30 126 N 13.3029 -1.57598 0.00835791 0
M  V30 127 C 14.2659 -2.07884 -0.965242 0
M  V30 128 C 15.2659 -0.989825 -1.26725 0
M  V30 129 O 16.4559 -1.25218 -1.21104 0
M  V30 130 C 13.5879 -2.52731 -2.28779 0
M  V30 131 H 14.7809 -2.95178 -0.530112 0
M  V30 132 H 12.3339 -1.54458 -0.239283 0
M  V30 133 H 13.0689 -1.68705 -2.76964 0
M  V30 134 H 12.8539 -3.32272 -2.08177 0
M  V30 135 H 14.3439 -2.91933 -2.98605 0
M  V30 136 N 14.781 0.264519 -1.55364 0
M  V30 137 C 15.711 1.33121 -1.91836 0
M  V30 138 C 16.692 1.51101 -0.781192 0
M  V30 139 O 17.877 1.64003 -1.04003 0
M  V30 140 C 15.007 2.68921 -2.19769 0
M  V30 141 C 13.961 2.65661 -3.35571 0
M  V30 142 C 13.287 4.05093 -3.49004 0
M  V30 143 C 14.587 2.24187 -4.71739 0
M  V30 144 H 16.281 1.02844 -2.81182 0
M  V30 145 H 13.827 0.493286 -1.35287 0
M  V30 146 H 15.78 3.43663 -2.43872 0
M  V30 147 H 14.504 3.00799 -1.27231 0
M  V30 148 H 13.163 1.93377 -3.1145 0
M  V30 149 H 12.811 4.34206 -2.53917 0
M  V30 150 H 12.511 4.03804 -4.26868 0
M  V30 151 H 14.035 4.81561 -3.75408 0
M  V30 152 H 15.449 2.88654 -4.9533 0
M  V30 153 H 13.846 2.34044 -5.52579 0
M  V30 154 H 14.916 1.19327 -4.69988 0
M  V30 155 N 16.2591 1.48442 0.529413 0
M  V30 156 C 17.6751 1.34575 0.858004 0
M  V30 157 C 17.8751 0.3572 1.98309 0
M  V30 158 O 16.9311 -0.221379 2.51528 0
M  V30 159 C 18.2441 2.74617 1.22499 0
M  V30 160 C 19.7921 2.83109 1.33484 0
M  V30 161 C 20.2671 4.23854 1.73526 0
M  V30 162 N 21.7581 4.2653 1.80628 0
M  V30 163 C 22.4931 5.32372 2.12997 0
M  V30 164 N 21.9891 6.48491 2.43786 0
M  V30 165 N 23.7821 5.19766 2.14008 0
M  V30 166 H 15.9331 2.1133 -0.212925 0
M  V30 167 H 18.1961 0.947439 -0.0326199 0
M  V30 168 H 17.9021 3.4852 0.471905 0
M  V30 169 H 17.7761 3.08177 2.17501 0
M  V30 170 H 20.1631 2.09462 2.0787 0
M  V30 171 H 20.2441 2.53168 0.366027 0
M  V30 172 H 19.8881 4.98018 0.997013 0
M  V30 173 H 19.8181 4.5124 2.71459 0
M  V30 174 H 22.3091 3.42772 1.59108 0
M  V30 175 H 22.6221 7.24993 2.67592 0
M  V30 176 H 20.9671 6.51765 2.41304 0
M  V30 177 H 24.1581 4.28066 1.89412 0
M  V30 178 H 24.3311 6.02354 2.38902 0
M  V30 179 N 17.7372 -0.778329 1.37039 0
M  V30 180 C 18.6672 -1.90546 1.34962 0
M  V30 181 C 19.6482 -1.68681 0.219274 0
M  V30 182 O 20.8332 -1.89634 0.418624 0
M  V30 183 C 17.9632 -3.27734 1.14925 0
M  V30 184 C 16.9172 -3.64147 2.24902 0
M  V30 185 C 16.2432 -4.99806 1.89996 0
M  V30 186 C 17.5432 -3.71579 3.67051 0
M  V30 187 H 19.2372 -1.92541 2.29277 0
M  V30 188 H 16.7832 -0.924948 1.10366 0
M  V30 189 H 18.7362 -4.06215 1.12104 0
M  V30 190 H 17.4602 -3.26154 0.170631 0
M  V30 191 H 16.1192 -2.8797 2.26868 0
M  V30 192 H 15.7672 -4.94759 0.906796 0
M  V30 193 H 15.4672 -5.25139 2.63634 0
M  V30 194 H 16.9912 -5.80694 1.88749 0
M  V30 195 H 18.4052 -4.40227 3.67251 0
M  V30 196 H 16.8022 -4.08405 4.39688 0
M  V30 197 H 17.8722 -2.72404 4.01154 0
M  V30 198 N 19.2153 -1.21501 -1.00376 0
M  V30 199 C 20.1453 -0.999478 -2.11028 0
M  V30 200 C 21.1263 0.0759671 -1.6993 0
M  V30 201 O 22.3113 -0.0841106 -1.94018 0
M  V30 202 C 19.4413 -0.564709 -3.42678 0
M  V30 203 C 18.3953 -1.58486 -3.97576 0
M  V30 204 C 17.7213 -1.00628 -5.25146 0
M  V30 205 C 19.0213 -2.97204 -4.29496 0
M  V30 206 H 20.7153 -1.92495 -2.29317 0
M  V30 207 H 18.2613 -0.92693 -1.102 0
M  V30 208 H 20.2143 -0.401091 -4.19487 0
M  V30 209 H 18.9383 0.396411 -3.24185 0
M  V30 210 H 17.5973 -1.73606 -3.22888 0
M  V30 211 H 17.2453 -0.0368439 -5.02987 0
M  V30 212 H 16.9453 -1.68771 -5.62841 0
M  V30 213 H 18.4693 -0.854015 -6.04598 0
M  V30 214 H 19.8833 -2.8552 -4.97143 0
M  V30 215 H 18.2803 -3.62372 -4.78338 0
M  V30 216 H 19.3503 -3.47956 -3.3772 0
M  V30 217 N 20.6934 1.19889 -1.02296 0
M  V30 218 C 21.6234 2.25141 -0.619174 0
M  V30 219 C 22.6044 1.66051 0.368915 0
M  V30 220 O 23.7894 1.92546 0.252941 0
M  V30 221 C 20.9194 3.4728 0.0368783 0
M  V30 222 C 19.8734 4.19005 -0.872865 0
M  V30 223 C 19.1994 5.34637 -0.0822402 0
M  V30 224 C 20.4994 4.74452 -2.18387 0
M  V30 225 H 22.1934 2.59171 -1.49903 0
M  V30 226 H 19.7394 1.24579 -0.722222 0
M  V30 227 H 21.6924 4.20098 0.330958 0
M  V30 228 H 20.4164 3.12433 0.95149 0
M  V30 229 H 19.0754 3.48061 -1.15105 0
M  V30 230 H 18.7234 4.96034 0.83422 0
M  V30 231 H 18.4234 5.83557 -0.688149 0
M  V30 232 H 19.9474 6.10255 0.205238 0
M  V30 233 H 21.3614 5.39055 -1.95172 0
M  V30 234 H 19.7584 5.33834 -2.74119 0
M  V30 235 H 20.8284 3.92844 -2.84257 0
M  V30 236 N 22.1715 0.800033 1.35784 0
M  V30 237 C 23.1015 0.220184 2.3246 0
M  V30 238 C 24.0825 -0.65073 1.57161 0
M  V30 239 O 25.2675 -0.582359 1.85263 0
M  V30 240 C 22.3975 -0.637353 3.41402 0
M  V30 241 C 21.3515 0.134531 4.27789 0
M  V30 242 C 20.6775 -0.844285 5.27992 0
M  V30 243 C 21.9775 1.32979 5.05088 0
M  V30 244 H 23.6715 1.02787 2.81203 0
M  V30 245 H 21.2175 0.495717 1.35199 0
M  V30 246 H 23.1705 -1.05302 4.08031 0
M  V30 247 H 21.8945 -1.47785 2.91251 0
M  V30 248 H 20.5535 0.531296 3.6273 0
M  V30 249 H 20.2015 -1.68011 4.74111 0
M  V30 250 H 19.9015 -0.332184 5.8666 0
M  V30 251 H 21.4255 -1.2583 5.97494 0
M  V30 252 H 22.8395 0.98934 5.64699 0
M  V30 253 H 21.2365 1.77593 5.7322 0
M  V30 254 H 22.3065 2.11978 4.36111 0
M  V30 255 N 23.6496 -1.47581 0.552962 0
M  V30 256 C 24.8956 -2.02782 0.0273648 0
M  V30 257 C 25.2286 -1.42687 -1.31734 0
M  V30 258 O 24.5036 -0.580897 -1.85623 0
M  V30 259 C 24.7866 -3.60031 -0.0702371 0
M  V30 260 C 24.6396 -4.30566 1.30126 0
M  V30 261 C 25.9586 -4.33028 -0.785771 0
M  V30 262 H 23.0776 -0.736912 0.0114185 0
M  V30 263 H 25.7196 -1.76056 0.714432 0
M  V30 264 H 23.8696 -3.82932 -0.655382 0
M  V30 265 H 25.5416 -4.19018 1.92929 0
M  V30 266 H 23.7846 -3.91086 1.87709 0
M  V30 267 H 24.4556 -5.39114 1.18573 0
M  V30 268 H 26.9316 -4.15095 -0.288982 0
M  V30 269 H 25.8076 -5.42695 -0.823013 0
M  V30 270 H 26.0686 -4.01945 -1.841 0
M  V30 271 N 25.1277 -0.289203 -1.54924 0
M  V30 272 C 26.0597 0.625583 -2.20497 0
M  V30 273 C 27.0727 1.10667 -1.19402 0
M  V30 274 O 28.2617 1.02615 -1.46056 0
M  V30 275 C 25.3617 1.86702 -2.82835 0
M  V30 276 C 24.5347 1.5304 -4.09753 0
M  V30 277 C 23.5937 2.62576 -4.56005 0
M  V30 278 O 22.6197 2.28167 -5.21468 0
M  V30 279 N 23.8217 3.92901 -4.27328 0
M  V30 280 H 26.5867 0.0642801 -2.99631 0
M  V30 281 H 24.1477 -0.110896 -1.6152 0
M  V30 282 H 26.1397 2.59304 -3.10715 0
M  V30 283 H 24.7097 2.33702 -2.07611 0
M  V30 284 H 23.9297 0.637564 -3.8901 0
M  V30 285 H 25.2177 1.28072 -4.92418 0
M  V30 286 H 24.6157 4.23671 -3.74859 0
M  V30 287 H 23.1727 4.61837 -4.59946 0
M  V30 288 N 26.6058 1.57591 -0.0167156 0
M  V30 289 C 27.5358 2.12496 0.967858 0
M  V30 290 C 28.5168 1.03807 1.34752 0
M  V30 291 O 29.7018 1.31577 1.42833 0
M  V30 292 C 26.8318 2.64194 2.25431 0
M  V30 293 C 25.7858 3.77559 2.01576 0
M  V30 294 C 25.1118 4.15636 3.36379 0
M  V30 295 C 26.4118 5.04151 1.36489 0
M  V30 296 H 28.1058 2.95013 0.510643 0
M  V30 297 H 25.6518 1.41915 0.244181 0
M  V30 298 H 27.6048 3.01236 2.94678 0
M  V30 299 H 26.3288 1.78821 2.73296 0
M  V30 300 H 24.9878 3.40937 1.34751 0
M  V30 301 H 24.6358 3.27263 3.81979 0
M  V30 302 H 24.3358 4.92022 3.21229 0
M  V30 303 H 25.8598 4.5525 4.06915 0
M  V30 304 H 27.2738 5.38857 1.95718 0
M  V30 305 H 25.6708 5.85453 1.31776 0
M  V30 306 H 26.7408 4.83733 0.336219 0
M  V30 307 N 28.0839 -0.256276 1.55502 0
M  V30 308 C 29.3299 -0.987079 1.77157 0
M  V30 309 C 29.6629 -1.85327 0.580315 0
M  V30 310 O 28.9379 -1.89874 -0.421686 0
M  V30 311 C 29.2209 -1.85553 3.08613 0
M  V30 312 C 29.0739 -1.01816 4.38125 0
M  V30 313 C 30.3929 -2.8397 3.36228 0
M  V30 314 H 27.5119 -0.357428 0.644526 0
M  V30 315 H 30.1539 -0.258239 1.88237 0
M  V30 316 H 28.3039 -2.47695 2.99298 0
M  V30 317 H 29.9759 -0.416159 4.59419 0
M  V30 318 H 28.2189 -0.322178 4.32602 0
M  V30 319 H 28.8899 -1.65939 5.26468 0
M  V30 320 H 31.3659 -2.31964 3.45445 0
M  V30 321 H 30.2419 -3.41864 4.29442 0
M  V30 322 H 30.5029 -3.59955 2.56681 0
M  V30 323 N 29.562 -1.4872 -0.521534 0
M  V30 324 C 30.525 -1.63379 -1.60748 0
M  V30 325 C 31.525 -0.50661 -1.52611 0
M  V30 326 O 32.715 -0.772601 -1.5613 0
M  V30 327 C 29.847 -1.61192 -3.00383 0
M  V30 328 H 31.04 -2.60217 -1.49087 0
M  V30 329 H 28.593 -1.37444 -0.744235 0
M  V30 330 H 29.328 -0.65863 -3.17541 0
M  V30 331 H 29.113 -2.43032 -3.07698 0
M  V30 332 H 30.603 -1.7466 -3.7932 0
M  V30 333 N 31.0401 0.771051 -1.3745 0
M  V30 334 C 32.2881 1.52661 -1.32435 0
M  V30 335 C 32.6091 1.9479 0.0905024 0
M  V30 336 O 31.8791 1.66348 1.03466 0
M  V30 337 H 30.4591 0.566218 -0.487244 0
M  V30 338 H 33.1211 0.917636 -1.71946 0
M  V30 339 H 32.2171 2.42568 -1.96385 0
M  V30 340 N 32.5182 1.22032 0.997298 0
M  V30 341 C 33.9342 0.979326 1.26021 0
M  V30 342 C 34.1342 -0.32972 1.98784 0
M  V30 343 O 33.1902 -1.05345 2.29475 0
M  V30 344 C 34.5032 2.17509 2.07631 0
M  V30 345 C 36.0512 2.21817 2.2083 0
M  V30 346 C 36.5262 3.40933 3.05825 0
M  V30 347 N 38.0172 3.41067 3.13412 0
M  V30 348 C 38.7522 4.29885 3.79455 0
M  V30 349 N 38.2482 5.28914 4.47462 0
M  V30 350 N 40.0412 4.17673 3.76173 0
M  V30 351 H 32.1922 2.06202 0.509352 0
M  V30 352 H 34.4552 0.90334 0.287541 0
M  V30 353 H 34.1612 3.12415 1.61524 0
M  V30 354 H 34.0352 2.17206 3.08385 0
M  V30 355 H 36.4222 1.27462 2.66153 0
M  V30 356 H 36.5032 2.2616 1.1952 0
M  V30 357 H 36.1472 4.35586 2.61203 0
M  V30 358 H 36.0772 3.33829 4.07266 0
M  V30 359 H 38.5682 2.69406 2.65007 0
M  V30 360 H 38.8812 5.92973 4.95583 0
M  V30 361 H 37.2262 5.32831 4.46224 0
M  V30 362 H 40.4172 3.39564 3.22202 0
M  V30 363 H 40.5902 4.87098 4.27363 0
M  V30 364 N 33.9963 -1.19345 1.0293 0
M  V30 365 C 35.2363 -1.90738 0.734727 0
M  V30 366 C 35.6003 -1.7785 -0.723414 0
M  V30 367 O 36.8013 -2.43844 -1.13108 0
M  V30 368 C 35.0723 -3.37569 1.17396 0
M  V30 369 S 36.6313 -4.27176 1.00329 0
M  V30 370 H 33.4493 -0.658771 0.267474 0
M  V30 371 H 36.0513 -1.4428 1.31922 0
M  V30 372 H 34.7553 -3.44475 2.23081 0
M  V30 373 H 34.2863 -3.8906 0.582772 0
M  V30 374 H 36.3013 -4.96126 -0.0859152 0
M  V30 375 N 35.4744 -0.807222 -1.35358 0
M  V30 376 C 36.7224 -0.387122 -1.98358 0
M  V30 377 C 37.0434 1.04942 -1.64354 0
M  V30 378 O 36.3134 1.72615 -0.926339 0
M  V30 379 H 34.8934 -0.140154 -0.733734 0
M  V30 380 H 37.5554 -1.0332 -1.6526 0
M  V30 381 H 36.6514 -0.493352 -3.08176 0
M  V30 382 N 36.9525 1.47285 -0.560781 0
M  V30 383 C 37.8825 2.32857 0.173105 0
M  V30 384 C 38.8635 1.44009 0.905281 0
M  V30 385 O 40.0485 1.7286 0.885046 0
M  V30 386 C 37.1785 3.25861 1.20133 0
M  V30 387 C 36.1325 4.23978 0.585388 0
M  V30 388 C 35.4585 5.06332 1.7185 0
M  V30 389 C 36.7585 5.20242 -0.463178 0
M  V30 390 H 38.4525 2.94466 -0.541307 0
M  V30 391 H 35.9985 1.41601 -0.261764 0
M  V30 392 H 37.9515 3.84569 1.72293 0
M  V30 393 H 36.6755 2.62315 1.94573 0
M  V30 394 H 35.3345 3.66501 0.085054 0
M  V30 395 H 34.9825 4.39186 2.45203 0
M  V30 396 H 34.6825 5.72762 1.31213 0
M  V30 397 H 36.2065 5.67899 2.24329 0
M  V30 398 H 37.6205 5.73293 -0.027502 0
M  V30 399 H 36.0175 5.94896 -0.788627 0
M  V30 400 H 37.0875 4.65504 -1.35773 0
M  V30 401 N 38.4306 0.297415 1.54768 0
M  V30 402 C 39.3936 -0.567375 2.22066 0
M  V30 403 C 40.3936 -1.06409 1.20556 0
M  V30 404 O 41.5836 -0.960691 1.45315 0
M  V30 405 C 38.7156 -1.78517 2.90421 0
M  V30 406 H 39.9086 0.0205534 2.99893 0
M  V30 407 H 37.4616 0.0482163 1.56226 0
M  V30 408 H 38.1966 -2.41303 2.16664 0
M  V30 409 H 37.9816 -1.43669 3.64831 0
M  V30 410 H 39.4716 -2.39964 3.41771 0
M  V30 411 N 39.9087 -1.5758 0.0250728 0
M  V30 412 C 41.1567 -1.91255 -0.653151 0
M  V30 413 C 41.4777 -0.901691 -1.729 0
M  V30 414 O 40.7477 0.0573785 -1.95816 0
M  V30 415 H 39.3277 -0.705942 -0.244243 0
M  V30 416 H 41.9897 -1.94767 0.0719209 0
M  V30 417 H 41.0857 -2.91752 -1.10847 0
M  V30 418 N 41.3868 0.248026 -1.55636 0
M  V30 419 C 42.3498 1.29044 -1.89421 0
M  V30 420 C 43.3498 1.41134 -0.770581 0
M  V30 421 O 44.5398 1.39854 -1.03858 0
M  V30 422 C 41.6718 2.66831 -2.12165 0
M  V30 423 H 42.8648 1.00305 -2.82629 0
M  V30 424 H 40.4178 0.487265 -1.48511 0
M  V30 425 H 41.1528 3.00711 -1.21422 0
M  V30 426 H 40.9378 2.59438 -2.93997 0
M  V30 427 H 42.4278 3.42103 -2.3949 0
M  V30 428 N 42.8649 1.48995 0.513639 0
M  V30 429 C 43.8279 1.64229 1.59879 0
M  V30 430 C 44.8279 0.514696 1.5234 0
M  V30 431 O 46.0179 0.78087 1.55718 0
M  V30 432 C 43.1499 1.62783 2.99524 0
M  V30 433 H 44.3429 2.61004 1.47705 0
M  V30 434 H 41.8959 1.37837 0.736936 0
M  V30 435 H 42.6309 0.675461 3.17188 0
M  V30 436 H 42.4159 2.4466 3.06404 0
M  V30 437 H 43.9059 1.76669 3.78388 0
M  V30 438 N 44.343 -0.763751 1.37857 0
M  V30 439 C 45.591 -1.51957 1.33243 0
M  V30 440 C 45.912 -1.94835 -0.0801709 0
M  V30 441 O 45.182 -1.66894 -1.02582 0
M  V30 442 H 43.762 -0.563626 0.49024 0
M  V30 443 H 46.424 -0.908504 1.7243 0
M  V30 444 H 45.52 -2.41523 1.97669 0
M  V30 445 N 45.8211 -1.22559 -0.990812 0
M  V30 446 C 47.0691 -1.04933 -1.72724 0
M  V30 447 C 47.3901 0.416158 -1.90508 0
M  V30 448 O 46.6601 1.29918 -1.46622 0
M  V30 449 H 45.2401 -0.385296 -0.639965 0
M  V30 450 H 47.9021 -1.54105 -1.19322 0
M  V30 451 H 46.9981 -1.52886 -2.72089 0
M  V30 452 N 47.2992 1.18797 -1.03562 0
M  V30 453 C 48.2622 2.20464 -0.626769 0
M  V30 454 C 49.2622 1.57721 0.313173 0
M  V30 455 O 50.4522 1.73917 0.0992615 0
M  V30 456 C 47.5842 3.40802 0.0818498 0
M  V30 457 H 48.7772 2.58149 -1.5264 0
M  V30 458 H 46.3302 1.32593 -0.827578 0
M  V30 459 H 47.0652 3.08642 0.995518 0
M  V30 460 H 46.8502 3.8758 -0.593652 0
M  V30 461 H 48.3402 4.16092 0.354584 0
M  V30 462 N 48.7773 0.814389 1.34928 0
M  V30 463 C 49.7093 0.187834 2.28429 0
M  V30 464 C 50.7223 -0.617374 1.5064 0
M  V30 465 O 51.9113 -0.448454 1.72775 0
M  V30 466 C 49.0113 -0.755962 3.30361 0
M  V30 467 C 48.1843 0.00456686 4.374 0
M  V30 468 C 47.2433 -0.858876 5.19143 0
M  V30 469 O 46.2693 -0.306968 5.68372 0
M  V30 470 N 47.4713 -2.17988 5.38016 0
M  V30 471 H 50.2363 0.991105 2.82838 0
M  V30 472 H 47.7973 0.670561 1.4736 0
M  V30 473 H 49.7893 -1.338 3.81942 0
M  V30 474 H 48.3593 -1.46001 2.7641 0
M  V30 475 H 47.5793 0.767865 3.86649 0
M  V30 476 H 48.8673 0.528422 5.06049 0
M  V30 477 H 48.2653 -2.65212 4.99679 0
M  V30 478 H 46.8223 -2.71098 5.92747 0
M  V30 479 N 50.2554 -1.46986 0.568584 0
M  V30 480 C 51.6714 -1.57946 0.229189 0
M  V30 481 C 51.8714 -1.56567 -1.26843 0
M  V30 482 O 50.9274 -1.47511 -2.04931 0
M  V30 483 C 52.2404 -2.87963 0.865909 0
M  V30 484 C 53.7884 -3.01568 0.838188 0
M  V30 485 C 54.2634 -4.34301 1.45419 0
M  V30 486 N 55.7544 -4.40965 1.41788 0
M  V30 487 C 56.4894 -5.42256 1.86403 0
M  V30 488 N 55.9854 -6.50297 2.38926 0
M  V30 489 N 57.7784 -5.3337 1.77405 0
M  V30 490 H 49.9294 -1.46126 1.54146 0
M  V30 491 H 52.1924 -0.696156 0.643484 0
M  V30 492 H 51.8984 -2.94742 1.91886 0
M  V30 493 H 51.7724 -3.75423 0.365687 0
M  V30 494 H 54.1594 -2.94379 -0.206106 0
M  V30 495 H 54.2404 -2.1562 1.37629 0
M  V30 496 H 53.8844 -4.42247 2.49761 0
M  V30 497 H 53.8144 -5.19 0.891435 0
M  V30 498 H 56.3054 -3.63484 1.03381 0
M  V30 499 H 56.6184 -7.23777 2.70863 0
M  V30 500 H 54.9634 -6.51155 2.42944 0
M  V30 501 H 58.1544 -4.47865 1.3614 0
M  V30 502 H 58.3274 -6.12169 2.12492 0
M  V30 503 N 51.7335 -0.305618 -1.54608 0
M  V30 504 C 52.9815 0.301701 -1.99835 0
M  V30 505 C 53.3025 1.54054 -1.19551 0
M  V30 506 O 52.5725 1.93702 -0.292658 0
M  V30 507 H 51.1525 0.114468 -0.738178 0
M  V30 508 H 53.8145 -0.418016 -1.90364 0
M  V30 509 H 52.9105 0.570548 -3.06841 0
M  V30 510 N 53.2116 1.57565 -0.0334293 0
M  V30 511 C 54.1416 2.13511 0.945265 0
M  V30 512 C 55.1226 1.05231 1.33643 0
M  V30 513 O 56.3076 1.33084 1.41429 0
M  V30 514 C 53.4376 2.6657 2.22616 0
M  V30 515 C 52.3916 3.79676 1.97561 0
M  V30 516 C 51.7176 4.1918 3.31952 0
M  V30 517 C 53.0176 5.0557 1.31135 0
M  V30 518 H 54.7116 2.95538 0.479325 0
M  V30 519 H 52.2576 1.42166 0.229115 0
M  V30 520 H 54.2106 3.04344 2.91466 0
M  V30 521 H 52.9346 1.8171 2.71384 0
M  V30 522 H 51.5936 3.42347 1.31127 0
M  V30 523 H 51.2416 3.31296 3.78487 0
M  V30 524 H 50.9416 4.95402 3.15992 0
M  V30 525 H 52.4656 4.59541 4.02063 0
M  V30 526 H 53.8796 5.40903 1.89992 0
M  V30 527 H 52.2766 5.86818 1.25559 0
M  V30 528 H 53.3466 4.84062 0.284894 0
M  V30 529 N 54.6897 -0.239769 1.55765 0
M  V30 530 C 55.9147 -0.988373 1.82335 0
M  V30 531 C 56.3397 -1.77886 0.611421 0
M  V30 532 O 55.6977 -1.75889 -0.439639 0
M  V30 533 C 55.7457 -1.89627 3.06715 0
M  V30 534 O 54.8497 -2.98904 2.84131 0
M  V30 535 H 54.1907 -0.280858 0.601677 0
M  V30 536 H 56.7207 -0.258597 2.02959 0
M  V30 537 H 56.7307 -2.30957 3.36338 0
M  V30 538 H 55.4057 -1.31511 3.9456 0
M  V30 539 H 53.9827 -2.61651 2.65694 0
M  V30 540 N 56.1678 -1.49265 -0.50573 0
M  V30 541 C 57.0778 -1.68312 -1.63427 0
M  V30 542 C 58.0938 -0.565682 -1.64548 0
M  V30 543 O 59.2698 -0.839801 -1.83055 0
M  V30 544 C 56.3348 -1.74107 -2.99813 0
M  V30 545 C 55.3958 -2.97653 -3.09356 0
M  V30 546 C 54.6288 -3.03163 -4.39236 0
M  V30 547 O 54.8518 -2.16396 -5.27758 0
M  V30 548 O 53.7858 -3.9558 -4.53652 0
M  V30 549 H 57.6118 -2.63907 -1.50289 0
M  V30 550 H 55.1968 -1.32951 -0.681502 0
M  V30 551 H 57.0788 -1.803 -3.80881 0
M  V30 552 H 55.7538 -0.816901 -3.13223 0
M  V30 553 H 54.6608 -2.96981 -2.27493 0
M  V30 554 H 55.9938 -3.89535 -3.00871 0
M  V30 555 N 57.6459 0.756429 -1.3826 0
M  V30 556 C 59.0569 1.33359 -1.30661 0
M  V30 557 C 59.4079 1.96161 0.0388875 0
M  V30 558 O 58.5329 1.94874 0.940918 0
M  V30 559 C 59.1279 2.42477 -2.36622 0
M  V30 560 C 57.6869 2.95922 -2.3261 0
M  V30 561 C 56.8339 1.69275 -2.19639 0
M  V30 562 H 59.7849 0.55552 -1.4866 0
M  V30 563 H 59.8059 3.22345 -2.02174 0
M  V30 564 H 59.3179 1.96739 -3.34538 0
M  V30 565 H 57.4189 3.45996 -1.38267 0
M  V30 566 H 57.5319 3.50494 -3.26636 0
M  V30 567 H 55.8959 1.92793 -1.66442 0
M  V30 568 H 56.6789 1.25619 -3.19491 0
M  V30 569 N 59.124 1.23083 0.984299 0
M  V30 570 C 60.349 1.088 1.76571 0
M  V30 571 C 60.774 -0.356657 1.84688 0
M  V30 572 O 60.132 -1.25788 1.30565 0
M  V30 573 C 60.18 1.71371 3.17277 0
M  V30 574 O 59.284 0.973213 4.00752 0
M  V30 575 H 58.625 0.381599 0.543395 0
M  V30 576 H 61.155 1.63057 1.23587 0
M  V30 577 H 61.165 1.76449 3.67872 0
M  V30 578 H 59.84 2.76493 3.10684 0
M  V30 579 H 58.417 0.999078 3.59267 0
M  V30 580 N 60.6021 -1.18246 1.0419 0
M  V30 581 C 61.8271 -1.92736 0.765996 0
M  V30 582 C 62.2521 -1.75728 -0.67091 0
M  V30 583 O 61.6101 -1.06825 -1.46486 0
M  V30 584 C 61.6581 -3.42148 1.13875 0
M  V30 585 O 60.7621 -4.11548 0.264954 0
M  V30 586 H 60.1031 -0.601238 0.281797 0
M  V30 587 H 62.6331 -1.49942 1.39207 0
M  V30 588 H 62.6431 -3.92858 1.1012 0
M  V30 589 H 61.3181 -3.53848 2.18551 0
M  V30 590 H 59.8951 -3.71137 0.362226 0
M  V30 591 N 62.0802 -0.821533 -1.34494 0
M  V30 592 C 63.3292 -0.405355 -1.97585 0
M  V30 593 C 63.6422 1.03677 -1.65863 0
M  V30 594 O 64.8482 1.55679 -2.22433 0
M  V30 595 C 63.3042 -0.673861 -3.53535 0
M  V30 596 C 62.9122 -2.12951 -3.94152 0
M  V30 597 C 64.6562 -0.32378 -4.23263 0
M  V30 598 C 62.5632 -2.34298 -5.43009 0
M  V30 599 H 61.4932 -0.147836 -0.739365 0
M  V30 600 H 64.1442 -1.00769 -1.53355 0
M  V30 601 H 62.5262 -0.00137554 -3.96 0
M  V30 602 H 63.7002 -2.84104 -3.62797 0
M  V30 603 H 62.0152 -2.44089 -3.37356 0
M  V30 604 H 64.6122 -0.461126 -5.32708 0
M  V30 605 H 64.9552 0.731586 -4.09821 0
M  V30 606 H 65.4882 -0.950786 -3.8627 0
M  V30 607 H 62.2272 -3.38335 -5.61435 0
M  V30 608 H 61.7472 -1.67687 -5.75883 0
M  V30 609 H 63.4262 -2.16588 -6.09671 0
M  V30 610 N 63.5583 1.46682 -0.576371 0
M  V30 611 C 64.5213 2.28707 0.150239 0
M  V30 612 C 65.5213 1.38035 0.824794 0
M  V30 613 O 66.7113 1.60476 0.677719 0
M  V30 614 C 63.8433 3.18248 1.22192 0
M  V30 615 H 65.0363 2.94423 -0.570521 0
M  V30 616 H 62.5893 1.52688 -0.334078 0
M  V30 617 H 63.3243 2.57265 1.97447 0
M  V30 618 H 63.1093 3.85 0.742812 0
M  V30 619 H 64.5993 3.80001 1.73172 0
M  V30 620 N 65.0364 0.313813 1.54444 0
M  V30 621 C 65.9834 -0.55655 2.23989 0
M  V30 622 C 66.9534 -1.11943 1.22711 0
M  V30 623 O 68.1384 -1.16158 1.51367 0
M  V30 624 C 65.2784 -1.71635 2.99392 0
M  V30 625 C 64.3914 -1.18364 4.15468 0
M  V30 626 C 63.5264 -2.30834 4.78424 0
M  V30 627 C 62.5654 -1.74762 5.86622 0
M  V30 628 N 61.7024 -2.80855 6.43479 0
M  V30 629 H 66.5424 0.0430893 2.97969 0
M  V30 630 H 64.0794 0.0330359 1.47063 0
M  V30 631 H 66.0374 -2.39868 3.41349 0
M  V30 632 H 64.6674 -2.28742 2.27765 0
M  V30 633 H 63.7194 -0.393163 3.78363 0
M  V30 634 H 65.0314 -0.733262 4.93381 0
M  V30 635 H 64.1854 -3.0699 5.23299 0
M  V30 636 H 62.9244 -2.79204 3.99871 0
M  V30 637 H 61.9294 -0.970995 5.41158 0
M  V30 638 H 63.1544 -1.2728 6.67066 0
M  V30 639 H 61.1004 -3.28535 5.67804 0
M  V30 640 H 61.0174 -2.40351 7.16776 0
M  V30 641 H 62.2854 -3.5687 6.93011 0
M  V30 642 N 66.5145 -1.57545 0.0417849 0
M  V30 643 C 67.4645 -2.07483 -0.945247 0
M  V30 644 C 68.4485 -0.977983 -1.27767 0
M  V30 645 O 69.6405 -1.24142 -1.26166 0
M  V30 646 C 66.7695 -2.61576 -2.22335 0
M  V30 647 C 65.8555 -3.78213 -1.91874 0
M  V30 648 N 66.2465 -4.88344 -1.31733 0
M  V30 649 C 64.5445 -3.8694 -2.21796 0
M  V30 650 C 65.2455 -5.69462 -1.1869 0
M  V30 651 N 64.2215 -5.16771 -1.68666 0
M  V30 652 H 68.0235 -2.90029 -0.475441 0
M  V30 653 H 65.5375 -1.61581 -0.162911 0
M  V30 654 H 67.5345 -2.95651 -2.93932 0
M  V30 655 H 66.1945 -1.80465 -2.69931 0
M  V30 656 H 67.2055 -5.08335 -0.990729 0
M  V30 657 H 63.8825 -3.16757 -2.71977 0
M  V30 658 H 65.2725 -6.68023 -0.720793 0
M  V30 659 N 67.9926 0.231505 -1.5589 0
M  V30 660 C 68.9026 1.308 -1.94752 0
M  V30 661 C 69.9186 1.51826 -0.849989 0
M  V30 662 O 71.0946 1.6515 -1.15271 0
M  V30 663 C 68.1596 2.63968 -2.24771 0
M  V30 664 C 67.2206 2.51331 -3.48039 0
M  V30 665 C 66.4536 3.78148 -3.76616 0
M  V30 666 O 66.6766 4.80722 -3.07022 0
M  V30 667 O 65.6106 3.75857 -4.70123 0
M  V30 668 H 69.4366 1.0083 -2.86474 0
M  V30 669 H 67.0216 0.433547 -1.42971 0
M  V30 670 H 68.9036 3.42633 -2.45318 0
M  V30 671 H 67.5786 2.9364 -1.36225 0
M  V30 672 H 66.4856 1.709 -3.32782 0
M  V30 673 H 67.8186 2.26601 -4.36936 0
M  V30 674 N 69.4707 1.49531 0.497807 0
M  V30 675 C 70.7477 1.49682 1.25915 0
M  V30 676 C 71.1277 0.226339 2.09883 0
M  V30 677 O 70.4757 -0.791189 2.14365 0
M  V30 678 C 70.6857 2.77755 2.11313 0
M  V30 679 C 72.0337 3.27371 2.70395 0
M  V30 680 O 73.0577 2.78894 2.21578 0
M  V30 681 O 71.9167 4.11808 3.59272 0
M  V30 682 H 69.0107 0.599228 0.56996 0
M  V30 683 H 71.5567 1.61798 0.511816 0
M  V30 684 H 70.3287 3.61713 1.49264 0
M  V30 685 H 69.9517 2.68515 2.93233 0
M  V30 686 N 70.9488 -0.749086 1.3866 0
M  V30 687 C 72.1738 -1.54344 1.38538 0
M  V30 688 C 72.5988 -1.88088 -0.0216655 0
M  V30 689 O 71.9568 -1.50899 -1.00494 0
M  V30 690 C 72.0048 -2.8164 2.25192 0
M  V30 691 O 71.1088 -3.7698 1.67212 0
M  V30 692 H 70.4498 -0.466654 0.472367 0
M  V30 693 H 72.9798 -0.925355 1.82478 0
M  V30 694 H 72.9898 -3.30519 2.3921 0
M  V30 695 H 71.6648 -2.56411 3.27454 0
M  V30 696 H 70.2418 -3.35699 1.6236 0
M  V30 697 N 72.4269 -1.23603 -0.977757 0
M  V30 698 C 73.3569 -1.04401 -2.0886 0
M  V30 699 C 74.3379 0.0399052 -1.70053 0
M  V30 700 O 75.5229 -0.125246 -1.93796 0
M  V30 701 C 72.6529 -0.637269 -3.41403 0
M  V30 702 C 71.6069 -1.66883 -3.94124 0
M  V30 703 C 70.9329 -1.11745 -5.22893 0
M  V30 704 C 72.2329 -3.06247 -4.23096 0
M  V30 705 H 73.9269 -1.97316 -2.25182 0
M  V30 706 H 71.4729 -0.950096 -1.08209 0
M  V30 707 H 73.4259 -0.48998 -4.18542 0
M  V30 708 H 72.1499 0.327557 -3.24953 0
M  V30 709 H 70.8089 -1.80416 -3.19133 0
M  V30 710 H 70.4569 -0.143527 -5.02795 0
M  V30 711 H 70.1569 -1.80672 -5.59134 0
M  V30 712 H 71.6809 -0.982067 -6.02651 0
M  V30 713 H 73.0949 -2.96001 -4.90975 0
M  V30 714 H 71.4919 -3.72436 -4.70544 0
M  V30 715 H 72.5619 -3.55041 -3.30263 0
M  V30 716 N 73.905 1.17692 -1.04816 0
M  V30 717 C 74.835 2.23777 -0.666791 0
M  V30 718 C 75.816 1.66796 0.33361 0
M  V30 719 O 77.001 1.93039 0.212042 0
M  V30 720 C 74.131 3.47281 -0.0367933 0
M  V30 721 C 73.085 4.17059 -0.961546 0
M  V30 722 C 72.411 5.34342 -0.195626 0
M  V30 723 C 73.711 4.69713 -2.28402 0
M  V30 724 H 75.405 2.55933 -1.55367 0
M  V30 725 H 72.951 1.23019 -0.748484 0
M  V30 726 H 74.904 4.20706 0.241775 0
M  V30 727 H 73.628 3.14381 0.885004 0
M  V30 728 H 72.287 3.45541 -1.22462 0
M  V30 729 H 71.935 4.97692 0.728816 0
M  V30 730 H 71.635 5.81966 -0.811775 0
M  V30 731 H 73.159 6.10553 0.0757473 0
M  V30 732 H 74.573 5.34794 -2.06563 0
M  V30 733 H 72.97 5.279 -2.8538 0
M  V30 734 H 74.04 3.86726 -2.92525 0
M  V30 735 N 75.3831 0.828654 1.34056 0
M  V30 736 C 76.3301 0.252567 2.29414 0
M  V30 737 C 77.3001 -0.62588 1.53857 0
M  V30 738 O 78.4851 -0.566312 1.82202 0
M  V30 739 C 75.6251 -0.574831 3.40279 0
M  V30 740 C 74.7381 0.326499 4.30764 0
M  V30 741 C 73.8731 -0.511016 5.28736 0
M  V30 742 C 72.9121 0.389342 6.1086 0
M  V30 743 N 72.0491 -0.409439 7.00905 0
M  V30 744 H 76.8891 1.07108 2.78086 0
M  V30 745 H 74.4261 0.539677 1.36843 0
M  V30 746 H 76.3841 -1.06992 4.03248 0
M  V30 747 H 75.0141 -1.35841 2.92826 0
M  V30 748 H 74.0661 0.939837 3.68607 0
M  V30 749 H 75.3781 1.01857 4.88289 0
M  V30 750 H 74.5321 -1.07035 5.97184 0
M  V30 751 H 73.2711 -1.23657 4.71763 0
M  V30 752 H 72.2761 0.960769 5.4134 0
M  V30 753 H 73.5011 1.1131 6.69916 0
M  V30 754 H 71.4471 -1.11856 6.46393 0
M  V30 755 H 71.3641 0.224126 7.55668 0
M  V30 756 H 72.6321 -0.951336 7.73673 0
M  V30 757 N 76.8612 -1.46375 0.584142 0
M  V30 758 C 78.1382 -1.956 0.0033388 0
M  V30 759 C 78.5182 -1.52679 -1.45782 0
M  V30 760 O 77.8662 -0.77816 -2.14842 0
M  V30 761 C 78.0762 -3.48551 0.176891 0
M  V30 762 C 79.4242 -4.24576 0.0454609 0
M  V30 763 O 80.4482 -3.56043 0.105801 0
M  V30 764 O 79.3072 -5.46427 -0.0890376 0
M  V30 765 H 76.4012 -0.825547 -0.0490066 0
M  V30 766 H 78.9472 -1.56652 0.65256 0
M  V30 767 H 77.7192 -3.72683 1.1926 0
M  V30 768 H 77.3422 -3.94332 -0.508695 0
M  V30 769 N 78.3393 -0.321999 -1.54275 0
M  V30 770 C 79.2693 0.537411 -2.27231 0
M  V30 771 C 80.2503 1.12064 -1.27968 0
M  V30 772 O 81.4353 1.14606 -1.56777 0
M  V30 773 C 78.5653 1.69919 -3.02894 0
M  V30 774 C 77.5193 1.24534 -4.09482 0
M  V30 775 C 76.8453 2.49394 -4.72977 0
M  V30 776 C 78.1453 0.361335 -5.21049 0
M  V30 777 H 79.8393 -0.0711406 -2.99315 0
M  V30 778 H 77.3853 -0.0356555 -1.43956 0
M  V30 779 H 79.3383 2.30668 -3.52662 0
M  V30 780 H 78.0623 2.33431 -2.28424 0
M  V30 781 H 76.7213 0.660782 -3.60596 0
M  V30 782 H 76.3693 3.11265 -3.95124 0
M  V30 783 H 76.0693 2.19718 -5.44975 0
M  V30 784 H 77.5933 3.10908 -5.25517 0
M  V30 785 H 79.0073 0.875072 -5.66582 0
M  V30 786 H 77.4043 0.157428 -5.99893 0
M  V30 787 H 78.4743 -0.60822 -4.8107 0
M  V30 788 N 79.8174 1.5752 -0.0501392 0
M  V30 789 C 81.0644 1.9265 0.623874 0
M  V30 790 C 81.3924 0.928411 1.70912 0
M  V30 791 O 80.6474 -0.0594525 1.9561 0
M  V30 792 C 80.9464 3.34467 1.25963 0
M  V30 793 C 80.6124 4.49883 0.302689 0
M  V30 794 C 79.2744 4.81184 0.0393636 0
M  V30 795 C 81.6264 5.20002 -0.353205 0
M  V30 796 C 78.9544 5.79951 -0.887308 0
M  V30 797 C 81.3064 6.1976 -1.26806 0
M  V30 798 C 79.9704 6.49491 -1.54007 0
M  V30 799 H 79.2404 0.704957 0.228292 0
M  V30 800 H 81.8874 1.91146 -0.116398 0
M  V30 801 H 80.1924 3.32333 2.07514 0
M  V30 802 H 81.8894 3.58928 1.78806 0
M  V30 803 H 78.4794 4.25457 0.518109 0
M  V30 804 H 82.6634 4.96033 -0.162854 0
M  V30 805 H 77.9194 6.01322 -1.10553 0
M  V30 806 H 82.0934 6.73205 -1.78236 0
M  V30 807 H 79.7204 7.25837 -2.25976 0
M  V30 808 N 81.2955 -0.223234 1.56011 0
M  V30 809 C 82.2275 -1.30006 1.88762 0
M  V30 810 C 83.2405 -1.43129 0.775746 0
M  V30 811 O 84.4295 -1.44057 1.05403 0
M  V30 812 C 81.5295 -2.67589 2.07965 0
M  V30 813 C 80.7025 -2.76434 3.38973 0
M  V30 814 C 79.7615 -3.95019 3.47629 0
M  V30 815 O 78.7875 -3.83436 4.20672 0
M  V30 816 N 79.9895 -5.09249 2.78649 0
M  V30 817 H 82.7545 -1.02238 2.81722 0
M  V30 818 H 80.3155 -0.413278 1.56536 0
M  V30 819 H 82.3075 -3.45297 2.11073 0
M  V30 820 H 80.8775 -2.87964 1.21638 0
M  V30 821 H 80.0975 -1.85216 3.47978 0
M  V30 822 H 81.3855 -2.79313 4.25278 0
M  V30 823 H 80.7835 -5.21556 2.19081 0
M  V30 824 H 79.3405 -5.85007 2.8742 0
M  V30 825 N 82.7736 -1.49793 -0.48987 0
M  V30 826 C 84.0506 -1.50348 -1.25119 0
M  V30 827 C 84.4306 -0.237466 -2.0976 0
M  V30 828 O 83.7786 0.77981 -2.14782 0
M  V30 829 C 83.9886 -2.78872 -2.09837 0
M  V30 830 C 85.3366 -3.288 -2.68655 0
M  V30 831 O 86.3606 -2.80065 -2.20096 0
M  V30 832 O 85.2196 -4.13707 -3.57083 0
M  V30 833 H 82.3136 -0.602242 -0.566775 0
M  V30 834 H 84.8596 -1.62067 -0.503229 0
M  V30 835 H 83.6316 -3.62499 -1.47343 0
M  V30 836 H 83.2546 -2.70066 -2.91805 0
M  V30 837 N 84.2517 0.741722 -1.39055 0
M  V30 838 C 85.4817 1.52876 -1.3897 0
M  V30 839 C 85.8897 1.8919 0.0193266 0
M  V30 840 O 85.2327 1.54138 0.999356 0
M  V30 841 C 85.2947 2.84929 -2.19216 0
M  V30 842 C 84.9587 2.71086 -3.67915 0
M  V30 843 C 85.9557 2.40084 -4.61146 0
M  V30 844 C 83.6407 2.88168 -4.11418 0
M  V30 845 C 85.6347 2.26335 -5.95862 0
M  V30 846 C 83.3217 2.74037 -5.46211 0
M  V30 847 C 84.3197 2.43166 -6.38247 0
M  V30 848 O 84.0077 2.29115 -7.70559 0
M  V30 849 H 83.7397 0.479252 -0.476753 0
M  V30 850 H 86.2937 0.924751 -1.83405 0
M  V30 851 H 84.5237 3.47564 -1.69518 0
M  V30 852 H 86.2127 3.46509 -2.11392 0
M  V30 853 H 86.9787 2.26545 -4.28838 0
M  V30 854 H 82.8577 3.11191 -3.40119 0
M  V30 855 H 86.4017 2.0216 -6.67665 0
M  V30 856 H 82.2987 2.87153 -5.78112 0
M  V30 857 H 83.0667 2.44237 -7.81211 0
M  V30 858 N 85.7298 1.2412 0.971189 0
M  V30 859 C 86.6398 1.04747 2.09917 0
M  V30 860 C 87.6558 -0.0107162 1.73997 0
M  V30 861 O 88.8318 0.186714 2.00533 0
M  V30 862 C 85.8968 0.650828 3.40537 0
M  V30 863 C 84.9578 1.7851 3.90426 0
M  V30 864 C 84.1908 1.40729 5.14812 0
M  V30 865 O 84.4138 0.29557 5.69634 0
M  V30 866 O 83.3478 2.23168 5.58999 0
M  V30 867 H 87.1738 1.99304 2.29154 0
M  V30 868 H 84.7588 1.02908 1.08307 0
M  V30 869 H 86.6408 0.440992 4.19086 0
M  V30 870 H 85.3158 -0.265649 3.22608 0
M  V30 871 H 84.2228 2.04966 3.12953 0
M  V30 872 H 85.5558 2.68023 4.12825 0
M  V30 873 N 87.2079 -1.17134 1.05439 0
M  V30 874 C 88.6239 -1.39454 0.776201 0
M  V30 875 C 88.8239 -1.91454 -0.628307 0
M  V30 876 O 87.8799 -2.10777 -1.39031 0
M  V30 877 C 89.1929 -2.38305 1.83388 0
M  V30 878 C 90.7409 -2.52006 1.85639 0
M  V30 879 C 91.2159 -3.54133 2.90437 0
M  V30 880 N 92.7069 -3.61653 2.89415 0
M  V30 881 C 93.4419 -4.4044 3.67152 0
M  V30 882 N 92.9379 -5.22721 4.54681 0
M  V30 883 N 94.7309 -4.35337 3.55581 0
M  V30 884 H 86.8819 -0.817134 1.96053 0
M  V30 885 H 89.1449 -0.421626 0.849079 0
M  V30 886 H 88.8509 -2.07173 2.84204 0
M  V30 887 H 88.7249 -3.37841 1.67761 0
M  V30 888 H 91.1119 -2.82447 0.85486 0
M  V30 889 H 91.1929 -1.52537 2.05344 0
M  V30 890 H 90.8369 -3.24431 3.90777 0
M  V30 891 H 90.7669 -4.53313 2.67983 0
M  V30 892 H 93.2579 -3.02909 2.25952 0
M  V30 893 H 93.5709 -5.80027 5.10674 0
M  V30 894 H 91.9159 -5.22093 4.58741 0
M  V30 895 H 95.1069 -3.70112 2.86592 0
M  V30 896 H 95.2799 -4.96494 4.1641 0
M  V30 897 N 88.686 -0.835752 -1.33615 0
M  V30 898 C 89.932 -0.439817 -1.98588 0
M  V30 899 C 90.287 0.989274 -1.65019 0
M  V30 900 O 89.58 1.68168 -0.918159 0
M  V30 901 C 89.774 -0.593925 -3.52431 0
M  V30 902 C 89.603 -2.03644 -4.00948 0
M  V30 903 C 88.373 -2.67103 -4.28934 0
M  V30 904 C 90.571 -3.00479 -4.17393 0
M  V30 905 N 88.553 -4.02462 -4.6357 0
M  V30 906 C 89.924 -4.20777 -4.55353 0
M  V30 907 C 91.979 -2.96926 -3.99674 0
M  V30 908 C 90.682 -5.37994 -4.77447 0
M  V30 909 C 92.708 -4.1337 -4.22941 0
M  V30 910 C 92.07 -5.32422 -4.61201 0
M  V30 911 H 88.169 -0.209303 -0.75347 0
M  V30 912 H 90.753 -1.08316 -1.61789 0
M  V30 913 H 88.924 0.019599 -3.88395 0
M  V30 914 H 90.656 -0.169738 -4.04344 0
M  V30 915 H 87.411 -2.18259 -4.20309 0
M  V30 916 H 87.835 -4.72232 -4.85104 0
M  V30 917 H 92.477 -2.06015 -3.69212 0
M  V30 918 H 90.195 -6.29451 -5.06771 0
M  V30 919 H 93.781 -4.12034 -4.10754 0
M  V30 920 H 92.661 -6.21027 -4.78848 0
M  V30 921 N 90.1641 1.46063 -0.591896 0
M  V30 922 C 91.4101 2.02638 -0.0811191 0
M  V30 923 C 91.7431 1.4613 1.27905 0
M  V30 924 O 91.0181 0.629908 1.84017 0
M  V30 925 C 91.3011 3.60091 -0.0252436 0
M  V30 926 C 91.1541 4.26965 -1.41496 0
M  V30 927 C 92.4731 4.3496 0.670685 0
M  V30 928 H 89.5921 0.73635 -0.0309524 0
M  V30 929 H 92.2341 1.741 -0.760859 0
M  V30 930 H 90.3841 3.84535 0.553624 0
M  V30 931 H 92.0561 4.13756 -2.0397 0
M  V30 932 H 90.2991 3.85971 -1.98011 0
M  V30 933 H 90.9701 5.35781 -1.32825 0
M  V30 934 H 93.4461 4.15716 0.178825 0
M  V30 935 H 92.3221 5.44686 0.678837 0
M  V30 936 H 92.5831 4.06685 1.73379 0
M  V30 937 N 91.6422 0.330177 1.54103 0
M  V30 938 C 93.0582 -0.0222371 1.59585 0
M  V30 939 C 93.2582 -1.49902 1.34654 0
M  V30 940 O 92.3142 -2.25592 1.13421 0
M  V30 941 C 93.6272 0.401932 2.98002 0
M  V30 942 C 95.1752 0.353145 3.11001 0
M  V30 943 C 95.6502 0.752576 4.51775 0
M  V30 944 N 97.1412 0.706239 4.57784 0
M  V30 945 C 97.8762 0.987417 5.64834 0
M  V30 946 N 97.3722 1.33607 6.79795 0
M  V30 947 N 99.1652 0.91254 5.54643 0
M  V30 948 H 91.3162 1.29228 1.68564 0
M  V30 949 H 93.5792 0.525906 0.78875 0
M  V30 950 H 93.2852 1.4311 3.21267 0
M  V30 951 H 93.1592 -0.229699 3.765 0
M  V30 952 H 95.5462 -0.666822 2.87467 0
M  V30 953 H 95.6272 1.0198 2.34593 0
M  V30 954 H 95.2712 1.77049 4.76042 0
M  V30 955 H 95.2012 0.0635409 5.26562 0
M  V30 956 H 97.6922 0.44889 3.75224 0
M  V30 957 H 98.0052 1.53582 7.57385 0
M  V30 958 H 96.3502 1.37439 6.81275 0
M  V30 959 H 99.5412 0.639601 4.6371 0
M  V30 960 H 99.7142 1.13503 6.37982 0
M  V30 961 N 93.1203 -1.57491 0.0584922 0
M  V30 962 C 94.5313 -1.80526 -0.476138 0
M  V30 963 C 94.8823 -0.971334 -1.70469 0
M  V30 964 O 94.0073 -0.190012 -2.15564 0
M  V30 965 C 94.6023 -3.27424 -0.870587 0
M  V30 966 C 93.1613 -3.51351 -1.35015 0
M  V30 967 C 92.3083 -2.75343 -0.32887 0
M  V30 968 H 95.2593 -1.56133 0.284312 0
M  V30 969 H 95.2803 -3.38745 -1.73299 0
M  V30 970 H 94.7923 -3.88093 0.0237627 0
M  V30 971 H 92.8933 -2.95971 -2.26345 0
M  V30 972 H 93.0063 -4.60059 -1.33726 0
M  V30 973 H 91.3703 -2.417 -0.803321 0
M  V30 974 H 92.1533 -3.38743 0.557521 0
M  V30 975 N 94.5984 0.214957 -1.56127 0
M  V30 976 C 95.8444 0.939762 -1.79712 0
M  V30 977 C 96.1774 1.83723 -0.629247 0
M  V30 978 O 95.4524 1.90925 0.371197 0
M  V30 979 C 95.7354 1.77306 -3.13424 0
M  V30 980 C 95.5884 0.90164 -4.40671 0
M  V30 981 C 96.9074 2.74956 -3.43638 0
M  V30 982 H 94.0264 0.340214 -0.653776 0
M  V30 983 H 96.6684 0.20824 -1.88855 0
M  V30 984 H 94.8184 2.39673 -3.0576 0
M  V30 985 H 96.4904 0.294206 -4.60361 0
M  V30 986 H 94.7334 0.207368 -4.33304 0
M  V30 987 H 95.4044 1.51923 -5.30682 0
M  V30 988 H 97.8804 2.22724 -3.51473 0
M  V30 989 H 96.7564 3.30358 -4.38355 0
M  V30 990 H 97.0174 3.53023 -2.66134 0
M  V30 991 N 96.0765 1.50051 0.48192 0
M  V30 992 C 96.9865 1.7089 1.60728 0
M  V30 993 C 98.0025 0.591788 1.63627 0
M  V30 994 O 99.1785 0.868817 1.81696 0
M  V30 995 C 96.2435 1.78855 2.97005 0
M  V30 996 C 95.3045 3.02537 3.04581 0
M  V30 997 C 94.5375 3.10112 4.34357 0
M  V30 998 O 94.7605 2.24765 5.24249 0
M  V30 999 O 93.6945 4.02747 4.47301 0
M  V30 1000 H 97.5205 2.66264 1.46072 0
M  V30 1001 H 95.1055 1.34018 0.660264 0
M  V30 1002 H 96.9875 1.86336 3.77964 0
M  V30 1003 H 95.6625 0.866628 3.11883 0
M  V30 1004 H 94.5695 3.00563 2.22739 0
M  V30 1005 H 95.9025 3.94272 2.94636 0
M  V30 1006 N 97.5546 -0.734337 1.39446 0
M  V30 1007 C 98.5046 -1.83949 1.34709 0
M  V30 1008 C 99.4886 -1.59279 0.227851 0
M  V30 1009 O 100.681 -1.70771 0.465438 0
M  V30 1010 C 97.8096 -3.21884 1.19356 0
M  V30 1011 C 96.8956 -3.52381 2.35984 0
M  V30 1012 N 97.2866 -3.53811 3.61457 0
M  V30 1013 C 95.5846 -3.82747 2.28956 0
M  V30 1014 C 96.2856 -3.82122 4.38586 0
M  V30 1015 N 95.2616 -3.9993 3.68181 0
M  V30 1016 H 99.0636 -1.83361 2.29687 0
M  V30 1017 H 96.5776 -0.932609 1.32952 0
M  V30 1018 H 98.5746 -4.00998 1.14046 0
M  V30 1019 H 97.2346 -3.23711 0.253295 0
M  V30 1020 H 98.2456 -3.35107 3.94872 0
M  V30 1021 H 94.9226 -3.92175 1.43194 0
M  V30 1022 H 96.3126 -3.89691 5.47349 0
M  V30 1023 N 99.0327 -1.24633 -0.964593 0
M  V30 1024 C 99.9627 -1.06611 -2.07741 0
M  V30 1025 C 100.944 0.0218666 -1.70086 0
M  V30 1026 O 102.129 -0.145793 -1.93652 0
M  V30 1027 C 99.2587 -0.673444 -3.40708 0
M  V30 1028 C 98.2127 -1.71054 -3.92332 0
M  V30 1029 C 97.5387 -1.17285 -5.21678 0
M  V30 1030 C 98.8387 -3.10718 -4.19824 0
M  V30 1031 H 100.533 -1.99693 -2.23076 0
M  V30 1032 H 98.0787 -0.96152 -1.07195 0
M  V30 1033 H 100.032 -0.534345 -4.17998 0
M  V30 1034 H 98.7557 0.293073 -3.25282 0
M  V30 1035 H 97.4147 -1.83791 -3.17201 0
M  V30 1036 H 97.0627 -0.196847 -5.02615 0
M  V30 1037 H 96.7627 -1.86592 -5.57187 0
M  V30 1038 H 98.2867 -1.04593 -6.01575 0
M  V30 1039 H 99.7007 -3.01192 -4.87808 0
M  V30 1040 H 98.0977 -3.77406 -4.66567 0
M  V30 1041 H 99.1677 -3.58524 -3.26479 0
M  V30 1042 N 100.511 1.16574 -1.06058 0
M  V30 1043 C 101.459 2.22941 -0.663343 0
M  V30 1044 C 102.453 1.66358 0.319593 0
M  V30 1045 O 103.659 1.7905 0.184713 0
M  V30 1046 H 100.034 0.725907 -0.196376 0
M  V30 1047 H 102.005 2.53736 -1.57037 0
M  V30 1048 C 100.754 3.47642 -0.0632808 0
M  V30 1049 H 100.077 3.91493 -0.810733 0
M  V30 1050 H 101.517 4.2363 0.177177 0
M  V30 1051 C 99.9758 3.1509 1.19248 0
M  V30 1052 O 100.506 3.30673 2.28075 0
M  V30 1053 N 98.7118 2.6924 1.09353 0
M  V30 1054 H 98.2588 2.5676 0.207912 0
M  V30 1055 H 98.2168 2.47833 1.93458 0
M  V30 1056 N 101.989 0.842826 1.3317 0
M  V30 1057 C 103.266 0.362216 1.92217 0
M  V30 1058 C 103.646 -1.15289 1.76838 0
M  V30 1059 O 102.994 -1.96914 1.15919 0
M  V30 1060 C 103.204 0.813495 3.39387 0
M  V30 1061 C 104.552 0.823804 4.16532 0
M  V30 1062 O 105.576 0.757358 3.48055 0
M  V30 1063 O 104.435 0.915193 5.38782 0
M  V30 1064 H 101.529 0.103317 0.820521 0
M  V30 1065 H 104.075 0.928942 1.42017 0
M  V30 1066 H 102.847 1.85624 3.4447 0
M  V30 1067 H 102.47 0.223561 3.96971 0
M  V30 1068 N 103.467 -1.45747 0.599634 0
M  V30 1069 C 104.414 -2.30467 -0.123849 0
M  V30 1070 C 105.384 -1.41632 -0.86774 0
M  V30 1071 O 106.569 -1.70568 -0.855056 0
M  V30 1072 C 103.709 -3.26402 -1.12051 0
M  V30 1073 C 102.822 -4.3034 -0.37832 0
M  V30 1074 C 101.957 -5.13389 -1.364 0
M  V30 1075 C 100.996 -6.09061 -0.609171 0
M  V30 1076 N 100.133 -6.84918 -1.54374 0
M  V30 1077 H 104.973 -2.91802 0.604627 0
M  V30 1078 H 102.51 -1.43797 0.309972 0
M  V30 1079 H 104.468 -3.80482 -1.7114 0
M  V30 1080 H 103.098 -2.66839 -1.8165 0
M  V30 1081 H 102.15 -3.78984 0.327929 0
M  V30 1082 H 103.462 -4.98354 0.210997 0
M  V30 1083 H 102.616 -5.7183 -2.02719 0
M  V30 1084 H 101.355 -4.45376 -1.98725 0
M  V30 1085 H 100.36 -5.49758 0.0676979 0
M  V30 1086 H 101.585 -6.79099 0.00891991 0
M  V30 1087 H 99.531 -6.19601 -2.15478 0
M  V30 1088 H 99.448 -7.49254 -1.00766 0
M  V30 1089 H 100.716 -7.47906 -2.19676 0
M  V30 1090 N 104.945 -0.338344 -1.53925 0
M  V30 1091 C 106.194 0.260732 -2.00008 0
M  V30 1092 C 106.507 1.52073 -1.23017 0
M  V30 1093 O 107.713 2.19672 -1.5955 0
M  V30 1094 C 106.169 0.51515 -3.56194 0
M  V30 1095 C 105.777 -0.728645 -4.42035 0
M  V30 1096 C 107.521 1.07337 -4.10706 0
M  V30 1097 C 105.428 -0.445315 -5.89721 0
M  V30 1098 H 104.358 0.101205 -0.747177 0
M  V30 1099 H 107.009 -0.452866 -1.77824 0
M  V30 1100 H 105.391 1.28932 -3.74423 0
M  V30 1101 H 106.565 -1.50352 -4.35581 0
M  V30 1102 H 104.88 -1.20813 -3.98489 0
M  V30 1103 H 107.477 1.30022 -5.18651 0
M  V30 1104 H 107.82 2.0273 -3.63602 0
M  V30 1105 H 108.353 0.360034 -3.96167 0
M  V30 1106 H 105.092 -1.36883 -6.41049 0
M  V30 1107 H 104.612 0.291569 -5.99091 0
M  V30 1108 H 106.291 -0.0606218 -6.46972 0
M  V30 1109 N 106.423 1.57458 -0.0668435 0
M  V30 1110 C 107.37 2.12439 0.902122 0
M  V30 1111 C 108.34 1.03565 1.2986 0
M  V30 1112 O 109.525 1.312 1.38532 0
M  V30 1113 C 106.665 2.6865 2.16614 0
M  V30 1114 C 105.778 3.91663 1.82274 0
M  V30 1115 C 104.913 4.36134 3.0325 0
M  V30 1116 C 103.952 5.51808 2.64904 0
M  V30 1117 N 103.089 5.9126 3.78624 0
M  V30 1118 H 107.929 2.94934 0.426382 0
M  V30 1119 H 105.466 1.4575 0.198819 0
M  V30 1120 H 107.424 2.99346 2.90599 0
M  V30 1121 H 106.054 1.88928 2.61737 0
M  V30 1122 H 105.106 3.6746 0.983719 0
M  V30 1123 H 106.418 4.75693 1.50059 0
M  V30 1124 H 105.572 4.68465 3.85519 0
M  V30 1125 H 104.311 3.50948 3.38655 0
M  V30 1126 H 103.316 5.19133 1.81055 0
M  V30 1127 H 104.541 6.38722 2.30675 0
M  V30 1128 H 102.487 5.09024 4.138 0
M  V30 1129 H 102.404 6.70018 3.5016 0
M  V30 1130 H 103.672 6.28212 4.61486 0
M  V30 1131 N 107.901 -0.206675 1.56239 0
M  V30 1132 C 109.15 -0.926964 1.79138 0
M  V30 1133 C 109.463 -1.84901 0.638043 0
M  V30 1134 O 110.669 -2.60906 0.751033 0
M  V30 1135 C 109.125 -1.6986 3.17294 0
M  V30 1136 C 108.733 -0.821956 4.40395 0
M  V30 1137 C 110.477 -2.40922 3.4951 0
M  V30 1138 C 108.384 -1.59179 5.69575 0
M  V30 1139 H 107.314 -0.349864 0.667915 0
M  V30 1140 H 109.965 -0.180487 1.8261 0
M  V30 1141 H 108.347 -2.48853 3.08039 0
M  V30 1142 H 109.521 -0.0715019 4.60745 0
M  V30 1143 H 107.836 -0.222741 4.15804 0
M  V30 1144 H 110.433 -2.99047 4.43255 0
M  V30 1145 H 110.776 -3.14542 2.72707 0
M  V30 1146 H 111.309 -1.68905 3.60161 0
M  V30 1147 H 108.048 -0.898589 6.49312 0
M  V30 1148 H 107.568 -2.31648 5.53262 0
M  V30 1149 H 109.247 -2.14862 6.10281 0
M  V30 1150 N 109.379 -1.50304 -0.473955 0
M  V30 1151 C 110.326 -1.68959 -1.57231 0
M  V30 1152 C 111.296 -0.530899 -1.57387 0
M  V30 1153 O 112.481 -0.761133 -1.74961 0
M  V30 1154 C 109.621 -1.7871 -2.95223 0
M  V30 1155 C 108.734 -3.06061 -3.04878 0
M  V30 1156 C 107.869 -3.06626 -4.33767 0
M  V30 1157 C 106.908 -4.28443 -4.37154 0
M  V30 1158 N 106.045 -4.26763 -5.5751 0
M  V30 1159 H 110.885 -2.6273 -1.40631 0
M  V30 1160 H 108.422 -1.30241 -0.683789 0
M  V30 1161 H 110.38 -1.82344 -3.75242 0
M  V30 1162 H 109.01 -0.883806 -3.10465 0
M  V30 1163 H 108.062 -3.11911 -2.17751 0
M  V30 1164 H 109.374 -3.96039 -3.0324 0
M  V30 1165 H 108.528 -3.08973 -5.22131 0
M  V30 1166 H 107.267 -2.14473 -4.3801 0
M  V30 1167 H 106.272 -4.2631 -3.47188 0
M  V30 1168 H 107.497 -5.2182 -4.34605 0
M  V30 1169 H 105.443 -3.37462 -5.62544 0
M  V30 1170 H 105.36 -5.10507 -5.57601 0
M  V30 1171 H 106.628 -4.33253 -6.48006 0
M  V30 1172 N 110.857 0.726932 -1.39834 0
M  V30 1173 C 112.104 1.48664 -1.37496 0
M  V30 1174 C 112.432 1.94482 0.0264678 0
M  V30 1175 O 111.687 1.67692 1.00886 0
M  V30 1176 C 111.986 2.73495 -2.30077 0
M  V30 1177 C 111.652 2.46502 -3.77555 0
M  V30 1178 C 110.314 2.3885 -4.17737 0
M  V30 1179 C 112.666 2.23604 -4.70798 0
M  V30 1180 C 109.994 2.06352 -5.49214 0
M  V30 1181 C 112.346 1.92622 -6.02561 0
M  V30 1182 C 111.01 1.83444 -6.41798 0
M  V30 1183 H 110.28 0.544001 -0.503135 0
M  V30 1184 H 112.927 0.833657 -1.72402 0
M  V30 1185 H 111.232 3.43575 -1.88317 0
M  V30 1186 H 112.929 3.31549 -2.25558 0
M  V30 1187 H 109.519 2.5334 -3.45712 0
M  V30 1188 H 113.703 2.28479 -4.40581 0
M  V30 1189 H 108.959 1.97776 -5.78528 0
M  V30 1190 H 113.133 1.73914 -6.74334 0
M  V30 1191 H 110.76 1.58029 -7.43593 0
M  V30 1192 N 112.336 1.25143 0.95797 0
M  V30 1193 C 113.584 1.09476 1.69881 0
M  V30 1194 C 113.905 -0.365502 1.91544 0
M  V30 1195 O 113.175 -1.25985 1.50015 0
M  V30 1196 H 111.755 0.402128 0.629525 0
M  V30 1197 H 114.417 1.57214 1.15194 0
M  V30 1198 H 113.513 1.60046 2.6794 0
M  V30 1199 N 113.814 -1.1601 1.06675 0
M  V30 1200 C 114.744 -2.22688 0.702307 0
M  V30 1201 C 115.725 -1.67306 -0.307032 0
M  V30 1202 O 116.91 -1.93352 -0.181305 0
M  V30 1203 C 114.04 -3.47178 0.092038 0
M  V30 1204 C 112.994 -4.15477 1.02777 0
M  V30 1205 C 112.32 -5.33963 0.28061 0
M  V30 1206 C 113.62 -4.66019 2.35846 0
M  V30 1207 H 115.314 -2.53429 1.59419 0
M  V30 1208 H 112.86 -1.21813 0.767961 0
M  V30 1209 H 114.813 -4.21037 -0.174814 0
M  V30 1210 H 113.537 -3.15749 -0.834877 0
M  V30 1211 H 112.196 -3.43549 1.27944 0
M  V30 1212 H 111.844 -4.98788 -0.649545 0
M  V30 1213 H 111.544 -5.806 0.904258 0
M  V30 1214 H 113.068 -6.10596 0.021396 0
M  V30 1215 H 114.482 -5.3144 2.15045 0
M  V30 1216 H 112.879 -5.23293 2.93743 0
M  V30 1217 H 113.949 -3.82023 2.98641 0
M  V30 1218 N 115.292 -0.849877 -1.32721 0
M  V30 1219 C 116.255 -0.296122 -2.27279 0
M  V30 1220 C 117.255 0.541458 -1.5141 0
M  V30 1221 O 118.445 0.353658 -1.70572 0
M  V30 1222 C 115.577 0.581579 -3.35902 0
M  V30 1223 H 116.77 -1.13064 -2.77771 0
M  V30 1224 H 114.323 -0.62383 -1.43311 0
M  V30 1225 H 115.058 1.43809 -2.9067 0
M  V30 1226 H 114.843 -0.0178814 -3.92096 0
M  V30 1227 H 116.333 0.961951 -4.0637 0
M  V30 1228 N 116.77 1.45427 -0.607355 0
M  V30 1229 C 118.019 2.01452 -0.100036 0
M  V30 1230 C 118.332 1.48159 1.27704 0
M  V30 1231 O 119.538 1.96159 1.87707 0
M  V30 1232 C 117.994 3.59672 -0.128158 0
M  V30 1233 C 117.602 4.21962 -1.50507 0
M  V30 1234 C 119.346 4.23262 0.323932 0
M  V30 1235 C 117.253 5.72333 -1.48959 0
M  V30 1236 H 116.183 0.75325 -0.0336299 0
M  V30 1237 H 118.834 1.66901 -0.76265 0
M  V30 1238 H 117.216 3.91411 0.601105 0
M  V30 1239 H 118.39 4.01796 -2.25602 0
M  V30 1240 H 116.705 3.70565 -1.89923 0
M  V30 1241 H 119.302 5.33522 0.354691 0
M  V30 1242 H 119.645 3.93921 1.34656 0
M  V30 1243 H 120.178 3.96239 -0.352056 0
M  V30 1244 H 116.917 6.06373 -2.48981 0
M  V30 1245 H 116.437 5.94691 -0.781214 0
M  V30 1246 H 118.116 6.35525 -1.21313 0
M  V30 1247 N 118.248 0.346503 1.53744 0
M  V30 1248 C 119.473 -0.253074 2.0585 0
M  V30 1249 C 119.898 -1.43202 1.21962 0
M  V30 1250 O 119.256 -1.79783 0.234073 0
M  V30 1251 C 119.304 -0.643193 3.54817 0
M  V30 1252 O 118.408 -1.74286 3.73762 0
M  V30 1253 H 117.749 -0.0413583 0.662711 0
M  V30 1254 H 120.279 0.501574 1.98357 0
M  V30 1255 H 120.289 -0.919526 3.97503 0
M  V30 1256 H 118.964 0.218966 4.15323 0
M  V30 1257 H 117.541 -1.46356 3.42979 0
M  V30 1258 N 119.726 -1.57421 0.075193 0
M  V30 1259 C 120.658 -2.09904 -0.920483 0
M  V30 1260 C 121.671 -1.03191 -1.25918 0
M  V30 1261 O 122.86 -1.30695 -1.21577 0
M  V30 1262 C 119.96 -2.54726 -2.23534 0
M  V30 1263 C 119.133 -3.8505 -2.07498 0
M  V30 1264 C 118.192 -4.15929 -3.22319 0
M  V30 1265 O 117.218 -4.85474 -2.9716 0
M  V30 1266 N 118.42 -3.69745 -4.47514 0
M  V30 1267 H 121.185 -2.95954 -0.472359 0
M  V30 1268 H 118.746 -1.61523 -0.110444 0
M  V30 1269 H 120.738 -2.72443 -2.9926 0
M  V30 1270 H 119.308 -1.73795 -2.59835 0
M  V30 1271 H 118.528 -3.76679 -1.16219 0
M  V30 1272 H 119.816 -4.70348 -1.94038 0
M  V30 1273 H 119.214 -3.13569 -4.7084 0
M  V30 1274 H 117.771 -3.92655 -5.20255 0
M  V30 1275 N 121.204 0.198386 -1.56346 0
M  V30 1276 C 122.134 1.24865 -1.9731 0
M  V30 1277 C 123.115 1.47651 -0.844576 0
M  V30 1278 O 124.3 1.59444 -1.10866 0
M  V30 1279 C 121.43 2.59358 -2.30977 0
M  V30 1280 C 120.384 2.5119 -3.46537 0
M  V30 1281 C 119.71 3.89926 -3.65871 0
M  V30 1282 C 121.01 2.03977 -4.80823 0
M  V30 1283 H 122.704 0.908252 -2.85291 0
M  V30 1284 H 120.25 0.435462 -1.37258 0
M  V30 1285 H 122.203 3.33011 -2.58228 0
M  V30 1286 H 120.927 2.95132 -1.39874 0
M  V30 1287 H 119.586 1.79993 -3.19371 0
M  V30 1288 H 119.234 4.23046 -2.72105 0
M  V30 1289 H 118.934 3.85336 -4.4361 0
M  V30 1290 H 120.458 4.65205 -3.95495 0
M  V30 1291 H 121.872 2.67386 -5.07127 0
M  V30 1292 H 120.269 2.10397 -5.62008 0
M  V30 1293 H 121.339 0.992861 -4.74626 0
M  V30 1294 N 122.682 1.50554 0.465978 0
M  V30 1295 C 123.928 1.62038 1.21949 0
M  V30 1296 C 124.261 0.322116 1.9151 0
M  V30 1297 O 123.536 -0.676723 1.82348 0
M  V30 1298 C 123.819 2.80421 2.25912 0
M  V30 1299 C 123.672 4.20144 1.60622 0
M  V30 1300 C 124.991 2.94354 3.27176 0
M  V30 1301 H 122.11 0.589752 0.441998 0
M  V30 1302 H 124.752 1.82956 0.51257 0
M  V30 1303 H 122.902 2.62717 2.86203 0
M  V30 1304 H 124.574 4.49449 1.03889 0
M  V30 1305 H 122.817 4.24165 0.909211 0
M  V30 1306 H 123.488 4.98914 2.36196 0
M  V30 1307 H 125.964 3.10578 2.76913 0
M  V30 1308 H 124.84 3.788 3.97242 0
M  V30 1309 H 125.101 2.05186 3.916 0
M  V30 1310 N 124.16 -0.719506 1.40217 0
M  V30 1311 C 125.437 -1.47221 1.28784 0
M  V30 1312 C 125.817 -2.10883 -0.0956067 0
M  V30 1313 O 125.165 -1.99833 -1.10811 0
M  V30 1314 C 125.375 -2.5111 2.42373 0
M  V30 1315 C 126.723 -3.17053 2.82423 0
M  V30 1316 O 127.747 -2.61429 2.41937 0
M  V30 1317 O 126.606 -4.17742 3.52355 0
M  V30 1318 H 123.7 -0.654491 0.50554 0
M  V30 1319 H 126.246 -0.752014 1.52128 0
M  V30 1320 H 125.018 -2.02556 3.34793 0
M  V30 1321 H 124.641 -3.3067 2.20778 0
M  V30 1322 N 125.638 -1.25649 -0.95132 0
M  V30 1323 C 126.884 -1.10757 -1.69884 0
M  V30 1324 C 127.217 0.350061 -1.91019 0
M  V30 1325 O 126.492 1.25783 -1.48354 0
M  V30 1326 C 126.775 -1.86606 -3.07978 0
M  V30 1327 C 126.628 -3.40217 -2.94232 0
M  V30 1328 C 127.947 -1.65182 -4.07925 0
M  V30 1329 H 125.066 -0.40374 -0.616574 0
M  V30 1330 H 127.708 -1.54521 -1.10558 0
M  V30 1331 H 125.858 -1.49409 -3.58621 0
M  V30 1332 H 127.53 -3.87108 -2.50889 0
M  V30 1333 H 125.773 -3.67759 -2.30078 0
M  V30 1334 H 126.444 -3.88505 -3.92133 0
M  V30 1335 H 128.92 -1.9757 -3.66204 0
M  V30 1336 H 127.796 -2.20683 -5.02583 0
M  V30 1337 H 128.057 -0.593933 -4.38092 0
M  V30 1338 N 127.117 1.15442 -1.07289 0
M  V30 1339 C 128.394 1.82306 -0.708792 0
M  V30 1340 C 128.774 1.94991 0.808807 0
M  V30 1341 O 128.122 1.50085 1.72298 0
M  V30 1342 C 128.332 3.18695 -1.42247 0
M  V30 1343 C 129.68 3.94341 -1.57417 0
M  V30 1344 O 130.704 3.28247 -1.38319 0
M  V30 1345 O 129.563 5.12839 -1.88834 0
M  V30 1346 H 126.657 0.787628 -0.252132 0
M  V30 1347 H 129.203 1.22559 -1.17377 0
M  V30 1348 H 127.975 3.04557 -2.45684 0
M  V30 1349 H 127.598 3.86128 -0.948223 0
M  V30 1350 N 128.595 0.856903 1.32268 0
M  V30 1351 C 129.505 0.306131 2.32594 0
M  V30 1352 C 130.521 -0.577209 1.64147 0
M  V30 1353 O 131.697 -0.477043 1.95669 0
M  V30 1354 C 128.762 -0.494561 3.43154 0
M  V30 1355 C 127.823 0.415186 4.27288 0
M  V30 1356 C 127.056 -0.347387 5.32568 0
M  V30 1357 O 127.279 -1.57708 5.48165 0
M  V30 1358 O 126.213 0.287982 6.01211 0
M  V30 1359 H 130.039 1.13737 2.81598 0
M  V30 1360 H 127.624 0.619902 1.35932 0
M  V30 1361 H 129.506 -0.948944 4.10576 0
M  V30 1362 H 128.181 -1.30257 2.96336 0
M  V30 1363 H 127.088 0.917793 3.62667 0
M  V30 1364 H 128.421 1.18844 4.77637 0
M  V30 1365 N 130.073 -1.45103 0.615059 0
M  V30 1366 C 131.02 -2.30586 -0.0993978 0
M  V30 1367 C 131.99 -1.42544 -0.852669 0
M  V30 1368 O 133.175 -1.71465 -0.836917 0
M  V30 1369 C 130.315 -3.27572 -1.08583 0
M  V30 1370 C 129.428 -4.30717 -0.332656 0
M  V30 1371 C 128.563 -5.14807 -1.30947 0
M  V30 1372 C 127.602 -6.09673 -0.544538 0
M  V30 1373 N 126.739 -6.86517 -1.47101 0
M  V30 1374 H 131.579 -2.91144 0.635542 0
M  V30 1375 H 129.116 -1.4346 0.325206 0
M  V30 1376 H 131.074 -3.82276 -1.67095 0
M  V30 1377 H 129.704 -2.68751 -1.78809 0
M  V30 1378 H 128.756 -3.78615 0.368107 0
M  V30 1379 H 130.068 -4.98102 0.263842 0
M  V30 1380 H 129.222 -5.73948 -1.96643 0
M  V30 1381 H 127.961 -4.47458 -1.9399 0
M  V30 1382 H 126.966 -5.49656 0.126003 0
M  V30 1383 H 128.191 -6.79052 0.080947 0
M  V30 1384 H 126.137 -6.21851 -2.08895 0
M  V30 1385 H 126.054 -7.50281 -0.928137 0
M  V30 1386 H 127.322 -7.50194 -2.11731 0
M  V30 1387 N 131.551 -0.354651 -1.53558 0
M  V30 1388 C 132.499 0.512195 -2.26891 0
M  V30 1389 C 133.493 1.09263 -1.29452 0
M  V30 1390 O 134.699 1.03709 -1.47121 0
M  V30 1391 H 131.074 0.183878 -0.729173 0
M  V30 1392 H 133.045 -0.128202 -2.98124 0
M  V30 1393 C 131.794 1.64563 -3.06291 0
M  V30 1394 H 131.117 1.20829 -3.81104 0
M  V30 1395 H 132.557 2.22711 -3.60799 0
M  V30 1396 C 131.016 2.58158 -2.16462 0
M  V30 1397 O 131.546 3.60695 -1.76811 0
M  V30 1398 N 129.752 2.27096 -1.81317 0
M  V30 1399 H 129.299 1.43751 -2.1376 0
M  V30 1400 H 129.257 2.89975 -1.21498 0
M  V30 1401 N 133.029 1.57378 -0.0835403 0
M  V30 1402 C 133.961 2.10389 0.909338 0
M  V30 1403 C 134.974 1.03858 1.25369 0
M  V30 1404 O 136.163 1.31338 1.20882 0
M  V30 1405 C 133.263 2.55908 2.2218 0
M  V30 1406 C 132.436 3.86145 2.05453 0
M  V30 1407 C 131.495 4.17633 3.20108 0
M  V30 1408 O 130.521 4.87043 2.94581 0
M  V30 1409 N 131.723 3.72113 4.45547 0
M  V30 1410 H 134.488 2.962 0.456657 0
M  V30 1411 H 132.049 1.61579 0.101877 0
M  V30 1412 H 134.041 2.74027 2.97811 0
M  V30 1413 H 132.611 1.75171 2.58909 0
M  V30 1414 H 131.831 3.7729 1.1422 0
M  V30 1415 H 133.119 4.7137 1.91541 0
M  V30 1416 H 132.517 3.16062 4.69171 0
M  V30 1417 H 131.074 3.95409 5.18165 0
M  V30 1418 N 134.507 -0.190092 1.56449 0
M  V30 1419 C 135.437 -1.23816 1.97969 0
M  V30 1420 C 136.418 -1.47201 0.852395 0
M  V30 1421 O 137.603 -1.58854 1.1171 0
M  V30 1422 C 134.733 -2.5813 2.3235 0
M  V30 1423 C 133.687 -2.49348 3.47864 0
M  V30 1424 C 133.013 -3.8798 3.67934 0
M  V30 1425 C 134.313 -2.01424 4.81898 0
M  V30 1426 H 136.007 -0.89311 2.85769 0
M  V30 1427 H 133.553 -0.428177 1.37487 0
M  V30 1428 H 135.506 -3.31637 2.59991 0
M  V30 1429 H 134.23 -2.94386 1.41438 0
M  V30 1430 H 132.889 -1.78297 3.20321 0
M  V30 1431 H 132.537 -4.21597 2.74344 0
M  V30 1432 H 132.237 -3.82978 4.45648 0
M  V30 1433 H 133.761 -4.63101 3.97957 0
M  V30 1434 H 135.175 -2.64693 5.08538 0
M  V30 1435 H 133.572 -2.07413 5.63116 0
M  V30 1436 H 134.642 -0.967677 4.75146 0
M  V30 1437 N 135.985 -1.50799 -0.457987 0
M  V30 1438 C 136.918 -1.65273 -1.57353 0
M  V30 1439 C 137.896 -0.500578 -1.54703 0
M  V30 1440 O 139.08 -0.721781 -1.74134 0
M  V30 1441 C 136.207 -1.64737 -2.95938 0
M  V30 1442 C 135.253 -2.8567 -3.16693 0
M  V30 1443 S 136.086 -4.46791 -2.95191 0
M  V30 1444 C 137.242 -4.48968 -4.36095 0
M  V30 1445 H 137.475 -2.59633 -1.44838 0
M  V30 1446 H 135.008 -1.40225 -0.64625 0
M  V30 1447 H 136.966 -1.65112 -3.7583 0
M  V30 1448 H 135.627 -0.715899 -3.05833 0
M  V30 1449 H 134.82 -2.81637 -4.17967 0
M  V30 1450 H 134.422 -2.8293 -2.44594 0
M  V30 1451 H 136.714 -4.23337 -5.28954 0
M  V30 1452 H 137.657 -5.50664 -4.45168 0
M  V30 1453 H 138.065 -3.78522 -4.18786 0
M  V30 1454 N 137.463 0.71206 -1.40597 0
M  V30 1455 C 138.691 1.50111 -1.42388 0
M  V30 1456 C 139.106 1.88784 -0.0245395 0
M  V30 1457 O 138.463 1.55681 0.952351 0
M  V30 1458 C 138.514 2.7742 -2.31776 0
M  V30 1459 O 138.235 2.40382 -3.66262 0
M  V30 1460 C 139.736 3.7129 -2.42196 0
M  V30 1461 H 136.956 0.46314 -0.485533 0
M  V30 1462 H 139.5 0.878068 -1.8469 0
M  V30 1463 H 137.655 3.36001 -1.92827 0
M  V30 1464 H 138.069 3.22324 -4.13772 0
M  V30 1465 H 139.543 4.57448 -3.08943 0
M  V30 1466 H 140.02 4.14641 -1.44809 0
M  V30 1467 H 140.626 3.18619 -2.81712 0
M  V30 1468 N 138.941 1.26152 0.944643 0
M  V30 1469 C 140.169 1.14259 1.72489 0
M  V30 1470 C 140.584 -0.302555 1.8636 0
M  V30 1471 O 139.941 -1.20741 1.36849 0
M  V30 1472 C 139.992 1.80266 3.13347 0
M  V30 1473 O 139.713 3.19133 3.00143 0
M  V30 1474 C 141.214 1.74283 4.07603 0
M  V30 1475 H 138.434 0.398051 0.540181 0
M  V30 1476 H 140.978 1.66706 1.18446 0
M  V30 1477 H 139.133 1.31766 3.64303 0
M  V30 1478 H 139.547 3.51744 3.89071 0
M  V30 1479 H 141.021 2.25111 5.04013 0
M  V30 1480 H 141.498 0.708631 4.33446 0
M  V30 1481 H 142.104 2.22319 3.62567 0
M  V30 1482 N 140.419 -1.14872 1.07899 0
M  V30 1483 C 141.367 -2.21857 0.698727 0
M  V30 1484 C 142.361 -1.66845 -0.293086 0
M  V30 1485 O 143.567 -1.79321 -0.156204 0
M  V30 1486 H 139.942 -0.722691 0.207899 0
M  V30 1487 H 141.913 -2.51205 1.61054 0
M  V30 1488 C 140.662 -3.47498 0.11858 0
M  V30 1489 H 139.985 -3.90154 0.872914 0
M  V30 1490 H 141.425 -4.23858 -0.109759 0
M  V30 1491 C 139.884 -3.16947 -1.1422 0
M  V30 1492 O 140.414 -3.3426 -2.22785 0
M  V30 1493 N 138.62 -2.70946 -1.05055 0
M  V30 1494 H 138.167 -2.57058 -0.167038 0
M  V30 1495 H 138.125 -2.50879 -1.89491 0
M  V30 1496 N 141.898 -0.863906 -1.31812 0
M  V30 1497 C 143.144 -0.472535 -1.97218 0
M  V30 1498 C 143.477 0.971394 -1.68159 0
M  V30 1499 O 142.752 1.68309 -0.974798 0
M  V30 1500 C 143.035 -0.723054 -3.52766 0
M  V30 1501 C 142.888 -2.21608 -3.91421 0
M  V30 1502 C 144.207 -0.185522 -4.39709 0
M  V30 1503 H 141.326 -0.173158 -0.71637 0
M  V30 1504 H 143.968 -1.08403 -1.56041 0
M  V30 1505 H 142.118 -0.202577 -3.87971 0
M  V30 1506 H 143.79 -2.80334 -3.66347 0
M  V30 1507 H 142.033 -2.691 -3.40246 0
M  V30 1508 H 142.704 -2.34203 -4.99853 0
M  V30 1509 H 145.18 -0.630726 -4.11292 0
M  V30 1510 H 144.056 -0.390306 -5.47511 0
M  V30 1511 H 144.317 0.912229 -4.32586 0
M  V30 1512 N 143.376 1.44774 -0.622745 0
M  V30 1513 C 144.622 2.02968 -0.13257 0
M  V30 1514 C 144.977 1.48047 1.22881 0
M  V30 1515 O 144.27 0.651625 1.80179 0
M  V30 1516 C 144.464 3.57364 -0.0508323 0
M  V30 1517 C 144.293 4.27262 -1.40275 0
M  V30 1518 C 143.063 4.64577 -1.98737 0
M  V30 1519 C 145.261 4.58248 -2.3348 0
M  V30 1520 N 143.243 5.19404 -3.27251 0
M  V30 1521 C 144.614 5.14069 -3.46603 0
M  V30 1522 C 146.669 4.40195 -2.32664 0
M  V30 1523 C 145.372 5.53738 -4.59093 0
M  V30 1524 C 147.398 4.80907 -3.44213 0
M  V30 1525 C 146.76 5.36834 -4.56058 0
M  V30 1526 H 142.859 0.776541 -0.0922354 0
M  V30 1527 H 145.443 1.76385 -0.82441 0
M  V30 1528 H 143.614 3.83576 0.610265 0
M  V30 1529 H 145.346 4.02219 0.447397 0
M  V30 1530 H 142.101 4.48622 -1.51774 0
M  V30 1531 H 142.525 5.51301 -3.92933 0
M  V30 1532 H 147.167 3.96257 -1.47446 0
M  V30 1533 H 144.885 5.96635 -5.45025 0
M  V30 1534 H 148.471 4.68659 -3.44747 0
M  V30 1535 H 147.351 5.67755 -5.40947 0
M  V30 1536 N 144.854 0.36279 1.53368 0
M  V30 1537 C 145.784 -0.476976 2.28576 0
M  V30 1538 C 146.765 -1.08631 1.30894 0
M  V30 1539 O 147.95 -1.10409 1.59761 0
M  V30 1540 C 145.08 -1.61828 3.07293 0
M  V30 1541 C 144.034 -1.13633 4.1264 0
M  V30 1542 C 143.36 -2.36766 4.79423 0
M  V30 1543 C 144.66 -0.223061 5.21823 0
M  V30 1544 H 146.354 0.150474 2.99022 0
M  V30 1545 H 143.9 0.0738103 1.43811 0
M  V30 1546 H 145.853 -2.21237 3.58653 0
M  V30 1547 H 144.577 -2.27292 2.34533 0
M  V30 1548 H 143.236 -0.564945 3.62221 0
M  V30 1549 H 142.884 -3.0068 4.03238 0
M  V30 1550 H 142.584 -2.05192 5.50609 0
M  V30 1551 H 144.108 -2.96865 5.33576 0
M  V30 1552 H 145.522 -0.724545 5.68703 0
M  V30 1553 H 143.919 0.001678 6.001 0
M  V30 1554 H 144.989 0.735553 4.79289 0
M  V30 1555 N 146.332 -1.57332 0.0918853 0
M  V30 1556 C 147.279 -2.13847 -0.868211 0
M  V30 1557 C 148.249 -1.05618 -1.28196 0
M  V30 1558 O 149.434 -1.33387 -1.36427 0
M  V30 1559 C 146.574 -2.72062 -2.12312 0
M  V30 1560 C 145.687 -3.94514 -1.7602 0
M  V30 1561 C 144.822 -4.40903 -2.96273 0
M  V30 1562 C 143.861 -5.55953 -2.56092 0
M  V30 1563 N 142.998 -5.97209 -3.69169 0
M  V30 1564 H 147.838 -2.95575 -0.379406 0
M  V30 1565 H 145.375 -1.46048 -0.175606 0
M  V30 1566 H 147.333 -3.03931 -2.858 0
M  V30 1567 H 145.963 -1.93068 -2.58698 0
M  V30 1568 H 145.015 -3.68979 -0.925135 0
M  V30 1569 H 146.327 -4.7802 -1.42472 0
M  V30 1570 H 145.481 -4.74539 -3.78018 0
M  V30 1571 H 144.22 -3.56291 -3.33029 0
M  V30 1572 H 143.225 -5.21948 -1.72773 0
M  V30 1573 H 144.45 -6.42311 -2.20484 0
M  V30 1574 H 142.396 -5.15543 -4.05649 0
M  V30 1575 H 142.313 -6.75504 -3.39456 0
M  V30 1576 H 143.581 -6.35475 -4.51434 0
M  V30 1577 N 147.81 0.181792 -1.56548 0
M  V30 1578 C 148.742 1.24956 -1.92142 0
M  V30 1579 C 149.755 1.41022 -0.813422 0
M  V30 1580 O 150.944 1.41212 -1.09186 0
M  V30 1581 C 148.044 2.61981 -2.14987 0
M  V30 1582 C 147.217 2.6735 -3.46183 0
M  V30 1583 C 146.276 3.85664 -3.5798 0
M  V30 1584 O 145.302 3.72148 -4.30691 0
M  V30 1585 N 146.504 5.01683 -2.92053 0
M  V30 1586 H 149.269 0.947329 -2.84334 0
M  V30 1587 H 146.83 0.371629 -1.57577 0
M  V30 1588 H 148.822 3.3958 -2.20154 0
M  V30 1589 H 147.392 2.84637 -1.2923 0
M  V30 1590 H 146.612 1.75925 -3.52766 0
M  V30 1591 H 147.9 2.67939 -4.32534 0
M  V30 1592 H 147.298 5.15564 -2.32832 0
M  V30 1593 H 145.855 5.77181 -3.0283 0
M  V30 1594 N 149.288 1.51039 0.449983 0
M  V30 1595 C 150.198 1.74261 1.57067 0
M  V30 1596 C 151.214 0.626363 1.62335 0
M  V30 1597 O 152.39 0.907162 1.79812 0
M  V30 1598 C 149.455 1.85114 2.93144 0
M  V30 1599 C 148.516 3.0893 2.98095 0
M  V30 1600 C 147.749 3.19256 4.27681 0
M  V30 1601 O 147.972 2.35835 5.19363 0
M  V30 1602 O 146.906 4.12144 4.38658 0
M  V30 1603 H 150.732 2.69303 1.40391 0
M  V30 1604 H 148.317 1.35389 0.631688 0
M  V30 1605 H 150.199 1.94311 3.73926 0
M  V30 1606 H 148.874 0.932588 3.09975 0
M  V30 1607 H 147.781 3.0522 2.16314 0
M  V30 1608 H 149.114 4.00433 2.86206 0
M  V30 1609 N 150.766 -0.704594 1.40972 0
M  V30 1610 C 152.012 -1.46546 1.41053 0
M  V30 1611 C 152.367 -1.92393 0.0159714 0
M  V30 1612 O 151.66 -1.66017 -0.956506 0
M  V30 1613 C 151.854 -2.698 2.34399 0
M  V30 1614 C 151.683 -2.36008 3.82793 0
M  V30 1615 C 150.453 -2.26812 4.51536 0
M  V30 1616 C 152.651 -1.99565 4.74003 0
M  V30 1617 N 150.633 -1.8581 5.85105 0
M  V30 1618 C 152.004 -1.69251 5.96451 0
M  V30 1619 C 154.059 -1.86296 4.61734 0
M  V30 1620 C 152.762 -1.27003 7.07999 0
M  V30 1621 C 154.788 -1.45452 5.73234 0
M  V30 1622 C 154.15 -1.16043 6.94776 0
M  V30 1623 H 150.249 -0.533896 0.571383 0
M  V30 1624 H 152.833 -0.816061 1.76773 0
M  V30 1625 H 151.004 -3.32473 2.00789 0
M  V30 1626 H 152.736 -3.36214 2.25261 0
M  V30 1627 H 149.491 -2.44913 4.05357 0
M  V30 1628 H 149.915 -1.67817 6.55871 0
M  V30 1629 H 154.557 -2.0769 3.68273 0
M  V30 1630 H 152.275 -1.04353 8.01334 0
M  V30 1631 H 155.861 -1.35748 5.65742 0
M  V30 1632 H 154.741 -0.84915 7.79589 0
M  V30 1633 N 152.244 -1.26651 -0.937939 0
M  V30 1634 C 153.493 -1.11775 -1.67897 0
M  V30 1635 C 153.806 0.33794 -1.92659 0
M  V30 1636 O 155.012 0.607434 -2.64618 0
M  V30 1637 C 153.468 -1.9523 -3.02346 0
M  V30 1638 C 153.076 -3.45393 -2.8532 0
M  V30 1639 C 154.82 -1.88972 -3.80118 0
M  V30 1640 C 152.727 -4.21083 -4.15263 0
M  V30 1641 H 151.657 -0.414696 -0.629717 0
M  V30 1642 H 154.308 -1.50988 -1.04283 0
M  V30 1643 H 152.69 -1.48853 -3.66959 0
M  V30 1644 H 153.864 -3.99561 -2.29537 0
M  V30 1645 H 152.179 -3.52921 -2.20988 0
M  V30 1646 H 154.776 -2.42805 -4.76392 0
M  V30 1647 H 155.119 -0.86113 -4.07296 0
M  V30 1648 H 155.652 -2.33189 -3.22285 0
M  V30 1649 H 152.391 -5.24425 -3.93267 0
M  V30 1650 H 151.911 -3.71695 -4.70747 0
M  V30 1651 H 153.59 -4.29706 -4.83696 0
M  V30 1652 N 153.722 1.14298 -1.08507 0
M  V30 1653 C 154.999 1.81544 -0.728088 0
M  V30 1654 C 155.379 1.95838 0.78808 0
M  V30 1655 O 154.727 1.51904 1.70697 0
M  V30 1656 C 154.937 3.17169 -1.45619 0
M  V30 1657 C 156.285 3.9265 -1.61591 0
M  V30 1658 O 157.309 3.26762 -1.41793 0
M  V30 1659 O 156.168 5.10807 -1.94263 0
M  V30 1660 H 153.262 0.78491 -0.260471 0
M  V30 1661 H 155.808 1.21307 -1.18671 0
M  V30 1662 H 154.58 3.01934 -2.489 0
M  V30 1663 H 154.203 3.851 -0.989124 0
M  V30 1664 N 155.201 0.870884 1.31352 0
M  V30 1665 C 156.447 0.482987 1.96965 0
M  V30 1666 C 156.78 -0.962462 1.68672 0
M  V30 1667 O 156.055 -1.6779 0.98371 0
M  V30 1668 C 156.338 0.741752 3.52378 0
M  V30 1669 C 156.191 2.2368 3.9024 0
M  V30 1670 C 157.51 0.208838 4.39604 0
M  V30 1671 H 154.629 0.176955 0.715441 0
M  V30 1672 H 157.271 1.09229 1.55464 0
M  V30 1673 H 155.421 0.223149 3.87859 0
M  V30 1674 H 157.093 2.82273 3.64856 0
M  V30 1675 H 155.336 2.70901 3.38814 0
M  V30 1676 H 156.007 2.3685 4.98604 0
M  V30 1677 H 158.483 0.652529 4.10952 0
M  V30 1678 H 157.359 0.419336 5.47296 0
M  V30 1679 H 157.62 -0.889275 4.33064 0
M  V30 1680 N 156.679 -1.44442 0.630414 0
M  V30 1681 C 157.626 -2.30678 -0.0749355 0
M  V30 1682 C 158.596 -1.4344 -0.837502 0
M  V30 1683 O 159.781 -1.72343 -0.818684 0
M  V30 1684 C 156.921 -3.28706 -1.05103 0
M  V30 1685 C 156.034 -4.31046 -0.286954 0
M  V30 1686 C 155.169 -5.16167 -1.2548 0
M  V30 1687 C 154.208 -6.10216 -0.479843 0
M  V30 1688 N 153.345 -6.88039 -1.39811 0
M  V30 1689 H 158.185 -2.90454 0.666386 0
M  V30 1690 H 155.722 -1.43107 0.340404 0
M  V30 1691 H 157.68 -3.84027 -1.63031 0
M  V30 1692 H 156.31 -2.70632 -1.75949 0
M  V30 1693 H 155.362 -3.78203 0.408243 0
M  V30 1694 H 156.674 -4.97794 0.316657 0
M  V30 1695 H 155.828 -5.76002 -1.90544 0
M  V30 1696 H 154.567 -4.49491 -1.89233 0
M  V30 1697 H 153.572 -5.49491 0.184295 0
M  V30 1698 H 154.797 -6.78928 0.152965 0
M  V30 1699 H 152.743 -6.24032 -2.02287 0
M  V30 1700 H 152.66 -7.51223 -0.848508 0
M  V30 1701 H 153.928 -7.52397 -2.03762 0
M  V30 1702 N 158.157 -0.370918 -1.53173 0
M  V30 1703 C 159.087 0.464847 -2.28826 0
M  V30 1704 C 160.068 1.07936 -1.31468 0
M  V30 1705 O 161.253 1.0956 -1.60344 0
M  V30 1706 C 158.383 1.60196 -3.08147 0
M  V30 1707 C 157.337 1.11443 -4.13237 0
M  V30 1708 C 156.663 2.3422 -4.80672 0
M  V30 1709 C 157.963 0.195384 -5.21934 0
M  V30 1710 H 159.657 -0.166329 -2.98938 0
M  V30 1711 H 157.203 -0.0814359 -1.4377 0
M  V30 1712 H 159.156 2.19332 -3.59822 0
M  V30 1713 H 157.88 2.26045 -2.35735 0
M  V30 1714 H 156.539 0.545727 -3.62515 0
M  V30 1715 H 156.187 2.98537 -4.04827 0
M  V30 1716 H 155.887 2.02269 -5.51689 0
M  V30 1717 H 157.411 2.94032 -5.35143 0
M  V30 1718 H 158.825 0.694375 -5.69079 0
M  V30 1719 H 157.222 -0.0335027 -6.00091 0
M  V30 1720 H 158.292 -0.760961 -4.78892 0
M  V30 1721 N 159.635 1.57281 -0.100228 0
M  V30 1722 C 161.051 1.57527 0.256416 0
M  V30 1723 C 161.251 1.11173 1.68056 0
M  V30 1724 O 160.307 0.79053 2.39806 0
M  V30 1725 C 161.62 3.00673 0.0401747 0
M  V30 1726 C 163.168 3.12815 0.107528 0
M  V30 1727 C 163.643 4.57929 -0.0807834 0
M  V30 1728 N 165.134 4.63193 -0.0261207 0
M  V30 1729 C 165.869 5.73212 -0.146999 0
M  V30 1730 N 165.365 6.92047 -0.322999 0
M  V30 1731 N 167.158 5.62031 -0.0879044 0
M  V30 1732 H 159.309 1.85718 -1.03065 0
M  V30 1733 H 161.572 0.857446 -0.404339 0
M  V30 1734 H 161.278 3.38804 -0.943649 0
M  V30 1735 H 161.152 3.69042 0.780262 0
M  V30 1736 H 163.539 2.74554 1.08186 0
M  V30 1737 H 163.62 2.47028 -0.664134 0
M  V30 1738 H 163.264 4.96886 -1.05201 0
M  V30 1739 H 163.194 5.21783 0.710635 0
M  V30 1740 H 165.685 3.77748 0.107161 0
M  V30 1741 H 165.998 7.7173 -0.406608 0
M  V30 1742 H 164.343 6.94074 -0.358733 0
M  V30 1743 H 167.534 4.68075 0.048498 0
M  V30 1744 H 167.707 6.47734 -0.185557 0
M  V30 1745 N 161.113 -0.173488 1.56642 0
M  V30 1746 C 162.359 -0.887108 1.83035 0
M  V30 1747 C 162.714 -1.79965 0.680461 0
M  V30 1748 O 162.007 -1.88854 -0.323225 0
M  V30 1749 C 162.201 -1.72069 3.13252 0
M  V30 1750 C 162.03 -0.89035 4.40798 0
M  V30 1751 C 160.8 -0.566282 5.02117 0
M  V30 1752 C 162.998 -0.232921 5.13772 0
M  V30 1753 N 160.98 0.280427 6.13259 0
M  V30 1754 C 162.351 0.475046 6.18177 0
M  V30 1755 C 164.406 -0.150863 4.97671 0
M  V30 1756 C 163.109 1.25729 7.08227 0
M  V30 1757 C 165.135 0.618039 5.88162 0
M  V30 1758 C 164.497 1.31438 6.92029 0
M  V30 1759 H 160.596 -0.303303 0.720785 0
M  V30 1760 H 163.18 -0.154244 1.94088 0
M  V30 1761 H 161.351 -2.42499 3.03395 0
M  V30 1762 H 163.083 -2.37545 3.2765 0
M  V30 1763 H 159.838 -0.895852 4.6505 0
M  V30 1764 H 160.262 0.694027 6.73433 0
M  V30 1765 H 164.904 -0.674868 4.17379 0
M  V30 1766 H 162.622 1.79265 7.87966 0
M  V30 1767 H 166.208 0.683173 5.77775 0
M  V30 1768 H 165.088 1.89981 7.6084 0
M  V30 1769 N 162.591 -1.51276 -0.441967 0
M  V30 1770 C 163.539 -1.72823 -1.55676 0
M  V30 1771 C 164.533 -0.59445 -1.58627 0
M  V30 1772 O 165.739 -0.775715 -1.62427 0
M  V30 1773 H 162.114 -0.545983 -0.517113 0
M  V30 1774 H 164.085 -2.6628 -1.34675 0
M  V30 1775 C 162.834 -1.86619 -2.93375 0
M  V30 1776 H 162.157 -2.73264 -2.91834 0
M  V30 1777 H 163.597 -2.05709 -3.70756 0
M  V30 1778 C 162.056 -0.624842 -3.31055 0
M  V30 1779 O 162.586 0.222636 -4.01083 0
M  V30 1780 N 160.792 -0.470288 -2.86769 0
M  V30 1781 H 160.339 -1.161 -2.29953 0
M  V30 1782 H 160.297 0.359051 -3.12343 0
M  V30 1783 N 164.069 0.697108 -1.41344 0
M  V30 1784 C 165.48 1.27697 -1.36199 0
M  V30 1785 C 165.831 1.9615 -0.0443463 0
M  V30 1786 O 164.956 1.98689 0.857419 0
M  V30 1787 C 165.551 2.32223 -2.46694 0
M  V30 1788 C 164.11 2.8579 -2.44952 0
M  V30 1789 C 163.257 1.59807 -2.26621 0
M  V30 1790 H 166.208 0.491968 -1.50882 0
M  V30 1791 H 166.229 3.1348 -2.15664 0
M  V30 1792 H 165.741 1.82373 -3.42581 0
M  V30 1793 H 163.842 3.3982 -1.52817 0
M  V30 1794 H 163.955 3.36325 -3.41207 0
M  V30 1795 H 162.319 1.8556 -1.7447 0
M  V30 1796 H 163.102 1.11956 -3.24532 0
M  V30 1797 N 165.547 1.27147 0.931209 0
M  V30 1798 C 166.824 1.0401 1.65654 0
M  V30 1799 C 167.204 -0.426297 2.06751 0
M  V30 1800 O 166.552 -1.40879 1.79904 0
M  V30 1801 C 166.762 1.99834 2.86125 0
M  V30 1802 C 168.11 2.29007 3.57549 0
M  V30 1803 O 169.134 1.97779 2.96246 0
M  V30 1804 O 167.993 2.82222 4.67989 0
M  V30 1805 H 165.087 0.396239 0.725895 0
M  V30 1806 H 167.633 1.38397 0.982056 0
M  V30 1807 H 166.405 2.98744 2.52721 0
M  V30 1808 H 166.028 1.65987 3.61295 0
M  V30 1809 N 167.025 -1.13721 1.09112 0
M  V30 1810 C 168.302 -1.81155 0.737706 0
M  V30 1811 C 168.682 -1.96253 -0.777683 0
M  V30 1812 O 168.03 -1.52807 -1.69889 0
M  V30 1813 C 168.24 -3.16392 1.47299 0
M  V30 1814 C 169.588 -3.91787 1.63671 0
M  V30 1815 O 170.612 -3.26005 1.43524 0
M  V30 1816 O 169.471 -5.0977 1.96969 0
M  V30 1817 H 166.565 -0.783518 0.26463 0
M  V30 1818 H 169.111 -1.20676 1.19312 0
M  V30 1819 H 167.883 -3.0061 2.50498 0
M  V30 1820 H 167.506 -3.8457 1.00953 0
M  V30 1821 N 168.503 -0.877838 -1.30888 0
M  V30 1822 C 169.733 -0.506678 -2.00291 0
M  V30 1823 C 170.141 0.907449 -1.66018 0
M  V30 1824 O 169.484 1.60719 -0.88967 0
M  V30 1825 C 169.546 -0.59323 -3.54572 0
M  V30 1826 C 169.21 -1.97038 -4.12341 0
M  V30 1827 C 170.207 -2.93889 -4.28865 0
M  V30 1828 C 167.892 -2.27383 -4.47886 0
M  V30 1829 C 169.886 -4.19224 -4.80136 0
M  V30 1830 C 167.573 -3.52965 -4.98857 0
M  V30 1831 C 168.571 -4.48701 -5.14934 0
M  V30 1832 O 168.259 -5.72056 -5.64808 0
M  V30 1833 H 167.991 -0.1951 -0.647234 0
M  V30 1834 H 170.545 -1.18301 -1.6791 0
M  V30 1835 H 168.775 0.140057 -3.86446 0
M  V30 1836 H 170.464 -0.234372 -4.05223 0
M  V30 1837 H 171.23 -2.71756 -4.01714 0
M  V30 1838 H 167.109 -1.53639 -4.34645 0
M  V30 1839 H 170.653 -4.93956 -4.92599 0
M  V30 1840 H 166.55 -3.74939 -5.25443 0
M  V30 1841 H 167.318 -5.74337 -5.83163 0
M  V30 1842 N 169.982 1.44106 -0.638065 0
M  V30 1843 C 171.23 2.01579 -0.145043 0
M  V30 1844 C 171.551 1.50496 1.24 0
M  V30 1845 O 170.821 0.711374 1.82527 0
M  V30 1846 H 169.401 0.745282 -0.05063 0
M  V30 1847 H 172.063 1.76516 -0.826327 0
M  V30 1848 H 171.159 3.11877 -0.118039 0
M  V30 1849 N 171.46 0.379036 1.52974 0
M  V30 1850 C 172.708 -0.206014 2.01047 0
M  V30 1851 C 173.029 -1.48175 1.26765 0
M  V30 1852 O 172.299 -1.92085 0.384743 0
M  V30 1853 H 170.879 -0.0791184 0.742798 0
M  V30 1854 H 173.541 0.508366 1.88153 0
M  V30 1855 H 172.637 -0.423501 3.09213 0
M  V30 1856 N 172.938 -1.57226 0.108567 0
M  V30 1857 C 174.187 -1.94008 -0.551703 0
M  V30 1858 C 174.5 -0.993442 -1.68494 0
M  V30 1859 O 175.706 -1.25551 -2.40726 0
M  V30 1860 C 174.162 -3.44763 -1.03279 0
M  V30 1861 C 173.77 -4.47943 0.0714193 0
M  V30 1862 C 175.514 -3.90483 -1.66503 0
M  V30 1863 C 173.421 -5.89865 -0.425779 0
M  V30 1864 H 172.351 -0.724206 -0.209863 0
M  V30 1865 H 175.002 -1.82547 0.186741 0
M  V30 1866 H 173.384 -3.51422 -1.82533 0
M  V30 1867 H 174.558 -4.52942 0.847365 0
M  V30 1868 H 172.873 -4.11913 0.609669 0
M  V30 1869 H 175.47 -4.93925 -2.04798 0
M  V30 1870 H 175.813 -3.29877 -2.53942 0
M  V30 1871 H 176.346 -3.86581 -0.938074 0
M  V30 1872 H 173.085 -6.54202 0.412316 0
M  V30 1873 H 172.605 -5.88309 -1.16843 0
M  V30 1874 H 174.284 -6.40844 -0.890397 0
M  V30 1875 N 174.416 0.165178 -1.56732 0
M  V30 1876 C 175.363 1.2044 -1.96883 0
M  V30 1877 C 176.333 1.43664 -0.833657 0
M  V30 1878 O 177.518 1.56302 -1.09427 0
M  V30 1879 C 174.658 2.53727 -2.33916 0
M  V30 1880 C 173.771 2.3783 -3.6064 0
M  V30 1881 C 172.906 3.64026 -3.86857 0
M  V30 1882 C 171.945 3.43088 -5.06909 0
M  V30 1883 N 171.082 4.61369 -5.29229 0
M  V30 1884 H 175.922 0.854996 -2.85471 0
M  V30 1885 H 173.459 0.41076 -1.41249 0
M  V30 1886 H 175.417 3.31419 -2.53411 0
M  V30 1887 H 174.047 2.8665 -1.48431 0
M  V30 1888 H 173.099 1.51282 -3.49024 0
M  V30 1889 H 174.411 2.18308 -4.4849 0
M  V30 1890 H 173.565 4.50152 -4.06753 0
M  V30 1891 H 172.304 3.86533 -2.97394 0
M  V30 1892 H 171.309 2.55349 -4.86906 0
M  V30 1893 H 172.534 3.21997 -5.97909 0
M  V30 1894 H 170.48 4.84084 -4.42718 0
M  V30 1895 H 170.397 4.44783 -6.11313 0
M  V30 1896 H 171.665 5.48761 -5.53608 0
M  V30 1897 N 175.894 1.51508 0.433938 0
M  V30 1898 C 177.14 1.64588 1.18484 0
M  V30 1899 C 177.473 0.362666 1.90784 0
M  V30 1900 O 176.748 -0.637892 1.83742 0
M  V30 1901 C 177.031 2.85149 2.19913 0
M  V30 1902 C 176.884 4.23456 1.51674 0
M  V30 1903 C 178.203 3.01227 3.20858 0
M  V30 1904 H 175.322 0.598994 0.429389 0
M  V30 1905 H 177.964 1.84002 0.473647 0
M  V30 1906 H 176.114 2.68729 2.80566 0
M  V30 1907 H 177.786 4.51552 0.943322 0
M  V30 1908 H 176.029 4.25998 0.819035 0
M  V30 1909 H 176.7 5.03812 2.2556 0
M  V30 1910 H 179.176 3.16382 2.70263 0
M  V30 1911 H 178.052 3.87141 3.89118 0
M  V30 1912 H 178.313 2.13447 3.8716 0
M  V30 1913 N 177.372 -0.689602 1.41712 0
M  V30 1914 C 178.621 -1.44534 1.40686 0
M  V30 1915 C 178.934 -1.95588 0.0213352 0
M  V30 1916 O 180.14 -2.71271 -0.111534 0
M  V30 1917 C 178.596 -2.61387 2.47396 0
M  V30 1918 C 178.204 -2.17094 3.91885 0
M  V30 1919 C 179.948 -3.38986 2.55517 0
M  V30 1920 C 177.855 -3.3094 4.90135 0
M  V30 1921 H 176.785 -0.542925 0.52321 0
M  V30 1922 H 179.436 -0.748054 1.6756 0
M  V30 1923 H 177.818 -3.33412 2.13664 0
M  V30 1924 H 178.992 -1.52318 4.34897 0
M  V30 1925 H 177.307 -1.52473 3.8748 0
M  V30 1926 H 179.904 -4.23747 3.26102 0
M  V30 1927 H 180.247 -3.84578 1.59391 0
M  V30 1928 H 180.78 -2.74021 2.8837 0
M  V30 1929 H 177.519 -2.90355 5.87685 0
M  V30 1930 H 177.039 -3.94546 4.51767 0
M  V30 1931 H 178.718 -3.9663 5.11169 0
M  V30 1932 N 178.85 -1.27639 -0.924453 0
M  V30 1933 C 180.266 -1.05113 -1.20097 0
M  V30 1934 C 180.466 0.213262 -2.00368 0
M  V30 1935 O 179.522 0.91787 -2.35226 0
M  V30 1936 C 180.835 -2.29244 -1.94596 0
M  V30 1937 C 182.383 -2.34315 -2.07522 0
M  V30 1938 C 182.858 -3.58183 -2.85427 0
M  V30 1939 N 184.349 -3.5876 -2.92994 0
M  V30 1940 C 185.084 -4.51277 -3.53746 0
M  V30 1941 N 184.58 -5.54102 -4.15863 0
M  V30 1942 N 186.373 -4.38894 -3.51181 0
M  V30 1943 H 178.524 -2.08821 -0.388264 0
M  V30 1944 H 180.787 -0.918568 -0.234385 0
M  V30 1945 H 180.493 -3.21301 -1.43034 0
M  V30 1946 H 180.367 -2.34816 -2.95197 0
M  V30 1947 H 182.754 -1.42762 -2.58269 0
M  V30 1948 H 182.835 -2.32744 -1.06131 0
M  V30 1949 H 182.479 -4.50074 -2.35363 0
M  V30 1950 H 182.409 -3.57006 -3.8711 0
M  V30 1951 H 184.9 -2.84398 -2.4885 0
M  V30 1952 H 185.213 -6.20859 -4.60168 0
M  V30 1953 H 183.558 -5.57941 -4.144 0
M  V30 1954 H 186.749 -3.57772 -3.01856 0
M  V30 1955 H 186.922 -5.11186 -3.98237 0
M  V30 1956 N 180.328 1.1314 -1.09713 0
M  V30 1957 C 181.574 1.84757 -0.836224 0
M  V30 1958 C 181.907 1.8347 0.636598 0
M  V30 1959 O 181.182 1.27491 1.46889 0
M  V30 1960 C 181.465 3.32782 -1.37578 0
M  V30 1961 C 181.318 3.42567 -2.91493 0
M  V30 1962 C 182.637 4.28307 -1.01198 0
M  V30 1963 H 179.756 0.67082 -0.305236 0
M  V30 1964 H 182.398 1.3278 -1.35903 0
M  V30 1965 H 180.548 3.77177 -0.931097 0
M  V30 1966 H 182.22 3.06862 -3.44432 0
M  V30 1967 H 180.463 2.83349 -3.28475 0
M  V30 1968 H 181.134 4.46674 -3.24324 0
M  V30 1969 H 183.61 3.91999 -1.39556 0
M  V30 1970 H 182.486 5.30307 -1.41653 0
M  V30 1971 H 182.747 4.42029 0.0794833 0
M  V30 1972 N 181.806 0.884767 1.30421 0
M  V30 1973 C 183.217 0.553656 1.78302 0
M  V30 1974 C 183.568 -0.930153 1.7275 0
M  V30 1975 O 182.693 -1.72681 1.30423 0
M  V30 1976 C 183.288 0.998234 3.2376 0
M  V30 1977 C 181.847 0.71854 3.69478 0
M  V30 1978 C 180.994 1.18132 2.50879 0
M  V30 1979 H 183.945 1.06901 1.17294 0
M  V30 1980 H 183.966 0.327118 3.79091 0
M  V30 1981 H 183.478 2.0782 3.27769 0
M  V30 1982 H 181.579 -0.349444 3.70958 0
M  V30 1983 H 181.692 1.30595 4.60958 0
M  V30 1984 H 180.056 0.600669 2.47516 0
M  V30 1985 H 180.839 2.26902 2.57624 0
M  V30 1986 N 183.284 -1.43765 0.645699 0
M  V30 1987 C 184.509 -2.06767 0.161883 0
M  V30 1988 C 184.934 -1.48034 -1.16049 0
M  V30 1989 O 184.292 -0.587369 -1.71522 0
M  V30 1990 C 184.34 -3.60519 0.0762003 0
M  V30 1991 O 183.444 -4.00982 -0.963721 0
M  V30 1992 H 182.785 -0.657675 0.091429 0
M  V30 1993 H 185.315 -1.84397 0.886499 0
M  V30 1994 H 185.325 -4.07853 -0.109604 0
M  V30 1995 H 184 -4.02646 1.04157 0
M  V30 1996 H 182.577 -3.65253 -0.751312 0
M  V30 1997 N 184.763 -0.387143 -1.52771 0
M  V30 1998 C 186.04 0.253197 -1.93954 0
M  V30 1999 C 186.42 1.64545 -1.32243 0
M  V30 2000 O 185.768 2.23191 -0.489699 0
M  V30 2001 C 185.978 0.281722 -3.47861 0
M  V30 2002 C 187.326 0.511715 -4.21505 0
M  V30 2003 O 188.35 0.362023 -3.54356 0
M  V30 2004 O 187.209 0.804847 -5.40541 0
M  V30 2005 H 184.303 0.156845 -0.811991 0
M  V30 2006 H 186.849 -0.441494 -1.63856 0
M  V30 2007 H 185.621 -0.693571 -3.85104 0
M  V30 2008 H 185.244 1.02142 -3.84256 0
M  V30 2009 N 186.241 1.57166 -0.116904 0
M  V30 2010 C 187.466 1.999 0.55271 0
M  V30 2011 C 187.891 0.996039 1.59564 0
M  V30 2012 O 187.249 -0.032556 1.81271 0
M  V30 2013 C 187.297 3.4152 1.15742 0
M  V30 2014 O 186.401 3.44106 2.27299 0
M  V30 2015 H 185.742 0.649447 0.138258 0
M  V30 2016 H 188.272 2.03573 -0.204759 0
M  V30 2017 H 188.282 3.79684 1.49346 0
M  V30 2018 H 186.957 4.14034 0.393493 0
M  V30 2019 H 185.534 3.17759 1.9515 0
M  V30 2020 N 187.719 -0.156864 1.56817 0
M  V30 2021 C 188.965 -0.872416 1.83076 0
M  V30 2022 C 189.298 -1.81261 0.697001 0
M  V30 2023 O 188.573 -1.92171 -0.30008 0
M  V30 2024 C 188.856 -1.65551 3.19789 0
M  V30 2025 C 188.709 -0.737467 4.43713 0
M  V30 2026 C 190.028 -2.62012 3.53606 0
M  V30 2027 H 187.147 -0.315715 0.665953 0
M  V30 2028 H 189.789 -0.138004 1.89498 0
M  V30 2029 H 187.939 -2.28159 3.14445 0
M  V30 2030 H 189.611 -0.123143 4.61136 0
M  V30 2031 H 187.854 -0.0464067 4.33775 0
M  V30 2032 H 188.525 -1.32122 5.35955 0
M  V30 2033 H 191.001 -2.09525 3.59497 0
M  V30 2034 H 189.877 -3.13861 4.50314 0
M  V30 2035 H 190.138 -3.42902 2.79053 0
M  V30 2036 N 189.197 -1.51736 -0.425897 0
M  V30 2037 C 190.443 -1.66174 -1.17294 0
M  V30 2038 C 190.798 -0.37876 -1.88635 0
M  V30 2039 O 190.091 0.626021 -1.81084 0
M  V30 2040 C 190.285 -2.81103 -2.20717 0
M  V30 2041 C 190.114 -4.20453 -1.59529 0
M  V30 2042 C 188.884 -4.86225 -1.37525 0
M  V30 2043 C 191.082 -5.03146 -1.06528 0
M  V30 2044 N 189.064 -6.09657 -0.720537 0
M  V30 2045 C 190.435 -6.17674 -0.536506 0
M  V30 2046 C 192.49 -4.88594 -0.958127 0
M  V30 2047 C 191.193 -7.19245 0.0888917 0
M  V30 2048 C 193.219 -5.90383 -0.346608 0
M  V30 2049 C 192.581 -7.04191 0.171564 0
M  V30 2050 H 188.68 -0.661871 -0.416475 0
M  V30 2051 H 191.264 -1.88997 -0.467801 0
M  V30 2052 H 189.435 -2.59924 -2.88607 0
M  V30 2053 H 191.167 -2.84662 -2.87663 0
M  V30 2054 H 187.922 -4.44293 -1.64015 0
M  V30 2055 H 188.346 -6.75756 -0.410292 0
M  V30 2056 H 192.988 -4.0085 -1.34459 0
M  V30 2057 H 190.706 -8.06628 0.48746 0
M  V30 2058 H 194.292 -5.81194 -0.265451 0
M  V30 2059 H 193.172 -7.81606 0.637309 0
M  V30 2060 N 190.675 0.682077 -1.42076 0
M  V30 2061 C 191.903 1.47057 -1.4554 0
M  V30 2062 C 192.318 1.8869 -0.0645779 0
M  V30 2063 O 191.675 1.57666 0.919115 0
M  V30 2064 C 191.726 2.72442 -2.37609 0
M  V30 2065 O 191.447 2.32559 -3.71279 0
M  V30 2066 C 192.948 3.66069 -2.50017 0
M  V30 2067 H 190.168 0.452737 -0.495248 0
M  V30 2068 H 192.712 0.838695 -1.8651 0
M  V30 2069 H 190.867 3.31835 -1.9991 0
M  V30 2070 H 191.281 3.13475 -4.20516 0
M  V30 2071 H 192.755 4.50792 -3.18576 0
M  V30 2072 H 193.232 4.11476 -1.53572 0
M  V30 2073 H 193.838 3.12572 -2.88407 0
M  V30 2074 N 192.153 1.28127 0.917671 0
M  V30 2075 C 193.564 1.13622 1.48145 0
M  V30 2076 C 193.915 -0.275207 1.9426 0
M  V30 2077 O 193.04 -1.1691 1.82102 0
M  V30 2078 C 193.635 2.05648 2.69248 0
M  V30 2079 C 192.194 1.95219 3.21818 0
M  V30 2080 C 191.341 1.97618 1.94532 0
M  V30 2081 H 194.292 1.40874 0.730772 0
M  V30 2082 H 194.313 1.61818 3.44377 0
M  V30 2083 H 193.825 3.08365 2.35653 0
M  V30 2084 H 191.926 0.955244 3.60147 0
M  V30 2085 H 192.039 2.81976 3.87333 0
M  V30 2086 H 190.403 1.41973 2.11461 0
M  V30 2087 H 191.186 3.02007 1.63238 0
M  V30 2088 N 193.631 -1.12557 1.10312 0
M  V30 2089 C 194.908 -1.80363 0.756878 0
M  V30 2090 C 195.288 -1.97067 -0.756824 0
M  V30 2091 O 194.636 -1.54601 -1.68259 0
M  V30 2092 C 194.846 -3.14812 1.50647 0
M  V30 2093 C 196.194 -3.90029 1.67817 0
M  V30 2094 O 197.218 -3.24464 1.46974 0
M  V30 2095 O 196.077 -5.07652 2.02365 0
M  V30 2096 H 193.171 -0.780667 0.272926 0
M  V30 2097 H 195.717 -1.19404 1.20586 0
M  V30 2098 H 194.489 -2.97936 2.53672 0
M  V30 2099 H 194.112 -3.83478 1.05026 0
M  V30 2100 N 195.109 -0.891671 -1.2995 0
M  V30 2101 C 196.358 -0.509521 -1.95158 0
M  V30 2102 C 196.671 0.947388 -1.71125 0
M  V30 2103 O 197.877 1.43669 -2.30372 0
M  V30 2104 C 196.333 -0.860315 -3.49466 0
M  V30 2105 C 195.941 -2.33545 -3.8231 0
M  V30 2106 C 197.685 -0.547687 -4.20952 0
M  V30 2107 C 195.592 -2.62752 -5.29826 0
M  V30 2108 H 194.522 -0.18682 -0.730489 0
M  V30 2109 H 197.173 -1.08756 -1.47798 0
M  V30 2110 H 195.555 -0.211285 -3.95436 0
M  V30 2111 H 196.729 -3.02936 -3.47227 0
M  V30 2112 H 195.044 -2.61629 -3.23944 0
M  V30 2113 H 197.641 -0.742854 -5.29515 0
M  V30 2114 H 197.984 0.51332 -4.13123 0
M  V30 2115 H 198.517 -1.1542 -3.80688 0
M  V30 2116 H 195.256 -3.6762 -5.42712 0
M  V30 2117 H 194.776 -1.97977 -5.66185 0
M  V30 2118 H 196.455 -2.48601 -5.97333 0
M  V30 2119 N 196.587 1.43421 -0.653314 0
M  V30 2120 C 197.833 2.02111 -0.166992 0
M  V30 2121 C 198.166 1.51423 1.21592 0
M  V30 2122 O 197.441 0.707389 1.8118 0
M  V30 2123 C 197.724 3.5966 -0.177948 0
M  V30 2124 C 197.577 4.20579 -1.59478 0
M  V30 2125 C 198.896 4.37413 0.4856 0
M  V30 2126 H 196.015 0.734374 -0.0621557 0
M  V30 2127 H 198.657 1.70717 -0.834016 0
M  V30 2128 H 196.807 3.86537 0.390032 0
M  V30 2129 H 198.479 4.04732 -2.21336 0
M  V30 2130 H 196.722 3.77226 -2.14204 0
M  V30 2131 H 197.393 5.29665 -1.5543 0
M  V30 2132 H 199.869 4.161 0.00234528 0
M  V30 2133 H 198.745 5.47075 0.447207 0
M  V30 2134 H 199.006 4.13672 1.55974 0
M  V30 2135 N 198.065 0.39524 1.52563 0
M  V30 2136 C 198.995 -0.428384 2.29537 0
M  V30 2137 C 199.976 -1.05831 1.33169 0
M  V30 2138 O 201.161 -1.06995 1.62067 0
M  V30 2139 C 198.291 -1.55274 3.10656 0
M  V30 2140 C 197.245 -1.04855 4.14957 0
M  V30 2141 C 196.571 -2.26543 4.84337 0
M  V30 2142 C 197.871 -0.112324 5.22179 0
M  V30 2143 H 199.565 0.213867 2.98635 0
M  V30 2144 H 197.111 0.104298 1.43622 0
M  V30 2145 H 199.064 -2.1358 3.63265 0
M  V30 2146 H 197.788 -2.22266 2.39302 0
M  V30 2147 H 196.447 -0.487985 3.63338 0
M  V30 2148 H 196.095 -2.92059 4.09525 0
M  V30 2149 H 195.795 -1.93466 5.54837 0
M  V30 2150 H 197.319 -2.85481 5.39753 0
M  V30 2151 H 198.733 -0.603752 5.70112 0
M  V30 2152 H 197.13 0.128968 5.99961 0
M  V30 2153 H 198.2 0.837052 4.77621 0
M  V30 2154 N 199.544 -1.57102 0.125237 0
M  V30 2155 C 200.791 -1.95407 -0.531248 0
M  V30 2156 C 201.119 -1.0089 -1.66287 0
M  V30 2157 O 200.374 -0.0339431 -1.95671 0
M  V30 2158 C 200.673 -3.40096 -1.09862 0
M  V30 2159 C 200.339 -4.50815 -0.0876989 0
M  V30 2160 C 199.001 -4.80824 0.19026 0
M  V30 2161 C 201.353 -5.17724 0.600902 0
M  V30 2162 C 198.681 -5.75058 1.163 0
M  V30 2163 C 201.033 -6.13005 1.56231 0
M  V30 2164 C 199.697 -6.41403 1.8482 0
M  V30 2165 H 198.967 -0.715046 -0.194397 0
M  V30 2166 H 201.614 -1.90373 0.207463 0
M  V30 2167 H 199.919 -3.41855 -1.91422 0
M  V30 2168 H 201.616 -3.6705 -1.61478 0
M  V30 2169 H 198.206 -4.27444 -0.314528 0
M  V30 2170 H 202.39 -4.94691 0.399333 0
M  V30 2171 H 197.646 -5.95362 1.39117 0
M  V30 2172 H 201.82 -6.63934 2.10153 0
M  V30 2173 H 199.447 -7.14229 2.60349 0
M  V30 2174 N 201.022 0.148545 -1.56898 0
M  V30 2175 C 202.299 0.890019 -1.74178 0
M  V30 2176 C 202.679 1.99407 -0.692839 0
M  V30 2177 O 202.027 2.26671 0.288505 0
M  V30 2178 C 202.237 1.43389 -3.18183 0
M  V30 2179 C 203.585 1.89791 -3.79822 0
M  V30 2180 O 204.609 1.53134 -3.21603 0
M  V30 2181 O 203.468 2.57387 -4.82093 0
M  V30 2182 H 200.562 0.420496 -0.712118 0
M  V30 2183 H 203.108 0.134591 -1.69165 0
M  V30 2184 H 201.88 0.640383 -3.86024 0
M  V30 2185 H 201.503 2.25287 -3.27615 0
M  V30 2186 N 202.5 1.5196 0.417844 0
M  V30 2187 C 203.448 1.75278 1.52907 0
M  V30 2188 C 204.442 0.619611 1.57662 0
M  V30 2189 O 205.648 0.801457 1.61173 0
M  V30 2190 H 202.023 0.554141 0.508362 0
M  V30 2191 H 203.994 2.68389 1.30422 0
M  V30 2192 C 202.743 1.91262 2.90369 0
M  V30 2193 H 202.066 2.77872 2.8745 0
M  V30 2194 H 203.506 2.11581 3.67436 0
M  V30 2195 C 201.965 0.677431 3.30019 0
M  V30 2196 O 202.495 -0.158799 4.01386 0
M  V30 2197 N 200.701 0.515851 2.85985 0
M  V30 2198 H 200.248 1.19744 2.28077 0
M  V30 2199 H 200.206 -0.309315 3.12875 0
M  V30 2200 N 203.978 -0.674533 1.42435 0
M  V30 2201 C 204.941 -1.76986 1.45632 0
M  V30 2202 C 205.941 -1.5708 0.343871 0
M  V30 2203 O 207.131 -1.63367 0.604709 0
M  V30 2204 C 204.263 -3.15623 1.28822 0
M  V30 2205 H 205.456 -1.75539 2.43158 0
M  V30 2206 H 203.009 -0.884189 1.28887 0
M  V30 2207 H 203.744 -3.22696 0.322193 0
M  V30 2208 H 203.529 -3.31475 2.09444 0
M  V30 2209 H 205.019 -3.95537 1.33942 0
M  V30 2210 N 205.456 -1.28612 -0.910864 0
M  V30 2211 C 206.733 -1.06632 -1.63979 0
M  V30 2212 C 207.113 0.393351 -2.07403 0
M  V30 2213 O 206.461 1.37999 -1.82122 0
M  V30 2214 C 206.671 -2.0436 -2.8291 0
M  V30 2215 C 208.019 -2.34666 -3.5386 0
M  V30 2216 O 209.043 -2.02467 -2.93062 0
M  V30 2217 O 207.902 -2.89631 -4.63439 0
M  V30 2218 H 204.996 -0.407737 -0.7195 0
M  V30 2219 H 207.542 -1.39942 -0.959914 0
M  V30 2220 H 206.314 -3.02727 -2.47936 0
M  V30 2221 H 205.937 -1.71714 -3.58609 0
M  V30 2222 N 206.934 1.1197 -1.10907 0
M  V30 2223 C 208.182 1.83225 -0.852819 0
M  V30 2224 C 208.503 1.84769 0.623341 0
M  V30 2225 O 207.773 1.3143 1.45269 0
M  V30 2226 H 206.353 0.67849 -0.312507 0
M  V30 2227 H 209.015 1.3556 -1.40033 0
M  V30 2228 H 208.111 2.87265 -1.22005 0
M  V30 2229 N 208.412 0.89855 1.29475 0
M  V30 2230 C 209.828 0.594483 1.48115 0
M  V30 2231 C 210.028 -0.86431 1.82022 0
M  V30 2232 O 209.084 -1.64457 1.91599 0
M  V30 2233 C 210.397 1.51932 2.59494 0
M  V30 2234 C 211.945 1.5244 2.7337 0
M  V30 2235 C 212.42 2.43548 3.87877 0
M  V30 2236 N 213.911 2.41589 3.95208 0
M  V30 2237 C 214.646 3.08789 4.83153 0
M  V30 2238 N 214.142 3.85265 5.75798 0
M  V30 2239 N 215.935 2.97952 4.76635 0
M  V30 2240 H 208.086 1.84207 1.05742 0
M  V30 2241 H 210.349 0.789251 0.525154 0
M  V30 2242 H 210.055 2.55865 2.41301 0
M  V30 2243 H 209.929 1.23899 3.56271 0
M  V30 2244 H 212.316 0.492518 2.90961 0
M  V30 2245 H 212.397 1.8451 1.77172 0
M  V30 2246 H 212.041 3.46829 3.71041 0
M  V30 2247 H 211.971 2.08788 4.83441 0
M  V30 2248 H 214.462 1.86025 3.28943 0
M  V30 2249 H 214.775 4.33598 6.39697 0
M  V30 2250 H 213.12 3.89371 5.75687 0
M  V30 2251 H 216.311 2.37723 4.03244 0
M  V30 2252 H 216.484 3.50599 5.44962 0
M  V30 2253 N 209.89 -1.43072 0.660911 0
M  V30 2254 C 211.137 -2.01721 0.177445 0
M  V30 2255 C 211.465 -1.5218 -1.21126 0
M  V30 2256 O 210.72 -0.708659 -1.82419 0
M  V30 2257 C 211.019 -3.57103 0.145563 0
M  V30 2258 C 210.685 -4.26021 1.47705 0
M  V30 2259 C 209.347 -4.44563 1.84165 0
M  V30 2260 C 211.699 -4.64983 2.35458 0
M  V30 2261 C 209.027 -4.99334 3.0803 0
M  V30 2262 C 211.379 -5.21127 3.58622 0
M  V30 2263 C 210.043 -5.37884 3.95268 0
M  V30 2264 H 209.313 -0.73815 0.0649317 0
M  V30 2265 H 211.96 -1.71446 0.853144 0
M  V30 2266 H 210.265 -3.86965 -0.61361 0
M  V30 2267 H 211.962 -4.00248 -0.2455 0
M  V30 2268 H 208.552 -4.11939 1.18339 0
M  V30 2269 H 212.736 -4.50343 2.08579 0
M  V30 2270 H 207.992 -5.10493 3.36462 0
M  V30 2271 H 212.166 -5.50262 4.26831 0
M  V30 2272 H 209.793 -5.80089 4.91325 0
M  V30 2273 N 211.368 -0.403325 -1.52352 0
M  V30 2274 C 212.278 0.432009 -2.30588 0
M  V30 2275 C 213.294 1.05884 -1.38075 0
M  V30 2276 O 214.47 1.06161 -1.71148 0
M  V30 2277 C 211.535 1.53669 -3.10784 0
M  V30 2278 C 210.596 0.933525 -4.19027 0
M  V30 2279 C 209.829 1.98557 -4.9539 0
M  V30 2280 O 210.052 3.20283 -4.71991 0
M  V30 2281 O 208.986 1.59504 -5.80381 0
M  V30 2282 H 212.812 -0.205739 -3.03002 0
M  V30 2283 H 210.397 -0.166675 -1.48467 0
M  V30 2284 H 212.279 2.17814 -3.60742 0
M  V30 2285 H 210.954 2.15915 -2.41169 0
M  V30 2286 H 209.861 0.254954 -3.7323 0
M  V30 2287 H 211.194 0.35508 -4.90918 0
M  V30 2288 N 212.846 1.57033 -0.133567 0
M  V30 2289 C 214.094 1.953 0.519848 0
M  V30 2290 C 214.415 1.01866 1.66278 0
M  V30 2291 O 213.685 0.0776513 1.95746 0
M  V30 2292 H 212.265 0.721091 0.195032 0
M  V30 2293 H 214.927 1.93809 -0.205921 0
M  V30 2294 H 214.023 2.98695 0.904854 0
M  V30 2295 N 214.325 -0.140222 1.56975 0
M  V30 2296 C 215.553 -0.866437 1.87884 0
M  V30 2297 C 215.968 -1.74428 0.722517 0
M  V30 2298 O 215.325 -1.79891 -0.30749 0
M  V30 2299 C 215.376 -1.71753 3.18093 0
M  V30 2300 O 215.097 -0.875056 4.29272 0
M  V30 2301 C 216.598 -2.55074 3.62563 0
M  V30 2302 H 213.818 -0.25019 0.622612 0
M  V30 2303 H 216.362 -0.130977 2.0408 0
M  V30 2304 H 214.517 -2.40598 3.03631 0
M  V30 2305 H 214.931 -1.46002 5.03769 0
M  V30 2306 H 216.405 -3.10356 4.5649 0
M  V30 2307 H 216.882 -3.31434 2.88181 0
M  V30 2308 H 217.488 -1.91509 3.79743 0
M  V30 2309 N 215.803 -1.52179 -0.40978 0
M  V30 2310 C 217.028 -1.70347 -1.18308 0
M  V30 2311 C 217.453 -0.411887 -1.83535 0
M  V30 2312 O 216.811 0.630587 -1.6998 0
M  V30 2313 C 216.859 -2.83977 -2.22238 0
M  V30 2314 O 215.963 -2.495 -3.28365 0
M  V30 2315 H 215.304 -0.567103 -0.345384 0
M  V30 2316 H 217.834 -1.98879 -0.480445 0
M  V30 2317 H 217.844 -3.0887 -2.66577 0
M  V30 2318 H 216.519 -3.77685 -1.74146 0
M  V30 2319 H 215.096 -2.35277 -2.89308 0
M  V30 2320 N 217.281 0.66697 -1.42791 0
M  V30 2321 C 218.509 1.45505 -1.47091 0
M  V30 2322 C 218.924 1.8861 -0.0845873 0
M  V30 2323 O 218.281 1.58632 0.90234 0
M  V30 2324 C 218.332 2.69906 -2.40485 0
M  V30 2325 O 218.053 2.28608 -3.73725 0
M  V30 2326 C 219.554 3.63396 -2.53886 0
M  V30 2327 H 216.774 0.447459 -0.500022 0
M  V30 2328 H 219.318 0.818866 -1.8739 0
M  V30 2329 H 217.473 3.29696 -2.03419 0
M  V30 2330 H 217.887 3.08997 -4.23817 0
M  V30 2331 H 219.361 4.47387 -3.2334 0
M  V30 2332 H 219.838 4.09824 -1.57927 0
M  V30 2333 H 220.444 3.09495 -2.91706 0
M  V30 2334 N 218.759 1.29093 0.90403 0
M  V30 2335 C 219.706 1.13853 2.00764 0
M  V30 2336 C 220.676 0.0330084 1.66067 0
M  V30 2337 O 221.861 0.199733 1.89752 0
M  V30 2338 C 219.001 0.816537 3.35301 0
M  V30 2339 C 218.114 2.00206 3.82807 0
M  V30 2340 C 217.249 1.61983 5.059 0
M  V30 2341 C 216.288 2.77143 5.45764 0
M  V30 2342 N 215.425 2.39346 6.60044 0
M  V30 2343 H 220.265 2.08276 2.13132 0
M  V30 2344 H 217.802 1.03648 1.04381 0
M  V30 2345 H 219.76 0.610557 4.12708 0
M  V30 2346 H 218.39 -0.090779 3.22672 0
M  V30 2347 H 217.442 2.31988 3.01473 0
M  V30 2348 H 218.754 2.86512 4.08304 0
M  V30 2349 H 217.908 1.37649 5.90879 0
M  V30 2350 H 216.647 0.728202 4.82233 0
M  V30 2351 H 215.652 3.02165 4.59322 0
M  V30 2352 H 216.877 3.66964 5.71414 0
M  V30 2353 H 214.823 1.52665 6.37989 0
M  V30 2354 H 214.74 3.19185 6.85315 0
M  V30 2355 H 216.008 2.1832 7.48303 0
M  V30 2356 N 220.237 -1.11381 1.11499 0
M  V30 2357 C 221.465 -1.86934 0.88675 0
M  V30 2358 C 221.88 -1.80195 -0.563476 0
M  V30 2359 O 221.237 -1.18367 -1.38908 0
M  V30 2360 C 221.288 -3.35722 1.34064 0
M  V30 2361 O 221.009 -3.4232 2.73401 0
M  V30 2362 C 222.51 -4.2818 1.14791 0
M  V30 2363 H 219.73 -0.591117 0.317523 0
M  V30 2364 H 222.274 -1.40865 1.48248 0
M  V30 2365 H 220.429 -3.79294 0.788355 0
M  V30 2366 H 220.843 -4.34971 2.93087 0
M  V30 2367 H 222.317 -5.30817 1.5145 0
M  V30 2368 H 222.794 -4.39113 0.0875279 0
M  V30 2369 H 223.4 -3.90402 1.68721 0
M  V30 2370 N 221.715 -0.905404 -1.28997 0
M  V30 2371 C 222.961 -0.535039 -1.95615 0
M  V30 2372 C 223.294 0.917404 -1.71165 0
M  V30 2373 O 222.569 1.65123 -1.02785 0
M  V30 2374 C 222.852 -0.834918 -3.50287 0
M  V30 2375 C 222.705 -2.33948 -3.84172 0
M  V30 2376 C 224.024 -0.325318 -4.38896 0
M  V30 2377 H 221.143 -0.195861 -0.710498 0
M  V30 2378 H 223.785 -1.13313 -1.52513 0
M  V30 2379 H 221.935 -0.325904 -3.87131 0
M  V30 2380 H 223.607 -2.91847 -3.57243 0
M  V30 2381 H 221.85 -2.79789 -3.31513 0
M  V30 2382 H 222.521 -2.49987 -4.92149 0
M  V30 2383 H 224.997 -0.761256 -4.09077 0
M  V30 2384 H 223.873 -0.564295 -5.45992 0
M  V30 2385 H 224.134 0.774144 -4.35269 0
M  V30 2386 N 223.193 1.4272 -0.668489 0
M  V30 2387 C 224.442 2.00846 -0.185389 0
M  V30 2388 C 224.755 1.53442 1.21305 0
M  V30 2389 O 225.961 2.03944 1.79218 0
M  V30 2390 C 224.417 3.58805 -0.280591 0
M  V30 2391 C 224.025 4.15198 -1.68268 0
M  V30 2392 C 225.769 4.24255 0.14412 0
M  V30 2393 C 223.676 5.655 -1.73099 0
M  V30 2394 H 222.606 0.751145 -0.0655475 0
M  V30 2395 H 225.257 1.63516 -0.832752 0
M  V30 2396 H 223.639 3.93608 0.434553 0
M  V30 2397 H 224.813 3.91866 -2.42441 0
M  V30 2398 H 223.128 3.62176 -2.05469 0
M  V30 2399 H 225.725 5.34547 0.128086 0
M  V30 2400 H 226.068 3.99277 1.17827 0
M  V30 2401 H 226.601 3.94389 -0.519798 0
M  V30 2402 H 223.34 5.95268 -2.74475 0
M  V30 2403 H 222.86 5.90842 -1.03274 0
M  V30 2404 H 224.539 6.29808 -1.48158 0
M  V30 2405 N 224.671 0.411399 1.52136 0
M  V30 2406 C 226.087 0.0623865 1.59478 0
M  V30 2407 C 226.287 -1.42554 1.4241 0
M  V30 2408 O 225.343 -2.19263 1.2522 0
M  V30 2409 C 226.656 0.559331 2.95452 0
M  V30 2410 C 228.204 0.517503 3.08692 0
M  V30 2411 C 228.679 0.990994 4.4715 0
M  V30 2412 N 230.17 0.947908 4.53397 0
M  V30 2413 C 230.905 1.28544 5.58806 0
M  V30 2414 N 230.401 1.69454 6.71757 0
M  V30 2415 N 232.194 1.20526 5.49026 0
M  V30 2416 H 224.345 1.37982 1.61477 0
M  V30 2417 H 226.608 0.566977 0.759764 0
M  V30 2418 H 226.314 1.59938 3.1323 0
M  V30 2419 H 226.188 -0.0298014 3.77188 0
M  V30 2420 H 228.575 -0.513505 2.90598 0
M  V30 2421 H 228.656 1.14272 2.28857 0
M  V30 2422 H 228.3 2.02034 4.65988 0
M  V30 2423 H 228.23 0.34257 5.25485 0
M  V30 2424 H 230.721 0.647157 3.72317 0
M  V30 2425 H 231.034 1.93513 7.48179 0
M  V30 2426 H 229.379 1.73359 6.73032 0
M  V30 2427 H 232.57 0.884505 4.59667 0
M  V30 2428 H 232.743 1.47161 6.31069 0
M  V30 2429 N 226.149 -1.5696 0.141893 0
M  V30 2430 C 227.379 -2.00031 -0.516828 0
M  V30 2431 C 227.787 -1.02091 -1.59293 0
M  V30 2432 O 227.13 -0.00909657 -1.83698 0
M  V30 2433 C 227.192 -3.39534 -1.1814 0
M  V30 2434 C 226.856 -4.56313 -0.250513 0
M  V30 2435 C 227.853 -5.17295 0.519839 0
M  V30 2436 C 225.538 -5.02061 -0.154907 0
M  V30 2437 C 227.532 -6.2243 1.3733 0
M  V30 2438 C 225.219 -6.07053 0.702161 0
M  V30 2439 C 226.217 -6.67106 1.46487 0
M  V30 2440 O 225.905 -7.70066 2.30767 0
M  V30 2441 H 225.637 -0.661451 -0.139493 0
M  V30 2442 H 228.191 -2.04086 0.231926 0
M  V30 2443 H 226.421 -3.32302 -1.97769 0
M  V30 2444 H 228.11 -3.66745 -1.73933 0
M  V30 2445 H 228.876 -4.82852 0.45598 0
M  V30 2446 H 224.755 -4.5505 -0.7383 0
M  V30 2447 H 228.299 -6.69233 1.96909 0
M  V30 2448 H 224.196 -6.40923 0.76733 0
M  V30 2449 H 224.964 -7.87264 2.23959 0
M  V30 2450 N 227.627 0.131896 -1.57047 0
M  V30 2451 C 228.575 1.18146 -2.0036 0
M  V30 2452 C 229.569 1.43614 -0.898406 0
M  V30 2453 O 230.775 1.43729 -1.08361 0
M  V30 2454 H 227.15 0.398042 -0.638018 0
M  V30 2455 H 229.121 0.789564 -2.87765 0
M  V30 2456 C 227.87 2.50341 -2.41298 0
M  V30 2457 H 227.193 2.31578 -3.25902 0
M  V30 2458 H 228.633 3.22371 -2.75414 0
M  V30 2459 C 227.092 3.11984 -1.27153 0
M  V30 2460 O 227.622 3.97484 -0.580459 0
M  V30 2461 N 225.828 2.71662 -1.03189 0
M  V30 2462 H 225.375 2.02231 -1.59564 0
M  V30 2463 H 225.333 3.13238 -0.270077 0
M  V30 2464 N 229.106 1.52395 0.401703 0
M  V30 2465 C 230.354 1.66488 1.14569 0
M  V30 2466 C 230.675 0.400897 1.90835 0
M  V30 2467 O 229.945 -0.584415 1.8698 0
M  V30 2468 H 228.525 0.613672 0.425929 0
M  V30 2469 H 231.187 1.89464 0.457093 0
M  V30 2470 H 230.283 2.50942 1.85566 0
M  V30 2471 N 230.584 -0.659388 1.43143 0
M  V30 2472 C 231.812 -1.44723 1.47861 0
M  V30 2473 C 232.227 -1.88563 0.0945886 0
M  V30 2474 O 231.584 -1.59108 -0.893915 0
M  V30 2475 C 231.635 -2.68627 2.41913 0
M  V30 2476 O 231.356 -2.26623 3.74932 0
M  V30 2477 C 232.857 -3.62045 2.55809 0
M  V30 2478 H 230.077 -0.444801 0.502387 0
M  V30 2479 H 232.621 -0.808916 1.87821 0
M  V30 2480 H 230.776 -3.28613 2.05164 0
M  V30 2481 H 231.19 -3.06745 4.2545 0
M  V30 2482 H 232.664 -4.45666 3.25708 0
M  V30 2483 H 233.141 -4.08981 1.60099 0
M  V30 2484 H 233.747 -3.07944 2.93344 0
M  V30 2485 N 232.062 -1.29571 -0.897171 0
M  V30 2486 C 233.308 -1.17863 -1.65034 0
M  V30 2487 C 233.641 0.268729 -1.92332 0
M  V30 2488 O 232.916 1.19378 -1.53555 0
M  V30 2489 C 233.199 -1.995 -2.99786 0
M  V30 2490 C 233.052 -3.5239 -2.79538 0
M  V30 2491 C 234.371 -1.82335 -4.00552 0
M  V30 2492 H 231.49 -0.429528 -0.598895 0
M  V30 2493 H 234.132 -1.59072 -1.03905 0
M  V30 2494 H 232.282 -1.64485 -3.51962 0
M  V30 2495 H 233.954 -3.97401 -2.34244 0
M  V30 2496 H 232.197 -3.77187 -2.14273 0
M  V30 2497 H 232.868 -4.04787 -3.75302 0
M  V30 2498 H 235.344 -2.12924 -3.57495 0
M  V30 2499 H 234.22 -2.41801 -4.92771 0
M  V30 2500 H 234.481 -0.779209 -4.35179 0
M  V30 2501 N 233.54 1.10788 -1.12088 0
M  V30 2502 C 234.768 1.86461 -0.896651 0
M  V30 2503 C 235.183 1.80492 0.553912 0
M  V30 2504 O 234.54 1.19102 1.38278 0
M  V30 2505 C 234.591 3.35006 -1.35843 0
M  V30 2506 O 234.312 3.40866 -2.75213 0
M  V30 2507 C 235.813 4.27565 -1.1706 0
M  V30 2508 H 233.033 0.589425 -0.320654 0
M  V30 2509 H 235.577 1.40076 -1.48993 0
M  V30 2510 H 233.732 3.7887 -0.808458 0
M  V30 2511 H 234.146 4.33411 -2.9539 0
M  V30 2512 H 235.62 5.30007 -1.54263 0
M  V30 2513 H 236.097 4.3906 -0.110814 0
M  V30 2514 H 236.703 3.89501 -1.70789 0
M  V30 2515 N 235.018 0.912232 1.28515 0
M  V30 2516 C 236.264 0.554851 1.95686 0
M  V30 2517 C 236.619 -0.89138 1.70506 0
M  V30 2518 O 235.912 -1.62529 1.01464 0
M  V30 2519 C 236.106 0.798392 3.48368 0
M  V30 2520 C 235.935 2.26674 3.88393 0
M  V30 2521 C 234.705 2.91657 4.12631 0
M  V30 2522 C 236.903 3.24303 3.99164 0
M  V30 2523 N 234.885 4.28805 4.39317 0
M  V30 2524 C 236.256 4.4661 4.30046 0
M  V30 2525 C 238.311 3.19723 3.81683 0
M  V30 2526 C 237.014 5.64915 4.45268 0
M  V30 2527 C 239.04 4.37325 3.98121 0
M  V30 2528 C 238.402 5.58406 4.29375 0
M  V30 2529 H 234.501 0.252876 0.739985 0
M  V30 2530 H 237.085 1.17565 1.55199 0
M  V30 2531 H 235.256 0.20688 3.87849 0
M  V30 2532 H 236.988 0.405193 4.02666 0
M  V30 2533 H 233.743 2.42393 4.06869 0
M  V30 2534 H 234.167 4.99712 4.56746 0
M  V30 2535 H 238.809 2.27191 3.56573 0
M  V30 2536 H 236.527 6.57927 4.6921 0
M  V30 2537 H 240.113 4.35282 3.86033 0
M  V30 2538 H 238.993 6.47889 4.41825 0
M  V30 2539 N 236.496 -1.42363 0.676048 0
M  V30 2540 C 237.724 -2.05859 0.207268 0
M  V30 2541 C 238.139 -1.50796 -1.13605 0
M  V30 2542 O 237.496 -0.648265 -1.70598 0
M  V30 2543 C 237.547 -3.61248 0.134975 0
M  V30 2544 O 237.268 -4.1427 1.42521 0
M  V30 2545 C 238.769 -4.41859 -0.357151 0
M  V30 2546 H 235.989 -0.663431 0.100503 0
M  V30 2547 H 238.533 -1.82479 0.923136 0
M  V30 2548 H 236.688 -3.83735 -0.531588 0
M  V30 2549 H 237.102 -5.0815 1.29939 0
M  V30 2550 H 238.576 -5.50847 -0.356641 0
M  V30 2551 H 239.053 -4.16536 -1.39264 0
M  V30 2552 H 239.659 -4.24392 0.27772 0
M  V30 2553 N 237.974 -0.419461 -1.51915 0
M  V30 2554 C 239.385 0.0477853 -1.86639 0
M  V30 2555 C 239.736 1.43531 -1.33766 0
M  V30 2556 O 238.861 2.05401 -0.68113 0
M  V30 2557 C 239.456 0.0934885 -3.38671 0
M  V30 2558 C 238.015 0.505097 -3.72996 0
M  V30 2559 C 237.162 -0.313792 -2.75519 0
M  V30 2560 H 240.113 -0.636088 -1.45395 0
M  V30 2561 H 240.134 0.906667 -3.6954 0
M  V30 2562 H 239.646 -0.916501 -3.77123 0
M  V30 2563 H 237.747 1.52135 -3.40126 0
M  V30 2564 H 237.86 0.242309 -4.78487 0
M  V30 2565 H 236.224 0.225363 -2.53701 0
M  V30 2566 H 237.007 -1.32232 -3.16812 0
M  V30 2567 N 239.452 1.56882 -0.150215 0
M  V30 2568 C 240.863 1.82995 0.370076 0
M  V30 2569 C 241.214 1.06907 1.64515 0
M  V30 2570 O 240.339 0.315369 2.1409 0
M  V30 2571 C 240.934 3.31942 0.678208 0
M  V30 2572 C 239.493 3.58625 1.14301 0
M  V30 2573 C 238.64 2.76792 0.167778 0
M  V30 2574 H 241.591 1.54209 -0.374858 0
M  V30 2575 H 241.612 3.48272 1.53254 0
M  V30 2576 H 241.124 3.87294 -0.249991 0
M  V30 2577 H 239.225 3.08664 2.08704 0
M  V30 2578 H 239.338 4.67073 1.06676 0
M  V30 2579 H 237.702 2.45972 0.661037 0
M  V30 2580 H 238.485 3.34916 -0.754069 0
M  V30 2581 N 240.93 -0.123565 1.57115 0
M  V30 2582 C 241.893 -1.13583 1.99076 0
M  V30 2583 C 242.893 -1.34564 0.880296 0
M  V30 2584 O 244.083 -1.31158 1.14644 0
M  V30 2585 C 241.215 -2.49128 2.32698 0
M  V30 2586 H 242.408 -0.775287 2.89706 0
M  V30 2587 H 239.961 -0.36771 1.51913 0
M  V30 2588 H 240.696 -2.90111 1.44934 0
M  V30 2589 H 240.481 -2.35255 3.13684 0
M  V30 2590 H 241.971 -3.2199 2.65918 0
M  V30 2591 N 242.408 -1.52605 -0.393616 0
M  V30 2592 C 243.356 -1.77688 -1.50099 0
M  V30 2593 C 244.35 -0.644615 -1.56656 0
M  V30 2594 O 245.556 -0.826997 -1.59877 0
M  V30 2595 H 241.931 -0.562159 -0.499481 0
M  V30 2596 H 243.902 -2.7043 -1.26135 0
M  V30 2597 C 242.651 -1.95858 -2.87289 0
M  V30 2598 H 241.974 -2.8241 -2.82992 0
M  V30 2599 H 243.414 -2.174 -3.64024 0
M  V30 2600 C 241.873 -0.729848 -3.28899 0
M  V30 2601 O 242.403 0.0949217 -4.01588 0
M  V30 2602 N 240.609 -0.561283 -2.85128 0
M  V30 2603 H 240.156 -1.23357 -2.26143 0
M  V30 2604 H 240.114 0.2595 -3.13327 0
M  V30 2605 N 243.887 0.651787 -1.4349 0
M  V30 2606 C 245.117 1.43728 -1.48411 0
M  V30 2607 C 245.525 1.8893 -0.10103 0
M  V30 2608 O 244.868 1.60182 0.899307 0
M  V30 2609 C 244.93 2.70411 -2.36893 0
M  V30 2610 C 244.594 2.4714 -3.8441 0
M  V30 2611 C 245.591 2.10271 -4.75481 0
M  V30 2612 C 243.276 2.6142 -4.28912 0
M  V30 2613 C 245.27 1.87982 -6.0905 0
M  V30 2614 C 242.957 2.38746 -5.62533 0
M  V30 2615 C 243.955 2.02083 -6.5242 0
M  V30 2616 O 243.643 1.79647 -7.8357 0
M  V30 2617 H 243.375 0.447962 -0.506267 0
M  V30 2618 H 245.929 0.80624 -1.88915 0
M  V30 2619 H 244.159 3.36079 -1.91278 0
M  V30 2620 H 245.848 3.32364 -2.33 0
M  V30 2621 H 246.614 1.98814 -4.42378 0
M  V30 2622 H 242.493 2.88931 -3.59222 0
M  V30 2623 H 246.037 1.5929 -6.7917 0
M  V30 2624 H 241.934 2.49806 -5.95203 0
M  V30 2625 H 242.702 1.9406 -7.95162 0
M  V30 2626 N 245.365 1.30045 0.890287 0
M  V30 2627 C 246.312 1.15976 1.99545 0
M  V30 2628 C 247.282 0.0506202 1.66023 0
M  V30 2629 O 248.467 0.219847 1.89529 0
M  V30 2630 C 245.607 0.852054 3.34416 0
M  V30 2631 C 244.72 2.04255 3.80662 0
M  V30 2632 C 243.855 1.6734 5.04154 0
M  V30 2633 C 242.894 2.82916 5.42794 0
M  V30 2634 N 242.031 2.46333 6.57468 0
M  V30 2635 H 246.871 2.10524 2.10911 0
M  V30 2636 H 244.408 1.04749 1.03276 0
M  V30 2637 H 246.366 0.654296 4.12037 0
M  V30 2638 H 244.996 -0.0565502 3.2275 0
M  V30 2639 H 244.048 2.35172 2.98995 0
M  V30 2640 H 245.36 2.90826 4.05242 0
M  V30 2641 H 244.514 1.43908 5.89386 0
M  V30 2642 H 243.253 0.779308 4.81433 0
M  V30 2643 H 242.258 3.0702 4.56091 0
M  V30 2644 H 243.483 3.73004 5.6749 0
M  V30 2645 H 241.429 1.59423 6.36334 0
M  V30 2646 H 241.346 3.26436 6.81891 0
M  V30 2647 H 242.614 2.26244 7.45945 0
M  V30 2648 N 246.843 -1.10192 1.12674 0
M  V30 2649 C 248.068 -1.86523 0.906853 0
M  V30 2650 C 248.493 -1.80221 -0.538711 0
M  V30 2651 O 247.851 -1.17396 -1.38158 0
M  V30 2652 C 247.899 -3.32758 1.3894 0
M  V30 2653 O 247.003 -4.08449 0.5695 0
M  V30 2654 H 246.344 -0.578678 0.325619 0
M  V30 2655 H 248.874 -1.39203 1.49946 0
M  V30 2656 H 248.884 -3.83608 1.38958 0
M  V30 2657 H 247.559 -3.36661 2.44197 0
M  V30 2658 H 246.136 -3.67427 0.636528 0
M  V30 2659 N 248.321 -0.919034 -1.28029 0
M  V30 2660 C 249.546 -0.570357 -1.99403 0
M  V30 2661 C 249.971 0.842486 -1.68178 0
M  V30 2662 O 249.329 1.56391 -0.917141 0
M  V30 2663 C 249.377 -0.792541 -3.51783 0
M  V30 2664 O 248.481 0.145988 -4.12142 0
M  V30 2665 H 247.822 -0.220555 -0.6263 0
M  V30 2666 H 250.352 -1.23592 -1.63053 0
M  V30 2667 H 250.362 -0.704708 -4.01868 0
M  V30 2668 H 249.037 -1.82247 -3.73844 0
M  V30 2669 H 247.614 0.00897528 -3.72899 0
M  V30 2670 N 249.799 1.42003 -0.683588 0
M  V30 2671 C 251.039 2.03282 -0.213513 0
M  V30 2672 C 251.403 1.52924 1.16097 0
M  V30 2673 O 252.604 2.06048 1.7262 0
M  V30 2674 C 250.875 3.56483 -0.255856 0
M  V30 2675 S 252.434 4.3857 0.14193 0
M  V30 2676 H 249.252 0.705659 -0.0869853 0
M  V30 2677 H 251.854 1.73619 -0.8987 0
M  V30 2678 H 250.558 3.90631 -1.25841 0
M  V30 2679 H 250.089 3.90831 0.448875 0
M  V30 2680 H 252.104 4.76828 1.37295 0
M  V30 2681 N 251.277 0.427512 1.51691 0
M  V30 2682 C 252.505 -0.141191 2.06418 0
M  V30 2683 C 252.92 -1.37303 1.29589 0
M  V30 2684 O 252.277 -1.79059 0.352732 0
M  V30 2685 C 252.328 -0.473266 3.58389 0
M  V30 2686 O 252.049 0.709673 4.32314 0
M  V30 2687 C 253.55 -1.09371 4.29596 0
M  V30 2688 H 250.77 -0.0122747 0.670888 0
M  V30 2689 H 253.314 0.603764 1.95384 0
M  V30 2690 H 251.469 -1.16812 3.69369 0
M  V30 2691 H 251.883 0.42807 5.2275 0
M  V30 2692 H 253.357 -1.27613 5.37046 0
M  V30 2693 H 253.834 -2.072 3.87253 0
M  V30 2694 H 254.44 -0.43853 4.23033 0
M  V30 2695 N 252.755 -1.56801 0.158532 0
M  V30 2696 C 254.004 -1.95665 -0.489702 0
M  V30 2697 C 254.317 -1.04654 -1.65248 0
M  V30 2698 O 255.523 -1.33146 -2.3661 0
M  V30 2699 C 253.979 -3.47874 -0.922582 0
M  V30 2700 C 253.587 -4.47489 0.213893 0
M  V30 2701 C 255.331 -3.95583 -1.53996 0
M  V30 2702 C 253.238 -5.90921 -0.237903 0
M  V30 2703 H 252.168 -0.730516 -0.186716 0
M  V30 2704 H 254.819 -1.81861 0.244722 0
M  V30 2705 H 253.201 -3.57051 -1.71261 0
M  V30 2706 H 254.375 -4.50017 0.991036 0
M  V30 2707 H 252.69 -4.09764 0.740407 0
M  V30 2708 H 255.287 -5.0019 -1.8898 0
M  V30 2709 H 255.63 -3.37789 -2.43319 0
M  V30 2710 H 256.163 -3.8937 -0.814611 0
M  V30 2711 H 252.902 -6.52559 0.620236 0
M  V30 2712 H 252.422 -5.91729 -0.980676 0
M  V30 2713 H 254.101 -6.43352 -0.686067 0
M  V30 2714 N 254.233 0.115231 -1.57178 0
M  V30 2715 C 255.51 0.852873 -1.76027 0
M  V30 2716 C 255.89 1.97892 -0.73498 0
M  V30 2717 O 255.238 2.27232 0.24036 0
M  V30 2718 C 255.448 1.36608 -3.21153 0
M  V30 2719 C 256.796 1.81692 -3.83762 0
M  V30 2720 O 257.82 1.46278 -3.24779 0
M  V30 2721 O 256.679 2.47104 -4.87444 0
M  V30 2722 H 253.773 0.405296 -0.720877 0
M  V30 2723 H 256.319 0.0986785 -1.69413 0
M  V30 2724 H 255.091 0.558357 -3.87296 0
M  V30 2725 H 254.714 2.18287 -3.3232 0
M  V30 2726 N 255.711 1.52812 0.385517 0
M  V30 2727 C 256.957 1.68275 1.13188 0
M  V30 2728 C 257.29 0.423179 1.89533 0
M  V30 2729 O 256.565 -0.579113 1.85679 0
M  V30 2730 C 256.848 2.92001 2.1073 0
M  V30 2731 C 256.701 4.28067 1.38125 0
M  V30 2732 C 258.02 3.11283 3.11113 0
M  V30 2733 H 255.139 0.612352 0.410115 0
M  V30 2734 H 257.781 1.85415 0.414869 0
M  V30 2735 H 255.931 2.77519 2.71874 0
M  V30 2736 H 257.603 4.54324 0.799187 0
M  V30 2737 H 255.846 4.28388 0.683092 0
M  V30 2738 H 256.517 5.10733 2.09417 0
M  V30 2739 H 258.993 3.2482 2.6006 0
M  V30 2740 H 257.869 3.99325 3.76605 0
M  V30 2741 H 258.13 2.25656 3.80173 0
M  V30 2742 N 257.189 -0.644168 1.43834 0
M  V30 2743 C 258.417 -1.43147 1.49387 0
M  V30 2744 C 258.832 -1.88452 0.114583 0
M  V30 2745 O 258.189 -1.60047 -0.876989 0
M  V30 2746 C 258.24 -2.66046 2.44748 0
M  V30 2747 O 257.961 -2.22633 3.77314 0
M  V30 2748 C 259.462 -3.59311 2.59635 0
M  V30 2749 H 256.682 -0.439447 0.507077 0
M  V30 2750 H 259.226 -0.78895 1.88669 0
M  V30 2751 H 257.381 -3.26418 2.08638 0
M  V30 2752 H 257.795 -3.02216 4.28679 0
M  V30 2753 H 259.269 -4.42187 3.30416 0
M  V30 2754 H 259.746 -4.07259 1.64427 0
M  V30 2755 H 260.352 -3.04816 2.96593 0
M  V30 2756 N 258.668 -1.30515 -0.883378 0
M  V30 2757 C 259.915 -1.1943 -1.63532 0
M  V30 2758 C 260.243 0.250627 -1.92878 0
M  V30 2759 O 259.498 1.19556 -1.54935 0
M  V30 2760 C 259.797 -1.96994 -2.98209 0
M  V30 2761 C 259.463 -3.466 -2.88408 0
M  V30 2762 C 258.125 -3.87397 -2.85442 0
M  V30 2763 C 260.477 -4.41863 -2.76418 0
M  V30 2764 C 257.805 -5.21745 -2.68327 0
M  V30 2765 C 260.157 -5.7632 -2.60841 0
M  V30 2766 C 258.821 -6.16354 -2.56251 0
M  V30 2767 H 258.091 -0.437025 -0.598406 0
M  V30 2768 H 260.738 -1.61635 -1.02696 0
M  V30 2769 H 259.043 -1.47429 -3.63004 0
M  V30 2770 H 260.74 -1.85808 -3.55354 0
M  V30 2771 H 257.33 -3.14182 -2.91527 0
M  V30 2772 H 261.514 -4.11285 -2.77775 0
M  V30 2773 H 256.77 -5.51853 -2.63189 0
M  V30 2774 H 260.944 -6.49772 -2.50538 0
M  V30 2775 H 258.571 -7.20401 -2.42748 0
M  V30 2776 N 260.146 1.09593 -1.13257 0
M  V30 2777 C 261.393 1.81734 -0.893257 0
M  V30 2778 C 261.721 1.8563 0.580656 0
M  V30 2779 O 260.976 1.31906 1.44566 0
M  V30 2780 C 261.275 3.27802 -1.42411 0
M  V30 2781 C 260.941 3.44041 -2.91456 0
M  V30 2782 C 259.603 3.48181 -3.3215 0
M  V30 2783 C 261.955 3.48719 -3.87356 0
M  V30 2784 C 259.283 3.54575 -4.67433 0
M  V30 2785 C 261.635 3.56648 -5.2248 0
M  V30 2786 C 260.299 3.59055 -5.62704 0
M  V30 2787 H 259.569 0.665011 -0.326866 0
M  V30 2788 H 262.216 1.2912 -1.41422 0
M  V30 2789 H 260.521 3.83042 -0.823795 0
M  V30 2790 H 262.218 3.82149 -1.21503 0
M  V30 2791 H 258.808 3.41502 -2.58987 0
M  V30 2792 H 262.992 3.44763 -3.57004 0
M  V30 2793 H 258.248 3.54725 -4.97976 0
M  V30 2794 H 262.422 3.59212 -5.96607 0
M  V30 2795 H 260.049 3.63763 -6.67518 0
M  V30 2796 N 261.624 0.925811 1.2754 0
M  V30 2797 C 263.035 0.610102 1.7645 0
M  V30 2798 C 263.386 -0.874723 1.75622 0
M  V30 2799 O 262.511 -1.68444 1.35851 0
M  V30 2800 C 263.106 1.10073 3.20421 0
M  V30 2801 C 261.665 0.835723 3.67005 0
M  V30 2802 C 260.812 1.26054 2.46993 0
M  V30 2803 H 263.763 1.10579 1.13833 0
M  V30 2804 H 263.784 0.447557 3.77859 0
M  V30 2805 H 263.296 2.18143 3.20991 0
M  V30 2806 H 261.397 -0.231249 3.71882 0
M  V30 2807 H 261.51 1.45193 4.56569 0
M  V30 2808 H 259.874 0.679111 2.45479 0
M  V30 2809 H 260.657 2.34984 2.50275 0
M  V30 2810 N 263.102 -1.41638 0.69111 0
M  V30 2811 C 264.349 -2.01299 0.220193 0
M  V30 2812 C 264.677 -1.54715 -1.17871 0
M  V30 2813 O 263.932 -0.747193 -1.80874 0
M  V30 2814 C 264.231 -3.56714 0.221277 0
M  V30 2815 C 263.897 -4.22792 1.56709 0
M  V30 2816 C 262.559 -4.40557 1.93554 0
M  V30 2817 C 264.911 -4.59883 2.45268 0
M  V30 2818 C 262.239 -4.92688 3.18552 0
M  V30 2819 C 264.591 -5.13403 3.69595 0
M  V30 2820 C 263.255 -5.29379 4.06589 0
M  V30 2821 H 262.525 -0.736606 0.0805743 0
M  V30 2822 H 265.172 -1.69598 0.889319 0
M  V30 2823 H 263.477 -3.8818 -0.531391 0
M  V30 2824 H 265.174 -4.00678 -0.160547 0
M  V30 2825 H 261.764 -4.09336 1.2705 0
M  V30 2826 H 265.948 -4.45817 2.18084 0
M  V30 2827 H 261.204 -5.03242 3.47214 0
M  V30 2828 H 265.378 -5.41084 4.38407 0
M  V30 2829 H 263.005 -5.69537 5.03519 0
M  V30 2830 N 264.58 -0.43555 -1.51462 0
M  V30 2831 C 265.857 0.191364 -1.94662 0
M  V30 2832 C 266.237 1.60254 -1.37411 0
M  V30 2833 O 265.585 2.2152 -0.560458 0
M  V30 2834 C 265.795 0.17091 -3.48581 0
M  V30 2835 C 267.143 0.377357 -4.2292 0
M  V30 2836 O 268.167 0.249104 -3.55328 0
M  V30 2837 O 267.026 0.63247 -5.42828 0
M  V30 2838 H 264.12 0.130932 -0.816569 0
M  V30 2839 H 266.666 -0.4934 -1.62369 0
M  V30 2840 H 265.438 -0.815738 -3.82703 0
M  V30 2841 H 265.061 0.898659 -3.87311 0
M  V30 2842 N 266.058 1.56714 -0.166846 0
M  V30 2843 C 266.988 2.20754 0.760913 0
M  V30 2844 C 267.969 1.16178 1.24244 0
M  V30 2845 O 269.154 1.44592 1.29641 0
M  V30 2846 C 266.284 2.84478 1.99223 0
M  V30 2847 C 265.238 3.95053 1.64672 0
M  V30 2848 C 264.564 4.45805 2.95232 0
M  V30 2849 C 265.864 5.14865 0.878155 0
M  V30 2850 H 267.558 2.98537 0.22713 0
M  V30 2851 H 265.104 1.43596 0.107805 0
M  V30 2852 H 267.057 3.27951 2.64624 0
M  V30 2853 H 265.781 2.04056 2.55007 0
M  V30 2854 H 264.44 3.52228 1.01641 0
M  V30 2855 H 264.088 3.62181 3.49047 0
M  V30 2856 H 263.788 5.204 2.7287 0
M  V30 2857 H 265.312 4.91962 3.6167 0
M  V30 2858 H 266.726 5.55059 1.43466 0
M  V30 2859 H 265.123 5.95348 0.753738 0
M  V30 2860 H 266.193 4.84735 -0.126377 0
M  V30 2861 N 267.536 -0.106894 1.57237 0
M  V30 2862 C 268.468 -1.15646 1.97885 0
M  V30 2863 C 269.481 -1.36981 0.879779 0
M  V30 2864 O 270.67 -1.35841 1.15799 0
M  V30 2865 C 267.77 -2.51425 2.27241 0
M  V30 2866 C 266.943 -2.50529 3.58545 0
M  V30 2867 C 266.002 -3.68145 3.75973 0
M  V30 2868 O 265.028 -3.51176 4.47956 0
M  V30 2869 N 266.23 -4.87177 3.15656 0
M  V30 2870 H 268.995 -0.81059 2.8853 0
M  V30 2871 H 266.556 -0.296024 1.59171 0
M  V30 2872 H 268.548 -3.28689 2.36105 0
M  V30 2873 H 267.118 -2.78147 1.42663 0
M  V30 2874 H 266.338 -1.58894 3.60758 0
M  V30 2875 H 267.626 -2.46997 4.44826 0
M  V30 2876 H 267.024 -5.03868 2.57165 0
M  V30 2877 H 265.581 -5.62075 3.30023 0
M  V30 2878 N 269.014 -1.53014 -0.377408 0
M  V30 2879 C 269.962 -1.7927 -1.48206 0
M  V30 2880 C 270.956 -0.661195 -1.55963 0
M  V30 2881 O 272.162 -0.843908 -1.58991 0
M  V30 2882 H 268.537 -0.567425 -0.493491 0
M  V30 2883 H 270.508 -2.71753 -1.2326 0
M  V30 2884 C 269.257 -1.98894 -2.85196 0
M  V30 2885 H 268.58 -2.85395 -2.79981 0
M  V30 2886 H 270.02 -2.21249 -3.61698 0
M  V30 2887 C 268.479 -0.764691 -3.28107 0
M  V30 2888 O 269.009 0.0523226 -4.01666 0
M  V30 2889 N 267.215 -0.591493 -2.84517 0
M  V30 2890 H 266.762 -1.25749 -2.24822 0
M  V30 2891 H 266.72 0.226253 -3.13585 0
M  V30 2892 N 270.492 0.636531 -1.44174 0
M  V30 2893 C 271.732 1.40781 -1.48189 0
M  V30 2894 C 272.096 1.91688 -0.10944 0
M  V30 2895 O 273.297 2.68789 -0.0242741 0
M  V30 2896 C 271.568 2.54575 -2.50851 0
M  V30 2897 S 273.127 3.4284 -2.73873 0
M  V30 2898 H 269.945 0.480345 -0.524204 0
M  V30 2899 H 272.547 0.737416 -1.81059 0
M  V30 2900 H 271.251 2.15478 -3.49281 0
M  V30 2901 H 270.782 3.26447 -2.19536 0
M  V30 2902 H 272.797 4.51846 -2.05059 0
M  V30 2903 N 271.97 1.30982 0.876444 0
M  V30 2904 C 273.195 1.23373 1.66715 0
M  V30 2905 C 273.62 -0.19885 1.87046 0
M  V30 2906 O 272.978 -1.1427 1.40756 0
M  V30 2907 C 273.026 1.97644 3.01611 0
M  V30 2908 O 272.13 1.30935 3.91062 0
M  V30 2909 H 271.471 0.426279 0.509099 0
M  V30 2910 H 274.001 1.72944 1.09323 0
M  V30 2911 H 274.011 2.06992 3.51594 0
M  V30 2912 H 272.686 3.01829 2.86133 0
M  V30 2913 H 271.263 1.29996 3.49507 0
M  V30 2914 N 273.449 -1.08991 1.13837 0
M  V30 2915 C 274.382 -2.15049 0.763477 0
M  V30 2916 C 275.36 -1.60629 -0.252398 0
M  V30 2917 O 276.544 -1.87958 -0.142853 0
M  V30 2918 C 273.671 -3.38441 0.132545 0
M  V30 2919 C 272.717 -4.11596 1.11763 0
M  V30 2920 S 273.55 -4.6521 2.65216 0
M  V30 2921 C 274.706 -5.91896 2.03495 0
M  V30 2922 H 274.939 -2.46518 1.66182 0
M  V30 2923 H 272.472 -1.21008 0.958976 0
M  V30 2924 H 274.43 -4.09883 -0.225074 0
M  V30 2925 H 273.091 -3.05182 -0.743135 0
M  V30 2926 H 272.284 -5.00121 0.624076 0
M  V30 2927 H 271.886 -3.46038 1.41894 0
M  V30 2928 H 274.178 -6.63156 1.38675 0
M  V30 2929 H 275.121 -6.45938 2.9012 0
M  V30 2930 H 275.529 -5.44625 1.48471 0
M  V30 2931 N 274.927 -0.932562 -1.27047 0
M  V30 2932 C 275.874 -0.434072 -2.26681 0
M  V30 2933 C 276.844 0.501639 -1.58344 0
M  V30 2934 O 278.029 0.419734 -1.86126 0
M  V30 2935 C 275.169 0.30261 -3.43771 0
M  V30 2936 C 274.282 -0.667774 -4.26808 0
M  V30 2937 C 273.417 0.0892393 -5.31125 0
M  V30 2938 C 272.456 -0.873532 -6.05835 0
M  V30 2939 N 271.593 -0.148832 -7.01942 0
M  V30 2940 H 276.433 -1.28868 -2.68695 0
M  V30 2941 H 273.97 -0.646713 -1.32121 0
M  V30 2942 H 275.928 0.746092 -4.10474 0
M  V30 2943 H 274.558 1.12142 -3.02695 0
M  V30 2944 H 273.61 -1.22978 -3.59973 0
M  V30 2945 H 274.922 -1.40337 -4.78651 0
M  V30 2946 H 274.076 0.592409 -6.03801 0
M  V30 2947 H 272.815 0.85777 -4.80097 0
M  V30 2948 H 271.82 -1.38791 -5.31994 0
M  V30 2949 H 273.045 -1.64193 -6.58952 0
M  V30 2950 H 270.991 0.601365 -6.53238 0
M  V30 2951 H 270.908 -0.82391 -7.51497 0
M  V30 2952 H 272.176 0.333527 -7.78786 0
M  V30 2953 N 276.405 1.4127 -0.698611 0
M  V30 2954 C 277.652 2.0118 -0.230865 0
M  V30 2955 C 277.98 1.55338 1.17049 0
M  V30 2956 O 277.235 0.756775 1.80475 0
M  V30 2957 C 277.534 3.56592 -0.240192 0
M  V30 2958 C 277.2 4.21955 -1.58948 0
M  V30 2959 C 275.862 4.39524 -1.95887 0
M  V30 2960 C 278.214 4.58576 -2.47704 0
M  V30 2961 C 275.542 4.90992 -3.2116 0
M  V30 2962 C 277.894 5.11435 -3.72313 0
M  V30 2963 C 276.558 5.27215 -4.0939 0
M  V30 2964 H 275.828 0.736169 -0.0844796 0
M  V30 2965 H 278.475 1.69124 -0.8983 0
M  V30 2966 H 276.78 3.88456 0.510797 0
M  V30 2967 H 278.477 4.00758 0.139296 0
M  V30 2968 H 275.067 4.08657 -1.29219 0
M  V30 2969 H 279.251 4.44654 -2.20445 0
M  V30 2970 H 274.507 5.01393 -3.49878 0
M  V30 2971 H 278.681 5.38752 -4.4127 0
M  V30 2972 H 276.308 5.66859 -5.06533 0
M  V30 2973 N 277.883 0.443576 1.51229 0
M  V30 2974 C 279.131 -0.120557 2.0174 0
M  V30 2975 C 279.452 -1.42665 1.32935 0
M  V30 2976 O 278.722 -1.9028 0.465866 0
M  V30 2977 H 277.302 -0.0475426 0.745486 0
M  V30 2978 H 279.964 0.587711 1.85828 0
M  V30 2979 H 279.06 -0.291972 3.10731 0
M  V30 2980 N 279.361 -1.56624 0.175154 0
M  V30 2981 C 280.586 -2.01813 -0.478137 0
M  V30 2982 C 281.011 -1.05457 -1.55757 0
M  V30 2983 O 280.369 -0.0347439 -1.81267 0
M  V30 2984 C 280.417 -3.45581 -1.02987 0
M  V30 2985 O 279.521 -3.52305 -2.14371 0
M  V30 2986 H 278.862 -0.65413 -0.114059 0
M  V30 2987 H 281.392 -2.02673 0.280173 0
M  V30 2988 H 281.402 -3.84965 -1.35151 0
M  V30 2989 H 280.077 -4.1521 -0.239556 0
M  V30 2990 H 278.654 -3.24783 -1.83222 0
M  V30 2991 N 280.839 0.0985539 -1.57292 0
M  V30 2992 C 282.085 0.798769 -1.87059 0
M  V30 2993 C 282.44 1.76514 -0.76555 0
M  V30 2994 O 281.733 1.90181 0.232752 0
M  V30 2995 C 281.927 1.56927 -3.21105 0
M  V30 2996 C 281.756 0.679026 -4.44544 0
M  V30 2997 C 280.526 0.326071 -5.04247 0
M  V30 2998 C 282.724 -0.0124715 -5.14298 0
M  V30 2999 N 280.706 -0.572702 -6.11223 0
M  V30 3000 C 282.077 -0.769446 -6.15207 0
M  V30 3001 C 284.132 -0.0867545 -4.97824 0
M  V30 3002 C 282.835 -1.59376 -7.01421 0
M  V30 3003 C 284.861 -0.897955 -5.84543 0
M  V30 3004 C 284.223 -1.64306 -6.84969 0
M  V30 3005 H 280.322 0.268568 -0.734435 0
M  V30 3006 H 282.906 0.0614664 -1.94603 0
M  V30 3007 H 281.077 2.27748 -3.1462 0
M  V30 3008 H 282.809 2.21641 -3.38611 0
M  V30 3009 H 279.564 0.67295 -4.68795 0
M  V30 3010 H 279.988 -1.01454 -6.69355 0
M  V30 3011 H 284.63 0.474963 -4.20124 0
M  V30 3012 H 282.348 -2.16655 -7.78515 0
M  V30 3013 H 285.934 -0.958059 -5.73858 0
M  V30 3014 H 284.814 -2.26065 -7.50909 0
M  V30 3015 N 282.317 1.53212 0.369288 0
M  V30 3016 C 283.545 1.73119 1.13303 0
M  V30 3017 C 283.96 0.458455 1.83149 0
M  V30 3018 O 283.317 -0.568403 1.73423 0
M  V30 3019 C 283.368 2.89413 2.16616 0
M  V30 3020 O 283.089 4.11761 1.49614 0
M  V30 3021 C 284.59 3.21161 3.05566 0
M  V30 3022 H 281.81 0.579107 0.338934 0
M  V30 3023 H 284.354 1.99942 0.429338 0
M  V30 3024 H 282.509 2.64994 2.82589 0
M  V30 3025 H 282.923 4.76858 2.18419 0
M  V30 3026 H 284.397 4.05949 3.74045 0
M  V30 3027 H 284.874 2.36369 3.70171 0
M  V30 3028 H 285.48 3.47492 2.45213 0
M  V30 3029 N 283.795 -0.628877 1.44509 0
M  V30 3030 C 285.025 -1.41349 1.50678 0
M  V30 3031 C 285.433 -1.88745 0.131075 0
M  V30 3032 O 284.776 -1.61592 -0.87371 0
M  V30 3033 C 284.838 -2.66608 2.41165 0
M  V30 3034 C 284.502 -2.40993 3.88293 0
M  V30 3035 C 285.499 -2.0268 4.78766 0
M  V30 3036 C 283.184 -2.54563 4.33016 0
M  V30 3037 C 285.178 -1.78269 6.11963 0
M  V30 3038 C 282.865 -2.29766 5.6626 0
M  V30 3039 C 283.863 -1.91678 6.55552 0
M  V30 3040 O 283.551 -1.67158 7.86329 0
M  V30 3041 H 283.283 -0.439851 0.51333 0
M  V30 3042 H 285.837 -0.776084 1.90174 0
M  V30 3043 H 284.067 -3.32994 1.96601 0
M  V30 3044 H 285.756 -3.28615 2.38259 0
M  V30 3045 H 286.522 -1.91751 4.45485 0
M  V30 3046 H 282.401 -2.83179 3.63773 0
M  V30 3047 H 285.945 -1.48465 6.81619 0
M  V30 3048 H 281.842 -2.40306 5.99102 0
M  V30 3049 H 282.61 -1.81386 7.98149 0
M  V30 3050 N 285.273 -1.31445 -0.869486 0
M  V30 3051 C 286.55 -1.11795 -1.60503 0
M  V30 3052 C 286.93 0.327168 -2.08549 0
M  V30 3053 O 286.278 1.32135 -1.8642 0
M  V30 3054 C 286.488 -2.13258 -2.76265 0
M  V30 3055 C 287.836 -2.45805 -3.46215 0
M  V30 3056 O 288.86 -2.11688 -2.86473 0
M  V30 3057 O 287.719 -3.04228 -4.5399 0
M  V30 3058 H 284.813 -0.430421 -0.706163 0
M  V30 3059 H 287.359 -1.42925 -0.914907 0
M  V30 3060 H 286.131 -3.10461 -2.3818 0
M  V30 3061 H 285.754 -1.83035 -3.52964 0
M  V30 3062 N 286.751 1.08385 -1.14413 0
M  V30 3063 C 287.999 1.80419 -0.910679 0
M  V30 3064 C 288.32 1.86658 0.564243 0
M  V30 3065 O 287.59 1.35985 1.41014 0
M  V30 3066 H 286.17 0.668204 -0.333934 0
M  V30 3067 H 288.832 1.31037 -1.44275 0
M  V30 3068 H 287.928 2.83238 -1.31082 0
M  V30 3069 N 288.23 0.939286 1.26551 0
M  V30 3070 C 289.455 0.602008 1.98471 0
M  V30 3071 C 289.88 -0.815624 1.69497 0
M  V30 3072 O 289.238 -1.54912 0.941905 0
M  V30 3073 C 289.286 0.848407 3.50477 0
M  V30 3074 O 288.39 -0.0804009 4.12322 0
M  V30 3075 H 287.731 0.23049 0.622712 0
M  V30 3076 H 290.261 1.2617 1.61066 0
M  V30 3077 H 290.271 0.768553 4.00696 0
M  V30 3078 H 288.946 1.88171 3.70897 0
M  V30 3079 H 287.523 0.0503508 3.72866 0
M  V30 3080 N 289.708 -1.40897 0.706093 0
M  V30 3081 C 290.64 -2.29199 0.00815776 0
M  V30 3082 C 291.653 -1.45336 -0.733582 0
M  V30 3083 O 292.842 -1.68727 -0.582537 0
M  V30 3084 C 289.942 -3.23417 -1.01265 0
M  V30 3085 C 289.115 -4.36089 -0.338387 0
M  V30 3086 C 288.174 -5.10811 -1.26326 0
M  V30 3087 O 287.2 -5.64215 -0.751651 0
M  V30 3088 N 288.402 -5.19269 -2.595 0
M  V30 3089 H 291.167 -2.89738 0.766297 0
M  V30 3090 H 288.728 -1.52164 0.55296 0
M  V30 3091 H 290.72 -3.70276 -1.63334 0
M  V30 3092 H 289.29 -2.64112 -1.67223 0
M  V30 3093 H 288.51 -3.91479 0.462352 0
M  V30 3094 H 289.798 -5.08634 0.130031 0
M  V30 3095 H 289.196 -4.77347 -3.03573 0
M  V30 3096 H 287.753 -5.69667 -3.16737 0
M  V30 3097 N 291.186 -0.45159 -1.50991 0
M  V30 3098 C 292.432 0.110237 -2.025 0
M  V30 3099 C 292.765 1.41109 -1.33424 0
M  V30 3100 O 292.04 1.89135 -0.453659 0
M  V30 3101 C 292.323 0.314271 -3.58726 0
M  V30 3102 C 292.176 -1.00623 -4.38401 0
M  V30 3103 C 293.495 1.07767 -4.26702 0
M  V30 3104 H 290.614 0.0385897 -0.735989 0
M  V30 3105 H 293.256 -0.593374 -1.80497 0
M  V30 3106 H 291.406 0.913601 -3.77605 0
M  V30 3107 H 293.078 -1.64064 -4.31139 0
M  V30 3108 H 291.321 -1.6075 -4.02917 0
M  V30 3109 H 291.992 -0.817341 -5.45915 0
M  V30 3110 H 294.468 0.56986 -4.12179 0
M  V30 3111 H 293.344 1.18921 -5.35863 0
M  V30 3112 H 293.605 2.10939 -3.88532 0
M  V30 3113 N 292.664 1.56529 -0.183458 0
M  V30 3114 C 293.941 1.88959 0.50536 0
M  V30 3115 C 294.321 1.09523 1.80466 0
M  V30 3116 O 293.669 0.19278 2.27685 0
M  V30 3117 C 293.879 3.41162 0.73547 0
M  V30 3118 C 295.227 4.11155 1.06005 0
M  V30 3119 O 296.251 3.46548 0.823594 0
M  V30 3120 O 295.11 5.25318 1.50675 0
M  V30 3121 H 292.204 0.78441 0.261973 0
M  V30 3122 H 294.75 1.68231 -0.222802 0
M  V30 3123 H 293.522 3.90874 -0.182561 0
M  V30 3124 H 293.145 3.67543 1.51651 0
M  V30 3125 N 294.142 -0.090211 1.57342 0
M  V30 3126 C 295.391 -0.791531 1.8552 0
M  V30 3127 C 295.704 -1.79659 0.773441 0
M  V30 3128 O 296.91 -2.54616 0.942497 0
M  V30 3129 C 295.366 -1.45856 3.2902 0
M  V30 3130 C 294.974 -0.493017 4.45279 0
M  V30 3131 C 296.718 -2.14332 3.66418 0
M  V30 3132 C 294.625 -1.16491 5.79814 0
M  V30 3133 H 293.555 -0.299356 0.692027 0
M  V30 3134 H 296.206 -0.0445343 1.83446 0
M  V30 3135 H 294.588 -2.25318 3.2565 0
M  V30 3136 H 295.762 0.270464 4.60006 0
M  V30 3137 H 294.077 0.0863061 4.16311 0
M  V30 3138 H 296.674 -2.65344 4.64216 0
M  V30 3139 H 297.017 -2.93447 2.95287 0
M  V30 3140 H 297.55 -1.41724 3.71698 0
M  V30 3141 H 294.289 -0.41447 6.54188 0
M  V30 3142 H 293.809 -1.8997 5.68921 0
M  V30 3143 H 295.488 -1.69001 6.24538 0
M  V30 3144 N 295.62 -1.53406 -0.361157 0
M  V30 3145 C 296.869 -1.69022 -1.10066 0
M  V30 3146 C 297.182 -0.450838 -1.90333 0
M  V30 3147 O 298.388 -0.487617 -2.67085 0
M  V30 3148 C 296.844 -2.98812 -2.00598 0
M  V30 3149 C 296.452 -4.30027 -1.25621 0
M  V30 3150 C 298.196 -3.23795 -2.74513 0
M  V30 3151 C 296.103 -5.50903 -2.1508 0
M  V30 3152 H 295.033 -0.629776 -0.414606 0
M  V30 3153 H 297.684 -1.79907 -0.361348 0
M  V30 3154 H 296.066 -2.8174 -2.78278 0
M  V30 3155 H 297.24 -4.57745 -0.529739 0
M  V30 3156 H 295.555 -4.11522 -0.635496 0
M  V30 3157 H 298.152 -4.11289 -3.41681 0
M  V30 3158 H 298.495 -2.40045 -3.40123 0
M  V30 3159 H 299.028 -3.41561 -2.03914 0
M  V30 3160 H 295.767 -6.37143 -1.54041 0
M  V30 3161 H 295.287 -5.27459 -2.85565 0
M  V30 3162 H 296.966 -5.85865 -2.74538 0
M  V30 3163 N 297.098 0.621204 -1.44841 0
M  V30 3164 C 298.028 1.74366 -1.55303 0
M  V30 3165 C 299.009 1.65199 -0.405385 0
M  V30 3166 O 300.194 1.83807 -0.626787 0
M  V30 3167 C 297.324 3.12931 -1.50637 0
M  V30 3168 C 296.278 3.36896 -2.63979 0
M  V30 3169 C 295.604 4.75594 -2.44366 0
M  V30 3170 C 296.904 3.28483 -4.06074 0
M  V30 3171 H 298.598 1.65867 -2.49256 0
M  V30 3172 H 296.144 0.796558 -1.19962 0
M  V30 3173 H 298.097 3.9124 -1.56555 0
M  V30 3174 H 296.821 3.22237 -0.532057 0
M  V30 3175 H 295.48 2.60972 -2.57467 0
M  V30 3176 H 295.128 4.81616 -1.45105 0
M  V30 3177 H 294.828 4.92586 -3.20364 0
M  V30 3178 H 296.352 5.5612 -2.52117 0
M  V30 3179 H 297.766 3.96684 -4.13902 0
M  V30 3180 H 296.163 3.57008 -4.82354 0
M  V30 3181 H 297.233 2.26133 -4.28943 0
M  V30 3182 N 298.576 1.31904 0.862503 0
M  V30 3183 C 299.486 1.22161 2.00285 0
M  V30 3184 C 300.502 0.136785 1.73462 0
M  V30 3185 O 301.678 0.355994 1.98229 0
M  V30 3186 C 298.743 0.937093 3.33796 0
M  V30 3187 C 297.804 2.10957 3.73893 0
M  V30 3188 C 297.037 1.83853 5.01033 0
M  V30 3189 O 297.26 0.777274 5.65079 0
M  V30 3190 O 296.194 2.69741 5.38074 0
M  V30 3191 H 300.02 2.18008 2.11439 0
M  V30 3192 H 297.605 1.11716 0.991957 0
M  V30 3193 H 299.487 0.794583 4.13841 0
M  V30 3194 H 298.162 0.00871894 3.23699 0
M  V30 3195 H 297.069 2.30752 2.94456 0
M  V30 3196 H 298.402 3.02046 3.88625 0
M  V30 3197 N 300.054 -1.07777 1.14986 0
M  V30 3198 C 301.331 -1.7699 0.832695 0
M  V30 3199 C 301.711 -2.001 -0.672561 0
M  V30 3200 O 301.059 -1.61598 -1.6155 0
M  V30 3201 C 301.269 -3.08139 1.63863 0
M  V30 3202 C 302.617 -3.8256 1.84208 0
M  V30 3203 O 303.641 -3.17939 1.60603 0
M  V30 3204 O 302.5 -4.98612 2.23714 0
M  V30 3205 H 299.594 -0.768389 0.305791 0
M  V30 3206 H 302.14 -1.14182 1.25541 0
M  V30 3207 H 300.912 -2.86909 2.6608 0
M  V30 3208 H 300.535 -3.78678 1.21197 0
M  V30 3209 N 301.532 -0.945985 -1.26051 0
M  V30 3210 C 302.464 -0.416662 -2.25381 0
M  V30 3211 C 303.477 0.462712 -1.56086 0
M  V30 3212 O 304.666 0.272383 -1.7641 0
M  V30 3213 C 301.766 0.419812 -3.3629 0
M  V30 3214 C 300.939 -0.444531 -4.35135 0
M  V30 3215 C 299.998 0.332305 -5.2515 0
M  V30 3216 O 299.024 -0.266324 -5.68577 0
M  V30 3217 N 300.226 1.62763 -5.57215 0
M  V30 3218 H 302.991 -1.27059 -2.71433 0
M  V30 3219 H 300.552 -0.815392 -1.39868 0
M  V30 3220 H 302.544 0.947013 -3.93464 0
M  V30 3221 H 301.114 1.17456 -2.89694 0
M  V30 3222 H 300.334 -1.15291 -3.76964 0
M  V30 3223 H 301.622 -1.03478 -4.98166 0
M  V30 3224 H 301.02 2.13603 -5.23823 0
M  V30 3225 H 299.577 2.10097 -6.17011 0
M  V30 3226 N 303.011 1.40521 -0.713556 0
M  V30 3227 C 304.288 1.94775 -0.17943 0
M  V30 3228 C 304.668 1.65184 1.31444 0
M  V30 3229 O 304.016 0.968429 2.06963 0
M  V30 3230 C 304.226 3.45543 -0.489986 0
M  V30 3231 C 305.574 4.22442 -0.427536 0
M  V30 3232 O 306.598 3.53644 -0.425929 0
M  V30 3233 O 305.457 5.4501 -0.403292 0
M  V30 3234 H 302.551 0.826606 -0.0255192 0
M  V30 3235 H 305.097 1.5014 -0.790949 0
M  V30 3236 H 303.869 3.60432 -1.5233 0
M  V30 3237 H 303.492 3.97311 0.151598 0
M  V30 3238 N 304.489 0.459591 1.5075 0
M  V30 3239 C 305.735 -0.0994966 2.02556 0
M  V30 3240 C 306.068 -1.40399 1.3417 0
M  V30 3241 O 305.343 -1.88892 0.463683 0
M  V30 3242 C 305.626 -0.295242 3.58888 0
M  V30 3243 C 305.479 1.02947 4.37861 0
M  V30 3244 C 306.798 -1.05502 4.27267 0
M  V30 3245 H 303.917 -0.034686 0.736183 0
M  V30 3246 H 306.559 0.602938 1.8018 0
M  V30 3247 H 304.709 -0.893563 3.78084 0
M  V30 3248 H 306.381 1.66348 4.30263 0
M  V30 3249 H 304.624 1.62885 4.02058 0
M  V30 3250 H 305.295 0.846281 5.45474 0
M  V30 3251 H 307.771 -0.547993 4.12476 0
M  V30 3252 H 306.647 -1.16077 5.36486 0
M  V30 3253 H 306.908 -2.08875 3.89645 0
M  V30 3254 N 305.967 -1.56429 0.191757 0
M  V30 3255 C 307.244 -1.89224 -0.495332 0
M  V30 3256 C 307.624 -1.10478 -1.79883 0
M  V30 3257 O 306.972 -0.204852 -2.2758 0
M  V30 3258 C 307.182 -3.41548 -0.717367 0
M  V30 3259 C 308.53 -4.11711 -1.03823 0
M  V30 3260 O 309.554 -3.4698 -0.805204 0
M  V30 3261 O 308.413 -5.2611 -1.47887 0
M  V30 3262 H 305.507 -0.785788 -0.25781 0
M  V30 3263 H 308.053 -1.68111 0.231721 0
M  V30 3264 H 306.825 -3.90772 0.203287 0
M  V30 3265 H 306.448 -3.68342 -1.497 0
M  V30 3266 N 307.445 0.0818655 -1.57387 0
M  V30 3267 C 308.392 1.09834 -2.0299 0
M  V30 3268 C 309.362 1.39043 -0.908639 0
M  V30 3269 O 310.547 1.50282 -1.17559 0
M  V30 3270 C 307.687 2.40971 -2.47037 0
M  V30 3271 C 306.8 2.18379 -3.7274 0
M  V30 3272 C 305.935 3.43008 -4.0561 0
M  V30 3273 C 304.974 3.15736 -5.24383 0
M  V30 3274 N 304.111 4.32667 -5.52941 0
M  V30 3275 H 308.951 0.702472 -2.89602 0
M  V30 3276 H 306.488 0.33531 -1.43227 0
M  V30 3277 H 308.446 3.1752 -2.70623 0
M  V30 3278 H 307.076 2.78379 -1.63417 0
M  V30 3279 H 306.128 1.32569 -3.56552 0
M  V30 3280 H 307.44 1.94227 -4.59431 0
M  V30 3281 H 306.594 4.27958 -4.30043 0
M  V30 3282 H 305.333 3.70225 -3.17466 0
M  V30 3283 H 304.338 2.2918 -4.99757 0
M  V30 3284 H 305.563 2.8985 -6.14136 0
M  V30 3285 H 303.509 4.59935 -4.67756 0
M  V30 3286 H 303.426 4.11753 -6.34031 0
M  V30 3287 H 304.694 5.18644 -5.81918 0
M  V30 3288 N 308.923 1.53595 0.353017 0
M  V30 3289 C 310.339 1.43648 0.695516 0
M  V30 3290 C 310.539 0.585617 1.92802 0
M  V30 3291 O 309.595 0.0729223 2.52395 0
M  V30 3292 C 310.908 2.8701 0.896991 0
M  V30 3293 C 312.456 2.96723 0.996209 0
M  V30 3294 C 312.931 4.41173 1.23007 0
M  V30 3295 N 314.422 4.44657 1.29749 0
M  V30 3296 C 315.157 5.53547 1.49577 0
M  V30 3297 N 314.653 6.72461 1.66639 0
M  V30 3298 N 316.446 5.41145 1.52048 0
M  V30 3299 H 308.597 2.07415 -0.457481 0
M  V30 3300 H 310.86 0.9372 -0.142687 0
M  V30 3301 H 310.566 3.51644 0.0629938 0
M  V30 3302 H 310.44 3.31401 1.80148 0
M  V30 3303 H 312.827 2.32235 1.82074 0
M  V30 3304 H 312.908 2.55707 0.0688331 0
M  V30 3305 H 312.552 5.06238 0.410505 0
M  V30 3306 H 312.482 4.79772 2.17086 0
M  V30 3307 H 314.973 3.58963 1.18126 0
M  V30 3308 H 315.286 7.51214 1.81378 0
M  V30 3309 H 313.631 6.75423 1.63794 0
M  V30 3310 H 316.822 4.47205 1.38294 0
M  V30 3311 H 316.995 6.26068 1.67159 0
M  V30 3312 N 310.401 -0.613514 1.45168 0
M  V30 3313 C 311.678 -1.37263 1.39349 0
M  V30 3314 C 312.058 -2.11012 0.0610848 0
M  V30 3315 O 311.406 -2.07502 -0.956825 0
M  V30 3316 C 311.616 -2.3244 2.60332 0
M  V30 3317 C 312.964 -2.9523 3.05163 0
M  V30 3318 O 313.988 -2.42762 2.60663 0
M  V30 3319 O 312.847 -3.90454 3.82372 0
M  V30 3320 H 309.941 -0.615188 0.552696 0
M  V30 3321 H 312.487 -0.637097 1.57287 0
M  V30 3322 H 311.259 -1.77164 3.48896 0
M  V30 3323 H 310.882 -3.13383 2.44698 0
M  V30 3324 N 311.879 -1.3236 -0.855495 0
M  V30 3325 C 313.126 -1.22872 -1.60962 0
M  V30 3326 C 313.454 0.209658 -1.93367 0
M  V30 3327 O 312.709 1.16243 -1.57436 0
M  V30 3328 C 313.008 -2.03275 -2.93963 0
M  V30 3329 C 312.674 -3.5264 -2.80991 0
M  V30 3330 C 311.336 -3.93364 -2.7716 0
M  V30 3331 C 313.688 -4.47626 -2.66983 0
M  V30 3332 C 311.016 -5.27319 -2.572 0
M  V30 3333 C 313.368 -5.81723 -2.48558 0
M  V30 3334 C 312.032 -6.2165 -2.4312 0
M  V30 3335 H 311.302 -0.44962 -0.589001 0
M  V30 3336 H 313.949 -1.63777 -0.992442 0
M  V30 3337 H 312.254 -1.55095 -3.59795 0
M  V30 3338 H 313.951 -1.93303 -3.51333 0
M  V30 3339 H 310.541 -3.20295 -2.84797 0
M  V30 3340 H 314.725 -4.17084 -2.68988 0
M  V30 3341 H 309.981 -5.57311 -2.51424 0
M  V30 3342 H 314.155 -6.5494 -2.36699 0
M  V30 3343 H 311.782 -7.25388 -2.27412 0
M  V30 3344 N 313.357 1.07166 -1.15556 0
M  V30 3345 C 314.604 1.79798 -0.931604 0
M  V30 3346 C 314.932 1.8682 0.54115 0
M  V30 3347 O 314.187 1.34942 1.41736 0
M  V30 3348 C 314.486 3.24707 -1.49332 0
M  V30 3349 C 314.152 3.37781 -2.98688 0
M  V30 3350 C 312.814 3.41057 -3.39461 0
M  V30 3351 C 315.166 3.40424 -3.94665 0
M  V30 3352 C 312.494 3.4458 -4.74849 0
M  V30 3353 C 314.846 3.45485 -5.29927 0
M  V30 3354 C 313.51 3.47039 -5.70193 0
M  V30 3355 H 312.78 0.657928 -0.340898 0
M  V30 3356 H 315.427 1.26091 -1.44129 0
M  V30 3357 H 313.732 3.81208 -0.904859 0
M  V30 3358 H 315.429 3.79486 -1.29582 0
M  V30 3359 H 312.019 3.35932 -2.66172 0
M  V30 3360 H 316.203 3.37113 -3.64237 0
M  V30 3361 H 311.459 3.44083 -5.05388 0
M  V30 3362 H 315.633 3.46476 -6.04092 0
M  V30 3363 H 313.26 3.49522 -6.75084 0
M  V30 3364 N 314.835 0.952656 1.25548 0
M  V30 3365 C 316.112 0.523818 1.88456 0
M  V30 3366 C 316.492 -0.998871 1.85973 0
M  V30 3367 O 315.84 -1.86381 1.3219 0
M  V30 3368 C 316.05 1.0982 3.31271 0
M  V30 3369 C 317.398 1.17385 4.08051 0
M  V30 3370 O 318.422 1.04961 3.40384 0
M  V30 3371 O 317.281 1.36852 5.29088 0
M  V30 3372 H 314.375 0.172485 0.808813 0
M  V30 3373 H 316.921 1.04596 1.33633 0
M  V30 3374 H 315.693 2.1415 3.27499 0
M  V30 3375 H 315.316 0.559191 3.93648 0
M  V30 3376 N 316.313 -1.40141 0.720998 0
M  V30 3377 C 317.261 -2.3252 0.0608547 0
M  V30 3378 C 318.255 -1.52326 -0.741152 0
M  V30 3379 O 319.461 -1.68089 -0.643911 0
M  V30 3380 H 315.836 -0.751999 0.000876664 0
M  V30 3381 H 317.807 -2.8584 0.856614 0
M  V30 3382 C 316.556 -3.37331 -0.842809 0
M  V30 3383 H 315.879 -3.99108 -0.235084 0
M  V30 3384 H 317.319 -4.04452 -1.27257 0
M  V30 3385 C 315.778 -2.73246 -1.97074 0
M  V30 3386 O 316.308 -2.59998 -3.06209 0
M  V30 3387 N 314.514 -2.31547 -1.75597 0
M  V30 3388 H 314.061 -2.42522 -0.868368 0
M  V30 3389 H 314.019 -1.89007 -2.51244 0
M  V30 3390 N 317.792 -0.46758 -1.50504 0
M  V30 3391 C 319.04 0.0884469 -2.01906 0
M  V30 3392 C 319.361 1.40532 -1.35188 0
M  V30 3393 O 318.631 1.89515 -0.496079 0
M  V30 3394 H 317.211 0.0356765 -0.746148 0
M  V30 3395 H 319.873 -0.6172 -1.84869 0
M  V30 3396 H 318.969 0.2425 -3.11156 0
M  V30 3397 N 319.27 1.56325 -0.20005 0
M  V30 3398 C 320.18 2.22931 0.730668 0
M  V30 3399 C 321.196 1.22997 1.23076 0
M  V30 3400 O 322.372 1.55748 1.27689 0
M  V30 3401 C 319.437 2.87948 1.93098 0
M  V30 3402 C 318.498 4.03166 1.47497 0
M  V30 3403 C 317.731 4.65073 2.61807 0
M  V30 3404 O 317.954 4.25913 3.79413 0
M  V30 3405 O 316.888 5.54452 2.34237 0
M  V30 3406 H 320.714 3.03084 0.193391 0
M  V30 3407 H 318.299 1.49371 0.0294621 0
M  V30 3408 H 320.181 3.29063 2.6324 0
M  V30 3409 H 318.856 2.10771 2.45677 0
M  V30 3410 H 317.763 3.66664 0.742201 0
M  V30 3411 H 319.096 4.82022 0.995796 0
M  V30 3412 N 320.748 -0.0735177 1.57428 0
M  V30 3413 C 321.994 -0.768909 1.88307 0
M  V30 3414 C 322.349 -1.75273 0.793535 0
M  V30 3415 O 321.642 -1.90527 -0.202466 0
M  V30 3416 C 321.836 -1.51799 3.23561 0
M  V30 3417 C 321.665 -0.608217 4.45568 0
M  V30 3418 C 320.435 -0.245808 5.04702 0
M  V30 3419 C 322.633 0.0942904 5.14214 0
M  V30 3420 N 320.615 0.66987 6.10234 0
M  V30 3421 C 321.986 0.867222 6.13905 0
M  V30 3422 C 324.041 0.165943 4.97623 0
M  V30 3423 C 322.744 1.70515 6.98797 0
M  V30 3424 C 324.77 0.990837 5.83041 0
M  V30 3425 C 324.132 1.75182 6.82269 0
M  V30 3426 H 320.231 -0.25685 0.738615 0
M  V30 3427 H 322.815 -0.030499 1.94676 0
M  V30 3428 H 320.986 -2.22713 3.18203 0
M  V30 3429 H 322.718 -2.16226 3.42094 0
M  V30 3430 H 319.473 -0.598284 4.69806 0
M  V30 3431 H 319.897 1.1209 6.67656 0
M  V30 3432 H 324.539 -0.408064 4.20826 0
M  V30 3433 H 322.257 2.29013 7.7497 0
M  V30 3434 H 325.843 1.04923 5.72261 0
M  V30 3435 H 324.723 2.37983 7.47217 0
M  V30 3436 N 322.226 -1.5378 -0.344866 0
M  V30 3437 C 323.136 -1.84667 -1.4469 0
M  V30 3438 C 324.152 -0.736704 -1.57635 0
M  V30 3439 O 325.328 -1.02888 -1.73136 0
M  V30 3440 C 322.393 -2.04869 -2.79696 0
M  V30 3441 C 321.454 -3.28731 -2.76106 0
M  V30 3442 C 320.687 -3.4796 -4.04673 0
M  V30 3443 O 320.91 -2.71052 -5.01883 0
M  V30 3444 O 319.844 -4.41383 -4.09224 0
M  V30 3445 H 323.67 -2.78334 -1.21506 0
M  V30 3446 H 321.255 -1.39418 -0.536921 0
M  V30 3447 H 323.137 -2.19609 -3.59652 0
M  V30 3448 H 321.812 -1.14391 -3.02814 0
M  V30 3449 H 320.719 -3.19396 -1.94774 0
M  V30 3450 H 322.052 -4.19198 -2.57941 0
M  V30 3451 N 323.704 0.605807 -1.45491 0
M  V30 3452 C 324.953 1.36086 -1.48874 0
M  V30 3453 C 325.266 1.95131 -0.135333 0
M  V30 3454 O 326.472 2.7146 -0.0468144 0
M  V30 3455 C 324.928 2.46518 -2.62215 0
M  V30 3456 C 324.536 1.93877 -4.03876 0
M  V30 3457 C 326.28 3.23512 -2.74846 0
M  V30 3458 C 324.187 3.01801 -5.08596 0
M  V30 3459 H 323.117 0.511497 -0.553974 0
M  V30 3460 H 325.768 0.649089 -1.71636 0
M  V30 3461 H 324.15 3.20388 -2.32739 0
M  V30 3462 H 325.324 1.26704 -4.43038 0
M  V30 3463 H 323.639 1.29622 -3.95711 0
M  V30 3464 H 326.236 4.04013 -3.50253 0
M  V30 3465 H 326.579 3.74631 -1.81542 0
M  V30 3466 H 327.112 2.56742 -3.03856 0
M  V30 3467 H 323.851 2.55597 -6.03614 0
M  V30 3468 H 323.371 3.67535 -4.74002 0
M  V30 3469 H 325.05 3.66152 -5.33424 0
M  V30 3470 N 325.182 1.32811 0.848464 0
M  V30 3471 C 326.428 1.23907 1.60546 0
M  V30 3472 C 326.761 -0.197161 1.93197 0
M  V30 3473 O 326.036 -1.13596 1.5788 0
M  V30 3474 C 326.319 2.10489 2.92175 0
M  V30 3475 C 326.172 3.62522 2.66266 0
M  V30 3476 C 327.491 1.97075 3.93509 0
M  V30 3477 H 324.61 0.451459 0.58254 0
M  V30 3478 H 327.252 1.62818 0.979296 0
M  V30 3479 H 325.402 1.77434 3.45614 0
M  V30 3480 H 327.074 4.05821 2.19334 0
M  V30 3481 H 325.317 3.84879 2.00126 0
M  V30 3482 H 325.988 4.18437 3.6002 0
M  V30 3483 H 328.464 2.26045 3.49346 0
M  V30 3484 H 327.34 2.59923 4.83457 0
M  V30 3485 H 327.601 0.940186 4.31987 0
M  V30 3486 N 326.66 -1.06551 1.16123 0
M  V30 3487 C 327.885 -1.83544 0.965735 0
M  V30 3488 C 328.31 -1.81843 -0.481102 0
M  V30 3489 O 327.668 -1.21732 -1.34354 0
M  V30 3490 C 327.716 -3.28169 1.49457 0
M  V30 3491 O 326.82 -4.0643 0.699157 0
M  V30 3492 H 326.161 -0.568026 0.343864 0
M  V30 3493 H 328.691 -1.34362 1.54299 0
M  V30 3494 H 328.701 -3.78992 1.51092 0
M  V30 3495 H 327.376 -3.28722 2.54784 0
M  V30 3496 H 325.953 -3.65216 0.7531 0
M  V30 3497 N 328.138 -0.959301 -1.25041 0
M  V30 3498 C 329.101 -0.487677 -2.23952 0
M  V30 3499 C 330.101 0.41119 -1.55454 0
M  V30 3500 O 331.291 0.207825 -1.72956 0
M  V30 3501 C 328.423 0.294807 -3.39623 0
M  V30 3502 H 329.616 -1.36198 -2.67189 0
M  V30 3503 H 327.169 -0.743042 -1.37508 0
M  V30 3504 H 327.904 1.18658 -3.01813 0
M  V30 3505 H 327.689 -0.35012 -3.90534 0
M  V30 3506 H 329.179 0.614089 -4.1306 0
M  V30 3507 N 329.616 1.39756 -0.72842 0
M  V30 3508 C 330.844 2.04948 -0.283528 0
M  V30 3509 C 331.259 1.54908 1.0793 0
M  V30 3510 O 330.616 0.711135 1.68075 0
M  V30 3511 C 330.667 3.60498 -0.268957 0
M  V30 3512 O 330.388 4.08695 -1.57798 0
M  V30 3513 C 331.889 4.4288 0.192912 0
M  V30 3514 H 329.109 0.659243 -0.125056 0
M  V30 3515 H 331.653 1.78927 -0.990226 0
M  V30 3516 H 329.808 3.85444 0.388801 0
M  V30 3517 H 330.222 5.02977 -1.48709 0
M  V30 3518 H 331.696 5.51791 0.151952 0
M  V30 3519 H 332.173 4.21418 1.23708 0
M  V30 3520 H 332.779 4.23069 -0.435039 0
M  V30 3521 N 331.094 0.475555 1.50254 0
M  V30 3522 C 332.342 -0.077738 2.0195 0
M  V30 3523 C 332.663 -1.39813 1.35931 0
M  V30 3524 O 331.933 -1.89249 0.506123 0
M  V30 3525 H 330.513 -0.031719 0.746326 0
M  V30 3526 H 333.175 0.626995 1.84539 0
M  V30 3527 H 332.271 -0.225995 3.11281 0
M  V30 3528 N 332.573 -1.56217 0.208337 0
M  V30 3529 C 333.798 -2.02782 -0.435222 0
M  V30 3530 C 334.223 -1.08738 -1.53485 0
M  V30 3531 O 333.581 -0.0731855 -1.81152 0
M  V30 3532 C 333.629 -3.47687 -0.956335 0
M  V30 3533 O 332.733 -3.56773 -2.06849 0
M  V30 3534 H 332.074 -0.656403 -0.100158 0
M  V30 3535 H 334.604 -2.02033 0.3231 0
M  V30 3536 H 334.614 -3.87745 -1.26955 0
M  V30 3537 H 333.289 -4.15624 -0.15143 0
M  V30 3538 H 331.866 -3.28597 -1.76292 0
M  V30 3539 N 334.051 0.0651679 -1.57465 0
M  V30 3540 C 334.998 1.07675 -2.04144 0
M  V30 3541 C 335.968 1.38071 -0.923335 0
M  V30 3542 O 337.153 1.49026 -1.19146 0
M  V30 3543 C 334.293 2.38337 -2.49579 0
M  V30 3544 C 333.406 2.14413 -3.75035 0
M  V30 3545 C 332.541 3.38686 -4.09225 0
M  V30 3546 C 331.58 3.10156 -5.27702 0
M  V30 3547 N 330.717 4.26778 -5.57499 0
M  V30 3548 H 335.557 0.671716 -2.90331 0
M  V30 3549 H 333.094 0.3201 -1.43575 0
M  V30 3550 H 335.052 3.14632 -2.73975 0
M  V30 3551 H 333.682 2.7663 -1.6636 0
M  V30 3552 H 332.734 1.2878 -3.57939 0
M  V30 3553 H 334.046 1.89344 -4.61466 0
M  V30 3554 H 333.2 4.23373 -4.34558 0
M  V30 3555 H 331.939 3.66837 -3.21374 0
M  V30 3556 H 330.944 2.23866 -5.02159 0
M  V30 3557 H 332.169 2.8332 -6.17176 0
M  V30 3558 H 330.115 4.54948 -4.72608 0
M  V30 3559 H 330.032 4.05005 -6.38362 0
M  V30 3560 H 331.3 5.12443 -5.87386 0
M  V30 3561 N 335.529 1.53961 0.336706 0
M  V30 3562 C 336.777 1.71197 1.07405 0
M  V30 3563 C 337.098 0.481475 1.88962 0
M  V30 3564 O 336.368 -0.504585 1.8929 0
M  V30 3565 H 334.948 0.631185 0.399517 0
M  V30 3566 H 337.61 1.91232 0.376323 0
M  V30 3567 H 336.706 2.58587 1.74755 0
M  V30 3568 N 337.007 -0.598083 1.45811 0
M  V30 3569 C 337.955 -1.72932 1.55555 0
M  V30 3570 C 338.949 -1.63984 0.424921 0
M  V30 3571 O 340.155 -1.69663 0.601205 0
M  V30 3572 H 336.53 -0.571489 0.488779 0
M  V30 3573 H 338.501 -1.61842 2.50699 0
M  V30 3574 C 337.25 -3.11318 1.54843 0
M  V30 3575 H 336.573 -3.18867 2.41172 0
M  V30 3576 H 338.013 -3.90274 1.65717 0
M  V30 3577 C 336.472 -3.3578 0.274427 0
M  V30 3578 O 337.002 -3.9654 -0.641778 0
M  V30 3579 N 335.208 -2.90119 0.167139 0
M  V30 3580 H 334.755 -2.40855 0.913596 0
M  V30 3581 H 334.713 -3.0686 -0.684435 0
M  V30 3582 N 338.485 -1.33259 -0.841409 0
M  V30 3583 C 339.901 -1.12538 -1.13169 0
M  V30 3584 C 340.101 0.0854037 -2.01319 0
M  V30 3585 O 339.157 0.766417 -2.40587 0
M  V30 3586 C 340.47 -2.41156 -1.79623 0
M  V30 3587 C 342.018 -2.47038 -1.922 0
M  V30 3588 C 342.493 -3.7561 -2.6207 0
M  V30 3589 N 343.984 -3.76667 -2.69585 0
M  V30 3590 C 344.719 -4.72861 -3.2433 0
M  V30 3591 N 344.215 -5.79428 -3.79783 0
M  V30 3592 N 346.008 -4.6034 -3.22558 0
M  V30 3593 H 338.159 -2.10868 -0.254676 0
M  V30 3594 H 340.422 -0.931615 -0.175493 0
M  V30 3595 H 340.128 -3.29747 -1.22311 0
M  V30 3596 H 340.002 -2.53114 -2.79666 0
M  V30 3597 H 342.389 -1.58898 -2.48667 0
M  V30 3598 H 342.47 -2.39022 -0.911148 0
M  V30 3599 H 342.114 -4.64131 -2.06263 0
M  V30 3600 H 342.044 -3.80902 -3.63622 0
M  V30 3601 H 344.535 -2.99648 -2.30259 0
M  V30 3602 H 344.848 -6.48867 -4.19752 0
M  V30 3603 H 343.193 -5.83166 -3.78078 0
M  V30 3604 H 346.384 -3.76244 -2.78492 0
M  V30 3605 H 346.557 -5.35478 -3.64921 0
M  V30 3606 N 339.963 1.05934 -1.16686 0
M  V30 3607 C 341.191 1.8249 -0.974929 0
M  V30 3608 C 341.606 1.82679 0.476861 0
M  V30 3609 O 340.963 1.2486 1.33103 0
M  V30 3610 C 341.014 3.28943 -1.49929 0
M  V30 3611 O 340.735 3.28886 -2.89423 0
M  V30 3612 C 342.236 4.22215 -1.35089 0
M  V30 3613 H 339.456 0.575295 -0.345365 0
M  V30 3614 H 342 1.33631 -1.548 0
M  V30 3615 H 340.155 3.751 -0.968423 0
M  V30 3616 H 340.569 4.20493 -3.13506 0
M  V30 3617 H 342.043 5.22987 -1.76603 0
M  V30 3618 H 342.52 4.38195 -0.296935 0
M  V30 3619 H 343.126 3.81907 -1.87155 0
M  V30 3620 N 341.441 0.965919 1.2453 0
M  V30 3621 C 342.718 0.543777 1.87889 0
M  V30 3622 C 343.098 -0.97909 1.87021 0
M  V30 3623 O 342.446 -1.84969 1.3416 0
M  V30 3624 C 342.656 1.13327 3.30088 0
M  V30 3625 C 344.004 1.21707 4.06783 0
M  V30 3626 O 345.028 1.08566 3.39252 0
M  V30 3627 O 343.887 1.42456 5.27606 0
M  V30 3628 H 340.981 0.181054 0.806938 0
M  V30 3629 H 343.527 1.06007 1.32516 0
M  V30 3630 H 342.299 2.17612 3.25209 0
M  V30 3631 H 341.922 0.600911 3.93033 0
M  V30 3632 N 342.919 -1.39368 0.735821 0
M  V30 3633 C 344.144 -2.05319 0.293052 0
M  V30 3634 C 344.569 -1.55115 -1.064 0
M  V30 3635 O 343.927 -0.695261 -1.67439 0
M  V30 3636 C 343.975 -3.59305 0.305323 0
M  V30 3637 O 343.079 -4.06299 -0.706761 0
M  V30 3638 H 342.42 -0.650529 0.13307 0
M  V30 3639 H 344.95 -1.78386 1.00197 0
M  V30 3640 H 344.96 -4.07724 0.149997 0
M  V30 3641 H 343.635 -3.95207 1.29553 0
M  V30 3642 H 342.212 -3.69292 -0.517504 0
M  V30 3643 N 344.397 -0.483516 -1.5 0
M  V30 3644 C 345.637 0.0657469 -2.04294 0
M  V30 3645 C 346.001 1.35869 -1.35659 0
M  V30 3646 O 347.202 1.99111 -1.80578 0
M  V30 3647 C 345.473 0.232758 -3.56641 0
M  V30 3648 S 347.032 0.738788 -4.32536 0
M  V30 3649 H 343.85 0.0100755 -0.710929 0
M  V30 3650 H 346.452 -0.653494 -1.84254 0
M  V30 3651 H 345.156 -0.713847 -4.04144 0
M  V30 3652 H 344.687 0.977751 -3.81056 0
M  V30 3653 H 346.702 2.01048 -4.53645 0
M  V30 3654 N 345.875 1.56104 -0.216619 0
M  V30 3655 C 347.115 2.00074 0.418322 0
M  V30 3656 C 347.479 1.10098 1.57297 0
M  V30 3657 O 348.68 1.43393 2.27359 0
M  V30 3658 C 346.951 3.47231 0.846477 0
M  V30 3659 S 348.51 4.13223 1.47622 0
M  V30 3660 H 345.328 0.698457 0.132962 0
M  V30 3661 H 347.93 1.92784 -0.324748 0
M  V30 3662 H 346.634 4.104 -0.0036319 0
M  V30 3663 H 346.165 3.58384 1.62248 0
M  V30 3664 H 348.18 4.12005 2.76526 0
M  V30 3665 N 347.353 -0.0568162 1.57498 0
M  V30 3666 C 348.599 -0.748893 1.89111 0
M  V30 3667 C 348.954 -1.74422 0.81208 0
M  V30 3668 O 348.247 -1.90731 -0.182247 0
M  V30 3669 C 348.441 -1.48359 3.25153 0
M  V30 3670 C 348.27 -0.560924 4.46188 0
M  V30 3671 C 347.04 -0.192264 5.04934 0
M  V30 3672 C 349.238 0.148824 5.14085 0
M  V30 3673 N 347.22 0.734555 6.0949 0
M  V30 3674 C 348.591 0.932286 6.12951 0
M  V30 3675 C 350.646 0.218713 4.97419 0
M  V30 3676 C 349.349 1.77917 6.96949 0
M  V30 3677 C 351.375 1.05262 5.81957 0
M  V30 3678 C 350.737 1.82409 6.80372 0
M  V30 3679 H 346.836 -0.249002 0.741298 0
M  V30 3680 H 349.42 -0.00984926 1.94698 0
M  V30 3681 H 347.591 -2.19326 3.20547 0
M  V30 3682 H 349.323 -2.12586 3.44368 0
M  V30 3683 H 346.078 -0.548421 4.70414 0
M  V30 3684 H 346.502 1.19165 6.6643 0
M  V30 3685 H 351.144 -0.363407 4.21235 0
M  V30 3686 H 348.862 2.3722 7.72497 0
M  V30 3687 H 352.448 1.10987 5.71116 0
M  V30 3688 H 351.328 2.45895 7.44651 0
M  V30 3689 N 348.832 -1.54138 -0.328536 0
M  V30 3690 C 350.062 -1.75807 -1.08516 0
M  V30 3691 C 350.47 -0.50428 -1.82356 0
M  V30 3692 O 349.813 0.534451 -1.75754 0
M  V30 3693 C 349.875 -2.89423 -2.13248 0
M  V30 3694 C 349.539 -4.28504 -1.5885 0
M  V30 3695 C 350.536 -5.09536 -1.03289 0
M  V30 3696 C 348.221 -4.75034 -1.63243 0
M  V30 3697 C 350.215 -6.35206 -0.52845 0
M  V30 3698 C 347.902 -6.00672 -1.12411 0
M  V30 3699 C 348.9 -6.80592 -0.573062 0
M  V30 3700 O 348.588 -8.03867 -0.0723692 0
M  V30 3701 H 348.32 -0.590633 -0.328829 0
M  V30 3702 H 350.874 -2.01819 -0.381868 0
M  V30 3703 H 349.104 -2.5897 -2.87178 0
M  V30 3704 H 350.793 -2.98921 -2.74592 0
M  V30 3705 H 351.559 -4.74745 -0.99206 0
M  V30 3706 H 347.438 -4.12875 -2.05074 0
M  V30 3707 H 350.982 -6.97532 -0.0976774 0
M  V30 3708 H 346.879 -6.34955 -1.162 0
M  V30 3709 H 347.647 -8.18283 -0.188258 0
M  V30 3710 N 350.31 0.590341 -1.46126 0
M  V30 3711 C 351.721 1.17243 -1.45296 0
M  V30 3712 C 352.072 1.95281 -0.189723 0
M  V30 3713 O 351.197 2.04502 0.707674 0
M  V30 3714 C 351.792 2.13284 -2.6324 0
M  V30 3715 C 350.351 2.66832 -2.65476 0
M  V30 3716 C 349.498 1.42557 -2.3785 0
M  V30 3717 H 352.449 0.378692 -1.54116 0
M  V30 3718 H 352.47 2.96619 -2.38323 0
M  V30 3719 H 351.982 1.56459 -3.55165 0
M  V30 3720 H 350.083 3.27548 -1.77603 0
M  V30 3721 H 350.196 3.10088 -3.65215 0
M  V30 3722 H 348.56 1.72107 -1.87753 0
M  V30 3723 H 349.343 0.875741 -3.31942 0
M  V30 3724 N 351.788 1.33704 0.83433 0
M  V30 3725 C 353.018 1.28281 1.6195 0
M  V30 3726 C 353.426 -0.147603 1.88623 0
M  V30 3727 O 352.769 -1.1016 1.47005 0
M  V30 3728 C 352.831 1.99386 2.99141 0
M  V30 3729 C 352.495 3.48681 2.95416 0
M  V30 3730 C 353.492 4.438 2.70809 0
M  V30 3731 C 351.177 3.90925 3.15409 0
M  V30 3732 C 353.171 5.79138 2.66229 0
M  V30 3733 C 350.858 5.26366 3.10454 0
M  V30 3734 C 351.856 6.20284 2.85895 0
M  V30 3735 O 351.544 7.53245 2.80852 0
M  V30 3736 H 351.276 0.44315 0.510484 0
M  V30 3737 H 353.83 1.76711 1.04702 0
M  V30 3738 H 352.06 1.45554 3.58261 0
M  V30 3739 H 353.749 1.87403 3.60049 0
M  V30 3740 H 354.515 4.12485 2.5511 0
M  V30 3741 H 350.394 3.18229 3.33543 0
M  V30 3742 H 353.938 6.52416 2.4698 0
M  V30 3743 H 349.835 5.57304 3.25703 0
M  V30 3744 H 350.603 7.62846 2.96661 0
M  V30 3745 N 353.266 -1.05314 1.17247 0
M  V30 3746 C 354.512 -1.78557 0.961513 0
M  V30 3747 C 354.845 -1.87419 -0.508697 0
M  V30 3748 O 354.12 -1.37307 -1.37757 0
M  V30 3749 C 354.403 -3.22514 1.60176 0
M  V30 3750 C 354.256 -3.21673 3.14399 0
M  V30 3751 C 355.575 -4.20318 1.30463 0
M  V30 3752 H 352.694 -0.6482 0.350723 0
M  V30 3753 H 355.336 -1.23102 1.44727 0
M  V30 3754 H 353.486 -3.69867 1.18871 0
M  V30 3755 H 355.158 -2.82405 3.64753 0
M  V30 3756 H 353.401 -2.60048 3.47214 0
M  V30 3757 H 354.072 -4.23271 3.54324 0
M  V30 3758 H 356.548 -3.81454 1.66229 0
M  V30 3759 H 355.424 -5.19289 1.77848 0
M  V30 3760 H 355.685 -4.41526 0.22521 0
M  V30 3761 N 354.744 -0.972509 -1.24016 0
M  V30 3762 C 355.972 -0.654803 -1.96265 0
M  V30 3763 C 356.387 0.776708 -1.72083 0
M  V30 3764 O 355.744 1.52171 -1.00748 0
M  V30 3765 C 355.795 -0.92592 -3.49441 0
M  V30 3766 O 355.516 -2.30116 -3.72798 0
M  V30 3767 C 357.017 -0.623068 -4.38899 0
M  V30 3768 H 354.237 -0.243907 -0.6251 0
M  V30 3769 H 356.781 -1.30175 -1.57717 0
M  V30 3770 H 354.936 -0.325108 -3.86033 0
M  V30 3771 H 355.35 -2.38483 -4.67147 0
M  V30 3772 H 356.824 -0.863189 -5.45209 0
M  V30 3773 H 357.301 0.442754 -4.36963 0
M  V30 3774 H 357.907 -1.204 -4.07902 0
M  V30 3775 N 356.222 1.38976 -0.743202 0
M  V30 3776 C 357.452 2.04339 -0.304807 0
M  V30 3777 C 357.86 1.56162 1.06819 0
M  V30 3778 O 357.203 0.725284 1.68776 0
M  V30 3779 C 357.265 3.58716 -0.237369 0
M  V30 3780 C 356.929 4.29905 -1.55018 0
M  V30 3781 C 357.926 4.55987 -2.49744 0
M  V30 3782 C 355.611 4.68294 -1.81675 0
M  V30 3783 C 357.605 5.19478 -3.69353 0
M  V30 3784 C 355.292 5.31512 -3.0156 0
M  V30 3785 C 356.29 5.57037 -3.9522 0
M  V30 3786 O 355.978 6.18941 -5.12998 0
M  V30 3787 H 355.71 0.663439 -0.12971 0
M  V30 3788 H 358.264 1.78852 -1.01001 0
M  V30 3789 H 356.494 3.83133 0.524003 0
M  V30 3790 H 358.183 4.05543 0.170121 0
M  V30 3791 H 358.949 4.26767 -2.30423 0
M  V30 3792 H 354.828 4.47779 -1.09615 0
M  V30 3793 H 358.372 5.39318 -4.42473 0
M  V30 3794 H 354.269 5.60153 -3.20778 0
M  V30 3795 H 355.037 6.37433 -5.13441 0
M  V30 3796 N 357.7 0.491464 1.49741 0
M  V30 3797 C 358.925 -0.0557177 2.07325 0
M  V30 3798 C 359.35 -1.30925 1.35056 0
M  V30 3799 O 358.708 -1.76733 0.404365 0
M  V30 3800 C 358.756 -0.302074 3.59333 0
M  V30 3801 O 357.86 -1.37868 3.88672 0
M  V30 3802 H 357.201 0.0219956 0.663636 0
M  V30 3803 H 359.731 0.688352 1.92673 0
M  V30 3804 H 359.741 -0.536464 4.04458 0
M  V30 3805 H 358.416 0.61383 4.11345 0
M  V30 3806 H 356.993 -1.12999 3.55367 0
M  V30 3807 N 359.178 -1.55987 0.224894 0
M  V30 3808 C 360.425 -1.9839 -0.4059 0
M  V30 3809 C 360.753 -1.11261 -1.59535 0
M  V30 3810 O 360.008 -0.158314 -1.95059 0
M  V30 3811 C 360.307 -3.46394 -0.880106 0
M  V30 3812 C 359.973 -4.5046 0.19918 0
M  V30 3813 C 358.635 -4.7864 0.495661 0
M  V30 3814 C 360.987 -5.12855 0.928939 0
M  V30 3815 C 358.315 -5.66497 1.52636 0
M  V30 3816 C 360.667 -6.01828 1.949 0
M  V30 3817 C 359.331 -6.28351 2.25236 0
M  V30 3818 H 358.601 -0.725961 -0.148529 0
M  V30 3819 H 361.248 -1.88668 0.328113 0
M  V30 3820 H 359.553 -3.53337 -1.69294 0
M  V30 3821 H 361.25 -3.76577 -1.37808 0
M  V30 3822 H 357.84 -4.28579 -0.0420526 0
M  V30 3823 H 362.024 -4.9115 0.713129 0
M  V30 3824 H 357.28 -5.8531 1.76698 0
M  V30 3825 H 361.454 -6.49225 2.51951 0
M  V30 3826 H 359.081 -6.96226 3.05244 0
M  V30 3827 N 360.656 0.0484629 -1.57525 0
M  V30 3828 C 361.902 0.744226 -1.88651 0
M  V30 3829 C 362.235 1.76029 -0.820212 0
M  V30 3830 O 361.51 1.93782 0.166985 0
M  V30 3831 C 361.793 1.43128 -3.30434 0
M  V30 3832 C 361.646 0.43005 -4.47739 0
M  V30 3833 C 362.965 2.37031 -3.70816 0
M  V30 3834 H 360.084 0.269089 -0.68612 0
M  V30 3835 H 362.726 0.00713532 -1.89999 0
M  V30 3836 H 360.876 2.05956 -3.29415 0
M  V30 3837 H 362.548 -0.194816 -4.60888 0
M  V30 3838 H 360.791 -0.252522 -4.33064 0
M  V30 3839 H 361.462 0.948874 -5.43783 0
M  V30 3840 H 363.938 1.84263 -3.73077 0
M  V30 3841 H 362.814 2.82094 -4.70865 0
M  V30 3842 H 363.075 3.22864 -3.02012 0
M  V30 3843 N 362.134 1.5431 0.320358 0
M  V30 3844 C 363.383 1.7188 1.05546 0
M  V30 3845 C 363.696 0.501143 1.89071 0
M  V30 3846 O 364.902 0.558258 2.65699 0
M  V30 3847 C 363.358 3.04025 1.92605 0
M  V30 3848 C 362.966 4.33207 1.14176 0
M  V30 3849 C 364.71 3.30959 2.65832 0
M  V30 3850 C 362.617 5.56412 2.00399 0
M  V30 3851 H 361.547 0.640547 0.397763 0
M  V30 3852 H 364.198 1.80802 0.313522 0
M  V30 3853 H 362.58 2.89019 2.7071 0
M  V30 3854 H 363.754 4.58989 0.40819 0
M  V30 3855 H 362.069 4.13062 0.526165 0
M  V30 3856 H 364.666 4.20203 3.30656 0
M  V30 3857 H 365.009 2.48979 3.33639 0
M  V30 3858 H 365.542 3.46847 1.94787 0
M  V30 3859 H 362.281 6.41004 1.37094 0
M  V30 3860 H 361.801 5.34844 2.7148 0
M  V30 3861 H 363.48 5.92938 2.58908 0
M  V30 3862 N 363.613 -0.582584 1.46437 0
M  V30 3863 C 364.56 -1.69164 1.5701 0
M  V30 3864 C 365.53 -1.60847 0.414403 0
M  V30 3865 O 366.715 -1.80058 0.631171 0
M  V30 3866 C 363.855 -3.075 1.56646 0
M  V30 3867 C 362.968 -3.2644 2.82951 0
M  V30 3868 C 362.103 -4.55026 2.7409 0
M  V30 3869 C 361.142 -4.6731 3.95333 0
M  V30 3870 N 360.279 -5.87221 3.84858 0
M  V30 3871 H 365.119 -1.59464 2.51744 0
M  V30 3872 H 362.656 -0.777186 1.24893 0
M  V30 3873 H 364.614 -3.8757 1.5442 0
M  V30 3874 H 363.244 -3.16096 0.654439 0
M  V30 3875 H 362.296 -2.39974 2.95155 0
M  V30 3876 H 363.608 -3.31385 3.72808 0
M  V30 3877 H 362.762 -5.43324 2.6997 0
M  V30 3878 H 361.501 -4.52519 1.81873 0
M  V30 3879 H 360.506 -3.77429 3.99784 0
M  V30 3880 H 361.731 -4.71595 4.88646 0
M  V30 3881 H 359.677 -5.85712 2.95427 0
M  V30 3882 H 359.594 -5.93435 4.6837 0
M  V30 3883 H 360.862 -6.7795 3.84713 0
M  V30 3884 N 365.091 -1.34144 -0.827227 0
M  V30 3885 C 366.507 -1.13732 -1.11969 0
M  V30 3886 C 366.707 0.0640463 -2.01398 0
M  V30 3887 O 365.763 0.740856 -2.41387 0
M  V30 3888 C 367.076 -2.43047 -1.77055 0
M  V30 3889 C 368.624 -2.49063 -1.89569 0
M  V30 3890 C 369.099 -3.78369 -2.58072 0
M  V30 3891 N 370.59 -3.79505 -2.65575 0
M  V30 3892 C 371.325 -4.76274 -3.19297 0
M  V30 3893 N 370.821 -5.83424 -3.73616 0
M  V30 3894 N 372.614 -4.63735 -3.17658 0
M  V30 3895 H 364.765 -2.11126 -0.232296 0
M  V30 3896 H 367.028 -0.933424 -0.165602 0
M  V30 3897 H 366.734 -3.31025 -1.18807 0
M  V30 3898 H 366.608 -2.56066 -2.76966 0
M  V30 3899 H 368.995 -1.61527 -2.46968 0
M  V30 3900 H 369.076 -2.39975 -0.885745 0
M  V30 3901 H 368.72 -4.66293 -2.01329 0
M  V30 3902 H 368.65 -3.84737 -3.59562 0
M  V30 3903 H 371.141 -3.02074 -2.27068 0
M  V30 3904 H 371.454 -6.53282 -4.12846 0
M  V30 3905 H 369.799 -5.87143 -3.71871 0
M  V30 3906 H 372.99 -3.79177 -2.74486 0
M  V30 3907 H 373.163 -5.39318 -3.59221 0
M  V30 3908 N 366.569 1.04691 -1.17803 0
M  V30 3909 C 367.499 2.14494 -0.92275 0
M  V30 3910 C 368.48 1.69546 0.137179 0
M  V30 3911 O 369.665 1.94195 -0.0141108 0
M  V30 3912 C 366.795 3.44491 -0.440803 0
M  V30 3913 C 365.749 4.03031 -1.4405 0
M  V30 3914 C 365.075 5.28432 -0.81631 0
M  V30 3915 C 366.375 4.39932 -2.81527 0
M  V30 3916 H 368.069 2.36107 -1.84103 0
M  V30 3917 H 365.615 1.1347 -0.886599 0
M  V30 3918 H 367.568 4.2066 -0.249602 0
M  V30 3919 H 366.292 3.22546 0.513025 0
M  V30 3920 H 364.951 3.28937 -1.61853 0
M  V30 3921 H 364.599 5.02792 0.144511 0
M  V30 3922 H 364.299 5.68559 -1.48371 0
M  V30 3923 H 365.823 6.07284 -0.635496 0
M  V30 3924 H 367.237 5.07113 -2.67412 0
M  V30 3925 H 365.634 4.9109 -3.44892 0
M  V30 3926 H 366.704 3.50045 -3.35554 0
M  V30 3927 N 368.047 0.979072 1.23499 0
M  V30 3928 C 369.458 0.684391 1.73704 0
M  V30 3929 C 369.809 -0.799448 1.79174 0
M  V30 3930 O 368.934 -1.62531 1.42873 0
M  V30 3931 C 369.529 1.23564 3.15464 0
M  V30 3932 C 368.088 0.99063 3.6313 0
M  V30 3933 C 367.235 1.36416 2.41425 0
M  V30 3934 H 370.186 1.15307 1.09041 0
M  V30 3935 H 370.207 0.607417 3.7562 0
M  V30 3936 H 369.719 2.31561 3.1145 0
M  V30 3937 H 367.82 -0.0733136 3.72528 0
M  V30 3938 H 367.933 1.64427 4.5 0
M  V30 3939 H 366.297 0.782616 2.42378 0
M  V30 3940 H 367.08 2.45387 2.40083 0
M  V30 3941 N 369.525 -1.3858 0.750561 0
M  V30 3942 C 370.455 -2.33102 0.136237 0
M  V30 3943 C 371.436 -1.54713 -0.706965 0
M  V30 3944 O 372.621 -1.83043 -0.648769 0
M  V30 3945 C 369.751 -3.38882 -0.760017 0
M  V30 3946 C 368.705 -4.27995 -0.0197785 0
M  V30 3947 C 368.031 -5.24605 -1.03408 0
M  V30 3948 C 369.331 -5.09554 1.14684 0
M  V30 3949 H 371.025 -2.84726 0.925822 0
M  V30 3950 H 368.571 -1.36898 0.446654 0
M  V30 3951 H 370.524 -4.0397 -1.19943 0
M  V30 3952 H 369.248 -2.85734 -1.58189 0
M  V30 3953 H 367.907 -3.64409 0.400184 0
M  V30 3954 H 367.555 -4.67746 -1.84994 0
M  V30 3955 H 367.255 -5.85081 -0.543464 0
M  V30 3956 H 368.779 -5.9257 -1.47288 0
M  V30 3957 H 370.193 -5.67899 0.785118 0
M  V30 3958 H 368.59 -5.7925 1.56812 0
M  V30 3959 H 369.66 -4.4347 1.96118 0
M  V30 3960 N 371.003 -0.499398 -1.49478 0
M  V30 3961 C 372.25 0.0456899 -2.02448 0
M  V30 3962 C 372.578 1.37142 -1.37921 0
M  V30 3963 O 371.833 1.89111 -0.503544 0
M  V30 3964 C 372.132 0.248424 -3.56536 0
M  V30 3965 C 371.798 -0.999107 -4.39692 0
M  V30 3966 C 370.46 -1.34108 -4.62135 0
M  V30 3967 C 372.812 -1.82842 -4.88076 0
M  V30 3968 C 370.14 -2.51191 -5.30208 0
M  V30 3969 C 372.492 -2.99076 -5.57437 0
M  V30 3970 C 371.156 -3.33655 -5.78127 0
M  V30 3971 H 370.426 0.0167191 -0.740811 0
M  V30 3972 H 373.073 -0.65923 -1.79795 0
M  V30 3973 H 371.378 1.03586 -3.77859 0
M  V30 3974 H 373.075 0.684605 -3.95113 0
M  V30 3975 H 369.665 -0.722729 -4.22463 0
M  V30 3976 H 373.849 -1.57737 -4.70566 0
M  V30 3977 H 369.105 -2.78221 -5.44429 0
M  V30 3978 H 373.279 -3.63664 -5.93904 0
M  V30 3979 H 370.906 -4.24483 -6.30649 0
M  V30 3980 N 372.481 1.55866 -0.233164 0
M  V30 3981 C 373.711 2.02704 0.399325 0
M  V30 3982 C 374.119 1.11204 1.53069 0
M  V30 3983 O 373.462 0.116182 1.83332 0
M  V30 3984 C 373.524 3.45844 0.981429 0
M  V30 3985 C 373.188 4.56997 -0.0159561 0
M  V30 3986 C 374.185 5.13384 -0.820552 0
M  V30 3987 C 371.87 5.0211 -0.138072 0
M  V30 3988 C 373.864 6.13365 -1.73386 0
M  V30 3989 C 371.551 6.01926 -1.0549 0
M  V30 3990 C 372.549 6.57431 -1.85132 0
M  V30 3991 O 372.237 7.55302 -2.75272 0
M  V30 3992 H 371.969 0.668459 0.100692 0
M  V30 3993 H 374.523 2.02387 -0.35052 0
M  V30 3994 H 372.753 3.43267 1.78058 0
M  V30 3995 H 374.442 3.76262 1.52255 0
M  V30 3996 H 375.208 4.79372 -0.736721 0
M  V30 3997 H 371.087 4.5858 0.471737 0
M  V30 3998 H 374.631 6.56614 -2.35592 0
M  V30 3999 H 370.528 6.35359 -1.1397 0
M  V30 4000 H 371.296 7.72867 -2.69477 0
M  V30 4001 N 373.959 -0.0401083 1.57549 0
M  V30 4002 C 375.187 -0.745196 1.93014 0
M  V30 4003 C 375.602 -1.6948 0.831984 0
M  V30 4004 O 374.959 -1.81482 -0.192463 0
M  V30 4005 C 375.01 -1.51176 3.28372 0
M  V30 4006 O 374.731 -0.600284 4.33968 0
M  V30 4007 C 376.232 -2.315 3.78051 0
M  V30 4008 H 373.452 -0.210088 0.637263 0
M  V30 4009 H 375.996 -0.000924689 2.045 0
M  V30 4010 H 374.151 -2.20801 3.18317 0
M  V30 4011 H 374.565 -1.13669 5.12035 0
M  V30 4012 H 376.039 -2.80697 4.75303 0
M  V30 4013 H 376.516 -3.12436 3.08675 0
M  V30 4014 H 377.122 -1.66971 3.91153 0
M  V30 4015 N 375.437 -1.54477 -0.31217 0
M  V30 4016 C 376.367 -1.87652 -1.38957 0
M  V30 4017 C 377.348 -0.734358 -1.53431 0
M  V30 4018 O 378.533 -0.98911 -1.67123 0
M  V30 4019 C 375.663 -2.11396 -2.75552 0
M  V30 4020 C 374.617 -3.27243 -2.75855 0
M  V30 4021 C 373.943 -3.36382 -4.15633 0
M  V30 4022 C 375.243 -4.64622 -2.38587 0
M  V30 4023 H 376.937 -2.77887 -1.11442 0
M  V30 4024 H 374.483 -1.33707 -0.534655 0
M  V30 4025 H 376.436 -2.33189 -3.51 0
M  V30 4026 H 375.16 -1.17921 -3.04569 0
M  V30 4027 H 373.819 -3.05356 -2.02863 0
M  V30 4028 H 373.467 -2.40445 -4.41809 0
M  V30 4029 H 373.167 -4.14249 -4.1674 0
M  V30 4030 H 374.691 -3.60422 -4.92877 0
M  V30 4031 H 376.105 -4.86219 -3.03749 0
M  V30 4032 H 374.502 -5.45121 -2.50925 0
M  V30 4033 H 375.572 -4.66097 -1.33723 0
M  V30 4034 N 376.915 0.57481 -1.46744 0
M  V30 4035 C 378.162 1.33272 -1.52462 0
M  V30 4036 C 378.49 1.93669 -0.179572 0
M  V30 4037 O 377.745 1.7743 0.825664 0
M  V30 4038 C 378.044 2.476 -2.57738 0
M  V30 4039 C 377.71 2.05146 -4.01529 0
M  V30 4040 C 376.372 1.93284 -4.40676 0
M  V30 4041 C 378.724 1.72506 -4.91824 0
M  V30 4042 C 376.052 1.47049 -5.67973 0
M  V30 4043 C 378.404 1.27748 -6.19567 0
M  V30 4044 C 377.068 1.14468 -6.57612 0
M  V30 4045 H 376.338 0.487678 -0.557899 0
M  V30 4046 H 378.985 0.646456 -1.80259 0
M  V30 4047 H 377.29 3.21708 -2.23632 0
M  V30 4048 H 378.987 3.05807 -2.5939 0
M  V30 4049 H 375.577 2.15316 -3.7059 0
M  V30 4050 H 379.761 1.80552 -4.62293 0
M  V30 4051 H 375.017 1.35417 -5.96215 0
M  V30 4052 H 379.191 1.01547 -6.88957 0
M  V30 4053 H 376.818 0.78419 -7.56145 0
M  V30 4054 N 378.394 1.34581 0.820102 0
M  V30 4055 C 379.324 1.29038 1.94606 0
M  V30 4056 C 380.305 0.1673 1.69275 0
M  V30 4057 O 381.49 0.360112 1.90832 0
M  V30 4058 C 378.62 1.04793 3.31113 0
M  V30 4059 C 377.574 2.13597 3.70891 0
M  V30 4060 C 376.9 1.74537 5.05412 0
M  V30 4061 C 378.2 3.55451 3.8269 0
M  V30 4062 H 379.894 2.23248 1.99501 0
M  V30 4063 H 377.44 1.0747 0.958449 0
M  V30 4064 H 379.393 0.995592 4.0947 0
M  V30 4065 H 378.117 0.0702565 3.26524 0
M  V30 4066 H 376.776 2.17905 2.9481 0
M  V30 4067 H 376.424 0.754226 4.97313 0
M  V30 4068 H 376.124 2.47361 5.32997 0
M  V30 4069 H 377.648 1.70803 5.86224 0
M  V30 4070 H 379.062 3.5354 4.51312 0
M  V30 4071 H 377.459 4.26922 4.21732 0
M  V30 4072 H 378.529 3.92587 2.84611 0
M  V30 4073 N 379.872 -1.04064 1.18357 0
M  V30 4074 C 381.121 -1.76662 0.973313 0
M  V30 4075 C 381.434 -1.89154 -0.497991 0
M  V30 4076 O 382.64 -2.58606 -0.826762 0
M  V30 4077 C 381.096 -3.17624 1.69242 0
M  V30 4078 C 380.704 -3.13225 3.20303 0
M  V30 4079 C 382.448 -3.946 1.56497 0
M  V30 4080 C 380.355 -4.49046 3.84853 0
M  V30 4081 H 379.285 -0.662214 0.36054 0
M  V30 4082 H 381.936 -1.16553 1.41731 0
M  V30 4083 H 380.318 -3.78129 1.1762 0
M  V30 4084 H 381.492 -2.62172 3.78949 0
M  V30 4085 H 379.807 -2.49749 3.33189 0
M  V30 4086 H 382.404 -4.95042 2.02084 0
M  V30 4087 H 382.747 -4.13074 0.517243 0
M  V30 4088 H 383.28 -3.4067 2.05399 0
M  V30 4089 H 380.019 -4.35777 4.89672 0
M  V30 4090 H 379.539 -5.00203 3.30994 0
M  V30 4091 H 381.218 -5.17961 3.87718 0
M  V30 4092 N 381.35 -0.985608 -1.22978 0
M  V30 4093 C 382.599 -0.652881 -1.90841 0
M  V30 4094 C 382.912 0.817842 -1.77681 0
M  V30 4095 O 384.118 1.26185 -2.40395 0
M  V30 4096 C 382.574 -1.11717 -3.42122 0
M  V30 4097 C 382.182 -2.6126 -3.63933 0
M  V30 4098 C 383.926 -0.85843 -4.1573 0
M  V30 4099 C 381.833 -3.0133 -5.08876 0
M  V30 4100 H 380.763 -0.240491 -0.714619 0
M  V30 4101 H 383.414 -1.1942 -1.39324 0
M  V30 4102 H 381.796 -0.504027 -3.92779 0
M  V30 4103 H 382.97 -3.27858 -3.23799 0
M  V30 4104 H 381.285 -2.84937 -3.03644 0
M  V30 4105 H 383.882 -1.13359 -5.22546 0
M  V30 4106 H 384.225 0.205461 -4.15793 0
M  V30 4107 H 384.758 -1.43341 -3.71077 0
M  V30 4108 H 381.497 -4.06864 -5.13947 0
M  V30 4109 H 381.017 -2.3943 -5.49939 0
M  V30 4110 H 382.696 -2.92224 -5.77247 0
M  V30 4111 N 382.828 1.3818 -0.7579 0
M  V30 4112 C 384.239 1.82726 -0.383134 0
M  V30 4113 C 384.59 1.63214 1.08884 0
M  V30 4114 O 383.715 1.13566 1.84205 0
M  V30 4115 C 384.31 3.31728 -0.688631 0
M  V30 4116 C 382.869 3.74606 -0.367091 0
M  V30 4117 C 382.016 2.60896 -0.939599 0
M  V30 4118 H 384.967 1.26847 -0.953699 0
M  V30 4119 H 384.988 3.80487 0.0316492 0
M  V30 4120 H 384.5 3.45898 -1.76001 0
M  V30 4121 H 382.601 3.66013 0.697532 0
M  V30 4122 H 382.714 4.71215 -0.865658 0
M  V30 4123 H 381.078 2.52075 -0.3647 0
M  V30 4124 H 381.861 2.77864 -2.0161 0
M  V30 4125 N 384.306 0.507319 1.49211 0
M  V30 4126 C 385.546 -0.0332372 2.04373 0
M  V30 4127 C 385.91 -1.33694 1.37804 0
M  V30 4128 O 387.111 -1.96213 1.83722 0
M  V30 4129 C 385.382 -0.17599 3.56966 0
M  V30 4130 S 386.941 -0.669882 4.33657 0
M  V30 4131 H 383.759 0.00123603 0.710999 0
M  V30 4132 H 386.361 0.682725 1.83191 0
M  V30 4133 H 385.065 0.778053 4.02957 0
M  V30 4134 H 384.596 -0.917005 3.82563 0
M  V30 4135 H 386.611 -1.93806 4.56786 0
M  V30 4136 N 385.784 -1.5574 0.241426 0
M  V30 4137 C 387.033 -1.97986 -0.385295 0
M  V30 4138 C 387.346 -1.13267 -1.59468 0
M  V30 4139 O 388.552 -1.45501 -2.2922 0
M  V30 4140 C 387.008 -3.52275 -0.736884 0
M  V30 4141 C 386.616 -4.45726 0.450796 0
M  V30 4142 C 388.36 -4.03189 -1.3281 0
M  V30 4143 C 386.267 -5.91352 0.0756662 0
M  V30 4144 H 385.197 -0.739386 -0.147731 0
M  V30 4145 H 387.848 -1.80308 0.340779 0
M  V30 4146 H 386.23 -3.65628 -1.52094 0
M  V30 4147 H 387.404 -4.44131 1.22819 0
M  V30 4148 H 385.719 -4.05264 0.956573 0
M  V30 4149 H 388.316 -5.09505 -1.62201 0
M  V30 4150 H 388.659 -3.50212 -2.25071 0
M  V30 4151 H 389.192 -3.93141 -0.607069 0
M  V30 4152 H 385.931 -6.48354 0.965272 0
M  V30 4153 H 385.451 -5.96095 -0.665635 0
M  V30 4154 H 387.13 -6.46084 -0.344075 0
M  V30 4155 N 387.262 0.0317525 -1.57568 0
M  V30 4156 C 388.51 0.721676 -1.88776 0
M  V30 4157 C 388.831 1.76039 -0.838772 0
M  V30 4158 O 388.101 1.95482 0.127935 0
M  V30 4159 H 386.681 0.269534 -0.696678 0
M  V30 4160 H 389.343 -0.00165879 -1.949 0
M  V30 4161 H 388.439 1.21293 -2.87566 0
M  V30 4162 N 388.74 1.54641 0.303973 0
M  V30 4163 C 389.67 1.88386 1.3796 0
M  V30 4164 C 390.651 0.742485 1.5304 0
M  V30 4165 O 391.836 0.997959 1.66597 0
M  V30 4166 C 388.966 2.12854 2.74427 0
M  V30 4167 C 387.92 3.28702 2.74115 0
M  V30 4168 C 387.246 3.38582 4.13844 0
M  V30 4169 C 388.546 4.65881 2.3612 0
M  V30 4170 H 390.24 2.78474 1.09966 0
M  V30 4171 H 387.786 1.33988 0.527556 0
M  V30 4172 H 389.739 2.35047 3.49758 0
M  V30 4173 H 388.463 1.19535 3.03939 0
M  V30 4174 H 387.122 3.06428 2.0124 0
M  V30 4175 H 386.77 2.42784 4.40528 0
M  V30 4176 H 386.47 4.16453 4.14537 0
M  V30 4177 H 387.994 3.63031 4.90959 0
M  V30 4178 H 389.408 4.87823 3.01167 0
M  V30 4179 H 387.805 5.46444 2.48031 0
M  V30 4180 H 388.875 4.66799 1.3125 0
M  V30 4181 N 390.218 -0.567019 1.47046 0
M  V30 4182 C 391.443 -1.3551 1.57009 0
M  V30 4183 C 391.868 -1.86841 0.217259 0
M  V30 4184 O 391.226 -1.62435 -0.805268 0
M  V30 4185 C 391.274 -2.50777 2.5912 0
M  V30 4186 O 390.378 -3.52706 2.13711 0
M  V30 4187 H 389.719 -0.402919 0.52778 0
M  V30 4188 H 392.249 -0.686241 1.92748 0
M  V30 4189 H 392.259 -2.97481 2.79229 0
M  V30 4190 H 390.934 -2.12771 3.57353 0
M  V30 4191 H 389.511 -3.12374 2.03659 0
M  V30 4192 N 391.696 -1.35014 -0.812953 0
M  V30 4193 C 392.943 -1.27931 -1.56971 0
M  V30 4194 C 393.271 0.148034 -1.93936 0
M  V30 4195 O 392.526 1.11175 -1.61054 0
M  V30 4196 C 392.825 -2.12524 -2.87347 0
M  V30 4197 C 392.491 -3.61401 -2.6963 0
M  V30 4198 C 391.153 -4.01983 -2.64506 0
M  V30 4199 C 393.505 -4.55894 -2.52607 0
M  V30 4200 C 390.833 -5.35235 -2.40293 0
M  V30 4201 C 393.185 -5.89336 -2.29925 0
M  V30 4202 C 391.849 -6.2907 -2.23219 0
M  V30 4203 H 391.119 -0.468131 -0.574399 0
M  V30 4204 H 393.766 -1.66851 -0.939836 0
M  V30 4205 H 392.071 -1.66463 -3.54679 0
M  V30 4206 H 393.768 -2.04383 -3.45005 0
M  V30 4207 H 390.358 -3.29193 -2.74463 0
M  V30 4208 H 394.542 -4.25431 -2.55583 0
M  V30 4209 H 389.798 -5.65028 -2.33566 0
M  V30 4210 H 393.972 -6.62139 -2.15743 0
M  V30 4211 H 391.599 -7.32256 -2.04219 0
M  V30 4212 N 393.175 1.03435 -1.18907 0
M  V30 4213 C 394.105 2.13503 -0.945448 0
M  V30 4214 C 395.086 1.69682 0.119189 0
M  V30 4215 O 396.271 1.94169 -0.034707 0
M  V30 4216 C 393.401 3.44004 -0.477316 0
M  V30 4217 C 392.355 4.0148 -1.48316 0
M  V30 4218 C 391.681 5.27537 -0.872311 0
M  V30 4219 C 392.981 4.36921 -2.86177 0
M  V30 4220 H 394.675 2.34141 -1.86597 0
M  V30 4221 H 392.221 1.12523 -0.898584 0
M  V30 4222 H 394.174 4.20372 -0.294204 0
M  V30 4223 H 392.898 3.23072 0.478786 0
M  V30 4224 H 391.557 3.27201 -1.65332 0
M  V30 4225 H 391.205 5.02917 0.0911752 0
M  V30 4226 H 390.905 5.66954 -1.54393 0
M  V30 4227 H 392.429 6.06576 -0.699871 0
M  V30 4228 H 393.843 5.04248 -2.72776 0
M  V30 4229 H 392.24 4.87405 -3.50081 0
M  V30 4230 H 393.31 3.46466 -3.39248 0
M  V30 4231 N 394.653 0.992116 1.22453 0
M  V30 4232 C 395.881 0.685944 1.95198 0
M  V30 4233 C 396.296 -0.749233 1.73297 0
M  V30 4234 O 395.653 -1.50549 1.03156 0
M  V30 4235 C 395.704 0.981395 3.47924 0
M  V30 4236 O 395.425 2.36018 3.6909 0
M  V30 4237 C 396.926 0.692815 4.37853 0
M  V30 4238 H 394.146 0.253821 0.621141 0
M  V30 4239 H 396.69 1.32668 1.55626 0
M  V30 4240 H 394.845 0.386481 3.85467 0
M  V30 4241 H 395.259 2.45884 4.63294 0
M  V30 4242 H 396.733 0.949818 5.43767 0
M  V30 4243 H 397.21 -0.373181 4.37612 0
M  V30 4244 H 397.816 1.26874 4.05935 0
M  V30 4245 N 396.131 -1.37776 0.765217 0
M  V30 4246 C 397.377 -2.00145 0.327072 0
M  V30 4247 C 397.71 -1.60607 -1.09175 0
M  V30 4248 O 396.985 -0.849127 -1.74986 0
M  V30 4249 C 397.268 -3.57109 0.46319 0
M  V30 4250 C 397.121 -4.06576 1.92395 0
M  V30 4251 C 398.44 -4.39888 -0.136473 0
M  V30 4252 H 395.559 -0.727113 0.120316 0
M  V30 4253 H 398.201 -1.63549 0.967039 0
M  V30 4254 H 396.351 -3.88414 -0.0816358 0
M  V30 4255 H 398.023 -3.85864 2.52798 0
M  V30 4256 H 396.266 -3.59011 2.43503 0
M  V30 4257 H 396.937 -5.15639 1.97028 0
M  V30 4258 H 399.413 -4.14803 0.328317 0
M  V30 4259 H 398.289 -5.48899 -0.0110582 0
M  V30 4260 H 398.55 -4.24758 -1.22608 0
M  V30 4261 N 397.609 -0.515225 -1.4894 0
M  V30 4262 C 398.539 0.244628 -2.32215 0
M  V30 4263 C 399.52 0.949136 -1.41157 0
M  V30 4264 O 400.705 0.937783 -1.70057 0
M  V30 4265 C 397.835 1.30096 -3.22013 0
M  V30 4266 C 396.789 0.715486 -4.21977 0
M  V30 4267 C 396.115 1.87339 -5.00808 0
M  V30 4268 C 397.415 -0.302982 -5.2142 0
M  V30 4269 H 399.109 -0.450501 -2.95991 0
M  V30 4270 H 396.655 -0.218098 -1.42339 0
M  V30 4271 H 398.608 1.84037 -3.79089 0
M  V30 4272 H 397.332 2.02547 -2.56207 0
M  V30 4273 H 395.991 0.197715 -3.66066 0
M  V30 4274 H 395.639 2.58592 -4.31438 0
M  V30 4275 H 395.339 1.48764 -5.68457 0
M  V30 4276 H 396.863 2.41686 -5.60732 0
M  V30 4277 H 398.277 0.148802 -5.73107 0
M  V30 4278 H 396.674 -0.60532 -5.97039 0
M  V30 4279 H 397.744 -1.21395 -4.69459 0
M  V30 4280 N 399.087 1.5561 -0.249682 0
M  V30 4281 C 400.333 1.99306 0.374841 0
M  V30 4282 C 400.666 1.13767 1.57387 0
M  V30 4283 O 399.941 0.201711 1.93451 0
M  V30 4284 C 400.224 3.51507 0.781986 0
M  V30 4285 C 400.077 4.4781 -0.422629 0
M  V30 4286 C 401.396 4.08884 1.62793 0
M  V30 4287 H 398.515 0.724572 0.134773 0
M  V30 4288 H 401.157 1.86719 -0.351549 0
M  V30 4289 H 399.307 3.62363 1.4009 0
M  V30 4290 H 400.979 4.48931 -1.06108 0
M  V30 4291 H 399.222 4.20518 -1.06524 0
M  V30 4292 H 399.893 5.51919 -0.0943766 0
M  V30 4293 H 402.369 4.01147 1.10547 0
M  V30 4294 H 401.245 5.1564 1.88166 0
M  V30 4295 H 401.506 3.57515 2.60068 0
M  V30 4296 N 400.565 -0.0233959 1.57583 0
M  V30 4297 C 401.812 -0.713063 1.8953 0
M  V30 4298 C 402.14 -1.75056 0.847673 0
M  V30 4299 O 401.395 -1.95119 -0.150636 0
M  V30 4300 C 401.694 -1.41428 3.28227 0
M  V30 4301 C 401.36 -0.512222 4.47981 0
M  V30 4302 C 400.022 -0.263785 4.80476 0
M  V30 4303 C 402.374 0.110248 5.21083 0
M  V30 4304 C 399.702 0.615804 5.83459 0
M  V30 4305 C 402.054 0.977573 6.25001 0
M  V30 4306 C 400.718 1.23542 6.55968 0
M  V30 4307 H 399.988 -0.260928 0.69354 0
M  V30 4308 H 402.635 0.0271047 1.91481 0
M  V30 4309 H 400.94 -2.22791 3.22291 0
M  V30 4310 H 402.637 -1.95355 3.50196 0
M  V30 4311 H 399.227 -0.716013 4.22577 0
M  V30 4312 H 403.411 -0.0687137 4.96252 0
M  V30 4313 H 398.667 0.82382 6.05824 0
M  V30 4314 H 402.841 1.46638 6.80786 0
M  V30 4315 H 400.468 1.91871 7.35588 0
M  V30 4316 N 402.043 -1.548 -0.295768 0
M  V30 4317 C 403.273 -1.78069 -1.04762 0
M  V30 4318 C 403.681 -0.542847 -1.81245 0
M  V30 4319 O 403.024 0.497051 -1.76848 0
M  V30 4320 C 403.086 -2.93881 -2.07061 0
M  V30 4321 C 402.75 -4.31777 -1.49725 0
M  V30 4322 C 403.747 -5.11613 -0.924581 0
M  V30 4323 C 401.432 -4.78389 -1.5313 0
M  V30 4324 C 403.426 -6.36184 -0.393594 0
M  V30 4325 C 401.113 -6.02921 -0.996447 0
M  V30 4326 C 402.111 -6.81654 -0.428569 0
M  V30 4327 O 401.799 -8.0384 0.0981593 0
M  V30 4328 H 401.531 -0.597475 -0.316226 0
M  V30 4329 H 404.085 -2.02584 -0.338973 0
M  V30 4330 H 402.315 -2.65003 -2.81621 0
M  V30 4331 H 404.004 -3.04679 -2.6819 0
M  V30 4332 H 404.77 -4.76743 -0.891136 0
M  V30 4333 H 400.649 -4.17132 -1.9627 0
M  V30 4334 H 404.193 -6.97582 0.0503014 0
M  V30 4335 H 400.09 -6.37277 -1.02706 0
M  V30 4336 H 400.858 -8.18499 -0.0146455 0
M  V30 4337 N 403.521 0.559213 -1.47345 0
M  V30 4338 C 404.451 1.67622 -1.62558 0
M  V30 4339 C 405.432 1.63331 -0.475087 0
M  V30 4340 O 406.617 1.80983 -0.704182 0
M  V30 4341 C 403.747 3.0626 -1.63774 0
M  V30 4342 C 402.701 3.25397 -2.7803 0
M  V30 4343 C 402.027 4.64801 -2.64318 0
M  V30 4344 C 403.327 3.10965 -4.19641 0
M  V30 4345 H 405.021 1.55146 -2.56067 0
M  V30 4346 H 402.567 0.744961 -1.23233 0
M  V30 4347 H 404.52 3.84247 -1.73008 0
M  V30 4348 H 403.244 3.1969 -0.66825 0
M  V30 4349 H 401.903 2.49817 -2.68304 0
M  V30 4350 H 401.551 4.75028 -1.65401 0
M  V30 4351 H 401.251 4.78555 -3.40968 0
M  V30 4352 H 402.775 5.44926 -2.75478 0
M  V30 4353 H 404.189 3.78772 -4.30354 0
M  V30 4354 H 402.586 3.36229 -4.97062 0
M  V30 4355 H 403.656 2.07736 -4.38148 0
M  V30 4356 N 404.999 1.35443 0.805782 0
M  V30 4357 C 406.41 1.25768 1.37983 0
M  V30 4358 C 406.761 -0.10958 1.95894 0
M  V30 4359 O 405.886 -1.01056 1.91355 0
M  V30 4360 C 406.481 2.27727 2.5085 0
M  V30 4361 C 405.04 2.2179 3.04115 0
M  V30 4362 C 404.187 2.13393 1.77084 0
M  V30 4363 H 407.138 1.4656 0.608752 0
M  V30 4364 H 407.159 1.90422 3.29424 0
M  V30 4365 H 406.671 3.27227 2.08671 0
M  V30 4366 H 404.772 1.25703 3.50756 0
M  V30 4367 H 404.885 3.13788 3.62042 0
M  V30 4368 H 403.249 1.59384 1.98668 0
M  V30 4369 H 404.032 3.14755 1.37056 0
M  V30 4370 N 406.477 -1.02803 1.19454 0
M  V30 4371 C 407.702 -1.80378 1.02364 0
M  V30 4372 C 408.127 -1.83282 -0.423007 0
M  V30 4373 O 407.485 -1.25945 -1.30413 0
M  V30 4374 C 407.533 -3.23248 1.59821 0
M  V30 4375 O 406.637 -4.04 0.828105 0
M  V30 4376 H 405.978 -0.556799 0.361761 0
M  V30 4377 H 408.508 -1.29385 1.58495 0
M  V30 4378 H 408.518 -3.73994 1.63073 0
M  V30 4379 H 407.193 -3.2045 2.65113 0
M  V30 4380 H 405.77 -3.62635 0.86891 0
M  V30 4381 N 407.956 -0.998596 -1.21925 0
M  V30 4382 C 408.904 -0.546641 -2.26085 0
M  V30 4383 C 409.898 0.405576 -1.64473 0
M  V30 4384 O 411.104 0.277471 -1.77849 0
M  V30 4385 H 407.479 -0.158403 -0.735127 0
M  V30 4386 H 409.45 -1.43645 -2.61551 0
M  V30 4387 C 408.199 0.117388 -3.47502 0
M  V30 4388 H 407.522 -0.606277 -3.95176 0
M  V30 4389 H 408.962 0.396993 -4.22137 0
M  V30 4390 C 407.421 1.35455 -3.0847 0
M  V30 4391 O 407.951 2.44944 -3.18379 0
M  V30 4392 N 406.157 1.23191 -2.63196 0
M  V30 4393 H 405.704 0.341006 -2.55333 0
M  V30 4394 H 405.662 2.06071 -2.37449 0
M  V30 4395 N 409.434 1.37368 -0.772513 0
M  V30 4396 C 410.344 2.34053 -0.160081 0
M  V30 4397 C 411.36 1.60216 0.678728 0
M  V30 4398 O 412.536 1.92303 0.59847 0
M  V30 4399 C 409.601 3.3939 0.708182 0
M  V30 4400 C 408.662 4.29048 -0.147172 0
M  V30 4401 C 407.895 5.29354 0.679744 0
M  V30 4402 O 408.118 5.3723 1.91678 0
M  V30 4403 O 407.052 6.01835 0.0885444 0
M  V30 4404 H 410.878 2.88159 -0.959053 0
M  V30 4405 H 408.463 1.39543 -0.533685 0
M  V30 4406 H 410.345 4.03839 1.20384 0
M  V30 4407 H 409.02 2.8761 1.48533 0
M  V30 4408 H 407.927 3.67697 -0.689205 0
M  V30 4409 H 409.26 4.84134 -0.887423 0
M  V30 4410 N 410.912 0.523116 1.48665 0
M  V30 4411 C 412.16 -0.0134497 2.02096 0
M  V30 4412 C 412.481 -1.35418 1.40311 0
M  V30 4413 O 411.751 -1.87543 0.566074 0
M  V30 4414 H 410.331 -0.00795915 0.746958 0
M  V30 4415 H 412.993 0.685388 1.82451 0
M  V30 4416 H 412.089 -0.126849 3.11842 0
M  V30 4417 N 412.39 -1.55475 0.257931 0
M  V30 4418 C 413.3 -2.2549 -0.647425 0
M  V30 4419 C 414.316 -1.2748 -1.18427 0
M  V30 4420 O 415.492 -1.6038 -1.2182 0
M  V30 4421 C 412.557 -2.94916 -1.82278 0
M  V30 4422 C 411.618 -4.08363 -1.32432 0
M  V30 4423 C 410.851 -4.74469 -2.44366 0
M  V30 4424 O 411.074 -4.39701 -3.63344 0
M  V30 4425 O 410.008 -5.62763 -2.13497 0
M  V30 4426 H 413.834 -3.03593 -0.0807707 0
M  V30 4427 H 411.419 -1.49377 0.0259962 0
M  V30 4428 H 413.301 -3.38606 -2.50846 0
M  V30 4429 H 411.976 -2.19744 -2.37685 0
M  V30 4430 H 410.883 -3.69166 -0.605605 0
M  V30 4431 H 412.216 -4.85385 -0.816211 0
M  V30 4432 N 413.868 0.0150385 -1.57593 0
M  V30 4433 C 414.815 1.01126 -2.07466 0
M  V30 4434 C 415.785 1.35064 -0.966794 0
M  V30 4435 O 416.97 1.4516 -1.23827 0
M  V30 4436 C 414.11 2.30276 -2.57035 0
M  V30 4437 C 413.223 2.02373 -3.81666 0
M  V30 4438 C 412.358 3.25496 -4.19793 0
M  V30 4439 C 411.397 2.93211 -5.37303 0
M  V30 4440 N 410.534 4.08826 -5.70794 0
M  V30 4441 H 415.374 0.57901 -2.92321 0
M  V30 4442 H 412.911 0.27426 -1.44521 0
M  V30 4443 H 414.869 3.05757 -2.83846 0
M  V30 4444 H 413.499 2.71197 -1.75077 0
M  V30 4445 H 412.551 1.17327 -3.61854 0
M  V30 4446 H 413.863 1.74567 -4.67256 0
M  V30 4447 H 413.017 4.09333 -4.47807 0
M  V30 4448 H 411.756 3.56428 -3.32882 0
M  V30 4449 H 410.761 2.07777 -5.09027 0
M  V30 4450 H 411.986 2.63542 -6.25877 0
M  V30 4451 H 409.932 4.39682 -4.86842 0
M  V30 4452 H 409.849 3.84491 -6.50924 0
M  V30 4453 H 411.117 4.93496 -6.03392 0
M  V30 4454 N 415.346 1.54954 0.287554 0
M  V30 4455 C 416.595 1.74081 1.01877 0
M  V30 4456 C 416.908 0.541135 1.87966 0
M  V30 4457 O 418.114 0.614491 2.64455 0
M  V30 4458 C 416.57 3.08042 1.86113 0
M  V30 4459 C 416.178 4.35531 1.04961 0
M  V30 4460 C 417.922 3.36523 2.58752 0
M  V30 4461 C 415.829 5.60538 1.88551 0
M  V30 4462 H 414.759 0.64884 0.384087 0
M  V30 4463 H 417.41 1.81426 0.275101 0
M  V30 4464 H 415.792 2.94696 2.64519 0
M  V30 4465 H 416.966 4.59751 0.31074 0
M  V30 4466 H 415.281 4.14085 0.43843 0
M  V30 4467 H 417.878 4.27122 3.21668 0
M  V30 4468 H 418.221 2.56 3.28283 0
M  V30 4469 H 418.754 3.50901 1.87386 0
M  V30 4470 H 415.493 6.43767 1.23466 0
M  V30 4471 H 415.013 5.40483 2.60074 0
M  V30 4472 H 416.692 5.98297 2.46273 0
M  V30 4473 N 416.824 -0.551391 1.4764 0
M  V30 4474 C 418.064 -1.31901 1.56145 0
M  V30 4475 C 418.428 -1.90724 0.221013 0
M  V30 4476 O 419.629 -2.6819 0.180945 0
M  V30 4477 C 417.9 -2.39517 2.65267 0
M  V30 4478 S 419.459 -3.26289 2.93395 0
M  V30 4479 H 416.277 -0.448965 0.551318 0
M  V30 4480 H 418.879 -0.630599 1.85051 0
M  V30 4481 H 417.583 -1.94747 3.6125 0
M  V30 4482 H 417.114 -3.13092 2.38195 0
M  V30 4483 H 419.129 -4.39122 2.31055 0
M  V30 4484 N 418.302 -1.35869 -0.798587 0
M  V30 4485 C 419.232 -1.32118 -1.92528 0
M  V30 4486 C 420.213 -0.194209 -1.68988 0
M  V30 4487 O 421.398 -0.390426 -1.90235 0
M  V30 4488 C 418.528 -1.10047 -3.29404 0
M  V30 4489 C 417.482 -2.19471 -3.67446 0
M  V30 4490 C 416.808 -1.82555 -5.02571 0
M  V30 4491 C 418.108 -3.61495 -3.76987 0
M  V30 4492 H 419.802 -2.26394 -1.95924 0
M  V30 4493 H 417.348 -1.08981 -0.94123 0
M  V30 4494 H 419.301 -1.06061 -4.07835 0
M  V30 4495 H 418.025 -0.122195 -3.26371 0
M  V30 4496 H 416.684 -2.22568 -2.91306 0
M  V30 4497 H 416.332 -0.833249 -4.9605 0
M  V30 4498 H 416.032 -2.5581 -5.28995 0
M  V30 4499 H 417.556 -1.80108 -5.83432 0
M  V30 4500 H 418.97 -3.60676 -4.4563 0
M  V30 4501 H 417.367 -4.33577 -4.14887 0
M  V30 4502 H 418.437 -3.97065 -2.78329 0
M  V30 4503 N 419.78 1.02168 -1.19998 0
M  V30 4504 C 421.02 1.77232 -1.01825 0
M  V30 4505 C 421.384 1.86833 0.442428 0
M  V30 4506 O 422.585 2.58293 0.744189 0
M  V30 4507 C 420.856 3.15601 -1.67722 0
M  V30 4508 S 422.415 4.06765 -1.64584 0
M  V30 4509 H 419.233 0.610021 -0.365233 0
M  V30 4510 H 421.835 1.22368 -1.52467 0
M  V30 4511 H 420.539 3.06235 -2.73218 0
M  V30 4512 H 420.07 3.7554 -1.17189 0
M  V30 4513 H 422.085 4.91586 -0.67511 0
M  V30 4514 N 421.258 1.00505 1.21394 0
M  V30 4515 C 422.486 0.706609 1.9446 0
M  V30 4516 C 422.901 -0.73081 1.74082 0
M  V30 4517 O 422.258 -1.49446 1.04747 0
M  V30 4518 C 422.309 1.01824 3.46863 0
M  V30 4519 O 422.03 2.39919 3.66566 0
M  V30 4520 C 423.531 0.739216 4.37093 0
M  V30 4521 H 420.751 0.260394 0.618414 0
M  V30 4522 H 423.295 1.34311 1.54211 0
M  V30 4523 H 421.45 0.427343 3.85036 0
M  V30 4524 H 421.864 2.50784 4.6066 0
M  V30 4525 H 423.338 1.00744 5.42729 0
M  V30 4526 H 423.815 -0.326746 4.37983 0
M  V30 4527 H 424.421 1.31173 4.04566 0
M  V30 4528 N 422.737 -1.36956 0.779787 0
M  V30 4529 C 423.962 -2.04283 0.358224 0
M  V30 4530 C 424.387 -1.58422 -1.01411 0
M  V30 4531 O 423.745 -0.748179 -1.65142 0
M  V30 4532 C 423.793 -3.58152 0.419479 0
M  V30 4533 O 422.897 -4.08342 -0.577142 0
M  V30 4534 H 422.238 -0.645967 0.153698 0
M  V30 4535 H 424.768 -1.75108 1.05822 0
M  V30 4536 H 424.778 -4.07041 0.279636 0
M  V30 4537 H 423.453 -3.90886 1.42061 0
M  V30 4538 H 422.03 -3.70751 -0.399755 0
M  V30 4539 N 424.215 -0.530993 -1.48385 0
M  V30 4540 C 425.461 0.00274135 -2.028 0
M  V30 4541 C 425.794 1.33838 -1.40716 0
M  V30 4542 O 425.069 1.86465 -0.553277 0
M  V30 4543 C 425.352 0.123676 -3.59888 0
M  V30 4544 C 425.205 -1.2372 -4.3245 0
M  V30 4545 C 426.524 0.849967 -4.31814 0
M  V30 4546 H 423.643 -0.000477758 -0.737 0
M  V30 4547 H 426.285 -0.688217 -1.77098 0
M  V30 4548 H 424.435 0.712157 -3.81917 0
M  V30 4549 H 426.107 -1.86687 -4.21836 0
M  V30 4550 H 424.35 -1.81882 -3.93829 0
M  V30 4551 H 425.021 -1.10557 -5.40815 0
M  V30 4552 H 427.497 0.350572 -4.14621 0
M  V30 4553 H 426.373 0.903486 -5.41413 0
M  V30 4554 H 426.634 1.90047 -3.99167 0
M  V30 4555 N 425.693 1.55336 -0.266172 0
M  V30 4556 C 426.623 2.25146 0.618981 0
M  V30 4557 C 427.604 1.23845 1.16604 0
M  V30 4558 O 428.789 1.52544 1.20183 0
M  V30 4559 C 425.919 2.96572 1.80728 0
M  V30 4560 C 424.873 4.04726 1.39215 0
M  V30 4561 C 424.199 4.63678 2.66283 0
M  V30 4562 C 425.499 5.19407 0.548942 0
M  V30 4563 H 427.193 2.99377 0.0368116 0
M  V30 4564 H 424.739 1.43991 0.0162651 0
M  V30 4565 H 426.692 3.44116 2.43232 0
M  V30 4566 H 425.416 2.19861 2.41514 0
M  V30 4567 H 424.075 3.57979 0.790351 0
M  V30 4568 H 423.723 3.83646 3.25308 0
M  V30 4569 H 423.423 5.367 2.39222 0
M  V30 4570 H 424.947 5.13967 3.29651 0
M  V30 4571 H 426.361 5.63059 1.07876 0
M  V30 4572 H 424.758 5.98936 0.373593 0
M  V30 4573 H 425.828 4.8295 -0.434394 0
M  V30 4574 N 427.171 -0.0066808 1.57599 0
M  V30 4575 C 428.417 -0.693947 1.90558 0
M  V30 4576 C 428.75 -1.73792 0.866594 0
M  V30 4577 O 428.025 -1.94156 -0.115548 0
M  V30 4578 C 428.308 -1.34317 3.34112 0
M  V30 4579 C 428.161 -0.311189 4.48722 0
M  V30 4580 C 429.48 -2.27116 3.7697 0
M  V30 4581 H 426.599 -0.250803 0.693013 0
M  V30 4582 H 429.241 0.043242 1.89951 0
M  V30 4583 H 427.391 -1.9715 3.3476 0
M  V30 4584 H 429.063 0.316944 4.6021 0
M  V30 4585 H 427.306 0.367253 4.32243 0
M  V30 4586 H 427.977 -0.804366 5.46108 0
M  V30 4587 H 430.453 -1.74306 3.77831 0
M  V30 4588 H 429.329 -2.69511 4.78179 0
M  V30 4589 H 429.59 -3.14743 3.10466 0
M  V30 4590 N 428.649 -1.55105 -0.279332 0
M  V30 4591 C 429.874 -1.7976 -1.03446 0
M  V30 4592 C 430.299 -0.565952 -1.79384 0
M  V30 4593 O 429.657 0.484259 -1.74713 0
M  V30 4594 C 429.705 -3.0179 -1.97371 0
M  V30 4595 O 428.809 -2.76432 -3.06038 0
M  V30 4596 H 428.15 -0.594334 -0.29608 0
M  V30 4597 H 430.68 -2.02235 -0.310165 0
M  V30 4598 H 430.69 -3.30351 -2.39441 0
M  V30 4599 H 429.365 -3.91085 -1.4151 0
M  V30 4600 H 427.942 -2.58949 -2.68328 0
M  V30 4601 N 430.127 0.543554 -1.4793 0
M  V30 4602 C 431.057 1.65888 -1.64327 0
M  V30 4603 C 432.038 1.62818 -0.492383 0
M  V30 4604 O 433.223 1.80226 -0.723338 0
M  V30 4605 C 430.353 3.04506 -1.67013 0
M  V30 4606 C 429.307 3.2243 -2.81466 0
M  V30 4607 C 428.633 4.61972 -2.69233 0
M  V30 4608 C 429.933 3.06496 -4.22915 0
M  V30 4609 H 431.627 1.52421 -2.57698 0
M  V30 4610 H 429.173 0.731849 -1.24016 0
M  V30 4611 H 431.126 3.82391 -1.77074 0
M  V30 4612 H 429.85 3.18964 -0.70212 0
M  V30 4613 H 428.509 2.46957 -2.70938 0
M  V30 4614 H 428.157 4.73247 -1.7043 0
M  V30 4615 H 427.857 4.74911 -3.46025 0
M  V30 4616 H 429.381 5.41974 -2.81242 0
M  V30 4617 H 430.795 3.74186 -4.34348 0
M  V30 4618 H 429.192 3.30938 -5.006 0
M  V30 4619 H 430.262 2.03077 -4.40327 0
M  V30 4620 N 431.605 1.3629 0.791371 0
M  V30 4621 C 432.833 1.33562 1.58016 0
M  V30 4622 C 433.248 -0.0835616 1.88615 0
M  V30 4623 O 432.605 -1.0399 1.49974 0
M  V30 4624 C 432.656 2.15517 2.90232 0
M  V30 4625 O 432.377 3.51902 2.60953 0
M  V30 4626 C 433.878 2.20546 3.84544 0
M  V30 4627 H 431.098 0.458226 0.490173 0
M  V30 4628 H 433.642 1.79361 0.982345 0
M  V30 4629 H 431.797 1.73278 3.46487 0
M  V30 4630 H 432.211 3.94644 3.4548 0
M  V30 4631 H 433.685 2.82252 4.74382 0
M  V30 4632 H 434.162 1.20838 4.2225 0
M  V30 4633 H 434.768 2.63013 3.34222 0
M  V30 4634 N 433.083 -1.0153 1.20538 0
M  V30 4635 C 434.329 -1.75408 1.01783 0
M  V30 4636 C 434.662 -1.88943 -0.448814 0
M  V30 4637 O 433.937 -1.4162 -1.33319 0
M  V30 4638 C 434.22 -3.17255 1.70356 0
M  V30 4639 C 434.073 -3.11508 3.24473 0
M  V30 4640 C 435.392 -4.15955 1.43769 0
M  V30 4641 H 432.511 -0.636713 0.371167 0
M  V30 4642 H 435.153 -1.18436 1.4857 0
M  V30 4643 H 433.303 -3.65898 1.30578 0
M  V30 4644 H 434.975 -2.70658 3.73553 0
M  V30 4645 H 433.218 -2.4887 3.55311 0
M  V30 4646 H 433.889 -4.11784 3.67611 0
M  V30 4647 H 436.365 -3.75973 1.7828 0
M  V30 4648 H 435.241 -5.13368 1.94279 0
M  V30 4649 H 435.502 -4.40586 0.365564 0
M  V30 4650 N 434.561 -1.01147 -1.20859 0
M  V30 4651 C 435.808 -0.697865 -1.90095 0
M  V30 4652 C 436.136 0.772014 -1.78522 0
M  V30 4653 O 435.391 1.57595 -1.16027 0
M  V30 4654 C 435.69 -1.0727 -3.40922 0
M  V30 4655 C 435.356 -2.53792 -3.72693 0
M  V30 4656 C 434.018 -2.93829 -3.81075 0
M  V30 4657 C 436.37 -3.48674 -3.87397 0
M  V30 4658 C 433.698 -4.27696 -4.01613 0
M  V30 4659 C 436.05 -4.82223 -4.09444 0
M  V30 4660 C 434.714 -5.21973 -4.16054 0
M  V30 4661 H 433.984 -0.255367 -0.695607 0
M  V30 4662 H 436.631 -1.27111 -1.43231 0
M  V30 4663 H 434.936 -0.417799 -3.89566 0
M  V30 4664 H 436.633 -0.807818 -3.92779 0
M  V30 4665 H 433.223 -2.21768 -3.66765 0
M  V30 4666 H 437.407 -3.18904 -3.80281 0
M  V30 4667 H 432.663 -4.58055 -4.04964 0
M  V30 4668 H 436.837 -5.55672 -4.19763 0
M  V30 4669 H 434.464 -6.25717 -4.31721 0
M  V30 4670 N 436.039 1.36541 -0.78704 0
M  V30 4671 C 436.969 2.32659 -0.197992 0
M  V30 4672 C 437.95 1.56533 0.665697 0
M  V30 4673 O 439.135 1.84698 0.60001 0
M  V30 4674 C 436.265 3.40778 0.669901 0
M  V30 4675 C 435.219 4.27897 -0.0937039 0
M  V30 4676 C 434.545 5.27163 0.894629 0
M  V30 4677 C 435.845 5.06334 -1.28154 0
M  V30 4678 H 437.539 2.82171 -1.00099 0
M  V30 4679 H 435.085 1.35665 -0.482793 0
M  V30 4680 H 437.038 4.07008 1.09191 0
M  V30 4681 H 435.762 2.89827 1.50558 0
M  V30 4682 H 434.421 3.6322 -0.49666 0
M  V30 4683 H 434.069 4.72486 1.72527 0
M  V30 4684 H 433.769 5.86317 0.388149 0
M  V30 4685 H 435.293 5.96266 1.31525 0
M  V30 4686 H 436.707 5.65617 -0.93541 0
M  V30 4687 H 435.104 5.74888 -1.72115 0
M  V30 4688 H 436.174 4.38114 -2.07807 0
M  V30 4689 N 437.518 0.538854 1.48102 0
M  V30 4690 C 438.448 -0.207654 2.32575 0
M  V30 4691 C 439.429 -0.926559 1.4265 0
M  V30 4692 O 440.614 -0.91061 1.71527 0
M  V30 4693 C 437.744 -1.24957 3.24042 0
M  V30 4694 C 436.698 -0.648263 4.23062 0
M  V30 4695 C 436.024 -1.79348 5.03725 0
M  V30 4696 C 437.324 0.385897 5.20872 0
M  V30 4697 H 439.018 0.497534 2.95237 0
M  V30 4698 H 436.564 0.240715 1.41974 0
M  V30 4699 H 438.517 -1.77983 3.81969 0
M  V30 4700 H 437.241 -1.98446 2.59397 0
M  V30 4701 H 435.9 -0.139452 3.66335 0
M  V30 4702 H 435.548 -2.51696 4.35498 0
M  V30 4703 H 435.248 -1.39702 5.70751 0
M  V30 4704 H 436.772 -2.32735 5.64506 0
M  V30 4705 H 438.186 -0.057607 5.73271 0
M  V30 4706 H 436.583 0.700227 5.96001 0
M  V30 4707 H 437.653 1.28848 4.67468 0
M  V30 4708 N 438.996 -1.55193 0.274407 0
M  V30 4709 C 440.242 -1.99877 -0.343086 0
M  V30 4710 C 440.575 -1.16256 -1.55558 0
M  V30 4711 O 439.85 -0.232462 -1.93106 0
M  V30 4712 C 440.133 -3.52706 -0.725965 0
M  V30 4713 C 439.986 -4.47081 0.493818 0
M  V30 4714 C 441.305 -4.11422 -1.56268 0
M  V30 4715 H 438.424 -0.726625 -0.123229 0
M  V30 4716 H 441.066 -1.86136 0.38121 0
M  V30 4717 H 439.216 -3.64546 -1.34307 0
M  V30 4718 H 440.888 -4.47186 1.13237 0
M  V30 4719 H 439.131 -4.1877 1.13201 0
M  V30 4720 H 439.802 -5.51699 0.18217 0
M  V30 4721 H 442.278 -4.02855 -1.04151 0
M  V30 4722 H 441.154 -5.18568 -1.79939 0
M  V30 4723 H 441.415 -3.61607 -2.54348 0
M  V30 4724 N 440.474 -0.00167713 -1.576 0
M  V30 4725 C 441.723 0.682021 -1.89819 0
M  V30 4726 C 442.036 1.74844 -0.876871 0
M  V30 4727 O 443.242 2.48688 -1.08934 0
M  V30 4728 C 441.698 1.26425 -3.36964 0
M  V30 4729 C 441.306 0.232568 -4.47396 0
M  V30 4730 C 443.05 1.92604 -3.78291 0
M  V30 4731 C 440.957 0.824882 -5.85619 0
M  V30 4732 H 439.887 0.258499 -0.708304 0
M  V30 4733 H 442.538 -0.0624957 -1.83394 0
M  V30 4734 H 440.92 2.05949 -3.38232 0
M  V30 4735 H 442.094 -0.5382 -4.57646 0
M  V30 4736 H 440.409 -0.32888 -4.15099 0
M  V30 4737 H 443.006 2.37827 -4.78897 0
M  V30 4738 H 443.349 2.75732 -3.11894 0
M  V30 4739 H 443.882 1.19812 -3.79328 0
M  V30 4740 H 440.621 0.0323542 -6.55492 0
M  V30 4741 H 440.141 1.56477 -5.79029 0
M  V30 4742 H 441.82 1.32301 -6.33329 0
M  V30 4743 N 441.952 1.55251 0.271103 0
M  V30 4744 C 442.862 1.9136 1.35714 0
M  V30 4745 C 443.878 0.811075 1.5394 0
M  V30 4746 O 445.054 1.11031 1.6803 0
M  V30 4747 C 442.119 2.1798 2.69603 0
M  V30 4748 C 441.18 3.4153 2.60107 0
M  V30 4749 C 440.413 3.66871 3.8761 0
M  V30 4750 O 440.636 2.94689 4.8838 0
M  V30 4751 O 439.57 4.60405 3.87699 0
M  V30 4752 H 443.396 2.83815 1.08088 0
M  V30 4753 H 440.981 1.41821 0.469792 0
M  V30 4754 H 442.863 2.36518 3.48765 0
M  V30 4755 H 441.538 1.28708 2.97012 0
M  V30 4756 H 440.445 3.28325 1.79314 0
M  V30 4757 H 441.778 4.31027 2.37647 0
M  V30 4758 N 443.43 -0.535701 1.48216 0
M  V30 4759 C 444.34 -1.66785 1.64985 0
M  V30 4760 C 445.356 -1.65654 0.532414 0
M  V30 4761 O 446.532 -1.8471 0.80275 0
M  V30 4762 C 443.597 -3.0326 1.68031 0
M  V30 4763 C 442.658 -3.1529 2.9136 0
M  V30 4764 C 441.891 -4.45255 2.94252 0
M  V30 4765 O 442.114 -5.32011 2.05719 0
M  V30 4766 O 441.048 -4.6153 3.86359 0
M  V30 4767 H 444.874 -1.55576 2.60825 0
M  V30 4768 H 442.459 -0.70815 1.31551 0
M  V30 4769 H 444.341 -3.84436 1.72589 0
M  V30 4770 H 443.016 -3.14805 0.753628 0
M  V30 4771 H 441.923 -2.3343 2.92337 0
M  V30 4772 H 443.256 -3.08658 3.83394 0
M  V30 4773 N 444.908 -1.36708 -0.784132 0
M  V30 4774 C 446.157 -1.30559 -1.53744 0
M  V30 4775 C 446.47 0.111374 -1.95283 0
M  V30 4776 O 447.676 0.29527 -2.6989 0
M  V30 4777 C 446.132 -2.29098 -2.77565 0
M  V30 4778 C 445.74 -3.76258 -2.43174 0
M  V30 4779 C 447.484 -2.31936 -3.55536 0
M  V30 4780 C 445.391 -4.6656 -3.63422 0
M  V30 4781 H 444.321 -0.48518 -0.577162 0
M  V30 4782 H 446.972 -1.62101 -0.859981 0
M  V30 4783 H 445.354 -1.90557 -3.47137 0
M  V30 4784 H 446.528 -4.23565 -1.81465 0
M  V30 4785 H 444.843 -3.76246 -1.78403 0
M  V30 4786 H 447.44 -2.9661 -4.44889 0
M  V30 4787 H 447.783 -1.3294 -3.94503 0
M  V30 4788 H 448.316 -2.6912 -2.92949 0
M  V30 4789 H 445.055 -5.66638 -3.29547 0
M  V30 4790 H 444.575 -4.23966 -4.24279 0
M  V30 4791 H 446.254 -4.8309 -4.30387 0
M  V30 4792 N 446.386 1.0089 -1.21074 0
M  V30 4793 C 447.635 1.74019 -1.01981 0
M  V30 4794 C 447.948 1.90408 0.447665 0
M  V30 4795 O 449.154 2.60707 0.757906 0
M  V30 4796 C 447.61 3.13026 -1.77603 0
M  V30 4797 C 447.218 3.04623 -3.28495 0
M  V30 4798 C 448.962 3.90312 -1.66904 0
M  V30 4799 C 446.869 4.38685 -3.96623 0
M  V30 4800 H 445.799 0.652422 -0.377971 0
M  V30 4801 H 448.45 1.12755 -1.44771 0
M  V30 4802 H 446.832 3.74878 -1.27604 0
M  V30 4803 H 448.006 2.52032 -3.85767 0
M  V30 4804 H 446.321 2.40827 -3.39693 0
M  V30 4805 H 448.918 4.8951 -2.15138 0
M  V30 4806 H 449.261 4.11558 -0.62658 0
M  V30 4807 H 449.794 3.35104 -2.14359 0
M  V30 4808 H 446.533 4.22641 -5.01054 0
M  V30 4809 H 446.053 4.91252 -3.4414 0
M  V30 4810 H 447.732 5.075 -4.01314 0
M  V30 4811 N 447.864 1.01787 1.20321 0
M  V30 4812 C 449.275 0.739307 1.71438 0
M  V30 4813 C 449.626 -0.742041 1.81627 0
M  V30 4814 O 448.751 -1.57903 1.47971 0
M  V30 4815 C 449.346 1.33538 3.11373 0
M  V30 4816 C 447.905 1.10566 3.59795 0
M  V30 4817 C 447.052 1.44028 2.36962 0
M  V30 4818 H 450.003 1.18718 1.05317 0
M  V30 4819 H 450.024 0.726611 3.73498 0
M  V30 4820 H 449.536 2.41352 3.03926 0
M  V30 4821 H 447.637 0.0452405 3.72573 0
M  V30 4822 H 447.75 1.78661 4.44542 0
M  V30 4823 H 446.114 0.85933 2.39766 0
M  V30 4824 H 446.897 2.52901 2.32155 0
M  V30 4825 N 449.342 -1.36122 0.79427 0
M  V30 4826 C 450.567 -2.03891 0.379871 0
M  V30 4827 C 450.992 -1.59488 -0.997251 0
M  V30 4828 O 450.35 -0.765652 -1.64339 0
M  V30 4829 C 450.398 -3.57687 0.457442 0
M  V30 4830 O 449.502 -4.08931 -0.5338 0
M  V30 4831 H 448.843 -0.6443 0.160541 0
M  V30 4832 H 451.373 -1.73976 1.07673 0
M  V30 4833 H 451.383 -4.06721 0.322792 0
M  V30 4834 H 450.058 -3.89357 1.46199 0
M  V30 4835 H 448.635 -3.71154 -0.360409 0
M  V30 4836 N 450.82 -0.546701 -1.47814 0
M  V30 4837 C 452.045 -0.021268 -2.07389 0
M  V30 4838 C 452.47 1.25822 -1.39822 0
M  V30 4839 O 451.828 1.75111 -0.46968 0
M  V30 4840 C 451.876 0.168502 -3.60206 0
M  V30 4841 O 450.98 1.23347 -3.93522 0
M  V30 4842 H 450.321 -0.0466108 -0.662362 0
M  V30 4843 H 452.851 -0.759387 -1.89985 0
M  V30 4844 H 452.861 0.385982 -4.0617 0
M  V30 4845 H 451.536 -0.766075 -4.08784 0
M  V30 4846 H 450.113 0.997319 -3.59316 0
M  V30 4847 N 452.299 1.55045 -0.282633 0
M  V30 4848 C 453.524 2.04628 0.337977 0
M  V30 4849 C 453.949 1.15937 1.48123 0
M  V30 4850 O 453.307 0.159532 1.80597 0
M  V30 4851 C 453.355 3.51854 0.78936 0
M  V30 4852 O 452.459 3.66236 1.89592 0
M  V30 4853 H 451.8 0.660434 0.0687261 0
M  V30 4854 H 454.33 2.00261 -0.419124 0
M  V30 4855 H 454.34 3.93361 1.08311 0
M  V30 4856 H 453.015 4.15873 -0.0470419 0
M  V30 4857 H 451.592 3.36633 1.60413 0
M  V30 4858 N 453.777 0.010035 1.57597 0
M  V30 4859 C 454.724 -0.978122 2.09049 0
M  V30 4860 C 455.694 -1.33509 0.988159 0
M  V30 4861 O 456.879 -1.43172 1.26121 0
M  V30 4862 C 454.019 -2.26158 2.60666 0
M  V30 4863 C 453.132 -1.96275 3.84838 0
M  V30 4864 C 452.267 -3.18776 4.24918 0
M  V30 4865 C 451.306 -2.84625 5.41899 0
M  V30 4866 N 450.443 -3.99693 5.77226 0
M  V30 4867 H 455.283 -0.532431 2.93205 0
M  V30 4868 H 452.82 -0.251234 1.44939 0
M  V30 4869 H 454.778 -3.01202 2.88675 0
M  V30 4870 H 453.408 -2.68378 1.79369 0
M  V30 4871 H 452.46 -1.11555 3.63675 0
M  V30 4872 H 453.772 -1.67111 4.69974 0
M  V30 4873 H 452.926 -4.02157 4.54262 0
M  V30 4874 H 451.665 -3.51087 3.38511 0
M  V30 4875 H 450.67 -1.99653 5.12268 0
M  V30 4876 H 451.895 -2.53551 6.29991 0
M  V30 4877 H 449.841 -4.31882 4.93776 0
M  V30 4878 H 449.758 -3.74087 6.56959 0
M  V30 4879 H 451.026 -4.83834 6.11167 0
M  V30 4880 N 455.255 -1.55392 -0.262866 0
M  V30 4881 C 456.501 -1.76737 -0.99458 0
M  V30 4882 C 456.834 -0.572453 -1.85571 0
M  V30 4883 O 456.109 0.429732 -1.89693 0
M  V30 4884 C 456.392 -3.07824 -1.8686 0
M  V30 4885 C 456.245 -4.3769 -1.03672 0
M  V30 4886 C 457.564 -3.35021 -2.85393 0
M  V30 4887 H 454.683 -0.643005 -0.360157 0
M  V30 4888 H 457.325 -1.88126 -0.266216 0
M  V30 4889 H 455.475 -2.98245 -2.48962 0
M  V30 4890 H 457.147 -4.59238 -0.43563 0
M  V30 4891 H 455.39 -4.32461 -0.340513 0
M  V30 4892 H 456.061 -5.25759 -1.6817 0
M  V30 4893 H 458.537 -3.44458 -2.33426 0
M  V30 4894 H 457.413 -4.27989 -3.43681 0
M  V30 4895 H 457.674 -2.55153 -3.61039 0
M  V30 4896 N 456.733 0.527833 -1.48498 0
M  V30 4897 C 457.982 1.28003 -1.55878 0
M  V30 4898 C 458.295 1.9414 -0.238577 0
M  V30 4899 O 459.501 2.7083 -0.190643 0
M  V30 4900 C 457.957 2.32272 -2.74914 0
M  V30 4901 C 457.565 1.72196 -4.13585 0
M  V30 4902 C 459.309 3.08488 -2.91608 0
M  V30 4903 C 457.216 2.74417 -5.23879 0
M  V30 4904 H 456.146 0.481413 -0.580308 0
M  V30 4905 H 458.797 0.557195 -1.74836 0
M  V30 4906 H 457.179 3.07601 -2.49395 0
M  V30 4907 H 458.353 1.03041 -4.49132 0
M  V30 4908 H 456.668 1.08464 -4.02025 0
M  V30 4909 H 459.265 3.84879 -3.71177 0
M  V30 4910 H 459.608 3.64481 -2.01145 0
M  V30 4911 H 460.141 2.40274 -3.17038 0
M  V30 4912 H 456.88 2.23242 -6.16314 0
M  V30 4913 H 456.4 3.41893 -4.92818 0
M  V30 4914 H 458.079 3.37362 -5.52083 0
M  V30 4915 N 458.211 1.37122 0.776871 0
M  V30 4916 C 459.622 1.28667 1.35284 0
M  V30 4917 C 459.973 -0.0680035 1.96082 0
M  V30 4918 O 459.098 -0.969743 1.93455 0
M  V30 4919 C 459.693 2.32997 2.45963 0
M  V30 4920 C 458.252 2.28191 2.99342 0
M  V30 4921 C 457.399 2.17101 1.72517 0
M  V30 4922 H 460.35 1.47819 0.577527 0
M  V30 4923 H 460.371 1.97366 3.2531 0
M  V30 4924 H 459.883 3.3158 2.01684 0
M  V30 4925 H 457.984 1.33115 3.4801 0
M  V30 4926 H 458.097 3.21397 3.55304 0
M  V30 4927 H 456.461 1.63562 1.95242 0
M  V30 4928 H 457.244 3.17591 1.30348 0
M  V30 4929 N 459.689 -1.00246 1.21608 0
M  V30 4930 C 460.619 -2.10921 1.00172 0
M  V30 4931 C 461.6 -1.69938 -0.0741587 0
M  V30 4932 O 462.785 -1.94009 0.0861753 0
M  V30 4933 C 459.915 -3.42618 0.568355 0
M  V30 4934 C 458.869 -3.97407 1.58909 0
M  V30 4935 C 458.195 -5.25038 1.01187 0
M  V30 4936 C 459.495 -4.2918 2.97661 0
M  V30 4937 H 461.189 -2.29112 1.92739 0
M  V30 4938 H 458.735 -1.10101 0.928102 0
M  V30 4939 H 460.688 -4.19444 0.405555 0
M  V30 4940 H 459.412 -3.24227 -0.392961 0
M  V30 4941 H 458.071 -3.22703 1.73949 0
M  V30 4942 H 457.719 -5.02982 0.0421965 0
M  V30 4943 H 457.419 -5.62661 1.6937 0
M  V30 4944 H 458.943 -6.04507 0.860448 0
M  V30 4945 H 460.357 -4.96839 2.86049 0
M  V30 4946 H 458.754 -4.77952 3.6288 0
M  V30 4947 H 459.824 -3.3735 3.48315 0
M  V30 4948 N 461.167 -1.02423 -1.1978 0
M  V30 4949 C 462.416 -0.713265 -1.88667 0
M  V30 4950 C 462.729 0.7609 -1.80193 0
M  V30 4951 O 463.935 1.18473 -2.44288 0
M  V30 4952 C 462.391 -1.22545 -3.38394 0
M  V30 4953 C 461.999 -2.72706 -3.55437 0
M  V30 4954 C 463.743 -0.990257 -4.12788 0
M  V30 4955 C 461.65 -3.17367 -4.99031 0
M  V30 4956 H 460.58 -0.263105 -0.706606 0
M  V30 4957 H 463.231 -1.23792 -1.35454 0
M  V30 4958 H 461.613 -0.628732 -3.90977 0
M  V30 4959 H 462.787 -3.37993 -3.13205 0
M  V30 4960 H 461.102 -2.94453 -2.94425 0
M  V30 4961 H 463.699 -1.29926 -5.18675 0
M  V30 4962 H 464.042 0.0730761 -4.16236 0
M  V30 4963 H 464.575 -1.55074 -3.66329 0
M  V30 4964 H 461.314 -4.23009 -5.00743 0
M  V30 4965 H 460.834 -2.56805 -5.42044 0
M  V30 4966 H 462.513 -3.10441 -5.67658 0
M  V30 4967 N 462.645 1.35699 -0.801477 0
M  V30 4968 C 463.893 1.9852 -0.37871 0
M  V30 4969 C 464.214 1.63907 1.05638 0
M  V30 4970 O 463.484 0.919013 1.73006 0
M  V30 4971 H 462.064 0.734322 -0.137042 0
M  V30 4972 H 464.726 1.65697 -1.02619 0
M  V30 4973 H 463.822 3.08382 -0.480284 0
M  V30 4974 N 464.123 0.554532 1.47522 0
M  V30 4975 C 465.033 -0.197865 2.33764 0
M  V30 4976 C 466.049 -0.914576 1.48025 0
M  V30 4977 O 467.225 -0.884067 1.80959 0
M  V30 4978 C 464.29 -1.21628 3.24665 0
M  V30 4979 C 463.351 -0.507283 4.26292 0
M  V30 4980 C 462.584 -1.47718 5.1285 0
M  V30 4981 O 462.807 -2.7118 5.01814 0
M  V30 4982 O 461.741 -1.00313 5.93482 0
M  V30 4983 H 465.567 0.50949 2.99396 0
M  V30 4984 H 463.152 0.315176 1.46038 0
M  V30 4985 H 465.034 -1.80421 3.80823 0
M  V30 4986 H 463.709 -1.9056 2.61665 0
M  V30 4987 H 462.616 0.121778 3.73902 0
M  V30 4988 H 463.949 0.140544 4.91999 0
M  V30 4989 N 465.601 -1.54893 0.290851 0
M  V30 4990 C 466.831 -2.04047 -0.323818 0
M  V30 4991 C 467.239 -1.16809 -1.48837 0
M  V30 4992 O 466.582 -0.184145 -1.82775 0
M  V30 4993 C 466.644 -3.49248 -0.852395 0
M  V30 4994 C 466.308 -4.56623 0.185557 0
M  V30 4995 C 467.305 -5.09985 1.01053 0
M  V30 4996 C 464.99 -5.01252 0.324332 0
M  V30 4997 C 466.984 -6.06507 1.96031 0
M  V30 4998 C 464.671 -5.97596 1.27757 0
M  V30 4999 C 465.669 -6.50107 2.09405 0
M  V30 5000 O 465.357 -7.44565 3.03114 0
M  V30 5001 H 465.089 -0.671735 -0.0758129 0
M  V30 5002 H 467.643 -2.00947 0.425393 0
M  V30 5003 H 465.873 -3.49639 -1.65195 0
M  V30 5004 H 467.562 -3.81654 -1.38185 0
M  V30 5005 H 468.328 -4.76307 0.914129 0
M  V30 5006 H 464.207 -4.60015 -0.301213 0
M  V30 5007 H 467.751 -6.47418 2.598 0
M  V30 5008 H 463.648 -6.30691 1.37473 0
M  V30 5009 H 464.416 -7.62334 2.97976 0
M  V30 5010 N 467.08 -0.0183926 -1.57589 0
M  V30 5011 C 468.01 0.965596 -2.12599 0
M  V30 5012 C 468.991 1.34641 -1.0395 0
M  V30 5013 O 470.176 1.42693 -1.31729 0
M  V30 5014 C 467.306 2.25149 -2.64434 0
M  V30 5015 C 466.26 2.01175 -3.77773 0
M  V30 5016 C 465.586 3.35937 -4.15994 0
M  V30 5017 C 466.886 1.35953 -5.04296 0
M  V30 5018 H 468.58 0.507504 -2.95067 0
M  V30 5019 H 466.126 0.242671 -1.41941 0
M  V30 5020 H 468.079 2.94357 -3.01549 0
M  V30 5021 H 466.803 2.73105 -1.79112 0
M  V30 5022 H 465.462 1.34388 -3.4108 0
M  V30 5023 H 465.11 3.81631 -3.27669 0
M  V30 5024 H 464.81 3.20705 -4.92364 0
M  V30 5025 H 466.334 4.0643 -4.55683 0
M  V30 5026 H 467.748 1.95144 -5.39065 0
M  V30 5027 H 466.145 1.31152 -5.85593 0
M  V30 5028 H 467.215 0.331071 -4.83768 0
M  V30 5029 N 468.558 1.5553 0.254621 0
M  V30 5030 C 469.804 1.77262 0.985193 0
M  V30 5031 C 470.137 0.582286 1.85265 0
M  V30 5032 O 469.412 -0.419666 1.89919 0
M  V30 5033 C 469.695 3.0881 1.85225 0
M  V30 5034 C 469.548 4.38233 1.0135 0
M  V30 5035 C 470.867 3.3653 2.83612 0
M  V30 5036 H 467.986 0.644906 0.356742 0
M  V30 5037 H 470.628 1.88264 0.256236 0
M  V30 5038 H 468.778 2.99562 2.47376 0
M  V30 5039 H 470.45 4.59463 0.411269 0
M  V30 5040 H 468.693 4.32636 0.317574 0
M  V30 5041 H 469.364 5.26644 1.65379 0
M  V30 5042 H 471.84 3.45691 2.31596 0
M  V30 5043 H 470.716 4.29805 3.41407 0
M  V30 5044 H 470.977 2.57064 3.59681 0
M  V30 5045 N 470.036 -0.519951 1.48776 0
M  V30 5046 C 471.283 -1.27522 1.57303 0
M  V30 5047 C 471.611 -1.92869 0.251328 0
M  V30 5048 O 470.866 -1.80372 -0.759243 0
M  V30 5049 C 471.165 -2.37864 2.6675 0
M  V30 5050 C 470.831 -1.90103 4.08867 0
M  V30 5051 C 469.493 -1.76795 4.47546 0
M  V30 5052 C 471.845 -1.54133 4.97888 0
M  V30 5053 C 469.173 -1.25868 5.73039 0
M  V30 5054 C 471.525 -1.04665 6.23881 0
M  V30 5055 C 470.189 -0.899823 6.61407 0
M  V30 5056 H 469.459 -0.466636 0.575614 0
M  V30 5057 H 472.106 -0.579109 1.82534 0
M  V30 5058 H 470.411 -3.13186 2.35418 0
M  V30 5059 H 472.108 -2.95969 2.70561 0
M  V30 5060 H 468.698 -2.01414 3.78326 0
M  V30 5061 H 472.882 -1.6327 4.68675 0
M  V30 5062 H 468.138 -1.13196 6.0083 0
M  V30 5063 H 472.312 -0.759074 6.92251 0
M  V30 5064 H 469.939 -0.503011 7.58534 0
M  V30 5065 N 471.514 -1.37532 -0.769588 0
M  V30 5066 C 472.742 -1.36059 -1.55871 0
M  V30 5067 C 473.157 0.053544 -1.88724 0
M  V30 5068 O 472.514 1.01591 -1.5161 0
M  V30 5069 C 472.565 -2.20107 -2.86767 0
M  V30 5070 O 472.286 -3.56009 -2.55321 0
M  V30 5071 C 473.787 -2.26636 -3.80987 0
M  V30 5072 H 471.007 -0.465967 -0.482821 0
M  V30 5073 H 473.551 -1.80901 -0.953686 0
M  V30 5074 H 471.706 -1.78768 -3.43687 0
M  V30 5075 H 472.12 -4.0009 -3.39158 0
M  V30 5076 H 473.594 -2.89763 -4.69831 0
M  V30 5077 H 474.071 -1.2754 -4.20274 0
M  V30 5078 H 474.677 -2.68296 -3.29996 0
M  V30 5079 N 472.992 0.995999 -1.22138 0
M  V30 5080 C 473.925 2.08302 -0.931952 0
M  V30 5081 C 474.903 1.62127 0.123956 0
M  V30 5082 O 476.087 1.88499 -0.00696004 0
M  V30 5083 C 473.214 3.36317 -0.401068 0
M  V30 5084 C 472.26 4.01413 -1.44117 0
M  V30 5085 S 473.093 4.42664 -3.01345 0
M  V30 5086 C 474.249 5.73853 -2.49887 0
M  V30 5087 H 474.482 2.32532 -1.85246 0
M  V30 5088 H 472.015 1.13005 -1.0521 0
M  V30 5089 H 473.973 4.10375 -0.101352 0
M  V30 5090 H 472.634 3.10123 0.498272 0
M  V30 5091 H 471.827 4.9358 -1.01952 0
M  V30 5092 H 471.429 3.33668 -1.68943 0
M  V30 5093 H 473.721 6.50039 -1.90934 0
M  V30 5094 H 474.664 6.20841 -3.40532 0
M  V30 5095 H 475.072 5.31105 -1.9128 0
M  V30 5096 N 474.47 1.03057 1.19235 0
M  V30 5097 C 475.719 0.72326 1.88287 0
M  V30 5098 C 476.032 -0.751333 1.80594 0
M  V30 5099 O 477.238 -1.17176 2.44912 0
M  V30 5100 C 475.694 1.24338 3.3774 0
M  V30 5101 C 475.302 2.74587 3.53986 0
M  V30 5102 C 477.046 1.01213 4.12257 0
M  V30 5103 C 474.953 3.20009 4.97341 0
M  V30 5104 H 473.883 0.266848 0.705201 0
M  V30 5105 H 476.534 1.24509 1.34795 0
M  V30 5106 H 474.916 0.649457 3.90638 0
M  V30 5107 H 476.09 3.39649 3.11408 0
M  V30 5108 H 474.405 2.9601 2.9286 0
M  V30 5109 H 477.002 1.32675 5.17978 0
M  V30 5110 H 477.345 -0.051001 4.16269 0
M  V30 5111 H 477.878 1.57014 3.65501 0
M  V30 5112 H 474.617 4.25659 4.98493 0
M  V30 5113 H 474.137 2.59676 5.40674 0
M  V30 5114 H 475.816 3.13447 5.66003 0
M  V30 5115 N 475.948 -1.35272 0.808662 0
M  V30 5116 C 477.195 -1.98709 0.390003 0
M  V30 5117 C 477.523 -1.64148 -1.04335 0
M  V30 5118 O 476.778 -0.897797 -1.73891 0
M  V30 5119 C 477.077 -3.53556 0.522798 0
M  V30 5120 C 476.743 -4.0799 1.91977 0
M  V30 5121 C 475.405 -4.22568 2.30195 0
M  V30 5122 C 477.757 -4.37442 2.83361 0
M  V30 5123 C 475.085 -4.63918 3.59162 0
M  V30 5124 C 477.437 -4.80232 4.11776 0
M  V30 5125 C 476.101 -4.93016 4.49991 0
M  V30 5126 H 475.371 -0.727127 0.142712 0
M  V30 5127 H 478.018 -1.6145 1.02985 0
M  V30 5128 H 476.323 -3.91287 -0.200494 0
M  V30 5129 H 478.02 -4.00598 0.179608 0
M  V30 5130 H 474.61 -3.97096 1.61284 0
M  V30 5131 H 478.794 -4.25731 2.55083 0
M  V30 5132 H 474.05 -4.72005 3.88615 0
M  V30 5133 H 478.224 -5.01982 4.82687 0
M  V30 5134 H 475.851 -5.24814 5.49976 0
M  V30 5135 N 477.426 -0.562348 -1.47226 0
M  V30 5136 C 478.672 -0.0402761 -2.0276 0
M  V30 5137 C 479.005 1.30823 -1.43523 0
M  V30 5138 O 478.28 1.85249 -0.592705 0
M  V30 5139 C 478.563 0.047311 -3.60069 0
M  V30 5140 C 478.416 -1.32865 -4.29729 0
M  V30 5141 C 479.735 0.758182 -4.3352 0
M  V30 5142 H 476.854 -0.0161105 -0.736824 0
M  V30 5143 H 479.496 -0.725628 -1.75598 0
M  V30 5144 H 477.646 0.630986 -3.83342 0
M  V30 5145 H 479.318 -1.95593 -4.17781 0
M  V30 5146 H 477.561 -1.90195 -3.89882 0
M  V30 5147 H 478.232 -1.22004 -5.38349 0
M  V30 5148 H 480.708 0.262546 -4.15271 0
M  V30 5149 H 479.584 0.78844 -5.43208 0
M  V30 5150 H 479.845 1.81537 -4.03109 0
M  V30 5151 N 478.904 1.54736 -0.299062 0
M  V30 5152 C 480.132 2.04512 0.313447 0
M  V30 5153 C 480.547 1.17643 1.47667 0
M  V30 5154 O 479.904 0.20164 1.81383 0
M  V30 5155 C 479.955 3.53171 0.771542 0
M  V30 5156 O 479.676 4.36736 -0.345379 0
M  V30 5157 C 481.177 4.18936 1.4494 0
M  V30 5158 H 478.397 0.667507 0.0683784 0
M  V30 5159 H 480.941 1.99752 -0.438129 0
M  V30 5160 H 479.096 3.58298 1.47314 0
M  V30 5161 H 479.51 5.24499 0.0109219 0
M  V30 5162 H 480.984 5.24482 1.72111 0
M  V30 5163 H 481.461 3.68554 2.38883 0
M  V30 5164 H 482.067 4.17879 0.791028 0
M  V30 5165 N 480.382 0.0267497 1.57577 0
M  V30 5166 C 481.312 -0.954308 2.13108 0
M  V30 5167 C 482.293 -1.34088 1.04663 0
M  V30 5168 O 483.478 -1.41992 1.32484 0
M  V30 5169 C 480.608 -2.23744 2.65624 0
M  V30 5170 C 479.562 -1.99168 3.78835 0
M  V30 5171 C 478.888 -3.33726 4.17769 0
M  V30 5172 C 480.188 -1.33277 5.0501 0
M  V30 5173 H 481.882 -0.491848 2.95332 0
M  V30 5174 H 479.428 -0.23514 1.42067 0
M  V30 5175 H 481.381 -2.92754 3.03106 0
M  V30 5176 H 480.105 -2.72151 1.80558 0
M  V30 5177 H 478.764 -1.32577 3.41788 0
M  V30 5178 H 478.412 -3.79888 3.29688 0
M  V30 5179 H 478.112 -3.18089 4.94058 0
M  V30 5180 H 479.636 -4.04008 4.57832 0
M  V30 5181 H 481.05 -1.92283 5.40093 0
M  V30 5182 H 479.447 -1.28045 5.8628 0
M  V30 5183 H 480.517 -0.305411 4.83937 0
M  V30 5184 N 481.861 -1.55662 -0.24637 0
M  V30 5185 C 483.086 -1.81914 -0.996093 0
M  V30 5186 C 483.511 -0.603875 -1.78143 0
M  V30 5187 O 482.869 0.447091 -1.75701 0
M  V30 5188 C 482.917 -3.05908 -1.90925 0
M  V30 5189 O 482.021 -2.82861 -3.00105 0
M  V30 5190 H 481.362 -0.600481 -0.283406 0
M  V30 5191 H 483.892 -2.02848 -0.267199 0
M  V30 5192 H 483.902 -3.35356 -2.3238 0
M  V30 5193 H 482.577 -3.93999 -1.33183 0
M  V30 5194 H 481.154 -2.64583 -2.62775 0
M  V30 5195 N 483.339 0.512053 -1.4905 0
M  V30 5196 C 484.588 1.26343 -1.57227 0
M  V30 5197 C 484.901 1.93876 -0.259155 0
M  V30 5198 O 486.107 2.70612 -0.219358 0
M  V30 5199 C 484.563 2.29343 -2.77362 0
M  V30 5200 C 484.171 1.67799 -4.15388 0
M  V30 5201 C 485.915 3.05378 -2.94864 0
M  V30 5202 C 483.822 2.68845 -5.2676 0
M  V30 5203 H 482.752 0.475231 -0.585382 0
M  V30 5204 H 485.403 0.53862 -1.75417 0
M  V30 5205 H 483.785 3.04938 -2.52643 0
M  V30 5206 H 484.959 0.982715 -4.50199 0
M  V30 5207 H 483.274 1.04194 -4.03153 0
M  V30 5208 H 485.871 3.80921 -3.75238 0
M  V30 5209 H 486.214 3.62327 -2.05 0
M  V30 5210 H 486.747 2.36898 -3.19569 0
M  V30 5211 H 483.486 2.16692 -6.18647 0
M  V30 5212 H 483.006 3.36647 -4.96416 0
M  V30 5213 H 484.685 3.31487 -5.5563 0
M  V30 5214 N 484.817 1.37938 0.762283 0
M  V30 5215 C 485.75 1.2884 1.88349 0
M  V30 5216 C 486.728 0.167084 1.61739 0
M  V30 5217 O 487.912 0.34292 1.85355 0
M  V30 5218 C 485.039 0.994257 3.23778 0
M  V30 5219 C 484.085 2.13376 3.69287 0
M  V30 5220 S 484.918 3.75439 3.81845 0
M  V30 5221 C 486.074 3.48195 5.20107 0
M  V30 5222 H 486.307 2.23736 1.95779 0
M  V30 5223 H 483.84 1.23672 0.924368 0
M  V30 5224 H 485.798 0.83138 4.01993 0
M  V30 5225 H 484.459 0.0626251 3.14038 0
M  V30 5226 H 483.652 1.88319 4.67495 0
M  V30 5227 H 483.254 2.25726 2.98201 0
M  V30 5228 H 485.546 3.0377 6.05583 0
M  V30 5229 H 486.489 4.45765 5.50181 0
M  V30 5230 H 486.897 2.82905 4.88493 0
M  V30 5231 N 486.295 -0.989507 1.22664 0
M  V30 5232 C 487.541 -1.7321 1.05481 0
M  V30 5233 C 487.874 -1.89852 -0.408635 0
M  V30 5234 O 487.149 -1.44416 -1.30285 0
M  V30 5235 C 487.432 -3.1357 1.77047 0
M  V30 5236 C 487.285 -3.04555 3.31008 0
M  V30 5237 C 488.604 -4.12812 1.5256 0
M  V30 5238 H 485.723 -0.628697 0.384589 0
M  V30 5239 H 488.365 -1.15258 1.51049 0
M  V30 5240 H 486.515 -3.63046 1.3831 0
M  V30 5241 H 488.187 -2.62674 3.7921 0
M  V30 5242 H 486.43 -2.41278 3.6051 0
M  V30 5243 H 487.101 -4.03894 3.76263 0
M  V30 5244 H 489.577 -3.72106 1.86215 0
M  V30 5245 H 488.453 -5.09132 2.05124 0
M  V30 5246 H 488.714 -4.39711 0.458936 0
M  V30 5247 N 487.773 -1.03688 -1.18687 0
M  V30 5248 C 489.001 -0.757918 -1.92518 0
M  V30 5249 C 489.416 0.684398 -1.75959 0
M  V30 5250 O 488.773 1.46617 -1.08673 0
M  V30 5251 C 488.824 -1.10985 -3.44042 0
M  V30 5252 O 488.545 -2.49554 -3.60076 0
M  V30 5253 C 490.046 -0.854844 -4.3498 0
M  V30 5254 H 487.266 -0.276699 -0.611293 0
M  V30 5255 H 489.81 -1.38352 -1.50595 0
M  V30 5256 H 487.965 -0.529279 -3.83767 0
M  V30 5257 H 488.379 -2.6291 -4.53849 0
M  V30 5258 H 489.853 -1.15098 -5.39867 0
M  V30 5259 H 490.33 0.210507 -4.38695 0
M  V30 5260 H 490.936 -1.41853 -4.00946 0
M  V30 5261 N 489.251 1.34841 -0.815825 0
M  V30 5262 C 490.497 1.98793 -0.401129 0
M  V30 5263 C 490.83 1.64548 1.03139 0
M  V30 5264 O 490.105 0.913487 1.71714 0
M  V30 5265 C 490.388 3.55143 -0.595409 0
M  V30 5266 C 490.241 3.99155 -2.07352 0
M  V30 5267 C 491.56 4.40092 -0.0268823 0
M  V30 5268 H 488.679 0.722146 -0.14722 0
M  V30 5269 H 491.321 1.59847 -1.02707 0
M  V30 5270 H 489.471 3.8845 -0.0625779 0
M  V30 5271 H 491.143 3.76216 -2.66945 0
M  V30 5272 H 489.386 3.49726 -2.56659 0
M  V30 5273 H 490.057 5.07971 -2.1603 0
M  V30 5274 H 492.533 4.13298 -0.482042 0
M  V30 5275 H 491.409 5.48562 -0.19267 0
M  V30 5276 H 491.67 4.29016 1.06759 0
M  V30 5277 N 490.729 0.570148 1.46925 0
M  V30 5278 C 491.976 0.0509529 2.02436 0
M  V30 5279 C 492.304 -1.30405 1.44308 0
M  V30 5280 O 491.559 -1.86493 0.593198 0
M  V30 5281 C 491.858 -0.0780336 3.57315 0
M  V30 5282 C 491.524 1.20775 4.34424 0
M  V30 5283 C 490.186 1.56004 4.5521 0
M  V30 5284 C 492.538 2.0592 4.78797 0
M  V30 5285 C 489.866 2.76201 5.17619 0
M  V30 5286 C 492.218 3.25332 5.42533 0
M  V30 5287 C 490.882 3.60859 5.61549 0
M  V30 5288 H 490.152 0.018645 0.740765 0
M  V30 5289 H 492.799 0.744262 1.76445 0
M  V30 5290 H 491.104 -0.854394 3.82371 0
M  V30 5291 H 492.801 -0.495312 3.97929 0
M  V30 5292 H 489.391 0.923469 4.18533 0
M  V30 5293 H 493.575 1.80008 4.62505 0
M  V30 5294 H 488.831 3.0388 5.30535 0
M  V30 5295 H 493.005 3.91586 5.75876 0
M  V30 5296 H 490.632 4.54088 6.09678 0
M  V30 5297 N 492.207 -1.54576 0.307264 0
M  V30 5298 C 493.17 -2.22423 -0.553224 0
M  V30 5299 C 494.17 -1.21231 -1.05639 0
M  V30 5300 O 495.36 -1.45923 -0.951419 0
M  V30 5301 C 492.492 -2.91552 -1.76664 0
M  V30 5302 H 493.685 -2.99874 0.0396484 0
M  V30 5303 H 491.238 -1.56192 0.0581629 0
M  V30 5304 H 491.973 -2.18196 -2.39918 0
M  V30 5305 H 491.758 -3.65738 -1.41343 0
M  V30 5306 H 493.248 -3.43292 -2.37783 0
M  V30 5307 N 493.685 -0.035106 -1.57561 0
M  V30 5308 C 494.934 0.641604 -1.91223 0
M  V30 5309 C 495.247 1.72944 -0.913761 0
M  V30 5310 O 496.453 2.46321 -1.14185 0
M  V30 5311 C 494.909 1.19249 -3.3957 0
M  V30 5312 C 494.517 0.137616 -4.47789 0
M  V30 5313 C 496.261 1.84537 -3.82291 0
M  V30 5314 C 494.168 0.700478 -5.87237 0
M  V30 5315 H 493.098 0.243417 -0.713627 0
M  V30 5316 H 495.749 -0.101382 -1.8322 0
M  V30 5317 H 494.131 1.98728 -3.42525 0
M  V30 5318 H 495.305 -0.635153 -4.56402 0
M  V30 5319 H 493.62 -0.416855 -4.14308 0
M  V30 5320 H 496.217 2.27616 -4.83834 0
M  V30 5321 H 496.56 2.69054 -3.17672 0
M  V30 5322 H 497.093 1.11739 -3.81784 0
M  V30 5323 H 493.832 -0.106693 -6.55413 0
M  V30 5324 H 493.352 1.4416 -5.82218 0
M  V30 5325 H 495.031 1.18837 -6.35993 0
M  V30 5326 N 495.163 1.55791 0.238111 0
M  V30 5327 C 496.111 1.91885 1.31464 0
M  V30 5328 C 497.105 0.798929 1.49377 0
M  V30 5329 O 498.311 0.983626 1.50747 0
M  V30 5330 H 494.686 0.609551 0.440399 0
M  V30 5331 H 496.657 2.81747 0.982925 0
M  V30 5332 C 495.406 2.23763 2.6613 0
M  V30 5333 H 494.729 3.09444 2.53149 0
M  V30 5334 H 496.169 2.52915 3.40309 0
M  V30 5335 C 494.628 1.05699 3.1989 0
M  V30 5336 O 495.158 0.309524 4.00506 0
M  V30 5337 N 493.364 0.845251 2.78036 0
M  V30 5338 H 492.911 1.4548 2.12588 0
M  V30 5339 H 492.869 0.0569973 3.14348 0
M  V30 5340 N 496.642 -0.504142 1.49319 0
M  V30 5341 C 497.891 -1.25507 1.57895 0
M  V30 5342 C 498.204 -1.93735 0.269433 0
M  V30 5343 O 499.41 -2.70492 0.233706 0
M  V30 5344 C 497.866 -2.27869 2.78574 0
M  V30 5345 C 497.474 -1.65594 4.16272 0
M  V30 5346 C 499.218 -3.0381 2.96479 0
M  V30 5347 C 497.125 -2.66048 5.28178 0
M  V30 5348 H 496.055 -0.47212 0.587894 0
M  V30 5349 H 498.706 -0.52931 1.757 0
M  V30 5350 H 497.088 -3.03594 2.54257 0
M  V30 5351 H 498.262 -0.958826 4.50714 0
M  V30 5352 H 496.577 -1.02055 4.037 0
M  V30 5353 H 499.174 -3.78925 3.77253 0
M  V30 5354 H 499.517 -3.61235 2.06918 0
M  V30 5355 H 500.05 -2.352 3.20821 0
M  V30 5356 H 496.789 -2.13408 6.19788 0
M  V30 5357 H 496.309 -3.34009 4.98195 0
M  V30 5358 H 497.988 -3.28536 5.57381 0
M  V30 5359 N 498.12 -1.38341 -0.754957 0
M  V30 5360 C 499.07 -1.31964 -1.85929 0
M  V30 5361 C 500.054 -0.204181 -1.59599 0
M  V30 5362 O 501.246 -0.440036 -1.71443 0
M  V30 5363 C 498.375 -1.14565 -3.2362 0
M  V30 5364 C 497.461 -2.30727 -3.55846 0
M  V30 5365 N 497.852 -3.56165 -3.59138 0
M  V30 5366 C 496.15 -2.23249 -3.86104 0
M  V30 5367 C 496.851 -4.32865 -3.88591 0
M  V30 5368 N 495.827 -3.62203 -4.05351 0
M  V30 5369 H 499.629 -2.2694 -1.8675 0
M  V30 5370 H 497.143 -1.31553 -0.952243 0
M  V30 5371 H 499.14 -1.0808 -4.02647 0
M  V30 5372 H 497.8 -0.205212 -3.24051 0
M  V30 5373 H 498.811 -3.89854 -3.40932 0
M  V30 5374 H 495.488 -1.37357 -3.94258 0
M  V30 5375 H 496.878 -5.41504 -3.97773 0
M  V30 5376 N 499.598 0.982988 -1.23187 0
M  V30 5377 C 500.548 2.05962 -0.977942 0
M  V30 5378 C 501.532 1.60725 0.0751148 0
M  V30 5379 O 502.724 1.76471 -0.136683 0
M  V30 5380 C 499.853 3.38564 -0.568276 0
M  V30 5381 C 498.939 3.90407 -1.6566 0
M  V30 5382 N 499.33 4.15359 -2.88635 0
M  V30 5383 C 497.628 4.18915 -1.53058 0
M  V30 5384 C 498.329 4.57642 -3.5908 0
M  V30 5385 N 497.305 4.6192 -2.86584 0
M  V30 5386 H 501.107 2.23208 -1.91195 0
M  V30 5387 H 498.621 1.16555 -1.13087 0
M  V30 5388 H 500.618 4.15276 -0.36764 0
M  V30 5389 H 499.278 3.22712 0.358713 0
M  V30 5390 H 500.289 4.03258 -3.24966 0
M  V30 5391 H 496.966 4.12081 -0.670506 0
M  V30 5392 H 498.356 4.85488 -4.6449 0
M  V30 5393 N 501.076 1.04316 1.18135 0
M  V30 5394 C 502.492 0.762858 1.40188 0
M  V30 5395 C 502.692 -0.646547 1.90846 0
M  V30 5396 O 501.748 -1.41036 2.0944 0
M  V30 5397 C 503.061 1.81106 2.40044 0
M  V30 5398 C 504.609 1.83226 2.53766 0
M  V30 5399 C 505.084 2.87044 3.56889 0
M  V30 5400 N 506.575 2.85951 3.64398 0
M  V30 5401 C 507.31 3.62932 4.43923 0
M  V30 5402 N 506.806 4.49672 5.27036 0
M  V30 5403 N 508.599 3.51411 4.38711 0
M  V30 5404 H 500.75 1.95264 0.835805 0
M  V30 5405 H 503.013 0.845017 0.429709 0
M  V30 5406 H 502.719 2.82214 2.09876 0
M  V30 5407 H 502.593 1.64529 3.39426 0
M  V30 5408 H 504.98 0.827869 2.8325 0
M  V30 5409 H 505.061 2.03879 1.54489 0
M  V30 5410 H 504.705 3.87663 3.28145 0
M  V30 5411 H 504.635 2.63645 4.5585 0
M  V30 5412 H 507.126 2.23051 3.05052 0
M  V30 5413 H 507.439 5.05116 5.84874 0
M  V30 5414 H 505.784 4.53738 5.26447 0
M  V30 5415 H 508.975 2.83047 3.72829 0
M  V30 5416 H 509.148 4.11654 5.00445 0
M  V30 5417 N 502.554 -1.34406 0.822964 0
M  V30 5418 C 503.779 -2.0304 0.423034 0
M  V30 5419 C 504.204 -1.61568 -0.963196 0
M  V30 5420 O 503.562 -0.800339 -1.62678 0
M  V30 5421 C 503.61 -3.56636 0.53321 0
M  V30 5422 O 502.714 -4.09971 -0.446939 0
M  V30 5423 H 502.055 -0.64075 0.174171 0
M  V30 5424 H 504.585 -1.71653 1.11339 0
M  V30 5425 H 504.595 -4.05945 0.408991 0
M  V30 5426 H 503.27 -3.86168 1.54425 0
M  V30 5427 H 501.847 -3.71835 -0.281601 0
M  V30 5428 N 504.032 -0.577932 -1.46621 0
M  V30 5429 C 505.257 -0.0652536 -2.07297 0
M  V30 5430 C 505.682 1.22828 -1.4246 0
M  V30 5431 O 505.04 1.74075 -0.506718 0
M  V30 5432 C 505.088 0.0920589 -3.60482 0
M  V30 5433 O 504.192 1.14972 -3.96049 0
M  V30 5434 H 503.533 -0.06065 -0.661224 0
M  V30 5435 H 506.063 -0.799515 -1.88332 0
M  V30 5436 H 506.073 0.299741 -4.06897 0
M  V30 5437 H 504.748 -0.852612 -4.07067 0
M  V30 5438 H 503.325 0.920879 -3.61351 0
M  V30 5439 N 505.51 1.54411 -0.315457 0
M  V30 5440 C 506.735 2.05299 0.294496 0
M  V30 5441 C 507.16 1.19052 1.4563 0
M  V30 5442 O 506.518 0.197804 1.80218 0
M  V30 5443 C 506.566 3.5345 0.714549 0
M  V30 5444 O 505.67 3.70175 1.81781 0
M  V30 5445 H 505.011 0.661743 0.0547019 0
M  V30 5446 H 507.541 1.99327 -0.461508 0
M  V30 5447 H 507.551 3.9557 0.999426 0
M  V30 5448 H 506.226 4.1568 -0.135244 0
M  V30 5449 H 504.803 3.3996 1.53236 0
M  V30 5450 N 506.988 0.0434614 1.5754 0
M  V30 5451 C 508.216 -0.641835 1.96693 0
M  V30 5452 C 508.631 -1.64832 0.920652 0
M  V30 5453 O 507.988 -1.82247 -0.095993 0
M  V30 5454 C 508.039 -1.33557 3.35924 0
M  V30 5455 O 507.76 -0.369403 4.3654 0
M  V30 5456 C 509.261 -2.11135 3.89791 0
M  V30 5457 H 506.481 -0.176013 0.647503 0
M  V30 5458 H 509.025 0.107478 2.04217 0
M  V30 5459 H 507.18 -2.03617 3.29574 0
M  V30 5460 H 507.594 -0.863674 5.1734 0
M  V30 5461 H 509.068 -2.55107 4.89514 0
M  V30 5462 H 509.545 -2.95634 3.24803 0
M  V30 5463 H 510.151 -1.46002 3.99454 0
M  V30 5464 N 508.466 -1.55915 -0.229846 0
M  V30 5465 C 509.416 -1.8813 -1.28807 0
M  V30 5466 C 510.4 -0.743621 -1.42685 0
M  V30 5467 O 511.592 -1.00588 -1.4564 0
M  V30 5468 C 508.721 -2.19431 -2.64017 0
M  V30 5469 C 507.807 -3.39569 -2.54074 0
M  V30 5470 N 508.198 -4.58404 -2.13774 0
M  V30 5471 C 506.496 -3.43019 -2.85051 0
M  V30 5472 C 507.197 -5.40557 -2.1488 0
M  V30 5473 N 506.173 -4.80054 -2.55047 0
M  V30 5474 H 509.975 -2.77527 -0.967261 0
M  V30 5475 H 507.489 -1.5637 -0.438433 0
M  V30 5476 H 509.486 -2.40681 -3.40409 0
M  V30 5477 H 508.146 -1.31341 -2.9695 0
M  V30 5478 H 509.157 -4.83716 -1.8504 0
M  V30 5479 H 505.834 -2.65249 -3.22411 0
M  V30 5480 H 507.224 -6.45666 -1.85918 0
M  V30 5481 N 509.944 0.496216 -1.49584 0
M  V30 5482 C 510.892 1.61805 -1.67098 0
M  V30 5483 C 511.886 1.60667 -0.536877 0
M  V30 5484 O 513.092 1.65118 -0.716654 0
M  V30 5485 H 509.467 0.53646 -0.526986 0
M  V30 5486 H 511.438 1.44187 -2.61252 0
M  V30 5487 C 510.187 2.99912 -1.75921 0
M  V30 5488 H 509.51 3.01496 -2.62565 0
M  V30 5489 H 510.95 3.77931 -1.92209 0
M  V30 5490 C 509.409 3.33092 -0.505088 0
M  V30 5491 O 509.939 4.00019 0.367085 0
M  V30 5492 N 508.145 2.88278 -0.366599 0
M  V30 5493 H 507.692 2.33989 -1.07735 0
M  V30 5494 H 507.65 3.10846 0.47142 0
M  V30 5495 N 511.423 1.38739 0.74761 0
M  V30 5496 C 512.386 1.36241 1.84312 0
M  V30 5497 C 513.386 0.261811 1.58654 0
M  V30 5498 O 514.576 0.519031 1.66288 0
M  V30 5499 C 511.708 1.12253 3.21888 0
M  V30 5500 H 512.901 2.33712 1.87933 0
M  V30 5501 H 510.454 1.2412 0.949946 0
M  V30 5502 H 511.189 0.154133 3.23934 0
M  V30 5503 H 510.974 1.91943 3.41907 0
M  V30 5504 H 512.464 1.13215 4.0196 0
M  V30 5505 N 512.901 -0.976442 1.23707 0
M  V30 5506 C 513.834 -2.06793 0.964973 0
M  V30 5507 C 514.812 -1.62304 -0.0981472 0
M  V30 5508 O 515.996 -1.88464 0.0369477 0
M  V30 5509 C 513.123 -3.35636 0.454522 0
M  V30 5510 C 512.169 -3.99069 1.50485 0
M  V30 5511 S 513.002 -4.37814 3.0835 0
M  V30 5512 C 514.158 -5.69805 2.58985 0
M  V30 5513 H 514.391 -2.29556 1.88922 0
M  V30 5514 H 511.924 -1.11317 1.06995 0
M  V30 5515 H 513.882 -4.10162 0.166626 0
M  V30 5516 H 512.543 -3.10876 -0.448871 0
M  V30 5517 H 511.736 -4.91896 1.09792 0
M  V30 5518 H 511.338 -3.30938 1.7423 0
M  V30 5519 H 513.63 -6.46919 2.01252 0
M  V30 5520 H 514.573 -6.15345 3.50366 0
M  V30 5521 H 514.981 -5.27994 1.99705 0
M  V30 5522 N 514.379 -1.04941 -1.1758 0
M  V30 5523 C 515.342 -0.652456 -2.19717 0
M  V30 5524 C 516.342 0.294745 -1.58076 0
M  V30 5525 O 517.532 0.0789579 -1.74021 0
M  V30 5526 C 514.664 0.0420712 -3.40874 0
M  V30 5527 H 515.857 -1.55642 -2.5635 0
M  V30 5528 H 513.41 -0.842995 -1.31618 0
M  V30 5529 H 514.145 0.95943 -3.09783 0
M  V30 5530 H 513.93 -0.638844 -3.86861 0
M  V30 5531 H 515.42 0.306 -4.16477 0
M  V30 5532 N 515.857 1.33968 -0.830081 0
M  V30 5533 C 517.268 1.80439 -0.479455 0
M  V30 5534 C 517.619 1.68756 1.00079 0
M  V30 5535 O 516.744 1.23171 1.77927 0
M  V30 5536 C 517.339 3.27611 -0.863505 0
M  V30 5537 C 515.898 3.72133 -0.565145 0
M  V30 5538 C 515.045 2.55549 -1.07657 0
M  V30 5539 H 517.996 1.21614 -1.0196 0
M  V30 5540 H 518.017 3.8012 -0.170083 0
M  V30 5541 H 517.529 3.36082 -1.94089 0
M  V30 5542 H 515.63 3.69196 0.502536 0
M  V30 5543 H 515.743 4.65963 -1.11422 0
M  V30 5544 H 514.107 2.49788 -0.497807 0
M  V30 5545 H 514.89 2.66786 -2.16055 0
M  V30 5546 N 517.335 0.585699 1.46312 0
M  V30 5547 C 518.265 -0.133556 2.33118 0
M  V30 5548 C 519.246 -0.880707 1.45525 0
M  V30 5549 O 520.431 -0.855579 1.74337 0
M  V30 5550 C 517.561 -1.14585 3.27853 0
M  V30 5551 C 516.515 -0.513341 4.2491 0
M  V30 5552 C 515.841 -1.63231 5.09175 0
M  V30 5553 C 517.141 0.551413 5.19381 0
M  V30 5554 H 518.835 0.59121 2.93505 0
M  V30 5555 H 516.381 0.285761 1.41136 0
M  V30 5556 H 518.334 -1.65741 3.87438 0
M  V30 5557 H 517.058 -1.90093 2.65579 0
M  V30 5558 H 515.717 -0.0228349 3.66593 0
M  V30 5559 H 515.365 -2.37713 4.43285 0
M  V30 5560 H 515.065 -1.21473 5.74907 0
M  V30 5561 H 516.589 -2.14658 5.71624 0
M  V30 5562 H 518.003 0.124804 5.73164 0
M  V30 5563 H 516.4 0.889486 5.93471 0
M  V30 5564 H 517.47 1.43655 4.63132 0
M  V30 5565 N 518.813 -1.54241 0.323641 0
M  V30 5566 C 520.059 -2.00867 -0.279323 0
M  V30 5567 C 520.392 -1.21146 -1.5178 0
M  V30 5568 O 519.667 -0.29378 -1.92269 0
M  V30 5569 C 519.95 -3.54837 -0.613387 0
M  V30 5570 C 519.803 -4.45284 0.635803 0
M  V30 5571 C 521.122 -4.16186 -1.43099 0
M  V30 5572 H 518.241 -0.730177 -0.100049 0
M  V30 5573 H 520.883 -1.84829 0.440235 0
M  V30 5574 H 519.033 -3.68634 -1.22641 0
M  V30 5575 H 520.705 -4.43357 1.27406 0
M  V30 5576 H 518.948 -4.14956 1.26466 0
M  V30 5577 H 519.619 -5.5084 0.357597 0
M  V30 5578 H 522.095 -4.05964 -0.912814 0
M  V30 5579 H 520.971 -5.24031 -1.6335 0
M  V30 5580 H 521.232 -3.69516 -2.42715 0
M  V30 5581 N 520.291 -0.0518155 -1.57515 0
M  V30 5582 C 521.707 0.304735 -1.56664 0
M  V30 5583 C 521.907 1.71395 -1.05953 0
M  V30 5584 O 520.963 2.42123 -0.716414 0
M  V30 5585 C 522.276 0.132614 -3.00407 0
M  V30 5586 C 523.824 0.20367 -3.12337 0
M  V30 5587 C 524.299 0.0600706 -4.57961 0
M  V30 5588 N 525.79 0.116326 -4.63054 0
M  V30 5589 C 526.525 0.0293363 -5.73392 0
M  V30 5590 N 526.021 -0.110038 -6.92713 0
M  V30 5591 N 527.814 0.0849651 -5.62036 0
M  V30 5592 H 519.965 -0.973056 -1.888 0
M  V30 5593 H 522.228 -0.377781 -0.869474 0
M  V30 5594 H 521.934 -0.839019 -3.41546 0
M  V30 5595 H 521.808 0.893376 -3.66468 0
M  V30 5596 H 524.195 1.16578 -2.71097 0
M  V30 5597 H 524.276 -0.587857 -2.48954 0
M  V30 5598 H 523.92 -0.898715 -4.99886 0
M  V30 5599 H 523.85 0.87075 -5.19351 0
M  V30 5600 H 526.341 0.22327 -3.7724 0
M  V30 5601 H 526.654 -0.169104 -7.72615 0
M  V30 5602 H 524.999 -0.145132 -6.94848 0
M  V30 5603 H 528.19 0.192411 -4.67704 0
M  V30 5604 H 528.363 0.0137131 -6.47999 0
M  V30 5605 N 521.769 1.56035 0.221574 0
M  V30 5606 C 522.716 1.92413 1.27459 0
M  V30 5607 C 523.686 0.781323 1.46576 0
M  V30 5608 O 524.871 1.03721 1.60145 0
M  V30 5609 C 522.011 2.24617 2.61995 0
M  V30 5610 C 521.124 3.51831 2.50677 0
M  V30 5611 C 520.259 3.73482 3.77736 0
M  V30 5612 C 519.298 4.94211 3.6114 0
M  V30 5613 N 518.435 5.12252 4.80148 0
M  V30 5614 H 523.275 2.82203 0.957355 0
M  V30 5615 H 520.812 1.39676 0.461415 0
M  V30 5616 H 522.77 2.41298 3.40339 0
M  V30 5617 H 521.4 1.38 2.91815 0
M  V30 5618 H 520.452 3.43343 1.63767 0
M  V30 5619 H 521.764 4.40328 2.34334 0
M  V30 5620 H 520.918 3.9026 4.64523 0
M  V30 5621 H 519.657 2.83266 3.97003 0
M  V30 5622 H 518.662 4.77384 2.72736 0
M  V30 5623 H 519.887 5.85912 3.43343 0
M  V30 5624 H 517.833 4.24978 4.99729 0
M  V30 5625 H 517.75 5.94881 4.66532 0
M  V30 5626 H 519.018 5.33465 5.68362 0
M  V30 5627 N 523.247 -0.488276 1.49845 0
M  V30 5628 C 524.496 -1.23826 1.59217 0
M  V30 5629 C 524.809 -1.93439 0.289966 0
M  V30 5630 O 526.015 -2.70229 0.262382 0
M  V30 5631 C 524.471 -2.24902 2.80976 0
M  V30 5632 C 524.079 -1.6117 4.18005 0
M  V30 5633 C 525.823 -3.00648 2.99685 0
M  V30 5634 C 523.73 -2.60431 5.3097 0
M  V30 5635 H 522.66 -0.465858 0.592868 0
M  V30 5636 H 525.311 -0.510645 1.76252 0
M  V30 5637 H 523.693 -3.0088 2.57463 0
M  V30 5638 H 524.867 -0.910968 4.51706 0
M  V30 5639 H 523.182 -0.97767 4.0476 0
M  V30 5640 H 525.779 -3.74903 3.81251 0
M  V30 5641 H 526.122 -3.5902 2.10738 0
M  V30 5642 H 526.655 -2.31784 3.23297 0
M  V30 5643 H 523.394 -2.06823 6.22017 0
M  V30 5644 H 522.914 -3.28707 5.01709 0
M  V30 5645 H 524.593 -3.22606 5.60834 0
M  V30 5646 N 524.725 -1.39134 -0.740242 0
M  V30 5647 C 525.972 -1.36071 -1.49969 0
M  V30 5648 C 526.3 0.0450245 -1.94448 0
M  V30 5649 O 525.555 1.02482 -1.66721 0
M  V30 5650 C 525.854 -2.27457 -2.75678 0
M  V30 5651 C 525.52 -3.75185 -2.50094 0
M  V30 5652 C 524.182 -4.15439 -2.42825 0
M  V30 5653 C 526.534 -4.68643 -2.28086 0
M  V30 5654 C 523.862 -5.4722 -2.11584 0
M  V30 5655 C 526.214 -6.00695 -1.98363 0
M  V30 5656 C 524.878 -6.40018 -1.8956 0
M  V30 5657 H 524.148 -0.497921 -0.548777 0
M  V30 5658 H 526.795 -1.71599 -0.85007 0
M  V30 5659 H 525.1 -1.8503 -3.45356 0
M  V30 5660 H 526.797 -2.22384 -3.33686 0
M  V30 5661 H 523.387 -3.43279 -2.56627 0
M  V30 5662 H 527.571 -4.3838 -2.32672 0
M  V30 5663 H 522.827 -5.76615 -2.03287 0
M  V30 5664 H 527.001 -6.72644 -1.80341 0
M  V30 5665 H 524.628 -7.42051 -1.65117 0
M  V30 5666 N 526.204 0.969867 -1.24223 0
M  V30 5667 C 527.134 2.08191 -1.05729 0
M  V30 5668 C 528.115 1.70075 0.0290765 0
M  V30 5669 O 529.3 1.93712 -0.137583 0
M  V30 5670 C 526.43 3.40991 -0.658995 0
M  V30 5671 C 525.384 3.93054 -1.69389 0
M  V30 5672 C 524.71 5.22171 -1.15072 0
M  V30 5673 C 526.01 4.21137 -3.08935 0
M  V30 5674 H 527.704 2.23921 -1.98746 0
M  V30 5675 H 525.25 1.07602 -0.956967 0
M  V30 5676 H 527.203 4.18221 -0.51662 0
M  V30 5677 H 525.927 3.25155 0.30686 0
M  V30 5678 H 524.586 3.17977 -1.82444 0
M  V30 5679 H 524.234 5.02694 -0.175539 0
M  V30 5680 H 523.934 5.57973 -1.84229 0
M  V30 5681 H 525.458 6.02013 -1.02042 0
M  V30 5682 H 526.872 4.8908 -2.99121 0
M  V30 5683 H 525.269 4.68163 -3.75425 0
M  V30 5684 H 526.339 3.27996 -3.57137 0
M  V30 5685 N 527.682 1.05563 1.17022 0
M  V30 5686 C 528.632 0.630007 2.19123 0
M  V30 5687 C 529.616 -0.335472 1.57364 0
M  V30 5688 O 530.808 -0.1521 1.76345 0
M  V30 5689 C 527.937 0.0101676 3.43298 0
M  V30 5690 C 527.023 0.999698 4.12149 0
M  V30 5691 N 527.414 2.17251 4.56766 0
M  V30 5692 C 525.712 0.829 4.38228 0
M  V30 5693 C 526.413 2.79883 5.09942 0
M  V30 5694 N 525.389 2.07656 5.02374 0
M  V30 5695 H 529.191 1.52353 2.51328 0
M  V30 5696 H 526.705 0.926288 1.33393 0
M  V30 5697 H 528.702 -0.312541 4.15727 0
M  V30 5698 H 527.362 -0.878707 3.12584 0
M  V30 5699 H 528.373 2.55067 4.50734 0
M  V30 5700 H 525.05 -0.00850974 4.17499 0
M  V30 5701 H 526.44 3.79362 5.54558 0
M  V30 5702 N 529.16 -1.33526 0.837174 0
M  V30 5703 C 530.388 -2.02047 0.445494 0
M  V30 5704 C 530.803 -1.62995 -0.952788 0
M  V30 5705 O 530.16 -0.842447 -1.61892 0
M  V30 5706 C 530.211 -3.57221 0.554577 0
M  V30 5707 O 529.932 -3.94863 1.89776 0
M  V30 5708 C 531.433 -4.43012 0.159634 0
M  V30 5709 H 528.653 -0.647221 0.177048 0
M  V30 5710 H 531.197 -1.70492 1.12928 0
M  V30 5711 H 529.352 -3.87315 -0.0812781 0
M  V30 5712 H 529.766 -4.89569 1.88208 0
M  V30 5713 H 531.24 -5.51253 0.28701 0
M  V30 5714 H 531.717 -4.29916 -0.898289 0
M  V30 5715 H 532.323 -4.18274 0.769855 0
M  V30 5716 N 530.638 -0.59345 -1.46 0
M  V30 5717 C 531.568 0.121192 -2.33185 0
M  V30 5718 C 532.549 0.872977 -1.4599 0
M  V30 5719 O 533.734 0.846321 -1.74789 0
M  V30 5720 C 530.864 1.12844 -3.28456 0
M  V30 5721 C 529.818 0.4908 -4.25177 0
M  V30 5722 C 529.144 1.60529 -5.10034 0
M  V30 5723 C 530.444 -0.578949 -5.19081 0
M  V30 5724 H 532.138 -0.606767 -2.93187 0
M  V30 5725 H 529.684 -0.293242 -1.40983 0
M  V30 5726 H 531.637 1.63684 -3.88311 0
M  V30 5727 H 530.361 1.88681 -2.66584 0
M  V30 5728 H 529.02 0.00339328 -3.666 0
M  V30 5729 H 528.668 2.35359 -4.44539 0
M  V30 5730 H 528.368 1.18422 -5.75543 0
M  V30 5731 H 529.892 2.11623 -5.72755 0
M  V30 5732 H 531.306 -0.155199 -5.7309 0
M  V30 5733 H 529.703 -0.920947 -5.92991 0
M  V30 5734 H 530.773 -1.46109 -4.62364 0
M  V30 5735 N 532.116 1.54067 -0.331816 0
M  V30 5736 C 533.527 1.86059 0.15454 0
M  V30 5737 C 533.878 1.25331 1.50952 0
M  V30 5738 O 533.003 0.562441 2.08963 0
M  V30 5739 C 533.598 3.37581 0.287192 0
M  V30 5740 C 532.157 3.69493 0.717773 0
M  V30 5741 C 531.304 2.76863 -0.155569 0
M  V30 5742 H 534.255 1.48797 -0.55182 0
M  V30 5743 H 534.276 3.63744 1.11671 0
M  V30 5744 H 533.788 3.81751 -0.699131 0
M  V30 5745 H 531.889 3.3086 1.71354 0
M  V30 5746 H 532.002 4.76315 0.5158 0
M  V30 5747 H 530.366 2.51995 0.370213 0
M  V30 5748 H 531.149 3.23861 -1.13881 0
M  V30 5749 N 533.594 0.0601682 1.57485 0
M  V30 5750 C 534.541 -0.91112 2.12055 0
M  V30 5751 C 535.511 -1.30298 1.03013 0
M  V30 5752 O 536.696 -1.39087 1.30612 0
M  V30 5753 C 533.836 -2.1775 2.67729 0
M  V30 5754 C 532.949 -1.83933 3.90887 0
M  V30 5755 C 532.084 -3.05096 4.34845 0
M  V30 5756 C 531.123 -2.67241 5.5068 0
M  V30 5757 N 530.26 -3.81127 5.8965 0
M  V30 5758 H 535.1 -0.43888 2.9475 0
M  V30 5759 H 532.637 -0.204995 1.45665 0
M  V30 5760 H 534.595 -2.91866 2.98111 0
M  V30 5761 H 533.225 -2.62535 1.87816 0
M  V30 5762 H 532.277 -0.999287 3.6704 0
M  V30 5763 H 533.589 -1.52074 4.75052 0
M  V30 5764 H 532.743 -3.87502 4.66827 0
M  V30 5765 H 531.482 -3.40139 3.49509 0
M  V30 5766 H 530.487 -1.83254 5.18361 0
M  V30 5767 H 531.712 -2.3338 6.37738 0
M  V30 5768 H 529.658 -4.15954 5.07266 0
M  V30 5769 H 529.575 -3.52997 6.68528 0
M  V30 5770 H 530.843 -4.64145 6.2625 0
M  V30 5771 N 535.072 -1.5615 -0.213296 0
M  V30 5772 C 536.002 -1.96109 -1.26742 0
M  V30 5773 C 536.983 -0.830448 -1.48451 0
M  V30 5774 O 538.168 -1.09339 -1.60495 0
M  V30 5775 C 535.298 -2.28492 -2.61551 0
M  V30 5776 C 534.252 -3.44124 -2.54485 0
M  V30 5777 C 533.578 -3.62134 -3.93399 0
M  V30 5778 C 534.878 -4.78855 -2.08556 0
M  V30 5779 H 536.572 -2.84412 -0.935434 0
M  V30 5780 H 534.118 -1.36836 -0.44854 0
M  V30 5781 H 536.071 -2.55039 -3.3546 0
M  V30 5782 H 534.795 -1.37052 -2.96453 0
M  V30 5783 H 533.454 -3.17639 -1.83033 0
M  V30 5784 H 533.102 -2.68055 -4.25623 0
M  V30 5785 H 532.802 -4.39913 -3.89551 0
M  V30 5786 H 534.326 -3.91038 -4.68958 0
M  V30 5787 H 535.74 -5.04552 -2.72213 0
M  V30 5788 H 534.137 -5.59975 -2.1575 0
M  V30 5789 H 535.207 -4.73657 -1.03811 0
M  V30 5790 N 536.55 0.480323 -1.50102 0
M  V30 5791 C 537.48 1.58769 -1.71215 0
M  V30 5792 C 538.461 1.60583 -0.560997 0
M  V30 5793 O 539.646 1.76996 -0.799127 0
M  V30 5794 C 536.776 2.97148 -1.79778 0
M  V30 5795 C 535.73 3.10201 -2.94888 0
M  V30 5796 C 535.056 4.50137 -2.88584 0
M  V30 5797 C 536.356 2.88283 -4.35534 0
M  V30 5798 H 538.05 1.41354 -2.6393 0
M  V30 5799 H 535.596 0.678591 -1.27008 0
M  V30 5800 H 537.549 3.74536 -1.93133 0
M  V30 5801 H 536.273 3.15699 -0.836772 0
M  V30 5802 H 534.932 2.35244 -2.81169 0
M  V30 5803 H 534.58 4.65593 -1.90349 0
M  V30 5804 H 534.28 4.59808 -3.65856 0
M  V30 5805 H 535.804 5.29558 -3.03976 0
M  V30 5806 H 537.218 3.55427 -4.49827 0
M  V30 5807 H 535.615 3.09408 -5.14186 0
M  V30 5808 H 536.685 1.84219 -4.48544 0
M  V30 5809 N 538.028 1.39524 0.732853 0
M  V30 5810 C 539.268 1.383 1.50508 0
M  V30 5811 C 539.632 -0.0208271 1.91989 0
M  V30 5812 O 540.833 -0.158091 2.68335 0
M  V30 5813 C 539.104 2.33007 2.71003 0
M  V30 5814 S 540.663 2.49989 3.60626 0
M  V30 5815 H 537.481 0.490417 0.514794 0
M  V30 5816 H 540.083 1.75641 0.858524 0
M  V30 5817 H 538.787 3.33862 2.38672 0
M  V30 5818 H 538.318 1.96889 3.40585 0
M  V30 5819 H 540.333 1.7394 4.64714 0
M  V30 5820 N 539.506 -0.963266 1.24736 0
M  V30 5821 C 540.439 -2.05758 0.986852 0
M  V30 5822 C 541.417 -1.62398 -0.0809272 0
M  V30 5823 O 542.601 -1.88414 0.0569347 0
M  V30 5824 C 539.728 -3.35135 0.490095 0
M  V30 5825 C 538.774 -3.97451 1.54709 0
M  V30 5826 S 539.607 -4.34519 3.12976 0
M  V30 5827 C 540.763 -5.67026 2.65014 0
M  V30 5828 H 540.996 -2.27539 1.91346 0
M  V30 5829 H 538.529 -1.10176 1.08169 0
M  V30 5830 H 540.487 -4.09962 0.21012 0
M  V30 5831 H 539.148 -3.11335 -0.415873 0
M  V30 5832 H 538.341 -4.90704 1.15003 0
M  V30 5833 H 537.943 -3.29071 1.77731 0
M  V30 5834 H 540.235 -6.44748 2.08102 0
M  V30 5835 H 541.178 -6.11594 3.56873 0
M  V30 5836 H 541.586 -5.25847 2.05294 0
M  V30 5837 N 540.985 -1.06182 -1.16461 0
M  V30 5838 C 542.401 -0.785065 -1.38956 0
M  V30 5839 C 542.601 0.616103 -1.9185 0
M  V30 5840 O 541.657 1.37686 -2.11657 0
M  V30 5841 C 542.97 -1.84902 -2.37132 0
M  V30 5842 C 544.518 -1.8724 -2.50819 0
M  V30 5843 C 544.993 -2.92686 -3.52277 0
M  V30 5844 N 546.484 -2.91712 -3.59803 0
M  V30 5845 C 547.219 -3.69949 -4.38093 0
M  V30 5846 N 546.715 -4.58 -5.19815 0
M  V30 5847 N 548.508 -3.58346 -4.33064 0
M  V30 5848 H 540.659 -1.96569 -0.804634 0
M  V30 5849 H 542.922 -0.851747 -0.416211 0
M  V30 5850 H 542.628 -2.85518 -2.0536 0
M  V30 5851 H 542.502 -1.69908 -3.36766 0
M  V30 5852 H 544.889 -0.872827 -2.81897 0
M  V30 5853 H 544.97 -2.06311 -1.51226 0
M  V30 5854 H 544.614 -3.92835 -3.21937 0
M  V30 5855 H 544.544 -2.70864 -4.51598 0
M  V30 5856 H 547.035 -2.27876 -3.01464 0
M  V30 5857 H 547.348 -5.14357 -5.76764 0
M  V30 5858 H 545.693 -4.62056 -5.19162 0
M  V30 5859 H 548.884 -2.88943 -3.68279 0
M  V30 5860 H 549.057 -4.19563 -4.93833 0
M  V30 5861 N 542.463 1.3308 -0.844243 0
M  V30 5862 C 543.688 2.02341 -0.455282 0
M  V30 5863 C 544.113 1.6308 0.93737 0
M  V30 5864 O 543.471 0.826118 1.61385 0
M  V30 5865 C 543.519 3.55743 -0.58988 0
M  V30 5866 O 542.623 4.1063 0.38166 0
M  V30 5867 H 541.964 0.637898 -0.184343 0
M  V30 5868 H 544.494 1.6986 -1.14056 0
M  V30 5869 H 544.504 4.05243 -0.473522 0
M  V30 5870 H 543.179 3.83662 -1.60549 0
M  V30 5871 H 541.756 3.72236 0.22241 0
M  V30 5872 N 543.941 0.601185 1.45683 0
M  V30 5873 C 544.891 -0.142686 2.27553 0
M  V30 5874 C 545.875 -0.844598 1.3695 0
M  V30 5875 O 547.067 -0.735644 1.60988 0
M  V30 5876 C 544.196 -1.14364 3.23691 0
M  V30 5877 C 543.282 -0.442894 4.21781 0
M  V30 5878 N 543.673 0.51189 5.03203 0
M  V30 5879 C 541.971 -0.691277 4.4061 0
M  V30 5880 C 542.672 0.92318 5.74328 0
M  V30 5881 N 541.648 0.268308 5.42937 0
M  V30 5882 H 545.45 0.590736 2.87902 0
M  V30 5883 H 542.964 0.424365 1.56757 0
M  V30 5884 H 544.961 -1.6909 3.8107 0
M  V30 5885 H 543.621 -1.87768 2.64902 0
M  V30 5886 H 544.632 0.888329 5.10225 0
M  V30 5887 H 541.309 -1.41049 3.92952 0
M  V30 5888 H 542.699 1.71029 6.49768 0
M  V30 5889 N 545.419 -1.53889 0.339982 0
M  V30 5890 C 546.665 -2.01152 -0.258003 0
M  V30 5891 C 546.998 -1.22749 -1.50487 0
M  V30 5892 O 546.273 -0.314156 -1.91946 0
M  V30 5893 C 546.556 -3.55468 -0.575717 0
M  V30 5894 C 546.409 -4.44584 0.682996 0
M  V30 5895 C 547.728 -4.1768 -1.38677 0
M  V30 5896 H 544.847 -0.731198 -0.0922992 0
M  V30 5897 H 547.489 -1.84352 0.459814 0
M  V30 5898 H 545.639 -3.69914 -1.18725 0
M  V30 5899 H 547.311 -4.41981 1.32102 0
M  V30 5900 H 545.554 -4.13592 1.3086 0
M  V30 5901 H 546.225 -5.5043 0.416001 0
M  V30 5902 H 548.701 -4.0691 -0.869705 0
M  V30 5903 H 547.577 -5.25734 -1.57783 0
M  V30 5904 H 547.838 -3.72069 -2.38782 0
M  V30 5905 N 546.897 -0.0685191 -1.57451 0
M  V30 5906 C 548.174 0.642167 -1.84758 0
M  V30 5907 C 548.554 1.87991 -0.960344 0
M  V30 5908 O 547.902 2.28485 -0.0257894 0
M  V30 5909 C 548.112 0.982946 -3.34872 0
M  V30 5910 C 549.46 1.35784 -4.02303 0
M  V30 5911 O 550.484 1.07477 -3.39598 0
M  V30 5912 O 549.343 1.88681 -5.12895 0
M  V30 5913 H 546.437 0.318625 -0.763156 0
M  V30 5914 H 548.983 -0.0992015 -1.6941 0
M  V30 5915 H 547.755 0.10372 -3.91163 0
M  V30 5916 H 547.378 1.78119 -3.55471 0
M  V30 5917 N 548.375 1.56261 0.205012 0
M  V30 5918 C 549.791 1.49623 0.555433 0
M  V30 5919 C 549.991 0.766719 1.86343 0
M  V30 5920 O 549.047 0.313158 2.50551 0
M  V30 5921 C 550.36 2.94253 0.619347 0
M  V30 5922 C 551.908 3.04868 0.708855 0
M  V30 5923 C 552.383 4.50888 0.803969 0
M  V30 5924 N 553.874 4.54999 0.867758 0
M  V30 5925 C 554.609 5.65284 0.96135 0
M  V30 5926 N 554.105 6.85282 1.01786 0
M  V30 5927 N 555.898 5.53174 0.997771 0
M  V30 5928 H 548.049 2.0211 -0.653094 0
M  V30 5929 H 550.312 0.919333 -0.231366 0
M  V30 5930 H 550.018 3.50643 -0.272458 0
M  V30 5931 H 549.892 3.47063 1.47741 0
M  V30 5932 H 552.279 2.48532 1.5911 0
M  V30 5933 H 552.36 2.55199 -0.175205 0
M  V30 5934 H 552.004 5.07846 -0.0738798 0
M  V30 5935 H 551.934 4.98279 1.70369 0
M  V30 5936 H 554.425 3.68588 0.833735 0
M  V30 5937 H 554.738 7.65081 1.08951 0
M  V30 5938 H 553.083 6.8796 0.986706 0
M  V30 5939 H 556.274 4.5835 0.950392 0
M  V30 5940 H 556.447 6.39151 1.06725 0
M  V30 5941 N 549.853 -0.472356 1.50355 0
M  V30 5942 C 551.083 -1.24603 1.64796 0
M  V30 5943 C 551.491 -1.86297 0.330156 0
M  V30 5944 O 550.834 -1.69934 -0.697728 0
M  V30 5945 C 550.896 -2.39578 2.68035 0
M  V30 5946 C 550.56 -1.98531 4.11624 0
M  V30 5947 C 551.557 -1.50856 4.97532 0
M  V30 5948 C 549.242 -2.0729 4.57532 0
M  V30 5949 C 551.236 -1.12481 6.27397 0
M  V30 5950 C 548.923 -1.68527 5.87403 0
M  V30 5951 C 549.921 -1.212 6.7216 0
M  V30 5952 O 549.609 -0.829728 7.99607 0
M  V30 5953 H 549.341 -0.383035 0.55701 0
M  V30 5954 H 551.895 -0.570392 1.97321 0
M  V30 5955 H 550.125 -3.10309 2.30749 0
M  V30 5956 H 551.814 -3.01544 2.71709 0
M  V30 5957 H 552.58 -1.43511 4.63281 0
M  V30 5958 H 548.459 -2.43076 3.91708 0
M  V30 5959 H 552.003 -0.754698 6.93506 0
M  V30 5960 H 547.9 -1.7553 6.21176 0
M  V30 5961 H 548.668 -0.958689 8.12866 0
M  V30 5962 N 551.331 -1.39911 -0.725443 0
M  V30 5963 C 552.578 -1.37654 -1.48518 0
M  V30 5964 C 552.906 0.0243982 -1.94485 0
M  V30 5965 O 552.161 1.00708 -1.67799 0
M  V30 5966 C 552.46 -2.30368 -2.7325 0
M  V30 5967 C 552.126 -3.77817 -2.461 0
M  V30 5968 C 550.788 -4.17991 -2.38405 0
M  V30 5969 C 553.14 -4.71036 -2.23103 0
M  V30 5970 C 550.468 -5.49433 -2.05768 0
M  V30 5971 C 552.82 -6.02766 -1.9198 0
M  V30 5972 C 551.484 -6.41993 -1.82761 0
M  V30 5973 H 550.754 -0.503713 -0.543465 0
M  V30 5974 H 553.401 -1.7249 -0.831822 0
M  V30 5975 H 551.706 -1.88683 -3.43375 0
M  V30 5976 H 553.403 -2.2591 -3.31309 0
M  V30 5977 H 549.993 -3.45982 -2.52972 0
M  V30 5978 H 554.177 -4.40823 -2.2801 0
M  V30 5979 H 549.433 -5.78738 -1.9716 0
M  V30 5980 H 553.607 -6.74519 -1.73197 0
M  V30 5981 H 551.234 -7.43761 -1.57237 0
M  V30 5982 N 552.809 0.956637 -1.25245 0
M  V30 5983 C 554.037 1.73571 -1.12608 0
M  V30 5984 C 554.452 1.86063 0.320324 0
M  V30 5985 O 553.809 1.35691 1.22042 0
M  V30 5986 C 553.86 3.15053 -1.77268 0
M  V30 5987 O 553.581 3.03174 -3.16255 0
M  V30 5988 C 555.082 4.09248 -1.70386 0
M  V30 5989 H 552.302 0.543955 -0.392879 0
M  V30 5990 H 554.846 1.20031 -1.65568 0
M  V30 5991 H 553.001 3.65543 -1.28284 0
M  V30 5992 H 553.415 3.9241 -3.48015 0
M  V30 5993 H 554.889 5.06138 -2.20291 0
M  V30 5994 H 555.366 4.34102 -0.667239 0
M  V30 5995 H 555.972 3.64672 -2.18849 0
M  V30 5996 N 554.287 1.06798 1.15896 0
M  V30 5997 C 555.219 0.641263 2.20046 0
M  V30 5998 C 556.232 -0.303355 1.59949 0
M  V30 5999 O 557.421 -0.0935478 1.78255 0
M  V30 6000 C 554.521 -0.0794029 3.38807 0
M  V30 6001 C 553.694 0.879986 4.28457 0
M  V30 6002 C 552.753 0.197638 5.25829 0
M  V30 6003 O 551.779 0.836913 5.63014 0
M  V30 6004 N 552.981 -1.05886 5.70761 0
M  V30 6005 H 555.746 1.53718 2.57276 0
M  V30 6006 H 553.307 0.951951 1.30956 0
M  V30 6007 H 555.299 -0.546418 4.00994 0
M  V30 6008 H 553.869 -0.877193 3.0004 0
M  V30 6009 H 553.089 1.52625 3.63454 0
M  V30 6010 H 554.377 1.53065 4.8523 0
M  V30 6011 H 553.775 -1.59828 5.42652 0
M  V30 6012 H 552.332 -1.46965 6.35015 0
M  V30 6013 N 555.766 -1.3263 0.851289 0
M  V30 6014 C 556.713 -2.28952 0.291469 0
M  V30 6015 C 557.683 -1.54897 -0.599676 0
M  V30 6016 O 558.868 -1.83137 -0.535305 0
M  V30 6017 C 556.008 -3.41206 -0.516992 0
M  V30 6018 C 555.121 -4.30148 0.399566 0
M  V30 6019 C 554.256 -5.29527 -0.4212 0
M  V30 6020 C 553.295 -6.10112 0.492969 0
M  V30 6021 N 552.432 -7.01499 -0.290414 0
M  V30 6022 H 557.272 -2.76228 1.11813 0
M  V30 6023 H 554.809 -1.35907 0.562826 0
M  V30 6024 H 556.767 -4.05005 -1.00132 0
M  V30 6025 H 555.397 -2.9509 -1.30851 0
M  V30 6026 H 554.449 -3.66959 1.00227 0
M  V30 6027 H 555.761 -4.8649 1.1013 0
M  V30 6028 H 554.915 -5.98914 -0.968832 0
M  V30 6029 H 553.654 -4.73794 -1.15632 0
M  V30 6030 H 552.659 -5.39632 1.05251 0
M  V30 6031 H 553.884 -6.6793 1.22664 0
M  V30 6032 H 551.83 -6.48199 -1.00868 0
M  V30 6033 H 551.747 -7.55178 0.352354 0
M  V30 6034 H 553.015 -7.75176 -0.819882 0
M  V30 6035 N 557.244 -0.608902 -1.45362 0
M  V30 6036 C 558.154 0.110969 -2.34337 0
M  V30 6037 C 559.17 0.859007 -1.51318 0
M  V30 6038 O 560.346 0.816296 -1.84116 0
M  V30 6039 C 557.411 1.09494 -3.28956 0
M  V30 6040 C 556.472 0.348718 -4.27881 0
M  V30 6041 C 555.705 1.28582 -5.17979 0
M  V30 6042 O 555.928 2.52369 -5.11533 0
M  V30 6043 O 554.862 0.782172 -5.96796 0
M  V30 6044 H 558.688 -0.620258 -2.97299 0
M  V30 6045 H 556.273 -0.36916 -1.44767 0
M  V30 6046 H 558.155 1.66163 -3.87257 0
M  V30 6047 H 556.83 1.80717 -2.68557 0
M  V30 6048 H 555.737 -0.260465 -3.73192 0
M  V30 6049 H 557.07 -0.323049 -4.91139 0
M  V30 6050 N 558.722 1.53707 -0.348139 0
M  V30 6051 C 559.632 2.28881 0.514857 0
M  V30 6052 C 560.648 1.34168 1.10793 0
M  V30 6053 O 561.824 1.6721 1.12262 0
M  V30 6054 C 558.889 3.05042 1.64774 0
M  V30 6055 C 557.95 4.15389 1.08398 0
M  V30 6056 C 557.183 4.87909 2.16287 0
M  V30 6057 O 557.406 4.60137 3.3709 0
M  V30 6058 O 556.34 5.74254 1.80323 0
M  V30 6059 H 560.166 3.03547 -0.0963699 0
M  V30 6060 H 557.751 1.48972 -0.113043 0
M  V30 6061 H 559.633 3.52656 2.30677 0
M  V30 6062 H 558.308 2.33228 2.24469 0
M  V30 6063 H 557.215 3.72068 0.389341 0
M  V30 6064 H 558.548 4.89318 0.531829 0
M  V30 6065 N 560.2 0.0768682 1.57412 0
M  V30 6066 C 561.428 -0.59997 1.9801 0
M  V30 6067 C 561.843 -1.62842 0.955408 0
M  V30 6068 O 561.2 -1.8241 -0.057314 0
M  V30 6069 C 561.251 -1.26401 3.38681 0
M  V30 6070 O 560.972 -0.276723 4.37225 0
M  V30 6071 C 562.473 -2.0282 3.94182 0
M  V30 6072 H 559.693 -0.162239 0.651091 0
M  V30 6073 H 562.237 0.150771 2.03943 0
M  V30 6074 H 560.392 -1.96581 3.33819 0
M  V30 6075 H 560.806 -0.753744 5.19056 0
M  V30 6076 H 562.28 -2.44667 4.94815 0
M  V30 6077 H 562.757 -2.88678 3.31001 0
M  V30 6078 H 563.363 -1.37496 4.02461 0
M  V30 6079 N 561.678 -1.56367 -0.196722 0
M  V30 6080 C 562.588 -1.97617 -1.2643 0
M  V30 6081 C 563.604 -0.883598 -1.49895 0
M  V30 6082 O 564.78 -1.18921 -1.62541 0
M  V30 6083 C 561.845 -2.30595 -2.58895 0
M  V30 6084 C 560.906 -3.53551 -2.43516 0
M  V30 6085 C 560.139 -3.84946 -3.69665 0
M  V30 6086 O 560.362 -3.17655 -4.73763 0
M  V30 6087 O 559.296 -4.78379 -3.65291 0
M  V30 6088 H 563.122 -2.88648 -0.944233 0
M  V30 6089 H 560.707 -1.43901 -0.401592 0
M  V30 6090 H 562.589 -2.52889 -3.37083 0
M  V30 6091 H 561.264 -1.42732 -2.90533 0
M  V30 6092 H 560.171 -3.36507 -1.63445 0
M  V30 6093 H 561.504 -4.41875 -2.16812 0
M  V30 6094 N 563.156 0.464375 -1.50603 0
M  V30 6095 C 564.381 1.24372 -1.65971 0
M  V30 6096 C 564.806 1.84901 -0.345453 0
M  V30 6097 O 564.164 1.67596 0.691457 0
M  V30 6098 C 564.212 2.32331 -2.7578 0
M  V30 6099 O 563.316 3.37146 -2.375 0
M  V30 6100 H 562.657 0.365604 -0.554283 0
M  V30 6101 H 565.187 0.55183 -1.97018 0
M  V30 6102 H 565.197 2.77539 -2.99059 0
M  V30 6103 H 563.872 1.87648 -3.71162 0
M  V30 6104 H 562.449 2.97602 -2.24694 0
M  V30 6105 N 564.634 1.40294 0.718013 0
M  V30 6106 C 565.882 1.38167 1.47494 0
M  V30 6107 C 566.203 -0.01607 1.94993 0
M  V30 6108 O 565.473 -0.970396 1.70177 0
M  V30 6109 H 564.053 0.508505 0.547203 0
M  V30 6110 H 566.715 1.75324 0.851322 0
M  V30 6111 H 565.811 2.05503 2.34894 0
M  V30 6112 N 566.112 -0.949982 1.2575 0
M  V30 6113 C 567.337 -1.73503 1.13628 0
M  V30 6114 C 567.762 -1.85601 -0.30559 0
M  V30 6115 O 567.12 -1.33984 -1.22139 0
M  V30 6116 C 567.168 -3.1243 1.80055 0
M  V30 6117 O 566.272 -3.97916 1.08336 0
M  V30 6118 H 565.613 -0.532665 0.396439 0
M  V30 6119 H 568.143 -1.19043 1.66403 0
M  V30 6120 H 568.153 -3.62866 1.86527 0
M  V30 6121 H 566.828 -3.02941 2.84956 0
M  V30 6122 H 565.405 -3.56375 1.09777 0
M  V30 6123 N 567.59 -1.07411 -1.15328 0
M  V30 6124 C 568.838 -0.796073 -1.85761 0
M  V30 6125 C 569.159 0.679864 -1.82764 0
M  V30 6126 O 568.429 1.49242 -1.269 0
M  V30 6127 H 567.009 -0.291495 -0.687779 0
M  V30 6128 H 569.671 -1.35799 -1.39802 0
M  V30 6129 H 568.767 -1.13114 -2.90881 0
M  V30 6130 N 569.068 1.32177 -0.85831 0
M  V30 6131 C 570.479 1.79381 -0.517621 0
M  V30 6132 C 570.83 1.70841 0.964769 0
M  V30 6133 O 569.955 1.26917 1.75274 0
M  V30 6134 C 570.55 3.25706 -0.932801 0
M  V30 6135 C 569.109 3.70851 -0.643953 0
M  V30 6136 C 568.256 2.53208 -1.13054 0
M  V30 6137 H 571.207 1.19424 -1.04516 0
M  V30 6138 H 571.228 3.79673 -0.250674 0
M  V30 6139 H 570.74 3.31889 -2.01174 0
M  V30 6140 H 568.841 3.70178 0.424112 0
M  V30 6141 H 568.954 4.63495 -1.21281 0
M  V30 6142 H 567.318 2.48676 -0.550679 0
M  V30 6143 H 568.101 2.62143 -2.21666 0
M  V30 6144 N 570.547 0.616602 1.45037 0
M  V30 6145 C 571.494 -0.0969439 2.30596 0
M  V30 6146 C 572.464 -0.851151 1.42635 0
M  V30 6147 O 573.649 -0.835092 1.71554 0
M  V30 6148 C 570.789 -1.08234 3.27688 0
M  V30 6149 C 569.902 -0.328072 4.30752 0
M  V30 6150 C 569.037 -1.30399 5.14946 0
M  V30 6151 C 568.076 -0.538049 6.09731 0
M  V30 6152 N 567.213 -1.46371 6.86673 0
M  V30 6153 H 572.053 0.63864 2.91076 0
M  V30 6154 H 569.59 0.326733 1.43425 0
M  V30 6155 H 571.548 -1.66688 3.82454 0
M  V30 6156 H 570.178 -1.78523 2.68941 0
M  V30 6157 H 569.23 0.372136 3.78575 0
M  V30 6158 H 570.542 0.269142 4.98073 0
M  V30 6159 H 569.696 -1.96032 5.74157 0
M  V30 6160 H 568.435 -1.93514 4.47665 0
M  V30 6161 H 567.44 0.131852 5.49642 0
M  V30 6162 H 568.665 0.0881732 6.79043 0
M  V30 6163 H 566.611 -2.08233 6.22073 0
M  V30 6164 H 566.528 -0.920152 7.50379 0
M  V30 6165 H 567.796 -2.10932 7.50418 0
M  V30 6166 N 572.025 -1.5352 0.356285 0
M  V30 6167 C 573.25 -2.06007 -0.239961 0
M  V30 6168 C 573.675 -1.22872 -1.42422 0
M  V30 6169 O 573.033 -0.245516 -1.7963 0
M  V30 6170 C 573.081 -3.5522 -0.620587 0
M  V30 6171 O 572.185 -3.74864 -1.71902 0
M  V30 6172 H 571.526 -0.662961 -0.0371377 0
M  V30 6173 H 574.056 -1.98033 0.514194 0
M  V30 6174 H 574.066 -3.98081 -0.894197 0
M  V30 6175 H 572.741 -4.15175 0.245407 0
M  V30 6176 H 571.318 -3.43904 -1.44169 0
M  V30 6177 N 573.503 -0.0852151 -1.57369 0
M  V30 6178 C 574.728 0.592872 -1.98746 0
M  V30 6179 C 575.153 1.61538 -0.963689 0
M  V30 6180 O 574.511 1.81168 0.069071 0
M  V30 6181 C 574.559 1.22599 -3.39119 0
M  V30 6182 O 573.663 2.34185 -3.39457 0
M  V30 6183 H 573.004 0.151314 -0.646529 0
M  V30 6184 H 575.534 -0.163703 -2.03944 0
M  V30 6185 H 575.544 1.56965 -3.76598 0
M  V30 6186 H 574.219 0.476831 -4.13158 0
M  V30 6187 H 572.796 2.01512 -3.13763 0
M  V30 6188 N 574.981 1.5647 0.188427 0
M  V30 6189 C 576.397 1.50204 0.539532 0
M  V30 6190 C 576.597 0.78644 1.85519 0
M  V30 6191 O 575.653 0.339714 2.50204 0
M  V30 6192 C 576.966 2.94893 0.588103 0
M  V30 6193 C 578.514 3.05602 0.67648 0
M  V30 6194 C 578.989 4.51716 0.756101 0
M  V30 6195 N 580.48 4.55894 0.819451 0
M  V30 6196 C 581.215 5.66272 0.90134 0
M  V30 6197 N 580.711 6.86323 0.945118 0
M  V30 6198 N 582.504 5.54201 0.939043 0
M  V30 6199 H 574.655 2.01406 -0.674493 0
M  V30 6200 H 576.918 0.916828 -0.241103 0
M  V30 6201 H 576.624 3.50334 -0.309633 0
M  V30 6202 H 576.498 3.4861 1.44051 0
M  V30 6203 H 578.885 2.50206 1.56465 0
M  V30 6204 H 578.966 2.54999 -0.202262 0
M  V30 6205 H 578.61 5.07739 -0.12774 0
M  V30 6206 H 578.54 5.00058 1.65074 0
M  V30 6207 H 581.031 3.69452 0.794594 0
M  V30 6208 H 581.344 7.66194 1.0083 0
M  V30 6209 H 579.689 6.88968 0.913683 0
M  V30 6210 H 582.88 4.59333 0.901725 0
M  V30 6211 H 583.053 6.40247 0.999402 0
M  V30 6212 N 576.459 -0.456382 1.50847 0
M  V30 6213 C 577.407 -1.57318 1.71329 0
M  V30 6214 C 578.401 -1.59187 0.579287 0
M  V30 6215 O 579.607 -1.6316 0.76018 0
M  V30 6216 H 575.982 -0.5223 0.541024 0
M  V30 6217 H 577.953 -1.3721 2.64983 0
M  V30 6218 C 576.702 -2.95142 1.83811 0
M  V30 6219 H 576.025 -2.94428 2.70467 0
M  V30 6220 H 577.465 -3.72702 2.02161 0
M  V30 6221 C 575.924 -3.31636 0.593224 0
M  V30 6222 O 576.454 -4.00852 -0.260898 0
M  V30 6223 N 574.66 -2.87205 0.442902 0
M  V30 6224 H 574.207 -2.31051 1.13901 0
M  V30 6225 H 574.165 -3.11986 -0.38884 0
M  V30 6226 N 577.937 -1.40673 -0.710563 0
M  V30 6227 C 579.165 -1.42547 -1.4996 0
M  V30 6228 C 579.58 -0.0265485 -1.88781 0
M  V30 6229 O 578.937 0.950694 -1.55782 0
M  V30 6230 C 578.988 -2.32071 -2.77173 0
M  V30 6231 O 578.709 -3.66518 -2.39992 0
M  V30 6232 C 580.21 -2.42591 -3.71032 0
M  V30 6233 H 577.43 -0.486025 -0.462623 0
M  V30 6234 H 579.974 -1.84783 -0.876102 0
M  V30 6235 H 578.129 -1.93184 -3.35795 0
M  V30 6236 H 578.543 -4.14115 -3.21884 0
M  V30 6237 H 580.017 -3.09429 -4.57119 0
M  V30 6238 H 580.494 -1.4525 -4.14486 0
M  V30 6239 H 581.1 -2.82051 -3.18319 0
M  V30 6240 N 579.415 0.9433 -1.26252 0
M  V30 6241 C 580.345 2.05902 -1.10122 0
M  V30 6242 C 581.326 1.70099 -0.00700552 0
M  V30 6243 O 582.511 1.93377 -0.178641 0
M  V30 6244 C 579.641 3.39516 -0.731175 0
M  V30 6245 C 578.595 3.89372 -1.77688 0
M  V30 6246 C 577.921 5.19613 -1.26122 0
M  V30 6247 C 579.221 4.14489 -3.17799 0
M  V30 6248 H 580.915 2.19655 -2.03451 0
M  V30 6249 H 578.461 1.05548 -0.979576 0
M  V30 6250 H 580.414 4.17031 -0.605215 0
M  V30 6251 H 579.138 3.25733 0.23782 0
M  V30 6252 H 577.797 3.14036 -1.89148 0
M  V30 6253 H 577.445 5.02208 -0.282128 0
M  V30 6254 H 577.145 5.53939 -1.96023 0
M  V30 6255 H 578.669 5.99713 -1.14789 0
M  V30 6256 H 580.083 4.82625 -3.09428 0
M  V30 6257 H 578.48 4.60094 -3.85271 0
M  V30 6258 H 579.55 3.20347 -3.64014 0
M  V30 6259 N 580.893 1.08022 1.14757 0
M  V30 6260 C 581.803 0.718292 2.23333 0
M  V30 6261 C 582.819 -0.273477 1.71837 0
M  V30 6262 O 583.995 -0.118406 2.01052 0
M  V30 6263 C 581.06 0.128855 3.4646 0
M  V30 6264 C 580.121 1.17473 4.12915 0
M  V30 6265 C 579.354 0.61333 5.30164 0
M  V30 6266 O 579.577 -0.568458 5.6756 0
M  V30 6267 O 578.511 1.3615 5.86299 0
M  V30 6268 H 582.337 1.62394 2.56636 0
M  V30 6269 H 579.922 0.853628 1.22611 0
M  V30 6270 H 581.804 -0.197249 4.20938 0
M  V30 6271 H 580.479 -0.750014 3.14891 0
M  V30 6272 H 579.386 1.5533 3.40328 0
M  V30 6273 H 580.719 2.02574 4.48581 0
M  V30 6274 N 582.371 -1.3172 0.865308 0
M  V30 6275 C 583.334 -2.26918 0.322627 0
M  V30 6276 C 584.334 -1.52031 -0.523751 0
M  V30 6277 O 585.524 -1.70973 -0.333727 0
M  V30 6278 C 582.656 -3.36558 -0.542338 0
M  V30 6279 H 583.849 -2.76432 1.16298 0
M  V30 6280 H 581.402 -1.42573 0.640512 0
M  V30 6281 H 582.137 -2.92329 -1.40407 0
M  V30 6282 H 581.922 -3.92048 0.0636395 0
M  V30 6283 H 583.412 -4.07465 -0.91446 0
M  V30 6284 N 583.85 -0.624285 -1.44708 0
M  V30 6285 C 584.812 0.0749638 -2.29077 0
M  V30 6286 C 585.812 0.778965 -1.40673 0
M  V30 6287 O 587.003 0.624591 -1.62618 0
M  V30 6288 C 584.135 1.11663 -3.22094 0
M  V30 6289 H 585.327 -0.667013 -2.92388 0
M  V30 6290 H 582.88 -0.384098 -1.51507 0
M  V30 6291 H 583.615 1.88881 -2.63618 0
M  V30 6292 H 583.401 0.61583 -3.87234 0
M  V30 6293 H 584.891 1.60585 -3.8549 0
M  V30 6294 N 585.328 1.53329 -0.364422 0
M  V30 6295 C 586.258 2.28627 0.474543 0
M  V30 6296 C 587.239 1.31009 1.08492 0
M  V30 6297 O 588.424 1.59878 1.10239 0
M  V30 6298 C 585.554 3.07465 1.61501 0
M  V30 6299 C 584.508 4.1276 1.13194 0
M  V30 6300 C 583.834 4.79674 2.36255 0
M  V30 6301 C 585.134 5.21847 0.217507 0
M  V30 6302 H 586.828 2.99005 -0.153656 0
M  V30 6303 H 584.374 1.43803 -0.0753406 0
M  V30 6304 H 586.327 3.58889 2.20855 0
M  V30 6305 H 585.051 2.34775 2.27042 0
M  V30 6306 H 583.71 3.62281 0.56109 0
M  V30 6307 H 583.358 4.03557 3.00251 0
M  V30 6308 H 583.058 5.50827 2.04606 0
M  V30 6309 H 584.582 5.33892 2.96297 0
M  V30 6310 H 585.996 5.6878 0.718493 0
M  V30 6311 H 584.393 6.00099 -0.00806408 0
M  V30 6312 H 585.463 4.7921 -0.740653 0
M  V30 6313 N 586.806 0.0935595 1.57322 0
M  V30 6314 C 588.083 -0.612692 1.85756 0
M  V30 6315 C 588.463 -1.86439 0.99013 0
M  V30 6316 O 587.811 -2.28416 0.0621362 0
M  V30 6317 C 588.021 -0.929547 3.36393 0
M  V30 6318 C 589.369 -1.29366 4.04413 0
M  V30 6319 O 590.393 -1.02061 3.41265 0
M  V30 6320 O 589.252 -1.80498 5.15832 0
M  V30 6321 H 586.346 -0.306444 0.768128 0
M  V30 6322 H 588.892 0.126141 1.69231 0
M  V30 6323 H 587.664 -0.0414766 3.91278 0
M  V30 6324 H 587.287 -1.72441 3.5826 0
M  V30 6325 N 588.284 -1.56567 -0.180126 0
M  V30 6326 C 589.509 -1.85975 -0.918041 0
M  V30 6327 C 589.934 -0.678888 -1.75422 0
M  V30 6328 O 589.292 0.372168 -1.77439 0
M  V30 6329 C 589.34 -3.13731 -1.77779 0
M  V30 6330 O 588.444 -2.95335 -2.87838 0
M  V30 6331 H 587.785 -0.61196 -0.257683 0
M  V30 6332 H 590.315 -2.03798 -0.180923 0
M  V30 6333 H 590.325 -3.4491 -2.17948 0
M  V30 6334 H 589 -3.99293 -1.16352 0
M  V30 6335 H 587.577 -2.7549 -2.51316 0
M  V30 6336 N 589.762 0.448376 -1.51087 0
M  V30 6337 C 591.011 1.19561 -1.62444 0
M  V30 6338 C 591.324 1.92602 -0.341151 0
M  V30 6339 O 592.53 2.69439 -0.333936 0
M  V30 6340 C 590.986 2.17373 -2.8684 0
M  V30 6341 C 590.594 1.5003 -4.22131 0
M  V30 6342 C 592.338 2.92597 -3.0755 0
M  V30 6343 C 590.245 2.46262 -5.37689 0
M  V30 6344 H 589.175 0.449975 -0.605011 0
M  V30 6345 H 591.826 0.463735 -1.77544 0
M  V30 6346 H 590.208 2.93948 -2.65349 0
M  V30 6347 H 591.382 0.790886 -4.53962 0
M  V30 6348 H 589.697 0.870011 -4.0721 0
M  V30 6349 H 592.294 3.64663 -3.91056 0
M  V30 6350 H 592.637 3.53306 -2.20183 0
M  V30 6351 H 593.17 2.23131 -3.29329 0
M  V30 6352 H 589.909 1.90258 -6.27281 0
M  V30 6353 H 589.429 3.15289 -5.10248 0
M  V30 6354 H 591.108 3.07623 -5.6919 0
M  V30 6355 N 591.24 1.41047 0.703093 0
M  V30 6356 C 592.656 1.23351 1.01275 0
M  V30 6357 C 592.856 0.11754 2.01157 0
M  V30 6358 O 591.912 -0.520518 2.47077 0
M  V30 6359 C 593.225 2.58001 1.54454 0
M  V30 6360 C 594.773 2.65119 1.66376 0
M  V30 6361 C 595.248 4.00067 2.22958 0
M  V30 6362 N 596.739 4.01875 2.30328 0
M  V30 6363 C 597.474 5.03087 2.75119 0
M  V30 6364 N 596.97 6.14692 3.19571 0
M  V30 6365 N 598.763 4.90451 2.74616 0
M  V30 6366 H 590.914 2.1236 0.0412686 0
M  V30 6367 H 593.177 0.944543 0.08089 0
M  V30 6368 H 592.883 3.40378 0.88521 0
M  V30 6369 H 592.757 2.79962 2.52786 0
M  V30 6370 H 595.144 1.83106 2.31422 0
M  V30 6371 H 595.225 2.46975 0.666089 0
M  V30 6372 H 594.869 4.82526 1.58529 0
M  V30 6373 H 594.799 4.15547 3.23462 0
M  V30 6374 H 597.29 3.21291 1.98949 0
M  V30 6375 H 597.603 6.87799 3.52352 0
M  V30 6376 H 595.948 6.18239 3.17498 0
M  V30 6377 H 599.139 4.0235 2.39233 0
M  V30 6378 H 599.312 5.6947 3.09206 0
M  V30 6379 N 592.718 -0.936591 1.26751 0
M  V30 6380 C 593.948 -1.71509 1.15188 0
M  V30 6381 C 594.356 -1.86885 -0.295037 0
M  V30 6382 O 593.699 -1.37915 -1.21347 0
M  V30 6383 C 593.761 -3.13853 1.75318 0
M  V30 6384 C 593.425 -3.21845 3.24445 0
M  V30 6385 C 594.422 -3.04771 4.21201 0
M  V30 6386 C 592.107 -3.45088 3.64992 0
M  V30 6387 C 594.101 -3.10816 5.56482 0
M  V30 6388 C 591.788 -3.50767 5.00405 0
M  V30 6389 C 592.786 -3.33648 5.9596 0
M  V30 6390 O 592.474 -3.39045 7.28906 0
M  V30 6391 H 592.206 -0.543658 0.401761 0
M  V30 6392 H 594.76 -1.18234 1.67958 0
M  V30 6393 H 592.99 -3.6857 1.17016 0
M  V30 6394 H 594.679 -3.73634 1.58596 0
M  V30 6395 H 595.445 -2.86665 3.91214 0
M  V30 6396 H 591.324 -3.57467 2.91098 0
M  V30 6397 H 594.868 -2.97372 6.31043 0
M  V30 6398 H 590.765 -3.68396 5.30052 0
M  V30 6399 H 591.533 -3.55558 7.37238 0
M  V30 6400 N 594.196 -1.08629 -1.14182 0
M  V30 6401 C 595.445 -0.812271 -1.84621 0
M  V30 6402 C 595.758 0.664313 -1.83973 0
M  V30 6403 O 596.964 1.05357 -2.50224 0
M  V30 6404 C 595.42 -1.4031 -3.31423 0
M  V30 6405 C 595.028 -2.91164 -3.40481 0
M  V30 6406 C 596.772 -1.20767 -4.06959 0
M  V30 6407 C 594.679 -3.43373 -4.81507 0
M  V30 6408 H 593.609 -0.30019 -0.691666 0
M  V30 6409 H 596.26 -1.30798 -1.28701 0
M  V30 6410 H 594.642 -0.835096 -3.87094 0
M  V30 6411 H 595.816 -3.5412 -2.94848 0
M  V30 6412 H 594.131 -3.09646 -2.78403 0
M  V30 6413 H 596.728 -1.57237 -5.11058 0
M  V30 6414 H 597.071 -0.147664 -4.16038 0
M  V30 6415 H 597.604 -1.74274 -3.57594 0
M  V30 6416 H 594.343 -4.48958 -4.77616 0
M  V30 6417 H 593.863 -2.85176 -5.27669 0
M  V30 6418 H 595.542 -3.40095 -5.50404 0
M  V30 6419 N 595.674 1.31259 -0.872281 0
M  V30 6420 C 596.902 2.00795 -0.498907 0
M  V30 6421 C 597.317 1.65464 0.909238 0
M  V30 6422 O 596.674 0.885073 1.59602 0
M  V30 6423 C 596.725 3.55625 -0.649092 0
M  V30 6424 O 596.446 3.89692 -2.00179 0
M  V30 6425 C 597.947 4.42434 -0.277034 0
M  V30 6426 H 595.167 0.642299 -0.194145 0
M  V30 6427 H 597.711 1.67438 -1.17408 0
M  V30 6428 H 595.866 3.87394 -0.0214402 0
M  V30 6429 H 596.28 4.84407 -2.01122 0
M  V30 6430 H 597.754 5.50299 -0.433064 0
M  V30 6431 H 598.231 4.32146 0.783989 0
M  V30 6432 H 598.837 4.16086 -0.880483 0
M  V30 6433 N 597.152 0.631951 1.44375 0
M  V30 6434 C 598.568 0.297642 1.568 0
M  V30 6435 C 598.768 -1.19916 1.61934 0
M  V30 6436 O 597.824 -1.98324 1.56281 0
M  V30 6437 C 599.137 0.990286 2.83926 0
M  V30 6438 C 600.685 0.968507 2.97639 0
M  V30 6439 C 601.16 1.64163 4.27568 0
M  V30 6440 N 602.651 1.60826 4.34384 0
M  V30 6441 C 603.386 2.09802 5.33639 0
M  V30 6442 N 602.882 2.66973 6.39294 0
M  V30 6443 N 604.675 2.00426 5.25153 0
M  V30 6444 H 596.826 1.60353 1.39286 0
M  V30 6445 H 599.089 0.673142 0.667521 0
M  V30 6446 H 598.795 2.04519 2.8612 0
M  V30 6447 H 598.669 0.528563 3.73478 0
M  V30 6448 H 601.056 -0.0779247 2.94997 0
M  V30 6449 H 601.137 1.46873 2.09433 0
M  V30 6450 H 600.781 2.68752 4.3097 0
M  V30 6451 H 600.711 1.11624 5.14634 0
M  V30 6452 H 603.202 1.19087 3.58646 0
M  V30 6453 H 603.515 3.02074 7.11316 0
M  V30 6454 H 601.86 2.71024 6.39977 0
M  V30 6455 H 605.051 1.55483 4.41523 0
M  V30 6456 H 605.224 2.38906 6.02352 0
M  V30 6457 N 598.631 -1.53133 0.372548 0
M  V30 6458 C 599.581 -2.22733 -0.487218 0
M  V30 6459 C 600.565 -1.22506 -1.04312 0
M  V30 6460 O 601.757 -1.47923 -0.972005 0
M  V30 6461 C 598.886 -3.02524 -1.62278 0
M  V30 6462 C 597.972 -4.10133 -1.07943 0
M  V30 6463 N 598.363 -5.05133 -0.259629 0
M  V30 6464 C 596.661 -4.24964 -1.35356 0
M  V30 6465 C 597.362 -5.81687 0.0386656 0
M  V30 6466 N 596.338 -5.40699 -0.560827 0
M  V30 6467 H 600.14 -2.93538 0.145853 0
M  V30 6468 H 597.654 -1.61389 0.180938 0
M  V30 6469 H 599.651 -3.50909 -2.25096 0
M  V30 6470 H 598.311 -2.33252 -2.25884 0
M  V30 6471 H 599.322 -5.178 0.101746 0
M  V30 6472 H 595.999 -3.66919 -1.9919 0
M  V30 6473 H 597.389 -6.68224 0.701841 0
M  V30 6474 N 600.109 -0.101901 -1.5727 0
M  V30 6475 C 601.358 0.559922 -1.93772 0
M  V30 6476 C 601.671 1.68913 -0.98629 0
M  V30 6477 O 602.877 2.41256 -1.24529 0
M  V30 6478 C 601.333 1.04739 -3.44322 0
M  V30 6479 C 600.941 -0.05243 -4.47969 0
M  V30 6480 C 602.685 1.68157 -3.89774 0
M  V30 6481 C 600.592 0.450781 -5.8968 0
M  V30 6482 H 599.522 0.212931 -0.723309 0
M  V30 6483 H 602.173 -0.179001 -1.82625 0
M  V30 6484 H 600.555 1.84021 -3.50645 0
M  V30 6485 H 601.729 -0.828157 -4.53297 0
M  V30 6486 H 600.044 -0.592202 -4.12167 0
M  V30 6487 H 602.641 2.0689 -4.93052 0
M  V30 6488 H 602.984 2.55338 -3.28798 0
M  V30 6489 H 603.517 0.954453 -3.8618 0
M  V30 6490 H 600.256 -0.38458 -6.54371 0
M  V30 6491 H 599.776 1.19336 -5.87809 0
M  V30 6492 H 601.455 0.917555 -6.40461 0
M  V30 6493 N 601.587 1.56661 0.17182 0
M  V30 6494 C 602.52 1.91474 1.24149 0
M  V30 6495 C 603.498 0.777485 1.42807 0
M  V30 6496 O 604.682 1.03075 1.57822 0
M  V30 6497 C 601.809 2.16523 2.60453 0
M  V30 6498 C 600.855 3.39209 2.58533 0
M  V30 6499 S 601.688 4.93594 2.07665 0
M  V30 6500 C 602.844 5.21737 3.45747 0
M  V30 6501 H 603.077 2.81903 0.944346 0
M  V30 6502 H 600.61 1.49743 0.376364 0
M  V30 6503 H 602.568 2.31635 3.38903 0
M  V30 6504 H 601.229 1.26802 2.87368 0
M  V30 6505 H 600.422 3.53935 3.58812 0
M  V30 6506 H 600.024 3.2321 1.88178 0
M  V30 6507 H 602.316 5.13684 4.41741 0
M  V30 6508 H 603.259 6.23361 3.35896 0
M  V30 6509 H 603.667 4.49307 3.41736 0
M  V30 6510 N 603.065 -0.440357 1.51323 0
M  V30 6511 C 604.012 -1.53429 1.72419 0
M  V30 6512 C 604.982 -1.56165 0.565826 0
M  V30 6513 O 606.167 -1.73222 0.799917 0
M  V30 6514 C 603.307 -2.91169 1.85242 0
M  V30 6515 C 602.42 -2.97985 3.12777 0
M  V30 6516 C 601.555 -4.26829 3.16212 0
M  V30 6517 C 600.594 -4.27501 4.38074 0
M  V30 6518 N 599.731 -5.47866 4.39076 0
M  V30 6519 H 604.571 -1.34743 2.65797 0
M  V30 6520 H 602.108 -0.654608 1.31732 0
M  V30 6521 H 604.066 -3.71087 1.90658 0
M  V30 6522 H 602.696 -3.0842 0.952744 0
M  V30 6523 H 601.748 -2.10749 3.16685 0
M  V30 6524 H 603.06 -2.94342 4.02696 0
M  V30 6525 H 602.214 -5.15118 3.20527 0
M  V30 6526 H 600.953 -4.33124 2.24176 0
M  V30 6527 H 599.958 -3.37606 4.33938 0
M  V30 6528 H 601.183 -4.22873 5.31371 0
M  V30 6529 H 599.129 -5.54887 3.49909 0
M  V30 6530 H 599.046 -5.46091 5.22801 0
M  V30 6531 H 600.314 -6.38195 4.4758 0
M  V30 6532 N 604.543 -1.41418 -0.695603 0
M  V30 6533 C 605.453 -1.45622 -1.83933 0
M  V30 6534 C 606.469 -0.346825 -1.70508 0
M  V30 6535 O 607.645 -0.59454 -1.92424 0
M  V30 6536 C 604.71 -1.33627 -3.19914 0
M  V30 6537 C 603.771 -2.54882 -3.45447 0
M  V30 6538 C 603.004 -2.43449 -4.7494 0
M  V30 6539 O 603.227 -1.45905 -5.51424 0
M  V30 6540 O 602.161 -3.33206 -5.01256 0
M  V30 6541 H 605.987 -2.42114 -1.83342 0
M  V30 6542 H 603.572 -1.22956 -0.848658 0
M  V30 6543 H 605.454 -1.29221 -4.01098 0
M  V30 6544 H 604.129 -0.402508 -3.21188 0
M  V30 6545 H 603.036 -2.64865 -2.64192 0
M  V30 6546 H 604.369 -3.47087 -3.48987 0
M  V30 6547 N 606.021 0.929856 -1.27246 0
M  V30 6548 C 606.969 2.05151 -1.09616 0
M  V30 6549 C 607.963 1.69388 -0.0198617 0
M  V30 6550 O 609.169 1.79124 -0.177417 0
M  V30 6551 H 605.544 0.671909 -0.337701 0
M  V30 6552 H 607.515 2.17168 -2.04648 0
M  V30 6553 C 606.264 3.3934 -0.757851 0
M  V30 6554 H 605.587 3.67343 -1.57795 0
M  V30 6555 H 607.027 4.18603 -0.674358 0
M  V30 6556 C 605.486 3.32582 0.537658 0
M  V30 6557 O 606.016 3.69633 1.57271 0
M  V30 6558 N 604.222 2.8568 0.532478 0
M  V30 6559 H 603.769 2.55725 -0.310233 0
M  V30 6560 H 603.727 2.81541 1.39936 0
M  V30 6561 N 607.499 1.09233 1.13605 0
M  V30 6562 C 608.776 0.739633 1.81077 0
M  V30 6563 C 609.156 -0.775595 1.96336 0
M  V30 6564 O 608.504 -1.69726 1.52988 0
M  V30 6565 C 608.714 1.47636 3.16235 0
M  V30 6566 C 610.062 1.64087 3.91613 0
M  V30 6567 O 611.086 1.43871 3.25852 0
M  V30 6568 O 609.945 1.97511 5.0956 0
M  V30 6569 H 607.039 0.265464 0.783236 0
M  V30 6570 H 609.585 1.19441 1.20549 0
M  V30 6571 H 608.357 2.50818 3.00344 0
M  V30 6572 H 607.98 1.01362 3.84462 0
M  V30 6573 N 608.977 -1.30795 0.87923 0
M  V30 6574 C 610.223 -1.96653 0.495519 0
M  V30 6575 C 610.556 -1.69282 -0.951703 0
M  V30 6576 O 609.831 -0.994374 -1.6716 0
M  V30 6577 C 610.114 -3.51898 0.764174 0
M  V30 6578 C 609.967 -3.88808 2.2616 0
M  V30 6579 C 611.286 -4.39462 0.236825 0
M  V30 6580 H 608.405 -0.7143 0.181507 0
M  V30 6581 H 611.047 -1.54765 1.10217 0
M  V30 6582 H 609.197 -3.87709 0.247841 0
M  V30 6583 H 610.869 -3.63051 2.8459 0
M  V30 6584 H 609.112 -3.37082 2.73053 0
M  V30 6585 H 609.783 -4.97086 2.4002 0
M  V30 6586 H 612.259 -4.10528 0.678683 0
M  V30 6587 H 611.135 -5.47018 0.454176 0
M  V30 6588 H 611.396 -4.33621 -0.861683 0
M  V30 6589 N 610.455 -0.639598 -1.44038 0
M  V30 6590 C 611.871 -0.305953 -1.5664 0
M  V30 6591 C 612.071 1.19055 -1.62567 0
M  V30 6592 O 611.127 1.97492 -1.57331 0
M  V30 6593 C 612.44 -1.00533 -2.83397 0
M  V30 6594 C 613.988 -0.984278 -2.97121 0
M  V30 6595 C 614.463 -1.66428 -4.26691 0
M  V30 6596 N 615.954 -1.63127 -4.33525 0
M  V30 6597 C 616.689 -2.12629 -5.32519 0
M  V30 6598 N 616.185 -2.70359 -6.3787 0
M  V30 6599 N 617.978 -2.03208 -5.24083 0
M  V30 6600 H 610.129 -1.6109 -1.38434 0
M  V30 6601 H 612.392 -0.676672 -0.663942 0
M  V30 6602 H 612.098 -2.06034 -2.85032 0
M  V30 6603 H 611.972 -0.548362 -3.73193 0
M  V30 6604 H 614.359 0.0622792 -2.95034 0
M  V30 6605 H 614.44 -1.47981 -2.08651 0
M  V30 6606 H 614.084 -2.71034 -4.29538 0
M  V30 6607 H 614.014 -1.14351 -5.14034 0
M  V30 6608 H 616.505 -1.20987 -3.58009 0
M  V30 6609 H 616.818 -3.05842 -7.09704 0
M  V30 6610 H 615.163 -2.74414 -6.38531 0
M  V30 6611 H 618.354 -1.57823 -4.40692 0
M  V30 6612 H 618.527 -2.42097 -6.01077 0
M  V30 6613 N 611.933 1.52934 -0.380664 0
M  V30 6614 C 612.843 2.29921 0.466192 0
M  V30 6615 C 613.859 1.36488 1.07922 0
M  V30 6616 O 615.035 1.69553 1.0869 0
M  V30 6617 C 612.1 3.08468 1.58266 0
M  V30 6618 C 611.161 4.17595 0.995627 0
M  V30 6619 C 610.394 4.92387 2.05889 0
M  V30 6620 O 610.617 4.67184 3.27254 0
M  V30 6621 O 609.551 5.77949 1.68102 0
M  V30 6622 H 613.377 3.03274 -0.160735 0
M  V30 6623 H 610.962 1.48698 -0.144617 0
M  V30 6624 H 612.844 3.57469 2.23145 0
M  V30 6625 H 611.519 2.37937 2.19471 0
M  V30 6626 H 610.426 3.72811 0.310332 0
M  V30 6627 H 611.759 4.90336 0.427918 0
M  V30 6628 N 613.412 0.11024 1.57214 0
M  V30 6629 C 614.658 -0.550684 1.9518 0
M  V30 6630 C 614.991 -1.66885 0.993122 0
M  V30 6631 O 614.266 -1.94479 0.0287907 0
M  V30 6632 C 614.549 -1.09163 3.43155 0
M  V30 6633 C 614.402 0.0225198 4.49794 0
M  V30 6634 C 615.721 -1.98527 3.92778 0
M  V30 6635 H 612.84 -0.198706 0.709708 0
M  V30 6636 H 615.482 0.184024 1.89107 0
M  V30 6637 H 613.632 -1.71775 3.48462 0
M  V30 6638 H 615.304 0.657443 4.56591 0
M  V30 6639 H 613.547 0.686868 4.28328 0
M  V30 6640 H 614.218 -0.39706 5.5057 0
M  V30 6641 H 616.694 -1.458 3.8972 0
M  V30 6642 H 615.57 -2.33298 4.96853 0
M  V30 6643 H 615.831 -2.90846 3.32958 0
M  V30 6644 N 614.89 -1.56749 -0.16351 0
M  V30 6645 C 616.136 -1.82704 -0.880168 0
M  V30 6646 C 616.469 -0.689311 -1.81555 0
M  V30 6647 O 615.744 0.308224 -1.92042 0
M  V30 6648 C 616.027 -3.19084 -1.66905 0
M  V30 6649 C 615.88 -4.43397 -0.756269 0
M  V30 6650 C 617.199 -3.52493 -2.63509 0
M  V30 6651 H 614.318 -0.664608 -0.318535 0
M  V30 6652 H 616.96 -1.89438 -0.146036 0
M  V30 6653 H 615.11 -3.13475 -2.2949 0
M  V30 6654 H 616.782 -4.61079 -0.14269 0
M  V30 6655 H 615.025 -4.33752 -0.0647944 0
M  V30 6656 H 615.696 -5.3539 -1.34393 0
M  V30 6657 H 618.172 -3.58606 -2.11047 0
M  V30 6658 H 617.048 -4.48979 -3.15767 0
M  V30 6659 H 617.309 -2.77597 -3.44082 0
M  V30 6660 N 616.368 0.432326 -1.51554 0
M  V30 6661 C 617.278 1.55023 -1.76082 0
M  V30 6662 C 618.294 1.61593 -0.645265 0
M  V30 6663 O 619.47 1.78742 -0.928086 0
M  V30 6664 C 616.535 2.90964 -1.88523 0
M  V30 6665 C 615.596 2.9447 -3.12388 0
M  V30 6666 C 614.829 4.23926 -3.24225 0
M  V30 6667 O 615.052 5.16576 -2.4188 0
M  V30 6668 O 613.986 4.33818 -4.17235 0
M  V30 6669 H 617.812 1.37238 -2.70923 0
M  V30 6670 H 615.397 0.615845 -1.36117 0
M  V30 6671 H 617.279 3.71633 -1.98662 0
M  V30 6672 H 615.954 3.08865 -0.9687 0
M  V30 6673 H 614.861 2.12737 -3.07723 0
M  V30 6674 H 616.194 2.81514 -4.03746 0
M  V30 6675 N 617.846 1.41785 0.688094 0
M  V30 6676 C 619.123 1.32031 1.44316 0
M  V30 6677 C 619.503 -0.0486079 2.11044 0
M  V30 6678 O 618.851 -1.06332 2.02252 0
M  V30 6679 C 619.061 2.47906 2.45649 0
M  V30 6680 C 620.409 2.89415 3.10683 0
M  V30 6681 O 621.433 2.477 2.55975 0
M  V30 6682 O 620.292 3.61573 4.09789 0
M  V30 6683 H 617.386 0.519994 0.643067 0
M  V30 6684 H 619.932 1.53765 0.71794 0
M  V30 6685 H 618.704 3.39222 1.95048 0
M  V30 6686 H 618.327 2.28089 3.25671 0
M  V30 6687 N 619.324 -0.923095 1.27737 0
M  V30 6688 C 620.57 -1.67409 1.15524 0
M  V30 6689 C 620.925 -1.90124 -0.295072 0
M  V30 6690 O 620.218 -1.48382 -1.21216 0
M  V30 6691 C 620.412 -3.04125 1.8773 0
M  V30 6692 C 620.241 -2.94752 3.39634 0
M  V30 6693 C 619.011 -2.96783 4.0896 0
M  V30 6694 C 621.209 -2.73524 4.35533 0
M  V30 6695 N 619.191 -2.779 5.47398 0
M  V30 6696 C 620.562 -2.63391 5.61271 0
M  V30 6697 C 622.617 -2.58447 4.2557 0
M  V30 6698 C 621.32 -2.3972 6.78179 0
M  V30 6699 C 623.346 -2.36154 5.42204 0
M  V30 6700 C 622.708 -2.26768 6.669 0
M  V30 6701 H 618.807 -0.619196 0.477619 0
M  V30 6702 H 621.391 -1.09094 1.61266 0
M  V30 6703 H 619.562 -3.60545 1.44436 0
M  V30 6704 H 621.294 -3.6819 1.67982 0
M  V30 6705 H 618.049 -3.07186 3.60463 0
M  V30 6706 H 618.473 -2.71576 6.20141 0
M  V30 6707 H 623.115 -2.6446 3.2988 0
M  V30 6708 H 620.833 -2.32447 7.73947 0
M  V30 6709 H 624.419 -2.25367 5.36378 0
M  V30 6710 H 623.299 -2.09751 7.55628 0
M  V30 6711 N 620.802 -1.09834 -1.13024 0
M  V30 6712 C 621.749 -0.741522 -2.18564 0
M  V30 6713 C 622.719 0.279236 -1.63736 0
M  V30 6714 O 623.904 0.159923 -1.90129 0
M  V30 6715 C 621.044 -0.17277 -3.44667 0
M  V30 6716 C 620.157 -1.24808 -4.13578 0
M  V30 6717 C 619.292 -0.641631 -5.27311 0
M  V30 6718 C 618.331 -1.69795 -5.88078 0
M  V30 6719 N 617.468 -1.11223 -6.93234 0
M  V30 6720 H 622.308 -1.64576 -2.48432 0
M  V30 6721 H 619.845 -0.822174 -1.21978 0
M  V30 6722 H 621.803 0.17482 -4.16834 0
M  V30 6723 H 620.433 0.694725 -3.15235 0
M  V30 6724 H 619.485 -1.71288 -3.39653 0
M  V30 6725 H 620.797 -2.04795 -4.54819 0
M  V30 6726 H 619.951 -0.243128 -6.06213 0
M  V30 6727 H 618.69 0.189742 -4.87331 0
M  V30 6728 H 617.695 -2.10595 -5.07868 0
M  V30 6729 H 618.92 -2.53206 -6.3013 0
M  V30 6730 H 616.866 -0.302208 -6.55304 0
M  V30 6731 H 616.783 -1.84901 -7.3304 0
M  V30 6732 H 618.051 -0.740068 -7.75979 0
M  V30 6733 N 622.28 1.30327 -0.886154 0
M  V30 6734 C 623.527 1.96097 -0.505192 0
M  V30 6735 C 623.855 1.69952 0.945868 0
M  V30 6736 O 623.11 0.997653 1.68361 0
M  V30 6737 C 623.409 3.49906 -0.728042 0
M  V30 6738 C 623.075 3.96103 -2.15437 0
M  V30 6739 C 621.737 4.08428 -2.5444 0
M  V30 6740 C 624.089 4.20177 -3.08384 0
M  V30 6741 C 621.417 4.42189 -3.85598 0
M  V30 6742 C 623.769 4.55407 -4.39075 0
M  V30 6743 C 622.433 4.65941 -4.7797 0
M  V30 6744 H 621.703 0.71757 -0.184863 0
M  V30 6745 H 624.35 1.55171 -1.12223 0
M  V30 6746 H 622.655 3.9179 -0.027978 0
M  V30 6747 H 624.352 3.98869 -0.412862 0
M  V30 6748 H 620.942 3.87017 -1.84162 0
M  V30 6749 H 625.126 4.10134 -2.7947 0
M  V30 6750 H 620.382 4.48544 -4.15473 0
M  V30 6751 H 624.556 4.72986 -5.11133 0
M  V30 6752 H 622.183 4.91856 -5.79639 0
M  V30 6753 N 623.758 0.647228 1.43697 0
M  V30 6754 C 625.007 0.155552 2.01099 0
M  V30 6755 C 625.32 -1.23569 1.51624 0
M  V30 6756 O 626.526 -1.82226 2.01261 0
M  V30 6757 C 624.982 0.227296 3.59182 0
M  V30 6758 C 624.59 1.62086 4.17651 0
M  V30 6759 C 626.334 -0.207085 4.23995 0
M  V30 6760 C 624.241 1.64685 5.68008 0
M  V30 6761 H 623.171 0.0543895 0.752036 0
M  V30 6762 H 625.822 0.808386 1.64734 0
M  V30 6763 H 624.204 -0.492937 3.9292 0
M  V30 6764 H 625.378 2.36597 3.95422 0
M  V30 6765 H 623.693 2.0007 3.65186 0
M  V30 6766 H 626.29 -0.207426 5.34298 0
M  V30 6767 H 626.633 -1.23742 3.97484 0
M  V30 6768 H 627.166 0.461193 3.95118 0
M  V30 6769 H 623.905 2.65608 5.99277 0
M  V30 6770 H 623.425 0.944914 5.9231 0
M  V30 6771 H 625.104 1.38792 6.31938 0
M  V30 6772 N 625.236 -1.5273 0.388769 0
M  V30 6773 C 626.199 -2.25043 -0.434544 0
M  V30 6774 C 627.199 -1.26661 -0.990644 0
M  V30 6775 O 628.389 -1.50762 -0.872731 0
M  V30 6776 C 625.521 -3.00507 -1.60961 0
M  V30 6777 H 626.714 -2.99242 0.198549 0
M  V30 6778 H 624.267 -1.55664 0.140875 0
M  V30 6779 H 625.002 -2.30607 -2.28015 0
M  V30 6780 H 624.787 -3.72716 -1.21757 0
M  V30 6781 H 626.277 -3.55413 -2.19251 0
M  V30 6782 N 626.714 -0.118576 -1.57153 0
M  V30 6783 C 627.646 0.862247 -2.12363 0
M  V30 6784 C 628.659 1.23025 -1.06625 0
M  V30 6785 O 629.848 1.17927 -1.33998 0
M  V30 6786 C 626.948 2.16425 -2.60794 0
M  V30 6787 C 626.121 1.96801 -3.90626 0
M  V30 6788 C 625.18 3.10726 -4.2466 0
M  V30 6789 O 624.206 2.83659 -4.93484 0
M  V30 6790 N 625.408 4.37147 -3.81946 0
M  V30 6791 H 628.173 0.390564 -2.97144 0
M  V30 6792 H 625.734 0.0658591 -1.61766 0
M  V30 6793 H 627.726 2.91633 -2.80593 0
M  V30 6794 H 626.296 2.54943 -1.80895 0
M  V30 6795 H 625.516 1.05787 -3.7974 0
M  V30 6796 H 626.804 1.80993 -4.7552 0
M  V30 6797 H 626.202 4.62014 -3.26435 0
M  V30 6798 H 624.759 5.09229 -4.06853 0
M  V30 6799 N 628.193 1.56834 0.155195 0
M  V30 6800 C 629.439 1.83169 0.870467 0
M  V30 6801 C 629.772 0.698929 1.81187 0
M  V30 6802 O 629.047 -0.298035 1.92203 0
M  V30 6803 C 629.33 3.19965 1.65211 0
M  V30 6804 C 629.183 4.43792 0.732744 0
M  V30 6805 C 630.502 3.53885 2.61636 0
M  V30 6806 H 627.621 0.666288 0.315006 0
M  V30 6807 H 630.263 1.89513 0.135988 0
M  V30 6808 H 628.413 3.14687 2.27825 0
M  V30 6809 H 630.085 4.61148 0.118236 0
M  V30 6810 H 628.328 4.3378 0.0417906 0
M  V30 6811 H 628.999 5.36095 1.31552 0
M  V30 6812 H 631.475 3.5972 2.09143 0
M  V30 6813 H 630.351 4.50648 3.13381 0
M  V30 6814 H 630.612 2.79418 3.42605 0
M  V30 6815 N 629.671 -0.424282 1.51781 0
M  V30 6816 C 630.601 -1.52305 1.7699 0
M  V30 6817 C 631.582 -1.5839 0.620209 0
M  V30 6818 O 632.767 -1.73908 0.864268 0
M  V30 6819 C 629.897 -2.90271 1.90683 0
M  V30 6820 C 628.851 -2.99043 3.06198 0
M  V30 6821 C 628.177 -4.39116 3.05092 0
M  V30 6822 C 629.477 -2.7192 4.45934 0
M  V30 6823 H 631.171 -1.31461 2.68995 0
M  V30 6824 H 628.717 -0.630985 1.29439 0
M  V30 6825 H 630.67 -3.6711 2.06901 0
M  V30 6826 H 629.394 -3.12376 0.953365 0
M  V30 6827 H 628.053 -2.24646 2.89706 0
M  V30 6828 H 627.701 -4.58207 2.07498 0
M  V30 6829 H 627.401 -4.45912 3.82669 0
M  V30 6830 H 628.925 -5.17911 3.2342 0
M  V30 6831 H 630.339 -3.38487 4.62709 0
M  V30 6832 H 628.736 -2.90111 5.25315 0
M  V30 6833 H 629.806 -1.67445 4.55072 0
M  V30 6834 N 631.149 -1.42148 -0.680565 0
M  V30 6835 C 632.426 -1.32795 -1.43614 0
M  V30 6836 C 632.806 0.037415 -2.11067 0
M  V30 6837 O 632.154 1.05258 -2.02813 0
M  V30 6838 C 632.364 -2.49206 -2.44331 0
M  V30 6839 C 633.712 -2.91059 -3.09144 0
M  V30 6840 O 634.736 -2.49054 -2.54657 0
M  V30 6841 O 633.595 -3.63741 -4.07866 0
M  V30 6842 H 630.689 -0.523397 -0.640301 0
M  V30 6843 H 633.235 -1.54144 -0.709775 0
M  V30 6844 H 632.007 -3.40252 -1.93247 0
M  V30 6845 H 631.63 -2.29813 -3.24456 0
M  V30 6846 N 632.627 0.916307 -1.28225 0
M  V30 6847 C 634.043 1.19425 -1.05876 0
M  V30 6848 C 634.243 2.005 0.2005 0
M  V30 6849 O 633.299 2.35806 0.902873 0
M  V30 6850 C 634.612 1.93133 -2.30478 0
M  V30 6851 C 636.16 2.06026 -2.35632 0
M  V30 6852 C 636.635 2.83141 -3.59994 0
M  V30 6853 N 638.126 2.90704 -3.60618 0
M  V30 6854 C 638.861 3.50865 -4.53521 0
M  V30 6855 N 638.357 4.12327 -5.56739 0
M  V30 6856 N 640.15 3.48379 -4.41122 0
M  V30 6857 H 632.301 0.37496 -2.09064 0
M  V30 6858 H 634.564 0.228531 -0.920042 0
M  V30 6859 H 634.27 1.40985 -3.22205 0
M  V30 6860 H 634.144 2.93696 -2.36691 0
M  V30 6861 H 636.531 2.57355 -1.44404 0
M  V30 6862 H 636.612 1.04647 -2.33415 0
M  V30 6863 H 636.256 2.32492 -4.51564 0
M  V30 6864 H 636.186 3.84829 -3.59464 0
M  V30 6865 H 638.677 2.47034 -2.85977 0
M  V30 6866 H 638.99 4.56205 -6.23776 0
M  V30 6867 H 637.335 4.10839 -5.60568 0
M  V30 6868 H 640.526 2.99572 -3.59686 0
M  V30 6869 H 640.699 3.94974 -5.13712 0
M  V30 6870 N 634.105 1.10431 1.1244 0
M  V30 6871 C 635.038 0.696987 2.17296 0
M  V30 6872 C 636.016 -0.301673 1.59777 0
M  V30 6873 O 637.2 -0.200583 1.8743 0
M  V30 6874 C 634.327 0.0284094 3.38688 0
M  V30 6875 C 633.373 0.990536 4.14838 0
M  V30 6876 S 634.206 2.50785 4.73146 0
M  V30 6877 C 635.362 1.85198 5.97873 0
M  V30 6878 H 635.595 1.58523 2.51511 0
M  V30 6879 H 633.128 0.921312 1.239 0
M  V30 6880 H 635.086 -0.351009 4.08997 0
M  V30 6881 H 633.747 -0.836629 3.02753 0
M  V30 6882 H 632.94 0.469991 5.01804 0
M  V30 6883 H 632.542 1.31186 3.50237 0
M  V30 6884 H 634.834 1.18217 6.67106 0
M  V30 6885 H 635.777 2.7012 6.54554 0
M  V30 6886 H 636.185 1.31653 5.48933 0
M  V30 6887 N 635.583 -1.29855 0.893053 0
M  V30 6888 C 636.83 -1.95826 0.515585 0
M  V30 6889 C 637.158 -1.70451 -0.936842 0
M  V30 6890 O 636.413 -1.00657 -1.67829 0
M  V30 6891 C 636.712 -3.49515 0.746588 0
M  V30 6892 C 636.378 -3.94955 2.17535 0
M  V30 6893 C 635.04 -4.07073 2.56603 0
M  V30 6894 C 637.392 -4.18536 3.10607 0
M  V30 6895 C 634.72 -4.40138 3.87938 0
M  V30 6896 C 637.072 -4.53073 4.41484 0
M  V30 6897 C 635.736 -4.634 4.80434 0
M  V30 6898 H 635.006 -0.71658 0.188666 0
M  V30 6899 H 637.653 -1.54574 1.13045 0
M  V30 6900 H 635.958 -3.9177 0.0487551 0
M  V30 6901 H 637.655 -3.98644 0.434009 0
M  V30 6902 H 634.245 -3.86035 1.86212 0
M  V30 6903 H 638.429 -4.08646 2.81641 0
M  V30 6904 H 633.685 -4.46335 4.17846 0
M  V30 6905 H 637.859 -4.70269 5.13634 0
M  V30 6906 H 635.486 -4.88775 5.82239 0
M  V30 6907 N 637.061 -0.65484 -1.43351 0
M  V30 6908 C 637.991 0.0221809 -2.33489 0
M  V30 6909 C 638.972 0.810272 -1.49561 0
M  V30 6910 O 640.157 0.771426 -1.78221 0
M  V30 6911 C 637.287 0.988117 -3.32947 0
M  V30 6912 C 636.241 0.310026 -4.26876 0
M  V30 6913 C 635.567 1.38752 -5.16384 0
M  V30 6914 C 636.867 -0.798589 -5.16159 0
M  V30 6915 H 638.561 -0.730571 -2.9035 0
M  V30 6916 H 636.107 -0.352773 -1.39612 0
M  V30 6917 H 638.06 1.47067 -3.94904 0
M  V30 6918 H 636.784 1.77205 -2.74346 0
M  V30 6919 H 635.443 -0.152097 -3.66284 0
M  V30 6920 H 635.091 2.16293 -4.54121 0
M  V30 6921 H 634.791 0.939051 -5.80048 0
M  V30 6922 H 636.315 1.87141 -5.81215 0
M  V30 6923 H 637.729 -0.398126 -5.71916 0
M  V30 6924 H 636.126 -1.17163 -5.88552 0
M  V30 6925 H 637.196 -1.65588 -4.55751 0
M  V30 6926 N 638.539 1.52521 -0.396863 0
M  V30 6927 C 639.785 2.02641 0.175606 0
M  V30 6928 C 640.14 1.27782 1.43839 0
M  V30 6929 O 639.433 0.371921 1.87956 0
M  V30 6930 C 639.627 3.5403 0.489677 0
M  V30 6931 C 639.456 4.43551 -0.741113 0
M  V30 6932 C 638.226 4.8927 -1.26265 0
M  V30 6933 C 640.424 4.88263 -1.61565 0
M  V30 6934 N 638.406 5.62884 -2.4502 0
M  V30 6935 C 639.777 5.60534 -2.64955 0
M  V30 6936 C 641.832 4.70294 -1.63486 0
M  V30 6937 C 640.535 6.16744 -3.70162 0
M  V30 6938 C 642.561 5.27392 -2.67603 0
M  V30 6939 C 641.923 5.99575 -3.69715 0
M  V30 6940 H 638.022 0.781563 0.0261477 0
M  V30 6941 H 640.606 1.86816 -0.548454 0
M  V30 6942 H 638.777 3.69952 1.18279 0
M  V30 6943 H 640.509 3.90843 1.04996 0
M  V30 6944 H 637.264 4.66403 -0.822509 0
M  V30 6945 H 637.688 6.04339 -3.05128 0
M  V30 6946 H 642.33 4.13985 -0.858848 0
M  V30 6947 H 640.048 6.72131 -4.48626 0
M  V30 6948 H 643.634 5.15365 -2.69982 0
M  V30 6949 H 642.514 6.42967 -4.48958 0
M  V30 6950 N 640.017 0.126909 1.57088 0
M  V30 6951 C 641.245 -0.53667 1.99819 0
M  V30 6952 C 641.66 -1.5972 1.00673 0
M  V30 6953 O 641.017 -1.825 0.000747365 0
M  V30 6954 C 641.068 -1.15563 3.42531 0
M  V30 6955 O 640.789 -0.137483 4.37884 0
M  V30 6956 C 642.29 -1.90176 4.00435 0
M  V30 6957 H 639.51 -0.141443 0.655923 0
M  V30 6958 H 642.054 0.215578 2.03361 0
M  V30 6959 H 640.209 -1.85861 3.39904 0
M  V30 6960 H 640.623 -0.588229 5.21191 0
M  V30 6961 H 642.097 -2.28801 5.02349 0
M  V30 6962 H 642.574 -2.78002 3.40017 0
M  V30 6963 H 643.18 -1.24623 4.06632 0
M  V30 6964 N 641.495 -1.56914 -0.146875 0
M  V30 6965 C 642.742 -1.83356 -0.859467 0
M  V30 6966 C 643.07 -0.707811 -1.81164 0
M  V30 6967 O 642.325 0.303155 -1.93338 0
M  V30 6968 C 642.624 -3.16128 -1.66727 0
M  V30 6969 C 642.29 -4.42586 -0.861881 0
M  V30 6970 C 640.952 -4.76929 -0.639687 0
M  V30 6971 C 643.304 -5.20344 -0.298643 0
M  V30 6972 C 640.632 -5.86491 0.156451 0
M  V30 6973 C 642.984 -6.30742 0.484536 0
M  V30 6974 C 641.648 -6.63635 0.717306 0
M  V30 6975 H 640.918 -0.670947 -0.314501 0
M  V30 6976 H 643.565 -1.91104 -0.123108 0
M  V30 6977 H 641.87 -3.03831 -2.47374 0
M  V30 6978 H 643.567 -3.33802 -2.2221 0
M  V30 6979 H 640.157 -4.15662 -1.04513 0
M  V30 6980 H 644.341 -4.94186 -0.457585 0
M  V30 6981 H 639.597 -6.10419 0.346292 0
M  V30 6982 H 643.771 -6.90188 0.928105 0
M  V30 6983 H 641.398 -7.48367 1.33607 0
M  V30 6984 N 642.974 0.416227 -1.52004 0
M  V30 6985 C 643.904 1.51365 -1.77795 0
M  V30 6986 C 644.885 1.58059 -0.628601 0
M  V30 6987 O 646.07 1.73447 -0.873478 0
M  V30 6988 C 643.2 2.89256 -1.92219 0
M  V30 6989 C 642.154 2.97415 -3.0778 0
M  V30 6990 C 641.48 4.37492 -3.07417 0
M  V30 6991 C 642.78 2.69551 -4.47369 0
M  V30 6992 H 644.474 1.30033 -2.69688 0
M  V30 6993 H 642.02 0.624112 -1.29772 0
M  V30 6994 H 643.973 3.66008 -2.08845 0
M  V30 6995 H 642.697 3.11866 -0.969917 0
M  V30 6996 H 641.356 2.23107 -2.90893 0
M  V30 6997 H 641.004 4.571 -2.09925 0
M  V30 6998 H 640.704 4.43877 -3.85029 0
M  V30 6999 H 642.228 5.16188 -3.26162 0
M  V30 7000 H 643.642 3.36028 -4.64497 0
M  V30 7001 H 642.039 2.87321 -5.26846 0
M  V30 7002 H 643.109 1.65029 -4.55953 0
M  V30 7003 N 644.452 1.42507 0.673017 0
M  V30 7004 C 645.699 1.43072 1.43306 0
M  V30 7005 C 646.027 0.0478004 1.94441 0
M  V30 7006 O 645.282 -0.944106 1.71421 0
M  V30 7007 C 645.581 2.40351 2.64511 0
M  V30 7008 C 645.247 3.8669 2.31908 0
M  V30 7009 C 643.909 4.26551 2.22728 0
M  V30 7010 C 646.261 4.78991 2.05467 0
M  V30 7011 C 643.589 5.56691 1.85234 0
M  V30 7012 C 645.941 6.09476 1.69477 0
M  V30 7013 C 644.605 6.48334 1.58808 0
M  V30 7014 H 643.875 0.523536 0.524395 0
M  V30 7015 H 646.522 1.75459 0.76723 0
M  V30 7016 H 644.827 2.01297 3.36135 0
M  V30 7017 H 646.524 2.38051 3.22696 0
M  V30 7018 H 643.114 3.55132 2.39956 0
M  V30 7019 H 647.298 4.48982 2.11492 0
M  V30 7020 H 642.554 5.85657 1.75545 0
M  V30 7021 H 646.728 6.80482 1.48043 0
M  V30 7022 H 644.355 7.49084 1.29525 0
M  V30 7023 N 645.93 -0.909495 1.28709 0
M  V30 7024 C 647.176 -1.66151 1.16283 0
M  V30 7025 C 647.509 -1.92067 -0.287069 0
M  V30 7026 O 646.784 -1.52409 -1.20837 0
M  V30 7027 C 647.067 -3.01676 1.9663 0
M  V30 7028 C 646.92 -2.82888 3.49707 0
M  V30 7029 C 648.239 -4.02274 1.78504 0
M  V30 7030 H 645.358 -0.602966 0.423793 0
M  V30 7031 H 648 -1.05418 1.58073 0
M  V30 7032 H 646.15 -3.53515 1.61119 0
M  V30 7033 H 647.822 -2.38026 3.95147 0
M  V30 7034 H 646.065 -2.17862 3.75125 0
M  V30 7035 H 646.736 -3.79147 4.01187 0
M  V30 7036 H 649.212 -3.59511 2.09503 0
M  V30 7037 H 648.088 -4.95056 2.37088 0
M  V30 7038 H 648.349 -4.35903 0.737647 0
M  V30 7039 N 647.408 -1.11026 -1.11852 0
M  V30 7040 C 648.633 -0.879064 -1.87849 0
M  V30 7041 C 649.058 0.565406 -1.79401 0
M  V30 7042 O 648.416 1.39886 -1.15333 0
M  V30 7043 C 648.464 -1.33985 -3.34784 0
M  V30 7044 O 647.568 -0.508803 -4.09249 0
M  V30 7045 H 646.909 -0.316992 -0.583448 0
M  V30 7046 H 649.439 -1.47863 -1.41413 0
M  V30 7047 H 649.449 -1.33248 -3.85628 0
M  V30 7048 H 648.124 -2.39172 -3.40249 0
M  V30 7049 H 646.701 -0.581913 -3.68332 0
M  V30 7050 N 648.886 1.2938 -0.899927 0
M  V30 7051 C 650.135 1.9483 -0.521937 0
M  V30 7052 C 650.448 1.71725 0.936473 0
M  V30 7053 O 651.654 2.31282 1.42199 0
M  V30 7054 C 650.11 3.48911 -0.88255 0
M  V30 7055 C 649.718 3.80815 -2.35974 0
M  V30 7056 C 651.462 4.20595 -0.57448 0
M  V30 7057 C 649.369 5.28142 -2.66121 0
M  V30 7058 H 648.299 0.729285 -0.191468 0
M  V30 7059 H 650.95 1.47103 -1.09695 0
M  V30 7060 H 649.332 3.95293 -0.236459 0
M  V30 7061 H 650.506 3.45291 -3.05141 0
M  V30 7062 H 648.821 3.22271 -2.63686 0
M  V30 7063 H 651.418 5.29031 -0.776556 0
M  V30 7064 H 651.761 4.13442 0.487005 0
M  V30 7065 H 652.294 3.79945 -1.17842 0
M  V30 7066 H 649.033 5.4036 -3.71068 0
M  V30 7067 H 648.553 5.64913 -2.01578 0
M  V30 7068 H 650.232 5.95738 -2.52399 0
M  V30 7069 N 650.364 0.662433 1.43002 0
M  V30 7070 C 651.61 0.179857 2.02001 0
M  V30 7071 C 651.943 -1.20625 1.52195 0
M  V30 7072 O 651.218 -1.80726 0.718911 0
M  V30 7073 C 651.501 0.200845 3.59539 0
M  V30 7074 C 651.354 1.62153 4.19555 0
M  V30 7075 C 652.673 -0.457738 4.37713 0
M  V30 7076 H 649.792 0.0668305 0.733964 0
M  V30 7077 H 652.434 0.84487 1.70182 0
M  V30 7078 H 650.584 -0.365411 3.86778 0
M  V30 7079 H 652.256 2.23908 4.03315 0
M  V30 7080 H 650.499 2.16601 3.75854 0
M  V30 7081 H 651.17 1.58799 5.28665 0
M  V30 7082 H 653.646 0.0241495 4.16093 0
M  V30 7083 H 652.522 -0.412363 5.47349 0
M  V30 7084 H 652.783 -1.53336 4.14657 0
M  V30 7085 N 651.842 -1.52309 0.404946 0
M  V30 7086 C 653.09 -2.01368 -0.17186 0
M  V30 7087 C 653.411 -1.29261 -1.46002 0
M  V30 7088 O 652.681 -0.41729 -1.91404 0
M  V30 7089 H 651.261 -0.744034 -0.0664993 0
M  V30 7090 H 653.923 -1.87263 0.540228 0
M  V30 7091 H 653.019 -3.09888 -0.370957 0
M  V30 7092 N 653.32 -0.135238 -1.57019 0
M  V30 7093 C 654.545 0.529343 -2.00531 0
M  V30 7094 C 654.97 1.58391 -1.01459 0
M  V30 7095 O 654.328 1.81296 0.0113986 0
M  V30 7096 C 654.376 1.11748 -3.42848 0
M  V30 7097 O 653.48 2.23267 -3.46736 0
M  V30 7098 H 652.821 0.130669 -0.651016 0
M  V30 7099 H 655.351 -0.228503 -2.0332 0
M  V30 7100 H 655.361 1.44905 -3.81401 0
M  V30 7101 H 654.036 0.345147 -4.14465 0
M  V30 7102 H 652.613 1.91428 -3.20015 0
M  V30 7103 N 654.798 1.5699 0.138552 0
M  V30 7104 C 655.728 2.01933 1.17241 0
M  V30 7105 C 656.709 0.90033 1.44319 0
M  V30 7106 O 657.894 1.16872 1.55095 0
M  V30 7107 C 655.024 2.40711 2.50351 0
M  V30 7108 C 653.978 3.55874 2.37776 0
M  V30 7109 C 653.304 3.80491 3.75674 0
M  V30 7110 C 654.604 4.8826 1.85472 0
M  V30 7111 H 656.298 2.88551 0.798672 0
M  V30 7112 H 653.844 1.3882 0.382743 0
M  V30 7113 H 655.797 2.70754 3.22909 0
M  V30 7114 H 654.521 1.5104 2.89576 0
M  V30 7115 H 653.18 3.2601 1.67669 0
M  V30 7116 H 652.828 2.88057 4.12349 0
M  V30 7117 H 652.528 4.57998 3.68119 0
M  V30 7118 H 654.052 4.12967 4.49767 0
M  V30 7119 H 655.466 5.16965 2.4783 0
M  V30 7120 H 653.863 5.69631 1.88787 0
M  V30 7121 H 654.933 4.78071 0.810935 0
M  V30 7122 N 656.276 -0.40816 1.52223 0
M  V30 7123 C 657.524 -1.15274 1.66001 0
M  V30 7124 C 657.845 -1.91003 0.392803 0
M  V30 7125 O 657.115 -1.8673 -0.592336 0
M  V30 7126 H 655.695 -0.428526 0.611861 0
M  V30 7127 H 658.357 -0.46512 1.89269 0
M  V30 7128 H 657.453 -1.86628 2.50153 0
M  V30 7129 N 657.755 -1.42862 -0.66545 0
M  V30 7130 C 658.685 -1.49867 -1.79059 0
M  V30 7131 C 659.666 -0.354394 -1.66367 0
M  V30 7132 O 660.851 -0.569969 -1.85647 0
M  V30 7133 C 657.981 -1.40943 -3.17415 0
M  V30 7134 C 656.935 -2.53495 -3.44854 0
M  V30 7135 C 656.261 -2.29626 -4.82883 0
M  V30 7136 C 657.561 -3.95781 -3.40815 0
M  V30 7137 H 659.255 -2.44037 -1.73453 0
M  V30 7138 H 656.801 -1.17456 -0.833071 0
M  V30 7139 H 658.754 -1.4445 -3.95869 0
M  V30 7140 H 657.478 -0.432716 -3.23721 0
M  V30 7141 H 656.137 -2.4932 -2.68766 0
M  V30 7142 H 655.785 -1.30226 -4.8585 0
M  V30 7143 H 655.485 -3.05065 -5.02204 0
M  V30 7144 H 657.009 -2.34897 -5.63609 0
M  V30 7145 H 658.423 -4.01508 -4.09224 0
M  V30 7146 H 656.82 -4.71148 -3.71672 0
M  V30 7147 H 657.89 -4.21786 -2.39216 0
M  V30 7148 N 659.233 0.902656 -1.29189 0
M  V30 7149 C 660.48 1.65287 -1.16989 0
M  V30 7150 C 660.808 1.92485 0.279232 0
M  V30 7151 O 660.063 1.53143 1.21843 0
M  V30 7152 C 660.362 3.011 -1.92545 0
M  V30 7153 C 660.028 2.93521 -3.42281 0
M  V30 7154 C 658.69 2.91161 -3.83117 0
M  V30 7155 C 661.042 2.82947 -4.3771 0
M  V30 7156 C 658.37 2.76043 -5.17704 0
M  V30 7157 C 660.722 2.69368 -5.72384 0
M  V30 7158 C 659.386 2.65373 -6.12482 0
M  V30 7159 H 658.656 0.604828 -0.428094 0
M  V30 7160 H 661.303 1.05084 -1.60092 0
M  V30 7161 H 659.608 3.65153 -1.42024 0
M  V30 7162 H 661.305 3.58073 -1.80512 0
M  V30 7163 H 657.895 2.96158 -3.09819 0
M  V30 7164 H 662.079 2.83849 -4.07116 0
M  V30 7165 H 657.335 2.71352 -5.47885 0
M  V30 7166 H 661.509 2.60156 -6.45981 0
M  V30 7167 H 659.136 2.53415 -7.16718 0
M  V30 7168 N 660.711 1.11618 1.11262 0
M  V30 7169 C 661.957 0.867463 1.83311 0
M  V30 7170 C 662.29 -0.605366 1.84524 0
M  V30 7171 O 661.565 -1.44704 1.29965 0
M  V30 7172 C 661.848 1.43207 3.30399 0
M  V30 7173 C 661.701 2.97265 3.3757 0
M  V30 7174 C 663.02 1.08454 4.26528 0
M  V30 7175 H 660.139 0.316578 0.665543 0
M  V30 7176 H 662.781 1.38137 1.30454 0
M  V30 7177 H 660.931 0.994982 3.75543 0
M  V30 7178 H 662.603 3.49591 3.00971 0
M  V30 7179 H 660.846 3.33237 2.77733 0
M  V30 7180 H 661.517 3.31859 4.41105 0
M  V30 7181 H 663.993 1.4619 3.89574 0
M  V30 7182 H 662.869 1.50633 5.27826 0
M  V30 7183 H 663.13 -0.00444568 4.421 0
M  V30 7184 N 662.189 -1.289 0.906776 0
M  V30 7185 C 663.6 -1.77336 0.58384 0
M  V30 7186 C 663.951 -1.74304 -0.900697 0
M  V30 7187 O 663.076 -1.33335 -1.70443 0
M  V30 7188 C 663.671 -3.22019 1.05304 0
M  V30 7189 C 662.23 -3.68205 0.781148 0
M  V30 7190 C 661.377 -2.48837 1.22373 0
M  V30 7191 H 664.328 -1.15462 1.08877 0
M  V30 7192 H 664.349 -3.78481 0.391414 0
M  V30 7193 H 663.861 -3.24194 2.13353 0
M  V30 7194 H 661.962 -3.71497 -0.28643 0
M  V30 7195 H 662.075 -4.58675 1.384 0
M  V30 7196 H 660.439 -2.46461 0.642594 0
M  V30 7197 H 661.222 -2.53736 2.31242 0
M  V30 7198 N 663.667 -0.670007 -1.42649 0
M  V30 7199 C 664.913 -0.190568 -2.01903 0
M  V30 7200 C 665.246 1.19817 -1.52832 0
M  V30 7201 O 664.521 1.80342 -0.728485 0
M  V30 7202 C 664.804 -0.21991 -3.59428 0
M  V30 7203 C 664.657 -1.64376 -4.18689 0
M  V30 7204 C 665.976 0.434519 -4.3795 0
M  V30 7205 H 663.095 -0.0707219 -0.733599 0
M  V30 7206 H 665.737 -0.853883 -1.69732 0
M  V30 7207 H 663.887 0.344894 -3.86966 0
M  V30 7208 H 665.559 -2.26044 -4.02122 0
M  V30 7209 H 663.802 -2.18591 -3.747 0
M  V30 7210 H 664.473 -1.61601 -5.27815 0
M  V30 7211 H 666.949 -0.0462156 -4.16074 0
M  V30 7212 H 665.825 0.38333 -5.4756 0
M  V30 7213 H 666.086 1.51135 -4.15464 0
M  V30 7214 N 665.145 1.52092 -0.413018 0
M  V30 7215 C 666.394 2.01041 0.16287 0
M  V30 7216 C 666.707 1.30288 1.45892 0
M  V30 7217 O 667.913 1.70075 2.11629 0
M  V30 7218 C 666.369 3.58283 0.340806 0
M  V30 7219 C 665.977 4.37955 -0.943377 0
M  V30 7220 C 667.721 4.15452 0.871774 0
M  V30 7221 C 665.628 5.86847 -0.732417 0
M  V30 7222 H 664.558 0.751224 0.0646414 0
M  V30 7223 H 667.209 1.75404 -0.539059 0
M  V30 7224 H 665.591 3.80266 1.10516 0
M  V30 7225 H 666.765 4.2773 -1.71418 0
M  V30 7226 H 665.08 3.92122 -1.40105 0
M  V30 7227 H 667.677 5.24375 1.0457 0
M  V30 7228 H 668.02 3.73057 1.84755 0
M  V30 7229 H 668.553 3.97452 0.166377 0
M  V30 7230 H 665.292 6.33609 -1.67986 0
M  V30 7231 H 664.812 5.998 -0.000980058 0
M  V30 7232 H 666.491 6.45906 -0.376105 0
M  V30 7233 N 666.623 0.143563 1.56945 0
M  V30 7234 C 667.853 -0.514699 2.00086 0
M  V30 7235 C 668.261 -1.59184 1.0226 0
M  V30 7236 O 667.604 -1.83697 0.0110514 0
M  V30 7237 C 667.666 -1.17778 3.39659 0
M  V30 7238 C 667.33 -0.245657 4.56339 0
M  V30 7239 C 668.327 0.525343 5.17239 0
M  V30 7240 C 666.012 -0.149564 5.02077 0
M  V30 7241 C 668.006 1.37992 6.22284 0
M  V30 7242 C 665.693 0.708621 6.06978 0
M  V30 7243 C 666.691 1.47197 6.6695 0
M  V30 7244 O 666.379 2.31586 7.6982 0
M  V30 7245 H 666.111 -0.138789 0.661599 0
M  V30 7246 H 668.665 0.234098 2.04062 0
M  V30 7247 H 666.895 -1.97415 3.32512 0
M  V30 7248 H 668.584 -1.73542 3.6693 0
M  V30 7249 H 669.35 0.461118 4.82803 0
M  V30 7250 H 665.229 -0.733457 4.55128 0
M  V30 7251 H 668.773 1.97621 6.69023 0
M  V30 7252 H 664.67 0.77415 6.40841 0
M  V30 7253 H 665.438 2.24796 7.87025 0
M  V30 7254 N 668.101 -1.57061 -0.130224 0
M  V30 7255 C 669.048 -1.99517 -1.16024 0
M  V30 7256 C 670.018 -0.865452 -1.41771 0
M  V30 7257 O 671.203 -1.12882 -1.53826 0
M  V30 7258 C 668.343 -2.3951 -2.48453 0
M  V30 7259 C 667.456 -3.65848 -2.29737 0
M  V30 7260 C 666.591 -3.9487 -3.55318 0
M  V30 7261 C 665.63 -5.14426 -3.31711 0
M  V30 7262 N 664.767 -5.39375 -4.49466 0
M  V30 7263 H 669.607 -2.87305 -0.791194 0
M  V30 7264 H 667.144 -1.42129 -0.379195 0
M  V30 7265 H 669.102 -2.60731 -3.25692 0
M  V30 7266 H 667.732 -1.54779 -2.83272 0
M  V30 7267 H 666.784 -3.52307 -1.4347 0
M  V30 7268 H 668.096 -4.53241 -2.08263 0
M  V30 7269 H 667.25 -4.16679 -4.4098 0
M  V30 7270 H 665.989 -3.05931 -3.79813 0
M  V30 7271 H 664.994 -4.92473 -2.44439 0
M  V30 7272 H 666.219 -6.04933 -3.08598 0
M  V30 7273 H 664.165 -4.53391 -4.74102 0
M  V30 7274 H 664.082 -6.21069 -4.31055 0
M  V30 7275 H 665.35 -5.65694 -5.36293 0
M  V30 7276 N 669.579 0.400081 -1.52437 0
M  V30 7277 C 670.825 1.14456 -1.68141 0
M  V30 7278 C 671.18 1.87965 -0.410722 0
M  V30 7279 O 670.473 1.82121 0.595195 0
M  V30 7280 C 670.667 2.15914 -2.84808 0
M  V30 7281 C 670.496 1.5237 -4.231 0
M  V30 7282 C 669.266 1.29252 -4.8849 0
M  V30 7283 C 671.464 0.979722 -5.04882 0
M  V30 7284 N 669.446 0.616955 -6.10792 0
M  V30 7285 C 670.817 0.43159 -6.18496 0
M  V30 7286 C 672.872 0.875059 -4.9015 0
M  V30 7287 C 671.575 -0.210958 -7.18991 0
M  V30 7288 C 673.601 0.246351 -5.90887 0
M  V30 7289 C 672.963 -0.291062 -7.03798 0
M  V30 7290 H 669.062 0.405181 -0.668844 0
M  V30 7291 H 671.646 0.435655 -1.89763 0
M  V30 7292 H 669.817 2.84154 -2.64785 0
M  V30 7293 H 671.549 2.8279 -2.89503 0
M  V30 7294 H 668.304 1.56451 -4.47012 0
M  V30 7295 H 668.728 0.295536 -6.76355 0
M  V30 7296 H 673.37 1.27636 -4.03074 0
M  V30 7297 H 671.088 -0.6243 -8.05685 0
M  V30 7298 H 674.674 0.166765 -5.81561 0
M  V30 7299 H 673.554 -0.76988 -7.80412 0
M  V30 7300 N 671.057 1.43213 0.657864 0
M  V30 7301 C 672.02 1.47687 1.75275 0
M  V30 7302 C 673.02 0.362179 1.56668 0
M  V30 7303 O 674.21 0.623734 1.62651 0
M  V30 7304 C 671.342 1.32497 3.14098 0
M  V30 7305 H 672.535 2.4519 1.7269 0
M  V30 7306 H 670.088 1.2991 0.869087 0
M  V30 7307 H 670.823 0.359831 3.22298 0
M  V30 7308 H 670.608 2.13299 3.29008 0
M  V30 7309 H 672.098 1.38549 3.93946 0
M  V30 7310 N 672.536 -0.895792 1.29666 0
M  V30 7311 C 673.484 -2.02173 1.15017 0
M  V30 7312 C 674.478 -1.69276 0.0647651 0
M  V30 7313 O 675.684 -1.7859 0.224846 0
M  V30 7314 H 672.059 -0.662719 0.355397 0
M  V30 7315 H 674.03 -2.11666 2.10334 0
M  V30 7316 C 672.779 -3.37212 0.847555 0
M  V30 7317 H 672.102 -3.6303 1.67479 0
M  V30 7318 H 673.542 -4.16668 0.785106 0
M  V30 7319 C 672.001 -3.33891 -0.44929 0
M  V30 7320 O 672.531 -3.73673 -1.47415 0
M  V30 7321 N 670.737 -2.86991 -0.456547 0
M  V30 7322 H 670.284 -2.54813 0.377925 0
M  V30 7323 H 670.242 -2.85152 -1.32423 0
M  V30 7324 N 674.014 -1.12206 -1.10668 0
M  V30 7325 C 675.263 -0.870595 -1.81944 0
M  V30 7326 C 675.576 0.605447 -1.85994 0
M  V30 7327 O 676.782 0.973433 -2.53449 0
M  V30 7328 C 675.238 -1.50783 -3.26791 0
M  V30 7329 C 674.846 -3.01849 -3.31046 0
M  V30 7330 C 676.59 -1.33653 -4.02911 0
M  V30 7331 C 674.497 -3.58518 -4.70339 0
M  V30 7332 H 673.427 -0.322043 -0.681765 0
M  V30 7333 H 676.078 -1.34827 -1.24475 0
M  V30 7334 H 674.46 -0.957825 -3.84242 0
M  V30 7335 H 675.634 -3.63321 -2.83433 0
M  V30 7336 H 673.949 -3.18346 -2.68411 0
M  V30 7337 H 676.546 -1.73416 -5.05797 0
M  V30 7338 H 676.889 -0.279949 -4.15358 0
M  V30 7339 H 677.422 -1.85562 -3.51868 0
M  V30 7340 H 674.161 -4.63925 -4.63091 0
M  V30 7341 H 673.681 -3.01819 -5.18329 0
M  V30 7342 H 675.36 -3.57434 -5.39305 0
M  V30 7343 N 675.492 1.28418 -0.913599 0
M  V30 7344 C 676.422 2.29713 -0.418847 0
M  V30 7345 C 677.403 1.62165 0.513469 0
M  V30 7346 O 678.588 1.89576 0.421235 0
M  V30 7347 C 675.718 3.45612 0.342042 0
M  V30 7348 C 674.672 4.25056 -0.501123 0
M  V30 7349 C 673.998 5.3329 0.388097 0
M  V30 7350 C 675.298 4.91814 -1.75831 0
M  V30 7351 H 676.992 2.71346 -1.26538 0
M  V30 7352 H 674.538 1.30446 -0.609903 0
M  V30 7353 H 676.491 4.15562 0.699 0
M  V30 7354 H 675.215 3.02858 1.22248 0
M  V30 7355 H 673.874 3.56833 -0.840598 0
M  V30 7356 H 673.522 4.8678 1.26707 0
M  V30 7357 H 673.222 5.87347 -0.172459 0
M  V30 7358 H 674.746 6.06088 0.74094 0
M  V30 7359 H 676.16 5.54126 -1.47026 0
M  V30 7360 H 674.557 5.55866 -2.26126 0
M  V30 7361 H 675.627 4.16313 -2.4862 0
M  V30 7362 N 676.97 0.677563 1.42291 0
M  V30 7363 C 678.219 0.198173 2.00724 0
M  V30 7364 C 678.532 -1.20325 1.54211 0
M  V30 7365 O 679.738 -1.77916 2.05081 0
M  V30 7366 C 678.194 0.303432 3.58619 0
M  V30 7367 C 677.802 1.70909 4.14119 0
M  V30 7368 C 679.546 -0.117103 4.24338 0
M  V30 7369 C 677.453 1.76696 5.64387 0
M  V30 7370 H 676.383 0.070329 0.750713 0
M  V30 7371 H 679.034 0.843147 1.62982 0
M  V30 7372 H 677.416 -0.409482 3.93877 0
M  V30 7373 H 678.59 2.44931 3.90315 0
M  V30 7374 H 676.905 2.07771 3.6086 0
M  V30 7375 H 679.502 -0.0940471 5.34617 0
M  V30 7376 H 679.845 -1.15283 4.00019 0
M  V30 7377 H 680.378 0.5449 3.9405 0
M  V30 7378 H 677.117 2.7826 5.93508 0
M  V30 7379 H 676.637 1.07034 5.90173 0
M  V30 7380 H 678.316 1.52166 6.28852 0
M  V30 7381 N 678.448 -1.51871 0.421078 0
M  V30 7382 C 679.859 -1.86644 -0.0457991 0
M  V30 7383 C 680.21 -1.33919 -1.43388 0
M  V30 7384 O 679.335 -0.683316 -2.05328 0
M  V30 7385 C 679.93 -3.38681 -0.0898844 0
M  V30 7386 C 678.489 -3.73049 -0.501127 0
M  V30 7387 C 677.636 -2.75485 0.316723 0
M  V30 7388 H 680.587 -1.45327 0.637635 0
M  V30 7389 H 680.608 -3.69636 -0.902734 0
M  V30 7390 H 680.12 -3.77025 0.920513 0
M  V30 7391 H 678.221 -3.40288 -1.51773 0
M  V30 7392 H 678.334 -4.78512 -0.237217 0
M  V30 7393 H 676.698 -2.53725 -0.222663 0
M  V30 7394 H 677.481 -3.16671 1.32569 0
M  V30 7395 N 679.926 -0.151884 -1.56866 0
M  V30 7396 C 681.172 0.498742 -1.96572 0
M  V30 7397 C 681.505 1.64194 -1.03702 0
M  V30 7398 O 680.78 1.94334 -0.0803432 0
M  V30 7399 C 681.063 1.00027 -3.45929 0
M  V30 7400 C 680.916 -0.141767 -4.49577 0
M  V30 7401 C 682.235 1.88044 -3.97904 0
M  V30 7402 H 679.354 0.17982 -0.714726 0
M  V30 7403 H 681.996 -0.234097 -1.88552 0
M  V30 7404 H 680.146 1.62476 -3.52894 0
M  V30 7405 H 681.818 -0.778269 -4.54687 0
M  V30 7406 H 680.061 -0.80019 -4.26356 0
M  V30 7407 H 680.732 0.250947 -5.51429 0
M  V30 7408 H 683.208 1.35416 -3.93449 0
M  V30 7409 H 682.084 2.20043 -5.02864 0
M  V30 7410 H 682.345 2.81916 -3.40552 0
M  V30 7411 N 681.404 1.57128 0.121893 0
M  V30 7412 C 682.354 1.96556 1.15541 0
M  V30 7413 C 683.338 0.840147 1.37224 0
M  V30 7414 O 684.53 1.10382 1.38365 0
M  V30 7415 C 681.659 2.37097 2.48274 0
M  V30 7416 C 680.745 3.56265 2.30078 0
M  V30 7417 N 681.136 4.72041 1.81688 0
M  V30 7418 C 679.434 3.61841 2.60744 0
M  V30 7419 C 680.135 5.54075 1.77132 0
M  V30 7420 N 679.111 4.96483 2.21371 0
M  V30 7421 H 682.913 2.83531 0.77378 0
M  V30 7422 H 680.427 1.59019 0.329672 0
M  V30 7423 H 682.424 2.6356 3.2302 0
M  V30 7424 H 681.084 1.51486 2.87197 0
M  V30 7425 H 682.095 4.95313 1.51278 0
M  V30 7426 H 678.772 2.8683 3.03373 0
M  V30 7427 H 680.162 6.56939 1.40998 0
M  V30 7428 N 682.882 -0.391992 1.52647 0
M  V30 7429 C 684.131 -1.13449 1.6677 0
M  V30 7430 C 684.444 -1.91203 0.412399 0
M  V30 7431 O 685.65 -2.68013 0.433707 0
M  V30 7432 C 684.106 -2.06577 2.9471 0
M  V30 7433 C 683.714 -1.3426 4.27409 0
M  V30 7434 C 685.458 -2.80981 3.18198 0
M  V30 7435 C 683.365 -2.26136 5.46458 0
M  V30 7436 H 682.295 -0.427211 0.621295 0
M  V30 7437 H 684.946 -0.397522 1.79142 0
M  V30 7438 H 683.328 -2.83898 2.76076 0
M  V30 7439 H 684.502 -0.621856 4.56585 0
M  V30 7440 H 682.817 -0.718279 4.10158 0
M  V30 7441 H 685.414 -3.49898 4.04321 0
M  V30 7442 H 685.757 -3.44891 2.33144 0
M  V30 7443 H 686.29 -2.10754 3.37383 0
M  V30 7444 H 683.029 -1.66846 6.33911 0
M  V30 7445 H 682.549 -2.96134 5.21598 0
M  V30 7446 H 684.228 -2.86286 5.80215 0
M  V30 7447 N 684.36 -1.4356 -0.65026 0
M  V30 7448 C 685.608 -1.45046 -1.40734 0
M  V30 7449 C 685.929 -0.0769822 -1.94848 0
M  V30 7450 O 685.199 0.888098 -1.74613 0
M  V30 7451 H 683.779 -0.534034 -0.522318 0
M  V30 7452 H 686.441 -1.79186 -0.766703 0
M  V30 7453 H 685.537 -2.16476 -2.24822 0
M  V30 7454 N 685.838 0.888903 -1.30139 0
M  V30 7455 C 686.786 2.0156 -1.16088 0
M  V30 7456 C 687.78 1.69239 -0.0737413 0
M  V30 7457 O 688.986 1.78468 -0.234313 0
M  V30 7458 H 685.361 0.660825 -0.358907 0
M  V30 7459 H 687.332 2.10547 -2.11453 0
M  V30 7460 C 686.081 3.36758 -0.865426 0
M  V30 7461 H 685.404 3.62137 -1.69402 0
M  V30 7462 H 686.844 4.16246 -0.807192 0
M  V30 7463 C 685.303 3.34124 0.431577 0
M  V30 7464 O 685.833 3.7445 1.45431 0
M  V30 7465 N 684.039 2.87229 0.441321 0
M  V30 7466 H 683.586 2.54609 -0.391433 0
M  V30 7467 H 683.544 2.8585 1.30909 0
M  V30 7468 N 687.317 1.12792 1.10072 0
M  V30 7469 C 688.28 0.802264 2.14701 0
M  V30 7470 C 689.28 -0.18515 1.59731 0
M  V30 7471 O 690.47 0.041109 1.74151 0
M  V30 7472 C 687.602 0.19285 3.40354 0
M  V30 7473 H 688.795 1.72932 2.45019 0
M  V30 7474 H 686.348 0.931662 1.25498 0
M  V30 7475 H 687.083 -0.743748 3.15656 0
M  V30 7476 H 686.868 0.903827 3.81541 0
M  V30 7477 H 688.358 -0.0183704 4.17596 0
M  V30 7478 N 688.795 -1.27931 0.920396 0
M  V30 7479 C 689.743 -2.29061 0.404191 0
M  V30 7480 C 690.737 -1.61615 -0.507634 0
M  V30 7481 O 691.943 -1.75765 -0.388144 0
M  V30 7482 H 688.318 -0.743594 0.112123 0
M  V30 7483 H 690.289 -2.70021 1.27008 0
M  V30 7484 C 689.038 -3.46088 -0.334466 0
M  V30 7485 H 688.361 -3.98194 0.35797 0
M  V30 7486 H 689.801 -4.18829 -0.660196 0
M  V30 7487 C 688.26 -2.99396 -1.54479 0
M  V30 7488 O 688.79 -3.02439 -2.64374 0
M  V30 7489 N 686.996 -2.54978 -1.39408 0
M  V30 7490 H 686.543 -2.52701 -0.500009 0
M  V30 7491 H 686.501 -2.24098 -2.20516 0
M  V30 7492 N 690.273 -0.685099 -1.4193 0
M  V30 7493 C 691.22 -0.0131869 -2.30796 0
M  V30 7494 C 692.19 0.782129 -1.46533 0
M  V30 7495 O 693.375 0.75229 -1.75343 0
M  V30 7496 C 690.515 0.924768 -3.32479 0
M  V30 7497 C 689.628 0.122181 -4.31827 0
M  V30 7498 C 688.763 1.05682 -5.20581 0
M  V30 7499 C 687.802 0.246526 -6.11603 0
M  V30 7500 N 686.939 1.13442 -6.92875 0
M  V30 7501 H 691.779 -0.776789 -2.87698 0
M  V30 7502 H 689.316 -0.394791 -1.41703 0
M  V30 7503 H 691.274 1.48251 -3.89971 0
M  V30 7504 H 689.904 1.65488 -2.77152 0
M  V30 7505 H 688.956 -0.552335 -3.76369 0
M  V30 7506 H 690.268 -0.506473 -4.96222 0
M  V30 7507 H 689.422 1.68415 -5.82856 0
M  V30 7508 H 688.161 1.71935 -4.56388 0
M  V30 7509 H 687.166 -0.393944 -5.48387 0
M  V30 7510 H 688.391 -0.412053 -6.77849 0
M  V30 7511 H 686.337 1.78316 -6.313 0
M  V30 7512 H 686.254 0.561089 -7.53915 0
M  V30 7513 H 687.522 1.74889 -7.59628 0
M  V30 7514 O 691.79 1.51061 -0.571204 0
M  V30 7515 H 692.481 1.93564 -0.0726397 0
M  V30 END ATOM
M  V30 BEGIN BOND
M  V30 END BOND
M  V30 END CTAB
M  END
$$$$
