drugbank_target|P80357 Arginine N-succinyltransferase subunit alpha (DB01942)
 OpenBabel12092120233D

  0  0  0     0  0            999 V3000
M  V30 BEGIN CTAB
M  V30 COUNTS 5157 5215 0 0 0
M  V30 BEGIN ATOM
M  V30 1 H -0.908 1.98254 -0.117106 0
M  V30 2 N 0 1.576 0 0
M  V30 3 C 0.933 2.03868 1.02534 0
M  V30 4 C 1.911 0.928543 1.3348 0
M  V30 5 O 3.095 1.19667 1.45644 0
M  V30 6 C 0.222 2.43627 2.35294 0
M  V30 7 C -0.732 3.65373 2.2001 0
M  V30 8 S 0.101 5.13292 1.52614 0
M  V30 9 C 1.257 5.56322 2.86805 0
M  V30 10 H 1.49 2.90518 0.631377 0
M  V30 11 H -0.977 1.52953 0.210867 0
M  V30 12 H 0.981 2.67203 3.11629 0
M  V30 13 H -0.358 1.57376 2.7183 0
M  V30 14 H -1.165 3.90944 3.18086 0
M  V30 15 H -1.563 3.418 1.51819 0
M  V30 16 H 0.729 5.58782 3.83104 0
M  V30 17 H 1.672 6.56266 2.65933 0
M  V30 18 H 2.08 4.83886 2.90714 0
M  V30 19 N 1.4781 -0.272755 1.55222 0
M  V30 20 C 2.4081 -1.34136 1.91127 0
M  V30 21 C 3.3891 -1.51513 0.773168 0
M  V30 22 O 4.5741 -1.64552 1.03132 0
M  V30 23 C 1.7041 -2.70083 2.1834 0
M  V30 24 C 0.6581 -2.67437 3.34158 0
M  V30 25 C -0.0159 -4.06938 3.46851 0
M  V30 26 C 1.2841 -2.26686 4.70543 0
M  V30 27 H 2.9781 -1.04333 2.80633 0
M  V30 28 H 0.5241 -0.500454 1.35024 0
M  V30 29 H 2.4771 -3.44952 2.42046 0
M  V30 30 H 1.2011 -3.01469 1.25634 0
M  V30 31 H -0.1399 -1.95026 3.1042 0
M  V30 32 H -0.4919 -4.35547 2.51611 0
M  V30 33 H -0.7919 -4.06062 4.2472 0
M  V30 34 H 0.7321 -4.83545 3.72849 0
M  V30 35 H 2.1461 -2.91277 4.93792 0
M  V30 36 H 0.5431 -2.36971 5.5133 0
M  V30 37 H 1.6131 -1.21818 4.69349 0
M  V30 38 N 2.9562 -1.48159 -0.537278 0
M  V30 39 C 4.2022 -1.56035 -1.29541 0
M  V30 40 C 4.5352 -0.230377 -1.92829 0
M  V30 41 O 3.8102 0.762952 -1.78911 0
M  V30 42 C 4.0932 -2.69323 -2.39034 0
M  V30 43 C 3.9462 -4.12002 -1.80485 0
M  V30 44 C 5.2652 -2.78408 -3.40847 0
M  V30 45 H 2.3842 -0.567992 -0.469632 0
M  V30 46 H 5.0262 -1.80302 -0.599277 0
M  V30 47 H 3.1762 -2.48763 -2.98412 0
M  V30 48 H 4.8482 -4.43981 -1.25215 0
M  V30 49 H 3.0912 -4.19344 -1.11055 0
M  V30 50 H 3.7622 -4.87077 -2.59731 0
M  V30 51 H 6.2382 -2.97012 -2.91416 0
M  V30 52 H 5.1142 -3.59416 -4.14863 0
M  V30 53 H 5.3752 -1.86269 -4.00944 0
M  V30 54 N 4.4343 0.785586 -1.36625 0
M  V30 55 C 5.3673 1.90509 -1.25625 0
M  V30 56 C 6.3453 1.62 -0.139607 0
M  V30 57 O 7.5293 1.8591 -0.31141 0
M  V30 58 C 4.6563 3.25419 -0.939158 0
M  V30 59 C 3.7023 3.72856 -2.07077 0
M  V30 60 S 4.5353 3.88162 -3.68904 0
M  V30 61 C 5.6913 5.25942 -3.39317 0
M  V30 62 H 5.9243 1.99549 -2.20381 0
M  V30 63 H 3.4573 0.945226 -1.22085 0
M  V30 64 H 5.4153 4.03346 -0.763029 0
M  V30 65 H 4.0763 3.14099 -0.00931402 0
M  V30 66 H 3.2693 4.70624 -1.80357 0
M  V30 67 H 2.8713 3.01989 -2.20632 0
M  V30 68 H 5.1633 6.10651 -2.93447 0
M  V30 69 H 6.1063 5.57668 -4.36363 0
M  V30 70 H 6.5143 4.93224 -2.74573 0
M  V30 71 N 5.9124 1.20967 1.01018 0
M  V30 72 C 7.3284 0.965905 1.27053 0
M  V30 73 C 7.5284 -0.350785 1.98423 0
M  V30 74 O 6.5844 -1.07773 2.28344 0
M  V30 75 C 7.8974 2.15294 2.09926 0
M  V30 76 C 9.4454 2.19463 2.23171 0
M  V30 77 C 9.9204 3.3767 3.09424 0
M  V30 78 N 11.4114 3.37724 3.17012 0
M  V30 79 C 12.1464 4.25837 3.83993 0
M  V30 80 N 11.6424 5.24138 4.53047 0
M  V30 81 N 13.4354 4.1366 3.80581 0
M  V30 82 H 5.5864 2.0565 0.531194 0
M  V30 83 H 7.8494 0.90024 0.297106 0
M  V30 84 H 7.5554 3.10684 1.64828 0
M  V30 85 H 7.4294 2.13923 3.10672 0
M  V30 86 H 9.8164 1.24632 2.6749 0
M  V30 87 H 9.8974 2.2488 1.21912 0
M  V30 88 H 9.5414 4.32791 2.65808 0
M  V30 89 H 9.4714 3.29491 4.10784 0
M  V30 90 H 11.9624 2.6658 2.6785 0
M  V30 91 H 12.2754 5.87684 5.01844 0
M  V30 92 H 10.6204 5.28068 4.5185 0
M  V30 93 H 13.8114 3.36127 3.25785 0
M  V30 94 H 13.9844 4.82538 4.32505 0
M  V30 95 N 7.3905 -1.2043 1.01659 0
M  V30 96 C 8.8015 -1.71517 0.737482 0
M  V30 97 C 9.1525 -1.81547 -0.743973 0
M  V30 98 O 8.2775 -1.47803 -1.58061 0
M  V30 99 C 8.8725 -3.11515 1.33206 0
M  V30 100 C 7.4315 -3.59912 1.10183 0
M  V30 101 C 6.5785 -2.37116 1.43776 0
M  V30 102 H 9.5295 -1.05444 1.18606 0
M  V30 103 H 9.5505 -3.73575 0.722636 0
M  V30 104 H 9.0625 -3.04182 2.41028 0
M  V30 105 H 7.1635 -3.72577 0.0412756 0
M  V30 106 H 7.2765 -4.44731 1.78188 0
M  V30 107 H 5.6405 -2.39857 0.856778 0
M  V30 108 H 6.4235 -2.32424 2.52654 0
M  V30 109 N 8.8686 -0.792821 -1.36206 0
M  V30 110 C 9.8316 -0.199459 -2.2833 0
M  V30 111 C 10.8316 0.605189 -1.48977 0
M  V30 112 O 12.0216 0.425685 -1.68919 0
M  V30 113 C 9.1536 0.723523 -3.33134 0
M  V30 114 H 10.3466 -1.01181 -2.82316 0
M  V30 115 H 7.8996 -0.562485 -1.45828 0
M  V30 116 H 8.6346 1.56008 -2.84309 0
M  V30 117 H 8.4196 0.148436 -3.91819 0
M  V30 118 H 9.9096 1.13344 -4.01924 0
M  V30 119 N 10.3467 1.47872 -0.545128 0
M  V30 120 C 11.2787 2.27869 0.246621 0
M  V30 121 C 12.2917 1.36282 0.890561 0
M  V30 122 O 13.4807 1.61207 0.766449 0
M  V30 123 C 10.5807 3.10159 1.36582 0
M  V30 124 C 9.7537 4.29627 0.820954 0
M  V30 125 C 8.8127 4.93607 1.82314 0
M  V30 126 O 7.8387 5.52366 1.37406 0
M  V30 127 N 9.0407 4.87211 3.15603 0
M  V30 128 H 11.8057 2.96459 -0.439539 0
M  V30 129 H 9.3667 1.57367 -0.380421 0
M  V30 130 H 11.3587 3.49829 2.03474 0
M  V30 131 H 9.9287 2.43891 1.9554 0
M  V30 132 H 9.1487 3.94192 -0.0244032 0
M  V30 133 H 10.4367 5.06928 0.436063 0
M  V30 134 H 9.8347 4.40651 3.54744 0
M  V30 135 H 8.3917 5.30937 3.78087 0
M  V30 136 N 11.8248 0.280983 1.55075 0
M  V30 137 C 12.7878 -0.590896 2.21452 0
M  V30 138 C 13.7878 -1.07682 1.19421 0
M  V30 139 O 14.9778 -0.97605 1.44288 0
M  V30 140 C 12.1098 -1.81587 2.88511 0
M  V30 141 H 13.3028 -0.0112554 2.99898 0
M  V30 142 H 10.8558 0.0316438 1.56268 0
M  V30 143 H 11.5908 -2.43587 2.14093 0
M  V30 144 H 11.3758 -1.4753 3.63287 0
M  V30 145 H 12.8658 -2.43575 3.39206 0
M  V30 146 N 13.3029 -1.57598 0.00835791 0
M  V30 147 C 14.2659 -2.07884 -0.965242 0
M  V30 148 C 15.2659 -0.989825 -1.26725 0
M  V30 149 O 16.4559 -1.25218 -1.21104 0
M  V30 150 C 13.5879 -2.52731 -2.28779 0
M  V30 151 H 14.7809 -2.95178 -0.530112 0
M  V30 152 H 12.3339 -1.54458 -0.239283 0
M  V30 153 H 13.0689 -1.68705 -2.76964 0
M  V30 154 H 12.8539 -3.32272 -2.08177 0
M  V30 155 H 14.3439 -2.91933 -2.98605 0
M  V30 156 N 14.781 0.264519 -1.55364 0
M  V30 157 C 16.058 1.01677 -1.67096 0
M  V30 158 C 16.438 2.03996 -0.543015 0
M  V30 159 O 15.786 2.23907 0.45585 0
M  V30 160 C 15.996 1.66596 -3.0667 0
M  V30 161 C 17.344 2.17442 -3.64697 0
M  V30 162 O 18.368 1.76568 -3.09358 0
M  V30 163 O 17.227 2.92439 -4.61673 0
M  V30 164 H 14.321 0.472161 -0.678965 0
M  V30 165 H 16.867 0.259703 -1.67701 0
M  V30 166 H 15.639 0.924962 -3.80211 0
M  V30 167 H 15.262 2.48968 -3.10001 0
M  V30 168 N 16.2591 1.48442 0.529413 0
M  V30 169 C 17.1891 1.65902 1.64313 0
M  V30 170 C 18.1701 0.507897 1.6234 0
M  V30 171 O 19.3551 0.740503 1.79528 0
M  V30 172 C 16.4851 1.69911 3.02898 0
M  V30 173 C 15.4391 2.8453 3.19729 0
M  V30 174 C 14.7651 2.73629 4.59381 0
M  V30 175 C 16.0651 4.25821 3.02447 0
M  V30 176 H 17.7591 2.5914 1.49955 0
M  V30 177 H 15.3051 1.24709 0.719982 0
M  V30 178 H 17.2581 1.80715 3.80684 0
M  V30 179 H 15.9821 0.732524 3.18279 0
M  V30 180 H 14.6411 2.73283 2.44361 0
M  V30 181 H 14.2891 1.74938 4.71599 0
M  V30 182 H 13.9891 3.50541 4.71588 0
M  V30 183 H 15.5131 2.86401 5.39265 0
M  V30 184 H 16.9271 4.37898 3.70024 0
M  V30 185 H 15.3241 5.03735 3.26146 0
M  V30 186 H 16.3941 4.42244 1.98867 0
M  V30 187 N 17.7372 -0.778329 1.37039 0
M  V30 188 C 19.1482 -1.35421 1.28523 0
M  V30 189 C 19.4992 -1.96075 -0.0700901 0
M  V30 190 O 18.6242 -1.93352 -0.971801 0
M  V30 191 C 19.2192 -2.46211 2.32735 0
M  V30 192 C 17.7782 -2.99585 2.27873 0
M  V30 193 C 16.9252 -1.72748 2.16918 0
M  V30 194 H 19.8762 -0.5791 1.47757 0
M  V30 195 H 19.8972 -3.2552 1.9702 0
M  V30 196 H 19.4092 -2.02036 3.31365 0
M  V30 197 H 17.5102 -3.48152 1.32745 0
M  V30 198 H 17.6232 -3.55646 3.21018 0
M  V30 199 H 15.9872 -1.95416 1.63354 0
M  V30 200 H 16.7702 -1.30686 3.17452 0
M  V30 201 N 19.2153 -1.21501 -1.00376 0
M  V30 202 C 20.1473 -0.933174 -2.09343 0
M  V30 203 C 21.1603 0.0840896 -1.62583 0
M  V30 204 O 22.3493 -0.148563 -1.77881 0
M  V30 205 C 19.4493 -0.379869 -3.36764 0
M  V30 206 C 18.6223 -1.45176 -4.12605 0
M  V30 207 C 17.6813 -0.907476 -5.18316 0
M  V30 208 O 16.7073 -1.5912 -5.46507 0
M  V30 209 N 17.9093 0.276649 -5.7984 0
M  V30 210 H 20.6743 -1.87124 -2.34104 0
M  V30 211 H 18.2353 -1.12043 -1.16867 0
M  V30 212 H 20.2273 -0.00131488 -4.047 0
M  V30 213 H 18.7973 0.463048 -3.09151 0
M  V30 214 H 18.0173 -2.00411 -3.39454 0
M  V30 215 H 19.3053 -2.17328 -4.6005 0
M  V30 216 H 18.7033 0.849147 -5.59291 0
M  V30 217 H 17.2603 0.596702 -6.49063 0
M  V30 218 N 20.6934 1.19889 -1.02296 0
M  V30 219 C 21.9394 1.89701 -0.717033 0
M  V30 220 C 22.2724 1.7905 0.751989 0
M  V30 221 O 21.5474 1.17891 1.547 0
M  V30 222 C 21.8304 3.40858 -1.16136 0
M  V30 223 C 21.6834 3.60411 -2.69117 0
M  V30 224 C 23.0024 4.33876 -0.737549 0
M  V30 225 H 20.1214 0.688874 -0.261957 0
M  V30 226 H 22.7634 1.41154 -1.27183 0
M  V30 227 H 20.9134 3.82335 -0.689342 0
M  V30 228 H 22.5854 3.28145 -3.2422 0
M  V30 229 H 20.8284 3.03665 -3.0979 0
M  V30 230 H 21.4994 4.66396 -2.95261 0
M  V30 231 H 23.9754 4.00081 -1.14344 0
M  V30 232 H 22.8514 5.38242 -1.0764 0
M  V30 233 H 23.1124 4.40628 0.360436 0
M  V30 234 N 22.1715 0.800033 1.35784 0
M  V30 235 C 23.1035 0.163596 2.28615 0
M  V30 236 C 24.1165 -0.633317 1.49976 0
M  V30 237 O 25.3055 -0.466754 1.72289 0
M  V30 238 C 22.4055 -0.790958 3.29541 0
M  V30 239 C 21.5785 -0.0418255 4.3738 0
M  V30 240 C 20.6375 -0.91389 5.18203 0
M  V30 241 O 19.6635 -0.367234 5.68014 0
M  V30 242 N 20.8655 -2.23682 5.35674 0
M  V30 243 H 23.6305 0.96105 2.83873 0
M  V30 244 H 21.1915 0.654894 1.48063 0
M  V30 245 H 23.1835 -1.37844 3.80501 0
M  V30 246 H 21.7535 -1.48925 2.74846 0
M  V30 247 H 20.9735 0.726813 3.87442 0
M  V30 248 H 22.2615 0.474719 5.06581 0
M  V30 249 H 21.6595 -2.70497 4.96838 0
M  V30 250 H 20.2165 -2.77369 5.89839 0
M  V30 251 N 23.6496 -1.47581 0.552962 0
M  V30 252 C 25.0656 -1.5818 0.212424 0
M  V30 253 C 25.2656 -1.55213 -1.28496 0
M  V30 254 O 24.3216 -1.45329 -2.06484 0
M  V30 255 C 25.6346 -2.88865 0.835318 0
M  V30 256 C 27.1826 -3.0244 0.806156 0
M  V30 257 C 27.6576 -4.35819 1.40804 0
M  V30 258 N 29.1486 -4.42444 1.37103 0
M  V30 259 C 29.8836 -5.44202 1.80641 0
M  V30 260 N 29.3796 -6.52795 2.32015 0
M  V30 261 N 31.1726 -5.35222 1.71738 0
M  V30 262 H 23.3236 -1.47753 1.52587 0
M  V30 263 H 25.5866 -0.702941 0.636064 0
M  V30 264 H 25.2926 -2.9676 1.88749 0
M  V30 265 H 25.1666 -3.7579 0.325848 0
M  V30 266 H 27.5536 -2.94144 -0.237317 0
M  V30 267 H 27.6346 -2.17068 1.35334 0
M  V30 268 H 27.2786 -4.44871 2.45056 0
M  V30 269 H 27.2086 -5.19916 0.836338 0
M  V30 270 H 29.6996 -3.6456 0.995202 0
M  V30 271 H 30.0126 -7.26609 2.63171 0
M  V30 272 H 28.3576 -6.53696 2.36023 0
M  V30 273 H 31.5486 -4.49284 1.31382 0
M  V30 274 H 31.7216 -6.14389 2.05987 0
M  V30 275 N 25.1277 -0.289203 -1.54924 0
M  V30 276 C 26.0577 0.58549 -2.2604 0
M  V30 277 C 27.0387 1.14753 -1.25562 0
M  V30 278 O 28.2237 1.17906 -1.54311 0
M  V30 279 C 25.3537 1.76305 -2.99222 0
M  V30 280 C 24.3077 1.33191 -4.06748 0
M  V30 281 C 23.6337 2.5937 -4.6758 0
M  V30 282 C 24.9337 0.471775 -5.20165 0
M  V30 283 H 26.6277 -0.00763532 -2.99399 0
M  V30 284 H 24.1737 -0.00511229 -1.43999 0
M  V30 285 H 26.1267 2.38097 -3.47689 0
M  V30 286 H 24.8507 2.38223 -2.23422 0
M  V30 287 H 23.5097 0.737121 -3.59113 0
M  V30 288 H 23.1577 3.19576 -3.88433 0
M  V30 289 H 22.8577 2.31228 -5.40192 0
M  V30 290 H 24.3817 3.21985 -5.18804 0
M  V30 291 H 25.7957 0.995056 -5.64599 0
M  V30 292 H 24.1927 0.284639 -5.99425 0
M  V30 293 H 25.2627 -0.506041 -4.82252 0
M  V30 294 N 26.6058 1.57591 -0.0167156 0
M  V30 295 C 27.5688 2.08393 0.954204 0
M  V30 296 C 28.5688 0.996531 1.26198 0
M  V30 297 O 29.7588 1.25858 1.20438 0
M  V30 298 C 26.8908 2.5394 2.27436 0
M  V30 299 H 28.0838 2.95455 0.514451 0
M  V30 300 H 25.6368 1.54582 0.231089 0
M  V30 301 H 26.3718 1.70171 2.76066 0
M  V30 302 H 26.1568 3.33371 2.06412 0
M  V30 303 H 27.6468 2.93512 2.97053 0
M  V30 304 N 28.0839 -0.256276 1.55502 0
M  V30 305 C 29.0469 -1.30047 1.88734 0
M  V30 306 C 30.0469 -1.4154 0.763086 0
M  V30 307 O 31.2369 -1.40403 1.03115 0
M  V30 308 C 28.3689 -2.67953 2.10747 0
M  V30 309 H 29.5619 -1.01802 2.82093 0
M  V30 310 H 27.1149 -0.495134 1.4825 0
M  V30 311 H 27.8499 -3.01351 1.19825 0
M  V30 312 H 27.6349 -2.60993 2.92617 0
M  V30 313 H 29.1249 -3.43368 2.37673 0
M  V30 314 N 29.562 -1.4872 -0.521534 0
M  V30 315 C 30.839 -1.4766 -1.2828 0
M  V30 316 C 31.219 -0.19292 -2.10217 0
M  V30 317 O 30.567 0.825193 -2.13079 0
M  V30 318 C 30.777 -2.74358 -2.15705 0
M  V30 319 C 32.125 -3.23028 -2.75569 0
M  V30 320 O 33.149 -2.75333 -2.25987 0
M  V30 321 O 32.008 -4.0604 -3.65778 0
M  V30 322 H 29.102 -0.590085 -0.579421 0
M  V30 323 H 31.648 -1.60963 -0.537492 0
M  V30 324 H 30.42 -3.59292 -1.54999 0
M  V30 325 H 30.043 -2.63816 -2.97467 0
M  V30 326 N 31.0401 0.771051 -1.3745 0
M  V30 327 C 32.2651 1.56529 -1.36065 0
M  V30 328 C 32.6901 1.88029 0.0515859 0
M  V30 329 O 32.0481 1.49282 1.02882 0
M  V30 330 C 32.0961 2.85187 -2.20683 0
M  V30 331 O 31.2001 3.79593 -1.61193 0
M  V30 332 H 30.5411 0.47411 -0.464883 0
M  V30 333 H 33.0711 0.954269 -1.80983 0
M  V30 334 H 33.0811 3.34283 -2.33921 0
M  V30 335 H 31.7561 2.61588 -3.23334 0
M  V30 336 H 30.3331 3.38239 -1.56999 0
M  V30 337 N 32.5182 1.22032 0.997298 0
M  V30 338 C 33.9292 1.0397 1.55071 0
M  V30 339 C 34.2802 -0.398192 1.92117 0
M  V30 340 O 33.4052 -1.28254 1.74298 0
M  V30 341 C 34.0002 1.88109 2.81781 0
M  V30 342 C 32.5592 1.74357 3.33581 0
M  V30 343 C 31.7062 1.84846 2.06706 0
M  V30 344 H 34.6572 1.35941 0.818883 0
M  V30 345 H 34.6782 1.39589 3.53971 0
M  V30 346 H 34.1902 2.92754 2.54787 0
M  V30 347 H 32.2912 0.72427 3.65493 0
M  V30 348 H 32.4042 2.56772 4.04481 0
M  V30 349 H 30.7682 1.28238 2.20062 0
M  V30 350 H 31.5512 2.91014 1.82114 0
M  V30 351 N 33.9963 -1.19345 1.0293 0
M  V30 352 C 35.2423 -1.89318 0.727083 0
M  V30 353 C 35.5753 -1.79446 -0.742483 0
M  V30 354 O 34.8503 -1.1871 -1.54072 0
M  V30 355 C 35.1333 -3.40238 1.17942 0
M  V30 356 C 34.9863 -3.58979 2.71024 0
M  V30 357 C 36.3053 -4.33479 0.760548 0
M  V30 358 H 33.4243 -0.687475 0.265606 0
M  V30 359 H 36.0663 -1.40477 1.2793 0
M  V30 360 H 34.2163 -3.81964 0.709608 0
M  V30 361 H 35.8883 -3.26421 3.25955 0
M  V30 362 H 34.1313 -3.02018 3.11396 0
M  V30 363 H 34.8023 -4.64823 2.9773 0
M  V30 364 H 37.2783 -3.99469 1.16464 0
M  V30 365 H 36.1543 -5.37664 1.10493 0
M  V30 366 H 36.4153 -4.40813 -0.337063 0
M  V30 367 N 35.4744 -0.807222 -1.35358 0
M  V30 368 C 36.7224 -0.387122 -1.98358 0
M  V30 369 C 37.0434 1.04942 -1.64354 0
M  V30 370 O 36.3134 1.72615 -0.926339 0
M  V30 371 H 34.8934 -0.140154 -0.733734 0
M  V30 372 H 37.5554 -1.0332 -1.6526 0
M  V30 373 H 36.6514 -0.493352 -3.08176 0
M  V30 374 N 36.9525 1.47285 -0.560781 0
M  V30 375 C 38.1985 2.02764 -0.0381184 0
M  V30 376 C 38.5315 1.43384 1.30976 0
M  V30 377 O 37.8065 0.590733 1.85312 0
M  V30 378 C 38.0895 3.60064 0.0511427 0
M  V30 379 C 37.9425 4.2987 -1.32408 0
M  V30 380 C 39.2615 4.33439 0.762795 0
M  V30 381 H 36.3805 0.736841 -0.0153264 0
M  V30 382 H 39.0225 1.75675 -0.723759 0
M  V30 383 H 37.1725 3.83274 0.635065 0
M  V30 384 H 38.8445 4.17989 -1.95148 0
M  V30 385 H 37.0875 3.90085 -1.8978 0
M  V30 386 H 37.7585 5.38478 -1.21431 0
M  V30 387 H 40.2345 4.15243 0.266965 0
M  V30 388 H 39.1105 5.43124 0.794221 0
M  V30 389 H 39.3715 4.02915 1.81966 0
M  V30 390 N 38.4306 0.297415 1.54768 0
M  V30 391 C 39.6586 -0.315623 2.04478 0
M  V30 392 C 40.0736 -1.47792 1.17486 0
M  V30 393 O 39.4306 -1.81404 0.19971 0
M  V30 394 C 39.4816 -0.7753 3.53088 0
M  V30 395 O 39.2026 0.340732 4.36773 0
M  V30 396 C 40.7036 -1.45386 4.18781 0
M  V30 397 H 37.9236 -0.0690887 0.667434 0
M  V30 398 H 40.4676 0.436003 1.99798 0
M  V30 399 H 38.6226 -1.47696 3.58141 0
M  V30 400 H 39.0366 -0.0165035 5.24497 0
M  V30 401 H 40.5106 -1.72669 5.24299 0
M  V30 402 H 40.9876 -2.39275 3.68299 0
M  V30 403 H 41.5936 -0.795475 4.17795 0
M  V30 404 N 39.9087 -1.5758 0.0250728 0
M  V30 405 C 41.1337 -1.96337 -0.668317 0
M  V30 406 C 41.5587 -0.901314 -1.651 0
M  V30 407 O 40.9167 0.138187 -1.80773 0
M  V30 408 C 40.9647 -3.34191 -1.35457 0
M  V30 409 O 40.0687 -3.30269 -2.46974 0
M  V30 410 H 39.4097 -0.640281 -0.175887 0
M  V30 411 H 41.9397 -2.0442 0.0857224 0
M  V30 412 H 41.9497 -3.70331 -1.71228 0
M  V30 413 H 40.6247 -4.11036 -0.634218 0
M  V30 414 H 39.2017 -3.05841 -2.13344 0
M  V30 415 N 41.3868 0.248026 -1.55636 0
M  V30 416 C 42.3168 1.31079 -1.93237 0
M  V30 417 C 43.2978 1.50264 -0.797174 0
M  V30 418 O 44.4828 1.62891 -1.05737 0
M  V30 419 C 41.6128 2.66575 -2.22609 0
M  V30 420 C 40.5668 2.62087 -3.3837 0
M  V30 421 C 39.8928 4.01369 -3.53281 0
M  V30 422 C 41.1928 2.19171 -4.7409 0
M  V30 423 H 42.8868 0.998556 -2.82257 0
M  V30 424 H 40.4328 0.47891 -1.35803 0
M  V30 425 H 42.3858 3.41057 -2.47503 0
M  V30 426 H 41.1098 2.99432 -1.30414 0
M  V30 427 H 39.7688 1.90063 -3.13483 0
M  V30 428 H 39.4168 4.31489 -2.58508 0
M  V30 429 H 39.1168 3.99254 -4.31127 0
M  V30 430 H 40.6408 4.77552 -3.80495 0
M  V30 431 H 42.0548 2.83384 -4.98363 0
M  V30 432 H 40.4518 2.2817 -5.5503 0
M  V30 433 H 41.5218 1.14336 -4.71227 0
M  V30 434 N 42.8649 1.48995 0.513639 0
M  V30 435 C 44.2759 1.5119 1.09537 0
M  V30 436 C 44.6269 0.290906 1.94031 0
M  V30 437 O 43.7519 -0.60049 2.07902 0
M  V30 438 C 44.3469 2.73964 1.99322 0
M  V30 439 C 42.9059 2.78978 2.52682 0
M  V30 440 C 42.0529 2.44934 1.30009 0
M  V30 441 H 45.0039 1.55875 0.298125 0
M  V30 442 H 45.0249 2.53409 2.83838 0
M  V30 443 H 44.5369 3.62813 1.37799 0
M  V30 444 H 42.6379 1.94378 3.1788 0
M  V30 445 H 42.7509 3.8083 2.90698 0
M  V30 446 H 41.1149 1.9644 1.62122 0
M  V30 447 H 41.8979 3.36043 0.702131 0
M  V30 448 N 44.343 -0.763751 1.37857 0
M  V30 449 C 45.62 -1.51244 1.24035 0
M  V30 450 C 46 -2.10472 -0.162649 0
M  V30 451 O 45.348 -1.96206 -1.17112 0
M  V30 452 C 45.558 -2.58694 2.34261 0
M  V30 453 C 46.906 -3.25878 2.72193 0
M  V30 454 O 47.93 -2.68993 2.33497 0
M  V30 455 O 46.789 -4.2874 3.38887 0
M  V30 456 H 43.883 -0.670243 0.484462 0
M  V30 457 H 46.429 -0.800031 1.49658 0
M  V30 458 H 45.201 -2.13105 3.2818 0
M  V30 459 H 44.824 -3.37527 2.10146 0
M  V30 460 N 45.8211 -1.22559 -0.990812 0
M  V30 461 C 47.0981 -0.959875 -1.70428 0
M  V30 462 C 47.4781 0.524455 -2.04481 0
M  V30 463 O 46.8261 1.49302 -1.72977 0
M  V30 464 C 47.0361 -1.85955 -2.95333 0
M  V30 465 C 48.3841 -2.11687 -3.68068 0
M  V30 466 O 49.4081 -1.8342 -3.05345 0
M  V30 467 O 48.2671 -2.59572 -4.80921 0
M  V30 468 H 45.3611 -0.361154 -0.743974 0
M  V30 469 H 47.9071 -1.33554 -1.04697 0
M  V30 470 H 46.6791 -2.86346 -2.66687 0
M  V30 471 H 46.3021 -1.4856 -3.68803 0
M  V30 472 N 47.2992 1.18797 -1.03562 0
M  V30 473 C 48.2622 2.20464 -0.626769 0
M  V30 474 C 49.2622 1.57721 0.313173 0
M  V30 475 O 50.4522 1.73917 0.0992615 0
M  V30 476 C 47.5842 3.40802 0.0818498 0
M  V30 477 H 48.7772 2.58149 -1.5264 0
M  V30 478 H 46.3302 1.32593 -0.827578 0
M  V30 479 H 47.0652 3.08642 0.995518 0
M  V30 480 H 46.8502 3.8758 -0.593652 0
M  V30 481 H 48.3402 4.16092 0.354584 0
M  V30 482 N 48.7773 0.814389 1.34928 0
M  V30 483 C 49.6873 0.231978 2.3345 0
M  V30 484 C 50.7033 -0.629139 1.62228 0
M  V30 485 O 51.8793 -0.539052 1.94052 0
M  V30 486 C 48.9443 -0.603482 3.41407 0
M  V30 487 C 48.0053 0.279037 4.28392 0
M  V30 488 C 47.2383 -0.516643 5.31193 0
M  V30 489 O 47.4613 -1.75068 5.4287 0
M  V30 490 O 46.3953 0.0965652 6.01823 0
M  V30 491 H 50.2213 1.04721 2.85074 0
M  V30 492 H 47.8063 0.576343 1.37836 0
M  V30 493 H 49.6883 -1.07908 4.0735 0
M  V30 494 H 48.3633 -1.39618 2.92042 0
M  V30 495 H 47.2703 0.801948 3.65403 0
M  V30 496 H 48.6033 1.03588 4.81176 0
M  V30 497 N 50.2554 -1.46986 0.568584 0
M  V30 498 C 51.6714 -1.57946 0.229189 0
M  V30 499 C 51.8714 -1.56567 -1.26843 0
M  V30 500 O 50.9274 -1.47511 -2.04931 0
M  V30 501 C 52.2404 -2.87963 0.865909 0
M  V30 502 C 53.7884 -3.01568 0.838188 0
M  V30 503 C 54.2634 -4.34301 1.45419 0
M  V30 504 N 55.7544 -4.40965 1.41788 0
M  V30 505 C 56.4894 -5.42256 1.86403 0
M  V30 506 N 55.9854 -6.50297 2.38926 0
M  V30 507 N 57.7784 -5.3337 1.77405 0
M  V30 508 H 49.9294 -1.46126 1.54146 0
M  V30 509 H 52.1924 -0.696156 0.643484 0
M  V30 510 H 51.8984 -2.94742 1.91886 0
M  V30 511 H 51.7724 -3.75423 0.365687 0
M  V30 512 H 54.1594 -2.94379 -0.206106 0
M  V30 513 H 54.2404 -2.1562 1.37629 0
M  V30 514 H 53.8844 -4.42247 2.49761 0
M  V30 515 H 53.8144 -5.19 0.891435 0
M  V30 516 H 56.3054 -3.63484 1.03381 0
M  V30 517 H 56.6184 -7.23777 2.70863 0
M  V30 518 H 54.9634 -6.51155 2.42944 0
M  V30 519 H 58.1544 -4.47865 1.3614 0
M  V30 520 H 58.3274 -6.12169 2.12492 0
M  V30 521 N 51.7335 -0.305618 -1.54608 0
M  V30 522 C 52.6635 0.561482 -2.26649 0
M  V30 523 C 53.6445 1.13415 -1.26772 0
M  V30 524 O 54.8295 1.16262 -1.55553 0
M  V30 525 C 51.9595 1.73122 -3.01075 0
M  V30 526 C 50.9135 1.2887 -4.08138 0
M  V30 527 C 50.2395 2.54396 -4.70305 0
M  V30 528 C 51.5395 0.416578 -5.20636 0
M  V30 529 H 53.2335 -0.0393902 -2.99374 0
M  V30 530 H 50.7795 -0.020385 -1.43986 0
M  V30 531 H 52.7325 2.34396 -3.50195 0
M  V30 532 H 51.4565 2.3584 -2.25936 0
M  V30 533 H 50.1155 0.698991 -3.59875 0
M  V30 534 H 49.7635 3.15439 -3.918 0
M  V30 535 H 49.4635 2.25486 -5.42614 0
M  V30 536 H 50.9875 3.16464 -5.2219 0
M  V30 537 H 52.4015 0.935116 -5.65622 0
M  V30 538 H 50.7985 0.221046 -5.99693 0
M  V30 539 H 51.8685 -0.557162 -4.81688 0
M  V30 540 N 53.2116 1.57565 -0.0334293 0
M  V30 541 C 54.6276 1.56297 0.322997 0
M  V30 542 C 54.8276 1.03945 1.7262 0
M  V30 543 O 53.8836 0.688109 2.42943 0
M  V30 544 C 55.1966 3.00232 0.167664 0
M  V30 545 C 56.7446 3.12078 0.240107 0
M  V30 546 C 57.2196 4.57859 0.113513 0
M  V30 547 N 58.7106 4.62887 0.170359 0
M  V30 548 C 59.4456 5.73319 0.0962517 0
M  V30 549 N 58.9416 6.92794 -0.0291881 0
M  V30 550 N 60.7346 5.61898 0.150551 0
M  V30 551 H 52.8856 1.89923 -0.950956 0
M  V30 552 H 55.1486 0.873824 -0.367608 0
M  V30 553 H 54.8546 3.42501 -0.799102 0
M  V30 554 H 54.7286 3.654 0.936083 0
M  V30 555 H 57.1156 2.69718 1.19733 0
M  V30 556 H 57.1966 2.49623 -0.558763 0
M  V30 557 H 56.8406 5.009 -0.840314 0
M  V30 558 H 56.7706 5.18299 0.931302 0
M  V30 559 H 59.2616 3.76954 0.26728 0
M  V30 560 H 59.5746 7.7276 -0.0789252 0
M  V30 561 H 57.9196 6.94971 -0.0640299 0
M  V30 562 H 61.1106 4.67448 0.246981 0
M  V30 563 H 61.2836 6.47938 0.0893365 0
M  V30 564 N 54.6897 -0.239769 1.55765 0
M  V30 565 C 55.9667 -0.990056 1.68693 0
M  V30 566 C 56.3467 -2.03107 0.5754 0
M  V30 567 O 55.6947 -2.24604 -0.42017 0
M  V30 568 C 55.9047 -1.61696 3.09282 0
M  V30 569 C 57.2527 -2.11613 3.6811 0
M  V30 570 O 58.2767 -1.71624 3.12127 0
M  V30 571 O 57.1357 -2.85057 4.66267 0
M  V30 572 H 54.2297 -0.461299 0.686391 0
M  V30 573 H 56.7757 -0.232991 1.68093 0
M  V30 574 H 55.5477 -0.864357 3.81634 0
M  V30 575 H 55.1707 -2.44005 3.13923 0
M  V30 576 N 56.1678 -1.49265 -0.50573 0
M  V30 577 C 57.1148 -1.65585 -1.6078 0
M  V30 578 C 58.0848 -0.497396 -1.58478 0
M  V30 579 O 59.2698 -0.72385 -1.76536 0
M  V30 580 C 56.4098 -1.72408 -2.98948 0
M  V30 581 C 55.5228 -2.99525 -3.11301 0
M  V30 582 C 54.6578 -2.97356 -4.40174 0
M  V30 583 C 53.6968 -4.19074 -4.46143 0
M  V30 584 N 52.8338 -4.14841 -5.66437 0
M  V30 585 H 57.6738 -2.59688 -1.46172 0
M  V30 586 H 55.2108 -1.28761 -0.711261 0
M  V30 587 H 57.1688 -1.74344 -3.79025 0
M  V30 588 H 55.7988 -0.817753 -3.1227 0
M  V30 589 H 54.8508 -3.07222 -2.24318 0
M  V30 590 H 56.1628 -3.89518 -3.11572 0
M  V30 591 H 55.3168 -2.97829 -5.28567 0
M  V30 592 H 54.0558 -2.05133 -4.42461 0
M  V30 593 H 53.0608 -4.1885 -3.56153 0
M  V30 594 H 54.2858 -5.12483 -4.45575 0
M  V30 595 H 52.2318 -3.25453 -5.69575 0
M  V30 596 H 52.1488 -4.98564 -5.68304 0
M  V30 597 H 53.4168 -4.1941 -6.57051 0
M  V30 598 N 57.6459 0.756429 -1.3826 0
M  V30 599 C 58.8949 1.51082 -1.3363 0
M  V30 600 C 59.2079 1.95467 0.0720068 0
M  V30 601 O 60.4139 2.7043 0.240834 0
M  V30 602 C 58.8699 2.72893 -2.34644 0
M  V30 603 C 58.4779 2.35544 -3.81081 0
M  V30 604 C 60.2219 3.50791 -2.39052 0
M  V30 605 C 58.1289 3.53948 -4.73787 0
M  V30 606 H 57.0589 0.56727 -0.49671 0
M  V30 607 H 59.7099 0.827147 -1.638 0
M  V30 608 H 58.0919 3.43227 -1.97513 0
M  V30 609 H 59.2659 1.72894 -4.27135 0
M  V30 610 H 57.5809 1.70786 -3.79764 0
M  V30 611 H 60.1779 4.38823 -3.05513 0
M  V30 612 H 60.5209 3.91745 -1.40861 0
M  V30 613 H 61.0539 2.87467 -2.74968 0
M  V30 614 H 57.7929 3.18064 -5.73163 0
M  V30 615 H 57.3129 4.15651 -4.32428 0
M  V30 616 H 58.9919 4.20566 -4.91663 0
M  V30 617 N 59.124 1.23083 0.984299 0
M  V30 618 C 60.054 1.03292 2.09411 0
M  V30 619 C 61.035 -0.048923 1.7003 0
M  V30 620 O 62.22 0.114967 1.93859 0
M  V30 621 C 59.35 0.619155 3.41736 0
M  V30 622 C 58.304 1.64791 3.95004 0
M  V30 623 C 57.63 1.0897 5.23478 0
M  V30 624 C 58.93 3.03999 4.24714 0
M  V30 625 H 60.624 1.96119 2.26225 0
M  V30 626 H 58.17 0.944344 1.08711 0
M  V30 627 H 60.123 0.467777 4.18796 0
M  V30 628 H 58.847 -0.344786 3.24775 0
M  V30 629 H 57.506 1.78721 3.20085 0
M  V30 630 H 57.154 0.11686 5.02864 0
M  V30 631 H 56.854 1.77704 5.60085 0
M  V30 632 H 58.378 0.950093 6.03163 0
M  V30 633 H 59.792 2.93393 4.92538 0
M  V30 634 H 58.189 3.69936 4.72512 0
M  V30 635 H 59.259 3.53285 3.32142 0
M  V30 636 N 60.6021 -1.18246 1.0419 0
M  V30 637 C 61.5651 -2.20128 0.638452 0
M  V30 638 C 62.5651 -1.57885 -0.304805 0
M  V30 639 O 63.7551 -1.73967 -0.0900369 0
M  V30 640 C 60.8871 -3.4084 -0.0637751 0
M  V30 641 H 62.0801 -2.57336 1.54007 0
M  V30 642 H 59.6331 -1.32152 0.834598 0
M  V30 643 H 60.3681 -3.09166 -0.979136 0
M  V30 644 H 60.1531 -3.8726 0.614198 0
M  V30 645 H 61.6431 -4.16274 -0.332512 0
M  V30 646 N 62.0802 -0.821533 -1.34494 0
M  V30 647 C 63.3052 -0.420873 -2.03085 0
M  V30 648 C 63.7302 0.964915 -1.61465 0
M  V30 649 O 63.0882 1.62763 -0.798607 0
M  V30 650 C 63.1362 -0.529414 -3.56693 0
M  V30 651 O 62.2402 0.451302 -4.09923 0
M  V30 652 H 61.5812 -0.173489 -0.640935 0
M  V30 653 H 64.1112 -1.11157 -1.71771 0
M  V30 654 H 64.1212 -0.404671 -4.05988 0
M  V30 655 H 62.7962 -1.54014 -3.86332 0
M  V30 656 H 61.3732 0.285558 -3.71805 0
M  V30 657 N 63.5583 1.46682 -0.576371 0
M  V30 658 C 64.4683 2.34032 0.163141 0
M  V30 659 C 65.4843 1.49367 0.892501 0
M  V30 660 O 66.6603 1.82252 0.857106 0
M  V30 661 C 63.7253 3.26435 1.16795 0
M  V30 662 C 62.7863 4.26998 0.443944 0
M  V30 663 C 62.0193 5.14986 1.40088 0
M  V30 664 O 62.2423 5.05785 2.637 0
M  V30 665 O 61.1763 5.94906 0.914917 0
M  V30 666 H 65.0023 2.98607 -0.55388 0
M  V30 667 H 62.5873 1.45554 -0.336821 0
M  V30 668 H 64.4693 3.83459 1.74748 0
M  V30 669 H 63.1443 2.64465 1.86655 0
M  V30 670 H 62.0513 3.7368 -0.177271 0
M  V30 671 H 63.3843 4.91736 -0.213566 0
M  V30 672 N 65.0364 0.313813 1.54444 0
M  V30 673 C 65.9994 -0.54379 2.22656 0
M  V30 674 C 66.9994 -1.05124 1.21678 0
M  V30 675 O 68.1894 -0.945225 1.46325 0
M  V30 676 C 65.3214 -1.75427 2.92298 0
M  V30 677 H 66.5144 0.0523599 2.99854 0
M  V30 678 H 64.0674 0.0647834 1.56166 0
M  V30 679 H 64.8024 -2.38991 2.19211 0
M  V30 680 H 64.5874 -1.39791 3.66334 0
M  V30 681 H 66.0774 -2.36325 3.44297 0
M  V30 682 N 66.5145 -1.57545 0.0417849 0
M  V30 683 C 67.7395 -1.97035 -0.647455 0
M  V30 684 C 68.1645 -0.918775 -1.64135 0
M  V30 685 O 67.5225 0.119006 -1.80909 0
M  V30 686 C 67.5705 -3.35609 -1.31905 0
M  V30 687 O 66.6745 -3.3287 -2.43457 0
M  V30 688 H 66.0155 -0.64211 -0.169086 0
M  V30 689 H 68.5455 -2.04318 0.107399 0
M  V30 690 H 68.5555 -3.72126 -1.67291 0
M  V30 691 H 67.2305 -4.11685 -0.590586 0
M  V30 692 H 65.8075 -3.08087 -2.10088 0
M  V30 693 N 67.9926 0.231505 -1.5589 0
M  V30 694 C 69.2396 0.957352 -1.78441 0
M  V30 695 C 69.5676 1.84726 -0.60882 0
M  V30 696 O 68.8226 1.91416 0.40725 0
M  V30 697 C 69.1216 1.83577 -3.0665 0
M  V30 698 C 68.7876 1.09993 -4.37278 0
M  V30 699 C 67.4496 0.896629 -4.72773 0
M  V30 700 C 69.8016 0.579558 -5.17968 0
M  V30 701 C 67.1296 0.160896 -5.86479 0
M  V30 702 C 69.4816 -0.142783 -6.32439 0
M  V30 703 C 68.1456 -0.357427 -6.66542 0
M  V30 704 H 67.4156 0.35032 -0.65296 0
M  V30 705 H 70.0626 0.226259 -1.90159 0
M  V30 706 H 68.3676 2.63441 -2.90011 0
M  V30 707 H 70.0646 2.39934 -3.21298 0
M  V30 708 H 66.6546 1.26835 -4.09403 0
M  V30 709 H 70.8386 0.724125 -4.90989 0
M  V30 710 H 66.0946 -0.0157293 -6.11398 0
M  V30 711 H 70.2686 -0.553559 -6.94196 0
M  V30 712 H 67.8956 -0.929466 -7.54497 0
M  V30 713 N 69.4707 1.49531 0.497807 0
M  V30 714 C 70.4337 1.65916 1.58128 0
M  V30 715 C 71.4337 0.530825 1.51786 0
M  V30 716 O 72.6237 0.797342 1.54881 0
M  V30 717 C 69.7557 1.65951 2.9778 0
M  V30 718 H 70.9487 2.62556 1.44929 0
M  V30 719 H 68.5017 1.38611 0.722275 0
M  V30 720 H 69.2367 0.709065 3.16453 0
M  V30 721 H 69.0217 2.47897 3.03792 0
M  V30 722 H 70.5117 1.80673 3.76493 0
M  V30 723 N 70.9488 -0.749086 1.3866 0
M  V30 724 C 71.9118 -1.84457 1.36045 0
M  V30 725 C 72.9118 -1.58682 0.260122 0
M  V30 726 O 74.1018 -1.66343 0.517261 0
M  V30 727 C 71.2338 -3.22008 1.11911 0
M  V30 728 H 72.4268 -1.88182 2.33512 0
M  V30 729 H 69.9798 -0.951266 1.24019 0
M  V30 730 H 70.7148 -3.2395 0.150686 0
M  V30 731 H 70.4998 -3.42111 1.91579 0
M  V30 732 H 71.9898 -4.0208 1.12788 0
M  V30 733 N 72.4269 -1.23603 -0.977757 0
M  V30 734 C 73.3369 -1.03632 -2.1047 0
M  V30 735 C 74.3529 0.0199435 -1.73989 0
M  V30 736 O 75.5289 -0.176076 -2.00629 0
M  V30 737 C 72.5939 -0.63276 -3.40877 0
M  V30 738 C 71.6549 -1.76437 -3.91367 0
M  V30 739 C 70.8879 -1.37997 -5.15551 0
M  V30 740 O 71.1109 -0.265357 -5.69782 0
M  V30 741 O 70.0449 -2.20201 -5.60174 0
M  V30 742 H 73.8709 -1.98086 -2.30208 0
M  V30 743 H 71.4559 -1.02332 -1.08851 0
M  V30 744 H 73.3379 -0.418761 -4.19314 0
M  V30 745 H 72.0129 0.282754 -3.22463 0
M  V30 746 H 70.9199 -2.03304 -3.14036 0
M  V30 747 H 72.2529 -2.6583 -4.14241 0
M  V30 748 N 73.905 1.17692 -1.04816 0
M  V30 749 C 75.151 1.88137 -0.75711 0
M  V30 750 C 75.484 1.80604 0.713841 0
M  V30 751 O 74.759 1.21146 1.52164 0
M  V30 752 C 75.042 3.38318 -1.2334 0
M  V30 753 C 74.895 3.54622 -2.76701 0
M  V30 754 C 76.214 4.32214 -0.829415 0
M  V30 755 H 73.333 0.683163 -0.27651 0
M  V30 756 H 75.975 1.38424 -1.30149 0
M  V30 757 H 74.125 3.80787 -0.770286 0
M  V30 758 H 75.797 3.21194 -3.31107 0
M  V30 759 H 74.04 2.97026 -3.16161 0
M  V30 760 H 74.711 4.60028 -3.05088 0
M  V30 761 H 77.187 3.97565 -1.22805 0
M  V30 762 H 76.063 5.35838 -1.19033 0
M  V30 763 H 76.324 4.41294 0.266891 0
M  V30 764 N 75.3831 0.828654 1.34056 0
M  V30 765 C 76.6081 0.431637 2.02859 0
M  V30 766 C 77.0331 -0.956339 1.61975 0
M  V30 767 O 76.3911 -1.62338 0.807228 0
M  V30 768 C 76.4391 0.548323 3.56407 0
M  V30 769 O 75.5431 -0.429556 4.10157 0
M  V30 770 H 74.8841 0.176886 0.640006 0
M  V30 771 H 77.4141 1.12066 1.71179 0
M  V30 772 H 77.4241 0.426196 4.05768 0
M  V30 773 H 76.0991 1.5606 3.8551 0
M  V30 774 H 74.6761 -0.265836 3.71951 0
M  V30 775 N 76.8612 -1.46375 0.584142 0
M  V30 776 C 78.0912 -2.06461 0.0758195 0
M  V30 777 C 78.4992 -1.43322 -1.23512 0
M  V30 778 O 77.8422 -0.533216 -1.75791 0
M  V30 779 C 77.9042 -3.59131 -0.162773 0
M  V30 780 C 77.5682 -4.4447 1.06279 0
M  V30 781 C 78.5652 -4.80918 1.97519 0
M  V30 782 C 76.2502 -4.85584 1.28504 0
M  V30 783 C 78.2442 -5.57309 3.09331 0
M  V30 784 C 75.9312 -5.61734 2.4062 0
M  V30 785 C 76.9292 -5.9751 3.30863 0
M  V30 786 O 76.6172 -6.72121 4.41032 0
M  V30 787 H 76.3492 -0.673745 0.0551725 0
M  V30 788 H 78.9032 -1.88969 0.804984 0
M  V30 789 H 77.1332 -3.74936 -0.946565 0
M  V30 790 H 78.8222 -4.0114 -0.619782 0
M  V30 791 H 79.5882 -4.49732 1.81565 0
M  V30 792 H 75.4672 -4.57187 0.591702 0
M  V30 793 H 79.0112 -5.85152 3.79793 0
M  V30 794 H 74.9082 -5.92334 2.56537 0
M  V30 795 H 75.6762 -6.90547 4.39417 0
M  V30 796 N 78.3393 -0.321999 -1.54275 0
M  V30 797 C 79.2873 0.560206 -2.25753 0
M  V30 798 C 80.2813 1.11984 -1.27106 0
M  V30 799 O 81.4873 1.06806 -1.44888 0
M  V30 800 H 77.8623 0.199304 -0.725108 0
M  V30 801 H 79.8333 -0.0649365 -2.98329 0
M  V30 802 C 78.5823 1.71023 -3.02731 0
M  V30 803 H 77.9053 1.28885 -3.78456 0
M  V30 804 H 79.3453 2.30314 -3.55993 0
M  V30 805 C 77.8043 2.62692 -2.10938 0
M  V30 806 O 78.3343 3.64364 -1.6912 0
M  V30 807 N 76.5403 2.30891 -1.76459 0
M  V30 808 H 76.0873 1.48253 -2.10663 0
M  V30 809 H 76.0453 2.92487 -1.1532 0
M  V30 810 N 79.8174 1.5752 -0.0501392 0
M  V30 811 C 81.0654 1.9227 0.622642 0
M  V30 812 C 81.3864 0.929083 1.71444 0
M  V30 813 O 80.6564 -0.0262186 1.95882 0
M  V30 814 H 79.2364 0.709739 0.232981 0
M  V30 815 H 81.8984 1.94628 -0.102898 0
M  V30 816 H 80.9944 2.93479 1.06191 0
M  V30 817 N 81.2955 -0.223234 1.56011 0
M  V30 818 C 82.2055 -1.29766 1.95443 0
M  V30 819 C 83.2215 -1.51373 0.858028 0
M  V30 820 O 84.3975 -1.64536 1.16146 0
M  V30 821 C 81.4625 -2.62772 2.26167 0
M  V30 822 C 80.5235 -2.49482 3.49367 0
M  V30 823 C 79.7565 -3.76145 3.78616 0
M  V30 824 O 79.9795 -4.79087 3.09568 0
M  V30 825 O 78.9135 -3.73358 4.72109 0
M  V30 826 H 82.7395 -0.99309 2.87004 0
M  V30 827 H 80.3245 -0.425958 1.43199 0
M  V30 828 H 82.2065 -3.41327 2.47131 0
M  V30 829 H 80.8815 -2.92913 1.37781 0
M  V30 830 H 79.7885 -1.69133 3.33684 0
M  V30 831 H 81.1215 -2.2428 4.38131 0
M  V30 832 N 82.7736 -1.49793 -0.48987 0
M  V30 833 C 83.6836 -1.70036 -1.61632 0
M  V30 834 C 84.6996 -0.583102 -1.63939 0
M  V30 835 O 85.8756 -0.859169 -1.82154 0
M  V30 836 C 82.9406 -1.77277 -2.97949 0
M  V30 837 C 82.0016 -3.00918 -3.06181 0
M  V30 838 C 81.2346 -3.07804 -4.35996 0
M  V30 839 O 81.4576 -2.21982 -5.25433 0
M  V30 840 O 80.3916 -4.00369 -4.49431 0
M  V30 841 H 84.2176 -2.65486 -1.47482 0
M  V30 842 H 81.8026 -1.33666 -0.667362 0
M  V30 843 H 83.6846 -1.84329 -3.78947 0
M  V30 844 H 82.3596 -0.850076 -3.12339 0
M  V30 845 H 81.2666 -2.99377 -2.2433 0
M  V30 846 H 82.5996 -3.92704 -2.96723 0
M  V30 847 N 84.2517 0.741722 -1.39055 0
M  V30 848 C 85.4767 1.53607 -1.39354 0
M  V30 849 C 85.9017 1.88096 0.0116905 0
M  V30 850 O 85.2597 1.5143 0.996924 0
M  V30 851 C 85.3077 2.80441 -2.26682 0
M  V30 852 O 84.4117 3.76088 -1.69208 0
M  V30 853 H 83.7527 0.464142 -0.474835 0
M  V30 854 H 86.2827 0.915665 -1.82967 0
M  V30 855 H 86.2927 3.29246 -2.40959 0
M  V30 856 H 84.9677 2.5467 -3.2881 0
M  V30 857 H 83.5447 3.34833 -1.64138 0
M  V30 858 N 85.7298 1.2412 0.971189 0
M  V30 859 C 86.9598 1.10415 1.7462 0
M  V30 860 C 87.3678 -0.346462 1.86001 0
M  V30 861 O 86.7108 -1.25104 1.34517 0
M  V30 862 C 86.7728 1.66596 3.18568 0
M  V30 863 C 86.4368 3.15446 3.3067 0
M  V30 864 C 87.4338 4.12636 3.16271 0
M  V30 865 C 85.1188 3.55337 3.55022 0
M  V30 866 C 87.1128 5.47699 3.26044 0
M  V30 867 C 84.7998 4.90542 3.64434 0
M  V30 868 C 85.7978 5.86532 3.49956 0
M  V30 869 O 85.4858 7.19279 3.59017 0
M  V30 870 H 85.2178 0.386616 0.55453 0
M  V30 871 H 87.7718 1.64633 1.22821 0
M  V30 872 H 86.0018 1.06808 3.71657 0
M  V30 873 H 87.6908 1.48232 3.77865 0
M  V30 874 H 88.4568 3.8316 2.97344 0
M  V30 875 H 84.3358 2.8113 3.65359 0
M  V30 876 H 87.8798 6.22603 3.14661 0
M  V30 877 H 83.7768 5.19691 3.82873 0
M  V30 878 H 84.5448 7.27153 3.75754 0
M  V30 879 N 87.2079 -1.17134 1.05439 0
M  V30 880 C 88.4549 -1.87456 0.765942 0
M  V30 881 C 88.7829 -1.81189 -0.707153 0
M  V30 882 O 88.0379 -1.21633 -1.5331 0
M  V30 883 C 88.3369 -3.36833 1.19491 0
M  V30 884 C 88.0029 -3.63301 2.67063 0
M  V30 885 C 86.6649 -3.70234 3.07376 0
M  V30 886 C 89.0169 -3.74575 3.62413 0
M  V30 887 C 86.3449 -3.85933 4.41896 0
M  V30 888 C 88.6969 -3.91793 4.9667 0
M  V30 889 C 87.3609 -3.96966 5.36633 0
M  V30 890 H 86.6309 -0.685948 0.280278 0
M  V30 891 H 89.2779 -1.38556 1.32192 0
M  V30 892 H 87.5829 -3.87807 0.557969 0
M  V30 893 H 89.2799 -3.89611 0.948893 0
M  V30 894 H 85.8699 -3.58532 2.34846 0
M  V30 895 H 90.0539 -3.68537 3.32406 0
M  V30 896 H 85.3099 -3.88187 4.72357 0
M  V30 897 H 89.4839 -3.99458 5.70444 0
M  V30 898 H 87.1109 -4.08883 6.40874 0
M  V30 899 N 88.686 -0.835752 -1.33615 0
M  V30 900 C 89.933 -0.429959 -1.97883 0
M  V30 901 C 90.261 1.01006 -1.66217 0
M  V30 902 O 89.516 1.72047 -0.93265 0
M  V30 903 C 89.815 -0.593925 -3.52431 0
M  V30 904 C 89.481 -2.00158 -4.04039 0
M  V30 905 C 88.143 -2.38662 -4.17844 0
M  V30 906 C 90.495 -2.92117 -4.31644 0
M  V30 907 C 87.823 -3.68435 -4.56588 0
M  V30 908 C 90.175 -4.21368 -4.71838 0
M  V30 909 C 88.839 -4.59833 -4.83849 0
M  V30 910 H 88.109 -0.157333 -0.724104 0
M  V30 911 H 90.756 -1.06217 -1.59343 0
M  V30 912 H 89.061 0.121619 -3.91611 0
M  V30 913 H 90.758 -0.260282 -4.00154 0
M  V30 914 H 87.348 -1.69252 -3.93766 0
M  V30 915 H 91.532 -2.63608 -4.20505 0
M  V30 916 H 86.788 -3.98046 -4.64079 0
M  V30 917 H 90.962 -4.92703 -4.92155 0
M  V30 918 H 88.589 -5.60438 -5.13627 0
M  V30 919 N 90.1641 1.46063 -0.591896 0
M  V30 920 C 91.4101 2.02638 -0.0811191 0
M  V30 921 C 91.7431 1.4613 1.27905 0
M  V30 922 O 91.0181 0.629908 1.84017 0
M  V30 923 C 91.3011 3.60091 -0.0252436 0
M  V30 924 C 91.1541 4.26965 -1.41496 0
M  V30 925 C 92.4731 4.3496 0.670685 0
M  V30 926 H 89.5921 0.73635 -0.0309524 0
M  V30 927 H 92.2341 1.741 -0.760859 0
M  V30 928 H 90.3841 3.84535 0.553624 0
M  V30 929 H 92.0561 4.13756 -2.0397 0
M  V30 930 H 90.2991 3.85971 -1.98011 0
M  V30 931 H 90.9701 5.35781 -1.32825 0
M  V30 932 H 93.4461 4.15716 0.178825 0
M  V30 933 H 92.3221 5.44686 0.678837 0
M  V30 934 H 92.5831 4.06685 1.73379 0
M  V30 935 N 91.6422 0.330177 1.54103 0
M  V30 936 C 92.5722 -0.525353 2.27513 0
M  V30 937 C 93.5532 -1.11383 1.2856 0
M  V30 938 O 94.7382 -1.13773 1.57383 0
M  V30 939 C 91.8682 -1.6831 3.03791 0
M  V30 940 C 90.8222 -1.2236 4.10137 0
M  V30 941 C 90.1482 -2.46882 4.74293 0
M  V30 942 C 91.4482 -0.333697 5.21233 0
M  V30 943 H 93.1422 0.087013 2.99274 0
M  V30 944 H 90.6882 0.0432893 1.43935 0
M  V30 945 H 92.6412 -2.28795 3.5388 0
M  V30 946 H 91.3652 -2.32216 2.29659 0
M  V30 947 H 90.0242 -0.64165 3.60941 0
M  V30 948 H 89.6722 -3.09165 3.96769 0
M  V30 949 H 89.3722 -2.16825 5.46133 0
M  V30 950 H 90.8962 -3.08117 5.27159 0
M  V30 951 H 92.3102 -0.845013 5.67038 0
M  V30 952 H 90.7072 -0.125612 5.99969 0
M  V30 953 H 91.7772 0.633724 4.80741 0
M  V30 954 N 93.1203 -1.57491 0.0584922 0
M  V30 955 C 94.0303 -2.15448 -0.928414 0
M  V30 956 C 95.0463 -1.11416 -1.3365 0
M  V30 957 O 96.2223 -1.4362 -1.41193 0
M  V30 958 C 93.2873 -2.69393 -2.18239 0
M  V30 959 C 92.3483 -3.88249 -1.83196 0
M  V30 960 C 91.5813 -4.39613 -3.02616 0
M  V30 961 O 91.8043 -3.90023 -4.16219 0
M  V30 962 O 90.7383 -5.31111 -2.83204 0
M  V30 963 H 94.5643 -3.00112 -0.465483 0
M  V30 964 H 92.1493 -1.48499 -0.163826 0
M  V30 965 H 94.0313 -3.04026 -2.91798 0
M  V30 966 H 92.7063 -1.87796 -2.63656 0
M  V30 967 H 91.6133 -3.58492 -1.06931 0
M  V30 968 H 92.9463 -4.71098 -1.42573 0
M  V30 969 N 94.5984 0.214957 -1.56127 0
M  V30 970 C 95.8754 0.963093 -1.70247 0
M  V30 971 C 96.2554 2.02166 -0.60764 0
M  V30 972 O 95.6034 2.25244 0.384385 0
M  V30 973 C 95.8134 1.56756 -3.11815 0
M  V30 974 C 97.1614 2.0573 -3.7143 0
M  V30 975 O 98.1854 1.66637 -3.14818 0
M  V30 976 O 97.0444 2.77603 -4.70743 0
M  V30 977 H 94.1384 0.450321 -0.693643 0
M  V30 978 H 96.6844 0.206219 -1.68442 0
M  V30 979 H 95.4564 0.803533 -3.82961 0
M  V30 980 H 95.0794 2.3898 -3.17765 0
M  V30 981 N 96.0765 1.50051 0.48192 0
M  V30 982 C 97.3015 1.64508 1.26301 0
M  V30 983 C 97.7265 0.323851 1.85291 0
M  V30 984 O 97.0845 -0.710969 1.66778 0
M  V30 985 C 97.1325 2.7305 2.35533 0
M  V30 986 O 96.2365 2.3355 3.39895 0
M  V30 987 H 95.5775 0.549978 0.372048 0
M  V30 988 H 98.1075 1.9636 0.574786 0
M  V30 989 H 98.1175 2.95799 2.8101 0
M  V30 990 H 96.7925 3.68946 1.91967 0
M  V30 991 H 95.3695 2.21205 3.00204 0
M  V30 992 N 97.5546 -0.734337 1.39446 0
M  V30 993 C 98.5176 -1.83004 1.37994 0
M  V30 994 C 99.5176 -1.58397 0.276938 0
M  V30 995 O 100.708 -1.65785 0.534875 0
M  V30 996 C 97.8396 -3.20802 1.1532 0
M  V30 997 H 99.0326 -1.85694 2.35494 0
M  V30 998 H 96.5856 -0.938059 1.25021 0
M  V30 999 H 97.3206 -3.23772 0.185036 0
M  V30 1000 H 97.1056 -3.4006 1.95197 0
M  V30 1001 H 98.5956 -4.00862 1.17046 0
M  V30 1002 N 99.0327 -1.24633 -0.964593 0
M  V30 1003 C 100.258 -1.11596 -1.74818 0
M  V30 1004 C 100.683 0.32723 -1.85232 0
M  V30 1005 O 100.041 1.23695 -1.32549 0
M  V30 1006 C 100.089 -1.76397 -3.1451 0
M  V30 1007 O 99.1927 -1.03685 -3.99153 0
M  V30 1008 H 98.5337 -0.390196 -0.537255 0
M  V30 1009 H 101.064 -1.65002 -1.20977 0
M  V30 1010 H 101.074 -1.8228 -3.65018 0
M  V30 1011 H 99.7487 -2.81401 -3.06246 0
M  V30 1012 H 98.3257 -1.05611 -3.57632 0
M  V30 1013 N 100.511 1.16574 -1.06058 0
M  V30 1014 C 101.759 1.86677 -0.77434 0
M  V30 1015 C 102.08 1.81959 0.701147 0
M  V30 1016 O 101.35 1.2515 1.50713 0
M  V30 1017 H 99.9298 0.691134 -0.283449 0
M  V30 1018 H 102.592 1.41378 -1.34158 0
M  V30 1019 H 101.688 2.92181 -1.09711 0
M  V30 1020 N 101.989 0.842826 1.3317 0
M  V30 1021 C 102.899 0.281444 2.32906 0
M  V30 1022 C 103.915 -0.594587 1.63526 0
M  V30 1023 O 105.091 -0.49777 1.95152 0
M  V30 1024 C 102.156 -0.530929 3.42611 0
M  V30 1025 C 101.217 0.369843 4.27704 0
M  V30 1026 C 100.45 -0.403853 5.3217 0
M  V30 1027 O 100.673 -1.63513 5.46461 0
M  V30 1028 O 99.6069 0.224199 6.01482 0
M  V30 1029 H 103.433 1.10744 2.82789 0
M  V30 1030 H 101.018 0.60545 1.36582 0
M  V30 1031 H 102.9 -0.992437 4.09547 0
M  V30 1032 H 101.575 -1.33392 2.94938 0
M  V30 1033 H 100.482 0.879275 3.6362 0
M  V30 1034 H 101.815 1.13771 4.78871 0
M  V30 1035 N 103.467 -1.45747 0.599634 0
M  V30 1036 C 104.397 -2.33235 -0.111306 0
M  V30 1037 C 105.378 -1.46359 -0.866781 0
M  V30 1038 O 106.563 -1.75146 -0.838904 0
M  V30 1039 C 103.693 -3.28932 -1.11451 0
M  V30 1040 C 102.647 -4.25381 -0.472772 0
M  V30 1041 C 101.973 -5.1071 -1.58365 0
M  V30 1042 C 103.273 -5.18831 0.600948 0
M  V30 1043 H 104.967 -2.92927 0.61919 0
M  V30 1044 H 102.513 -1.40857 0.299215 0
M  V30 1045 H 104.466 -3.89002 -1.62036 0
M  V30 1046 H 103.19 -2.67381 -1.8755 0
M  V30 1047 H 101.849 -3.66598 0.0121472 0
M  V30 1048 H 101.497 -4.45533 -2.33473 0
M  V30 1049 H 101.197 -5.7604 -1.15982 0
M  V30 1050 H 102.721 -5.73647 -2.09194 0
M  V30 1051 H 104.135 -5.73019 0.179491 0
M  V30 1052 H 102.532 -5.92595 0.946076 0
M  V30 1053 H 103.602 -4.6174 1.48068 0
M  V30 1054 N 104.945 -0.338344 -1.53925 0
M  V30 1055 C 106.191 0.260143 -2.01125 0
M  V30 1056 C 106.524 1.50617 -1.22589 0
M  V30 1057 O 105.799 1.91979 -0.312113 0
M  V30 1058 C 106.082 0.579499 -3.55407 0
M  V30 1059 C 105.935 -0.678264 -4.44657 0
M  V30 1060 C 107.254 1.39122 -4.17532 0
M  V30 1061 H 104.373 0.0930772 -0.731099 0
M  V30 1062 H 107.015 -0.457852 -1.84401 0
M  V30 1063 H 105.165 1.19118 -3.69788 0
M  V30 1064 H 106.837 -1.31631 -4.42121 0
M  V30 1065 H 105.08 -1.3042 -4.13731 0
M  V30 1066 H 105.751 -0.410143 -5.50474 0
M  V30 1067 H 108.227 0.874035 -4.06817 0
M  V30 1068 H 107.103 1.58342 -5.25565 0
M  V30 1069 H 107.364 2.39178 -3.71815 0
M  V30 1070 N 106.423 1.57458 -0.0668435 0
M  V30 1071 C 107.671 1.92919 0.602214 0
M  V30 1072 C 107.992 0.947215 1.70449 0
M  V30 1073 O 107.262 -0.00544117 1.95899 0
M  V30 1074 H 105.842 0.71217 0.22544 0
M  V30 1075 H 108.504 1.94508 -0.123535 0
M  V30 1076 H 107.6 2.94589 1.03073 0
M  V30 1077 N 107.901 -0.206675 1.56239 0
M  V30 1078 C 109.141 -0.93574 1.81723 0
M  V30 1079 C 109.505 -1.80927 0.642609 0
M  V30 1080 O 110.706 -2.57323 0.777081 0
M  V30 1081 C 108.977 -1.74012 3.12177 0
M  V30 1082 S 110.536 -2.52279 3.59028 0
M  V30 1083 H 107.354 -0.314065 0.637875 0
M  V30 1084 H 109.956 -0.200071 1.94474 0
M  V30 1085 H 108.66 -1.0888 3.95693 0
M  V30 1086 H 108.191 -2.51782 3.02274 0
M  V30 1087 H 110.206 -3.76209 3.23545 0
M  V30 1088 N 109.379 -1.50304 -0.473955 0
M  V30 1089 C 110.604 -1.65175 -1.25427 0
M  V30 1090 C 111.029 -0.333673 -1.85117 0
M  V30 1091 O 110.387 0.702114 -1.67153 0
M  V30 1092 C 110.435 -2.74295 -2.34082 0
M  V30 1093 O 109.539 -2.35349 -3.38651 0
M  V30 1094 H 108.88 -0.551944 -0.369126 0
M  V30 1095 H 111.41 -1.96662 -0.564364 0
M  V30 1096 H 111.42 -2.97285 -2.79438 0
M  V30 1097 H 110.095 -3.69959 -1.90008 0
M  V30 1098 H 108.672 -2.22794 -2.99027 0
M  V30 1099 N 110.857 0.726932 -1.39834 0
M  V30 1100 C 111.82 1.82269 -1.38962 0
M  V30 1101 C 112.82 1.58248 -0.285334 0
M  V30 1102 O 114.01 1.65499 -0.54366 0
M  V30 1103 C 111.142 3.20186 -1.17019 0
M  V30 1104 H 112.335 1.84443 -2.36476 0
M  V30 1105 H 109.888 0.931416 -1.25516 0
M  V30 1106 H 110.623 3.23669 -0.202204 0
M  V30 1107 H 110.408 3.3902 -1.96998 0
M  V30 1108 H 111.898 4.00235 -1.1917 0
M  V30 1109 N 112.336 1.25143 0.95797 0
M  V30 1110 C 113.585 1.0909 1.69654 0
M  V30 1111 C 113.898 -0.368548 1.92097 0
M  V30 1112 O 115.104 -0.649455 2.63618 0
M  V30 1113 C 113.56 1.90395 3.05414 0
M  V30 1114 C 113.168 3.4081 2.90779 0
M  V30 1115 C 114.912 1.82901 3.83076 0
M  V30 1116 C 112.819 4.14423 4.21909 0
M  V30 1117 H 111.749 0.404625 0.636235 0
M  V30 1118 H 114.4 1.4931 1.06672 0
M  V30 1119 H 112.782 1.42996 3.69281 0
M  V30 1120 H 113.956 3.95859 2.35865 0
M  V30 1121 H 112.271 3.49361 2.26575 0
M  V30 1122 H 114.868 2.35196 4.80195 0
M  V30 1123 H 115.211 0.796224 4.08615 0
M  V30 1124 H 115.744 2.28033 3.25954 0
M  V30 1125 H 112.483 5.18102 4.01561 0
M  V30 1126 H 112.003 3.64159 4.76601 0
M  V30 1127 H 113.682 4.21956 4.90471 0
M  V30 1128 N 113.814 -1.1601 1.06675 0
M  V30 1129 C 115.06 -1.86909 0.786945 0
M  V30 1130 C 115.393 -1.81717 -0.685018 0
M  V30 1131 O 114.668 -1.23551 -1.50218 0
M  V30 1132 C 114.951 -3.36313 1.28707 0
M  V30 1133 C 114.804 -3.50175 2.82308 0
M  V30 1134 C 116.123 -4.3084 0.898071 0
M  V30 1135 H 113.242 -0.678677 0.287343 0
M  V30 1136 H 115.884 -1.36336 1.32334 0
M  V30 1137 H 114.034 -3.79513 0.830768 0
M  V30 1138 H 115.706 -3.15886 3.36175 0
M  V30 1139 H 113.949 -2.91959 3.20847 0
M  V30 1140 H 114.62 -4.55116 3.12368 0
M  V30 1141 H 117.096 -3.95561 1.29114 0
M  V30 1142 H 115.972 -5.33876 1.27543 0
M  V30 1143 H 116.233 -4.41662 -0.196651 0
M  V30 1144 N 115.292 -0.849877 -1.32721 0
M  V30 1145 C 116.255 -0.296122 -2.27279 0
M  V30 1146 C 117.255 0.541458 -1.5141 0
M  V30 1147 O 118.445 0.353658 -1.70572 0
M  V30 1148 C 115.577 0.581579 -3.35902 0
M  V30 1149 H 116.77 -1.13064 -2.77771 0
M  V30 1150 H 114.323 -0.62383 -1.43311 0
M  V30 1151 H 115.058 1.43809 -2.9067 0
M  V30 1152 H 114.843 -0.0178814 -3.92096 0
M  V30 1153 H 116.333 0.961951 -4.0637 0
M  V30 1154 N 116.77 1.45427 -0.607355 0
M  V30 1155 C 117.995 2.07124 -0.107006 0
M  V30 1156 C 118.42 1.44906 1.19933 0
M  V30 1157 O 117.778 0.541687 1.73019 0
M  V30 1158 C 117.826 3.60595 0.0194119 0
M  V30 1159 O 116.93 3.98285 1.0697 0
M  V30 1160 H 116.271 0.659868 -0.0739597 0
M  V30 1161 H 118.801 1.86683 -0.837297 0
M  V30 1162 H 118.811 4.07419 0.2177 0
M  V30 1163 H 117.486 4.05266 -0.934453 0
M  V30 1164 H 116.063 3.63133 0.847889 0
M  V30 1165 N 118.248 0.346503 1.53744 0
M  V30 1166 C 119.211 -0.496439 2.23759 0
M  V30 1167 C 120.211 -1.0252 1.2388 0
M  V30 1168 O 121.401 -0.913974 1.48297 0
M  V30 1169 C 118.533 -1.69187 2.95954 0
M  V30 1170 H 119.726 0.115952 2.99676 0
M  V30 1171 H 117.279 0.0978939 1.55993 0
M  V30 1172 H 118.014 -2.34288 2.24231 0
M  V30 1173 H 117.799 -1.31989 3.69217 0
M  V30 1174 H 119.289 -2.28969 3.49232 0
M  V30 1175 N 119.726 -1.57421 0.075193 0
M  V30 1176 C 120.974 -1.93236 -0.591974 0
M  V30 1177 C 121.295 -0.956241 -1.69944 0
M  V30 1178 O 120.565 -0.00494792 -1.95899 0
M  V30 1179 H 119.145 -0.713355 -0.22166 0
M  V30 1180 H 121.807 -1.9444 0.133848 0
M  V30 1181 H 120.903 -2.95131 -1.01509 0
M  V30 1182 N 121.204 0.198386 -1.56346 0
M  V30 1183 C 122.451 0.919286 -1.80431 0
M  V30 1184 C 122.779 1.83393 -0.647866 0
M  V30 1185 O 122.034 1.92236 0.366556 0
M  V30 1186 C 122.333 1.77031 -3.10475 0
M  V30 1187 C 121.999 1.00693 -4.39513 0
M  V30 1188 C 120.661 0.796145 -4.74568 0
M  V30 1189 C 123.013 0.469559 -5.19081 0
M  V30 1190 C 120.341 0.0364588 -5.86689 0
M  V30 1191 C 122.693 -0.2769 -6.31994 0
M  V30 1192 C 121.357 -0.49873 -6.65634 0
M  V30 1193 H 120.627 0.336391 -0.660244 0
M  V30 1194 H 123.274 0.185872 -1.90596 0
M  V30 1195 H 121.579 2.5723 -2.95533 0
M  V30 1196 H 123.276 2.33065 -3.26315 0
M  V30 1197 H 119.866 1.18122 -4.12001 0
M  V30 1198 H 124.05 0.619816 -4.92414 0
M  V30 1199 H 119.306 -0.145412 -6.11227 0
M  V30 1200 H 123.48 -0.700684 -6.92866 0
M  V30 1201 H 121.107 -1.0893 -7.52355 0
M  V30 1202 N 122.682 1.50554 0.465978 0
M  V30 1203 C 123.907 1.65838 1.24549 0
M  V30 1204 C 124.332 0.343486 1.84937 0
M  V30 1205 O 123.69 -0.69324 1.67523 0
M  V30 1206 C 123.738 2.75533 2.32624 0
M  V30 1207 O 122.842 2.37142 3.37398 0
M  V30 1208 H 122.183 0.553893 0.366194 0
M  V30 1209 H 124.713 1.96959 0.553927 0
M  V30 1210 H 124.723 2.98763 2.77857 0
M  V30 1211 H 123.398 3.70962 1.88043 0
M  V30 1212 H 121.975 2.24377 2.97841 0
M  V30 1213 N 124.16 -0.719506 1.40217 0
M  V30 1214 C 125.07 -1.86378 1.42479 0
M  V30 1215 C 126.086 -1.71073 0.317834 0
M  V30 1216 O 127.262 -1.93406 0.561794 0
M  V30 1217 C 124.327 -3.22136 1.28178 0
M  V30 1218 C 123.388 -3.49723 2.48982 0
M  V30 1219 C 122.621 -4.79004 2.35353 0
M  V30 1220 O 122.844 -5.53821 1.36524 0
M  V30 1221 O 121.778 -5.06839 3.2465 0
M  V30 1222 H 125.604 -1.87425 2.38968 0
M  V30 1223 H 123.189 -0.869405 1.21498 0
M  V30 1224 H 125.071 -4.03234 1.22395 0
M  V30 1225 H 123.746 -3.21825 0.347934 0
M  V30 1226 H 122.653 -2.6865 2.60342 0
M  V30 1227 H 123.986 -3.54828 3.41113 0
M  V30 1228 N 125.638 -1.25649 -0.95132 0
M  V30 1229 C 127.049 -1.09654 -1.51106 0
M  V30 1230 C 127.4 0.326615 -1.93462 0
M  V30 1231 O 126.525 1.21697 -1.78938 0
M  V30 1232 C 127.12 -1.98437 -2.74605 0
M  V30 1233 C 125.679 -1.86618 -3.2688 0
M  V30 1234 C 124.826 -1.9239 -1.99703 0
M  V30 1235 H 127.777 -1.38887 -0.767865 0
M  V30 1236 H 127.798 -1.5263 -3.48546 0
M  V30 1237 H 127.31 -3.02009 -2.43746 0
M  V30 1238 H 125.411 -0.859421 -3.62553 0
M  V30 1239 H 125.524 -2.71607 -3.94673 0
M  V30 1240 H 123.888 -1.36317 -2.15151 0
M  V30 1241 H 124.671 -2.97573 -1.71188 0
M  V30 1242 N 127.117 1.15442 -1.07289 0
M  V30 1243 C 128.364 1.86213 -0.795668 0
M  V30 1244 C 128.692 1.82291 0.678238 0
M  V30 1245 O 127.947 1.24057 1.51355 0
M  V30 1246 C 128.246 3.3489 -1.24834 0
M  V30 1247 C 127.912 3.59007 -2.72809 0
M  V30 1248 C 126.574 3.65298 -3.13227 0
M  V30 1249 C 128.926 3.68762 -3.68326 0
M  V30 1250 C 126.254 3.78854 -4.4798 0
M  V30 1251 C 128.606 3.83842 -5.0284 0
M  V30 1252 C 127.27 3.88378 -5.4288 0
M  V30 1253 H 126.54 0.681403 -0.291155 0
M  V30 1254 H 129.187 1.36435 -1.34379 0
M  V30 1255 H 127.492 3.8687 -0.619595 0
M  V30 1256 H 129.189 3.88052 -1.01076 0
M  V30 1257 H 125.779 3.5475 -2.40521 0
M  V30 1258 H 129.963 3.63202 -3.38227 0
M  V30 1259 H 125.219 3.80623 -4.78472 0
M  V30 1260 H 129.393 3.90332 -5.76727 0
M  V30 1261 H 127.02 3.98635 -6.47298 0
M  V30 1262 N 128.595 0.856903 1.32268 0
M  V30 1263 C 129.825 0.47475 2.01071 0
M  V30 1264 C 130.233 -0.933746 1.64553 0
M  V30 1265 O 129.576 -1.62114 0.863989 0
M  V30 1266 C 129.638 0.536746 3.55471 0
M  V30 1267 C 129.302 1.90453 4.15423 0
M  V30 1268 C 130.299 2.87029 4.33486 0
M  V30 1269 C 127.984 2.20229 4.51447 0
M  V30 1270 C 129.978 4.11532 4.86744 0
M  V30 1271 C 127.665 3.44984 5.0441 0
M  V30 1272 C 128.663 4.40452 5.22007 0
M  V30 1273 O 128.351 5.62998 5.73837 0
M  V30 1274 H 128.083 0.184778 0.650256 0
M  V30 1275 H 130.637 1.15615 1.69771 0
M  V30 1276 H 128.867 -0.20152 3.86175 0
M  V30 1277 H 130.556 0.169875 4.05544 0
M  V30 1278 H 131.322 2.6533 4.05986 0
M  V30 1279 H 127.201 1.46705 4.37034 0
M  V30 1280 H 130.745 4.86056 5.00395 0
M  V30 1281 H 126.642 3.66532 5.31342 0
M  V30 1282 H 127.41 5.64987 5.92226 0
M  V30 1283 N 130.073 -1.45103 0.615059 0
M  V30 1284 C 131.298 -2.07064 0.117988 0
M  V30 1285 C 131.723 -1.4554 -1.19163 0
M  V30 1286 O 131.081 -0.550855 -1.72729 0
M  V30 1287 C 131.129 -3.606 -0.000288387 0
M  V30 1288 O 130.233 -3.98847 -1.04856 0
M  V30 1289 H 129.574 -0.659467 0.0774581 0
M  V30 1290 H 132.104 -1.86236 0.847186 0
M  V30 1291 H 132.114 -4.07529 -0.196091 0
M  V30 1292 H 130.789 -4.04765 0.955932 0
M  V30 1293 H 129.366 -3.63577 -0.828619 0
M  V30 1294 N 131.551 -0.354651 -1.53558 0
M  V30 1295 C 132.798 0.238443 -2.01091 0
M  V30 1296 C 133.126 1.49663 -1.24222 0
M  V30 1297 O 132.381 1.93049 -0.321003 0
M  V30 1298 C 132.68 0.587121 -3.52545 0
M  V30 1299 C 132.346 -0.575472 -4.47213 0
M  V30 1300 C 131.008 -0.894497 -4.72813 0
M  V30 1301 C 133.36 -1.35489 -5.03281 0
M  V30 1302 C 130.688 -1.99511 -5.51736 0
M  V30 1303 C 133.04 -2.44583 -5.83405 0
M  V30 1304 C 131.704 -2.77033 -6.07296 0
M  V30 1305 H 130.974 0.0872526 -0.735845 0
M  V30 1306 H 133.621 -0.484859 -1.8526 0
M  V30 1307 H 131.926 1.39129 -3.66265 0
M  V30 1308 H 133.623 1.05809 -3.86789 0
M  V30 1309 H 130.213 -0.316774 -4.27428 0
M  V30 1310 H 134.397 -1.12167 -4.83459 0
M  V30 1311 H 129.653 -2.25063 -5.68469 0
M  V30 1312 H 133.827 -3.05401 -6.25862 0
M  V30 1313 H 131.454 -3.6244 -6.68237 0
M  V30 1314 N 133.029 1.57378 -0.0835403 0
M  V30 1315 C 134.445 1.57246 0.273109 0
M  V30 1316 C 134.645 1.09385 1.69225 0
M  V30 1317 O 133.701 0.765051 2.40631 0
M  V30 1318 C 135.014 3.00614 0.0720628 0
M  V30 1319 C 136.562 3.12684 0.1407 0
M  V30 1320 C 137.037 4.57989 -0.0322094 0
M  V30 1321 N 138.528 4.63194 0.0230085 0
M  V30 1322 C 139.263 5.73335 -0.0861941 0
M  V30 1323 N 138.759 6.9235 -0.24958 0
M  V30 1324 N 140.552 5.62093 -0.0282886 0
M  V30 1325 H 132.703 1.86801 -1.0109 0
M  V30 1326 H 134.966 0.861687 -0.395222 0
M  V30 1327 H 134.672 3.39786 -0.907662 0
M  V30 1328 H 134.546 3.68193 0.81936 0
M  V30 1329 H 136.933 2.73391 1.11092 0
M  V30 1330 H 137.014 2.47719 -0.637896 0
M  V30 1331 H 136.658 4.97973 -0.999247 0
M  V30 1332 H 136.588 5.21 0.765937 0
M  V30 1333 H 139.079 3.77613 0.14722 0
M  V30 1334 H 139.392 7.72117 -0.324733 0
M  V30 1335 H 137.737 6.94415 -0.285097 0
M  V30 1336 H 140.928 4.67997 0.0981408 0
M  V30 1337 H 141.101 6.47895 -0.116845 0
M  V30 1338 N 134.507 -0.190092 1.56449 0
M  V30 1339 C 135.455 -1.25501 1.95837 0
M  V30 1340 C 136.449 -1.4685 0.844485 0
M  V30 1341 O 137.655 -1.47651 1.02952 0
M  V30 1342 H 134.03 -0.421447 0.622805 0
M  V30 1343 H 136.001 -0.895821 2.84636 0
M  V30 1344 C 134.75 -2.59124 2.31841 0
M  V30 1345 H 134.073 -2.43514 3.17082 0
M  V30 1346 H 135.513 -3.32371 2.6326 0
M  V30 1347 C 133.972 -3.16488 1.15486 0
M  V30 1348 O 134.502 -3.99365 0.432535 0
M  V30 1349 N 132.708 -2.75305 0.930349 0
M  V30 1350 H 132.255 -2.08013 1.51948 0
M  V30 1351 H 132.213 -3.14024 0.153634 0
M  V30 1352 N 135.985 -1.50799 -0.457987 0
M  V30 1353 C 136.895 -1.73426 -1.57989 0
M  V30 1354 C 137.911 -0.617745 -1.62665 0
M  V30 1355 O 139.087 -0.897614 -1.80291 0
M  V30 1356 C 136.152 -1.83557 -2.94122 0
M  V30 1357 C 135.213 -3.07345 -2.99729 0
M  V30 1358 C 134.446 -3.16983 -4.29368 0
M  V30 1359 O 134.669 -2.33077 -5.20607 0
M  V30 1360 O 133.603 -4.09812 -4.40837 0
M  V30 1361 H 137.429 -2.68555 -1.41817 0
M  V30 1362 H 135.014 -1.35052 -0.638859 0
M  V30 1363 H 136.896 -1.92326 -3.74952 0
M  V30 1364 H 135.571 -0.916137 -3.10465 0
M  V30 1365 H 134.478 -3.04068 -2.1793 0
M  V30 1366 H 135.811 -3.9891 -2.88326 0
M  V30 1367 N 137.463 0.71206 -1.40597 0
M  V30 1368 C 138.691 1.50111 -1.42388 0
M  V30 1369 C 139.106 1.88784 -0.0245395 0
M  V30 1370 O 138.463 1.55681 0.952351 0
M  V30 1371 C 138.514 2.7742 -2.31776 0
M  V30 1372 O 138.235 2.40382 -3.66262 0
M  V30 1373 C 139.736 3.7129 -2.42196 0
M  V30 1374 H 136.956 0.46314 -0.485533 0
M  V30 1375 H 139.5 0.878068 -1.8469 0
M  V30 1376 H 137.655 3.36001 -1.92827 0
M  V30 1377 H 138.069 3.22324 -4.13772 0
M  V30 1378 H 139.543 4.57448 -3.08943 0
M  V30 1379 H 140.02 4.14641 -1.44809 0
M  V30 1380 H 140.626 3.18619 -2.81712 0
M  V30 1381 N 138.941 1.26152 0.944643 0
M  V30 1382 C 140.188 1.11492 1.69044 0
M  V30 1383 C 140.516 -0.342366 1.91463 0
M  V30 1384 O 139.771 -1.26812 1.49054 0
M  V30 1385 C 140.07 1.82541 3.07268 0
M  V30 1386 C 139.736 3.32445 3.04616 0
M  V30 1387 C 138.398 3.73337 3.036 0
M  V30 1388 C 140.75 4.28171 2.97185 0
M  V30 1389 C 138.078 5.08348 2.92915 0
M  V30 1390 C 140.43 5.63218 2.88041 0
M  V30 1391 C 139.094 6.03426 2.85366 0
M  V30 1392 H 138.364 0.407977 0.618576 0
M  V30 1393 H 141.011 1.56551 1.10291 0
M  V30 1394 H 139.316 1.29941 3.69625 0
M  V30 1395 H 141.013 1.68642 3.63815 0
M  V30 1396 H 137.603 2.99915 3.06185 0
M  V30 1397 H 141.787 3.97563 2.97081 0
M  V30 1398 H 137.043 5.38667 2.89219 0
M  V30 1399 H 141.217 6.37078 2.81254 0
M  V30 1400 H 138.844 7.07999 2.76842 0
M  V30 1401 N 140.419 -1.14872 1.07899 0
M  V30 1402 C 141.665 -1.86064 0.806725 0
M  V30 1403 C 141.998 -1.82434 -0.665706 0
M  V30 1404 O 141.273 -1.25138 -1.48899 0
M  V30 1405 C 141.556 -3.34929 1.32267 0
M  V30 1406 C 141.409 -3.47161 2.86006 0
M  V30 1407 C 142.728 -4.29863 0.943717 0
M  V30 1408 H 139.847 -0.675591 0.294526 0
M  V30 1409 H 142.489 -1.34925 1.33773 0
M  V30 1410 H 140.639 -3.78611 0.870974 0
M  V30 1411 H 142.311 -3.12302 3.39507 0
M  V30 1412 H 140.554 -2.88539 3.23925 0
M  V30 1413 H 141.225 -4.51777 3.17177 0
M  V30 1414 H 143.701 -3.9417 1.33302 0
M  V30 1415 H 142.577 -5.32494 1.33198 0
M  V30 1416 H 142.838 -4.41846 -0.149796 0
M  V30 1417 N 141.898 -0.863906 -1.31812 0
M  V30 1418 C 142.848 -0.286898 -2.26188 0
M  V30 1419 C 143.832 0.572577 -1.50367 0
M  V30 1420 O 145.024 0.420447 -1.71934 0
M  V30 1421 C 142.153 0.515849 -3.39402 0
M  V30 1422 C 141.239 -0.356531 -4.22599 0
M  V30 1423 N 141.63 -1.44716 -4.84656 0
M  V30 1424 C 139.928 -0.147898 -4.45755 0
M  V30 1425 C 140.629 -1.98462 -5.46798 0
M  V30 1426 N 139.605 -1.28247 -5.28255 0
M  V30 1427 H 143.407 -1.12055 -2.717 0
M  V30 1428 H 140.921 -0.711012 -1.46008 0
M  V30 1429 H 142.918 0.945701 -4.06032 0
M  V30 1430 H 141.578 1.34718 -2.95434 0
M  V30 1431 H 142.589 -1.83008 -4.84488 0
M  V30 1432 H 139.266 0.647973 -4.12441 0
M  V30 1433 H 140.656 -2.89932 -6.06126 0
M  V30 1434 N 143.376 1.44774 -0.622745 0
M  V30 1435 C 144.339 2.29069 0.0774015 0
M  V30 1436 C 145.339 1.4059 0.780461 0
M  V30 1437 O 146.529 1.62551 0.626322 0
M  V30 1438 C 143.661 3.21974 1.12006 0
M  V30 1439 H 144.854 2.92459 -0.663901 0
M  V30 1440 H 142.407 1.51548 -0.382486 0
M  V30 1441 H 143.142 2.63417 1.89162 0
M  V30 1442 H 142.927 3.87168 0.619951 0
M  V30 1443 H 144.417 3.85318 1.60995 0
M  V30 1444 N 144.854 0.36279 1.53368 0
M  V30 1445 C 146.079 -0.231226 2.06107 0
M  V30 1446 C 146.504 -1.419 1.23474 0
M  V30 1447 O 145.862 -1.79524 0.253128 0
M  V30 1448 C 145.91 -0.605523 3.5548 0
M  V30 1449 O 145.014 -1.70312 3.7559 0
M  V30 1450 H 144.355 -0.034327 0.663112 0
M  V30 1451 H 146.885 0.522584 1.97814 0
M  V30 1452 H 146.895 -0.877314 3.98456 0
M  V30 1453 H 145.57 0.263004 4.15068 0
M  V30 1454 H 144.147 -1.4271 3.44512 0
M  V30 1455 N 146.332 -1.57332 0.0918853 0
M  V30 1456 C 147.748 -1.57389 -0.264766 0
M  V30 1457 C 147.948 -1.10281 -1.68643 0
M  V30 1458 O 147.004 -0.777801 -2.40222 0
M  V30 1459 C 148.317 -3.00648 -0.0561195 0
M  V30 1460 C 149.865 -3.12754 -0.124116 0
M  V30 1461 C 150.34 -4.57965 0.0564972 0
M  V30 1462 N 151.831 -4.632 0.00155611 0
M  V30 1463 C 152.566 -5.73281 0.116598 0
M  V30 1464 N 152.062 -6.92208 0.286294 0
M  V30 1465 N 153.855 -5.6207 0.0580973 0
M  V30 1466 H 146.006 -1.86262 1.02079 0
M  V30 1467 H 148.269 -0.859579 0.399786 0
M  V30 1468 H 147.975 -3.393 0.925669 0
M  V30 1469 H 147.849 -3.68623 -0.799823 0
M  V30 1470 H 150.236 -2.73976 -1.09641 0
M  V30 1471 H 150.317 -2.47377 0.651024 0
M  V30 1472 H 149.961 -4.97436 1.02564 0
M  V30 1473 H 149.891 -5.21399 -0.738297 0
M  V30 1474 H 152.382 -3.77686 -0.127192 0
M  V30 1475 H 152.695 -7.71934 0.365676 0
M  V30 1476 H 151.04 -6.94254 0.32192 0
M  V30 1477 H 154.231 -4.68043 -0.0733204 0
M  V30 1478 H 154.404 -6.47824 0.151203 0
M  V30 1479 N 147.81 0.181792 -1.56548 0
M  V30 1480 C 149.035 0.920019 -1.85877 0
M  V30 1481 C 149.46 1.75494 -0.677021 0
M  V30 1482 O 148.818 1.77399 0.374056 0
M  V30 1483 C 148.866 1.78112 -3.13542 0
M  V30 1484 O 147.97 2.88152 -2.95029 0
M  V30 1485 H 147.311 0.258334 -0.611686 0
M  V30 1486 H 149.841 0.183092 -2.03779 0
M  V30 1487 H 149.851 2.18314 -3.44678 0
M  V30 1488 H 148.526 1.16777 -3.99169 0
M  V30 1489 H 147.103 2.51609 -2.75222 0
M  V30 1490 N 149.288 1.51039 0.449983 0
M  V30 1491 C 150.218 1.74379 1.55288 0
M  V30 1492 C 151.199 0.593236 1.5942 0
M  V30 1493 O 152.384 0.834625 1.7535 0
M  V30 1494 C 149.514 1.85728 2.93466 0
M  V30 1495 C 148.468 3.01078 3.04197 0
M  V30 1496 C 147.794 2.97595 4.44231 0
M  V30 1497 C 149.094 4.41254 2.7945 0
M  V30 1498 H 150.788 2.66725 1.36008 0
M  V30 1499 H 148.334 1.2835 0.652864 0
M  V30 1500 H 150.287 2.0064 3.70569 0
M  V30 1501 H 149.011 0.900207 3.13949 0
M  V30 1502 H 147.67 2.85851 2.29531 0
M  V30 1503 H 147.318 1.99691 4.61663 0
M  V30 1504 H 147.018 3.75046 4.52343 0
M  V30 1505 H 148.542 3.14583 5.23326 0
M  V30 1506 H 149.956 4.56897 3.46292 0
M  V30 1507 H 148.353 5.20315 2.98985 0
M  V30 1508 H 149.423 4.52164 1.75144 0
M  V30 1509 N 150.766 -0.704594 1.40972 0
M  V30 1510 C 151.991 -1.49858 1.43378 0
M  V30 1511 C 152.416 -1.88061 0.038184 0
M  V30 1512 O 151.774 -1.5402 -0.956425 0
M  V30 1513 C 151.822 -2.74333 2.34038 0
M  V30 1514 O 150.926 -3.7147 1.7912 0
M  V30 1515 H 150.267 -0.45139 0.486974 0
M  V30 1516 H 152.797 -0.866832 1.8533 0
M  V30 1517 H 152.807 -3.22741 2.49604 0
M  V30 1518 H 151.482 -2.45863 3.35446 0
M  V30 1519 H 150.059 -3.30363 1.72958 0
M  V30 1520 N 152.244 -1.26651 -0.937939 0
M  V30 1521 C 153.493 -1.11775 -1.67897 0
M  V30 1522 C 153.806 0.33794 -1.92659 0
M  V30 1523 O 155.012 0.607434 -2.64618 0
M  V30 1524 C 153.468 -1.9523 -3.02346 0
M  V30 1525 C 153.076 -3.45393 -2.8532 0
M  V30 1526 C 154.82 -1.88972 -3.80118 0
M  V30 1527 C 152.727 -4.21083 -4.15263 0
M  V30 1528 H 151.657 -0.414696 -0.629717 0
M  V30 1529 H 154.308 -1.50988 -1.04283 0
M  V30 1530 H 152.69 -1.48853 -3.66959 0
M  V30 1531 H 153.864 -3.99561 -2.29537 0
M  V30 1532 H 152.179 -3.52921 -2.20988 0
M  V30 1533 H 154.776 -2.42805 -4.76392 0
M  V30 1534 H 155.119 -0.86113 -4.07296 0
M  V30 1535 H 155.652 -2.33189 -3.22285 0
M  V30 1536 H 152.391 -5.24425 -3.93267 0
M  V30 1537 H 151.911 -3.71695 -4.70747 0
M  V30 1538 H 153.59 -4.29706 -4.83696 0
M  V30 1539 N 153.722 1.14298 -1.08507 0
M  V30 1540 C 154.672 2.17449 -0.685569 0
M  V30 1541 C 155.656 1.58167 0.295315 0
M  V30 1542 O 156.848 1.76675 0.107172 0
M  V30 1543 C 153.977 3.43161 -0.0975318 0
M  V30 1544 C 153.063 4.09471 -1.10426 0
M  V30 1545 N 153.454 4.51089 -2.28806 0
M  V30 1546 C 151.752 4.35976 -0.940258 0
M  V30 1547 C 152.453 5.02654 -2.9277 0
M  V30 1548 N 151.429 4.96927 -2.20374 0
M  V30 1549 H 155.231 2.47369 -1.587 0
M  V30 1550 H 152.745 1.30992 -0.959936 0
M  V30 1551 H 154.742 4.16388 0.20664 0
M  V30 1552 H 153.402 3.14719 0.798872 0
M  V30 1553 H 154.413 4.44097 -2.66455 0
M  V30 1554 H 151.09 4.17386 -0.0977441 0
M  V30 1555 H 152.48 5.44723 -3.93352 0
M  V30 1556 N 155.201 0.870884 1.31352 0
M  V30 1557 C 156.149 0.316445 2.30437 0
M  V30 1558 C 157.143 -0.568965 1.59559 0
M  V30 1559 O 158.349 -0.454964 1.74155 0
M  V30 1560 H 154.724 0.0836521 0.747333 0
M  V30 1561 H 156.695 1.16606 2.74673 0
M  V30 1562 C 155.444 -0.46635 3.44558 0
M  V30 1563 H 154.767 0.205687 3.99271 0
M  V30 1564 H 156.207 -0.819614 4.16003 0
M  V30 1565 C 154.666 -1.65797 2.9328 0
M  V30 1566 O 155.196 -2.75728 2.92125 0
M  V30 1567 N 153.402 -1.49041 2.4947 0
M  V30 1568 H 152.949 -0.59612 2.50608 0
M  V30 1569 H 152.907 -2.28911 2.15516 0
M  V30 1570 N 156.679 -1.44442 0.630414 0
M  V30 1571 C 157.626 -2.30678 -0.0749355 0
M  V30 1572 C 158.596 -1.4344 -0.837502 0
M  V30 1573 O 159.781 -1.72343 -0.818684 0
M  V30 1574 C 156.921 -3.28706 -1.05103 0
M  V30 1575 C 156.034 -4.31046 -0.286954 0
M  V30 1576 C 155.169 -5.16167 -1.2548 0
M  V30 1577 C 154.208 -6.10216 -0.479843 0
M  V30 1578 N 153.345 -6.88039 -1.39811 0
M  V30 1579 H 158.185 -2.90454 0.666386 0
M  V30 1580 H 155.722 -1.43107 0.340404 0
M  V30 1581 H 157.68 -3.84027 -1.63031 0
M  V30 1582 H 156.31 -2.70632 -1.75949 0
M  V30 1583 H 155.362 -3.78203 0.408243 0
M  V30 1584 H 156.674 -4.97794 0.316657 0
M  V30 1585 H 155.828 -5.76002 -1.90544 0
M  V30 1586 H 154.567 -4.49491 -1.89233 0
M  V30 1587 H 153.572 -5.49491 0.184295 0
M  V30 1588 H 154.797 -6.78928 0.152965 0
M  V30 1589 H 152.743 -6.24032 -2.02287 0
M  V30 1590 H 152.66 -7.51223 -0.848508 0
M  V30 1591 H 153.928 -7.52397 -2.03762 0
M  V30 1592 N 158.157 -0.370918 -1.53173 0
M  V30 1593 C 159.406 0.218249 -2.00516 0
M  V30 1594 C 159.719 1.49429 -1.26215 0
M  V30 1595 O 160.925 2.16239 -1.64174 0
M  V30 1596 C 159.381 0.43948 -3.57207 0
M  V30 1597 C 158.989 -0.822244 -4.4039 0
M  V30 1598 C 160.733 0.986012 -4.1289 0
M  V30 1599 C 158.64 -0.570304 -5.88644 0
M  V30 1600 H 157.57 0.0853333 -0.749156 0
M  V30 1601 H 160.221 -0.490483 -1.76823 0
M  V30 1602 H 158.603 1.20961 -3.77074 0
M  V30 1603 H 159.777 -1.59557 -4.32294 0
M  V30 1604 H 158.092 -1.29238 -3.95836 0
M  V30 1605 H 160.689 1.18991 -5.21292 0
M  V30 1606 H 161.032 1.94972 -3.6782 0
M  V30 1607 H 161.565 0.27592 -3.96842 0
M  V30 1608 H 158.304 -1.50449 -6.38001 0
M  V30 1609 H 157.824 0.164427 -5.99575 0
M  V30 1610 H 159.503 -0.19784 -6.46697 0
M  V30 1611 N 159.635 1.57281 -0.100228 0
M  V30 1612 C 160.585 2.10848 0.86759 0
M  V30 1613 C 161.569 1.02473 1.24049 0
M  V30 1614 O 162.761 1.28739 1.21471 0
M  V30 1615 C 159.89 2.69648 2.12474 0
M  V30 1616 C 158.976 3.85074 1.77704 0
M  V30 1617 N 159.367 4.92897 1.13518 0
M  V30 1618 C 157.665 3.94905 2.07282 0
M  V30 1619 C 158.366 5.73475 0.974735 0
M  V30 1620 N 157.342 5.22675 1.4937 0
M  V30 1621 H 161.144 2.91594 0.367471 0
M  V30 1622 H 158.658 1.62074 0.102829 0
M  V30 1623 H 160.655 3.06356 2.82757 0
M  V30 1624 H 159.315 1.90359 2.63047 0
M  V30 1625 H 160.326 5.11662 0.801381 0
M  V30 1626 H 157.003 3.26633 2.60033 0
M  V30 1627 H 158.393 6.70238 0.472364 0
M  V30 1628 N 161.113 -0.173488 1.56642 0
M  V30 1629 C 162.359 -0.891784 1.8214 0
M  V30 1630 C 162.692 -1.8199 0.677736 0
M  V30 1631 O 161.967 -1.91842 -0.320446 0
M  V30 1632 C 162.25 -1.68933 3.18015 0
M  V30 1633 C 162.103 -0.784487 4.42906 0
M  V30 1634 C 163.422 -2.65748 3.50808 0
M  V30 1635 H 160.541 -0.322761 0.662567 0
M  V30 1636 H 163.183 -0.158095 1.89341 0
M  V30 1637 H 161.333 -2.31482 3.12007 0
M  V30 1638 H 163.005 -0.172046 4.60979 0
M  V30 1639 H 161.248 -0.0924117 4.33702 0
M  V30 1640 H 161.919 -1.37799 5.34524 0
M  V30 1641 H 164.395 -2.13327 3.57255 0
M  V30 1642 H 163.271 -3.18619 4.4696 0
M  V30 1643 H 163.532 -3.45842 2.75401 0
M  V30 1644 N 162.591 -1.51276 -0.441967 0
M  V30 1645 C 163.521 -1.752 -1.54361 0
M  V30 1646 C 164.502 -0.601682 -1.59103 0
M  V30 1647 O 165.687 -0.843913 -1.74905 0
M  V30 1648 C 162.817 -1.87282 -2.92477 0
M  V30 1649 C 161.771 -3.02687 -3.02596 0
M  V30 1650 C 161.097 -2.99947 -4.42647 0
M  V30 1651 C 162.397 -4.4273 -2.77106 0
M  V30 1652 H 164.091 -2.67442 -1.34592 0
M  V30 1653 H 161.637 -1.28694 -0.646048 0
M  V30 1654 H 163.59 -2.02602 -3.695 0
M  V30 1655 H 162.314 -0.916844 -3.13467 0
M  V30 1656 H 160.973 -2.87065 -2.28012 0
M  V30 1657 H 160.621 -2.02136 -4.60597 0
M  V30 1658 H 160.321 -3.77439 -4.50348 0
M  V30 1659 H 161.845 -3.17354 -5.2165 0
M  V30 1660 H 163.259 -4.58727 -3.43864 0
M  V30 1661 H 161.656 -5.21893 -2.96222 0
M  V30 1662 H 162.726 -4.53087 -1.72744 0
M  V30 1663 N 164.069 0.697108 -1.41344 0
M  V30 1664 C 165.294 1.49096 -1.44171 0
M  V30 1665 C 165.719 1.88038 -0.0481568 0
M  V30 1666 O 165.077 1.54525 0.948243 0
M  V30 1667 C 165.125 2.73088 -2.3549 0
M  V30 1668 O 164.229 3.70514 -1.81088 0
M  V30 1669 H 163.57 0.448801 -0.489361 0
M  V30 1670 H 166.1 0.856992 -1.85787 0
M  V30 1671 H 166.11 3.21413 -2.51312 0
M  V30 1672 H 164.785 2.44081 -3.36745 0
M  V30 1673 H 163.362 3.29441 -1.74708 0
M  V30 1674 N 165.547 1.27147 0.931209 0
M  V30 1675 C 166.477 1.12081 2.04842 0
M  V30 1676 C 167.458 0.0232364 1.70084 0
M  V30 1677 O 168.643 0.197085 1.93197 0
M  V30 1678 C 165.773 0.76354 3.38803 0
M  V30 1679 C 164.727 1.81396 3.87659 0
M  V30 1680 C 164.053 1.31075 5.18385 0
M  V30 1681 C 165.353 3.21739 4.11438 0
M  V30 1682 H 167.047 2.05537 2.17703 0
M  V30 1683 H 164.593 0.989603 1.04608 0
M  V30 1684 H 166.546 0.644982 4.16435 0
M  V30 1685 H 165.27 -0.206727 3.25945 0
M  V30 1686 H 163.929 1.92136 3.12217 0
M  V30 1687 H 163.577 0.330037 5.01916 0
M  V30 1688 H 163.277 2.013 5.52044 0
M  V30 1689 H 164.801 1.20506 5.98591 0
M  V30 1690 H 166.215 3.14019 4.79651 0
M  V30 1691 H 164.612 3.89644 4.56397 0
M  V30 1692 H 165.682 3.67054 3.16859 0
M  V30 1693 N 167.025 -1.13721 1.09112 0
M  V30 1694 C 168.265 -1.86576 0.834801 0
M  V30 1695 C 168.629 -1.81435 -0.628122 0
M  V30 1696 O 169.83 -2.49497 -1.00024 0
M  V30 1697 C 168.101 -3.30872 1.35124 0
M  V30 1698 S 169.66 -4.21257 1.22832 0
M  V30 1699 H 166.478 -0.643666 0.302017 0
M  V30 1700 H 169.08 -1.37085 1.39385 0
M  V30 1701 H 167.784 -3.32166 2.41027 0
M  V30 1702 H 167.315 -3.85423 0.788185 0
M  V30 1703 H 169.33 -4.95884 0.177191 0
M  V30 1704 N 168.503 -0.877838 -1.30888 0
M  V30 1705 C 169.453 -0.310872 -2.25871 0
M  V30 1706 C 170.437 0.556596 -1.50966 0
M  V30 1707 O 171.629 0.402187 -1.7237 0
M  V30 1708 C 168.758 0.479821 -3.3993 0
M  V30 1709 C 167.844 -0.401333 -4.22197 0
M  V30 1710 N 168.235 -1.49848 -4.83093 0
M  V30 1711 C 166.533 -0.195167 -4.45573 0
M  V30 1712 C 167.234 -2.0425 -5.44662 0
M  V30 1713 N 166.21 -1.33843 -5.26865 0
M  V30 1714 H 170.012 -1.1493 -2.70496 0
M  V30 1715 H 167.526 -0.726458 -1.45246 0
M  V30 1716 H 169.523 0.902582 -4.07012 0
M  V30 1717 H 168.183 1.31577 -2.96846 0
M  V30 1718 H 169.194 -1.88137 -4.82519 0
M  V30 1719 H 165.871 0.604192 -4.13105 0
M  V30 1720 H 167.261 -2.96345 -6.03017 0
M  V30 1721 N 169.982 1.44106 -0.638065 0
M  V30 1722 C 171.259 1.95453 -0.0759321 0
M  V30 1723 C 171.639 1.57984 1.40015 0
M  V30 1724 O 170.987 0.857361 2.11806 0
M  V30 1725 C 171.197 3.47655 -0.306132 0
M  V30 1726 C 172.545 4.24114 -0.203008 0
M  V30 1727 O 173.569 3.55405 -0.237871 0
M  V30 1728 O 172.428 5.46381 -0.113827 0
M  V30 1729 H 169.522 0.826797 0.0183332 0
M  V30 1730 H 172.068 1.54122 -0.710251 0
M  V30 1731 H 170.84 3.68 -1.3301 0
M  V30 1732 H 170.463 3.95949 0.361991 0
M  V30 1733 N 171.46 0.379036 1.52974 0
M  V30 1734 C 172.39 -0.452706 2.29069 0
M  V30 1735 C 173.371 -1.07237 1.32039 0
M  V30 1736 O 174.556 -1.08708 1.60923 0
M  V30 1737 C 171.686 -1.5856 3.08992 0
M  V30 1738 C 170.64 -1.0925 4.13822 0
M  V30 1739 C 169.966 -2.31668 4.81907 0
M  V30 1740 C 171.266 -0.167702 5.22031 0
M  V30 1741 H 172.96 0.182181 2.98845 0
M  V30 1742 H 170.506 0.0890592 1.43724 0
M  V30 1743 H 172.459 -2.1742 3.6098 0
M  V30 1744 H 171.183 -2.24792 2.36931 0
M  V30 1745 H 169.842 -0.526494 3.628 0
M  V30 1746 H 169.49 -2.96386 4.06404 0
M  V30 1747 H 169.19 -1.9934 5.52754 0
M  V30 1748 H 170.714 -2.91189 5.36695 0
M  V30 1749 H 172.128 -0.664186 5.6944 0
M  V30 1750 H 170.525 0.0653265 6.00064 0
M  V30 1751 H 171.595 0.786347 4.78482 0
M  V30 1752 N 172.938 -1.57226 0.108567 0
M  V30 1753 C 174.166 -1.99179 -0.559954 0
M  V30 1754 C 174.581 -0.988022 -1.60884 0
M  V30 1755 O 173.938 0.0205512 -1.82488 0
M  V30 1756 C 173.989 -3.41159 -1.19552 0
M  V30 1757 O 173.71 -4.37694 -0.188577 0
M  V30 1758 C 175.211 -3.98188 -1.94837 0
M  V30 1759 H 172.431 -0.654228 -0.149088 0
M  V30 1760 H 174.975 -2.03598 0.19183 0
M  V30 1761 H 173.13 -3.37711 -1.89815 0
M  V30 1762 H 173.544 -5.20469 -0.649014 0
M  V30 1763 H 175.018 -4.99644 -2.34648 0
M  V30 1764 H 175.495 -3.3675 -2.81951 0
M  V30 1765 H 176.101 -4.0515 -1.2936 0
M  V30 1766 N 174.416 0.165178 -1.56732 0
M  V30 1767 C 175.664 0.879068 -1.8198 0
M  V30 1768 C 175.985 1.82514 -0.686561 0
M  V30 1769 O 175.255 1.93694 0.293146 0
M  V30 1770 H 173.835 0.327608 -0.671329 0
M  V30 1771 H 176.497 0.163526 -1.94213 0
M  V30 1772 H 175.593 1.45228 -2.76252 0
M  V30 1773 N 175.894 1.51508 0.433938 0
M  V30 1774 C 176.842 1.73646 1.54757 0
M  V30 1775 C 177.836 0.602854 1.5831 0
M  V30 1776 O 179.042 0.784318 1.62014 0
M  V30 1777 H 175.417 0.548718 0.51421 0
M  V30 1778 H 177.388 2.66991 1.33261 0
M  V30 1779 C 176.137 1.88172 2.92381 0
M  V30 1780 H 175.46 2.74808 2.90381 0
M  V30 1781 H 176.9 2.07672 3.6966 0
M  V30 1782 C 175.359 0.64239 3.30719 0
M  V30 1783 O 175.889 -0.201362 4.01195 0
M  V30 1784 N 174.095 0.485489 2.86516 0
M  V30 1785 H 173.642 1.17318 2.29334 0
M  V30 1786 H 173.6 -0.342482 3.12529 0
M  V30 1787 N 177.372 -0.689602 1.41712 0
M  V30 1788 C 178.597 -1.48329 1.44959 0
M  V30 1789 C 179.022 -1.8801 0.0581283 0
M  V30 1790 O 178.38 -1.55026 -0.940035 0
M  V30 1791 C 178.428 -2.71835 2.36935 0
M  V30 1792 O 177.532 -3.69549 1.8305 0
M  V30 1793 H 176.873 -0.446199 0.491734 0
M  V30 1794 H 179.403 -0.847127 1.86239 0
M  V30 1795 H 179.413 -3.20076 2.53013 0
M  V30 1796 H 178.088 -2.42291 3.38035 0
M  V30 1797 H 176.665 -3.2851 1.76452 0
M  V30 1798 N 178.85 -1.27639 -0.924453 0
M  V30 1799 C 179.78 -1.13166 -2.04244 0
M  V30 1800 C 180.761 -0.032256 -1.70069 0
M  V30 1801 O 181.946 -0.207328 -1.9309 0
M  V30 1802 C 179.076 -0.781496 -3.38393 0
M  V30 1803 C 178.03 -1.83449 -3.86692 0
M  V30 1804 C 177.356 -1.33822 -5.17683 0
M  V30 1805 C 178.656 -3.23917 -4.09726 0
M  V30 1806 H 180.35 -2.06689 -2.1661 0
M  V30 1807 H 177.896 -0.995136 -1.04082 0
M  V30 1808 H 179.849 -0.667057 -4.16087 0
M  V30 1809 H 178.573 0.189439 -3.2605 0
M  V30 1810 H 177.232 -1.93789 -3.11193 0
M  V30 1811 H 176.88 -0.35665 -5.01734 0
M  V30 1812 H 176.58 -2.04224 -5.50968 0
M  V30 1813 H 178.104 -1.23679 -5.97943 0
M  V30 1814 H 179.518 -3.16559 -4.77978 0
M  V30 1815 H 177.915 -3.92059 -4.54324 0
M  V30 1816 H 178.985 -3.68729 -3.14908 0
M  V30 1817 N 180.328 1.1314 -1.09713 0
M  V30 1818 C 181.258 2.20748 -0.761102 0
M  V30 1819 C 182.239 1.68061 0.262566 0
M  V30 1820 O 183.424 1.93765 0.129977 0
M  V30 1821 C 180.554 3.46812 -0.184054 0
M  V30 1822 C 179.508 4.12606 -1.13757 0
M  V30 1823 C 178.834 5.33031 -0.422083 0
M  V30 1824 C 180.134 4.59603 -2.48118 0
M  V30 1825 H 181.828 2.49113 -1.66082 0
M  V30 1826 H 179.374 1.19734 -0.799987 0
M  V30 1827 H 181.327 4.21353 0.0631215 0
M  V30 1828 H 180.051 3.17851 0.750868 0
M  V30 1829 H 178.71 3.40036 -1.37007 0
M  V30 1830 H 178.358 5.00335 0.517072 0
M  V30 1831 H 178.058 5.77999 -1.05788 0
M  V30 1832 H 179.582 6.10325 -0.183277 0
M  V30 1833 H 180.996 5.25552 -2.29059 0
M  V30 1834 H 179.393 5.15321 -3.07514 0
M  V30 1835 H 180.463 3.73971 -3.08665 0
M  V30 1836 N 181.806 0.884767 1.30421 0
M  V30 1837 C 183.034 0.518044 2.0031 0
M  V30 1838 C 183.449 -0.893408 1.66324 0
M  V30 1839 O 182.806 -1.5875 0.900262 0
M  V30 1840 C 182.857 0.682997 3.54989 0
M  V30 1841 O 182.578 2.03888 3.87764 0
M  V30 1842 C 184.079 0.31924 4.42149 0
M  V30 1843 H 181.299 0.200265 0.640418 0
M  V30 1844 H 183.843 1.19001 1.6631 0
M  V30 1845 H 181.998 0.0584052 3.87356 0
M  V30 1846 H 182.412 2.05735 4.82466 0
M  V30 1847 H 183.886 0.485555 5.4986 0
M  V30 1848 H 184.363 -0.742717 4.32875 0
M  V30 1849 H 184.969 0.920147 4.15227 0
M  V30 1850 N 183.284 -1.43765 0.645699 0
M  V30 1851 C 184.509 -2.06767 0.161883 0
M  V30 1852 C 184.934 -1.48034 -1.16049 0
M  V30 1853 O 184.292 -0.587369 -1.71522 0
M  V30 1854 C 184.34 -3.60519 0.0762003 0
M  V30 1855 O 183.444 -4.00982 -0.963721 0
M  V30 1856 H 182.785 -0.657675 0.091429 0
M  V30 1857 H 185.315 -1.84397 0.886499 0
M  V30 1858 H 185.325 -4.07853 -0.109604 0
M  V30 1859 H 184 -4.02646 1.04157 0
M  V30 1860 H 182.577 -3.65253 -0.751312 0
M  V30 1861 N 184.763 -0.387143 -1.52771 0
M  V30 1862 C 186.01 0.195735 -2.01552 0
M  V30 1863 C 186.338 1.46995 -1.27369 0
M  V30 1864 O 185.593 1.92325 -0.361879 0
M  V30 1865 C 185.892 0.512209 -3.53711 0
M  V30 1866 C 185.558 -0.670202 -4.45891 0
M  V30 1867 C 184.22 -0.994586 -4.70809 0
M  V30 1868 C 186.572 -1.46134 -5.00294 0
M  V30 1869 C 183.9 -2.11169 -5.4738 0
M  V30 1870 C 186.252 -2.56903 -5.78086 0
M  V30 1871 C 184.916 -2.89852 -6.01284 0
M  V30 1872 H 184.186 0.0716246 -0.73753 0
M  V30 1873 H 186.833 -0.524046 -1.8419 0
M  V30 1874 H 185.138 1.31329 -3.69134 0
M  V30 1875 H 186.835 0.975804 -3.88946 0
M  V30 1876 H 183.425 -0.407366 -4.2666 0
M  V30 1877 H 187.609 -1.22397 -4.80971 0
M  V30 1878 H 182.865 -2.3707 -5.63567 0
M  V30 1879 H 187.039 -3.18608 -6.19243 0
M  V30 1880 H 184.666 -3.76533 -6.60399 0
M  V30 1881 N 186.241 1.57166 -0.116904 0
M  V30 1882 C 187.471 1.99184 0.548586 0
M  V30 1883 C 187.879 0.995436 1.60897 0
M  V30 1884 O 187.222 -0.0201293 1.83689 0
M  V30 1885 C 187.284 3.37611 1.23526 0
M  V30 1886 C 186.948 4.55857 0.323077 0
M  V30 1887 C 187.945 5.18056 -0.437476 0
M  V30 1888 C 185.63 5.01751 0.234761 0
M  V30 1889 C 187.624 6.24536 -1.2741 0
M  V30 1890 C 185.311 6.08093 -0.605496 0
M  V30 1891 C 186.309 6.69352 -1.35856 0
M  V30 1892 O 185.997 7.7364 -2.18487 0
M  V30 1893 H 185.729 0.659148 0.149999 0
M  V30 1894 H 188.283 2.0443 -0.199428 0
M  V30 1895 H 186.513 3.29113 2.0303 0
M  V30 1896 H 188.202 3.63932 1.79745 0
M  V30 1897 H 188.968 4.83516 -0.379105 0
M  V30 1898 H 184.847 4.53817 0.810601 0
M  V30 1899 H 188.391 6.72281 -1.86237 0
M  V30 1900 H 184.288 6.42063 -0.665268 0
M  V30 1901 H 185.056 7.90727 -2.11406 0
M  V30 1902 N 187.719 -0.156864 1.56817 0
M  V30 1903 C 188.965 -0.872416 1.83076 0
M  V30 1904 C 189.298 -1.81261 0.697001 0
M  V30 1905 O 188.573 -1.92171 -0.30008 0
M  V30 1906 C 188.856 -1.65551 3.19789 0
M  V30 1907 C 188.709 -0.737467 4.43713 0
M  V30 1908 C 190.028 -2.62012 3.53606 0
M  V30 1909 H 187.147 -0.315715 0.665953 0
M  V30 1910 H 189.789 -0.138004 1.89498 0
M  V30 1911 H 187.939 -2.28159 3.14445 0
M  V30 1912 H 189.611 -0.123143 4.61136 0
M  V30 1913 H 187.854 -0.0464067 4.33775 0
M  V30 1914 H 188.525 -1.32122 5.35955 0
M  V30 1915 H 191.001 -2.09525 3.59497 0
M  V30 1916 H 189.877 -3.13861 4.50314 0
M  V30 1917 H 190.138 -3.42902 2.79053 0
M  V30 1918 N 189.197 -1.51736 -0.425897 0
M  V30 1919 C 190.129 -1.70083 -1.53638 0
M  V30 1920 C 191.142 -0.581349 -1.52066 0
M  V30 1921 O 192.331 -0.856017 -1.56635 0
M  V30 1922 C 189.431 -1.71078 -2.9255 0
M  V30 1923 C 188.604 -2.99795 -3.185 0
M  V30 1924 C 187.663 -2.92825 -4.37196 0
M  V30 1925 O 186.689 -3.66756 -4.35291 0
M  V30 1926 N 187.891 -2.0946 -5.41393 0
M  V30 1927 H 190.656 -2.65882 -1.383 0
M  V30 1928 H 188.217 -1.49765 -0.614988 0
M  V30 1929 H 190.209 -1.63969 -3.69995 0
M  V30 1930 H 188.779 -0.828242 -3.01428 0
M  V30 1931 H 187.999 -3.20684 -2.2925 0
M  V30 1932 H 189.287 -3.84977 -3.32671 0
M  V30 1933 H 188.685 -1.48792 -5.45781 0
M  V30 1934 H 187.242 -2.08221 -6.17647 0
M  V30 1935 N 190.675 0.682077 -1.42076 0
M  V30 1936 C 192.091 0.994324 -1.24841 0
M  V30 1937 C 192.291 2.0096 -0.147389 0
M  V30 1938 O 191.347 2.47822 0.483782 0
M  V30 1939 C 192.66 1.50607 -2.60265 0
M  V30 1940 C 194.208 1.62421 -2.6756 0
M  V30 1941 C 194.683 2.16994 -4.03333 0
M  V30 1942 N 196.174 2.24337 -4.0525 0
M  V30 1943 C 196.909 2.67621 -5.07116 0
M  V30 1944 N 196.405 3.1041 -6.19368 0
M  V30 1945 N 198.198 2.67305 -4.94474 0
M  V30 1946 H 190.349 0.00973908 -2.12398 0
M  V30 1947 H 192.612 0.0668593 -0.945639 0
M  V30 1948 H 192.318 0.834583 -3.41654 0
M  V30 1949 H 192.192 2.48602 -2.83684 0
M  V30 1950 H 194.579 2.28678 -1.86521 0
M  V30 1951 H 194.66 0.629352 -2.47937 0
M  V30 1952 H 194.304 1.51349 -4.84826 0
M  V30 1953 H 194.234 3.17258 -4.20304 0
M  V30 1954 H 196.725 1.94158 -3.24209 0
M  V30 1955 H 197.038 3.42103 -6.92954 0
M  V30 1956 H 195.383 3.08286 -6.22884 0
M  V30 1957 H 198.574 2.33233 -4.05857 0
M  V30 1958 H 198.747 3.00718 -5.73997 0
M  V30 1959 N 192.153 1.28127 0.917671 0
M  V30 1960 C 193.43 1.05761 1.64542 0
M  V30 1961 C 193.81 -0.404344 2.07191 0
M  V30 1962 O 193.158 -1.38963 1.81388 0
M  V30 1963 C 193.368 2.02857 2.83989 0
M  V30 1964 C 194.716 2.32786 3.551 0
M  V30 1965 O 195.74 2.0091 2.94132 0
M  V30 1966 O 194.599 2.87169 4.64969 0
M  V30 1967 H 191.693 0.403916 0.721652 0
M  V30 1968 H 194.239 1.39431 0.967322 0
M  V30 1969 H 193.011 3.01407 2.49538 0
M  V30 1970 H 192.634 1.69809 3.59514 0
M  V30 1971 N 193.631 -1.12557 1.10312 0
M  V30 1972 C 194.561 -2.20341 0.772798 0
M  V30 1973 C 195.542 -1.68198 -0.25365 0
M  V30 1974 O 196.727 -1.93831 -0.119699 0
M  V30 1975 C 193.857 -3.46709 0.202443 0
M  V30 1976 C 192.811 -4.11996 1.15943 0
M  V30 1977 C 192.137 -5.328 0.450345 0
M  V30 1978 C 193.437 -4.5828 2.50552 0
M  V30 1979 H 195.131 -2.48229 1.674 0
M  V30 1980 H 192.677 -1.19308 0.806326 0
M  V30 1981 H 194.63 -4.2138 -0.0407752 0
M  V30 1982 H 193.354 -3.18245 -0.734001 0
M  V30 1983 H 192.013 -3.39305 1.38808 0
M  V30 1984 H 191.661 -5.00602 -0.490531 0
M  V30 1985 H 191.361 -5.7743 1.08851 0
M  V30 1986 H 192.885 -6.10219 0.215642 0
M  V30 1987 H 194.299 -5.2433 2.31843 0
M  V30 1988 H 192.696 -5.13683 3.10242 0
M  V30 1989 H 193.766 -3.72329 3.10643 0
M  V30 1990 N 195.109 -0.891671 -1.2995 0
M  V30 1991 C 196.355 -0.514261 -1.96171 0
M  V30 1992 C 196.688 0.935506 -1.70182 0
M  V30 1993 O 195.963 1.66204 -1.01028 0
M  V30 1994 C 196.246 -0.797719 -3.51153 0
M  V30 1995 C 196.099 -2.2986 -3.86632 0
M  V30 1996 C 197.418 -0.278749 -4.39216 0
M  V30 1997 H 194.537 -0.188314 -0.712535 0
M  V30 1998 H 197.179 -1.11689 -1.53706 0
M  V30 1999 H 195.329 -0.284826 -3.87455 0
M  V30 2000 H 197.001 -2.88042 -3.60319 0
M  V30 2001 H 195.244 -2.76257 -3.34462 0
M  V30 2002 H 195.915 -2.44753 -4.94773 0
M  V30 2003 H 198.391 -0.717825 -4.09862 0
M  V30 2004 H 197.267 -0.506353 -5.46559 0
M  V30 2005 H 197.528 0.820266 -4.34424 0
M  V30 2006 N 196.587 1.43421 -0.653314 0
M  V30 2007 C 197.519 2.29071 0.0769134 0
M  V30 2008 C 198.532 1.42513 0.787017 0
M  V30 2009 O 199.721 1.66449 0.644757 0
M  V30 2010 C 196.821 3.19436 1.13199 0
M  V30 2011 C 195.994 4.34533 0.500006 0
M  V30 2012 C 195.053 5.05771 1.45198 0
M  V30 2013 O 194.079 5.61037 0.960538 0
M  V30 2014 N 195.281 5.0928 2.78594 0
M  V30 2015 H 198.046 2.92382 -0.658235 0
M  V30 2016 H 195.607 1.54112 -0.496104 0
M  V30 2017 H 197.599 3.63958 1.76964 0
M  V30 2018 H 196.169 2.57724 1.7691 0
M  V30 2019 H 195.389 3.92925 -0.316738 0
M  V30 2020 H 196.677 5.08766 0.0588345 0
M  V30 2021 H 196.075 4.65751 3.2108 0
M  V30 2022 H 194.632 5.57519 3.37662 0
M  V30 2023 N 198.065 0.39524 1.52563 0
M  V30 2024 C 199.29 -0.187456 2.06551 0
M  V30 2025 C 199.715 -1.39249 1.26457 0
M  V30 2026 O 199.073 -1.78947 0.291151 0
M  V30 2027 C 199.121 -0.529985 3.56684 0
M  V30 2028 O 198.225 -1.62307 3.79118 0
M  V30 2029 H 197.566 -0.0202537 0.663691 0
M  V30 2030 H 200.096 0.564426 1.96661 0
M  V30 2031 H 200.106 -0.792598 4.00227 0
M  V30 2032 H 198.781 0.350987 4.14416 0
M  V30 2033 H 197.358 -1.3537 3.47461 0
M  V30 2034 N 199.544 -1.57102 0.125237 0
M  V30 2035 C 200.79 -1.95697 -0.532035 0
M  V30 2036 C 201.123 -1.009 -1.6593 0
M  V30 2037 O 200.398 -0.047347 -1.94442 0
M  V30 2038 C 200.681 -3.44181 -1.05884 0
M  V30 2039 C 200.534 -4.49752 0.0654392 0
M  V30 2040 C 201.853 -3.94655 -1.9477 0
M  V30 2041 H 198.972 -0.711571 -0.191925 0
M  V30 2042 H 201.614 -1.88923 0.20206 0
M  V30 2043 H 199.764 -3.50085 -1.68442 0
M  V30 2044 H 201.436 -4.55943 0.700982 0
M  V30 2045 H 199.679 -4.27653 0.727709 0
M  V30 2046 H 200.35 -5.50924 -0.344505 0
M  V30 2047 H 202.826 -3.91094 -1.42074 0
M  V30 2048 H 201.702 -4.99057 -2.28546 0
M  V30 2049 H 201.963 -3.35718 -2.87656 0
M  V30 2050 N 201.022 0.148545 -1.56898 0
M  V30 2051 C 202.252 0.875118 -1.8715 0
M  V30 2052 C 202.66 1.75322 -0.711262 0
M  V30 2053 O 202.003 1.80745 0.328151 0
M  V30 2054 C 202.065 1.7844 -3.12089 0
M  V30 2055 C 201.729 1.08361 -4.43967 0
M  V30 2056 C 202.726 0.438247 -5.1805 0
M  V30 2057 C 200.411 1.07358 -4.90693 0
M  V30 2058 C 202.405 -0.20779 -6.37061 0
M  V30 2059 C 200.092 0.42373 -6.09629 0
M  V30 2060 C 201.09 -0.215829 -6.82659 0
M  V30 2061 O 200.778 -0.855378 -7.99336 0
M  V30 2062 H 200.51 0.258504 -0.624621 0
M  V30 2063 H 203.064 0.14652 -2.04877 0
M  V30 2064 H 201.294 2.55389 -2.90367 0
M  V30 2065 H 202.983 2.38279 -3.286 0
M  V30 2066 H 203.749 0.437817 -4.8302 0
M  V30 2067 H 199.628 1.5608 -4.33774 0
M  V30 2068 H 203.172 -0.70758 -6.94002 0
M  V30 2069 H 199.069 0.421822 -6.4412 0
M  V30 2070 H 199.837 -0.756892 -8.14993 0
M  V30 2071 N 202.5 1.5196 0.417844 0
M  V30 2072 C 203.463 1.74065 1.49111 0
M  V30 2073 C 204.463 0.610537 1.48758 0
M  V30 2074 O 205.653 0.87832 1.50437 0
M  V30 2075 C 202.785 1.81502 2.88565 0
M  V30 2076 H 203.978 2.69869 1.30807 0
M  V30 2077 H 201.531 1.42244 0.647785 0
M  V30 2078 H 202.266 0.875813 3.1225 0
M  V30 2079 H 202.051 2.63651 2.90225 0
M  V30 2080 H 203.541 2.00376 3.66387 0
M  V30 2081 N 203.978 -0.674533 1.42435 0
M  V30 2082 C 204.888 -1.81751 1.48337 0
M  V30 2083 C 205.904 -1.69975 0.372099 0
M  V30 2084 O 207.08 -1.91521 0.62304 0
M  V30 2085 C 204.145 -3.17895 1.38361 0
M  V30 2086 C 203.206 -3.41625 2.59982 0
M  V30 2087 C 202.439 -4.71274 2.50473 0
M  V30 2088 O 202.662 -5.49197 1.54075 0
M  V30 2089 O 201.596 -4.96254 3.4061 0
M  V30 2090 H 205.422 -1.79728 2.44809 0
M  V30 2091 H 203.007 -0.830312 1.24202 0
M  V30 2092 H 204.889 -3.99136 1.35161 0
M  V30 2093 H 203.564 -3.20555 0.450144 0
M  V30 2094 H 202.471 -2.60231 2.68757 0
M  V30 2095 H 203.804 -3.43796 3.52229 0
M  V30 2096 N 205.456 -1.28612 -0.910864 0
M  V30 2097 C 206.386 -1.15326 -2.03032 0
M  V30 2098 C 207.367 -0.0502924 -1.70026 0
M  V30 2099 O 208.552 -0.227797 -1.92859 0
M  V30 2100 C 205.682 -0.817343 -3.37545 0
M  V30 2101 C 204.636 -1.8754 -3.84724 0
M  V30 2102 C 203.962 -1.39305 -5.16235 0
M  V30 2103 C 205.262 -3.28244 -4.06267 0
M  V30 2104 H 206.956 -2.08975 -2.14406 0
M  V30 2105 H 204.502 -1.00612 -1.03021 0
M  V30 2106 H 206.455 -0.711151 -4.15356 0
M  V30 2107 H 205.179 0.154846 -3.26233 0
M  V30 2108 H 203.838 -1.97079 -3.09121 0
M  V30 2109 H 203.486 -0.409846 -5.01328 0
M  V30 2110 H 203.186 -2.10057 -5.48771 0
M  V30 2111 H 204.71 -1.30014 -5.96598 0
M  V30 2112 H 206.124 -3.21611 -4.74594 0
M  V30 2113 H 204.521 -3.96855 -4.5014 0
M  V30 2114 H 205.591 -3.72048 -3.10979 0
M  V30 2115 N 206.934 1.1197 -1.10907 0
M  V30 2116 C 207.882 2.19927 -0.757303 0
M  V30 2117 C 208.876 1.67564 0.248747 0
M  V30 2118 O 210.082 1.79672 0.108605 0
M  V30 2119 H 206.457 0.716925 -0.226987 0
M  V30 2120 H 208.428 2.46847 -1.67658 0
M  V30 2121 C 207.177 3.47061 -0.210671 0
M  V30 2122 H 206.5 3.87703 -0.976049 0
M  V30 2123 H 207.94 4.24 -0.0026584 0
M  V30 2124 C 206.399 3.19864 1.05777 0
M  V30 2125 O 206.929 3.40049 2.13845 0
M  V30 2126 N 205.135 2.73636 0.978349 0
M  V30 2127 H 204.682 2.5741 0.0988246 0
M  V30 2128 H 204.64 2.55815 1.82773 0
M  V30 2129 N 208.412 0.89855 1.29475 0
M  V30 2130 C 209.637 0.538561 2.00285 0
M  V30 2131 C 210.062 -0.869135 1.66816 0
M  V30 2132 O 209.42 -1.57831 0.892145 0
M  V30 2133 C 209.468 0.736475 3.52999 0
M  V30 2134 O 208.572 -0.211537 4.11857 0
M  V30 2135 H 207.913 0.210563 0.62973 0
M  V30 2136 H 210.443 1.20982 1.64998 0
M  V30 2137 H 210.453 0.640685 4.02938 0
M  V30 2138 H 209.128 1.76276 3.76696 0
M  V30 2139 H 207.705 -0.0682991 3.72837 0
M  V30 2140 N 209.89 -1.43072 0.660911 0
M  V30 2141 C 211.306 -1.56169 0.329173 0
M  V30 2142 C 211.506 -1.64317 -1.16629 0
M  V30 2143 O 210.562 -1.60245 -1.95135 0
M  V30 2144 C 211.875 -2.81873 1.04729 0
M  V30 2145 C 213.423 -2.95627 1.02828 0
M  V30 2146 C 213.898 -4.24174 1.72744 0
M  V30 2147 N 215.389 -4.31055 1.69545 0
M  V30 2148 C 216.124 -5.29304 2.20511 0
M  V30 2149 N 215.62 -6.33786 2.79799 0
M  V30 2150 N 217.413 -5.21008 2.10966 0
M  V30 2151 H 209.564 -1.36027 1.63127 0
M  V30 2152 H 211.827 -0.653823 0.686454 0
M  V30 2153 H 211.533 -2.81942 2.10242 0
M  V30 2154 H 211.407 -3.72338 0.603702 0
M  V30 2155 H 213.794 -2.95094 -0.0184742 0
M  V30 2156 H 213.875 -2.06431 1.51063 0
M  V30 2157 H 213.519 -4.25467 2.7738 0
M  V30 2158 H 213.449 -5.1228 1.2197 0
M  V30 2159 H 215.94 -3.56174 1.26288 0
M  V30 2160 H 216.253 -7.05086 3.16344 0
M  V30 2161 H 214.598 -6.34387 2.83863 0
M  V30 2162 H 217.789 -4.38301 1.64347 0
M  V30 2163 H 217.962 -5.97416 2.50993 0
M  V30 2164 N 211.368 -0.403325 -1.52352 0
M  V30 2165 C 212.616 0.174003 -2.0135 0
M  V30 2166 C 212.937 1.46139 -1.29106 0
M  V30 2167 O 212.207 1.91448 -0.415253 0
M  V30 2168 H 210.787 0.0672911 -0.743963 0
M  V30 2169 H 213.449 -0.538235 -1.87321 0
M  V30 2170 H 212.545 0.374254 -3.09848 0
M  V30 2171 N 212.846 1.57033 -0.133567 0
M  V30 2172 C 214.262 1.58035 0.222944 0
M  V30 2173 C 214.462 1.14713 1.6566 0
M  V30 2174 O 213.518 0.841218 2.38075 0
M  V30 2175 C 214.831 3.00691 -0.0236116 0
M  V30 2176 C 216.379 3.12973 0.0411512 0
M  V30 2177 C 216.854 4.57654 -0.177899 0
M  V30 2178 N 218.345 4.63033 -0.124365 0
M  V30 2179 C 219.08 5.72771 -0.268553 0
M  V30 2180 N 218.576 6.91206 -0.46972 0
M  V30 2181 N 220.369 5.61718 -0.2071 0
M  V30 2182 H 212.52 1.8349 -1.06981 0
M  V30 2183 H 214.783 0.848677 -0.422436 0
M  V30 2184 H 214.489 3.36726 -1.0153 0
M  V30 2185 H 214.363 3.70614 0.701808 0
M  V30 2186 H 216.75 2.76787 1.02338 0
M  V30 2187 H 216.831 2.45564 -0.716383 0
M  V30 2188 H 216.475 4.94542 -1.15717 0
M  V30 2189 H 216.405 5.23173 0.599797 0
M  V30 2190 H 218.896 3.7789 0.027011 0
M  V30 2191 H 219.209 7.70693 -0.570212 0
M  V30 2192 H 217.554 6.93156 -0.505876 0
M  V30 2193 H 220.745 4.68072 -0.0507986 0
M  V30 2194 H 220.918 6.47195 -0.322909 0
M  V30 2195 N 214.325 -0.140222 1.56975 0
M  V30 2196 C 215.255 -1.17456 2.01808 0
M  V30 2197 C 216.236 -1.44415 0.898794 0
M  V30 2198 O 217.421 -1.5522 1.16707 0
M  V30 2199 C 214.551 -2.50607 2.40444 0
M  V30 2200 C 213.505 -2.38155 3.55621 0
M  V30 2201 C 212.831 -3.76078 3.80091 0
M  V30 2202 C 214.131 -1.85991 4.88062 0
M  V30 2203 H 215.825 -0.801743 2.88466 0
M  V30 2204 H 213.371 -0.38422 1.38779 0
M  V30 2205 H 215.324 -3.23197 2.7041 0
M  V30 2206 H 214.048 -2.89737 1.50732 0
M  V30 2207 H 212.707 -1.68016 3.25832 0
M  V30 2208 H 212.355 -4.12656 2.87618 0
M  V30 2209 H 212.055 -3.68606 4.57606 0
M  V30 2210 H 213.579 -4.50206 4.12488 0
M  V30 2211 H 214.993 -2.4838 5.16701 0
M  V30 2212 H 213.39 -1.89393 5.6943 0
M  V30 2213 H 214.46 -0.816023 4.77984 0
M  V30 2214 N 215.803 -1.52179 -0.40978 0
M  V30 2215 C 216.733 -1.78435 -1.5061 0
M  V30 2216 C 217.714 -0.635295 -1.57791 0
M  V30 2217 O 218.899 -0.880823 -1.73076 0
M  V30 2218 C 216.029 -1.93444 -2.88439 0
M  V30 2219 C 214.983 -3.09038 -2.96108 0
M  V30 2220 C 214.309 -3.09268 -4.36185 0
M  V30 2221 C 215.609 -4.48508 -2.67652 0
M  V30 2222 H 217.303 -2.70237 -1.28889 0
M  V30 2223 H 214.849 -1.30036 -0.618605 0
M  V30 2224 H 216.802 -2.10394 -3.65119 0
M  V30 2225 H 215.526 -0.983129 -3.11452 0
M  V30 2226 H 214.185 -2.91837 -2.21872 0
M  V30 2227 H 213.833 -2.11861 -4.56206 0
M  V30 2228 H 213.533 -3.86907 -4.42241 0
M  V30 2229 H 215.057 -3.28348 -5.14801 0
M  V30 2230 H 216.471 -4.65918 -3.34056 0
M  V30 2231 H 214.868 -5.28059 -2.85085 0
M  V30 2232 H 215.938 -4.56649 -1.63095 0
M  V30 2233 N 217.281 0.66697 -1.42791 0
M  V30 2234 C 218.528 1.42699 -1.43678 0
M  V30 2235 C 218.856 1.94419 -0.0560425 0
M  V30 2236 O 218.111 1.7182 0.936831 0
M  V30 2237 C 218.41 2.6349 -2.4147 0
M  V30 2238 C 218.076 2.30267 -3.8767 0
M  V30 2239 C 216.738 2.20918 -4.27491 0
M  V30 2240 C 219.09 2.03435 -4.79858 0
M  V30 2241 C 216.418 1.82873 -5.57471 0
M  V30 2242 C 218.77 1.66892 -6.10188 0
M  V30 2243 C 217.434 1.56058 -6.49001 0
M  V30 2244 H 216.704 0.522171 -0.525755 0
M  V30 2245 H 219.351 0.759785 -1.75783 0
M  V30 2246 H 217.656 3.35279 -2.0272 0
M  V30 2247 H 219.353 3.21684 -2.39417 0
M  V30 2248 H 215.943 2.38449 -3.56146 0
M  V30 2249 H 220.127 2.09586 -4.49875 0
M  V30 2250 H 215.383 1.7306 -5.86396 0
M  V30 2251 H 219.557 1.45157 -6.81104 0
M  V30 2252 H 217.184 1.26348 -7.49627 0
M  V30 2253 N 218.759 1.29093 0.90403 0
M  V30 2254 C 219.692 1.08176 2.00931 0
M  V30 2255 C 220.67 -0.005083 1.62599 0
M  V30 2256 O 221.854 0.144765 1.87943 0
M  V30 2257 C 218.981 0.645897 3.32484 0
M  V30 2258 C 218.027 1.73081 3.89801 0
M  V30 2259 S 218.86 3.32905 4.19446 0
M  V30 2260 C 220.016 2.91176 5.54046 0
M  V30 2261 H 220.249 2.01752 2.18365 0
M  V30 2262 H 217.782 1.13191 1.0501 0
M  V30 2263 H 219.74 0.401131 4.08535 0
M  V30 2264 H 218.401 -0.270188 3.12936 0
M  V30 2265 H 217.594 1.37768 4.84805 0
M  V30 2266 H 217.196 1.92888 3.20422 0
M  V30 2267 H 219.488 2.37952 6.34338 0
M  V30 2268 H 220.431 3.85014 5.94281 0
M  V30 2269 H 220.839 2.296 5.15698 0
M  V30 2270 N 220.237 -1.11381 1.11499 0
M  V30 2271 C 221.2 -2.15622 0.777153 0
M  V30 2272 C 222.2 -1.59504 -0.203779 0
M  V30 2273 O 223.39 -1.74188 0.020782 0
M  V30 2274 C 220.522 -3.40556 0.153116 0
M  V30 2275 H 221.715 -2.47021 1.70061 0
M  V30 2276 H 219.268 -1.26577 0.916952 0
M  V30 2277 H 220.003 -3.14767 -0.780536 0
M  V30 2278 H 219.788 -3.8257 0.859238 0
M  V30 2279 H 221.278 -4.17546 -0.0671044 0
M  V30 2280 N 221.715 -0.905404 -1.28997 0
M  V30 2281 C 222.94 -0.549175 -1.99997 0
M  V30 2282 C 223.365 0.860276 -1.67275 0
M  V30 2283 O 222.723 1.57355 -0.900502 0
M  V30 2284 C 222.771 -0.755185 -3.52604 0
M  V30 2285 O 221.875 0.189692 -4.11964 0
M  V30 2286 H 221.216 -0.213899 -0.628604 0
M  V30 2287 H 223.746 -1.21856 -1.64354 0
M  V30 2288 H 223.756 -0.662045 -4.02593 0
M  V30 2289 H 222.431 -1.78271 -3.75755 0
M  V30 2290 H 221.008 0.0485257 -3.72868 0
M  V30 2291 N 223.193 1.4272 -0.668489 0
M  V30 2292 C 224.143 2.27971 0.0363806 0
M  V30 2293 C 225.127 1.40741 0.779794 0
M  V30 2294 O 226.319 1.64245 0.659745 0
M  V30 2295 C 223.448 3.28673 0.991398 0
M  V30 2296 C 222.534 4.23388 0.245658 0
M  V30 2297 N 222.925 5.00267 -0.746069 0
M  V30 2298 C 221.223 4.43355 0.484988 0
M  V30 2299 C 221.924 5.69396 -1.19009 0
M  V30 2300 N 220.9 5.41095 -0.521287 0
M  V30 2301 H 224.702 2.84833 -0.724394 0
M  V30 2302 H 222.216 1.54607 -0.497028 0
M  V30 2303 H 224.213 3.88543 1.51129 0
M  V30 2304 H 222.873 2.73373 1.75207 0
M  V30 2305 H 223.884 5.05525 -1.12537 0
M  V30 2306 H 220.561 3.99104 1.22565 0
M  V30 2307 H 221.951 6.41083 -2.01153 0
M  V30 2308 N 224.671 0.411399 1.52136 0
M  V30 2309 C 226.082 -0.0576826 1.86611 0
M  V30 2310 C 226.433 -1.44238 1.33003 0
M  V30 2311 O 225.558 -2.05759 0.670228 0
M  V30 2312 C 226.153 -0.111448 3.38617 0
M  V30 2313 C 224.712 -0.52487 3.72723 0
M  V30 2314 C 223.859 0.299176 2.75681 0
M  V30 2315 H 226.81 0.628368 1.4573 0
M  V30 2316 H 226.831 -0.926252 3.69054 0
M  V30 2317 H 226.343 0.896488 3.77604 0
M  V30 2318 H 224.444 -1.53936 3.39315 0
M  V30 2319 H 224.557 -0.267681 4.78352 0
M  V30 2320 H 222.921 -0.238814 2.53578 0
M  V30 2321 H 223.704 1.3055 3.17508 0
M  V30 2322 N 226.149 -1.5696 0.141893 0
M  V30 2323 C 227.059 -2.20066 -0.812905 0
M  V30 2324 C 228.075 -1.18344 -1.27557 0
M  V30 2325 O 229.251 -1.50902 -1.33381 0
M  V30 2326 C 226.316 -2.80583 -2.03652 0
M  V30 2327 C 225.377 -3.97414 -1.62359 0
M  V30 2328 C 224.61 -4.55036 -2.78887 0
M  V30 2329 O 224.833 -4.11538 -3.94959 0
M  V30 2330 O 223.767 -5.45376 -2.54653 0
M  V30 2331 H 227.593 -3.02157 -0.305746 0
M  V30 2332 H 225.178 -1.49159 -0.0848799 0
M  V30 2333 H 227.06 -3.19067 -2.75272 0
M  V30 2334 H 225.735 -2.01508 -2.5333 0
M  V30 2335 H 224.642 -3.63656 -0.877775 0
M  V30 2336 H 225.975 -4.77994 -1.17401 0
M  V30 2337 N 227.627 0.131896 -1.57047 0
M  V30 2338 C 229.043 0.485031 -1.52051 0
M  V30 2339 C 229.243 1.82563 -0.85281 0
M  V30 2340 O 228.299 2.48817 -0.429694 0
M  V30 2341 C 229.612 0.481409 -2.96821 0
M  V30 2342 C 231.16 0.565868 -3.07842 0
M  V30 2343 C 231.635 0.592762 -4.54148 0
M  V30 2344 N 233.126 0.654564 -4.58552 0
M  V30 2345 C 233.861 0.696608 -5.69153 0
M  V30 2346 N 233.357 0.697078 -6.89284 0
M  V30 2347 N 235.15 0.738639 -5.57226 0
M  V30 2348 H 227.301 -0.746664 -1.98843 0
M  V30 2349 H 229.564 -0.273999 -0.90754 0
M  V30 2350 H 229.27 -0.435731 -3.4899 0
M  V30 2351 H 229.144 1.3139 -3.53577 0
M  V30 2352 H 231.531 1.47343 -2.55684 0
M  V30 2353 H 231.612 -0.29406 -2.54104 0
M  V30 2354 H 231.256 -0.310701 -5.06949 0
M  V30 2355 H 231.186 1.46939 -5.05684 0
M  V30 2356 H 233.677 0.660887 -3.72076 0
M  V30 2357 H 233.99 0.731426 -7.69331 0
M  V30 2358 H 232.335 0.66471 -6.91814 0
M  V30 2359 H 235.526 0.735545 -4.62285 0
M  V30 2360 H 235.699 0.767938 -6.43434 0
M  V30 2361 N 229.106 1.52395 0.401703 0
M  V30 2362 C 230.353 1.66817 1.14796 0
M  V30 2363 C 230.681 0.401772 1.90305 0
M  V30 2364 O 229.936 -0.615487 1.85769 0
M  V30 2365 C 230.235 2.84578 2.16217 0
M  V30 2366 C 229.901 4.22513 1.5746 0
M  V30 2367 C 228.563 4.60029 1.41161 0
M  V30 2368 C 230.915 5.0844 1.14622 0
M  V30 2369 C 228.243 5.81144 0.80552 0
M  V30 2370 C 230.595 6.30167 0.55428 0
M  V30 2371 C 229.259 6.66426 0.378482 0
M  V30 2372 H 228.529 0.610428 0.420069 0
M  V30 2373 H 231.176 1.86512 0.434212 0
M  V30 2374 H 229.481 2.59248 2.93764 0
M  V30 2375 H 231.178 2.92933 2.73845 0
M  V30 2376 H 227.768 3.92953 1.71132 0
M  V30 2377 H 231.952 4.80034 1.26021 0
M  V30 2378 H 227.208 6.07855 0.657399 0
M  V30 2379 H 231.382 6.96071 0.213983 0
M  V30 2380 H 229.009 7.60143 -0.0932606 0
M  V30 2381 N 230.584 -0.659388 1.43143 0
M  V30 2382 C 231.547 -1.75432 1.47501 0
M  V30 2383 C 232.547 -1.56707 0.360512 0
M  V30 2384 O 233.737 -1.62717 0.622002 0
M  V30 2385 C 230.869 -3.14239 1.32162 0
M  V30 2386 H 232.062 -1.7295 2.45006 0
M  V30 2387 H 229.615 -0.870469 1.29817 0
M  V30 2388 H 230.35 -3.22336 0.356401 0
M  V30 2389 H 230.135 -3.29235 2.12948 0
M  V30 2390 H 231.625 -3.94094 1.3813 0
M  V30 2391 N 232.062 -1.29571 -0.897171 0
M  V30 2392 C 233.339 -1.08365 -1.62839 0
M  V30 2393 C 233.719 0.371331 -2.07808 0
M  V30 2394 O 233.067 1.3606 -1.83576 0
M  V30 2395 C 233.277 -2.0735 -2.80726 0
M  V30 2396 C 234.625 -2.38406 -3.51351 0
M  V30 2397 O 235.649 -2.05564 -2.90898 0
M  V30 2398 O 234.508 -2.9453 -4.60341 0
M  V30 2399 H 231.602 -0.415345 -0.715134 0
M  V30 2400 H 234.148 -1.40952 -0.945018 0
M  V30 2401 H 232.92 -3.05339 -2.44711 0
M  V30 2402 H 232.543 -1.75507 -3.56767 0
M  V30 2403 N 233.54 1.10788 -1.12088 0
M  V30 2404 C 234.503 2.15207 -0.788577 0
M  V30 2405 C 235.503 1.59609 0.195317 0
M  V30 2406 O 236.693 1.74174 -0.0300193 0
M  V30 2407 C 233.825 3.4047 -0.171174 0
M  V30 2408 H 235.018 2.46116 -1.71368 0
M  V30 2409 H 232.571 1.26089 -0.923652 0
M  V30 2410 H 233.306 3.15176 0.763832 0
M  V30 2411 H 233.091 3.82109 -0.879514 0
M  V30 2412 H 234.581 4.17576 0.04496 0
M  V30 2413 N 235.018 0.912232 1.28515 0
M  V30 2414 C 236.264 0.545405 1.95328 0
M  V30 2415 C 236.597 -0.908313 1.71649 0
M  V30 2416 O 235.872 -1.64575 1.03659 0
M  V30 2417 C 236.155 0.853483 3.4984 0
M  V30 2418 C 236.008 2.35982 3.82926 0
M  V30 2419 C 237.327 0.348589 4.38717 0
M  V30 2420 H 234.446 0.199626 0.709449 0
M  V30 2421 H 237.088 1.1412 1.5191 0
M  V30 2422 H 235.238 0.34643 3.86952 0
M  V30 2423 H 236.91 2.93738 3.55691 0
M  V30 2424 H 235.153 2.81543 3.30024 0
M  V30 2425 H 235.824 2.52593 4.90816 0
M  V30 2426 H 238.3 0.78294 4.08668 0
M  V30 2427 H 237.176 0.593242 5.45685 0
M  V30 2428 H 237.437 -0.751049 4.35674 0
M  V30 2429 N 236.496 -1.42363 0.676048 0
M  V30 2430 C 237.742 -2.0182 0.199125 0
M  V30 2431 C 238.075 -1.53339 -1.19168 0
M  V30 2432 O 237.35 -0.736124 -1.80032 0
M  V30 2433 C 237.633 -3.59331 0.235144 0
M  V30 2434 C 237.486 -4.17989 1.66149 0
M  V30 2435 C 238.805 -4.3813 -0.41595 0
M  V30 2436 H 235.924 -0.733293 0.0738311 0
M  V30 2437 H 238.566 -1.69368 0.86107 0
M  V30 2438 H 236.716 -3.87109 -0.328487 0
M  V30 2439 H 238.388 -4.0116 2.27747 0
M  V30 2440 H 236.631 -3.7377 2.20178 0
M  V30 2441 H 237.302 -5.27126 1.63837 0
M  V30 2442 H 239.778 -4.16051 0.0638529 0
M  V30 2443 H 238.654 -5.47717 -0.360115 0
M  V30 2444 H 238.915 -4.16101 -1.49373 0
M  V30 2445 N 237.974 -0.419461 -1.51915 0
M  V30 2446 C 239.22 0.153166 -2.02221 0
M  V30 2447 C 239.553 1.43907 -1.30401 0
M  V30 2448 O 238.828 1.90055 -0.413438 0
M  V30 2449 C 239.111 0.390291 -3.57979 0
M  V30 2450 C 238.964 -0.913014 -4.40436 0
M  V30 2451 C 240.283 1.16794 -4.2432 0
M  V30 2452 H 237.402 0.0541924 -0.735005 0
M  V30 2453 H 240.044 -0.554955 -1.81715 0
M  V30 2454 H 238.194 0.993491 -3.75582 0
M  V30 2455 H 239.866 -1.54882 -4.34522 0
M  V30 2456 H 238.109 -1.52168 -4.06236 0
M  V30 2457 H 238.78 -0.701361 -5.47526 0
M  V30 2458 H 241.256 0.657161 -4.10878 0
M  V30 2459 H 240.132 1.3026 -5.3322 0
M  V30 2460 H 240.393 2.19132 -3.83971 0
M  V30 2461 N 239.452 1.56882 -0.150215 0
M  V30 2462 C 240.362 2.20494 0.801222 0
M  V30 2463 C 241.378 1.19019 1.26927 0
M  V30 2464 O 242.554 1.51607 1.32579 0
M  V30 2465 C 239.619 2.81659 2.02161 0
M  V30 2466 C 238.68 3.9827 1.60249 0
M  V30 2467 C 237.913 4.56508 2.7647 0
M  V30 2468 O 238.136 4.13627 3.92771 0
M  V30 2469 O 237.07 5.46719 2.51757 0
M  V30 2470 H 240.896 3.02315 0.289717 0
M  V30 2471 H 238.481 1.49202 0.0769684 0
M  V30 2472 H 240.363 3.20522 2.73576 0
M  V30 2473 H 239.038 2.02849 2.52258 0
M  V30 2474 H 237.945 3.64117 0.858477 0
M  V30 2475 H 239.278 4.78609 1.14864 0
M  V30 2476 N 240.93 -0.123565 1.57115 0
M  V30 2477 C 242.179 -0.830704 1.83799 0
M  V30 2478 C 242.492 -1.81259 0.735158 0
M  V30 2479 O 243.698 -2.56558 0.888278 0
M  V30 2480 C 242.154 -1.52802 3.25852 0
M  V30 2481 C 241.762 -0.587356 4.44133 0
M  V30 2482 C 243.506 -2.22056 3.61789 0
M  V30 2483 C 241.413 -1.28764 5.77212 0
M  V30 2484 H 240.343 -0.313967 0.685522 0
M  V30 2485 H 242.994 -0.0834359 1.8331 0
M  V30 2486 H 241.376 -2.32175 3.20797 0
M  V30 2487 H 242.55 0.172829 4.60476 0
M  V30 2488 H 240.865 -0.00201892 4.164 0
M  V30 2489 H 243.462 -2.75131 4.58483 0
M  V30 2490 H 243.805 -2.99644 2.88997 0
M  V30 2491 H 244.338 -1.49576 3.68608 0
M  V30 2492 H 241.077 -0.55314 6.53162 0
M  V30 2493 H 240.597 -2.01995 5.64764 0
M  V30 2494 H 242.276 -1.8221 6.20813 0
M  V30 2495 N 242.408 -1.52605 -0.393616 0
M  V30 2496 C 243.654 -1.67672 -1.14079 0
M  V30 2497 C 243.987 -0.413121 -1.89755 0
M  V30 2498 O 243.262 0.588952 -1.85369 0
M  V30 2499 C 243.545 -2.9088 -2.12276 0
M  V30 2500 C 243.398 -4.27329 -1.40394 0
M  V30 2501 C 244.717 -3.09628 -3.12759 0
M  V30 2502 H 241.836 -0.610168 -0.413356 0
M  V30 2503 H 244.478 -1.85193 -0.424696 0
M  V30 2504 H 242.628 -2.76073 -2.73342 0
M  V30 2505 H 244.3 -4.53894 -0.82327 0
M  V30 2506 H 242.543 -4.2802 -0.705801 0
M  V30 2507 H 243.214 -5.09615 -2.12123 0
M  V30 2508 H 245.69 -3.23436 -2.61779 0
M  V30 2509 H 244.566 -3.97322 -3.78717 0
M  V30 2510 H 244.827 -2.23637 -3.81365 0
M  V30 2511 N 243.887 0.651787 -1.4349 0
M  V30 2512 C 245.135 1.40888 -1.44897 0
M  V30 2513 C 245.456 1.94856 -0.0749086 0
M  V30 2514 O 244.726 1.74518 0.889956 0
M  V30 2515 H 243.306 0.522887 -0.533478 0
M  V30 2516 H 245.968 0.768609 -1.79104 0
M  V30 2517 H 245.064 2.25052 -2.16236 0
M  V30 2518 N 245.365 1.30045 0.890287 0
M  V30 2519 C 246.595 1.21296 1.67245 0
M  V30 2520 C 247.003 -0.227471 1.87828 0
M  V30 2521 O 246.346 -1.16296 1.422 0
M  V30 2522 C 246.408 1.86519 3.07329 0
M  V30 2523 C 246.072 3.35837 3.09939 0
M  V30 2524 C 247.069 4.31915 2.89389 0
M  V30 2525 C 244.754 3.77196 3.31706 0
M  V30 2526 C 246.748 5.67325 2.90552 0
M  V30 2527 C 244.435 5.12725 3.32499 0
M  V30 2528 C 245.433 6.076 3.11947 0
M  V30 2529 O 245.121 7.40655 3.12547 0
M  V30 2530 H 244.853 0.4211 0.528821 0
M  V30 2531 H 247.407 1.72111 1.12103 0
M  V30 2532 H 245.637 1.30228 3.64112 0
M  V30 2533 H 247.326 1.71963 3.67673 0
M  V30 2534 H 248.092 4.01294 2.72375 0
M  V30 2535 H 243.971 3.03796 3.4674 0
M  V30 2536 H 247.515 6.41354 2.74429 0
M  V30 2537 H 243.412 5.42988 3.49047 0
M  V30 2538 H 244.18 7.49577 3.28749 0
M  V30 2539 N 246.843 -1.10192 1.12674 0
M  V30 2540 C 248.068 -1.86523 0.906853 0
M  V30 2541 C 248.493 -1.80221 -0.538711 0
M  V30 2542 O 247.851 -1.17396 -1.38158 0
M  V30 2543 C 247.899 -3.32758 1.3894 0
M  V30 2544 O 247.003 -4.08449 0.5695 0
M  V30 2545 H 246.344 -0.578678 0.325619 0
M  V30 2546 H 248.874 -1.39203 1.49946 0
M  V30 2547 H 248.884 -3.83608 1.38958 0
M  V30 2548 H 247.559 -3.36661 2.44197 0
M  V30 2549 H 246.136 -3.67427 0.636528 0
M  V30 2550 N 248.321 -0.919034 -1.28029 0
M  V30 2551 C 249.598 -0.473668 -1.89778 0
M  V30 2552 C 249.978 1.04783 -1.83259 0
M  V30 2553 O 249.326 1.8982 -1.27202 0
M  V30 2554 C 249.536 -1.00998 -3.34066 0
M  V30 2555 C 250.884 -1.06525 -4.1102 0
M  V30 2556 O 251.908 -0.958996 -3.43048 0
M  V30 2557 O 250.767 -1.22776 -5.3253 0
M  V30 2558 H 247.861 -0.15098 -0.813101 0
M  V30 2559 H 250.407 -1.01016 -1.36359 0
M  V30 2560 H 249.179 -2.05392 -3.33061 0
M  V30 2561 H 248.802 -0.454626 -3.94992 0
M  V30 2562 N 249.799 1.42003 -0.683588 0
M  V30 2563 C 250.709 2.34597 -0.0109075 0
M  V30 2564 C 251.725 1.55576 0.779245 0
M  V30 2565 O 252.901 1.88107 0.719555 0
M  V30 2566 C 249.966 3.34199 0.922588 0
M  V30 2567 C 249.027 4.29115 0.125984 0
M  V30 2568 C 248.26 5.23959 1.01502 0
M  V30 2569 O 248.483 5.23952 2.25456 0
M  V30 2570 O 247.417 6.00053 0.47111 0
M  V30 2571 H 251.243 2.93675 -0.773853 0
M  V30 2572 H 248.828 1.42654 -0.443861 0
M  V30 2573 H 250.71 3.95365 1.45823 0
M  V30 2574 H 249.385 2.77582 1.66523 0
M  V30 2575 H 248.292 3.71335 -0.453969 0
M  V30 2576 H 249.625 4.88798 -0.577736 0
M  V30 2577 N 251.277 0.427512 1.51691 0
M  V30 2578 C 252.209 -0.424521 2.25234 0
M  V30 2579 C 253.222 -0.994671 1.2888 0
M  V30 2580 O 254.411 -0.890483 1.54702 0
M  V30 2581 C 251.511 -1.60479 2.98496 0
M  V30 2582 C 250.684 -1.15527 4.21868 0
M  V30 2583 C 249.743 -2.20454 4.77793 0
M  V30 2584 O 248.769 -1.8029 5.39893 0
M  V30 2585 N 249.971 -3.52831 4.60967 0
M  V30 2586 H 252.736 0.205749 2.98993 0
M  V30 2587 H 250.297 0.255867 1.59865 0
M  V30 2588 H 252.289 -2.30276 3.32799 0
M  V30 2589 H 250.859 -2.14061 2.27809 0
M  V30 2590 H 250.079 -0.284736 3.9317 0
M  V30 2591 H 251.367 -0.832173 5.01949 0
M  V30 2592 H 250.765 -3.88201 4.11481 0
M  V30 2593 H 249.322 -4.18551 4.99658 0
M  V30 2594 N 252.755 -1.56801 0.158532 0
M  V30 2595 C 254.003 -1.96102 -0.488712 0
M  V30 2596 C 254.324 -1.04498 -1.64636 0
M  V30 2597 O 253.594 -0.108783 -1.95598 0
M  V30 2598 H 252.174 -0.724102 -0.183535 0
M  V30 2599 H 254.836 -1.93457 0.236728 0
M  V30 2600 H 253.932 -3.00097 -0.857219 0
M  V30 2601 N 254.233 0.115231 -1.57178 0
M  V30 2602 C 255.143 1.15994 -2.03918 0
M  V30 2603 C 256.159 1.45103 -0.960268 0
M  V30 2604 O 257.335 1.56144 -1.27204 0
M  V30 2605 C 254.4 2.46568 -2.43732 0
M  V30 2606 C 253.461 2.24822 -3.65723 0
M  V30 2607 C 252.694 3.4917 -4.03629 0
M  V30 2608 O 252.917 4.56623 -3.41835 0
M  V30 2609 O 251.851 3.39949 -4.96708 0
M  V30 2610 H 255.677 0.793019 -2.93164 0
M  V30 2611 H 253.262 0.3263 -1.45793 0
M  V30 2612 H 255.144 3.23492 -2.70057 0
M  V30 2613 H 253.819 2.82726 -1.57631 0
M  V30 2614 H 252.726 1.45744 -3.44542 0
M  V30 2615 H 254.059 1.93566 -4.52541 0
M  V30 2616 N 255.711 1.52812 0.385517 0
M  V30 2617 C 256.936 1.72207 1.15583 0
M  V30 2618 C 257.361 0.441034 1.82857 0
M  V30 2619 O 256.719 -0.603465 1.70962 0
M  V30 2620 C 256.767 2.87476 2.17692 0
M  V30 2621 O 255.871 2.54693 3.24354 0
M  V30 2622 H 255.212 0.572526 0.336319 0
M  V30 2623 H 257.742 1.99618 0.448744 0
M  V30 2624 H 257.752 3.13072 2.6163 0
M  V30 2625 H 256.427 3.80408 1.68115 0
M  V30 2626 H 255.004 2.3985 2.85529 0
M  V30 2627 N 257.189 -0.644168 1.43834 0
M  V30 2628 C 258.6 -1.22554 1.40845 0
M  V30 2629 C 258.951 -1.9585 0.117115 0
M  V30 2630 O 258.076 -2.01734 -0.783086 0
M  V30 2631 C 258.671 -2.22907 2.55143 0
M  V30 2632 C 257.23 -2.76501 2.5539 0
M  V30 2633 C 256.377 -1.51287 2.32396 0
M  V30 2634 H 259.328 -0.43563 1.52604 0
M  V30 2635 H 259.349 -3.05259 2.2715 0
M  V30 2636 H 258.861 -1.69533 3.49114 0
M  V30 2637 H 256.962 -3.33914 1.65324 0
M  V30 2638 H 257.075 -3.23429 3.53455 0
M  V30 2639 H 255.439 -1.78957 1.81236 0
M  V30 2640 H 256.222 -0.998336 3.28463 0
M  V30 2641 N 258.668 -1.30515 -0.883378 0
M  V30 2642 C 259.915 -1.1943 -1.63532 0
M  V30 2643 C 260.243 0.250627 -1.92878 0
M  V30 2644 O 259.498 1.19556 -1.54935 0
M  V30 2645 C 259.797 -1.96994 -2.98209 0
M  V30 2646 C 259.463 -3.466 -2.88408 0
M  V30 2647 C 258.125 -3.87397 -2.85442 0
M  V30 2648 C 260.477 -4.41863 -2.76418 0
M  V30 2649 C 257.805 -5.21745 -2.68327 0
M  V30 2650 C 260.157 -5.7632 -2.60841 0
M  V30 2651 C 258.821 -6.16354 -2.56251 0
M  V30 2652 H 258.091 -0.437025 -0.598406 0
M  V30 2653 H 260.738 -1.61635 -1.02696 0
M  V30 2654 H 259.043 -1.47429 -3.63004 0
M  V30 2655 H 260.74 -1.85808 -3.55354 0
M  V30 2656 H 257.33 -3.14182 -2.91527 0
M  V30 2657 H 261.514 -4.11285 -2.77775 0
M  V30 2658 H 256.77 -5.51853 -2.63189 0
M  V30 2659 H 260.944 -6.49772 -2.50538 0
M  V30 2660 H 258.571 -7.20401 -2.42748 0
M  V30 2661 N 260.146 1.09593 -1.13257 0
M  V30 2662 C 261.392 1.82181 -0.904521 0
M  V30 2663 C 261.747 1.83967 0.563358 0
M  V30 2664 O 261.04 1.29566 1.41149 0
M  V30 2665 C 261.234 3.27802 -1.42411 0
M  V30 2666 C 261.063 3.40201 -2.94097 0
M  V30 2667 C 259.833 3.52104 -3.62424 0
M  V30 2668 C 262.031 3.32875 -3.92044 0
M  V30 2669 N 260.013 3.53169 -5.0214 0
M  V30 2670 C 261.384 3.40789 -5.17941 0
M  V30 2671 C 263.439 3.16531 -3.84334 0
M  V30 2672 C 262.142 3.34042 -6.37031 0
M  V30 2673 C 264.168 3.11109 -5.02956 0
M  V30 2674 C 263.53 3.19614 -6.27715 0
M  V30 2675 H 259.629 0.681015 -0.384373 0
M  V30 2676 H 262.213 1.3099 -1.44048 0
M  V30 2677 H 260.384 3.77466 -0.915086 0
M  V30 2678 H 262.116 3.88393 -1.13722 0
M  V30 2679 H 258.871 3.5548 -3.12939 0
M  V30 2680 H 259.295 3.57291 -5.75041 0
M  V30 2681 H 263.937 3.08827 -2.88766 0
M  V30 2682 H 261.655 3.4051 -7.32857 0
M  V30 2683 H 265.241 2.99601 -4.98729 0
M  V30 2684 H 264.121 3.15432 -7.17964 0
M  V30 2685 N 261.624 0.925811 1.2754 0
M  V30 2686 C 262.572 0.413897 2.28888 0
M  V30 2687 C 263.566 -0.500779 1.61829 0
M  V30 2688 O 264.772 -0.38069 1.75928 0
M  V30 2689 H 261.147 0.115274 0.743112 0
M  V30 2690 H 263.118 1.28151 2.69481 0
M  V30 2691 C 261.867 -0.319792 3.46226 0
M  V30 2692 H 261.19 0.374846 3.98039 0
M  V30 2693 H 262.63 -0.642435 4.19105 0
M  V30 2694 C 261.089 -1.53209 3.00048 0
M  V30 2695 O 261.619 -2.6309 3.03557 0
M  V30 2696 N 259.825 -1.38326 2.55566 0
M  V30 2697 H 259.372 -0.489292 2.5291 0
M  V30 2698 H 259.33 -2.19564 2.25031 0
M  V30 2699 N 263.102 -1.41638 0.69111 0
M  V30 2700 C 264.065 -2.29178 0.0319786 0
M  V30 2701 C 265.065 -1.44153 -0.712496 0
M  V30 2702 O 266.255 -1.65354 -0.548053 0
M  V30 2703 C 263.387 -3.26952 -0.965161 0
M  V30 2704 H 264.58 -2.88959 0.802681 0
M  V30 2705 H 262.133 -1.4955 0.454356 0
M  V30 2706 H 262.868 -2.72142 -1.76378 0
M  V30 2707 H 262.653 -3.89685 -0.434522 0
M  V30 2708 H 264.143 -3.92561 -1.42428 0
M  V30 2709 N 264.58 -0.43555 -1.51462 0
M  V30 2710 C 265.826 0.131709 -2.02372 0
M  V30 2711 C 266.159 1.42516 -1.3192 0
M  V30 2712 O 265.434 1.89606 -0.433573 0
M  V30 2713 C 265.717 0.352301 -3.58373 0
M  V30 2714 C 265.57 -0.959676 -4.39443 0
M  V30 2715 C 266.889 1.12286 -4.25535 0
M  V30 2716 H 264.008 0.0463936 -0.735538 0
M  V30 2717 H 266.65 -0.574197 -1.81116 0
M  V30 2718 H 264.8 0.9536 -3.76615 0
M  V30 2719 H 266.472 -1.59482 -4.32855 0
M  V30 2720 H 264.715 -1.56468 -4.04599 0
M  V30 2721 H 265.386 -0.759394 -5.46752 0
M  V30 2722 H 267.862 0.613545 -4.11552 0
M  V30 2723 H 266.738 1.24598 -5.34571 0
M  V30 2724 H 266.999 2.15048 -3.86273 0
M  V30 2725 N 266.058 1.56714 -0.166846 0
M  V30 2726 C 267.306 1.96358 0.478305 0
M  V30 2727 C 267.627 1.0537 1.6408 0
M  V30 2728 O 266.897 0.119154 1.95537 0
M  V30 2729 H 265.477 0.725065 0.179692 0
M  V30 2730 H 268.139 1.93329 -0.246985 0
M  V30 2731 H 267.235 3.00547 0.841292 0
M  V30 2732 N 267.536 -0.106894 1.57237 0
M  V30 2733 C 268.952 -0.46078 1.52804 0
M  V30 2734 C 269.152 -1.81184 0.881746 0
M  V30 2735 O 268.208 -2.48102 0.469224 0
M  V30 2736 C 269.521 -0.434127 2.9755 0
M  V30 2737 C 271.069 -0.516821 3.08704 0
M  V30 2738 C 271.544 -0.520436 4.55033 0
M  V30 2739 N 273.035 -0.58153 4.59535 0
M  V30 2740 C 273.77 -0.605973 5.70189 0
M  V30 2741 N 273.266 -0.587331 6.90306 0
M  V30 2742 N 275.059 -0.649895 5.5833 0
M  V30 2743 H 267.21 0.778203 1.9763 0
M  V30 2744 H 269.473 0.288403 0.903066 0
M  V30 2745 H 269.179 0.491197 3.48253 0
M  V30 2746 H 269.053 -1.25748 3.55622 0
M  V30 2747 H 271.44 -1.43256 2.57995 0
M  V30 2748 H 271.521 0.334449 2.53604 0
M  V30 2749 H 271.165 0.391313 5.0639 0
M  V30 2750 H 271.095 -1.38876 5.07958 0
M  V30 2751 H 273.586 -0.60161 3.73081 0
M  V30 2752 H 273.899 -0.60894 7.70397 0
M  V30 2753 H 272.244 -0.554564 6.92784 0
M  V30 2754 H 275.435 -0.661907 4.63397 0
M  V30 2755 H 275.608 -0.665476 6.44574 0
M  V30 2756 N 269.014 -1.53014 -0.377408 0
M  V30 2757 C 269.962 -1.7927 -1.48206 0
M  V30 2758 C 270.956 -0.661195 -1.55963 0
M  V30 2759 O 272.162 -0.843908 -1.58991 0
M  V30 2760 H 268.537 -0.567425 -0.493491 0
M  V30 2761 H 270.508 -2.71753 -1.2326 0
M  V30 2762 C 269.257 -1.98894 -2.85196 0
M  V30 2763 H 268.58 -2.85395 -2.79981 0
M  V30 2764 H 270.02 -2.21249 -3.61698 0
M  V30 2765 C 268.479 -0.764691 -3.28107 0
M  V30 2766 O 269.009 0.0523226 -4.01666 0
M  V30 2767 N 267.215 -0.591493 -2.84517 0
M  V30 2768 H 266.762 -1.25749 -2.24822 0
M  V30 2769 H 266.72 0.226253 -3.13585 0
M  V30 2770 N 270.492 0.636531 -1.44174 0
M  V30 2771 C 271.739 1.39619 -1.46672 0
M  V30 2772 C 272.067 1.94257 -0.0972691 0
M  V30 2773 O 271.322 1.73768 0.900175 0
M  V30 2774 C 271.621 2.58309 -2.47005 0
M  V30 2775 C 271.287 2.21992 -3.92467 0
M  V30 2776 C 269.949 2.118 -4.32081 0
M  V30 2777 C 272.301 1.9321 -4.84065 0
M  V30 2778 C 269.629 1.71007 -5.61225 0
M  V30 2779 C 271.981 1.53911 -6.13591 0
M  V30 2780 C 270.645 1.42257 -6.52165 0
M  V30 2781 H 269.915 0.510902 -0.536712 0
M  V30 2782 H 272.562 0.722328 -1.77355 0
M  V30 2783 H 270.867 3.30903 -2.09786 0
M  V30 2784 H 272.564 3.16533 -2.46186 0
M  V30 2785 H 269.154 2.30841 -3.61124 0
M  V30 2786 H 273.338 1.99997 -4.54219 0
M  V30 2787 H 268.594 1.60583 -5.89935 0
M  V30 2788 H 272.768 1.30677 -6.8403 0
M  V30 2789 H 270.395 1.10419 -7.52138 0
M  V30 2790 N 271.97 1.30982 0.876444 0
M  V30 2791 C 273.217 1.20296 1.62896 0
M  V30 2792 C 273.545 -0.240395 1.93009 0
M  V30 2793 O 272.8 -1.18733 1.55567 0
M  V30 2794 C 273.099 1.98572 2.9716 0
M  V30 2795 C 272.765 3.48125 2.86566 0
M  V30 2796 C 271.427 3.88905 2.83383 0
M  V30 2797 C 273.779 4.43322 2.74071 0
M  V30 2798 C 271.107 5.2316 2.65556 0
M  V30 2799 C 273.459 5.77695 2.57781 0
M  V30 2800 C 272.123 6.17704 2.52979 0
M  V30 2801 H 271.393 0.440193 0.59608 0
M  V30 2802 H 274.04 1.62177 1.01837 0
M  V30 2803 H 272.345 1.49352 3.62217 0
M  V30 2804 H 274.042 1.8769 3.54364 0
M  V30 2805 H 270.632 3.15723 2.89856 0
M  V30 2806 H 274.816 4.12752 2.75589 0
M  V30 2807 H 270.072 5.53241 2.60259 0
M  V30 2808 H 274.246 6.51091 2.47089 0
M  V30 2809 H 271.873 7.21678 2.38924 0
M  V30 2810 N 273.449 -1.08991 1.13837 0
M  V30 2811 C 274.726 -1.77863 0.813876 0
M  V30 2812 C 275.106 -1.99375 -0.693746 0
M  V30 2813 O 274.454 -1.59875 -1.63255 0
M  V30 2814 C 274.664 -3.0986 1.60586 0
M  V30 2815 C 276.012 -3.84493 1.8014 0
M  V30 2816 O 277.036 -3.19624 1.57222 0
M  V30 2817 O 275.895 -5.00957 2.18413 0
M  V30 2818 H 272.989 -0.771589 0.297624 0
M  V30 2819 H 275.535 -1.15507 1.24323 0
M  V30 2820 H 274.307 -2.89715 2.63022 0
M  V30 2821 H 273.93 -3.79942 1.17173 0
M  V30 2822 N 274.927 -0.932562 -1.27047 0
M  V30 2823 C 275.857 -0.452902 -2.29066 0
M  V30 2824 C 276.838 0.489338 -1.62909 0
M  V30 2825 O 278.023 0.393046 -1.90181 0
M  V30 2826 C 275.153 0.290698 -3.46081 0
M  V30 2827 C 274.107 -0.564168 -4.24265 0
M  V30 2828 C 273.433 0.308886 -5.33807 0
M  V30 2829 C 274.733 -1.83112 -4.89149 0
M  V30 2830 H 276.427 -1.30552 -2.69437 0
M  V30 2831 H 273.973 -0.629201 -1.29526 0
M  V30 2832 H 275.926 0.637233 -4.16554 0
M  V30 2833 H 274.65 1.17738 -3.0464 0
M  V30 2834 H 273.309 -0.893477 -3.55545 0
M  V30 2835 H 272.957 1.19467 -4.88607 0
M  V30 2836 H 272.657 -0.259633 -5.87026 0
M  V30 2837 H 274.181 0.650884 -6.07121 0
M  V30 2838 H 275.595 -1.55236 -5.51883 0
M  V30 2839 H 273.992 -2.34353 -5.52448 0
M  V30 2840 H 275.062 -2.54772 -4.12576 0
M  V30 2841 N 276.405 1.4127 -0.698611 0
M  V30 2842 C 277.353 2.32588 -0.023855 0
M  V30 2843 C 278.347 1.51128 0.765292 0
M  V30 2844 O 279.553 1.67043 0.670571 0
M  V30 2845 H 275.928 0.751918 0.0110871 0
M  V30 2846 H 277.899 2.87167 -0.811031 0
M  V30 2847 C 276.648 3.35947 0.896369 0
M  V30 2848 H 275.971 3.98684 0.298548 0
M  V30 2849 H 277.411 4.02376 1.33676 0
M  V30 2850 C 275.87 2.70076 2.01396 0
M  V30 2851 O 276.4 2.55093 3.10307 0
M  V30 2852 N 274.606 2.28724 1.79259 0
M  V30 2853 H 274.153 2.4111 0.906841 0
M  V30 2854 H 274.111 1.84986 2.54219 0
M  V30 2855 N 277.883 0.443576 1.51229 0
M  V30 2856 C 279.113 -0.119117 2.06256 0
M  V30 2857 C 279.521 -1.36471 1.31043 0
M  V30 2858 O 278.864 -1.80034 0.365151 0
M  V30 2859 C 278.926 -0.500546 3.55998 0
M  V30 2860 C 278.59 0.639125 4.52509 0
M  V30 2861 C 279.587 1.51311 4.97394 0
M  V30 2862 C 277.272 0.821632 4.95535 0
M  V30 2863 C 279.266 2.55425 5.83984 0
M  V30 2864 C 276.953 1.86603 5.81913 0
M  V30 2865 C 277.951 2.73072 6.26036 0
M  V30 2866 O 277.639 3.75718 7.10698 0
M  V30 2867 H 277.371 -0.00857665 0.675946 0
M  V30 2868 H 279.925 0.623288 1.95715 0
M  V30 2869 H 278.155 -1.29575 3.64345 0
M  V30 2870 H 279.844 -0.995116 3.93513 0
M  V30 2871 H 280.61 1.38367 4.64844 0
M  V30 2872 H 276.489 0.158149 4.60729 0
M  V30 2873 H 280.033 3.22949 6.18344 0
M  V30 2874 H 275.93 1.99564 6.13876 0
M  V30 2875 H 276.698 3.72374 7.2889 0
M  V30 2876 N 279.361 -1.56624 0.175154 0
M  V30 2877 C 280.61 -1.96173 -0.468921 0
M  V30 2878 C 280.923 -1.06401 -1.64128 0
M  V30 2879 O 282.129 -1.35648 -2.35185 0
M  V30 2880 C 280.585 -3.48833 -0.885633 0
M  V30 2881 C 280.193 -4.47237 0.261343 0
M  V30 2882 C 281.937 -3.97194 -1.49791 0
M  V30 2883 C 279.844 -5.9114 -0.175214 0
M  V30 2884 H 278.774 -0.732455 -0.178958 0
M  V30 2885 H 281.425 -1.81591 0.263997 0
M  V30 2886 H 279.807 -3.58848 -1.67464 0
M  V30 2887 H 280.981 -4.4894 1.03871 0
M  V30 2888 H 279.296 -4.08956 0.783827 0
M  V30 2889 H 281.893 -5.02167 -1.83665 0
M  V30 2890 H 282.236 -3.40351 -2.39722 0
M  V30 2891 H 282.769 -3.90212 -0.773267 0
M  V30 2892 H 279.508 -6.51865 0.689414 0
M  V30 2893 H 279.028 -5.92735 -0.91786 0
M  V30 2894 H 280.707 -6.44044 -0.617792 0
M  V30 2895 N 280.839 0.0985539 -1.57292 0
M  V30 2896 C 281.749 1.13824 -2.05137 0
M  V30 2897 C 282.765 1.44076 -0.975604 0
M  V30 2898 O 283.941 1.54786 -1.28853 0
M  V30 2899 C 281.006 2.43969 -2.46333 0
M  V30 2900 C 280.067 2.2093 -3.68087 0
M  V30 2901 C 279.3 3.44869 -4.0731 0
M  V30 2902 O 279.523 4.52972 -3.46659 0
M  V30 2903 O 278.457 3.34661 -5.00285 0
M  V30 2904 H 282.283 0.761881 -2.93988 0
M  V30 2905 H 279.868 0.310818 -1.46131 0
M  V30 2906 H 281.75 3.20609 -2.73473 0
M  V30 2907 H 280.425 2.81038 -1.60621 0
M  V30 2908 H 279.332 1.42081 -3.46069 0
M  V30 2909 H 280.665 1.88755 -4.54568 0
M  V30 2910 N 282.317 1.53212 0.369288 0
M  V30 2911 C 283.28 1.7872 1.43498 0
M  V30 2912 C 284.28 0.657554 1.46741 0
M  V30 2913 O 285.47 0.925736 1.47566 0
M  V30 2914 C 282.602 1.90591 2.82645 0
M  V30 2915 H 283.795 2.73894 1.22156 0
M  V30 2916 H 281.348 1.44233 0.602203 0
M  V30 2917 H 282.083 0.974709 3.09306 0
M  V30 2918 H 281.868 2.72751 2.8169 0
M  V30 2919 H 283.358 2.11931 3.59826 0
M  V30 2920 N 283.795 -0.628877 1.44509 0
M  V30 2921 C 284.705 -1.7694 1.54044 0
M  V30 2922 C 285.721 -1.68705 0.425987 0
M  V30 2923 O 286.897 -1.89442 0.683656 0
M  V30 2924 C 283.962 -3.13332 1.48405 0
M  V30 2925 C 283.023 -3.33181 2.70719 0
M  V30 2926 C 282.256 -4.63067 2.6534 0
M  V30 2927 O 282.479 -5.44017 1.71469 0
M  V30 2928 O 281.413 -4.85167 3.56226 0
M  V30 2929 H 285.239 -1.71848 2.50403 0
M  V30 2930 H 282.824 -0.790378 1.26781 0
M  V30 2931 H 284.706 -3.94634 1.47791 0
M  V30 2932 H 283.381 -3.1896 0.551898 0
M  V30 2933 H 282.288 -2.51549 2.769 0
M  V30 2934 H 283.621 -3.32416 3.62988 0
M  V30 2935 N 285.273 -1.31445 -0.869486 0
M  V30 2936 C 286.22 -1.19135 -1.97675 0
M  V30 2937 C 287.19 -0.0770266 -1.65921 0
M  V30 2938 O 288.375 -0.249972 -1.89155 0
M  V30 2939 C 285.515 -0.905149 -3.33018 0
M  V30 2940 C 284.628 -2.10285 -3.77365 0
M  V30 2941 C 283.763 -1.75339 -5.01427 0
M  V30 2942 C 282.802 -2.91515 -5.38224 0
M  V30 2943 N 281.939 -2.56762 -6.53466 0
M  V30 2944 H 286.779 -2.13853 -2.07535 0
M  V30 2945 H 284.316 -1.06379 -1.01597 0
M  V30 2946 H 286.274 -0.719765 -4.10944 0
M  V30 2947 H 284.904 0.00519624 -3.228 0
M  V30 2948 H 283.956 -2.39899 -2.95216 0
M  V30 2949 H 285.268 -2.97237 -4.00564 0
M  V30 2950 H 284.422 -1.53266 -5.87022 0
M  V30 2951 H 283.161 -0.855801 -4.80133 0
M  V30 2952 H 282.166 -3.14237 -4.51149 0
M  V30 2953 H 283.391 -3.81985 -5.61484 0
M  V30 2954 H 281.337 -1.69526 -6.33717 0
M  V30 2955 H 281.254 -3.37243 -6.76612 0
M  V30 2956 H 282.522 -2.38083 -7.42251 0
M  V30 2957 N 286.751 1.08385 -1.14413 0
M  V30 2958 C 287.681 2.17321 -0.854044 0
M  V30 2959 C 288.662 1.69024 0.191049 0
M  V30 2960 O 289.847 1.94141 0.0476779 0
M  V30 2961 C 286.977 3.45719 -0.330983 0
M  V30 2962 C 285.931 4.07409 -1.31155 0
M  V30 2963 C 285.257 5.30762 -0.64778 0
M  V30 2964 C 286.557 4.48665 -2.67388 0
M  V30 2965 H 288.251 2.41845 -1.76498 0
M  V30 2966 H 285.797 1.16233 -0.850051 0
M  V30 2967 H 287.75 4.21241 -0.115645 0
M  V30 2968 H 286.474 3.2075 0.615381 0
M  V30 2969 H 285.133 3.33919 -1.51306 0
M  V30 2970 H 284.781 5.02078 0.304398 0
M  V30 2971 H 284.481 5.72992 -1.30207 0
M  V30 2972 H 286.005 6.08998 -0.441972 0
M  V30 2973 H 287.419 5.15364 -2.51143 0
M  V30 2974 H 285.816 5.01814 -3.29093 0
M  V30 2975 H 286.886 3.60543 -3.24248 0
M  V30 2976 N 288.23 0.939286 1.26551 0
M  V30 2977 C 289.455 0.602008 1.98471 0
M  V30 2978 C 289.88 -0.815624 1.69497 0
M  V30 2979 O 289.238 -1.54912 0.941905 0
M  V30 2980 C 289.286 0.848407 3.50477 0
M  V30 2981 O 288.39 -0.0804009 4.12322 0
M  V30 2982 H 287.731 0.23049 0.622712 0
M  V30 2983 H 290.261 1.2617 1.61066 0
M  V30 2984 H 290.271 0.768553 4.00696 0
M  V30 2985 H 288.946 1.88171 3.70897 0
M  V30 2986 H 287.523 0.0503508 3.72866 0
M  V30 2987 N 289.708 -1.40897 0.706093 0
M  V30 2988 C 290.956 -2.00657 0.241054 0
M  V30 2989 C 291.277 -1.56241 -1.16678 0
M  V30 2990 O 290.547 -0.79765 -1.78926 0
M  V30 2991 H 289.127 -0.742018 0.0861308 0
M  V30 2992 H 291.789 -1.72372 0.909604 0
M  V30 2993 H 290.885 -3.10958 0.266705 0
M  V30 2994 N 291.186 -0.45159 -1.50991 0
M  V30 2995 C 292.116 0.342898 -2.30969 0
M  V30 2996 C 293.097 1.00815 -1.37005 0
M  V30 2997 O 294.282 1.00907 -1.65926 0
M  V30 2998 C 291.412 1.43637 -3.16205 0
M  V30 2999 C 290.366 0.893818 -4.18563 0
M  V30 3000 C 289.692 2.08411 -4.92411 0
M  V30 3001 C 290.992 -0.0815568 -5.22236 0
M  V30 3002 H 292.686 -0.324556 -2.97636 0
M  V30 3003 H 290.232 -0.157531 -1.43136 0
M  V30 3004 H 292.185 1.9995 -3.70942 0
M  V30 3005 H 290.909 2.13232 -2.47386 0
M  V30 3006 H 289.568 0.352798 -3.64898 0
M  V30 3007 H 289.216 2.76658 -4.20082 0
M  V30 3008 H 288.916 1.72741 -5.61636 0
M  V30 3009 H 290.44 2.65251 -5.49976 0
M  V30 3010 H 291.854 0.391742 -5.7196 0
M  V30 3011 H 290.251 -0.351551 -5.99069 0
M  V30 3012 H 291.321 -1.01374 -4.74185 0
M  V30 3013 N 292.664 1.56529 -0.183458 0
M  V30 3014 C 293.611 2.18546 0.742055 0
M  V30 3015 C 294.581 1.12912 1.2182 0
M  V30 3016 O 295.766 1.41115 1.28418 0
M  V30 3017 C 292.906 2.83977 1.96089 0
M  V30 3018 C 292.019 4.04105 1.52719 0
M  V30 3019 C 291.154 4.57427 2.70063 0
M  V30 3020 C 290.193 5.69938 2.23243 0
M  V30 3021 N 289.33 6.17717 3.33722 0
M  V30 3022 H 294.17 2.97284 0.206432 0
M  V30 3023 H 291.707 1.46823 0.0901571 0
M  V30 3024 H 293.665 3.20077 2.67594 0
M  V30 3025 H 292.295 2.07822 2.47002 0
M  V30 3026 H 291.347 3.73745 0.708436 0
M  V30 3027 H 292.659 4.85513 1.1436 0
M  V30 3028 H 291.813 4.95772 3.49708 0
M  V30 3029 H 290.552 3.75101 3.11689 0
M  V30 3030 H 289.557 5.31133 1.42048 0
M  V30 3031 H 290.782 6.54073 1.82661 0
M  V30 3032 H 288.728 5.38317 3.74902 0
M  V30 3033 H 288.645 6.94146 2.99495 0
M  V30 3034 H 289.913 6.60713 4.13616 0
M  V30 3035 N 294.142 -0.090211 1.57342 0
M  V30 3036 C 295.367 -0.810082 1.90925 0
M  V30 3037 C 295.792 -1.71248 0.778187 0
M  V30 3038 O 295.15 -1.79278 -0.269991 0
M  V30 3039 C 295.198 -1.59529 3.23393 0
M  V30 3040 O 294.302 -2.70461 3.11327 0
M  V30 3041 H 293.643 -0.222231 0.625707 0
M  V30 3042 H 296.173 -0.0639716 2.045 0
M  V30 3043 H 296.183 -1.97847 3.5682 0
M  V30 3044 H 294.858 -0.933055 4.05299 0
M  V30 3045 H 293.435 -2.35135 2.89423 0
M  V30 3046 N 295.62 -1.53406 -0.361157 0
M  V30 3047 C 297.036 -1.43277 -0.703124 0
M  V30 3048 C 297.236 -0.575384 -1.9311 0
M  V30 3049 O 296.292 -0.0595362 -2.5243 0
M  V30 3050 C 297.605 -2.8653 -0.9122 0
M  V30 3051 C 299.153 -2.96191 -1.01193 0
M  V30 3052 C 299.628 -4.40514 -1.25345 0
M  V30 3053 N 301.119 -4.43962 -1.32105 0
M  V30 3054 C 301.854 -5.52746 -1.5251 0
M  V30 3055 N 301.35 -6.71567 -1.70203 0
M  V30 3056 N 303.143 -5.40331 -1.54916 0
M  V30 3057 H 295.294 -2.07654 0.446475 0
M  V30 3058 H 297.557 -0.937944 0.137715 0
M  V30 3059 H 297.263 -3.51605 -0.0816414 0
M  V30 3060 H 297.137 -3.30441 -1.81903 0
M  V30 3061 H 299.524 -2.31266 -1.83303 0
M  V30 3062 H 299.605 -2.55667 -0.0823929 0
M  V30 3063 H 299.249 -5.06014 -0.437346 0
M  V30 3064 H 299.179 -4.78614 -2.19627 0
M  V30 3065 H 301.67 -3.58332 -1.20028 0
M  V30 3066 H 301.983 -7.50241 -1.85359 0
M  V30 3067 H 300.328 -6.74545 -1.67373 0
M  V30 3068 H 303.519 -4.46465 -1.40663 0
M  V30 3069 H 303.692 -6.25173 -1.70477 0
M  V30 3070 N 297.098 0.621204 -1.44841 0
M  V30 3071 C 298.326 1.40752 -1.51646 0
M  V30 3072 C 298.741 1.88246 -0.144549 0
M  V30 3073 O 298.098 1.61422 0.851416 0
M  V30 3074 C 298.149 2.62119 -2.4895 0
M  V30 3075 O 297.87 2.16602 -3.80808 0
M  V30 3076 C 299.371 3.55135 -2.65319 0
M  V30 3077 H 296.591 0.431325 -0.514004 0
M  V30 3078 H 299.135 0.758835 -1.899 0
M  V30 3079 H 297.29 3.23058 -2.13805 0
M  V30 3080 H 297.704 2.95358 -4.33433 0
M  V30 3081 H 299.178 4.36874 -3.37409 0
M  V30 3082 H 299.655 4.04592 -1.70886 0
M  V30 3083 H 300.261 3.00058 -3.01405 0
M  V30 3084 N 298.576 1.31904 0.862503 0
M  V30 3085 C 299.823 1.22017 1.61611 0
M  V30 3086 C 300.151 -0.21991 1.93253 0
M  V30 3087 O 299.406 -1.17076 1.56817 0
M  V30 3088 C 299.705 2.01713 2.95037 0
M  V30 3089 C 299.371 3.51145 2.82857 0
M  V30 3090 C 298.033 3.91889 2.79243 0
M  V30 3091 C 300.385 4.46204 2.69353 0
M  V30 3092 C 297.713 5.25947 2.59993 0
M  V30 3093 C 300.065 5.80397 2.5164 0
M  V30 3094 C 298.729 6.20352 2.46413 0
M  V30 3095 H 297.999 0.44649 0.591378 0
M  V30 3096 H 300.646 1.63248 1.00111 0
M  V30 3097 H 298.951 1.53185 3.60613 0
M  V30 3098 H 300.648 1.91437 3.52353 0
M  V30 3099 H 297.238 3.1878 2.86491 0
M  V30 3100 H 301.422 4.15652 2.71196 0
M  V30 3101 H 296.678 5.5597 2.54376 0
M  V30 3102 H 300.852 6.53676 2.40169 0
M  V30 3103 H 298.479 7.24172 2.31256 0
M  V30 3104 N 300.054 -1.07777 1.14986 0
M  V30 3105 C 300.984 -2.16865 0.865557 0
M  V30 3106 C 301.965 -1.69123 -0.182083 0
M  V30 3107 O 303.15 -1.94164 -0.0373815 0
M  V30 3108 C 300.28 -3.45539 0.349313 0
M  V30 3109 C 299.234 -4.06708 1.33313 0
M  V30 3110 C 298.56 -5.30411 0.675918 0
M  V30 3111 C 299.86 -4.47241 2.69764 0
M  V30 3112 H 301.554 -2.40905 1.77778 0
M  V30 3113 H 299.1 -1.15781 0.856203 0
M  V30 3114 H 301.053 -4.21174 0.137983 0
M  V30 3115 H 299.777 -3.21072 -0.598362 0
M  V30 3116 H 298.436 -3.33112 1.53075 0
M  V30 3117 H 298.084 -5.02232 -0.277767 0
M  V30 3118 H 297.784 -5.72293 1.33244 0
M  V30 3119 H 299.308 -6.08755 0.474262 0
M  V30 3120 H 300.722 -5.14025 2.53873 0
M  V30 3121 H 299.119 -5.00062 3.3175 0
M  V30 3122 H 300.189 -3.58818 3.26156 0
M  V30 3123 N 301.532 -0.945985 -1.26051 0
M  V30 3124 C 302.495 -0.463897 -2.24456 0
M  V30 3125 C 303.495 0.427655 -1.55009 0
M  V30 3126 O 304.685 0.226157 -1.72726 0
M  V30 3127 C 301.817 0.330812 -3.39291 0
M  V30 3128 H 303.01 -1.33357 -2.68619 0
M  V30 3129 H 300.563 -0.728416 -1.38289 0
M  V30 3130 H 301.298 1.21852 -3.00537 0
M  V30 3131 H 301.083 -0.308679 -3.90883 0
M  V30 3132 H 302.573 0.657865 -4.12386 0
M  V30 3133 N 303.011 1.40521 -0.713556 0
M  V30 3134 C 303.921 2.34522 -0.0606667 0
M  V30 3135 C 304.937 1.57193 0.74607 0
M  V30 3136 O 306.113 1.89591 0.679493 0
M  V30 3137 C 303.178 3.36081 0.851491 0
M  V30 3138 C 302.239 4.29286 0.0349339 0
M  V30 3139 C 301.472 5.25994 0.903649 0
M  V30 3140 O 301.695 5.28616 2.14292 0
M  V30 3141 O 300.629 6.00918 0.343723 0
M  V30 3142 H 304.455 2.91968 -0.835972 0
M  V30 3143 H 302.04 1.41681 -0.47402 0
M  V30 3144 H 303.922 3.98369 1.37404 0
M  V30 3145 H 302.597 2.81052 1.60598 0
M  V30 3146 H 301.504 3.70289 -0.532633 0
M  V30 3147 H 302.837 4.87462 -0.681287 0
M  V30 3148 N 304.489 0.459591 1.5075 0
M  V30 3149 C 305.419 -0.330644 2.31147 0
M  V30 3150 C 306.4 -1.00087 1.37538 0
M  V30 3151 O 307.585 -1.00025 1.66459 0
M  V30 3152 C 304.715 -1.41958 3.16962 0
M  V30 3153 C 303.669 -0.871608 4.19031 0
M  V30 3154 C 302.995 -2.05797 4.9351 0
M  V30 3155 C 304.295 0.109251 5.22186 0
M  V30 3156 H 305.989 0.340336 2.97459 0
M  V30 3157 H 303.535 0.165119 1.4305 0
M  V30 3158 H 305.488 -1.9798 3.71997 0
M  V30 3159 H 304.212 -2.11917 2.48513 0
M  V30 3160 H 302.871 -0.333442 3.6508 0
M  V30 3161 H 302.519 -2.74427 4.21544 0
M  V30 3162 H 302.219 -1.6976 5.62544 0
M  V30 3163 H 303.743 -2.62331 5.51375 0
M  V30 3164 H 305.157 -0.361405 5.7216 0
M  V30 3165 H 303.554 0.383316 5.98875 0
M  V30 3166 H 304.624 1.03887 4.73641 0
M  V30 3167 N 305.967 -1.56429 0.191757 0
M  V30 3168 C 306.9 -2.14829 -0.76967 0
M  V30 3169 C 307.878 -1.08405 -1.2119 0
M  V30 3170 O 309.062 -1.36498 -1.30002 0
M  V30 3171 C 306.189 -2.70446 -2.03903 0
M  V30 3172 C 305.235 -3.89428 -1.7392 0
M  V30 3173 S 306.068 -5.28048 -0.890265 0
M  V30 3174 C 307.224 -5.87085 -2.16984 0
M  V30 3175 H 307.457 -2.96042 -0.273204 0
M  V30 3176 H 304.99 -1.54383 -0.0231975 0
M  V30 3177 H 306.948 -3.03134 -2.76803 0
M  V30 3178 H 305.609 -1.89281 -2.50662 0
M  V30 3179 H 304.802 -4.26742 -2.68155 0
M  V30 3180 H 304.404 -3.57732 -1.09103 0
M  V30 3181 H 306.696 -6.01244 -3.12269 0
M  V30 3182 H 307.639 -6.83747 -1.84108 0
M  V30 3183 H 308.047 -5.15663 -2.29678 0
M  V30 3184 N 307.445 0.0818655 -1.57387 0
M  V30 3185 C 308.856 0.634871 -1.75574 0
M  V30 3186 C 309.207 1.78435 -0.815809 0
M  V30 3187 O 308.332 2.164 0.0025366 0
M  V30 3188 C 308.927 1.15845 -3.18379 0
M  V30 3189 C 307.486 1.65741 -3.37945 0
M  V30 3190 C 306.633 0.572549 -2.71325 0
M  V30 3191 H 309.584 -0.144268 -1.58043 0
M  V30 3192 H 309.605 2.02751 -3.21982 0
M  V30 3193 H 309.117 0.321631 -3.86765 0
M  V30 3194 H 307.218 2.51781 -2.74658 0
M  V30 3195 H 307.331 1.74129 -4.46336 0
M  V30 3196 H 305.695 1.01518 -2.33594 0
M  V30 3197 H 306.478 -0.253918 -3.4236 0
M  V30 3198 N 308.923 1.53595 0.353017 0
M  V30 3199 C 309.873 1.77299 1.43349 0
M  V30 3200 C 310.857 0.627884 1.48143 0
M  V30 3201 O 312.049 0.88697 1.53173 0
M  V30 3202 C 309.178 1.97757 2.80619 0
M  V30 3203 C 308.264 3.18305 2.80254 0
M  V30 3204 N 308.655 4.39967 2.49526 0
M  V30 3205 C 306.953 3.19283 3.11407 0
M  V30 3206 C 307.654 5.21772 2.57156 0
M  V30 3207 N 306.63 4.58269 2.92388 0
M  V30 3208 H 310.432 2.68963 1.18474 0
M  V30 3209 H 307.946 1.52391 0.561306 0
M  V30 3210 H 309.943 2.1287 3.58458 0
M  V30 3211 H 308.603 1.07329 3.06448 0
M  V30 3212 H 309.614 4.67482 2.22893 0
M  V30 3213 H 306.291 2.3879 3.4247 0
M  V30 3214 H 307.681 6.2885 2.36638 0
M  V30 3215 N 310.401 -0.613514 1.45168 0
M  V30 3216 C 311.631 -1.39743 1.52169 0
M  V30 3217 C 312.039 -1.88596 0.151086 0
M  V30 3218 O 311.382 -1.6251 -0.856521 0
M  V30 3219 C 311.444 -2.64035 2.43979 0
M  V30 3220 C 311.108 -2.36861 3.90827 0
M  V30 3221 C 312.105 -1.97591 4.80889 0
M  V30 3222 C 309.79 -2.49956 4.35692 0
M  V30 3223 C 311.784 -1.71768 6.1382 0
M  V30 3224 C 309.471 -2.23747 5.68665 0
M  V30 3225 C 310.469 -1.84714 6.57548 0
M  V30 3226 O 310.157 -1.58809 7.88058 0
M  V30 3227 H 309.889 -0.434382 0.517966 0
M  V30 3228 H 312.443 -0.75587 1.90986 0
M  V30 3229 H 310.673 -3.3089 2.00122 0
M  V30 3230 H 312.362 -3.26069 2.41731 0
M  V30 3231 H 313.128 -1.87015 4.47493 0
M  V30 3232 H 309.007 -2.79305 3.66756 0
M  V30 3233 H 312.551 -1.41227 6.83155 0
M  V30 3234 H 308.448 -2.33938 6.01617 0
M  V30 3235 H 309.216 -1.7291 8.00028 0
M  V30 3236 N 311.879 -1.3236 -0.855495 0
M  V30 3237 C 313.29 -1.2056 -1.42556 0
M  V30 3238 C 313.641 0.182209 -1.95352 0
M  V30 3239 O 312.766 1.08088 -1.87472 0
M  V30 3240 C 313.361 -2.1826 -2.59129 0
M  V30 3241 C 311.92 -2.10351 -3.12137 0
M  V30 3242 C 311.067 -2.06674 -1.84882 0
M  V30 3243 H 314.018 -1.442 -0.662727 0
M  V30 3244 H 314.039 -1.78064 -3.36264 0
M  V30 3245 H 313.551 -3.19257 -2.20673 0
M  V30 3246 H 311.652 -1.12599 -3.55179 0
M  V30 3247 H 311.765 -3.00135 -3.73438 0
M  V30 3248 H 310.129 -1.51901 -2.04446 0
M  V30 3249 H 310.912 -3.09451 -1.48643 0
M  V30 3250 N 313.357 1.07166 -1.15556 0
M  V30 3251 C 314.606 1.79181 -0.926132 0
M  V30 3252 C 314.919 1.87768 0.547967 0
M  V30 3253 O 316.125 2.56323 0.895036 0
M  V30 3254 C 314.581 3.22 -1.60761 0
M  V30 3255 C 314.189 3.21607 -3.11886 0
M  V30 3256 C 315.933 3.9861 -1.4598 0
M  V30 3257 C 313.84 4.59092 -3.72812 0
M  V30 3258 H 312.77 0.67154 -0.342856 0
M  V30 3259 H 315.421 1.2027 -1.3859 0
M  V30 3260 H 313.803 3.81115 -1.07553 0
M  V30 3261 H 314.977 2.72127 -3.71865 0
M  V30 3262 H 313.292 2.58495 -3.2645 0
M  V30 3263 H 315.889 5.00225 -1.88888 0
M  V30 3264 H 316.232 4.143 -0.407541 0
M  V30 3265 H 316.765 3.45996 -1.96295 0
M  V30 3266 H 313.504 4.48606 -4.77946 0
M  V30 3267 H 313.024 5.08803 -3.17616 0
M  V30 3268 H 314.703 5.28059 -3.73848 0
M  V30 3269 N 314.835 0.952656 1.25548 0
M  V30 3270 C 316.065 0.622592 1.96996 0
M  V30 3271 C 316.473 -0.809112 1.71026 0
M  V30 3272 O 315.816 -1.55258 0.981861 0
M  V30 3273 C 315.878 0.798946 3.5051 0
M  V30 3274 C 315.542 2.20744 4.00151 0
M  V30 3275 C 316.539 3.18394 4.11001 0
M  V30 3276 C 314.224 2.5311 4.33867 0
M  V30 3277 C 316.218 4.46504 4.54877 0
M  V30 3278 C 313.905 3.8145 4.7743 0
M  V30 3279 C 314.903 4.77959 4.87897 0
M  V30 3280 O 314.591 6.04012 5.30494 0
M  V30 3281 H 314.323 0.232503 0.634758 0
M  V30 3282 H 316.877 1.2789 1.60728 0
M  V30 3283 H 315.107 0.0854903 3.86605 0
M  V30 3284 H 316.796 0.47023 4.03167 0
M  V30 3285 H 317.562 2.94715 3.85186 0
M  V30 3286 H 313.441 1.78719 4.24948 0
M  V30 3287 H 316.985 5.21835 4.62962 0
M  V30 3288 H 312.882 4.04936 5.0269 0
M  V30 3289 H 313.65 6.0736 5.48685 0
M  V30 3290 N 316.313 -1.40141 0.720998 0
M  V30 3291 C 317.559 -2.01084 0.263231 0
M  V30 3292 C 317.892 -1.57052 -1.14229 0
M  V30 3293 O 317.167 -0.793027 -1.77599 0
M  V30 3294 C 317.45 -3.58401 0.349344 0
M  V30 3295 C 317.303 -4.12491 1.79363 0
M  V30 3296 C 318.622 -4.39231 -0.276351 0
M  V30 3297 H 315.741 -0.730572 0.0971228 0
M  V30 3298 H 318.383 -1.66543 0.914518 0
M  V30 3299 H 316.533 -3.87958 -0.205165 0
M  V30 3300 H 318.205 -3.93711 2.40394 0
M  V30 3301 H 316.448 -3.66576 2.31958 0
M  V30 3302 H 317.119 -5.21646 1.80524 0
M  V30 3303 H 319.595 -4.15637 0.196184 0
M  V30 3304 H 318.471 -5.48586 -0.185681 0
M  V30 3305 H 318.732 -4.20643 -1.36059 0
M  V30 3306 N 317.792 -0.46758 -1.50504 0
M  V30 3307 C 319.203 -0.0116166 -1.86696 0
M  V30 3308 C 319.554 1.39202 -1.38265 0
M  V30 3309 O 318.679 2.0313 -0.746132 0
M  V30 3310 C 319.274 -0.0143044 -3.38797 0
M  V30 3311 C 317.833 0.386175 -3.74414 0
M  V30 3312 C 316.98 -0.401287 -2.74381 0
M  V30 3313 H 319.931 -0.682022 -1.43297 0
M  V30 3314 H 319.952 0.788641 -3.72237 0
M  V30 3315 H 319.464 -1.03602 -3.74016 0
M  V30 3316 H 317.565 1.41237 -3.44794 0
M  V30 3317 H 317.678 0.0899596 -4.79016 0
M  V30 3318 H 316.042 0.144536 -2.5429 0
M  V30 3319 H 316.825 -1.42244 -3.12444 0
M  V30 3320 N 319.27 1.56325 -0.20005 0
M  V30 3321 C 320.2 2.22318 0.713916 0
M  V30 3322 C 321.181 1.18788 1.21752 0
M  V30 3323 O 322.366 1.47309 1.26545 0
M  V30 3324 C 319.496 2.88639 1.93144 0
M  V30 3325 C 318.45 3.98457 1.56255 0
M  V30 3326 C 317.776 4.51967 2.85709 0
M  V30 3327 C 319.076 5.16612 0.768747 0
M  V30 3328 H 320.77 2.98952 0.163755 0
M  V30 3329 H 318.316 1.43792 0.0773219 0
M  V30 3330 H 320.269 3.33491 2.57608 0
M  V30 3331 H 318.993 2.09419 2.50621 0
M  V30 3332 H 317.652 3.54305 0.941471 0
M  V30 3333 H 317.3 3.69503 3.41287 0
M  V30 3334 H 317 5.26071 2.6177 0
M  V30 3335 H 318.524 4.99523 3.51154 0
M  V30 3336 H 319.938 5.57977 1.3166 0
M  V30 3337 H 318.335 5.96812 0.627286 0
M  V30 3338 H 319.405 4.84358 -0.229168 0
M  V30 3339 N 320.748 -0.0735177 1.57428 0
M  V30 3340 C 321.678 -1.0879 2.06608 0
M  V30 3341 C 322.659 -1.40473 0.959237 0
M  V30 3342 O 323.844 -1.5013 1.23185 0
M  V30 3343 C 320.974 -2.40183 2.50857 0
M  V30 3344 C 319.928 -2.22858 3.65402 0
M  V30 3345 C 319.254 -3.59619 3.957 0
M  V30 3346 C 320.554 -1.65123 4.95511 0
M  V30 3347 H 322.248 -0.678673 2.91607 0
M  V30 3348 H 319.794 -0.325013 1.40284 0
M  V30 3349 H 321.747 -3.11437 2.83874 0
M  V30 3350 H 320.471 -2.83083 1.62885 0
M  V30 3351 H 319.13 -1.54045 3.32664 0
M  V30 3352 H 318.778 -4.00086 3.04861 0
M  V30 3353 H 318.478 -3.48866 4.72828 0
M  V30 3354 H 320.002 -4.32306 4.31212 0
M  V30 3355 H 321.416 -2.26241 5.26771 0
M  V30 3356 H 319.813 -1.65071 5.7695 0
M  V30 3357 H 320.883 -0.612559 4.81015 0
M  V30 3358 N 322.226 -1.5378 -0.344866 0
M  V30 3359 C 323.637 -1.62428 -0.920552 0
M  V30 3360 C 323.988 -0.504747 -1.89596 0
M  V30 3361 O 323.113 0.365711 -2.13287 0
M  V30 3362 C 323.708 -2.94419 -1.67639 0
M  V30 3363 C 322.267 -3.05333 -2.20111 0
M  V30 3364 C 321.414 -2.57866 -1.01982 0
M  V30 3365 H 324.365 -1.58222 -0.123042 0
M  V30 3366 H 324.386 -2.83384 -2.53917 0
M  V30 3367 H 323.898 -3.7588 -0.966224 0
M  V30 3368 H 321.999 -2.28502 -2.94308 0
M  V30 3369 H 322.112 -4.10778 -2.46573 0
M  V30 3370 H 320.476 -2.13241 -1.39285 0
M  V30 3371 H 321.259 -3.41765 -0.324308 0
M  V30 3372 N 323.704 0.605807 -1.45491 0
M  V30 3373 C 324.981 1.36522 -1.40075 0
M  V30 3374 C 325.361 2.10976 -0.0722744 0
M  V30 3375 O 324.709 2.08007 0.945808 0
M  V30 3376 C 324.919 2.31056 -2.61561 0
M  V30 3377 C 326.267 2.93608 -3.06724 0
M  V30 3378 O 327.291 2.41376 -2.61946 0
M  V30 3379 O 326.15 3.88421 -3.84437 0
M  V30 3380 H 323.244 0.612248 -0.555951 0
M  V30 3381 H 325.79 0.628747 -1.57623 0
M  V30 3382 H 324.562 1.75311 -3.49831 0
M  V30 3383 H 324.185 3.12081 -2.46356 0
M  V30 3384 N 325.182 1.32811 0.848464 0
M  V30 3385 C 326.145 1.22194 1.9391 0
M  V30 3386 C 327.145 0.143404 1.60159 0
M  V30 3387 O 328.335 0.394253 1.6968 0
M  V30 3388 C 325.467 0.88067 3.29328 0
M  V30 3389 H 326.66 2.19127 2.04752 0
M  V30 3390 H 324.213 1.16731 1.0394 0
M  V30 3391 H 324.948 -0.0865776 3.24184 0
M  V30 3392 H 324.733 1.66052 3.55203 0
M  V30 3393 H 326.223 0.830871 4.09251 0
M  V30 3394 N 326.66 -1.06551 1.16123 0
M  V30 3395 C 327.623 -2.12132 0.867906 0
M  V30 3396 C 328.623 -1.60224 -0.135944 0
M  V30 3397 O 329.813 -1.73943 0.0946422 0
M  V30 3398 C 326.945 -3.396 0.297419 0
M  V30 3399 H 328.138 -2.39586 1.80385 0
M  V30 3400 H 325.691 -1.22574 0.969812 0
M  V30 3401 H 326.426 -3.17794 -0.64633 0
M  V30 3402 H 326.211 -3.78581 1.02073 0
M  V30 3403 H 327.701 -4.17455 0.110052 0
M  V30 3404 N 328.138 -0.959301 -1.25041 0
M  V30 3405 C 329.07 -0.440543 -2.24926 0
M  V30 3406 C 330.083 0.446131 -1.56568 0
M  V30 3407 O 331.272 0.253657 -1.76689 0
M  V30 3408 C 328.372 0.38412 -3.36716 0
M  V30 3409 C 327.545 -0.490658 -4.34639 0
M  V30 3410 C 326.604 0.276587 -5.25473 0
M  V30 3411 O 325.63 -0.326614 -5.68262 0
M  V30 3412 N 326.832 1.56844 -5.5891 0
M  V30 3413 H 329.597 -1.29931 -2.70071 0
M  V30 3414 H 327.158 -0.830181 -1.38995 0
M  V30 3415 H 329.15 0.905228 -3.94446 0
M  V30 3416 H 327.72 1.14377 -2.90924 0
M  V30 3417 H 326.94 -1.19282 -3.7572 0
M  V30 3418 H 328.228 -1.08756 -4.97041 0
M  V30 3419 H 327.626 2.08036 -5.26059 0
M  V30 3420 H 326.183 2.03541 -6.19205 0
M  V30 3421 N 329.616 1.39756 -0.72842 0
M  V30 3422 C 330.526 2.34444 -0.0855374 0
M  V30 3423 C 331.542 1.57976 0.729356 0
M  V30 3424 O 332.718 1.90301 0.659346 0
M  V30 3425 C 329.783 3.36965 0.815798 0
M  V30 3426 C 328.844 4.29299 -0.0105996 0
M  V30 3427 C 328.077 5.26923 0.84781 0
M  V30 3428 O 328.3 5.30859 2.08673 0
M  V30 3429 O 327.234 6.01249 0.279969 0
M  V30 3430 H 331.06 2.91065 -0.866892 0
M  V30 3431 H 328.645 1.4117 -0.48902 0
M  V30 3432 H 330.527 3.99804 1.33171 0
M  V30 3433 H 329.202 2.82739 1.57608 0
M  V30 3434 H 328.109 3.69703 -0.571877 0
M  V30 3435 H 329.442 4.86712 -0.73295 0
M  V30 3436 N 331.094 0.475555 1.50254 0
M  V30 3437 C 332.319 -0.0777042 2.07254 0
M  V30 3438 C 332.744 -1.3235 1.3366 0
M  V30 3439 O 332.102 -1.77152 0.385597 0
M  V30 3440 C 332.15 -0.340169 3.58992 0
M  V30 3441 O 331.254 -1.41982 3.87188 0
M  V30 3442 H 330.595 0.0149556 0.663832 0
M  V30 3443 H 333.125 0.667878 1.93392 0
M  V30 3444 H 333.135 -0.579332 4.03866 0
M  V30 3445 H 331.81 0.570167 4.11973 0
M  V30 3446 H 330.387 -1.16762 3.54148 0
M  V30 3447 N 332.573 -1.56217 0.208337 0
M  V30 3448 C 333.506 -2.15633 -0.746842 0
M  V30 3449 C 334.484 -1.09685 -1.20034 0
M  V30 3450 O 335.668 -1.3787 -1.28547 0
M  V30 3451 C 332.795 -2.72594 -2.01023 0
M  V30 3452 C 331.841 -3.91251 -1.69779 0
M  V30 3453 S 332.674 -5.28962 -0.834209 0
M  V30 3454 C 333.83 -5.89353 -2.10745 0
M  V30 3455 H 334.063 -2.96315 -0.241789 0
M  V30 3456 H 331.596 -1.54398 -0.00682183 0
M  V30 3457 H 333.554 -3.06053 -2.73572 0
M  V30 3458 H 332.215 -1.91929 -2.48641 0
M  V30 3459 H 331.408 -4.29562 -2.63614 0
M  V30 3460 H 331.01 -3.58869 -1.05303 0
M  V30 3461 H 333.302 -6.04522 -3.05875 0
M  V30 3462 H 334.245 -6.85661 -1.76845 0
M  V30 3463 H 334.653 -5.1807 -2.24196 0
M  V30 3464 N 334.051 0.0651679 -1.57465 0
M  V30 3465 C 335.299 0.761555 -1.87202 0
M  V30 3466 C 335.62 1.77778 -0.801243 0
M  V30 3467 O 334.89 1.95166 0.16937 0
M  V30 3468 H 333.47 0.284251 -0.690804 0
M  V30 3469 H 336.132 0.0396827 -1.9486 0
M  V30 3470 H 335.228 1.27365 -2.84929 0
M  V30 3471 N 335.529 1.53961 0.336706 0
M  V30 3472 C 336.461 1.78751 1.4346 0
M  V30 3473 C 337.474 0.669019 1.48418 0
M  V30 3474 O 338.663 0.945884 1.51378 0
M  V30 3475 C 335.763 1.87844 2.82078 0
M  V30 3476 C 334.936 3.17854 3.00479 0
M  V30 3477 C 333.995 3.17816 4.19379 0
M  V30 3478 O 333.021 3.91511 4.13168 0
M  V30 3479 N 334.223 2.40669 5.2826 0
M  V30 3480 H 336.988 2.73493 1.22563 0
M  V30 3481 H 334.549 1.53096 0.526625 0
M  V30 3482 H 336.541 1.85261 3.59806 0
M  V30 3483 H 335.111 1.00257 2.96086 0
M  V30 3484 H 334.331 3.33504 2.10163 0
M  V30 3485 H 335.619 4.03718 3.0966 0
M  V30 3486 H 335.017 1.8036 5.36178 0
M  V30 3487 H 333.574 2.43877 6.04456 0
M  V30 3488 N 337.007 -0.598083 1.45811 0
M  V30 3489 C 338.253 -1.35882 1.50545 0
M  V30 3490 C 338.586 -1.93616 0.150445 0
M  V30 3491 O 337.861 -1.75604 -0.83628 0
M  V30 3492 C 338.144 -2.49966 2.59208 0
M  V30 3493 C 337.997 -1.97367 4.04186 0
M  V30 3494 C 339.316 -3.52068 2.64076 0
M  V30 3495 H 336.435 -0.492717 0.548087 0
M  V30 3496 H 339.077 -0.673319 1.77669 0
M  V30 3497 H 337.227 -3.08443 2.3621 0
M  V30 3498 H 338.899 -1.43466 4.38423 0
M  V30 3499 H 337.142 -1.283 4.14393 0
M  V30 3500 H 337.813 -2.79649 4.75921 0
M  V30 3501 H 340.289 -3.03448 2.84708 0
M  V30 3502 H 339.165 -4.2937 3.41954 0
M  V30 3503 H 339.426 -4.08304 1.69531 0
M  V30 3504 N 338.485 -1.33259 -0.841409 0
M  V30 3505 C 339.435 -1.19872 -1.93945 0
M  V30 3506 C 340.419 -0.102269 -1.60575 0
M  V30 3507 O 341.611 -0.330114 -1.73894 0
M  V30 3508 C 338.74 -0.937517 -3.30251 0
M  V30 3509 C 337.826 -2.07629 -3.69799 0
M  V30 3510 N 338.217 -3.32604 -3.81062 0
M  V30 3511 C 336.515 -1.98242 -3.9952 0
M  V30 3512 C 337.216 -4.07275 -4.15333 0
M  V30 3513 N 336.192 -3.35691 -4.27566 0
M  V30 3514 H 339.994 -2.14604 -2.00805 0
M  V30 3515 H 337.508 -1.2523 -1.03398 0
M  V30 3516 H 339.505 -0.822545 -4.08705 0
M  V30 3517 H 338.165 0.00128798 -3.247 0
M  V30 3518 H 339.176 -3.67382 -3.65035 0
M  V30 3519 H 335.853 -1.12005 -4.02195 0
M  V30 3520 H 337.243 -5.1511 -4.31406 0
M  V30 3521 N 339.963 1.05934 -1.16686 0
M  V30 3522 C 341.374 1.60263 -0.957745 0
M  V30 3523 C 341.725 1.89789 0.49745 0
M  V30 3524 O 340.85 1.67401 1.37135 0
M  V30 3525 C 341.445 2.91172 -1.73218 0
M  V30 3526 C 340.004 3.42188 -1.56794 0
M  V30 3527 C 339.151 2.16028 -1.73859 0
M  V30 3528 H 342.102 0.888392 -1.31504 0
M  V30 3529 H 342.123 3.60744 -1.21014 0
M  V30 3530 H 341.635 2.6965 -2.79124 0
M  V30 3531 H 339.736 3.68762 -0.533437 0
M  V30 3532 H 339.849 4.17273 -2.35414 0
M  V30 3533 H 338.213 2.26426 -1.16633 0
M  V30 3534 H 338.996 1.96985 -2.81161 0
M  V30 3535 N 341.441 0.965919 1.2453 0
M  V30 3536 C 342.857 0.67216 1.44756 0
M  V30 3537 C 343.057 -0.766609 1.86347 0
M  V30 3538 O 342.113 -1.5407 2.00047 0
M  V30 3539 C 343.426 1.65473 2.51076 0
M  V30 3540 C 344.974 1.66716 2.64905 0
M  V30 3541 C 345.449 2.63766 3.74421 0
M  V30 3542 N 346.94 2.62198 3.81846 0
M  V30 3543 C 347.675 3.33966 4.66106 0
M  V30 3544 N 347.171 4.15245 5.54566 0
M  V30 3545 N 348.964 3.22799 4.60171 0
M  V30 3546 H 341.115 1.89553 0.958293 0
M  V30 3547 H 343.378 0.815979 0.482579 0
M  V30 3548 H 343.084 2.68296 2.27399 0
M  V30 3549 H 342.958 1.4261 3.49202 0
M  V30 3550 H 345.345 0.646057 2.87941 0
M  V30 3551 H 345.426 1.93642 1.67142 0
M  V30 3552 H 345.07 3.6601 3.52135 0
M  V30 3553 H 345 2.34121 4.71694 0
M  V30 3554 H 347.491 2.032 3.18619 0
M  V30 3555 H 347.804 4.66898 6.15814 0
M  V30 3556 H 346.149 4.1934 5.54237 0
M  V30 3557 H 349.34 2.58764 3.90075 0
M  V30 3558 H 349.513 3.78994 5.25612 0
M  V30 3559 N 342.919 -1.39368 0.735821 0
M  V30 3560 C 343.882 -2.2896 0.104874 0
M  V30 3561 C 344.882 -1.46347 -0.666274 0
M  V30 3562 O 346.072 -1.67014 -0.49517 0
M  V30 3563 C 343.204 -3.29857 -0.860656 0
M  V30 3564 H 344.397 -2.86259 0.894205 0
M  V30 3565 H 341.95 -1.48029 0.501704 0
M  V30 3566 H 342.685 -2.77615 -1.67631 0
M  V30 3567 H 342.47 -3.9087 -0.310327 0
M  V30 3568 H 343.96 -3.96893 -1.29867 0
M  V30 3569 N 344.397 -0.483516 -1.5 0
M  V30 3570 C 345.329 0.340634 -2.26655 0
M  V30 3571 C 346.342 0.946152 -1.32483 0
M  V30 3572 O 347.531 0.832453 -1.579 0
M  V30 3573 C 344.631 1.4929 -3.04246 0
M  V30 3574 C 343.804 0.997903 -4.25865 0
M  V30 3575 C 342.863 2.02569 -4.85646 0
M  V30 3576 O 341.889 1.60128 -5.46212 0
M  V30 3577 N 343.091 3.3548 -4.73744 0
M  V30 3578 H 345.856 -0.316577 -2.98023 0
M  V30 3579 H 343.417 -0.315024 -1.58806 0
M  V30 3580 H 345.409 2.17766 -3.41116 0
M  V30 3581 H 343.979 2.05458 -2.35597 0
M  V30 3582 H 343.199 0.138617 -3.93956 0
M  V30 3583 H 344.487 0.645305 -5.04691 0
M  V30 3584 H 343.885 3.72661 -4.25605 0
M  V30 3585 H 342.442 3.99718 -5.14848 0
M  V30 3586 N 345.875 1.56104 -0.216619 0
M  V30 3587 C 347.124 1.97348 0.416744 0
M  V30 3588 C 347.437 1.10715 1.6125 0
M  V30 3589 O 348.643 1.41836 2.31506 0
M  V30 3590 C 347.099 3.51059 0.792835 0
M  V30 3591 C 346.707 4.46387 -0.379828 0
M  V30 3592 C 348.451 4.01026 1.39208 0
M  V30 3593 C 346.358 5.91397 0.0184223 0
M  V30 3594 H 345.288 0.736942 0.159475 0
M  V30 3595 H 347.939 1.80827 -0.31205 0
M  V30 3596 H 346.321 3.63162 1.57891 0
M  V30 3597 H 347.495 4.46029 -1.15737 0
M  V30 3598 H 345.81 4.06734 -0.891979 0
M  V30 3599 H 348.407 5.0686 1.70286 0
M  V30 3600 H 348.75 3.46587 2.30614 0
M  V30 3601 H 349.283 3.92125 0.669537 0
M  V30 3602 H 346.022 6.49807 -0.862002 0
M  V30 3603 H 345.542 5.94961 0.760384 0
M  V30 3604 H 347.221 6.45455 0.446818 0
M  V30 3605 N 347.353 -0.0568162 1.57498 0
M  V30 3606 C 348.581 -0.765626 1.92213 0
M  V30 3607 C 348.996 -1.70353 0.813961 0
M  V30 3608 O 348.353 -1.81268 -0.211701 0
M  V30 3609 C 348.404 -1.5465 3.2675 0
M  V30 3610 O 348.125 -0.646278 4.33307 0
M  V30 3611 C 349.626 -2.35497 3.75574 0
M  V30 3612 H 346.846 -0.216835 0.634999 0
M  V30 3613 H 349.39 -0.0226146 2.04487 0
M  V30 3614 H 347.545 -2.24165 3.15957 0
M  V30 3615 H 347.959 -1.19093 5.108 0
M  V30 3616 H 349.433 -2.85722 4.72299 0
M  V30 3617 H 349.91 -3.15692 3.05344 0
M  V30 3618 H 350.516 -1.7111 3.8936 0
M  V30 3619 N 348.832 -1.54138 -0.328536 0
M  V30 3620 C 350.079 -1.72105 -1.06706 0
M  V30 3621 C 350.407 -0.492111 -1.88171 0
M  V30 3622 O 349.662 0.526153 -1.88494 0
M  V30 3623 C 349.961 -2.9457 -2.02393 0
M  V30 3624 C 349.627 -4.29544 -1.37122 0
M  V30 3625 C 348.289 -4.6624 -1.19052 0
M  V30 3626 C 350.641 -5.1333 -0.902331 0
M  V30 3627 C 347.969 -5.84325 -0.527331 0
M  V30 3628 C 350.321 -6.32094 -0.252988 0
M  V30 3629 C 348.985 -6.67473 -0.0600901 0
M  V30 3630 H 348.255 -0.629775 -0.390466 0
M  V30 3631 H 350.902 -1.88372 -0.34473 0
M  V30 3632 H 349.207 -2.72969 -2.81061 0
M  V30 3633 H 350.904 -3.05665 -2.59557 0
M  V30 3634 H 347.494 -4.0067 -1.52188 0
M  V30 3635 H 351.678 -4.855 -1.02974 0
M  V30 3636 H 346.934 -6.103 -0.366634 0
M  V30 3637 H 351.108 -6.96299 0.118366 0
M  V30 3638 H 348.735 -7.58832 0.455828 0
M  V30 3639 N 350.31 0.590341 -1.46126 0
M  V30 3640 C 351.587 1.35029 -1.41515 0
M  V30 3641 C 351.967 2.10888 -0.0946472 0
M  V30 3642 O 351.315 2.08998 0.923693 0
M  V30 3643 C 351.525 2.28269 -2.63997 0
M  V30 3644 C 352.873 2.90338 -3.09821 0
M  V30 3645 O 353.897 2.38585 -2.64492 0
M  V30 3646 O 352.756 3.84321 -3.88535 0
M  V30 3647 H 349.85 0.606317 -0.562413 0
M  V30 3648 H 352.396 0.611994 -1.58281 0
M  V30 3649 H 351.168 1.71591 -3.51671 0
M  V30 3650 H 350.791 3.0945 -2.49652 0
M  V30 3651 N 351.788 1.33704 0.83433 0
M  V30 3652 C 353.037 1.24763 1.58484 0
M  V30 3653 C 353.35 -0.183775 1.94735 0
M  V30 3654 O 354.556 -0.395234 2.68608 0
M  V30 3655 C 353.012 2.18638 2.85876 0
M  V30 3656 C 352.62 3.66974 2.56971 0
M  V30 3657 C 354.364 2.18581 3.63899 0
M  V30 3658 C 352.271 4.5275 3.80488 0
M  V30 3659 H 351.201 0.463425 0.594772 0
M  V30 3660 H 353.852 1.58797 0.919551 0
M  V30 3661 H 352.234 1.77542 3.5397 0
M  V30 3662 H 353.408 4.16538 1.9706 0
M  V30 3663 H 351.723 3.69366 1.92244 0
M  V30 3664 H 354.32 2.79894 4.55591 0
M  V30 3665 H 354.663 1.18207 3.99165 0
M  V30 3666 H 355.196 2.58062 3.02735 0
M  V30 3667 H 351.935 5.54017 3.5035 0
M  V30 3668 H 351.455 4.07927 4.39722 0
M  V30 3669 H 353.134 4.66784 4.4802 0
M  V30 3670 N 353.266 -1.05314 1.17247 0
M  V30 3671 C 354.196 -2.1498 0.911362 0
M  V30 3672 C 355.177 -1.69471 -0.146169 0
M  V30 3673 O 356.362 -1.942 0.003812 0
M  V30 3674 C 353.492 -3.4472 0.422528 0
M  V30 3675 C 352.446 -4.03789 1.4191 0
M  V30 3676 C 351.772 -5.28858 0.788274 0
M  V30 3677 C 353.072 -4.41418 2.7919 0
M  V30 3678 H 354.766 -2.3708 1.82848 0
M  V30 3679 H 352.312 -1.13938 0.880569 0
M  V30 3680 H 354.265 -4.20787 0.227289 0
M  V30 3681 H 352.989 -3.22269 -0.530123 0
M  V30 3682 H 351.648 -3.2979 1.60106 0
M  V30 3683 H 351.296 -5.02709 -0.171173 0
M  V30 3684 H 350.996 -5.69338 1.45353 0
M  V30 3685 H 352.52 -6.07612 0.603282 0
M  V30 3686 H 353.934 -5.08524 2.64719 0
M  V30 3687 H 352.331 -4.92913 3.42282 0
M  V30 3688 H 353.401 -3.51819 3.33693 0
M  V30 3689 N 354.744 -0.972509 -1.24016 0
M  V30 3690 C 355.677 -0.45117 -2.23696 0
M  V30 3691 C 356.655 0.477378 -1.55434 0
M  V30 3692 O 357.839 0.407647 -1.84039 0
M  V30 3693 C 354.966 0.34818 -3.36906 0
M  V30 3694 C 354.012 -0.523355 -4.23277 0
M  V30 3695 S 354.845 -1.96647 -4.98087 0
M  V30 3696 C 356.001 -1.17604 -6.14752 0
M  V30 3697 H 356.234 -1.29588 -2.67571 0
M  V30 3698 H 353.767 -0.777903 -1.33372 0
M  V30 3699 H 355.725 0.803387 -4.02562 0
M  V30 3700 H 354.386 1.16792 -2.91579 0
M  V30 3701 H 353.579 0.0906181 -5.03919 0
M  V30 3702 H 353.181 -0.914485 -3.62647 0
M  V30 3703 H 355.473 -0.433434 -6.76112 0
M  V30 3704 H 356.416 -1.95701 -6.8052 0
M  V30 3705 H 356.824 -0.698295 -5.60164 0
M  V30 3706 N 356.222 1.38976 -0.743202 0
M  V30 3707 C 357.638 1.53984 -0.419664 0
M  V30 3708 C 357.838 1.70837 1.0685 0
M  V30 3709 O 356.894 1.7135 1.8546 0
M  V30 3710 C 358.207 2.75287 -1.20985 0
M  V30 3711 C 359.755 2.89129 -1.19889 0
M  V30 3712 C 360.23 4.13381 -1.97181 0
M  V30 3713 N 361.721 4.20437 -1.94389 0
M  V30 3714 C 362.456 5.15547 -2.50996 0
M  V30 3715 N 361.952 6.16395 -3.16274 0
M  V30 3716 N 363.745 5.07822 -2.40984 0
M  V30 3717 H 355.896 1.26285 -1.7078 0
M  V30 3718 H 358.159 0.612689 -0.723406 0
M  V30 3719 H 357.865 2.69204 -2.26323 0
M  V30 3720 H 357.739 3.68184 -0.819759 0
M  V30 3721 H 360.126 2.947 -0.153606 0
M  V30 3722 H 360.207 1.97272 -1.62841 0
M  V30 3723 H 359.851 4.08572 -3.01714 0
M  V30 3724 H 359.781 5.04298 -1.51629 0
M  V30 3725 H 362.272 3.48205 -1.46839 0
M  V30 3726 H 362.585 6.85443 -3.56915 0
M  V30 3727 H 360.93 6.16758 -3.20367 0
M  V30 3728 H 364.121 4.27973 -1.89622 0
M  V30 3729 H 364.294 5.81767 -2.85397 0
M  V30 3730 N 357.7 0.491464 1.49741 0
M  V30 3731 C 358.61 -0.296835 2.32715 0
M  V30 3732 C 359.626 -0.976536 1.44013 0
M  V30 3733 O 360.802 -0.960023 1.77047 0
M  V30 3734 C 357.867 -1.35288 3.19215 0
M  V30 3735 C 356.928 -0.687632 4.23757 0
M  V30 3736 C 356.161 -1.69336 5.06123 0
M  V30 3737 O 356.384 -2.92219 4.89861 0
M  V30 3738 O 355.318 -1.25394 5.88693 0
M  V30 3739 H 359.144 0.382048 3.01287 0
M  V30 3740 H 356.729 0.252953 1.47243 0
M  V30 3741 H 358.611 -1.96411 3.72828 0
M  V30 3742 H 357.286 -2.01487 2.53347 0
M  V30 3743 H 356.193 -0.0369159 3.74082 0
M  V30 3744 H 357.526 -0.0682566 4.92153 0
M  V30 3745 N 359.178 -1.55987 0.224894 0
M  V30 3746 C 360.426 -1.97998 -0.405099 0
M  V30 3747 C 360.747 -1.11387 -1.60056 0
M  V30 3748 O 360.017 -0.191645 -1.9496 0
M  V30 3749 H 358.597 -0.731235 -0.152658 0
M  V30 3750 H 361.259 -1.92279 0.318567 0
M  V30 3751 H 360.355 -3.03463 -0.729167 0
M  V30 3752 N 360.656 0.0484629 -1.57525 0
M  V30 3753 C 361.903 0.743125 -1.88372 0
M  V30 3754 C 362.231 1.76383 -0.819715 0
M  V30 3755 O 361.486 1.94855 0.181659 0
M  V30 3756 C 361.785 1.46632 -3.25935 0
M  V30 3757 C 361.451 0.583427 -4.4711 0
M  V30 3758 C 360.113 0.340191 -4.79996 0
M  V30 3759 C 362.465 -0.0273345 -5.21193 0
M  V30 3760 C 359.793 -0.522903 -5.84365 0
M  V30 3761 C 362.145 -0.878017 -6.26477 0
M  V30 3762 C 360.809 -1.1309 -6.5785 0
M  V30 3763 H 360.079 0.271929 -0.689301 0
M  V30 3764 H 362.726 0.00336166 -1.915 0
M  V30 3765 H 361.031 2.2789 -3.18706 0
M  V30 3766 H 362.728 2.00902 -3.47044 0
M  V30 3767 H 359.318 0.783151 -4.21384 0
M  V30 3768 H 363.502 0.147654 -4.9608 0
M  V30 3769 H 358.758 -0.727335 -6.07058 0
M  V30 3770 H 362.932 -1.35789 -6.83033 0
M  V30 3771 H 360.559 -1.80144 -7.38547 0
M  V30 3772 N 362.134 1.5431 0.320358 0
M  V30 3773 C 363.044 1.86946 1.41734 0
M  V30 3774 C 364.06 0.761689 1.56443 0
M  V30 3775 O 365.236 1.05629 1.71477 0
M  V30 3776 C 362.301 2.09293 2.76401 0
M  V30 3777 C 361.362 3.33082 2.70841 0
M  V30 3778 C 360.595 3.54353 3.99086 0
M  V30 3779 O 360.818 2.79002 4.97508 0
M  V30 3780 O 359.752 4.47838 4.0215 0
M  V30 3781 H 363.578 2.80232 1.17062 0
M  V30 3782 H 361.163 1.40255 0.514673 0
M  V30 3783 H 363.045 2.25303 3.56113 0
M  V30 3784 H 361.72 1.19194 3.00956 0
M  V30 3785 H 360.627 3.22454 1.89668 0
M  V30 3786 H 361.96 4.23249 2.5124 0
M  V30 3787 N 363.613 -0.582584 1.46437 0
M  V30 3788 C 364.841 -1.36682 1.55324 0
M  V30 3789 C 365.256 -1.87796 0.194409 0
M  V30 3790 O 364.613 -1.63623 -0.808318 0
M  V30 3791 C 364.664 -2.55426 2.55812 0
M  V30 3792 O 364.385 -2.0643 3.86417 0
M  V30 3793 C 365.886 -3.47976 2.74641 0
M  V30 3794 H 363.106 -0.417545 0.525259 0
M  V30 3795 H 365.65 -0.708219 1.91845 0
M  V30 3796 H 363.805 -3.17275 2.22295 0
M  V30 3797 H 364.219 -2.83762 4.41111 0
M  V30 3798 H 365.693 -4.27775 3.48874 0
M  V30 3799 H 366.17 -3.99919 1.81553 0
M  V30 3800 H 366.776 -2.91962 3.09255 0
M  V30 3801 N 365.091 -1.34144 -0.827227 0
M  V30 3802 C 366.368 -1.16844 -1.56865 0
M  V30 3803 C 366.748 0.260654 -2.09485 0
M  V30 3804 O 366.096 1.26138 -1.9053 0
M  V30 3805 C 366.306 -2.21939 -2.6934 0
M  V30 3806 C 367.654 -2.56695 -3.3822 0
M  V30 3807 O 368.678 -2.20695 -2.79593 0
M  V30 3808 O 367.537 -3.18518 -4.44082 0
M  V30 3809 H 364.631 -0.452669 -0.692112 0
M  V30 3810 H 367.177 -1.45763 -0.868973 0
M  V30 3811 H 365.949 -3.17882 -2.28182 0
M  V30 3812 H 365.572 -1.94172 -3.46962 0
M  V30 3813 N 366.569 1.04691 -1.17803 0
M  V30 3814 C 367.517 2.14665 -0.895635 0
M  V30 3815 C 368.511 1.68806 0.141679 0
M  V30 3816 O 369.717 1.79999 -0.00587914 0
M  V30 3817 H 366.092 0.701038 -0.272121 0
M  V30 3818 H 368.063 2.35685 -1.83017 0
M  V30 3819 C 366.812 3.45019 -0.430962 0
M  V30 3820 H 366.135 3.8071 -1.22064 0
M  V30 3821 H 367.575 4.23125 -0.272301 0
M  V30 3822 C 366.034 3.25943 0.852207 0
M  V30 3823 O 366.564 3.5296 1.91786 0
M  V30 3824 N 364.77 2.79304 0.802346 0
M  V30 3825 H 364.317 2.57518 -0.0650788 0
M  V30 3826 H 364.275 2.66921 1.66134 0
M  V30 3827 N 368.047 0.979072 1.23499 0
M  V30 3828 C 369.277 0.664237 1.95631 0
M  V30 3829 C 369.685 -0.772653 1.72704 0
M  V30 3830 O 369.028 -1.53141 1.01457 0
M  V30 3831 C 369.09 0.873115 3.48736 0
M  V30 3832 C 368.754 2.29182 3.95379 0
M  V30 3833 C 369.751 3.2704 4.04155 0
M  V30 3834 C 367.436 2.62256 4.28401 0
M  V30 3835 C 369.43 4.56052 4.45304 0
M  V30 3836 C 367.117 3.91491 4.69231 0
M  V30 3837 C 368.115 4.88201 4.77649 0
M  V30 3838 O 367.803 6.15129 5.17563 0
M  V30 3839 H 367.535 0.245915 0.629684 0
M  V30 3840 H 370.089 1.3127 1.57979 0
M  V30 3841 H 368.319 0.167476 3.86337 0
M  V30 3842 H 370.008 0.555642 4.02079 0
M  V30 3843 H 370.774 3.02819 3.78848 0
M  V30 3844 H 366.653 1.87692 4.21061 0
M  V30 3845 H 370.197 5.31538 4.51789 0
M  V30 3846 H 366.094 4.15508 4.93987 0
M  V30 3847 H 366.862 6.18862 5.35679 0
M  V30 3848 N 369.525 -1.3858 0.750561 0
M  V30 3849 C 370.774 -1.99424 0.302172 0
M  V30 3850 C 371.087 -1.60254 -1.12152 0
M  V30 3851 O 372.293 -2.14046 -1.67023 0
M  V30 3852 C 370.749 -3.56558 0.489307 0
M  V30 3853 C 370.357 -4.04682 1.92189 0
M  V30 3854 C 372.101 -4.24374 0.103478 0
M  V30 3855 C 370.008 -5.54446 2.05775 0
M  V30 3856 H 368.938 -0.746046 0.10923 0
M  V30 3857 H 371.589 -1.58383 0.92667 0
M  V30 3858 H 369.971 -3.95472 -0.204329 0
M  V30 3859 H 371.145 -3.77065 2.64875 0
M  V30 3860 H 369.46 -3.4958 2.26236 0
M  V30 3861 H 372.057 -5.34384 0.183787 0
M  V30 3862 H 372.4 -4.05468 -0.943481 0
M  V30 3863 H 372.933 -3.90688 0.748854 0
M  V30 3864 H 369.672 -5.78252 3.08714 0
M  V30 3865 H 369.192 -5.83816 1.37546 0
M  V30 3866 H 370.871 -6.20099 1.84626 0
M  V30 3867 N 371.003 -0.499398 -1.49478 0
M  V30 3868 C 372.28 0.108629 -1.95298 0
M  V30 3869 C 372.66 1.54282 -1.44084 0
M  V30 3870 O 372.008 2.18944 -0.653908 0
M  V30 3871 C 372.218 0.0229111 -3.48992 0
M  V30 3872 C 373.566 0.197643 -4.2414 0
M  V30 3873 O 374.59 0.0981735 -3.56065 0
M  V30 3874 O 373.449 0.401669 -5.45022 0
M  V30 3875 H 370.543 0.096181 -0.821388 0
M  V30 3876 H 373.089 -0.561822 -1.6013 0
M  V30 3877 H 371.861 -0.977321 -3.78899 0
M  V30 3878 H 371.484 0.733579 -3.90774 0
M  V30 3879 N 372.481 1.55866 -0.233164 0
M  V30 3880 C 373.73 1.97779 0.39579 0
M  V30 3881 C 374.043 1.12419 1.60066 0
M  V30 3882 O 375.249 1.44283 2.29988 0
M  V30 3883 C 373.705 3.5188 0.755556 0
M  V30 3884 C 373.313 4.45959 -0.427152 0
M  V30 3885 C 375.057 4.02479 1.34946 0
M  V30 3886 C 372.964 5.91383 -0.0443043 0
M  V30 3887 H 371.894 0.738592 0.15165 0
M  V30 3888 H 374.545 1.80486 -0.331212 0
M  V30 3889 H 372.927 3.64816 1.5403 0
M  V30 3890 H 374.101 4.44776 -1.20462 0
M  V30 3891 H 372.416 4.05765 -0.935068 0
M  V30 3892 H 375.013 5.08637 1.649 0
M  V30 3893 H 375.356 3.49014 2.26925 0
M  V30 3894 H 375.889 3.92813 0.62791 0
M  V30 3895 H 372.628 6.48857 -0.930874 0
M  V30 3896 H 372.148 5.95734 0.697238 0
M  V30 3897 H 373.827 6.45893 0.378334 0
M  V30 3898 N 373.959 -0.0401083 1.57549 0
M  V30 3899 C 375.206 -0.733125 1.88763 0
M  V30 3900 C 375.534 -1.75946 0.829058 0
M  V30 3901 O 374.789 -1.94949 -0.171323 0
M  V30 3902 C 375.088 -1.44902 3.26708 0
M  V30 3903 C 374.754 -0.559707 4.47413 0
M  V30 3904 C 373.416 -0.314731 4.8017 0
M  V30 3905 C 375.768 0.0549743 5.21171 0
M  V30 3906 C 373.096 0.553886 5.8408 0
M  V30 3907 C 375.448 0.911229 6.26003 0
M  V30 3908 C 374.112 1.16577 6.57241 0
M  V30 3909 H 373.382 -0.268269 0.690733 0
M  V30 3910 H 376.029 0.00679408 1.91499 0
M  V30 3911 H 374.334 -2.26197 3.1991 0
M  V30 3912 H 376.031 -1.99058 3.48105 0
M  V30 3913 H 372.621 -0.760793 4.21794 0
M  V30 3914 H 376.805 -0.121344 4.96152 0
M  V30 3915 H 372.061 0.759518 6.06664 0
M  V30 3916 H 376.235 1.3941 6.82303 0
M  V30 3917 H 373.862 1.84058 7.37582 0
M  V30 3918 N 375.437 -1.54477 -0.31217 0
M  V30 3919 C 376.714 -1.63891 -1.06767 0
M  V30 3920 C 377.094 -0.480028 -2.0557 0
M  V30 3921 O 376.442 0.524487 -2.22399 0
M  V30 3922 C 376.652 -3.01402 -1.75948 0
M  V30 3923 C 378 -3.57838 -2.28554 0
M  V30 3924 O 379.024 -3.03782 -1.85998 0
M  V30 3925 O 377.883 -4.52462 -3.06497 0
M  V30 3926 H 374.977 -0.664125 -0.492816 0
M  V30 3927 H 377.523 -1.66823 -0.311149 0
M  V30 3928 H 376.295 -3.77187 -1.04144 0
M  V30 3929 H 375.918 -3.02199 -2.58383 0
M  V30 3930 N 376.915 0.57481 -1.46744 0
M  V30 3931 C 378.163 1.33009 -1.52161 0
M  V30 3932 C 378.484 1.94185 -0.178092 0
M  V30 3933 O 377.754 1.7899 0.796196 0
M  V30 3934 H 376.334 0.493873 -0.560445 0
M  V30 3935 H 378.996 0.672589 -1.82927 0
M  V30 3936 H 378.092 2.13273 -2.27862 0
M  V30 3937 N 378.394 1.34581 0.820102 0
M  V30 3938 C 379.642 1.26845 1.57336 0
M  V30 3939 C 379.963 -0.160667 1.94337 0
M  V30 3940 O 379.233 -1.09396 1.6251 0
M  V30 3941 H 377.813 0.466514 0.583415 0
M  V30 3942 H 380.475 1.68526 0.979027 0
M  V30 3943 H 379.571 1.87513 2.4949 0
M  V30 3944 N 379.872 -1.04064 1.18357 0
M  V30 3945 C 381.283 -1.58719 0.98312 0
M  V30 3946 C 381.634 -1.90556 -0.467193 0
M  V30 3947 O 380.759 -1.69561 -1.34454 0
M  V30 3948 C 381.354 -2.88379 1.77828 0
M  V30 3949 C 379.913 -3.3965 1.62218 0
M  V30 3950 C 379.06 -2.13235 1.77274 0
M  V30 3951 H 382.011 -0.867359 1.32901 0
M  V30 3952 H 382.032 -3.58773 1.26737 0
M  V30 3953 H 381.544 -2.65176 2.83379 0
M  V30 3954 H 379.645 -3.67866 0.592036 0
M  V30 3955 H 379.758 -4.13475 2.42023 0
M  V30 3956 H 378.122 -2.24542 1.20221 0
M  V30 3957 H 378.905 -1.92487 2.8426 0
M  V30 3958 N 381.35 -0.985608 -1.22978 0
M  V30 3959 C 382.578 -0.675582 -1.95559 0
M  V30 3960 C 382.993 0.758413 -1.72897 0
M  V30 3961 O 382.35 1.51094 -1.02357 0
M  V30 3962 C 382.401 -0.96293 -3.48439 0
M  V30 3963 O 382.122 -2.34057 -3.70336 0
M  V30 3964 C 383.623 -0.669585 -4.38214 0
M  V30 3965 H 380.843 -0.250523 -0.622478 0
M  V30 3966 H 383.387 -1.3184 -1.56328 0
M  V30 3967 H 381.542 -0.366033 -3.85667 0
M  V30 3968 H 381.956 -2.43424 -4.64591 0
M  V30 3969 H 383.43 -0.920967 -5.44263 0
M  V30 3970 H 383.907 0.396383 -4.37408 0
M  V30 3971 H 384.513 -1.2472 -4.06602 0
M  V30 3972 N 382.828 1.3818 -0.7579 0
M  V30 3973 C 383.758 2.33027 -0.148597 0
M  V30 3974 C 384.739 1.55085 0.69875 0
M  V30 3975 O 385.924 1.83384 0.639053 0
M  V30 3976 C 383.054 3.3928 0.742034 0
M  V30 3977 C 382.008 4.28 -0.00291946 0
M  V30 3978 C 381.334 5.25146 1.00625 0
M  V30 3979 C 382.634 5.08938 -1.17385 0
M  V30 3980 H 384.328 2.84231 -0.940909 0
M  V30 3981 H 381.874 1.36659 -0.453908 0
M  V30 3982 H 383.827 4.046 1.17799 0
M  V30 3983 H 382.551 2.86569 1.56671 0
M  V30 3984 H 381.21 3.64192 -0.419504 0
M  V30 3985 H 380.858 4.68721 1.8251 0
M  V30 3986 H 380.558 5.85361 0.512428 0
M  V30 3987 H 382.082 5.93342 1.44143 0
M  V30 3988 H 383.496 5.67474 -0.815224 0
M  V30 3989 H 381.893 5.7841 -1.59882 0
M  V30 3990 H 382.963 4.42424 -1.98468 0
M  V30 3991 N 384.306 0.507319 1.49211 0
M  V30 3992 C 385.256 -0.287112 2.26185 0
M  V30 3993 C 386.24 -0.929983 1.31302 0
M  V30 3994 O 387.432 -0.836538 1.55984 0
M  V30 3995 C 384.561 -1.34718 3.15763 0
M  V30 3996 C 383.647 -0.710235 4.18111 0
M  V30 3997 N 384.038 0.190836 5.0544 0
M  V30 3998 C 382.336 -0.97009 4.35322 0
M  V30 3999 C 383.037 0.55606 5.79036 0
M  V30 4000 N 382.013 -0.0775232 5.43545 0
M  V30 4001 H 385.815 0.406445 2.91076 0
M  V30 4002 H 383.329 0.323814 1.59139 0
M  V30 4003 H 385.326 -1.92982 3.69545 0
M  V30 4004 H 383.986 -2.04235 2.52424 0
M  V30 4005 H 384.997 0.562047 5.14841 0
M  V30 4006 H 381.674 -1.65753 3.83187 0
M  V30 4007 H 383.064 1.2936 6.5933 0
M  V30 4008 N 385.784 -1.5574 0.241426 0
M  V30 4009 C 386.747 -2.19877 -0.647063 0
M  V30 4010 C 387.747 -1.16642 -1.10686 0
M  V30 4011 O 388.937 -1.41757 -1.01245 0
M  V30 4012 C 386.069 -2.83797 -1.88871 0
M  V30 4013 H 387.262 -2.99772 -0.087574 0
M  V30 4014 H 384.815 -1.56298 -0.00813574 0
M  V30 4015 H 385.55 -2.07824 -2.48957 0
M  V30 4016 H 385.335 -3.59414 -1.56728 0
M  V30 4017 H 386.825 -3.32898 -2.52129 0
M  V30 4018 N 387.262 0.0317525 -1.57568 0
M  V30 4019 C 388.678 0.38735 -1.54828 0
M  V30 4020 C 388.878 1.7677 -0.967187 0
M  V30 4021 O 387.934 2.45581 -0.587063 0
M  V30 4022 C 389.247 0.291667 -2.99282 0
M  V30 4023 C 390.795 0.368946 -3.10818 0
M  V30 4024 C 391.27 0.302741 -4.56998 0
M  V30 4025 N 392.761 0.361617 -4.61786 0
M  V30 4026 C 393.496 0.333238 -5.72431 0
M  V30 4027 N 392.992 0.257308 -6.92322 0
M  V30 4028 N 394.785 0.382769 -5.60795 0
M  V30 4029 H 386.936 -0.871609 -1.93692 0
M  V30 4030 H 389.199 -0.331161 -0.888277 0
M  V30 4031 H 388.905 -0.656794 -3.45513 0
M  V30 4032 H 388.779 1.08638 -3.61217 0
M  V30 4033 H 391.166 1.30784 -2.64536 0
M  V30 4034 H 391.247 -0.455066 -2.5172 0
M  V30 4035 H 390.891 -0.632473 -5.03947 0
M  V30 4036 H 390.821 1.14482 -5.14005 0
M  V30 4037 H 393.312 0.422923 -3.75526 0
M  V30 4038 H 393.625 0.24068 -7.72425 0
M  V30 4039 H 391.97 0.223396 -6.94641 0
M  V30 4040 H 395.161 0.44006 -4.66027 0
M  V30 4041 H 395.334 0.357184 -6.47015 0
M  V30 4042 N 388.74 1.54641 0.303973 0
M  V30 4043 C 389.968 1.77768 1.05858 0
M  V30 4044 C 390.383 0.535722 1.8104 0
M  V30 4045 O 389.74 -0.494337 1.75677 0
M  V30 4046 C 389.791 2.9834 2.04146 0
M  V30 4047 O 389.512 4.17736 1.32015 0
M  V30 4048 C 391.013 3.33832 2.91669 0
M  V30 4049 H 388.233 0.592961 0.314067 0
M  V30 4050 H 390.777 2.01583 0.344149 0
M  V30 4051 H 388.932 2.76742 2.71096 0
M  V30 4052 H 389.346 4.85693 1.97998 0
M  V30 4053 H 390.82 4.21448 3.56491 0
M  V30 4054 H 391.297 2.51857 3.59812 0
M  V30 4055 H 391.903 3.57579 2.30254 0
M  V30 4056 N 390.218 -0.567019 1.47046 0
M  V30 4057 C 391.443 -1.3551 1.57009 0
M  V30 4058 C 391.868 -1.86841 0.217259 0
M  V30 4059 O 391.226 -1.62435 -0.805268 0
M  V30 4060 C 391.274 -2.50777 2.5912 0
M  V30 4061 O 390.378 -3.52706 2.13711 0
M  V30 4062 H 389.719 -0.402919 0.52778 0
M  V30 4063 H 392.249 -0.686241 1.92748 0
M  V30 4064 H 392.259 -2.97481 2.79229 0
M  V30 4065 H 390.934 -2.12771 3.57353 0
M  V30 4066 H 389.511 -3.12374 2.03659 0
M  V30 4067 N 391.696 -1.35014 -0.812953 0
M  V30 4068 C 392.944 -1.27678 -1.56661 0
M  V30 4069 C 393.265 0.150359 -1.94419 0
M  V30 4070 O 392.535 1.08532 -1.63088 0
M  V30 4071 H 391.115 -0.469602 -0.580933 0
M  V30 4072 H 393.777 -1.69043 -0.970076 0
M  V30 4073 H 392.873 -1.88833 -2.48492 0
M  V30 4074 N 393.175 1.03435 -1.18907 0
M  V30 4075 C 394.424 1.76143 -0.982669 0
M  V30 4076 C 394.737 1.89416 0.487953 0
M  V30 4077 O 395.943 2.59041 0.813036 0
M  V30 4078 C 394.399 3.16722 -1.70924 0
M  V30 4079 C 394.007 3.11522 -3.21959 0
M  V30 4080 C 395.751 3.93764 -1.58588 0
M  V30 4081 C 393.658 4.46999 -3.87228 0
M  V30 4082 H 392.588 0.660292 -0.364047 0
M  V30 4083 H 395.239 1.158 -1.42347 0
M  V30 4084 H 393.621 3.775 -1.19623 0
M  V30 4085 H 394.795 2.60158 -3.80335 0
M  V30 4086 H 393.11 2.47978 -3.34508 0
M  V30 4087 H 395.707 4.93963 -2.04707 0
M  V30 4088 H 396.05 4.12794 -0.539142 0
M  V30 4089 H 396.583 3.39576 -2.07203 0
M  V30 4090 H 393.322 4.33174 -4.91976 0
M  V30 4091 H 392.842 4.98441 -3.33642 0
M  V30 4092 H 394.521 5.15898 -3.90459 0
M  V30 4093 N 394.653 0.992116 1.22453 0
M  V30 4094 C 396.069 0.702713 1.43297 0
M  V30 4095 C 396.269 -0.726909 1.87932 0
M  V30 4096 O 395.325 -1.49792 2.0327 0
M  V30 4097 C 396.638 1.70762 2.47509 0
M  V30 4098 C 398.186 1.72298 2.61309 0
M  V30 4099 C 398.661 2.71649 3.68742 0
M  V30 4100 N 400.152 2.70239 3.76199 0
M  V30 4101 C 400.887 3.43778 4.58917 0
M  V30 4102 N 400.383 4.26914 5.45633 0
M  V30 4103 N 402.176 3.32487 4.5322 0
M  V30 4104 H 394.327 1.91543 0.917871 0
M  V30 4105 H 396.59 0.826031 0.465162 0
M  V30 4106 H 396.296 2.73059 2.21657 0
M  V30 4107 H 396.17 1.49985 3.46099 0
M  V30 4108 H 398.557 0.706989 2.86506 0
M  V30 4109 H 398.638 1.97143 1.62997 0
M  V30 4110 H 398.282 3.73397 3.44292 0
M  V30 4111 H 398.212 2.44074 4.66622 0
M  V30 4112 H 400.703 2.09912 3.14237 0
M  V30 4113 H 401.016 4.79855 6.05771 0
M  V30 4114 H 399.361 4.31002 5.45218 0
M  V30 4115 H 402.552 2.6698 3.84499 0
M  V30 4116 H 402.725 3.90058 5.17454 0
M  V30 4117 N 396.131 -1.37776 0.765217 0
M  V30 4118 C 397.356 -2.04651 0.336537 0
M  V30 4119 C 397.781 -1.57337 -1.03086 0
M  V30 4120 O 397.139 -0.730621 -1.65927 0
M  V30 4121 C 397.187 -3.58577 0.381468 0
M  V30 4122 O 396.291 -4.07706 -0.62042 0
M  V30 4123 H 395.632 -0.64756 0.146838 0
M  V30 4124 H 398.162 -1.76221 1.03959 0
M  V30 4125 H 398.172 -4.07314 0.236448 0
M  V30 4126 H 396.847 -3.9237 1.37907 0
M  V30 4127 H 395.424 -3.70306 -0.439056 0
M  V30 4128 N 397.609 -0.515225 -1.4894 0
M  V30 4129 C 398.858 0.0261361 -2.01683 0
M  V30 4130 C 399.171 1.36719 -1.39883 0
M  V30 4131 O 400.377 1.99606 -1.84037 0
M  V30 4132 C 398.833 0.0970111 -3.59769 0
M  V30 4133 C 398.441 -1.23825 -4.30548 0
M  V30 4134 C 400.185 0.587981 -4.20408 0
M  V30 4135 C 398.092 -1.12877 -5.80528 0
M  V30 4136 H 397.022 0.0135398 -0.753878 0
M  V30 4137 H 399.673 -0.656787 -1.71343 0
M  V30 4138 H 398.055 0.844694 -3.86886 0
M  V30 4139 H 399.229 -2.00034 -4.15118 0
M  V30 4140 H 397.544 -1.66379 -3.81716 0
M  V30 4141 H 400.141 0.68763 -5.3026 0
M  V30 4142 H 400.484 1.59026 -3.84729 0
M  V30 4143 H 401.017 -0.103582 -3.97665 0
M  V30 4144 H 397.756 -2.10575 -6.20756 0
M  V30 4145 H 397.276 -0.407799 -5.98412 0
M  V30 4146 H 398.955 -0.813332 -6.41868 0
M  V30 4147 N 399.087 1.5561 -0.249682 0
M  V30 4148 C 400.05 2.20217 0.635394 0
M  V30 4149 C 401.05 1.17227 1.10066 0
M  V30 4150 O 402.24 1.42292 1.00492 0
M  V30 4151 C 399.372 2.84794 1.87363 0
M  V30 4152 H 400.565 2.99814 0.0716752 0
M  V30 4153 H 398.118 1.563 -0.000153234 0
M  V30 4154 H 398.853 2.09142 2.47851 0
M  V30 4155 H 398.638 3.60241 1.5482 0
M  V30 4156 H 400.128 3.3423 2.5036 0
M  V30 4157 N 400.565 -0.0233959 1.57583 0
M  V30 4158 C 401.497 -1.04994 2.03737 0
M  V30 4159 C 402.51 -1.32125 0.951152 0
M  V30 4160 O 403.699 -1.29512 1.22837 0
M  V30 4161 C 400.799 -2.39026 2.40249 0
M  V30 4162 C 399.972 -2.31171 3.7132 0
M  V30 4163 C 399.031 -3.47698 3.94959 0
M  V30 4164 O 398.057 -3.26937 4.65941 0
M  V30 4165 N 399.259 -4.6976 3.41037 0
M  V30 4166 H 402.024 -0.656507 2.92421 0
M  V30 4167 H 399.585 -0.211235 1.60516 0
M  V30 4168 H 401.577 -3.15712 2.53196 0
M  V30 4169 H 400.147 -2.70194 1.57207 0
M  V30 4170 H 399.367 -1.39547 3.68674 0
M  V30 4171 H 400.655 -2.23071 4.57293 0
M  V30 4172 H 400.053 -4.89528 2.83512 0
M  V30 4173 H 398.61 -5.43791 3.59353 0
M  V30 4174 N 402.043 -1.548 -0.295768 0
M  V30 4175 C 403.268 -1.78653 -1.05346 0
M  V30 4176 C 403.693 -0.546894 -1.79974 0
M  V30 4177 O 403.051 0.502763 -1.7419 0
M  V30 4178 C 403.099 -2.99679 -2.00561 0
M  V30 4179 O 402.203 -2.7317 -3.08953 0
M  V30 4180 H 401.544 -0.59116 -0.302367 0
M  V30 4181 H 404.074 -2.01895 -0.331598 0
M  V30 4182 H 404.084 -3.27793 -2.42932 0
M  V30 4183 H 402.759 -3.89562 -1.4565 0
M  V30 4184 H 401.336 -2.56089 -2.71059 0
M  V30 4185 N 403.521 0.559213 -1.47345 0
M  V30 4186 C 404.937 0.884943 -1.32819 0
M  V30 4187 C 405.137 1.98988 -0.317173 0
M  V30 4188 O 404.193 2.51031 0.272011 0
M  V30 4189 C 405.506 1.28007 -2.72093 0
M  V30 4190 C 407.054 1.39161 -2.80363 0
M  V30 4191 C 407.529 1.82031 -4.20272 0
M  V30 4192 N 409.02 1.89185 -4.22804 0
M  V30 4193 C 409.755 2.2368 -5.27973 0
M  V30 4194 N 409.251 2.56802 -6.43447 0
M  V30 4195 N 411.044 2.24436 -5.15349 0
M  V30 4196 H 403.195 -0.170304 -2.11716 0
M  V30 4197 H 405.458 -0.0135247 -0.947904 0
M  V30 4198 H 405.164 0.542027 -3.47498 0
M  V30 4199 H 405.038 2.23665 -3.03733 0
M  V30 4200 H 407.425 2.12048 -2.05231 0
M  V30 4201 H 407.506 0.41696 -2.52379 0
M  V30 4202 H 407.15 1.09715 -4.95908 0
M  V30 4203 H 407.08 2.80495 -4.45679 0
M  V30 4204 H 409.571 1.65982 -3.39497 0
M  V30 4205 H 409.884 2.82144 -7.19454 0
M  V30 4206 H 408.229 2.54387 -6.46771 0
M  V30 4207 H 411.42 1.97998 -4.24163 0
M  V30 4208 H 411.593 2.50989 -5.97418 0
M  V30 4209 N 404.999 1.35443 0.805782 0
M  V30 4210 C 406.245 1.28952 1.56522 0
M  V30 4211 C 406.578 -0.135597 1.93726 0
M  V30 4212 O 405.853 -1.08516 1.61414 0
M  V30 4213 C 406.136 2.19678 2.85331 0
M  V30 4214 C 405.989 3.7081 2.54598 0
M  V30 4215 C 407.308 2.09495 3.8704 0
M  V30 4216 H 404.427 0.469764 0.567883 0
M  V30 4217 H 407.069 1.65851 0.927001 0
M  V30 4218 H 405.219 1.8834 3.39795 0
M  V30 4219 H 406.891 4.12593 2.06312 0
M  V30 4220 H 405.134 3.91051 1.8778 0
M  V30 4221 H 405.805 4.29679 3.46525 0
M  V30 4222 H 408.281 2.37045 3.41978 0
M  V30 4223 H 407.157 2.75173 4.74943 0
M  V30 4224 H 407.418 1.07714 4.28777 0
M  V30 4225 N 406.477 -1.02803 1.19454 0
M  V30 4226 C 407.723 -1.76478 0.999171 0
M  V30 4227 C 408.056 -1.88456 -0.468828 0
M  V30 4228 O 407.331 -1.40198 -1.34814 0
M  V30 4229 C 407.614 -3.19044 1.66981 0
M  V30 4230 C 407.467 -3.14932 3.21151 0
M  V30 4231 C 408.786 -4.17456 1.39349 0
M  V30 4232 H 405.905 -0.640614 0.364393 0
M  V30 4233 H 408.547 -1.20005 1.47305 0
M  V30 4234 H 406.697 -3.67263 1.2669 0
M  V30 4235 H 408.369 -2.74605 3.70661 0
M  V30 4236 H 406.612 -2.52625 3.52652 0
M  V30 4237 H 407.283 -4.1566 3.63223 0
M  V30 4238 H 409.759 -3.77842 1.74283 0
M  V30 4239 H 408.635 -5.154 1.88823 0
M  V30 4240 H 408.896 -4.40949 0.318813 0
M  V30 4241 N 407.956 -0.998596 -1.21925 0
M  V30 4242 C 409.367 -0.711939 -1.72593 0
M  V30 4243 C 409.718 0.770842 -1.80423 0
M  V30 4244 O 408.843 1.60237 -1.4544 0
M  V30 4245 C 409.438 -1.28567 -3.13458 0
M  V30 4246 C 407.997 -1.04828 -3.61508 0
M  V30 4247 C 407.144 -1.4024 -2.39224 0
M  V30 4248 H 410.095 -1.17027 -1.07193 0
M  V30 4249 H 410.116 -0.667098 -3.74607 0
M  V30 4250 H 409.628 -2.36486 -3.07727 0
M  V30 4251 H 407.729 0.0140383 -3.72597 0
M  V30 4252 H 407.842 -1.71566 -4.47328 0
M  V30 4253 H 406.206 -0.821077 -2.41103 0
M  V30 4254 H 406.989 -2.49176 -2.36149 0
M  V30 4255 N 409.434 1.37368 -0.772513 0
M  V30 4256 C 410.68 1.99969 -0.337681 0
M  V30 4257 C 411.013 1.61184 1.08321 0
M  V30 4258 O 410.288 0.858395 1.74533 0
M  V30 4259 C 410.571 3.56858 -0.482121 0
M  V30 4260 C 410.424 4.0555 -1.94549 0
M  V30 4261 C 411.743 4.39955 0.113143 0
M  V30 4262 H 408.862 0.726464 -0.124171 0
M  V30 4263 H 411.504 1.63034 -0.975699 0
M  V30 4264 H 409.654 3.88452 0.0610361 0
M  V30 4265 H 411.326 3.84518 -2.54841 0
M  V30 4266 H 409.569 3.57715 -2.45403 0
M  V30 4267 H 410.24 5.14587 -1.9976 0
M  V30 4268 H 412.716 4.14623 -0.35031 0
M  V30 4269 H 411.592 5.48897 -0.0180514 0
M  V30 4270 H 411.853 4.25403 1.20354 0
M  V30 4271 N 410.912 0.523116 1.48665 0
M  V30 4272 C 411.859 -0.243398 2.29513 0
M  V30 4273 C 412.829 -0.940139 1.36933 0
M  V30 4274 O 414.014 -0.942503 1.65896 0
M  V30 4275 C 411.154 -1.28855 3.20141 0
M  V30 4276 C 410.267 -0.60135 4.27794 0
M  V30 4277 C 409.402 -1.62884 5.05611 0
M  V30 4278 C 408.441 -0.924726 6.05075 0
M  V30 4279 N 407.578 -1.89744 6.75975 0
M  V30 4280 H 412.418 0.452234 2.94549 0
M  V30 4281 H 409.955 0.234858 1.45213 0
M  V30 4282 H 411.913 -1.90674 3.71079 0
M  V30 4283 H 410.543 -1.95266 2.57043 0
M  V30 4284 H 409.595 0.130623 3.80176 0
M  V30 4285 H 410.907 -0.0481585 4.98777 0
M  V30 4286 H 410.061 -2.32149 5.60528 0
M  V30 4287 H 408.8 -2.21592 4.34452 0
M  V30 4288 H 407.805 -0.217966 5.49368 0
M  V30 4289 H 409.03 -0.343851 6.78229 0
M  V30 4290 H 406.976 -2.47373 6.07571 0
M  V30 4291 H 406.893 -1.3955 7.43009 0
M  V30 4292 H 408.161 -2.58229 7.35485 0
M  V30 4293 N 412.39 -1.55475 0.257931 0
M  V30 4294 C 413.639 -1.98383 -0.364275 0
M  V30 4295 C 413.952 -1.14952 -1.58258 0
M  V30 4296 O 415.158 -1.47924 -2.27664 0
M  V30 4297 C 413.614 -3.53037 -0.699479 0
M  V30 4298 C 413.222 -4.45223 0.498046 0
M  V30 4299 C 414.966 -4.04575 -1.28526 0
M  V30 4300 C 412.873 -5.91238 0.138383 0
M  V30 4301 H 411.803 -0.740911 -0.13988 0
M  V30 4302 H 414.454 -1.79936 0.359883 0
M  V30 4303 H 412.836 -3.6722 -1.48207 0
M  V30 4304 H 414.01 -4.42803 1.27522 0
M  V30 4305 H 412.325 -4.04226 0.999503 0
M  V30 4306 H 414.922 -5.11196 -1.56788 0
M  V30 4307 H 415.265 -3.5258 -2.21344 0
M  V30 4308 H 415.798 -3.93762 -0.565337 0
M  V30 4309 H 412.537 -6.47294 1.03398 0
M  V30 4310 H 412.057 -5.96768 -0.602374 0
M  V30 4311 H 413.736 -6.46413 -0.27553 0
M  V30 4312 N 413.868 0.0150385 -1.57593 0
M  V30 4313 C 415.116 0.701613 -1.8953 0
M  V30 4314 C 415.437 1.75139 -0.857396 0
M  V30 4315 O 414.707 1.95607 0.107194 0
M  V30 4316 H 413.287 0.26213 -0.699498 0
M  V30 4317 H 415.949 -0.0223304 -1.94887 0
M  V30 4318 H 415.045 1.18236 -2.88837 0
M  V30 4319 N 415.346 1.54954 0.287554 0
M  V30 4320 C 416.256 1.8991 1.37736 0
M  V30 4321 C 417.272 0.794701 1.54792 0
M  V30 4322 O 418.448 1.09243 1.69198 0
M  V30 4323 C 415.513 2.15108 2.71899 0
M  V30 4324 C 414.574 3.38752 2.63715 0
M  V30 4325 C 413.807 3.62739 3.91479 0
M  V30 4326 O 414.03 2.89492 4.91478 0
M  V30 4327 O 412.964 4.56267 3.92561 0
M  V30 4328 H 416.79 2.82652 1.11092 0
M  V30 4329 H 414.375 1.41315 0.484807 0
M  V30 4330 H 416.257 2.32806 3.51254 0
M  V30 4331 H 414.932 1.25551 2.9836 0
M  V30 4332 H 413.839 3.26405 1.82786 0
M  V30 4333 H 415.172 4.28483 2.42205 0
M  V30 4334 N 416.824 -0.551391 1.4764 0
M  V30 4335 C 417.787 -1.64007 1.60107 0
M  V30 4336 C 418.787 -1.53601 0.47576 0
M  V30 4337 O 419.977 -1.57655 0.740988 0
M  V30 4338 C 417.109 -3.03569 1.55108 0
M  V30 4339 H 418.302 -1.543 2.57161 0
M  V30 4340 H 415.855 -0.771776 1.35917 0
M  V30 4341 H 416.59 -3.18804 0.594519 0
M  V30 4342 H 416.375 -3.12532 2.36783 0
M  V30 4343 H 417.865 -3.82762 1.66982 0
M  V30 4344 N 418.302 -1.35869 -0.798587 0
M  V30 4345 C 419.713 -1.26498 -1.37314 0
M  V30 4346 C 420.064 0.0991899 -1.95949 0
M  V30 4347 O 419.189 1.0004 -1.91888 0
M  V30 4348 C 419.784 -2.29054 -2.49639 0
M  V30 4349 C 418.343 -2.234 -3.02935 0
M  V30 4350 C 417.49 -2.14329 -1.75949 0
M  V30 4351 H 420.441 -1.46881 -0.600971 0
M  V30 4352 H 420.462 -1.92166 -3.28409 0
M  V30 4353 H 419.974 -3.2833 -2.06933 0
M  V30 4354 H 418.075 -1.27562 -3.50084 0
M  V30 4355 H 418.188 -3.15703 -3.60372 0
M  V30 4356 H 416.552 -1.60435 -1.9782 0
M  V30 4357 H 417.335 -3.15477 -1.35384 0
M  V30 4358 N 419.78 1.02168 -1.19998 0
M  V30 4359 C 420.727 2.10601 -0.944228 0
M  V30 4360 C 421.697 1.65639 0.123664 0
M  V30 4361 O 422.882 1.9079 -0.0199941 0
M  V30 4362 C 420.022 3.41504 -0.496865 0
M  V30 4363 C 419.135 3.99973 -1.63234 0
M  V30 4364 C 418.27 5.18915 -1.13579 0
M  V30 4365 C 417.309 5.69456 -2.24468 0
M  V30 4366 N 416.446 6.79665 -1.76068 0
M  V30 4367 H 421.286 2.31814 -1.8726 0
M  V30 4368 H 418.823 1.13686 -0.933483 0
M  V30 4369 H 420.781 4.16626 -0.218843 0
M  V30 4370 H 419.411 3.2038 0.394508 0
M  V30 4371 H 418.463 3.21997 -2.0254 0
M  V30 4372 H 419.775 4.33492 -2.46752 0
M  V30 4373 H 418.929 6.01222 -0.813429 0
M  V30 4374 H 417.668 4.8695 -0.270434 0
M  V30 4375 H 416.673 4.85757 -2.57526 0
M  V30 4376 H 417.898 6.03459 -3.11472 0
M  V30 4377 H 415.844 6.49538 -0.918516 0
M  V30 4378 H 415.761 7.12349 -2.5317 0
M  V30 4379 H 417.029 7.65549 -1.46817 0
M  V30 4380 N 421.258 1.00505 1.21394 0
M  V30 4381 C 422.483 0.706367 1.95001 0
M  V30 4382 C 422.908 -0.72463 1.73582 0
M  V30 4383 O 422.266 -1.49702 1.0227 0
M  V30 4384 C 422.314 1.03299 3.45487 0
M  V30 4385 O 421.418 0.138275 4.12168 0
M  V30 4386 H 420.759 0.263175 0.609619 0
M  V30 4387 H 423.289 1.34531 1.54151 0
M  V30 4388 H 423.299 0.979872 3.96059 0
M  V30 4389 H 421.974 2.07567 3.60401 0
M  V30 4390 H 420.551 0.247928 3.72075 0
M  V30 4391 N 422.737 -1.36956 0.779787 0
M  V30 4392 C 423.985 -1.99097 0.347079 0
M  V30 4393 C 424.306 -1.62206 -1.08232 0
M  V30 4394 O 423.576 -0.891373 -1.74446 0
M  V30 4395 H 422.156 -0.736409 0.125342 0
M  V30 4396 H 424.818 -1.67308 0.999696 0
M  V30 4397 H 423.914 -3.09107 0.431162 0
M  V30 4398 N 424.215 -0.530993 -1.48385 0
M  V30 4399 C 425.631 -0.188919 -1.58478 0
M  V30 4400 C 425.831 1.30786 -1.53288 0
M  V30 4401 O 424.887 2.08619 -1.42248 0
M  V30 4402 C 426.2 -0.792343 -2.90073 0
M  V30 4403 C 427.748 -0.76117 -3.03604 0
M  V30 4404 C 428.223 -1.34319 -4.37861 0
M  V30 4405 N 429.714 -1.3052 -4.44431 0
M  V30 4406 C 430.449 -1.72543 -5.46824 0
M  V30 4407 N 429.945 -2.22299 -6.56167 0
M  V30 4408 N 431.738 -1.63773 -5.37712 0
M  V30 4409 H 423.889 -1.50377 -1.50002 0
M  V30 4410 H 426.152 -0.625559 -0.712306 0
M  V30 4411 H 425.858 -1.84323 -2.99529 0
M  V30 4412 H 425.732 -0.270026 -3.76232 0
M  V30 4413 H 428.119 0.280957 -2.93759 0
M  V30 4414 H 428.2 -1.32097 -2.19053 0
M  V30 4415 H 427.844 -2.38425 -4.4846 0
M  V30 4416 H 427.774 -0.759064 -5.21101 0
M  V30 4417 H 430.265 -0.940973 -3.65997 0
M  V30 4418 H 430.578 -2.52356 -7.30436 0
M  V30 4419 H 428.923 -2.26293 -6.57127 0
M  V30 4420 H 432.114 -1.24698 -4.51185 0
M  V30 4421 H 432.287 -1.96844 -6.17379 0
M  V30 4422 N 425.693 1.55336 -0.266172 0
M  V30 4423 C 427.104 1.85236 0.233315 0
M  V30 4424 C 427.455 1.18816 1.56132 0
M  V30 4425 O 426.58 0.473307 2.11161 0
M  V30 4426 C 427.175 3.36059 0.430113 0
M  V30 4427 C 425.734 3.66116 0.873842 0
M  V30 4428 C 424.881 2.77274 -0.0380016 0
M  V30 4429 H 427.832 1.51004 -0.488214 0
M  V30 4430 H 427.853 3.58681 1.26998 0
M  V30 4431 H 427.365 3.84373 -0.536588 0
M  V30 4432 H 425.466 3.23295 1.85233 0
M  V30 4433 H 425.579 4.73699 0.717358 0
M  V30 4434 H 423.943 2.50198 0.476759 0
M  V30 4435 H 424.726 3.284 -1.00042 0
M  V30 4436 N 427.171 -0.0066808 1.57599 0
M  V30 4437 C 428.401 -0.703066 1.94269 0
M  V30 4438 C 428.809 -1.68206 0.866222 0
M  V30 4439 O 428.152 -1.82966 -0.164087 0
M  V30 4440 C 428.214 -1.49616 3.26887 0
M  V30 4441 C 427.878 -0.679494 4.5192 0
M  V30 4442 C 428.875 0.0299508 5.19891 0
M  V30 4443 C 426.56 -0.627433 4.98366 0
M  V30 4444 C 428.554 0.780514 6.32603 0
M  V30 4445 C 426.241 0.126861 6.10968 0
M  V30 4446 C 427.239 0.829574 6.77943 0
M  V30 4447 O 426.927 1.57157 7.88389 0
M  V30 4448 H 426.659 -0.201217 0.645359 0
M  V30 4449 H 429.213 0.0385326 2.05364 0
M  V30 4450 H 427.443 -2.28209 3.12182 0
M  V30 4451 H 429.132 -2.07726 3.48719 0
M  V30 4452 H 429.898 -0.00115963 4.85 0
M  V30 4453 H 425.777 -1.16392 4.46065 0
M  V30 4454 H 429.321 1.32954 6.84813 0
M  V30 4455 H 425.218 0.159815 6.45302 0
M  V30 4456 H 425.986 1.48758 8.04868 0
M  V30 4457 N 428.649 -1.55105 -0.279332 0
M  V30 4458 C 429.579 -1.90557 -1.34945 0
M  V30 4459 C 430.56 -0.766738 -1.51839 0
M  V30 4460 O 431.745 -1.02434 -1.64988 0
M  V30 4461 C 428.875 -2.17193 -2.71006 0
M  V30 4462 C 427.829 -3.33021 -2.68851 0
M  V30 4463 C 427.155 -3.45123 -4.08405 0
M  V30 4464 C 428.455 -4.69578 -2.28678 0
M  V30 4465 H 430.149 -2.80188 -1.05522 0
M  V30 4466 H 427.695 -1.34811 -0.506173 0
M  V30 4467 H 429.648 -2.40581 -3.45975 0
M  V30 4468 H 428.372 -1.24355 -3.01999 0
M  V30 4469 H 427.031 -3.0959 -1.9634 0
M  V30 4470 H 426.679 -2.49762 -4.3661 0
M  V30 4471 H 426.379 -4.22995 -4.07859 0
M  V30 4472 H 427.903 -3.70796 -4.85121 0
M  V30 4473 H 429.317 -4.92553 -2.93368 0
M  V30 4474 H 427.714 -5.5032 -2.39306 0
M  V30 4475 H 428.784 -4.68828 -1.23807 0
M  V30 4476 N 430.127 0.543554 -1.4793 0
M  V30 4477 C 431.373 1.30201 -1.55485 0
M  V30 4478 C 431.706 1.92925 -0.222201 0
M  V30 4479 O 430.981 1.78586 0.77053 0
M  V30 4480 C 431.264 2.40174 -2.68307 0
M  V30 4481 C 431.117 1.8223 -4.11233 0
M  V30 4482 C 432.436 3.42024 -2.76961 0
M  V30 4483 H 429.555 0.472036 -0.565996 0
M  V30 4484 H 432.197 0.606914 -1.80046 0
M  V30 4485 H 430.347 2.99463 -2.47495 0
M  V30 4486 H 432.019 1.27096 -4.43446 0
M  V30 4487 H 430.262 1.12832 -4.18869 0
M  V30 4488 H 430.933 2.61793 -4.85972 0
M  V30 4489 H 433.409 2.92672 -2.95774 0
M  V30 4490 H 432.285 4.16383 -3.57654 0
M  V30 4491 H 432.546 4.0173 -1.84568 0
M  V30 4492 N 431.605 1.3629 0.791371 0
M  V30 4493 C 432.833 1.33562 1.58016 0
M  V30 4494 C 433.248 -0.0835616 1.88615 0
M  V30 4495 O 432.605 -1.0399 1.49974 0
M  V30 4496 C 432.656 2.15517 2.90232 0
M  V30 4497 O 432.377 3.51902 2.60953 0
M  V30 4498 C 433.878 2.20546 3.84544 0
M  V30 4499 H 431.098 0.458226 0.490173 0
M  V30 4500 H 433.642 1.79361 0.982345 0
M  V30 4501 H 431.797 1.73278 3.46487 0
M  V30 4502 H 432.211 3.94644 3.4548 0
M  V30 4503 H 433.685 2.82252 4.74382 0
M  V30 4504 H 434.162 1.20838 4.2225 0
M  V30 4505 H 434.768 2.63013 3.34222 0
M  V30 4506 N 433.083 -1.0153 1.20538 0
M  V30 4507 C 434.031 -2.12215 0.952235 0
M  V30 4508 C 435.025 -1.69123 -0.0968735 0
M  V30 4509 O 436.231 -1.7992 0.0536006 0
M  V30 4510 H 432.606 -0.693576 0.290613 0
M  V30 4511 H 434.577 -2.3075 1.89201 0
M  V30 4512 C 433.326 -3.43755 0.522287 0
M  V30 4513 H 432.649 -3.7734 1.32115 0
M  V30 4514 H 434.089 -4.22254 0.384389 0
M  V30 4515 C 432.548 -3.28088 -0.765489 0
M  V30 4516 O 433.078 -3.57921 -1.8236 0
M  V30 4517 N 431.284 -2.81333 -0.728011 0
M  V30 4518 H 430.831 -2.57255 0.133332 0
M  V30 4519 H 430.789 -2.71232 -1.58999 0
M  V30 4520 N 434.561 -1.01147 -1.20859 0
M  V30 4521 C 435.809 -0.696486 -1.89719 0
M  V30 4522 C 436.13 0.775788 -1.78904 0
M  V30 4523 O 435.4 1.55759 -1.18811 0
M  V30 4524 H 433.98 -0.254628 -0.702263 0
M  V30 4525 H 436.642 -1.28197 -1.46804 0
M  V30 4526 H 435.738 -0.975357 -2.96468 0
M  V30 4527 N 436.039 1.36541 -0.78704 0
M  V30 4528 C 436.971 2.28761 -0.141773 0
M  V30 4529 C 437.984 1.49365 0.647599 0
M  V30 4530 O 439.173 1.71836 0.483173 0
M  V30 4531 C 436.273 3.28771 0.822368 0
M  V30 4532 C 435.446 4.3732 0.0835594 0
M  V30 4533 C 434.505 5.17307 0.963296 0
M  V30 4534 O 433.531 5.67638 0.421419 0
M  V30 4535 N 434.733 5.33515 2.28784 0
M  V30 4536 H 437.498 2.84777 -0.933919 0
M  V30 4537 H 435.059 1.48682 -0.640735 0
M  V30 4538 H 437.051 3.79169 1.41468 0
M  V30 4539 H 435.621 2.73412 1.5154 0
M  V30 4540 H 434.841 3.88118 -0.689809 0
M  V30 4541 H 436.129 5.0701 -0.426358 0
M  V30 4542 H 435.527 4.94234 2.75226 0
M  V30 4543 H 434.084 5.87165 2.82985 0
M  V30 4544 N 437.518 0.538854 1.48102 0
M  V30 4545 C 438.448 -0.207654 2.32575 0
M  V30 4546 C 439.429 -0.926559 1.4265 0
M  V30 4547 O 440.614 -0.91061 1.71527 0
M  V30 4548 C 437.744 -1.24957 3.24042 0
M  V30 4549 C 436.698 -0.648263 4.23062 0
M  V30 4550 C 436.024 -1.79348 5.03725 0
M  V30 4551 C 437.324 0.385897 5.20872 0
M  V30 4552 H 439.018 0.497534 2.95237 0
M  V30 4553 H 436.564 0.240715 1.41974 0
M  V30 4554 H 438.517 -1.77983 3.81969 0
M  V30 4555 H 437.241 -1.98446 2.59397 0
M  V30 4556 H 435.9 -0.139452 3.66335 0
M  V30 4557 H 435.548 -2.51696 4.35498 0
M  V30 4558 H 435.248 -1.39702 5.70751 0
M  V30 4559 H 436.772 -2.32735 5.64506 0
M  V30 4560 H 438.186 -0.057607 5.73271 0
M  V30 4561 H 436.583 0.700227 5.96001 0
M  V30 4562 H 437.653 1.28848 4.67468 0
M  V30 4563 N 438.996 -1.55193 0.274407 0
M  V30 4564 C 439.928 -2.1989 -0.646595 0
M  V30 4565 C 440.941 -1.1834 -1.11801 0
M  V30 4566 O 442.13 -1.4507 -1.04004 0
M  V30 4567 C 439.23 -2.8104 -1.89393 0
M  V30 4568 C 438.403 -4.08274 -1.56943 0
M  V30 4569 C 437.462 -4.53478 -2.66916 0
M  V30 4570 O 436.488 -5.19267 -2.33132 0
M  V30 4571 N 437.69 -4.2356 -3.9696 0
M  V30 4572 H 440.455 -2.99556 -0.0928686 0
M  V30 4573 H 438.016 -1.61618 0.0954783 0
M  V30 4574 H 440.008 -3.08226 -2.62257 0
M  V30 4575 H 438.578 -2.05372 -2.35672 0
M  V30 4576 H 437.798 -3.88384 -0.674655 0
M  V30 4577 H 439.086 -4.91173 -1.32764 0
M  V30 4578 H 438.484 -3.70799 -4.27229 0
M  V30 4579 H 437.041 -4.55518 -4.66205 0
M  V30 4580 N 440.474 -0.00167713 -1.576 0
M  V30 4581 C 441.751 0.719951 -1.81868 0
M  V30 4582 C 442.131 1.91895 -0.879747 0
M  V30 4583 O 441.479 2.28389 0.0711423 0
M  V30 4584 C 441.689 1.12409 -3.30402 0
M  V30 4585 C 443.037 1.52724 -3.96182 0
M  V30 4586 O 444.061 1.21784 -3.34734 0
M  V30 4587 O 442.92 2.10265 -5.04431 0
M  V30 4588 H 440.014 0.350707 -0.748955 0
M  V30 4589 H 442.56 -0.0272597 -1.69678 0
M  V30 4590 H 441.332 0.269532 -3.90371 0
M  V30 4591 H 440.955 1.93035 -3.47596 0
M  V30 4592 N 441.952 1.55251 0.271103 0
M  V30 4593 C 443.199 1.75946 1.00245 0
M  V30 4594 C 443.527 0.561611 1.86215 0
M  V30 4595 O 442.782 -0.455832 1.90317 0
M  V30 4596 C 443.081 3.01879 1.91321 0
M  V30 4597 C 442.747 4.34337 1.21086 0
M  V30 4598 C 441.409 4.70338 1.01666 0
M  V30 4599 C 443.761 5.16325 0.71119 0
M  V30 4600 C 441.089 5.8588 0.310099 0
M  V30 4601 C 443.441 6.32597 0.0182157 0
M  V30 4602 C 442.105 6.67236 -0.18768 0
M  V30 4603 H 441.375 0.643833 0.366824 0
M  V30 4604 H 444.022 1.89521 0.27458 0
M  V30 4605 H 442.327 2.83212 2.70736 0
M  V30 4606 H 444.024 3.15088 2.48033 0
M  V30 4607 H 440.614 4.06043 1.37213 0
M  V30 4608 H 444.798 4.88987 0.848844 0
M  V30 4609 H 440.054 6.1124 0.139873 0
M  V30 4610 H 444.228 6.9538 -0.376711 0
M  V30 4611 H 441.855 7.56618 -0.73715 0
M  V30 4612 N 443.43 -0.535701 1.48216 0
M  V30 4613 C 444.846 -0.863701 1.3421 0
M  V30 4614 C 445.046 -1.98458 0.34879 0
M  V30 4615 O 444.102 -2.51432 -0.23204 0
M  V30 4616 C 445.415 -1.23662 2.74095 0
M  V30 4617 C 446.963 -1.34683 2.82541 0
M  V30 4618 C 447.438 -1.75322 4.23115 0
M  V30 4619 N 448.929 -1.82434 4.2576 0
M  V30 4620 C 449.664 -2.15252 5.31464 0
M  V30 4621 N 449.16 -2.46533 6.47452 0
M  V30 4622 N 450.953 -2.16209 5.18855 0
M  V30 4623 H 443.104 0.203965 2.11418 0
M  V30 4624 H 445.367 0.0286033 0.947568 0
M  V30 4625 H 445.073 -0.486674 3.48316 0
M  V30 4626 H 444.947 -2.18805 3.07253 0
M  V30 4627 H 447.334 -2.08756 2.08579 0
M  V30 4628 H 447.415 -0.376756 2.5301 0
M  V30 4629 H 447.059 -1.01812 4.97591 0
M  V30 4630 H 446.989 -2.7337 4.50085 0
M  V30 4631 H 449.48 -1.6056 3.42095 0
M  V30 4632 H 449.793 -2.70662 7.23852 0
M  V30 4633 H 448.138 -2.44065 6.50736 0
M  V30 4634 H 451.329 -1.91224 4.2726 0
M  V30 4635 H 451.502 -2.41453 6.01335 0
M  V30 4636 N 444.908 -1.36708 -0.784132 0
M  V30 4637 C 445.871 -1.31307 -1.87859 0
M  V30 4638 C 446.871 -0.219654 -1.59293 0
M  V30 4639 O 448.061 -0.47476 -1.67606 0
M  V30 4640 C 445.193 -1.03679 -3.24751 0
M  V30 4641 H 446.386 -2.28647 -1.94064 0
M  V30 4642 H 443.939 -1.21558 -0.98252 0
M  V30 4643 H 444.674 -0.0681936 -3.24228 0
M  V30 4644 H 444.459 -1.82811 -3.46876 0
M  V30 4645 H 445.949 -1.02518 -4.04821 0
M  V30 4646 N 446.386 1.0089 -1.21074 0
M  V30 4647 C 447.632 1.74866 -1.02712 0
M  V30 4648 C 447.965 1.89178 0.438787 0
M  V30 4649 O 447.24 1.42325 1.32567 0
M  V30 4650 C 447.523 3.16347 -1.72036 0
M  V30 4651 C 447.376 3.09782 -3.26121 0
M  V30 4652 C 448.695 4.15187 -1.45973 0
M  V30 4653 H 445.814 0.634736 -0.374539 0
M  V30 4654 H 448.456 1.17646 -1.49196 0
M  V30 4655 H 446.606 3.65201 -1.32517 0
M  V30 4656 H 448.278 2.68673 -3.74983 0
M  V30 4657 H 446.521 2.46982 -3.56626 0
M  V30 4658 H 447.192 4.09829 -3.6979 0
M  V30 4659 H 449.668 3.75022 -1.80272 0
M  V30 4660 H 448.544 5.12331 -1.96999 0
M  V30 4661 H 448.805 4.40386 -0.388924 0
M  V30 4662 N 447.864 1.01787 1.20321 0
M  V30 4663 C 449.11 0.708985 1.90003 0
M  V30 4664 C 449.443 -0.759572 1.78729 0
M  V30 4665 O 448.718 -1.55198 1.17234 0
M  V30 4666 C 449.001 1.1469 3.41348 0
M  V30 4667 C 448.854 2.67586 3.61549 0
M  V30 4668 C 450.173 0.71915 4.34185 0
M  V30 4669 H 447.292 0.259034 0.689978 0
M  V30 4670 H 449.934 1.26584 1.41692 0
M  V30 4671 H 448.084 0.673128 3.82624 0
M  V30 4672 H 449.756 3.22826 3.29517 0
M  V30 4673 H 447.999 3.085 3.04976 0
M  V30 4674 H 448.67 2.93281 4.67643 0
M  V30 4675 H 451.146 1.12647 4.00562 0
M  V30 4676 H 450.022 1.05358 5.38694 0
M  V30 4677 H 450.283 -0.379111 4.40472 0
M  V30 4678 N 449.342 -1.36122 0.79427 0
M  V30 4679 C 450.272 -2.32551 0.210328 0
M  V30 4680 C 451.253 -1.56884 -0.657386 0
M  V30 4681 O 452.438 -1.85014 -0.590207 0
M  V30 4682 C 449.568 -3.41128 -0.651819 0
M  V30 4683 C 448.522 -4.27842 0.116395 0
M  V30 4684 C 447.848 -5.2763 -0.86666 0
M  V30 4685 C 449.148 -5.05647 1.30837 0
M  V30 4686 H 450.842 -2.81636 1.01594 0
M  V30 4687 H 448.388 -1.35407 0.489981 0
M  V30 4688 H 450.341 -4.07581 -1.07031 0
M  V30 4689 H 449.065 -2.90622 -1.49019 0
M  V30 4690 H 447.724 -3.62952 0.515915 0
M  V30 4691 H 447.372 -4.73395 -1.70019 0
M  V30 4692 H 447.072 -5.86514 -0.35705 0
M  V30 4693 H 448.596 -5.96955 -1.28361 0
M  V30 4694 H 450.01 -5.65113 0.965393 0
M  V30 4695 H 448.407 -5.73967 1.75161 0
M  V30 4696 H 449.477 -4.37006 2.10128 0
M  V30 4697 N 450.82 -0.546701 -1.47814 0
M  V30 4698 C 452.097 0.0464413 -1.95545 0
M  V30 4699 C 452.477 1.4962 -1.48919 0
M  V30 4700 O 451.825 2.16752 -0.723232 0
M  V30 4701 C 452.035 -0.0881298 -3.48889 0
M  V30 4702 C 453.383 0.0626059 -4.24554 0
M  V30 4703 O 454.407 -0.0151555 -3.56197 0
M  V30 4704 O 453.266 0.228071 -5.46024 0
M  V30 4705 H 450.36 0.0700004 -0.824032 0
M  V30 4706 H 452.906 -0.612482 -1.58262 0
M  V30 4707 H 451.678 -1.09737 -3.75597 0
M  V30 4708 H 451.301 0.608886 -3.9291 0
M  V30 4709 N 452.299 1.55045 -0.282633 0
M  V30 4710 C 453.229 2.2579 0.595066 0
M  V30 4711 C 454.21 1.25074 1.15284 0
M  V30 4712 O 455.395 1.5381 1.18559 0
M  V30 4713 C 452.525 2.98472 1.77572 0
M  V30 4714 C 451.479 4.0618 1.34914 0
M  V30 4715 C 450.805 4.66477 2.6135 0
M  V30 4716 C 452.105 5.1996 0.493821 0
M  V30 4717 H 453.799 2.994 0.00505653 0
M  V30 4718 H 451.345 1.44 0.000992001 0
M  V30 4719 H 453.298 3.46677 2.39568 0
M  V30 4720 H 452.022 2.2241 2.39168 0
M  V30 4721 H 450.681 3.58797 0.752338 0
M  V30 4722 H 450.329 3.87074 3.2122 0
M  V30 4723 H 450.029 5.39207 2.33516 0
M  V30 4724 H 451.553 5.17435 3.24181 0
M  V30 4725 H 452.967 5.64172 1.01898 0
M  V30 4726 H 451.364 5.99299 0.310047 0
M  V30 4727 H 452.434 4.82462 -0.485593 0
M  V30 4728 N 453.777 0.010035 1.57597 0
M  V30 4729 C 455.054 -0.710296 1.82248 0
M  V30 4730 C 455.434 -1.91426 0.889911 0
M  V30 4731 O 454.782 -2.28424 -0.0590292 0
M  V30 4732 C 454.992 -1.10655 3.30993 0
M  V30 4733 C 456.34 -1.50621 3.96987 0
M  V30 4734 O 457.364 -1.20007 3.35375 0
M  V30 4735 O 456.223 -2.07587 5.05539 0
M  V30 4736 H 453.317 -0.34673 0.750804 0
M  V30 4737 H 455.863 0.0362578 1.69661 0
M  V30 4738 H 454.635 -0.248826 3.90508 0
M  V30 4739 H 454.258 -1.91189 3.48615 0
M  V30 4740 N 455.255 -1.55392 -0.262866 0
M  V30 4741 C 456.501 -1.77657 -0.990424 0
M  V30 4742 C 456.856 -0.576333 -1.83565 0
M  V30 4743 O 456.149 0.430795 -1.86694 0
M  V30 4744 C 456.343 -3.02889 -1.89718 0
M  V30 4745 C 456.172 -4.34979 -1.14121 0
M  V30 4746 C 454.942 -4.98052 -0.852768 0
M  V30 4747 C 457.14 -5.11597 -0.526625 0
M  V30 4748 N 455.122 -6.13859 -0.0710649 0
M  V30 4749 C 456.493 -6.19883 0.12042 0
M  V30 4750 C 458.548 -4.95992 -0.435485 0
M  V30 4751 C 457.251 -7.14262 0.849833 0
M  V30 4752 C 459.277 -5.90735 0.280359 0
M  V30 4753 C 458.639 -6.98417 0.916103 0
M  V30 4754 H 454.738 -0.702242 -0.344064 0
M  V30 4755 H 457.322 -1.92887 -0.265088 0
M  V30 4756 H 455.493 -2.89017 -2.59468 0
M  V30 4757 H 457.225 -3.13516 -2.5591 0
M  V30 4758 H 453.98 -4.5916 -1.16058 0
M  V30 4759 H 454.404 -6.76302 0.307413 0
M  V30 4760 H 459.046 -4.12832 -0.912671 0
M  V30 4761 H 456.764 -7.96935 1.33867 0
M  V30 4762 H 460.35 -5.80738 0.351332 0
M  V30 4763 H 459.23 -7.70467 1.46119 0
M  V30 4764 N 456.733 0.527833 -1.48498 0
M  V30 4765 C 457.696 1.61439 -1.62696 0
M  V30 4766 C 458.696 1.52824 -0.500136 0
M  V30 4767 O 459.886 1.56456 -0.765976 0
M  V30 4768 C 457.018 3.01063 -1.59918 0
M  V30 4769 H 458.211 1.50189 -2.59583 0
M  V30 4770 H 455.764 0.750055 -1.37127 0
M  V30 4771 H 456.499 3.17818 -0.645163 0
M  V30 4772 H 456.284 3.08725 -2.41726 0
M  V30 4773 H 457.774 3.80057 -1.73051 0
M  V30 4774 N 458.211 1.37122 0.776871 0
M  V30 4775 C 459.622 1.28667 1.35284 0
M  V30 4776 C 459.973 -0.0680035 1.96082 0
M  V30 4777 O 459.098 -0.969743 1.93455 0
M  V30 4778 C 459.693 2.32997 2.45963 0
M  V30 4779 C 458.252 2.28191 2.99342 0
M  V30 4780 C 457.399 2.17101 1.72517 0
M  V30 4781 H 460.35 1.47819 0.577527 0
M  V30 4782 H 460.371 1.97366 3.2531 0
M  V30 4783 H 459.883 3.3158 2.01684 0
M  V30 4784 H 457.984 1.33115 3.4801 0
M  V30 4785 H 458.097 3.21397 3.55304 0
M  V30 4786 H 456.461 1.63562 1.95242 0
M  V30 4787 H 457.244 3.17591 1.30348 0
M  V30 4788 N 459.689 -1.00246 1.21608 0
M  V30 4789 C 460.937 -1.73717 1.0328 0
M  V30 4790 C 461.258 -1.90102 -0.434318 0
M  V30 4791 O 460.528 -1.45376 -1.31311 0
M  V30 4792 H 459.108 -0.643613 0.379172 0
M  V30 4793 H 461.77 -1.20787 1.52959 0
M  V30 4794 H 460.866 -2.73535 1.50283 0
M  V30 4795 N 461.167 -1.02423 -1.1978 0
M  V30 4796 C 462.114 -0.601023 -2.22837 0
M  V30 4797 C 463.084 0.382801 -1.61629 0
M  V30 4798 O 464.269 0.280514 -1.88727 0
M  V30 4799 C 461.409 0.0467755 -3.45068 0
M  V30 4800 C 460.522 -0.98253 -4.20678 0
M  V30 4801 C 459.657 -0.304982 -5.30324 0
M  V30 4802 C 458.696 -1.32052 -5.97686 0
M  V30 4803 N 457.833 -0.669105 -6.98904 0
M  V30 4804 H 462.673 -1.48444 -2.58396 0
M  V30 4805 H 460.21 -0.742936 -1.2696 0
M  V30 4806 H 462.168 0.439556 -4.14878 0
M  V30 4807 H 460.798 0.893796 -3.10179 0
M  V30 4808 H 459.85 -1.49341 -3.49859 0
M  V30 4809 H 461.162 -1.75455 -4.66923 0
M  V30 4810 H 460.316 0.142893 -6.06532 0
M  V30 4811 H 459.055 0.499283 -4.85138 0
M  V30 4812 H 458.06 -1.7787 -5.20233 0
M  V30 4813 H 459.285 -2.1262 -6.44957 0
M  V30 4814 H 457.231 0.115152 -6.55899 0
M  V30 4815 H 457.148 -1.37908 -7.43315 0
M  V30 4816 H 458.416 -0.245076 -7.79115 0
M  V30 4817 N 462.645 1.35699 -0.801477 0
M  V30 4818 C 464.056 1.81415 -0.441073 0
M  V30 4819 C 464.407 1.66595 1.03636 0
M  V30 4820 O 463.532 1.19369 1.80499 0
M  V30 4821 C 464.127 3.29369 -0.793819 0
M  V30 4822 C 462.686 3.73248 -0.486083 0
M  V30 4823 C 461.833 2.57775 -1.02213 0
M  V30 4824 H 464.784 1.23749 -0.993572 0
M  V30 4825 H 464.805 3.80395 -0.0894158 0
M  V30 4826 H 464.317 3.40123 -1.86917 0
M  V30 4827 H 462.418 3.68046 0.580735 0
M  V30 4828 H 462.531 4.68222 -1.01513 0
M  V30 4829 H 460.895 2.50788 -0.444712 0
M  V30 4830 H 461.678 2.71309 -2.10348 0
M  V30 4831 N 464.123 0.554532 1.47522 0
M  V30 4832 C 465.369 0.0295227 2.02779 0
M  V30 4833 C 465.702 -1.31582 1.42828 0
M  V30 4834 O 464.977 -1.85561 0.582872 0
M  V30 4835 C 465.26 -0.0664057 3.60039 0
M  V30 4836 C 465.113 1.30585 4.30427 0
M  V30 4837 C 466.432 -0.781162 4.33112 0
M  V30 4838 H 463.551 0.0122027 0.736899 0
M  V30 4839 H 466.193 0.716305 1.7598 0
M  V30 4840 H 464.343 -0.651307 3.83002 0
M  V30 4841 H 466.015 1.93374 4.18813 0
M  V30 4842 H 464.258 1.88125 3.90886 0
M  V30 4843 H 464.929 1.19147 5.38988 0
M  V30 4844 H 467.405 -0.284565 4.15126 0
M  V30 4845 H 466.281 -0.817237 5.42782 0
M  V30 4846 H 466.542 -1.83672 4.0214 0
M  V30 4847 N 465.601 -1.54893 0.290851 0
M  V30 4848 C 466.564 -2.21824 -0.576784 0
M  V30 4849 C 467.564 -1.20104 -1.06919 0
M  V30 4850 O 468.754 -1.44906 -0.966843 0
M  V30 4851 C 465.886 -2.89662 -1.79747 0
M  V30 4852 H 467.079 -2.99899 0.00784051 0
M  V30 4853 H 464.632 -1.56245 0.0415934 0
M  V30 4854 H 465.367 -2.15639 -2.42219 0
M  V30 4855 H 465.152 -3.64219 -1.45214 0
M  V30 4856 H 466.642 -3.4075 -2.4141 0
M  V30 4857 N 467.08 -0.0183926 -1.57589 0
M  V30 4858 C 468.01 0.965596 -2.12599 0
M  V30 4859 C 468.991 1.34641 -1.0395 0
M  V30 4860 O 470.176 1.42693 -1.31729 0
M  V30 4861 C 467.306 2.25149 -2.64434 0
M  V30 4862 C 466.26 2.01175 -3.77773 0
M  V30 4863 C 465.586 3.35937 -4.15994 0
M  V30 4864 C 466.886 1.35953 -5.04296 0
M  V30 4865 H 468.58 0.507504 -2.95067 0
M  V30 4866 H 466.126 0.242671 -1.41941 0
M  V30 4867 H 468.079 2.94357 -3.01549 0
M  V30 4868 H 466.803 2.73105 -1.79112 0
M  V30 4869 H 465.462 1.34388 -3.4108 0
M  V30 4870 H 465.11 3.81631 -3.27669 0
M  V30 4871 H 464.81 3.20705 -4.92364 0
M  V30 4872 H 466.334 4.0643 -4.55683 0
M  V30 4873 H 467.748 1.95144 -5.39065 0
M  V30 4874 H 466.145 1.31152 -5.85593 0
M  V30 4875 H 467.215 0.331071 -4.83768 0
M  V30 4876 N 468.558 1.5553 0.254621 0
M  V30 4877 C 469.783 1.81383 1.00573 0
M  V30 4878 C 470.208 0.594419 1.78461 0
M  V30 4879 O 469.566 -0.456403 1.75461 0
M  V30 4880 C 469.614 3.04892 1.92545 0
M  V30 4881 O 468.718 2.81266 3.01601 0
M  V30 4882 H 468.059 0.598969 0.286587 0
M  V30 4883 H 470.589 2.02703 0.277952 0
M  V30 4884 H 470.599 3.34119 2.34155 0
M  V30 4885 H 469.274 3.93287 1.3527 0
M  V30 4886 H 467.851 2.63185 2.64174 0
M  V30 4887 N 470.036 -0.519951 1.48776 0
M  V30 4888 C 471.282 -1.27711 1.57536 0
M  V30 4889 C 471.615 -1.92547 0.252866 0
M  V30 4890 O 470.89 -1.7979 -0.742021 0
M  V30 4891 C 471.173 -2.35875 2.72094 0
M  V30 4892 C 471.026 -1.75664 4.1408 0
M  V30 4893 C 472.345 -3.37575 2.82367 0
M  V30 4894 H 469.464 -0.462971 0.573434 0
M  V30 4895 H 472.106 -0.578194 1.80989 0
M  V30 4896 H 470.256 -2.95488 2.52228 0
M  V30 4897 H 471.928 -1.20025 4.45412 0
M  V30 4898 H 470.171 -1.06154 4.20611 0
M  V30 4899 H 470.842 -2.54029 4.90075 0
M  V30 4900 H 473.318 -2.87929 3.00393 0
M  V30 4901 H 472.194 -4.1064 3.64233 0
M  V30 4902 H 472.455 -3.98743 1.90936 0
M  V30 4903 N 471.514 -1.37532 -0.769588 0
M  V30 4904 C 472.424 -1.35668 -1.91393 0
M  V30 4905 C 473.44 -0.255954 -1.72107 0
M  V30 4906 O 474.616 -0.491704 -1.95305 0
M  V30 4907 C 471.681 -1.16481 -3.26547 0
M  V30 4908 C 470.742 -2.36212 -3.58472 0
M  V30 4909 C 469.975 -2.17932 -4.87177 0
M  V30 4910 O 470.198 -1.1647 -5.58382 0
M  V30 4911 O 469.132 -3.06167 -5.18214 0
M  V30 4912 H 472.958 -2.32055 -1.95918 0
M  V30 4913 H 470.543 -1.18284 -0.912641 0
M  V30 4914 H 472.425 -1.07778 -4.07384 0
M  V30 4915 H 471.1 -0.231687 -3.2287 0
M  V30 4916 H 470.007 -2.50488 -2.77861 0
M  V30 4917 H 471.34 -3.281 -3.66894 0
M  V30 4918 N 472.992 0.995999 -1.22138 0
M  V30 4919 C 473.955 2.06711 -0.990109 0
M  V30 4920 C 474.955 1.60744 0.0422978 0
M  V30 4921 O 476.145 1.73095 -0.195895 0
M  V30 4922 C 473.277 3.37288 -0.49491 0
M  V30 4923 H 474.47 2.28661 -1.94047 0
M  V30 4924 H 472.023 1.16711 -1.03963 0
M  V30 4925 H 472.758 3.21022 0.459948 0
M  V30 4926 H 472.543 3.71986 -1.23971 0
M  V30 4927 H 474.033 4.16103 -0.353253 0
M  V30 4928 N 474.47 1.03057 1.19235 0
M  V30 4929 C 475.433 0.617418 2.20727 0
M  V30 4930 C 476.433 -0.319856 1.57587 0
M  V30 4931 O 477.623 -0.106633 1.73873 0
M  V30 4932 C 474.755 -0.096296 3.40764 0
M  V30 4933 H 475.948 1.51544 2.58794 0
M  V30 4934 H 473.501 0.821949 1.32942 0
M  V30 4935 H 474.236 -1.00859 3.08217 0
M  V30 4936 H 474.021 0.577217 3.87828 0
M  V30 4937 H 475.511 -0.372219 4.15938 0
M  V30 4938 N 475.948 -1.35272 0.808662 0
M  V30 4939 C 476.858 -2.33546 0.222079 0
M  V30 4940 C 477.874 -1.6196 -0.636011 0
M  V30 4941 O 479.05 -1.93822 -0.547274 0
M  V30 4942 C 476.115 -3.41148 -0.61795 0
M  V30 4943 C 475.176 -4.28507 0.260875 0
M  V30 4944 C 474.409 -5.3097 -0.539156 0
M  V30 4945 O 474.632 -5.42123 -1.77367 0
M  V30 4946 O 473.566 -6.01858 0.0710526 0
M  V30 4947 H 477.392 -2.85515 1.03512 0
M  V30 4948 H 474.977 -1.38079 0.570495 0
M  V30 4949 H 476.859 -4.06889 -1.09634 0
M  V30 4950 H 475.534 -2.91447 -1.40855 0
M  V30 4951 H 474.441 -3.6574 0.786451 0
M  V30 4952 H 475.774 -4.81611 1.01547 0
M  V30 4953 N 477.426 -0.562348 -1.47226 0
M  V30 4954 C 478.389 0.172056 -2.28553 0
M  V30 4955 C 479.389 0.837928 -1.37242 0
M  V30 4956 O 480.579 0.693001 -1.59822 0
M  V30 4957 C 477.711 1.25223 -3.17068 0
M  V30 4958 H 478.904 -0.542401 -2.94954 0
M  V30 4959 H 476.457 -0.319493 -1.53 0
M  V30 4960 H 477.192 1.99892 -2.55369 0
M  V30 4961 H 476.977 0.779515 -3.84273 0
M  V30 4962 H 478.467 1.76791 -3.78332 0
M  V30 4963 N 478.904 1.54736 -0.299062 0
M  V30 4964 C 479.834 2.26409 0.571085 0
M  V30 4965 C 480.815 1.2629 1.13951 0
M  V30 4966 O 482 1.55059 1.16921 0
M  V30 4967 C 479.13 3.00338 1.74396 0
M  V30 4968 C 478.084 4.07588 1.30599 0
M  V30 4969 C 477.41 4.69222 2.56387 0
M  V30 4970 C 478.71 5.20455 0.438645 0
M  V30 4971 H 480.404 2.99388 -0.0266991 0
M  V30 4972 H 477.95 1.43993 -0.0142812 0
M  V30 4973 H 479.903 3.49198 2.35878 0
M  V30 4974 H 478.627 2.24934 2.36796 0
M  V30 4975 H 477.286 3.59575 0.71424 0
M  V30 4976 H 476.934 3.9046 3.17097 0
M  V30 4977 H 476.634 5.41653 2.27784 0
M  V30 4978 H 478.158 5.20844 3.18675 0
M  V30 4979 H 479.572 5.65221 0.959085 0
M  V30 4980 H 477.969 5.99594 0.246466 0
M  V30 4981 H 479.039 4.8192 -0.536738 0
M  V30 4982 N 480.382 0.0267497 1.57577 0
M  V30 4983 C 481.63 -0.651116 1.91324 0
M  V30 4984 C 481.951 -1.72804 0.90353 0
M  V30 4985 O 481.221 -1.95822 -0.0552946 0
M  V30 4986 H 479.801 -0.243491 0.706202 0
M  V30 4987 H 482.463 0.0739935 1.94759 0
M  V30 4988 H 481.559 -1.10536 2.9187 0
M  V30 4989 N 481.861 -1.55662 -0.24637 0
M  V30 4990 C 483.107 -1.77782 -0.975779 0
M  V30 4991 C 483.44 -0.592103 -1.84953 0
M  V30 4992 O 482.715 0.409588 -1.90138 0
M  V30 4993 C 482.998 -3.09788 -1.83584 0
M  V30 4994 C 482.851 -4.38764 -0.990241 0
M  V30 4995 C 484.17 -3.38029 -2.81823 0
M  V30 4996 H 481.289 -0.646789 -0.353317 0
M  V30 4997 H 483.931 -1.88398 -0.246248 0
M  V30 4998 H 482.081 -3.00869 -2.45784 0
M  V30 4999 H 483.753 -4.59675 -0.386897 0
M  V30 5000 H 481.996 -4.32798 -0.294626 0
M  V30 5001 H 482.667 -5.27514 -1.62584 0
M  V30 5002 H 485.143 -3.46915 -2.2976 0
M  V30 5003 H 484.019 -4.3161 -3.39122 0
M  V30 5004 H 484.28 -2.58968 -3.58313 0
M  V30 5005 N 483.339 0.512053 -1.4905 0
M  V30 5006 C 484.587 1.26436 -1.57665 0
M  V30 5007 C 484.908 1.93255 -0.260293 0
M  V30 5008 O 484.178 1.82206 0.719564 0
M  V30 5009 H 482.758 0.469658 -0.580888 0
M  V30 5010 H 485.42 0.594398 -1.85615 0
M  V30 5011 H 484.516 2.03417 -2.36702 0
M  V30 5012 N 484.817 1.37938 0.762283 0
M  V30 5013 C 485.727 1.36681 1.90671 0
M  V30 5014 C 486.743 0.265078 1.71969 0
M  V30 5015 O 487.919 0.502055 1.95042 0
M  V30 5016 C 484.984 1.18211 3.25925 0
M  V30 5017 C 484.045 2.3811 3.57214 0
M  V30 5018 C 483.278 2.20512 4.86014 0
M  V30 5019 O 483.501 1.19429 5.57757 0
M  V30 5020 O 482.435 3.08911 5.16583 0
M  V30 5021 H 486.261 2.33091 1.94685 0
M  V30 5022 H 483.846 1.18767 0.906356 0
M  V30 5023 H 485.728 1.09937 4.06807 0
M  V30 5024 H 484.403 0.248807 3.22742 0
M  V30 5025 H 483.31 2.51958 2.76529 0
M  V30 5026 H 484.643 3.30041 3.65149 0
M  V30 5027 N 486.295 -0.989507 1.22664 0
M  V30 5028 C 487.543 -1.72612 1.05117 0
M  V30 5029 C 487.864 -1.90552 -0.414131 0
M  V30 5030 O 487.134 -1.4676 -1.29762 0
M  V30 5031 H 485.714 -0.639555 0.385977 0
M  V30 5032 H 488.376 -1.19158 1.54232 0
M  V30 5033 H 487.472 -2.71926 1.53175 0
M  V30 5034 N 487.773 -1.03688 -1.18687 0
M  V30 5035 C 488.736 -0.629115 -2.20397 0
M  V30 5036 C 489.736 0.311495 -1.57754 0
M  V30 5037 O 490.926 0.0974107 -1.73927 0
M  V30 5038 C 488.058 0.0782231 -3.4081 0
M  V30 5039 H 489.251 -1.52915 -2.57987 0
M  V30 5040 H 486.804 -0.828988 -1.32505 0
M  V30 5041 H 487.539 0.992233 -3.08748 0
M  V30 5042 H 487.324 -0.597776 -3.87517 0
M  V30 5043 H 488.814 0.350156 -4.16129 0
M  V30 5044 N 489.251 1.34841 -0.815825 0
M  V30 5045 C 490.476 2.03261 -0.41226 0
M  V30 5046 C 490.901 1.61055 0.971751 0
M  V30 5047 O 490.259 0.7917 1.63101 0
M  V30 5048 C 490.307 3.56914 -0.514289 0
M  V30 5049 O 489.411 4.09728 0.468675 0
M  V30 5050 H 488.752 0.641664 -0.170771 0
M  V30 5051 H 491.282 1.72241 -1.10427 0
M  V30 5052 H 491.292 4.06156 -0.387457 0
M  V30 5053 H 489.967 3.86982 -1.52375 0
M  V30 5054 H 488.544 3.71681 0.301316 0
M  V30 5055 N 490.729 0.570148 1.46925 0
M  V30 5056 C 491.975 0.0510284 2.02736 0
M  V30 5057 C 492.308 -1.3006 1.44215 0
M  V30 5058 O 491.583 -1.84932 0.602521 0
M  V30 5059 C 491.866 -0.028215 3.60089 0
M  V30 5060 C 491.719 1.35142 4.29018 0
M  V30 5061 C 493.038 -0.735181 4.33916 0
M  V30 5062 H 490.157 0.0200178 0.736728 0
M  V30 5063 H 492.799 0.73493 1.75211 0
M  V30 5064 H 490.949 -0.610648 3.83671 0
M  V30 5065 H 492.621 1.97806 4.16738 0
M  V30 5066 H 490.864 1.9226 3.88868 0
M  V30 5067 H 491.535 1.24857 5.37694 0
M  V30 5068 H 494.011 -0.240519 4.15404 0
M  V30 5069 H 492.887 -0.759622 5.43618 0
M  V30 5070 H 493.148 -1.79397 4.04066 0
M  V30 5071 N 492.207 -1.54576 0.307264 0
M  V30 5072 C 493.623 -1.59534 -0.0459251 0
M  V30 5073 C 493.823 -1.32414 -1.51884 0
M  V30 5074 O 492.879 -1.1006 -2.27251 0
M  V30 5075 C 494.192 -2.98566 0.357649 0
M  V30 5076 C 495.74 -3.11491 0.306937 0
M  V30 5077 C 496.215 -4.52842 0.685427 0
M  V30 5078 N 497.706 -4.58782 0.638203 0
M  V30 5079 C 498.441 -5.66238 0.903458 0
M  V30 5080 N 497.937 -6.81703 1.23501 0
M  V30 5081 N 499.73 -5.55937 0.830102 0
M  V30 5082 H 491.881 -1.70464 1.26712 0
M  V30 5083 H 494.144 -0.79647 0.514139 0
M  V30 5084 H 493.85 -3.23356 1.38325 0
M  V30 5085 H 493.724 -3.76117 -0.285565 0
M  V30 5086 H 496.111 -2.86446 -0.709424 0
M  V30 5087 H 496.192 -2.36081 0.984861 0
M  V30 5088 H 495.836 -4.78618 1.69963 0
M  V30 5089 H 495.766 -5.26598 -0.0146346 0
M  V30 5090 H 498.257 -3.75849 0.393138 0
M  V30 5091 H 498.57 -7.59582 1.42322 0
M  V30 5092 H 496.915 -6.8324 1.27311 0
M  V30 5093 H 500.106 -4.64608 0.570693 0
M  V30 5094 H 500.279 -6.39597 1.04019 0
M  V30 5095 N 493.685 -0.035106 -1.57561 0
M  V30 5096 C 494.615 0.942993 -2.13612 0
M  V30 5097 C 495.596 1.33531 -1.05373 0
M  V30 5098 O 496.781 1.41287 -1.33235 0
M  V30 5099 C 493.911 2.22332 -2.66807 0
M  V30 5100 C 492.865 1.97156 -3.79886 0
M  V30 5101 C 492.191 3.31506 -4.19533 0
M  V30 5102 C 493.491 1.30596 -5.05709 0
M  V30 5103 H 495.185 0.476179 -2.95589 0
M  V30 5104 H 492.731 0.227602 -1.4219 0
M  V30 5105 H 494.684 2.91142 -3.04654 0
M  V30 5106 H 493.408 2.7119 -1.81999 0
M  V30 5107 H 492.067 1.30763 -3.42486 0
M  V30 5108 H 491.715 3.78134 -3.31698 0
M  V30 5109 H 491.415 3.15465 -4.95738 0
M  V30 5110 H 492.939 4.01574 -4.59968 0
M  V30 5111 H 494.353 1.89416 -5.41105 0
M  V30 5112 H 492.75 1.24934 -5.86951 0
M  V30 5113 H 493.82 0.279742 -4.84092 0
M  V30 5114 N 495.163 1.55791 0.238111 0
M  V30 5115 C 496.409 1.78297 0.966337 0
M  V30 5116 C 496.742 0.601903 1.84637 0
M  V30 5117 O 496.017 -0.399499 1.90353 0
M  V30 5118 C 496.3 3.10758 1.81939 0
M  V30 5119 C 496.153 4.39283 0.966958 0
M  V30 5120 C 497.472 3.39519 2.80027 0
M  V30 5121 H 494.591 0.648654 0.349882 0
M  V30 5122 H 497.233 1.88525 0.236253 0
M  V30 5123 H 495.383 3.02168 2.44185 0
M  V30 5124 H 497.055 4.59873 0.362514 0
M  V30 5125 H 495.298 4.32948 0.271669 0
M  V30 5126 H 495.969 5.28368 1.59784 0
M  V30 5127 H 498.445 3.48128 2.27917 0
M  V30 5128 H 497.321 4.33402 3.36829 0
M  V30 5129 H 497.582 2.60864 3.56934 0
M  V30 5130 N 496.642 -0.504142 1.49319 0
M  V30 5131 C 497.605 -1.5883 1.65244 0
M  V30 5132 C 498.605 -1.52009 0.524386 0
M  V30 5133 O 499.795 -1.55218 0.79077 0
M  V30 5134 C 496.927 -2.98481 1.64687 0
M  V30 5135 H 498.12 -1.4604 2.61939 0
M  V30 5136 H 495.673 -0.728144 1.38303 0
M  V30 5137 H 496.408 -3.16751 0.695644 0
M  V30 5138 H 496.193 -3.0484 2.46607 0
M  V30 5139 H 497.683 -3.77256 1.79075 0
M  V30 5140 N 498.12 -1.38341 -0.754957 0
M  V30 5141 C 499.366 -1.34672 -1.51628 0
M  V30 5142 C 499.699 0.0636036 -1.94096 0
M  V30 5143 O 498.974 1.0245 -1.6533 0
M  V30 5144 C 499.257 -2.30116 -2.76981 0
M  V30 5145 C 499.11 -3.80003 -2.4066 0
M  V30 5146 C 500.429 -2.23715 -3.78998 0
M  V30 5147 H 497.548 -0.490517 -0.550056 0
M  V30 5148 H 500.19 -1.69178 -0.864807 0
M  V30 5149 H 498.34 -2.00821 -3.3257 0
M  V30 5150 H 500.012 -4.19966 -1.90856 0
M  V30 5151 H 498.255 -3.97751 -1.73137 0
M  V30 5152 H 498.926 -4.42244 -3.30339 0
M  V30 5153 H 501.402 -2.49574 -3.32945 0
M  V30 5154 H 500.278 -2.9261 -4.64403 0
M  V30 5155 H 500.539 -1.23554 -4.24484 0
M  V30 5156 O 499.637 0.895511 -1.34398 0
M  V30 5157 H 500.328 1.53136 -1.18614 0
M  V30 END ATOM
M  V30 BEGIN BOND
M  V30 END BOND
M  V30 END CTAB
M  END
$$$$
