drugbank_target|P9WH11 dTDP-4-dehydrorhamnose 3,5-epimerase (DB04530)
 OpenBabel12092120303D

  0  0  0     0  0            999 V3000
M  V30 BEGIN CTAB
M  V30 COUNTS 3078 3118 0 0 0
M  V30 BEGIN ATOM
M  V30 1 H -0.908 1.98254 -0.117106 0
M  V30 2 N 0 1.576 0 0
M  V30 3 C 0.933 2.03868 1.02534 0
M  V30 4 C 1.911 0.928543 1.3348 0
M  V30 5 O 3.095 1.19667 1.45644 0
M  V30 6 C 0.222 2.43627 2.35294 0
M  V30 7 C -0.732 3.65373 2.2001 0
M  V30 8 S 0.101 5.13292 1.52614 0
M  V30 9 C 1.257 5.56322 2.86805 0
M  V30 10 H 1.49 2.90518 0.631377 0
M  V30 11 H -0.977 1.52953 0.210867 0
M  V30 12 H 0.981 2.67203 3.11629 0
M  V30 13 H -0.358 1.57376 2.7183 0
M  V30 14 H -1.165 3.90944 3.18086 0
M  V30 15 H -1.563 3.418 1.51819 0
M  V30 16 H 0.729 5.58782 3.83104 0
M  V30 17 H 1.672 6.56266 2.65933 0
M  V30 18 H 2.08 4.83886 2.90714 0
M  V30 19 N 1.4781 -0.272755 1.55222 0
M  V30 20 C 2.4251 -1.33716 1.88119 0
M  V30 21 C 3.3951 -1.49066 0.73271 0
M  V30 22 O 4.5801 -1.63469 0.984002 0
M  V30 23 C 1.7201 -2.69238 2.15882 0
M  V30 24 C 0.8331 -2.62108 3.43399 0
M  V30 25 C -0.0319 -3.89811 3.60861 0
M  V30 26 C -0.9929 -3.77193 4.8207 0
M  V30 27 N -1.8559 -4.9673 4.96189 0
M  V30 28 H 2.9841 -1.04962 2.78903 0
M  V30 29 H 0.5211 -0.507088 1.38083 0
M  V30 30 H 2.4791 -3.48089 2.29978 0
M  V30 31 H 1.1091 -2.96194 1.28331 0
M  V30 32 H 0.1611 -1.74967 3.37773 0
M  V30 33 H 1.4731 -2.48685 4.32386 0
M  V30 34 H 0.6271 -4.77103 3.74777 0
M  V30 35 H -0.6339 -4.06102 2.7006 0
M  V30 36 H -1.6289 -2.88284 4.68159 0
M  V30 37 H -0.4039 -3.62421 5.74307 0
M  V30 38 H -2.4579 -5.13431 4.08319 0
M  V30 39 H -2.5409 -4.85839 5.79221 0
M  V30 40 H -1.2729 -5.85594 5.1449 0
M  V30 41 N 2.9562 -1.48159 -0.537278 0
M  V30 42 C 3.9192 -1.61665 -1.62472 0
M  V30 43 C 4.9192 -0.490395 -1.5314 0
M  V30 44 O 6.1092 -0.755998 -1.5694 0
M  V30 45 C 3.2412 -1.57997 -3.02076 0
M  V30 46 H 4.4342 -2.58621 -1.51839 0
M  V30 47 H 1.9872 -1.36647 -0.758771 0
M  V30 48 H 2.7222 -0.624913 -3.18222 0
M  V30 49 H 2.5072 -2.39755 -3.10258 0
M  V30 50 H 3.9972 -1.70627 -3.81151 0
M  V30 51 N 4.4343 0.785586 -1.36625 0
M  V30 52 C 5.8503 1.08419 -1.17122 0
M  V30 53 C 6.0503 2.015 0.00208491 0
M  V30 54 O 5.1063 2.43551 0.666278 0
M  V30 55 C 6.4193 1.69498 -2.48377 0
M  V30 56 C 7.9673 1.81821 -2.54775 0
M  V30 57 C 8.4423 2.46315 -3.86126 0
M  V30 58 N 9.9333 2.53779 -3.87492 0
M  V30 59 C 10.6683 3.045 -4.85868 0
M  V30 60 N 10.1643 3.55499 -5.94637 0
M  V30 61 N 11.9573 3.03247 -4.73284 0
M  V30 62 H 4.1083 0.167264 -2.1174 0
M  V30 63 H 6.3713 0.13682 -0.938075 0
M  V30 64 H 6.0773 1.08571 -3.34522 0
M  V30 65 H 5.9513 2.6896 -2.64462 0
M  V30 66 H 8.3383 2.41884 -1.69045 0
M  V30 67 H 8.4193 0.811532 -2.42586 0
M  V30 68 H 8.0633 1.86895 -4.72263 0
M  V30 69 H 7.9933 3.47561 -3.95612 0
M  V30 70 H 10.4843 2.17672 -3.08913 0
M  V30 71 H 10.7973 3.92562 -6.65669 0
M  V30 72 H 9.1423 3.5364 -5.98301 0
M  V30 73 H 12.3333 2.62696 -3.87438 0
M  V30 74 H 12.5063 3.42467 -5.50109 0
M  V30 75 N 5.9124 1.20967 1.01018 0
M  V30 76 C 6.8224 0.980157 2.13143 0
M  V30 77 C 7.8384 -0.0660665 1.73875 0
M  V30 78 O 9.0144 0.122821 2.01025 0
M  V30 79 C 6.0794 0.54216 3.42435 0
M  V30 80 C 5.1404 1.65999 3.95908 0
M  V30 81 C 4.3734 1.2428 5.19028 0
M  V30 82 O 4.5964 0.114196 5.70286 0
M  V30 83 O 3.5304 2.05271 5.65816 0
M  V30 84 H 7.3564 1.91913 2.35379 0
M  V30 85 H 4.9414 0.994099 1.11526 0
M  V30 86 H 6.8234 0.30744 4.20277 0
M  V30 87 H 5.4984 -0.36815 3.216 0
M  V30 88 H 4.4054 1.94906 3.19316 0
M  V30 89 H 5.7384 2.54753 4.21143 0
M  V30 90 N 7.3905 -1.2043 1.01659 0
M  V30 91 C 8.3205 -2.25466 0.607226 0
M  V30 92 C 9.3015 -1.65853 -0.377716 0
M  V30 93 O 10.4865 -1.92409 -0.263149 0
M  V30 94 C 7.6165 -3.47256 -0.0552949 0
M  V30 95 C 6.5705 -4.19462 0.850632 0
M  V30 96 C 5.8965 -5.34673 0.0538859 0
M  V30 97 C 7.1965 -4.75603 2.15868 0
M  V30 98 H 8.8905 -2.59962 1.48526 0
M  V30 99 H 6.4365 -1.2496 0.715605 0
M  V30 100 H 8.3895 -4.19917 -0.353233 0
M  V30 101 H 7.1135 -3.11924 -0.968045 0
M  V30 102 H 5.7725 -3.48667 1.13257 0
M  V30 103 H 5.4205 -4.95585 -0.860514 0
M  V30 104 H 5.1205 -5.83913 0.657192 0
M  V30 105 H 6.6445 -6.10138 -0.237598 0
M  V30 106 H 8.0585 -5.40083 1.92311 0
M  V30 107 H 6.4555 -5.3528 2.71284 0
M  V30 108 H 7.5255 -3.94346 2.82169 0
M  V30 109 N 8.8686 -0.792821 -1.36206 0
M  V30 110 C 10.1456 -0.290627 -1.93429 0
M  V30 111 C 10.5256 1.21773 -1.72437 0
M  V30 112 O 9.8736 2.0108 -1.08531 0
M  V30 113 C 10.0836 -0.686973 -3.42172 0
M  V30 114 C 11.4316 -0.668643 -4.19302 0
M  V30 115 O 12.4556 -0.627658 -3.50626 0
M  V30 116 O 11.3146 -0.714597 -5.41808 0
M  V30 117 H 8.4086 -0.0727927 -0.82379 0
M  V30 118 H 10.9546 -0.875593 -1.45367 0
M  V30 119 H 9.7266 -1.72711 -3.51122 0
M  V30 120 H 9.3496 -0.0760733 -3.97527 0
M  V30 121 N 10.3467 1.47872 -0.545128 0
M  V30 122 C 11.5927 2.02793 -0.0166104 0
M  V30 123 C 11.9257 1.41987 1.32489 0
M  V30 124 O 11.2007 0.571045 1.85928 0
M  V30 125 C 11.4837 3.59989 0.0893294 0
M  V30 126 C 11.3367 4.3125 -1.27841 0
M  V30 127 C 12.6557 4.32606 0.808724 0
M  V30 128 H 9.7747 0.736962 -0.00751035 0
M  V30 129 H 12.4167 1.76433 -0.705085 0
M  V30 130 H 10.5667 3.82579 0.675681 0
M  V30 131 H 12.2387 4.20035 -1.90704 0
M  V30 132 H 10.4817 3.92076 -1.85632 0
M  V30 133 H 11.1527 5.39736 -1.15713 0
M  V30 134 H 13.6287 4.14936 0.310992 0
M  V30 135 H 12.5047 5.42251 0.851782 0
M  V30 136 H 12.7657 4.00963 1.86229 0
M  V30 137 N 11.8248 0.280983 1.55075 0
M  V30 138 C 13.2358 -0.215629 1.85451 0
M  V30 139 C 13.5868 -1.54991 1.203 0
M  V30 140 O 12.7118 -2.10699 0.493435 0
M  V30 141 C 13.3068 -0.398026 3.36454 0
M  V30 142 C 11.8658 -0.838866 3.66933 0
M  V30 143 C 11.0128 0.064458 2.77225 0
M  V30 144 H 13.9638 0.502601 1.50531 0
M  V30 145 H 13.9848 -1.23569 3.59876 0
M  V30 146 H 13.4968 0.573241 3.83843 0
M  V30 147 H 11.5978 -1.8214 3.25048 0
M  V30 148 H 11.7108 -0.672123 4.74362 0
M  V30 149 H 10.0748 -0.452863 2.50642 0
M  V30 150 H 10.8578 1.03172 3.2743 0
M  V30 151 N 13.3029 -1.57598 0.00835791 0
M  V30 152 C 14.5509 -1.90551 -0.6734 0
M  V30 153 C 14.8719 -0.883301 -1.73847 0
M  V30 154 O 14.1419 0.0781442 -1.95744 0
M  V30 155 H 12.7219 -0.703312 -0.251717 0
M  V30 156 H 15.3839 -1.94833 0.0512592 0
M  V30 157 H 14.4799 -2.9056 -1.13935 0
M  V30 158 N 14.781 0.264519 -1.55364 0
M  V30 159 C 15.744 1.31046 -1.88042 0
M  V30 160 C 16.744 1.41943 -0.755569 0
M  V30 161 O 17.934 1.40947 -1.02369 0
M  V30 162 C 15.066 2.69067 -2.09323 0
M  V30 163 H 16.259 1.03297 -2.81549 0
M  V30 164 H 13.812 0.502989 -1.47986 0
M  V30 165 H 14.547 3.01982 -1.18226 0
M  V30 166 H 14.332 2.62542 -2.91229 0
M  V30 167 H 15.822 3.44623 -2.35848 0
M  V30 168 N 16.2591 1.48442 0.529413 0
M  V30 169 C 17.5051 1.57699 1.28463 0
M  V30 170 C 17.8601 0.247913 1.90796 0
M  V30 171 O 17.1531 -0.749279 1.76342 0
M  V30 172 C 17.3471 2.6523 2.39558 0
M  V30 173 C 17.1761 4.08464 1.88114 0
M  V30 174 C 15.9461 4.75596 1.70693 0
M  V30 175 C 18.1441 4.94613 1.40935 0
M  V30 176 N 16.1261 6.03245 1.13881 0
M  V30 177 C 17.4971 6.12511 0.960734 0
M  V30 178 C 19.5521 4.80833 1.29243 0
M  V30 179 C 18.2551 7.18149 0.406792 0
M  V30 180 C 20.2811 5.86593 0.752487 0
M  V30 181 C 19.6431 7.037 0.313946 0
M  V30 182 H 15.7421 0.631608 0.46108 0
M  V30 183 H 18.3261 1.85325 0.596886 0
M  V30 184 H 16.4971 2.39425 3.05827 0
M  V30 185 H 18.2291 2.64169 3.06589 0
M  V30 186 H 14.9841 4.31938 1.94232 0
M  V30 187 H 15.4081 6.71324 0.874831 0
M  V30 188 H 20.0501 3.90635 1.61754 0
M  V30 189 H 17.7681 8.0807 0.0693671 0
M  V30 190 H 21.3541 5.77985 0.665192 0
M  V30 191 H 20.2341 7.8414 -0.0973632 0
M  V30 192 N 17.7372 -0.778329 1.37039 0
M  V30 193 C 18.6472 -1.92253 1.34446 0
M  V30 194 C 19.6632 -1.72267 0.244991 0
M  V30 195 O 20.8392 -1.95615 0.479258 0
M  V30 196 C 17.9042 -3.27282 1.144 0
M  V30 197 C 16.9652 -3.59969 2.33925 0
M  V30 198 C 16.1982 -4.88555 2.14825 0
M  V30 199 O 16.4212 -5.59113 1.12912 0
M  V30 200 O 15.3552 -5.20153 3.02861 0
M  V30 201 H 19.1812 -1.97392 2.30803 0
M  V30 202 H 16.7662 -0.920154 1.17701 0
M  V30 203 H 18.6482 -4.08062 1.05182 0
M  V30 204 H 17.3232 -3.23011 0.211124 0
M  V30 205 H 16.2302 -2.7945 2.48714 0
M  V30 206 H 17.5632 -3.68976 3.25757 0
M  V30 207 N 19.2153 -1.21501 -1.00376 0
M  V30 208 C 20.4643 -1.02718 -1.73586 0
M  V30 209 C 20.7773 0.439589 -1.90596 0
M  V30 210 O 21.9833 0.746848 -2.61026 0
M  V30 211 C 20.4393 -1.78929 -3.1227 0
M  V30 212 C 20.0473 -3.29783 -3.03228 0
M  V30 213 C 21.7913 -1.68557 -3.89601 0
M  V30 214 C 19.6983 -3.98479 -4.36999 0
M  V30 215 H 18.6283 -0.380733 -0.650814 0
M  V30 216 H 21.2793 -1.45248 -1.1214 0
M  V30 217 H 19.6613 -1.29192 -3.74333 0
M  V30 218 H 20.8353 -3.86832 -2.50395 0
M  V30 219 H 19.1503 -3.40711 -2.39385 0
M  V30 220 H 21.7473 -2.17211 -4.88593 0
M  V30 221 H 22.0903 -0.644021 -4.11288 0
M  V30 222 H 22.6233 -2.15778 -3.34193 0
M  V30 223 H 19.3623 -5.02841 -4.20513 0
M  V30 224 H 18.8823 -3.46219 -4.89788 0
M  V30 225 H 20.5613 -4.03462 -5.05794 0
M  V30 226 N 20.6934 1.19889 -1.02296 0
M  V30 227 C 21.9214 1.9339 -0.735399 0
M  V30 228 C 22.3364 1.75148 0.704887 0
M  V30 229 O 21.6934 1.06954 1.47875 0
M  V30 230 C 21.7444 3.45313 -1.06962 0
M  V30 231 O 21.4654 3.62964 -2.45334 0
M  V30 232 C 22.9664 4.35948 -0.804021 0
M  V30 233 H 20.1864 0.61448 -0.269546 0
M  V30 234 H 22.7304 1.522 -1.36585 0
M  V30 235 H 20.8854 3.84359 -0.484455 0
M  V30 236 H 21.2994 4.56886 -2.57595 0
M  V30 237 H 22.7734 5.41174 -1.0879 0
M  V30 238 H 23.2504 4.3842 0.261691 0
M  V30 239 H 23.8564 4.02574 -1.37164 0
M  V30 240 N 22.1715 0.800033 1.35784 0
M  V30 241 C 23.5825 0.439142 1.81462 0
M  V30 242 C 23.9335 -1.03813 1.66485 0
M  V30 243 O 23.0585 -1.80626 1.19177 0
M  V30 244 C 23.6535 0.790314 3.29453 0
M  V30 245 C 22.2125 0.482111 3.733 0
M  V30 246 C 21.3595 1.01938 2.57883 0
M  V30 247 H 24.3105 0.992254 1.23855 0
M  V30 248 H 24.3315 0.0853677 3.80404 0
M  V30 249 H 23.8435 1.86554 3.40322 0
M  V30 250 H 21.9445 -0.584652 3.67984 0
M  V30 251 H 22.0575 1.01015 4.6833 0
M  V30 252 H 20.4215 0.442043 2.50835 0
M  V30 253 H 21.2045 2.10059 2.71533 0
M  V30 254 N 23.6496 -1.47581 0.552962 0
M  V30 255 C 24.8776 -2.06875 0.0320556 0
M  V30 256 C 25.2926 -1.40625 -1.25976 0
M  V30 257 O 24.6496 -0.501349 -1.75479 0
M  V30 258 C 24.7006 -3.61092 -0.17167 0
M  V30 259 O 24.4216 -4.24858 1.06899 0
M  V30 260 C 25.9226 -4.37242 -0.730344 0
M  V30 261 H 23.1426 -0.669561 0.043915 0
M  V30 262 H 25.6866 -1.89646 0.765163 0
M  V30 263 H 23.8416 -3.7785 -0.854894 0
M  V30 264 H 24.2556 -5.17334 0.864059 0
M  V30 265 H 25.7296 -5.45842 -0.822203 0
M  V30 266 H 26.2066 -4.03235 -1.74064 0
M  V30 267 H 26.8126 -4.25219 -0.0829543 0
M  V30 268 N 25.1277 -0.289203 -1.54924 0
M  V30 269 C 26.3767 0.324231 -1.99077 0
M  V30 270 C 26.6897 1.5591 -1.18117 0
M  V30 271 O 27.8957 2.24637 -1.52481 0
M  V30 272 C 26.3517 0.628209 -3.54375 0
M  V30 273 C 25.9597 -0.587647 -4.44129 0
M  V30 274 C 27.7037 1.20349 -4.07083 0
M  V30 275 C 25.6107 -0.257475 -5.90839 0
M  V30 276 H 24.5407 0.124924 -0.743579 0
M  V30 277 H 27.1917 -0.396063 -1.79175 0
M  V30 278 H 25.5737 1.40778 -3.70132 0
M  V30 279 H 26.7477 -1.36418 -4.40144 0
M  V30 280 H 25.0627 -1.08074 -4.0213 0
M  V30 281 H 27.6597 1.46456 -5.14252 0
M  V30 282 H 28.0027 2.14195 -3.56968 0
M  V30 283 H 28.5357 0.485889 -3.94821 0
M  V30 284 H 25.2747 -1.16419 -6.45079 0
M  V30 285 H 24.7947 0.482018 -5.9786 0
M  V30 286 H 26.4737 0.145238 -6.46837 0
M  V30 287 N 26.6058 1.57591 -0.0167156 0
M  V30 288 C 27.5558 2.05953 0.978137 0
M  V30 289 C 28.5398 0.957532 1.29306 0
M  V30 290 O 29.7318 1.22119 1.28125 0
M  V30 291 C 26.8608 2.58006 2.26468 0
M  V30 292 C 25.9468 3.75113 1.97867 0
M  V30 293 N 26.3378 4.86187 1.39486 0
M  V30 294 C 24.6358 3.83363 2.27924 0
M  V30 295 C 25.3368 5.67502 1.27735 0
M  V30 296 N 24.3128 5.14023 1.76866 0
M  V30 297 H 28.1148 2.89236 0.521522 0
M  V30 298 H 25.6288 1.61301 0.188596 0
M  V30 299 H 27.6258 2.90937 2.98599 0
M  V30 300 H 26.2858 1.76148 2.72767 0
M  V30 301 H 27.2968 5.06695 1.07147 0
M  V30 302 H 23.9738 3.1239 2.76982 0
M  V30 303 H 25.3638 6.66791 0.826978 0
M  V30 304 N 28.0839 -0.256276 1.55502 0
M  V30 305 C 29.3299 -0.987079 1.77157 0
M  V30 306 C 29.6629 -1.85327 0.580315 0
M  V30 307 O 28.9379 -1.89874 -0.421686 0
M  V30 308 C 29.2209 -1.85553 3.08613 0
M  V30 309 C 29.0739 -1.01816 4.38125 0
M  V30 310 C 30.3929 -2.8397 3.36228 0
M  V30 311 H 27.5119 -0.357428 0.644526 0
M  V30 312 H 30.1539 -0.258239 1.88237 0
M  V30 313 H 28.3039 -2.47695 2.99298 0
M  V30 314 H 29.9759 -0.416159 4.59419 0
M  V30 315 H 28.2189 -0.322178 4.32602 0
M  V30 316 H 28.8899 -1.65939 5.26468 0
M  V30 317 H 31.3659 -2.31964 3.45445 0
M  V30 318 H 30.2419 -3.41864 4.29442 0
M  V30 319 H 30.5029 -3.59955 2.56681 0
M  V30 320 N 29.562 -1.4872 -0.521534 0
M  V30 321 C 30.839 -1.4766 -1.2828 0
M  V30 322 C 31.219 -0.19292 -2.10217 0
M  V30 323 O 30.567 0.825193 -2.13079 0
M  V30 324 C 30.777 -2.74358 -2.15705 0
M  V30 325 C 32.125 -3.23028 -2.75569 0
M  V30 326 O 33.149 -2.75333 -2.25987 0
M  V30 327 O 32.008 -4.0604 -3.65778 0
M  V30 328 H 29.102 -0.590085 -0.579421 0
M  V30 329 H 31.648 -1.60963 -0.537492 0
M  V30 330 H 30.42 -3.59292 -1.54999 0
M  V30 331 H 30.043 -2.63816 -2.97467 0
M  V30 332 N 31.0401 0.771051 -1.3745 0
M  V30 333 C 32.2651 1.56529 -1.36065 0
M  V30 334 C 32.6901 1.88029 0.0515859 0
M  V30 335 O 32.0481 1.49282 1.02882 0
M  V30 336 C 32.0961 2.85187 -2.20683 0
M  V30 337 O 31.2001 3.79593 -1.61193 0
M  V30 338 H 30.5411 0.47411 -0.464883 0
M  V30 339 H 33.0711 0.954269 -1.80983 0
M  V30 340 H 33.0811 3.34283 -2.33921 0
M  V30 341 H 31.7561 2.61588 -3.23334 0
M  V30 342 H 30.3331 3.38239 -1.56999 0
M  V30 343 N 32.5182 1.22032 0.997298 0
M  V30 344 C 33.9342 0.979326 1.26021 0
M  V30 345 C 34.1342 -0.32972 1.98784 0
M  V30 346 O 33.1902 -1.05345 2.29475 0
M  V30 347 C 34.5032 2.17509 2.07631 0
M  V30 348 C 36.0512 2.21817 2.2083 0
M  V30 349 C 36.5262 3.40933 3.05825 0
M  V30 350 N 38.0172 3.41067 3.13412 0
M  V30 351 C 38.7522 4.29885 3.79455 0
M  V30 352 N 38.2482 5.28914 4.47462 0
M  V30 353 N 40.0412 4.17673 3.76173 0
M  V30 354 H 32.1922 2.06202 0.509352 0
M  V30 355 H 34.4552 0.90334 0.287541 0
M  V30 356 H 34.1612 3.12415 1.61524 0
M  V30 357 H 34.0352 2.17206 3.08385 0
M  V30 358 H 36.4222 1.27462 2.66153 0
M  V30 359 H 36.5032 2.2616 1.1952 0
M  V30 360 H 36.1472 4.35586 2.61203 0
M  V30 361 H 36.0772 3.33829 4.07266 0
M  V30 362 H 38.5682 2.69406 2.65007 0
M  V30 363 H 38.8812 5.92973 4.95583 0
M  V30 364 H 37.2262 5.32831 4.46224 0
M  V30 365 H 40.4172 3.39564 3.22202 0
M  V30 366 H 40.5902 4.87098 4.27363 0
M  V30 367 N 33.9963 -1.19345 1.0293 0
M  V30 368 C 35.2443 -1.88665 0.724574 0
M  V30 369 C 35.5653 -1.80036 -0.749144 0
M  V30 370 O 34.8353 -1.2111 -1.53978 0
M  V30 371 H 33.4153 -0.698406 0.265025 0
M  V30 372 H 36.0773 -1.44885 1.30362 0
M  V30 373 H 35.1733 -2.94987 1.01926 0
M  V30 374 N 35.4744 -0.807222 -1.35358 0
M  V30 375 C 36.4044 -0.232509 -2.3234 0
M  V30 376 C 37.3854 0.642386 -1.57504 0
M  V30 377 O 38.5704 0.572526 -1.85569 0
M  V30 378 C 35.7004 0.619238 -3.41735 0
M  V30 379 C 34.6544 -0.157215 -4.27711 0
M  V30 380 C 33.9804 0.816273 -5.28433 0
M  V30 381 C 35.2804 -1.35656 -5.04376 0
M  V30 382 H 36.9744 -1.04276 -2.80654 0
M  V30 383 H 34.5204 -0.50288 -1.34934 0
M  V30 384 H 36.4734 1.03137 -4.08584 0
M  V30 385 H 35.1974 1.46239 -2.92031 0
M  V30 386 H 33.8564 -0.550525 -3.62443 0
M  V30 387 H 33.5044 1.65494 -4.74996 0
M  V30 388 H 33.2044 0.301067 -5.86828 0
M  V30 389 H 34.7284 1.22659 -5.98153 0
M  V30 390 H 36.1424 -1.01927 -5.64166 0
M  V30 391 H 34.5394 -1.8063 -5.7227 0
M  V30 392 H 35.6094 -2.14288 -4.34981 0
M  V30 393 N 36.9525 1.47285 -0.560781 0
M  V30 394 C 38.1995 2.02464 -0.038062 0
M  V30 395 C 38.5275 1.43474 1.31322 0
M  V30 396 O 37.7825 0.581311 1.86867 0
M  V30 397 C 38.0815 3.57258 0.100784 0
M  V30 398 C 37.7475 4.35184 -1.18007 0
M  V30 399 C 36.4095 4.56194 -1.53103 0
M  V30 400 C 38.7615 4.80098 -2.02867 0
M  V30 401 C 36.0895 5.19367 -2.729 0
M  V30 402 C 38.4415 5.44593 -3.21871 0
M  V30 403 C 37.1055 5.63835 -3.57276 0
M  V30 404 H 36.3755 0.740869 -0.0139279 0
M  V30 405 H 39.0225 1.76916 -0.733012 0
M  V30 406 H 37.3275 3.81819 0.878724 0
M  V30 407 H 39.0245 3.97606 0.520639 0
M  V30 408 H 35.6145 4.19113 -0.8968 0
M  V30 409 H 39.7985 4.63642 -1.7706 0
M  V30 410 H 35.0545 5.32459 -3.00496 0
M  V30 411 H 39.2285 5.78358 -3.87911 0
M  V30 412 H 36.8555 6.12557 -4.50197 0
M  V30 413 N 38.4306 0.297415 1.54768 0
M  V30 414 C 39.6776 -0.312913 2.00068 0
M  V30 415 C 40.0056 -1.54171 1.18582 0
M  V30 416 O 39.2606 -1.94108 0.249133 0
M  V30 417 C 39.5596 -0.717561 3.50123 0
M  V30 418 C 39.2256 0.409095 4.4904 0
M  V30 419 C 37.8876 0.718399 4.75807 0
M  V30 420 C 40.2396 1.16717 5.07963 0
M  V30 421 C 37.5676 1.78896 5.5876 0
M  V30 422 C 39.9196 2.22762 5.92081 0
M  V30 423 C 38.5836 2.54303 6.1716 0
M  V30 424 H 37.8536 -0.114503 0.7321 0
M  V30 425 H 40.5006 0.415767 1.86932 0
M  V30 426 H 38.8056 -1.52627 3.60849 0
M  V30 427 H 40.5026 -1.20091 3.82595 0
M  V30 428 H 37.0926 0.157918 4.28309 0
M  V30 429 H 41.2766 0.941466 4.87289 0
M  V30 430 H 36.5326 2.0381 5.7643 0
M  V30 431 H 40.7066 2.81962 6.36765 0
M  V30 432 H 38.3336 3.3739 6.81229 0
M  V30 433 N 39.9087 -1.5758 0.0250728 0
M  V30 434 C 40.8187 -2.1343 -0.973905 0
M  V30 435 C 41.8347 -1.08556 -1.35984 0
M  V30 436 O 43.0107 -1.40592 -1.44207 0
M  V30 437 C 40.0757 -2.64703 -2.23904 0
M  V30 438 C 39.1367 -3.84276 -1.91391 0
M  V30 439 C 38.3697 -4.33095 -3.11873 0
M  V30 440 O 38.5927 -3.81107 -4.24398 0
M  V30 441 O 37.5267 -5.24984 -2.94406 0
M  V30 442 H 41.3527 -2.99057 -0.529036 0
M  V30 443 H 38.9377 -1.48118 -0.195288 0
M  V30 444 H 40.8197 -2.97769 -2.98181 0
M  V30 445 H 39.4947 -1.82161 -2.6758 0
M  V30 446 H 38.4017 -3.56143 -1.14511 0
M  V30 447 H 39.7347 -4.67968 -1.52534 0
M  V30 448 N 41.3868 0.248026 -1.55636 0
M  V30 449 C 42.6328 0.973427 -1.78594 0
M  V30 450 C 42.9878 1.83007 -0.593823 0
M  V30 451 O 42.2808 1.87097 0.412961 0
M  V30 452 C 42.4748 1.86819 -3.04686 0
M  V30 453 C 42.3038 1.09965 -4.36048 0
M  V30 454 C 41.0738 0.805204 -4.98843 0
M  V30 455 C 43.2718 0.477783 -5.12076 0
M  V30 456 N 41.2538 0.0124859 -6.13899 0
M  V30 457 C 42.6248 -0.179565 -6.1974 0
M  V30 458 C 44.6798 0.388136 -4.96385 0
M  V30 459 C 43.3828 -0.91795 -7.13419 0
M  V30 460 C 45.4088 -0.336716 -5.90441 0
M  V30 461 C 44.7708 -0.982705 -6.97511 0
M  V30 462 H 40.8698 0.337348 -0.705493 0
M  V30 463 H 43.4538 0.24667 -1.93131 0
M  V30 464 H 41.6248 2.56698 -2.9148 0
M  V30 465 H 43.3568 2.52907 -3.15944 0
M  V30 466 H 40.1118 1.11671 -4.60246 0
M  V30 467 H 40.5358 -0.371933 -6.75978 0
M  V30 468 H 45.1778 0.873237 -4.13684 0
M  V30 469 H 42.8958 -1.41466 -7.95621 0
M  V30 470 H 46.4818 -0.406731 -5.80377 0
M  V30 471 H 45.3618 -1.53464 -7.69037 0
M  V30 472 N 42.8649 1.48995 0.513639 0
M  V30 473 C 43.7949 1.67636 1.62544 0
M  V30 474 C 44.7759 0.525087 1.61793 0
M  V30 475 O 45.9609 0.759502 1.78732 0
M  V30 476 C 43.0909 1.73114 3.01079 0
M  V30 477 C 42.0449 2.87905 3.16693 0
M  V30 478 C 41.3709 2.78486 4.56453 0
M  V30 479 C 42.6709 4.29005 2.97913 0
M  V30 480 H 44.3649 2.60716 1.47198 0
M  V30 481 H 41.9109 1.25465 0.706714 0
M  V30 482 H 43.8639 1.84742 3.78746 0
M  V30 483 H 42.5879 0.766241 3.17484 0
M  V30 484 H 41.2469 2.75859 2.41448 0
M  V30 485 H 40.8949 1.7993 4.69717 0
M  V30 486 H 40.5949 3.55523 4.67843 0
M  V30 487 H 42.1189 2.92104 5.36197 0
M  V30 488 H 43.5329 4.41798 3.65359 0
M  V30 489 H 41.9299 5.07166 3.20785 0
M  V30 490 H 42.9999 4.44329 1.94165 0
M  V30 491 N 44.343 -0.763751 1.37857 0
M  V30 492 C 45.571 -1.55293 1.36718 0
M  V30 493 C 45.986 -1.88745 -0.0455434 0
M  V30 494 O 45.343 -1.52039 -1.00947 0
M  V30 495 C 45.394 -2.85831 2.2132 0
M  V30 496 O 45.115 -2.5381 3.57089 0
M  V30 497 C 46.616 -3.80023 2.28249 0
M  V30 498 H 43.836 -0.480841 0.468009 0
M  V30 499 H 46.38 -0.946009 1.81303 0
M  V30 500 H 44.535 -3.42926 1.80223 0
M  V30 501 H 44.949 -3.37459 4.01524 0
M  V30 502 H 46.423 -4.68599 2.91752 0
M  V30 503 H 46.9 -4.1973 1.2932 0
M  V30 504 H 47.506 -3.28855 2.69693 0
M  V30 505 N 45.8211 -1.22559 -0.990812 0
M  V30 506 C 47.0981 -0.959875 -1.70428 0
M  V30 507 C 47.4781 0.524455 -2.04481 0
M  V30 508 O 46.8261 1.49302 -1.72977 0
M  V30 509 C 47.0361 -1.85955 -2.95333 0
M  V30 510 C 48.3841 -2.11687 -3.68068 0
M  V30 511 O 49.4081 -1.8342 -3.05345 0
M  V30 512 O 48.2671 -2.59572 -4.80921 0
M  V30 513 H 45.3611 -0.361154 -0.743974 0
M  V30 514 H 47.9071 -1.33554 -1.04697 0
M  V30 515 H 46.6791 -2.86346 -2.66687 0
M  V30 516 H 46.3021 -1.4856 -3.68803 0
M  V30 517 N 47.2992 1.18797 -1.03562 0
M  V30 518 C 48.2492 2.20161 -0.592724 0
M  V30 519 C 49.2332 1.56772 0.362133 0
M  V30 520 O 50.4252 1.76062 0.182009 0
M  V30 521 C 47.5542 3.43266 0.0481024 0
M  V30 522 C 46.6402 4.13786 -0.9296 0
M  V30 523 N 47.0312 4.60388 -2.09467 0
M  V30 524 C 45.3292 4.39572 -0.754499 0
M  V30 525 C 46.0302 5.14619 -2.71187 0
M  V30 526 N 45.0062 5.05826 -1.991 0
M  V30 527 H 48.8082 2.53877 -1.48066 0
M  V30 528 H 46.3222 1.34946 -0.903514 0
M  V30 529 H 48.3192 4.15136 0.383058 0
M  V30 530 H 46.9792 3.11048 0.931636 0
M  V30 531 H 47.9902 4.54999 -2.47379 0
M  V30 532 H 44.6672 4.17425 0.0793713 0
M  V30 533 H 46.0572 5.60917 -3.69895 0
M  V30 534 N 48.7773 0.814389 1.34928 0
M  V30 535 C 50.0253 0.397636 1.9815 0
M  V30 536 C 50.3463 -1.04069 1.64908 0
M  V30 537 O 49.6163 -1.72121 0.93548 0
M  V30 538 H 48.1963 0.144043 0.732981 0
M  V30 539 H 50.8583 1.04195 1.6471 0
M  V30 540 H 49.9543 0.509688 3.0791 0
M  V30 541 N 50.2554 -1.46986 0.568584 0
M  V30 542 C 51.5024 -2.02441 0.0487986 0
M  V30 543 C 51.8304 -1.44169 -1.30559 0
M  V30 544 O 51.0854 -0.591213 -1.86556 0
M  V30 545 C 51.3844 -3.57306 -0.081836 0
M  V30 546 C 51.0504 -4.34552 1.20313 0
M  V30 547 C 49.7124 -4.55376 1.5552 0
M  V30 548 C 52.0644 -4.79016 2.05411 0
M  V30 549 C 49.3924 -5.17913 2.7565 0
M  V30 550 C 51.7444 -5.42879 3.24754 0
M  V30 551 C 50.4084 -5.61933 3.60261 0
M  V30 552 H 49.6784 -0.740785 0.0178567 0
M  V30 553 H 52.3254 -1.76525 0.742384 0
M  V30 554 H 50.6304 -3.8228 -0.858463 0
M  V30 555 H 52.3274 -3.97876 -0.499546 0
M  V30 556 H 48.9174 -4.18631 0.919014 0
M  V30 557 H 53.1014 -4.62696 1.79516 0
M  V30 558 H 48.3574 -5.30858 3.03315 0
M  V30 559 H 52.5314 -5.76293 3.90973 0
M  V30 560 H 50.1584 -6.10161 4.53439 0
M  V30 561 N 51.7335 -0.305618 -1.54608 0
M  V30 562 C 53.1495 0.0476228 -1.59529 0
M  V30 563 C 53.3495 1.52025 -1.32252 0
M  V30 564 O 52.4055 2.27368 -1.09818 0
M  V30 565 C 53.7185 -0.354471 -2.98603 0
M  V30 566 C 55.2665 -0.303622 -3.11524 0
M  V30 567 C 55.7415 -0.680608 -4.52915 0
M  V30 568 N 57.2325 -0.63332 -4.5885 0
M  V30 569 C 57.9675 -0.897432 -5.66334 0
M  V30 570 N 57.4635 -1.22775 -6.81834 0
M  V30 571 N 59.2565 -0.824186 -5.56025 0
M  V30 572 H 51.4075 -1.2653 -1.70599 0
M  V30 573 H 53.6705 -0.513291 -0.797017 0
M  V30 574 H 53.3765 -1.3798 -3.23503 0
M  V30 575 H 53.2505 0.289568 -3.76087 0
M  V30 576 H 55.6375 0.712472 -2.8637 0
M  V30 577 H 55.7185 -0.982348 -2.36185 0
M  V30 578 H 55.3625 -1.69453 -4.78799 0
M  V30 579 H 55.2925 0.0202385 -5.26596 0
M  V30 580 H 57.7835 -0.389138 -3.75891 0
M  V30 581 H 58.0965 -1.41513 -7.59733 0
M  V30 582 H 56.4415 -1.26583 -6.83375 0
M  V30 583 H 59.6325 -0.565748 -4.64669 0
M  V30 584 H 59.8055 -1.03338 -6.39707 0
M  V30 585 N 53.2116 1.57565 -0.0334293 0
M  V30 586 C 54.1746 2.09393 0.932048 0
M  V30 587 C 55.1746 1.00986 1.25134 0
M  V30 588 O 56.3646 1.27129 1.19096 0
M  V30 589 C 53.4966 2.56338 2.2473 0
M  V30 590 H 54.6896 2.95984 0.483085 0
M  V30 591 H 52.2426 1.54819 0.21468 0
M  V30 592 H 52.9776 1.7309 2.74245 0
M  V30 593 H 52.7626 3.35542 2.02865 0
M  V30 594 H 54.2526 2.96646 2.93923 0
M  V30 595 N 54.6897 -0.239769 1.55765 0
M  V30 596 C 55.9367 -0.966801 1.7793 0
M  V30 597 C 56.2647 -1.85046 0.599015 0
M  V30 598 O 55.5197 -1.91197 -0.417395 0
M  V30 599 C 55.8187 -1.852 3.05672 0
M  V30 600 C 55.4847 -1.1231 4.36689 0
M  V30 601 C 54.1467 -0.921689 4.72291 0
M  V30 602 C 56.4987 -0.607019 5.17653 0
M  V30 603 C 53.8267 -0.191996 5.86386 0
M  V30 604 C 56.1787 0.109241 6.32506 0
M  V30 605 C 54.8427 0.322073 6.66723 0
M  V30 606 H 54.1127 -0.353778 0.651093 0
M  V30 607 H 56.7597 -0.23634 1.90036 0
M  V30 608 H 55.0647 -2.64975 2.8861 0
M  V30 609 H 56.7617 -2.41635 3.20021 0
M  V30 610 H 53.3517 -1.29004 4.08725 0
M  V30 611 H 57.5357 -0.750153 4.90598 0
M  V30 612 H 52.7917 -0.0166949 6.11398 0
M  V30 613 H 56.9657 0.516737 6.9448 0
M  V30 614 H 54.5927 0.88944 7.54979 0
M  V30 615 N 56.1678 -1.49265 -0.50573 0
M  V30 616 C 57.1308 -1.65075 -1.59006 0
M  V30 617 C 58.1308 -0.522768 -1.52065 0
M  V30 618 O 59.3208 -0.789117 -1.55302 0
M  V30 619 C 56.4528 -1.64369 -2.98656 0
M  V30 620 H 57.6458 -2.61784 -1.46319 0
M  V30 621 H 55.1988 -1.38226 -0.729616 0
M  V30 622 H 55.9338 -0.692272 -3.16825 0
M  V30 623 H 55.7188 -2.46282 -3.05103 0
M  V30 624 H 57.2088 -1.78674 -3.77446 0
M  V30 625 N 57.6459 0.756429 -1.3826 0
M  V30 626 C 58.8939 1.51248 -1.34047 0
M  V30 627 C 59.2149 1.94875 0.0698372 0
M  V30 628 O 58.4849 1.67436 1.01696 0
M  V30 629 H 57.0649 0.561018 -0.493222 0
M  V30 630 H 59.7269 0.899347 -1.7291 0
M  V30 631 H 58.8229 2.40472 -1.98947 0
M  V30 632 N 59.124 1.23083 0.984299 0
M  V30 633 C 60.074 0.975749 2.06066 0
M  V30 634 C 61.058 -0.0768251 1.60716 0
M  V30 635 O 62.25 0.134805 1.76486 0
M  V30 636 C 59.379 0.564673 3.38624 0
M  V30 637 C 58.465 1.65244 3.90583 0
M  V30 638 N 58.856 2.88193 4.15666 0
M  V30 639 C 57.154 1.52612 4.19077 0
M  V30 640 C 57.855 3.58593 4.58024 0
M  V30 641 N 56.831 2.86093 4.62225 0
M  V30 642 H 60.633 1.90957 2.23411 0
M  V30 643 H 58.147 1.12963 1.16675 0
M  V30 644 H 60.144 0.36322 4.15315 0
M  V30 645 H 58.804 -0.362147 3.22674 0
M  V30 646 H 59.815 3.24537 4.03604 0
M  V30 647 H 56.492 0.666121 4.12152 0
M  V30 648 H 57.882 4.63974 4.85982 0
M  V30 649 N 60.6021 -1.18246 1.0419 0
M  V30 650 C 61.8271 -1.92736 0.765996 0
M  V30 651 C 62.2521 -1.75728 -0.67091 0
M  V30 652 O 61.6101 -1.06825 -1.46486 0
M  V30 653 C 61.6581 -3.42148 1.13875 0
M  V30 654 O 60.7621 -4.11548 0.264954 0
M  V30 655 H 60.1031 -0.601238 0.281797 0
M  V30 656 H 62.6331 -1.49942 1.39207 0
M  V30 657 H 62.6431 -3.92858 1.1012 0
M  V30 658 H 61.3181 -3.53848 2.18551 0
M  V30 659 H 59.8951 -3.71137 0.362226 0
M  V30 660 N 62.0802 -0.821533 -1.34494 0
M  V30 661 C 63.0102 -0.257138 -2.3208 0
M  V30 662 C 63.9912 0.625645 -1.58176 0
M  V30 663 O 65.1762 0.552811 -1.86166 0
M  V30 664 C 62.3062 0.582958 -3.42372 0
M  V30 665 C 61.2602 -0.202571 -4.2752 0
M  V30 666 C 60.5862 0.760179 -5.29269 0
M  V30 667 C 61.8862 -1.40998 -5.02908 0
M  V30 668 H 63.5802 -1.07247 -2.79532 0
M  V30 669 H 61.1262 -0.517163 -1.34393 0
M  V30 670 H 63.0792 0.987972 -4.09655 0
M  V30 671 H 61.8032 1.43133 -2.93565 0
M  V30 672 H 60.4622 -0.588936 -3.61838 0
M  V30 673 H 60.1102 1.60447 -4.76724 0
M  V30 674 H 59.8102 0.238809 -5.87115 0
M  V30 675 H 61.3342 1.16308 -5.9942 0
M  V30 676 H 62.7482 -1.07905 -5.63054 0
M  V30 677 H 61.1452 -1.86689 -5.70322 0
M  V30 678 H 62.2152 -2.1889 -4.32684 0
M  V30 679 N 63.5583 1.46682 -0.576371 0
M  V30 680 C 64.8353 1.95599 0.00703437 0
M  V30 681 C 65.2153 1.51904 1.46589 0
M  V30 682 O 64.5633 0.766755 2.15251 0
M  V30 683 C 64.7733 3.4864 -0.158404 0
M  V30 684 C 66.1213 4.24594 -0.0229439 0
M  V30 685 O 67.1453 3.56094 -0.0869173 0
M  V30 686 O 66.0043 5.46373 0.118015 0
M  V30 687 H 63.0983 0.825275 0.053384 0
M  V30 688 H 65.6443 1.56996 -0.644244 0
M  V30 689 H 64.4163 3.7331 -1.17282 0
M  V30 690 H 64.0393 3.94057 0.5296 0
M  V30 691 N 65.0364 0.313813 1.54444 0
M  V30 692 C 66.2824 -0.292108 2.00685 0
M  V30 693 C 66.6154 -1.52548 1.20177 0
M  V30 694 O 65.8904 -1.92452 0.281531 0
M  V30 695 C 66.1734 -0.635968 3.5444 0
M  V30 696 C 66.0264 0.607437 4.4568 0
M  V30 697 C 67.3454 -1.45747 4.15266 0
M  V30 698 H 64.4644 -0.104697 0.729526 0
M  V30 699 H 67.1064 0.428457 1.85106 0
M  V30 700 H 65.2564 -1.24986 3.67846 0
M  V30 701 H 66.9284 1.24581 4.44159 0
M  V30 702 H 65.1714 1.23822 4.15753 0
M  V30 703 H 65.8424 0.322515 5.51057 0
M  V30 704 H 68.3184 -0.938645 4.05375 0
M  V30 705 H 67.1944 -1.66683 5.2298 0
M  V30 706 H 67.4554 -2.45063 3.67963 0
M  V30 707 N 66.5145 -1.57545 0.0417849 0
M  V30 708 C 67.9305 -1.56467 -0.314704 0
M  V30 709 C 68.1305 -1.04859 -1.72066 0
M  V30 710 O 67.1865 -0.700983 -2.42575 0
M  V30 711 C 68.4995 -3.00317 -0.15174 0
M  V30 712 C 70.0475 -3.12201 -0.223553 0
M  V30 713 C 70.5225 -4.57913 -0.0892295 0
M  V30 714 N 72.0135 -4.6297 -0.145808 0
M  V30 715 C 72.7485 -5.73362 -0.0658459 0
M  V30 716 N 72.2445 -6.92769 0.0659282 0
M  V30 717 N 74.0375 -5.6197 -0.12075 0
M  V30 718 H 66.1885 -1.89416 0.961014 0
M  V30 719 H 68.4515 -0.871862 0.372237 0
M  V30 720 H 68.1575 -3.42073 0.817254 0
M  V30 721 H 68.0315 -3.65892 -0.916692 0
M  V30 722 H 70.4185 -2.70349 -1.18301 0
M  V30 723 H 70.4995 -2.49323 0.571994 0
M  V30 724 H 70.1435 -5.00448 0.866867 0
M  V30 725 H 70.0735 -5.18786 -0.903802 0
M  V30 726 H 72.5645 -3.7709 -0.247286 0
M  V30 727 H 72.8775 -7.72707 0.119905 0
M  V30 728 H 71.2225 -6.94927 0.100885 0
M  V30 729 H 74.4135 -4.67572 -0.222187 0
M  V30 730 H 74.5865 -6.47977 -0.0549735 0
M  V30 731 N 67.9926 0.231505 -1.5589 0
M  V30 732 C 68.9246 1.31006 -1.8807 0
M  V30 733 C 69.9376 1.43539 -0.768145 0
M  V30 734 O 71.1266 1.44614 -1.04638 0
M  V30 735 C 68.2266 2.68688 -2.06543 0
M  V30 736 C 67.3996 2.78228 -3.37502 0
M  V30 737 C 66.4586 3.96857 -3.4553 0
M  V30 738 O 65.4846 3.85662 -4.18633 0
M  V30 739 N 66.6866 5.1072 -2.75944 0
M  V30 740 H 69.4516 1.03731 -2.81176 0
M  V30 741 H 67.0126 0.421573 -1.56315 0
M  V30 742 H 69.0046 3.46412 -2.09239 0
M  V30 743 H 67.5746 2.88605 -1.20109 0
M  V30 744 H 66.7946 1.87059 -3.46991 0
M  V30 745 H 68.0826 2.81564 -4.23791 0
M  V30 746 H 67.4806 5.2271 -2.16311 0
M  V30 747 H 66.0376 5.86523 -2.84314 0
M  V30 748 N 69.4707 1.49531 0.497807 0
M  V30 749 C 70.7167 1.59415 1.25358 0
M  V30 750 C 71.0497 0.281422 1.9215 0
M  V30 751 O 70.3247 -0.715249 1.80871 0
M  V30 752 C 70.6077 2.75566 2.3181 0
M  V30 753 C 70.4607 4.16642 1.69498 0
M  V30 754 C 71.7797 2.87347 3.33346 0
M  V30 755 H 68.8987 0.580244 0.454408 0
M  V30 756 H 71.5407 1.81827 0.551262 0
M  V30 757 H 69.6907 2.56587 2.91711 0
M  V30 758 H 71.3627 4.47145 1.13399 0
M  V30 759 H 69.6057 4.22141 0.998978 0
M  V30 760 H 70.2767 4.93792 2.46725 0
M  V30 761 H 72.7527 3.04634 2.83438 0
M  V30 762 H 71.6287 3.70289 4.05188 0
M  V30 763 H 71.8897 1.96834 3.95865 0
M  V30 764 N 70.9488 -0.749086 1.3866 0
M  V30 765 C 71.8968 -1.88428 1.36373 0
M  V30 766 C 72.8908 -1.67561 0.248929 0
M  V30 767 O 74.0968 -1.75074 0.41821 0
M  V30 768 H 70.4718 -0.620023 0.42553 0
M  V30 769 H 72.4428 -1.87473 2.32156 0
M  V30 770 C 71.1918 -3.25961 1.21014 0
M  V30 771 H 70.5148 -3.42607 2.06059 0
M  V30 772 H 71.9548 -4.05625 1.23469 0
M  V30 773 C 70.4138 -3.36799 -0.0825941 0
M  V30 774 O 70.9438 -3.87517 -1.05797 0
M  V30 775 N 69.1498 -2.90258 -0.140939 0
M  V30 776 H 68.6968 -2.49174 0.653477 0
M  V30 777 H 68.6548 -2.97889 -1.00545 0
M  V30 778 N 72.4269 -1.23603 -0.977757 0
M  V30 779 C 73.6669 -1.08148 -1.73446 0
M  V30 780 C 74.0309 0.374785 -1.88307 0
M  V30 781 O 75.2319 0.650588 -2.60808 0
M  V30 782 C 73.5029 -1.78991 -3.0935 0
M  V30 783 S 75.0619 -1.79141 -4.00567 0
M  V30 784 H 71.8799 -0.386987 -0.596458 0
M  V30 785 H 74.4819 -1.5678 -1.16792 0
M  V30 786 H 73.1859 -2.8408 -2.96187 0
M  V30 787 H 72.7169 -1.30651 -3.71071 0
M  V30 788 H 74.7319 -0.851892 -4.88833 0
M  V30 789 N 73.905 1.17692 -1.04816 0
M  V30 790 C 75.13 1.92327 -0.776207 0
M  V30 791 C 75.555 1.76082 0.661581 0
M  V30 792 O 74.913 1.076 1.45917 0
M  V30 793 C 74.961 3.41539 -1.15687 0
M  V30 794 O 74.065 4.11402 -0.286775 0
M  V30 795 H 73.406 0.599735 -0.284981 0
M  V30 796 H 75.936 1.49201 -1.4 0
M  V30 797 H 75.946 3.92269 -1.12202 0
M  V30 798 H 74.621 3.52684 -2.20425 0
M  V30 799 H 73.198 3.70939 -0.381903 0
M  V30 800 N 75.3831 0.828654 1.34056 0
M  V30 801 C 76.6291 0.42008 1.98402 0
M  V30 802 C 76.9621 -1.01564 1.65525 0
M  V30 803 O 76.2371 -1.70834 0.929831 0
M  V30 804 C 76.5201 0.62927 3.54559 0
M  V30 805 C 76.3731 2.11152 3.97159 0
M  V30 806 C 77.6921 0.0688756 4.40046 0
M  V30 807 H 74.8111 0.154104 0.720709 0
M  V30 808 H 77.4531 1.04228 1.5886 0
M  V30 809 H 75.6031 0.0996418 3.88372 0
M  V30 810 H 77.2751 2.70522 3.73651 0
M  V30 811 H 75.5181 2.59985 3.47261 0
M  V30 812 H 76.1891 2.20868 5.05887 0
M  V30 813 H 78.6651 0.521458 4.1282 0
M  V30 814 H 77.5411 0.245006 5.48353 0
M  V30 815 H 77.8021 -1.0266 4.30015 0
M  V30 816 N 76.8612 -1.46375 0.584142 0
M  V30 817 C 78.0862 -2.07268 0.0740405 0
M  V30 818 C 78.5112 -1.42979 -1.22223 0
M  V30 819 O 77.8692 -0.514092 -1.73859 0
M  V30 820 C 77.9172 -3.60518 -0.0767769 0
M  V30 821 O 77.0212 -3.96533 -1.13292 0
M  V30 822 H 76.3622 -0.660961 0.0634524 0
M  V30 823 H 78.8922 -1.87991 0.807492 0
M  V30 824 H 78.9022 -4.07021 -0.282489 0
M  V30 825 H 77.5772 -4.06702 0.86986 0
M  V30 826 H 76.1542 -3.61738 -0.905553 0
M  V30 827 N 78.3393 -0.321999 -1.54275 0
M  V30 828 C 79.5643 0.285791 -2.05422 0
M  V30 829 C 79.9893 1.45124 -1.19669 0
M  V30 830 O 79.3473 1.80132 -0.205441 0
M  V30 831 C 79.3953 0.69956 -3.53749 0
M  V30 832 O 78.4993 1.8021 -3.70942 0
M  V30 833 H 77.8403 0.0518962 -0.661969 0
M  V30 834 H 80.3703 -0.469954 -1.9913 0
M  V30 835 H 80.3803 0.982649 -3.9599 0
M  V30 836 H 79.0553 -0.152864 -4.15619 0
M  V30 837 H 77.6323 1.51794 -3.40607 0
M  V30 838 N 79.8174 1.5752 -0.0501392 0
M  V30 839 C 80.7804 2.1037 0.909786 0
M  V30 840 C 81.7804 1.02308 1.24056 0
M  V30 841 O 82.9704 1.28385 1.17741 0
M  V30 842 C 80.1024 2.58708 2.21998 0
M  V30 843 H 81.2954 2.96479 0.451665 0
M  V30 844 H 78.8484 1.55038 0.198248 0
M  V30 845 H 79.5834 1.75989 2.72394 0
M  V30 846 H 79.3684 3.37675 1.99295 0
M  V30 847 H 80.8584 2.99747 2.9076 0
M  V30 848 N 81.2955 -0.223234 1.56011 0
M  V30 849 C 82.5435 -0.946003 1.78592 0
M  V30 850 C 82.8645 -1.84936 0.618349 0
M  V30 851 O 82.1345 -1.92473 -0.364833 0
M  V30 852 H 80.7145 -0.352298 0.658707 0
M  V30 853 H 83.3765 -0.235494 1.93472 0
M  V30 854 H 82.4725 -1.55381 2.70672 0
M  V30 855 N 82.7736 -1.49793 -0.48987 0
M  V30 856 C 84.0196 -1.60078 -1.24511 0
M  V30 857 C 84.3526 -0.291608 -1.91998 0
M  V30 858 O 83.6276 0.705647 -1.81248 0
M  V30 859 C 83.9106 -2.76791 -2.30345 0
M  V30 860 C 83.7636 -4.17535 -1.67286 0
M  V30 861 C 85.0826 -2.89111 -3.31817 0
M  V30 862 H 82.2016 -0.582645 -0.451324 0
M  V30 863 H 84.8436 -1.82117 -0.541612 0
M  V30 864 H 82.9936 -2.5813 -2.90346 0
M  V30 865 H 84.6656 -4.4774 -1.11026 0
M  V30 866 H 82.9086 -4.22665 -0.976577 0
M  V30 867 H 83.5796 -4.95094 -2.44103 0
M  V30 868 H 86.0556 -3.06133 -2.81819 0
M  V30 869 H 84.9316 -3.72433 -4.03219 0
M  V30 870 H 85.1926 -1.9893 -3.94815 0
M  V30 871 N 84.2517 0.741722 -1.39055 0
M  V30 872 C 85.1817 1.869 -1.39966 0
M  V30 873 C 86.1627 1.6804 -0.26392 0
M  V30 874 O 87.3477 1.88458 -0.468755 0
M  V30 875 C 84.4777 3.24572 -1.23574 0
M  V30 876 C 83.4317 3.58056 -2.34477 0
M  V30 877 C 82.7577 4.94593 -2.0318 0
M  V30 878 C 84.0577 3.61716 -3.76774 0
M  V30 879 H 85.7517 1.86395 -2.34302 0
M  V30 880 H 83.2977 0.895361 -1.1278 0
M  V30 881 H 85.2507 4.031 -1.22834 0
M  V30 882 H 83.9747 3.25587 -0.257045 0
M  V30 883 H 82.6337 2.81854 -2.34423 0
M  V30 884 H 82.2817 4.92181 -1.03765 0
M  V30 885 H 81.9817 5.17964 -2.77465 0
M  V30 886 H 83.5057 5.75486 -2.04079 0
M  V30 887 H 84.9197 4.30335 -3.78794 0
M  V30 888 H 83.3167 3.96603 -4.50362 0
M  V30 889 H 84.3867 2.61672 -4.08235 0
M  V30 890 N 85.7298 1.2412 0.971189 0
M  V30 891 C 87.1458 1.00584 1.23916 0
M  V30 892 C 87.3458 -0.287481 1.99439 0
M  V30 893 O 86.4018 -1.00454 2.31658 0
M  V30 894 C 87.7148 2.21864 2.0297 0
M  V30 895 C 89.2628 2.26452 2.16076 0
M  V30 896 C 89.7378 3.47343 2.98524 0
M  V30 897 N 91.2288 3.47639 3.06107 0
M  V30 898 C 91.9638 4.37837 3.70251 0
M  V30 899 N 91.4598 5.38286 4.36142 0
M  V30 900 N 93.2528 4.25558 3.67228 0
M  V30 901 H 85.4038 2.07236 0.465499 0
M  V30 902 H 87.6668 0.909236 0.268315 0
M  V30 903 H 87.3728 3.15771 1.54861 0
M  V30 904 H 87.2468 2.23698 3.03709 0
M  V30 905 H 89.6338 1.33078 2.6339 0
M  V30 906 H 89.7148 2.28645 1.14696 0
M  V30 907 H 89.3588 4.41029 2.51905 0
M  V30 908 H 89.2888 3.42393 4.00093 0
M  V30 909 H 91.7798 2.74966 2.59233 0
M  V30 910 H 92.0928 6.03352 4.82894 0
M  V30 911 H 90.4378 5.42176 4.34822 0
M  V30 912 H 93.6288 3.46322 3.14927 0
M  V30 913 H 93.8018 4.96054 4.16935 0
M  V30 914 N 87.2079 -1.17134 1.05439 0
M  V30 915 C 88.4559 -1.87085 0.764429 0
M  V30 916 C 88.7769 -1.81584 -0.710787 0
M  V30 917 O 88.0469 -1.24349 -1.51374 0
M  V30 918 H 86.6269 -0.692627 0.279779 0
M  V30 919 H 89.2889 -1.42087 1.33406 0
M  V30 920 H 88.3849 -2.92759 1.0816 0
M  V30 921 N 88.686 -0.835752 -1.33615 0
M  V30 922 C 89.616 -0.281739 -2.31794 0
M  V30 923 C 90.597 0.608833 -1.58831 0
M  V30 924 O 91.782 0.533035 -1.86741 0
M  V30 925 C 88.912 0.546612 -3.42971 0
M  V30 926 C 87.866 -0.247904 -4.27281 0
M  V30 927 C 87.192 0.704001 -5.30045 0
M  V30 928 C 88.492 -1.46324 -5.01385 0
M  V30 929 H 90.186 -1.10206 -2.78379 0
M  V30 930 H 87.732 -0.531388 -1.33837 0
M  V30 931 H 89.685 0.944467 -4.1068 0
M  V30 932 H 88.409 1.40011 -2.95067 0
M  V30 933 H 87.068 -0.627281 -3.61194 0
M  V30 934 H 86.716 1.55381 -4.78399 0
M  V30 935 H 86.416 0.176524 -5.87335 0
M  V30 936 H 87.94 1.09944 -6.0062 0
M  V30 937 H 89.354 -1.13871 -5.61877 0
M  V30 938 H 87.751 -1.92728 -5.6831 0
M  V30 939 H 88.821 -2.23467 -4.30338 0
M  V30 940 N 90.1641 1.46063 -0.591896 0
M  V30 941 C 91.1141 2.27458 0.157172 0
M  V30 942 C 92.0981 1.3641 0.853301 0
M  V30 943 O 93.2901 1.60517 0.74588 0
M  V30 944 C 90.4191 3.22956 1.16423 0
M  V30 945 C 89.5051 4.2149 0.469742 0
M  V30 946 N 89.8961 5.03519 -0.479839 0
M  V30 947 C 88.1941 4.40161 0.719319 0
M  V30 948 C 88.8951 5.74904 -0.886591 0
M  V30 949 N 87.8711 5.43097 -0.233731 0
M  V30 950 H 91.6731 2.88272 -0.572392 0
M  V30 951 H 89.1871 1.57024 -0.414375 0
M  V30 952 H 91.1841 3.79986 1.71513 0
M  V30 953 H 89.8441 2.63701 1.89451 0
M  V30 954 H 90.8551 5.1078 -0.855823 0
M  V30 955 H 87.5321 3.92046 1.43548 0
M  V30 956 H 88.9221 6.50844 -1.66888 0
M  V30 957 N 91.6422 0.330177 1.54103 0
M  V30 958 C 92.8892 -0.270405 2.00686 0
M  V30 959 C 93.2172 -1.51621 1.21825 0
M  V30 960 O 92.4722 -1.93536 0.29025 0
M  V30 961 C 92.7712 -0.643134 3.51566 0
M  V30 962 C 92.4372 0.504251 4.48072 0
M  V30 963 C 91.0992 0.819163 4.74176 0
M  V30 964 C 93.4512 1.27465 5.05373 0
M  V30 965 C 90.7792 1.90708 5.5484 0
M  V30 966 C 93.1312 2.35271 5.87223 0
M  V30 967 C 91.7952 2.67336 6.11627 0
M  V30 968 H 91.0652 -0.0989482 0.734364 0
M  V30 969 H 93.7122 0.455324 1.86008 0
M  V30 970 H 92.0172 -1.44938 3.64006 0
M  V30 971 H 93.7142 -1.11949 3.85056 0
M  V30 972 H 90.3042 0.248733 4.27878 0
M  V30 973 H 94.4882 1.04462 4.85182 0
M  V30 974 H 89.7442 2.15991 5.71977 0
M  V30 975 H 93.9182 2.95405 6.30641 0
M  V30 976 H 91.5452 3.51763 6.73919 0
M  V30 977 N 93.1203 -1.57491 0.0584922 0
M  V30 978 C 94.0833 -2.1085 -0.898617 0
M  V30 979 C 95.0833 -1.02964 -1.23511 0
M  V30 980 O 96.2733 -1.29007 -1.17059 0
M  V30 981 C 93.4053 -2.59881 -2.20623 0
M  V30 982 H 94.5983 -2.96715 -0.435936 0
M  V30 983 H 92.1513 -1.55141 -0.190023 0
M  V30 984 H 92.8863 -1.77431 -2.71457 0
M  V30 985 H 92.6713 -3.38727 -1.97501 0
M  V30 986 H 94.1613 -3.01285 -2.89166 0
M  V30 987 N 94.5984 0.214957 -1.56127 0
M  V30 988 C 95.5304 1.29004 -1.89448 0
M  V30 989 C 96.5434 1.42716 -0.783326 0
M  V30 990 O 97.7324 1.43496 -1.06166 0
M  V30 991 C 94.8324 2.66482 -2.09381 0
M  V30 992 C 94.0054 2.74633 -3.40434 0
M  V30 993 C 93.0644 3.9317 -3.49719 0
M  V30 994 O 92.0904 3.812 -4.227 0
M  V30 995 N 93.2924 5.07765 -2.81346 0
M  V30 996 H 96.0574 1.00743 -2.82261 0
M  V30 997 H 93.6184 0.40497 -1.56753 0
M  V30 998 H 95.6104 3.44173 -2.12901 0
M  V30 999 H 94.1804 2.87314 -1.23163 0
M  V30 1000 H 93.4004 1.83368 -3.48955 0
M  V30 1001 H 94.6884 2.77054 -4.26754 0
M  V30 1002 H 94.0864 5.20386 -2.21843 0
M  V30 1003 H 92.6434 5.83474 -2.90519 0
M  V30 1004 N 96.0765 1.50051 0.48192 0
M  V30 1005 C 97.0065 1.71046 1.58951 0
M  V30 1006 C 97.9875 0.559288 1.60642 0
M  V30 1007 O 99.1725 0.797243 1.77081 0
M  V30 1008 C 96.3025 1.79462 2.97339 0
M  V30 1009 C 95.2565 2.94558 3.10515 0
M  V30 1010 C 94.5825 2.88105 4.50444 0
M  V30 1011 C 95.8825 4.35227 2.88747 0
M  V30 1012 H 97.5765 2.6378 1.41635 0
M  V30 1013 H 95.1225 1.26936 0.679942 0
M  V30 1014 H 97.0755 1.92734 3.74742 0
M  V30 1015 H 95.7995 0.833412 3.15788 0
M  V30 1016 H 94.4585 2.80918 2.35543 0
M  V30 1017 H 94.1065 1.89853 4.65795 0
M  V30 1018 H 93.8065 3.65366 4.60197 0
M  V30 1019 H 95.3305 3.03412 5.29881 0
M  V30 1020 H 96.7445 4.49449 3.55905 0
M  V30 1021 H 95.1415 5.13856 3.09955 0
M  V30 1022 H 96.2115 4.48347 1.84696 0
M  V30 1023 N 97.5546 -0.734337 1.39446 0
M  V30 1024 C 98.9656 -1.31264 1.32766 0
M  V30 1025 C 99.3166 -1.96198 -0.00767497 0
M  V30 1026 O 98.4416 -1.96346 -0.909796 0
M  V30 1027 C 99.0366 -2.38682 2.4045 0
M  V30 1028 C 97.5956 -2.92184 2.37288 0
M  V30 1029 C 96.7426 -1.6576 2.22304 0
M  V30 1030 H 99.6936 -0.531799 1.49525 0
M  V30 1031 H 99.7146 -3.19087 2.07276 0
M  V30 1032 H 99.2266 -1.91392 3.37625 0
M  V30 1033 H 97.3276 -3.43752 1.43754 0
M  V30 1034 H 97.4406 -3.45253 3.3217 0
M  V30 1035 H 95.8046 -1.9012 1.69489 0
M  V30 1036 H 96.5876 -1.20521 3.21449 0
M  V30 1037 N 99.0327 -1.24633 -0.964593 0
M  V30 1038 C 100.444 -1.08045 -1.5226 0
M  V30 1039 C 100.795 0.347116 -1.93105 0
M  V30 1040 O 99.9197 1.23588 -1.77637 0
M  V30 1041 C 100.515 -1.95514 -2.76695 0
M  V30 1042 C 99.0737 -1.8314 -3.28841 0
M  V30 1043 C 98.2207 -1.90262 -2.01732 0
M  V30 1044 H 101.172 -1.38064 -0.782553 0
M  V30 1045 H 101.193 -1.48925 -3.50145 0
M  V30 1046 H 100.705 -2.99407 -2.46936 0
M  V30 1047 H 98.8057 -0.82092 -3.63444 0
M  V30 1048 H 98.9187 -2.67406 -3.97531 0
M  V30 1049 H 97.2827 -1.34027 -2.16584 0
M  V30 1050 H 98.0657 -2.9574 -1.74334 0
M  V30 1051 N 100.511 1.16574 -1.06058 0
M  V30 1052 C 101.736 1.91493 -0.796562 0
M  V30 1053 C 102.161 1.76773 0.642868 0
M  V30 1054 O 101.519 1.09142 1.44768 0
M  V30 1055 C 101.567 3.40293 -1.19303 0
M  V30 1056 O 100.671 4.11074 -0.330394 0
M  V30 1057 H 100.012 0.596678 -0.291326 0
M  V30 1058 H 102.542 1.47708 -1.41575 0
M  V30 1059 H 102.552 3.91057 -1.16356 0
M  V30 1060 H 101.227 3.50326 -2.24153 0
M  V30 1061 H 99.8038 3.70513 -0.421225 0
M  V30 1062 N 101.989 0.842826 1.3317 0
M  V30 1063 C 102.921 0.236245 2.27979 0
M  V30 1064 C 103.934 -0.585282 1.51915 0
M  V30 1065 O 105.123 -0.411705 1.73687 0
M  V30 1066 C 102.223 -0.685717 3.3189 0
M  V30 1067 C 101.396 0.0973448 4.37292 0
M  V30 1068 C 100.455 -0.748565 5.20848 0
M  V30 1069 O 99.4809 -0.186339 5.68895 0
M  V30 1070 N 100.683 -2.06527 5.42519 0
M  V30 1071 H 103.448 1.05088 2.80672 0
M  V30 1072 H 101.009 0.701667 1.45905 0
M  V30 1073 H 103.001 -1.25669 3.84694 0
M  V30 1074 H 101.571 -1.40105 2.79445 0
M  V30 1075 H 100.791 0.849706 3.84933 0
M  V30 1076 H 102.079 0.635643 5.04814 0
M  V30 1077 H 101.477 -2.54554 5.05192 0
M  V30 1078 H 100.034 -2.58464 5.98364 0
M  V30 1079 N 103.467 -1.45747 0.599634 0
M  V30 1080 C 104.43 -2.28917 -0.113835 0
M  V30 1081 C 105.43 -1.3933 -0.802729 0
M  V30 1082 O 106.62 -1.61534 -0.652103 0
M  V30 1083 C 103.752 -3.20152 -1.17114 0
M  V30 1084 H 104.945 -2.93478 0.617289 0
M  V30 1085 H 102.498 -1.52137 0.358327 0
M  V30 1086 H 103.233 -2.60374 -1.93329 0
M  V30 1087 H 103.018 -3.86133 -0.681468 0
M  V30 1088 H 104.508 -3.82708 -1.67105 0
M  V30 1089 N 104.945 -0.338344 -1.53925 0
M  V30 1090 C 105.892 0.520845 -2.24846 0
M  V30 1091 C 106.862 1.09976 -1.24477 0
M  V30 1092 O 108.047 1.13735 -1.53196 0
M  V30 1093 C 105.187 1.6685 -3.02084 0
M  V30 1094 C 104.3 1.11739 -4.17299 0
M  V30 1095 C 103.435 2.23193 -4.82036 0
M  V30 1096 C 102.474 1.65407 -5.89328 0
M  V30 1097 N 101.611 2.70582 -6.47866 0
M  V30 1098 H 106.451 -0.0904881 -2.97863 0
M  V30 1099 H 103.988 -0.0564282 -1.46992 0
M  V30 1100 H 105.946 2.34407 -3.45122 0
M  V30 1101 H 104.576 2.2509 -2.31375 0
M  V30 1102 H 103.628 0.332919 -3.7894 0
M  V30 1103 H 104.94 0.654677 -4.94485 0
M  V30 1104 H 104.094 2.98626 -5.28117 0
M  V30 1105 H 102.833 2.72807 -4.04262 0
M  V30 1106 H 101.838 0.884779 -5.42634 0
M  V30 1107 H 103.063 1.16652 -6.69006 0
M  V30 1108 H 101.009 3.1946 -5.72959 0
M  V30 1109 H 100.926 2.28917 -7.20509 0
M  V30 1110 H 102.194 3.45799 -6.98601 0
M  V30 1111 N 106.423 1.57458 -0.0668435 0
M  V30 1112 C 107.653 1.97337 0.611677 0
M  V30 1113 C 108.061 0.943744 1.63982 0
M  V30 1114 O 107.404 -0.0785584 1.83532 0
M  V30 1115 C 107.466 3.33511 1.34205 0
M  V30 1116 C 107.13 4.54598 0.467941 0
M  V30 1117 C 108.127 5.19186 -0.272439 0
M  V30 1118 C 105.812 5.0075 0.39427 0
M  V30 1119 C 107.806 6.28274 -1.07476 0
M  V30 1120 C 105.493 6.09711 -0.411729 0
M  V30 1121 C 106.491 6.73335 -1.14492 0
M  V30 1122 O 106.179 7.80199 -1.93763 0
M  V30 1123 H 105.911 0.654042 0.170893 0
M  V30 1124 H 108.465 2.04961 -0.134289 0
M  V30 1125 H 106.695 3.22487 2.13398 0
M  V30 1126 H 108.384 3.58029 1.91233 0
M  V30 1127 H 109.15 4.84477 -0.225086 0
M  V30 1128 H 105.029 4.51009 0.954569 0
M  V30 1129 H 108.573 6.77866 -1.64755 0
M  V30 1130 H 104.47 6.43854 -0.460664 0
M  V30 1131 H 105.238 7.97053 -1.86142 0
M  V30 1132 N 107.901 -0.206675 1.56239 0
M  V30 1133 C 109.147 -0.930218 1.80208 0
M  V30 1134 C 109.48 -1.83387 0.638981 0
M  V30 1135 O 108.755 -1.91119 -0.361066 0
M  V30 1136 C 109.038 -1.75641 3.1436 0
M  V30 1137 C 108.891 -0.878257 4.41142 0
M  V30 1138 C 110.21 -2.73129 3.45092 0
M  V30 1139 H 107.329 -0.336742 0.655571 0
M  V30 1140 H 109.971 -0.198222 1.88963 0
M  V30 1141 H 108.121 -2.38048 3.07027 0
M  V30 1142 H 109.793 -0.269787 4.6051 0
M  V30 1143 H 108.036 -0.184385 4.33408 0
M  V30 1144 H 108.707 -1.49106 5.3148 0
M  V30 1145 H 111.183 -2.20856 3.52649 0
M  V30 1146 H 110.059 -3.28028 4.40101 0
M  V30 1147 H 110.32 -3.51606 2.68003 0
M  V30 1148 N 109.379 -1.50304 -0.473955 0
M  V30 1149 C 110.607 -1.64902 -1.24959 0
M  V30 1150 C 111.022 -0.331198 -1.85872 0
M  V30 1151 O 110.379 0.68652 -1.69095 0
M  V30 1152 C 110.43 -2.73803 -2.36038 0
M  V30 1153 O 110.151 -4.00477 -1.77624 0
M  V30 1154 C 111.652 -2.99349 -3.26964 0
M  V30 1155 H 108.872 -0.554383 -0.378022 0
M  V30 1156 H 111.416 -1.9651 -0.566054 0
M  V30 1157 H 109.571 -2.44898 -3.00173 0
M  V30 1158 H 109.985 -4.60678 -2.5075 0
M  V30 1159 H 111.459 -3.79217 -4.01121 0
M  V30 1160 H 111.936 -2.10307 -3.85574 0
M  V30 1161 H 112.542 -3.29774 -2.68569 0
M  V30 1162 N 110.857 0.726932 -1.39834 0
M  V30 1163 C 112.097 1.4992 -1.38936 0
M  V30 1164 C 112.461 1.91996 0.0126883 0
M  V30 1165 O 113.662 2.68399 0.146715 0
M  V30 1166 C 111.933 2.70013 -2.34153 0
M  V30 1167 S 113.492 3.59563 -2.51515 0
M  V30 1168 H 110.31 0.51271 -0.492595 0
M  V30 1169 H 112.912 0.85107 -1.76003 0
M  V30 1170 H 111.616 2.37254 -3.34871 0
M  V30 1171 H 111.147 3.39748 -1.98331 0
M  V30 1172 H 113.162 4.63973 -1.75909 0
M  V30 1173 N 112.336 1.25143 0.95797 0
M  V30 1174 C 113.582 1.09855 1.70469 0
M  V30 1175 C 113.915 -0.360187 1.90831 0
M  V30 1176 O 113.19 -1.26568 1.47685 0
M  V30 1177 C 113.473 1.8497 3.08963 0
M  V30 1178 C 113.326 3.38652 2.96032 0
M  V30 1179 C 114.645 1.63016 4.08795 0
M  V30 1180 H 111.764 0.400465 0.618706 0
M  V30 1181 H 114.406 1.53933 1.11376 0
M  V30 1182 H 112.556 1.47505 3.59409 0
M  V30 1183 H 114.228 3.85772 2.52938 0
M  V30 1184 H 112.471 3.66534 2.32025 0
M  V30 1185 H 113.142 3.8642 3.94187 0
M  V30 1186 H 115.618 1.95625 3.67247 0
M  V30 1187 H 114.494 2.18015 5.03747 0
M  V30 1188 H 114.755 0.570692 4.38401 0
M  V30 1189 N 113.814 -1.1601 1.06675 0
M  V30 1190 C 115.039 -1.91068 0.806706 0
M  V30 1191 C 115.464 -1.77112 -0.633485 0
M  V30 1192 O 114.822 -1.09908 -1.44187 0
M  V30 1193 C 114.87 -3.39655 1.21106 0
M  V30 1194 O 113.974 -4.10893 0.352189 0
M  V30 1195 H 113.315 -0.595125 0.294486 0
M  V30 1196 H 115.845 -1.46955 1.42356 0
M  V30 1197 H 115.855 -3.90434 1.18428 0
M  V30 1198 H 114.53 -3.49132 2.26008 0
M  V30 1199 H 113.107 -3.70285 0.440868 0
M  V30 1200 N 115.292 -0.849877 -1.32721 0
M  V30 1201 C 116.54 -0.450032 -1.97026 0
M  V30 1202 C 116.861 0.996604 -1.67609 0
M  V30 1203 O 116.131 1.6958 -0.980786 0
M  V30 1204 H 114.711 -0.163426 -0.728904 0
M  V30 1205 H 117.373 -1.08526 -1.6189 0
M  V30 1206 H 116.469 -0.591146 -3.0645 0
M  V30 1207 N 116.77 1.45427 -0.607355 0
M  V30 1208 C 117.995 2.07124 -0.107006 0
M  V30 1209 C 118.42 1.44906 1.19933 0
M  V30 1210 O 117.778 0.541687 1.73019 0
M  V30 1211 C 117.826 3.60595 0.0194119 0
M  V30 1212 O 116.93 3.98285 1.0697 0
M  V30 1213 H 116.271 0.659868 -0.0739597 0
M  V30 1214 H 118.801 1.86683 -0.837297 0
M  V30 1215 H 118.811 4.07419 0.2177 0
M  V30 1216 H 117.486 4.05266 -0.934453 0
M  V30 1217 H 116.063 3.63133 0.847889 0
M  V30 1218 N 118.248 0.346503 1.53744 0
M  V30 1219 C 119.494 -0.249473 2.0126 0
M  V30 1220 C 119.827 -1.49965 1.23386 0
M  V30 1221 O 119.102 -1.91811 0.32229 0
M  V30 1222 C 119.385 -0.560643 3.55709 0
M  V30 1223 C 119.238 0.701836 4.44291 0
M  V30 1224 C 120.557 -1.36905 4.18264 0
M  V30 1225 H 117.676 -0.0891987 0.731582 0
M  V30 1226 H 120.318 0.467624 1.84156 0
M  V30 1227 H 118.468 -1.17156 3.70414 0
M  V30 1228 H 120.14 1.33974 4.41417 0
M  V30 1229 H 118.383 1.32612 4.13033 0
M  V30 1230 H 119.054 0.43933 5.50249 0
M  V30 1231 H 121.53 -0.852448 4.07275 0
M  V30 1232 H 120.406 -1.55553 5.26398 0
M  V30 1233 H 120.667 -2.37203 3.73078 0
M  V30 1234 N 119.726 -1.57421 0.075193 0
M  V30 1235 C 120.973 -1.93618 -0.593146 0
M  V30 1236 C 121.301 -0.955484 -1.69413 0
M  V30 1237 O 120.556 0.0283251 -1.9568 0
M  V30 1238 C 120.855 -3.36428 -1.20626 0
M  V30 1239 C 120.521 -4.50307 -0.231078 0
M  V30 1240 C 119.183 -4.81186 0.0371936 0
M  V30 1241 C 121.535 -5.19374 0.435888 0
M  V30 1242 C 118.863 -5.78466 0.979461 0
M  V30 1243 C 121.215 -6.17665 1.3665 0
M  V30 1244 C 119.879 -6.46958 1.6432 0
M  V30 1245 H 119.149 -0.708499 -0.217047 0
M  V30 1246 H 121.796 -1.90937 0.146793 0
M  V30 1247 H 120.101 -3.35592 -2.02201 0
M  V30 1248 H 121.798 -3.61727 -1.73073 0
M  V30 1249 H 118.388 -4.26227 -0.450357 0
M  V30 1250 H 122.572 -4.95711 0.241748 0
M  V30 1251 H 117.828 -5.99487 1.20106 0
M  V30 1252 H 122.002 -6.70284 1.88924 0
M  V30 1253 H 119.629 -7.2215 2.37494 0
M  V30 1254 N 121.204 0.198386 -1.56346 0
M  V30 1255 C 122.481 0.944982 -1.71258 0
M  V30 1256 C 122.861 2.0151 -0.629048 0
M  V30 1257 O 122.209 2.25639 0.360473 0
M  V30 1258 C 122.419 1.5344 -3.1346 0
M  V30 1259 C 123.767 2.01778 -3.73591 0
M  V30 1260 O 124.791 1.63288 -3.16568 0
M  V30 1261 O 123.65 2.72594 -4.73661 0
M  V30 1262 H 120.744 0.442939 -0.69838 0
M  V30 1263 H 123.29 0.188342 -1.68652 0
M  V30 1264 H 122.062 0.762869 -3.83792 0
M  V30 1265 H 121.685 2.35596 -3.20282 0
M  V30 1266 N 122.682 1.50554 0.465978 0
M  V30 1267 C 123.928 1.62038 1.21949 0
M  V30 1268 C 124.261 0.322116 1.9151 0
M  V30 1269 O 123.536 -0.676723 1.82348 0
M  V30 1270 C 123.819 2.80421 2.25912 0
M  V30 1271 C 123.672 4.20144 1.60622 0
M  V30 1272 C 124.991 2.94354 3.27176 0
M  V30 1273 H 122.11 0.589752 0.441998 0
M  V30 1274 H 124.752 1.82956 0.51257 0
M  V30 1275 H 122.902 2.62717 2.86203 0
M  V30 1276 H 124.574 4.49449 1.03889 0
M  V30 1277 H 122.817 4.24165 0.909211 0
M  V30 1278 H 123.488 4.98914 2.36196 0
M  V30 1279 H 125.964 3.10578 2.76913 0
M  V30 1280 H 124.84 3.788 3.97242 0
M  V30 1281 H 125.101 2.05186 3.916 0
M  V30 1282 N 124.16 -0.719506 1.40217 0
M  V30 1283 C 125.406 -1.48152 1.38488 0
M  V30 1284 C 125.739 -1.94195 -0.0141867 0
M  V30 1285 O 125.014 -1.67884 -0.982096 0
M  V30 1286 C 125.297 -2.71035 2.37091 0
M  V30 1287 C 125.15 -2.30912 3.86005 0
M  V30 1288 C 126.469 -3.73182 2.33288 0
M  V30 1289 H 123.588 -0.537395 0.504357 0
M  V30 1290 H 126.23 -0.821472 1.71324 0
M  V30 1291 H 124.38 -3.27352 2.0922 0
M  V30 1292 H 126.052 -1.80107 4.24687 0
M  V30 1293 H 124.295 -1.62958 4.02029 0
M  V30 1294 H 124.966 -3.18978 4.50508 0
M  V30 1295 H 127.442 -3.26485 2.57966 0
M  V30 1296 H 126.318 -4.56806 3.04334 0
M  V30 1297 H 126.579 -4.21202 1.34317 0
M  V30 1298 N 125.638 -1.25649 -0.95132 0
M  V30 1299 C 126.884 -1.10757 -1.69884 0
M  V30 1300 C 127.217 0.350061 -1.91019 0
M  V30 1301 O 126.492 1.25783 -1.48354 0
M  V30 1302 C 126.775 -1.86606 -3.07978 0
M  V30 1303 C 126.628 -3.40217 -2.94232 0
M  V30 1304 C 127.947 -1.65182 -4.07925 0
M  V30 1305 H 125.066 -0.40374 -0.616574 0
M  V30 1306 H 127.708 -1.54521 -1.10558 0
M  V30 1307 H 125.858 -1.49409 -3.58621 0
M  V30 1308 H 127.53 -3.87108 -2.50889 0
M  V30 1309 H 125.773 -3.67759 -2.30078 0
M  V30 1310 H 126.444 -3.88505 -3.92133 0
M  V30 1311 H 128.92 -1.9757 -3.66204 0
M  V30 1312 H 127.796 -2.20683 -5.02583 0
M  V30 1313 H 128.057 -0.593933 -4.38092 0
M  V30 1314 N 127.117 1.15442 -1.07289 0
M  V30 1315 C 128.394 1.82306 -0.708792 0
M  V30 1316 C 128.774 1.94991 0.808807 0
M  V30 1317 O 128.122 1.50085 1.72298 0
M  V30 1318 C 128.332 3.18695 -1.42247 0
M  V30 1319 C 129.68 3.94341 -1.57417 0
M  V30 1320 O 130.704 3.28247 -1.38319 0
M  V30 1321 O 129.563 5.12839 -1.88834 0
M  V30 1322 H 126.657 0.787628 -0.252132 0
M  V30 1323 H 129.203 1.22559 -1.17377 0
M  V30 1324 H 127.975 3.04557 -2.45684 0
M  V30 1325 H 127.598 3.86128 -0.948223 0
M  V30 1326 N 128.595 0.856903 1.32268 0
M  V30 1327 C 129.844 0.457599 1.96441 0
M  V30 1328 C 130.157 -0.992426 1.68553 0
M  V30 1329 O 131.363 -1.49727 2.26482 0
M  V30 1330 C 129.819 0.767358 3.51624 0
M  V30 1331 C 129.427 2.23326 3.88367 0
M  V30 1332 C 131.171 0.435887 4.22256 0
M  V30 1333 C 129.078 2.48613 5.36606 0
M  V30 1334 H 128.008 0.167387 0.735185 0
M  V30 1335 H 130.659 1.048 1.5063 0
M  V30 1336 H 129.041 0.106367 3.95857 0
M  V30 1337 H 130.215 2.93623 3.55137 0
M  V30 1338 H 128.53 2.52948 3.30766 0
M  V30 1339 H 131.127 0.602202 5.31298 0
M  V30 1340 H 131.47 -0.622672 4.11617 0
M  V30 1341 H 132.003 1.05286 3.83614 0
M  V30 1342 H 128.742 3.53101 5.52268 0
M  V30 1343 H 128.262 1.82896 5.71235 0
M  V30 1344 H 129.941 2.32676 6.03714 0
M  V30 1345 N 130.073 -1.45103 0.615059 0
M  V30 1346 C 131.489 -1.57137 0.279322 0
M  V30 1347 C 131.689 -1.60523 -1.21797 0
M  V30 1348 O 130.745 -1.53956 -2.00134 0
M  V30 1349 C 132.058 -2.85062 0.957083 0
M  V30 1350 C 133.606 -2.98749 0.933706 0
M  V30 1351 C 134.081 -4.29455 1.59162 0
M  V30 1352 N 135.572 -4.36231 1.55746 0
M  V30 1353 C 136.307 -5.36051 2.0356 0
M  V30 1354 N 135.803 -6.42367 2.59494 0
M  V30 1355 N 137.596 -5.27456 1.94284 0
M  V30 1356 H 129.747 -1.41148 1.58717 0
M  V30 1357 H 132.01 -0.675331 0.665306 0
M  V30 1358 H 131.716 -2.88488 2.01166 0
M  V30 1359 H 131.59 -3.7407 0.48494 0
M  V30 1360 H 133.977 -2.94886 -0.112347 0
M  V30 1361 H 134.058 -2.11132 1.44419 0
M  V30 1362 H 133.702 -4.34077 2.63704 0
M  V30 1363 H 133.632 -5.15901 1.0561 0
M  V30 1364 H 136.123 -3.60011 1.14893 0
M  V30 1365 H 136.436 -7.14793 2.93752 0
M  V30 1366 H 134.781 -6.43097 2.63537 0
M  V30 1367 H 137.972 -4.43308 1.5032 0
M  V30 1368 H 138.145 -6.05099 2.3186 0
M  V30 1369 N 131.551 -0.354651 -1.53558 0
M  V30 1370 C 132.461 0.50515 -2.29097 0
M  V30 1371 C 133.477 1.10223 -1.34636 0
M  V30 1372 O 134.653 1.11553 -1.67684 0
M  V30 1373 C 131.718 1.63479 -3.05738 0
M  V30 1374 C 130.779 1.06636 -4.15845 0
M  V30 1375 C 130.012 2.14217 -4.88822 0
M  V30 1376 O 130.235 3.35137 -4.61562 0
M  V30 1377 O 129.169 1.77887 -5.75013 0
M  V30 1378 H 132.995 -0.109237 -3.03503 0
M  V30 1379 H 130.58 -0.119357 -1.48922 0
M  V30 1380 H 132.462 2.2918 -3.5363 0
M  V30 1381 H 131.137 2.23478 -2.34178 0
M  V30 1382 H 130.044 0.373565 -3.7223 0
M  V30 1383 H 131.377 0.511081 -4.89539 0
M  V30 1384 N 133.029 1.57378 -0.0835403 0
M  V30 1385 C 134.277 1.93547 0.581718 0
M  V30 1386 C 134.598 0.96524 1.69435 0
M  V30 1387 O 133.868 0.0153369 1.95894 0
M  V30 1388 H 132.448 0.714521 0.217874 0
M  V30 1389 H 135.11 1.94366 -0.144158 0
M  V30 1390 H 134.206 2.95665 0.999423 0
M  V30 1391 N 134.507 -0.190092 1.56449 0
M  V30 1392 C 135.732 -0.929864 1.85387 0
M  V30 1393 C 136.157 -1.7585 0.667704 0
M  V30 1394 O 135.515 -1.77198 -0.383459 0
M  V30 1395 C 135.563 -1.79773 3.12593 0
M  V30 1396 O 134.667 -2.89713 2.93496 0
M  V30 1397 H 134.008 -0.261574 0.610307 0
M  V30 1398 H 136.538 -0.193896 2.03679 0
M  V30 1399 H 136.548 -2.20139 3.43515 0
M  V30 1400 H 135.223 -1.18892 3.98544 0
M  V30 1401 H 133.8 -2.53065 2.73884 0
M  V30 1402 N 135.985 -1.50799 -0.457987 0
M  V30 1403 C 137.396 -1.55152 -1.0385 0
M  V30 1404 C 137.747 -0.362719 -1.92818 0
M  V30 1405 O 136.872 0.522915 -2.09987 0
M  V30 1406 C 137.467 -2.81173 -1.89017 0
M  V30 1407 C 136.026 -2.88164 -2.42154 0
M  V30 1408 C 135.173 -2.49591 -1.20829 0
M  V30 1409 H 138.124 -1.56874 -0.240068 0
M  V30 1410 H 138.145 -2.63769 -2.74238 0
M  V30 1411 H 137.657 -3.67677 -1.24238 0
M  V30 1412 H 135.758 -2.06042 -3.10447 0
M  V30 1413 H 135.871 -3.91356 -2.76364 0
M  V30 1414 H 134.235 -2.02322 -1.54719 0
M  V30 1415 H 135.018 -3.38418 -0.576927 0
M  V30 1416 N 137.463 0.71206 -1.40597 0
M  V30 1417 C 138.691 1.50111 -1.42388 0
M  V30 1418 C 139.106 1.88784 -0.0245395 0
M  V30 1419 O 138.463 1.55681 0.952351 0
M  V30 1420 C 138.514 2.7742 -2.31776 0
M  V30 1421 O 138.235 2.40382 -3.66262 0
M  V30 1422 C 139.736 3.7129 -2.42196 0
M  V30 1423 H 136.956 0.46314 -0.485533 0
M  V30 1424 H 139.5 0.878068 -1.8469 0
M  V30 1425 H 137.655 3.36001 -1.92827 0
M  V30 1426 H 138.069 3.22324 -4.13772 0
M  V30 1427 H 139.543 4.57448 -3.08943 0
M  V30 1428 H 140.02 4.14641 -1.44809 0
M  V30 1429 H 140.626 3.18619 -2.81712 0
M  V30 1430 N 138.941 1.26152 0.944643 0
M  V30 1431 C 140.188 1.11492 1.69044 0
M  V30 1432 C 140.516 -0.342366 1.91463 0
M  V30 1433 O 139.771 -1.26812 1.49054 0
M  V30 1434 C 140.07 1.82541 3.07268 0
M  V30 1435 C 139.736 3.32445 3.04616 0
M  V30 1436 C 138.398 3.73337 3.036 0
M  V30 1437 C 140.75 4.28171 2.97185 0
M  V30 1438 C 138.078 5.08348 2.92915 0
M  V30 1439 C 140.43 5.63218 2.88041 0
M  V30 1440 C 139.094 6.03426 2.85366 0
M  V30 1441 H 138.364 0.407977 0.618576 0
M  V30 1442 H 141.011 1.56551 1.10291 0
M  V30 1443 H 139.316 1.29941 3.69625 0
M  V30 1444 H 141.013 1.68642 3.63815 0
M  V30 1445 H 137.603 2.99915 3.06185 0
M  V30 1446 H 141.787 3.97563 2.97081 0
M  V30 1447 H 137.043 5.38667 2.89219 0
M  V30 1448 H 141.217 6.37078 2.81254 0
M  V30 1449 H 138.844 7.07999 2.76842 0
M  V30 1450 N 140.419 -1.14872 1.07899 0
M  V30 1451 C 141.667 -1.85422 0.803941 0
M  V30 1452 C 141.988 -1.83051 -0.67211 0
M  V30 1453 O 141.258 -1.27532 -1.48703 0
M  V30 1454 H 139.838 -0.686537 0.294408 0
M  V30 1455 H 142.5 -1.39226 1.3639 0
M  V30 1456 H 141.596 -2.90399 1.14346 0
M  V30 1457 N 141.898 -0.863906 -1.31812 0
M  V30 1458 C 143.314 -0.555004 -1.49639 0
M  V30 1459 C 143.514 0.912266 -1.79666 0
M  V30 1460 O 142.57 1.69479 -1.87171 0
M  V30 1461 C 143.883 -1.44998 -2.63431 0
M  V30 1462 C 145.431 -1.45138 -2.77316 0
M  V30 1463 C 145.906 -2.33179 -3.94197 0
M  V30 1464 N 147.397 -2.31025 -4.01474 0
M  V30 1465 C 148.132 -2.95871 -4.9117 0
M  V30 1466 N 147.628 -3.69863 -5.8581 0
M  V30 1467 N 149.421 -2.85211 -4.84367 0
M  V30 1468 H 141.572 -1.81339 -1.10589 0
M  V30 1469 H 143.835 -0.77505 -0.545895 0
M  V30 1470 H 143.541 -2.49377 -2.48 0
M  V30 1471 H 143.415 -1.14409 -3.59431 0
M  V30 1472 H 145.802 -0.415201 -2.92164 0
M  V30 1473 H 145.883 -1.79747 -1.82001 0
M  V30 1474 H 145.527 -3.3687 -3.80107 0
M  V30 1475 H 145.457 -1.95897 -4.88807 0
M  V30 1476 H 147.948 -1.77238 -3.33759 0
M  V30 1477 H 148.261 -4.16486 -6.50968 0
M  V30 1478 H 146.606 -3.73971 -5.85808 0
M  V30 1479 H 149.797 -2.26948 -4.09405 0
M  V30 1480 H 149.97 -3.36027 -5.54066 0
M  V30 1481 N 143.376 1.44774 -0.622745 0
M  V30 1482 C 144.622 2.02968 -0.13257 0
M  V30 1483 C 144.977 1.48047 1.22881 0
M  V30 1484 O 144.27 0.651625 1.80179 0
M  V30 1485 C 144.464 3.57364 -0.0508323 0
M  V30 1486 C 144.293 4.27262 -1.40275 0
M  V30 1487 C 143.063 4.64577 -1.98737 0
M  V30 1488 C 145.261 4.58248 -2.3348 0
M  V30 1489 N 143.243 5.19404 -3.27251 0
M  V30 1490 C 144.614 5.14069 -3.46603 0
M  V30 1491 C 146.669 4.40195 -2.32664 0
M  V30 1492 C 145.372 5.53738 -4.59093 0
M  V30 1493 C 147.398 4.80907 -3.44213 0
M  V30 1494 C 146.76 5.36834 -4.56058 0
M  V30 1495 H 142.859 0.776541 -0.0922354 0
M  V30 1496 H 145.443 1.76385 -0.82441 0
M  V30 1497 H 143.614 3.83576 0.610265 0
M  V30 1498 H 145.346 4.02219 0.447397 0
M  V30 1499 H 142.101 4.48622 -1.51774 0
M  V30 1500 H 142.525 5.51301 -3.92933 0
M  V30 1501 H 147.167 3.96257 -1.47446 0
M  V30 1502 H 144.885 5.96635 -5.45025 0
M  V30 1503 H 148.471 4.68659 -3.44747 0
M  V30 1504 H 147.351 5.67755 -5.40947 0
M  V30 1505 N 144.854 0.36279 1.53368 0
M  V30 1506 C 146.131 -0.284021 1.93527 0
M  V30 1507 C 146.511 -1.66628 1.29608 0
M  V30 1508 O 145.859 -2.23942 0.45413 0
M  V30 1509 C 146.069 -0.337028 3.47369 0
M  V30 1510 C 147.417 -0.578708 4.20638 0
M  V30 1511 O 148.441 -0.418352 3.53735 0
M  V30 1512 O 147.3 -0.89074 5.39192 0
M  V30 1513 H 144.394 -0.169743 0.809393 0
M  V30 1514 H 146.94 0.41537 1.64538 0
M  V30 1515 H 145.712 0.632217 3.86159 0
M  V30 1516 H 145.335 -1.08243 3.82582 0
M  V30 1517 N 146.332 -1.57332 0.0918853 0
M  V30 1518 C 147.557 -1.98995 -0.584442 0
M  V30 1519 C 147.982 -0.970528 -1.61128 0
M  V30 1520 O 147.34 0.0613904 -1.81196 0
M  V30 1521 C 147.388 -3.39636 -1.21161 0
M  V30 1522 O 146.492 -3.40447 -2.32744 0
M  V30 1523 H 145.833 -0.647165 -0.148572 0
M  V30 1524 H 148.363 -2.03873 0.172347 0
M  V30 1525 H 148.373 -3.7726 -1.55367 0
M  V30 1526 H 147.048 -4.13356 -0.459313 0
M  V30 1527 H 145.625 -3.14614 -2.0018 0
M  V30 1528 N 147.81 0.181792 -1.56548 0
M  V30 1529 C 149.056 0.901431 -1.81665 0
M  V30 1530 C 149.389 1.82347 -0.668075 0
M  V30 1531 O 148.664 1.91669 0.330615 0
M  V30 1532 C 148.947 1.70618 -3.17115 0
M  V30 1533 C 148.8 0.807964 -4.42484 0
M  V30 1534 C 150.119 2.67605 -3.49393 0
M  V30 1535 H 147.238 0.32627 -0.660846 0
M  V30 1536 H 149.88 0.168134 -1.89255 0
M  V30 1537 H 148.03 2.33133 -3.10775 0
M  V30 1538 H 149.702 0.19649 -4.60881 0
M  V30 1539 H 147.945 0.115411 -4.33646 0
M  V30 1540 H 148.616 1.40632 -5.33785 0
M  V30 1541 H 151.092 2.15218 -3.56118 0
M  V30 1542 H 149.968 3.20985 -4.45264 0
M  V30 1543 H 150.229 3.47298 -2.73563 0
M  V30 1544 N 149.288 1.51039 0.449983 0
M  V30 1545 C 150.218 1.74379 1.55288 0
M  V30 1546 C 151.199 0.593236 1.5942 0
M  V30 1547 O 152.384 0.834625 1.7535 0
M  V30 1548 C 149.514 1.85728 2.93466 0
M  V30 1549 C 148.468 3.01078 3.04197 0
M  V30 1550 C 147.794 2.97595 4.44231 0
M  V30 1551 C 149.094 4.41254 2.7945 0
M  V30 1552 H 150.788 2.66725 1.36008 0
M  V30 1553 H 148.334 1.2835 0.652864 0
M  V30 1554 H 150.287 2.0064 3.70569 0
M  V30 1555 H 149.011 0.900207 3.13949 0
M  V30 1556 H 147.67 2.85851 2.29531 0
M  V30 1557 H 147.318 1.99691 4.61663 0
M  V30 1558 H 147.018 3.75046 4.52343 0
M  V30 1559 H 148.542 3.14583 5.23326 0
M  V30 1560 H 149.956 4.56897 3.46292 0
M  V30 1561 H 148.353 5.20315 2.98985 0
M  V30 1562 H 149.423 4.52164 1.75144 0
M  V30 1563 N 150.766 -0.704594 1.40972 0
M  V30 1564 C 151.696 -1.83124 1.44872 0
M  V30 1565 C 152.677 -1.67281 0.30838 0
M  V30 1566 O 153.862 -1.87149 0.518556 0
M  V30 1567 C 150.992 -3.21181 1.32136 0
M  V30 1568 C 149.946 -3.51714 2.43888 0
M  V30 1569 C 149.272 -4.89032 2.16222 0
M  V30 1570 C 150.572 -3.516 3.86232 0
M  V30 1571 H 152.266 -1.80117 2.39161 0
M  V30 1572 H 149.812 -0.865145 1.15114 0
M  V30 1573 H 151.765 -3.99702 1.33479 0
M  V30 1574 H 150.489 -3.24791 0.343279 0
M  V30 1575 H 149.148 -2.75539 2.41813 0
M  V30 1576 H 148.796 -4.89256 1.16778 0
M  V30 1577 H 148.496 -5.10426 2.911 0
M  V30 1578 H 150.02 -5.69873 2.19265 0
M  V30 1579 H 151.434 -4.2014 3.9007 0
M  V30 1580 H 149.831 -3.84523 4.60719 0
M  V30 1581 H 150.901 -2.50757 4.15029 0
M  V30 1582 N 152.244 -1.26651 -0.937939 0
M  V30 1583 C 153.521 -1.0313 -1.66204 0
M  V30 1584 C 153.901 0.437256 -2.06522 0
M  V30 1585 O 153.249 1.41831 -1.79154 0
M  V30 1586 C 153.459 -1.98314 -2.87181 0
M  V30 1587 C 154.807 -2.27107 -3.58758 0
M  V30 1588 O 155.831 -1.96205 -2.97291 0
M  V30 1589 O 154.69 -2.79736 -4.69479 0
M  V30 1590 H 151.784 -0.392384 -0.727986 0
M  V30 1591 H 154.33 -1.37874 -0.989382 0
M  V30 1592 H 153.102 -2.97399 -2.54302 0
M  V30 1593 H 152.725 -1.64068 -3.6217 0
M  V30 1594 N 153.722 1.14298 -1.08507 0
M  V30 1595 C 154.999 1.81544 -0.728088 0
M  V30 1596 C 155.379 1.95838 0.78808 0
M  V30 1597 O 154.727 1.51904 1.70697 0
M  V30 1598 C 154.937 3.17169 -1.45619 0
M  V30 1599 C 156.285 3.9265 -1.61591 0
M  V30 1600 O 157.309 3.26762 -1.41793 0
M  V30 1601 O 156.168 5.10807 -1.94263 0
M  V30 1602 H 153.262 0.78491 -0.260471 0
M  V30 1603 H 155.808 1.21307 -1.18671 0
M  V30 1604 H 154.58 3.01934 -2.489 0
M  V30 1605 H 154.203 3.851 -0.989124 0
M  V30 1606 N 155.201 0.870884 1.31352 0
M  V30 1607 C 156.133 0.28455 2.27427 0
M  V30 1608 C 157.146 -0.552927 1.53123 0
M  V30 1609 O 158.335 -0.374771 1.74521 0
M  V30 1610 C 155.435 -0.615164 3.3327 0
M  V30 1611 C 154.608 0.190079 4.36987 0
M  V30 1612 C 153.667 -0.637917 5.22319 0
M  V30 1613 O 152.693 -0.065626 5.69162 0
M  V30 1614 N 153.895 -1.94973 5.46778 0
M  V30 1615 H 156.66 1.11017 2.7838 0
M  V30 1616 H 154.221 0.732458 1.44384 0
M  V30 1617 H 156.213 -1.1748 3.87273 0
M  V30 1618 H 154.783 -1.34146 2.82354 0
M  V30 1619 H 154.003 0.931165 3.83044 0
M  V30 1620 H 155.291 0.742579 5.03352 0
M  V30 1621 H 154.689 -2.4378 5.10478 0
M  V30 1622 H 153.246 -2.45713 6.03712 0
M  V30 1623 N 156.679 -1.44442 0.630414 0
M  V30 1624 C 157.956 -1.9549 0.0655657 0
M  V30 1625 C 158.336 -1.5724 -1.40851 0
M  V30 1626 O 157.684 -0.846116 -2.12257 0
M  V30 1627 C 157.894 -3.47812 0.287691 0
M  V30 1628 C 159.242 -4.24216 0.180513 0
M  V30 1629 O 160.266 -3.55526 0.219019 0
M  V30 1630 O 159.125 -5.46434 0.0848493 0
M  V30 1631 H 156.219 -0.826688 -0.0227177 0
M  V30 1632 H 158.765 -1.54496 0.702068 0
M  V30 1633 H 157.537 -3.687 1.31056 0
M  V30 1634 H 157.16 -3.95751 -0.382984 0
M  V30 1635 N 158.157 -0.370918 -1.53173 0
M  V30 1636 C 159.573 -0.0200818 -1.59587 0
M  V30 1637 C 159.773 1.46279 -1.38581 0
M  V30 1638 O 158.829 2.22506 -1.19363 0
M  V30 1639 C 160.142 -0.4808 -2.96831 0
M  V30 1640 C 161.69 -0.435477 -3.09956 0
M  V30 1641 C 162.165 -0.872092 -4.4962 0
M  V30 1642 N 163.656 -0.827364 -4.55751 0
M  V30 1643 C 164.391 -1.13683 -5.62018 0
M  V30 1644 N 163.887 -1.51584 -6.76014 0
M  V30 1645 N 165.68 -1.05927 -5.52029 0
M  V30 1646 H 157.831 -1.33652 -1.65079 0
M  V30 1647 H 160.094 -0.546634 -0.774529 0
M  V30 1648 H 159.8 -1.51577 -3.1736 0
M  V30 1649 H 159.674 0.129796 -3.76977 0
M  V30 1650 H 162.061 0.590371 -2.89134 0
M  V30 1651 H 162.142 -1.08164 -2.31806 0
M  V30 1652 H 161.786 -1.89608 -4.71181 0
M  V30 1653 H 161.716 -0.203127 -5.26208 0
M  V30 1654 H 164.207 -0.548216 -3.73902 0
M  V30 1655 H 164.52 -1.73609 -7.53047 0
M  V30 1656 H 162.865 -1.55454 -6.77391 0
M  V30 1657 H 166.056 -0.762321 -4.61851 0
M  V30 1658 H 166.229 -1.30378 -6.34749 0
M  V30 1659 N 159.635 1.57281 -0.100228 0
M  V30 1660 C 161.051 1.57527 0.256416 0
M  V30 1661 C 161.251 1.11173 1.68056 0
M  V30 1662 O 160.307 0.79053 2.39806 0
M  V30 1663 C 161.62 3.00673 0.0401747 0
M  V30 1664 C 163.168 3.12815 0.107528 0
M  V30 1665 C 163.643 4.57929 -0.0807834 0
M  V30 1666 N 165.134 4.63193 -0.0261207 0
M  V30 1667 C 165.869 5.73212 -0.146999 0
M  V30 1668 N 165.365 6.92047 -0.322999 0
M  V30 1669 N 167.158 5.62031 -0.0879044 0
M  V30 1670 H 159.309 1.85718 -1.03065 0
M  V30 1671 H 161.572 0.857446 -0.404339 0
M  V30 1672 H 161.278 3.38804 -0.943649 0
M  V30 1673 H 161.152 3.69042 0.780262 0
M  V30 1674 H 163.539 2.74554 1.08186 0
M  V30 1675 H 163.62 2.47028 -0.664134 0
M  V30 1676 H 163.264 4.96886 -1.05201 0
M  V30 1677 H 163.194 5.21783 0.710635 0
M  V30 1678 H 165.685 3.77748 0.107161 0
M  V30 1679 H 165.998 7.7173 -0.406608 0
M  V30 1680 H 164.343 6.94074 -0.358733 0
M  V30 1681 H 167.534 4.68075 0.048498 0
M  V30 1682 H 167.707 6.47734 -0.185557 0
M  V30 1683 N 161.113 -0.173488 1.56642 0
M  V30 1684 C 162.341 -0.906095 1.86004 0
M  V30 1685 C 162.756 -1.75921 0.685355 0
M  V30 1686 O 162.113 -1.79198 -0.345578 0
M  V30 1687 C 162.164 -1.78462 3.14378 0
M  V30 1688 O 161.885 -0.965914 4.27319 0
M  V30 1689 C 163.386 -2.62707 3.57071 0
M  V30 1690 H 160.606 -0.263341 0.617165 0
M  V30 1691 H 163.15 -0.174236 2.03756 0
M  V30 1692 H 161.305 -2.46984 2.98459 0
M  V30 1693 H 161.719 -1.56655 5.00559 0
M  V30 1694 H 163.193 -3.19969 4.49804 0
M  V30 1695 H 163.67 -3.37472 2.81086 0
M  V30 1696 H 164.276 -1.99521 3.75595 0
M  V30 1697 N 162.591 -1.51276 -0.441967 0
M  V30 1698 C 163.84 -1.6295 -1.18871 0
M  V30 1699 C 164.153 -0.349312 -1.92456 0
M  V30 1700 O 165.359 -0.345355 -2.69295 0
M  V30 1701 C 163.815 -2.87759 -2.16155 0
M  V30 1702 C 163.423 -4.22764 -1.48239 0
M  V30 1703 C 165.167 -3.08788 -2.91291 0
M  V30 1704 C 163.074 -5.38728 -2.4398 0
M  V30 1705 H 162.004 -0.606913 -0.447406 0
M  V30 1706 H 164.655 -1.77739 -0.456205 0
M  V30 1707 H 163.037 -2.66593 -2.92821 0
M  V30 1708 H 164.211 -4.54293 -0.771635 0
M  V30 1709 H 162.526 -4.07575 -0.852741 0
M  V30 1710 H 165.123 -3.92599 -3.63002 0
M  V30 1711 H 165.466 -2.21679 -3.5237 0
M  V30 1712 H 165.999 -3.30272 -2.21733 0
M  V30 1713 H 162.738 -6.28082 -1.87598 0
M  V30 1714 H 162.258 -5.1158 -3.13123 0
M  V30 1715 H 163.937 -5.70489 -3.05207 0
M  V30 1716 N 164.069 0.697108 -1.41344 0
M  V30 1717 C 165.299 1.48377 -1.43763 0
M  V30 1718 C 165.707 1.89156 -0.0408726 0
M  V30 1719 O 165.05 1.57239 0.949812 0
M  V30 1720 C 165.112 2.7781 -2.2817 0
M  V30 1721 C 164.776 2.59244 -3.76353 0
M  V30 1722 C 165.773 2.25292 -4.68551 0
M  V30 1723 C 163.458 2.74933 -4.20378 0
M  V30 1724 C 165.452 2.07264 -6.02761 0
M  V30 1725 C 163.139 2.56521 -5.54653 0
M  V30 1726 C 164.137 2.22737 -6.4566 0
M  V30 1727 O 163.825 2.04485 -7.77458 0
M  V30 1728 H 163.557 0.463842 -0.491759 0
M  V30 1729 H 166.111 0.865934 -1.86255 0
M  V30 1730 H 164.341 3.41995 -1.8049 0
M  V30 1731 H 166.03 3.39608 -2.22309 0
M  V30 1732 H 166.796 2.12787 -4.35829 0
M  V30 1733 H 162.675 3.00213 -3.49848 0
M  V30 1734 H 166.219 1.80817 -6.73759 0
M  V30 1735 H 162.116 2.68616 -5.86955 0
M  V30 1736 H 162.884 2.1926 -7.88586 0
M  V30 1737 N 165.547 1.27147 0.931209 0
M  V30 1738 C 166.793 1.13446 1.68101 0
M  V30 1739 C 167.126 -0.319628 1.91552 0
M  V30 1740 O 166.401 -1.23407 1.50336 0
M  V30 1741 C 166.684 1.91482 3.0497 0
M  V30 1742 C 166.537 3.44855 2.88782 0
M  V30 1743 C 167.856 1.71651 4.05246 0
M  V30 1744 H 164.975 0.413498 0.610072 0
M  V30 1745 H 167.617 1.56261 1.08086 0
M  V30 1746 H 165.767 1.55095 3.56199 0
M  V30 1747 H 167.439 3.9105 2.44698 0
M  V30 1748 H 165.682 3.71373 2.24198 0
M  V30 1749 H 166.353 3.94694 3.85902 0
M  V30 1750 H 168.829 2.0337 3.63015 0
M  V30 1751 H 167.705 2.28651 4.99009 0
M  V30 1752 H 167.966 0.663555 4.37092 0
M  V30 1753 N 167.025 -1.13721 1.09112 0
M  V30 1754 C 168.25 -1.89314 0.847053 0
M  V30 1755 C 168.675 -1.78416 -0.595774 0
M  V30 1756 O 168.033 -1.12942 -1.41823 0
M  V30 1757 C 168.081 -3.3701 1.28284 0
M  V30 1758 O 167.185 -4.10054 0.439267 0
M  V30 1759 H 166.526 -0.588745 0.307044 0
M  V30 1760 H 169.056 -1.43902 1.45442 0
M  V30 1761 H 169.066 -3.87834 1.26683 0
M  V30 1762 H 167.741 -3.4426 2.33363 0
M  V30 1763 H 166.318 -3.69266 0.519312 0
M  V30 1764 N 168.503 -0.877838 -1.30888 0
M  V30 1765 C 169.413 -0.343096 -2.32078 0
M  V30 1766 C 170.429 0.551022 -1.65045 0
M  V30 1767 O 171.605 0.445854 -1.96403 0
M  V30 1768 C 168.67 0.439905 -3.43898 0
M  V30 1769 C 167.731 -0.483111 -4.26573 0
M  V30 1770 C 166.964 0.262616 -5.33053 0
M  V30 1771 O 167.187 1.48967 -5.50604 0
M  V30 1772 O 166.121 -0.383593 -6.00676 0
M  V30 1773 H 169.947 -1.18203 -2.79753 0
M  V30 1774 H 167.532 -0.64145 -1.34929 0
M  V30 1775 H 169.414 0.883504 -4.12034 0
M  V30 1776 H 168.089 1.25526 -2.98371 0
M  V30 1777 H 166.996 -0.975374 -3.61161 0
M  V30 1778 H 168.329 -1.26427 -4.75686 0
M  V30 1779 N 169.982 1.44106 -0.638065 0
M  V30 1780 C 171.23 2.01579 -0.145043 0
M  V30 1781 C 171.551 1.50496 1.24 0
M  V30 1782 O 170.821 0.711374 1.82527 0
M  V30 1783 H 169.401 0.745282 -0.05063 0
M  V30 1784 H 172.063 1.76516 -0.826327 0
M  V30 1785 H 171.159 3.11877 -0.118039 0
M  V30 1786 N 171.46 0.379036 1.52974 0
M  V30 1787 C 172.39 -0.452706 2.29069 0
M  V30 1788 C 173.371 -1.07237 1.32039 0
M  V30 1789 O 174.556 -1.08708 1.60923 0
M  V30 1790 C 171.686 -1.5856 3.08992 0
M  V30 1791 C 170.64 -1.0925 4.13822 0
M  V30 1792 C 169.966 -2.31668 4.81907 0
M  V30 1793 C 171.266 -0.167702 5.22031 0
M  V30 1794 H 172.96 0.182181 2.98845 0
M  V30 1795 H 170.506 0.0890592 1.43724 0
M  V30 1796 H 172.459 -2.1742 3.6098 0
M  V30 1797 H 171.183 -2.24792 2.36931 0
M  V30 1798 H 169.842 -0.526494 3.628 0
M  V30 1799 H 169.49 -2.96386 4.06404 0
M  V30 1800 H 169.19 -1.9934 5.52754 0
M  V30 1801 H 170.714 -2.91189 5.36695 0
M  V30 1802 H 172.128 -0.664186 5.6944 0
M  V30 1803 H 170.525 0.0653265 6.00064 0
M  V30 1804 H 171.595 0.786347 4.78482 0
M  V30 1805 N 172.938 -1.57226 0.108567 0
M  V30 1806 C 173.901 -2.13602 -0.831082 0
M  V30 1807 C 174.901 -1.06841 -1.20173 0
M  V30 1808 O 176.091 -1.32666 -1.12895 0
M  V30 1809 C 173.223 -2.66769 -2.12243 0
M  V30 1810 H 174.416 -2.97951 -0.341317 0
M  V30 1811 H 171.969 -1.55667 -0.14057 0
M  V30 1812 H 172.704 -1.85977 -2.65675 0
M  V30 1813 H 172.489 -3.44839 -1.86625 0
M  V30 1814 H 173.979 -3.10332 -2.79435 0
M  V30 1815 N 174.416 0.165178 -1.56732 0
M  V30 1816 C 175.366 1.20917 -1.93295 0
M  V30 1817 C 176.35 1.39488 -0.801985 0
M  V30 1818 O 177.542 1.41356 -1.06525 0
M  V30 1819 C 174.671 2.54718 -2.3016 0
M  V30 1820 C 173.757 2.39815 -3.49785 0
M  V30 1821 N 174.148 1.94637 -4.66851 0
M  V30 1822 C 172.446 2.70623 -3.54513 0
M  V30 1823 C 173.147 1.92344 -5.4898 0
M  V30 1824 N 172.123 2.34978 -4.9019 0
M  V30 1825 H 175.925 0.851675 -2.81289 0
M  V30 1826 H 173.439 0.373399 -1.58049 0
M  V30 1827 H 175.436 3.30165 -2.54552 0
M  V30 1828 H 174.096 2.91265 -1.43508 0
M  V30 1829 H 175.107 1.6488 -4.90953 0
M  V30 1830 H 171.784 3.11167 -2.78354 0
M  V30 1831 H 173.174 1.5906 -6.52801 0
M  V30 1832 N 175.894 1.51508 0.433938 0
M  V30 1833 C 177.142 1.6402 1.18075 0
M  V30 1834 C 177.463 0.360328 1.91642 0
M  V30 1835 O 176.733 -0.623945 1.85698 0
M  V30 1836 H 175.313 0.6045 0.43885 0
M  V30 1837 H 177.975 1.88452 0.497178 0
M  V30 1838 H 177.071 2.46949 1.90847 0
M  V30 1839 N 177.372 -0.689602 1.41712 0
M  V30 1840 C 178.619 -1.44966 1.4139 0
M  V30 1841 C 178.947 -1.94484 0.025105 0
M  V30 1842 O 178.202 -1.70307 -0.964048 0
M  V30 1843 C 178.501 -2.67298 2.37247 0
M  V30 1844 C 178.167 -2.36405 3.83958 0
M  V30 1845 C 176.829 -2.27691 4.23923 0
M  V30 1846 C 179.181 -2.11043 4.76561 0
M  V30 1847 C 176.509 -1.91719 5.54492 0
M  V30 1848 C 178.861 -1.76578 6.07456 0
M  V30 1849 C 177.525 -1.66363 6.46436 0
M  V30 1850 H 176.795 -0.53047 0.517381 0
M  V30 1851 H 179.442 -0.787655 1.74552 0
M  V30 1852 H 177.747 -3.38461 1.9736 0
M  V30 1853 H 179.444 -3.25452 2.34269 0
M  V30 1854 H 176.034 -2.44085 3.52308 0
M  V30 1855 H 180.218 -2.16717 4.46483 0
M  V30 1856 H 175.474 -1.82367 5.83568 0
M  V30 1857 H 179.648 -1.55974 6.78708 0
M  V30 1858 H 177.275 -1.38258 7.47522 0
M  V30 1859 N 178.85 -1.27639 -0.924453 0
M  V30 1860 C 179.78 -1.13166 -2.04244 0
M  V30 1861 C 180.761 -0.032256 -1.70069 0
M  V30 1862 O 181.946 -0.207328 -1.9309 0
M  V30 1863 C 179.076 -0.781496 -3.38393 0
M  V30 1864 C 178.03 -1.83449 -3.86692 0
M  V30 1865 C 177.356 -1.33822 -5.17683 0
M  V30 1866 C 178.656 -3.23917 -4.09726 0
M  V30 1867 H 180.35 -2.06689 -2.1661 0
M  V30 1868 H 177.896 -0.995136 -1.04082 0
M  V30 1869 H 179.849 -0.667057 -4.16087 0
M  V30 1870 H 178.573 0.189439 -3.2605 0
M  V30 1871 H 177.232 -1.93789 -3.11193 0
M  V30 1872 H 176.88 -0.35665 -5.01734 0
M  V30 1873 H 176.58 -2.04224 -5.50968 0
M  V30 1874 H 178.104 -1.23679 -5.97943 0
M  V30 1875 H 179.518 -3.16559 -4.77978 0
M  V30 1876 H 177.915 -3.92059 -4.54324 0
M  V30 1877 H 178.985 -3.68729 -3.14908 0
M  V30 1878 N 180.328 1.1314 -1.09713 0
M  V30 1879 C 181.291 2.16831 -0.742751 0
M  V30 1880 C 182.291 1.59159 0.229129 0
M  V30 1881 O 183.481 1.74199 0.00693237 0
M  V30 1882 C 180.613 3.40756 -0.0989168 0
M  V30 1883 H 181.806 2.49695 -1.66109 0
M  V30 1884 H 179.359 1.2802 -0.896699 0
M  V30 1885 H 180.094 3.13485 0.830514 0
M  V30 1886 H 179.879 3.83888 -0.798265 0
M  V30 1887 H 181.369 4.17386 0.133524 0
M  V30 1888 N 181.806 0.884767 1.30421 0
M  V30 1889 C 182.736 0.367574 2.30589 0
M  V30 1890 C 183.717 -0.549464 1.60981 0
M  V30 1891 O 184.902 -0.46336 1.88591 0
M  V30 1892 C 182.032 -0.418944 3.44764 0
M  V30 1893 C 180.986 0.406316 4.26067 0
M  V30 1894 C 180.312 -0.506793 5.32293 0
M  V30 1895 C 181.612 1.64832 4.95608 0
M  V30 1896 H 183.306 1.20462 2.74097 0
M  V30 1897 H 180.852 0.580695 1.31772 0
M  V30 1898 H 182.805 -0.791395 4.13902 0
M  V30 1899 H 181.529 -1.28964 3.0006 0
M  V30 1900 H 180.188 0.760903 3.58617 0
M  V30 1901 H 179.836 -1.37519 4.83836 0
M  V30 1902 H 179.536 0.0415828 5.87585 0
M  V30 1903 H 181.06 -0.875764 6.04287 0
M  V30 1904 H 182.474 1.34646 5.57264 0
M  V30 1905 H 180.871 2.13688 5.60765 0
M  V30 1906 H 181.941 2.39284 4.21748 0
M  V30 1907 N 183.284 -1.43765 0.645699 0
M  V30 1908 C 184.216 -2.29027 -0.0890605 0
M  V30 1909 C 185.229 -1.42093 -0.794563 0
M  V30 1910 O 186.418 -1.66104 -0.653575 0
M  V30 1911 C 183.518 -3.18831 -1.14891 0
M  V30 1912 C 182.691 -4.34261 -0.523043 0
M  V30 1913 C 181.75 -5.04994 -1.47878 0
M  V30 1914 O 180.776 -5.6052 -0.990277 0
M  V30 1915 N 181.978 -5.07795 -2.81291 0
M  V30 1916 H 184.743 -2.92727 0.64272 0
M  V30 1917 H 182.304 -1.54373 0.487924 0
M  V30 1918 H 184.296 -3.63015 -1.78892 0
M  V30 1919 H 182.866 -2.56782 -1.78275 0
M  V30 1920 H 182.086 -3.93088 0.295896 0
M  V30 1921 H 183.374 -5.08728 -0.0858147 0
M  V30 1922 H 182.772 -4.64042 -3.23546 0
M  V30 1923 H 181.329 -5.55721 -3.40614 0
M  V30 1924 N 184.763 -0.387143 -1.52771 0
M  V30 1925 C 186.04 0.253197 -1.93954 0
M  V30 1926 C 186.42 1.64545 -1.32243 0
M  V30 1927 O 185.768 2.23191 -0.489699 0
M  V30 1928 C 185.978 0.281722 -3.47861 0
M  V30 1929 C 187.326 0.511715 -4.21505 0
M  V30 1930 O 188.35 0.362023 -3.54356 0
M  V30 1931 O 187.209 0.804847 -5.40541 0
M  V30 1932 H 184.303 0.156845 -0.811991 0
M  V30 1933 H 186.849 -0.441494 -1.63856 0
M  V30 1934 H 185.621 -0.693571 -3.85104 0
M  V30 1935 H 185.244 1.02142 -3.84256 0
M  V30 1936 N 186.241 1.57166 -0.116904 0
M  V30 1937 C 187.189 2.16457 0.851418 0
M  V30 1938 C 188.183 1.11323 1.27686 0
M  V30 1939 O 189.389 1.2963 1.24884 0
M  V30 1940 H 185.764 0.69271 0.292672 0
M  V30 1941 H 187.735 2.96605 0.32685 0
M  V30 1942 C 186.484 2.77689 2.09246 0
M  V30 1943 H 185.807 3.58285 1.77402 0
M  V30 1944 H 187.247 3.22716 2.7501 0
M  V30 1945 C 185.706 1.74667 2.88085 0
M  V30 1946 O 186.236 1.19877 3.83396 0
M  V30 1947 N 184.442 1.44656 2.52038 0
M  V30 1948 H 183.989 1.89402 1.74599 0
M  V30 1949 H 183.947 0.759675 3.05084 0
M  V30 1950 N 187.719 -0.156864 1.56817 0
M  V30 1951 C 188.944 -0.890331 1.87318 0
M  V30 1952 C 189.369 -1.74394 0.704855 0
M  V30 1953 O 188.727 -1.77972 -0.345786 0
M  V30 1954 C 188.775 -1.73102 3.16336 0
M  V30 1955 O 187.879 -2.83422 2.99576 0
M  V30 1956 H 187.22 -0.24857 0.615718 0
M  V30 1957 H 189.75 -0.150649 2.04045 0
M  V30 1958 H 189.76 -2.12803 3.48107 0
M  V30 1959 H 188.435 -1.10412 4.00976 0
M  V30 1960 H 187.012 -2.47199 2.7919 0
M  V30 1961 N 189.197 -1.51736 -0.425897 0
M  V30 1962 C 190.425 -1.68794 -1.1965 0
M  V30 1963 C 190.84 -0.390164 -1.84725 0
M  V30 1964 O 190.197 0.632376 -1.71194 0
M  V30 1965 C 190.248 -2.81174 -2.27208 0
M  V30 1966 O 189.969 -4.05925 -1.64793 0
M  V30 1967 C 191.47 -3.09599 -3.17275 0
M  V30 1968 H 188.69 -0.566128 -0.360194 0
M  V30 1969 H 191.234 -1.98211 -0.503249 0
M  V30 1970 H 189.389 -2.54324 -2.9223 0
M  V30 1971 H 189.803 -4.68423 -2.35967 0
M  V30 1972 H 191.277 -3.91786 -3.88854 0
M  V30 1973 H 191.754 -2.22468 -3.78688 0
M  V30 1974 H 192.36 -3.38151 -2.57941 0
M  V30 1975 N 190.675 0.682077 -1.42076 0
M  V30 1976 C 191.921 1.44428 -1.42367 0
M  V30 1977 C 192.254 1.94164 -0.0373056 0
M  V30 1978 O 191.529 1.70429 0.937239 0
M  V30 1979 C 191.812 2.64654 -2.44194 0
M  V30 1980 C 191.665 2.20596 -3.91991 0
M  V30 1981 C 192.984 3.66865 -2.431 0
M  V30 1982 H 190.103 0.523834 -0.518428 0
M  V30 1983 H 192.745 0.77576 -1.73442 0
M  V30 1984 H 190.895 3.2169 -2.17826 0
M  V30 1985 H 192.567 1.68783 -4.29313 0
M  V30 1986 H 190.81 1.52242 -4.06208 0
M  V30 1987 H 191.481 3.06921 -4.58807 0
M  V30 1988 H 193.957 3.19531 -2.66532 0
M  V30 1989 H 192.833 4.48577 -3.16339 0
M  V30 1990 H 193.094 4.17493 -1.45437 0
M  V30 1991 N 192.153 1.28127 0.917671 0
M  V30 1992 C 193.086 1.06039 2.02067 0
M  V30 1993 C 194.064 -0.0223285 1.62585 0
M  V30 1994 O 195.248 0.124823 1.88086 0
M  V30 1995 C 192.375 0.610596 3.33151 0
M  V30 1996 C 191.421 1.68937 3.91615 0
M  V30 1997 S 192.254 3.28437 4.22953 0
M  V30 1998 C 193.41 2.85283 5.57103 0
M  V30 1999 H 193.643 1.99425 2.20493 0
M  V30 2000 H 191.176 1.12071 1.06205 0
M  V30 2001 H 193.134 0.357778 4.08938 0
M  V30 2002 H 191.795 -0.303364 3.12632 0
M  V30 2003 H 190.988 1.32619 4.86239 0
M  V30 2004 H 190.59 1.89478 3.2245 0
M  V30 2005 H 192.882 2.3121 6.36827 0
M  V30 2006 H 193.825 3.7869 5.98331 0
M  V30 2007 H 194.233 2.24118 5.18104 0
M  V30 2008 N 193.631 -1.12557 1.10312 0
M  V30 2009 C 194.861 -1.87592 0.865617 0
M  V30 2010 C 195.269 -1.79851 -0.587389 0
M  V30 2011 O 194.612 -1.16949 -1.41664 0
M  V30 2012 C 194.674 -3.37665 1.23381 0
M  V30 2013 C 194.338 -3.69181 2.69359 0
M  V30 2014 C 195.335 -3.67652 3.67597 0
M  V30 2015 C 193.02 -3.98555 3.05711 0
M  V30 2016 C 195.014 -3.95053 5.00212 0
M  V30 2017 C 192.701 -4.25616 4.38514 0
M  V30 2018 C 193.699 -4.23851 5.35574 0
M  V30 2019 O 193.387 -4.50242 6.65986 0
M  V30 2020 H 193.119 -0.600442 0.310557 0
M  V30 2021 H 195.673 -1.4335 1.47105 0
M  V30 2022 H 193.903 -3.82454 0.571467 0
M  V30 2023 H 195.592 -3.94041 0.973994 0
M  V30 2024 H 196.358 -3.45024 3.40857 0
M  V30 2025 H 192.237 -3.99071 2.30789 0
M  V30 2026 H 195.781 -3.93591 5.75962 0
M  V30 2027 H 191.678 -4.47718 4.64994 0
M  V30 2028 H 192.446 -4.67867 6.71597 0
M  V30 2029 N 195.109 -0.891671 -1.2995 0
M  V30 2030 C 196.039 -0.379797 -2.30391 0
M  V30 2031 C 197.02 0.540919 -1.6127 0
M  V30 2032 O 198.205 0.453352 -1.88834 0
M  V30 2033 C 195.335 0.400654 -3.44981 0
M  V30 2034 C 194.289 -0.428905 -4.25846 0
M  V30 2035 C 193.615 0.478557 -5.32554 0
M  V30 2036 C 194.915 -1.67458 -4.94727 0
M  V30 2037 H 196.609 -1.21914 -2.73454 0
M  V30 2038 H 194.155 -0.587675 -1.31462 0
M  V30 2039 H 196.108 0.769434 -4.14316 0
M  V30 2040 H 194.832 1.27371 -3.0074 0
M  V30 2041 H 193.491 -0.779911 -3.58208 0
M  V30 2042 H 193.139 1.34951 -4.84559 0
M  V30 2043 H 192.839 -0.0727433 -5.87555 0
M  V30 2044 H 194.363 0.843705 -6.04743 0
M  V30 2045 H 195.777 -1.376 -5.56542 0
M  V30 2046 H 194.174 -2.16659 -5.59624 0
M  V30 2047 H 195.244 -2.41518 -4.20473 0
M  V30 2048 N 196.587 1.43421 -0.653314 0
M  V30 2049 C 197.827 2.03689 -0.170346 0
M  V30 2050 C 198.191 1.50427 1.19314 0
M  V30 2051 O 199.392 2.0234 1.76952 0
M  V30 2052 C 197.663 3.56946 -0.180183 0
M  V30 2053 S 199.222 4.38171 0.234925 0
M  V30 2054 H 196.04 0.707345 -0.0719976 0
M  V30 2055 H 198.642 1.75486 -0.86167 0
M  V30 2056 H 197.346 3.93212 -1.17526 0
M  V30 2057 H 196.877 3.89791 0.531675 0
M  V30 2058 H 198.892 4.73808 1.47378 0
M  V30 2059 N 198.065 0.39524 1.52563 0
M  V30 2060 C 199.29 -0.187456 2.06551 0
M  V30 2061 C 199.715 -1.39249 1.26457 0
M  V30 2062 O 199.073 -1.78947 0.291151 0
M  V30 2063 C 199.121 -0.529985 3.56684 0
M  V30 2064 O 198.225 -1.62307 3.79118 0
M  V30 2065 H 197.566 -0.0202537 0.663691 0
M  V30 2066 H 200.096 0.564426 1.96661 0
M  V30 2067 H 200.106 -0.792598 4.00227 0
M  V30 2068 H 198.781 0.350987 4.14416 0
M  V30 2069 H 197.358 -1.3537 3.47461 0
M  V30 2070 N 199.544 -1.57102 0.125237 0
M  V30 2071 C 200.507 -2.14471 -0.80838 0
M  V30 2072 C 201.507 -1.0811 -1.19033 0
M  V30 2073 O 202.697 -1.33856 -1.11482 0
M  V30 2074 C 199.829 -2.69005 -2.09402 0
M  V30 2075 H 201.022 -2.98297 -0.309696 0
M  V30 2076 H 198.575 -1.55807 -0.124051 0
M  V30 2077 H 199.31 -1.88785 -2.63687 0
M  V30 2078 H 199.095 -3.46799 -1.82957 0
M  V30 2079 H 200.585 -3.13278 -2.76128 0
M  V30 2080 N 201.022 0.148545 -1.56898 0
M  V30 2081 C 201.932 1.20293 -2.01412 0
M  V30 2082 C 202.948 1.47107 -0.929273 0
M  V30 2083 O 204.124 1.58807 -1.23863 0
M  V30 2084 C 201.189 2.51682 -2.38447 0
M  V30 2085 C 200.25 2.32529 -3.60872 0
M  V30 2086 C 199.483 3.57653 -3.96132 0
M  V30 2087 O 199.706 4.63771 -3.32073 0
M  V30 2088 O 198.64 3.50408 -4.89385 0
M  V30 2089 H 202.466 0.855025 -2.91416 0
M  V30 2090 H 200.051 0.357151 -1.45068 0
M  V30 2091 H 201.933 3.29147 -2.63135 0
M  V30 2092 H 200.608 2.86006 -1.51599 0
M  V30 2093 H 199.515 1.53019 -3.41373 0
M  V30 2094 H 200.848 2.03121 -4.48333 0
M  V30 2095 N 202.5 1.5196 0.417844 0
M  V30 2096 C 203.73 1.69181 1.18581 0
M  V30 2097 C 204.138 0.397104 1.84986 0
M  V30 2098 O 203.481 -0.636011 1.72339 0
M  V30 2099 C 203.543 2.76497 2.29759 0
M  V30 2100 C 203.207 4.18514 1.83563 0
M  V30 2101 C 204.204 5.02648 1.32821 0
M  V30 2102 C 201.889 4.64708 1.90661 0
M  V30 2103 C 203.883 6.31044 0.897894 0
M  V30 2104 C 201.57 5.93096 1.47241 0
M  V30 2105 C 202.568 6.76093 0.968891 0
M  V30 2106 O 202.256 8.02078 0.540924 0
M  V30 2107 H 201.988 0.570457 0.362705 0
M  V30 2108 H 204.542 1.99249 0.498885 0
M  V30 2109 H 202.772 2.41786 3.01789 0
M  V30 2110 H 204.461 2.82403 2.91553 0
M  V30 2111 H 205.227 4.68154 1.26716 0
M  V30 2112 H 201.106 4.00216 2.28797 0
M  V30 2113 H 204.65 6.95776 0.504192 0
M  V30 2114 H 200.547 6.271 1.53022 0
M  V30 2115 H 201.315 8.15794 0.66502 0
M  V30 2116 N 203.978 -0.674533 1.42435 0
M  V30 2117 C 204.926 -1.80934 1.46169 0
M  V30 2118 C 205.92 -1.66006 0.3374 0
M  V30 2119 O 207.126 -1.72611 0.510425 0
M  V30 2120 H 203.501 -0.596594 0.457798 0
M  V30 2121 H 205.472 -1.74903 2.41767 0
M  V30 2122 C 204.221 -3.19088 1.38123 0
M  V30 2123 H 203.544 -3.31203 2.23931 0
M  V30 2124 H 204.984 -3.9851 1.44797 0
M  V30 2125 C 203.443 -3.36763 0.0960517 0
M  V30 2126 O 203.973 -3.92581 -0.851073 0
M  V30 2127 N 202.179 -2.90597 0.0131186 0
M  V30 2128 H 201.726 -2.45359 0.784639 0
M  V30 2129 H 201.684 -3.028 -0.846133 0
M  V30 2130 N 205.456 -1.28612 -0.910864 0
M  V30 2131 C 206.867 -1.14406 -1.47541 0
M  V30 2132 C 207.218 0.264901 -1.94403 0
M  V30 2133 O 206.343 1.15942 -1.82719 0
M  V30 2134 C 206.938 -2.07073 -2.68153 0
M  V30 2135 C 205.497 -1.96923 -3.20778 0
M  V30 2136 C 204.644 -1.98646 -1.93481 0
M  V30 2137 H 207.595 -1.41259 -0.723291 0
M  V30 2138 H 207.616 -1.63642 -3.43514 0
M  V30 2139 H 207.128 -3.09611 -2.34015 0
M  V30 2140 H 205.229 -0.97433 -3.59635 0
M  V30 2141 H 205.342 -2.84026 -3.85832 0
M  V30 2142 H 203.706 -1.43093 -2.10705 0
M  V30 2143 H 204.489 -3.02868 -1.61634 0
M  V30 2144 N 206.934 1.1197 -1.10907 0
M  V30 2145 C 207.866 2.17592 -0.720175 0
M  V30 2146 C 208.879 1.60938 0.245495 0
M  V30 2147 O 210.068 1.78476 0.0292245 0
M  V30 2148 C 207.168 3.38873 -0.0427917 0
M  V30 2149 C 206.341 4.25006 -1.03388 0
M  V30 2150 C 205.4 5.24774 -0.387075 0
M  V30 2151 O 204.426 5.59631 -1.03934 0
M  V30 2152 N 205.628 5.74208 0.852407 0
M  V30 2153 H 208.393 2.51567 -1.62893 0
M  V30 2154 H 205.954 1.27439 -0.998543 0
M  V30 2155 H 207.946 4.02703 0.401501 0
M  V30 2156 H 206.516 3.03007 0.768456 0
M  V30 2157 H 205.736 3.57716 -1.65629 0
M  V30 2158 H 207.024 4.79397 -1.70458 0
M  V30 2159 H 206.422 5.48062 1.40161 0
M  V30 2160 H 204.979 6.39901 1.23977 0
M  V30 2161 N 208.412 0.89855 1.29475 0
M  V30 2162 C 209.828 0.594483 1.48115 0
M  V30 2163 C 210.028 -0.86431 1.82022 0
M  V30 2164 O 209.084 -1.64457 1.91599 0
M  V30 2165 C 210.397 1.51932 2.59494 0
M  V30 2166 C 211.945 1.5244 2.7337 0
M  V30 2167 C 212.42 2.43548 3.87877 0
M  V30 2168 N 213.911 2.41589 3.95208 0
M  V30 2169 C 214.646 3.08789 4.83153 0
M  V30 2170 N 214.142 3.85265 5.75798 0
M  V30 2171 N 215.935 2.97952 4.76635 0
M  V30 2172 H 208.086 1.84207 1.05742 0
M  V30 2173 H 210.349 0.789251 0.525154 0
M  V30 2174 H 210.055 2.55865 2.41301 0
M  V30 2175 H 209.929 1.23899 3.56271 0
M  V30 2176 H 212.316 0.492518 2.90961 0
M  V30 2177 H 212.397 1.8451 1.77172 0
M  V30 2178 H 212.041 3.46829 3.71041 0
M  V30 2179 H 211.971 2.08788 4.83441 0
M  V30 2180 H 214.462 1.86025 3.28943 0
M  V30 2181 H 214.775 4.33598 6.39697 0
M  V30 2182 H 213.12 3.89371 5.75687 0
M  V30 2183 H 216.311 2.37723 4.03244 0
M  V30 2184 H 216.484 3.50599 5.44962 0
M  V30 2185 N 209.89 -1.43072 0.660911 0
M  V30 2186 C 210.8 -2.34585 -0.0264163 0
M  V30 2187 C 211.816 -1.54316 -0.803898 0
M  V30 2188 O 212.992 -1.86939 -0.749391 0
M  V30 2189 C 210.057 -3.32689 -0.975639 0
M  V30 2190 C 209.118 -4.2886 -0.194236 0
M  V30 2191 C 208.351 -5.22278 -1.09825 0
M  V30 2192 O 208.574 -5.20299 -2.33763 0
M  V30 2193 O 207.508 -5.99228 -0.566513 0
M  V30 2194 H 211.334 -2.94869 0.727034 0
M  V30 2195 H 208.919 -1.43342 0.42111 0
M  V30 2196 H 210.801 -3.92995 -1.52094 0
M  V30 2197 H 209.476 -2.74898 -1.70918 0
M  V30 2198 H 208.383 -3.72011 0.394835 0
M  V30 2199 H 209.716 -4.89655 0.499899 0
M  V30 2200 N 211.368 -0.403325 -1.52352 0
M  V30 2201 C 212.318 0.442244 -2.2367 0
M  V30 2202 C 213.302 1.01823 -1.24583 0
M  V30 2203 O 214.494 0.942005 -1.49851 0
M  V30 2204 C 211.623 1.5615 -3.05732 0
M  V30 2205 C 210.709 0.996575 -4.12225 0
M  V30 2206 N 211.1 0.157804 -5.05554 0
M  V30 2207 C 209.398 1.26767 -4.27605 0
M  V30 2208 C 210.099 -0.155853 -5.81491 0
M  V30 2209 N 209.075 0.451775 -5.41719 0
M  V30 2210 H 212.877 -0.204964 -2.93184 0
M  V30 2211 H 210.391 -0.213418 -1.60992 0
M  V30 2212 H 212.388 2.17981 -3.55373 0
M  V30 2213 H 211.048 2.21139 -2.37755 0
M  V30 2214 H 212.059 -0.206049 -5.1749 0
M  V30 2215 H 208.736 1.91757 -3.70858 0
M  V30 2216 H 210.126 -0.836329 -6.66675 0
M  V30 2217 N 212.846 1.57033 -0.133567 0
M  V30 2218 C 214.074 2.00044 0.528195 0
M  V30 2219 C 214.489 1.01349 1.59291 0
M  V30 2220 O 213.846 0.00848369 1.82498 0
M  V30 2221 C 213.897 3.43018 1.1411 0
M  V30 2222 O 213.618 4.37939 0.11892 0
M  V30 2223 C 215.119 4.01237 1.88477 0
M  V30 2224 H 212.339 0.656517 0.138661 0
M  V30 2225 H 214.883 2.03267 -0.224196 0
M  V30 2226 H 213.038 3.40688 1.84418 0
M  V30 2227 H 213.452 5.21436 0.56613 0
M  V30 2228 H 214.926 5.03314 2.26669 0
M  V30 2229 H 215.403 3.41193 2.76558 0
M  V30 2230 H 216.009 4.07156 1.22898 0
M  V30 2231 N 214.325 -0.140222 1.56975 0
M  V30 2232 C 215.574 -0.850152 1.82908 0
M  V30 2233 C 215.887 -1.82028 0.715892 0
M  V30 2234 O 217.093 -2.57485 0.861016 0
M  V30 2235 C 215.549 -1.5625 3.24213 0
M  V30 2236 C 215.157 -0.63443 4.43485 0
M  V30 2237 C 216.901 -2.25881 3.59413 0
M  V30 2238 C 214.808 -1.34879 5.75814 0
M  V30 2239 H 213.738 -0.321221 0.682153 0
M  V30 2240 H 216.389 -0.102874 1.83211 0
M  V30 2241 H 214.771 -2.35565 3.18316 0
M  V30 2242 H 215.945 0.12398 4.60633 0
M  V30 2243 H 214.26 -0.0461836 4.16374 0
M  V30 2244 H 216.857 -2.79978 4.5554 0
M  V30 2245 H 217.2 -3.02693 2.85802 0
M  V30 2246 H 217.733 -1.53477 3.67001 0
M  V30 2247 H 214.472 -0.622385 6.52539 0
M  V30 2248 H 213.992 -2.07974 5.6259 0
M  V30 2249 H 215.671 -1.88784 6.18845 0
M  V30 2250 N 215.803 -1.52179 -0.40978 0
M  V30 2251 C 217.043 -1.67882 -1.16597 0
M  V30 2252 C 217.407 -0.399795 -1.87791 0
M  V30 2253 O 218.608 -0.43292 -2.65291 0
M  V30 2254 C 216.879 -2.86662 -2.13448 0
M  V30 2255 S 218.438 -3.22843 -2.97183 0
M  V30 2256 H 215.256 -0.59118 -0.395002 0
M  V30 2257 H 217.858 -1.9017 -0.453373 0
M  V30 2258 H 216.562 -3.77998 -1.59831 0
M  V30 2259 H 216.093 -2.66645 -2.89247 0
M  V30 2260 H 218.108 -2.71415 -4.15389 0
M  V30 2261 N 217.281 0.66697 -1.42791 0
M  V30 2262 C 218.244 1.76211 -1.46568 0
M  V30 2263 C 219.244 1.56896 -0.352196 0
M  V30 2264 O 220.434 1.63044 -0.613364 0
M  V30 2265 C 217.566 3.14935 -1.30494 0
M  V30 2266 H 218.759 1.74247 -2.44086 0
M  V30 2267 H 216.312 0.877342 -1.29354 0
M  V30 2268 H 217.047 3.2252 -0.339301 0
M  V30 2269 H 216.832 3.30359 -2.11199 0
M  V30 2270 H 218.322 3.94821 -1.36038 0
M  V30 2271 N 218.759 1.29093 0.90403 0
M  V30 2272 C 219.987 1.19689 1.68766 0
M  V30 2273 C 220.402 -0.243113 1.87228 0
M  V30 2274 O 219.759 -1.16326 1.40621 0
M  V30 2275 C 219.81 1.90144 3.07453 0
M  V30 2276 O 219.531 3.2852 2.89838 0
M  V30 2277 C 221.032 1.87162 4.01852 0
M  V30 2278 H 218.252 0.415035 0.527244 0
M  V30 2279 H 220.796 1.7039 1.13082 0
M  V30 2280 H 218.951 1.43289 3.59926 0
M  V30 2281 H 219.365 3.63944 3.77684 0
M  V30 2282 H 220.839 2.41032 4.96596 0
M  V30 2283 H 221.316 0.84617 4.30972 0
M  V30 2284 H 221.922 2.33741 3.5531 0
M  V30 2285 N 220.237 -1.11381 1.11499 0
M  V30 2286 C 221.514 -1.7955 0.775965 0
M  V30 2287 C 221.894 -1.97859 -0.73588 0
M  V30 2288 O 221.242 -1.56376 -1.66609 0
M  V30 2289 C 221.452 -3.13196 1.53977 0
M  V30 2290 C 222.8 -3.88227 1.71944 0
M  V30 2291 O 223.824 -3.22887 1.50407 0
M  V30 2292 O 222.683 -5.05477 2.07738 0
M  V30 2293 H 219.777 -0.777728 0.28119 0
M  V30 2294 H 222.323 -1.18118 1.21845 0
M  V30 2295 H 221.095 -2.95229 2.56818 0
M  V30 2296 H 220.718 -3.82342 1.09088 0
M  V30 2297 N 221.715 -0.905404 -1.28997 0
M  V30 2298 C 223.126 -0.581953 -1.77398 0
M  V30 2299 C 223.477 0.902552 -1.74208 0
M  V30 2300 O 222.602 1.70584 -1.33154 0
M  V30 2301 C 223.197 -1.04961 -3.22131 0
M  V30 2302 C 221.756 -0.777229 -3.68288 0
M  V30 2303 C 220.903 -1.22109 -2.48967 0
M  V30 2304 H 223.854 -1.08754 -1.15578 0
M  V30 2305 H 223.875 -0.387387 -3.78523 0
M  V30 2306 H 223.387 -2.13008 -3.24421 0
M  V30 2307 H 221.488 0.290383 -3.71467 0
M  V30 2308 H 221.601 -1.37911 -4.58822 0
M  V30 2309 H 219.965 -0.639971 -2.46529 0
M  V30 2310 H 220.748 -2.30972 -2.53982 0
M  V30 2311 N 223.193 1.4272 -0.668489 0
M  V30 2312 C 224.421 2.05966 -0.196348 0
M  V30 2313 C 224.836 1.50191 1.14403 0
M  V30 2314 O 224.193 0.639208 1.7094 0
M  V30 2315 C 224.244 3.61314 -0.115815 0
M  V30 2316 O 223.965 4.1502 -1.40322 0
M  V30 2317 C 225.466 4.41663 0.380579 0
M  V30 2318 H 222.686 0.663954 -0.0969829 0
M  V30 2319 H 225.23 1.82966 -0.913446 0
M  V30 2320 H 223.385 3.83448 0.551931 0
M  V30 2321 H 223.799 5.08832 -1.27243 0
M  V30 2322 H 225.273 5.5065 0.385848 0
M  V30 2323 H 225.75 4.15792 1.41471 0
M  V30 2324 H 226.356 4.24534 -0.255209 0
M  V30 2325 N 224.671 0.411399 1.52136 0
M  V30 2326 C 225.601 -0.404015 2.29978 0
M  V30 2327 C 226.582 -1.04412 1.34284 0
M  V30 2328 O 227.767 -1.0527 1.63192 0
M  V30 2329 C 224.897 -1.5197 3.12286 0
M  V30 2330 C 223.851 -1.00448 4.16046 0
M  V30 2331 C 223.177 -2.21393 4.86712 0
M  V30 2332 C 224.477 -0.0569336 5.22269 0
M  V30 2333 H 226.171 0.245529 2.98392 0
M  V30 2334 H 223.717 0.119525 1.43503 0
M  V30 2335 H 225.67 -2.09715 3.6551 0
M  V30 2336 H 224.394 -2.19716 2.41646 0
M  V30 2337 H 223.053 -0.449421 3.63835 0
M  V30 2338 H 222.701 -2.87699 4.12599 0
M  V30 2339 H 222.401 -1.87571 5.56858 0
M  V30 2340 H 223.925 -2.7974 5.4275 0
M  V30 2341 H 225.339 -0.54325 5.7072 0
M  V30 2342 H 223.736 0.192594 5.99791 0
M  V30 2343 H 224.806 0.887663 4.76706 0
M  V30 2344 N 226.149 -1.5696 0.141893 0
M  V30 2345 C 227.112 -2.15316 -0.785587 0
M  V30 2346 C 228.112 -1.09366 -1.1788 0
M  V30 2347 O 229.302 -1.35031 -1.10056 0
M  V30 2348 C 226.434 -2.71211 -2.06537 0
M  V30 2349 H 227.627 -2.98608 -0.278041 0
M  V30 2350 H 225.18 -1.5593 -0.107519 0
M  V30 2351 H 225.915 -1.91571 -2.6167 0
M  V30 2352 H 225.7 -3.4872 -1.79268 0
M  V30 2353 H 227.19 -3.16189 -2.72789 0
M  V30 2354 N 227.627 0.131896 -1.57047 0
M  V30 2355 C 228.873 0.843179 -1.84441 0
M  V30 2356 C 229.206 1.80129 -0.725749 0
M  V30 2357 O 228.481 1.92624 0.269469 0
M  V30 2358 C 228.764 1.60442 -3.22382 0
M  V30 2359 C 228.617 0.666782 -4.4483 0
M  V30 2360 C 229.936 2.56354 -3.5773 0
M  V30 2361 H 227.055 0.305081 -0.670891 0
M  V30 2362 H 229.697 0.107839 -1.89694 0
M  V30 2363 H 227.847 2.23128 -3.18035 0
M  V30 2364 H 229.519 0.0497646 -4.61273 0
M  V30 2365 H 227.762 -0.022609 -4.33794 0
M  V30 2366 H 228.433 1.23579 -5.37989 0
M  V30 2367 H 230.909 2.0378 -3.62785 0
M  V30 2368 H 229.785 3.06657 -4.5525 0
M  V30 2369 H 230.046 3.38419 -2.84473 0
M  V30 2370 N 229.106 1.52395 0.401703 0
M  V30 2371 C 230.383 1.57387 1.16141 0
M  V30 2372 C 230.763 0.359359 2.08019 0
M  V30 2373 O 230.111 -0.65326 2.18963 0
M  V30 2374 C 230.321 2.90631 1.93221 0
M  V30 2375 C 231.669 3.43904 2.49028 0
M  V30 2376 O 232.693 2.92421 2.03393 0
M  V30 2377 O 231.552 4.33823 3.32356 0
M  V30 2378 H 228.646 0.634262 0.530698 0
M  V30 2379 H 231.192 1.64725 0.407883 0
M  V30 2380 H 229.964 3.70473 1.25958 0
M  V30 2381 H 229.587 2.8662 2.75563 0
M  V30 2382 N 230.584 -0.659388 1.43143 0
M  V30 2383 C 231.83 -1.41984 1.45644 0
M  V30 2384 C 232.185 -1.92245 0.0771718 0
M  V30 2385 O 231.478 -1.68976 -0.903205 0
M  V30 2386 C 231.672 -2.62206 2.42864 0
M  V30 2387 C 231.501 -2.23711 3.90107 0
M  V30 2388 C 230.271 -2.12332 4.58523 0
M  V30 2389 C 232.469 -1.84384 4.80112 0
M  V30 2390 N 230.451 -1.67102 5.9072 0
M  V30 2391 C 231.822 -1.5019 6.01534 0
M  V30 2392 C 233.877 -1.71512 4.67427 0
M  V30 2393 C 232.58 -1.04414 7.11681 0
M  V30 2394 C 234.606 -1.27142 5.77572 0
M  V30 2395 C 233.968 -0.938808 6.98116 0
M  V30 2396 H 230.067 -0.515448 0.588079 0
M  V30 2397 H 232.651 -0.759409 1.79279 0
M  V30 2398 H 230.822 -3.25917 2.11265 0
M  V30 2399 H 232.554 -3.28877 2.35843 0
M  V30 2400 H 229.309 -2.31893 4.12944 0
M  V30 2401 H 229.733 -1.46866 6.60878 0
M  V30 2402 H 234.375 -1.95868 3.74694 0
M  V30 2403 H 232.093 -0.788061 8.04248 0
M  V30 2404 H 235.679 -1.17681 5.69774 0
M  V30 2405 H 234.559 -0.6007 7.81896 0
M  V30 2406 N 232.062 -1.29571 -0.897171 0
M  V30 2407 C 233.473 -1.15964 -1.46319 0
M  V30 2408 C 233.824 0.244267 -1.94674 0
M  V30 2409 O 232.949 1.13998 -1.83939 0
M  V30 2410 C 233.544 -2.09906 -2.65942 0
M  V30 2411 C 232.103 -2.00314 -3.18671 0
M  V30 2412 C 231.25 -2.00687 -1.91363 0
M  V30 2413 H 234.201 -1.42019 -0.708268 0
M  V30 2414 H 234.222 -1.67276 -3.41759 0
M  V30 2415 H 233.734 -3.12075 -2.30718 0
M  V30 2416 H 231.835 -1.01242 -3.58582 0
M  V30 2417 H 231.948 -2.88102 -3.82798 0
M  V30 2418 H 230.312 -1.45319 -2.09175 0
M  V30 2419 H 231.095 -3.04566 -1.58413 0
M  V30 2420 N 233.54 1.10788 -1.12088 0
M  V30 2421 C 234.47 2.19083 -0.807755 0
M  V30 2422 C 235.451 1.6858 0.226859 0
M  V30 2423 O 236.636 1.93997 0.0888475 0
M  V30 2424 C 233.766 3.46344 -0.257576 0
M  V30 2425 C 232.72 4.101 -1.22483 0
M  V30 2426 C 232.046 5.32016 -0.535052 0
M  V30 2427 C 233.346 4.54236 -2.57811 0
M  V30 2428 H 235.04 2.45534 -1.71328 0
M  V30 2429 H 232.586 1.1801 -0.825205 0
M  V30 2430 H 234.539 4.21392 -0.0262679 0
M  V30 2431 H 233.263 3.19373 0.683278 0
M  V30 2432 H 231.922 3.37054 -1.44189 0
M  V30 2433 H 231.57 5.01319 0.410827 0
M  V30 2434 H 231.27 5.75625 -1.18024 0
M  V30 2435 H 232.794 6.09799 -0.312695 0
M  V30 2436 H 234.208 5.20575 -2.40155 0
M  V30 2437 H 232.605 5.08682 -3.18375 0
M  V30 2438 H 233.675 3.6734 -3.16528 0
M  V30 2439 N 235.018 0.912232 1.28515 0
M  V30 2440 C 236.264 0.545405 1.95328 0
M  V30 2441 C 236.597 -0.908313 1.71649 0
M  V30 2442 O 235.872 -1.64575 1.03659 0
M  V30 2443 C 236.155 0.853483 3.4984 0
M  V30 2444 C 236.008 2.35982 3.82926 0
M  V30 2445 C 237.327 0.348589 4.38717 0
M  V30 2446 H 234.446 0.199626 0.709449 0
M  V30 2447 H 237.088 1.1412 1.5191 0
M  V30 2448 H 235.238 0.34643 3.86952 0
M  V30 2449 H 236.91 2.93738 3.55691 0
M  V30 2450 H 235.153 2.81543 3.30024 0
M  V30 2451 H 235.824 2.52593 4.90816 0
M  V30 2452 H 238.3 0.78294 4.08668 0
M  V30 2453 H 237.176 0.593242 5.45685 0
M  V30 2454 H 237.437 -0.751049 4.35674 0
M  V30 2455 N 236.496 -1.42363 0.676048 0
M  V30 2456 C 237.773 -1.95183 0.127726 0
M  V30 2457 C 238.153 -1.61641 -1.35777 0
M  V30 2458 O 237.501 -0.913216 -2.09458 0
M  V30 2459 C 237.711 -3.46721 0.398199 0
M  V30 2460 C 239.059 -4.23427 0.315383 0
M  V30 2461 O 240.083 -3.54649 0.332016 0
M  V30 2462 O 238.942 -5.45888 0.25865 0
M  V30 2463 H 236.036 -0.826992 0.00359427 0
M  V30 2464 H 238.582 -1.52184 0.750864 0
M  V30 2465 H 237.354 -3.64344 1.4272 0
M  V30 2466 H 236.977 -3.96769 -0.256885 0
M  V30 2467 N 237.974 -0.419461 -1.51915 0
M  V30 2468 C 239.222 0.152637 -2.01523 0
M  V30 2469 C 239.543 1.44762 -1.30649 0
M  V30 2470 O 238.813 1.90997 -0.435535 0
M  V30 2471 H 237.393 0.0593966 -0.744635 0
M  V30 2472 H 240.055 -0.558073 -1.86739 0
M  V30 2473 H 239.151 0.341369 -3.10227 0
M  V30 2474 N 239.452 1.56882 -0.150215 0
M  V30 2475 C 240.415 2.1573 0.774157 0
M  V30 2476 C 241.415 1.0999 1.17298 0
M  V30 2477 O 242.605 1.35613 1.09338 0
M  V30 2478 C 239.737 2.72302 2.05096 0
M  V30 2479 H 240.93 2.98752 0.262201 0
M  V30 2480 H 238.483 1.55985 0.099248 0
M  V30 2481 H 239.218 1.92956 2.6065 0
M  V30 2482 H 239.003 3.49665 1.77416 0
M  V30 2483 H 240.493 3.17632 2.71109 0
M  V30 2484 N 240.93 -0.123565 1.57115 0
M  V30 2485 C 241.893 -1.13583 1.99076 0
M  V30 2486 C 242.893 -1.34564 0.880296 0
M  V30 2487 O 244.083 -1.31158 1.14644 0
M  V30 2488 C 241.215 -2.49128 2.32698 0
M  V30 2489 H 242.408 -0.775287 2.89706 0
M  V30 2490 H 239.961 -0.36771 1.51913 0
M  V30 2491 H 240.696 -2.90111 1.44934 0
M  V30 2492 H 240.481 -2.35255 3.13684 0
M  V30 2493 H 241.971 -3.2199 2.65918 0
M  V30 2494 N 242.408 -1.52605 -0.393616 0
M  V30 2495 C 243.819 -1.59417 -0.971761 0
M  V30 2496 C 244.17 -0.444173 -1.91106 0
M  V30 2497 O 243.295 0.433382 -2.12016 0
M  V30 2498 C 243.89 -2.88936 -1.76921 0
M  V30 2499 C 242.449 -2.98175 -2.29714 0
M  V30 2500 C 241.596 -2.54491 -1.10135 0
M  V30 2501 H 244.547 -1.57751 -0.173317 0
M  V30 2502 H 244.568 -2.75163 -2.62804 0
M  V30 2503 H 244.08 -3.72616 -1.08532 0
M  V30 2504 H 242.181 -2.19024 -3.01429 0
M  V30 2505 H 242.294 -4.02726 -2.59517 0
M  V30 2506 H 240.658 -2.08702 -1.45999 0
M  V30 2507 H 241.441 -3.4056 -0.432874 0
M  V30 2508 N 243.887 0.651787 -1.4349 0
M  V30 2509 C 245.112 1.44434 -1.48841 0
M  V30 2510 C 245.537 1.8779 -0.107955 0
M  V30 2511 O 244.895 1.57464 0.898602 0
M  V30 2512 C 244.943 2.65458 -2.44059 0
M  V30 2513 O 244.047 3.64566 -1.92784 0
M  V30 2514 H 243.388 0.433005 -0.503391 0
M  V30 2515 H 245.918 0.797451 -1.88419 0
M  V30 2516 H 245.928 3.13255 -2.6141 0
M  V30 2517 H 244.603 2.33244 -3.4434 0
M  V30 2518 H 243.18 3.23716 -1.851 0
M  V30 2519 N 245.365 1.30045 0.890287 0
M  V30 2520 C 246.295 1.18541 2.01172 0
M  V30 2521 C 247.276 0.0773356 1.69924 0
M  V30 2522 O 248.461 0.25845 1.92473 0
M  V30 2523 C 245.591 0.870941 3.36202 0
M  V30 2524 C 244.545 1.93637 3.81692 0
M  V30 2525 C 243.871 1.475 5.13953 0
M  V30 2526 C 245.171 3.34666 4.00994 0
M  V30 2527 H 246.865 2.12359 2.11054 0
M  V30 2528 H 244.411 1.02238 1.01407 0
M  V30 2529 H 246.364 0.777141 4.14172 0
M  V30 2530 H 245.088 -0.102926 3.26438 0
M  V30 2531 H 243.747 2.01972 3.05946 0
M  V30 2532 H 243.395 0.489551 5.00612 0
M  V30 2533 H 243.095 2.1876 5.4536 0
M  V30 2534 H 244.619 1.39489 5.94454 0
M  V30 2535 H 246.033 3.2912 4.69417 0
M  V30 2536 H 244.43 4.03966 4.43769 0
M  V30 2537 H 245.5 3.76949 3.05021 0
M  V30 2538 N 246.843 -1.10192 1.12674 0
M  V30 2539 C 248.068 -1.86523 0.906853 0
M  V30 2540 C 248.493 -1.80221 -0.538711 0
M  V30 2541 O 247.851 -1.17396 -1.38158 0
M  V30 2542 C 247.899 -3.32758 1.3894 0
M  V30 2543 O 247.003 -4.08449 0.5695 0
M  V30 2544 H 246.344 -0.578678 0.325619 0
M  V30 2545 H 248.874 -1.39203 1.49946 0
M  V30 2546 H 248.884 -3.83608 1.38958 0
M  V30 2547 H 247.559 -3.36661 2.44197 0
M  V30 2548 H 246.136 -3.67427 0.636528 0
M  V30 2549 N 248.321 -0.919034 -1.28029 0
M  V30 2550 C 249.598 -0.473668 -1.89778 0
M  V30 2551 C 249.978 1.04783 -1.83259 0
M  V30 2552 O 249.326 1.8982 -1.27202 0
M  V30 2553 C 249.536 -1.00998 -3.34066 0
M  V30 2554 C 250.884 -1.06525 -4.1102 0
M  V30 2555 O 251.908 -0.958996 -3.43048 0
M  V30 2556 O 250.767 -1.22776 -5.3253 0
M  V30 2557 H 247.861 -0.15098 -0.813101 0
M  V30 2558 H 250.407 -1.01016 -1.36359 0
M  V30 2559 H 249.179 -2.05392 -3.33061 0
M  V30 2560 H 248.802 -0.454626 -3.94992 0
M  V30 2561 N 249.799 1.42003 -0.683588 0
M  V30 2562 C 251.215 1.55625 -0.353976 0
M  V30 2563 C 251.415 1.66151 1.14 0
M  V30 2564 O 250.471 1.63329 1.92561 0
M  V30 2565 C 251.784 2.80171 -1.092 0
M  V30 2566 C 253.332 2.93954 -1.07518 0
M  V30 2567 C 253.807 4.21372 -1.79471 0
M  V30 2568 N 255.298 4.28303 -1.76381 0
M  V30 2569 C 256.033 5.25729 -2.28904 0
M  V30 2570 N 255.529 6.29254 -2.89846 0
M  V30 2571 N 257.322 5.17586 -2.19228 0
M  V30 2572 H 249.473 1.33415 -1.6527 0
M  V30 2573 H 251.736 0.64282 -0.696769 0
M  V30 2574 H 251.442 2.78561 -2.14701 0
M  V30 2575 H 251.316 3.7133 -0.662862 0
M  V30 2576 H 253.703 2.95086 -0.028475 0
M  V30 2577 H 253.784 2.04002 -1.54328 0
M  V30 2578 H 253.428 4.21001 -2.84114 0
M  V30 2579 H 253.358 5.10275 -1.30104 0
M  V30 2580 H 255.849 3.54119 -1.31939 0
M  V30 2581 H 256.162 6.99964 -3.27522 0
M  V30 2582 H 254.507 6.29791 -2.93919 0
M  V30 2583 H 257.698 4.35631 -1.71299 0
M  V30 2584 H 257.871 5.93348 -2.60466 0
M  V30 2585 N 251.277 0.427512 1.51691 0
M  V30 2586 C 252.554 -0.201684 1.94557 0
M  V30 2587 C 252.934 -1.60981 1.36559 0
M  V30 2588 O 252.282 -2.21814 0.548702 0
M  V30 2589 C 252.492 -0.189394 3.48486 0
M  V30 2590 C 253.84 -0.39978 4.22714 0
M  V30 2591 O 254.864 -0.267945 3.55191 0
M  V30 2592 O 253.723 -0.661249 5.42485 0
M  V30 2593 H 250.817 -0.135261 0.815864 0
M  V30 2594 H 253.363 0.484782 1.62628 0
M  V30 2595 H 252.135 0.795431 3.8313 0
M  V30 2596 H 251.758 -0.919187 3.86829 0
M  V30 2597 N 252.755 -1.56801 0.158532 0
M  V30 2598 C 253.718 -2.16138 -0.762705 0
M  V30 2599 C 254.718 -1.1061 -1.16713 0
M  V30 2600 O 255.908 -1.36191 -1.08617 0
M  V30 2601 C 253.04 -2.73386 -2.03649 0
M  V30 2602 H 254.233 -2.98886 -0.246354 0
M  V30 2603 H 251.786 -1.56035 -0.0909744 0
M  V30 2604 H 252.521 -1.94335 -2.59623 0
M  V30 2605 H 252.306 -3.50601 -1.75559 0
M  V30 2606 H 253.796 -3.19065 -2.6942 0
M  V30 2607 N 254.233 0.115231 -1.57178 0
M  V30 2608 C 255.196 1.12526 -1.99676 0
M  V30 2609 C 256.196 1.34095 -0.88742 0
M  V30 2610 O 257.386 1.30548 -1.15337 0
M  V30 2611 C 254.518 2.4789 -2.34015 0
M  V30 2612 H 255.711 0.759912 -2.90113 0
M  V30 2613 H 253.264 0.359648 -1.52106 0
M  V30 2614 H 253.999 2.89339 -1.4647 0
M  V30 2615 H 253.784 2.33588 -3.14927 0
M  V30 2616 H 255.274 3.20575 -2.67622 0
M  V30 2617 N 255.711 1.52812 0.385517 0
M  V30 2618 C 256.674 1.77188 1.45386 0
M  V30 2619 C 257.674 0.641953 1.4743 0
M  V30 2620 O 258.864 0.910033 1.4854 0
M  V30 2621 C 255.996 1.87582 2.8465 0
M  V30 2622 H 257.189 2.72583 1.25054 0
M  V30 2623 H 254.742 1.43586 0.617467 0
M  V30 2624 H 255.477 0.941849 3.10322 0
M  V30 2625 H 255.262 2.69748 2.84567 0
M  V30 2626 H 256.752 2.08102 3.62054 0
M  V30 2627 N 257.189 -0.644168 1.43834 0
M  V30 2628 C 258.6 -1.22554 1.40845 0
M  V30 2629 C 258.951 -1.9585 0.117115 0
M  V30 2630 O 258.076 -2.01734 -0.783086 0
M  V30 2631 C 258.671 -2.22907 2.55143 0
M  V30 2632 C 257.23 -2.76501 2.5539 0
M  V30 2633 C 256.377 -1.51287 2.32396 0
M  V30 2634 H 259.328 -0.43563 1.52604 0
M  V30 2635 H 259.349 -3.05259 2.2715 0
M  V30 2636 H 258.861 -1.69533 3.49114 0
M  V30 2637 H 256.962 -3.33914 1.65324 0
M  V30 2638 H 257.075 -3.23429 3.53455 0
M  V30 2639 H 255.439 -1.78957 1.81236 0
M  V30 2640 H 256.222 -0.998336 3.28463 0
M  V30 2641 N 258.668 -1.30515 -0.883378 0
M  V30 2642 C 259.893 -1.22487 -1.67367 0
M  V30 2643 C 260.318 0.208767 -1.86938 0
M  V30 2644 O 259.676 1.15015 -1.40148 0
M  V30 2645 C 259.724 -1.96041 -3.02655 0
M  V30 2646 O 258.828 -1.28859 -3.91751 0
M  V30 2647 H 258.169 -0.423573 -0.511353 0
M  V30 2648 H 260.699 -1.72362 -1.10239 0
M  V30 2649 H 260.709 -2.05124 -3.52687 0
M  V30 2650 H 259.384 -3.00307 -2.8773 0
M  V30 2651 H 257.961 -1.28141 -3.50192 0
M  V30 2652 N 260.146 1.09593 -1.13257 0
M  V30 2653 C 261.393 1.81734 -0.893257 0
M  V30 2654 C 261.721 1.8563 0.580656 0
M  V30 2655 O 260.976 1.31906 1.44566 0
M  V30 2656 C 261.275 3.27802 -1.42411 0
M  V30 2657 C 260.941 3.44041 -2.91456 0
M  V30 2658 C 259.603 3.48181 -3.3215 0
M  V30 2659 C 261.955 3.48719 -3.87356 0
M  V30 2660 C 259.283 3.54575 -4.67433 0
M  V30 2661 C 261.635 3.56648 -5.2248 0
M  V30 2662 C 260.299 3.59055 -5.62704 0
M  V30 2663 H 259.569 0.665011 -0.326866 0
M  V30 2664 H 262.216 1.2912 -1.41422 0
M  V30 2665 H 260.521 3.83042 -0.823795 0
M  V30 2666 H 262.218 3.82149 -1.21503 0
M  V30 2667 H 258.808 3.41502 -2.58987 0
M  V30 2668 H 262.992 3.44763 -3.57004 0
M  V30 2669 H 258.248 3.54725 -4.97976 0
M  V30 2670 H 262.422 3.59212 -5.96607 0
M  V30 2671 H 260.049 3.63763 -6.67518 0
M  V30 2672 N 261.624 0.925811 1.2754 0
M  V30 2673 C 262.534 0.428993 2.30644 0
M  V30 2674 C 263.55 -0.489387 1.66976 0
M  V30 2675 O 264.726 -0.372653 1.97922 0
M  V30 2676 C 261.791 -0.311967 3.45294 0
M  V30 2677 C 260.852 0.641098 4.24486 0
M  V30 2678 C 260.085 -0.0645955 5.33661 0
M  V30 2679 O 260.308 -1.28429 5.55754 0
M  V30 2680 O 259.242 0.606265 5.98839 0
M  V30 2681 H 263.068 1.28504 2.75173 0
M  V30 2682 H 260.653 0.691086 1.32455 0
M  V30 2683 H 262.535 -0.729972 4.15029 0
M  V30 2684 H 261.21 -1.14365 3.02824 0
M  V30 2685 H 260.117 1.10874 3.57292 0
M  V30 2686 H 261.45 1.43995 4.70666 0
M  V30 2687 N 263.102 -1.41638 0.69111 0
M  V30 2688 C 264.379 -1.95036 0.148421 0
M  V30 2689 C 264.759 -1.63072 -1.34055 0
M  V30 2690 O 264.107 -0.93538 -2.08478 0
M  V30 2691 C 264.317 -3.46279 0.434951 0
M  V30 2692 C 265.665 -4.23069 0.360275 0
M  V30 2693 O 266.689 -3.54277 0.369613 0
M  V30 2694 O 265.548 -5.45583 0.316534 0
M  V30 2695 H 262.642 -0.826908 0.0123654 0
M  V30 2696 H 265.188 -1.5138 0.766963 0
M  V30 2697 H 263.96 -3.6281 1.46576 0
M  V30 2698 H 263.583 -3.97019 -0.214787 0
M  V30 2699 N 264.58 -0.43555 -1.51462 0
M  V30 2700 C 265.826 0.131709 -2.02372 0
M  V30 2701 C 266.159 1.42516 -1.3192 0
M  V30 2702 O 265.434 1.89606 -0.433573 0
M  V30 2703 C 265.717 0.352301 -3.58373 0
M  V30 2704 C 265.57 -0.959676 -4.39443 0
M  V30 2705 C 266.889 1.12286 -4.25535 0
M  V30 2706 H 264.008 0.0463936 -0.735538 0
M  V30 2707 H 266.65 -0.574197 -1.81116 0
M  V30 2708 H 264.8 0.9536 -3.76615 0
M  V30 2709 H 266.472 -1.59482 -4.32855 0
M  V30 2710 H 264.715 -1.56468 -4.04599 0
M  V30 2711 H 265.386 -0.759394 -5.46752 0
M  V30 2712 H 267.862 0.613545 -4.11552 0
M  V30 2713 H 266.738 1.24598 -5.34571 0
M  V30 2714 H 266.999 2.15048 -3.86273 0
M  V30 2715 N 266.058 1.56714 -0.166846 0
M  V30 2716 C 267.474 1.58473 0.189372 0
M  V30 2717 C 267.674 1.18201 1.63189 0
M  V30 2718 O 266.73 0.891528 2.36237 0
M  V30 2719 C 268.043 3.00573 -0.0873872 0
M  V30 2720 C 269.591 3.1299 -0.0252443 0
M  V30 2721 C 270.066 4.57174 -0.274934 0
M  V30 2722 N 271.557 4.62665 -0.222553 0
M  V30 2723 C 272.292 5.72072 -0.389985 0
M  V30 2724 N 271.788 6.90054 -0.616229 0
M  V30 2725 N 273.581 5.61153 -0.326202 0
M  V30 2726 H 265.732 1.8118 -1.10849 0
M  V30 2727 H 267.995 0.839525 -0.440342 0
M  V30 2728 H 267.701 3.34497 -1.0865 0
M  V30 2729 H 267.575 3.72019 0.623037 0
M  V30 2730 H 269.962 2.78895 0.96444 0
M  V30 2731 H 270.043 2.43989 -0.768309 0
M  V30 2732 H 269.687 4.91976 -1.26181 0
M  V30 2733 H 269.617 5.24328 0.48869 0
M  V30 2734 H 272.108 3.77863 -0.0531512 0
M  V30 2735 H 272.421 7.69311 -0.733559 0
M  V30 2736 H 270.766 6.91927 -0.652791 0
M  V30 2737 H 273.957 4.67859 -0.150072 0
M  V30 2738 H 274.13 6.46364 -0.460116 0
M  V30 2739 N 267.536 -0.106894 1.57237 0
M  V30 2740 C 268.499 -1.11466 2.0027 0
M  V30 2741 C 269.499 -1.33623 0.894519 0
M  V30 2742 O 270.689 -1.29935 1.16028 0
M  V30 2743 C 267.821 -2.46646 2.35327 0
M  V30 2744 H 269.014 -0.744516 2.90512 0
M  V30 2745 H 266.567 -0.351576 1.52295 0
M  V30 2746 H 267.302 -2.88558 1.48003 0
M  V30 2747 H 267.087 -2.31915 3.16161 0
M  V30 2748 H 268.577 -3.19151 2.69318 0
M  V30 2749 N 269.014 -1.53014 -0.377408 0
M  V30 2750 C 270.239 -1.72818 -1.14668 0
M  V30 2751 C 270.664 -0.450725 -1.8262 0
M  V30 2752 O 270.022 0.59439 -1.7128 0
M  V30 2753 C 270.07 -2.88627 -2.16164 0
M  V30 2754 O 269.174 -2.56409 -3.22998 0
M  V30 2755 H 268.515 -0.574301 -0.333278 0
M  V30 2756 H 271.045 -1.99853 -0.438152 0
M  V30 2757 H 271.055 -3.14455 -2.59966 0
M  V30 2758 H 269.73 -3.81294 -1.66095 0
M  V30 2759 H 268.307 -2.4136 -2.84253 0
M  V30 2760 N 270.492 0.636531 -1.44174 0
M  V30 2761 C 271.74 1.39343 -1.46383 0
M  V30 2762 C 272.061 1.94766 -0.0955715 0
M  V30 2763 O 271.331 1.75452 0.871395 0
M  V30 2764 H 269.911 0.517199 -0.538994 0
M  V30 2765 H 272.573 0.74957 -1.7991 0
M  V30 2766 H 271.669 2.22746 -2.18611 0
M  V30 2767 N 271.97 1.30982 0.876444 0
M  V30 2768 C 272.9 1.20668 1.99903 0
M  V30 2769 C 273.881 0.095354 1.69833 0
M  V30 2770 O 275.066 0.27885 1.92188 0
M  V30 2771 C 272.196 0.90655 3.3526 0
M  V30 2772 C 271.15 1.97675 3.79617 0
M  V30 2773 C 270.476 1.52943 5.1236 0
M  V30 2774 C 271.776 3.389 3.97422 0
M  V30 2775 H 273.47 2.14586 2.0879 0
M  V30 2776 H 271.016 1.03308 1.00317 0
M  V30 2777 H 272.969 0.821025 4.13324 0
M  V30 2778 H 271.693 -0.0682969 3.26529 0
M  V30 2779 H 270.352 2.05205 3.03787 0
M  V30 2780 H 270 0.54262 5.00065 0
M  V30 2781 H 269.7 2.24532 5.43009 0
M  V30 2782 H 271.224 1.45786 5.92941 0
M  V30 2783 H 272.638 3.34081 4.659 0
M  V30 2784 H 271.035 4.0865 4.3946 0
M  V30 2785 H 272.105 3.80163 3.01006 0
M  V30 2786 N 273.449 -1.08991 1.13837 0
M  V30 2787 C 274.379 -2.17771 0.842507 0
M  V30 2788 C 275.36 -1.6892 -0.20001 0
M  V30 2789 O 276.545 -1.94113 -0.0579731 0
M  V30 2790 C 273.675 -3.4589 0.312644 0
M  V30 2791 C 272.629 -4.08099 1.28992 0
M  V30 2792 C 271.955 -5.31098 0.619623 0
M  V30 2793 C 273.255 -4.50077 2.65005 0
M  V30 2794 H 274.949 -2.42777 1.75213 0
M  V30 2795 H 272.495 -1.16682 0.843875 0
M  V30 2796 H 274.448 -4.21297 0.0933043 0
M  V30 2797 H 273.172 -3.20419 -0.632382 0
M  V30 2798 H 271.831 -3.34717 1.49533 0
M  V30 2799 H 271.479 -5.0191 -0.33102 0
M  V30 2800 H 271.179 -5.73674 1.27167 0
M  V30 2801 H 272.703 -6.09224 0.409669 0
M  V30 2802 H 274.117 -5.16688 2.48407 0
M  V30 2803 H 272.514 -5.03553 3.26427 0
M  V30 2804 H 273.584 -3.62257 3.22332 0
M  V30 2805 N 274.927 -0.932562 -1.27047 0
M  V30 2806 C 276.338 -0.619451 -1.76124 0
M  V30 2807 C 276.689 0.865397 -1.76083 0
M  V30 2808 O 275.814 1.67722 -1.36742 0
M  V30 2809 C 276.409 -1.11771 -3.19832 0
M  V30 2810 C 274.968 -0.855174 -3.66557 0
M  V30 2811 C 274.115 -1.27362 -2.46321 0
M  V30 2812 H 277.066 -1.11181 -1.13245 0
M  V30 2813 H 277.087 -0.46759 -3.77616 0
M  V30 2814 H 276.599 -2.19842 -3.1983 0
M  V30 2815 H 274.7 0.211524 -3.71999 0
M  V30 2816 H 274.813 -1.47613 -4.55793 0
M  V30 2817 H 273.177 -0.692119 -2.45116 0
M  V30 2818 H 273.96 -2.36307 -2.49025 0
M  V30 2819 N 276.405 1.4127 -0.698611 0
M  V30 2820 C 277.821 1.55241 -0.370462 0
M  V30 2821 C 278.021 1.67351 1.12231 0
M  V30 2822 O 277.077 1.65363 1.90818 0
M  V30 2823 C 278.39 2.78997 -1.12165 0
M  V30 2824 C 279.938 2.92797 -1.1063 0
M  V30 2825 C 280.413 4.19445 -1.8393 0
M  V30 2826 N 281.904 4.26409 -1.80914 0
M  V30 2827 C 282.639 5.23271 -2.34467 0
M  V30 2828 N 282.135 6.26145 -2.96504 0
M  V30 2829 N 283.928 5.15232 -2.24706 0
M  V30 2830 H 276.079 1.31654 -1.66676 0
M  V30 2831 H 278.342 0.635393 -0.703548 0
M  V30 2832 H 278.048 2.76268 -2.17644 0
M  V30 2833 H 277.922 3.70606 -0.702209 0
M  V30 2834 H 280.309 2.95039 -0.0597713 0
M  V30 2835 H 280.39 2.02353 -1.56483 0
M  V30 2836 H 280.034 4.17964 -2.88563 0
M  V30 2837 H 279.964 5.08866 -1.35509 0
M  V30 2838 H 282.455 3.527 -1.35687 0
M  V30 2839 H 282.768 6.96451 -3.34927 0
M  V30 2840 H 281.113 6.26638 -3.00583 0
M  V30 2841 H 284.304 4.33789 -1.7591 0
M  V30 2842 H 284.477 5.90552 -2.66745 0
M  V30 2843 N 277.883 0.443576 1.51229 0
M  V30 2844 C 279.129 -0.11321 2.03085 0
M  V30 2845 C 279.484 -1.39841 1.32145 0
M  V30 2846 O 278.777 -1.86723 0.429542 0
M  V30 2847 C 278.971 -0.380579 3.55368 0
M  V30 2848 C 278.8 0.877157 4.41062 0
M  V30 2849 C 277.57 1.4125 4.85156 0
M  V30 2850 C 279.768 1.76503 4.83064 0
M  V30 2851 N 277.75 2.62213 5.55083 0
M  V30 2852 C 279.121 2.82067 5.52122 0
M  V30 2853 C 281.176 1.7787 4.65045 0
M  V30 2854 C 279.879 3.88952 6.05069 0
M  V30 2855 C 281.905 2.83694 5.18914 0
M  V30 2856 C 281.267 3.87978 5.87922 0
M  V30 2857 H 277.366 -0.00210178 0.781997 0
M  V30 2858 H 279.95 0.605641 1.85041 0
M  V30 2859 H 278.121 -1.06847 3.73414 0
M  V30 2860 H 279.853 -0.929274 3.93887 0
M  V30 2861 H 276.608 0.965542 4.63653 0
M  V30 2862 H 277.032 3.23568 5.9467 0
M  V30 2863 H 281.674 0.985744 4.11148 0
M  V30 2864 H 279.392 4.69082 6.58018 0
M  V30 2865 H 282.978 2.85702 5.06819 0
M  V30 2866 H 281.858 4.68517 6.28857 0
M  V30 2867 N 279.361 -1.56624 0.175154 0
M  V30 2868 C 280.271 -2.21741 -0.766042 0
M  V30 2869 C 281.287 -1.21023 -1.25018 0
M  V30 2870 O 282.463 -1.53697 -1.3015 0
M  V30 2871 C 279.528 -2.84839 -1.97655 0
M  V30 2872 C 278.589 -4.00769 -1.53892 0
M  V30 2873 C 277.822 -4.60849 -2.69173 0
M  V30 2874 O 278.045 -4.19823 -3.86141 0
M  V30 2875 O 276.979 -5.50655 -2.43028 0
M  V30 2876 H 280.805 -3.02738 -0.241585 0
M  V30 2877 H 278.39 -1.49305 -0.053222 0
M  V30 2878 H 280.272 -3.24834 -2.68442 0
M  V30 2879 H 278.947 -2.06836 -2.48999 0
M  V30 2880 H 277.854 -3.65436 -0.80044 0
M  V30 2881 H 279.187 -4.80376 -1.07236 0
M  V30 2882 N 280.839 0.0985539 -1.57292 0
M  V30 2883 C 281.771 1.14595 -1.98496 0
M  V30 2884 C 282.784 1.36512 -0.887031 0
M  V30 2885 O 283.973 1.35225 -1.16518 0
M  V30 2886 C 281.073 2.50216 -2.28572 0
M  V30 2887 C 280.246 2.48624 -3.59868 0
M  V30 2888 C 279.305 3.66146 -3.7792 0
M  V30 2889 O 278.331 3.48795 -4.49812 0
M  V30 2890 N 279.533 4.85496 -3.18235 0
M  V30 2891 H 282.298 0.795277 -2.88956 0
M  V30 2892 H 279.859 0.287579 -1.59325 0
M  V30 2893 H 281.851 3.27432 -2.37845 0
M  V30 2894 H 280.421 2.77387 -1.44136 0
M  V30 2895 H 279.641 1.56978 -3.61596 0
M  V30 2896 H 280.929 2.44635 -4.46129 0
M  V30 2897 H 280.327 5.02497 -2.59833 0
M  V30 2898 H 278.884 5.60317 -3.32999 0
M  V30 2899 N 282.317 1.53212 0.369288 0
M  V30 2900 C 283.545 1.73119 1.13303 0
M  V30 2901 C 283.96 0.458455 1.83149 0
M  V30 2902 O 283.317 -0.568403 1.73423 0
M  V30 2903 C 283.368 2.89413 2.16616 0
M  V30 2904 O 283.089 4.11761 1.49614 0
M  V30 2905 C 284.59 3.21161 3.05566 0
M  V30 2906 H 281.81 0.579107 0.338934 0
M  V30 2907 H 284.354 1.99942 0.429338 0
M  V30 2908 H 282.509 2.64994 2.82589 0
M  V30 2909 H 282.923 4.76858 2.18419 0
M  V30 2910 H 284.397 4.05949 3.74045 0
M  V30 2911 H 284.874 2.36369 3.70171 0
M  V30 2912 H 285.48 3.47492 2.45213 0
M  V30 2913 N 283.795 -0.628877 1.44509 0
M  V30 2914 C 284.727 -1.754 1.47538 0
M  V30 2915 C 285.74 -1.58575 0.368506 0
M  V30 2916 O 286.929 -1.66847 0.634376 0
M  V30 2917 C 284.029 -3.1315 1.29577 0
M  V30 2918 C 283.202 -3.56413 2.53551 0
M  V30 2919 C 282.261 -4.7305 2.30457 0
M  V30 2920 O 281.287 -4.81247 3.03957 0
M  V30 2921 N 282.489 -5.64903 1.3366 0
M  V30 2922 H 285.254 -1.73272 2.44534 0
M  V30 2923 H 282.815 -0.813512 1.39977 0
M  V30 2924 H 284.807 -3.88902 1.11971 0
M  V30 2925 H 283.377 -3.09908 0.409371 0
M  V30 2926 H 282.597 -2.70847 2.86419 0
M  V30 2927 H 283.885 -3.82071 3.36005 0
M  V30 2928 H 283.283 -5.60975 0.729604 0
M  V30 2929 H 281.84 -6.40275 1.22032 0
M  V30 2930 N 285.273 -1.31445 -0.869486 0
M  V30 2931 C 286.689 -1.10113 -1.15531 0
M  V30 2932 C 286.889 0.128087 -2.01092 0
M  V30 2933 O 285.945 0.817276 -2.38908 0
M  V30 2934 C 287.258 -2.37291 -1.84698 0
M  V30 2935 C 288.806 -2.42906 -1.97397 0
M  V30 2936 C 289.281 -3.69967 -2.69979 0
M  V30 2937 N 290.772 -3.70864 -2.77514 0
M  V30 2938 C 291.507 -4.65875 -3.34287 0
M  V30 2939 N 291.003 -5.71242 -3.91988 0
M  V30 2940 N 292.796 -4.53394 -3.3225 0
M  V30 2941 H 284.947 -2.1028 -0.299347 0
M  V30 2942 H 287.21 -0.927683 -0.195214 0
M  V30 2943 H 286.916 -3.27078 -1.29278 0
M  V30 2944 H 286.79 -2.47125 -2.84972 0
M  V30 2945 H 289.177 -1.53588 -2.51982 0
M  V30 2946 H 289.258 -2.37036 -0.961643 0
M  V30 2947 H 288.902 -4.59652 -2.16062 0
M  V30 2948 H 288.832 -3.73103 -3.7162 0
M  V30 2949 H 291.323 -2.94697 -2.36563 0
M  V30 2950 H 291.636 -6.39817 -4.33421 0
M  V30 2951 H 289.981 -5.75015 -3.90362 0
M  V30 2952 H 293.172 -3.70252 -2.8641 0
M  V30 2953 H 293.345 -5.27617 -3.76197 0
M  V30 2954 N 286.751 1.08385 -1.14413 0
M  V30 2955 C 287.998 1.80776 -0.912482 0
M  V30 2956 C 288.326 1.86236 0.560934 0
M  V30 2957 O 287.581 1.33431 1.43159 0
M  V30 2958 C 287.88 3.26273 -1.45879 0
M  V30 2959 C 287.546 3.4093 -2.95089 0
M  V30 2960 C 286.208 3.44638 -3.35824 0
M  V30 2961 C 288.56 3.44591 -3.91033 0
M  V30 2962 C 285.888 3.49597 -4.71167 0
M  V30 2963 C 288.24 3.51086 -5.26233 0
M  V30 2964 C 286.904 3.53067 -5.6648 0
M  V30 2965 H 286.174 0.661507 -0.333901 0
M  V30 2966 H 288.821 1.27613 -1.42784 0
M  V30 2967 H 287.126 3.82146 -0.864376 0
M  V30 2968 H 288.823 3.80839 -1.2555 0
M  V30 2969 H 285.413 3.38736 -2.62594 0
M  V30 2970 H 289.597 3.40957 -3.60641 0
M  V30 2971 H 284.853 3.49424 -5.0171 0
M  V30 2972 H 289.027 3.52864 -6.00383 0
M  V30 2973 H 286.654 3.56662 -6.71339 0
M  V30 2974 N 288.23 0.939286 1.26551 0
M  V30 2975 C 289.479 0.581601 1.93133 0
M  V30 2976 C 289.792 -0.883224 1.74524 0
M  V30 2977 O 290.998 -1.3502 2.35546 0
M  V30 2978 C 289.454 0.989425 3.46032 0
M  V30 2979 C 289.062 2.47573 3.73379 0
M  V30 2980 C 290.806 0.703544 4.18629 0
M  V30 2981 C 288.713 2.82235 5.19709 0
M  V30 2982 H 287.643 0.213803 0.723052 0
M  V30 2983 H 290.294 1.14167 1.4366 0
M  V30 2984 H 288.676 0.357902 3.94379 0
M  V30 2985 H 289.85 3.15614 3.35744 0
M  V30 2986 H 288.165 2.73471 3.1401 0
M  V30 2987 H 290.762 0.938869 5.26393 0
M  V30 2988 H 291.105 -0.359639 4.14744 0
M  V30 2989 H 291.638 1.2947 3.76141 0
M  V30 2990 H 288.377 3.87509 5.28694 0
M  V30 2991 H 287.897 2.18854 5.58447 0
M  V30 2992 H 289.576 2.70599 5.87695 0
M  V30 2993 N 289.708 -1.40897 0.706093 0
M  V30 2994 C 290.956 -2.00657 0.241054 0
M  V30 2995 C 291.277 -1.56241 -1.16678 0
M  V30 2996 O 290.547 -0.79765 -1.78926 0
M  V30 2997 H 289.127 -0.742018 0.0861308 0
M  V30 2998 H 291.789 -1.72372 0.909604 0
M  V30 2999 H 290.885 -3.10958 0.266705 0
M  V30 3000 N 291.186 -0.45159 -1.50991 0
M  V30 3001 C 292.096 0.358431 -2.31846 0
M  V30 3002 C 293.112 1.01438 -1.41373 0
M  V30 3003 O 294.288 1.00663 -1.74439 0
M  V30 3004 C 291.353 1.43704 -3.15515 0
M  V30 3005 C 290.414 0.799742 -4.21785 0
M  V30 3006 C 289.647 1.82696 -5.01456 0
M  V30 3007 O 289.87 3.05105 -4.81941 0
M  V30 3008 O 288.804 1.40958 -5.85162 0
M  V30 3009 H 292.63 -0.302032 -3.02194 0
M  V30 3010 H 290.215 -0.213825 -1.47862 0
M  V30 3011 H 292.097 2.06227 -3.67489 0
M  V30 3012 H 290.772 2.08133 -2.47916 0
M  V30 3013 H 289.679 0.136084 -3.73852 0
M  V30 3014 H 291.012 0.198718 -4.91799 0
M  V30 3015 N 292.664 1.56529 -0.183458 0
M  V30 3016 C 293.597 2.14417 0.781052 0
M  V30 3017 C 294.575 1.07761 1.21763 0
M  V30 3018 O 295.759 1.35807 1.30724 0
M  V30 3019 C 292.886 2.69361 2.05335 0
M  V30 3020 C 291.932 3.885 1.75982 0
M  V30 3021 S 292.765 5.27568 0.918256 0
M  V30 3022 C 293.921 5.85926 2.20095 0
M  V30 3023 H 294.154 2.95893 0.2889 0
M  V30 3024 H 291.687 1.54368 0.0313844 0
M  V30 3025 H 293.645 3.01662 2.78406 0
M  V30 3026 H 292.306 1.87949 2.51663 0
M  V30 3027 H 291.499 4.25314 2.70415 0
M  V30 3028 H 291.101 3.57149 1.10999 0
M  V30 3029 H 293.393 5.99579 3.15453 0
M  V30 3030 H 294.336 6.82761 1.87731 0
M  V30 3031 H 294.744 5.14438 2.32409 0
M  V30 3032 N 294.142 -0.090211 1.57342 0
M  V30 3033 C 295.558 -0.444547 1.53284 0
M  V30 3034 C 295.758 -1.80238 0.900914 0
M  V30 3035 O 294.814 -2.4759 0.495513 0
M  V30 3036 C 296.127 -0.402543 2.97993 0
M  V30 3037 C 297.675 -0.48405 3.09234 0
M  V30 3038 C 298.15 -0.472144 4.5556 0
M  V30 3039 N 299.641 -0.532757 4.60126 0
M  V30 3040 C 300.376 -0.545462 5.708 0
M  V30 3041 N 299.872 -0.514082 6.9089 0
M  V30 3042 N 301.665 -0.59064 5.58988 0
M  V30 3043 H 293.816 0.799121 1.96794 0
M  V30 3044 H 296.079 0.297965 0.899956 0
M  V30 3045 H 295.785 0.528106 3.47712 0
M  V30 3046 H 295.659 -1.21969 3.56936 0
M  V30 3047 H 298.046 -1.40512 2.595 0
M  V30 3048 H 298.127 0.361328 2.53235 0
M  V30 3049 H 297.771 0.445 5.05947 0
M  V30 3050 H 297.701 -1.3348 5.09402 0
M  V30 3051 H 300.192 -0.562006 3.73698 0
M  V30 3052 H 300.505 -0.527195 7.71 0
M  V30 3053 H 298.85 -0.481054 6.93333 0
M  V30 3054 H 302.041 -0.61272 4.64073 0
M  V30 3055 H 302.214 -0.597073 6.45243 0
M  V30 3056 N 295.62 -1.53406 -0.361157 0
M  V30 3057 C 296.868 -1.69467 -1.10115 0
M  V30 3058 C 297.189 -0.451352 -1.89705 0
M  V30 3059 O 296.459 0.534636 -1.88463 0
M  V30 3060 H 295.039 -0.624749 -0.409508 0
M  V30 3061 H 297.701 -1.90609 -0.406699 0
M  V30 3062 H 296.797 -2.55774 -1.78847 0
M  V30 3063 N 297.098 0.621204 -1.44841 0
M  V30 3064 C 298.326 1.40752 -1.51646 0
M  V30 3065 C 298.741 1.88246 -0.144549 0
M  V30 3066 O 298.098 1.61422 0.851416 0
M  V30 3067 C 298.149 2.62119 -2.4895 0
M  V30 3068 O 297.87 2.16602 -3.80808 0
M  V30 3069 C 299.371 3.55135 -2.65319 0
M  V30 3070 H 296.591 0.431325 -0.514004 0
M  V30 3071 H 299.135 0.758835 -1.899 0
M  V30 3072 H 297.29 3.23058 -2.13805 0
M  V30 3073 H 297.704 2.95358 -4.33433 0
M  V30 3074 H 299.178 4.36874 -3.37409 0
M  V30 3075 H 299.655 4.04592 -1.70886 0
M  V30 3076 H 300.261 3.00058 -3.01405 0
M  V30 3077 O 298.615 1.4224 0.764848 0
M  V30 3078 H 299.306 1.32519 1.41274 0
M  V30 END ATOM
M  V30 BEGIN BOND
M  V30 END BOND
M  V30 END CTAB
M  END
$$$$
