drugbank_target|P30825 High affinity cationic amino acid transporter 1 (DB00123; DB00125; DB00129)
 OpenBabel12092119273D

  0  0  0     0  0            999 V3000
M  V30 BEGIN CTAB
M  V30 COUNTS 9619 9720 0 0 0
M  V30 BEGIN ATOM
M  V30 1 H -0.908 1.98254 -0.117106 0
M  V30 2 N 0 1.576 0 0
M  V30 3 C 0.933 2.03868 1.02534 0
M  V30 4 C 1.911 0.928543 1.3348 0
M  V30 5 O 3.095 1.19667 1.45644 0
M  V30 6 C 0.222 2.43627 2.35294 0
M  V30 7 C -0.732 3.65373 2.2001 0
M  V30 8 S 0.101 5.13292 1.52614 0
M  V30 9 C 1.257 5.56322 2.86805 0
M  V30 10 H 1.49 2.90518 0.631377 0
M  V30 11 H -0.977 1.52953 0.210867 0
M  V30 12 H 0.981 2.67203 3.11629 0
M  V30 13 H -0.358 1.57376 2.7183 0
M  V30 14 H -1.165 3.90944 3.18086 0
M  V30 15 H -1.563 3.418 1.51819 0
M  V30 16 H 0.729 5.58782 3.83104 0
M  V30 17 H 1.672 6.56266 2.65933 0
M  V30 18 H 2.08 4.83886 2.90714 0
M  V30 19 N 1.4781 -0.272755 1.55222 0
M  V30 20 C 2.7261 -1.00234 1.75492 0
M  V30 21 C 3.0471 -1.8681 0.5592 0
M  V30 22 O 2.3171 -1.91215 -0.425882 0
M  V30 23 H 0.8971 -0.373076 0.647166 0
M  V30 24 H 3.5591 -0.296926 1.92625 0
M  V30 25 H 2.6551 -1.63913 2.65592 0
M  V30 26 N 2.9562 -1.48159 -0.537278 0
M  V30 27 C 4.1962 -1.57397 -1.30405 0
M  V30 28 C 4.5602 -0.239202 -1.90504 0
M  V30 29 O 5.7612 -0.206528 -2.68005 0
M  V30 30 C 4.0322 -2.6754 -2.36974 0
M  V30 31 S 5.5912 -2.96496 -3.23475 0
M  V30 32 H 2.4092 -0.555577 -0.443684 0
M  V30 33 H 5.0112 -1.85644 -0.612912 0
M  V30 34 H 3.7152 -3.63092 -1.91291 0
M  V30 35 H 3.2462 -2.41172 -3.10805 0
M  V30 36 H 5.2612 -2.35234 -4.36897 0
M  V30 37 N 4.4343 0.785586 -1.36625 0
M  V30 38 C 5.3813 1.89838 -1.31264 0
M  V30 39 C 6.3513 1.65115 -0.180633 0
M  V30 40 O 7.5363 1.87222 -0.36777 0
M  V30 41 C 4.6763 3.26706 -1.11163 0
M  V30 42 C 3.7893 3.63476 -2.33472 0
M  V30 43 C 2.9243 4.89481 -2.06353 0
M  V30 44 C 1.9633 5.18941 -3.24602 0
M  V30 45 N 1.1003 6.36131 -2.97123 0
M  V30 46 H 5.9403 1.93756 -2.26413 0
M  V30 47 H 3.4773 0.947454 -1.12524 0
M  V30 48 H 5.4353 4.05639 -0.975337 0
M  V30 49 H 4.0653 3.222 -0.196674 0
M  V30 50 H 3.1173 2.79636 -2.57891 0
M  V30 51 H 4.4293 3.81193 -3.21704 0
M  V30 52 H 3.5833 5.76288 -1.89675 0
M  V30 53 H 2.3223 4.73841 -1.15437 0
M  V30 54 H 1.3273 4.30615 -3.41834 0
M  V30 55 H 2.5523 5.36498 -4.16349 0
M  V30 56 H 0.4983 6.21875 -2.08823 0
M  V30 57 H 0.4153 6.54198 -3.78894 0
M  V30 58 H 1.6833 7.2591 -2.84033 0
M  V30 59 N 5.9124 1.20967 1.01018 0
M  V30 60 C 7.1584 1.02526 1.74975 0
M  V30 61 C 7.4914 -0.4408 1.89131 0
M  V30 62 O 6.7664 -1.32718 1.42184 0
M  V30 63 C 7.0494 1.71699 3.1653 0
M  V30 64 C 6.9024 3.25791 3.10129 0
M  V30 65 C 8.2214 1.45531 4.15342 0
M  V30 66 H 5.3404 0.373863 0.635134 0
M  V30 67 H 7.9824 1.49071 1.17805 0
M  V30 68 H 6.1324 1.32128 3.65341 0
M  V30 69 H 7.8044 3.74697 2.69072 0
M  V30 70 H 6.0474 3.56363 2.47362 0
M  V30 71 H 6.7184 3.69353 4.10222 0
M  V30 72 H 9.1944 1.79872 3.75213 0
M  V30 73 H 8.0704 1.96453 5.1254 0
M  V30 74 H 8.3314 0.384237 4.40427 0
M  V30 75 N 7.3905 -1.2043 1.01659 0
M  V30 76 C 8.3205 -2.25466 0.607226 0
M  V30 77 C 9.3015 -1.65853 -0.377716 0
M  V30 78 O 10.4865 -1.92409 -0.263149 0
M  V30 79 C 7.6165 -3.47256 -0.0552949 0
M  V30 80 C 6.5705 -4.19462 0.850632 0
M  V30 81 C 5.8965 -5.34673 0.0538859 0
M  V30 82 C 7.1965 -4.75603 2.15868 0
M  V30 83 H 8.8905 -2.59962 1.48526 0
M  V30 84 H 6.4365 -1.2496 0.715605 0
M  V30 85 H 8.3895 -4.19917 -0.353233 0
M  V30 86 H 7.1135 -3.11924 -0.968045 0
M  V30 87 H 5.7725 -3.48667 1.13257 0
M  V30 88 H 5.4205 -4.95585 -0.860514 0
M  V30 89 H 5.1205 -5.83913 0.657192 0
M  V30 90 H 6.6445 -6.10138 -0.237598 0
M  V30 91 H 8.0585 -5.40083 1.92311 0
M  V30 92 H 6.4555 -5.3528 2.71284 0
M  V30 93 H 7.5255 -3.94346 2.82169 0
M  V30 94 N 8.8686 -0.792821 -1.36206 0
M  V30 95 C 9.7986 -0.207853 -2.32573 0
M  V30 96 C 10.7796 0.659055 -1.56813 0
M  V30 97 O 11.9646 0.592176 -1.84951 0
M  V30 98 C 9.0946 0.655449 -3.41059 0
M  V30 99 C 8.0486 -0.111842 -4.27854 0
M  V30 100 C 7.3746 0.872274 -5.27537 0
M  V30 101 C 8.6746 -1.30299 -5.05786 0
M  V30 102 H 10.3686 -1.01294 -2.81744 0
M  V30 103 H 7.9146 -0.48854 -1.3546 0
M  V30 104 H 9.8676 1.07464 -4.07467 0
M  V30 105 H 8.5916 1.49328 -2.90463 0
M  V30 106 H 7.2506 -0.512053 -3.63006 0
M  V30 107 H 6.8986 1.70523 -4.73214 0
M  V30 108 H 6.5986 0.363291 -5.86476 0
M  V30 109 H 8.1226 1.28996 -5.96818 0
M  V30 110 H 9.5366 -0.959379 -5.65216 0
M  V30 111 H 7.9336 -1.7455 -5.74154 0
M  V30 112 H 9.0036 -2.09663 -4.37229 0
M  V30 113 N 10.3467 1.47872 -0.545128 0
M  V30 114 C 11.2947 2.31533 0.222512 0
M  V30 115 C 12.2887 1.42177 0.920985 0
M  V30 116 O 13.4947 1.59005 0.843645 0
M  V30 117 H 9.8697 0.746519 0.0906278 0
M  V30 118 H 11.8407 2.94139 -0.50246 0
M  V30 119 C 10.5897 3.2457 1.24699 0
M  V30 120 H 9.9127 3.93283 0.718944 0
M  V30 121 H 11.3527 3.85963 1.75523 0
M  V30 122 C 9.8117 2.47237 2.28856 0
M  V30 123 O 10.3417 2.20808 3.35569 0
M  V30 124 N 8.5477 2.08461 2.02466 0
M  V30 125 H 8.0947 2.30155 1.157 0
M  V30 126 H 8.0527 1.57033 2.72375 0
M  V30 127 N 11.8248 0.280983 1.55075 0
M  V30 128 C 13.0738 -0.334784 1.98902 0
M  V30 129 C 13.3868 -1.56534 1.17288 0
M  V30 130 O 14.5928 -2.25443 1.51287 0
M  V30 131 C 13.0488 -0.646994 3.54037 0
M  V30 132 C 12.6568 0.564085 4.44435 0
M  V30 133 C 14.4008 -1.22506 4.06439 0
M  V30 134 C 12.3078 0.226137 5.90967 0
M  V30 135 H 11.2378 -0.128866 0.742906 0
M  V30 136 H 13.8888 0.386556 1.79382 0
M  V30 137 H 12.2708 -1.42739 3.6938 0
M  V30 138 H 13.4448 1.34082 4.40861 0
M  V30 139 H 11.7598 1.0594 4.02698 0
M  V30 140 H 14.3568 -1.49182 5.13468 0
M  V30 141 H 14.6998 -2.16085 3.55827 0
M  V30 142 H 15.2328 -0.50682 3.94558 0
M  V30 143 H 11.9718 1.12996 6.45687 0
M  V30 144 H 11.4918 -0.513717 5.97596 0
M  V30 145 H 13.1708 -0.179539 6.46751 0
M  V30 146 N 13.3029 -1.57598 0.00835791 0
M  V30 147 C 14.5509 -1.90551 -0.6734 0
M  V30 148 C 14.8719 -0.883301 -1.73847 0
M  V30 149 O 14.1419 0.0781442 -1.95744 0
M  V30 150 H 12.7219 -0.703312 -0.251717 0
M  V30 151 H 15.3839 -1.94833 0.0512592 0
M  V30 152 H 14.4799 -2.9056 -1.13935 0
M  V30 153 N 14.781 0.264519 -1.55364 0
M  V30 154 C 15.713 1.34965 -1.85248 0
M  V30 155 C 16.726 1.45136 -0.737525 0
M  V30 156 O 17.915 1.46801 -1.01547 0
M  V30 157 C 15.015 2.73008 -2.00797 0
M  V30 158 C 14.188 2.85324 -3.31525 0
M  V30 159 C 13.247 4.04097 -3.37034 0
M  V30 160 O 12.273 3.94455 -4.10358 0
M  V30 161 N 13.475 5.16458 -2.65049 0
M  V30 162 H 16.24 1.09672 -2.78913 0
M  V30 163 H 13.801 0.454635 -1.55386 0
M  V30 164 H 15.793 3.50772 -2.01844 0
M  V30 165 H 14.363 2.91087 -1.1396 0
M  V30 166 H 13.583 1.94377 -3.42945 0
M  V30 167 H 14.871 2.9049 -4.17724 0
M  V30 168 H 14.269 5.27181 -2.05175 0
M  V30 169 H 12.826 5.92422 -2.71809 0
M  V30 170 N 16.2591 1.48442 0.529413 0
M  V30 171 C 17.1911 1.59095 1.64989 0
M  V30 172 C 18.2041 0.475212 1.5571 0
M  V30 173 O 19.3931 0.746081 1.6216 0
M  V30 174 C 16.4931 1.50518 3.0364 0
M  V30 175 C 15.6661 2.77142 3.38395 0
M  V30 176 C 14.7251 2.62012 4.56329 0
M  V30 177 O 13.7511 3.35898 4.59522 0
M  V30 178 N 14.9531 1.71667 5.54536 0
M  V30 179 H 17.7181 2.55723 1.56287 0
M  V30 180 H 15.2791 1.45173 0.716697 0
M  V30 181 H 17.2711 1.38091 3.80412 0
M  V30 182 H 15.8411 0.618627 3.06418 0
M  V30 183 H 15.0611 3.0413 2.50796 0
M  V30 184 H 16.3491 3.61146 3.58401 0
M  V30 185 H 15.7471 1.10841 5.54735 0
M  V30 186 H 14.3041 1.65178 6.30523 0
M  V30 187 N 17.7372 -0.778329 1.37039 0
M  V30 188 C 18.6702 -1.8984 1.26633 0
M  V30 189 C 19.6482 -1.61923 0.148197 0
M  V30 190 O 20.8322 -1.85742 0.321265 0
M  V30 191 C 17.9592 -3.24916 0.956403 0
M  V30 192 C 17.0052 -3.71752 2.09051 0
M  V30 193 S 17.8382 -3.86201 3.70957 0
M  V30 194 C 18.9942 -5.24135 3.42101 0
M  V30 195 H 19.2272 -1.98377 2.21436 0
M  V30 196 H 16.7602 -0.938738 1.22585 0
M  V30 197 H 18.7182 -4.02936 0.784409 0
M  V30 198 H 17.3792 -3.14089 0.0259713 0
M  V30 199 H 16.5722 -4.69661 1.8285 0
M  V30 200 H 16.1742 -3.00815 2.2223 0
M  V30 201 H 18.4662 -6.09086 2.96682 0
M  V30 202 H 19.4092 -5.55346 4.39314 0
M  V30 203 H 19.8172 -4.91761 2.77185 0
M  V30 204 N 19.2153 -1.21501 -1.00376 0
M  V30 205 C 20.1453 -0.999478 -2.11028 0
M  V30 206 C 21.1263 0.0759671 -1.6993 0
M  V30 207 O 22.3113 -0.0841106 -1.94018 0
M  V30 208 C 19.4413 -0.564709 -3.42678 0
M  V30 209 C 18.3953 -1.58486 -3.97576 0
M  V30 210 C 17.7213 -1.00628 -5.25146 0
M  V30 211 C 19.0213 -2.97204 -4.29496 0
M  V30 212 H 20.7153 -1.92495 -2.29317 0
M  V30 213 H 18.2613 -0.92693 -1.102 0
M  V30 214 H 20.2143 -0.401091 -4.19487 0
M  V30 215 H 18.9383 0.396411 -3.24185 0
M  V30 216 H 17.5973 -1.73606 -3.22888 0
M  V30 217 H 17.2453 -0.0368439 -5.02987 0
M  V30 218 H 16.9453 -1.68771 -5.62841 0
M  V30 219 H 18.4693 -0.854015 -6.04598 0
M  V30 220 H 19.8833 -2.8552 -4.97143 0
M  V30 221 H 18.2803 -3.62372 -4.78338 0
M  V30 222 H 19.3503 -3.47956 -3.3772 0
M  V30 223 N 20.6934 1.19889 -1.02296 0
M  V30 224 C 22.1094 1.41462 -0.738954 0
M  V30 225 C 22.3094 1.89721 0.678846 0
M  V30 226 O 21.3654 2.07016 1.4457 0
M  V30 227 C 22.6784 2.43083 -1.77005 0
M  V30 228 C 24.2264 2.5684 -1.78892 0
M  V30 229 C 24.7014 3.61709 -2.80945 0
M  V30 230 N 26.1924 3.69199 -2.79725 0
M  V30 231 C 26.9274 4.50019 -3.55345 0
M  V30 232 N 26.4234 5.34592 -4.40662 0
M  V30 233 N 28.2164 4.44612 -3.43914 0
M  V30 234 H 20.3674 0.868827 -1.93817 0
M  V30 235 H 22.6304 0.44399 -0.837602 0
M  V30 236 H 22.3364 2.14636 -2.78612 0
M  V30 237 H 22.2104 3.4217 -1.58744 0
M  V30 238 H 24.5974 2.84614 -0.779674 0
M  V30 239 H 24.6784 1.57927 -2.01228 0
M  V30 240 H 24.3224 3.34678 -3.82038 0
M  V30 241 H 24.2524 4.60259 -2.5587 0
M  V30 242 H 26.7434 3.08794 -2.17842 0
M  V30 243 H 27.0564 5.93363 -4.95116 0
M  V30 244 H 25.4014 5.34073 -4.44737 0
M  V30 245 H 28.5924 3.7758 -2.76679 0
M  V30 246 H 28.7654 5.0736 -4.031 0
M  V30 247 N 22.1715 0.800033 1.35784 0
M  V30 248 C 23.5875 0.482977 1.52117 0
M  V30 249 C 23.7875 -0.996948 1.75109 0
M  V30 250 O 22.8435 -1.78216 1.78872 0
M  V30 251 C 24.1565 1.32264 2.70049 0
M  V30 252 C 25.7045 1.31742 2.83924 0
M  V30 253 C 26.1795 2.14106 4.04874 0
M  V30 254 N 27.6705 2.11607 4.12039 0
M  V30 255 C 28.4055 2.72099 5.04727 0
M  V30 256 N 27.9015 3.41492 6.02789 0
M  V30 257 N 29.6945 2.61776 4.97423 0
M  V30 258 H 21.8455 1.75856 1.19115 0
M  V30 259 H 24.1085 0.748122 0.582252 0
M  V30 260 H 23.8145 2.37261 2.59616 0
M  V30 261 H 23.6885 0.971303 3.6448 0
M  V30 262 H 26.0755 0.275333 2.93813 0
M  V30 263 H 26.1565 1.70859 1.9037 0
M  V30 264 H 25.8005 3.18351 3.95746 0
M  V30 265 H 25.7305 1.72353 4.97596 0
M  V30 266 H 28.2215 1.61112 3.41835 0
M  V30 267 H 28.5345 3.84953 6.70098 0
M  V30 268 H 26.8795 3.45596 6.02983 0
M  V30 269 H 30.0705 2.07157 4.19766 0
M  V30 270 H 30.2435 3.0921 5.69468 0
M  V30 271 N 23.6496 -1.47581 0.552962 0
M  V30 272 C 24.5966 -2.29957 -0.197108 0
M  V30 273 C 25.5666 -1.38799 -0.912359 0
M  V30 274 O 26.7516 -1.67761 -0.908888 0
M  V30 275 C 23.8916 -3.22672 -1.22379 0
M  V30 276 C 23.0046 -4.28919 -0.515038 0
M  V30 277 C 22.1396 -5.0879 -1.52664 0
M  V30 278 C 21.1786 -6.06815 -0.802631 0
M  V30 279 N 20.3156 -6.7966 -1.76086 0
M  V30 280 H 25.1556 -2.93578 0.511486 0
M  V30 281 H 22.6926 -1.4471 0.264067 0
M  V30 282 H 24.6506 -3.74845 -1.83159 0
M  V30 283 H 23.2806 -2.60925 -1.90047 0
M  V30 284 H 22.3326 -3.79835 0.207192 0
M  V30 285 H 23.6446 -4.98773 0.0523425 0
M  V30 286 H 22.7986 -5.65091 -2.20809 0
M  V30 287 H 21.5376 -4.38828 -2.12794 0
M  V30 288 H 20.5426 -5.49695 -0.107238 0
M  V30 289 H 21.7676 -6.78784 -0.207135 0
M  V30 290 H 19.7136 -6.12432 -2.35081 0
M  V30 291 H 19.6306 -7.45669 -1.24552 0
M  V30 292 H 20.8986 -7.40538 -2.43359 0
M  V30 293 N 25.1277 -0.289203 -1.54924 0
M  V30 294 C 26.3737 0.323998 -2.00195 0
M  V30 295 C 26.7067 1.54441 -1.17735 0
M  V30 296 O 25.9817 1.92875 -0.250878 0
M  V30 297 C 26.2647 0.692276 -3.53383 0
M  V30 298 C 26.1177 -0.536457 -4.46589 0
M  V30 299 C 27.4367 1.52335 -4.12895 0
M  V30 300 H 24.5557 0.116289 -0.727768 0
M  V30 301 H 27.1977 -0.398954 -1.85764 0
M  V30 302 H 25.3477 1.30822 -3.65811 0
M  V30 303 H 27.0197 -1.17499 -4.46085 0
M  V30 304 H 25.2627 -1.17192 -4.1767 0
M  V30 305 H 25.9337 -0.234806 -5.515 0
M  V30 306 H 28.4097 1.00302 -4.0383 0
M  V30 307 H 27.2857 1.74982 -5.20262 0
M  V30 308 H 27.5467 2.50886 -3.64018 0
M  V30 309 N 26.6058 1.57591 -0.0167156 0
M  V30 310 C 27.8518 1.91567 0.665582 0
M  V30 311 C 28.1848 0.892298 1.72487 0
M  V30 312 O 27.4598 -0.0867127 1.94307 0
M  V30 313 C 27.7428 3.36069 1.29342 0
M  V30 314 C 27.5958 4.49135 0.244541 0
M  V30 315 C 28.9148 3.803 2.21495 0
M  V30 316 H 26.0338 0.69666 0.240488 0
M  V30 317 H 28.6758 1.89866 -0.0714356 0
M  V30 318 H 26.8258 3.3765 1.92158 0
M  V30 319 H 28.4978 4.59689 -0.385228 0
M  V30 320 H 26.7408 4.3165 -0.431379 0
M  V30 321 H 27.4118 5.47242 0.723207 0
M  V30 322 H 29.8878 3.80377 1.68678 0
M  V30 323 H 28.7638 4.82127 2.62382 0
M  V30 324 H 29.0248 3.15104 3.101 0
M  V30 325 N 28.0839 -0.256276 1.55502 0
M  V30 326 C 29.3609 -1.00789 1.67633 0
M  V30 327 C 29.7409 -2.03706 0.553826 0
M  V30 328 O 29.0889 -2.24145 -0.443969 0
M  V30 329 C 29.2989 -1.64968 3.07549 0
M  V30 330 C 30.6469 -2.15505 3.65845 0
M  V30 331 O 31.6709 -1.74925 3.1029 0
M  V30 332 O 30.5299 -2.89986 4.63217 0
M  V30 333 H 27.6239 -0.468553 0.681459 0
M  V30 334 H 30.1699 -0.250806 1.67836 0
M  V30 335 H 28.9419 -0.904785 3.80696 0
M  V30 336 H 28.5649 -2.47321 3.11317 0
M  V30 337 N 29.562 -1.4872 -0.521534 0
M  V30 338 C 30.802 -1.58771 -1.28729 0
M  V30 339 C 31.166 -0.259394 -1.9024 0
M  V30 340 O 32.367 -0.234942 -2.67771 0
M  V30 341 C 30.638 -2.70039 -2.34124 0
M  V30 342 S 32.197 -2.9991 -3.20312 0
M  V30 343 H 29.015 -0.560251 -0.437767 0
M  V30 344 H 31.617 -1.86283 -0.593188 0
M  V30 345 H 30.321 -3.65101 -1.87429 0
M  V30 346 H 29.852 -2.44455 -3.08229 0
M  V30 347 H 31.867 -2.39855 -4.34378 0
M  V30 348 N 31.0401 0.771051 -1.3745 0
M  V30 349 C 32.2651 1.56529 -1.36065 0
M  V30 350 C 32.6901 1.88029 0.0515859 0
M  V30 351 O 32.0481 1.49282 1.02882 0
M  V30 352 C 32.0961 2.85187 -2.20683 0
M  V30 353 O 31.2001 3.79593 -1.61193 0
M  V30 354 H 30.5411 0.47411 -0.464883 0
M  V30 355 H 33.0711 0.954269 -1.80983 0
M  V30 356 H 33.0811 3.34283 -2.33921 0
M  V30 357 H 31.7561 2.61588 -3.23334 0
M  V30 358 H 30.3331 3.38239 -1.56999 0
M  V30 359 N 32.5182 1.22032 0.997298 0
M  V30 360 C 33.9342 0.979326 1.26021 0
M  V30 361 C 34.1342 -0.32972 1.98784 0
M  V30 362 O 33.1902 -1.05345 2.29475 0
M  V30 363 C 34.5032 2.17509 2.07631 0
M  V30 364 C 36.0512 2.21817 2.2083 0
M  V30 365 C 36.5262 3.40933 3.05825 0
M  V30 366 N 38.0172 3.41067 3.13412 0
M  V30 367 C 38.7522 4.29885 3.79455 0
M  V30 368 N 38.2482 5.28914 4.47462 0
M  V30 369 N 40.0412 4.17673 3.76173 0
M  V30 370 H 32.1922 2.06202 0.509352 0
M  V30 371 H 34.4552 0.90334 0.287541 0
M  V30 372 H 34.1612 3.12415 1.61524 0
M  V30 373 H 34.0352 2.17206 3.08385 0
M  V30 374 H 36.4222 1.27462 2.66153 0
M  V30 375 H 36.5032 2.2616 1.1952 0
M  V30 376 H 36.1472 4.35586 2.61203 0
M  V30 377 H 36.0772 3.33829 4.07266 0
M  V30 378 H 38.5682 2.69406 2.65007 0
M  V30 379 H 38.8812 5.92973 4.95583 0
M  V30 380 H 37.2262 5.32831 4.46224 0
M  V30 381 H 40.4172 3.39564 3.22202 0
M  V30 382 H 40.5902 4.87098 4.27363 0
M  V30 383 N 33.9963 -1.19345 1.0293 0
M  V30 384 C 34.9063 -2.26245 0.620515 0
M  V30 385 C 35.9223 -1.70486 -0.347928 0
M  V30 386 O 37.0983 -2.00347 -0.205704 0
M  V30 387 C 34.1633 -3.46693 -0.0218957 0
M  V30 388 C 33.2243 -4.17632 0.994102 0
M  V30 389 C 32.4573 -5.32329 0.382253 0
M  V30 390 O 32.6803 -5.64552 -0.814676 0
M  V30 391 O 31.6143 -5.91664 1.10531 0
M  V30 392 H 35.4403 -2.63453 1.51083 0
M  V30 393 H 33.0253 -1.26207 0.799513 0
M  V30 394 H 34.9073 -4.19683 -0.380072 0
M  V30 395 H 33.5823 -3.11333 -0.886209 0
M  V30 396 H 32.4893 -3.4676 1.40387 0
M  V30 397 H 33.8223 -4.56964 1.8288 0
M  V30 398 N 35.4744 -0.807222 -1.35358 0
M  V30 399 C 36.3844 -0.219594 -2.3357 0
M  V30 400 C 37.4004 0.637734 -1.61892 0
M  V30 401 O 38.5764 0.549336 -1.93763 0
M  V30 402 C 35.6414 0.62158 -3.41083 0
M  V30 403 C 34.7024 -0.256315 -4.28534 0
M  V30 404 C 33.9354 0.544807 -5.30912 0
M  V30 405 O 34.1584 1.77944 -5.41934 0
M  V30 406 O 33.0924 -0.0646478 -6.01865 0
M  V30 407 H 36.9184 -1.03208 -2.85625 0
M  V30 408 H 34.5034 -0.569025 -1.38139 0
M  V30 409 H 36.3854 1.10067 -4.06772 0
M  V30 410 H 35.0604 1.41165 -2.91297 0
M  V30 411 H 33.9674 -0.782559 -3.65823 0
M  V30 412 H 35.3004 -1.01034 -4.81719 0
M  V30 413 N 36.9525 1.47285 -0.560781 0
M  V30 414 C 38.1805 2.06855 -0.0430262 0
M  V30 415 C 38.5955 1.41291 1.25229 0
M  V30 416 O 37.9525 0.510648 1.7521 0
M  V30 417 C 38.0035 3.61178 0.152518 0
M  V30 418 O 37.7245 4.24285 -1.0915 0
M  V30 419 C 39.2255 4.37624 0.707145 0
M  V30 420 H 36.4455 0.669319 -0.0474652 0
M  V30 421 H 38.9895 1.89237 -0.77521 0
M  V30 422 H 37.1445 3.78298 0.834843 0
M  V30 423 H 37.5585 5.16868 -0.891482 0
M  V30 424 H 39.0325 5.46271 0.793244 0
M  V30 425 H 39.5095 4.04152 1.71923 0
M  V30 426 H 40.1155 4.25257 0.0604027 0
M  V30 427 N 38.4306 0.297415 1.54768 0
M  V30 428 C 39.8466 -0.0560823 1.59501 0
M  V30 429 C 40.0466 -1.52725 1.31444 0
M  V30 430 O 39.1026 -2.27947 1.08611 0
M  V30 431 C 40.4156 0.338631 2.98787 0
M  V30 432 C 41.9636 0.287097 3.11681 0
M  V30 433 C 42.4386 0.656579 4.53269 0
M  V30 434 N 43.9296 0.608977 4.59179 0
M  V30 435 C 44.6646 0.867385 5.66802 0
M  V30 436 N 44.1606 1.19157 6.82476 0
M  V30 437 N 45.9536 0.794687 5.56454 0
M  V30 438 H 38.1046 1.25624 1.71267 0
M  V30 439 H 40.3676 0.509057 0.799728 0
M  V30 440 H 40.0736 1.36263 3.2423 0
M  V30 441 H 39.9476 -0.309508 3.75928 0
M  V30 442 H 42.3346 -0.727649 2.85988 0
M  V30 443 H 42.4156 0.969809 2.36703 0
M  V30 444 H 42.0596 1.66912 4.7969 0
M  V30 445 H 41.9896 -0.0481649 5.26578 0
M  V30 446 H 44.4806 0.369198 3.76092 0
M  V30 447 H 44.7936 1.37482 7.60473 0
M  V30 448 H 43.1386 1.22958 6.84037 0
M  V30 449 H 46.3296 0.541098 4.64962 0
M  V30 450 H 46.5026 0.999445 6.40246 0
M  V30 451 N 39.9087 -1.5758 0.0250728 0
M  V30 452 C 40.8387 -2.13007 -0.956575 0
M  V30 453 C 41.8197 -1.0452 -1.342 0
M  V30 454 O 43.0047 -1.32332 -1.42133 0
M  V30 455 C 40.1347 -2.65386 -2.24026 0
M  V30 456 C 39.0887 -3.78623 -1.99571 0
M  V30 457 C 38.4147 -4.17414 -3.3417 0
M  V30 458 C 39.7147 -5.04867 -1.33814 0
M  V30 459 H 41.4087 -2.9528 -0.494991 0
M  V30 460 H 38.9547 -1.42042 -0.236651 0
M  V30 461 H 40.9077 -3.02794 -2.93076 0
M  V30 462 H 39.6317 -1.80268 -2.72343 0
M  V30 463 H 38.2907 -3.41646 -1.32941 0
M  V30 464 H 37.9387 -3.29284 -3.80238 0
M  V30 465 H 37.6387 -4.93719 -3.18615 0
M  V30 466 H 39.1627 -4.57402 -4.04495 0
M  V30 467 H 40.5767 -5.39888 -1.92857 0
M  V30 468 H 38.9737 -5.86144 -1.28669 0
M  V30 469 H 40.0437 -4.83904 -0.310561 0
M  V30 470 N 41.3868 0.248026 -1.55636 0
M  V30 471 C 42.6118 0.998028 -1.81808 0
M  V30 472 C 43.0368 1.78207 -0.601979 0
M  V30 473 O 42.3948 1.75653 0.448961 0
M  V30 474 C 42.4428 1.9125 -3.05705 0
M  V30 475 O 41.5468 3.00406 -2.82542 0
M  V30 476 H 40.8878 0.284045 -0.600179 0
M  V30 477 H 43.4178 0.269357 -2.02819 0
M  V30 478 H 43.4278 2.32737 -3.35108 0
M  V30 479 H 42.1028 1.33602 -3.93857 0
M  V30 480 H 40.6798 2.63056 -2.64303 0
M  V30 481 N 42.8649 1.48995 0.513639 0
M  V30 482 C 44.2809 1.35478 0.843682 0
M  V30 483 C 44.4809 0.378213 1.97919 0
M  V30 484 O 43.5369 -0.194689 2.51748 0
M  V30 485 C 44.8499 2.75901 1.1958 0
M  V30 486 C 46.3979 2.84509 1.30474 0
M  V30 487 C 46.8729 4.25671 1.69021 0
M  V30 488 N 48.3639 4.28422 1.76094 0
M  V30 489 C 49.0989 5.34601 2.07338 0
M  V30 490 N 48.5949 6.5104 2.36894 0
M  V30 491 N 50.3879 5.22007 2.08483 0
M  V30 492 H 42.5389 2.11092 -0.235328 0
M  V30 493 H 44.8019 0.947039 -0.0426669 0
M  V30 494 H 44.5079 3.49001 0.434913 0
M  V30 495 H 44.3819 3.10467 2.1422 0
M  V30 496 H 46.7689 2.11655 2.05637 0
M  V30 497 H 46.8499 2.53542 0.339155 0
M  V30 498 H 46.4939 4.99048 0.944135 0
M  V30 499 H 46.4239 4.54094 2.66658 0
M  V30 500 H 48.9149 3.44441 1.55464 0
M  V30 501 H 49.2279 7.2779 2.59887 0
M  V30 502 H 47.5729 6.54287 2.34378 0
M  V30 503 H 50.7639 4.30051 1.84861 0
M  V30 504 H 50.9369 6.04854 2.325 0
M  V30 505 N 44.343 -0.763751 1.37857 0
M  V30 506 C 45.583 -1.53551 1.34913 0
M  V30 507 C 45.947 -1.91895 -0.0635882 0
M  V30 508 O 47.148 -2.67916 -0.217825 0
M  V30 509 C 45.419 -2.76126 2.26912 0
M  V30 510 S 46.978 -3.66105 2.41893 0
M  V30 511 H 43.796 -0.52559 0.478828 0
M  V30 512 H 46.398 -0.897435 1.73685 0
M  V30 513 H 45.102 -2.4605 3.28463 0
M  V30 514 H 44.633 -3.44887 1.89253 0
M  V30 515 H 46.648 -4.68473 1.63545 0
M  V30 516 N 45.8211 -1.22559 -0.990812 0
M  V30 517 C 46.7511 -1.0218 -2.09956 0
M  V30 518 C 47.7321 0.0579394 -1.70001 0
M  V30 519 O 48.9171 -0.104684 -1.93918 0
M  V30 520 C 46.0471 -0.601023 -3.4206 0
M  V30 521 C 45.0011 -1.62694 -3.95872 0
M  V30 522 C 44.3271 -1.06193 -5.24049 0
M  V30 523 C 45.6271 -3.01743 -4.2632 0
M  V30 524 H 47.3211 -1.94916 -2.27262 0
M  V30 525 H 44.8671 -0.938566 -1.09211 0
M  V30 526 H 46.8201 -0.445561 -4.19038 0
M  V30 527 H 45.5441 0.362005 -3.24588 0
M  V30 528 H 44.2031 -1.77021 -3.21028 0
M  V30 529 H 43.8511 -0.0901903 -5.02919 0
M  V30 530 H 43.5511 -1.74732 -5.61019 0
M  V30 531 H 45.0751 -0.918092 -6.03658 0
M  V30 532 H 46.4891 -2.90777 -4.94087 0
M  V30 533 H 44.8861 -3.67425 -4.74467 0
M  V30 534 H 45.9561 -3.51518 -3.34011 0
M  V30 535 N 47.2992 1.18797 -1.03562 0
M  V30 536 C 48.2472 2.24297 -0.615905 0
M  V30 537 C 49.2412 1.65643 0.354808 0
M  V30 538 O 50.4472 1.78618 0.22265 0
M  V30 539 H 46.8222 0.729909 -0.180934 0
M  V30 540 H 48.7932 2.5701 -1.5162 0
M  V30 541 C 47.5422 3.47698 0.0104735 0
M  V30 542 H 46.8652 3.93125 -0.727509 0
M  V30 543 H 48.3052 4.23159 0.266995 0
M  V30 544 C 46.7642 3.12489 1.25905 0
M  V30 545 O 47.2942 3.25761 2.35038 0
M  V30 546 N 45.5002 2.6686 1.15039 0
M  V30 547 H 45.0472 2.56261 0.262328 0
M  V30 548 H 45.0052 2.43674 1.98672 0
M  V30 549 N 48.7773 0.814389 1.34928 0
M  V30 550 C 50.0053 0.411136 2.02774 0
M  V30 551 C 50.4203 -0.980316 1.61354 0
M  V30 552 O 49.7773 -1.63299 0.814847 0
M  V30 553 C 49.8283 0.493865 3.58111 0
M  V30 554 O 49.5493 1.83047 3.98027 0
M  V30 555 C 51.0503 0.0844174 4.4322 0
M  V30 556 H 48.2703 0.166037 0.650133 0
M  V30 557 H 50.8143 1.10018 1.72384 0
M  V30 558 H 48.9693 -0.147006 3.87121 0
M  V30 559 H 49.3833 1.79872 4.92693 0
M  V30 560 H 50.8573 0.193404 5.51661 0
M  V30 561 H 51.3343 -0.97113 4.28329 0
M  V30 562 H 51.9403 0.69875 4.19521 0
M  V30 563 N 50.2554 -1.46986 0.568584 0
M  V30 564 C 51.5024 -2.02441 0.0487986 0
M  V30 565 C 51.8304 -1.44169 -1.30559 0
M  V30 566 O 51.0854 -0.591213 -1.86556 0
M  V30 567 C 51.3844 -3.57306 -0.081836 0
M  V30 568 C 51.0504 -4.34552 1.20313 0
M  V30 569 C 49.7124 -4.55376 1.5552 0
M  V30 570 C 52.0644 -4.79016 2.05411 0
M  V30 571 C 49.3924 -5.17913 2.7565 0
M  V30 572 C 51.7444 -5.42879 3.24754 0
M  V30 573 C 50.4084 -5.61933 3.60261 0
M  V30 574 H 49.6784 -0.740785 0.0178567 0
M  V30 575 H 52.3254 -1.76525 0.742384 0
M  V30 576 H 50.6304 -3.8228 -0.858463 0
M  V30 577 H 52.3274 -3.97876 -0.499546 0
M  V30 578 H 48.9174 -4.18631 0.919014 0
M  V30 579 H 53.1014 -4.62696 1.79516 0
M  V30 580 H 48.3574 -5.30858 3.03315 0
M  V30 581 H 52.5314 -5.76293 3.90973 0
M  V30 582 H 50.1584 -6.10161 4.53439 0
M  V30 583 N 51.7335 -0.305618 -1.54608 0
M  V30 584 C 53.0105 0.355652 -1.92339 0
M  V30 585 C 53.3905 1.71324 -1.23335 0
M  V30 586 O 52.7385 2.25473 -0.370702 0
M  V30 587 C 52.9485 0.46572 -3.45879 0
M  V30 588 C 54.2965 0.734426 -4.182 0
M  V30 589 O 55.3205 0.54935 -3.51938 0
M  V30 590 O 54.1795 1.09024 -5.35515 0
M  V30 591 H 51.2735 0.199666 -0.802535 0
M  V30 592 H 53.8195 -0.354017 -1.65966 0
M  V30 593 H 52.5915 -0.488461 -3.88239 0
M  V30 594 H 52.2145 1.22367 -3.78301 0
M  V30 595 N 53.2116 1.57565 -0.0334293 0
M  V30 596 C 54.1416 2.13511 0.945265 0
M  V30 597 C 55.1226 1.05231 1.33643 0
M  V30 598 O 56.3076 1.33084 1.41429 0
M  V30 599 C 53.4376 2.6657 2.22616 0
M  V30 600 C 52.3916 3.79676 1.97561 0
M  V30 601 C 51.7176 4.1918 3.31952 0
M  V30 602 C 53.0176 5.0557 1.31135 0
M  V30 603 H 54.7116 2.95538 0.479325 0
M  V30 604 H 52.2576 1.42166 0.229115 0
M  V30 605 H 54.2106 3.04344 2.91466 0
M  V30 606 H 52.9346 1.8171 2.71384 0
M  V30 607 H 51.5936 3.42347 1.31127 0
M  V30 608 H 51.2416 3.31296 3.78487 0
M  V30 609 H 50.9416 4.95402 3.15992 0
M  V30 610 H 52.4656 4.59541 4.02063 0
M  V30 611 H 53.8796 5.40903 1.89992 0
M  V30 612 H 52.2766 5.86818 1.25559 0
M  V30 613 H 53.3466 4.84062 0.284894 0
M  V30 614 N 54.6897 -0.239769 1.55765 0
M  V30 615 C 55.9357 -0.968234 1.78194 0
M  V30 616 C 56.2687 -1.84701 0.599938 0
M  V30 617 O 55.5437 -1.9031 -0.401524 0
M  V30 618 C 55.8267 -1.8227 3.10564 0
M  V30 619 C 55.6797 -0.971633 4.3918 0
M  V30 620 C 56.9987 -2.80388 3.39221 0
M  V30 621 H 54.1177 -0.350572 0.648281 0
M  V30 622 H 56.7597 -0.238259 1.885 0
M  V30 623 H 54.9097 -2.44507 3.01908 0
M  V30 624 H 56.5817 -0.367408 4.59835 0
M  V30 625 H 54.8247 -0.276276 4.32919 0
M  V30 626 H 55.4957 -1.60346 5.28198 0
M  V30 627 H 57.9717 -2.28287 3.47885 0
M  V30 628 H 56.8477 -3.3729 4.33044 0
M  V30 629 H 57.1087 -3.57212 2.60484 0
M  V30 630 N 56.1678 -1.49265 -0.50573 0
M  V30 631 C 57.1308 -1.65075 -1.59006 0
M  V30 632 C 58.1308 -0.522768 -1.52065 0
M  V30 633 O 59.3208 -0.789117 -1.55302 0
M  V30 634 C 56.4528 -1.64369 -2.98656 0
M  V30 635 H 57.6458 -2.61784 -1.46319 0
M  V30 636 H 55.1988 -1.38226 -0.729616 0
M  V30 637 H 55.9338 -0.692272 -3.16825 0
M  V30 638 H 55.7188 -2.46282 -3.05103 0
M  V30 639 H 57.2088 -1.78674 -3.77446 0
M  V30 640 N 57.6459 0.756429 -1.3826 0
M  V30 641 C 58.5759 1.88374 -1.37976 0
M  V30 642 C 59.5569 1.68311 -0.246082 0
M  V30 643 O 60.7419 1.88944 -0.44874 0
M  V30 644 C 57.8719 3.25864 -1.20125 0
M  V30 645 C 56.8259 3.60523 -2.30666 0
M  V30 646 C 56.1519 4.9672 -1.97923 0
M  V30 647 C 57.4519 3.65692 -3.72916 0
M  V30 648 H 59.1459 1.88869 -2.32312 0
M  V30 649 H 56.6919 0.907272 -1.11824 0
M  V30 650 H 58.6449 4.0438 -1.18552 0
M  V30 651 H 57.3689 3.25841 -0.222498 0
M  V30 652 H 56.0279 2.84324 -2.3142 0
M  V30 653 H 55.6759 4.93253 -0.985393 0
M  V30 654 H 55.3759 5.20878 -2.71955 0
M  V30 655 H 56.8999 5.77618 -1.97964 0
M  V30 656 H 58.3139 4.34328 -3.74208 0
M  V30 657 H 56.7109 4.01358 -4.4613 0
M  V30 658 H 57.7809 2.65987 -4.05436 0
M  V30 659 N 59.124 1.23083 0.984299 0
M  V30 660 C 60.372 1.05848 1.72165 0
M  V30 661 C 60.693 -0.406049 1.90726 0
M  V30 662 O 59.963 -1.29139 1.47309 0
M  V30 663 H 58.543 0.388685 0.637913 0
M  V30 664 H 61.205 1.54736 1.18503 0
M  V30 665 H 60.301 1.54327 2.71274 0
M  V30 666 N 60.6021 -1.18246 1.0419 0
M  V30 667 C 61.8481 -1.88536 0.747122 0
M  V30 668 C 62.1811 -1.80223 -0.723409 0
M  V30 669 O 61.4561 -1.20337 -1.52804 0
M  V30 670 C 61.7391 -3.38968 1.21544 0
M  V30 671 C 61.5921 -3.56084 2.74816 0
M  V30 672 C 62.9111 -4.32648 0.806482 0
M  V30 673 H 60.0301 -0.684619 0.272883 0
M  V30 674 H 62.6721 -1.39113 1.29413 0
M  V30 675 H 60.8221 -3.8119 0.750081 0
M  V30 676 H 62.4941 -3.22946 3.29399 0
M  V30 677 H 60.7371 -2.98699 3.14582 0
M  V30 678 H 61.4081 -4.61639 3.02644 0
M  V30 679 H 63.8841 -3.98211 1.20695 0
M  V30 680 H 62.7601 -5.36462 1.1619 0
M  V30 681 H 63.0211 -4.41146 -0.29029 0
M  V30 682 N 62.0802 -0.821533 -1.34494 0
M  V30 683 C 63.3282 -0.408139 -1.97936 0
M  V30 684 C 63.6492 1.03193 -1.65457 0
M  V30 685 O 62.9192 1.71622 -0.944595 0
M  V30 686 H 61.4992 -0.147928 -0.732206 0
M  V30 687 H 64.1612 -1.05067 -1.64155 0
M  V30 688 H 63.2572 -0.52601 -3.07635 0
M  V30 689 N 63.5583 1.46682 -0.576371 0
M  V30 690 C 64.7833 2.07304 -0.0630475 0
M  V30 691 C 65.2083 1.42329 1.2298 0
M  V30 692 O 64.5663 0.504865 1.74129 0
M  V30 693 C 64.6143 3.60472 0.095895 0
M  V30 694 O 63.7183 3.95927 1.15394 0
M  V30 695 H 63.0593 0.661288 -0.0599463 0
M  V30 696 H 65.5893 1.88417 -0.797511 0
M  V30 697 H 65.5993 4.06865 0.304071 0
M  V30 698 H 64.2743 4.07157 -0.84828 0
M  V30 699 H 62.8513 3.61252 0.924724 0
M  V30 700 N 65.0364 0.313813 1.54444 0
M  V30 701 C 66.2644 -0.293918 2.04802 0
M  V30 702 C 66.6794 -1.46537 1.19047 0
M  V30 703 O 66.0364 -1.81182 0.218939 0
M  V30 704 C 66.0874 -0.737806 3.53891 0
M  V30 705 O 65.8084 0.387038 4.36387 0
M  V30 706 C 67.3094 -1.40936 4.203 0
M  V30 707 H 64.5294 -0.0620057 0.668129 0
M  V30 708 H 67.0734 0.457169 1.99324 0
M  V30 709 H 65.2284 -1.43889 3.59687 0
M  V30 710 H 65.6424 0.0391274 5.24485 0
M  V30 711 H 67.1164 -1.67099 5.26101 0
M  V30 712 H 67.5934 -2.35355 3.70816 0
M  V30 713 H 68.1994 -0.751117 4.18615 0
M  V30 714 N 66.5145 -1.57545 0.0417849 0
M  V30 715 C 67.4445 -2.14009 -0.933929 0
M  V30 716 C 68.4255 -1.05938 -1.33083 0
M  V30 717 O 69.6105 -1.33833 -1.40721 0
M  V30 718 C 66.7405 -2.67747 -2.21199 0
M  V30 719 C 65.6945 -3.80718 -1.95544 0
M  V30 720 C 65.0205 -4.20935 -3.29724 0
M  V30 721 C 66.3205 -5.06258 -1.28452 0
M  V30 722 H 68.0145 -2.95788 -0.463645 0
M  V30 723 H 65.5605 -1.42285 -0.221573 0
M  V30 724 H 67.5135 -3.05886 -2.89848 0
M  V30 725 H 66.2375 -1.83147 -2.70416 0
M  V30 726 H 64.8965 -3.43037 -1.2931 0
M  V30 727 H 64.5445 -3.33298 -3.76724 0
M  V30 728 H 64.2445 -4.9707 -3.13361 0
M  V30 729 H 65.7685 -4.61666 -3.9962 0
M  V30 730 H 67.1825 -5.41903 -1.8712 0
M  V30 731 H 65.5795 -5.87475 -1.22445 0
M  V30 732 H 66.6495 -4.84207 -0.259219 0
M  V30 733 N 67.9926 0.231505 -1.5589 0
M  V30 734 C 69.2406 0.955461 -1.78088 0
M  V30 735 C 69.5616 1.85262 -0.608533 0
M  V30 736 O 68.8316 1.92277 0.375035 0
M  V30 737 H 67.4116 0.355787 -0.656829 0
M  V30 738 H 70.0736 0.245751 -1.93344 0
M  V30 739 H 69.1696 1.56814 -2.69844 0
M  V30 740 N 69.4707 1.49531 0.497807 0
M  V30 741 C 70.4337 1.65916 1.58128 0
M  V30 742 C 71.4337 0.530825 1.51786 0
M  V30 743 O 72.6237 0.797342 1.54881 0
M  V30 744 C 69.7557 1.65951 2.9778 0
M  V30 745 H 70.9487 2.62556 1.44929 0
M  V30 746 H 68.5017 1.38611 0.722275 0
M  V30 747 H 69.2367 0.709065 3.16453 0
M  V30 748 H 69.0217 2.47897 3.03792 0
M  V30 749 H 70.5117 1.80673 3.76493 0
M  V30 750 N 70.9488 -0.749086 1.3866 0
M  V30 751 C 72.1968 -1.50535 1.34847 0
M  V30 752 C 72.5178 -1.94909 -0.0595016 0
M  V30 753 O 71.7878 -1.67973 -1.00806 0
M  V30 754 H 70.3678 -0.558395 0.49619 0
M  V30 755 H 73.0298 -0.890165 1.73384 0
M  V30 756 H 72.1258 -2.39413 2.00219 0
M  V30 757 N 72.4269 -1.23603 -0.977757 0
M  V30 758 C 73.6729 -1.07129 -1.72195 0
M  V30 759 C 74.0059 0.390501 -1.90233 0
M  V30 760 O 73.2809 1.28902 -1.45653 0
M  V30 761 C 73.5639 -1.80031 -3.11867 0
M  V30 762 C 73.4169 -3.33899 -3.01383 0
M  V30 763 C 74.7359 -1.56492 -4.11337 0
M  V30 764 H 71.8549 -0.390571 -0.624999 0
M  V30 765 H 74.4969 -1.52142 -1.13811 0
M  V30 766 H 72.6469 -1.41768 -3.6171 0
M  V30 767 H 74.3189 -3.81699 -2.59043 0
M  V30 768 H 72.5619 -3.62796 -2.37827 0
M  V30 769 H 73.2329 -3.801 -4.00285 0
M  V30 770 H 75.7089 -1.89757 -3.70313 0
M  V30 771 H 74.5849 -2.09973 -5.07151 0
M  V30 772 H 74.8459 -0.500874 -4.39254 0
M  V30 773 N 73.905 1.17692 -1.04816 0
M  V30 774 C 75.135 1.91508 -0.775128 0
M  V30 775 C 75.543 1.76844 0.67253 0
M  V30 776 O 74.886 1.10057 1.47082 0
M  V30 777 C 74.948 3.43167 -1.0713 0
M  V30 778 C 74.612 3.81612 -2.51438 0
M  V30 779 C 75.609 3.84772 -3.49638 0
M  V30 780 C 73.294 4.12687 -2.86348 0
M  V30 781 C 75.288 4.18469 -4.80794 0
M  V30 782 C 72.975 4.46053 -4.17708 0
M  V30 783 C 73.973 4.48921 -5.14741 0
M  V30 784 O 73.661 4.81504 -6.43746 0
M  V30 785 H 73.393 0.614575 -0.281555 0
M  V30 786 H 75.947 1.50206 -1.40098 0
M  V30 787 H 74.177 3.84745 -0.388342 0
M  V30 788 H 75.866 3.98239 -0.784883 0
M  V30 789 H 76.632 3.60893 -3.24008 0
M  V30 790 H 72.511 4.09627 -2.11486 0
M  V30 791 H 76.055 4.20623 -5.56527 0
M  V30 792 H 71.952 4.69393 -4.43103 0
M  V30 793 H 72.72 4.99377 -6.4851 0
M  V30 794 N 75.3831 0.828654 1.34056 0
M  V30 795 C 76.6291 0.42008 1.98402 0
M  V30 796 C 76.9621 -1.01564 1.65525 0
M  V30 797 O 76.2371 -1.70834 0.929831 0
M  V30 798 C 76.5201 0.62927 3.54559 0
M  V30 799 C 76.3731 2.11152 3.97159 0
M  V30 800 C 77.6921 0.0688756 4.40046 0
M  V30 801 H 74.8111 0.154104 0.720709 0
M  V30 802 H 77.4531 1.04228 1.5886 0
M  V30 803 H 75.6031 0.0996418 3.88372 0
M  V30 804 H 77.2751 2.70522 3.73651 0
M  V30 805 H 75.5181 2.59985 3.47261 0
M  V30 806 H 76.1891 2.20868 5.05887 0
M  V30 807 H 78.6651 0.521458 4.1282 0
M  V30 808 H 77.5411 0.245006 5.48353 0
M  V30 809 H 77.8021 -1.0266 4.30015 0
M  V30 810 N 76.8612 -1.46375 0.584142 0
M  V30 811 C 77.7912 -2.33103 -0.136037 0
M  V30 812 C 78.7722 -1.45431 -0.882255 0
M  V30 813 O 79.9572 -1.74246 -0.857434 0
M  V30 814 C 77.0872 -3.27731 -1.14933 0
M  V30 815 C 76.0412 -4.24855 -0.517862 0
M  V30 816 C 75.3672 -5.09001 -1.63773 0
M  V30 817 C 76.6672 -5.19439 0.545886 0
M  V30 818 H 78.3612 -2.93568 0.588086 0
M  V30 819 H 75.9072 -1.41166 0.284259 0
M  V30 820 H 77.8602 -3.87261 -1.66153 0
M  V30 821 H 76.5842 -2.65377 -1.90375 0
M  V30 822 H 75.2432 -3.6659 -0.0267361 0
M  V30 823 H 74.8912 -4.43031 -2.38185 0
M  V30 824 H 74.5912 -5.74777 -1.22085 0
M  V30 825 H 76.1152 -5.71396 -2.15266 0
M  V30 826 H 77.5292 -5.73177 0.118704 0
M  V30 827 H 75.9262 -5.93566 0.88317 0
M  V30 828 H 76.9962 -4.63285 1.43162 0
M  V30 829 N 78.3393 -0.321999 -1.54275 0
M  V30 830 C 79.3023 0.531975 -2.22941 0
M  V30 831 C 80.3023 1.04478 -1.22234 0
M  V30 832 O 81.4923 0.937452 -1.46825 0
M  V30 833 C 78.6243 1.73874 -2.93224 0
M  V30 834 H 79.8173 -0.0682612 -2.99822 0
M  V30 835 H 77.3703 -0.0730644 -1.56129 0
M  V30 836 H 78.1053 2.37825 -2.20476 0
M  V30 837 H 77.8903 1.37847 -3.6707 0
M  V30 838 H 79.3803 2.34496 -3.45545 0
M  V30 839 N 79.8174 1.5752 -0.0501392 0
M  V30 840 C 81.0654 1.9227 0.622642 0
M  V30 841 C 81.3864 0.929083 1.71444 0
M  V30 842 O 80.6564 -0.0262186 1.95882 0
M  V30 843 H 79.2364 0.709739 0.232981 0
M  V30 844 H 81.8984 1.94628 -0.102898 0
M  V30 845 H 80.9944 2.93479 1.06191 0
M  V30 846 N 81.2955 -0.223234 1.56011 0
M  V30 847 C 82.2585 -1.26014 1.9145 0
M  V30 848 C 83.2585 -1.3989 0.792937 0
M  V30 849 O 84.4485 -1.38184 1.0607 0
M  V30 850 C 81.5805 -2.63422 2.16383 0
M  V30 851 H 82.7735 -0.95796 2.84189 0
M  V30 852 H 80.3265 -0.463576 1.49267 0
M  V30 853 H 81.0615 -2.98741 1.2619 0
M  V30 854 H 80.8465 -2.54728 2.98088 0
M  V30 855 H 82.3365 -3.38249 2.44903 0
M  V30 856 N 82.7736 -1.49793 -0.48987 0
M  V30 857 C 84.0196 -1.60078 -1.24511 0
M  V30 858 C 84.3526 -0.291608 -1.91998 0
M  V30 859 O 83.6276 0.705647 -1.81248 0
M  V30 860 C 83.9106 -2.76791 -2.30345 0
M  V30 861 C 83.7636 -4.17535 -1.67286 0
M  V30 862 C 85.0826 -2.89111 -3.31817 0
M  V30 863 H 82.2016 -0.582645 -0.451324 0
M  V30 864 H 84.8436 -1.82117 -0.541612 0
M  V30 865 H 82.9936 -2.5813 -2.90346 0
M  V30 866 H 84.6656 -4.4774 -1.11026 0
M  V30 867 H 82.9086 -4.22665 -0.976577 0
M  V30 868 H 83.5796 -4.95094 -2.44103 0
M  V30 869 H 86.0556 -3.06133 -2.81819 0
M  V30 870 H 84.9316 -3.72433 -4.03219 0
M  V30 871 H 85.1926 -1.9893 -3.94815 0
M  V30 872 N 84.2517 0.741722 -1.39055 0
M  V30 873 C 85.2147 1.83733 -1.37021 0
M  V30 874 C 86.2147 1.58542 -0.268534 0
M  V30 875 O 87.4047 1.66067 -0.526076 0
M  V30 876 C 84.5367 3.2141 -1.13617 0
M  V30 877 H 85.7297 1.86941 -2.34506 0
M  V30 878 H 83.2827 0.944676 -1.24521 0
M  V30 879 H 84.0177 3.23865 -0.167863 0
M  V30 880 H 83.8027 3.4109 -1.93391 0
M  V30 881 H 85.2927 4.01477 -1.14918 0
M  V30 882 N 85.7298 1.2412 0.971189 0
M  V30 883 C 87.1458 1.00584 1.23916 0
M  V30 884 C 87.3458 -0.287481 1.99439 0
M  V30 885 O 86.4018 -1.00454 2.31658 0
M  V30 886 C 87.7148 2.21864 2.0297 0
M  V30 887 C 89.2628 2.26452 2.16076 0
M  V30 888 C 89.7378 3.47343 2.98524 0
M  V30 889 N 91.2288 3.47639 3.06107 0
M  V30 890 C 91.9638 4.37837 3.70251 0
M  V30 891 N 91.4598 5.38286 4.36142 0
M  V30 892 N 93.2528 4.25558 3.67228 0
M  V30 893 H 85.4038 2.07236 0.465499 0
M  V30 894 H 87.6668 0.909236 0.268315 0
M  V30 895 H 87.3728 3.15771 1.54861 0
M  V30 896 H 87.2468 2.23698 3.03709 0
M  V30 897 H 89.6338 1.33078 2.6339 0
M  V30 898 H 89.7148 2.28645 1.14696 0
M  V30 899 H 89.3588 4.41029 2.51905 0
M  V30 900 H 89.2888 3.42393 4.00093 0
M  V30 901 H 91.7798 2.74966 2.59233 0
M  V30 902 H 92.0928 6.03352 4.82894 0
M  V30 903 H 90.4378 5.42176 4.34822 0
M  V30 904 H 93.6288 3.46322 3.14927 0
M  V30 905 H 93.8018 4.96054 4.16935 0
M  V30 906 N 87.2079 -1.17134 1.05439 0
M  V30 907 C 88.1179 -2.24878 0.668365 0
M  V30 908 C 89.1339 -1.71186 -0.311687 0
M  V30 909 O 90.3099 -2.00738 -0.163161 0
M  V30 910 C 87.3749 -3.46662 0.051648 0
M  V30 911 C 86.4359 -4.15429 1.08246 0
M  V30 912 C 85.6689 -5.31399 0.495082 0
M  V30 913 O 85.8919 -5.66153 -0.694743 0
M  V30 914 O 84.8259 -5.89187 1.23056 0
M  V30 915 H 88.6519 -2.60189 1.56637 0
M  V30 916 H 86.2369 -1.24482 0.826104 0
M  V30 917 H 88.1189 -4.20394 -0.290966 0
M  V30 918 H 86.7939 -3.13142 -0.819971 0
M  V30 919 H 85.7009 -3.43704 1.47711 0
M  V30 920 H 87.0339 -4.52982 1.92532 0
M  V30 921 N 88.686 -0.835752 -1.33615 0
M  V30 922 C 89.634 -0.255238 -2.31195 0
M  V30 923 C 90.628 0.61107 -1.57995 0
M  V30 924 O 91.834 0.500979 -1.72888 0
M  V30 925 H 88.209 -0.0638085 -0.749288 0
M  V30 926 H 90.18 -1.09283 -2.77669 0
M  V30 927 C 88.929 0.55754 -3.43201 0
M  V30 928 H 88.252 -0.0997553 -3.99676 0
M  V30 929 H 89.692 0.929622 -4.13683 0
M  V30 930 C 88.151 1.73515 -2.88781 0
M  V30 931 O 88.681 2.83376 -2.84712 0
M  V30 932 N 86.887 1.55603 -2.4543 0
M  V30 933 H 86.434 0.662354 -2.48939 0
M  V30 934 H 86.392 2.34545 -2.09371 0
M  V30 935 N 90.1641 1.46063 -0.591896 0
M  V30 936 C 91.1271 2.28854 0.125973 0
M  V30 937 C 92.1271 1.38903 0.810107 0
M  V30 938 O 93.3171 1.61186 0.66066 0
M  V30 939 C 90.4491 3.19526 1.1881 0
M  V30 940 H 91.6421 2.93802 -0.601717 0
M  V30 941 H 89.1951 1.52325 -0.350254 0
M  V30 942 H 89.9301 2.59345 1.94707 0
M  V30 943 H 89.7151 3.85766 0.701936 0
M  V30 944 H 91.2051 3.81817 1.69132 0
M  V30 945 N 91.6422 0.330177 1.54103 0
M  V30 946 C 92.8902 -0.269871 2.0029 0
M  V30 947 C 93.2112 -1.52133 1.21986 0
M  V30 948 O 92.4812 -1.93212 0.323438 0
M  V30 949 H 91.0612 -0.10271 0.739905 0
M  V30 950 H 93.7232 0.448249 1.89675 0
M  V30 951 H 92.8192 -0.52166 3.07709 0
M  V30 952 N 93.1203 -1.57491 0.0584922 0
M  V30 953 C 94.5313 -1.80526 -0.476138 0
M  V30 954 C 94.8823 -0.971334 -1.70469 0
M  V30 955 O 94.0073 -0.190012 -2.15564 0
M  V30 956 C 94.6023 -3.27424 -0.870587 0
M  V30 957 C 93.1613 -3.51351 -1.35015 0
M  V30 958 C 92.3083 -2.75343 -0.32887 0
M  V30 959 H 95.2593 -1.56133 0.284312 0
M  V30 960 H 95.2803 -3.38745 -1.73299 0
M  V30 961 H 94.7923 -3.88093 0.0237627 0
M  V30 962 H 92.8933 -2.95971 -2.26345 0
M  V30 963 H 93.0063 -4.60059 -1.33726 0
M  V30 964 H 91.3703 -2.417 -0.803321 0
M  V30 965 H 92.1533 -3.38743 0.557521 0
M  V30 966 N 94.5984 0.214957 -1.56127 0
M  V30 967 C 95.5614 1.24997 -1.92116 0
M  V30 968 C 96.5614 1.39467 -0.800344 0
M  V30 969 O 97.7514 1.37619 -1.06802 0
M  V30 970 C 94.8834 2.62271 -2.17777 0
M  V30 971 H 96.0764 0.942875 -2.84693 0
M  V30 972 H 93.6294 0.455654 -1.49511 0
M  V30 973 H 94.3644 2.98068 -1.27773 0
M  V30 974 H 94.1494 2.53143 -2.99434 0
M  V30 975 H 95.6394 3.36946 -2.46693 0
M  V30 976 N 96.0765 1.50051 0.48192 0
M  V30 977 C 97.3255 1.59741 1.23149 0
M  V30 978 C 97.6385 0.298163 1.93314 0
M  V30 979 O 98.8445 0.273835 2.70116 0
M  V30 980 C 97.3005 2.81926 2.23708 0
M  V30 981 C 96.9085 4.18685 1.59396 0
M  V30 982 C 98.6525 3.00956 2.99375 0
M  V30 983 C 96.5595 5.3207 2.58178 0
M  V30 984 H 95.4895 0.594838 0.46334 0
M  V30 985 H 98.1405 1.76467 0.503169 0
M  V30 986 H 96.5225 2.58736 2.99786 0
M  V30 987 H 97.6965 4.52088 0.891811 0
M  V30 988 H 96.0115 4.05171 0.960503 0
M  V30 989 H 98.6085 3.82836 3.73283 0
M  V30 990 H 98.9515 2.12258 3.58123 0
M  V30 991 H 99.4845 3.24277 2.30411 0
M  V30 992 H 96.2235 6.22888 2.04184 0
M  V30 993 H 95.7435 5.03098 3.26577 0
M  V30 994 H 97.4225 5.62196 3.20225 0
M  V30 995 N 97.5546 -0.734337 1.39446 0
M  V30 996 C 98.8006 -1.49613 1.36908 0
M  V30 997 C 99.1336 -1.94169 -0.0347829 0
M  V30 998 O 98.4086 -1.66833 -0.999847 0
M  V30 999 C 98.6916 -2.73534 2.34203 0
M  V30 1000 C 98.5446 -2.34993 3.83534 0
M  V30 1001 C 99.8636 -3.75635 2.29317 0
M  V30 1002 H 96.9826 -0.542714 0.498629 0
M  V30 1003 H 99.6246 -0.839597 1.70443 0
M  V30 1004 H 97.7746 -3.29553 2.05736 0
M  V30 1005 H 99.4466 -1.84601 4.22753 0
M  V30 1006 H 97.6896 -1.67213 4.00278 0
M  V30 1007 H 98.3606 -3.23738 4.47099 0
M  V30 1008 H 100.837 -3.29203 2.54489 0
M  V30 1009 H 99.7126 -4.60008 2.99472 0
M  V30 1010 H 99.9736 -4.22603 1.29842 0
M  V30 1011 N 99.0327 -1.24633 -0.964593 0
M  V30 1012 C 100.282 -1.08188 -1.7023 0
M  V30 1013 C 100.595 0.37873 -1.91898 0
M  V30 1014 O 101.801 0.663427 -2.6327 0
M  V30 1015 C 100.257 -1.88773 -3.06419 0
M  V30 1016 C 99.8647 -3.39263 -2.92582 0
M  V30 1017 C 101.609 -1.80867 -3.84041 0
M  V30 1018 C 99.5157 -4.1218 -4.24101 0
M  V30 1019 H 98.4457 -0.401245 -0.638372 0
M  V30 1020 H 101.097 -1.48742 -1.07462 0
M  V30 1021 H 99.4787 -1.41035 -3.70034 0
M  V30 1022 H 100.653 -3.94603 -2.37961 0
M  V30 1023 H 98.9677 -3.48154 -2.28424 0
M  V30 1024 H 101.565 -2.32646 -4.81435 0
M  V30 1025 H 101.908 -0.774543 -4.09031 0
M  V30 1026 H 102.441 -2.26301 -3.27159 0
M  V30 1027 H 99.1797 -5.15965 -4.04303 0
M  V30 1028 H 98.6997 -3.61626 -4.78526 0
M  V30 1029 H 100.379 -4.19349 -4.92702 0
M  V30 1030 N 100.511 1.16574 -1.06058 0
M  V30 1031 C 101.736 1.91493 -0.796562 0
M  V30 1032 C 102.161 1.76773 0.642868 0
M  V30 1033 O 101.519 1.09142 1.44768 0
M  V30 1034 C 101.567 3.40293 -1.19303 0
M  V30 1035 O 100.671 4.11074 -0.330394 0
M  V30 1036 H 100.012 0.596678 -0.291326 0
M  V30 1037 H 102.542 1.47708 -1.41575 0
M  V30 1038 H 102.552 3.91057 -1.16356 0
M  V30 1039 H 101.227 3.50326 -2.24153 0
M  V30 1040 H 99.8038 3.70513 -0.421225 0
M  V30 1041 N 101.989 0.842826 1.3317 0
M  V30 1042 C 103.236 0.440447 1.97652 0
M  V30 1043 C 103.564 -1.00123 1.6675 0
M  V30 1044 O 102.819 -1.7155 0.941761 0
M  V30 1045 C 103.118 0.612607 3.52111 0
M  V30 1046 C 102.784 2.02297 4.02972 0
M  V30 1047 C 101.446 2.40874 4.16573 0
M  V30 1048 C 103.798 2.94402 4.30089 0
M  V30 1049 C 101.126 3.70852 4.54627 0
M  V30 1050 C 103.478 4.23865 4.69597 0
M  V30 1051 C 102.142 4.62392 4.81404 0
M  V30 1052 H 101.412 0.161171 0.72326 0
M  V30 1053 H 104.059 1.07061 1.58777 0
M  V30 1054 H 102.364 -0.100849 3.9167 0
M  V30 1055 H 104.061 0.2815 4.00011 0
M  V30 1056 H 100.651 1.71338 3.92863 0
M  V30 1057 H 104.835 2.65835 4.19101 0
M  V30 1058 H 100.091 4.00501 4.61962 0
M  V30 1059 H 104.265 4.95306 4.89536 0
M  V30 1060 H 101.892 5.63154 5.10648 0
M  V30 1061 N 103.467 -1.45747 0.599634 0
M  V30 1062 C 104.397 -2.33235 -0.111306 0
M  V30 1063 C 105.378 -1.46359 -0.866781 0
M  V30 1064 O 106.563 -1.75146 -0.838904 0
M  V30 1065 C 103.693 -3.28932 -1.11451 0
M  V30 1066 C 102.647 -4.25381 -0.472772 0
M  V30 1067 C 101.973 -5.1071 -1.58365 0
M  V30 1068 C 103.273 -5.18831 0.600948 0
M  V30 1069 H 104.967 -2.92927 0.61919 0
M  V30 1070 H 102.513 -1.40857 0.299215 0
M  V30 1071 H 104.466 -3.89002 -1.62036 0
M  V30 1072 H 103.19 -2.67381 -1.8755 0
M  V30 1073 H 101.849 -3.66598 0.0121472 0
M  V30 1074 H 101.497 -4.45533 -2.33473 0
M  V30 1075 H 101.197 -5.7604 -1.15982 0
M  V30 1076 H 102.721 -5.73647 -2.09194 0
M  V30 1077 H 104.135 -5.73019 0.179491 0
M  V30 1078 H 102.532 -5.92595 0.946076 0
M  V30 1079 H 103.602 -4.6174 1.48068 0
M  V30 1080 N 104.945 -0.338344 -1.53925 0
M  V30 1081 C 106.194 0.260732 -2.00008 0
M  V30 1082 C 106.507 1.52073 -1.23017 0
M  V30 1083 O 107.713 2.19672 -1.5955 0
M  V30 1084 C 106.169 0.51515 -3.56194 0
M  V30 1085 C 105.777 -0.728645 -4.42035 0
M  V30 1086 C 107.521 1.07337 -4.10706 0
M  V30 1087 C 105.428 -0.445315 -5.89721 0
M  V30 1088 H 104.358 0.101205 -0.747177 0
M  V30 1089 H 107.009 -0.452866 -1.77824 0
M  V30 1090 H 105.391 1.28932 -3.74423 0
M  V30 1091 H 106.565 -1.50352 -4.35581 0
M  V30 1092 H 104.88 -1.20813 -3.98489 0
M  V30 1093 H 107.477 1.30022 -5.18651 0
M  V30 1094 H 107.82 2.0273 -3.63602 0
M  V30 1095 H 108.353 0.360034 -3.96167 0
M  V30 1096 H 105.092 -1.36883 -6.41049 0
M  V30 1097 H 104.612 0.291569 -5.99091 0
M  V30 1098 H 106.291 -0.0606218 -6.46972 0
M  V30 1099 N 106.423 1.57458 -0.0668435 0
M  V30 1100 C 107.386 2.11323 0.887422 0
M  V30 1101 C 108.386 1.03618 1.22964 0
M  V30 1102 O 109.576 1.29626 1.16373 0
M  V30 1103 C 106.708 2.61048 2.19242 0
M  V30 1104 H 107.901 2.96942 0.420194 0
M  V30 1105 H 105.454 1.55239 0.181793 0
M  V30 1106 H 106.189 1.78868 2.70512 0
M  V30 1107 H 105.974 3.39769 1.95702 0
M  V30 1108 H 107.464 3.02814 2.87565 0
M  V30 1109 N 107.901 -0.206675 1.56239 0
M  V30 1110 C 108.864 -1.23976 1.92776 0
M  V30 1111 C 109.864 -1.39041 0.807729 0
M  V30 1112 O 111.054 -1.37051 1.0753 0
M  V30 1113 C 108.186 -2.61112 2.19165 0
M  V30 1114 H 109.379 -0.927764 2.85189 0
M  V30 1115 H 106.932 -0.447718 1.4975 0
M  V30 1116 H 107.667 -2.97386 1.29352 0
M  V30 1117 H 107.452 -2.51552 3.00772 0
M  V30 1118 H 108.942 -3.35633 2.48476 0
M  V30 1119 N 109.379 -1.50304 -0.473955 0
M  V30 1120 C 110.309 -1.71886 -1.58042 0
M  V30 1121 C 111.29 -0.567799 -1.60344 0
M  V30 1122 O 112.475 -0.806623 -1.76656 0
M  V30 1123 C 109.605 -1.81036 -2.96384 0
M  V30 1124 C 108.559 -2.962 -3.08949 0
M  V30 1125 C 107.885 -2.9049 -4.48909 0
M  V30 1126 C 109.185 -4.36752 -2.86434 0
M  V30 1127 H 110.879 -2.64527 -1.40234 0
M  V30 1128 H 108.425 -1.27295 -0.673201 0
M  V30 1129 H 110.378 -1.94719 -3.73714 0
M  V30 1130 H 109.102 -0.850147 -3.15341 0
M  V30 1131 H 107.761 -2.82164 -2.3405 0
M  V30 1132 H 107.409 -1.92321 -4.64781 0
M  V30 1133 H 107.109 -3.67802 -4.58253 0
M  V30 1134 H 108.633 -3.06218 -5.28264 0
M  V30 1135 H 110.047 -4.5133 -3.53517 0
M  V30 1136 H 108.444 -5.15493 -3.07225 0
M  V30 1137 H 109.514 -4.49321 -1.82316 0
M  V30 1138 N 110.857 0.726932 -1.39834 0
M  V30 1139 C 111.82 1.82269 -1.38962 0
M  V30 1140 C 112.82 1.58248 -0.285334 0
M  V30 1141 O 114.01 1.65499 -0.54366 0
M  V30 1142 C 111.142 3.20186 -1.17019 0
M  V30 1143 H 112.335 1.84443 -2.36476 0
M  V30 1144 H 109.888 0.931416 -1.25516 0
M  V30 1145 H 110.623 3.23669 -0.202204 0
M  V30 1146 H 110.408 3.3902 -1.96998 0
M  V30 1147 H 111.898 4.00235 -1.1917 0
M  V30 1148 N 112.336 1.25143 0.95797 0
M  V30 1149 C 113.561 1.12521 1.74223 0
M  V30 1150 C 113.986 -0.317402 1.85403 0
M  V30 1151 O 113.344 -1.2299 1.33204 0
M  V30 1152 C 113.392 1.78062 3.1357 0
M  V30 1153 O 112.496 1.058 3.98598 0
M  V30 1154 H 111.837 0.39304 0.535178 0
M  V30 1155 H 114.367 1.65641 1.201 0
M  V30 1156 H 114.377 1.84213 3.64046 0
M  V30 1157 H 113.052 2.83021 3.04749 0
M  V30 1158 H 111.629 1.07506 3.57067 0
M  V30 1159 N 113.814 -1.1601 1.06675 0
M  V30 1160 C 115.06 -1.86909 0.786945 0
M  V30 1161 C 115.393 -1.81717 -0.685018 0
M  V30 1162 O 114.668 -1.23551 -1.50218 0
M  V30 1163 C 114.951 -3.36313 1.28707 0
M  V30 1164 C 114.804 -3.50175 2.82308 0
M  V30 1165 C 116.123 -4.3084 0.898071 0
M  V30 1166 H 113.242 -0.678677 0.287343 0
M  V30 1167 H 115.884 -1.36336 1.32334 0
M  V30 1168 H 114.034 -3.79513 0.830768 0
M  V30 1169 H 115.706 -3.15886 3.36175 0
M  V30 1170 H 113.949 -2.91959 3.20847 0
M  V30 1171 H 114.62 -4.55116 3.12368 0
M  V30 1172 H 117.096 -3.95561 1.29114 0
M  V30 1173 H 115.972 -5.33876 1.27543 0
M  V30 1174 H 116.233 -4.41662 -0.196651 0
M  V30 1175 N 115.292 -0.849877 -1.32721 0
M  V30 1176 C 116.222 -0.306308 -2.31482 0
M  V30 1177 C 117.203 0.591952 -1.59468 0
M  V30 1178 O 118.388 0.513199 -1.87296 0
M  V30 1179 C 115.518 0.510204 -3.43532 0
M  V30 1180 C 114.472 -0.293209 -4.26994 0
M  V30 1181 C 113.798 0.647743 -5.30762 0
M  V30 1182 C 115.098 -1.51634 -4.99804 0
M  V30 1183 H 116.792 -1.13153 -2.77195 0
M  V30 1184 H 114.338 -0.545553 -1.33266 0
M  V30 1185 H 116.291 0.900856 -4.11658 0
M  V30 1186 H 115.015 1.36874 -2.96535 0
M  V30 1187 H 113.674 -0.665555 -3.60508 0
M  V30 1188 H 113.322 1.50299 -4.8002 0
M  V30 1189 H 113.022 0.11422 -5.87489 0
M  V30 1190 H 114.546 1.03567 -6.01753 0
M  V30 1191 H 115.96 -1.19824 -5.60638 0
M  V30 1192 H 114.357 -1.98745 -5.66234 0
M  V30 1193 H 115.427 -2.28018 -4.27943 0
M  V30 1194 N 116.77 1.45427 -0.607355 0
M  V30 1195 C 117.733 2.28974 0.101693 0
M  V30 1196 C 118.733 1.39754 0.795329 0
M  V30 1197 O 119.923 1.61878 0.643527 0
M  V30 1198 C 117.055 3.20768 1.15414 0
M  V30 1199 H 118.248 2.93147 -0.632844 0
M  V30 1200 H 115.801 1.51945 -0.366391 0
M  V30 1201 H 116.536 2.61395 1.91945 0
M  V30 1202 H 116.321 3.86489 0.66098 0
M  V30 1203 H 117.811 3.83589 1.65073 0
M  V30 1204 N 118.248 0.346503 1.53744 0
M  V30 1205 C 119.496 -0.248612 2.00565 0
M  V30 1206 C 119.817 -1.5083 1.23593 0
M  V30 1207 O 119.087 -1.92858 0.343912 0
M  V30 1208 H 117.667 -0.0948564 0.740953 0
M  V30 1209 H 120.329 0.468341 1.89189 0
M  V30 1210 H 119.425 -0.488994 3.08245 0
M  V30 1211 N 119.726 -1.57421 0.075193 0
M  V30 1212 C 120.656 -2.15942 -0.888324 0
M  V30 1213 C 121.637 -1.08737 -1.30806 0
M  V30 1214 O 122.822 -1.36787 -1.37851 0
M  V30 1215 C 119.952 -2.72379 -2.1547 0
M  V30 1216 C 118.906 -3.8478 -1.87425 0
M  V30 1217 C 118.232 -4.27834 -3.20721 0
M  V30 1218 C 119.532 -5.08869 -1.17684 0
M  V30 1219 H 121.226 -2.96705 -0.400799 0
M  V30 1220 H 118.772 -1.42723 -0.191342 0
M  V30 1221 H 120.725 -3.11965 -2.83295 0
M  V30 1222 H 119.449 -1.88841 -2.6647 0
M  V30 1223 H 118.108 -3.45703 -1.22004 0
M  V30 1224 H 117.756 -3.41214 -3.6957 0
M  V30 1225 H 117.456 -5.03605 -3.02746 0
M  V30 1226 H 118.98 -4.70039 -3.89738 0
M  V30 1227 H 120.394 -5.4575 -1.75584 0
M  V30 1228 H 118.791 -5.8994 -1.09956 0
M  V30 1229 H 119.861 -4.84648 -0.156453 0
M  V30 1230 N 121.204 0.198386 -1.56346 0
M  V30 1231 C 122.444 0.92609 -1.82217 0
M  V30 1232 C 122.808 1.80584 -0.652195 0
M  V30 1233 O 124.009 2.56907 -0.790716 0
M  V30 1234 C 122.28 1.72354 -3.13096 0
M  V30 1235 S 123.839 2.50371 -3.6036 0
M  V30 1236 H 120.657 0.310677 -0.639532 0
M  V30 1237 H 123.259 0.189755 -1.94577 0
M  V30 1238 H 121.963 1.0678 -3.96265 0
M  V30 1239 H 121.494 2.50175 -3.03605 0
M  V30 1240 H 123.509 3.74488 -3.25535 0
M  V30 1241 N 122.682 1.50554 0.465978 0
M  V30 1242 C 123.912 1.65323 1.23903 0
M  V30 1243 C 124.32 0.338051 1.86155 0
M  V30 1244 O 123.663 -0.690518 1.70228 0
M  V30 1245 C 123.725 2.69048 2.3844 0
M  V30 1246 C 123.389 4.12462 1.96784 0
M  V30 1247 C 124.386 4.98168 1.48745 0
M  V30 1248 C 122.071 4.58407 2.05349 0
M  V30 1249 C 124.065 6.27868 1.0982 0
M  V30 1250 C 121.752 5.88112 1.66035 0
M  V30 1251 C 122.75 6.72668 1.18349 0
M  V30 1252 O 122.438 7.99951 0.795825 0
M  V30 1253 H 122.17 0.558629 0.38067 0
M  V30 1254 H 124.724 1.97561 0.562022 0
M  V30 1255 H 122.954 2.32062 3.09328 0
M  V30 1256 H 124.643 2.72985 3.0039 0
M  V30 1257 H 125.409 4.63885 1.41546 0
M  V30 1258 H 121.288 3.92735 2.41414 0
M  V30 1259 H 124.832 6.93819 0.725293 0
M  V30 1260 H 120.729 6.21914 1.72895 0
M  V30 1261 H 121.497 8.13265 0.924222 0
M  V30 1262 N 124.16 -0.719506 1.40217 0
M  V30 1263 C 125.408 -1.47641 1.3801 0
M  V30 1264 C 125.729 -1.94992 -0.018145 0
M  V30 1265 O 124.999 -1.70073 -0.972207 0
M  V30 1266 H 123.579 -0.547744 0.507923 0
M  V30 1267 H 126.241 -0.853187 1.75233 0
M  V30 1268 H 125.337 -2.35112 2.05253 0
M  V30 1269 N 125.638 -1.25649 -0.95132 0
M  V30 1270 C 126.548 -1.08073 -2.08224 0
M  V30 1271 C 127.564 -0.0169666 -1.73992 0
M  V30 1272 O 128.74 -0.218593 -2.0021 0
M  V30 1273 C 125.805 -0.704922 -3.39458 0
M  V30 1274 C 124.866 -1.84699 -3.87537 0
M  V30 1275 C 124.099 -1.48902 -5.12508 0
M  V30 1276 O 124.322 -0.386156 -5.69091 0
M  V30 1277 O 123.256 -2.32033 -5.55378 0
M  V30 1278 H 127.082 -2.02924 -2.25954 0
M  V30 1279 H 124.667 -1.04618 -1.06656 0
M  V30 1280 H 126.549 -0.507609 -4.18332 0
M  V30 1281 H 125.224 0.214291 -3.2299 0
M  V30 1282 H 124.131 -2.09919 -3.09653 0
M  V30 1283 H 125.464 -2.74557 -4.08509 0
M  V30 1284 N 127.117 1.15442 -1.07289 0
M  V30 1285 C 128.364 1.86213 -0.795668 0
M  V30 1286 C 128.692 1.82291 0.678238 0
M  V30 1287 O 127.947 1.24057 1.51355 0
M  V30 1288 C 128.246 3.3489 -1.24834 0
M  V30 1289 C 127.912 3.59007 -2.72809 0
M  V30 1290 C 126.574 3.65298 -3.13227 0
M  V30 1291 C 128.926 3.68762 -3.68326 0
M  V30 1292 C 126.254 3.78854 -4.4798 0
M  V30 1293 C 128.606 3.83842 -5.0284 0
M  V30 1294 C 127.27 3.88378 -5.4288 0
M  V30 1295 H 126.54 0.681403 -0.291155 0
M  V30 1296 H 129.187 1.36435 -1.34379 0
M  V30 1297 H 127.492 3.8687 -0.619595 0
M  V30 1298 H 129.189 3.88052 -1.01076 0
M  V30 1299 H 125.779 3.5475 -2.40521 0
M  V30 1300 H 129.963 3.63202 -3.38227 0
M  V30 1301 H 125.219 3.80623 -4.78472 0
M  V30 1302 H 129.393 3.90332 -5.76727 0
M  V30 1303 H 127.02 3.98635 -6.47298 0
M  V30 1304 N 128.595 0.856903 1.32268 0
M  V30 1305 C 129.843 0.460474 1.96784 0
M  V30 1306 C 130.164 -0.987701 1.68135 0
M  V30 1307 O 129.434 -1.69058 0.989765 0
M  V30 1308 H 128.014 0.167289 0.728027 0
M  V30 1309 H 130.676 1.09383 1.61312 0
M  V30 1310 H 129.772 0.60739 3.06133 0
M  V30 1311 N 130.073 -1.45103 0.615059 0
M  V30 1312 C 131.036 -2.29025 -0.0895485 0
M  V30 1313 C 132.036 -1.40174 -0.787906 0
M  V30 1314 O 133.226 -1.62217 -0.634933 0
M  V30 1315 C 130.358 -3.21376 -1.13711 0
M  V30 1316 H 131.551 -2.92807 0.648382 0
M  V30 1317 H 129.104 -1.51749 0.374444 0
M  V30 1318 H 129.839 -2.6241 -1.90556 0
M  V30 1319 H 129.624 -3.86834 -0.640475 0
M  V30 1320 H 131.114 -3.84459 -1.63036 0
M  V30 1321 N 131.551 -0.354651 -1.53558 0
M  V30 1322 C 132.967 -0.00315426 -1.596 0
M  V30 1323 C 133.167 1.47741 -1.37021 0
M  V30 1324 O 132.223 2.23759 -1.16996 0
M  V30 1325 C 133.536 -0.44929 -2.97325 0
M  V30 1326 C 135.084 -0.402578 -3.104 0
M  V30 1327 C 135.559 -0.824355 -4.5052 0
M  V30 1328 N 137.05 -0.778979 -4.56603 0
M  V30 1329 C 137.785 -1.07715 -5.63192 0
M  V30 1330 N 137.281 -1.44405 -6.77583 0
M  V30 1331 N 139.074 -1.00066 -5.53121 0
M  V30 1332 H 131.225 -1.31893 -1.66487 0
M  V30 1333 H 133.488 -0.538388 -0.780284 0
M  V30 1334 H 133.194 -1.48202 -3.1895 0
M  V30 1335 H 133.068 0.169772 -3.76818 0
M  V30 1336 H 135.455 0.621004 -2.88492 0
M  V30 1337 H 135.536 -1.05699 -2.32941 0
M  V30 1338 H 135.18 -1.846 -4.73165 0
M  V30 1339 H 135.11 -0.147304 -5.26394 0
M  V30 1340 H 137.601 -0.508528 -3.74463 0
M  V30 1341 H 137.914 -1.65612 -7.54846 0
M  V30 1342 H 136.259 -1.4826 -6.79002 0
M  V30 1343 H 139.45 -0.713293 -4.62633 0
M  V30 1344 H 139.623 -1.23638 -6.36096 0
M  V30 1345 N 133.029 1.57378 -0.0835403 0
M  V30 1346 C 134.275 1.94217 0.583733 0
M  V30 1347 C 134.608 0.964653 1.68547 0
M  V30 1348 O 133.883 -0.00422258 1.945 0
M  V30 1349 C 134.166 3.41253 1.14972 0
M  V30 1350 C 134.019 4.49768 0.0538277 0
M  V30 1351 C 135.338 3.89352 2.05166 0
M  V30 1352 H 132.457 0.706233 0.210724 0
M  V30 1353 H 135.099 1.89392 -0.1519 0
M  V30 1354 H 133.249 3.45496 1.77665 0
M  V30 1355 H 134.921 4.57641 -0.579851 0
M  V30 1356 H 133.164 4.29432 -0.614068 0
M  V30 1357 H 133.835 5.49817 0.490452 0
M  V30 1358 H 136.311 3.87189 1.52393 0
M  V30 1359 H 135.187 4.92822 2.41698 0
M  V30 1360 H 135.448 3.27973 2.96456 0
M  V30 1361 N 134.507 -0.190092 1.56449 0
M  V30 1362 C 135.918 -0.754312 1.70784 0
M  V30 1363 C 136.269 -1.83631 0.690951 0
M  V30 1364 O 135.394 -2.15868 -0.151604 0
M  V30 1365 C 135.989 -1.37503 3.09642 0
M  V30 1366 C 134.548 -1.88628 3.25725 0
M  V30 1367 C 133.695 -0.758098 2.66736 0
M  V30 1368 H 136.646 0.0350524 1.58661 0
M  V30 1369 H 136.667 -2.2445 3.0725 0
M  V30 1370 H 136.179 -0.587302 3.83631 0
M  V30 1371 H 134.28 -2.70103 2.56661 0
M  V30 1372 H 134.393 -2.04462 4.3328 0
M  V30 1373 H 132.757 -1.17369 2.26046 0
M  V30 1374 H 133.54 0.0174705 3.43296 0
M  V30 1375 N 135.985 -1.50799 -0.457987 0
M  V30 1376 C 136.932 -1.70617 -1.5543 0
M  V30 1377 C 137.902 -0.547562 -1.56815 0
M  V30 1378 O 139.087 -0.779647 -1.74144 0
M  V30 1379 C 136.227 -1.81831 -2.93311 0
M  V30 1380 C 135.34 -3.09278 -3.01615 0
M  V30 1381 C 134.475 -3.11209 -4.30491 0
M  V30 1382 C 133.514 -4.33055 -4.32585 0
M  V30 1383 N 132.651 -4.32652 -5.52952 0
M  V30 1384 H 137.491 -2.64207 -1.37836 0
M  V30 1385 H 135.028 -1.30959 -0.669937 0
M  V30 1386 H 136.986 -1.86314 -3.73287 0
M  V30 1387 H 135.616 -0.916685 -3.0951 0
M  V30 1388 H 134.668 -3.14203 -2.1443 0
M  V30 1389 H 135.98 -3.99233 -2.99022 0
M  V30 1390 H 135.134 -3.14494 -5.18824 0
M  V30 1391 H 133.873 -2.19106 -4.35711 0
M  V30 1392 H 132.878 -4.29969 -3.42647 0
M  V30 1393 H 134.103 -5.264 -4.29046 0
M  V30 1394 H 132.049 -3.43409 -5.58933 0
M  V30 1395 H 131.966 -5.16392 -5.52155 0
M  V30 1396 H 133.234 -4.40101 -6.43375 0
M  V30 1397 N 137.463 0.71206 -1.40597 0
M  V30 1398 C 138.691 1.50111 -1.42388 0
M  V30 1399 C 139.106 1.88784 -0.0245395 0
M  V30 1400 O 138.463 1.55681 0.952351 0
M  V30 1401 C 138.514 2.7742 -2.31776 0
M  V30 1402 O 138.235 2.40382 -3.66262 0
M  V30 1403 C 139.736 3.7129 -2.42196 0
M  V30 1404 H 136.956 0.46314 -0.485533 0
M  V30 1405 H 139.5 0.878068 -1.8469 0
M  V30 1406 H 137.655 3.36001 -1.92827 0
M  V30 1407 H 138.069 3.22324 -4.13772 0
M  V30 1408 H 139.543 4.57448 -3.08943 0
M  V30 1409 H 140.02 4.14641 -1.44809 0
M  V30 1410 H 140.626 3.18619 -2.81712 0
M  V30 1411 N 138.941 1.26152 0.944643 0
M  V30 1412 C 140.189 1.11271 1.6871 0
M  V30 1413 C 140.51 -0.345166 1.91921 0
M  V30 1414 O 139.78 -1.24387 1.51343 0
M  V30 1415 H 138.36 0.408783 0.625224 0
M  V30 1416 H 141.022 1.58427 1.1352 0
M  V30 1417 H 140.118 1.62879 2.66227 0
M  V30 1418 N 140.419 -1.14872 1.07899 0
M  V30 1419 C 141.644 -1.90202 0.826926 0
M  V30 1420 C 142.069 -1.77774 -0.614664 0
M  V30 1421 O 141.427 -1.11431 -1.43013 0
M  V30 1422 C 141.475 -3.38352 1.24702 0
M  V30 1423 O 140.579 -4.10497 0.39575 0
M  V30 1424 H 139.92 -0.591968 0.300782 0
M  V30 1425 H 142.45 -1.45437 1.43907 0
M  V30 1426 H 142.46 -3.89156 1.22563 0
M  V30 1427 H 141.135 -3.46715 2.29698 0
M  V30 1428 H 139.712 -3.69796 0.480117 0
M  V30 1429 N 141.898 -0.863906 -1.31812 0
M  V30 1430 C 142.861 -0.320212 -2.26952 0
M  V30 1431 C 143.861 0.525369 -1.51975 0
M  V30 1432 O 145.051 0.335547 -1.70938 0
M  V30 1433 C 142.183 0.545919 -3.365 0
M  V30 1434 H 143.376 -1.16004 -2.76556 0
M  V30 1435 H 140.929 -0.638995 -1.42641 0
M  V30 1436 H 141.664 1.40718 -2.92179 0
M  V30 1437 H 141.449 -0.0594674 -3.92055 0
M  V30 1438 H 142.939 0.918796 -4.07367 0
M  V30 1439 N 143.376 1.44774 -0.622745 0
M  V30 1440 C 144.606 2.06187 -0.130532 0
M  V30 1441 C 145.014 1.46547 1.19669 0
M  V30 1442 O 144.357 0.579636 1.74316 0
M  V30 1443 C 144.419 3.59437 0.0674983 0
M  V30 1444 C 144.083 4.41496 -1.18026 0
M  V30 1445 C 145.08 4.75512 -2.102 0
M  V30 1446 C 142.765 4.82007 -1.41333 0
M  V30 1447 C 144.759 5.48912 -3.23998 0
M  V30 1448 C 142.446 5.55157 -2.55429 0
M  V30 1449 C 143.444 5.88528 -3.46589 0
M  V30 1450 O 143.132 6.60191 -4.58697 0
M  V30 1451 H 142.864 0.672045 -0.0730162 0
M  V30 1452 H 145.418 1.86768 -0.854802 0
M  V30 1453 H 143.648 3.77314 0.846825 0
M  V30 1454 H 145.337 4.02642 0.513209 0
M  V30 1455 H 146.103 4.4476 -1.93425 0
M  V30 1456 H 141.982 4.55457 -0.712709 0
M  V30 1457 H 145.526 5.74877 -3.95174 0
M  V30 1458 H 141.423 5.85324 -2.72151 0
M  V30 1459 H 142.191 6.78654 -4.57571 0
M  V30 1460 N 144.854 0.36279 1.53368 0
M  V30 1461 C 145.784 -0.476976 2.28576 0
M  V30 1462 C 146.765 -1.08631 1.30894 0
M  V30 1463 O 147.95 -1.10409 1.59761 0
M  V30 1464 C 145.08 -1.61828 3.07293 0
M  V30 1465 C 144.034 -1.13633 4.1264 0
M  V30 1466 C 143.36 -2.36766 4.79423 0
M  V30 1467 C 144.66 -0.223061 5.21823 0
M  V30 1468 H 146.354 0.150474 2.99022 0
M  V30 1469 H 143.9 0.0738103 1.43811 0
M  V30 1470 H 145.853 -2.21237 3.58653 0
M  V30 1471 H 144.577 -2.27292 2.34533 0
M  V30 1472 H 143.236 -0.564945 3.62221 0
M  V30 1473 H 142.884 -3.0068 4.03238 0
M  V30 1474 H 142.584 -2.05192 5.50609 0
M  V30 1475 H 144.108 -2.96865 5.33576 0
M  V30 1476 H 145.522 -0.724545 5.68703 0
M  V30 1477 H 143.919 0.001678 6.001 0
M  V30 1478 H 144.989 0.735553 4.79289 0
M  V30 1479 N 146.332 -1.57332 0.0918853 0
M  V30 1480 C 147.562 -1.98286 -0.580205 0
M  V30 1481 C 147.97 -0.969713 -1.6246 0
M  V30 1482 O 147.313 0.0493501 -1.83634 0
M  V30 1483 C 147.375 -3.35603 -1.28882 0
M  V30 1484 C 147.039 -4.55285 -0.395559 0
M  V30 1485 C 148.036 -5.18687 0.355002 0
M  V30 1486 C 145.721 -5.01314 -0.314556 0
M  V30 1487 C 147.715 -6.26484 1.17458 0
M  V30 1488 C 145.402 -6.08979 0.508677 0
M  V30 1489 C 146.4 -6.71429 1.2519 0
M  V30 1490 O 146.088 -7.77018 2.06151 0
M  V30 1491 H 145.82 -0.656678 -0.160466 0
M  V30 1492 H 148.374 -2.04721 0.16688 0
M  V30 1493 H 146.604 -3.25842 -2.08241 0
M  V30 1494 H 148.293 -3.61026 -1.85512 0
M  V30 1495 H 149.059 -4.84058 0.302134 0
M  V30 1496 H 144.938 -4.5247 -0.882697 0
M  V30 1497 H 148.482 -6.75159 1.75518 0
M  V30 1498 H 144.379 -6.4304 0.563037 0
M  V30 1499 H 145.147 -7.93991 1.98799 0
M  V30 1500 N 147.81 0.181792 -1.56548 0
M  V30 1501 C 149.035 0.920019 -1.85877 0
M  V30 1502 C 149.46 1.75494 -0.677021 0
M  V30 1503 O 148.818 1.77399 0.374056 0
M  V30 1504 C 148.866 1.78112 -3.13542 0
M  V30 1505 O 147.97 2.88152 -2.95029 0
M  V30 1506 H 147.311 0.258334 -0.611686 0
M  V30 1507 H 149.841 0.183092 -2.03779 0
M  V30 1508 H 149.851 2.18314 -3.44678 0
M  V30 1509 H 148.526 1.16777 -3.99169 0
M  V30 1510 H 147.103 2.51609 -2.75222 0
M  V30 1511 N 149.288 1.51039 0.449983 0
M  V30 1512 C 150.518 1.66627 1.22143 0
M  V30 1513 C 150.926 0.357776 1.85786 0
M  V30 1514 O 150.269 -0.672424 1.70951 0
M  V30 1515 C 150.331 2.71562 2.35573 0
M  V30 1516 C 149.995 4.14526 1.92399 0
M  V30 1517 C 150.992 4.99717 1.43453 0
M  V30 1518 C 148.677 4.60559 2.00475 0
M  V30 1519 C 150.671 6.28998 1.03155 0
M  V30 1520 C 148.358 5.8984 1.59788 0
M  V30 1521 C 149.356 6.73886 1.11208 0
M  V30 1522 O 149.044 8.0075 0.710935 0
M  V30 1523 H 148.776 0.562635 0.374724 0
M  V30 1524 H 151.33 1.98146 0.541036 0
M  V30 1525 H 149.56 2.3533 3.06849 0
M  V30 1526 H 151.249 2.76156 2.97478 0
M  V30 1527 H 152.015 4.65361 1.36618 0
M  V30 1528 H 147.894 3.95273 2.37235 0
M  V30 1529 H 151.438 6.9455 0.651663 0
M  V30 1530 H 147.335 6.23713 1.66289 0
M  V30 1531 H 148.103 8.142 0.837913 0
M  V30 1532 N 150.766 -0.704594 1.40972 0
M  V30 1533 C 152.012 -1.46675 1.40051 0
M  V30 1534 C 152.345 -1.94199 0.00641102 0
M  V30 1535 O 151.62 -1.68916 -0.964235 0
M  V30 1536 C 151.903 -2.68505 2.39952 0
M  V30 1537 C 151.756 -2.26805 3.88432 0
M  V30 1538 C 153.075 -3.70686 2.37233 0
M  V30 1539 H 150.194 -0.532015 0.510028 0
M  V30 1540 H 152.836 -0.803255 1.72185 0
M  V30 1541 H 150.986 -3.25114 2.1268 0
M  V30 1542 H 152.658 -1.75592 4.26574 0
M  V30 1543 H 150.901 -1.58685 4.03734 0
M  V30 1544 H 151.572 -3.14181 4.53866 0
M  V30 1545 H 154.048 -3.23731 2.61415 0
M  V30 1546 H 152.924 -4.53553 3.09162 0
M  V30 1547 H 153.185 -4.19754 1.38777 0
M  V30 1548 N 152.244 -1.26651 -0.937939 0
M  V30 1549 C 153.472 -1.15173 -1.7188 0
M  V30 1550 C 153.887 0.292668 -1.86518 0
M  V30 1551 O 153.244 1.20014 -1.37488 0
M  V30 1552 C 153.295 -1.81925 -3.12387 0
M  V30 1553 O 153.016 -3.2072 -2.98446 0
M  V30 1554 C 154.517 -1.76442 -4.06673 0
M  V30 1555 H 151.737 -0.400911 -0.538063 0
M  V30 1556 H 154.281 -1.67332 -1.1756 0
M  V30 1557 H 152.436 -1.33696 -3.63599 0
M  V30 1558 H 152.85 -3.53802 -3.872 0
M  V30 1559 H 154.324 -2.27781 -5.02812 0
M  V30 1560 H 154.801 -0.731608 -4.33064 0
M  V30 1561 H 155.407 -2.24238 -3.61382 0
M  V30 1562 N 153.722 1.14298 -1.08507 0
M  V30 1563 C 154.968 1.85633 -0.816581 0
M  V30 1564 C 155.301 1.82784 0.656021 0
M  V30 1565 O 154.576 1.25926 1.48233 0
M  V30 1566 C 154.859 3.34223 -1.34041 0
M  V30 1567 C 154.712 3.45639 -2.87843 0
M  V30 1568 C 156.031 4.29356 -0.9665 0
M  V30 1569 H 153.15 0.67402 -0.298104 0
M  V30 1570 H 155.792 1.34214 -1.34487 0
M  V30 1571 H 153.942 3.78144 -0.89104 0
M  V30 1572 H 155.614 3.10498 -3.41158 0
M  V30 1573 H 153.857 2.86817 -3.25451 0
M  V30 1574 H 154.528 4.50089 -3.19569 0
M  V30 1575 H 157.004 3.93457 -1.35391 0
M  V30 1576 H 155.88 5.3178 -1.3602 0
M  V30 1577 H 156.141 4.41919 0.126362 0
M  V30 1578 N 155.201 0.870884 1.31352 0
M  V30 1579 C 156.449 0.48132 1.96285 0
M  V30 1580 C 156.77 -0.969813 1.69173 0
M  V30 1581 O 156.04 -1.67998 1.00764 0
M  V30 1582 H 154.62 0.175002 0.726212 0
M  V30 1583 H 157.282 1.11087 1.60143 0
M  V30 1584 H 156.378 0.639825 3.05471 0
M  V30 1585 N 156.679 -1.44442 0.630414 0
M  V30 1586 C 157.589 -2.34476 -0.0761693 0
M  V30 1587 C 158.605 -1.52576 -0.836449 0
M  V30 1588 O 159.781 -1.85307 -0.788874 0
M  V30 1589 C 156.846 -3.30545 -1.04599 0
M  V30 1590 C 155.907 -4.28352 -0.28516 0
M  V30 1591 C 155.14 -5.19831 -1.20878 0
M  V30 1592 O 155.363 -5.15223 -2.44747 0
M  V30 1593 O 154.297 -5.97892 -0.693491 0
M  V30 1594 H 158.123 -2.96345 0.664324 0
M  V30 1595 H 155.708 -1.44203 0.39061 0
M  V30 1596 H 157.59 -3.89681 -1.60396 0
M  V30 1597 H 156.265 -2.7121 -1.76711 0
M  V30 1598 H 155.172 -3.72764 0.315837 0
M  V30 1599 H 156.505 -4.90605 0.395924 0
M  V30 1600 N 158.157 -0.370918 -1.53173 0
M  V30 1601 C 159.087 0.464847 -2.28826 0
M  V30 1602 C 160.068 1.07936 -1.31468 0
M  V30 1603 O 161.253 1.0956 -1.60344 0
M  V30 1604 C 158.383 1.60196 -3.08147 0
M  V30 1605 C 157.337 1.11443 -4.13237 0
M  V30 1606 C 156.663 2.3422 -4.80672 0
M  V30 1607 C 157.963 0.195384 -5.21934 0
M  V30 1608 H 159.657 -0.166329 -2.98938 0
M  V30 1609 H 157.203 -0.0814359 -1.4377 0
M  V30 1610 H 159.156 2.19332 -3.59822 0
M  V30 1611 H 157.88 2.26045 -2.35735 0
M  V30 1612 H 156.539 0.545727 -3.62515 0
M  V30 1613 H 156.187 2.98537 -4.04827 0
M  V30 1614 H 155.887 2.02269 -5.51689 0
M  V30 1615 H 157.411 2.94032 -5.35143 0
M  V30 1616 H 158.825 0.694375 -5.69079 0
M  V30 1617 H 157.222 -0.0335027 -6.00091 0
M  V30 1618 H 158.292 -0.760961 -4.78892 0
M  V30 1619 N 159.635 1.57281 -0.100228 0
M  V30 1620 C 160.881 1.95626 0.556946 0
M  V30 1621 C 161.236 0.981655 1.65473 0
M  V30 1622 O 160.529 0.00849847 1.91598 0
M  V30 1623 C 160.723 3.38305 1.15259 0
M  V30 1624 C 160.552 4.49555 0.114035 0
M  V30 1625 C 159.322 5.0434 -0.311266 0
M  V30 1626 C 161.52 5.10051 -0.659768 0
M  V30 1627 N 159.502 5.99152 -1.33755 0
M  V30 1628 C 160.873 6.00628 -1.53774 0
M  V30 1629 C 162.928 4.92772 -0.712723 0
M  V30 1630 C 161.631 6.7578 -2.46403 0
M  V30 1631 C 163.657 5.6859 -1.62663 0
M  V30 1632 C 163.019 6.58838 -2.49222 0
M  V30 1633 H 159.118 0.7624 0.173982 0
M  V30 1634 H 161.702 1.93829 -0.183988 0
M  V30 1635 H 159.873 3.40786 1.86332 0
M  V30 1636 H 161.605 3.63817 1.77254 0
M  V30 1637 H 158.36 4.73537 0.0774812 0
M  V30 1638 H 158.784 6.5126 -1.84905 0
M  V30 1639 H 163.426 4.22761 -0.0576648 0
M  V30 1640 H 161.144 7.4505 -3.12931 0
M  V30 1641 H 164.73 5.57233 -1.67281 0
M  V30 1642 H 163.61 7.16479 -3.18791 0
M  V30 1643 N 161.113 -0.173488 1.56642 0
M  V30 1644 C 162.076 -1.19859 1.95362 0
M  V30 1645 C 163.076 -1.37296 0.83704 0
M  V30 1646 O 164.266 -1.34739 1.10413 0
M  V30 1647 C 161.398 -2.56405 2.24654 0
M  V30 1648 H 162.591 -0.867062 2.87092 0
M  V30 1649 H 160.144 -0.415853 1.50666 0
M  V30 1650 H 160.879 -2.94576 1.35631 0
M  V30 1651 H 160.664 -2.45115 3.06041 0
M  V30 1652 H 162.154 -3.30287 2.5554 0
M  V30 1653 N 162.591 -1.51276 -0.441967 0
M  V30 1654 C 163.838 -1.63715 -1.19179 0
M  V30 1655 C 164.166 -0.351175 -1.91303 0
M  V30 1656 O 163.421 0.664524 -1.84072 0
M  V30 1657 C 163.72 -2.78746 -2.23686 0
M  V30 1658 C 163.386 -4.18189 -1.68607 0
M  V30 1659 C 162.048 -4.56125 -1.53308 0
M  V30 1660 C 164.4 -5.05222 -1.28062 0
M  V30 1661 C 161.728 -5.78804 -0.959317 0
M  V30 1662 C 164.08 -6.28476 -0.721162 0
M  V30 1663 C 162.744 -6.65188 -0.55504 0
M  V30 1664 H 162.014 -0.599076 -0.436106 0
M  V30 1665 H 164.661 -1.85296 -0.48351 0
M  V30 1666 H 162.966 -2.51369 -3.00535 0
M  V30 1667 H 164.663 -2.8557 -2.81515 0
M  V30 1668 H 161.253 -3.88277 -1.8149 0
M  V30 1669 H 165.437 -4.76524 -1.38704 0
M  V30 1670 H 160.693 -6.05899 -0.81833 0
M  V30 1671 H 164.867 -6.95259 -0.398458 0
M  V30 1672 H 162.494 -7.60123 -0.108311 0
M  V30 1673 N 164.069 0.697108 -1.41344 0
M  V30 1674 C 165.318 1.45279 -1.39918 0
M  V30 1675 C 165.631 1.95597 -0.0109624 0
M  V30 1676 O 166.837 2.71208 0.125919 0
M  V30 1677 C 165.293 2.62695 -2.46007 0
M  V30 1678 C 164.901 2.19169 -3.90729 0
M  V30 1679 C 166.645 3.40336 -2.53715 0
M  V30 1680 C 164.552 3.33535 -4.88373 0
M  V30 1681 H 163.482 0.545692 -0.520323 0
M  V30 1682 H 166.133 0.756929 -1.67161 0
M  V30 1683 H 164.515 3.34541 -2.11892 0
M  V30 1684 H 165.689 1.54623 -4.34083 0
M  V30 1685 H 164.004 1.54525 -3.86666 0
M  V30 1686 H 166.601 4.2547 -3.2385 0
M  V30 1687 H 166.944 3.85418 -1.5735 0
M  V30 1688 H 167.477 2.75546 -2.86913 0
M  V30 1689 H 164.216 2.93468 -5.86137 0
M  V30 1690 H 163.736 3.96936 -4.49668 0
M  V30 1691 H 165.415 3.99335 -5.09059 0
M  V30 1692 N 165.547 1.27147 0.931209 0
M  V30 1693 C 166.775 1.16082 1.71267 0
M  V30 1694 C 167.19 -0.282772 1.8667 0
M  V30 1695 O 166.547 -1.19283 1.38122 0
M  V30 1696 C 166.598 1.8358 3.11417 0
M  V30 1697 O 166.319 3.22299 2.96741 0
M  V30 1698 C 167.82 1.78597 4.05732 0
M  V30 1699 H 165.04 0.403758 0.535929 0
M  V30 1700 H 167.584 1.67953 1.16671 0
M  V30 1701 H 165.739 1.35623 3.62885 0
M  V30 1702 H 166.153 3.55851 3.85319 0
M  V30 1703 H 167.627 2.30444 5.01597 0
M  V30 1704 H 168.104 0.754564 4.3267 0
M  V30 1705 H 168.71 2.26152 3.60188 0
M  V30 1706 N 167.025 -1.13721 1.09112 0
M  V30 1707 C 168.273 -1.84559 0.823562 0
M  V30 1708 C 168.594 -1.83754 -0.652658 0
M  V30 1709 O 167.864 -1.29102 -1.47342 0
M  V30 1710 H 166.444 -0.683376 0.301673 0
M  V30 1711 H 169.106 -1.37771 1.37859 0
M  V30 1712 H 168.202 -2.8917 1.17419 0
M  V30 1713 N 168.503 -0.877838 -1.30888 0
M  V30 1714 C 169.749 -0.502773 -1.97088 0
M  V30 1715 C 170.104 0.936274 -1.68082 0
M  V30 1716 O 169.397 1.65162 -0.971196 0
M  V30 1717 C 169.591 -0.705748 -3.50363 0
M  V30 1718 C 169.42 -2.16297 -3.94266 0
M  V30 1719 C 168.19 -2.80614 -4.20219 0
M  V30 1720 C 170.388 -3.13606 -4.07622 0
M  V30 1721 N 168.37 -4.17007 -4.50532 0
M  V30 1722 C 169.741 -4.35051 -4.41736 0
M  V30 1723 C 171.796 -3.09491 -3.90026 0
M  V30 1724 C 170.499 -5.52911 -4.60089 0
M  V30 1725 C 172.525 -4.26616 -4.09576 0
M  V30 1726 C 171.887 -5.46825 -4.44029 0
M  V30 1727 H 167.986 -0.233168 -0.746429 0
M  V30 1728 H 170.57 -1.13408 -1.58261 0
M  V30 1729 H 168.741 -0.103976 -3.88261 0
M  V30 1730 H 170.473 -0.298291 -4.03599 0
M  V30 1731 H 167.228 -2.3152 -4.13153 0
M  V30 1732 H 167.652 -4.87426 -4.69834 0
M  V30 1733 H 172.294 -2.17657 -3.62471 0
M  V30 1734 H 170.012 -6.45255 -4.86489 0
M  V30 1735 H 173.598 -4.24894 -3.97438 0
M  V30 1736 H 172.478 -6.35947 -4.58848 0
M  V30 1737 N 169.982 1.44106 -0.638065 0
M  V30 1738 C 170.93 2.3248 0.0748149 0
M  V30 1739 C 171.924 1.47746 0.828702 0
M  V30 1740 O 173.13 1.64049 0.740816 0
M  V30 1741 H 169.505 0.750771 0.0429686 0
M  V30 1742 H 171.476 2.90348 -0.688504 0
M  V30 1743 C 170.225 3.31843 1.03805 0
M  V30 1744 H 169.548 3.97059 0.467375 0
M  V30 1745 H 170.988 3.96345 1.50622 0
M  V30 1746 C 169.447 2.61291 2.1267 0
M  V30 1747 O 169.977 2.41702 3.20847 0
M  V30 1748 N 168.183 2.20915 1.88798 0
M  V30 1749 H 167.73 2.37047 1.00829 0
M  V30 1750 H 167.688 1.74038 2.61836 0
M  V30 1751 N 171.46 0.379036 1.52974 0
M  V30 1752 C 172.39 -0.452706 2.29069 0
M  V30 1753 C 173.371 -1.07237 1.32039 0
M  V30 1754 O 174.556 -1.08708 1.60923 0
M  V30 1755 C 171.686 -1.5856 3.08992 0
M  V30 1756 C 170.64 -1.0925 4.13822 0
M  V30 1757 C 169.966 -2.31668 4.81907 0
M  V30 1758 C 171.266 -0.167702 5.22031 0
M  V30 1759 H 172.96 0.182181 2.98845 0
M  V30 1760 H 170.506 0.0890592 1.43724 0
M  V30 1761 H 172.459 -2.1742 3.6098 0
M  V30 1762 H 171.183 -2.24792 2.36931 0
M  V30 1763 H 169.842 -0.526494 3.628 0
M  V30 1764 H 169.49 -2.96386 4.06404 0
M  V30 1765 H 169.19 -1.9934 5.52754 0
M  V30 1766 H 170.714 -2.91189 5.36695 0
M  V30 1767 H 172.128 -0.664186 5.6944 0
M  V30 1768 H 170.525 0.0653265 6.00064 0
M  V30 1769 H 171.595 0.786347 4.78482 0
M  V30 1770 N 172.938 -1.57226 0.108567 0
M  V30 1771 C 174.187 -1.94008 -0.551703 0
M  V30 1772 C 174.5 -0.993442 -1.68494 0
M  V30 1773 O 175.706 -1.25551 -2.40726 0
M  V30 1774 C 174.162 -3.44763 -1.03279 0
M  V30 1775 C 173.77 -4.47943 0.0714193 0
M  V30 1776 C 175.514 -3.90483 -1.66503 0
M  V30 1777 C 173.421 -5.89865 -0.425779 0
M  V30 1778 H 172.351 -0.724206 -0.209863 0
M  V30 1779 H 175.002 -1.82547 0.186741 0
M  V30 1780 H 173.384 -3.51422 -1.82533 0
M  V30 1781 H 174.558 -4.52942 0.847365 0
M  V30 1782 H 172.873 -4.11913 0.609669 0
M  V30 1783 H 175.47 -4.93925 -2.04798 0
M  V30 1784 H 175.813 -3.29877 -2.53942 0
M  V30 1785 H 176.346 -3.86581 -0.938074 0
M  V30 1786 H 173.085 -6.54202 0.412316 0
M  V30 1787 H 172.605 -5.88309 -1.16843 0
M  V30 1788 H 174.284 -6.40844 -0.890397 0
M  V30 1789 N 174.416 0.165178 -1.56732 0
M  V30 1790 C 175.346 1.20651 -1.99914 0
M  V30 1791 C 176.327 1.45827 -0.875705 0
M  V30 1792 O 177.512 1.57057 -1.14223 0
M  V30 1793 C 174.642 2.54401 -2.36427 0
M  V30 1794 C 173.596 2.43782 -3.51787 0
M  V30 1795 C 172.922 3.82078 -3.7406 0
M  V30 1796 C 174.222 1.93732 -4.85041 0
M  V30 1797 H 175.916 0.847534 -2.87154 0
M  V30 1798 H 173.462 0.40625 -1.38151 0
M  V30 1799 H 175.415 3.27458 -2.65234 0
M  V30 1800 H 174.139 2.92098 -1.46103 0
M  V30 1801 H 172.798 1.73178 -3.23117 0
M  V30 1802 H 172.446 4.17179 -2.81017 0
M  V30 1803 H 172.146 3.7584 -4.51684 0
M  V30 1804 H 173.67 4.56712 -4.05274 0
M  V30 1805 H 175.084 2.56569 -5.12684 0
M  V30 1806 H 173.481 1.98428 -5.66345 0
M  V30 1807 H 174.551 0.891962 -4.76626 0
M  V30 1808 N 175.894 1.51508 0.433938 0
M  V30 1809 C 177.119 1.68443 1.21003 0
M  V30 1810 C 177.544 0.382636 1.84167 0
M  V30 1811 O 176.902 -0.65755 1.68956 0
M  V30 1812 C 176.95 2.80405 2.26727 0
M  V30 1813 O 176.054 2.44245 3.32292 0
M  V30 1814 H 175.395 0.561536 0.354363 0
M  V30 1815 H 177.925 1.9809 0.512024 0
M  V30 1816 H 177.935 3.0459 2.71457 0
M  V30 1817 H 176.61 3.74867 1.80132 0
M  V30 1818 H 175.187 2.30644 2.93015 0
M  V30 1819 N 177.372 -0.689602 1.41712 0
M  V30 1820 C 178.602 -1.47613 1.44548 0
M  V30 1821 C 179.01 -1.89132 0.0509034 0
M  V30 1822 O 178.353 -1.57741 -0.94146 0
M  V30 1823 C 178.415 -2.76596 2.2964 0
M  V30 1824 C 178.079 -2.57245 3.77722 0
M  V30 1825 C 179.076 -2.22804 4.69739 0
M  V30 1826 C 176.761 -2.727 4.2183 0
M  V30 1827 C 178.755 -2.04064 6.03851 0
M  V30 1828 C 176.442 -2.53576 5.56006 0
M  V30 1829 C 177.44 -2.1931 6.46832 0
M  V30 1830 O 177.128 -2.00359 7.78532 0
M  V30 1831 H 176.86 -0.461227 0.494212 0
M  V30 1832 H 179.414 -0.856045 1.86711 0
M  V30 1833 H 177.644 -3.41033 1.82301 0
M  V30 1834 H 179.333 -3.38424 2.24107 0
M  V30 1835 H 180.099 -2.10473 4.36951 0
M  V30 1836 H 175.978 -2.98353 3.51435 0
M  V30 1837 H 179.522 -1.77241 6.74708 0
M  V30 1838 H 175.419 -2.65499 5.88371 0
M  V30 1839 H 176.187 -2.15075 7.89737 0
M  V30 1840 N 178.85 -1.27639 -0.924453 0
M  V30 1841 C 180.099 -1.13549 -1.66702 0
M  V30 1842 C 180.412 0.317487 -1.93006 0
M  V30 1843 O 181.618 0.579333 -2.65247 0
M  V30 1844 C 180.074 -1.98426 -3.00259 0
M  V30 1845 C 179.682 -3.484 -2.81641 0
M  V30 1846 C 181.426 -1.92993 -3.78092 0
M  V30 1847 C 179.333 -4.25464 -4.10773 0
M  V30 1848 H 178.263 -0.421351 -0.625283 0
M  V30 1849 H 180.914 -1.52085 -1.02676 0
M  V30 1850 H 179.296 -1.52736 -3.6536 0
M  V30 1851 H 180.47 -4.01973 -2.25287 0
M  V30 1852 H 178.785 -3.55245 -2.17232 0
M  V30 1853 H 181.382 -2.47844 -4.7379 0
M  V30 1854 H 181.725 -0.904281 -4.0636 0
M  V30 1855 H 182.258 -2.36595 -3.19793 0
M  V30 1856 H 178.997 -5.28566 -3.87683 0
M  V30 1857 H 178.517 -3.76667 -4.66779 0
M  V30 1858 H 180.196 -4.34812 -4.79111 0
M  V30 1859 N 180.328 1.1314 -1.09713 0
M  V30 1860 C 181.577 1.83838 -0.829851 0
M  V30 1861 C 181.89 1.84599 0.646728 0
M  V30 1862 O 183.096 2.51218 1.02965 0
M  V30 1863 C 181.552 3.30069 -1.43466 0
M  V30 1864 C 181.16 3.37688 -2.94399 0
M  V30 1865 C 182.904 4.05788 -1.24645 0
M  V30 1866 C 180.811 4.78209 -3.47952 0
M  V30 1867 H 179.741 0.68877 -0.306777 0
M  V30 1868 H 182.392 1.27448 -1.3202 0
M  V30 1869 H 180.774 3.8628 -0.871996 0
M  V30 1870 H 181.948 2.91456 -3.56918 0
M  V30 1871 H 180.263 2.75436 -3.12289 0
M  V30 1872 H 182.86 5.09535 -1.62107 0
M  V30 1873 H 183.203 4.15878 -0.187357 0
M  V30 1874 H 183.736 3.55915 -1.77678 0
M  V30 1875 H 180.475 4.73311 -4.53495 0
M  V30 1876 H 179.995 5.24924 -2.90198 0
M  V30 1877 H 181.674 5.47133 -3.45332 0
M  V30 1878 N 181.806 0.884767 1.30421 0
M  V30 1879 C 183.054 0.502112 1.95763 0
M  V30 1880 C 183.375 -0.951815 1.70192 0
M  V30 1881 O 182.645 -1.6692 1.0254 0
M  V30 1882 H 181.225 0.182694 0.724315 0
M  V30 1883 H 183.887 1.1278 1.58955 0
M  V30 1884 H 182.983 0.672188 3.04775 0
M  V30 1885 N 183.284 -1.43765 0.645699 0
M  V30 1886 C 184.512 -2.06253 0.163556 0
M  V30 1887 C 184.927 -1.48352 -1.16778 0
M  V30 1888 O 184.284 -0.611932 -1.71935 0
M  V30 1889 C 184.335 -3.61453 0.0583186 0
M  V30 1890 O 184.056 -4.172 1.33702 0
M  V30 1891 C 185.557 -4.41002 -0.450795 0
M  V30 1892 H 182.777 -0.665413 0.0864077 0
M  V30 1893 H 185.321 -1.84396 0.884222 0
M  V30 1894 H 183.476 -3.82522 -0.612865 0
M  V30 1895 H 183.89 -5.10791 1.19131 0
M  V30 1896 H 185.364 -5.49966 -0.473403 0
M  V30 1897 H 185.841 -4.13488 -1.48068 0
M  V30 1898 H 186.447 -4.24886 0.187637 0
M  V30 1899 N 184.763 -0.387143 -1.52771 0
M  V30 1900 C 185.988 0.198407 -2.06449 0
M  V30 1901 C 186.413 1.39918 -1.25716 0
M  V30 1902 O 185.771 1.79099 -0.281657 0
M  V30 1903 C 185.819 0.548893 -3.56398 0
M  V30 1904 O 184.923 1.64315 -3.78252 0
M  V30 1905 H 184.264 0.0237731 -0.663574 0
M  V30 1906 H 186.794 -0.553989 -1.96957 0
M  V30 1907 H 186.804 0.813812 -3.99801 0
M  V30 1908 H 185.479 -0.329005 -4.14597 0
M  V30 1909 H 184.056 1.37211 -3.46738 0
M  V30 1910 N 186.241 1.57166 -0.116904 0
M  V30 1911 C 187.466 1.999 0.55271 0
M  V30 1912 C 187.891 0.996039 1.59564 0
M  V30 1913 O 187.249 -0.032556 1.81271 0
M  V30 1914 C 187.297 3.4152 1.15742 0
M  V30 1915 O 186.401 3.44106 2.27299 0
M  V30 1916 H 185.742 0.649447 0.138258 0
M  V30 1917 H 188.272 2.03573 -0.204759 0
M  V30 1918 H 188.282 3.79684 1.49346 0
M  V30 1919 H 186.957 4.14034 0.393493 0
M  V30 1920 H 185.534 3.17759 1.9515 0
M  V30 1921 N 187.719 -0.156864 1.56817 0
M  V30 1922 C 188.965 -0.872416 1.83076 0
M  V30 1923 C 189.298 -1.81261 0.697001 0
M  V30 1924 O 188.573 -1.92171 -0.30008 0
M  V30 1925 C 188.856 -1.65551 3.19789 0
M  V30 1926 C 188.709 -0.737467 4.43713 0
M  V30 1927 C 190.028 -2.62012 3.53606 0
M  V30 1928 H 187.147 -0.315715 0.665953 0
M  V30 1929 H 189.789 -0.138004 1.89498 0
M  V30 1930 H 187.939 -2.28159 3.14445 0
M  V30 1931 H 189.611 -0.123143 4.61136 0
M  V30 1932 H 187.854 -0.0464067 4.33775 0
M  V30 1933 H 188.525 -1.32122 5.35955 0
M  V30 1934 H 191.001 -2.09525 3.59497 0
M  V30 1935 H 189.877 -3.13861 4.50314 0
M  V30 1936 H 190.138 -3.42902 2.79053 0
M  V30 1937 N 189.197 -1.51736 -0.425897 0
M  V30 1938 C 190.16 -1.73271 -1.50032 0
M  V30 1939 C 191.16 -0.602639 -1.4908 0
M  V30 1940 O 192.35 -0.87033 -1.509 0
M  V30 1941 C 189.482 -1.79969 -2.89523 0
M  V30 1942 H 190.675 -2.69172 -1.32237 0
M  V30 1943 H 188.228 -1.41899 -0.65532 0
M  V30 1944 H 188.963 -0.859241 -3.1271 0
M  V30 1945 H 188.748 -2.62109 -2.91619 0
M  V30 1946 H 190.238 -1.9843 -3.67444 0
M  V30 1947 N 190.675 0.682077 -1.42076 0
M  V30 1948 C 192.091 0.994324 -1.24841 0
M  V30 1949 C 192.291 2.0096 -0.147389 0
M  V30 1950 O 191.347 2.47822 0.483782 0
M  V30 1951 C 192.66 1.50607 -2.60265 0
M  V30 1952 C 194.208 1.62421 -2.6756 0
M  V30 1953 C 194.683 2.16994 -4.03333 0
M  V30 1954 N 196.174 2.24337 -4.0525 0
M  V30 1955 C 196.909 2.67621 -5.07116 0
M  V30 1956 N 196.405 3.1041 -6.19368 0
M  V30 1957 N 198.198 2.67305 -4.94474 0
M  V30 1958 H 190.349 0.00973908 -2.12398 0
M  V30 1959 H 192.612 0.0668593 -0.945639 0
M  V30 1960 H 192.318 0.834583 -3.41654 0
M  V30 1961 H 192.192 2.48602 -2.83684 0
M  V30 1962 H 194.579 2.28678 -1.86521 0
M  V30 1963 H 194.66 0.629352 -2.47937 0
M  V30 1964 H 194.304 1.51349 -4.84826 0
M  V30 1965 H 194.234 3.17258 -4.20304 0
M  V30 1966 H 196.725 1.94158 -3.24209 0
M  V30 1967 H 197.038 3.42103 -6.92954 0
M  V30 1968 H 195.383 3.08286 -6.22884 0
M  V30 1969 H 198.574 2.33233 -4.05857 0
M  V30 1970 H 198.747 3.00718 -5.73997 0
M  V30 1971 N 192.153 1.28127 0.917671 0
M  V30 1972 C 193.116 1.11744 2.00115 0
M  V30 1973 C 194.116 0.0583052 1.60694 0
M  V30 1974 O 195.306 0.303755 1.71531 0
M  V30 1975 C 192.438 0.704862 3.33533 0
M  V30 1976 H 193.631 2.07966 2.16079 0
M  V30 1977 H 191.184 1.11058 1.09981 0
M  V30 1978 H 191.919 -0.258299 3.2327 0
M  V30 1979 H 191.704 1.4699 3.63505 0
M  V30 1980 H 193.194 0.612768 4.1308 0
M  V30 1981 N 193.631 -1.12557 1.10312 0
M  V30 1982 C 194.877 -1.84515 0.855901 0
M  V30 1983 C 195.232 -1.82409 -0.611936 0
M  V30 1984 O 194.525 -1.25778 -1.44535 0
M  V30 1985 C 194.719 -3.31462 1.33669 0
M  V30 1986 C 194.548 -3.47879 2.84974 0
M  V30 1987 C 193.318 -3.61589 3.52961 0
M  V30 1988 C 195.516 -3.43152 3.83081 0
M  V30 1989 N 193.498 -3.66359 4.926 0
M  V30 1990 C 194.869 -3.54401 5.08724 0
M  V30 1991 C 196.924 -3.2661 3.75807 0
M  V30 1992 C 195.627 -3.50815 6.2795 0
M  V30 1993 C 197.653 -3.24335 4.94531 0
M  V30 1994 C 197.015 -3.36144 6.19021 0
M  V30 1995 H 193.114 -0.690967 0.366182 0
M  V30 1996 H 195.698 -1.34763 1.40524 0
M  V30 1997 H 193.869 -3.7976 0.814686 0
M  V30 1998 H 195.601 -3.91272 1.03385 0
M  V30 1999 H 192.356 -3.63652 3.03404 0
M  V30 2000 H 192.78 -3.72411 5.65366 0
M  V30 2001 H 197.422 -3.16375 2.80476 0
M  V30 2002 H 195.14 -3.5982 7.23571 0
M  V30 2003 H 198.726 -3.12719 4.9061 0
M  V30 2004 H 197.606 -3.34357 7.09348 0
M  V30 2005 N 195.109 -0.891671 -1.2995 0
M  V30 2006 C 196.334 -0.527932 -2.00568 0
M  V30 2007 C 196.759 0.877969 -1.66353 0
M  V30 2008 O 196.117 1.58301 -0.883762 0
M  V30 2009 C 196.165 -0.717745 -3.53385 0
M  V30 2010 O 195.269 0.233376 -4.11739 0
M  V30 2011 H 194.61 -0.20722 -0.630837 0
M  V30 2012 H 197.14 -1.20105 -1.65638 0
M  V30 2013 H 197.15 -0.619307 -4.03272 0
M  V30 2014 H 195.825 -1.74276 -3.77625 0
M  V30 2015 H 194.402 0.0880706 -3.72796 0
M  V30 2016 N 196.587 1.43421 -0.653314 0
M  V30 2017 C 197.55 2.29182 0.0287951 0
M  V30 2018 C 198.55 1.42213 0.750465 0
M  V30 2019 O 199.74 1.63843 0.591701 0
M  V30 2020 C 196.872 3.24278 1.05151 0
M  V30 2021 H 198.065 2.90985 -0.725786 0
M  V30 2022 H 195.618 1.50702 -0.414545 0
M  V30 2023 H 196.353 2.6737 1.83532 0
M  V30 2024 H 196.138 3.88396 0.537687 0
M  V30 2025 H 197.628 3.88647 1.52786 0
M  V30 2026 N 198.065 0.39524 1.52563 0
M  V30 2027 C 199.293 -0.184943 2.06072 0
M  V30 2028 C 199.708 -1.40021 1.26647 0
M  V30 2029 O 199.065 -1.79767 0.314672 0
M  V30 2030 C 199.116 -0.549179 3.57304 0
M  V30 2031 O 198.837 0.617813 4.33722 0
M  V30 2032 C 200.338 -1.18459 4.2718 0
M  V30 2033 H 197.558 -0.0265025 0.670476 0
M  V30 2034 H 200.102 0.562184 1.96621 0
M  V30 2035 H 198.257 -1.2462 3.66809 0
M  V30 2036 H 198.671 0.317091 5.23541 0
M  V30 2037 H 200.145 -1.38976 5.34219 0
M  V30 2038 H 200.622 -2.15368 3.82771 0
M  V30 2039 H 201.228 -0.528163 4.22008 0
M  V30 2040 N 199.544 -1.57102 0.125237 0
M  V30 2041 C 200.791 -1.95407 -0.531248 0
M  V30 2042 C 201.119 -1.0089 -1.66287 0
M  V30 2043 O 200.374 -0.0339431 -1.95671 0
M  V30 2044 C 200.673 -3.40096 -1.09862 0
M  V30 2045 C 200.339 -4.50815 -0.0876989 0
M  V30 2046 C 199.001 -4.80824 0.19026 0
M  V30 2047 C 201.353 -5.17724 0.600902 0
M  V30 2048 C 198.681 -5.75058 1.163 0
M  V30 2049 C 201.033 -6.13005 1.56231 0
M  V30 2050 C 199.697 -6.41403 1.8482 0
M  V30 2051 H 198.967 -0.715046 -0.194397 0
M  V30 2052 H 201.614 -1.90373 0.207463 0
M  V30 2053 H 199.919 -3.41855 -1.91422 0
M  V30 2054 H 201.616 -3.6705 -1.61478 0
M  V30 2055 H 198.206 -4.27444 -0.314528 0
M  V30 2056 H 202.39 -4.94691 0.399333 0
M  V30 2057 H 197.646 -5.95362 1.39117 0
M  V30 2058 H 201.82 -6.63934 2.10153 0
M  V30 2059 H 199.447 -7.14229 2.60349 0
M  V30 2060 N 201.022 0.148545 -1.56898 0
M  V30 2061 C 202.299 0.890019 -1.74178 0
M  V30 2062 C 202.679 1.99407 -0.692839 0
M  V30 2063 O 202.027 2.26671 0.288505 0
M  V30 2064 C 202.237 1.43389 -3.18183 0
M  V30 2065 C 203.585 1.89791 -3.79822 0
M  V30 2066 O 204.609 1.53134 -3.21603 0
M  V30 2067 O 203.468 2.57387 -4.82093 0
M  V30 2068 H 200.562 0.420496 -0.712118 0
M  V30 2069 H 203.108 0.134591 -1.69165 0
M  V30 2070 H 201.88 0.640383 -3.86024 0
M  V30 2071 H 201.503 2.25287 -3.27615 0
M  V30 2072 N 202.5 1.5196 0.417844 0
M  V30 2073 C 203.41 1.77554 1.53336 0
M  V30 2074 C 204.426 0.660655 1.6097 0
M  V30 2075 O 205.602 0.945099 1.77848 0
M  V30 2076 C 202.667 1.91291 2.89152 0
M  V30 2077 C 201.728 3.15183 2.91475 0
M  V30 2078 C 200.961 3.28256 4.20813 0
M  V30 2079 O 201.184 2.46798 5.14244 0
M  V30 2080 O 200.118 4.21356 4.29817 0
M  V30 2081 H 203.944 2.7222 1.34647 0
M  V30 2082 H 201.529 1.36698 0.602828 0
M  V30 2083 H 203.411 2.02199 3.69721 0
M  V30 2084 H 202.086 0.998129 3.07927 0
M  V30 2085 H 200.993 3.09739 2.09791 0
M  V30 2086 H 202.326 4.06414 2.77648 0
M  V30 2087 N 203.978 -0.674533 1.42435 0
M  V30 2088 C 204.908 -1.80009 1.48724 0
M  V30 2089 C 205.889 -1.6659 0.343793 0
M  V30 2090 O 207.074 -1.86007 0.558137 0
M  V30 2091 C 204.204 -3.18306 1.38919 0
M  V30 2092 C 203.158 -3.46461 2.51294 0
M  V30 2093 C 202.484 -4.84335 2.26547 0
M  V30 2094 C 203.784 -3.43328 3.93603 0
M  V30 2095 H 205.478 -1.75004 2.42928 0
M  V30 2096 H 203.024 -0.840533 1.16923 0
M  V30 2097 H 204.977 -3.9678 1.41927 0
M  V30 2098 H 203.701 -3.2399 0.412094 0
M  V30 2099 H 202.36 -2.70348 2.47604 0
M  V30 2100 H 202.008 -4.86669 1.2713 0
M  V30 2101 H 201.708 -5.04136 3.01861 0
M  V30 2102 H 203.232 -5.65094 2.31304 0
M  V30 2103 H 204.646 -4.11772 3.98894 0
M  V30 2104 H 203.043 -3.74664 4.68771 0
M  V30 2105 H 204.113 -2.41897 4.20255 0
M  V30 2106 N 205.456 -1.28612 -0.910864 0
M  V30 2107 C 206.705 -1.15311 -1.65488 0
M  V30 2108 C 207.018 0.296999 -1.93332 0
M  V30 2109 O 208.224 0.551168 -2.65847 0
M  V30 2110 C 206.68 -2.01599 -2.98137 0
M  V30 2111 C 206.288 -3.51367 -2.7793 0
M  V30 2112 C 208.032 -1.96993 -3.76024 0
M  V30 2113 C 205.939 -4.29797 -4.06237 0
M  V30 2114 H 204.869 -0.42796 -0.620779 0
M  V30 2115 H 207.52 -1.53166 -1.01057 0
M  V30 2116 H 205.902 -1.56603 -3.63719 0
M  V30 2117 H 207.076 -4.0434 -2.21011 0
M  V30 2118 H 205.391 -3.57529 -2.13452 0
M  V30 2119 H 207.988 -2.52856 -4.71135 0
M  V30 2120 H 208.331 -0.94733 -4.05378 0
M  V30 2121 H 208.864 -2.39973 -3.17266 0
M  V30 2122 H 205.603 -5.32648 -3.82055 0
M  V30 2123 H 205.123 -3.81596 -4.62757 0
M  V30 2124 H 206.802 -4.39869 -4.74473 0
M  V30 2125 N 206.934 1.1197 -1.10907 0
M  V30 2126 C 208.182 1.83225 -0.852819 0
M  V30 2127 C 208.503 1.84769 0.623341 0
M  V30 2128 O 207.773 1.3143 1.45269 0
M  V30 2129 H 206.353 0.67849 -0.312507 0
M  V30 2130 H 209.015 1.3556 -1.40033 0
M  V30 2131 H 208.111 2.87265 -1.22005 0
M  V30 2132 N 208.412 0.89855 1.29475 0
M  V30 2133 C 209.828 0.594483 1.48115 0
M  V30 2134 C 210.028 -0.86431 1.82022 0
M  V30 2135 O 209.084 -1.64457 1.91599 0
M  V30 2136 C 210.397 1.51932 2.59494 0
M  V30 2137 C 211.945 1.5244 2.7337 0
M  V30 2138 C 212.42 2.43548 3.87877 0
M  V30 2139 N 213.911 2.41589 3.95208 0
M  V30 2140 C 214.646 3.08789 4.83153 0
M  V30 2141 N 214.142 3.85265 5.75798 0
M  V30 2142 N 215.935 2.97952 4.76635 0
M  V30 2143 H 208.086 1.84207 1.05742 0
M  V30 2144 H 210.349 0.789251 0.525154 0
M  V30 2145 H 210.055 2.55865 2.41301 0
M  V30 2146 H 209.929 1.23899 3.56271 0
M  V30 2147 H 212.316 0.492518 2.90961 0
M  V30 2148 H 212.397 1.8451 1.77172 0
M  V30 2149 H 212.041 3.46829 3.71041 0
M  V30 2150 H 211.971 2.08788 4.83441 0
M  V30 2151 H 214.462 1.86025 3.28943 0
M  V30 2152 H 214.775 4.33598 6.39697 0
M  V30 2153 H 213.12 3.89371 5.75687 0
M  V30 2154 H 216.311 2.37723 4.03244 0
M  V30 2155 H 216.484 3.50599 5.44962 0
M  V30 2156 N 209.89 -1.43072 0.660911 0
M  V30 2157 C 211.301 -1.84932 0.256348 0
M  V30 2158 C 211.652 -1.55325 -1.19868 0
M  V30 2159 O 210.777 -1.00607 -1.91591 0
M  V30 2160 C 211.372 -3.35684 0.458475 0
M  V30 2161 C 209.931 -3.76245 0.108161 0
M  V30 2162 C 209.078 -2.66749 0.757641 0
M  V30 2163 H 212.029 -1.33116 0.864051 0
M  V30 2164 H 212.05 -3.79365 -0.293683 0
M  V30 2165 H 211.562 -3.572 1.51755 0
M  V30 2166 H 209.663 -3.60338 -0.948014 0
M  V30 2167 H 209.776 -4.76058 0.538992 0
M  V30 2168 H 208.14 -2.53989 0.190185 0
M  V30 2169 H 208.923 -2.91092 1.81989 0
M  V30 2170 N 211.368 -0.403325 -1.52352 0
M  V30 2171 C 212.617 0.175668 -2.00934 0
M  V30 2172 C 212.93 1.46718 -1.29356 0
M  V30 2173 O 214.136 2.12708 -1.68724 0
M  V30 2174 C 212.592 0.363612 -3.58058 0
M  V30 2175 C 212.2 -0.915472 -4.38547 0
M  V30 2176 C 213.944 0.89821 -4.14888 0
M  V30 2177 C 211.851 -0.695035 -5.87302 0
M  V30 2178 H 210.781 0.0694234 -0.750797 0
M  V30 2179 H 213.432 -0.527879 -1.75743 0
M  V30 2180 H 211.814 1.12935 -3.79555 0
M  V30 2181 H 212.988 -1.68691 -4.28812 0
M  V30 2182 H 211.303 -1.37606 -3.93006 0
M  V30 2183 H 213.9 1.07907 -5.23699 0
M  V30 2184 H 214.243 1.87126 -3.71873 0
M  V30 2185 H 214.776 0.191681 -3.97338 0
M  V30 2186 H 211.515 -1.63948 -6.34666 0
M  V30 2187 H 211.035 0.0372116 -5.99788 0
M  V30 2188 H 212.714 -0.33497 -6.46132 0
M  V30 2189 N 212.846 1.57033 -0.133567 0
M  V30 2190 C 214.094 1.953 0.519848 0
M  V30 2191 C 214.415 1.01866 1.66278 0
M  V30 2192 O 213.685 0.0776513 1.95746 0
M  V30 2193 H 212.265 0.721091 0.195032 0
M  V30 2194 H 214.927 1.93809 -0.205921 0
M  V30 2195 H 214.023 2.98695 0.904854 0
M  V30 2196 N 214.325 -0.140222 1.56975 0
M  V30 2197 C 215.235 -1.19223 2.02047 0
M  V30 2198 C 216.251 -1.46612 0.937062 0
M  V30 2199 O 217.427 -1.58148 1.24704 0
M  V30 2200 C 214.492 -2.50414 2.39778 0
M  V30 2201 C 213.553 -2.30612 3.621 0
M  V30 2202 C 212.786 -3.55547 3.98023 0
M  V30 2203 O 213.009 -4.62004 3.34528 0
M  V30 2204 O 211.943 -3.47808 4.91237 0
M  V30 2205 H 215.769 -0.839559 2.91865 0
M  V30 2206 H 213.354 -0.349453 1.45256 0
M  V30 2207 H 215.236 -3.27747 2.64877 0
M  V30 2208 H 213.911 -2.85198 1.53114 0
M  V30 2209 H 212.818 -1.51207 3.4218 0
M  V30 2210 H 214.151 -2.00741 4.49404 0
M  V30 2211 N 215.803 -1.52179 -0.40978 0
M  V30 2212 C 217.05 -1.66206 -1.15679 0
M  V30 2213 C 217.378 -0.391674 -1.90516 0
M  V30 2214 O 216.633 0.62533 -1.8544 0
M  V30 2215 C 216.932 -2.83428 -2.17723 0
M  V30 2216 C 216.598 -4.21672 -1.59699 0
M  V30 2217 C 215.26 -4.59274 -1.43599 0
M  V30 2218 C 217.612 -5.07825 -1.17317 0
M  V30 2219 C 214.94 -5.80709 -0.836328 0
M  V30 2220 C 217.292 -6.29864 -0.587691 0
M  V30 2221 C 215.956 -6.66216 -0.413818 0
M  V30 2222 H 215.226 -0.608192 -0.423301 0
M  V30 2223 H 217.873 -1.86279 -0.444097 0
M  V30 2224 H 216.178 -2.57687 -2.95135 0
M  V30 2225 H 217.875 -2.91477 -2.75394 0
M  V30 2226 H 214.465 -3.9204 -1.73213 0
M  V30 2227 H 218.649 -4.79359 -1.28565 0
M  V30 2228 H 213.905 -6.07498 -0.689626 0
M  V30 2229 H 218.079 -6.95948 -0.250894 0
M  V30 2230 H 215.706 -7.60182 0.0529471 0
M  V30 2231 N 217.281 0.66697 -1.42791 0
M  V30 2232 C 218.506 1.46004 -1.47301 0
M  V30 2233 C 218.931 1.87894 -0.0880317 0
M  V30 2234 O 218.289 1.56502 0.915253 0
M  V30 2235 C 218.337 2.68031 -2.41229 0
M  V30 2236 O 217.441 3.6659 -1.88906 0
M  V30 2237 H 216.782 0.43832 -0.49877 0
M  V30 2238 H 219.312 0.817391 -1.87563 0
M  V30 2239 H 219.322 3.1601 -2.58073 0
M  V30 2240 H 217.997 2.36883 -3.41847 0
M  V30 2241 H 216.574 3.25661 -1.81656 0
M  V30 2242 N 218.759 1.29093 0.90403 0
M  V30 2243 C 220.175 1.07011 1.1841 0
M  V30 2244 C 220.375 -0.181358 2.00682 0
M  V30 2245 O 219.431 -0.880331 2.36657 0
M  V30 2246 C 220.744 2.32311 1.90924 0
M  V30 2247 C 222.292 2.37587 2.03768 0
M  V30 2248 C 222.767 3.62679 2.79693 0
M  V30 2249 N 224.258 3.63376 2.87249 0
M  V30 2250 C 224.993 4.56848 3.46522 0
M  V30 2251 N 224.489 5.60648 4.06996 0
M  V30 2252 N 226.282 4.44426 3.44154 0
M  V30 2253 H 218.433 2.09412 0.354993 0
M  V30 2254 H 220.696 0.922181 0.219742 0
M  V30 2255 H 220.402 3.23536 1.37905 0
M  V30 2256 H 220.276 2.39483 2.91424 0
M  V30 2257 H 222.663 1.46853 2.55965 0
M  V30 2258 H 222.744 2.34403 1.02415 0
M  V30 2259 H 222.388 4.53762 2.28173 0
M  V30 2260 H 222.318 3.63119 3.81381 0
M  V30 2261 H 224.809 2.88321 2.44293 0
M  V30 2262 H 225.122 6.28101 4.50232 0
M  V30 2263 H 223.467 5.64463 4.05471 0
M  V30 2264 H 226.658 3.62529 2.96126 0
M  V30 2265 H 226.831 5.17457 3.90054 0
M  V30 2266 N 220.237 -1.11381 1.11499 0
M  V30 2267 C 221.465 -1.86934 0.88675 0
M  V30 2268 C 221.88 -1.80195 -0.563476 0
M  V30 2269 O 221.237 -1.18367 -1.38908 0
M  V30 2270 C 221.288 -3.35722 1.34064 0
M  V30 2271 O 221.009 -3.4232 2.73401 0
M  V30 2272 C 222.51 -4.2818 1.14791 0
M  V30 2273 H 219.73 -0.591117 0.317523 0
M  V30 2274 H 222.274 -1.40865 1.48248 0
M  V30 2275 H 220.429 -3.79294 0.788355 0
M  V30 2276 H 220.843 -4.34971 2.93087 0
M  V30 2277 H 222.317 -5.30817 1.5145 0
M  V30 2278 H 222.794 -4.39113 0.0875279 0
M  V30 2279 H 223.4 -3.90402 1.68721 0
M  V30 2280 N 221.715 -0.905404 -1.28997 0
M  V30 2281 C 222.665 -0.358713 -2.25161 0
M  V30 2282 C 223.649 0.524449 -1.52113 0
M  V30 2283 O 224.841 0.365534 -1.73184 0
M  V30 2284 C 221.97 0.407609 -3.40872 0
M  V30 2285 C 221.056 -0.490797 -4.21251 0
M  V30 2286 N 221.447 -1.60061 -4.79806 0
M  V30 2287 C 219.745 -0.289636 -4.45059 0
M  V30 2288 C 220.446 -2.15757 -5.40207 0
M  V30 2289 N 219.422 -1.44988 -5.23908 0
M  V30 2290 H 223.224 -1.20642 -2.67998 0
M  V30 2291 H 220.738 -0.757103 -1.43672 0
M  V30 2292 H 222.735 0.816046 -4.08835 0
M  V30 2293 H 221.395 1.25251 -2.9957 0
M  V30 2294 H 222.406 -1.98329 -4.7842 0
M  V30 2295 H 219.083 0.51643 -4.14294 0
M  V30 2296 H 220.473 -3.09069 -5.96595 0
M  V30 2297 N 223.193 1.4272 -0.668489 0
M  V30 2298 C 224.126 2.28111 0.0637898 0
M  V30 2299 C 225.104 1.40705 0.814912 0
M  V30 2300 O 226.288 1.70146 0.81134 0
M  V30 2301 C 223.415 3.20429 1.0974 0
M  V30 2302 C 222.461 4.24197 0.442579 0
M  V30 2303 S 223.294 5.29563 -0.795173 0
M  V30 2304 C 224.45 6.25449 0.237516 0
M  V30 2305 H 224.683 2.8987 -0.660521 0
M  V30 2306 H 222.216 1.47456 -0.457821 0
M  V30 2307 H 224.174 3.74158 1.68868 0
M  V30 2308 H 222.835 2.57818 1.79411 0
M  V30 2309 H 222.028 4.88954 1.22227 0
M  V30 2310 H 221.63 3.73925 -0.0749554 0
M  V30 2311 H 223.922 6.68524 1.09915 0
M  V30 2312 H 224.865 7.07104 -0.375421 0
M  V30 2313 H 225.273 5.61511 0.580167 0
M  V30 2314 N 224.671 0.411399 1.52136 0
M  V30 2315 C 225.899 -0.163076 2.06256 0
M  V30 2316 C 226.314 -1.3867 1.28125 0
M  V30 2317 O 225.671 -1.79423 0.333721 0
M  V30 2318 C 225.722 -0.511252 3.57867 0
M  V30 2319 O 225.443 0.66378 4.33042 0
M  V30 2320 C 226.944 -1.13921 4.28412 0
M  V30 2321 H 224.164 -0.0193897 0.67072 0
M  V30 2322 H 226.708 0.583007 1.96013 0
M  V30 2323 H 224.863 -1.20723 3.6811 0
M  V30 2324 H 225.277 0.372601 5.23175 0
M  V30 2325 H 226.751 -1.33302 5.35663 0
M  V30 2326 H 227.228 -2.11296 3.85033 0
M  V30 2327 H 227.834 -0.483373 4.22544 0
M  V30 2328 N 226.149 -1.5696 0.141893 0
M  V30 2329 C 227.079 -2.19516 -0.795936 0
M  V30 2330 C 228.06 -1.14187 -1.26077 0
M  V30 2331 O 229.245 -1.42511 -1.31925 0
M  V30 2332 C 226.375 -2.81272 -2.03723 0
M  V30 2333 C 225.329 -3.92384 -1.70936 0
M  V30 2334 C 224.655 -4.41052 -3.02287 0
M  V30 2335 C 225.955 -5.13403 -0.959954 0
M  V30 2336 H 227.649 -2.98138 -0.274596 0
M  V30 2337 H 225.195 -1.43406 -0.130636 0
M  V30 2338 H 227.148 -3.237 -2.69808 0
M  V30 2339 H 225.872 -1.99973 -2.58221 0
M  V30 2340 H 224.531 -3.50566 -1.07232 0
M  V30 2341 H 224.179 -3.56582 -3.54765 0
M  V30 2342 H 223.879 -5.15993 -2.81114 0
M  V30 2343 H 225.403 -4.86146 -3.69451 0
M  V30 2344 H 226.817 -5.52706 -1.52279 0
M  V30 2345 H 225.214 -5.94073 -0.848357 0
M  V30 2346 H 226.284 -4.84875 0.0492434 0
M  V30 2347 N 227.627 0.131896 -1.57047 0
M  V30 2348 C 228.575 1.18146 -2.0036 0
M  V30 2349 C 229.569 1.43614 -0.898406 0
M  V30 2350 O 230.775 1.43729 -1.08361 0
M  V30 2351 H 227.15 0.398042 -0.638018 0
M  V30 2352 H 229.121 0.789564 -2.87765 0
M  V30 2353 C 227.87 2.50341 -2.41298 0
M  V30 2354 H 227.193 2.31578 -3.25902 0
M  V30 2355 H 228.633 3.22371 -2.75414 0
M  V30 2356 C 227.092 3.11984 -1.27153 0
M  V30 2357 O 227.622 3.97484 -0.580459 0
M  V30 2358 N 225.828 2.71662 -1.03189 0
M  V30 2359 H 225.375 2.02231 -1.59564 0
M  V30 2360 H 225.333 3.13238 -0.270077 0
M  V30 2361 N 229.106 1.52395 0.401703 0
M  V30 2362 C 230.069 1.75636 1.47257 0
M  V30 2363 C 231.069 0.62628 1.48103 0
M  V30 2364 O 232.259 0.894227 1.49497 0
M  V30 2365 C 229.391 1.84553 2.86624 0
M  V30 2366 H 230.584 2.71241 1.27938 0
M  V30 2367 H 228.137 1.42923 0.632662 0
M  V30 2368 H 228.872 0.908882 3.11303 0
M  V30 2369 H 228.657 2.66715 2.87412 0
M  V30 2370 H 230.147 2.04251 3.64241 0
M  V30 2371 N 230.584 -0.659388 1.43143 0
M  V30 2372 C 231.995 -1.24041 1.39537 0
M  V30 2373 C 232.346 -1.95963 0.0963364 0
M  V30 2374 O 231.471 -2.00892 -0.804438 0
M  V30 2375 C 232.066 -2.25601 2.52764 0
M  V30 2376 C 230.625 -2.79195 2.52443 0
M  V30 2377 C 229.772 -1.53743 2.30778 0
M  V30 2378 H 232.723 -0.451792 1.52133 0
M  V30 2379 H 232.744 -3.07651 2.23899 0
M  V30 2380 H 232.256 -1.73226 3.47296 0
M  V30 2381 H 230.357 -3.35649 1.61773 0
M  V30 2382 H 230.47 -3.2716 3.50004 0
M  V30 2383 H 228.834 -1.80869 1.79328 0
M  V30 2384 H 229.617 -1.03312 3.27386 0
M  V30 2385 N 232.062 -1.29571 -0.897171 0
M  V30 2386 C 233.31 -1.17456 -1.64464 0
M  V30 2387 C 233.631 0.273698 -1.9307 0
M  V30 2388 O 232.901 1.18684 -1.55855 0
M  V30 2389 H 231.481 -0.431706 -0.609622 0
M  V30 2390 H 234.143 -1.62531 -1.07562 0
M  V30 2391 H 233.239 -1.72648 -2.59998 0
M  V30 2392 N 233.54 1.10788 -1.12088 0
M  V30 2393 C 234.786 1.82942 -0.875226 0
M  V30 2394 C 235.119 1.84779 0.597538 0
M  V30 2395 O 234.394 1.30578 1.44152 0
M  V30 2396 C 234.677 3.29789 -1.44606 0
M  V30 2397 C 234.53 3.36307 -2.98693 0
M  V30 2398 C 235.849 4.26064 -1.10261 0
M  V30 2399 H 232.968 0.664195 -0.319397 0
M  V30 2400 H 235.61 1.29867 -1.38689 0
M  V30 2401 H 233.76 3.75118 -1.01089 0
M  V30 2402 H 235.432 2.99487 -3.50864 0
M  V30 2403 H 233.675 2.76318 -3.34411 0
M  V30 2404 H 234.346 4.39694 -3.33726 0
M  V30 2405 H 236.822 3.88951 -1.4784 0
M  V30 2406 H 235.698 5.27183 -1.52869 0
M  V30 2407 H 235.959 4.42098 -0.0142953 0
M  V30 2408 N 235.018 0.912232 1.28515 0
M  V30 2409 C 235.948 0.416403 2.29757 0
M  V30 2410 C 236.929 -0.515194 1.6211 0
M  V30 2411 O 238.114 -0.423253 1.89532 0
M  V30 2412 C 235.244 -0.34572 3.45575 0
M  V30 2413 C 234.198 0.496599 4.25109 0
M  V30 2414 C 233.524 -0.393771 5.33248 0
M  V30 2415 C 234.824 1.75307 4.92001 0
M  V30 2416 H 236.518 1.26249 2.7148 0
M  V30 2417 H 234.064 0.608515 1.30511 0
M  V30 2418 H 236.017 -0.703422 4.15488 0
M  V30 2419 H 234.741 -1.2257 3.02728 0
M  V30 2420 H 233.4 0.8368 3.56922 0
M  V30 2421 H 233.048 -1.27225 4.86644 0
M  V30 2422 H 232.748 0.166209 5.87365 0
M  V30 2423 H 234.272 -0.747389 6.06009 0
M  V30 2424 H 235.686 1.46437 5.54283 0
M  V30 2425 H 234.083 2.25534 5.56106 0
M  V30 2426 H 235.153 2.48176 4.16577 0
M  V30 2427 N 236.496 -1.42363 0.676048 0
M  V30 2428 C 237.459 -2.29199 0.00766941 0
M  V30 2429 C 238.459 -1.43389 -0.727745 0
M  V30 2430 O 239.649 -1.64764 -0.56556 0
M  V30 2431 C 236.781 -3.2591 -0.999785 0
M  V30 2432 H 237.974 -2.89794 0.771988 0
M  V30 2433 H 235.527 -1.50024 0.438468 0
M  V30 2434 H 236.262 -2.70256 -1.79255 0
M  V30 2435 H 236.047 -3.89202 -0.475829 0
M  V30 2436 H 237.537 -3.91028 -1.46583 0
M  V30 2437 N 237.974 -0.419461 -1.51915 0
M  V30 2438 C 238.884 0.407528 -2.31033 0
M  V30 2439 C 239.9 1.04413 -1.3919 0
M  V30 2440 O 241.076 1.0434 -1.72265 0
M  V30 2441 C 238.141 1.50365 -3.12396 0
M  V30 2442 C 237.202 0.889029 -4.19994 0
M  V30 2443 C 236.435 1.93291 -4.97468 0
M  V30 2444 O 236.658 3.15259 -4.75361 0
M  V30 2445 O 235.592 1.53339 -5.8204 0
M  V30 2446 H 239.418 -0.237865 -3.02767 0
M  V30 2447 H 237.003 -0.182413 -1.48282 0
M  V30 2448 H 238.885 2.13975 -3.63032 0
M  V30 2449 H 237.56 2.13345 -2.43445 0
M  V30 2450 H 236.467 0.215353 -3.7348 0
M  V30 2451 H 237.8 0.302991 -4.91267 0
M  V30 2452 N 239.452 1.56882 -0.150215 0
M  V30 2453 C 240.4 2.18214 0.805313 0
M  V30 2454 C 241.394 1.14006 1.25296 0
M  V30 2455 O 242.6 1.3225 1.22107 0
M  V30 2456 H 238.975 0.698762 0.277913 0
M  V30 2457 H 240.946 2.97231 0.263862 0
M  V30 2458 C 239.695 2.82065 2.03309 0
M  V30 2459 H 239.018 3.61968 1.69763 0
M  V30 2460 H 240.458 3.28477 2.68103 0
M  V30 2461 C 238.917 1.80739 2.84315 0
M  V30 2462 O 239.447 1.27983 3.80767 0
M  V30 2463 N 237.653 1.4997 2.48913 0
M  V30 2464 H 237.2 1.93062 1.70542 0
M  V30 2465 H 237.158 0.824217 3.03404 0
M  V30 2466 N 240.93 -0.123565 1.57115 0
M  V30 2467 C 242.341 -0.681198 1.73829 0
M  V30 2468 C 242.692 -1.80535 0.768214 0
M  V30 2469 O 241.817 -2.16317 -0.0599103 0
M  V30 2470 C 242.412 -1.24246 3.15196 0
M  V30 2471 C 240.971 -1.74643 3.33432 0
M  V30 2472 C 240.118 -0.644284 2.69711 0
M  V30 2473 H 243.069 0.102315 1.5837 0
M  V30 2474 H 243.09 -2.11216 3.16493 0
M  V30 2475 H 242.602 -0.424062 3.85776 0
M  V30 2476 H 240.703 -2.58974 2.67886 0
M  V30 2477 H 240.816 -1.85902 4.41562 0
M  V30 2478 H 239.18 -1.07676 2.3082 0
M  V30 2479 H 239.963 0.163058 3.42913 0
M  V30 2480 N 242.408 -1.52605 -0.393616 0
M  V30 2481 C 243.685 -1.58001 -1.15304 0
M  V30 2482 C 244.065 -0.370385 -2.07825 0
M  V30 2483 O 243.413 0.641638 -2.19306 0
M  V30 2484 C 243.623 -2.91652 -1.91677 0
M  V30 2485 C 244.971 -3.4522 -2.47201 0
M  V30 2486 O 245.995 -2.93495 -2.01839 0
M  V30 2487 O 244.854 -4.35579 -3.3005 0
M  V30 2488 H 241.948 -0.637068 -0.527327 0
M  V30 2489 H 244.494 -1.64939 -0.399141 0
M  V30 2490 H 243.266 -3.71136 -1.23992 0
M  V30 2491 H 242.889 -2.88077 -2.74039 0
M  V30 2492 N 243.887 0.651787 -1.4349 0
M  V30 2493 C 245.136 1.40754 -1.44469 0
M  V30 2494 C 245.449 1.95463 -0.0731845 0
M  V30 2495 O 246.655 2.71471 0.0395721 0
M  V30 2496 C 245.111 2.54735 -2.5424 0
M  V30 2497 C 244.719 2.06628 -3.97504 0
M  V30 2498 C 246.463 3.32092 -2.64414 0
M  V30 2499 C 244.37 3.17829 -4.98737 0
M  V30 2500 H 243.3 0.528862 -0.53742 0
M  V30 2501 H 245.951 0.703365 -1.69485 0
M  V30 2502 H 244.333 3.2763 -2.22428 0
M  V30 2503 H 245.507 1.40734 -4.38783 0
M  V30 2504 H 243.822 1.42146 -3.91387 0
M  V30 2505 H 246.419 4.14952 -3.37223 0
M  V30 2506 H 246.762 3.80217 -1.69532 0
M  V30 2507 H 247.295 2.66279 -2.95534 0
M  V30 2508 H 244.034 2.74671 -5.95177 0
M  V30 2509 H 243.554 3.82429 -4.62069 0
M  V30 2510 H 245.233 3.82937 -5.21505 0
M  V30 2511 N 245.365 1.30045 0.890287 0
M  V30 2512 C 246.612 1.18561 1.64163 0
M  V30 2513 C 246.94 -0.260852 1.92743 0
M  V30 2514 O 246.195 -1.20376 1.54299 0
M  V30 2515 C 246.494 1.95409 2.99249 0
M  V30 2516 C 246.16 3.45066 2.90242 0
M  V30 2517 C 244.822 3.85878 2.87492 0
M  V30 2518 C 247.174 4.4039 2.78758 0
M  V30 2519 C 244.502 5.20314 2.7109 0
M  V30 2520 C 246.854 5.74928 2.63894 0
M  V30 2521 C 245.518 6.14986 2.59516 0
M  V30 2522 H 244.788 0.433846 0.600715 0
M  V30 2523 H 247.435 1.61088 1.03552 0
M  V30 2524 H 245.74 1.45501 3.63781 0
M  V30 2525 H 247.437 1.8392 3.56334 0
M  V30 2526 H 244.027 3.12631 2.93189 0
M  V30 2527 H 248.211 4.09806 2.79952 0
M  V30 2528 H 243.467 5.50449 2.66112 0
M  V30 2529 H 247.641 6.48434 2.53981 0
M  V30 2530 H 245.268 7.19104 2.46565 0
M  V30 2531 N 246.843 -1.10192 1.12674 0
M  V30 2532 C 247.806 -2.14786 0.799979 0
M  V30 2533 C 248.806 -1.59711 -0.18685 0
M  V30 2534 O 249.996 -1.74156 0.0392558 0
M  V30 2535 C 247.128 -3.40374 0.189228 0
M  V30 2536 H 248.321 -2.45203 1.72671 0
M  V30 2537 H 245.874 -1.25597 0.930326 0
M  V30 2538 H 246.609 -3.15577 -0.747107 0
M  V30 2539 H 246.394 -3.81637 0.899766 0
M  V30 2540 H 247.884 -4.17594 -0.0228143 0
M  V30 2541 N 248.321 -0.919034 -1.28029 0
M  V30 2542 C 249.567 -0.555757 -1.95036 0
M  V30 2543 C 249.9 0.899198 -1.72128 0
M  V30 2544 O 249.175 1.64023 -1.04531 0
M  V30 2545 C 249.458 -0.872024 -3.49382 0
M  V30 2546 C 249.311 -2.3801 -3.81669 0
M  V30 2547 C 250.63 -0.37185 -4.38526 0
M  V30 2548 H 247.749 -0.203386 -0.708381 0
M  V30 2549 H 250.391 -1.14924 -1.51303 0
M  V30 2550 H 248.541 -0.366946 -3.86763 0
M  V30 2551 H 250.213 -2.9562 -3.54128 0
M  V30 2552 H 248.456 -2.83289 -3.28526 0
M  V30 2553 H 249.127 -2.55192 -4.8947 0
M  V30 2554 H 251.603 -0.804602 -4.08247 0
M  V30 2555 H 250.479 -0.622173 -5.45362 0
M  V30 2556 H 250.74 0.727934 -4.36066 0
M  V30 2557 N 249.799 1.42003 -0.683588 0
M  V30 2558 C 251.048 2.00638 -0.206681 0
M  V30 2559 C 251.361 1.5472 1.19671 0
M  V30 2560 O 252.567 2.05833 1.77045 0
M  V30 2561 C 251.023 3.58487 -0.318632 0
M  V30 2562 C 250.631 4.1339 -1.72663 0
M  V30 2563 C 252.375 4.24384 0.0991141 0
M  V30 2564 C 250.282 5.63633 -1.79087 0
M  V30 2565 H 249.212 0.750408 -0.0735107 0
M  V30 2566 H 251.863 1.62624 -0.850048 0
M  V30 2567 H 250.245 3.94047 0.392781 0
M  V30 2568 H 251.419 3.89273 -2.46583 0
M  V30 2569 H 249.734 3.59976 -2.09299 0
M  V30 2570 H 252.331 5.34652 0.0713833 0
M  V30 2571 H 252.674 4.00505 1.13586 0
M  V30 2572 H 253.207 3.93816 -0.561599 0
M  V30 2573 H 249.946 5.92323 -2.80774 0
M  V30 2574 H 249.466 5.89714 -1.09535 0
M  V30 2575 H 251.145 6.28201 -1.5483 0
M  V30 2576 N 251.277 0.427512 1.51691 0
M  V30 2577 C 252.526 -0.143679 2.01188 0
M  V30 2578 C 252.839 -1.44642 1.31674 0
M  V30 2579 O 254.045 -2.09997 1.72086 0
M  V30 2580 C 252.501 -0.306602 3.58592 0
M  V30 2581 C 252.109 0.985125 4.37035 0
M  V30 2582 C 253.853 -0.832091 4.16265 0
M  V30 2583 C 251.76 0.788382 5.86122 0
M  V30 2584 H 250.69 -0.0574701 0.751807 0
M  V30 2585 H 253.341 0.555772 1.74881 0
M  V30 2586 H 251.723 -1.06882 3.81303 0
M  V30 2587 H 252.897 1.75492 4.26074 0
M  V30 2588 H 251.212 1.4384 3.90767 0
M  V30 2589 H 253.809 -0.995617 5.25349 0
M  V30 2590 H 254.152 -1.81186 3.74803 0
M  V30 2591 H 254.685 -0.128444 3.97593 0
M  V30 2592 H 251.424 1.74025 6.31978 0
M  V30 2593 H 250.944 0.0582143 5.99772 0
M  V30 2594 H 252.623 0.437722 6.45518 0
M  V30 2595 N 252.755 -1.56801 0.158532 0
M  V30 2596 C 254.004 -1.95665 -0.489702 0
M  V30 2597 C 254.317 -1.04654 -1.65248 0
M  V30 2598 O 255.523 -1.33146 -2.3661 0
M  V30 2599 C 253.979 -3.47874 -0.922582 0
M  V30 2600 C 253.587 -4.47489 0.213893 0
M  V30 2601 C 255.331 -3.95583 -1.53996 0
M  V30 2602 C 253.238 -5.90921 -0.237903 0
M  V30 2603 H 252.168 -0.730516 -0.186716 0
M  V30 2604 H 254.819 -1.81861 0.244722 0
M  V30 2605 H 253.201 -3.57051 -1.71261 0
M  V30 2606 H 254.375 -4.50017 0.991036 0
M  V30 2607 H 252.69 -4.09764 0.740407 0
M  V30 2608 H 255.287 -5.0019 -1.8898 0
M  V30 2609 H 255.63 -3.37789 -2.43319 0
M  V30 2610 H 256.163 -3.8937 -0.814611 0
M  V30 2611 H 252.902 -6.52559 0.620236 0
M  V30 2612 H 252.422 -5.91729 -0.980676 0
M  V30 2613 H 254.101 -6.43352 -0.686067 0
M  V30 2614 N 254.233 0.115231 -1.57178 0
M  V30 2615 C 255.163 1.1423 -2.03651 0
M  V30 2616 C 256.144 1.42967 -0.921655 0
M  V30 2617 O 257.329 1.53343 -1.19162 0
M  V30 2618 C 254.459 2.4675 -2.44401 0
M  V30 2619 C 253.413 2.32467 -3.59365 0
M  V30 2620 C 252.739 3.69984 -3.86026 0
M  V30 2621 C 254.039 1.78203 -4.90959 0
M  V30 2622 H 255.733 0.755749 -2.89705 0
M  V30 2623 H 253.279 0.362093 -1.39373 0
M  V30 2624 H 255.232 3.18854 -2.75517 0
M  V30 2625 H 253.956 2.87302 -1.55322 0
M  V30 2626 H 252.615 1.62811 -3.28463 0
M  V30 2627 H 252.263 4.08028 -2.94147 0
M  V30 2628 H 251.963 3.61279 -4.63412 0
M  V30 2629 H 253.487 4.43587 -4.19599 0
M  V30 2630 H 254.901 2.40128 -5.20587 0
M  V30 2631 H 253.298 1.8031 -5.72371 0
M  V30 2632 H 254.368 0.739876 -4.79222 0
M  V30 2633 N 255.711 1.52812 0.385517 0
M  V30 2634 C 256.96 1.67249 1.12741 0
M  V30 2635 C 257.273 0.4205 1.91027 0
M  V30 2636 O 258.479 0.445064 2.67827 0
M  V30 2637 C 256.935 2.95583 2.05326 0
M  V30 2638 C 256.543 4.27974 1.32447 0
M  V30 2639 C 258.287 3.19386 2.7963 0
M  V30 2640 C 256.194 5.47412 2.23818 0
M  V30 2641 H 255.124 0.6231 0.424573 0
M  V30 2642 H 257.775 1.79309 0.389924 0
M  V30 2643 H 256.157 2.77277 2.82725 0
M  V30 2644 H 257.331 4.56844 0.602495 0
M  V30 2645 H 255.646 4.10459 0.700885 0
M  V30 2646 H 258.243 4.05801 3.48181 0
M  V30 2647 H 258.586 2.34604 3.43899 0
M  V30 2648 H 259.119 3.38274 2.09322 0
M  V30 2649 H 255.858 6.34612 1.64157 0
M  V30 2650 H 255.378 5.22849 2.93921 0
M  V30 2651 H 257.057 5.81423 2.83824 0
M  V30 2652 N 257.189 -0.644168 1.43834 0
M  V30 2653 C 258.119 -1.76814 1.52509 0
M  V30 2654 C 259.1 -1.65823 0.379052 0
M  V30 2655 O 260.285 -1.84781 0.597466 0
M  V30 2656 C 257.415 -3.15288 1.4564 0
M  V30 2657 C 256.369 -3.41053 2.58586 0
M  V30 2658 C 255.695 -4.79421 2.36769 0
M  V30 2659 C 256.995 -3.34902 4.00797 0
M  V30 2660 H 258.689 -1.69812 2.46586 0
M  V30 2661 H 256.235 -0.815542 1.1868 0
M  V30 2662 H 258.188 -3.93681 1.50311 0
M  V30 2663 H 256.912 -3.23043 0.480725 0
M  V30 2664 H 255.571 -2.65035 2.53282 0
M  V30 2665 H 255.219 -4.83863 1.37424 0
M  V30 2666 H 254.919 -4.9762 3.12487 0
M  V30 2667 H 256.443 -5.6006 2.43238 0
M  V30 2668 H 257.857 -4.03218 4.07539 0
M  V30 2669 H 256.254 -3.64637 4.76613 0
M  V30 2670 H 257.324 -2.32928 4.25291 0
M  V30 2671 N 258.668 -1.30515 -0.883378 0
M  V30 2672 C 259.896 -1.22359 -1.66841 0
M  V30 2673 C 260.311 0.213296 -1.87591 0
M  V30 2674 O 259.668 1.14075 -1.42454 0
M  V30 2675 C 259.719 -1.95011 -3.04389 0
M  V30 2676 O 259.44 -3.3309 -2.84575 0
M  V30 2677 C 260.941 -1.93532 -3.98824 0
M  V30 2678 H 258.161 -0.423371 -0.520575 0
M  V30 2679 H 260.705 -1.72167 -1.10357 0
M  V30 2680 H 258.86 -1.48997 -3.57601 0
M  V30 2681 H 259.274 -3.69907 -3.71846 0
M  V30 2682 H 260.748 -2.48902 -4.92699 0
M  V30 2683 H 261.225 -0.914627 -4.29571 0
M  V30 2684 H 261.831 -2.39364 -3.51547 0
M  V30 2685 N 260.146 1.09593 -1.13257 0
M  V30 2686 C 261.394 1.81375 -0.891492 0
M  V30 2687 C 261.715 1.86049 0.584009 0
M  V30 2688 O 260.985 1.34481 1.42449 0
M  V30 2689 H 259.565 0.671708 -0.326828 0
M  V30 2690 H 262.227 1.3256 -1.42877 0
M  V30 2691 H 261.323 2.84612 -1.28071 0
M  V30 2692 N 261.624 0.925811 1.2754 0
M  V30 2693 C 262.554 0.440748 2.29303 0
M  V30 2694 C 263.535 -0.497971 1.62648 0
M  V30 2695 O 264.72 -0.403126 1.8997 0
M  V30 2696 C 261.85 -0.309048 3.45922 0
M  V30 2697 C 260.804 0.54166 4.24559 0
M  V30 2698 C 260.13 -0.337191 5.33636 0
M  V30 2699 C 261.43 1.80516 4.90114 0
M  V30 2700 H 263.124 1.29121 2.70126 0
M  V30 2701 H 260.67 0.622323 1.29858 0
M  V30 2702 H 262.623 -0.659315 4.1621 0
M  V30 2703 H 261.347 -1.19352 3.04011 0
M  V30 2704 H 260.006 0.874609 3.56014 0
M  V30 2705 H 259.654 -1.22056 4.87966 0
M  V30 2706 H 259.354 0.228497 5.87156 0
M  V30 2707 H 260.878 -0.683072 6.06767 0
M  V30 2708 H 262.292 1.52307 5.52698 0
M  V30 2709 H 260.689 2.3142 5.53683 0
M  V30 2710 H 261.759 2.52581 4.13921 0
M  V30 2711 N 263.102 -1.41638 0.69111 0
M  V30 2712 C 264.032 -2.3347 0.037248 0
M  V30 2713 C 265.013 -1.51575 -0.771947 0
M  V30 2714 O 266.198 -1.80126 -0.72582 0
M  V30 2715 C 263.328 -3.35354 -0.903064 0
M  V30 2716 C 262.282 -4.27526 -0.201288 0
M  V30 2717 C 261.608 -5.19747 -1.25565 0
M  V30 2718 C 262.908 -5.13959 0.929689 0
M  V30 2719 H 264.602 -2.88397 0.804227 0
M  V30 2720 H 262.148 -1.38669 0.388189 0
M  V30 2721 H 264.101 -3.98519 -1.36969 0
M  V30 2722 H 262.825 -2.78767 -1.70166 0
M  V30 2723 H 261.484 -3.65779 0.245265 0
M  V30 2724 H 261.132 -4.59479 -2.04666 0
M  V30 2725 H 260.832 -5.8225 -0.791128 0
M  V30 2726 H 262.356 -5.85789 -1.72288 0
M  V30 2727 H 263.77 -5.70718 0.543546 0
M  V30 2728 H 262.167 -5.85379 1.32103 0
M  V30 2729 H 263.237 -4.51389 1.77133 0
M  V30 2730 N 264.58 -0.43555 -1.51462 0
M  V30 2731 C 265.808 0.130242 -2.0649 0
M  V30 2732 C 266.223 1.36614 -1.30315 0
M  V30 2733 O 265.58 1.78869 -0.362223 0
M  V30 2734 C 265.631 0.454253 -3.58635 0
M  V30 2735 O 265.352 -0.73259 -4.31931 0
M  V30 2736 C 266.853 1.07091 -4.3017 0
M  V30 2737 H 264.073 0.00871669 -0.670943 0
M  V30 2738 H 266.617 -0.614117 -1.95061 0
M  V30 2739 H 264.772 1.14851 -3.69984 0
M  V30 2740 H 265.186 -0.455787 -5.22516 0
M  V30 2741 H 266.66 1.24764 -5.37716 0
M  V30 2742 H 267.137 2.05144 -3.88346 0
M  V30 2743 H 267.743 0.416089 -4.2326 0
M  V30 2744 N 266.058 1.56714 -0.166846 0
M  V30 2745 C 266.988 2.20754 0.760913 0
M  V30 2746 C 267.969 1.16178 1.24244 0
M  V30 2747 O 269.154 1.44592 1.29641 0
M  V30 2748 C 266.284 2.84478 1.99223 0
M  V30 2749 C 265.238 3.95053 1.64672 0
M  V30 2750 C 264.564 4.45805 2.95232 0
M  V30 2751 C 265.864 5.14865 0.878155 0
M  V30 2752 H 267.558 2.98537 0.22713 0
M  V30 2753 H 265.104 1.43596 0.107805 0
M  V30 2754 H 267.057 3.27951 2.64624 0
M  V30 2755 H 265.781 2.04056 2.55007 0
M  V30 2756 H 264.44 3.52228 1.01641 0
M  V30 2757 H 264.088 3.62181 3.49047 0
M  V30 2758 H 263.788 5.204 2.7287 0
M  V30 2759 H 265.312 4.91962 3.6167 0
M  V30 2760 H 266.726 5.55059 1.43466 0
M  V30 2761 H 265.123 5.95348 0.753738 0
M  V30 2762 H 266.193 4.84735 -0.126377 0
M  V30 2763 N 267.536 -0.106894 1.57237 0
M  V30 2764 C 268.784 -0.810921 1.85117 0
M  V30 2765 C 269.105 -1.7984 0.753827 0
M  V30 2766 O 268.375 -1.94649 -0.221056 0
M  V30 2767 H 266.955 -0.302466 0.683025 0
M  V30 2768 H 269.617 -0.0913324 1.94686 0
M  V30 2769 H 268.713 -1.34875 2.81452 0
M  V30 2770 N 269.014 -1.53014 -0.377408 0
M  V30 2771 C 270.26 -1.68872 -1.12294 0
M  V30 2772 C 270.593 -0.433224 -1.89306 0
M  V30 2773 O 269.868 0.569258 -1.85983 0
M  V30 2774 C 270.151 -2.93115 -2.09179 0
M  V30 2775 C 270.004 -4.28794 -1.35853 0
M  V30 2776 C 271.323 -3.12928 -3.09458 0
M  V30 2777 H 268.442 -0.614518 -0.406862 0
M  V30 2778 H 271.084 -1.85633 -0.40503 0
M  V30 2779 H 269.234 -2.78956 -2.70399 0
M  V30 2780 H 270.906 -4.54742 -0.775082 0
M  V30 2781 H 269.149 -4.28744 -0.660364 0
M  V30 2782 H 269.82 -5.11837 -2.06706 0
M  V30 2783 H 272.296 -3.26194 -2.58334 0
M  V30 2784 H 271.172 -4.01316 -3.74482 0
M  V30 2785 H 271.433 -2.27669 -3.78971 0
M  V30 2786 N 270.492 0.636531 -1.44174 0
M  V30 2787 C 271.439 1.74875 -1.50624 0
M  V30 2788 C 272.409 1.62275 -0.35442 0
M  V30 2789 O 273.594 1.82276 -0.563908 0
M  V30 2790 C 270.734 3.13102 -1.45125 0
M  V30 2791 C 269.847 3.36717 -2.7064 0
M  V30 2792 C 268.982 4.64885 -2.57013 0
M  V30 2793 C 268.021 4.8166 -3.77717 0
M  V30 2794 N 267.158 6.01101 -3.62798 0
M  V30 2795 H 271.998 1.68697 -2.45653 0
M  V30 2796 H 269.535 0.823004 -1.21922 0
M  V30 2797 H 271.493 3.93034 -1.39929 0
M  V30 2798 H 270.123 3.18308 -0.536671 0
M  V30 2799 H 269.175 2.50763 -2.86046 0
M  V30 2800 H 270.487 3.44993 -3.60252 0
M  V30 2801 H 269.641 5.52969 -2.49619 0
M  V30 2802 H 268.38 4.58957 -1.64953 0
M  V30 2803 H 267.385 3.92007 -3.85501 0
M  V30 2804 H 268.61 4.89406 -4.70807 0
M  V30 2805 H 266.556 5.96273 -2.73486 0
M  V30 2806 H 266.473 6.10409 -4.46023 0
M  V30 2807 H 267.741 6.91761 -3.59286 0
M  V30 2808 N 271.97 1.30982 0.876444 0
M  V30 2809 C 272.88 1.2003 2.01569 0
M  V30 2810 C 273.896 0.11838 1.73597 0
M  V30 2811 O 275.072 0.33495 1.98595 0
M  V30 2812 C 272.137 0.901637 3.34771 0
M  V30 2813 C 271.198 2.06979 3.76109 0
M  V30 2814 C 270.431 1.78529 5.02954 0
M  V30 2815 O 270.654 0.717296 5.65872 0
M  V30 2816 O 269.588 2.64019 5.40905 0
M  V30 2817 H 273.414 2.15753 2.13739 0
M  V30 2818 H 270.999 1.10658 1.00375 0
M  V30 2819 H 272.881 0.750645 4.1466 0
M  V30 2820 H 271.556 -0.0256141 3.2369 0
M  V30 2821 H 270.463 2.27616 2.96887 0
M  V30 2822 H 271.796 2.97907 3.91807 0
M  V30 2823 N 273.449 -1.08991 1.13837 0
M  V30 2824 C 274.674 -1.85551 0.926585 0
M  V30 2825 C 275.099 -1.80782 -0.519566 0
M  V30 2826 O 274.457 -1.18855 -1.36906 0
M  V30 2827 C 274.505 -3.31266 1.42462 0
M  V30 2828 O 273.609 -4.07822 0.612789 0
M  V30 2829 H 272.95 -0.575192 0.331738 0
M  V30 2830 H 275.48 -1.37604 1.51414 0
M  V30 2831 H 275.49 -3.82112 1.43019 0
M  V30 2832 H 274.165 -3.34052 2.47754 0
M  V30 2833 H 272.742 -3.66731 0.675463 0
M  V30 2834 N 274.927 -0.932562 -1.27047 0
M  V30 2835 C 275.89 -0.440064 -2.24936 0
M  V30 2836 C 276.89 0.444071 -1.54547 0
M  V30 2837 O 278.08 0.244465 -1.72476 0
M  V30 2838 C 275.212 0.36678 -3.38921 0
M  V30 2839 H 276.405 -1.305 -2.70018 0
M  V30 2840 H 273.958 -0.713707 -1.39054 0
M  V30 2841 H 274.693 1.25033 -2.99228 0
M  V30 2842 H 274.478 -0.267204 -3.91188 0
M  V30 2843 H 275.968 0.701567 -4.11665 0
M  V30 2844 N 276.405 1.4127 -0.698611 0
M  V30 2845 C 277.338 2.28195 0.0153898 0
M  V30 2846 C 278.316 1.42402 0.784883 0
M  V30 2847 O 279.5 1.71828 0.775067 0
M  V30 2848 C 276.627 3.22685 1.02918 0
M  V30 2849 C 275.673 4.25041 0.352501 0
M  V30 2850 S 276.506 5.27757 -0.907322 0
M  V30 2851 C 277.662 6.25812 0.104796 0
M  V30 2852 H 277.895 2.88403 -0.721858 0
M  V30 2853 H 275.428 1.46452 -0.488996 0
M  V30 2854 H 277.386 3.77655 1.60893 0
M  V30 2855 H 276.047 2.61566 1.73902 0
M  V30 2856 H 275.24 4.91437 1.11828 0
M  V30 2857 H 274.842 3.73682 -0.154254 0
M  V30 2858 H 277.134 6.70705 0.957103 0
M  V30 2859 H 278.077 7.06149 -0.525323 0
M  V30 2860 H 278.485 5.62615 0.460931 0
M  V30 2861 N 277.883 0.443576 1.51229 0
M  V30 2862 C 279.129 -0.120975 2.02439 0
M  V30 2863 C 279.462 -1.41815 1.32674 0
M  V30 2864 O 278.737 -1.89373 0.443622 0
M  V30 2865 C 279.02 -0.333291 3.58554 0
M  V30 2866 C 278.873 0.982968 4.38928 0
M  V30 2867 C 280.192 -1.10028 4.26124 0
M  V30 2868 H 277.311 -0.0424923 0.735774 0
M  V30 2869 H 279.953 0.583794 1.80809 0
M  V30 2870 H 278.103 -0.933614 3.77115 0
M  V30 2871 H 279.775 1.61775 4.32003 0
M  V30 2872 H 278.018 1.58611 4.03763 0
M  V30 2873 H 278.689 0.788379 5.46341 0
M  V30 2874 H 281.165 -0.591711 4.11871 0
M  V30 2875 H 280.041 -1.21761 5.35225 0
M  V30 2876 H 280.302 -2.12996 3.87408 0
M  V30 2877 N 279.361 -1.56624 0.175154 0
M  V30 2878 C 280.309 -2.19468 -0.770495 0
M  V30 2879 C 281.303 -1.15985 -1.23466 0
M  V30 2880 O 282.509 -1.34176 -1.19987 0
M  V30 2881 H 278.884 -0.703095 -0.266761 0
M  V30 2882 H 280.855 -2.97613 -0.216542 0
M  V30 2883 C 279.604 -2.85264 -1.98796 0
M  V30 2884 H 278.927 -3.64623 -1.63983 0
M  V30 2885 H 280.367 -3.327 -2.62843 0
M  V30 2886 C 278.826 -1.85239 -2.81404 0
M  V30 2887 O 279.356 -1.34024 -3.78682 0
M  V30 2888 N 277.562 -1.53911 -2.46495 0
M  V30 2889 H 277.109 -1.95751 -1.67449 0
M  V30 2890 H 277.067 -0.872382 -3.02054 0
M  V30 2891 N 280.839 0.0985539 -1.57292 0
M  V30 2892 C 281.786 1.11981 -2.01814 0
M  V30 2893 C 282.756 1.39999 -0.89384 0
M  V30 2894 O 283.941 1.5152 -1.15958 0
M  V30 2895 C 281.081 2.43577 -2.44467 0
M  V30 2896 C 280.194 2.2232 -3.70402 0
M  V30 2897 C 279.329 3.4729 -4.01949 0
M  V30 2898 C 278.368 3.2128 -5.21005 0
M  V30 2899 N 277.505 4.38507 -5.48321 0
M  V30 2900 H 282.345 0.733149 -2.88841 0
M  V30 2901 H 279.882 0.350482 -1.42864 0
M  V30 2902 H 281.84 3.20373 -2.6724 0
M  V30 2903 H 280.47 2.80097 -1.60455 0
M  V30 2904 H 279.522 1.36343 -3.55126 0
M  V30 2905 H 280.834 1.99089 -4.57345 0
M  V30 2906 H 279.988 4.32495 -4.25479 0
M  V30 2907 H 278.727 3.73572 -3.13521 0
M  V30 2908 H 277.732 2.34468 -4.97298 0
M  V30 2909 H 278.957 2.96348 -6.11028 0
M  V30 2910 H 276.903 4.64871 -4.62851 0
M  V30 2911 H 276.82 4.18455 -6.29628 0
M  V30 2912 H 278.088 5.24787 -5.76385 0
M  V30 2913 N 282.317 1.53212 0.369288 0
M  V30 2914 C 283.566 1.68436 1.10961 0
M  V30 2915 C 283.879 0.440738 1.9057 0
M  V30 2916 O 285.085 0.473446 2.6734 0
M  V30 2917 C 283.541 2.97744 2.0218 0
M  V30 2918 C 283.149 4.29355 1.279 0
M  V30 2919 C 284.893 3.22334 2.76226 0
M  V30 2920 C 282.8 5.49755 2.17999 0
M  V30 2921 H 281.73 0.627568 0.41794 0
M  V30 2922 H 284.381 1.79713 0.370884 0
M  V30 2923 H 282.763 2.8026 2.79768 0
M  V30 2924 H 283.937 4.57458 0.554007 0
M  V30 2925 H 282.252 4.11179 0.657311 0
M  V30 2926 H 284.849 4.09471 3.43857 0
M  V30 2927 H 285.192 2.38238 3.41392 0
M  V30 2928 H 285.725 3.40475 2.05723 0
M  V30 2929 H 282.464 6.36318 1.57417 0
M  V30 2930 H 281.984 5.25937 2.88359 0
M  V30 2931 H 283.663 5.84401 2.77641 0
M  V30 2932 N 283.795 -0.628877 1.44509 0
M  V30 2933 C 285.042 -1.38839 1.47411 0
M  V30 2934 C 285.37 -1.94202 0.10757 0
M  V30 2935 O 284.625 -1.74243 -0.890947 0
M  V30 2936 C 284.924 -2.56995 2.48371 0
M  V30 2937 C 284.59 -2.19908 3.93639 0
M  V30 2938 C 283.252 -2.09506 4.33198 0
M  V30 2939 C 285.604 -1.9064 4.85083 0
M  V30 2940 C 282.932 -1.68028 5.62124 0
M  V30 2941 C 285.284 -1.50655 6.14399 0
M  V30 2942 C 283.948 -1.38796 6.5291 0
M  V30 2943 H 283.218 -0.508048 0.539414 0
M  V30 2944 H 285.865 -0.712913 1.77735 0
M  V30 2945 H 284.17 -3.29786 2.11538 0
M  V30 2946 H 285.867 -3.15223 2.47861 0
M  V30 2947 H 282.457 -2.28922 3.62343 0
M  V30 2948 H 286.641 -1.97585 4.55273 0
M  V30 2949 H 281.897 -1.57452 5.90778 0
M  V30 2950 H 286.071 -1.27048 6.84713 0
M  V30 2951 H 283.698 -1.06429 7.52713 0
M  V30 2952 N 285.273 -1.31445 -0.869486 0
M  V30 2953 C 286.501 -1.24122 -1.65534 0
M  V30 2954 C 286.916 0.193387 -1.87807 0
M  V30 2955 O 286.273 1.12557 -1.43656 0
M  V30 2956 C 286.324 -1.98229 -3.02304 0
M  V30 2957 O 286.045 -3.3609 -2.81026 0
M  V30 2958 C 287.546 -1.97751 -3.96749 0
M  V30 2959 H 284.766 -0.428868 -0.516055 0
M  V30 2960 H 287.31 -1.73328 -1.08525 0
M  V30 2961 H 285.465 -1.52782 -3.56001 0
M  V30 2962 H 285.879 -3.7383 -3.67902 0
M  V30 2963 H 287.353 -2.54114 -4.90031 0
M  V30 2964 H 287.83 -0.960137 -4.28577 0
M  V30 2965 H 288.436 -2.43079 -3.48988 0
M  V30 2966 N 286.751 1.08385 -1.14413 0
M  V30 2967 C 287.991 1.8238 -0.922868 0
M  V30 2968 C 288.355 1.84225 0.540842 0
M  V30 2969 O 289.556 2.53985 0.880058 0
M  V30 2970 C 287.827 3.24048 -1.50757 0
M  V30 2971 S 289.386 4.14917 -1.4279 0
M  V30 2972 H 286.204 0.628524 -0.332384 0
M  V30 2973 H 288.806 1.30278 -1.45766 0
M  V30 2974 H 287.51 3.20288 -2.56601 0
M  V30 2975 H 287.041 3.81224 -0.971178 0
M  V30 2976 H 289.056 4.94473 -0.413582 0
M  V30 2977 N 288.23 0.939286 1.26551 0
M  V30 2978 C 289.479 0.581601 1.93133 0
M  V30 2979 C 289.792 -0.883224 1.74524 0
M  V30 2980 O 290.998 -1.3502 2.35546 0
M  V30 2981 C 289.454 0.989425 3.46032 0
M  V30 2982 C 289.062 2.47573 3.73379 0
M  V30 2983 C 290.806 0.703544 4.18629 0
M  V30 2984 C 288.713 2.82235 5.19709 0
M  V30 2985 H 287.643 0.213803 0.723052 0
M  V30 2986 H 290.294 1.14167 1.4366 0
M  V30 2987 H 288.676 0.357902 3.94379 0
M  V30 2988 H 289.85 3.15614 3.35744 0
M  V30 2989 H 288.165 2.73471 3.1401 0
M  V30 2990 H 290.762 0.938869 5.26393 0
M  V30 2991 H 291.105 -0.359639 4.14744 0
M  V30 2992 H 291.638 1.2947 3.76141 0
M  V30 2993 H 288.377 3.87509 5.28694 0
M  V30 2994 H 287.897 2.18854 5.58447 0
M  V30 2995 H 289.576 2.70599 5.87695 0
M  V30 2996 N 289.708 -1.40897 0.706093 0
M  V30 2997 C 290.656 -2.32572 0.0361893 0
M  V30 2998 C 291.65 -1.51532 -0.757266 0
M  V30 2999 O 292.856 -1.67396 -0.661703 0
M  V30 3000 H 289.231 -0.751966 -0.00709935 0
M  V30 3001 H 291.202 -2.86733 0.826249 0
M  V30 3002 C 289.951 -3.36418 -0.87854 0
M  V30 3003 H 289.274 -3.98836 -0.277401 0
M  V30 3004 H 290.714 -4.0308 -1.3154 0
M  V30 3005 C 289.173 -2.71141 -1.99961 0
M  V30 3006 O 289.703 -2.56735 -3.0895 0
M  V30 3007 N 287.909 -2.29671 -1.78043 0
M  V30 3008 H 287.456 -2.41588 -0.894042 0
M  V30 3009 H 287.414 -1.86332 -2.53235 0
M  V30 3010 N 291.186 -0.45159 -1.50991 0
M  V30 3011 C 292.432 0.110237 -2.025 0
M  V30 3012 C 292.765 1.41109 -1.33424 0
M  V30 3013 O 292.04 1.89135 -0.453659 0
M  V30 3014 C 292.323 0.314271 -3.58726 0
M  V30 3015 C 292.176 -1.00623 -4.38401 0
M  V30 3016 C 293.495 1.07767 -4.26702 0
M  V30 3017 H 290.614 0.0385897 -0.735989 0
M  V30 3018 H 293.256 -0.593374 -1.80497 0
M  V30 3019 H 291.406 0.913601 -3.77605 0
M  V30 3020 H 293.078 -1.64064 -4.31139 0
M  V30 3021 H 291.321 -1.6075 -4.02917 0
M  V30 3022 H 291.992 -0.817341 -5.45915 0
M  V30 3023 H 294.468 0.56986 -4.12179 0
M  V30 3024 H 293.344 1.18921 -5.35863 0
M  V30 3025 H 293.605 2.10939 -3.88532 0
M  V30 3026 N 292.664 1.56529 -0.183458 0
M  V30 3027 C 293.594 2.21549 0.737456 0
M  V30 3028 C 294.575 1.17489 1.23005 0
M  V30 3029 O 295.76 1.45959 1.281 0
M  V30 3030 C 292.89 2.86575 1.96194 0
M  V30 3031 C 291.844 3.96778 1.60473 0
M  V30 3032 C 291.17 4.48911 2.90487 0
M  V30 3033 C 292.47 5.15767 0.823497 0
M  V30 3034 H 294.164 2.98761 0.195453 0
M  V30 3035 H 291.71 1.43702 0.0925686 0
M  V30 3036 H 293.663 3.30739 2.61131 0
M  V30 3037 H 292.387 2.06749 2.52828 0
M  V30 3038 H 291.046 3.53286 0.978997 0
M  V30 3039 H 290.694 3.65862 3.45186 0
M  V30 3040 H 290.394 5.23265 2.67335 0
M  V30 3041 H 291.918 4.95771 3.56432 0
M  V30 3042 H 293.332 5.56549 1.37571 0
M  V30 3043 H 291.729 5.96114 0.690551 0
M  V30 3044 H 292.799 4.84574 -0.177782 0
M  V30 3045 N 294.142 -0.090211 1.57342 0
M  V30 3046 C 295.388 -0.793982 1.86611 0
M  V30 3047 C 295.721 -1.78142 0.773252 0
M  V30 3048 O 294.996 -1.93271 -0.218304 0
M  V30 3049 C 295.279 -1.51839 3.26523 0
M  V30 3050 C 295.132 -0.548609 4.46442 0
M  V30 3051 C 296.451 -2.46779 3.64401 0
M  V30 3052 H 293.57 -0.287186 0.678744 0
M  V30 3053 H 296.212 -0.0575076 1.89913 0
M  V30 3054 H 294.362 -2.14617 3.23839 0
M  V30 3055 H 296.034 0.0725513 4.61243 0
M  V30 3056 H 294.277 0.137614 4.33582 0
M  V30 3057 H 294.948 -1.09271 5.41076 0
M  V30 3058 H 297.424 -1.94089 3.68061 0
M  V30 3059 H 296.3 -2.94479 4.63221 0
M  V30 3060 H 296.561 -3.30758 2.93346 0
M  V30 3061 N 295.62 -1.53406 -0.361157 0
M  V30 3062 C 296.55 -1.83136 -1.44857 0
M  V30 3063 C 297.531 -0.685174 -1.5569 0
M  V30 3064 O 298.716 -0.93544 -1.70186 0
M  V30 3065 C 295.846 -2.02522 -2.82138 0
M  V30 3066 C 294.8 -3.18302 -2.86126 0
M  V30 3067 C 294.126 -3.22989 -4.26125 0
M  V30 3068 C 295.426 -4.56796 -2.53248 0
M  V30 3069 H 297.12 -2.74201 -1.20226 0
M  V30 3070 H 294.666 -1.31938 -0.576922 0
M  V30 3071 H 296.619 -2.21904 -3.58241 0
M  V30 3072 H 295.343 -1.08172 -3.08166 0
M  V30 3073 H 294.002 -2.98747 -2.12475 0
M  V30 3074 H 293.65 -2.26267 -4.49235 0
M  V30 3075 H 293.35 -4.00781 -4.29708 0
M  V30 3076 H 294.874 -3.44559 -5.04094 0
M  V30 3077 H 296.288 -4.7631 -3.19064 0
M  V30 3078 H 294.685 -5.36862 -2.68141 0
M  V30 3079 H 295.755 -4.61606 -1.48484 0
M  V30 3080 N 297.098 0.621204 -1.44841 0
M  V30 3081 C 298.346 1.37783 -1.47852 0
M  V30 3082 C 298.667 1.94653 -0.116224 0
M  V30 3083 O 297.937 1.76367 0.852737 0
M  V30 3084 H 296.517 0.511453 -0.544449 0
M  V30 3085 H 299.179 0.730446 -1.80694 0
M  V30 3086 H 298.275 2.20414 -2.20961 0
M  V30 3087 N 298.576 1.31904 0.862503 0
M  V30 3088 C 299.823 1.22017 1.61611 0
M  V30 3089 C 300.151 -0.21991 1.93253 0
M  V30 3090 O 299.406 -1.17076 1.56817 0
M  V30 3091 C 299.705 2.01713 2.95037 0
M  V30 3092 C 299.371 3.51145 2.82857 0
M  V30 3093 C 298.033 3.91889 2.79243 0
M  V30 3094 C 300.385 4.46204 2.69353 0
M  V30 3095 C 297.713 5.25947 2.59993 0
M  V30 3096 C 300.065 5.80397 2.5164 0
M  V30 3097 C 298.729 6.20352 2.46413 0
M  V30 3098 H 297.999 0.44649 0.591378 0
M  V30 3099 H 300.646 1.63248 1.00111 0
M  V30 3100 H 298.951 1.53185 3.60613 0
M  V30 3101 H 300.648 1.91437 3.52353 0
M  V30 3102 H 297.238 3.1878 2.86491 0
M  V30 3103 H 301.422 4.15652 2.71196 0
M  V30 3104 H 296.678 5.5597 2.54376 0
M  V30 3105 H 300.852 6.53676 2.40169 0
M  V30 3106 H 298.479 7.24172 2.31256 0
M  V30 3107 N 300.054 -1.07777 1.14986 0
M  V30 3108 C 301.303 -1.79669 0.916617 0
M  V30 3109 C 301.616 -1.87474 -0.557917 0
M  V30 3110 O 302.822 -2.55845 -0.908617 0
M  V30 3111 C 301.278 -3.22848 1.59051 0
M  V30 3112 C 300.886 -3.23257 3.10176 0
M  V30 3113 C 302.63 -3.99379 1.43864 0
M  V30 3114 C 300.537 -4.61063 3.70372 0
M  V30 3115 H 299.467 -0.673349 0.33929 0
M  V30 3116 H 302.118 -1.21003 1.37951 0
M  V30 3117 H 300.5 -3.8168 1.0553 0
M  V30 3118 H 301.674 -2.74095 3.70417 0
M  V30 3119 H 299.989 -2.60222 3.25074 0
M  V30 3120 H 302.586 -5.0122 1.86232 0
M  V30 3121 H 302.929 -4.14511 0.385564 0
M  V30 3122 H 303.462 -3.47032 1.94457 0
M  V30 3123 H 300.201 -4.51135 4.7556 0
M  V30 3124 H 299.721 -5.1048 3.14913 0
M  V30 3125 H 301.4 -5.30034 3.71043 0
M  V30 3126 N 301.532 -0.945985 -1.26051 0
M  V30 3127 C 302.465 -0.403619 -2.24602 0
M  V30 3128 C 303.443 0.510241 -1.54387 0
M  V30 3129 O 304.627 0.446593 -1.83133 0
M  V30 3130 C 301.754 0.419564 -3.36091 0
M  V30 3131 C 300.8 -0.433454 -4.24292 0
M  V30 3132 S 301.633 -1.86037 -5.02146 0
M  V30 3133 C 302.789 -1.04538 -6.17108 0
M  V30 3134 H 303.022 -1.23883 -2.7026 0
M  V30 3135 H 300.555 -0.749438 -1.34992 0
M  V30 3136 H 302.513 0.888595 -4.00767 0
M  V30 3137 H 301.174 1.22951 -2.89036 0
M  V30 3138 H 300.367 0.197486 -5.03613 0
M  V30 3139 H 299.969 -0.837357 -3.64506 0
M  V30 3140 H 302.261 -0.289923 -6.76879 0
M  V30 3141 H 303.204 -1.81222 -6.84518 0
M  V30 3142 H 303.612 -0.579319 -5.61519 0
M  V30 3143 N 303.011 1.40521 -0.713556 0
M  V30 3144 C 304.257 2.01221 -0.252564 0
M  V30 3145 C 304.59 1.56444 1.1506 0
M  V30 3146 O 303.865 0.783597 1.78017 0
M  V30 3147 C 304.148 3.58582 -0.330332 0
M  V30 3148 C 304.001 4.13437 -1.77173 0
M  V30 3149 C 305.32 4.39079 0.299641 0
M  V30 3150 H 302.439 0.731077 -0.0932471 0
M  V30 3151 H 305.081 1.67026 -0.905673 0
M  V30 3152 H 303.231 3.87844 0.225737 0
M  V30 3153 H 304.903 3.9498 -2.38303 0
M  V30 3154 H 303.146 3.67801 -2.3001 0
M  V30 3155 H 303.817 5.22597 -1.77755 0
M  V30 3156 H 306.293 4.15735 -0.174139 0
M  V30 3157 H 305.169 5.4848 0.214771 0
M  V30 3158 H 305.43 4.19915 1.38288 0
M  V30 3159 N 304.489 0.459591 1.5075 0
M  V30 3160 C 305.714 -0.0996819 2.0716 0
M  V30 3161 C 306.139 -1.33761 1.32249 0
M  V30 3162 O 305.497 -1.77551 0.366786 0
M  V30 3163 C 305.545 -0.378226 3.58611 0
M  V30 3164 O 304.649 -1.46081 3.85661 0
M  V30 3165 H 303.99 0.00791392 0.663953 0
M  V30 3166 H 306.52 0.647329 1.9409 0
M  V30 3167 H 306.53 -0.622135 4.03229 0
M  V30 3168 H 305.205 0.526439 4.12555 0
M  V30 3169 H 303.782 -1.20511 3.5289 0
M  V30 3170 N 305.967 -1.56429 0.191757 0
M  V30 3171 C 307.215 -1.97095 -0.447006 0
M  V30 3172 C 307.536 -1.07967 -1.62383 0
M  V30 3173 O 306.806 -0.150248 -1.95323 0
M  V30 3174 H 305.386 -0.727832 -0.168135 0
M  V30 3175 H 308.048 -1.92911 0.27771 0
M  V30 3176 H 307.144 -3.01848 -0.793371 0
M  V30 3177 N 307.445 0.0818655 -1.57387 0
M  V30 3178 C 308.692 0.782914 -1.86753 0
M  V30 3179 C 309.02 1.78082 -0.782118 0
M  V30 3180 O 308.275 1.94426 0.22295 0
M  V30 3181 C 308.574 1.53513 -3.22752 0
M  V30 3182 C 308.24 0.678134 -4.45771 0
M  V30 3183 C 306.902 0.441929 -4.79166 0
M  V30 3184 C 309.254 0.0832243 -5.21134 0
M  V30 3185 C 306.582 -0.398833 -5.85343 0
M  V30 3186 C 308.934 -0.744935 -6.28199 0
M  V30 3187 C 307.598 -0.991107 -6.60101 0
M  V30 3188 H 306.868 0.286489 -0.683378 0
M  V30 3189 H 309.515 0.0439808 -1.91449 0
M  V30 3190 H 307.82 2.34599 -3.138 0
M  V30 3191 H 309.517 2.08218 -3.42705 0
M  V30 3192 H 306.107 0.872357 -4.19628 0
M  V30 3193 H 310.291 0.252847 -4.95655 0
M  V30 3194 H 305.547 -0.598405 -6.08465 0
M  V30 3195 H 309.721 -1.21271 -6.8576 0
M  V30 3196 H 307.348 -1.64437 -7.42202 0
M  V30 3197 N 308.923 1.53595 0.353017 0
M  V30 3198 C 310.169 1.70638 1.09593 0
M  V30 3199 C 310.502 0.463286 1.88593 0
M  V30 3200 O 309.777 -0.539597 1.86865 0
M  V30 3201 C 310.06 2.96406 2.04489 0
M  V30 3202 C 309.913 4.30901 1.29014 0
M  V30 3203 C 311.232 3.17812 3.0444 0
M  V30 3204 H 308.351 0.620913 0.397034 0
M  V30 3205 H 310.993 1.86254 0.375446 0
M  V30 3206 H 309.143 2.83223 2.65927 0
M  V30 3207 H 310.815 4.55917 0.702638 0
M  V30 3208 H 309.058 4.29741 0.592071 0
M  V30 3209 H 309.729 5.1506 1.98537 0
M  V30 3210 H 312.205 3.30263 2.53112 0
M  V30 3211 H 311.081 4.07223 3.6805 0
M  V30 3212 H 311.342 2.33669 3.75301 0
M  V30 3213 N 310.401 -0.613514 1.45168 0
M  V30 3214 C 311.348 -1.72456 1.53387 0
M  V30 3215 C 312.318 -1.6169 0.380191 0
M  V30 3216 O 313.503 -1.81356 0.592836 0
M  V30 3217 C 310.643 -3.10753 1.50088 0
M  V30 3218 C 309.756 -3.32368 2.75963 0
M  V30 3219 C 308.891 -4.60737 2.64376 0
M  V30 3220 C 307.93 -4.7559 3.85332 0
M  V30 3221 N 307.067 -5.95253 3.72315 0
M  V30 3222 H 311.907 -1.64768 2.48305 0
M  V30 3223 H 309.444 -0.803503 1.23216 0
M  V30 3224 H 311.402 -3.90758 1.46164 0
M  V30 3225 H 310.032 -3.17413 0.587243 0
M  V30 3226 H 309.084 -2.4618 2.89999 0
M  V30 3227 H 310.396 -3.39218 3.65695 0
M  V30 3228 H 309.55 -5.48928 2.58385 0
M  V30 3229 H 308.289 -4.56275 1.72233 0
M  V30 3230 H 307.294 -3.85824 3.91688 0
M  V30 3231 H 308.519 -4.81854 4.78533 0
M  V30 3232 H 306.465 -5.91847 2.82937 0
M  V30 3233 H 306.382 -6.03236 4.55677 0
M  V30 3234 H 307.65 -6.85958 3.70246 0
M  V30 3235 N 311.879 -1.3236 -0.855495 0
M  V30 3236 C 313.127 -1.22629 -1.60644 0
M  V30 3237 C 313.448 0.212136 -1.93843 0
M  V30 3238 O 312.718 1.13666 -1.59552 0
M  V30 3239 H 311.298 -0.450882 -0.595579 0
M  V30 3240 H 313.96 -1.65871 -1.02337 0
M  V30 3241 H 313.056 -1.80832 -2.54374 0
M  V30 3242 N 313.357 1.07166 -1.15556 0
M  V30 3243 C 314.582 1.84053 -0.955988 0
M  V30 3244 C 315.007 1.81586 0.490739 0
M  V30 3245 O 314.365 1.21018 1.34997 0
M  V30 3246 C 314.413 3.28957 -1.47714 0
M  V30 3247 O 313.517 4.06795 -0.677593 0
M  V30 3248 H 312.858 0.569842 -0.340847 0
M  V30 3249 H 315.388 1.35178 -1.53584 0
M  V30 3250 H 315.398 3.79788 -1.4908 0
M  V30 3251 H 314.073 3.30068 -2.53037 0
M  V30 3252 H 312.65 3.6561 -0.733721 0
M  V30 3253 N 314.835 0.952656 1.25548 0
M  V30 3254 C 316.081 0.607272 1.93494 0
M  V30 3255 C 316.414 -0.853245 1.74452 0
M  V30 3256 O 315.689 -1.61194 1.08843 0
M  V30 3257 C 315.972 0.96435 3.46947 0
M  V30 3258 C 315.825 2.48045 3.75225 0
M  V30 3259 C 317.144 0.487987 4.37386 0
M  V30 3260 H 314.263 0.222096 0.702739 0
M  V30 3261 H 316.905 1.18895 1.48203 0
M  V30 3262 H 315.055 0.469361 3.85654 0
M  V30 3263 H 316.727 3.04905 3.46166 0
M  V30 3264 H 314.97 2.919 3.209 0
M  V30 3265 H 315.641 2.6808 4.82532 0
M  V30 3266 H 318.117 0.912558 4.0597 0
M  V30 3267 H 316.993 0.766547 5.43521 0
M  V30 3268 H 317.254 -0.612063 4.37843 0
M  V30 3269 N 316.313 -1.40141 0.720998 0
M  V30 3270 C 317.26 -2.30688 0.071919 0
M  V30 3271 C 318.23 -1.48476 -0.744584 0
M  V30 3272 O 319.415 -1.77201 -0.707423 0
M  V30 3273 C 316.555 -3.34724 -0.839855 0
M  V30 3274 C 315.668 -4.31998 -0.0122438 0
M  V30 3275 C 314.803 -5.23102 -0.923995 0
M  V30 3276 C 313.842 -6.12033 -0.0907969 0
M  V30 3277 N 312.979 -6.95537 -0.957718 0
M  V30 3278 H 317.819 -2.85628 0.849755 0
M  V30 3279 H 315.356 -1.40653 0.430726 0
M  V30 3280 H 317.314 -3.93618 -1.38279 0
M  V30 3281 H 315.944 -2.81274 -1.58381 0
M  V30 3282 H 314.996 -3.74841 0.64794 0
M  V30 3283 H 316.308 -4.94772 0.632595 0
M  V30 3284 H 315.462 -5.86953 -1.53527 0
M  V30 3285 H 314.201 -4.60615 -1.60264 0
M  V30 3286 H 313.206 -5.47207 0.533377 0
M  V30 3287 H 314.431 -6.76581 0.584428 0
M  V30 3288 H 312.377 -6.35633 -1.62192 0
M  V30 3289 H 312.294 -7.55099 -0.36904 0
M  V30 3290 H 313.562 -7.63832 -1.555 0
M  V30 3291 N 317.792 -0.46758 -1.50504 0
M  V30 3292 C 318.74 0.342482 -2.30065 0
M  V30 3293 C 319.734 0.993596 -1.37201 0
M  V30 3294 O 320.94 0.925102 -1.54408 0
M  V30 3295 H 317.315 0.129283 -0.740803 0
M  V30 3296 H 319.286 -0.34899 -2.96352 0
M  V30 3297 C 318.035 1.4139 -3.17654 0
M  V30 3298 H 317.358 0.922264 -3.89017 0
M  V30 3299 H 318.798 1.95335 -3.76325 0
M  V30 3300 C 317.257 2.4139 -2.35016 0
M  V30 3301 O 317.787 3.46586 -2.03079 0
M  V30 3302 N 315.993 2.13021 -1.97662 0
M  V30 3303 H 315.54 1.27499 -2.23834 0
M  V30 3304 H 315.498 2.80164 -1.42673 0
M  V30 3305 N 319.27 1.56325 -0.20005 0
M  V30 3306 C 320.516 1.98772 0.431408 0
M  V30 3307 C 320.871 1.0849 1.58895 0
M  V30 3308 O 320.164 0.130331 1.91156 0
M  V30 3309 C 320.358 3.4495 0.935103 0
M  V30 3310 C 320.187 4.49371 -0.172096 0
M  V30 3311 C 318.957 5.0134 -0.631377 0
M  V30 3312 C 321.155 5.04822 -0.982806 0
M  V30 3313 N 319.137 5.89433 -1.71588 0
M  V30 3314 C 320.508 5.89632 -1.91661 0
M  V30 3315 C 322.563 4.87242 -1.02467 0
M  V30 3316 C 321.266 6.58741 -2.88881 0
M  V30 3317 C 323.292 5.57094 -1.98494 0
M  V30 3318 C 322.654 6.41655 -2.90617 0
M  V30 3319 H 318.753 0.771922 0.125144 0
M  V30 3320 H 321.337 1.92266 -0.306883 0
M  V30 3321 H 319.508 3.51946 1.64282 0
M  V30 3322 H 321.24 3.74354 1.53758 0
M  V30 3323 H 317.995 4.73071 -0.223827 0
M  V30 3324 H 318.419 6.38182 -2.25948 0
M  V30 3325 H 323.061 4.21538 -0.326408 0
M  V30 3326 H 320.779 7.23641 -3.5968 0
M  V30 3327 H 324.365 5.45466 -2.0238 0
M  V30 3328 H 323.245 6.94755 -3.63711 0
M  V30 3329 N 320.748 -0.0735177 1.57428 0
M  V30 3330 C 321.68 -1.11423 2.00294 0
M  V30 3331 C 322.693 -1.35084 0.908637 0
M  V30 3332 O 323.882 -1.33355 1.18654 0
M  V30 3333 C 320.982 -2.46548 2.32523 0
M  V30 3334 C 320.155 -2.42867 3.63778 0
M  V30 3335 C 319.214 -3.60087 3.83697 0
M  V30 3336 O 318.24 -3.41595 4.55304 0
M  V30 3337 N 319.442 -4.80372 3.25919 0
M  V30 3338 H 322.207 -0.749206 2.90184 0
M  V30 3339 H 319.768 -0.262195 1.59763 0
M  V30 3340 H 321.76 -3.23607 2.43024 0
M  V30 3341 H 320.33 -2.75059 1.48531 0
M  V30 3342 H 319.55 -1.51206 3.64047 0
M  V30 3343 H 320.838 -2.37506 4.49965 0
M  V30 3344 H 320.236 -4.983 2.67795 0
M  V30 3345 H 318.793 -5.54948 3.41871 0
M  V30 3346 N 322.226 -1.5378 -0.344866 0
M  V30 3347 C 323.156 -1.84662 -1.42906 0
M  V30 3348 C 324.137 -0.701648 -1.54955 0
M  V30 3349 O 325.322 -0.953438 -1.69184 0
M  V30 3350 C 322.452 -2.05503 -2.79974 0
M  V30 3351 C 321.406 -3.21318 -2.82734 0
M  V30 3352 C 320.732 -3.2749 -4.22675 0
M  V30 3353 C 322.032 -4.59456 -2.48389 0
M  V30 3354 H 323.726 -2.75461 -1.17311 0
M  V30 3355 H 321.272 -1.32542 -0.562896 0
M  V30 3356 H 323.225 -2.25691 -3.55867 0
M  V30 3357 H 321.949 -1.11434 -3.07002 0
M  V30 3358 H 320.608 -3.00984 -2.09294 0
M  V30 3359 H 320.256 -2.31019 -4.4681 0
M  V30 3360 H 319.956 -4.05316 -4.25433 0
M  V30 3361 H 321.48 -3.49887 -5.00412 0
M  V30 3362 H 322.894 -4.79667 -3.13995 0
M  V30 3363 H 321.291 -5.39675 -2.62432 0
M  V30 3364 H 322.361 -4.63155 -1.4358 0
M  V30 3365 N 323.704 0.605807 -1.45491 0
M  V30 3366 C 324.932 1.39136 -1.5313 0
M  V30 3367 C 325.347 1.88082 -0.164507 0
M  V30 3368 O 324.704 1.62316 0.834247 0
M  V30 3369 C 324.755 2.59463 -2.51716 0
M  V30 3370 O 324.476 2.12551 -3.83084 0
M  V30 3371 C 325.977 3.52301 -2.6907 0
M  V30 3372 H 323.197 0.425849 -0.51855 0
M  V30 3373 H 325.741 0.73865 -1.90694 0
M  V30 3374 H 323.896 3.20772 -2.17219 0
M  V30 3375 H 324.31 2.90744 -4.36541 0
M  V30 3376 H 325.784 4.33271 -3.42024 0
M  V30 3377 H 326.261 4.02757 -1.75167 0
M  V30 3378 H 326.867 2.96845 -3.04571 0
M  V30 3379 N 325.182 1.32811 0.848464 0
M  V30 3380 C 326.092 1.24278 1.98978 0
M  V30 3381 C 327.108 0.155176 1.73307 0
M  V30 3382 O 328.284 0.376999 1.9784 0
M  V30 3383 C 325.349 0.972444 3.32783 0
M  V30 3384 C 324.41 2.14911 3.71634 0
M  V30 3385 C 323.643 1.89157 4.99054 0
M  V30 3386 O 323.866 0.837165 5.64223 0
M  V30 3387 O 322.8 2.75433 5.35183 0
M  V30 3388 H 326.626 2.20238 2.09115 0
M  V30 3389 H 324.211 1.12762 0.980052 0
M  V30 3390 H 326.093 0.838432 4.12975 0
M  V30 3391 H 324.768 0.043051 3.23671 0
M  V30 3392 H 323.675 2.33862 2.91992 0
M  V30 3393 H 325.008 3.06151 3.85399 0
M  V30 3394 N 326.66 -1.06551 1.16123 0
M  V30 3395 C 327.57 -2.17484 0.879662 0
M  V30 3396 C 328.586 -1.73377 -0.147104 0
M  V30 3397 O 329.762 -2.01379 0.0289128 0
M  V30 3398 C 326.827 -3.44591 0.381829 0
M  V30 3399 C 325.888 -4.0322 1.4735 0
M  V30 3400 C 325.121 -5.24261 0.999324 0
M  V30 3401 O 325.344 -5.70198 -0.151957 0
M  V30 3402 O 324.278 -5.74775 1.78653 0
M  V30 3403 H 328.104 -2.44075 1.80724 0
M  V30 3404 H 325.689 -1.16042 0.940992 0
M  V30 3405 H 327.571 -4.21254 0.111053 0
M  V30 3406 H 326.246 -3.19532 -0.51777 0
M  V30 3407 H 325.153 -3.2806 1.79798 0
M  V30 3408 H 326.486 -4.32568 2.34831 0
M  V30 3409 N 328.138 -0.959301 -1.25041 0
M  V30 3410 C 329.415 -0.533805 -1.88175 0
M  V30 3411 C 329.795 0.988994 -1.865 0
M  V30 3412 O 329.143 1.85677 -1.33177 0
M  V30 3413 C 329.353 -1.11575 -3.30684 0
M  V30 3414 C 330.701 -1.19548 -4.07423 0
M  V30 3415 O 331.725 -1.06765 -3.39823 0
M  V30 3416 O 330.584 -1.39656 -5.28354 0
M  V30 3417 H 327.678 -0.176772 -0.807887 0
M  V30 3418 H 330.224 -1.05303 -1.33076 0
M  V30 3419 H 328.996 -2.15884 -3.26358 0
M  V30 3420 H 328.619 -0.580059 -3.93346 0
M  V30 3421 N 329.616 1.39756 -0.72842 0
M  V30 3422 C 330.863 2.00645 -0.273487 0
M  V30 3423 C 331.191 1.57786 1.13727 0
M  V30 3424 O 330.446 0.794886 1.7883 0
M  V30 3425 C 330.745 3.56002 -0.315776 0
M  V30 3426 C 330.411 4.18489 -1.67863 0
M  V30 3427 C 329.073 4.3527 -2.05166 0
M  V30 3428 C 331.425 4.53219 -2.57375 0
M  V30 3429 C 328.753 4.84069 -3.31503 0
M  V30 3430 C 331.105 5.03423 -3.83077 0
M  V30 3431 C 329.769 5.18413 -4.20481 0
M  V30 3432 H 329.039 0.734211 -0.100076 0
M  V30 3433 H 331.686 1.6718 -0.933972 0
M  V30 3434 H 329.991 3.89452 0.428285 0
M  V30 3435 H 331.688 4.00963 0.0542575 0
M  V30 3436 H 328.278 4.05824 -1.37858 0
M  V30 3437 H 332.462 4.39878 -2.29827 0
M  V30 3438 H 327.718 4.93859 -3.60435 0
M  V30 3439 H 331.892 5.2927 -4.52599 0
M  V30 3440 H 329.519 5.55987 -5.18443 0
M  V30 3441 N 331.094 0.475555 1.50254 0
M  V30 3442 C 332.342 -0.077738 2.0195 0
M  V30 3443 C 332.663 -1.39813 1.35931 0
M  V30 3444 O 331.933 -1.89249 0.506123 0
M  V30 3445 H 330.513 -0.031719 0.746326 0
M  V30 3446 H 333.175 0.626995 1.84539 0
M  V30 3447 H 332.271 -0.225995 3.11281 0
M  V30 3448 N 332.573 -1.56217 0.208337 0
M  V30 3449 C 333.521 -2.21053 -0.723769 0
M  V30 3450 C 334.515 -1.18578 -1.20978 0
M  V30 3451 O 335.721 -1.36691 -1.17114 0
M  V30 3452 H 332.096 -0.708595 -0.251788 0
M  V30 3453 H 334.067 -2.98006 -0.153365 0
M  V30 3454 C 332.816 -2.89417 -1.927 0
M  V30 3455 H 332.139 -3.68019 -1.56212 0
M  V30 3456 H 333.579 -3.38201 -2.55727 0
M  V30 3457 C 332.038 -1.91166 -2.77411 0
M  V30 3458 O 332.568 -1.42026 -3.75754 0
M  V30 3459 N 330.774 -1.59105 -2.43175 0
M  V30 3460 H 330.321 -1.99259 -1.63259 0
M  V30 3461 H 330.279 -0.936255 -3.00136 0
M  V30 3462 N 334.051 0.0651679 -1.57465 0
M  V30 3463 C 335.279 0.775808 -1.91804 0
M  V30 3464 C 335.694 1.70782 -0.804916 0
M  V30 3465 O 335.051 1.81153 0.221311 0
M  V30 3466 C 335.102 1.56381 -3.25925 0
M  V30 3467 O 334.823 0.669248 -4.32958 0
M  V30 3468 C 336.324 2.37485 -3.7432 0
M  V30 3469 H 333.544 0.2202 -0.63384 0
M  V30 3470 H 336.088 0.0334587 -2.04473 0
M  V30 3471 H 334.243 2.25837 -3.14764 0
M  V30 3472 H 334.657 1.21801 -5.10162 0
M  V30 3473 H 336.131 2.88223 -4.70778 0
M  V30 3474 H 336.608 3.17307 -3.03666 0
M  V30 3475 H 337.214 1.73173 -3.88447 0
M  V30 3476 N 335.529 1.53961 0.336706 0
M  V30 3477 C 336.754 1.75797 1.10046 0
M  V30 3478 C 337.179 0.498985 1.81361 0
M  V30 3479 O 336.537 -0.548769 1.72795 0
M  V30 3480 C 336.585 2.94257 2.08436 0
M  V30 3481 O 335.689 2.64883 3.16087 0
M  V30 3482 H 335.03 0.582936 0.317934 0
M  V30 3483 H 337.56 2.00945 0.38501 0
M  V30 3484 H 337.57 3.21237 2.51537 0
M  V30 3485 H 336.245 3.85564 1.55927 0
M  V30 3486 H 334.822 2.48812 2.77753 0
M  V30 3487 N 337.007 -0.598083 1.45811 0
M  V30 3488 C 338.255 -1.35413 1.50026 0
M  V30 3489 C 338.576 -1.94444 0.147177 0
M  V30 3490 O 337.846 -1.77701 -0.824571 0
M  V30 3491 H 336.426 -0.502727 0.552517 0
M  V30 3492 H 339.088 -0.701606 1.81834 0
M  V30 3493 H 338.184 -2.16871 2.2444 0
M  V30 3494 N 338.485 -1.33259 -0.841409 0
M  V30 3495 C 339.901 -1.12538 -1.13169 0
M  V30 3496 C 340.101 0.0854037 -2.01319 0
M  V30 3497 O 339.157 0.766417 -2.40587 0
M  V30 3498 C 340.47 -2.41156 -1.79623 0
M  V30 3499 C 342.018 -2.47038 -1.922 0
M  V30 3500 C 342.493 -3.7561 -2.6207 0
M  V30 3501 N 343.984 -3.76667 -2.69585 0
M  V30 3502 C 344.719 -4.72861 -3.2433 0
M  V30 3503 N 344.215 -5.79428 -3.79783 0
M  V30 3504 N 346.008 -4.6034 -3.22558 0
M  V30 3505 H 338.159 -2.10868 -0.254676 0
M  V30 3506 H 340.422 -0.931615 -0.175493 0
M  V30 3507 H 340.128 -3.29747 -1.22311 0
M  V30 3508 H 340.002 -2.53114 -2.79666 0
M  V30 3509 H 342.389 -1.58898 -2.48667 0
M  V30 3510 H 342.47 -2.39022 -0.911148 0
M  V30 3511 H 342.114 -4.64131 -2.06263 0
M  V30 3512 H 342.044 -3.80902 -3.63622 0
M  V30 3513 H 344.535 -2.99648 -2.30259 0
M  V30 3514 H 344.848 -6.48867 -4.19752 0
M  V30 3515 H 343.193 -5.83166 -3.78078 0
M  V30 3516 H 346.384 -3.76244 -2.78492 0
M  V30 3517 H 346.557 -5.35478 -3.64921 0
M  V30 3518 N 339.963 1.05934 -1.16686 0
M  V30 3519 C 340.893 2.1546 -0.899949 0
M  V30 3520 C 341.874 1.69391 0.155154 0
M  V30 3521 O 343.059 1.94199 0.00648693 0
M  V30 3522 C 340.189 3.44939 -0.404241 0
M  V30 3523 C 339.143 4.04536 -1.39767 0
M  V30 3524 C 338.469 5.29268 -0.760216 0
M  V30 3525 C 339.769 4.42893 -2.76845 0
M  V30 3526 H 341.463 2.38046 -1.81588 0
M  V30 3527 H 339.009 1.14404 -0.874514 0
M  V30 3528 H 340.962 4.20901 -0.204971 0
M  V30 3529 H 339.686 3.21983 0.547206 0
M  V30 3530 H 338.345 3.30635 -1.58355 0
M  V30 3531 H 337.993 5.02611 0.197831 0
M  V30 3532 H 337.693 5.70101 -1.42332 0
M  V30 3533 H 339.217 6.07924 -0.57105 0
M  V30 3534 H 340.631 5.09921 -2.62019 0
M  V30 3535 H 339.028 4.94721 -3.39663 0
M  V30 3536 H 340.098 3.53584 -3.31823 0
M  V30 3537 N 341.441 0.965919 1.2453 0
M  V30 3538 C 342.681 0.634656 1.94297 0
M  V30 3539 C 343.045 -0.814822 1.73852 0
M  V30 3540 O 344.246 -1.25622 2.3764 0
M  V30 3541 C 342.517 0.99702 3.43212 0
M  V30 3542 S 344.076 0.780038 4.31811 0
M  V30 3543 H 340.894 0.232893 0.671775 0
M  V30 3544 H 343.496 1.24249 1.50938 0
M  V30 3545 H 342.2 2.04886 3.55598 0
M  V30 3546 H 341.731 0.379888 3.91562 0
M  V30 3547 H 343.746 -0.343512 4.9501 0
M  V30 3548 N 342.919 -1.39368 0.735821 0
M  V30 3549 C 343.849 -2.33234 0.111506 0
M  V30 3550 C 344.83 -1.53954 -0.723334 0
M  V30 3551 O 346.015 -1.82344 -0.668147 0
M  V30 3552 C 343.145 -3.38057 -0.795917 0
M  V30 3553 C 342.099 -4.2795 -0.065172 0
M  V30 3554 C 341.425 -5.23479 -1.08967 0
M  V30 3555 C 342.725 -5.10741 1.09273 0
M  V30 3556 H 344.419 -2.85692 0.895571 0
M  V30 3557 H 341.965 -1.37364 0.432109 0
M  V30 3558 H 343.918 -4.02675 -1.24221 0
M  V30 3559 H 342.642 -2.8404 -1.61211 0
M  V30 3560 H 341.301 -3.64813 0.361511 0
M  V30 3561 H 340.949 -4.65758 -1.89944 0
M  V30 3562 H 340.649 -5.84472 -0.605489 0
M  V30 3563 H 342.173 -5.90974 -1.53565 0
M  V30 3564 H 343.587 -5.68699 0.724841 0
M  V30 3565 H 341.984 -5.8088 1.50659 0
M  V30 3566 H 343.054 -4.45525 1.91404 0
M  V30 3567 N 344.397 -0.483516 -1.5 0
M  V30 3568 C 345.345 0.318061 -2.30415 0
M  V30 3569 C 346.339 0.978988 -1.38247 0
M  V30 3570 O 347.545 0.908673 -1.55381 0
M  V30 3571 H 343.92 0.121419 -0.742133 0
M  V30 3572 H 345.891 -0.380403 -2.95965 0
M  V30 3573 C 344.64 1.38013 -3.19136 0
M  V30 3574 H 343.963 0.880952 -3.89973 0
M  V30 3575 H 345.403 1.91332 -3.78375 0
M  V30 3576 C 343.862 2.38884 -2.37563 0
M  V30 3577 O 344.392 3.44412 -2.06744 0
M  V30 3578 N 342.598 2.10912 -1.99911 0
M  V30 3579 H 342.145 1.25118 -2.25174 0
M  V30 3580 H 342.103 2.78635 -1.45636 0
M  V30 3581 N 345.875 1.56104 -0.216619 0
M  V30 3582 C 346.823 2.21434 0.712036 0
M  V30 3583 C 347.817 1.19218 1.20348 0
M  V30 3584 O 349.023 1.3731 1.16387 0
M  V30 3585 H 345.398 0.70992 0.248026 0
M  V30 3586 H 347.369 2.98083 0.137558 0
M  V30 3587 C 346.118 2.90434 1.91163 0
M  V30 3588 H 345.441 3.68842 1.54258 0
M  V30 3589 H 346.881 3.39552 2.5393 0
M  V30 3590 C 345.34 1.92635 2.76394 0
M  V30 3591 O 345.87 1.44017 3.74996 0
M  V30 3592 N 344.076 1.60392 2.42328 0
M  V30 3593 H 343.623 2.00122 1.622 0
M  V30 3594 H 343.581 0.952159 2.99635 0
M  V30 3595 N 347.353 -0.0568162 1.57498 0
M  V30 3596 C 348.63 -0.786954 1.79071 0
M  V30 3597 C 349.01 -1.95028 0.80792 0
M  V30 3598 O 348.358 -2.27968 -0.155858 0
M  V30 3599 C 348.568 -1.24594 3.26002 0
M  V30 3600 C 349.916 -1.67323 3.90241 0
M  V30 3601 O 350.94 -1.34124 3.29984 0
M  V30 3602 O 349.799 -2.28842 4.9628 0
M  V30 3603 H 346.893 -0.378262 0.735423 0
M  V30 3604 H 349.439 -0.035734 1.69662 0
M  V30 3605 H 348.211 -0.41423 3.89101 0
M  V30 3606 H 347.834 -2.05803 3.40192 0
M  V30 3607 N 348.832 -1.54138 -0.328536 0
M  V30 3608 C 350.06 -1.76062 -1.08673 0
M  V30 3609 C 350.475 -0.506852 -1.81869 0
M  V30 3610 O 349.832 0.522223 -1.74869 0
M  V30 3611 C 349.883 -2.95054 -2.08866 0
M  V30 3612 O 349.604 -4.15583 -1.38644 0
M  V30 3613 C 351.105 -3.2915 -2.96943 0
M  V30 3614 H 348.325 -0.587889 -0.323461 0
M  V30 3615 H 350.869 -2.0101 -0.376175 0
M  V30 3616 H 349.024 -2.72394 -2.75464 0
M  V30 3617 H 349.438 -4.82481 -2.05699 0
M  V30 3618 H 350.912 -4.15723 -3.63151 0
M  V30 3619 H 351.389 -2.461 -3.63774 0
M  V30 3620 H 351.995 -3.53871 -2.35914 0
M  V30 3621 N 350.31 0.590341 -1.46126 0
M  V30 3622 C 351.257 1.69994 -1.56111 0
M  V30 3623 C 352.227 1.61065 -0.405867 0
M  V30 3624 O 353.412 1.8039 -0.621613 0
M  V30 3625 C 350.552 3.08326 -1.55013 0
M  V30 3626 C 349.665 3.27936 -2.81215 0
M  V30 3627 C 348.8 4.56473 -2.71673 0
M  V30 3628 C 347.839 4.694 -3.92849 0
M  V30 3629 N 346.976 5.89254 -3.81738 0
M  V30 3630 H 351.816 1.60797 -2.50895 0
M  V30 3631 H 349.353 0.783799 -1.24479 0
M  V30 3632 H 351.311 3.88383 -1.52362 0
M  V30 3633 H 349.941 3.16439 -0.637667 0
M  V30 3634 H 348.993 2.41536 -2.93879 0
M  V30 3635 H 350.305 3.33357 -3.71045 0
M  V30 3636 H 349.459 5.44748 -2.67085 0
M  V30 3637 H 348.198 4.53477 -1.7947 0
M  V30 3638 H 347.203 3.79544 -3.97777 0
M  V30 3639 H 348.428 4.7418 -4.86138 0
M  V30 3640 H 346.374 5.87271 -2.92317 0
M  V30 3641 H 346.291 5.95911 -4.65217 0
M  V30 3642 H 347.559 6.79981 -3.81112 0
M  V30 3643 N 351.788 1.33704 0.83433 0
M  V30 3644 C 352.698 1.26382 1.97648 0
M  V30 3645 C 353.714 0.173548 1.73132 0
M  V30 3646 O 354.89 0.397962 1.97429 0
M  V30 3647 C 351.955 1.00769 3.31733 0
M  V30 3648 C 351.016 2.1884 3.69334 0
M  V30 3649 C 350.249 1.9444 4.9702 0
M  V30 3650 O 350.472 0.896961 5.63303 0
M  V30 3651 O 349.406 2.81093 5.32231 0
M  V30 3652 H 353.232 2.22444 2.06767 0
M  V30 3653 H 350.817 1.13795 0.968037 0
M  V30 3654 H 352.699 0.882186 4.12062 0
M  V30 3655 H 351.374 0.0773783 3.23608 0
M  V30 3656 H 350.281 2.36946 2.89495 0
M  V30 3657 H 351.614 3.10221 3.82131 0
M  V30 3658 N 353.266 -1.05314 1.17247 0
M  V30 3659 C 354.514 -1.77941 0.958194 0
M  V30 3660 C 354.835 -1.88089 -0.514556 0
M  V30 3661 O 354.105 -1.39676 -1.37359 0
M  V30 3662 H 352.685 -0.659116 0.351533 0
M  V30 3663 H 355.347 -1.27166 1.47699 0
M  V30 3664 H 354.443 -2.79663 1.38546 0
M  V30 3665 N 354.744 -0.972509 -1.24016 0
M  V30 3666 C 355.691 -0.505969 -2.25186 0
M  V30 3667 C 356.661 0.451009 -1.5986 0
M  V30 3668 O 357.846 0.360307 -1.87367 0
M  V30 3669 C 354.986 0.193089 -3.44559 0
M  V30 3670 C 354.099 -0.803222 -4.24467 0
M  V30 3671 C 353.234 -0.0797793 -5.3114 0
M  V30 3672 C 352.273 -1.06583 -6.02749 0
M  V30 3673 N 351.41 -0.372074 -7.01113 0
M  V30 3674 H 356.25 -1.37351 -2.64459 0
M  V30 3675 H 353.787 -0.688419 -1.29997 0
M  V30 3676 H 355.745 0.615125 -4.1264 0
M  V30 3677 H 354.375 1.02455 -3.06109 0
M  V30 3678 H 353.427 -1.34368 -3.55878 0
M  V30 3679 H 354.739 -1.55494 -4.73944 0
M  V30 3680 H 353.893 0.400015 -6.0538 0
M  V30 3681 H 352.632 0.704597 -4.82583 0
M  V30 3682 H 351.637 -1.55645 -5.27309 0
M  V30 3683 H 352.862 -1.85074 -6.53395 0
M  V30 3684 H 350.808 0.393238 -6.5482 0
M  V30 3685 H 350.725 -1.06258 -7.48495 0
M  V30 3686 H 351.993 0.0855932 -7.79453 0
M  V30 3687 N 356.222 1.38976 -0.743202 0
M  V30 3688 C 357.633 1.83123 -0.363732 0
M  V30 3689 C 357.984 1.6205 1.10609 0
M  V30 3690 O 357.109 1.11606 1.854 0
M  V30 3691 C 357.704 3.32439 -0.653408 0
M  V30 3692 C 356.263 3.74974 -0.327338 0
M  V30 3693 C 355.41 2.61878 -0.911875 0
M  V30 3694 H 358.361 1.27852 -0.940191 0
M  V30 3695 H 358.382 3.80432 0.0720031 0
M  V30 3696 H 357.894 3.47745 -1.72323 0
M  V30 3697 H 355.995 3.65252 0.736314 0
M  V30 3698 H 356.108 4.72106 -0.815631 0
M  V30 3699 H 354.472 2.52448 -0.337944 0
M  V30 3700 H 355.255 2.79987 -1.98651 0
M  V30 3701 N 357.7 0.491464 1.49741 0
M  V30 3702 C 358.948 -0.0563141 2.02022 0
M  V30 3703 C 359.269 -1.38363 1.37407 0
M  V30 3704 O 358.539 -1.88702 0.526166 0
M  V30 3705 H 357.119 -0.0238014 0.746621 0
M  V30 3706 H 359.781 0.646533 1.83864 0
M  V30 3707 H 358.877 -0.192967 3.11503 0
M  V30 3708 N 359.178 -1.55987 0.224894 0
M  V30 3709 C 360.424 -1.98684 -0.406502 0
M  V30 3710 C 360.757 -1.11248 -1.59177 0
M  V30 3711 O 360.032 -0.170909 -1.93748 0
M  V30 3712 C 360.315 -3.50218 -0.837808 0
M  V30 3713 C 360.168 -4.48426 0.351332 0
M  V30 3714 C 361.487 -4.06243 -1.69278 0
M  V30 3715 H 358.606 -0.722337 -0.146283 0
M  V30 3716 H 361.248 -1.87255 0.321799 0
M  V30 3717 H 359.398 -3.60089 -1.45837 0
M  V30 3718 H 361.07 -4.50562 0.989526 0
M  V30 3719 H 359.313 -4.22159 0.998207 0
M  V30 3720 H 359.984 -5.52 0.00655905 0
M  V30 3721 H 362.46 -3.99337 -1.16914 0
M  V30 3722 H 361.336 -5.12581 -1.96346 0
M  V30 3723 H 361.597 -3.53332 -2.65723 0
M  V30 3724 N 360.656 0.0484629 -1.57525 0
M  V30 3725 C 361.904 0.741657 -1.88 0
M  V30 3726 C 362.225 1.76918 -0.820054 0
M  V30 3727 O 361.495 1.95335 0.148661 0
M  V30 3728 H 360.075 0.276908 -0.69378 0
M  V30 3729 H 362.737 0.019013 -1.94891 0
M  V30 3730 H 361.833 1.24336 -2.86264 0
M  V30 3731 N 362.134 1.5431 0.320358 0
M  V30 3732 C 363.382 1.72327 1.05583 0
M  V30 3733 C 363.703 0.50149 1.88441 0
M  V30 3734 O 362.973 -0.48448 1.89815 0
M  V30 3735 H 361.553 0.635387 0.3928 0
M  V30 3736 H 364.215 1.91621 0.356019 0
M  V30 3737 H 363.311 2.60426 1.72003 0
M  V30 3738 N 363.613 -0.582584 1.46437 0
M  V30 3739 C 364.86 -1.34079 1.51753 0
M  V30 3740 C 365.188 -1.93762 0.169299 0
M  V30 3741 O 364.443 -1.76989 -0.835062 0
M  V30 3742 C 364.742 -2.48964 2.56421 0
M  V30 3743 C 364.408 -2.07273 4.00436 0
M  V30 3744 C 363.07 -1.95618 4.39644 0
M  V30 3745 C 365.422 -1.75111 4.90903 0
M  V30 3746 C 362.75 -1.5006 5.67185 0
M  V30 3747 C 365.102 -1.31032 6.18881 0
M  V30 3748 C 363.766 -1.17954 6.56996 0
M  V30 3749 H 363.036 -0.49063 0.555304 0
M  V30 3750 H 365.683 -0.656007 1.79913 0
M  V30 3751 H 363.988 -3.22889 2.21923 0
M  V30 3752 H 365.685 -3.07178 2.57765 0
M  V30 3753 H 362.275 -2.17279 3.69443 0
M  V30 3754 H 366.459 -1.83001 4.61329 0
M  V30 3755 H 361.715 -1.38577 5.95488 0
M  V30 3756 H 365.889 -1.052 6.88408 0
M  V30 3757 H 363.516 -0.824279 7.55718 0
M  V30 3758 N 365.091 -1.34144 -0.827227 0
M  V30 3759 C 366.024 -1.19707 -1.94282 0
M  V30 3760 C 367.002 -0.0897256 -1.62352 0
M  V30 3761 O 368.186 -0.254095 -1.8678 0
M  V30 3762 C 365.313 -0.838646 -3.28153 0
M  V30 3763 C 364.359 -1.95514 -3.79047 0
M  V30 3764 S 365.192 -3.56793 -3.99323 0
M  V30 3765 C 366.348 -3.22983 -5.36127 0
M  V30 3766 H 366.581 -2.1414 -2.06231 0
M  V30 3767 H 364.114 -1.19121 -0.982321 0
M  V30 3768 H 366.072 -0.638637 -4.05502 0
M  V30 3769 H 364.733 0.0872776 -3.13979 0
M  V30 3770 H 363.926 -1.658 -4.75948 0
M  V30 3771 H 363.528 -2.11241 -3.08631 0
M  V30 3772 H 365.82 -2.74531 -6.19386 0
M  V30 3773 H 366.763 -4.19008 -5.70822 0
M  V30 3774 H 367.171 -2.59276 -5.01434 0
M  V30 3775 N 366.569 1.04691 -1.17803 0
M  V30 3776 C 367.98 1.59238 -0.974689 0
M  V30 3777 C 368.331 1.90306 0.477292 0
M  V30 3778 O 367.456 1.68846 1.35352 0
M  V30 3779 C 368.051 2.89318 -1.76296 0
M  V30 3780 C 366.61 3.40506 -1.60414 0
M  V30 3781 C 365.757 2.14172 -1.76141 0
M  V30 3782 H 368.708 0.874395 -1.32439 0
M  V30 3783 H 368.729 3.5944 -1.24833 0
M  V30 3784 H 368.241 2.66675 -2.81968 0
M  V30 3785 H 366.342 3.68175 -0.572519 0
M  V30 3786 H 366.455 4.14753 -2.39827 0
M  V30 3787 H 364.819 2.25176 -1.19028 0
M  V30 3788 H 365.602 1.93992 -2.83235 0
M  V30 3789 N 368.047 0.979072 1.23499 0
M  V30 3790 C 369.294 0.647219 1.91878 0
M  V30 3791 C 369.622 -0.819074 1.76413 0
M  V30 3792 O 368.877 -1.60616 1.11808 0
M  V30 3793 C 369.176 0.981932 3.43646 0
M  V30 3794 C 368.842 2.43822 3.79291 0
M  V30 3795 C 367.504 2.83622 3.88731 0
M  V30 3796 C 369.856 3.3828 3.96505 0
M  V30 3797 C 367.184 4.16897 4.12812 0
M  V30 3798 C 369.536 4.71197 4.22085 0
M  V30 3799 C 368.2 5.10758 4.29747 0
M  V30 3800 H 367.47 0.236834 0.702133 0
M  V30 3801 H 370.117 1.23268 1.46551 0
M  V30 3802 H 368.422 0.314365 3.90537 0
M  V30 3803 H 370.119 0.703395 3.94783 0
M  V30 3804 H 366.709 2.11966 3.72516 0
M  V30 3805 H 370.893 3.0871 3.88603 0
M  V30 3806 H 366.149 4.47157 4.16966 0
M  V30 3807 H 370.323 5.44348 4.34348 0
M  V30 3808 H 367.95 6.1405 4.48159 0
M  V30 3809 N 369.525 -1.3858 0.750561 0
M  V30 3810 C 370.773 -1.99789 0.30477 0
M  V30 3811 C 371.094 -1.59874 -1.11649 0
M  V30 3812 O 370.364 -0.85417 -1.76297 0
M  V30 3813 H 368.944 -0.738902 0.109694 0
M  V30 3814 H 371.606 -1.69391 0.963983 0
M  V30 3815 H 370.702 -3.09952 0.365499 0
M  V30 3816 N 371.003 -0.499398 -1.49478 0
M  V30 3817 C 372.25 0.0456899 -2.02448 0
M  V30 3818 C 372.578 1.37142 -1.37921 0
M  V30 3819 O 371.833 1.89111 -0.503544 0
M  V30 3820 C 372.132 0.248424 -3.56536 0
M  V30 3821 C 371.798 -0.999107 -4.39692 0
M  V30 3822 C 370.46 -1.34108 -4.62135 0
M  V30 3823 C 372.812 -1.82842 -4.88076 0
M  V30 3824 C 370.14 -2.51191 -5.30208 0
M  V30 3825 C 372.492 -2.99076 -5.57437 0
M  V30 3826 C 371.156 -3.33655 -5.78127 0
M  V30 3827 H 370.426 0.0167191 -0.740811 0
M  V30 3828 H 373.073 -0.65923 -1.79795 0
M  V30 3829 H 371.378 1.03586 -3.77859 0
M  V30 3830 H 373.075 0.684605 -3.95113 0
M  V30 3831 H 369.665 -0.722729 -4.22463 0
M  V30 3832 H 373.849 -1.57737 -4.70566 0
M  V30 3833 H 369.105 -2.78221 -5.44429 0
M  V30 3834 H 373.279 -3.63664 -5.93904 0
M  V30 3835 H 370.906 -4.24483 -6.30649 0
M  V30 3836 N 372.481 1.55866 -0.233164 0
M  V30 3837 C 373.706 2.03449 0.402906 0
M  V30 3838 C 374.131 1.11166 1.51736 0
M  V30 3839 O 373.489 0.101996 1.81013 0
M  V30 3840 C 373.537 3.49165 0.9009 0
M  V30 3841 O 372.641 3.60019 2.01147 0
M  V30 3842 H 371.982 0.657913 0.0897025 0
M  V30 3843 H 374.512 2.01493 -0.355201 0
M  V30 3844 H 374.522 3.89716 1.2077 0
M  V30 3845 H 373.197 4.15813 0.0852889 0
M  V30 3846 H 371.774 3.3136 1.71042 0
M  V30 3847 N 373.959 -0.0401083 1.57549 0
M  V30 3848 C 375.207 -0.731677 1.8839 0
M  V30 3849 C 375.528 -1.76481 0.829425 0
M  V30 3850 O 374.798 -1.95411 -0.1383 0
M  V30 3851 H 373.378 -0.273225 0.695239 0
M  V30 3852 H 376.04 -0.00867725 1.94898 0
M  V30 3853 H 375.136 -1.22816 2.86919 0
M  V30 3854 N 375.437 -1.54477 -0.31217 0
M  V30 3855 C 376.683 -1.73483 -1.0503 0
M  V30 3856 C 377.016 -0.513125 -1.87298 0
M  V30 3857 O 376.291 0.489864 -1.8823 0
M  V30 3858 C 376.574 -3.01723 -1.96558 0
M  V30 3859 C 376.427 -4.3417 -1.17545 0
M  V30 3860 C 377.746 -3.25772 -2.95907 0
M  V30 3861 H 374.865 -0.631222 -0.380432 0
M  V30 3862 H 377.507 -1.87184 -0.325932 0
M  V30 3863 H 375.657 -2.90174 -2.58324 0
M  V30 3864 H 377.329 -4.5762 -0.581513 0
M  V30 3865 H 375.572 -4.31159 -0.477925 0
M  V30 3866 H 376.243 -5.20143 -1.84811 0
M  V30 3867 H 378.719 -3.36857 -2.44267 0
M  V30 3868 H 377.595 -4.16838 -3.57123 0
M  V30 3869 H 377.856 -2.43537 -3.68974 0
M  V30 3870 N 376.915 0.57481 -1.46744 0
M  V30 3871 C 377.845 1.69337 -1.60771 0
M  V30 3872 C 378.826 1.63825 -0.457736 0
M  V30 3873 O 380.011 1.8172 -0.684947 0
M  V30 3874 C 377.141 3.0798 -1.60517 0
M  V30 3875 C 376.095 3.28327 -2.74564 0
M  V30 3876 C 375.421 4.67578 -2.59373 0
M  V30 3877 C 376.721 3.15398 -4.16319 0
M  V30 3878 H 378.415 1.57853 -2.54407 0
M  V30 3879 H 375.961 0.75799 -1.22436 0
M  V30 3880 H 377.914 3.86061 -1.68923 0
M  V30 3881 H 376.638 3.20381 -0.634305 0
M  V30 3882 H 375.297 2.52649 -2.65639 0
M  V30 3883 H 374.945 4.76755 -1.60353 0
M  V30 3884 H 374.645 4.82144 -3.35873 0
M  V30 3885 H 376.169 5.47817 -2.69682 0
M  V30 3886 H 377.583 3.83315 -4.26313 0
M  V30 3887 H 375.98 3.41482 -4.93468 0
M  V30 3888 H 377.05 2.12372 -4.3592 0
M  V30 3889 N 378.394 1.34581 0.820102 0
M  V30 3890 C 379.619 1.30333 1.61332 0
M  V30 3891 C 380.044 -0.119339 1.87721 0
M  V30 3892 O 379.402 -1.08197 1.45475 0
M  V30 3893 C 379.45 2.10258 2.92957 0
M  V30 3894 O 378.554 1.47404 3.85157 0
M  V30 3895 H 377.895 0.447488 0.490561 0
M  V30 3896 H 380.425 1.77425 1.01889 0
M  V30 3897 H 380.435 2.21718 3.42498 0
M  V30 3898 H 379.11 3.13693 2.73074 0
M  V30 3899 H 377.687 1.44703 3.43679 0
M  V30 3900 N 379.872 -1.04064 1.18357 0
M  V30 3901 C 381.12 -1.76915 0.977013 0
M  V30 3902 C 381.441 -1.88624 -0.494577 0
M  V30 3903 O 380.711 -1.41125 -1.3587 0
M  V30 3904 H 379.291 -0.65535 0.358504 0
M  V30 3905 H 381.953 -1.25592 1.49039 0
M  V30 3906 H 381.049 -2.78178 1.41504 0
M  V30 3907 N 381.35 -0.985608 -1.22978 0
M  V30 3908 C 382.313 -0.535071 -2.22867 0
M  V30 3909 C 383.313 0.378123 -1.56291 0
M  V30 3910 O 384.503 0.171092 -1.73358 0
M  V30 3911 C 381.635 0.222702 -3.40172 0
M  V30 3912 H 382.828 -1.41835 -2.6424 0
M  V30 3913 H 380.381 -0.772042 -1.35901 0
M  V30 3914 H 381.116 1.12229 -3.04262 0
M  V30 3915 H 380.901 -0.43288 -3.89703 0
M  V30 3916 H 382.391 0.526335 -4.1427 0
M  V30 3917 N 382.828 1.3818 -0.7579 0
M  V30 3918 C 383.791 2.28764 -0.141286 0
M  V30 3919 C 384.791 1.47388 0.642907 0
M  V30 3920 O 385.981 1.67781 0.468536 0
M  V30 3921 C 383.113 3.31184 0.808069 0
M  V30 3922 H 384.306 2.848 -0.939633 0
M  V30 3923 H 381.859 1.47212 -0.525191 0
M  V30 3924 H 382.594 2.80247 1.63193 0
M  V30 3925 H 382.379 3.91314 0.248104 0
M  V30 3926 H 383.869 3.98909 1.23536 0
M  V30 3927 N 384.306 0.507319 1.49211 0
M  V30 3928 C 385.534 -0.0315749 2.06876 0
M  V30 3929 C 385.949 -1.30241 1.36685 0
M  V30 3930 O 385.306 -1.76937 0.447152 0
M  V30 3931 C 385.357 -0.282627 3.60393 0
M  V30 3932 O 385.078 0.937835 4.27944 0
M  V30 3933 C 386.579 -0.864453 4.3479 0
M  V30 3934 H 383.799 0.0233048 0.670595 0
M  V30 3935 H 386.343 0.706484 1.91909 0
M  V30 3936 H 384.498 -0.97068 3.75042 0
M  V30 3937 H 384.912 0.704567 5.19746 0
M  V30 3938 H 386.386 -0.989664 5.43056 0
M  V30 3939 H 386.863 -1.86382 3.97692 0
M  V30 3940 H 387.469 -0.213672 4.24763 0
M  V30 3941 N 385.784 -1.5574 0.241426 0
M  V30 3942 C 387.024 -2.00714 -0.38644 0
M  V30 3943 C 387.388 -1.12586 -1.55526 0
M  V30 3944 O 388.589 -1.46992 -2.25048 0
M  V30 3945 C 386.86 -3.48534 -0.791128 0
M  V30 3946 S 388.419 -4.15519 -1.41029 0
M  V30 3947 H 385.237 -0.700484 -0.121834 0
M  V30 3948 H 387.839 -1.92243 0.355377 0
M  V30 3949 H 386.543 -4.10342 0.0689225 0
M  V30 3950 H 386.074 -3.6092 -1.56526 0
M  V30 3951 H 388.089 -4.16352 -2.69936 0
M  V30 3952 N 387.262 0.0317525 -1.57568 0
M  V30 3953 C 388.509 0.723104 -1.89149 0
M  V30 3954 C 388.837 1.75504 -0.838377 0
M  V30 3955 O 388.092 1.95037 0.160982 0
M  V30 3956 C 388.391 1.43167 -3.27472 0
M  V30 3957 C 388.057 0.535972 -4.47703 0
M  V30 3958 C 386.719 0.289262 -4.8033 0
M  V30 3959 C 389.071 -0.0826125 -5.21135 0
M  V30 3960 C 386.399 -0.584853 -5.83778 0
M  V30 3961 C 388.751 -0.944414 -6.25511 0
M  V30 3962 C 387.415 -1.20061 -6.56614 0
M  V30 3963 H 386.685 0.264602 -0.692146 0
M  V30 3964 H 389.332 -0.0169496 -1.91492 0
M  V30 3965 H 387.637 2.24497 -3.21105 0
M  V30 3966 H 389.334 1.97209 -3.49155 0
M  V30 3967 H 385.924 0.738414 -4.22191 0
M  V30 3968 H 390.108 0.0950302 -4.96209 0
M  V30 3969 H 385.364 -0.79168 -6.06253 0
M  V30 3970 H 389.538 -1.43026 -6.81554 0
M  V30 3971 H 387.165 -1.87967 -7.36595 0
M  V30 3972 N 388.74 1.54641 0.303973 0
M  V30 3973 C 389.97 1.77511 1.05705 0
M  V30 3974 C 390.378 0.533228 1.81531 0
M  V30 3975 O 389.721 -0.506423 1.76582 0
M  V30 3976 C 389.783 2.92779 2.08617 0
M  V30 3977 C 389.447 4.30977 1.52013 0
M  V30 3978 C 390.444 5.11115 0.9517 0
M  V30 3979 C 388.129 4.77571 1.55665 0
M  V30 3980 C 390.123 6.35966 0.427327 0
M  V30 3981 C 387.81 6.02384 1.02841 0
M  V30 3982 C 388.808 6.81417 0.464713 0
M  V30 3983 O 388.496 8.03881 -0.0555283 0
M  V30 3984 H 388.228 0.59579 0.319391 0
M  V30 3985 H 390.782 2.02401 0.349712 0
M  V30 3986 H 389.012 2.63506 2.83022 0
M  V30 3987 H 390.701 3.03252 2.69802 0
M  V30 3988 H 391.467 4.76264 0.916407 0
M  V30 3989 H 387.346 4.16085 1.9848 0
M  V30 3990 H 390.89 6.97599 -0.0133062 0
M  V30 3991 H 386.787 6.36723 1.06084 0
M  V30 3992 H 387.555 8.18479 0.0580522 0
M  V30 3993 N 390.218 -0.567019 1.47046 0
M  V30 3994 C 391.181 -1.65696 1.58359 0
M  V30 3995 C 392.181 -1.54097 0.459441 0
M  V30 3996 O 393.371 -1.58432 0.724225 0
M  V30 3997 C 390.503 -3.05197 1.51879 0
M  V30 3998 H 391.696 -1.57019 2.5551 0
M  V30 3999 H 389.249 -0.786148 1.3509 0
M  V30 4000 H 389.984 -3.19417 0.560673 0
M  V30 4001 H 389.769 -3.15025 2.33455 0
M  V30 4002 H 391.259 -3.84511 1.62913 0
M  V30 4003 N 391.696 -1.35014 -0.812953 0
M  V30 4004 C 392.943 -1.27931 -1.56971 0
M  V30 4005 C 393.271 0.148034 -1.93936 0
M  V30 4006 O 392.526 1.11175 -1.61054 0
M  V30 4007 C 392.825 -2.12524 -2.87347 0
M  V30 4008 C 392.491 -3.61401 -2.6963 0
M  V30 4009 C 391.153 -4.01983 -2.64506 0
M  V30 4010 C 393.505 -4.55894 -2.52607 0
M  V30 4011 C 390.833 -5.35235 -2.40293 0
M  V30 4012 C 393.185 -5.89336 -2.29925 0
M  V30 4013 C 391.849 -6.2907 -2.23219 0
M  V30 4014 H 391.119 -0.468131 -0.574399 0
M  V30 4015 H 393.766 -1.66851 -0.939836 0
M  V30 4016 H 392.071 -1.66463 -3.54679 0
M  V30 4017 H 393.768 -2.04383 -3.45005 0
M  V30 4018 H 390.358 -3.29193 -2.74463 0
M  V30 4019 H 394.542 -4.25431 -2.55583 0
M  V30 4020 H 389.798 -5.65028 -2.33566 0
M  V30 4021 H 393.972 -6.62139 -2.15743 0
M  V30 4022 H 391.599 -7.32256 -2.04219 0
M  V30 4023 N 393.175 1.03435 -1.18907 0
M  V30 4024 C 394.421 1.77005 -0.989798 0
M  V30 4025 C 394.754 1.88205 0.478816 0
M  V30 4026 O 394.029 1.39481 1.35556 0
M  V30 4027 C 394.312 3.19925 -1.65287 0
M  V30 4028 C 394.165 3.1663 -3.19477 0
M  V30 4029 C 395.484 4.18189 -1.37134 0
M  V30 4030 H 392.603 0.642538 -0.360991 0
M  V30 4031 H 395.245 1.20784 -1.46667 0
M  V30 4032 H 393.395 3.67929 -1.24741 0
M  V30 4033 H 395.067 2.76567 -3.692 0
M  V30 4034 H 393.31 2.54491 -3.51307 0
M  V30 4035 H 393.981 4.1758 -3.61013 0
M  V30 4036 H 396.457 3.78761 -1.72276 0
M  V30 4037 H 395.333 5.16394 -1.86087 0
M  V30 4038 H 395.594 4.41112 -0.295424 0
M  V30 4039 N 394.653 0.992116 1.22453 0
M  V30 4040 C 395.901 0.666215 1.90804 0
M  V30 4041 C 396.222 -0.804152 1.77647 0
M  V30 4042 O 395.492 -1.57629 1.16318 0
M  V30 4043 H 394.072 0.243423 0.706225 0
M  V30 4044 H 396.734 1.25845 1.48825 0
M  V30 4045 H 395.83 0.928069 2.97982 0
M  V30 4046 N 396.131 -1.37776 0.765217 0
M  V30 4047 C 397.378 -1.99849 0.326588 0
M  V30 4048 C 397.706 -1.60746 -1.09504 0
M  V30 4049 O 396.961 -0.84202 -1.76659 0
M  V30 4050 C 397.26 -3.5504 0.410053 0
M  V30 4051 C 396.926 -4.13891 1.78899 0
M  V30 4052 C 395.588 -4.29678 2.16635 0
M  V30 4053 C 397.94 -4.46236 2.69301 0
M  V30 4054 C 395.268 -4.7511 3.44221 0
M  V30 4055 C 397.62 -4.93089 3.9629 0
M  V30 4056 C 396.284 -5.07082 4.34078 0
M  V30 4057 H 395.554 -0.7313 0.119507 0
M  V30 4058 H 398.201 -1.64645 0.977968 0
M  V30 4059 H 396.506 -3.90451 -0.324878 0
M  V30 4060 H 398.203 -4.00966 0.0520699 0
M  V30 4061 H 394.793 -4.02026 1.48569 0
M  V30 4062 H 398.977 -4.3363 2.41409 0
M  V30 4063 H 394.233 -4.84129 3.73402 0
M  V30 4064 H 398.407 -5.17084 4.66472 0
M  V30 4065 H 396.034 -5.42046 5.33001 0
M  V30 4066 N 397.609 -0.515225 -1.4894 0
M  V30 4067 C 398.886 0.0879088 -1.95402 0
M  V30 4068 C 399.266 1.52745 -1.45712 0
M  V30 4069 O 398.614 2.18238 -0.677093 0
M  V30 4070 C 398.824 -0.0141055 -3.48997 0
M  V30 4071 C 400.172 0.152646 -4.24326 0
M  V30 4072 O 401.196 0.0604025 -3.56149 0
M  V30 4073 O 400.055 0.34384 -5.45417 0
M  V30 4074 H 397.149 0.0874636 -0.822362 0
M  V30 4075 H 399.695 -0.578775 -1.59525 0
M  V30 4076 H 398.467 -1.01745 -3.77841 0
M  V30 4077 H 398.09 0.692091 -3.9153 0
M  V30 4078 N 399.087 1.5561 -0.249682 0
M  V30 4079 C 400.327 2.00916 0.37579 0
M  V30 4080 C 400.691 1.13409 1.54927 0
M  V30 4081 O 401.892 1.48183 2.24266 0
M  V30 4082 C 400.163 3.48949 0.772633 0
M  V30 4083 S 401.722 4.16261 1.38824 0
M  V30 4084 H 398.54 0.70112 0.118117 0
M  V30 4085 H 401.142 1.92052 -0.365567 0
M  V30 4086 H 399.846 4.103 -0.090683 0
M  V30 4087 H 399.377 3.61745 1.5461 0
M  V30 4088 H 401.392 4.17778 2.67724 0
M  V30 4089 N 400.565 -0.0233959 1.57583 0
M  V30 4090 C 401.814 -0.712133 1.8871 0
M  V30 4091 C 402.127 -1.76217 0.848944 0
M  V30 4092 O 403.333 -2.50389 1.04964 0
M  V30 4093 C 401.789 -1.3177 3.3491 0
M  V30 4094 C 401.397 -0.303715 4.46969 0
M  V30 4095 C 403.141 -1.98598 3.75179 0
M  V30 4096 C 401.048 -0.917945 5.84233 0
M  V30 4097 H 399.978 -0.269735 0.704101 0
M  V30 4098 H 402.629 0.0333114 1.8347 0
M  V30 4099 H 401.011 -2.11304 3.34913 0
M  V30 4100 H 402.185 0.465325 4.58445 0
M  V30 4101 H 400.5 0.2628 4.1557 0
M  V30 4102 H 403.097 -2.45416 4.75053 0
M  V30 4103 H 403.44 -2.80659 3.07468 0
M  V30 4104 H 403.973 -1.25831 3.77374 0
M  V30 4105 H 400.712 -0.136633 6.55358 0
M  V30 4106 H 400.232 -1.65669 5.76467 0
M  V30 4107 H 401.911 -1.4236 6.31144 0
M  V30 4108 N 402.043 -1.548 -0.295768 0
M  V30 4109 C 403.006 -1.85363 -1.34808 0
M  V30 4110 C 404.006 -0.726817 -1.43436 0
M  V30 4111 O 405.196 -0.995088 -1.42981 0
M  V30 4112 C 402.328 -2.03859 -2.73229 0
M  V30 4113 H 403.521 -2.7941 -1.08949 0
M  V30 4114 H 401.074 -1.46942 -0.532702 0
M  V30 4115 H 401.809 -1.12117 -3.04303 0
M  V30 4116 H 401.594 -2.8588 -2.68356 0
M  V30 4117 H 403.084 -2.28857 -3.49305 0
M  V30 4118 N 403.521 0.559213 -1.47345 0
M  V30 4119 C 404.749 1.34194 -1.57479 0
M  V30 4120 C 405.164 1.87463 -0.224261 0
M  V30 4121 O 404.521 1.64888 0.782185 0
M  V30 4122 C 404.572 2.51324 -2.59843 0
M  V30 4123 O 404.293 2.00256 -3.89653 0
M  V30 4124 C 405.794 3.43563 -2.80142 0
M  V30 4125 H 403.014 0.409136 -0.531835 0
M  V30 4126 H 405.558 0.677609 -1.92947 0
M  V30 4127 H 403.713 3.13699 -2.27314 0
M  V30 4128 H 404.127 2.76708 -4.4557 0
M  V30 4129 H 405.601 4.2217 -3.55635 0
M  V30 4130 H 406.078 3.9698 -1.87892 0
M  V30 4131 H 406.684 2.87005 -3.1386 0
M  V30 4132 N 404.999 1.35443 0.805782 0
M  V30 4133 C 406.227 1.31878 1.59423 0
M  V30 4134 C 406.642 -0.103562 1.88516 0
M  V30 4135 O 405.999 -1.05575 1.48863 0
M  V30 4136 C 406.05 2.12426 2.92502 0
M  V30 4137 O 405.771 3.49115 2.6467 0
M  V30 4138 C 407.272 2.16455 3.86862 0
M  V30 4139 H 404.492 0.453002 0.495005 0
M  V30 4140 H 407.036 1.78309 1.00131 0
M  V30 4141 H 405.191 1.69593 3.48306 0
M  V30 4142 H 405.605 3.90957 3.49647 0
M  V30 4143 H 407.079 2.77204 4.77349 0
M  V30 4144 H 407.556 1.16352 4.23508 0
M  V30 4145 H 408.162 2.59453 3.36993 0
M  V30 4146 N 406.477 -1.02803 1.19454 0
M  V30 4147 C 407.725 -1.75869 0.995722 0
M  V30 4148 C 408.046 -1.89138 -0.474543 0
M  V30 4149 O 407.316 -1.42558 -1.34366 0
M  V30 4150 H 405.896 -0.651511 0.365435 0
M  V30 4151 H 408.558 -1.24004 1.50363 0
M  V30 4152 H 407.654 -2.76661 1.44447 0
M  V30 4153 N 407.956 -0.998596 -1.21925 0
M  V30 4154 C 408.866 -0.562736 -2.27751 0
M  V30 4155 C 409.882 0.391203 -1.69545 0
M  V30 4156 O 411.058 0.256625 -1.99758 0
M  V30 4157 C 408.123 0.11012 -3.46525 0
M  V30 4158 C 407.184 -0.887495 -4.20026 0
M  V30 4159 C 406.417 -0.246654 -5.3313 0
M  V30 4160 O 406.64 0.958088 -5.62296 0
M  V30 4161 O 405.574 -0.954374 -5.94286 0
M  V30 4162 H 409.4 -1.44329 -2.67213 0
M  V30 4163 H 406.985 -0.767135 -1.28201 0
M  V30 4164 H 408.867 0.486756 -4.18579 0
M  V30 4165 H 407.542 0.965154 -3.08976 0
M  V30 4166 H 406.449 -1.31517 -3.5022 0
M  V30 4167 H 407.782 -1.71191 -4.6147 0
M  V30 4168 N 409.434 1.37368 -0.772513 0
M  V30 4169 C 410.344 2.34053 -0.160081 0
M  V30 4170 C 411.36 1.60216 0.678728 0
M  V30 4171 O 412.536 1.92303 0.59847 0
M  V30 4172 C 409.601 3.3939 0.708182 0
M  V30 4173 C 408.662 4.29048 -0.147172 0
M  V30 4174 C 407.895 5.29354 0.679744 0
M  V30 4175 O 408.118 5.3723 1.91678 0
M  V30 4176 O 407.052 6.01835 0.0885444 0
M  V30 4177 H 410.878 2.88159 -0.959053 0
M  V30 4178 H 408.463 1.39543 -0.533685 0
M  V30 4179 H 410.345 4.03839 1.20384 0
M  V30 4180 H 409.02 2.8761 1.48533 0
M  V30 4181 H 407.927 3.67697 -0.689205 0
M  V30 4182 H 409.26 4.84134 -0.887423 0
M  V30 4183 N 410.912 0.523116 1.48665 0
M  V30 4184 C 412.158 -0.0134963 2.02796 0
M  V30 4185 C 412.491 -1.34582 1.40004 0
M  V30 4186 O 411.766 -1.86756 0.543381 0
M  V30 4187 C 412.049 -0.14276 3.59817 0
M  V30 4188 C 411.902 1.21425 4.331 0
M  V30 4189 C 413.221 -0.872856 4.31357 0
M  V30 4190 H 410.34 -0.00343074 0.736992 0
M  V30 4191 H 412.982 0.678816 1.7746 0
M  V30 4192 H 411.132 -0.732401 3.81534 0
M  V30 4193 H 412.804 1.84447 4.2282 0
M  V30 4194 H 411.047 1.79791 3.94788 0
M  V30 4195 H 411.718 1.07687 5.41394 0
M  V30 4196 H 414.194 -0.372555 4.14429 0
M  V30 4197 H 413.07 -0.932185 5.40927 0
M  V30 4198 H 413.331 -1.92161 3.98154 0
M  V30 4199 N 412.39 -1.55475 0.257931 0
M  V30 4200 C 413.337 -2.21837 -0.636939 0
M  V30 4201 C 414.307 -1.18596 -1.16294 0
M  V30 4202 O 415.492 -1.47081 -1.21539 0
M  V30 4203 C 412.632 -2.9301 -1.82317 0
M  V30 4204 C 411.745 -4.10931 -1.33265 0
M  V30 4205 C 410.88 -4.69791 -2.47931 0
M  V30 4206 C 409.919 -5.7994 -1.95796 0
M  V30 4207 N 409.056 -6.32935 -3.0387 0
M  V30 4208 H 413.896 -2.9793 -0.0643591 0
M  V30 4209 H 411.433 -1.47086 -0.0200031 0
M  V30 4210 H 413.391 -3.3248 -2.52018 0
M  V30 4211 H 412.021 -2.1937 -2.36805 0
M  V30 4212 H 411.073 -3.76699 -0.52931 0
M  V30 4213 H 412.385 -4.90417 -0.910654 0
M  V30 4214 H 411.539 -5.11892 -3.25656 0
M  V30 4215 H 410.278 -3.89545 -2.93438 0
M  V30 4216 H 409.283 -5.37305 -1.16546 0
M  V30 4217 H 410.508 -6.62043 -1.51246 0
M  V30 4218 H 408.454 -5.55591 -3.48791 0
M  V30 4219 H 408.371 -7.07645 -2.66035 0
M  V30 4220 H 409.639 -6.79695 -3.81621 0
M  V30 4221 N 413.868 0.0150385 -1.57593 0
M  V30 4222 C 414.816 1.02958 -2.08572 0
M  V30 4223 C 415.81 1.36554 -1.00246 0
M  V30 4224 O 417.016 1.35295 -1.18724 0
M  V30 4225 H 413.391 0.349619 -0.665786 0
M  V30 4226 H 415.362 0.573932 -2.92829 0
M  V30 4227 C 414.111 2.31752 -2.59203 0
M  V30 4228 H 413.434 2.06765 -3.42182 0
M  V30 4229 H 414.874 3.01053 -2.98568 0
M  V30 4230 C 413.333 3.01692 -1.49945 0
M  V30 4231 O 413.863 3.92083 -0.873704 0
M  V30 4232 N 412.069 2.6326 -1.23056 0
M  V30 4233 H 411.616 1.89838 -1.74125 0
M  V30 4234 H 411.574 3.10372 -0.501685 0
M  V30 4235 N 415.346 1.54954 0.287554 0
M  V30 4236 C 416.757 1.65732 0.859634 0
M  V30 4237 C 417.108 0.574767 1.87592 0
M  V30 4238 O 416.233 -0.286299 2.14498 0
M  V30 4239 C 416.828 3.00438 1.56597 0
M  V30 4240 C 415.387 3.13292 2.08627 0
M  V30 4241 C 414.534 2.61473 0.923416 0
M  V30 4242 H 417.485 1.5857 0.0642338 0
M  V30 4243 H 417.506 2.92613 2.43224 0
M  V30 4244 H 417.018 3.79207 0.826053 0
M  V30 4245 H 415.119 2.39268 2.85625 0
M  V30 4246 H 415.232 4.19647 2.31157 0
M  V30 4247 H 413.596 2.18264 1.31275 0
M  V30 4248 H 414.379 3.42733 0.197241 0
M  V30 4249 N 416.824 -0.551391 1.4764 0
M  V30 4250 C 417.756 -1.67333 1.56628 0
M  V30 4251 C 418.769 -1.56398 0.452045 0
M  V30 4252 O 419.958 -1.6325 0.721926 0
M  V30 4253 C 417.058 -3.05841 1.45994 0
M  V30 4254 C 416.231 -3.42472 2.72088 0
M  V30 4255 C 415.29 -4.60168 2.55209 0
M  V30 4256 O 414.316 -4.64458 3.2904 0
M  V30 4257 N 415.518 -5.57024 1.63416 0
M  V30 4258 H 418.283 -1.60066 2.53375 0
M  V30 4259 H 415.844 -0.738169 1.44093 0
M  V30 4260 H 417.836 -3.8242 1.32428 0
M  V30 4261 H 416.406 -3.07302 0.573071 0
M  V30 4262 H 415.626 -2.55284 3.00373 0
M  V30 4263 H 416.914 -3.63723 3.55785 0
M  V30 4264 H 416.312 -5.56319 1.02594 0
M  V30 4265 H 414.869 -6.32906 1.558 0
M  V30 4266 N 418.302 -1.35869 -0.798587 0
M  V30 4267 C 419.249 -1.29446 -1.91082 0
M  V30 4268 C 420.219 -0.16487 -1.6528 0
M  V30 4269 O 421.404 -0.349888 -1.87564 0
M  V30 4270 C 418.544 -1.0804 -3.27752 0
M  V30 4271 C 417.657 -2.29993 -3.65687 0
M  V30 4272 C 416.792 -2.01673 -4.91428 0
M  V30 4273 C 415.831 -3.19636 -5.22015 0
M  V30 4274 N 414.968 -2.91039 -6.38937 0
M  V30 4275 H 419.808 -2.24553 -1.95907 0
M  V30 4276 H 417.345 -1.11615 -0.958148 0
M  V30 4277 H 419.303 -0.936586 -4.06551 0
M  V30 4278 H 417.933 -0.16592 -3.22373 0
M  V30 4279 H 416.985 -2.55211 -2.82085 0
M  V30 4280 H 418.297 -3.18052 -3.84245 0
M  V30 4281 H 417.451 -1.84168 -5.78072 0
M  V30 4282 H 416.19 -1.10911 -4.74921 0
M  V30 4283 H 415.195 -3.37709 -4.33858 0
M  V30 4284 H 416.42 -4.11211 -5.40447 0
M  V30 4285 H 414.366 -2.0288 -6.2384 0
M  V30 4286 H 414.283 -3.72635 -6.57784 0
M  V30 4287 H 415.551 -2.77093 -7.28587 0
M  V30 4288 N 419.78 1.02168 -1.19998 0
M  V30 4289 C 420.743 2.08765 -0.94604 0
M  V30 4290 C 421.743 1.60618 0.0763846 0
M  V30 4291 O 422.933 1.73472 -0.159135 0
M  V30 4292 C 420.065 3.38262 -0.423255 0
M  V30 4293 H 421.258 2.32726 -1.89153 0
M  V30 4294 H 418.811 1.1889 -1.01464 0
M  V30 4295 H 419.546 3.19974 0.527938 0
M  V30 4296 H 419.331 3.74532 -1.16053 0
M  V30 4297 H 420.821 4.16759 -0.264911 0
M  V30 4298 N 421.258 1.00505 1.21394 0
M  V30 4299 C 422.507 0.683159 1.89778 0
M  V30 4300 C 422.82 -0.789471 1.7896 0
M  V30 4301 O 424.026 -1.22344 2.42372 0
M  V30 4302 C 422.482 1.17146 3.40301 0
M  V30 4303 C 422.09 2.67017 3.5973 0
M  V30 4304 C 423.834 0.924461 4.14311 0
M  V30 4305 C 421.741 3.09387 5.04017 0
M  V30 4306 H 420.671 0.25183 0.710702 0
M  V30 4307 H 423.322 1.21622 1.37406 0
M  V30 4308 H 421.704 0.566451 3.91928 0
M  V30 4309 H 422.878 3.32968 3.18542 0
M  V30 4310 H 421.193 2.89732 2.99073 0
M  V30 4311 H 423.79 1.21658 5.20676 0
M  V30 4312 H 424.133 -0.139286 4.16067 0
M  V30 4313 H 424.666 1.49226 3.6875 0
M  V30 4314 H 421.405 4.14989 5.07409 0
M  V30 4315 H 420.925 2.48149 5.46061 0
M  V30 4316 H 422.604 3.01371 5.72525 0
M  V30 4317 N 422.737 -1.36956 0.779787 0
M  V30 4318 C 424.148 -1.82094 0.412156 0
M  V30 4319 C 424.499 -1.64926 -1.06273 0
M  V30 4320 O 423.624 -1.16483 -1.82375 0
M  V30 4321 C 424.219 -3.3059 0.741319 0
M  V30 4322 C 422.778 -3.73974 0.426641 0
M  V30 4323 C 421.925 -2.59368 0.980987 0
M  V30 4324 H 424.876 -1.25314 0.973758 0
M  V30 4325 H 424.897 -3.80489 0.028887 0
M  V30 4326 H 424.409 -3.43054 1.81482 0
M  V30 4327 H 422.51 -3.67076 -0.639215 0
M  V30 4328 H 422.623 -4.69778 0.940515 0
M  V30 4329 H 420.987 -2.51463 0.404757 0
M  V30 4330 H 421.77 -2.74621 2.06005 0
M  V30 4331 N 424.215 -0.530993 -1.48385 0
M  V30 4332 C 425.461 0.00274135 -2.028 0
M  V30 4333 C 425.794 1.33838 -1.40716 0
M  V30 4334 O 425.069 1.86465 -0.553277 0
M  V30 4335 C 425.352 0.123676 -3.59888 0
M  V30 4336 C 425.205 -1.2372 -4.3245 0
M  V30 4337 C 426.524 0.849967 -4.31814 0
M  V30 4338 H 423.643 -0.000477758 -0.737 0
M  V30 4339 H 426.285 -0.688217 -1.77098 0
M  V30 4340 H 424.435 0.712157 -3.81917 0
M  V30 4341 H 426.107 -1.86687 -4.21836 0
M  V30 4342 H 424.35 -1.81882 -3.93829 0
M  V30 4343 H 425.021 -1.10557 -5.40815 0
M  V30 4344 H 427.497 0.350572 -4.14621 0
M  V30 4345 H 426.373 0.903486 -5.41413 0
M  V30 4346 H 426.634 1.90047 -3.99167 0
M  V30 4347 N 425.693 1.55336 -0.266172 0
M  V30 4348 C 426.941 1.99003 0.35246 0
M  V30 4349 C 427.262 1.15591 1.57047 0
M  V30 4350 O 426.532 0.243268 1.94384 0
M  V30 4351 H 425.112 0.735025 0.133217 0
M  V30 4352 H 427.774 1.91367 -0.369434 0
M  V30 4353 H 426.87 3.05289 0.648453 0
M  V30 4354 N 427.171 -0.0066808 1.57599 0
M  V30 4355 C 428.42 -0.692078 1.89455 0
M  V30 4356 C 428.733 -1.75306 0.867586 0
M  V30 4357 O 429.939 -2.49262 1.07614 0
M  V30 4358 C 428.395 -1.2821 3.36289 0
M  V30 4359 C 428.003 -0.256291 4.47266 0
M  V30 4360 C 429.747 -1.94608 3.77264 0
M  V30 4361 C 427.654 -0.855927 5.85173 0
M  V30 4362 H 426.584 -0.262252 0.706923 0
M  V30 4363 H 429.235 0.052769 1.83424 0
M  V30 4364 H 427.617 -2.0774 3.37135 0
M  V30 4365 H 428.791 0.513923 4.57925 0
M  V30 4366 H 427.106 0.306862 4.15268 0
M  V30 4367 H 429.703 -2.40364 4.77629 0
M  V30 4368 H 430.046 -2.77382 3.10427 0
M  V30 4369 H 430.579 -1.21822 3.78688 0
M  V30 4370 H 427.318 -0.0671161 6.55466 0
M  V30 4371 H 426.838 -1.59546 5.78191 0
M  V30 4372 H 428.517 -1.35658 6.32618 0
M  V30 4373 N 428.649 -1.55105 -0.279332 0
M  V30 4374 C 429.895 -1.75672 -1.01327 0
M  V30 4375 C 430.228 -0.552739 -1.86168 0
M  V30 4376 O 429.503 0.449827 -1.89227 0
M  V30 4377 C 429.786 -3.05825 -1.90114 0
M  V30 4378 C 429.639 -4.36565 -1.08309 0
M  V30 4379 C 430.958 -3.31975 -2.8893 0
M  V30 4380 H 428.077 -0.639149 -0.366957 0
M  V30 4381 H 430.719 -1.87833 -0.286154 0
M  V30 4382 H 428.869 -2.95588 -2.52111 0
M  V30 4383 H 430.541 -4.58751 -0.484314 0
M  V30 4384 H 428.784 -4.32076 -0.386362 0
M  V30 4385 H 429.455 -5.23946 -1.73737 0
M  V30 4386 H 431.931 -3.41963 -2.37067 0
M  V30 4387 H 430.807 -4.2432 -3.48201 0
M  V30 4388 H 431.068 -2.51309 -3.63725 0
M  V30 4389 N 430.127 0.543554 -1.4793 0
M  V30 4390 C 431.09 1.63156 -1.60975 0
M  V30 4391 C 432.09 1.53346 -0.483899 0
M  V30 4392 O 433.28 1.5726 -0.749339 0
M  V30 4393 C 430.412 3.02743 -1.56716 0
M  V30 4394 H 431.605 1.52934 -2.57975 0
M  V30 4395 H 429.158 0.764557 -1.36324 0
M  V30 4396 H 429.893 3.18484 -0.611418 0
M  V30 4397 H 429.678 3.11272 -2.38438 0
M  V30 4398 H 431.168 3.81871 -1.6901 0
M  V30 4399 N 431.605 1.3629 0.791371 0
M  V30 4400 C 432.83 1.33726 1.58531 0
M  V30 4401 C 433.255 -0.0794933 1.87932 0
M  V30 4402 O 432.613 -1.05087 1.47738 0
M  V30 4403 C 432.661 2.16425 2.88431 0
M  V30 4404 O 431.765 1.5554 3.81944 0
M  V30 4405 H 431.106 0.457793 0.480959 0
M  V30 4406 H 433.636 1.79547 0.981031 0
M  V30 4407 H 433.646 2.28933 3.37718 0
M  V30 4408 H 432.321 3.19415 2.66359 0
M  V30 4409 H 430.898 1.51961 3.40532 0
M  V30 4410 N 433.083 -1.0153 1.20538 0
M  V30 4411 C 434.013 -2.11972 0.979295 0
M  V30 4412 C 434.994 -1.6985 -0.0921787 0
M  V30 4413 O 436.179 -1.94089 0.0655932 0
M  V30 4414 C 433.309 -3.43201 0.531984 0
M  V30 4415 C 432.263 -3.9907 1.54685 0
M  V30 4416 C 431.589 -5.26082 0.956127 0
M  V30 4417 C 432.889 -4.32313 2.93092 0
M  V30 4418 H 434.583 -2.31143 1.90298 0
M  V30 4419 H 432.129 -1.11079 0.916372 0
M  V30 4420 H 434.082 -4.1985 0.361044 0
M  V30 4421 H 432.806 -3.23792 -0.427327 0
M  V30 4422 H 431.465 -3.2453 1.70517 0
M  V30 4423 H 431.113 -5.02999 -0.0111538 0
M  V30 4424 H 430.813 -5.64426 1.63393 0
M  V30 4425 H 432.337 -6.05386 0.796284 0
M  V30 4426 H 433.751 -4.99845 2.80763 0
M  V30 4427 H 432.148 -4.81774 3.57791 0
M  V30 4428 H 433.218 -3.41025 3.44717 0
M  V30 4429 N 434.561 -1.01147 -1.20859 0
M  V30 4430 C 435.491 -0.597663 -2.25722 0
M  V30 4431 C 436.472 0.384744 -1.65692 0
M  V30 4432 O 437.657 0.271303 -1.92296 0
M  V30 4433 C 434.787 0.0700149 -3.47229 0
M  V30 4434 C 433.741 -0.832843 -4.19819 0
M  V30 4435 C 433.067 -0.0312202 -5.34691 0
M  V30 4436 C 434.367 -2.1385 -4.76514 0
M  V30 4437 H 436.061 -1.47423 -2.60589 0
M  V30 4438 H 433.607 -0.710301 -1.25263 0
M  V30 4439 H 435.56 0.37103 -4.19763 0
M  V30 4440 H 434.284 0.981259 -3.11511 0
M  V30 4441 H 432.943 -1.11778 -3.49144 0
M  V30 4442 H 432.591 0.881515 -4.95215 0
M  V30 4443 H 432.291 -0.632434 -5.84187 0
M  V30 4444 H 433.815 0.26346 -6.10031 0
M  V30 4445 H 435.229 -1.9002 -5.40893 0
M  V30 4446 H 433.626 -2.69012 -5.36426 0
M  V30 4447 H 434.696 -2.80495 -3.95538 0
M  V30 4448 N 436.039 1.36541 -0.78704 0
M  V30 4449 C 437.288 1.98552 -0.35494 0
M  V30 4450 C 437.601 1.63171 1.07864 0
M  V30 4451 O 438.807 2.18399 1.61289 0
M  V30 4452 C 437.263 3.55136 -0.583671 0
M  V30 4453 C 436.871 3.99444 -2.02851 0
M  V30 4454 C 438.615 4.2395 -0.215957 0
M  V30 4455 C 436.522 5.48796 -2.20403 0
M  V30 4456 H 435.452 0.742888 -0.128972 0
M  V30 4457 H 438.103 1.5587 -0.968337 0
M  V30 4458 H 436.485 3.95875 0.0994046 0
M  V30 4459 H 437.659 3.6991 -2.74779 0
M  V30 4460 H 435.974 3.43459 -2.35425 0
M  V30 4461 H 438.571 5.33709 -0.325405 0
M  V30 4462 H 438.914 4.07827 0.835646 0
M  V30 4463 H 439.447 3.88565 -0.852175 0
M  V30 4464 H 436.186 5.69864 -3.23937 0
M  V30 4465 H 435.706 5.79964 -1.52977 0
M  V30 4466 H 437.385 6.14986 -2.01002 0
M  V30 4467 N 437.518 0.538854 1.48102 0
M  V30 4468 C 438.758 0.0101209 2.04397 0
M  V30 4469 C 439.122 -1.30741 1.40609 0
M  V30 4470 O 440.323 -1.92272 1.87843 0
M  V30 4471 C 438.594 -0.100232 3.57259 0
M  V30 4472 S 440.153 -0.577746 4.3498 0
M  V30 4473 H 436.971 0.0163171 0.710813 0
M  V30 4474 H 439.573 0.721429 1.81702 0
M  V30 4475 H 438.277 0.863351 4.01216 0
M  V30 4476 H 437.808 -0.835651 3.84422 0
M  V30 4477 H 439.823 -1.84073 4.60794 0
M  V30 4478 N 438.996 -1.55193 0.274407 0
M  V30 4479 C 440.243 -1.99581 -0.342579 0
M  V30 4480 C 440.571 -1.1628 -1.55914 0
M  V30 4481 O 439.826 -0.22029 -1.94456 0
M  V30 4482 C 440.125 -3.49019 -0.769458 0
M  V30 4483 C 439.791 -4.49598 0.342389 0
M  V30 4484 C 438.453 -4.76821 0.647686 0
M  V30 4485 C 440.805 -5.0964 1.09163 0
M  V30 4486 C 438.133 -5.61354 1.70581 0
M  V30 4487 C 440.485 -5.95323 2.13948 0
M  V30 4488 C 439.149 -6.20867 2.45113 0
M  V30 4489 H 438.419 -0.730319 -0.125358 0
M  V30 4490 H 441.066 -1.87529 0.387971 0
M  V30 4491 H 439.371 -3.58544 -1.57967 0
M  V30 4492 H 441.068 -3.8077 -1.25757 0
M  V30 4493 H 437.658 -4.28496 0.094318 0
M  V30 4494 H 441.842 -4.88632 0.869024 0
M  V30 4495 H 437.098 -5.79392 1.9523 0
M  V30 4496 H 441.272 -6.40881 2.72478 0
M  V30 4497 H 438.899 -6.86162 3.27239 0
M  V30 4498 N 440.474 -0.00167713 -1.576 0
M  V30 4499 C 441.723 0.682021 -1.89819 0
M  V30 4500 C 442.036 1.74844 -0.876871 0
M  V30 4501 O 443.242 2.48688 -1.08934 0
M  V30 4502 C 441.698 1.26425 -3.36964 0
M  V30 4503 C 441.306 0.232568 -4.47396 0
M  V30 4504 C 443.05 1.92604 -3.78291 0
M  V30 4505 C 440.957 0.824882 -5.85619 0
M  V30 4506 H 439.887 0.258499 -0.708304 0
M  V30 4507 H 442.538 -0.0624957 -1.83394 0
M  V30 4508 H 440.92 2.05949 -3.38232 0
M  V30 4509 H 442.094 -0.5382 -4.57646 0
M  V30 4510 H 440.409 -0.32888 -4.15099 0
M  V30 4511 H 443.006 2.37827 -4.78897 0
M  V30 4512 H 443.349 2.75732 -3.11894 0
M  V30 4513 H 443.882 1.19812 -3.79328 0
M  V30 4514 H 440.621 0.0323542 -6.55492 0
M  V30 4515 H 440.141 1.56477 -5.79029 0
M  V30 4516 H 441.82 1.32301 -6.33329 0
M  V30 4517 N 441.952 1.55251 0.271103 0
M  V30 4518 C 442.915 1.87484 1.31842 0
M  V30 4519 C 443.915 0.749545 1.42262 0
M  V30 4520 O 445.105 1.01771 1.4138 0
M  V30 4521 C 442.237 2.0818 2.69951 0
M  V30 4522 H 443.43 2.81108 1.0449 0
M  V30 4523 H 440.983 1.47771 0.509258 0
M  V30 4524 H 441.718 1.16944 3.02481 0
M  V30 4525 H 441.503 2.90114 2.63774 0
M  V30 4526 H 442.993 2.34385 3.4562 0
M  V30 4527 N 443.43 -0.535701 1.48216 0
M  V30 4528 C 444.66 -1.3148 1.59363 0
M  V30 4529 C 445.068 -1.8753 0.250844 0
M  V30 4530 O 444.411 -1.66821 -0.769174 0
M  V30 4531 C 444.473 -2.50731 2.57632 0
M  V30 4532 C 444.137 -2.15811 4.02833 0
M  V30 4533 C 445.134 -1.71822 4.90686 0
M  V30 4534 C 442.819 -2.26509 4.48329 0
M  V30 4535 C 444.813 -1.3899 6.22062 0
M  V30 4536 C 442.5 -1.93289 5.79726 0
M  V30 4537 C 443.498 -1.49599 6.66415 0
M  V30 4538 O 443.186 -1.16812 7.95368 0
M  V30 4539 H 442.918 -0.406315 0.540263 0
M  V30 4540 H 445.472 -0.653569 1.94725 0
M  V30 4541 H 443.702 -3.19817 2.1738 0
M  V30 4542 H 445.391 -3.12797 2.58675 0
M  V30 4543 H 446.157 -1.63031 4.56778 0
M  V30 4544 H 442.036 -2.59471 3.81045 0
M  V30 4545 H 445.58 -1.04816 6.89681 0
M  V30 4546 H 441.477 -2.01718 6.13172 0
M  V30 4547 H 442.245 -1.30259 8.08069 0
M  V30 4548 N 444.908 -1.36708 -0.784132 0
M  V30 4549 C 446.155 -1.31231 -1.54222 0
M  V30 4550 C 446.483 0.106864 -1.94206 0
M  V30 4551 O 445.738 1.07734 -1.63376 0
M  V30 4552 C 446.037 -2.18571 -2.82774 0
M  V30 4553 C 445.703 -3.67039 -2.61903 0
M  V30 4554 C 444.365 -4.07503 -2.55919 0
M  V30 4555 C 446.717 -4.61149 -2.4288 0
M  V30 4556 C 444.045 -5.40211 -2.28886 0
M  V30 4557 C 446.397 -5.94081 -2.17373 0
M  V30 4558 C 445.061 -6.33664 -2.09825 0
M  V30 4559 H 444.331 -0.48021 -0.56434 0
M  V30 4560 H 446.978 -1.68807 -0.904233 0
M  V30 4561 H 445.283 -1.73949 -3.51068 0
M  V30 4562 H 446.98 -2.11655 -3.40592 0
M  V30 4563 H 443.57 -3.34941 -2.67418 0
M  V30 4564 H 447.754 -4.30756 -2.46501 0
M  V30 4565 H 443.01 -5.69855 -2.21529 0
M  V30 4566 H 447.184 -6.66566 -2.01649 0
M  V30 4567 H 444.811 -7.36423 -1.88641 0
M  V30 4568 N 446.386 1.0089 -1.21074 0
M  V30 4569 C 447.634 1.74262 -1.02358 0
M  V30 4570 C 447.955 1.89869 0.444393 0
M  V30 4571 O 447.225 1.44677 1.32081 0
M  V30 4572 H 445.805 0.645615 -0.375754 0
M  V30 4573 H 448.467 1.21596 -1.52317 0
M  V30 4574 H 447.563 2.74328 -1.4883 0
M  V30 4575 N 447.864 1.01787 1.20321 0
M  V30 4576 C 449.11 0.708985 1.90003 0
M  V30 4577 C 449.443 -0.759572 1.78729 0
M  V30 4578 O 448.718 -1.55198 1.17234 0
M  V30 4579 C 449.001 1.1469 3.41348 0
M  V30 4580 C 448.854 2.67586 3.61549 0
M  V30 4581 C 450.173 0.71915 4.34185 0
M  V30 4582 H 447.292 0.259034 0.689978 0
M  V30 4583 H 449.934 1.26584 1.41692 0
M  V30 4584 H 448.084 0.673128 3.82624 0
M  V30 4585 H 449.756 3.22826 3.29517 0
M  V30 4586 H 447.999 3.085 3.04976 0
M  V30 4587 H 448.67 2.93281 4.67643 0
M  V30 4588 H 451.146 1.12647 4.00562 0
M  V30 4589 H 450.022 1.05358 5.38694 0
M  V30 4590 H 450.283 -0.379111 4.40472 0
M  V30 4591 N 449.342 -1.36122 0.79427 0
M  V30 4592 C 450.567 -2.03891 0.379871 0
M  V30 4593 C 450.992 -1.59488 -0.997251 0
M  V30 4594 O 450.35 -0.765652 -1.64339 0
M  V30 4595 C 450.398 -3.57687 0.457442 0
M  V30 4596 O 449.502 -4.08931 -0.5338 0
M  V30 4597 H 448.843 -0.6443 0.160541 0
M  V30 4598 H 451.373 -1.73976 1.07673 0
M  V30 4599 H 451.383 -4.06721 0.322792 0
M  V30 4600 H 450.058 -3.89357 1.46199 0
M  V30 4601 H 448.635 -3.71154 -0.360409 0
M  V30 4602 N 450.82 -0.546701 -1.47814 0
M  V30 4603 C 451.783 0.196287 -2.28358 0
M  V30 4604 C 452.783 0.852437 -1.36346 0
M  V30 4605 O 453.973 0.709913 -1.59078 0
M  V30 4606 C 451.105 1.28579 -3.15722 0
M  V30 4607 H 452.298 -0.511086 -2.95513 0
M  V30 4608 H 449.851 -0.303248 -1.5333 0
M  V30 4609 H 450.586 2.0259 -2.53235 0
M  V30 4610 H 450.371 0.820229 -3.83425 0
M  V30 4611 H 451.861 1.80793 -3.76435 0
M  V30 4612 N 452.299 1.55045 -0.282633 0
M  V30 4613 C 453.262 2.21515 0.588539 0
M  V30 4614 C 454.262 1.19535 1.07554 0
M  V30 4615 O 455.452 1.44391 0.974514 0
M  V30 4616 C 452.584 2.88704 1.8128 0
M  V30 4617 H 453.777 2.99899 0.00806397 0
M  V30 4618 H 451.33 1.56265 -0.0333067 0
M  V30 4619 H 452.065 2.14352 2.43359 0
M  V30 4620 H 451.85 3.63443 1.47144 0
M  V30 4621 H 453.34 3.39465 2.43214 0
M  V30 4622 N 453.777 0.010035 1.57597 0
M  V30 4623 C 454.707 -0.976857 2.12084 0
M  V30 4624 C 455.688 -1.35191 1.03235 0
M  V30 4625 O 456.873 -1.43389 1.3097 0
M  V30 4626 C 454.003 -2.26548 2.63236 0
M  V30 4627 C 452.957 -2.03175 3.76701 0
M  V30 4628 C 452.283 -3.38138 4.14206 0
M  V30 4629 C 453.583 -1.38625 5.03568 0
M  V30 4630 H 455.277 -0.523145 2.94794 0
M  V30 4631 H 452.823 -0.250195 1.4181 0
M  V30 4632 H 454.776 -2.95952 2.99984 0
M  V30 4633 H 453.5 -2.74051 1.77661 0
M  V30 4634 H 452.159 -1.36195 3.40362 0
M  V30 4635 H 451.807 -3.83363 3.25641 0
M  V30 4636 H 451.507 -3.23312 4.90656 0
M  V30 4637 H 453.031 -4.08841 4.53521 0
M  V30 4638 H 454.445 -1.98 5.38023 0
M  V30 4639 H 452.842 -1.34256 5.84889 0
M  V30 4640 H 453.912 -0.356722 4.83586 0
M  V30 4641 N 455.255 -1.55392 -0.262866 0
M  V30 4642 C 456.483 -1.80513 -1.01108 0
M  V30 4643 C 456.898 -0.583533 -1.79556 0
M  V30 4644 O 456.255 0.447585 -1.76926 0
M  V30 4645 C 456.306 -3.03648 -1.96164 0
M  V30 4646 O 456.027 -4.2109 -1.20893 0
M  V30 4647 C 457.528 -3.41448 -2.82715 0
M  V30 4648 H 454.748 -0.601079 -0.298236 0
M  V30 4649 H 457.292 -2.02425 -0.290582 0
M  V30 4650 H 455.447 -2.83832 -2.63663 0
M  V30 4651 H 455.861 -4.90771 -1.85051 0
M  V30 4652 H 457.335 -4.30751 -3.45192 0
M  V30 4653 H 457.812 -2.61308 -3.53008 0
M  V30 4654 H 458.418 -3.63559 -2.20693 0
M  V30 4655 N 456.733 0.527833 -1.48498 0
M  V30 4656 C 457.663 1.64136 -1.66077 0
M  V30 4657 C 458.644 1.62286 -0.509625 0
M  V30 4658 O 459.829 1.79449 -0.742413 0
M  V30 4659 C 456.959 3.02717 -1.70234 0
M  V30 4660 C 455.913 3.19426 -2.8487 0
M  V30 4661 C 455.239 4.5909 -2.74118 0
M  V30 4662 C 456.539 3.01993 -4.26142 0
M  V30 4663 H 458.233 1.4968 -2.593 0
M  V30 4664 H 455.779 0.718654 -1.24785 0
M  V30 4665 H 457.732 3.80491 -1.8112 0
M  V30 4666 H 456.456 3.18201 -0.735911 0
M  V30 4667 H 455.115 2.4407 -2.73542 0
M  V30 4668 H 454.763 4.71413 -1.7544 0
M  V30 4669 H 454.463 4.71214 -3.51042 0
M  V30 4670 H 455.987 5.3896 -2.86974 0
M  V30 4671 H 457.401 3.69558 -4.38292 0
M  V30 4672 H 455.798 3.2561 -5.04082 0
M  V30 4673 H 456.868 1.98396 -4.42456 0
M  V30 4674 N 458.211 1.37122 0.776871 0
M  V30 4675 C 459.144 1.26835 1.89705 0
M  V30 4676 C 460.122 0.14992 1.61907 0
M  V30 4677 O 461.306 0.323242 1.85708 0
M  V30 4678 C 458.433 0.95986 3.24814 0
M  V30 4679 C 457.479 2.09447 3.7153 0
M  V30 4680 S 458.312 3.71368 3.85806 0
M  V30 4681 C 459.468 3.42659 5.23771 0
M  V30 4682 H 459.701 2.21647 1.98141 0
M  V30 4683 H 457.234 1.22685 0.937433 0
M  V30 4684 H 459.192 0.788696 4.02852 0
M  V30 4685 H 457.853 0.0293137 3.14086 0
M  V30 4686 H 457.046 1.8335 4.69467 0
M  V30 4687 H 456.648 2.2255 3.00578 0
M  V30 4688 H 458.94 2.9733 6.0877 0
M  V30 4689 H 459.883 4.39905 5.54878 0
M  V30 4690 H 460.291 2.77708 4.91466 0
M  V30 4691 N 459.689 -1.00246 1.21608 0
M  V30 4692 C 460.622 -2.08794 0.920892 0
M  V30 4693 C 461.6 -1.62059 -0.132552 0
M  V30 4694 O 462.784 -1.885 -0.0030366 0
M  V30 4695 C 459.911 -3.36525 0.383226 0
M  V30 4696 C 458.957 -4.02172 1.41987 0
M  V30 4697 S 459.79 -4.44256 2.98994 0
M  V30 4698 C 460.946 -5.7517 2.4684 0
M  V30 4699 H 461.179 -2.33511 1.8401 0
M  V30 4700 H 458.712 -1.13562 1.04609 0
M  V30 4701 H 460.67 -4.10423 0.0795871 0
M  V30 4702 H 459.331 -3.09854 -0.514711 0
M  V30 4703 H 458.524 -4.94114 0.993335 0
M  V30 4704 H 458.126 -3.34559 1.67171 0
M  V30 4705 H 460.418 -6.51042 1.87484 0
M  V30 4706 H 461.361 -6.22638 3.37235 0
M  V30 4707 H 461.769 -5.32112 1.88461 0
M  V30 4708 N 461.167 -1.02423 -1.1978 0
M  V30 4709 C 462.578 -0.748389 -1.71044 0
M  V30 4710 C 462.929 0.732398 -1.82017 0
M  V30 4711 O 462.054 1.57116 -1.48807 0
M  V30 4712 C 462.649 -1.35187 -3.1066 0
M  V30 4713 C 461.208 -1.12472 -3.59203 0
M  V30 4714 C 460.355 -1.45283 -2.36195 0
M  V30 4715 H 463.306 -1.19275 -1.04686 0
M  V30 4716 H 463.327 -0.746408 -3.73107 0
M  V30 4717 H 462.839 -2.4296 -3.02642 0
M  V30 4718 H 460.94 -0.0649983 -3.72543 0
M  V30 4719 H 461.053 -1.81016 -4.43588 0
M  V30 4720 H 459.417 -0.872034 -2.39307 0
M  V30 4721 H 460.2 -2.54129 -2.30811 0
M  V30 4722 N 462.645 1.35699 -0.801477 0
M  V30 4723 C 463.875 2.02862 -0.3912 0
M  V30 4724 C 464.283 1.60552 1.00099 0
M  V30 4725 O 463.626 0.796215 1.65548 0
M  V30 4726 C 463.688 3.57386 -0.389299 0
M  V30 4727 C 463.352 4.22943 -1.73113 0
M  V30 4728 C 464.349 4.44984 -2.68859 0
M  V30 4729 C 462.034 4.60167 -2.01373 0
M  V30 4730 C 464.028 5.03345 -3.91053 0
M  V30 4731 C 461.715 5.18243 -3.23832 0
M  V30 4732 C 462.713 5.39773 -4.1849 0
M  V30 4733 O 462.401 5.96626 -5.38788 0
M  V30 4734 H 462.133 0.657341 -0.157732 0
M  V30 4735 H 464.687 1.74407 -1.08496 0
M  V30 4736 H 462.917 3.85011 0.361031 0
M  V30 4737 H 464.606 4.059 -0.0020365 0
M  V30 4738 H 465.372 4.1661 -2.48316 0
M  V30 4739 H 461.251 4.42726 -1.28508 0
M  V30 4740 H 464.795 5.20065 -4.64949 0
M  V30 4741 H 460.692 5.46044 -3.44248 0
M  V30 4742 H 461.46 6.15082 -5.40015 0
M  V30 4743 N 464.123 0.554532 1.47522 0
M  V30 4744 C 465.37 0.029479 2.02479 0
M  V30 4745 C 465.698 -1.31929 1.42916 0
M  V30 4746 O 464.953 -1.87112 0.573385 0
M  V30 4747 C 465.252 -0.115927 3.57212 0
M  V30 4748 C 464.918 1.16161 4.3568 0
M  V30 4749 C 463.58 1.51168 4.56839 0
M  V30 4750 C 465.932 2.0083 4.80954 0
M  V30 4751 C 463.26 2.70696 5.2052 0
M  V30 4752 C 465.612 3.19559 5.45953 0
M  V30 4753 C 464.276 3.54882 5.65345 0
M  V30 4754 H 463.546 0.0107871 0.740921 0
M  V30 4755 H 466.193 0.725506 1.77225 0
M  V30 4756 H 464.498 -0.894902 3.81443 0
M  V30 4757 H 466.195 -0.53749 3.97381 0
M  V30 4758 H 462.785 0.879026 4.19489 0
M  V30 4759 H 466.969 1.75093 4.64388 0
M  V30 4760 H 462.225 2.98236 5.33728 0
M  V30 4761 H 466.399 3.85456 5.79997 0
M  V30 4762 H 464.026 4.47596 6.1446 0
M  V30 4763 N 465.601 -1.54893 0.290851 0
M  V30 4764 C 466.841 -2.01842 -0.322388 0
M  V30 4765 C 467.205 -1.17477 -1.51865 0
M  V30 4766 O 468.406 -1.54077 -2.20258 0
M  V30 4767 C 466.677 -3.50874 -0.679844 0
M  V30 4768 S 468.236 -4.19796 -1.27739 0
M  V30 4769 H 465.054 -0.704005 -0.0994866 0
M  V30 4770 H 467.656 -1.91015 0.416358 0
M  V30 4771 H 466.36 -4.09915 0.199435 0
M  V30 4772 H 465.891 -3.65717 -1.44964 0
M  V30 4773 H 467.906 -4.24729 -2.56554 0
M  V30 4774 N 467.08 -0.0183926 -1.57589 0
M  V30 4775 C 468.01 0.965596 -2.12599 0
M  V30 4776 C 468.991 1.34641 -1.0395 0
M  V30 4777 O 470.176 1.42693 -1.31729 0
M  V30 4778 C 467.306 2.25149 -2.64434 0
M  V30 4779 C 466.26 2.01175 -3.77773 0
M  V30 4780 C 465.586 3.35937 -4.15994 0
M  V30 4781 C 466.886 1.35953 -5.04296 0
M  V30 4782 H 468.58 0.507504 -2.95067 0
M  V30 4783 H 466.126 0.242671 -1.41941 0
M  V30 4784 H 468.079 2.94357 -3.01549 0
M  V30 4785 H 466.803 2.73105 -1.79112 0
M  V30 4786 H 465.462 1.34388 -3.4108 0
M  V30 4787 H 465.11 3.81631 -3.27669 0
M  V30 4788 H 464.81 3.20705 -4.92364 0
M  V30 4789 H 466.334 4.0643 -4.55683 0
M  V30 4790 H 467.748 1.95144 -5.39065 0
M  V30 4791 H 466.145 1.31152 -5.85593 0
M  V30 4792 H 467.215 0.331071 -4.83768 0
M  V30 4793 N 468.558 1.5553 0.254621 0
M  V30 4794 C 469.835 1.6774 1.00611 0
M  V30 4795 C 470.215 0.555993 2.03647 0
M  V30 4796 O 469.563 -0.441583 2.24193 0
M  V30 4797 C 469.773 3.07725 1.6464 0
M  V30 4798 C 471.121 3.66074 2.15116 0
M  V30 4799 O 472.145 3.10476 1.74595 0
M  V30 4800 O 471.004 4.63526 2.89493 0
M  V30 4801 H 468.098 0.681958 0.467828 0
M  V30 4802 H 470.644 1.67863 0.24902 0
M  V30 4803 H 469.416 3.80792 0.900734 0
M  V30 4804 H 469.039 3.1158 2.46989 0
M  V30 4805 N 470.036 -0.519951 1.48776 0
M  V30 4806 C 470.984 -1.64443 1.64503 0
M  V30 4807 C 471.978 -1.61501 0.511248 0
M  V30 4808 O 473.184 -1.66238 0.690294 0
M  V30 4809 H 469.559 -0.544776 0.518385 0
M  V30 4810 H 471.53 -1.48325 2.58925 0
M  V30 4811 C 470.279 -3.02673 1.71127 0
M  V30 4812 H 469.602 -3.05635 2.57735 0
M  V30 4813 H 471.042 -3.80941 1.86172 0
M  V30 4814 C 469.501 -3.33854 0.452032 0
M  V30 4815 O 470.031 -3.99385 -0.430678 0
M  V30 4816 N 468.237 -2.88825 0.32069 0
M  V30 4817 H 467.784 -2.35674 1.03998 0
M  V30 4818 H 467.742 -3.10056 -0.520814 0
M  V30 4819 N 471.514 -1.37532 -0.769588 0
M  V30 4820 C 472.462 -1.33561 -1.90432 0
M  V30 4821 C 473.456 -0.224027 -1.67912 0
M  V30 4822 O 474.662 -0.392174 -1.75676 0
M  V30 4823 H 471.037 -0.416279 -0.626271 0
M  V30 4824 H 473.008 -2.29348 -1.90899 0
M  V30 4825 C 471.757 -1.16162 -3.27722 0
M  V30 4826 H 471.08 -2.00951 -3.45628 0
M  V30 4827 H 472.52 -1.17434 -4.07413 0
M  V30 4828 C 470.979 0.132583 -3.36639 0
M  V30 4829 O 471.509 1.11539 -3.85904 0
M  V30 4830 N 469.715 0.184013 -2.90017 0
M  V30 4831 H 469.262 -0.616415 -2.50116 0
M  V30 4832 H 469.22 1.04956 -2.96364 0
M  V30 4833 N 472.992 0.995999 -1.22138 0
M  V30 4834 C 474.217 1.77601 -1.0711 0
M  V30 4835 C 474.642 1.84339 0.374264 0
M  V30 4836 O 474 1.29359 1.27028 0
M  V30 4837 C 474.048 3.18897 -1.68336 0
M  V30 4838 O 473.152 4.01663 -0.934928 0
M  V30 4839 H 472.493 0.547011 -0.376397 0
M  V30 4840 H 475.023 1.25137 -1.6187 0
M  V30 4841 H 475.033 3.69539 -1.72931 0
M  V30 4842 H 473.708 3.13308 -2.73516 0
M  V30 4843 H 472.285 3.60204 -0.964751 0
M  V30 4844 N 474.47 1.03057 1.19235 0
M  V30 4845 C 475.881 0.757449 1.70645 0
M  V30 4846 C 476.232 -0.722735 1.82403 0
M  V30 4847 O 475.357 -1.56325 1.49638 0
M  V30 4848 C 475.952 1.36833 3.09939 0
M  V30 4849 C 474.511 1.14375 3.58602 0
M  V30 4850 C 473.658 1.46533 2.35422 0
M  V30 4851 H 476.609 1.19828 1.04052 0
M  V30 4852 H 476.63 0.766184 3.72706 0
M  V30 4853 H 476.142 2.44562 3.01349 0
M  V30 4854 H 474.243 0.0847542 3.72504 0
M  V30 4855 H 474.356 1.83366 4.42622 0
M  V30 4856 H 472.72 0.884712 2.38841 0
M  V30 4857 H 473.503 2.55349 2.2946 0
M  V30 4858 N 475.948 -1.35272 0.808662 0
M  V30 4859 C 476.878 -2.32315 0.234981 0
M  V30 4860 C 477.859 -1.57572 -0.64071 0
M  V30 4861 O 479.044 -1.8563 -0.570551 0
M  V30 4862 C 476.174 -3.41801 -0.615601 0
M  V30 4863 C 475.128 -4.27694 0.161767 0
M  V30 4864 C 474.454 -5.28519 -0.810649 0
M  V30 4865 C 475.754 -5.04231 1.36193 0
M  V30 4866 H 477.448 -2.80543 1.04575 0
M  V30 4867 H 474.994 -1.3488 0.504315 0
M  V30 4868 H 476.947 -4.08693 -1.02702 0
M  V30 4869 H 475.671 -2.92186 -1.45928 0
M  V30 4870 H 474.33 -3.62384 0.554382 0
M  V30 4871 H 473.978 -4.75171 -1.64988 0
M  V30 4872 H 473.678 -5.8686 -0.294822 0
M  V30 4873 H 475.202 -5.98283 -1.22023 0
M  V30 4874 H 476.616 -5.64058 1.02528 0
M  V30 4875 H 475.013 -5.72077 1.81239 0
M  V30 4876 H 476.083 -4.34753 2.14751 0
M  V30 4877 N 477.426 -0.562348 -1.47226 0
M  V30 4878 C 478.837 -0.130325 -1.86245 0
M  V30 4879 C 479.188 1.30128 -1.46838 0
M  V30 4880 O 478.313 1.97974 -0.873805 0
M  V30 4881 C 478.908 -0.229738 -3.3802 0
M  V30 4882 C 477.467 0.14728 -3.76112 0
M  V30 4883 C 476.614 -0.574971 -2.71274 0
M  V30 4884 H 479.565 -0.771773 -1.3867 0
M  V30 4885 H 479.586 0.550316 -3.76499 0
M  V30 4886 H 479.098 -1.27178 -3.66671 0
M  V30 4887 H 477.199 1.19023 -3.53078 0
M  V30 4888 H 477.312 -0.214858 -4.78618 0
M  V30 4889 H 475.676 -0.0174756 -2.54694 0
M  V30 4890 H 476.459 -1.61827 -3.02766 0
M  V30 4891 N 478.904 1.54736 -0.299062 0
M  V30 4892 C 480.181 1.92187 0.363802 0
M  V30 4893 C 480.561 1.22607 1.71845 0
M  V30 4894 O 479.909 0.361141 2.25628 0
M  V30 4895 C 480.119 3.45678 0.480377 0
M  V30 4896 C 481.467 4.17885 0.752147 0
M  V30 4897 O 482.491 3.51702 0.564264 0
M  V30 4898 O 481.35 5.35048 1.11294 0
M  V30 4899 H 478.444 0.801681 0.203066 0
M  V30 4900 H 480.99 1.66115 -0.346978 0
M  V30 4901 H 479.762 3.88443 -0.471999 0
M  V30 4902 H 479.385 3.77779 1.2397 0
M  V30 4903 N 480.382 0.0267497 1.57577 0
M  V30 4904 C 481.345 -0.940916 2.08996 0
M  V30 4905 C 482.345 -1.25561 1.00455 0
M  V30 4906 O 483.535 -1.19634 1.26623 0
M  V30 4907 C 480.667 -2.25814 2.55384 0
M  V30 4908 H 481.86 -0.495628 2.95776 0
M  V30 4909 H 479.413 -0.221241 1.54726 0
M  V30 4910 H 480.148 -2.74976 1.71926 0
M  V30 4911 H 479.933 -2.04285 3.34679 0
M  V30 4912 H 481.423 -2.95178 2.95398 0
M  V30 4913 N 481.861 -1.55662 -0.24637 0
M  V30 4914 C 483.108 -1.77519 -0.974335 0
M  V30 4915 C 483.436 -0.591165 -1.85298 0
M  V30 4916 O 482.691 0.425497 -1.91018 0
M  V30 4917 C 482.99 -3.04885 -1.86494 0
M  V30 4918 C 482.656 -4.36209 -1.14161 0
M  V30 4919 C 481.318 -4.71896 -0.941701 0
M  V30 4920 C 483.67 -5.17391 -0.628957 0
M  V30 4921 C 480.998 -5.86299 -0.216852 0
M  V30 4922 C 483.35 -6.32546 0.0824273 0
M  V30 4923 C 482.014 -6.66853 0.293807 0
M  V30 4924 H 481.284 -0.649588 -0.356535 0
M  V30 4925 H 483.931 -1.89934 -0.244394 0
M  V30 4926 H 482.236 -2.87484 -2.66196 0
M  V30 4927 H 483.933 -3.18994 -2.42989 0
M  V30 4928 H 480.523 -4.08174 -1.30736 0
M  V30 4929 H 484.707 -4.90276 -0.770943 0
M  V30 4930 H 479.963 -6.11385 -0.0426124 0
M  V30 4931 H 484.137 -6.94693 0.487292 0
M  V30 4932 H 481.764 -7.55349 0.857428 0
M  V30 4933 N 483.339 0.512053 -1.4905 0
M  V30 4934 C 484.286 1.6148 -1.64902 0
M  V30 4935 C 485.256 1.58687 -0.490673 0
M  V30 4936 O 486.441 1.76842 -0.71636 0
M  V30 4937 C 483.581 2.99676 -1.71139 0
M  V30 4938 C 482.694 3.12568 -2.98203 0
M  V30 4939 C 481.829 4.4143 -2.95487 0
M  V30 4940 C 480.868 4.47916 -4.17179 0
M  V30 4941 N 480.005 5.68191 -4.12437 0
M  V30 4942 H 484.845 1.47271 -2.59066 0
M  V30 4943 H 482.382 0.716713 -1.28459 0
M  V30 4944 H 484.34 3.79761 -1.72736 0
M  V30 4945 H 482.97 3.12614 -0.804508 0
M  V30 4946 H 482.022 2.25618 -3.06269 0
M  V30 4947 H 483.334 3.1322 -3.88194 0
M  V30 4948 H 482.488 5.29825 -2.95585 0
M  V30 4949 H 481.227 4.43326 -2.03256 0
M  V30 4950 H 480.232 3.57925 -4.17337 0
M  V30 4951 H 481.457 4.47744 -5.1059 0
M  V30 4952 H 479.403 5.7095 -3.23036 0
M  V30 4953 H 479.32 5.70413 -4.96151 0
M  V30 4954 H 480.588 6.58823 -4.16621 0
M  V30 4955 N 484.817 1.37938 0.762283 0
M  V30 4956 C 485.767 1.30976 1.86626 0
M  V30 4957 C 486.751 0.195714 1.59705 0
M  V30 4958 O 487.943 0.430937 1.71674 0
M  V30 4959 C 485.072 1.12847 3.24223 0
M  V30 4960 C 484.158 2.28836 3.57064 0
M  V30 4961 N 484.549 3.54256 3.61022 0
M  V30 4962 C 482.847 2.21198 3.87282 0
M  V30 4963 C 483.548 4.30798 3.90881 0
M  V30 4964 N 482.524 3.60049 4.07266 0
M  V30 4965 H 486.326 2.25946 1.87951 0
M  V30 4966 H 483.84 1.31046 0.959206 0
M  V30 4967 H 485.837 1.05943 4.03214 0
M  V30 4968 H 484.497 0.188024 3.24155 0
M  V30 4969 H 485.508 3.8804 3.42995 0
M  V30 4970 H 482.185 1.35264 3.94981 0
M  V30 4971 H 483.575 5.39386 4.00639 0
M  V30 4972 N 486.295 -0.989507 1.22664 0
M  V30 4973 C 487.541 -1.7321 1.05481 0
M  V30 4974 C 487.874 -1.89852 -0.408635 0
M  V30 4975 O 487.149 -1.44416 -1.30285 0
M  V30 4976 C 487.432 -3.1357 1.77047 0
M  V30 4977 C 487.285 -3.04555 3.31008 0
M  V30 4978 C 488.604 -4.12812 1.5256 0
M  V30 4979 H 485.723 -0.628697 0.384589 0
M  V30 4980 H 488.365 -1.15258 1.51049 0
M  V30 4981 H 486.515 -3.63046 1.3831 0
M  V30 4982 H 488.187 -2.62674 3.7921 0
M  V30 4983 H 486.43 -2.41278 3.6051 0
M  V30 4984 H 487.101 -4.03894 3.76263 0
M  V30 4985 H 489.577 -3.72106 1.86215 0
M  V30 4986 H 488.453 -5.09132 2.05124 0
M  V30 4987 H 488.714 -4.39711 0.458936 0
M  V30 4988 N 487.773 -1.03688 -1.18687 0
M  V30 4989 C 489.021 -0.736572 -1.88199 0
M  V30 4990 C 489.342 0.737665 -1.80509 0
M  V30 4991 O 488.612 1.53204 -1.22088 0
M  V30 4992 H 487.192 -0.269466 -0.696704 0
M  V30 4993 H 489.854 -1.31282 -1.44052 0
M  V30 4994 H 488.95 -1.03802 -2.94332 0
M  V30 4995 N 489.251 1.34841 -0.815825 0
M  V30 4996 C 490.497 1.99219 -0.410288 0
M  V30 4997 C 490.852 1.63532 1.01366 0
M  V30 4998 O 490.145 0.893093 1.69512 0
M  V30 4999 C 490.339 3.53273 -0.541541 0
M  V30 5000 C 490.168 4.03927 -1.9767 0
M  V30 5001 C 488.938 4.32852 -2.60706 0
M  V30 5002 C 491.136 4.21808 -2.9425 0
M  V30 5003 N 489.118 4.69494 -3.95536 0
M  V30 5004 C 490.489 4.6155 -4.13971 0
M  V30 5005 C 492.544 4.04038 -2.9096 0
M  V30 5006 C 491.247 4.85381 -5.30847 0
M  V30 5007 C 493.273 4.29031 -4.07046 0
M  V30 5008 C 492.635 4.69054 -5.25517 0
M  V30 5009 H 488.734 0.756494 -0.198094 0
M  V30 5010 H 491.318 1.63379 -1.05902 0
M  V30 5011 H 489.489 3.88323 0.0772544 0
M  V30 5012 H 491.221 4.04551 -0.109694 0
M  V30 5013 H 487.976 4.23503 -2.11995 0
M  V30 5014 H 488.4 4.92061 -4.64979 0
M  V30 5015 H 493.042 3.7223 -2.00512 0
M  V30 5016 H 490.76 5.16059 -6.21859 0
M  V30 5017 H 494.346 4.16826 -4.05891 0
M  V30 5018 H 493.226 4.88014 -6.1385 0
M  V30 5019 N 490.729 0.570148 1.46925 0
M  V30 5020 C 491.639 -0.173061 2.33961 0
M  V30 5021 C 492.655 -0.898825 1.48987 0
M  V30 5022 O 493.831 -0.864825 1.81887 0
M  V30 5023 C 490.896 -1.18177 3.25937 0
M  V30 5024 C 489.957 -0.462041 4.26806 0
M  V30 5025 C 489.19 -1.4227 5.14388 0
M  V30 5026 O 489.413 -2.65842 5.04662 0
M  V30 5027 O 488.347 -0.940127 5.94513 0
M  V30 5028 H 492.173 0.541216 2.98839 0
M  V30 5029 H 489.758 0.330647 1.45695 0
M  V30 5030 H 491.64 -1.76372 3.82715 0
M  V30 5031 H 490.315 -1.87774 2.63671 0
M  V30 5032 H 489.222 0.161429 3.73752 0
M  V30 5033 H 490.555 0.192719 4.91823 0
M  V30 5034 N 492.207 -1.54576 0.307264 0
M  V30 5035 C 493.455 -1.99867 -0.299574 0
M  V30 5036 C 493.776 -1.19714 -1.53927 0
M  V30 5037 O 493.046 -0.29472 -1.9367 0
M  V30 5038 H 491.626 -0.738299 -0.113683 0
M  V30 5039 H 494.288 -1.9032 0.420042 0
M  V30 5040 H 493.384 -3.06901 -0.567283 0
M  V30 5041 N 493.685 -0.035106 -1.57561 0
M  V30 5042 C 494.648 0.929819 -2.09492 0
M  V30 5043 C 495.648 1.25026 -1.01119 0
M  V30 5044 O 496.838 1.18961 -1.27255 0
M  V30 5045 C 493.97 2.24457 -2.56577 0
M  V30 5046 H 495.163 0.479935 -2.96035 0
M  V30 5047 H 492.716 0.213033 -1.54841 0
M  V30 5048 H 493.451 2.74061 -1.73382 0
M  V30 5049 H 493.236 2.02508 -3.35757 0
M  V30 5050 H 494.726 2.93607 -2.96959 0
M  V30 5051 N 495.163 1.55791 0.238111 0
M  V30 5052 C 496.11 1.9105 1.29493 0
M  V30 5053 C 497.08 0.765733 1.47397 0
M  V30 5054 O 498.265 1.02017 1.61236 0
M  V30 5055 C 495.405 2.21826 2.64362 0
M  V30 5056 C 494.518 3.49153 2.54394 0
M  V30 5057 C 493.653 3.69455 3.81676 0
M  V30 5058 C 492.692 4.90353 3.66361 0
M  V30 5059 N 491.829 5.07131 4.85554 0
M  V30 5060 H 496.669 2.81172 0.987233 0
M  V30 5061 H 494.206 1.39179 0.476203 0
M  V30 5062 H 496.164 2.37675 3.4288 0
M  V30 5063 H 494.794 1.34897 2.93262 0
M  V30 5064 H 493.846 3.41587 1.67399 0
M  V30 5065 H 495.158 4.37818 2.38991 0
M  V30 5066 H 494.312 3.85311 4.68636 0
M  V30 5067 H 493.051 2.7904 3.99985 0
M  V30 5068 H 492.056 4.74464 2.77784 0
M  V30 5069 H 493.281 5.82237 3.49538 0
M  V30 5070 H 491.227 4.19654 5.04209 0
M  V30 5071 H 491.144 5.89899 4.72816 0
M  V30 5072 H 492.412 5.27407 5.73988 0
M  V30 5073 N 496.642 -0.504142 1.49319 0
M  V30 5074 C 497.872 -1.28071 1.62116 0
M  V30 5075 C 498.28 -1.86955 0.290566 0
M  V30 5076 O 497.623 -1.68415 -0.733616 0
M  V30 5077 C 497.685 -2.4521 2.62893 0
M  V30 5078 C 497.349 -2.07218 4.0732 0
M  V30 5079 C 498.346 -1.61375 4.94221 0
M  V30 5080 C 496.031 -2.16949 4.53033 0
M  V30 5081 C 498.025 -1.25763 6.2487 0
M  V30 5082 C 495.712 -1.80949 5.83696 0
M  V30 5083 C 496.71 -1.3543 6.69438 0
M  V30 5084 O 496.398 -0.99915 7.97667 0
M  V30 5085 H 496.13 -0.394763 0.54876 0
M  V30 5086 H 498.684 -0.612118 1.96067 0
M  V30 5087 H 496.914 -3.15134 2.24115 0
M  V30 5088 H 498.603 -3.0724 2.65252 0
M  V30 5089 H 499.369 -1.53306 4.60133 0
M  V30 5090 H 495.248 -2.5133 3.86463 0
M  V30 5091 H 498.792 -0.901631 6.91749 0
M  V30 5092 H 494.689 -1.88667 6.17313 0
M  V30 5093 H 495.457 -1.13089 8.1065 0
M  V30 5094 N 498.12 -1.38341 -0.754957 0
M  V30 5095 C 499.083 -1.35262 -1.85032 0
M  V30 5096 C 500.083 -0.253393 -1.58791 0
M  V30 5097 O 501.273 -0.510205 -1.66561 0
M  V30 5098 C 498.405 -1.10544 -3.22479 0
M  V30 5099 H 499.598 -2.32712 -1.8917 0
M  V30 5100 H 497.151 -1.23614 -0.956515 0
M  V30 5101 H 497.886 -0.136952 -3.24011 0
M  V30 5102 H 497.671 -1.90127 -3.4292 0
M  V30 5103 H 499.161 -1.11082 -4.02555 0
M  V30 5104 N 499.598 0.982988 -1.23187 0
M  V30 5105 C 500.844 1.72648 -1.06398 0
M  V30 5106 C 501.177 1.90066 0.398561 0
M  V30 5107 O 500.452 1.45105 1.29518 0
M  V30 5108 C 500.735 3.12627 -1.78707 0
M  V30 5109 C 500.588 3.02795 -3.32618 0
M  V30 5110 C 501.907 4.11997 -1.54747 0
M  V30 5111 H 499.026 0.626649 -0.387918 0
M  V30 5112 H 501.668 1.14455 -1.51658 0
M  V30 5113 H 499.818 3.62308 -1.40234 0
M  V30 5114 H 501.49 2.60659 -3.80598 0
M  V30 5115 H 499.733 2.39362 -3.61785 0
M  V30 5116 H 500.404 4.01893 -3.78399 0
M  V30 5117 H 502.88 3.71114 -1.88186 0
M  V30 5118 H 501.756 5.08037 -2.07821 0
M  V30 5119 H 502.017 4.39462 -0.482249 0
M  V30 5120 N 501.076 1.04316 1.18135 0
M  V30 5121 C 502.039 0.640794 2.2006 0
M  V30 5122 C 503.039 -0.303124 1.57917 0
M  V30 5123 O 504.229 -0.0881855 1.73977 0
M  V30 5124 C 501.361 -0.060148 3.40847 0
M  V30 5125 H 502.554 1.54281 2.57172 0
M  V30 5126 H 500.107 0.836004 1.32063 0
M  V30 5127 H 500.842 -0.975845 3.0927 0
M  V30 5128 H 500.627 0.618319 3.87194 0
M  V30 5129 H 502.117 -0.328082 4.16309 0
M  V30 5130 N 502.554 -1.34406 0.822964 0
M  V30 5131 C 503.8 -1.98578 0.411666 0
M  V30 5132 C 504.133 -1.65093 -1.02264 0
M  V30 5133 O 503.408 -0.92258 -1.71227 0
M  V30 5134 C 503.691 -3.54823 0.614235 0
M  V30 5135 C 503.544 -3.9805 2.09466 0
M  V30 5136 C 504.863 -4.40071 0.050221 0
M  V30 5137 H 501.982 -0.721355 0.151047 0
M  V30 5138 H 504.624 -1.59301 1.03554 0
M  V30 5139 H 502.774 -3.88411 0.0831774 0
M  V30 5140 H 504.446 -3.74795 2.68936 0
M  V30 5141 H 502.689 -3.4836 2.5851 0
M  V30 5142 H 503.36 -5.06819 2.18721 0
M  V30 5143 H 505.836 -4.13037 0.503953 0
M  V30 5144 H 504.712 -5.48452 0.221759 0
M  V30 5145 H 504.973 -4.29576 -1.04482 0
M  V30 5146 N 504.032 -0.577932 -1.46621 0
M  V30 5147 C 505.28 -0.061566 -2.02006 0
M  V30 5148 C 505.601 1.30117 -1.4524 0
M  V30 5149 O 504.871 1.85313 -0.63529 0
M  V30 5150 H 503.451 -0.0197692 -0.746738 0
M  V30 5151 H 506.113 -0.752631 -1.79782 0
M  V30 5152 H 505.209 0.0110238 -3.12098 0
M  V30 5153 N 505.51 1.54411 -0.315457 0
M  V30 5154 C 506.735 2.05299 0.294496 0
M  V30 5155 C 507.16 1.19052 1.4563 0
M  V30 5156 O 506.518 0.197804 1.80218 0
M  V30 5157 C 506.566 3.5345 0.714549 0
M  V30 5158 O 505.67 3.70175 1.81781 0
M  V30 5159 H 505.011 0.661743 0.0547019 0
M  V30 5160 H 507.541 1.99327 -0.461508 0
M  V30 5161 H 507.551 3.9557 0.999426 0
M  V30 5162 H 506.226 4.1568 -0.135244 0
M  V30 5163 H 504.803 3.3996 1.53236 0
M  V30 5164 N 506.988 0.0434614 1.5754 0
M  V30 5165 C 507.918 -0.931651 2.14109 0
M  V30 5166 C 508.899 -1.32971 1.06079 0
M  V30 5167 O 510.084 -1.40579 1.33982 0
M  V30 5168 C 507.214 -2.20914 2.67982 0
M  V30 5169 C 506.168 -1.95139 3.80926 0
M  V30 5170 C 505.494 -3.29276 4.21285 0
M  V30 5171 C 506.794 -1.27913 5.06395 0
M  V30 5172 H 508.488 -0.460497 2.95837 0
M  V30 5173 H 506.034 -0.220058 1.42309 0
M  V30 5174 H 507.987 -2.89522 3.06194 0
M  V30 5175 H 506.711 -2.70221 1.83434 0
M  V30 5176 H 505.37 -1.28945 3.43175 0
M  V30 5177 H 505.018 -3.76369 3.33699 0
M  V30 5178 H 504.718 -3.12831 4.97404 0
M  V30 5179 H 506.242 -3.99129 4.62091 0
M  V30 5180 H 507.656 -1.86544 5.42102 0
M  V30 5181 H 506.053 -1.2182 5.87605 0
M  V30 5182 H 507.123 -0.254066 4.84234 0
M  V30 5183 N 508.466 -1.55915 -0.229846 0
M  V30 5184 C 509.706 -1.80314 -0.962614 0
M  V30 5185 C 510.07 -0.61568 -1.81861 0
M  V30 5186 O 511.271 -0.738795 -2.58448 0
M  V30 5187 C 509.542 -3.0956 -1.78627 0
M  V30 5188 S 511.101 -3.55243 -2.57581 0
M  V30 5189 H 507.919 -0.633142 -0.323499 0
M  V30 5190 H 510.521 -1.94155 -0.228919 0
M  V30 5191 H 509.225 -3.94033 -1.14742 0
M  V30 5192 H 508.756 -2.98503 -2.56241 0
M  V30 5193 H 510.771 -3.17924 -3.80971 0
M  V30 5194 N 509.944 0.496216 -1.49584 0
M  V30 5195 C 510.907 1.57952 -1.66084 0
M  V30 5196 C 511.907 1.51729 -0.53244 0
M  V30 5197 O 513.097 1.54796 -0.79899 0
M  V30 5198 C 510.229 2.97604 -1.66268 0
M  V30 5199 H 511.422 1.44649 -2.6271 0
M  V30 5200 H 508.975 0.7208 -1.38687 0
M  V30 5201 H 509.71 3.16378 -0.712432 0
M  V30 5202 H 509.495 3.03528 -2.4822 0
M  V30 5203 H 510.985 3.76301 -1.81073 0
M  V30 5204 N 511.423 1.38739 0.74761 0
M  V30 5205 C 512.353 1.39173 1.87492 0
M  V30 5206 C 513.334 0.256794 1.6815 0
M  V30 5207 O 514.519 0.460762 1.88655 0
M  V30 5208 C 511.649 1.22197 3.25093 0
M  V30 5209 C 510.603 2.32957 3.59047 0
M  V30 5210 C 509.929 2.01082 4.95449 0
M  V30 5211 C 511.229 3.75237 3.6331 0
M  V30 5212 H 512.923 2.3351 1.87386 0
M  V30 5213 H 510.469 1.12399 0.900134 0
M  V30 5214 H 512.422 1.21124 4.03617 0
M  V30 5215 H 511.146 0.243241 3.25693 0
M  V30 5216 H 509.805 2.33226 2.82845 0
M  V30 5217 H 509.453 1.01678 4.92616 0
M  V30 5218 H 509.153 2.75267 5.19136 0
M  V30 5219 H 510.677 2.01638 5.76346 0
M  V30 5220 H 512.091 3.76966 4.31937 0
M  V30 5221 H 510.488 4.48677 3.98509 0
M  V30 5222 H 511.558 4.07122 2.634 0
M  V30 5223 N 512.901 -0.976442 1.23707 0
M  V30 5224 C 514.126 -1.75875 1.09922 0
M  V30 5225 C 514.551 -1.84911 -0.34489 0
M  V30 5226 O 513.909 -1.31363 -1.24954 0
M  V30 5227 C 513.957 -3.16179 1.73388 0
M  V30 5228 O 513.061 -4.00124 0.99871 0
M  V30 5229 H 512.402 -0.540954 0.385052 0
M  V30 5230 H 514.932 -1.22546 1.6384 0
M  V30 5231 H 514.942 -3.66741 1.78788 0
M  V30 5232 H 513.617 -3.08917 2.78466 0
M  V30 5233 H 512.194 -3.58624 1.02193 0
M  V30 5234 N 514.379 -1.04941 -1.1758 0
M  V30 5235 C 515.342 -0.652456 -2.19717 0
M  V30 5236 C 516.342 0.294745 -1.58076 0
M  V30 5237 O 517.532 0.0789579 -1.74021 0
M  V30 5238 C 514.664 0.0420712 -3.40874 0
M  V30 5239 H 515.857 -1.55642 -2.5635 0
M  V30 5240 H 513.41 -0.842995 -1.31618 0
M  V30 5241 H 514.145 0.95943 -3.09783 0
M  V30 5242 H 513.93 -0.638844 -3.86861 0
M  V30 5243 H 515.42 0.306 -4.16477 0
M  V30 5244 N 515.857 1.33968 -0.830081 0
M  V30 5245 C 517.082 2.02813 -0.433796 0
M  V30 5246 C 517.507 1.62076 0.954614 0
M  V30 5247 O 516.865 0.808955 1.62252 0
M  V30 5248 C 516.913 3.56348 -0.552115 0
M  V30 5249 O 516.017 4.10202 0.425191 0
M  V30 5250 H 515.358 0.639817 -0.177567 0
M  V30 5251 H 517.888 1.7106 -1.12248 0
M  V30 5252 H 517.898 4.05722 -0.430513 0
M  V30 5253 H 516.573 3.85344 -1.56471 0
M  V30 5254 H 515.15 3.71979 0.261878 0
M  V30 5255 N 517.335 0.585699 1.46312 0
M  V30 5256 C 518.265 -0.133556 2.33118 0
M  V30 5257 C 519.246 -0.880707 1.45525 0
M  V30 5258 O 520.431 -0.855579 1.74337 0
M  V30 5259 C 517.561 -1.14585 3.27853 0
M  V30 5260 C 516.515 -0.513341 4.2491 0
M  V30 5261 C 515.841 -1.63231 5.09175 0
M  V30 5262 C 517.141 0.551413 5.19381 0
M  V30 5263 H 518.835 0.59121 2.93505 0
M  V30 5264 H 516.381 0.285761 1.41136 0
M  V30 5265 H 518.334 -1.65741 3.87438 0
M  V30 5266 H 517.058 -1.90093 2.65579 0
M  V30 5267 H 515.717 -0.0228349 3.66593 0
M  V30 5268 H 515.365 -2.37713 4.43285 0
M  V30 5269 H 515.065 -1.21473 5.74907 0
M  V30 5270 H 516.589 -2.14658 5.71624 0
M  V30 5271 H 518.003 0.124804 5.73164 0
M  V30 5272 H 516.4 0.889486 5.93471 0
M  V30 5273 H 517.47 1.43655 4.63132 0
M  V30 5274 N 518.813 -1.54241 0.323641 0
M  V30 5275 C 519.743 -2.27289 -0.534993 0
M  V30 5276 C 520.724 -1.28087 -1.11927 0
M  V30 5277 O 521.909 -1.56899 -1.14439 0
M  V30 5278 C 519.039 -3.03075 -1.69596 0
M  V30 5279 C 517.993 -4.09614 -1.24098 0
M  V30 5280 C 517.319 -4.73242 -2.4889 0
M  V30 5281 C 518.619 -5.21087 -0.355789 0
M  V30 5282 H 520.313 -2.99308 0.0743257 0
M  V30 5283 H 517.859 -1.43952 0.0371874 0
M  V30 5284 H 519.812 -3.52907 -2.30293 0
M  V30 5285 H 518.536 -2.28673 -2.33187 0
M  V30 5286 H 517.195 -3.60666 -0.656945 0
M  V30 5287 H 516.843 -3.95455 -3.10845 0
M  V30 5288 H 516.543 -5.45209 -2.19138 0
M  V30 5289 H 518.067 -5.25848 -3.10348 0
M  V30 5290 H 519.481 -5.66675 -0.869042 0
M  V30 5291 H 517.878 -5.9991 -0.151045 0
M  V30 5292 H 518.948 -4.81005 0.613339 0
M  V30 5293 N 520.291 -0.0518155 -1.57515 0
M  V30 5294 C 521.539 0.620595 -1.92336 0
M  V30 5295 C 521.86 1.71345 -0.930907 0
M  V30 5296 O 521.13 1.95885 0.0241341 0
M  V30 5297 H 519.71 0.232226 -0.709986 0
M  V30 5298 H 522.372 -0.104969 -1.94617 0
M  V30 5299 H 521.468 1.05879 -2.93592 0
M  V30 5300 N 521.769 1.56035 0.221574 0
M  V30 5301 C 522.994 1.83476 0.967026 0
M  V30 5302 C 523.419 0.632139 1.7716 0
M  V30 5303 O 522.777 -0.419082 1.7639 0
M  V30 5304 C 522.825 3.08907 1.86034 0
M  V30 5305 O 521.929 2.876 2.95567 0
M  V30 5306 H 521.27 0.604913 0.273817 0
M  V30 5307 H 523.8 2.03247 0.234893 0
M  V30 5308 H 523.81 3.3901 2.27016 0
M  V30 5309 H 522.485 3.96068 1.26898 0
M  V30 5310 H 521.062 2.6873 2.58532 0
M  V30 5311 N 523.247 -0.488276 1.49845 0
M  V30 5312 C 524.18 -1.60651 1.62069 0
M  V30 5313 C 525.158 -1.5568 0.469308 0
M  V30 5314 O 526.342 -1.75553 0.686551 0
M  V30 5315 C 523.469 -2.99197 1.58741 0
M  V30 5316 C 522.515 -3.22385 2.79232 0
M  V30 5317 S 523.348 -3.04133 4.40753 0
M  V30 5318 C 524.504 -4.45052 4.4009 0
M  V30 5319 H 524.737 -1.50039 2.56662 0
M  V30 5320 H 522.27 -0.674371 1.38894 0
M  V30 5321 H 524.228 -3.79081 1.57506 0
M  V30 5322 H 522.889 -3.07213 0.654136 0
M  V30 5323 H 522.082 -4.23557 2.73159 0
M  V30 5324 H 521.684 -2.50245 2.77945 0
M  V30 5325 H 523.976 -5.37375 4.12594 0
M  V30 5326 H 524.919 -4.56172 5.41583 0
M  V30 5327 H 525.327 -4.26327 3.70008 0
M  V30 5328 N 524.725 -1.39134 -0.740242 0
M  V30 5329 C 525.972 -1.36071 -1.49969 0
M  V30 5330 C 526.3 0.0450245 -1.94448 0
M  V30 5331 O 525.555 1.02482 -1.66721 0
M  V30 5332 C 525.854 -2.27457 -2.75678 0
M  V30 5333 C 525.52 -3.75185 -2.50094 0
M  V30 5334 C 524.182 -4.15439 -2.42825 0
M  V30 5335 C 526.534 -4.68643 -2.28086 0
M  V30 5336 C 523.862 -5.4722 -2.11584 0
M  V30 5337 C 526.214 -6.00695 -1.98363 0
M  V30 5338 C 524.878 -6.40018 -1.8956 0
M  V30 5339 H 524.148 -0.497921 -0.548777 0
M  V30 5340 H 526.795 -1.71599 -0.85007 0
M  V30 5341 H 525.1 -1.8503 -3.45356 0
M  V30 5342 H 526.797 -2.22384 -3.33686 0
M  V30 5343 H 523.387 -3.43279 -2.56627 0
M  V30 5344 H 527.571 -4.3838 -2.32672 0
M  V30 5345 H 522.827 -5.76615 -2.03287 0
M  V30 5346 H 527.001 -6.72644 -1.80341 0
M  V30 5347 H 524.628 -7.42051 -1.65117 0
M  V30 5348 N 526.204 0.969867 -1.24223 0
M  V30 5349 C 527.615 1.52717 -1.07399 0
M  V30 5350 C 527.966 1.92956 0.355298 0
M  V30 5351 O 527.091 1.77112 1.2434 0
M  V30 5352 C 527.686 2.77521 -1.94339 0
M  V30 5353 C 526.245 3.29615 -1.81744 0
M  V30 5354 C 525.392 2.02537 -1.89405 0
M  V30 5355 H 528.343 0.788399 -1.37732 0
M  V30 5356 H 528.364 3.50773 -1.47439 0
M  V30 5357 H 527.876 2.48203 -2.98357 0
M  V30 5358 H 525.977 3.63789 -0.805505 0
M  V30 5359 H 526.09 3.98661 -2.65718 0
M  V30 5360 H 524.454 2.17151 -1.33108 0
M  V30 5361 H 525.237 1.75587 -2.94999 0
M  V30 5362 N 527.682 1.05563 1.17022 0
M  V30 5363 C 528.615 0.604197 2.20056 0
M  V30 5364 C 529.593 -0.369169 1.58354 0
M  V30 5365 O 530.777 -0.279898 1.8641 0
M  V30 5366 C 527.904 -0.115265 3.38504 0
M  V30 5367 C 526.95 0.813698 4.18666 0
M  V30 5368 S 527.783 2.30492 4.83357 0
M  V30 5369 C 528.939 1.59674 6.0519 0
M  V30 5370 H 529.172 1.47713 2.58008 0
M  V30 5371 H 526.705 0.867932 1.27696 0
M  V30 5372 H 528.663 -0.524162 4.0714 0
M  V30 5373 H 527.324 -0.964284 2.98932 0
M  V30 5374 H 526.517 0.256736 5.03346 0
M  V30 5375 H 526.119 1.16213 3.55486 0
M  V30 5376 H 528.411 0.898164 6.7152 0
M  V30 5377 H 529.354 2.42115 6.65422 0
M  V30 5378 H 529.762 1.08252 5.54023 0
M  V30 5379 N 529.16 -1.33526 0.837174 0
M  V30 5380 C 530.571 -1.80182 0.489017 0
M  V30 5381 C 530.922 -1.69285 -0.991826 0
M  V30 5382 O 530.047 -1.24113 -1.77271 0
M  V30 5383 C 530.642 -3.27149 0.880866 0
M  V30 5384 C 529.201 -3.71828 0.584872 0
M  V30 5385 C 528.348 -2.54974 1.09011 0
M  V30 5386 H 531.299 -1.21071 1.02603 0
M  V30 5387 H 531.32 -3.80024 0.190239 0
M  V30 5388 H 530.832 -3.35048 1.95869 0
M  V30 5389 H 528.933 -3.69457 -0.48295 0
M  V30 5390 H 529.046 -4.65366 1.13892 0
M  V30 5391 H 527.41 -2.4952 0.511047 0
M  V30 5392 H 528.193 -2.65637 2.17467 0
M  V30 5393 N 530.638 -0.59345 -1.46 0
M  V30 5394 C 532.054 -0.255965 -1.57534 0
M  V30 5395 C 532.254 1.24167 -1.58697 0
M  V30 5396 O 531.31 2.02398 -1.50968 0
M  V30 5397 C 532.623 -0.91466 -2.86451 0
M  V30 5398 C 534.171 -0.889253 -3.00102 0
M  V30 5399 C 534.646 -1.52769 -4.3177 0
M  V30 5400 N 536.137 -1.49253 -4.38495 0
M  V30 5401 C 536.872 -1.9558 -5.39014 0
M  V30 5402 N 536.368 -2.49929 -6.46148 0
M  V30 5403 N 538.161 -1.86432 -5.30282 0
M  V30 5404 H 530.312 -1.56604 -1.43489 0
M  V30 5405 H 532.575 -0.655207 -0.685133 0
M  V30 5406 H 532.281 -1.96861 -2.91442 0
M  V30 5407 H 532.155 -0.429356 -3.74748 0
M  V30 5408 H 534.542 0.156111 -2.94687 0
M  V30 5409 H 534.623 -1.41268 -2.13253 0
M  V30 5410 H 534.267 -2.57231 -4.37944 0
M  V30 5411 H 534.197 -0.979398 -5.17412 0
M  V30 5412 H 536.688 -1.09536 -3.61677 0
M  V30 5413 H 537.001 -2.83109 -7.19075 0
M  V30 5414 H 535.346 -2.53961 -6.46938 0
M  V30 5415 H 538.537 -1.43722 -4.4549 0
M  V30 5416 H 538.71 -2.22852 -6.08474 0
M  V30 5417 N 532.116 1.54067 -0.331816 0
M  V30 5418 C 533.362 2.01012 0.268667 0
M  V30 5419 C 533.695 1.2195 1.51136 0
M  V30 5420 O 532.97 0.303972 1.9211 0
M  V30 5421 C 533.253 3.55158 0.59456 0
M  V30 5422 C 533.106 4.4494 -0.659409 0
M  V30 5423 C 534.425 4.16939 1.4089 0
M  V30 5424 H 531.544 0.730698 0.0961756 0
M  V30 5425 H 534.186 1.84593 -0.450031 0
M  V30 5426 H 532.336 3.6928 1.20685 0
M  V30 5427 H 534.008 4.42675 -1.29756 0
M  V30 5428 H 532.251 4.1428 -1.28665 0
M  V30 5429 H 532.922 5.50643 -0.386804 0
M  V30 5430 H 535.398 4.06443 0.891272 0
M  V30 5431 H 534.274 5.24889 1.60569 0
M  V30 5432 H 534.535 3.70798 2.40752 0
M  V30 5433 N 533.594 0.0601682 1.57485 0
M  V30 5434 C 534.843 -0.611101 1.9222 0
M  V30 5435 C 535.156 -1.71469 0.941159 0
M  V30 5436 O 536.362 -2.44473 1.18089 0
M  V30 5437 C 534.818 -1.13832 3.41424 0
M  V30 5438 C 534.426 -0.0663596 4.47951 0
M  V30 5439 C 536.17 -1.78432 3.85178 0
M  V30 5440 C 534.077 -0.606965 5.88277 0
M  V30 5441 H 533.007 -0.232033 0.71741 0
M  V30 5442 H 535.658 0.130518 1.83035 0
M  V30 5443 H 534.04 -1.93254 3.45643 0
M  V30 5444 H 535.214 0.707682 4.55333 0
M  V30 5445 H 533.529 0.482715 4.13593 0
M  V30 5446 H 536.126 -2.1989 4.87394 0
M  V30 5447 H 536.469 -2.63966 3.21913 0
M  V30 5448 H 537.002 -1.05651 3.83514 0
M  V30 5449 H 533.741 0.21095 6.5516 0
M  V30 5450 H 533.261 -1.34879 5.84438 0
M  V30 5451 H 534.94 -1.08704 6.37803 0
M  V30 5452 N 535.072 -1.5615 -0.213296 0
M  V30 5453 C 536.302 -1.83372 -0.951757 0
M  V30 5454 C 536.71 -0.638158 -1.78113 0
M  V30 5455 O 536.053 0.402609 -1.79234 0
M  V30 5456 C 536.115 -3.04444 -1.91192 0
M  V30 5457 C 535.779 -4.39107 -1.26627 0
M  V30 5458 C 536.776 -5.15794 -0.652087 0
M  V30 5459 C 534.461 -4.85834 -1.27556 0
M  V30 5460 C 536.455 -6.37376 -0.055814 0
M  V30 5461 C 534.142 -6.07356 -0.675451 0
M  V30 5462 C 535.14 -6.82967 -0.0666367 0
M  V30 5463 O 534.828 -8.0219 0.524119 0
M  V30 5464 H 534.56 -0.613398 -0.284111 0
M  V30 5465 H 537.114 -2.04096 -0.231112 0
M  V30 5466 H 535.344 -2.79559 -2.67178 0
M  V30 5467 H 537.033 -3.18466 -2.51662 0
M  V30 5468 H 537.799 -4.80796 -0.637172 0
M  V30 5469 H 533.678 -4.26949 -1.73883 0
M  V30 5470 H 537.222 -6.96334 0.420004 0
M  V30 5471 H 533.119 -6.41825 -0.687806 0
M  V30 5472 H 533.887 -8.17426 0.419243 0
M  V30 5473 N 536.55 0.480323 -1.50102 0
M  V30 5474 C 537.513 1.56181 -1.6775 0
M  V30 5475 C 538.513 1.51156 -0.548503 0
M  V30 5476 O 539.703 1.5394 -0.815363 0
M  V30 5477 C 536.835 2.95823 -1.69415 0
M  V30 5478 H 538.028 1.41855 -2.6423 0
M  V30 5479 H 535.581 0.70605 -1.39444 0
M  V30 5480 H 536.316 3.15604 -0.745948 0
M  V30 5481 H 536.101 3.00878 -2.51425 0
M  V30 5482 H 537.591 3.74359 -1.85054 0
M  V30 5483 N 538.028 1.39524 0.732853 0
M  V30 5484 C 538.961 1.32806 1.85574 0
M  V30 5485 C 539.939 0.201354 1.61348 0
M  V30 5486 O 541.123 0.38216 1.84585 0
M  V30 5487 C 538.25 1.06271 3.21596 0
M  V30 5488 C 537.296 2.21161 3.64678 0
M  V30 5489 S 538.129 3.83454 3.73796 0
M  V30 5490 C 539.285 3.59149 5.12604 0
M  V30 5491 H 539.518 2.27838 1.9099 0
M  V30 5492 H 537.051 1.25605 0.897927 0
M  V30 5493 H 539.009 0.916461 4.00139 0
M  V30 5494 H 537.67 0.129223 3.13834 0
M  V30 5495 H 536.863 1.98193 4.63396 0
M  V30 5496 H 536.465 2.32 2.93346 0
M  V30 5497 H 538.757 3.16547 5.99003 0
M  V30 5498 H 539.7 4.57335 5.40602 0
M  V30 5499 H 540.108 2.93203 4.82382 0
M  V30 5500 N 539.506 -0.963266 1.24736 0
M  V30 5501 C 540.469 -2.04013 1.04457 0
M  V30 5502 C 541.469 -1.608 0.000335555 0
M  V30 5503 O 542.659 -1.72515 0.241719 0
M  V30 5504 C 539.791 -3.35858 0.584162 0
M  V30 5505 H 540.984 -2.23436 2.00041 0
M  V30 5506 H 538.537 -1.13914 1.07021 0
M  V30 5507 H 539.272 -3.22128 -0.374673 0
M  V30 5508 H 539.057 -3.68568 1.3379 0
M  V30 5509 H 540.547 -4.1502 0.463451 0
M  V30 5510 N 540.985 -1.06182 -1.16461 0
M  V30 5511 C 541.895 -0.682671 -2.24448 0
M  V30 5512 C 542.911 0.30078 -1.71381 0
M  V30 5513 O 544.087 0.150376 -2.00838 0
M  V30 5514 C 541.152 -0.0737202 -3.46622 0
M  V30 5515 C 540.213 -1.10889 -4.14731 0
M  V30 5516 C 539.446 -0.528908 -5.31073 0
M  V30 5517 O 539.669 0.65868 -5.66584 0
M  V30 5518 O 538.603 -1.26805 -5.88391 0
M  V30 5519 H 542.429 -1.58291 -2.59187 0
M  V30 5520 H 540.014 -0.834013 -1.23954 0
M  V30 5521 H 541.896 0.264192 -4.20571 0
M  V30 5522 H 540.571 0.800015 -3.13658 0
M  V30 5523 H 539.478 -1.49896 -3.42756 0
M  V30 5524 H 540.811 -1.95412 -4.51747 0
M  V30 5525 N 542.463 1.3308 -0.844243 0
M  V30 5526 C 543.74 1.92178 -0.364261 0
M  V30 5527 C 544.12 1.76961 1.15101 0
M  V30 5528 O 543.468 1.16128 1.9679 0
M  V30 5529 C 543.678 3.393 -0.817106 0
M  V30 5530 C 545.026 4.16444 -0.828236 0
M  V30 5531 O 546.05 3.47975 -0.761062 0
M  V30 5532 O 544.909 5.38685 -0.920926 0
M  V30 5533 H 542.003 0.820411 -0.10419 0
M  V30 5534 H 544.549 1.41918 -0.930453 0
M  V30 5535 H 543.321 3.44272 -1.85991 0
M  V30 5536 H 542.944 3.96947 -0.227785 0
M  V30 5537 N 543.941 0.601185 1.45683 0
M  V30 5538 C 545.189 0.0936957 2.01883 0
M  V30 5539 C 545.51 -1.2779 1.47291 0
M  V30 5540 O 544.78 -1.84279 0.664691 0
M  V30 5541 H 543.36 0.0316466 0.746329 0
M  V30 5542 H 546.022 0.781137 1.78562 0
M  V30 5543 H 545.118 0.0386297 3.12076 0
M  V30 5544 N 545.419 -1.53889 0.339982 0
M  V30 5545 C 546.349 -2.27843 -0.510856 0
M  V30 5546 C 547.33 -1.29267 -1.10563 0
M  V30 5547 O 548.515 -1.58104 -1.12768 0
M  V30 5548 C 545.645 -3.04857 -1.66372 0
M  V30 5549 C 544.599 -4.10907 -1.19746 0
M  V30 5550 C 543.925 -4.75855 -2.43857 0
M  V30 5551 C 545.225 -5.21435 -0.300501 0
M  V30 5552 H 546.919 -2.99212 0.106067 0
M  V30 5553 H 544.465 -1.43904 0.0524533 0
M  V30 5554 H 546.418 -3.5533 -2.26537 0
M  V30 5555 H 545.142 -2.31133 -2.30749 0
M  V30 5556 H 543.801 -3.61342 -0.618654 0
M  V30 5557 H 543.449 -3.9873 -3.06633 0
M  V30 5558 H 543.149 -5.47502 -2.13343 0
M  V30 5559 H 544.673 -5.2911 -3.04754 0
M  V30 5560 H 546.087 -5.67565 -0.80889 0
M  V30 5561 H 544.484 -6.00036 -0.0874076 0
M  V30 5562 H 545.554 -4.80328 0.664321 0
M  V30 5563 N 546.897 -0.0685191 -1.57451 0
M  V30 5564 C 547.827 0.89747 -2.15564 0
M  V30 5565 C 548.808 1.31266 -1.08181 0
M  V30 5566 O 549.993 1.38429 -1.36202 0
M  V30 5567 C 547.123 2.16623 -2.71463 0
M  V30 5568 C 546.077 1.89054 -3.83982 0
M  V30 5569 C 545.403 3.22532 -4.26471 0
M  V30 5570 C 546.703 1.1984 -5.08366 0
M  V30 5571 H 548.397 0.413373 -2.96533 0
M  V30 5572 H 545.943 0.197391 -1.42641 0
M  V30 5573 H 547.896 2.84614 -3.10761 0
M  V30 5574 H 546.62 2.67269 -1.8771 0
M  V30 5575 H 545.279 1.23469 -3.45183 0
M  V30 5576 H 544.927 3.71013 -3.39644 0
M  V30 5577 H 544.627 3.04879 -5.02317 0
M  V30 5578 H 546.151 3.91727 -4.68383 0
M  V30 5579 H 547.565 1.77896 -5.45001 0
M  V30 5580 H 545.962 1.12456 -5.89469 0
M  V30 5581 H 547.032 0.176996 -4.84577 0
M  V30 5582 N 548.375 1.56261 0.205012 0
M  V30 5583 C 549.622 1.8004 0.926927 0
M  V30 5584 C 549.95 0.640086 1.83666 0
M  V30 5585 O 549.205 -0.374702 1.92079 0
M  V30 5586 C 549.504 3.09722 1.78345 0
M  V30 5587 C 549.17 4.39082 1.02555 0
M  V30 5588 C 547.832 4.74226 0.816256 0
M  V30 5589 C 550.184 5.18877 0.491559 0
M  V30 5590 C 547.512 5.86668 0.0613287 0
M  V30 5591 C 549.864 6.32105 -0.250107 0
M  V30 5592 C 548.528 6.6584 -0.470508 0
M  V30 5593 H 547.798 0.658812 0.339187 0
M  V30 5594 H 550.445 1.90515 0.19395 0
M  V30 5595 H 548.75 2.9444 2.5848 0
M  V30 5596 H 550.447 3.25324 2.34446 0
M  V30 5597 H 547.037 4.11497 1.19868 0
M  V30 5598 H 551.221 4.92147 0.640684 0
M  V30 5599 H 546.477 6.11283 -0.119501 0
M  V30 5600 H 550.651 6.93157 -0.671307 0
M  V30 5601 H 548.278 7.5281 -1.05739 0
M  V30 5602 N 549.853 -0.472356 1.50355 0
M  V30 5603 C 550.8 -1.57051 1.69126 0
M  V30 5604 C 551.77 -1.5733 0.532574 0
M  V30 5605 O 552.955 -1.7488 0.762994 0
M  V30 5606 C 550.095 -2.95033 1.79024 0
M  V30 5607 C 549.208 -3.04552 3.06386 0
M  V30 5608 C 548.343 -4.33441 3.07087 0
M  V30 5609 C 547.382 -4.36697 4.28908 0
M  V30 5610 N 546.519 -5.57056 4.27356 0
M  V30 5611 H 551.359 -1.40351 2.62879 0
M  V30 5612 H 548.896 -0.682403 1.30314 0
M  V30 5613 H 550.854 -3.75048 1.82744 0
M  V30 5614 H 549.484 -3.10371 0.887109 0
M  V30 5615 H 548.536 -2.17419 3.12143 0
M  V30 5616 H 549.848 -3.02818 3.96362 0
M  V30 5617 H 549.002 -5.21801 3.09529 0
M  V30 5618 H 547.741 -4.37782 2.14939 0
M  V30 5619 H 546.746 -3.46734 4.2668 0
M  V30 5620 H 547.971 -4.34049 5.22282 0
M  V30 5621 H 545.917 -5.62184 3.3806 0
M  V30 5622 H 545.834 -5.57058 5.111 0
M  V30 5623 H 547.102 -6.47545 4.33942 0
M  V30 5624 N 551.331 -1.39911 -0.725443 0
M  V30 5625 C 552.578 -1.37654 -1.48518 0
M  V30 5626 C 552.906 0.0243982 -1.94485 0
M  V30 5627 O 552.161 1.00708 -1.67799 0
M  V30 5628 C 552.46 -2.30368 -2.7325 0
M  V30 5629 C 552.126 -3.77817 -2.461 0
M  V30 5630 C 550.788 -4.17991 -2.38405 0
M  V30 5631 C 553.14 -4.71036 -2.23103 0
M  V30 5632 C 550.468 -5.49433 -2.05768 0
M  V30 5633 C 552.82 -6.02766 -1.9198 0
M  V30 5634 C 551.484 -6.41993 -1.82761 0
M  V30 5635 H 550.754 -0.503713 -0.543465 0
M  V30 5636 H 553.401 -1.7249 -0.831822 0
M  V30 5637 H 551.706 -1.88683 -3.43375 0
M  V30 5638 H 553.403 -2.2591 -3.31309 0
M  V30 5639 H 549.993 -3.45982 -2.52972 0
M  V30 5640 H 554.177 -4.40823 -2.2801 0
M  V30 5641 H 549.433 -5.78738 -1.9716 0
M  V30 5642 H 553.607 -6.74519 -1.73197 0
M  V30 5643 H 551.234 -7.43761 -1.57237 0
M  V30 5644 N 552.809 0.956637 -1.25245 0
M  V30 5645 C 553.739 2.07058 -1.07931 0
M  V30 5646 C 554.72 1.70096 0.0110361 0
M  V30 5647 O 555.905 1.93555 -0.158121 0
M  V30 5648 C 553.035 3.40272 -0.695124 0
M  V30 5649 C 551.989 3.91235 -1.73549 0
M  V30 5650 C 551.315 5.20921 -1.20604 0
M  V30 5651 C 552.615 4.17837 -3.13385 0
M  V30 5652 H 554.309 2.218 -2.01109 0
M  V30 5653 H 551.855 1.06581 -0.968326 0
M  V30 5654 H 553.808 4.1765 -0.560949 0
M  V30 5655 H 552.532 3.25462 0.272355 0
M  V30 5656 H 551.191 3.16025 -1.85807 0
M  V30 5657 H 550.839 5.02479 -0.228846 0
M  V30 5658 H 550.539 5.55987 -1.90136 0
M  V30 5659 H 552.063 6.00897 -1.08421 0
M  V30 5660 H 553.477 4.8588 -3.04292 0
M  V30 5661 H 551.874 4.64154 -3.80369 0
M  V30 5662 H 552.944 3.2419 -3.60595 0
M  V30 5663 N 554.287 1.06798 1.15896 0
M  V30 5664 C 555.25 0.687328 2.18651 0
M  V30 5665 C 556.25 -0.269559 1.58524 0
M  V30 5666 O 557.44 -0.0512627 1.74125 0
M  V30 5667 C 554.572 0.0121642 3.40898 0
M  V30 5668 H 555.765 1.59701 2.53842 0
M  V30 5669 H 553.318 0.863828 1.3026 0
M  V30 5670 H 554.053 -0.910025 3.1127 0
M  V30 5671 H 553.838 0.700309 3.85795 0
M  V30 5672 H 555.328 -0.239703 4.16911 0
M  V30 5673 N 555.766 -1.3263 0.851289 0
M  V30 5674 C 556.714 -2.30882 0.282202 0
M  V30 5675 C 557.708 -1.58697 -0.592589 0
M  V30 5676 O 558.914 -1.73461 -0.480768 0
M  V30 5677 H 555.289 -0.748492 0.0725487 0
M  V30 5678 H 557.26 -2.76374 1.12516 0
M  V30 5679 C 556.009 -3.43828 -0.517449 0
M  V30 5680 H 555.332 -3.99532 0.146392 0
M  V30 5681 H 556.772 -4.1474 -0.88128 0
M  V30 5682 C 555.231 -2.90786 -1.70133 0
M  V30 5683 O 555.761 -2.88 -2.80034 0
M  V30 5684 N 553.967 -2.4723 -1.52728 0
M  V30 5685 H 553.514 -2.49695 -0.633257 0
M  V30 5686 H 553.472 -2.12094 -2.32085 0
M  V30 5687 N 557.244 -0.608902 -1.45362 0
M  V30 5688 C 558.49 -0.104762 -2.02529 0
M  V30 5689 C 558.823 1.26191 -1.47613 0
M  V30 5690 O 558.098 1.8327 -0.65134 0
M  V30 5691 C 558.381 -0.0672661 -3.60037 0
M  V30 5692 C 558.234 -1.4647 -4.25284 0
M  V30 5693 C 559.553 0.619877 -4.35713 0
M  V30 5694 H 556.672 -0.0395438 -0.735938 0
M  V30 5695 H 559.314 -0.781126 -1.73201 0
M  V30 5696 H 557.464 0.50871 -3.85155 0
M  V30 5697 H 559.136 -2.08785 -4.11347 0
M  V30 5698 H 557.379 -2.02502 -3.83634 0
M  V30 5699 H 558.05 -1.39069 -5.34195 0
M  V30 5700 H 560.526 0.130297 -4.15896 0
M  V30 5701 H 559.402 0.615224 -5.45441 0
M  V30 5702 H 559.663 1.68621 -4.0868 0
M  V30 5703 N 558.722 1.53707 -0.348139 0
M  V30 5704 C 559.67 2.26671 0.521808 0
M  V30 5705 C 560.664 1.28988 1.09811 0
M  V30 5706 O 561.87 1.4668 1.04332 0
M  V30 5707 H 558.245 0.728387 0.186968 0
M  V30 5708 H 560.216 2.98176 -0.115563 0
M  V30 5709 C 558.965 3.05591 1.6586 0
M  V30 5710 H 558.288 3.80589 1.22443 0
M  V30 5711 H 559.728 3.59851 2.24239 0
M  V30 5712 C 558.187 2.15366 2.59073 0
M  V30 5713 O 558.717 1.7528 3.61441 0
M  V30 5714 N 556.923 1.80352 2.27863 0
M  V30 5715 H 556.47 2.13149 1.44656 0
M  V30 5716 H 556.428 1.20268 2.90488 0
M  V30 5717 N 560.2 0.0768682 1.57412 0
M  V30 5718 C 561.477 -0.632359 1.85096 0
M  V30 5719 C 561.857 -1.87479 0.9703 0
M  V30 5720 O 561.205 -2.28469 0.0379062 0
M  V30 5721 C 561.415 -0.965174 3.35388 0
M  V30 5722 C 562.763 -1.33648 4.03018 0
M  V30 5723 O 563.787 -1.05675 3.40164 0
M  V30 5724 O 562.646 -1.85959 5.13889 0
M  V30 5725 H 559.74 -0.314574 0.764835 0
M  V30 5726 H 562.286 0.108184 1.69355 0
M  V30 5727 H 561.058 -0.0829745 3.91212 0
M  V30 5728 H 560.681 -1.76231 3.5641 0
M  V30 5729 N 561.678 -1.56367 -0.196722 0
M  V30 5730 C 563.094 -1.49916 -0.54749 0
M  V30 5731 C 563.294 -0.77659 -1.85934 0
M  V30 5732 O 562.35 -0.32644 -2.50381 0
M  V30 5733 C 563.663 -2.94577 -0.603734 0
M  V30 5734 C 565.211 -3.05239 -0.692677 0
M  V30 5735 C 565.686 -4.51308 -0.780046 0
M  V30 5736 N 567.177 -4.55453 -0.843616 0
M  V30 5737 C 567.912 -5.65786 -0.931358 0
M  V30 5738 N 567.408 -6.85812 -0.981503 0
M  V30 5739 N 569.201 -5.53695 -0.968421 0
M  V30 5740 H 561.352 -2.01761 0.663803 0
M  V30 5741 H 563.615 -0.918094 0.236238 0
M  V30 5742 H 563.321 -3.50494 0.29105 0
M  V30 5743 H 563.195 -3.47841 -1.45898 0
M  V30 5744 H 565.582 -2.49372 -1.57789 0
M  V30 5745 H 565.663 -2.55103 0.188736 0
M  V30 5746 H 565.307 -5.078 0.100811 0
M  V30 5747 H 565.237 -4.99176 -1.67724 0
M  V30 5748 H 567.728 -3.69025 -0.814176 0
M  V30 5749 H 568.041 -7.65648 -1.04892 0
M  V30 5750 H 566.386 -6.88474 -0.950208 0
M  V30 5751 H 569.577 -4.58848 -0.926072 0
M  V30 5752 H 569.75 -6.39708 -1.03334 0
M  V30 5753 N 563.156 0.464375 -1.50603 0
M  V30 5754 C 564.384 1.23907 -1.65695 0
M  V30 5755 C 564.799 1.85658 -0.343027 0
M  V30 5756 O 564.156 1.69529 0.675739 0
M  V30 5757 C 564.207 2.3429 -2.75301 0
M  V30 5758 O 563.928 1.7507 -4.01599 0
M  V30 5759 C 565.429 3.25051 -3.01424 0
M  V30 5760 H 562.649 0.374485 -0.556778 0
M  V30 5761 H 565.193 0.55353 -1.96866 0
M  V30 5762 H 563.348 2.98607 -2.46804 0
M  V30 5763 H 563.762 2.47812 -4.62266 0
M  V30 5764 H 565.236 3.98699 -3.81763 0
M  V30 5765 H 565.713 3.84227 -2.12758 0
M  V30 5766 H 566.319 2.66463 -3.31477 0
M  V30 5767 N 564.634 1.40294 0.718013 0
M  V30 5768 C 565.581 1.40367 1.8321 0
M  V30 5769 C 566.551 0.260952 1.64037 0
M  V30 5770 O 567.736 0.458648 1.85205 0
M  V30 5771 C 564.876 1.26965 3.20895 0
M  V30 5772 C 563.989 2.50922 3.51656 0
M  V30 5773 C 563.124 2.29981 4.78834 0
M  V30 5774 C 562.163 3.49527 5.02491 0
M  V30 5775 N 561.3 3.27796 6.20882 0
M  V30 5776 H 566.14 2.35593 1.82482 0
M  V30 5777 H 563.677 1.17012 0.891444 0
M  V30 5778 H 565.635 1.17202 4.00399 0
M  V30 5779 H 564.265 0.353591 3.20858 0
M  V30 5780 H 563.317 2.71223 2.66725 0
M  V30 5781 H 564.629 3.39913 3.65048 0
M  V30 5782 H 563.783 2.17558 5.66351 0
M  V30 5783 H 562.522 1.38411 4.67647 0
M  V30 5784 H 561.527 3.6243 4.1343 0
M  V30 5785 H 562.752 4.42021 5.15553 0
M  V30 5786 H 560.698 2.38906 6.1095 0
M  V30 5787 H 560.615 4.10351 6.34939 0
M  V30 5788 H 561.883 3.19101 7.11193 0
M  V30 5789 N 566.112 -0.949982 1.2575 0
M  V30 5790 C 567.34 -1.72972 1.13527 0
M  V30 5791 C 567.755 -1.8623 -0.310453 0
M  V30 5792 O 567.112 -1.36336 -1.2132 0
M  V30 5793 C 567.163 -3.14108 1.78936 0
M  V30 5794 O 566.884 -3.01493 3.17858 0
M  V30 5795 C 568.385 -4.08338 1.72554 0
M  V30 5796 H 565.605 -0.541864 0.395758 0
M  V30 5797 H 568.149 -1.19151 1.66202 0
M  V30 5798 H 566.304 -3.64858 1.30221 0
M  V30 5799 H 566.718 -3.90559 3.50092 0
M  V30 5800 H 568.192 -5.04963 2.22973 0
M  V30 5801 H 568.669 -4.33742 0.690251 0
M  V30 5802 H 569.275 -3.63506 2.2078 0
M  V30 5803 N 567.59 -1.07411 -1.15328 0
M  V30 5804 C 569.001 -0.820261 -1.67716 0
M  V30 5805 C 569.352 0.654539 -1.8496 0
M  V30 5806 O 568.477 1.50664 -1.55337 0
M  V30 5807 C 569.072 -1.48242 -3.04647 0
M  V30 5808 C 567.631 -1.27606 -3.5411 0
M  V30 5809 C 566.778 -1.5517 -2.29821 0
M  V30 5810 H 569.729 -1.23608 -0.995332 0
M  V30 5811 H 569.75 -0.903984 -3.69606 0
M  V30 5812 H 569.262 -2.55578 -2.92064 0
M  V30 5813 H 567.363 -0.222948 -3.71932 0
M  V30 5814 H 567.476 -1.99667 -4.35511 0
M  V30 5815 H 565.84 -0.972747 -2.35393 0
M  V30 5816 H 566.623 -2.63689 -2.19824 0
M  V30 5817 N 569.068 1.32177 -0.85831 0
M  V30 5818 C 570.317 1.96392 -0.459689 0
M  V30 5819 C 570.63 1.68659 0.990632 0
M  V30 5820 O 571.836 2.26641 1.49485 0
M  V30 5821 C 570.292 3.51542 -0.7711 0
M  V30 5822 C 569.9 3.8813 -2.2374 0
M  V30 5823 C 571.644 4.2221 -0.44038 0
M  V30 5824 C 569.551 5.36341 -2.49183 0
M  V30 5825 H 568.481 0.735007 -0.168169 0
M  V30 5826 H 571.132 1.50518 -1.0496 0
M  V30 5827 H 569.514 3.95846 -0.11058 0
M  V30 5828 H 570.688 3.54824 -2.94001 0
M  V30 5829 H 569.003 3.30497 -2.533 0
M  V30 5830 H 571.6 5.31234 -0.607855 0
M  V30 5831 H 571.943 4.11683 0.618291 0
M  V30 5832 H 572.476 3.83502 -1.05695 0
M  V30 5833 H 569.215 5.51892 -3.53689 0
M  V30 5834 H 568.735 5.7104 -1.83504 0
M  V30 5835 H 570.414 6.03466 -2.33318 0
M  V30 5836 N 570.547 0.616602 1.45037 0
M  V30 5837 C 571.796 0.112861 2.01384 0
M  V30 5838 C 572.109 -1.26758 1.48969 0
M  V30 5839 O 573.315 -1.86454 1.9735 0
M  V30 5840 C 571.771 0.151057 3.59583 0
M  V30 5841 C 571.379 1.53191 4.20995 0
M  V30 5842 C 573.123 -0.296974 4.2346 0
M  V30 5843 C 571.03 1.526 5.71373 0
M  V30 5844 H 569.96 0.0384254 0.75302 0
M  V30 5845 H 572.611 0.773262 1.66412 0
M  V30 5846 H 570.993 -0.57617 3.91786 0
M  V30 5847 H 572.167 2.28156 4.00352 0
M  V30 5848 H 570.482 1.92279 3.69348 0
M  V30 5849 H 573.079 -0.320712 5.33737 0
M  V30 5850 H 573.422 -1.32145 3.9477 0
M  V30 5851 H 573.955 0.377279 3.96007 0
M  V30 5852 H 570.694 2.52837 6.04776 0
M  V30 5853 H 570.214 0.819064 5.94181 0
M  V30 5854 H 571.893 1.25357 6.3474 0
M  V30 5855 N 572.025 -1.5352 0.356285 0
M  V30 5856 C 572.988 -2.24071 -0.482182 0
M  V30 5857 C 573.988 -1.24531 -1.01729 0
M  V30 5858 O 575.178 -1.48876 -0.904513 0
M  V30 5859 C 572.31 -2.97025 -1.67299 0
M  V30 5860 H 573.503 -2.99596 0.135031 0
M  V30 5861 H 571.056 -1.55928 0.107825 0
M  V30 5862 H 571.791 -2.25719 -2.32855 0
M  V30 5863 H 571.576 -3.7005 -1.29636 0
M  V30 5864 H 573.066 -3.50683 -2.26741 0
M  V30 5865 N 573.503 -0.0852151 -1.57369 0
M  V30 5866 C 574.731 0.58946 -1.98325 0
M  V30 5867 C 575.146 1.62333 -0.96403 0
M  V30 5868 O 574.503 1.82438 0.0476395 0
M  V30 5869 C 574.554 1.24604 -3.39347 0
M  V30 5870 O 574.275 0.253532 -4.37366 0
M  V30 5871 C 575.776 2.00726 -3.95252 0
M  V30 5872 H 572.996 0.158783 -0.651942 0
M  V30 5873 H 575.54 -0.161584 -2.03861 0
M  V30 5874 H 573.695 1.94808 -3.34856 0
M  V30 5875 H 574.109 0.726207 -5.19448 0
M  V30 5876 H 575.583 2.42039 -4.96106 0
M  V30 5877 H 576.06 2.86919 -3.32527 0
M  V30 5878 H 576.666 1.3536 -4.03185 0
M  V30 5879 N 574.981 1.5647 0.188427 0
M  V30 5880 C 575.911 1.98101 1.23606 0
M  V30 5881 C 576.892 0.853961 1.47111 0
M  V30 5882 O 578.077 1.11879 1.58735 0
M  V30 5883 C 575.207 2.32624 2.57882 0
M  V30 5884 C 574.161 3.48129 2.48978 0
M  V30 5885 C 573.487 3.68347 3.87588 0
M  V30 5886 C 574.787 4.82112 2.00911 0
M  V30 5887 H 576.481 2.85864 0.890068 0
M  V30 5888 H 574.027 1.37532 0.426714 0
M  V30 5889 H 575.98 2.60343 3.3136 0
M  V30 5890 H 574.704 1.41751 2.94235 0
M  V30 5891 H 573.363 3.20511 1.77956 0
M  V30 5892 H 573.011 2.74793 4.21305 0
M  V30 5893 H 572.711 4.46055 3.82503 0
M  V30 5894 H 574.235 3.98449 4.62678 0
M  V30 5895 H 575.649 5.08819 2.64151 0
M  V30 5896 H 574.046 5.63337 2.06814 0
M  V30 5897 H 575.116 4.75249 0.96262 0
M  V30 5898 N 576.459 -0.456382 1.50847 0
M  V30 5899 C 577.422 -1.53493 1.70213 0
M  V30 5900 C 578.422 -1.50264 0.572481 0
M  V30 5901 O 579.612 -1.52623 0.839751 0
M  V30 5902 C 576.744 -2.93091 1.741 0
M  V30 5903 H 577.937 -1.37633 2.66453 0
M  V30 5904 H 575.49 -0.683776 1.4055 0
M  V30 5905 H 576.225 -3.14378 0.796063 0
M  V30 5906 H 576.01 -2.9684 2.5618 0
M  V30 5907 H 577.5 -3.71368 1.90987 0
M  V30 5908 N 577.937 -1.40673 -0.710563 0
M  V30 5909 C 579.162 -1.42741 -1.50465 0
M  V30 5910 C 579.587 -0.0302116 -1.88076 0
M  V30 5911 O 578.945 0.962945 -1.53613 0
M  V30 5912 C 578.993 -2.32873 -2.75322 0
M  V30 5913 O 578.097 -1.77544 -3.72226 0
M  V30 5914 H 577.438 -0.485056 -0.45345 0
M  V30 5915 H 579.968 -1.84961 -0.874681 0
M  V30 5916 H 579.978 -2.48233 -3.23797 0
M  V30 5917 H 578.653 -3.34401 -2.47283 0
M  V30 5918 H 577.23 -1.71556 -3.31093 0
M  V30 5919 N 579.415 0.9433 -1.26252 0
M  V30 5920 C 580.663 1.68592 -1.11451 0
M  V30 5921 C 580.984 1.91957 0.343123 0
M  V30 5922 O 580.254 1.51475 1.24226 0
M  V30 5923 H 578.834 0.624789 -0.409448 0
M  V30 5924 H 581.496 1.13351 -1.58548 0
M  V30 5925 H 580.592 2.66054 -1.63162 0
M  V30 5926 N 580.893 1.08022 1.14757 0
M  V30 5927 C 581.856 0.71048 2.1791 0
M  V30 5928 C 582.856 -0.252731 1.58801 0
M  V30 5929 O 584.046 -0.0327915 1.74169 0
M  V30 5930 C 581.178 0.0483203 3.40866 0
M  V30 5931 H 582.371 1.62384 2.52134 0
M  V30 5932 H 579.924 0.877595 1.29337 0
M  V30 5933 H 580.659 -0.876959 3.12218 0
M  V30 5934 H 580.444 0.741189 3.85031 0
M  V30 5935 H 581.934 -0.195471 4.17142 0
M  V30 5936 N 582.371 -1.3172 0.865308 0
M  V30 5937 C 583.617 -1.97168 0.474633 0
M  V30 5938 C 583.95 -1.68263 -0.969604 0
M  V30 5939 O 583.225 -0.976588 -1.68205 0
M  V30 5940 C 583.508 -3.52689 0.726808 0
M  V30 5941 C 583.361 -3.91185 2.22024 0
M  V30 5942 C 584.68 -4.39689 0.190201 0
M  V30 5943 H 581.799 -0.716185 0.17392 0
M  V30 5944 H 584.441 -1.55925 1.08569 0
M  V30 5945 H 582.591 -3.8795 0.206705 0
M  V30 5946 H 584.263 -3.66049 2.80724 0
M  V30 5947 H 582.506 -3.3996 2.69462 0
M  V30 5948 H 583.177 -4.99604 2.34735 0
M  V30 5949 H 585.653 -4.11225 0.635103 0
M  V30 5950 H 584.529 -5.47469 0.396132 0
M  V30 5951 H 584.79 -4.32683 -0.907625 0
M  V30 5952 N 583.85 -0.624285 -1.44708 0
M  V30 5953 C 584.812 0.0749638 -2.29077 0
M  V30 5954 C 585.812 0.778965 -1.40673 0
M  V30 5955 O 587.003 0.624591 -1.62618 0
M  V30 5956 C 584.135 1.11663 -3.22094 0
M  V30 5957 H 585.327 -0.667013 -2.92388 0
M  V30 5958 H 582.88 -0.384098 -1.51507 0
M  V30 5959 H 583.615 1.88881 -2.63618 0
M  V30 5960 H 583.401 0.61583 -3.87234 0
M  V30 5961 H 584.891 1.60585 -3.8549 0
M  V30 5962 N 585.328 1.53329 -0.364422 0
M  V30 5963 C 586.291 2.24323 0.470292 0
M  V30 5964 C 587.291 1.25068 1.01067 0
M  V30 5965 O 588.481 1.49354 0.896605 0
M  V30 5966 C 585.613 2.97908 1.65722 0
M  V30 5967 H 586.806 2.9952 -0.150917 0
M  V30 5968 H 584.359 1.55868 -0.116092 0
M  V30 5969 H 585.094 2.2695 2.31655 0
M  V30 5970 H 584.879 3.70732 1.27671 0
M  V30 5971 H 586.369 3.5188 2.24878 0
M  V30 5972 N 586.806 0.0935595 1.57322 0
M  V30 5973 C 588.052 -0.571355 1.94585 0
M  V30 5974 C 588.385 -1.67929 0.975366 0
M  V30 5975 O 587.66 -1.94498 0.00816206 0
M  V30 5976 C 587.943 -1.12797 3.41978 0
M  V30 5977 C 587.796 -0.0251881 4.49793 0
M  V30 5978 C 589.115 -2.02682 3.90651 0
M  V30 5979 H 586.234 -0.206223 0.70756 0
M  V30 5980 H 588.876 0.163956 1.89291 0
M  V30 5981 H 587.026 -1.75461 3.4662 0
M  V30 5982 H 588.698 0.608979 4.57263 0
M  V30 5983 H 586.941 0.641399 4.29032 0
M  V30 5984 H 587.612 -0.455433 5.50118 0
M  V30 5985 H 590.088 -1.49925 3.88152 0
M  V30 5986 H 588.964 -2.38555 4.94351 0
M  V30 5987 H 589.225 -2.94362 3.29854 0
M  V30 5988 N 588.284 -1.56567 -0.180126 0
M  V30 5989 C 589.217 -1.90813 -1.25163 0
M  V30 5990 C 590.195 -0.7699 -1.43218 0
M  V30 5991 O 591.379 -1.02236 -1.58367 0
M  V30 5992 C 588.506 -2.15138 -2.61597 0
M  V30 5993 C 587.552 -3.37834 -2.60328 0
M  V30 5994 S 588.385 -4.92486 -2.1028 0
M  V30 5995 C 589.541 -5.19896 -3.48509 0
M  V30 5996 H 589.774 -2.81398 -0.959283 0
M  V30 5997 H 587.307 -1.49541 -0.3843 0
M  V30 5998 H 589.265 -2.29835 -3.40127 0
M  V30 5999 H 587.926 -1.25276 -2.88036 0
M  V30 6000 H 587.119 -3.52027 -3.60684 0
M  V30 6001 H 586.721 -3.22208 -1.8989 0
M  V30 6002 H 589.013 -5.11334 -4.44459 0
M  V30 6003 H 589.956 -6.21571 -3.39198 0
M  V30 6004 H 590.364 -4.47489 -3.44114 0
M  V30 6005 N 589.762 0.448376 -1.51087 0
M  V30 6006 C 590.725 1.52588 -1.71025 0
M  V30 6007 C 591.725 1.49958 -0.580442 0
M  V30 6008 O 592.915 1.52176 -0.847833 0
M  V30 6009 C 590.047 2.92163 -1.75652 0
M  V30 6010 H 591.24 1.36218 -2.67179 0
M  V30 6011 H 588.793 0.676313 -1.4091 0
M  V30 6012 H 589.528 3.13951 -0.812724 0
M  V30 6013 H 589.313 2.95478 -2.57751 0
M  V30 6014 H 590.803 3.70349 -1.92953 0
M  V30 6015 N 591.24 1.41047 0.703093 0
M  V30 6016 C 592.487 1.4 1.46309 0
M  V30 6017 C 592.815 0.00654574 1.94499 0
M  V30 6018 O 592.07 -0.980255 1.6938 0
M  V30 6019 C 592.369 2.34686 2.6955 0
M  V30 6020 C 592.035 3.81684 2.40058 0
M  V30 6021 C 590.697 4.21731 2.31725 0
M  V30 6022 C 593.049 4.74525 2.15581 0
M  V30 6023 C 590.377 5.52637 1.97001 0
M  V30 6024 C 592.729 6.05744 1.82366 0
M  V30 6025 C 591.393 6.44819 1.72524 0
M  V30 6026 H 590.663 0.512295 0.535382 0
M  V30 6027 H 593.31 1.73792 0.804275 0
M  V30 6028 H 591.615 1.94122 3.40329 0
M  V30 6029 H 593.312 2.31152 3.27673 0
M  V30 6030 H 589.902 3.49963 2.47435 0
M  V30 6031 H 594.086 4.44395 2.20968 0
M  V30 6032 H 589.342 5.81802 1.87928 0
M  V30 6033 H 593.516 6.77189 1.62444 0
M  V30 6034 H 591.143 7.46168 1.45385 0
M  V30 6035 N 592.718 -0.936591 1.26751 0
M  V30 6036 C 593.648 -2.05315 1.11212 0
M  V30 6037 C 594.629 -1.70092 0.0160262 0
M  V30 6038 O 595.814 -1.93279 0.188894 0
M  V30 6039 C 592.944 -3.39123 0.749171 0
M  V30 6040 C 591.898 -3.88425 1.79751 0
M  V30 6041 C 591.224 -5.18936 1.28876 0
M  V30 6042 C 592.524 -4.12798 3.19992 0
M  V30 6043 H 594.218 -2.18573 2.04613 0
M  V30 6044 H 591.764 -1.05027 0.985159 0
M  V30 6045 H 593.717 -4.16704 0.627323 0
M  V30 6046 H 592.441 -3.25855 -0.220543 0
M  V30 6047 H 591.1 -3.13028 1.90811 0
M  V30 6048 H 590.748 -5.02051 0.308757 0
M  V30 6049 H 590.448 -5.52892 1.98958 0
M  V30 6050 H 591.972 -5.99096 1.17967 0
M  V30 6051 H 593.386 -4.80977 3.11983 0
M  V30 6052 H 591.783 -4.58044 3.87705 0
M  V30 6053 H 592.853 -3.18412 3.65707 0
M  V30 6054 N 594.196 -1.08629 -1.14182 0
M  V30 6055 C 595.443 -0.817345 -1.85272 0
M  V30 6056 C 595.771 0.656917 -1.83071 0
M  V30 6057 O 595.026 1.49897 -1.25815 0
M  V30 6058 C 595.325 -1.28734 -3.3341 0
M  V30 6059 C 594.991 -2.76981 -3.55798 0
M  V30 6060 C 593.653 -3.17469 -3.61617 0
M  V30 6061 C 596.005 -3.72605 -3.64438 0
M  V30 6062 C 593.333 -4.52371 -3.736 0
M  V30 6063 C 595.685 -5.07286 -3.77947 0
M  V30 6064 C 594.349 -5.47376 -3.82016 0
M  V30 6065 H 593.619 -0.299088 -0.677958 0
M  V30 6066 H 596.266 -1.35962 -1.34857 0
M  V30 6067 H 594.571 -0.664702 -3.8612 0
M  V30 6068 H 596.268 -1.05598 -3.86846 0
M  V30 6069 H 592.858 -2.44644 -3.51919 0
M  V30 6070 H 597.042 -3.42443 -3.5923 0
M  V30 6071 H 592.298 -4.82882 -3.75013 0
M  V30 6072 H 596.472 -5.81243 -3.83575 0
M  V30 6073 H 594.099 -6.51906 -3.91054 0
M  V30 6074 N 595.674 1.31259 -0.872281 0
M  V30 6075 C 596.951 1.91362 -0.404943 0
M  V30 6076 C 597.331 1.79362 1.11321 0
M  V30 6077 O 596.679 1.20277 1.94283 0
M  V30 6078 C 596.889 3.3749 -0.888893 0
M  V30 6079 C 598.237 4.14593 -0.916384 0
M  V30 6080 O 599.261 3.46282 -0.834701 0
M  V30 6081 O 598.12 5.3661 -1.03498 0
M  V30 6082 H 595.214 0.818016 -0.121569 0
M  V30 6083 H 597.76 1.39912 -0.960346 0
M  V30 6084 H 596.532 3.40249 -1.93251 0
M  V30 6085 H 596.155 3.96375 -0.311932 0
M  V30 6086 N 597.152 0.631951 1.44375 0
M  V30 6087 C 598.082 -0.0593243 2.33425 0
M  V30 6088 C 599.063 -0.833964 1.48253 0
M  V30 6089 O 600.248 -0.799682 1.76971 0
M  V30 6090 C 597.378 -1.04096 3.31333 0
M  V30 6091 C 596.332 -0.377899 4.26328 0
M  V30 6092 C 595.658 -1.4695 5.14111 0
M  V30 6093 C 596.958 0.716371 5.17364 0
M  V30 6094 H 598.652 0.684287 2.91475 0
M  V30 6095 H 596.198 0.330518 1.40156 0
M  V30 6096 H 598.151 -1.53331 3.92514 0
M  V30 6097 H 596.875 -1.81547 2.71493 0
M  V30 6098 H 595.534 0.0938054 3.6648 0
M  V30 6099 H 595.182 -2.2349 4.50623 0
M  V30 6100 H 594.882 -1.03121 5.78481 0
M  V30 6101 H 596.406 -1.96363 5.78164 0
M  V30 6102 H 597.82 0.307089 5.72477 0
M  V30 6103 H 596.217 1.07784 5.90341 0
M  V30 6104 H 597.287 1.58316 4.58327 0
M  V30 6105 N 598.631 -1.53133 0.372548 0
M  V30 6106 C 599.578 -2.25951 -0.470631 0
M  V30 6107 C 600.548 -1.26895 -1.07176 0
M  V30 6108 O 601.733 -1.55691 -1.10294 0
M  V30 6109 C 598.873 -3.05726 -1.6008 0
M  V30 6110 C 597.986 -4.19684 -1.02416 0
M  V30 6111 C 597.121 -4.86888 -2.124 0
M  V30 6112 C 596.16 -5.92866 -1.52238 0
M  V30 6113 N 595.297 -6.53732 -2.56084 0
M  V30 6114 H 600.137 -2.97587 0.156816 0
M  V30 6115 H 597.674 -1.4683 0.0891571 0
M  V30 6116 H 599.632 -3.50258 -2.26661 0
M  V30 6117 H 598.262 -2.36331 -2.1988 0
M  V30 6118 H 597.314 -3.79588 -0.248426 0
M  V30 6119 H 598.626 -4.95821 -0.544366 0
M  V30 6120 H 597.78 -5.34638 -2.86787 0
M  V30 6121 H 596.519 -4.10239 -2.63734 0
M  V30 6122 H 595.524 -5.4447 -0.763685 0
M  V30 6123 H 596.749 -6.71439 -1.0172 0
M  V30 6124 H 594.695 -5.79932 -3.06618 0
M  V30 6125 H 594.612 -7.25429 -2.12811 0
M  V30 6126 H 595.88 -7.0613 -3.30152 0
M  V30 6127 N 600.109 -0.101901 -1.5727 0
M  V30 6128 C 601.386 0.602832 -1.86079 0
M  V30 6129 C 601.766 1.85912 -1 0
M  V30 6130 O 601.114 2.28379 -0.0742488 0
M  V30 6131 C 601.324 0.911694 -3.36881 0
M  V30 6132 C 602.672 1.2722 -4.05093 0
M  V30 6133 O 603.696 1.0025 -3.41802 0
M  V30 6134 O 602.555 1.7776 -5.16782 0
M  V30 6135 H 599.649 0.302366 -0.769743 0
M  V30 6136 H 602.195 -0.135113 -1.69161 0
M  V30 6137 H 600.967 0.0207256 -3.91295 0
M  V30 6138 H 600.59 1.70538 -3.59169 0
M  V30 6139 N 601.587 1.56661 0.17182 0
M  V30 6140 C 602.517 1.99401 1.21498 0
M  V30 6141 C 603.498 0.869516 1.46197 0
M  V30 6142 O 604.683 1.13556 1.57539 0
M  V30 6143 C 601.813 2.35346 2.55401 0
M  V30 6144 C 600.767 3.5075 2.45272 0
M  V30 6145 C 600.093 3.72437 3.8366 0
M  V30 6146 C 601.393 4.84216 1.95787 0
M  V30 6147 H 603.087 2.86792 0.859699 0
M  V30 6148 H 600.633 1.37977 0.412103 0
M  V30 6149 H 602.586 2.63843 3.2858 0
M  V30 6150 H 601.31 1.44864 2.92715 0
M  V30 6151 H 599.969 3.2238 1.74547 0
M  V30 6152 H 599.617 2.79246 4.18367 0
M  V30 6153 H 599.317 4.50087 3.77751 0
M  V30 6154 H 600.841 4.03334 4.58426 0
M  V30 6155 H 602.255 5.11592 2.5874 0
M  V30 6156 H 600.652 5.65498 2.00827 0
M  V30 6157 H 601.722 4.76243 0.912159 0
M  V30 6158 N 603.065 -0.440357 1.51323 0
M  V30 6159 C 604.311 -1.19181 1.64085 0
M  V30 6160 C 604.644 -1.90936 0.354575 0
M  V30 6161 O 603.919 -1.8347 -0.645675 0
M  V30 6162 C 604.202 -2.2112 2.84215 0
M  V30 6163 C 604.055 -1.53468 4.22809 0
M  V30 6164 C 605.374 -3.22133 2.99864 0
M  V30 6165 H 602.493 -0.431924 0.597169 0
M  V30 6166 H 605.135 -0.481443 1.83799 0
M  V30 6167 H 603.285 -2.81703 2.67537 0
M  V30 6168 H 604.957 -0.962455 4.51148 0
M  V30 6169 H 603.2 -0.837086 4.25647 0
M  V30 6170 H 603.871 -2.27694 5.02852 0
M  V30 6171 H 606.347 -2.71601 3.15233 0
M  V30 6172 H 605.223 -3.90756 3.85488 0
M  V30 6173 H 605.484 -3.88061 2.11804 0
M  V30 6174 N 604.543 -1.41418 -0.695603 0
M  V30 6175 C 605.82 -1.31264 -1.45014 0
M  V30 6176 C 606.2 0.0597994 -2.11015 0
M  V30 6177 O 605.548 1.07403 -2.01685 0
M  V30 6178 C 605.758 -2.466 -2.4696 0
M  V30 6179 C 607.106 -2.87763 -3.12214 0
M  V30 6180 O 608.13 -2.46339 -2.57285 0
M  V30 6181 O 606.989 -3.59395 -4.11701 0
M  V30 6182 H 604.083 -0.516576 -0.645816 0
M  V30 6183 H 606.629 -1.53382 -0.726084 0
M  V30 6184 H 605.401 -3.38183 -1.96845 0
M  V30 6185 H 605.024 -2.26358 -3.26876 0
M  V30 6186 N 606.021 0.929856 -1.27246 0
M  V30 6187 C 606.951 2.04722 -1.12299 0
M  V30 6188 C 607.932 1.70082 -0.0250464 0
M  V30 6189 O 609.117 1.93176 -0.199141 0
M  V30 6190 C 606.247 3.38721 -0.767145 0
M  V30 6191 C 605.201 3.87466 -1.81808 0
M  V30 6192 C 604.527 5.18246 -1.31626 0
M  V30 6193 C 605.827 4.11095 -3.22177 0
M  V30 6194 H 607.521 2.17485 -2.05769 0
M  V30 6195 H 605.067 1.04503 -0.990715 0
M  V30 6196 H 607.02 4.16366 -0.649413 0
M  V30 6197 H 605.744 3.25967 0.203259 0
M  V30 6198 H 604.403 3.12012 -1.92468 0
M  V30 6199 H 604.051 5.01881 -0.335378 0
M  V30 6200 H 603.751 5.51829 -2.01887 0
M  V30 6201 H 605.275 5.98462 -1.21143 0
M  V30 6202 H 606.689 4.79316 -3.1453 0
M  V30 6203 H 605.086 4.55982 -3.90129 0
M  V30 6204 H 606.156 3.16468 -3.67391 0
M  V30 6205 N 607.499 1.09233 1.13605 0
M  V30 6206 C 608.432 0.6739 2.18023 0
M  V30 6207 C 609.41 -0.318603 1.59448 0
M  V30 6208 O 610.594 -0.220452 1.87206 0
M  V30 6209 C 607.721 -0.00751458 3.38699 0
M  V30 6210 C 606.767 0.946481 4.15865 0
M  V30 6211 S 607.6 2.45753 4.75779 0
M  V30 6212 C 608.756 1.78846 5.99804 0
M  V30 6213 H 608.989 1.55846 2.53178 0
M  V30 6214 H 606.522 0.908118 1.2487 0
M  V30 6215 H 608.48 -0.394368 4.08601 0
M  V30 6216 H 607.141 -0.868693 3.01849 0
M  V30 6217 H 606.334 0.416742 5.02274 0
M  V30 6218 H 605.936 1.27464 3.51609 0
M  V30 6219 H 608.228 1.11135 6.68323 0
M  V30 6220 H 609.171 2.63163 6.57382 0
M  V30 6221 H 609.579 1.25823 5.50299 0
M  V30 6222 N 608.977 -1.30795 0.87923 0
M  V30 6223 C 610.202 -2.01063 0.508769 0
M  V30 6224 C 610.627 -1.65508 -0.893803 0
M  V30 6225 O 609.985 -0.868616 -1.59138 0
M  V30 6226 C 610.033 -3.54054 0.683991 0
M  V30 6227 O 609.137 -4.11498 -0.272654 0
M  V30 6228 H 608.478 -0.632786 0.201191 0
M  V30 6229 H 611.008 -1.66776 1.18519 0
M  V30 6230 H 611.018 -4.03845 0.580798 0
M  V30 6231 H 609.693 -3.79271 1.70665 0
M  V30 6232 H 608.27 -3.72695 -0.12364 0
M  V30 6233 N 610.455 -0.639598 -1.44038 0
M  V30 6234 C 611.704 -0.144885 -2.01179 0
M  V30 6235 C 612.017 1.24372 -1.50967 0
M  V30 6236 O 613.223 1.83291 -2.00292 0
M  V30 6237 C 611.679 -0.208244 -3.59297 0
M  V30 6238 C 611.287 -1.59869 -4.18504 0
M  V30 6239 C 613.031 0.229568 -4.23879 0
M  V30 6240 C 610.938 -1.61671 -5.68873 0
M  V30 6241 H 609.868 -0.0504005 -0.752314 0
M  V30 6242 H 612.519 -0.799639 -1.65161 0
M  V30 6243 H 610.901 0.513767 -3.92653 0
M  V30 6244 H 612.075 -2.34496 -3.96671 0
M  V30 6245 H 610.39 -1.98131 -3.66242 0
M  V30 6246 H 612.987 0.235758 -5.3418 0
M  V30 6247 H 613.33 1.25848 -3.96822 0
M  V30 6248 H 613.863 -0.440233 -3.95357 0
M  V30 6249 H 610.602 -2.62427 -6.00677 0
M  V30 6250 H 610.122 -0.913489 -5.92803 0
M  V30 6251 H 611.801 -1.35439 -6.32665 0
M  V30 6252 N 611.933 1.52934 -0.380664 0
M  V30 6253 C 613.181 2.01069 0.203874 0
M  V30 6254 C 613.502 1.26922 1.4804 0
M  V30 6255 O 612.772 0.386787 1.92044 0
M  V30 6256 H 611.352 0.742882 0.0783279 0
M  V30 6257 H 614.014 1.88099 -0.510368 0
M  V30 6258 H 613.11 3.09258 0.42021 0
M  V30 6259 N 613.412 0.11024 1.57214 0
M  V30 6260 C 614.64 -0.557834 1.99238 0
M  V30 6261 C 615.055 -1.60778 0.989734 0
M  V30 6262 O 614.412 -1.82491 -0.0186092 0
M  V30 6263 C 614.463 -1.19189 3.41286 0
M  V30 6264 O 614.184 -0.183919 4.37714 0
M  V30 6265 C 615.685 -1.94413 3.98395 0
M  V30 6266 H 612.905 -0.148392 0.654386 0
M  V30 6267 H 615.449 0.193996 2.03578 0
M  V30 6268 H 613.604 -1.89456 3.37913 0
M  V30 6269 H 614.018 -0.643475 5.20538 0
M  V30 6270 H 615.492 -2.34116 4.99894 0
M  V30 6271 H 615.969 -2.81592 3.3705 0
M  V30 6272 H 616.575 -1.28928 4.05287 0
M  V30 6273 N 614.89 -1.56749 -0.16351 0
M  V30 6274 C 615.82 -2.00042 -1.20438 0
M  V30 6275 C 616.801 -0.877256 -1.45733 0
M  V30 6276 O 617.986 -1.1439 -1.56935 0
M  V30 6277 C 615.116 -2.36697 -2.54149 0
M  V30 6278 C 614.07 -3.52046 -2.43408 0
M  V30 6279 C 613.396 -3.74466 -3.81679 0
M  V30 6280 C 614.696 -4.85247 -1.93216 0
M  V30 6281 H 616.39 -2.87244 -0.844477 0
M  V30 6282 H 613.936 -1.38194 -0.40478 0
M  V30 6283 H 615.889 -2.65582 -3.27176 0
M  V30 6284 H 614.613 -1.46414 -2.91943 0
M  V30 6285 H 613.272 -3.23301 -1.72834 0
M  V30 6286 H 612.92 -2.81461 -4.1688 0
M  V30 6287 H 612.62 -4.52084 -3.75359 0
M  V30 6288 H 614.144 -4.0576 -4.5628 0
M  V30 6289 H 615.558 -5.12957 -2.56023 0
M  V30 6290 H 613.955 -5.66556 -1.97825 0
M  V30 6291 H 615.025 -4.7672 -0.88689 0
M  V30 6292 N 616.368 0.432326 -1.51554 0
M  V30 6293 C 617.298 1.53242 -1.76179 0
M  V30 6294 C 618.279 1.58717 -0.611801 0
M  V30 6295 O 619.464 1.74364 -0.855033 0
M  V30 6296 C 616.594 2.91278 -1.89141 0
M  V30 6297 C 615.548 3.00663 -3.04608 0
M  V30 6298 C 614.874 4.40728 -3.02759 0
M  V30 6299 C 616.174 2.74281 -4.44485 0
M  V30 6300 H 617.868 1.32886 -2.68294 0
M  V30 6301 H 615.414 0.637841 -1.29103 0
M  V30 6302 H 617.367 3.68203 -2.04951 0
M  V30 6303 H 616.091 3.12877 -0.936785 0
M  V30 6304 H 614.75 2.26179 -2.88511 0
M  V30 6305 H 614.398 4.59301 -2.05065 0
M  V30 6306 H 614.098 4.47936 -3.80299 0
M  V30 6307 H 615.622 5.19619 -3.20669 0
M  V30 6308 H 617.036 3.40936 -4.60907 0
M  V30 6309 H 615.433 2.92893 -5.23769 0
M  V30 6310 H 616.503 1.69856 -4.54177 0
M  V30 6311 N 617.846 1.41785 0.688094 0
M  V30 6312 C 618.809 1.43936 1.78368 0
M  V30 6313 C 619.809 0.328866 1.57401 0
M  V30 6314 O 620.999 0.589093 1.63937 0
M  V30 6315 C 618.131 1.25804 3.16838 0
M  V30 6316 H 619.324 2.41472 1.77852 0
M  V30 6317 H 616.877 1.28037 0.896448 0
M  V30 6318 H 617.612 0.291386 3.22988 0
M  V30 6319 H 617.397 2.06272 3.33458 0
M  V30 6320 H 618.887 1.30162 3.96797 0
M  V30 6321 N 619.324 -0.923095 1.27737 0
M  V30 6322 C 620.554 -1.70277 1.17001 0
M  V30 6323 C 620.962 -1.87188 -0.275199 0
M  V30 6324 O 620.305 -1.39195 -1.19877 0
M  V30 6325 C 620.367 -3.11976 1.78637 0
M  V30 6326 C 620.031 -3.18386 3.27841 0
M  V30 6327 C 621.028 -3.00287 4.2441 0
M  V30 6328 C 618.713 -3.41198 3.68632 0
M  V30 6329 C 620.707 -3.04896 5.59747 0
M  V30 6330 C 618.394 -3.4544 5.04097 0
M  V30 6331 C 619.392 -3.27309 5.99465 0
M  V30 6332 O 619.08 -3.31295 7.32461 0
M  V30 6333 H 618.812 -0.539366 0.407505 0
M  V30 6334 H 621.366 -1.16446 1.69202 0
M  V30 6335 H 619.596 -3.67308 1.20919 0
M  V30 6336 H 621.285 -3.7193 1.6255 0
M  V30 6337 H 622.051 -2.825 3.94232 0
M  V30 6338 H 617.93 -3.54359 2.94873 0
M  V30 6339 H 621.474 -2.90662 6.34162 0
M  V30 6340 H 617.371 -3.62753 5.33929 0
M  V30 6341 H 618.139 -3.47719 7.40968 0
M  V30 6342 N 620.802 -1.09834 -1.13024 0
M  V30 6343 C 622.027 -0.85909 -1.88771 0
M  V30 6344 C 622.452 0.584402 -1.78791 0
M  V30 6345 O 621.81 1.41101 -1.13842 0
M  V30 6346 C 621.858 -1.30427 -3.36186 0
M  V30 6347 O 620.962 -0.465368 -4.09766 0
M  V30 6348 H 620.303 -0.310786 -0.586778 0
M  V30 6349 H 622.833 -1.46355 -1.42973 0
M  V30 6350 H 622.843 -1.2915 -3.8702 0
M  V30 6351 H 621.518 -2.3555 -3.42767 0
M  V30 6352 H 620.095 -0.542814 -3.68928 0
M  V30 6353 N 622.28 1.30327 -0.886154 0
M  V30 6354 C 623.21 2.30549 -0.370028 0
M  V30 6355 C 624.191 1.61039 0.547751 0
M  V30 6356 O 625.376 1.8864 0.461353 0
M  V30 6357 C 622.506 3.44808 0.415275 0
M  V30 6358 C 621.46 4.26024 -0.41085 0
M  V30 6359 C 620.786 5.32347 0.501128 0
M  V30 6360 C 622.086 4.95433 -1.65359 0
M  V30 6361 H 623.78 2.73969 -1.20754 0
M  V30 6362 H 621.326 1.3171 -0.582097 0
M  V30 6363 H 623.279 4.13986 0.78699 0
M  V30 6364 H 622.003 3.00197 1.28644 0
M  V30 6365 H 620.662 3.58535 -0.764719 0
M  V30 6366 H 620.31 4.83982 1.37004 0
M  V30 6367 H 620.01 5.87581 -0.0478356 0
M  V30 6368 H 621.534 6.0438 0.869333 0
M  V30 6369 H 622.948 5.5712 -1.35239 0
M  V30 6370 H 621.345 5.60537 -2.14284 0
M  V30 6371 H 622.415 4.21493 -2.39733 0
M  V30 6372 N 623.758 0.647228 1.43697 0
M  V30 6373 C 625.004 0.158422 2.0218 0
M  V30 6374 C 625.337 -1.22233 1.50907 0
M  V30 6375 O 624.612 -1.81478 0.699702 0
M  V30 6376 C 624.895 0.1627 3.59732 0
M  V30 6377 C 624.748 1.57694 4.21251 0
M  V30 6378 C 626.067 -0.504138 4.37203 0
M  V30 6379 H 623.186 0.059042 0.734631 0
M  V30 6380 H 625.828 0.826772 1.71069 0
M  V30 6381 H 623.978 -0.406414 3.86368 0
M  V30 6382 H 625.65 2.19618 4.05667 0
M  V30 6383 H 623.893 2.12603 3.7813 0
M  V30 6384 H 624.564 1.53183 5.3032 0
M  V30 6385 H 627.04 -0.0199841 4.16095 0
M  V30 6386 H 625.916 -0.470394 5.46881 0
M  V30 6387 H 626.177 -1.57726 4.13007 0
M  V30 6388 N 625.236 -1.5273 0.388769 0
M  V30 6389 C 626.199 -2.25043 -0.434544 0
M  V30 6390 C 627.199 -1.26661 -0.990644 0
M  V30 6391 O 628.389 -1.50762 -0.872731 0
M  V30 6392 C 625.521 -3.00507 -1.60961 0
M  V30 6393 H 626.714 -2.99242 0.198549 0
M  V30 6394 H 624.267 -1.55664 0.140875 0
M  V30 6395 H 625.002 -2.30607 -2.28015 0
M  V30 6396 H 624.787 -3.72716 -1.21757 0
M  V30 6397 H 626.277 -3.55413 -2.19251 0
M  V30 6398 N 626.714 -0.118576 -1.57153 0
M  V30 6399 C 627.677 0.817464 -2.14127 0
M  V30 6400 C 628.677 1.1949 -1.07604 0
M  V30 6401 O 629.867 1.12048 -1.33382 0
M  V30 6402 C 626.999 2.10541 -2.68115 0
M  V30 6403 H 628.192 0.322339 -2.98163 0
M  V30 6404 H 625.745 0.130655 -1.55753 0
M  V30 6405 H 626.48 2.64485 -1.87665 0
M  V30 6406 H 626.265 1.84425 -3.4602 0
M  V30 6407 H 627.755 2.77453 -3.12105 0
M  V30 6408 N 628.193 1.56834 0.155195 0
M  V30 6409 C 629.433 1.84701 0.875488 0
M  V30 6410 C 629.797 0.701747 1.78716 0
M  V30 6411 O 630.998 0.861263 2.54629 0
M  V30 6412 C 629.269 3.1773 1.63654 0
M  V30 6413 S 630.828 3.67128 2.40338 0
M  V30 6414 H 627.646 0.647856 0.292923 0
M  V30 6415 H 630.248 1.95026 0.136024 0
M  V30 6416 H 628.952 3.99059 0.958117 0
M  V30 6417 H 628.483 3.10388 2.41708 0
M  V30 6418 H 630.498 3.35739 3.65368 0
M  V30 6419 N 629.671 -0.424282 1.51781 0
M  V30 6420 C 630.917 -1.17434 1.6534 0
M  V30 6421 C 631.25 -1.90549 0.374806 0
M  V30 6422 O 630.525 -1.84145 -0.626179 0
M  V30 6423 C 630.808 -2.18093 2.86544 0
M  V30 6424 C 630.661 -1.48975 4.24413 0
M  V30 6425 C 631.98 -3.18934 3.03264 0
M  V30 6426 H 629.099 -0.425566 0.601716 0
M  V30 6427 H 631.741 -0.461921 1.84299 0
M  V30 6428 H 629.891 -2.78849 2.7051 0
M  V30 6429 H 631.563 -0.914551 4.52143 0
M  V30 6430 H 629.806 -0.791893 4.26511 0
M  V30 6431 H 630.477 -2.22347 5.05238 0
M  V30 6432 H 632.953 -2.68243 3.18096 0
M  V30 6433 H 631.829 -3.86645 3.89611 0
M  V30 6434 H 632.09 -3.85793 2.15908 0
M  V30 6435 N 631.149 -1.42148 -0.680565 0
M  V30 6436 C 632.079 -1.4796 -1.80638 0
M  V30 6437 C 633.06 -0.336728 -1.66734 0
M  V30 6438 O 634.245 -0.550247 -1.86242 0
M  V30 6439 C 631.375 -1.37569 -3.18892 0
M  V30 6440 C 630.329 -2.49823 -3.47524 0
M  V30 6441 C 629.655 -2.24491 -4.85291 0
M  V30 6442 C 630.955 -3.92144 -3.44994 0
M  V30 6443 H 632.649 -2.42184 -1.76032 0
M  V30 6444 H 630.195 -1.16566 -0.845481 0
M  V30 6445 H 632.148 -1.40243 -3.97379 0
M  V30 6446 H 630.872 -0.398357 -3.24162 0
M  V30 6447 H 629.531 -2.46455 -2.71395 0
M  V30 6448 H 629.179 -1.25066 -4.87204 0
M  V30 6449 H 628.879 -2.99722 -5.05411 0
M  V30 6450 H 630.403 -2.28906 -5.66069 0
M  V30 6451 H 631.817 -3.97145 -4.13459 0
M  V30 6452 H 630.214 -4.67179 -3.76648 0
M  V30 6453 H 631.284 -4.19225 -2.43676 0
M  V30 6454 N 632.627 0.916307 -1.28225 0
M  V30 6455 C 633.873 1.66765 -1.154 0
M  V30 6456 C 634.206 1.91912 0.297251 0
M  V30 6457 O 633.481 1.51766 1.21644 0
M  V30 6458 C 633.764 3.02715 -1.95028 0
M  V30 6459 C 633.617 2.84738 -3.48201 0
M  V30 6460 C 634.936 4.03215 -1.76369 0
M  V30 6461 H 632.055 0.605205 -0.42059 0
M  V30 6462 H 634.697 1.06255 -1.57512 0
M  V30 6463 H 632.847 3.54365 -1.59242 0
M  V30 6464 H 634.519 2.40118 -3.9388 0
M  V30 6465 H 632.762 2.19848 -3.73964 0
M  V30 6466 H 633.433 3.8127 -3.99171 0
M  V30 6467 H 635.909 3.60617 -2.07593 0
M  V30 6468 H 634.785 4.96306 -2.34459 0
M  V30 6469 H 635.046 4.36288 -0.71452 0
M  V30 6470 N 634.105 1.10431 1.1244 0
M  V30 6471 C 635.035 0.775143 2.20258 0
M  V30 6472 C 636.016 -0.25186 1.68225 0
M  V30 6473 O 637.201 -0.117637 1.93843 0
M  V30 6474 C 634.331 0.206133 3.46688 0
M  V30 6475 C 633.285 1.16382 4.11873 0
M  V30 6476 C 632.611 0.456014 5.32752 0
M  V30 6477 C 633.911 2.5104 4.58013 0
M  V30 6478 H 635.605 1.67665 2.4805 0
M  V30 6479 H 633.151 0.807595 1.19222 0
M  V30 6480 H 635.104 -0.036291 4.21384 0
M  V30 6481 H 633.828 -0.730614 3.18323 0
M  V30 6482 H 632.487 1.39169 3.39157 0
M  V30 6483 H 632.135 -0.485203 5.00654 0
M  V30 6484 H 631.835 1.09466 5.77314 0
M  V30 6485 H 633.359 0.222135 6.10196 0
M  V30 6486 H 634.773 2.32401 5.24083 0
M  V30 6487 H 633.17 3.10789 5.13352 0
M  V30 6488 H 634.24 3.11039 3.71998 0
M  V30 6489 N 635.583 -1.29855 0.893053 0
M  V30 6490 C 636.999 -1.48366 0.588199 0
M  V30 6491 C 637.199 -1.81654 -0.872018 0
M  V30 6492 O 636.255 -1.909 -1.65268 0
M  V30 6493 C 637.568 -2.60136 1.5083 0
M  V30 6494 C 639.116 -2.74014 1.51279 0
M  V30 6495 C 639.591 -3.88905 2.41902 0
M  V30 6496 N 641.082 -3.96228 2.39911 0
M  V30 6497 C 641.817 -4.84458 3.06738 0
M  V30 6498 N 641.313 -5.77426 3.8282 0
M  V30 6499 N 643.106 -4.77894 2.95929 0
M  V30 6500 H 635.257 -1.06522 1.83757 0
M  V30 6501 H 637.52 -0.528495 0.787018 0
M  V30 6502 H 637.226 -2.42383 2.54839 0
M  V30 6503 H 637.1 -3.56793 1.22388 0
M  V30 6504 H 639.487 -2.91167 0.480179 0
M  V30 6505 H 639.568 -1.77952 1.83757 0
M  V30 6506 H 639.212 -3.72508 3.45253 0
M  V30 6507 H 639.142 -4.84322 2.06737 0
M  V30 6508 H 641.633 -3.29728 1.84629 0
M  V30 6509 H 641.946 -6.41529 4.30883 0
M  V30 6510 H 640.291 -5.77332 3.86927 0
M  V30 6511 H 643.482 -4.04248 2.36012 0
M  V30 6512 H 643.655 -5.46444 3.48286 0
M  V30 6513 N 637.061 -0.65484 -1.43351 0
M  V30 6514 C 638.291 -0.176429 -2.05845 0
M  V30 6515 C 638.699 1.16375 -1.49176 0
M  V30 6516 O 638.042 1.72981 -0.618322 0
M  V30 6517 C 638.104 -0.0125844 -3.59498 0
M  V30 6518 C 637.768 -1.27831 -4.38758 0
M  V30 6519 C 638.765 -2.2074 -4.70712 0
M  V30 6520 C 636.45 -1.52035 -4.78739 0
M  V30 6521 C 638.444 -3.36145 -5.41558 0
M  V30 6522 C 636.131 -2.67732 -5.49329 0
M  V30 6523 C 637.129 -3.59612 -5.80662 0
M  V30 6524 O 636.817 -4.73289 -6.4981 0
M  V30 6525 H 636.549 -0.0879682 -0.670252 0
M  V30 6526 H 639.103 -0.896193 -1.84818 0
M  V30 6527 H 637.333 0.762567 -3.79107 0
M  V30 6528 H 639.022 0.423392 -4.03686 0
M  V30 6529 H 639.788 -2.03284 -4.40341 0
M  V30 6530 H 635.667 -0.813987 -4.53757 0
M  V30 6531 H 639.211 -4.07881 -5.65932 0
M  V30 6532 H 635.108 -2.85122 -5.79116 0
M  V30 6533 H 635.876 -4.72575 -6.68293 0
M  V30 6534 N 638.539 1.52521 -0.396863 0
M  V30 6535 C 639.471 2.24333 0.469814 0
M  V30 6536 C 640.484 1.2685 1.02043 0
M  V30 6537 O 641.673 1.52876 0.92147 0
M  V30 6538 C 638.773 2.95202 1.66461 0
M  V30 6539 C 637.946 4.19454 1.24003 0
M  V30 6540 C 637.005 4.73255 2.30036 0
M  V30 6541 O 636.031 5.36151 1.91131 0
M  V30 6542 N 637.233 4.53765 3.62047 0
M  V30 6543 H 639.998 2.99347 -0.145468 0
M  V30 6544 H 637.559 1.60348 -0.223606 0
M  V30 6545 H 639.551 3.28092 2.36934 0
M  V30 6546 H 638.121 2.2345 2.18607 0
M  V30 6547 H 637.341 3.92517 0.363892 0
M  V30 6548 H 638.629 5.0017 0.933135 0
M  V30 6549 H 638.027 4.03576 3.96412 0
M  V30 6550 H 636.584 4.91124 4.28533 0
M  V30 6551 N 640.017 0.126909 1.57088 0
M  V30 6552 C 641.428 -0.397201 1.82426 0
M  V30 6553 C 641.779 -1.66084 1.04453 0
M  V30 6554 O 640.904 -2.14534 0.283552 0
M  V30 6555 C 641.499 -0.727411 3.30899 0
M  V30 6556 C 640.058 -1.19612 3.56889 0
M  V30 6557 C 639.205 -0.20885 2.76512 0
M  V30 6558 H 642.156 0.351924 1.54749 0
M  V30 6559 H 642.177 -1.58407 3.45959 0
M  V30 6560 H 641.689 0.19247 3.87622 0
M  V30 6561 H 639.79 -2.13263 3.05532 0
M  V30 6562 H 639.903 -1.13598 4.65438 0
M  V30 6563 H 638.267 -0.697479 2.44964 0
M  V30 6564 H 639.05 0.704267 3.35998 0
M  V30 6565 N 641.495 -1.56914 -0.146875 0
M  V30 6566 C 642.405 -2.0154 -1.20079 0
M  V30 6567 C 643.421 -0.930838 -1.47008 0
M  V30 6568 O 644.597 -1.24032 -1.58676 0
M  V30 6569 C 641.662 -2.38715 -2.51428 0
M  V30 6570 C 640.723 -3.6112 -2.32145 0
M  V30 6571 C 639.956 -3.96512 -3.57231 0
M  V30 6572 O 640.179 -3.32566 -4.63418 0
M  V30 6573 O 639.113 -4.89758 -3.49887 0
M  V30 6574 H 642.939 -2.91506 -0.851924 0
M  V30 6575 H 640.524 -1.45106 -0.355607 0
M  V30 6576 H 642.406 -2.63485 -3.28867 0
M  V30 6577 H 641.081 -1.51903 -2.85845 0
M  V30 6578 H 639.988 -3.41536 -1.52656 0
M  V30 6579 H 641.321 -4.48549 -2.02644 0
M  V30 6580 N 642.974 0.416227 -1.52004 0
M  V30 6581 C 643.906 1.52552 -1.71058 0
M  V30 6582 C 644.919 1.51693 -0.59102 0
M  V30 6583 O 646.108 1.56087 -0.865973 0
M  V30 6584 C 643.208 2.91455 -1.72937 0
M  V30 6585 C 642.381 3.16584 -3.01816 0
M  V30 6586 C 641.44 4.35322 -2.95603 0
M  V30 6587 O 640.466 4.32947 -3.6952 0
M  V30 6588 N 641.668 5.40049 -2.12903 0
M  V30 6589 H 644.433 1.36604 -2.66757 0
M  V30 6590 H 641.994 0.60544 -1.50153 0
M  V30 6591 H 643.986 3.68944 -1.66321 0
M  V30 6592 H 642.556 3.00895 -0.847418 0
M  V30 6593 H 641.776 2.27203 -3.22137 0
M  V30 6594 H 643.064 3.30213 -3.87088 0
M  V30 6595 H 642.462 5.44823 -1.52265 0
M  V30 6596 H 641.019 6.16308 -2.1215 0
M  V30 6597 N 644.452 1.42507 0.673017 0
M  V30 6598 C 645.863 1.38347 1.25367 0
M  V30 6599 C 646.214 0.0776327 1.96046 0
M  V30 6600 O 645.339 -0.823571 2.00116 0
M  V30 6601 C 645.934 2.506 2.28002 0
M  V30 6602 C 644.493 2.49767 2.81591 0
M  V30 6603 C 643.64 2.293 1.55938 0
M  V30 6604 H 646.591 1.51695 0.466288 0
M  V30 6605 H 646.612 2.20953 3.09774 0
M  V30 6606 H 646.124 3.45627 1.76532 0
M  V30 6607 H 644.225 1.58563 3.37177 0
M  V30 6608 H 644.338 3.46867 3.30485 0
M  V30 6609 H 642.702 1.77594 1.82572 0
M  V30 6610 H 643.485 3.26385 1.06431 0
M  V30 6611 N 645.93 -0.909495 1.28709 0
M  V30 6612 C 646.878 -2.03381 1.12866 0
M  V30 6613 C 647.872 -1.69335 0.0468074 0
M  V30 6614 O 649.078 -1.78819 0.205891 0
M  V30 6615 H 645.453 -0.666452 0.348348 0
M  V30 6616 H 647.424 -2.13885 2.08077 0
M  V30 6617 C 646.173 -3.38092 0.811742 0
M  V30 6618 H 645.496 -3.64786 1.63619 0
M  V30 6619 H 646.936 -4.17477 0.740869 0
M  V30 6620 C 645.395 -3.33395 -0.484679 0
M  V30 6621 O 645.925 -3.72089 -1.5137 0
M  V30 6622 N 644.131 -2.86491 -0.486961 0
M  V30 6623 H 643.678 -2.55199 0.350877 0
M  V30 6624 H 643.636 -2.83731 -1.3544 0
M  V30 6625 N 647.408 -1.11026 -1.11852 0
M  V30 6626 C 648.338 -0.786812 -2.19844 0
M  V30 6627 C 649.319 0.242935 -1.68356 0
M  V30 6628 O 650.504 0.107355 -1.93903 0
M  V30 6629 C 647.634 -0.224516 -3.46574 0
M  V30 6630 C 646.588 -1.18564 -4.1125 0
M  V30 6631 C 645.914 -0.484261 -5.32503 0
M  V30 6632 C 647.214 -2.53465 -4.56676 0
M  V30 6633 H 648.908 -1.68978 -2.47158 0
M  V30 6634 H 646.454 -0.813906 -1.18792 0
M  V30 6635 H 648.407 0.0139435 -4.21398 0
M  V30 6636 H 647.131 0.713722 -3.18706 0
M  V30 6637 H 645.79 -1.40966 -3.38414 0
M  V30 6638 H 645.438 0.458646 -5.00905 0
M  V30 6639 H 645.138 -1.12526 -5.76725 0
M  V30 6640 H 646.662 -0.254492 -6.10069 0
M  V30 6641 H 648.076 -2.35177 -5.22843 0
M  V30 6642 H 646.473 -3.13507 -5.11697 0
M  V30 6643 H 647.543 -3.13008 -3.70343 0
M  V30 6644 N 648.886 1.2938 -0.899927 0
M  V30 6645 C 650.132 1.9584 -0.526742 0
M  V30 6646 C 650.465 1.70774 0.924651 0
M  V30 6647 O 649.74 1.02084 1.65557 0
M  V30 6648 C 650.023 3.50638 -0.820062 0
M  V30 6649 C 649.876 3.85161 -2.32317 0
M  V30 6650 C 651.195 4.3903 -0.30671 0
M  V30 6651 H 648.314 0.711322 -0.192848 0
M  V30 6652 H 650.956 1.52992 -1.12665 0
M  V30 6653 H 649.106 3.87265 -0.309491 0
M  V30 6654 H 650.778 3.58477 -2.9033 0
M  V30 6655 H 649.021 3.32696 -2.78381 0
M  V30 6656 H 649.692 4.93204 -2.47898 0
M  V30 6657 H 652.168 4.09396 -0.743908 0
M  V30 6658 H 651.044 5.46226 -0.541144 0
M  V30 6659 H 651.305 4.34937 0.792588 0
M  V30 6660 N 650.364 0.662433 1.43002 0
M  V30 6661 C 651.594 0.187343 2.05749 0
M  V30 6662 C 652.002 -1.15582 1.49791 0
M  V30 6663 O 651.345 -1.72651 0.627487 0
M  V30 6664 C 651.407 0.0316493 3.59486 0
M  V30 6665 C 651.071 1.30156 4.38073 0
M  V30 6666 C 652.068 2.23234 4.69535 0
M  V30 6667 C 649.753 1.54572 4.77926 0
M  V30 6668 C 651.747 3.39012 5.39768 0
M  V30 6669 C 649.434 2.70641 5.47902 0
M  V30 6670 C 650.432 3.62687 5.78746 0
M  V30 6671 O 650.12 4.76728 6.47291 0
M  V30 6672 H 649.852 0.0915214 0.669776 0
M  V30 6673 H 652.406 0.905982 1.8434 0
M  V30 6674 H 650.636 -0.742451 3.79506 0
M  V30 6675 H 652.325 -0.401977 4.03905 0
M  V30 6676 H 653.091 2.05616 4.39257 0
M  V30 6677 H 648.97 0.83804 4.53319 0
M  V30 6678 H 652.514 4.10877 5.63761 0
M  V30 6679 H 648.411 2.88189 5.77596 0
M  V30 6680 H 649.179 4.76113 6.65777 0
M  V30 6681 N 651.842 -1.52309 0.404946 0
M  V30 6682 C 652.774 -2.24579 -0.45791 0
M  V30 6683 C 653.787 -1.2739 -1.01369 0
M  V30 6684 O 654.976 -1.53363 -0.91335 0
M  V30 6685 C 652.076 -2.9608 -1.64893 0
M  V30 6686 C 651.249 -4.20106 -1.21777 0
M  V30 6687 C 650.308 -4.74468 -2.27523 0
M  V30 6688 O 649.334 -5.37157 -1.88285 0
M  V30 6689 N 650.536 -4.55678 -3.59635 0
M  V30 6690 H 653.301 -2.99265 0.161341 0
M  V30 6691 H 650.862 -1.60228 0.232107 0
M  V30 6692 H 652.854 -3.29344 -2.35191 0
M  V30 6693 H 651.424 -2.24606 -2.17419 0
M  V30 6694 H 650.644 -3.92704 -0.343071 0
M  V30 6695 H 651.932 -5.00658 -0.906596 0
M  V30 6696 H 651.33 -4.05673 -3.94266 0
M  V30 6697 H 649.887 -4.9339 -4.25922 0
M  V30 6698 N 653.32 -0.135238 -1.57019 0
M  V30 6699 C 654.253 0.846618 -2.11914 0
M  V30 6700 C 655.231 1.25019 -1.03966 0
M  V30 6701 O 656.415 1.34838 -1.31723 0
M  V30 6702 C 653.542 2.1352 -2.6292 0
M  V30 6703 C 652.588 1.87846 -3.82905 0
M  V30 6704 S 653.421 1.08005 -5.24495 0
M  V30 6705 C 654.577 2.38008 -5.78881 0
M  V30 6706 H 654.81 0.379752 -2.94865 0
M  V30 6707 H 652.343 0.0788387 -1.54199 0
M  V30 6708 H 654.301 2.87551 -2.92958 0
M  V30 6709 H 652.962 2.57323 -1.80121 0
M  V30 6710 H 652.155 2.83365 -4.16797 0
M  V30 6711 H 651.757 1.21929 -3.53567 0
M  V30 6712 H 654.049 3.33742 -5.89595 0
M  V30 6713 H 654.992 2.08638 -6.76665 0
M  V30 6714 H 655.4 2.48119 -5.07048 0
M  V30 6715 N 654.798 1.5699 0.138552 0
M  V30 6716 C 655.761 1.97984 1.15478 0
M  V30 6717 C 656.761 0.867416 1.35398 0
M  V30 6718 O 657.951 1.13387 1.32246 0
M  V30 6719 C 655.083 2.3031 2.51337 0
M  V30 6720 H 656.276 2.88953 0.802896 0
M  V30 6721 H 653.829 1.51555 0.382189 0
M  V30 6722 H 654.564 1.42159 2.91481 0
M  V30 6723 H 654.349 3.11425 2.38237 0
M  V30 6724 H 655.839 2.62834 3.24512 0
M  V30 6725 N 656.276 -0.40816 1.52223 0
M  V30 6726 C 657.501 -1.18127 1.70472 0
M  V30 6727 C 657.926 -1.83491 0.41384 0
M  V30 6728 O 657.284 -1.70047 -0.628778 0
M  V30 6729 C 657.332 -2.21935 2.84213 0
M  V30 6730 O 656.436 -3.28099 2.4985 0
M  V30 6731 H 655.777 -0.344781 0.56747 0
M  V30 6732 H 658.307 -0.478328 1.9893 0
M  V30 6733 H 658.317 -2.66248 3.09153 0
M  V30 6734 H 656.992 -1.73744 3.7787 0
M  V30 6735 H 655.569 -2.89058 2.35584 0
M  V30 6736 N 657.755 -1.42862 -0.66545 0
M  V30 6737 C 658.983 -1.47246 -1.45349 0
M  V30 6738 C 659.398 -0.0865944 -1.88601 0
M  V30 6739 O 658.755 0.900652 -1.58728 0
M  V30 6740 C 658.806 -2.40772 -2.6965 0
M  V30 6741 O 658.527 -3.73968 -2.2821 0
M  V30 6742 C 660.028 -2.54272 -3.63126 0
M  V30 6743 H 657.248 -0.500497 -0.446927 0
M  V30 6744 H 659.792 -1.87477 -0.816871 0
M  V30 6745 H 657.947 -2.0377 -3.29479 0
M  V30 6746 H 658.361 -4.24146 -3.08546 0
M  V30 6747 H 659.835 -3.23815 -4.47043 0
M  V30 6748 H 660.312 -1.58364 -4.09656 0
M  V30 6749 H 660.918 -2.92036 -3.09185 0
M  V30 6750 N 659.233 0.902656 -1.29189 0
M  V30 6751 C 660.458 1.69167 -1.19989 0
M  V30 6752 C 660.883 1.86607 0.236495 0
M  V30 6753 O 660.241 1.38425 1.17082 0
M  V30 6754 C 660.289 3.05532 -1.91527 0
M  V30 6755 O 659.393 3.93621 -1.2303 0
M  V30 6756 H 658.734 0.517584 -0.415936 0
M  V30 6757 H 661.264 1.12785 -1.70706 0
M  V30 6758 H 661.274 3.55693 -1.99866 0
M  V30 6759 H 659.949 2.92156 -2.96003 0
M  V30 6760 H 658.526 3.52055 -1.22928 0
M  V30 6761 N 660.711 1.11618 1.11262 0
M  V30 6762 C 661.988 0.777876 1.79467 0
M  V30 6763 C 662.368 -0.733774 1.97937 0
M  V30 6764 O 661.716 -1.66443 1.56554 0
M  V30 6765 C 661.926 1.5431 3.13032 0
M  V30 6766 C 663.274 1.72357 3.88044 0
M  V30 6767 O 664.298 1.5075 3.22727 0
M  V30 6768 O 663.157 2.08276 5.05256 0
M  V30 6769 H 660.251 0.282018 0.777428 0
M  V30 6770 H 662.797 1.21971 1.17988 0
M  V30 6771 H 661.569 2.57132 2.94956 0
M  V30 6772 H 661.192 1.09495 3.82226 0
M  V30 6773 N 662.189 -1.289 0.906776 0
M  V30 6774 C 663.099 -2.31256 0.394707 0
M  V30 6775 C 664.115 -1.66231 -0.514121 0
M  V30 6776 O 665.291 -1.97347 -0.401994 0
M  V30 6777 C 662.356 -3.44792 -0.363191 0
M  V30 6778 C 661.417 -4.25391 0.578012 0
M  V30 6779 C 660.65 -5.33506 -0.143811 0
M  V30 6780 O 660.873 -5.53786 -1.36665 0
M  V30 6781 O 659.807 -5.99673 0.5173 0
M  V30 6782 H 663.633 -2.77051 1.24405 0
M  V30 6783 H 661.218 -1.33466 0.671346 0
M  V30 6784 H 663.1 -4.139 -0.791503 0
M  V30 6785 H 661.775 -3.01093 -1.18848 0
M  V30 6786 H 660.682 -3.58899 1.05558 0
M  V30 6787 H 662.015 -4.72752 1.36992 0
M  V30 6788 N 663.667 -0.670007 -1.42649 0
M  V30 6789 C 664.597 -0.00258501 -2.335 0
M  V30 6790 C 665.578 0.794364 -1.50412 0
M  V30 6791 O 666.763 0.75248 -1.79029 0
M  V30 6792 C 663.893 0.952748 -3.33976 0
M  V30 6793 C 662.847 0.264733 -4.2718 0
M  V30 6794 C 662.173 1.33267 -5.17826 0
M  V30 6795 C 663.473 -0.853289 -5.15283 0
M  V30 6796 H 665.167 -0.761326 -2.89559 0
M  V30 6797 H 662.713 -0.367561 -1.3923 0
M  V30 6798 H 664.666 1.4287 -3.96442 0
M  V30 6799 H 663.39 1.74285 -2.7621 0
M  V30 6800 H 662.049 -0.190938 -3.66102 0
M  V30 6801 H 661.697 2.11464 -4.5639 0
M  V30 6802 H 661.397 0.877476 -5.81011 0
M  V30 6803 H 662.921 1.80965 -5.83167 0
M  V30 6804 H 664.335 -0.458763 -5.71462 0
M  V30 6805 H 662.732 -1.23398 -5.87276 0
M  V30 6806 H 663.802 -1.70412 -4.53969 0
M  V30 6807 N 665.145 1.52092 -0.413018 0
M  V30 6808 C 666.422 1.94356 0.22024 0
M  V30 6809 C 666.802 1.35017 1.62277 0
M  V30 6810 O 666.15 0.527511 2.22328 0
M  V30 6811 C 666.36 3.48289 0.222638 0
M  V30 6812 C 667.708 4.22313 0.440098 0
M  V30 6813 O 668.732 3.54919 0.301826 0
M  V30 6814 O 667.591 5.41829 0.712984 0
M  V30 6815 H 664.685 0.814536 0.14304 0
M  V30 6816 H 667.231 1.63083 -0.469242 0
M  V30 6817 H 666.003 3.83872 -0.758836 0
M  V30 6818 H 665.626 3.85934 0.956057 0
M  V30 6819 N 666.623 0.143563 1.56945 0
M  V30 6820 C 668.034 -0.37783 1.82837 0
M  V30 6821 C 668.385 -1.64967 1.06209 0
M  V30 6822 O 667.51 -2.14221 0.306291 0
M  V30 6823 C 668.105 -0.692274 3.31652 0
M  V30 6824 C 666.664 -1.1582 3.58138 0
M  V30 6825 C 665.811 -0.17951 2.76718 0
M  V30 6826 H 668.762 0.368317 1.54367 0
M  V30 6827 H 668.783 -1.54729 3.47619 0
M  V30 6828 H 668.295 0.233572 3.87397 0
M  V30 6829 H 666.396 -2.10011 3.07776 0
M  V30 6830 H 666.509 -1.08655 4.66616 0
M  V30 6831 H 664.873 -0.671458 2.4569 0
M  V30 6832 H 665.656 0.739865 3.35233 0
M  V30 6833 N 668.101 -1.57061 -0.130224 0
M  V30 6834 C 669.064 -1.98593 -1.14426 0
M  V30 6835 C 670.064 -0.874584 -1.34936 0
M  V30 6836 O 671.254 -1.14086 -1.31643 0
M  V30 6837 C 668.386 -2.31639 -2.50112 0
M  V30 6838 H 669.579 -2.89374 -0.787561 0
M  V30 6839 H 667.132 -1.51756 -0.374146 0
M  V30 6840 H 667.867 -1.43703 -2.90723 0
M  V30 6841 H 667.652 -3.12684 -2.36583 0
M  V30 6842 H 669.142 -2.64551 -3.23114 0
M  V30 6843 N 669.579 0.400081 -1.52437 0
M  V30 6844 C 670.856 1.15973 -1.57511 0
M  V30 6845 C 671.236 2.0798 -0.361572 0
M  V30 6846 O 670.584 2.19032 0.650929 0
M  V30 6847 C 670.794 1.92912 -2.90837 0
M  V30 6848 C 672.142 2.48662 -3.44169 0
M  V30 6849 O 673.166 2.03081 -2.92637 0
M  V30 6850 O 672.025 3.31894 -4.34176 0
M  V30 6851 H 669.119 0.530023 -0.634827 0
M  V30 6852 H 671.665 0.40613 -1.64769 0
M  V30 6853 H 670.437 1.25564 -3.70607 0
M  V30 6854 H 670.06 2.75257 -2.86913 0
M  V30 6855 N 671.057 1.43213 0.657864 0
M  V30 6856 C 671.989 1.43974 1.78337 0
M  V30 6857 C 673.002 0.336482 1.59285 0
M  V30 6858 O 674.191 0.600631 1.68091 0
M  V30 6859 C 671.291 1.23242 3.15697 0
M  V30 6860 C 670.464 2.46319 3.61449 0
M  V30 6861 C 669.523 2.2088 4.77597 0
M  V30 6862 O 668.549 2.942 4.87273 0
M  V30 6863 N 669.751 1.22251 5.67481 0
M  V30 6864 H 672.516 2.40993 1.78164 0
M  V30 6865 H 670.077 1.3831 0.841549 0
M  V30 6866 H 672.069 1.04113 3.91079 0
M  V30 6867 H 670.639 0.346849 3.1067 0
M  V30 6868 H 669.859 2.80904 2.76563 0
M  V30 6869 H 671.147 3.28239 3.88763 0
M  V30 6870 H 670.545 0.616433 5.62331 0
M  V30 6871 H 669.102 1.09107 6.42603 0
M  V30 6872 N 672.536 -0.895792 1.29666 0
M  V30 6873 C 673.484 -2.02173 1.15017 0
M  V30 6874 C 674.478 -1.69276 0.0647651 0
M  V30 6875 O 675.684 -1.7859 0.224846 0
M  V30 6876 H 672.059 -0.662719 0.355397 0
M  V30 6877 H 674.03 -2.11666 2.10334 0
M  V30 6878 C 672.779 -3.37212 0.847555 0
M  V30 6879 H 672.102 -3.6303 1.67479 0
M  V30 6880 H 673.542 -4.16668 0.785106 0
M  V30 6881 C 672.001 -3.33891 -0.44929 0
M  V30 6882 O 672.531 -3.73673 -1.47415 0
M  V30 6883 N 670.737 -2.86991 -0.456547 0
M  V30 6884 H 670.284 -2.54813 0.377925 0
M  V30 6885 H 670.242 -2.85152 -1.32423 0
M  V30 6886 N 674.014 -1.12206 -1.10668 0
M  V30 6887 C 674.924 -0.800686 -2.20513 0
M  V30 6888 C 675.94 0.209512 -1.72734 0
M  V30 6889 O 677.116 0.043705 -2.01353 0
M  V30 6890 C 674.181 -0.257353 -3.45744 0
M  V30 6891 C 673.242 -1.32718 -4.0827 0
M  V30 6892 C 672.475 -0.809674 -5.27522 0
M  V30 6893 O 672.698 0.35742 -5.69279 0
M  V30 6894 O 671.632 -1.57816 -5.80842 0
M  V30 6895 H 675.458 -1.71807 -2.50432 0
M  V30 6896 H 673.043 -0.898546 -1.19359 0
M  V30 6897 H 674.925 0.0408849 -4.2138 0
M  V30 6898 H 673.6 0.632627 -3.17458 0
M  V30 6899 H 672.507 -1.67855 -3.34329 0
M  V30 6900 H 673.84 -2.19083 -4.40753 0
M  V30 6901 N 675.492 1.28418 -0.913599 0
M  V30 6902 C 676.422 2.29713 -0.418847 0
M  V30 6903 C 677.403 1.62165 0.513469 0
M  V30 6904 O 678.588 1.89576 0.421235 0
M  V30 6905 C 675.718 3.45612 0.342042 0
M  V30 6906 C 674.672 4.25056 -0.501123 0
M  V30 6907 C 673.998 5.3329 0.388097 0
M  V30 6908 C 675.298 4.91814 -1.75831 0
M  V30 6909 H 676.992 2.71346 -1.26538 0
M  V30 6910 H 674.538 1.30446 -0.609903 0
M  V30 6911 H 676.491 4.15562 0.699 0
M  V30 6912 H 675.215 3.02858 1.22248 0
M  V30 6913 H 673.874 3.56833 -0.840598 0
M  V30 6914 H 673.522 4.8678 1.26707 0
M  V30 6915 H 673.222 5.87347 -0.172459 0
M  V30 6916 H 674.746 6.06088 0.74094 0
M  V30 6917 H 676.16 5.54126 -1.47026 0
M  V30 6918 H 674.557 5.55866 -2.26126 0
M  V30 6919 H 675.627 4.16313 -2.4862 0
M  V30 6920 N 676.97 0.677563 1.42291 0
M  V30 6921 C 677.933 0.0101085 2.29198 0
M  V30 6922 C 678.933 -0.726219 1.43467 0
M  V30 6923 O 680.123 -0.563807 1.64824 0
M  V30 6924 C 677.255 -0.996316 3.26016 0
M  V30 6925 H 678.448 0.775071 2.89711 0
M  V30 6926 H 676.001 0.440065 1.49977 0
M  V30 6927 H 676.736 -1.78967 2.70446 0
M  V30 6928 H 676.521 -0.471687 3.89253 0
M  V30 6929 H 678.011 -1.46167 3.91184 0
M  V30 6930 N 678.448 -1.51871 0.421078 0
M  V30 6931 C 679.673 -2.0684 -0.152371 0
M  V30 6932 C 680.098 -1.28802 -1.37083 0
M  V30 6933 O 679.456 -0.321482 -1.78427 0
M  V30 6934 C 679.504 -3.57532 -0.469368 0
M  V30 6935 O 678.608 -3.81818 -1.55848 0
M  V30 6936 H 677.949 -0.663939 -0.00898586 0
M  V30 6937 H 680.479 -1.95674 0.597724 0
M  V30 6938 H 680.489 -4.01515 -0.724553 0
M  V30 6939 H 679.164 -4.13761 0.421276 0
M  V30 6940 H 677.741 -3.49709 -1.29453 0
M  V30 6941 N 679.926 -0.151884 -1.56866 0
M  V30 6942 C 681.154 0.504813 -2.00647 0
M  V30 6943 C 681.569 1.58098 -1.03201 0
M  V30 6944 O 680.926 1.82476 -0.0297814 0
M  V30 6945 C 680.977 1.10099 -3.44326 0
M  V30 6946 O 680.698 0.0678021 -4.38048 0
M  V30 6947 C 682.199 1.83782 -4.03409 0
M  V30 6948 H 679.419 0.130989 -0.65809 0
M  V30 6949 H 681.963 -0.247903 -2.02992 0
M  V30 6950 H 680.118 1.8043 -3.42817 0
M  V30 6951 H 680.532 0.505237 -5.22061 0
M  V30 6952 H 682.006 2.2078 -5.05925 0
M  V30 6953 H 682.483 2.72557 -3.44397 0
M  V30 6954 H 683.089 1.18138 -4.08563 0
M  V30 6955 N 681.404 1.57128 0.121893 0
M  V30 6956 C 682.352 2.01109 1.16868 0
M  V30 6957 C 683.346 0.907532 1.43039 0
M  V30 6958 O 684.552 1.09274 1.43036 0
M  V30 6959 H 680.927 0.640539 0.393971 0
M  V30 6960 H 682.898 2.88261 0.771224 0
M  V30 6961 C 681.647 2.42887 2.48799 0
M  V30 6962 H 680.97 3.2737 2.29498 0
M  V30 6963 H 682.41 2.77461 3.20611 0
M  V30 6964 C 680.869 1.29137 3.11168 0
M  V30 6965 O 681.399 0.605756 3.97106 0
M  V30 6966 N 679.605 1.04916 2.71 0
M  V30 6967 H 679.152 1.60848 2.01211 0
M  V30 6968 H 679.11 0.290016 3.1306 0
M  V30 6969 N 682.882 -0.391992 1.52647 0
M  V30 6970 C 684.159 -1.15136 1.58123 0
M  V30 6971 C 684.539 -2.07786 0.372597 0
M  V30 6972 O 683.887 -2.19374 -0.639304 0
M  V30 6973 C 684.097 -1.91367 2.91856 0
M  V30 6974 C 685.445 -2.46833 3.45483 0
M  V30 6975 O 686.469 -2.01527 2.9371 0
M  V30 6976 O 685.328 -3.29587 4.3593 0
M  V30 6977 H 682.422 -0.526649 0.637629 0
M  V30 6978 H 684.968 -0.397386 1.64982 0
M  V30 6979 H 683.74 -1.23597 3.71268 0
M  V30 6980 H 683.363 -2.73732 2.88369 0
M  V30 6981 N 684.36 -1.4356 -0.65026 0
M  V30 6982 C 685.585 -1.48995 -1.44275 0
M  V30 6983 C 686.01 -0.109954 -1.87778 0
M  V30 6984 O 685.368 0.896926 -1.57559 0
M  V30 6985 C 685.416 -2.44341 -2.65198 0
M  V30 6986 O 684.52 -1.93172 -3.6436 0
M  V30 6987 H 683.861 -0.503852 -0.432469 0
M  V30 6988 H 686.391 -1.88504 -0.795446 0
M  V30 6989 H 686.401 -2.61743 -3.12977 0
M  V30 6990 H 685.076 -3.44588 -2.32877 0
M  V30 6991 H 683.653 -1.85445 -3.23519 0
M  V30 6992 N 685.838 0.888903 -1.30139 0
M  V30 6993 C 686.77 1.99972 -1.11999 0
M  V30 6994 C 687.783 1.62673 -0.0643619 0
M  V30 6995 O 688.972 1.75788 -0.309983 0
M  V30 6996 C 686.072 3.31904 -0.685059 0
M  V30 6997 C 685.245 3.97665 -1.82158 0
M  V30 6998 C 684.304 5.07894 -1.37585 0
M  V30 6999 O 683.33 5.2974 -2.08241 0
M  V30 7000 N 684.532 5.7995 -0.252697 0
M  V30 7001 H 687.297 2.16085 -2.07671 0
M  V30 7002 H 684.858 1.06175 -1.22223 0
M  V30 7003 H 686.85 4.03005 -0.369964 0
M  V30 7004 H 685.42 3.12084 0.179507 0
M  V30 7005 H 684.64 3.19787 -2.305 0
M  V30 7006 H 685.928 4.3834 -2.58332 0
M  V30 7007 H 685.326 5.647 0.336141 0
M  V30 7008 H 683.883 6.518 0.00296813 0
M  V30 7009 N 687.317 1.12792 1.10072 0
M  V30 7010 C 688.247 0.821688 2.18565 0
M  V30 7011 C 689.228 -0.21612 1.68721 0
M  V30 7012 O 690.413 -0.0764932 1.94049 0
M  V30 7013 C 687.543 0.279624 3.46172 0
M  V30 7014 C 686.497 1.25092 4.09312 0
M  V30 7015 C 685.823 0.568916 5.31665 0
M  V30 7016 C 687.123 2.60699 4.52585 0
M  V30 7017 H 688.817 1.72888 2.44438 0
M  V30 7018 H 686.363 0.832702 1.17482 0
M  V30 7019 H 688.316 0.053099 4.21367 0
M  V30 7020 H 687.04 -0.662929 3.19801 0
M  V30 7021 H 685.699 1.46332 3.36129 0
M  V30 7022 H 685.347 -0.378898 5.01571 0
M  V30 7023 H 685.047 1.21687 5.74862 0
M  V30 7024 H 686.571 0.351517 6.09587 0
M  V30 7025 H 687.985 2.43465 5.19035 0
M  V30 7026 H 686.382 3.21608 5.06644 0
M  V30 7027 H 687.452 3.1886 3.65317 0
M  V30 7028 N 688.795 -1.27931 0.920396 0
M  V30 7029 C 690.043 -1.94304 0.555906 0
M  V30 7030 C 690.364 -1.72753 -0.904519 0
M  V30 7031 O 689.634 -1.07104 -1.64029 0
M  V30 7032 H 688.214 -0.719001 0.202599 0
M  V30 7033 H 690.876 -1.55785 1.1712 0
M  V30 7034 H 689.972 -3.02806 0.755981 0
M  V30 7035 N 690.273 -0.685099 -1.4193 0
M  V30 7036 C 691.52 -0.211658 -2.01391 0
M  V30 7037 C 691.848 1.18526 -1.54214 0
M  V30 7038 O 691.103 1.81189 -0.739519 0
M  V30 7039 C 691.402 -0.206154 -3.56805 0
M  V30 7040 C 691.068 -1.54915 -4.23453 0
M  V30 7041 C 689.73 -1.91684 -4.41373 0
M  V30 7042 C 692.082 -2.43317 -4.60919 0
M  V30 7043 C 689.41 -3.16461 -4.94034 0
M  V30 7044 C 691.762 -3.67415 -5.14965 0
M  V30 7045 C 690.426 -4.04341 -5.31098 0
M  V30 7046 H 689.696 -0.0774511 -0.736941 0
M  V30 7047 H 692.343 -0.882121 -1.69973 0
M  V30 7048 H 690.648 0.547841 -3.87951 0
M  V30 7049 H 692.345 0.17753 -4.00607 0
M  V30 7050 H 688.935 -1.25314 -4.09871 0
M  V30 7051 H 693.119 -2.16192 -4.46738 0
M  V30 7052 H 688.375 -3.45078 -5.04709 0
M  V30 7053 H 692.549 -4.3611 -5.42938 0
M  V30 7054 H 690.176 -5.01101 -5.71666 0
M  V30 7055 N 691.751 1.51645 -0.429126 0
M  V30 7056 C 692.681 2.30434 0.377148 0
M  V30 7057 C 693.662 1.35493 1.02838 0
M  V30 7058 O 694.847 1.6441 1.03359 0
M  V30 7059 C 691.977 3.14038 1.48315 0
M  V30 7060 C 690.931 4.1719 0.955855 0
M  V30 7061 C 690.257 4.89263 2.15698 0
M  V30 7062 C 691.557 5.223 -0.00402136 0
M  V30 7063 H 693.251 2.98085 -0.280336 0
M  V30 7064 H 690.797 1.43354 -0.136265 0
M  V30 7065 H 692.75 3.67933 2.05435 0
M  V30 7066 H 691.474 2.44193 2.16881 0
M  V30 7067 H 690.133 3.64335 0.406929 0
M  V30 7068 H 689.781 4.15929 2.82864 0
M  V30 7069 H 689.481 5.59009 1.81059 0
M  V30 7070 H 691.005 5.45978 2.73387 0
M  V30 7071 H 692.419 5.71315 0.476607 0
M  V30 7072 H 690.816 5.99525 -0.26258 0
M  V30 7073 H 691.886 4.75638 -0.943236 0
M  V30 7074 N 693.229 0.160201 1.56784 0
M  V30 7075 C 694.64 -0.358417 1.83227 0
M  V30 7076 C 694.991 -1.63831 1.07952 0
M  V30 7077 O 694.116 -2.13885 0.328995 0
M  V30 7078 C 694.711 -0.657058 3.32368 0
M  V30 7079 C 693.27 -1.12015 3.59346 0
M  V30 7080 C 692.417 -0.15015 2.76893 0
M  V30 7081 H 695.368 0.384669 1.53967 0
M  V30 7082 H 695.389 -1.51033 3.49241 0
M  V30 7083 H 694.901 0.274647 3.87127 0
M  V30 7084 H 693.002 -2.06734 3.09987 0
M  V30 7085 H 693.115 -1.037 4.67743 0
M  V30 7086 H 691.479 -0.645361 2.46388 0
M  V30 7087 H 692.262 0.775379 3.34429 0
M  V30 7088 N 694.707 -1.5719 -0.113559 0
M  V30 7089 C 695.617 -2.04041 -1.15777 0
M  V30 7090 C 696.633 -0.961812 -1.45001 0
M  V30 7091 O 697.809 -1.2737 -1.56009 0
M  V30 7092 C 694.874 -2.43994 -2.46308 0
M  V30 7093 C 693.935 -3.65962 -2.24433 0
M  V30 7094 C 693.168 -4.04 -3.4874 0
M  V30 7095 O 693.391 -3.42321 -4.56259 0
M  V30 7096 O 692.325 -4.97069 -3.3942 0
M  V30 7097 H 696.151 -2.93248 -0.789899 0
M  V30 7098 H 693.736 -1.45828 -0.324748 0
M  V30 7099 H 695.618 -2.70401 -3.23204 0
M  V30 7100 H 694.293 -1.57932 -2.82558 0
M  V30 7101 H 693.2 -3.44697 -1.45377 0
M  V30 7102 H 694.533 -4.52746 -1.93084 0
M  V30 7103 N 696.185 0.383891 -1.52853 0
M  V30 7104 C 697.148 1.45197 -1.77343 0
M  V30 7105 C 698.148 1.47362 -0.643522 0
M  V30 7106 O 699.338 1.48443 -0.911613 0
M  V30 7107 C 696.47 2.8445 -1.87885 0
M  V30 7108 H 697.663 1.24764 -2.72716 0
M  V30 7109 H 695.216 0.615939 -1.43652 0
M  V30 7110 H 695.951 3.10222 -0.94515 0
M  V30 7111 H 695.736 2.8428 -2.70051 0
M  V30 7112 H 697.226 3.61832 -2.08488 0
M  V30 7113 N 697.663 1.43903 0.642637 0
M  V30 7114 C 698.573 1.52349 1.78401 0
M  V30 7115 C 699.589 0.409869 1.69104 0
M  V30 7116 O 700.765 0.665548 1.90085 0
M  V30 7117 C 697.83 1.45408 3.14734 0
M  V30 7118 C 696.891 2.67528 3.35749 0
M  V30 7119 C 696.124 2.60909 4.65577 0
M  V30 7120 O 696.347 1.6627 5.45628 0
M  V30 7121 O 695.281 3.5158 4.88544 0
M  V30 7122 H 699.107 2.48752 1.7423 0
M  V30 7123 H 696.692 1.26021 0.802439 0
M  V30 7124 H 698.574 1.44019 3.96026 0
M  V30 7125 H 697.249 0.521437 3.19473 0
M  V30 7126 H 696.156 2.74487 2.5418 0
M  V30 7127 H 697.489 3.598 3.35864 0
M  V30 7128 N 699.141 -0.881989 1.30609 0
M  V30 7129 C 700.074 -1.99066 1.11571 0
M  V30 7130 C 701.052 -1.62584 0.022516 0
M  V30 7131 O 702.236 -1.87671 0.176644 0
M  V30 7132 C 699.363 -3.3134 0.702237 0
M  V30 7133 C 698.409 -3.86807 1.79673 0
M  V30 7134 S 699.242 -4.13735 3.39976 0
M  V30 7135 C 700.398 -5.49024 3.00538 0
M  V30 7136 H 700.631 -2.1491 2.05429 0
M  V30 7137 H 698.164 -1.03074 1.14957 0
M  V30 7138 H 700.122 -4.07796 0.470415 0
M  V30 7139 H 698.783 -3.13349 -0.217034 0
M  V30 7140 H 697.976 -4.82397 1.45977 0
M  V30 7141 H 697.578 -3.17102 1.98298 0
M  V30 7142 H 699.87 -6.30208 2.48684 0
M  V30 7143 H 700.813 -5.8766 3.95046 0
M  V30 7144 H 701.221 -5.11726 2.3832 0
M  V30 7145 N 700.619 -1.13374 -1.09472 0
M  V30 7146 C 701.866 -0.89519 -1.81639 0
M  V30 7147 C 702.194 0.57868 -1.85692 0
M  V30 7148 O 701.449 1.44426 -1.32059 0
M  V30 7149 C 701.748 -1.42759 -3.2765 0
M  V30 7150 C 701.414 -2.91822 -3.43731 0
M  V30 7151 C 700.076 -3.32521 -3.47827 0
M  V30 7152 C 702.428 -3.87727 -3.48307 0
M  V30 7153 C 699.756 -4.6781 -3.54078 0
M  V30 7154 C 702.108 -5.22859 -3.56091 0
M  V30 7155 C 700.772 -5.63086 -3.58456 0
M  V30 7156 H 700.042 -0.327573 -0.664663 0
M  V30 7157 H 702.689 -1.4156 -1.28969 0
M  V30 7158 H 700.994 -0.827871 -3.82954 0
M  V30 7159 H 702.691 -1.2191 -3.8202 0
M  V30 7160 H 699.281 -2.5935 -3.41226 0
M  V30 7161 H 703.465 -3.57371 -3.44383 0
M  V30 7162 H 698.721 -4.98353 -3.54195 0
M  V30 7163 H 702.895 -5.96989 -3.58577 0
M  V30 7164 H 700.522 -6.67905 -3.63052 0
M  V30 7165 N 702.098 1.27442 -0.927168 0
M  V30 7166 C 703.323 1.99036 -0.583042 0
M  V30 7167 C 703.748 1.68711 0.83176 0
M  V30 7168 O 703.106 0.927081 1.55804 0
M  V30 7169 C 703.154 3.51271 -0.814925 0
M  V30 7170 O 702.258 4.12226 0.119742 0
M  V30 7171 H 701.599 0.624883 -0.224538 0
M  V30 7172 H 704.129 1.62263 -1.24628 0
M  V30 7173 H 704.139 4.01411 -0.730282 0
M  V30 7174 H 702.814 3.72676 -1.84623 0
M  V30 7175 H 701.391 3.72897 -0.0147688 0
M  V30 7176 N 703.576 0.692616 1.41565 0
M  V30 7177 C 704.506 0.0397325 2.33466 0
M  V30 7178 C 705.487 -0.770334 1.51657 0
M  V30 7179 O 706.672 -0.723903 1.80203 0
M  V30 7180 C 703.802 -0.899495 3.3545 0
M  V30 7181 C 702.756 -0.196738 4.27548 0
M  V30 7182 C 702.082 -1.25012 5.19881 0
M  V30 7183 C 703.382 0.935158 5.1386 0
M  V30 7184 H 705.076 0.807296 2.88311 0
M  V30 7185 H 702.622 0.389665 1.38628 0
M  V30 7186 H 704.575 -1.36545 3.98665 0
M  V30 7187 H 703.299 -1.69869 2.78948 0
M  V30 7188 H 701.958 0.249158 3.65752 0
M  V30 7189 H 701.606 -2.04177 4.59696 0
M  V30 7190 H 701.306 -0.784931 5.82334 0
M  V30 7191 H 702.83 -1.71665 5.85972 0
M  V30 7192 H 704.244 0.549619 5.70659 0
M  V30 7193 H 702.641 1.32726 5.85238 0
M  V30 7194 H 703.711 1.77613 4.512 0
M  V30 7195 N 705.054 -1.51416 0.437162 0
M  V30 7196 C 706.001 -2.27743 -0.374374 0
M  V30 7197 C 706.971 -1.31327 -1.01698 0
M  V30 7198 O 708.156 -1.60229 -1.03592 0
M  V30 7199 C 705.296 -3.12241 -1.46969 0
M  V30 7200 C 704.409 -4.23651 -0.845236 0
M  V30 7201 C 703.544 -4.95458 -1.91559 0
M  V30 7202 C 702.583 -5.98789 -1.26956 0
M  V30 7203 N 701.72 -6.64005 -2.28126 0
M  V30 7204 H 706.56 -2.96654 0.282892 0
M  V30 7205 H 704.097 -1.46319 0.151352 0
M  V30 7206 H 706.055 -3.59556 -2.11602 0
M  V30 7207 H 704.685 -2.45445 -2.09659 0
M  V30 7208 H 703.737 -3.803 -0.0872059 0
M  V30 7209 H 705.049 -4.97683 -0.333582 0
M  V30 7210 H 704.203 -5.46321 -2.63854 0
M  V30 7211 H 702.942 -4.21055 -2.46097 0
M  V30 7212 H 701.947 -5.47219 -0.53207 0
M  V30 7213 H 703.172 -6.75149 -0.731509 0
M  V30 7214 H 701.118 -5.92415 -2.81745 0
M  V30 7215 H 701.035 -7.33802 -1.81852 0
M  V30 7216 H 702.303 -7.19498 -2.99905 0
M  V30 7217 N 706.532 -0.168513 -1.56696 0
M  V30 7218 C 707.76 0.483503 -2.01171 0
M  V30 7219 C 708.175 1.56994 -1.04872 0
M  V30 7220 O 707.532 1.82434 -0.0491337 0
M  V30 7221 C 707.583 1.0644 -3.45475 0
M  V30 7222 O 707.304 0.0213375 -4.38095 0
M  V30 7223 C 708.805 1.79493 -4.05336 0
M  V30 7224 H 706.025 0.124002 -0.659443 0
M  V30 7225 H 708.569 -0.269419 -2.02717 0
M  V30 7226 H 706.724 1.76784 -3.44712 0
M  V30 7227 H 707.138 0.449837 -5.22567 0
M  V30 7228 H 708.612 2.15401 -5.08238 0
M  V30 7229 H 709.089 2.68889 -3.47269 0
M  V30 7230 H 709.695 1.13798 -4.09793 0
M  V30 7231 N 708.01 1.57248 0.105221 0
M  V30 7232 C 709.259 1.84756 0.809198 0
M  V30 7233 C 709.572 0.756262 1.80389 0
M  V30 7234 O 710.778 0.918158 2.55504 0
M  V30 7235 C 709.234 3.27613 1.48989 0
M  V30 7236 C 708.842 4.44788 0.535484 0
M  V30 7237 C 710.586 3.64356 2.17819 0
M  V30 7238 C 708.493 5.78676 1.22019 0
M  V30 7239 H 707.423 0.689139 0.305946 0
M  V30 7240 H 710.074 1.83395 0.0620371 0
M  V30 7241 H 708.456 3.23485 2.28415 0
M  V30 7242 H 709.63 4.60243 -0.226557 0
M  V30 7243 H 707.945 4.16374 -0.0465769 0
M  V30 7244 H 710.542 4.61663 2.69761 0
M  V30 7245 H 710.885 2.92474 2.96251 0
M  V30 7246 H 711.418 3.70328 1.45264 0
M  V30 7247 H 708.157 6.53763 0.476875 0
M  V30 7248 H 707.677 5.67083 1.9539 0
M  V30 7249 H 709.356 6.22897 1.74952 0
M  V30 7250 N 709.488 -0.375779 1.53054 0
M  V30 7251 C 710.418 -1.46598 1.81745 0
M  V30 7252 C 711.399 -1.56337 0.670286 0
M  V30 7253 O 712.584 -1.71071 0.919158 0
M  V30 7254 C 709.714 -2.84058 1.99821 0
M  V30 7255 C 708.668 -2.8915 3.15557 0
M  V30 7256 C 707.994 -4.29187 3.18908 0
M  V30 7257 C 709.294 -2.57595 4.54359 0
M  V30 7258 H 710.988 -1.22837 2.73041 0
M  V30 7259 H 708.534 -0.589485 1.31381 0
M  V30 7260 H 710.487 -3.60342 2.18475 0
M  V30 7261 H 709.211 -3.09184 1.05226 0
M  V30 7262 H 707.87 -2.15316 2.96706 0
M  V30 7263 H 707.518 -4.51374 2.2197 0
M  V30 7264 H 707.218 -4.33512 3.96662 0
M  V30 7265 H 708.742 -5.07359 3.39734 0
M  V30 7266 H 710.156 -3.23595 4.73243 0
M  V30 7267 H 708.553 -2.73252 5.34279 0
M  V30 7268 H 709.623 -1.52882 4.60169 0
M  V30 7269 N 710.966 -1.44241 -0.634997 0
M  V30 7270 C 712.191 -1.50516 -1.42687 0
M  V30 7271 C 712.616 -0.129864 -1.87651 0
M  V30 7272 O 711.974 0.880164 -1.58502 0
M  V30 7273 C 712.022 -2.4714 -2.62591 0
M  V30 7274 O 711.126 -1.97025 -3.62291 0
M  V30 7275 H 710.467 -0.50841 -0.427101 0
M  V30 7276 H 712.997 -1.89337 -0.775408 0
M  V30 7277 H 713.007 -2.65048 -3.10183 0
M  V30 7278 H 711.682 -3.47039 -2.29209 0
M  V30 7279 H 710.259 -1.88866 -3.21534 0
M  V30 7280 N 712.444 0.87505 -1.31075 0
M  V30 7281 C 713.855 1.4433 -1.18431 0
M  V30 7282 C 714.206 1.9506 0.211189 0
M  V30 7283 O 713.331 1.85847 1.10859 0
M  V30 7284 C 713.926 2.62341 -2.14389 0
M  V30 7285 C 712.485 3.15225 -2.05694 0
M  V30 7286 C 711.632 1.87929 -2.03907 0
M  V30 7287 H 714.583 0.684061 -1.432 0
M  V30 7288 H 714.604 3.3887 -1.73053 0
M  V30 7289 H 714.116 2.25388 -3.15946 0
M  V30 7290 H 712.217 3.56812 -1.07314 0
M  V30 7291 H 712.33 3.77853 -2.94558 0
M  V30 7292 H 710.694 2.06679 -1.48849 0
M  V30 7293 H 711.477 1.53221 -3.07211 0
M  V30 7294 N 713.922 1.13953 1.08869 0
M  V30 7295 C 714.869 0.82213 2.15661 0
M  V30 7296 C 715.839 -0.218274 1.6466 0
M  V30 7297 O 717.024 -0.0892475 1.90591 0
M  V30 7298 C 714.164 0.300572 3.43789 0
M  V30 7299 C 713.277 1.40071 4.08661 0
M  V30 7300 C 712.412 0.836897 5.24566 0
M  V30 7301 C 711.451 1.91504 5.81371 0
M  V30 7302 N 710.588 1.36875 6.88629 0
M  V30 7303 H 715.428 1.73683 2.42153 0
M  V30 7304 H 712.965 0.866879 1.18843 0
M  V30 7305 H 714.923 -0.0199943 4.17195 0
M  V30 7306 H 713.553 -0.577248 3.17597 0
M  V30 7307 H 712.605 1.83776 3.33062 0
M  V30 7308 H 713.917 2.21534 4.46905 0
M  V30 7309 H 713.071 0.467953 6.04893 0
M  V30 7310 H 711.81 -0.00874207 4.87699 0
M  V30 7311 H 710.815 2.29299 4.99702 0
M  V30 7312 H 712.04 2.76419 6.20298 0
M  V30 7313 H 709.986 0.545211 6.5373 0
M  V30 7314 H 709.903 2.1198 7.25672 0
M  V30 7315 H 711.171 1.02756 7.72698 0
M  V30 7316 N 715.4 -1.26948 0.933913 0
M  V30 7317 C 716.348 -2.2862 0.428463 0
M  V30 7318 C 717.342 -1.62144 -0.490464 0
M  V30 7319 O 718.548 -1.76167 -0.36948 0
M  V30 7320 H 714.923 -0.742363 0.120003 0
M  V30 7321 H 716.894 -2.68659 1.29865 0
M  V30 7322 C 715.643 -3.46423 -0.29774 0
M  V30 7323 H 714.966 -3.97792 0.400183 0
M  V30 7324 H 716.406 -4.19505 -0.615736 0
M  V30 7325 C 714.865 -3.01017 -1.51295 0
M  V30 7326 O 715.395 -3.05226 -2.61151 0
M  V30 7327 N 713.601 -2.56442 -1.36696 0
M  V30 7328 H 713.148 -2.53217 -0.473178 0
M  V30 7329 H 713.106 -2.26424 -2.18127 0
M  V30 7330 N 716.879 -0.700114 -1.41195 0
M  V30 7331 C 717.812 0.0129614 -2.28196 0
M  V30 7332 C 718.79 0.783367 -1.42486 0
M  V30 7333 O 719.974 0.773238 -1.71911 0
M  V30 7334 C 717.101 1.02575 -3.22794 0
M  V30 7335 C 716.147 0.347977 -4.25078 0
M  V30 7336 S 716.98 -0.912938 -5.27661 0
M  V30 7337 C 718.136 0.0981362 -6.25823 0
M  V30 7338 H 718.369 -0.724927 -2.88326 0
M  V30 7339 H 715.902 -0.490554 -1.464 0
M  V30 7340 H 717.86 1.60491 -3.77826 0
M  V30 7341 H 716.521 1.73624 -2.61751 0
M  V30 7342 H 715.714 1.11305 -4.91556 0
M  V30 7343 H 715.316 -0.15823 -3.73665 0
M  V30 7344 H 717.608 0.949965 -6.70807 0
M  V30 7345 H 718.551 -0.532838 -7.06092 0
M  V30 7346 H 718.959 0.454944 -5.62664 0
M  V30 7347 N 718.357 1.51182 -0.445186 0
M  V30 7348 C 719.267 2.31692 0.368255 0
M  V30 7349 C 720.283 1.40942 1.02036 0
M  V30 7350 O 721.459 1.74011 1.01401 0
M  V30 7351 C 718.524 3.14903 1.45041 0
M  V30 7352 C 717.585 4.21442 0.817615 0
M  V30 7353 C 716.818 5.00677 1.8482 0
M  V30 7354 O 717.041 4.80644 3.07145 0
M  V30 7355 O 715.975 5.84559 1.43438 0
M  V30 7356 H 719.801 3.0232 -0.289219 0
M  V30 7357 H 717.386 1.47951 -0.207555 0
M  V30 7358 H 719.268 3.66612 2.07783 0
M  V30 7359 H 717.943 2.47031 2.09182 0
M  V30 7360 H 716.85 3.73791 0.151931 0
M  V30 7361 H 718.183 4.9171 0.219564 0
M  V30 7362 N 719.835 0.176821 1.56605 0
M  V30 7363 C 721.246 -0.338963 1.83597 0
M  V30 7364 C 721.597 -1.62677 1.09684 0
M  V30 7365 O 720.722 -2.13524 0.351661 0
M  V30 7366 C 721.317 -0.62177 3.33046 0
M  V30 7367 C 719.876 -1.08198 3.60514 0
M  V30 7368 C 719.023 -0.120774 2.77037 0
M  V30 7369 H 721.974 0.400978 1.53551 0
M  V30 7370 H 721.995 -1.47321 3.50823 0
M  V30 7371 H 721.507 0.315692 3.86814 0
M  V30 7372 H 719.608 -2.03435 3.12162 0
M  V30 7373 H 719.721 -0.987329 4.68816 0
M  V30 7374 H 718.085 -0.619192 2.47059 0
M  V30 7375 H 718.868 0.810806 3.33588 0
M  V30 7376 N 721.313 -1.57302 -0.09688 0
M  V30 7377 C 722.538 -1.9058 -0.818169 0
M  V30 7378 C 722.963 -0.770921 -1.71576 0
M  V30 7379 O 722.321 0.277588 -1.79162 0
M  V30 7380 C 722.369 -3.22714 -1.60898 0
M  V30 7381 O 721.473 -3.10178 -2.71779 0
M  V30 7382 H 720.814 -0.624759 -0.224882 0
M  V30 7383 H 723.344 -2.04471 -0.07264 0
M  V30 7384 H 723.354 -3.55978 -1.99358 0
M  V30 7385 H 722.029 -4.04899 -0.950227 0
M  V30 7386 H 720.606 -2.88424 -2.3636 0
M  V30 7387 N 722.791 0.367657 -1.53252 0
M  V30 7388 C 723.738 1.45028 -1.79543 0
M  V30 7389 C 724.708 1.53288 -0.63969 0
M  V30 7390 O 725.893 1.69209 -0.881653 0
M  V30 7391 C 723.033 2.82 -1.98923 0
M  V30 7392 C 722.146 2.82722 -3.26638 0
M  V30 7393 C 721.281 4.11257 -3.36216 0
M  V30 7394 C 720.32 4.06113 -4.57972 0
M  V30 7395 N 719.457 5.26293 -4.64715 0
M  V30 7396 H 724.297 1.21908 -2.71923 0
M  V30 7397 H 721.834 0.591011 -1.34705 0
M  V30 7398 H 723.792 3.61568 -2.08146 0
M  V30 7399 H 722.422 3.03523 -1.09881 0
M  V30 7400 H 721.474 1.95399 -3.26379 0
M  V30 7401 H 722.786 2.74794 -4.16281 0
M  V30 7402 H 721.94 4.99239 -3.44739 0
M  V30 7403 H 720.679 4.21935 -2.44586 0
M  V30 7404 H 719.684 3.16517 -4.49552 0
M  V30 7405 H 720.909 3.97039 -5.50942 0
M  V30 7406 H 718.855 5.37561 -3.75985 0
M  V30 7407 H 718.772 5.20526 -5.4826 0
M  V30 7408 H 720.04 6.16113 -4.77519 0
M  V30 7409 N 724.269 1.44576 0.627338 0
M  V30 7410 C 725.518 1.46837 1.38281 0
M  V30 7411 C 725.831 0.10635 1.95311 0
M  V30 7412 O 727.037 0.00651084 2.71499 0
M  V30 7413 C 725.493 2.58527 2.50384 0
M  V30 7414 C 725.101 4.00953 1.99851 0
M  V30 7415 C 726.845 2.70013 3.27557 0
M  V30 7416 C 724.752 5.0406 3.09318 0
M  V30 7417 H 723.682 0.546319 0.519664 0
M  V30 7418 H 726.333 1.70654 0.674497 0
M  V30 7419 H 724.715 2.27957 3.23808 0
M  V30 7420 H 725.889 4.41108 1.33267 0
M  V30 7421 H 724.204 3.93743 1.35482 0
M  V30 7422 H 726.801 3.44217 4.09168 0
M  V30 7423 H 727.144 1.75961 3.77284 0
M  V30 7424 H 727.677 3.00011 2.61224 0
M  V30 7425 H 724.416 5.99753 2.6453 0
M  V30 7426 H 723.936 4.68493 3.74532 0
M  V30 7427 H 725.615 5.2793 3.74031 0
M  V30 7428 N 725.747 -0.868086 1.31537 0
M  V30 7429 C 726.972 -1.65926 1.24432 0
M  V30 7430 C 727.397 -1.87169 -0.186936 0
M  V30 7431 O 726.755 -1.4148 -1.13371 0
M  V30 7432 C 726.803 -3.00347 1.9956 0
M  V30 7433 O 725.907 -3.90221 1.33422 0
M  V30 7434 H 725.248 -0.506375 0.429512 0
M  V30 7435 H 727.778 -1.0822 1.73637 0
M  V30 7436 H 727.788 -3.50269 2.09226 0
M  V30 7437 H 726.463 -2.84205 3.03645 0
M  V30 7438 H 725.04 -3.48672 1.32219 0
M  V30 7439 N 727.225 -1.14528 -1.08264 0
M  V30 7440 C 728.473 -0.912599 -1.80322 0
M  V30 7441 C 728.794 0.562256 -1.86718 0
M  V30 7442 O 728.064 1.40869 -1.36135 0
M  V30 7443 H 726.644 -0.334645 -0.667849 0
M  V30 7444 H 729.306 -1.44415 -1.30883 0
M  V30 7445 H 728.402 -1.31384 -2.83098 0
M  V30 7446 N 728.703 1.26451 -0.940633 0
M  V30 7447 C 729.633 2.28773 -0.467479 0
M  V30 7448 C 730.614 1.63218 0.478955 0
M  V30 7449 O 731.799 1.90427 0.380929 0
M  V30 7450 C 728.929 3.46259 0.268656 0
M  V30 7451 C 727.883 4.23898 -0.591171 0
M  V30 7452 C 727.209 5.33993 0.274891 0
M  V30 7453 C 728.509 4.87974 -1.86223 0
M  V30 7454 H 730.203 2.68601 -1.32265 0
M  V30 7455 H 727.749 1.29123 -0.637436 0
M  V30 7456 H 729.702 4.16951 0.610696 0
M  V30 7457 H 728.426 3.05383 1.15796 0
M  V30 7458 H 727.085 3.54969 -0.916098 0
M  V30 7459 H 726.733 4.89358 1.16353 0
M  V30 7460 H 726.433 5.86849 -0.297006 0
M  V30 7461 H 727.957 6.07523 0.612213 0
M  V30 7462 H 729.371 5.50883 -1.58747 0
M  V30 7463 H 727.768 5.50945 -2.37866 0
M  V30 7464 H 728.838 4.10945 -2.57394 0
M  V30 7465 N 730.181 0.707592 1.40822 0
M  V30 7466 C 731.43 0.240705 2.00259 0
M  V30 7467 C 731.743 -1.17027 1.56729 0
M  V30 7468 O 732.949 -1.73526 2.08809 0
M  V30 7469 C 731.405 0.379432 3.57894 0
M  V30 7470 C 731.013 1.79654 4.104 0
M  V30 7471 C 732.757 -0.0270684 4.24491 0
M  V30 7472 C 730.664 1.88628 5.60512 0
M  V30 7473 H 729.594 0.0862369 0.749052 0
M  V30 7474 H 732.245 0.877528 1.61157 0
M  V30 7475 H 730.627 -0.325842 3.94657 0
M  V30 7476 H 731.801 2.53155 3.85032 0
M  V30 7477 H 730.116 2.15379 3.56372 0
M  V30 7478 H 732.713 0.0193743 5.34696 0
M  V30 7479 H 733.056 -1.06772 4.02375 0
M  V30 7480 H 733.589 0.628361 3.92806 0
M  V30 7481 H 730.328 2.90787 5.87472 0
M  V30 7482 H 729.848 1.19528 5.8777 0
M  V30 7483 H 731.527 1.6547 6.25483 0
M  V30 7484 N 731.66 -1.50943 0.453197 0
M  V30 7485 C 732.906 -2.02512 -0.108082 0
M  V30 7486 C 733.239 -1.33574 -1.40967 0
M  V30 7487 O 732.514 -0.455671 -1.89087 0
M  V30 7488 C 732.797 -3.58759 -0.310453 0
M  V30 7489 C 732.65 -4.38293 1.0109 0
M  V30 7490 C 733.969 -4.26816 -1.07313 0
M  V30 7491 H 731.088 -0.73603 -0.0378064 0
M  V30 7492 H 733.73 -1.80433 0.595295 0
M  V30 7493 H 731.88 -3.77702 -0.909582 0
M  V30 7494 H 733.552 -4.30964 1.64523 0
M  V30 7495 H 731.795 -4.02745 1.61179 0
M  V30 7496 H 732.466 -5.45828 0.82315 0
M  V30 7497 H 734.942 -4.1224 -0.565473 0
M  V30 7498 H 733.818 -5.35989 -1.1835 0
M  V30 7499 H 734.079 -3.88757 -2.10525 0
M  V30 7500 N 733.138 -0.185124 -1.56509 0
M  V30 7501 C 734.086 0.756505 -2.19954 0
M  V30 7502 C 735.08 1.22725 -1.16769 0
M  V30 7503 O 736.286 1.1913 -1.34937 0
M  V30 7504 H 732.661 0.262279 -0.704779 0
M  V30 7505 H 734.632 0.197587 -2.97745 0
M  V30 7506 C 733.381 1.96975 -2.86524 0
M  V30 7507 H 732.704 1.61658 -3.65659 0
M  V30 7508 H 734.144 2.60719 -3.34367 0
M  V30 7509 C 732.603 2.80219 -1.87027 0
M  V30 7510 O 733.133 3.77821 -1.36433 0
M  V30 7511 N 731.339 2.4551 -1.55477 0
M  V30 7512 H 730.886 1.66199 -1.96813 0
M  V30 7513 H 730.844 3.01493 -0.891597 0
M  V30 7514 N 734.616 1.57351 0.0885366 0
M  V30 7515 C 735.865 1.85604 0.789556 0
M  V30 7516 C 736.178 0.775352 1.79576 0
M  V30 7517 O 737.384 0.945206 2.54515 0
M  V30 7518 C 735.84 3.29175 1.45506 0
M  V30 7519 C 735.448 4.45331 0.488278 0
M  V30 7520 C 737.192 3.66646 2.13942 0
M  V30 7521 C 735.099 5.79937 1.15874 0
M  V30 7522 H 734.029 0.692346 0.298619 0
M  V30 7523 H 736.68 1.83451 0.0425821 0
M  V30 7524 H 735.062 3.25889 2.24972 0
M  V30 7525 H 736.236 4.59977 -0.275359 0
M  V30 7526 H 734.551 4.16301 -0.0907363 0
M  V30 7527 H 737.148 4.64498 2.6485 0
M  V30 7528 H 737.491 2.956 2.93132 0
M  V30 7529 H 738.024 3.71848 1.41328 0
M  V30 7530 H 734.763 6.54232 0.407508 0
M  V30 7531 H 734.283 5.69123 1.89364 0
M  V30 7532 H 735.962 6.24718 1.68336 0
M  V30 7533 N 736.094 -0.359525 1.53444 0
M  V30 7534 C 737.319 -1.12644 1.74144 0
M  V30 7535 C 737.744 -1.82082 0.472007 0
M  V30 7536 O 737.102 -1.71962 -0.57436 0
M  V30 7537 C 737.15 -2.12781 2.9113 0
M  V30 7538 O 736.254 -3.19984 2.60162 0
M  V30 7539 H 735.595 -0.326553 0.578152 0
M  V30 7540 H 738.125 -0.414798 2.00351 0
M  V30 7541 H 738.135 -2.56278 3.17467 0
M  V30 7542 H 736.81 -1.61634 3.83207 0
M  V30 7543 H 735.387 -2.81417 2.44661 0
M  V30 7544 N 737.572 -1.44907 -0.619662 0
M  V30 7545 C 738.8 -1.51795 -1.40591 0
M  V30 7546 C 739.215 -0.146553 -1.8823 0
M  V30 7547 O 738.572 0.849698 -1.61513 0
M  V30 7548 C 738.623 -2.49229 -2.61853 0
M  V30 7549 O 738.344 -3.81039 -2.16197 0
M  V30 7550 C 739.845 -2.65696 -3.54853 0
M  V30 7551 H 737.065 -0.514463 -0.430777 0
M  V30 7552 H 739.609 -1.8998 -0.756813 0
M  V30 7553 H 737.764 -2.14149 -3.2283 0
M  V30 7554 H 738.178 -4.33747 -2.94896 0
M  V30 7555 H 739.652 -3.37874 -4.36515 0
M  V30 7556 H 740.129 -1.71316 -4.0441 0
M  V30 7557 H 740.735 -3.01724 -2.99737 0
M  V30 7558 N 739.05 0.861098 -1.31996 0
M  V30 7559 C 740.275 1.65264 -1.2531 0
M  V30 7560 C 740.7 1.87265 0.177007 0
M  V30 7561 O 740.058 1.4208 1.12619 0
M  V30 7562 C 740.106 2.99284 -2.0115 0
M  V30 7563 O 739.21 3.89508 -1.3549 0
M  V30 7564 H 738.551 0.50409 -0.432192 0
M  V30 7565 H 741.081 1.07297 -1.74208 0
M  V30 7566 H 741.091 3.49154 -2.11081 0
M  V30 7567 H 739.766 2.82591 -3.05148 0
M  V30 7568 H 738.343 3.47966 -1.34066 0
M  V30 7569 N 740.528 1.15101 1.07655 0
M  V30 7570 C 741.458 0.867864 2.16773 0
M  V30 7571 C 742.439 -0.180283 1.69142 0
M  V30 7572 O 743.624 -0.0353152 1.94168 0
M  V30 7573 C 740.754 0.35299 3.45501 0
M  V30 7574 C 739.708 1.33746 4.06566 0
M  V30 7575 C 739.034 0.681562 5.30338 0
M  V30 7576 C 740.334 2.7024 4.46954 0
M  V30 7577 H 742.028 1.78034 2.40716 0
M  V30 7578 H 739.574 0.857435 1.15689 0
M  V30 7579 H 741.527 0.142465 4.21159 0
M  V30 7580 H 740.251 -0.594945 3.21135 0
M  V30 7581 H 738.91 1.53429 3.32949 0
M  V30 7582 H 738.558 -0.272422 5.02262 0
M  V30 7583 H 738.258 1.33853 5.72151 0
M  V30 7584 H 739.782 0.48074 6.08705 0
M  V30 7585 H 741.196 2.5442 5.13754 0
M  V30 7586 H 739.593 3.32282 4.99709 0
M  V30 7587 H 740.663 3.26537 3.58471 0
M  V30 7588 N 742.006 -1.2595 0.947325 0
M  V30 7589 C 743.255 -1.92759 0.593887 0
M  V30 7590 C 743.568 -1.75083 -0.872093 0
M  V30 7591 O 744.774 -2.36401 -1.33518 0
M  V30 7592 C 743.23 -3.45395 1.01144 0
M  V30 7593 C 742.838 -3.71795 2.49946 0
M  V30 7594 C 744.582 -4.18173 0.730185 0
M  V30 7595 C 742.489 -5.17901 2.85539 0
M  V30 7596 H 741.419 -0.721676 0.218403 0
M  V30 7597 H 744.07 -1.4293 1.15079 0
M  V30 7598 H 742.452 -3.94143 0.383007 0
M  V30 7599 H 743.626 -3.33728 3.17746 0
M  V30 7600 H 741.941 -3.12263 2.75465 0
M  V30 7601 H 744.538 -5.25784 0.972367 0
M  V30 7602 H 744.881 -4.14964 -0.333223 0
M  V30 7603 H 745.414 -3.75309 1.31862 0
M  V30 7604 H 742.153 -5.26216 3.90867 0
M  V30 7605 H 741.673 -5.57042 2.22406 0
M  V30 7606 H 743.352 -5.8596 2.74336 0
M  V30 7607 N 743.484 -0.715051 -1.40445 0
M  V30 7608 C 744.447 -0.0708726 -2.2909 0
M  V30 7609 C 745.447 0.687926 -1.45342 0
M  V30 7610 O 746.637 0.519908 -1.66261 0
M  V30 7611 C 743.769 0.909528 -3.28543 0
M  V30 7612 H 744.962 -0.851611 -2.87555 0
M  V30 7613 H 742.515 -0.479674 -1.48758 0
M  V30 7614 H 743.25 1.71734 -2.75096 0
M  V30 7615 H 743.035 0.368318 -3.90366 0
M  V30 7616 H 744.525 1.35744 -3.94922 0
M  V30 7617 N 744.962 1.50701 -0.461195 0
M  V30 7618 C 746.208 2.02566 0.0973411 0
M  V30 7619 C 746.541 1.3432 1.40257 0
M  V30 7620 O 745.816 0.465692 1.88843 0
M  V30 7621 C 746.099 3.58919 0.291423 0
M  V30 7622 C 745.952 4.37751 -1.03413 0
M  V30 7623 C 747.271 4.27379 1.05048 0
M  V30 7624 H 744.39 0.73622 0.0339026 0
M  V30 7625 H 747.032 1.80115 -0.604855 0
M  V30 7626 H 745.182 3.78179 0.889539 0
M  V30 7627 H 746.854 4.30085 -1.66806 0
M  V30 7628 H 745.097 4.01885 -1.63313 0
M  V30 7629 H 745.768 5.45384 -0.852085 0
M  V30 7630 H 748.244 4.12534 0.543603 0
M  V30 7631 H 747.12 5.36609 1.15506 0
M  V30 7632 H 747.381 3.89868 2.0846 0
M  V30 7633 N 746.441 0.193421 1.56409 0
M  V30 7634 C 747.371 -0.723334 2.22014 0
M  V30 7635 C 748.352 -1.22254 1.1827 0
M  V30 7636 O 749.537 -1.27168 1.46771 0
M  V30 7637 C 746.667 -1.94366 2.87818 0
M  V30 7638 C 745.621 -1.57943 3.97791 0
M  V30 7639 C 744.947 -2.87623 4.50752 0
M  V30 7640 C 746.247 -0.790639 5.16281 0
M  V30 7641 H 747.941 -0.176426 2.9888 0
M  V30 7642 H 745.487 -0.0834166 1.43758 0
M  V30 7643 H 747.44 -2.5902 3.32396 0
M  V30 7644 H 746.164 -2.51507 2.08355 0
M  V30 7645 H 744.823 -0.956482 3.53903 0
M  V30 7646 H 744.471 -3.4285 3.68053 0
M  V30 7647 H 744.171 -2.63998 5.24956 0
M  V30 7648 H 745.695 -3.53268 4.9803 0
M  V30 7649 H 747.109 -1.34024 5.57414 0
M  V30 7650 H 745.506 -0.65258 5.96541 0
M  V30 7651 H 746.576 0.208633 4.84451 0
M  V30 7652 N 747.919 -1.57396 -0.0801906 0
M  V30 7653 C 749.168 -1.8602 -0.779702 0
M  V30 7654 C 749.481 -0.784864 -1.79163 0
M  V30 7655 O 750.687 -0.958691 -2.54011 0
M  V30 7656 C 749.143 -3.29942 -1.43758 0
M  V30 7657 C 748.751 -4.45584 -0.464654 0
M  V30 7658 C 750.495 -3.67775 -2.11995 0
M  V30 7659 C 748.402 -5.80544 -1.12797 0
M  V30 7660 H 747.332 -0.69392 -0.294943 0
M  V30 7661 H 749.983 -1.83471 -0.0328527 0
M  V30 7662 H 748.365 -3.27078 -2.2324 0
M  V30 7663 H 749.539 -4.59824 0.299749 0
M  V30 7664 H 747.854 -4.16247 0.112813 0
M  V30 7665 H 750.451 -4.65896 -2.62383 0
M  V30 7666 H 750.794 -2.9715 -2.91561 0
M  V30 7667 H 751.327 -3.72593 -1.39354 0
M  V30 7668 H 748.066 -6.54439 -0.372807 0
M  V30 7669 H 747.586 -5.70119 -1.86344 0
M  V30 7670 H 749.265 -6.25602 -1.6502 0
M  V30 7671 N 749.397 0.351382 -1.53633 0
M  V30 7672 C 750.646 1.08988 -1.69719 0
M  V30 7673 C 750.959 1.90043 -0.462948 0
M  V30 7674 O 752.165 2.66769 -0.504613 0
M  V30 7675 C 750.621 1.98691 -3.00083 0
M  V30 7676 C 750.229 1.22881 -4.30818 0
M  V30 7677 C 751.973 2.72446 -3.25536 0
M  V30 7678 C 749.88 2.11568 -5.52262 0
M  V30 7679 H 748.81 0.410588 -0.632403 0
M  V30 7680 H 751.461 0.349886 -1.80133 0
M  V30 7681 H 749.843 2.76478 -2.83506 0
M  V30 7682 H 751.017 0.500582 -4.58073 0
M  V30 7683 H 749.332 0.60928 -4.11918 0
M  V30 7684 H 751.929 3.39055 -4.13456 0
M  V30 7685 H 752.272 3.38588 -2.42206 0
M  V30 7686 H 752.805 2.01735 -3.42852 0
M  V30 7687 H 749.544 1.4998 -6.38111 0
M  V30 7688 H 749.064 2.82201 -5.29266 0
M  V30 7689 H 750.743 2.70802 -5.87601 0
M  V30 7690 N 750.875 1.45233 0.611969 0
M  V30 7691 C 752.103 1.52539 1.39784 0
M  V30 7692 C 752.518 0.156533 1.8815 0
M  V30 7693 O 751.875 -0.84112 1.61961 0
M  V30 7694 C 751.926 2.50614 2.60528 0
M  V30 7695 O 751.647 3.8218 2.14173 0
M  V30 7696 C 753.148 2.67574 3.53439 0
M  V30 7697 H 750.368 0.51674 0.428043 0
M  V30 7698 H 752.912 1.90379 0.746727 0
M  V30 7699 H 751.067 2.15858 3.2169 0
M  V30 7700 H 751.481 4.35305 2.92592 0
M  V30 7701 H 752.955 3.40184 4.34717 0
M  V30 7702 H 753.432 1.73458 4.03496 0
M  V30 7703 H 754.038 3.0331 2.98133 0
M  V30 7704 N 752.353 -0.854086 1.3245 0
M  V30 7705 C 753.6 -1.60831 1.23043 0
M  V30 7706 C 753.928 -1.93389 -0.2076 0
M  V30 7707 O 753.183 -1.5756 -1.16075 0
M  V30 7708 C 753.482 -2.93746 2.03587 0
M  V30 7709 C 753.148 -2.80615 3.52939 0
M  V30 7710 C 751.81 -2.76742 3.93659 0
M  V30 7711 C 754.162 -2.66507 4.4791 0
M  V30 7712 C 751.49 -2.56638 5.27592 0
M  V30 7713 C 753.842 -2.47939 5.81987 0
M  V30 7714 C 752.506 -2.42458 6.21909 0
M  V30 7715 H 751.776 -0.588523 0.450247 0
M  V30 7716 H 754.423 -0.990699 1.63882 0
M  V30 7717 H 752.728 -3.5963 1.55478 0
M  V30 7718 H 754.425 -3.51127 1.93677 0
M  V30 7719 H 751.015 -2.84456 3.20598 0
M  V30 7720 H 755.199 -2.68544 4.1737 0
M  V30 7721 H 750.455 -2.50831 5.57579 0
M  V30 7722 H 754.629 -2.36002 6.55192 0
M  V30 7723 H 752.256 -2.2664 7.2563 0
M  V30 7724 N 753.831 -1.1567 -1.07043 0
M  V30 7725 C 755.071 -0.944089 -1.81291 0
M  V30 7726 C 755.435 0.519305 -1.84844 0
M  V30 7727 O 756.636 0.850357 -2.54995 0
M  V30 7728 C 754.907 -1.54528 -3.22267 0
M  V30 7729 S 756.466 -1.47623 -4.13223 0
M  V30 7730 H 753.284 -0.339696 -0.624602 0
M  V30 7731 H 755.886 -1.47277 -1.28568 0
M  V30 7732 H 754.59 -2.60321 -3.17271 0
M  V30 7733 H 754.121 -1.0156 -3.80065 0
M  V30 7734 H 756.136 -0.471261 -4.93957 0
M  V30 7735 N 755.309 1.25446 -0.953992 0
M  V30 7736 C 756.558 1.92441 -0.604101 0
M  V30 7737 C 756.871 1.75543 0.862796 0
M  V30 7738 O 758.077 2.37106 1.32262 0
M  V30 7739 C 756.533 3.44854 -1.02974 0
M  V30 7740 C 756.141 3.70464 -2.51914 0
M  V30 7741 C 757.885 4.1778 -0.752352 0
M  V30 7742 C 755.792 5.1638 -2.88281 0
M  V30 7743 H 754.722 0.720508 -0.222227 0
M  V30 7744 H 757.373 1.42318 -1.15836 0
M  V30 7745 H 755.755 3.93935 -0.403904 0
M  V30 7746 H 756.929 3.32038 -3.19511 0
M  V30 7747 H 755.244 3.10797 -2.77117 0
M  V30 7748 H 757.841 5.25261 -1.00024 0
M  V30 7749 H 758.184 4.15135 0.311212 0
M  V30 7750 H 758.717 3.74605 -1.33851 0
M  V30 7751 H 755.456 5.24135 -3.93653 0
M  V30 7752 H 754.976 5.55855 -2.25357 0
M  V30 7753 H 756.655 5.84497 -2.77439 0
M  V30 7754 N 756.787 0.722489 1.40064 0
M  V30 7755 C 758.033 0.265371 2.01056 0
M  V30 7756 C 758.366 -1.14062 1.57174 0
M  V30 7757 O 757.641 -1.77514 0.794916 0
M  V30 7758 C 757.924 0.353157 3.58364 0
M  V30 7759 C 757.777 1.79802 4.123 0
M  V30 7760 C 759.096 -0.271677 4.39261 0
M  V30 7761 H 756.215 0.0979002 0.730469 0
M  V30 7762 H 758.857 0.916289 1.66446 0
M  V30 7763 H 757.007 -0.201037 3.87979 0
M  V30 7764 H 758.679 2.40813 3.93455 0
M  V30 7765 H 756.922 2.32348 3.66329 0
M  V30 7766 H 757.593 1.81079 5.21454 0
M  V30 7767 H 760.069 0.200607 4.15616 0
M  V30 7768 H 758.945 -0.179843 5.48605 0
M  V30 7769 H 759.206 -1.35611 4.20787 0
M  V30 7770 N 758.265 -1.50454 0.469181 0
M  V30 7771 C 759.493 -2.06729 -0.0842134 0
M  V30 7772 C 759.908 -1.33326 -1.33677 0
M  V30 7773 O 759.265 -0.401977 -1.78018 0
M  V30 7774 C 759.316 -3.59557 -0.374253 0
M  V30 7775 O 759.037 -4.30192 0.828622 0
M  V30 7776 C 760.538 -4.32449 -0.974824 0
M  V30 7777 H 757.758 -0.670971 0.006231 0
M  V30 7778 H 760.302 -1.93645 0.657415 0
M  V30 7779 H 758.457 -3.7245 -1.06581 0
M  V30 7780 H 758.871 -5.21371 0.572066 0
M  V30 7781 H 760.345 -5.40361 -1.12755 0
M  V30 7782 H 760.822 -3.92819 -1.96442 0
M  V30 7783 H 761.428 -4.24082 -0.321703 0
M  V30 7784 N 759.743 -0.201713 -1.56304 0
M  V30 7785 C 760.989 0.435952 -1.98059 0
M  V30 7786 C 761.322 1.60811 -1.08873 0
M  V30 7787 O 760.597 1.9398 -0.142128 0
M  V30 7788 C 760.88 0.889706 -3.48936 0
M  V30 7789 C 760.733 -0.284725 -4.48898 0
M  V30 7790 C 762.052 1.7529 -4.03685 0
M  V30 7791 H 759.171 0.15699 -0.720085 0
M  V30 7792 H 761.813 -0.293965 -1.87712 0
M  V30 7793 H 759.963 1.51166 -3.57884 0
M  V30 7794 H 761.635 -0.922531 -4.51981 0
M  V30 7795 H 759.878 -0.935427 -4.23594 0
M  V30 7796 H 760.549 0.0753865 -5.51949 0
M  V30 7797 H 763.025 1.2283 -3.97558 0
M  V30 7798 H 761.901 2.03933 -5.0961 0
M  V30 7799 H 762.162 2.70939 -3.49348 0
M  V30 7800 N 761.222 1.57436 0.0718424 0
M  V30 7801 C 762.152 2.06724 1.08571 0
M  V30 7802 C 763.133 0.960731 1.40371 0
M  V30 7803 O 764.318 1.23345 1.49999 0
M  V30 7804 C 761.448 2.51112 2.39916 0
M  V30 7805 C 760.402 3.65639 2.22469 0
M  V30 7806 C 759.728 3.96082 3.59198 0
M  V30 7807 C 761.028 4.95687 1.64596 0
M  V30 7808 H 762.722 2.91679 0.675569 0
M  V30 7809 H 760.268 1.40319 0.32352 0
M  V30 7810 H 762.221 2.84206 3.11135 0
M  V30 7811 H 760.945 1.63186 2.8291 0
M  V30 7812 H 759.604 3.32828 1.53691 0
M  V30 7813 H 759.252 3.05287 3.99761 0
M  V30 7814 H 758.952 4.73199 3.48362 0
M  V30 7815 H 760.476 4.31672 4.31847 0
M  V30 7816 H 761.89 5.27011 2.25681 0
M  V30 7817 H 760.287 5.77126 1.64457 0
M  V30 7818 H 761.357 4.8108 0.60744 0
M  V30 7819 N 762.7 -0.34323 1.53817 0
M  V30 7820 C 763.948 -1.0813 1.70741 0
M  V30 7821 C 764.269 -1.89165 0.473461 0
M  V30 7822 O 763.539 -1.89075 -0.512605 0
M  V30 7823 H 762.119 -0.40219 0.629486 0
M  V30 7824 H 764.781 -0.384426 1.91071 0
M  V30 7825 H 763.877 -1.7585 2.57843 0
M  V30 7826 N 764.178 -1.45556 -0.604258 0
M  V30 7827 C 765.594 -1.30035 -0.925368 0
M  V30 7828 C 765.794 -0.255833 -1.99869 0
M  V30 7829 O 764.85 0.349076 -2.50075 0
M  V30 7830 C 766.163 -2.68028 -1.36314 0
M  V30 7831 C 767.711 -2.75951 -1.47717 0
M  V30 7832 C 768.186 -4.14476 -1.94868 0
M  V30 7833 N 769.677 -4.16787 -2.02097 0
M  V30 7834 C 770.412 -5.20845 -2.39809 0
M  V30 7835 N 769.908 -6.35246 -2.76467 0
M  V30 7836 N 771.701 -5.08204 -2.40177 0
M  V30 7837 H 763.852 -2.1214 0.10512 0
M  V30 7838 H 766.115 -0.947871 -0.0156303 0
M  V30 7839 H 765.821 -3.45667 -0.648628 0
M  V30 7840 H 765.695 -2.96711 -2.329 0
M  V30 7841 H 768.082 -1.98613 -2.18258 0
M  V30 7842 H 768.163 -2.50977 -0.494371 0
M  V30 7843 H 767.807 -4.923 -1.24912 0
M  V30 7844 H 767.737 -4.36843 -2.94068 0
M  V30 7845 H 770.228 -3.34233 -1.76343 0
M  V30 7846 H 770.541 -7.10438 -3.04134 0
M  V30 7847 H 768.886 -6.38642 -2.74155 0
M  V30 7848 H 772.077 -4.17874 -2.10947 0
M  V30 7849 H 772.25 -5.89417 -2.69242 0
M  V30 7850 N 765.656 0.84705 -1.32902 0
M  V30 7851 C 766.566 1.98845 -1.2449 0
M  V30 7852 C 767.582 1.7329 -0.15702 0
M  V30 7853 O 768.758 1.978 -0.379104 0
M  V30 7854 C 765.823 3.32679 -0.975985 0
M  V30 7855 C 764.884 3.71405 -2.15306 0
M  V30 7856 C 764.117 4.98853 -1.89688 0
M  V30 7857 O 764.34 5.64134 -0.843168 0
M  V30 7858 O 763.274 5.34889 -2.76002 0
M  V30 7859 H 767.1 2.0888 -2.2046 0
M  V30 7860 H 764.685 0.978852 -1.12867 0
M  V30 7861 H 766.567 4.12885 -0.842826 0
M  V30 7862 H 765.242 3.23667 -0.0464954 0
M  V30 7863 H 764.149 2.91743 -2.34172 0
M  V30 7864 H 765.482 3.85073 -3.06561 0
M  V30 7865 N 767.134 1.16236 1.06428 0
M  V30 7866 C 768.097 0.870163 2.1204 0
M  V30 7867 C 769.097 -0.134239 1.60239 0
M  V30 7868 O 770.287 0.0964932 1.73933 0
M  V30 7869 C 767.419 0.301033 3.39568 0
M  V30 7870 H 768.612 1.8064 2.39394 0
M  V30 7871 H 766.165 0.971116 1.2247 0
M  V30 7872 H 766.9 -0.642948 3.17863 0
M  V30 7873 H 766.685 1.02475 3.78472 0
M  V30 7874 H 768.175 0.114494 4.17443 0
M  V30 7875 N 768.612 -1.24939 0.960631 0
M  V30 7876 C 769.542 -2.28 0.503815 0
M  V30 7877 C 770.523 -1.63959 -0.452928 0
M  V30 7878 O 771.708 -1.91009 -0.350585 0
M  V30 7879 C 768.838 -3.46643 -0.213535 0
M  V30 7880 C 767.792 -4.22903 0.658535 0
M  V30 7881 C 767.118 -5.34363 -0.189902 0
M  V30 7882 C 768.418 -4.84949 1.93963 0
M  V30 7883 H 770.112 -2.66462 1.36521 0
M  V30 7884 H 767.658 -1.28093 0.657897 0
M  V30 7885 H 769.611 -4.1787 -0.544286 0
M  V30 7886 H 768.335 -3.07187 -1.10923 0
M  V30 7887 H 766.994 -3.53467 0.972455 0
M  V30 7888 H 766.642 -4.91147 -1.08553 0
M  V30 7889 H 766.342 -5.86302 0.390331 0
M  V30 7890 H 767.866 -6.0842 -0.515484 0
M  V30 7891 H 769.28 -5.48288 1.67491 0
M  V30 7892 H 767.677 -5.47091 2.46601 0
M  V30 7893 H 768.747 -4.06799 2.639 0
M  V30 7894 N 770.09 -0.729906 -1.39679 0
M  V30 7895 C 771.318 -0.285709 -2.04918 0
M  V30 7896 C 771.733 1.07765 -1.55023 0
M  V30 7897 O 771.09 1.67999 -0.712923 0
M  V30 7898 C 771.141 -0.272793 -3.60469 0
M  V30 7899 O 770.862 -1.58233 -4.08527 0
M  V30 7900 C 772.363 0.188199 -4.429 0
M  V30 7901 H 769.583 -0.125758 -0.65911 0
M  V30 7902 H 772.127 -0.992129 -1.78821 0
M  V30 7903 H 770.282 0.384699 -3.85485 0
M  V30 7904 H 770.696 -1.49245 -5.02818 0
M  V30 7905 H 772.17 0.14608 -5.51807 0
M  V30 7906 H 772.647 1.2326 -4.21549 0
M  V30 7907 H 773.253 -0.439541 -4.23023 0
M  V30 7908 N 771.568 1.50203 -0.477153 0
M  V30 7909 C 772.515 2.28656 0.31386 0
M  V30 7910 C 773.485 1.33977 0.981802 0
M  V30 7911 O 774.67 1.62919 0.993072 0
M  V30 7912 C 771.81 3.16027 1.38639 0
M  V30 7913 C 770.923 4.25743 0.732615 0
M  V30 7914 C 770.058 5.00363 1.78355 0
M  V30 7915 C 769.097 6.01945 1.11035 0
M  V30 7916 N 768.234 6.6982 2.10441 0
M  V30 7917 H 773.074 2.958 -0.361445 0
M  V30 7918 H 770.611 1.45867 -0.190093 0
M  V30 7919 H 772.569 3.6504 2.01994 0
M  V30 7920 H 771.199 2.50917 2.03077 0
M  V30 7921 H 770.251 3.80398 -0.0136546 0
M  V30 7922 H 771.563 4.98393 0.201513 0
M  V30 7923 H 770.717 5.53124 2.49276 0
M  V30 7924 H 769.456 4.27432 2.34847 0
M  V30 7925 H 768.461 5.48438 0.386797 0
M  V30 7926 H 769.686 6.76851 0.552248 0
M  V30 7927 H 767.632 5.99677 2.65939 0
M  V30 7928 H 767.549 7.38366 1.62332 0
M  V30 7929 H 768.817 7.27196 2.80724 0
M  V30 7930 N 773.046 0.209999 1.56195 0
M  V30 7931 C 774.294 -0.423974 1.97603 0
M  V30 7932 C 774.615 -1.61112 1.09854 0
M  V30 7933 O 773.885 -1.95134 0.173032 0
M  V30 7934 H 772.465 -0.159629 0.729745 0
M  V30 7935 H 775.127 0.300205 1.92574 0
M  V30 7936 H 774.223 -0.75809 3.02753 0
M  V30 7937 N 774.524 -1.57472 -0.0634922 0
M  V30 7938 C 775.487 -2.03268 -1.059 0
M  V30 7939 C 776.487 -0.931028 -1.31105 0
M  V30 7940 O 777.677 -1.19567 -1.26686 0
M  V30 7941 C 774.809 -2.42039 -2.40062 0
M  V30 7942 H 776.002 -2.92454 -0.664119 0
M  V30 7943 H 773.555 -1.53206 -0.309444 0
M  V30 7944 H 774.29 -1.55904 -2.84367 0
M  V30 7945 H 774.075 -3.22437 -2.23108 0
M  V30 7946 H 775.565 -2.78017 -3.11603 0
M  V30 7947 N 776.003 0.335068 -1.53997 0
M  V30 7948 C 776.933 1.41727 -1.85568 0
M  V30 7949 C 777.914 1.54505 -0.7115 0
M  V30 7950 O 779.099 1.68573 -0.964191 0
M  V30 7951 C 776.229 2.7866 -2.07282 0
M  V30 7952 C 775.183 2.80682 -3.23112 0
M  V30 7953 C 774.509 4.20581 -3.30175 0
M  V30 7954 C 775.809 2.45458 -4.61029 0
M  V30 7955 H 777.503 1.15555 -2.76202 0
M  V30 7956 H 775.049 0.554445 -1.32898 0
M  V30 7957 H 777.002 3.54423 -2.27952 0
M  V30 7958 H 775.726 3.06286 -1.13387 0
M  V30 7959 H 774.385 2.07373 -3.02311 0
M  V30 7960 H 774.033 4.4533 -2.33859 0
M  V30 7961 H 773.733 4.22843 -4.08016 0
M  V30 7962 H 775.257 4.98174 -3.53066 0
M  V30 7963 H 776.671 3.10934 -4.81656 0
M  V30 7964 H 775.068 2.5899 -5.41336 0
M  V30 7965 H 776.138 1.40628 -4.6406 0
M  V30 7966 N 777.481 1.45874 0.596531 0
M  V30 7967 C 778.727 1.51679 1.35518 0
M  V30 7968 C 779.082 0.160681 1.91728 0
M  V30 7969 O 778.375 -0.828886 1.72743 0
M  V30 7970 C 778.569 2.54034 2.51399 0
M  V30 7971 C 778.398 3.99465 2.06538 0
M  V30 7972 C 777.168 4.67321 1.92196 0
M  V30 7973 C 779.366 4.87674 1.63336 0
M  V30 7974 N 777.348 5.97427 1.41261 0
M  V30 7975 C 778.719 6.07495 1.23895 0
M  V30 7976 C 780.774 4.74442 1.51028 0
M  V30 7977 C 779.477 7.15548 0.733739 0
M  V30 7978 C 781.503 5.82553 1.0191 0
M  V30 7979 C 780.865 7.01537 0.634403 0
M  V30 7980 H 776.964 0.609933 0.489393 0
M  V30 7981 H 779.548 1.82411 0.680746 0
M  V30 7982 H 777.719 2.25235 3.16424 0
M  V30 7983 H 779.451 2.49918 3.18313 0
M  V30 7984 H 776.206 4.22635 2.1372 0
M  V30 7985 H 776.63 6.66638 1.17995 0
M  V30 7986 H 781.272 3.82855 1.79393 0
M  V30 7987 H 778.99 8.06914 0.437656 0
M  V30 7988 H 782.576 5.74352 0.927977 0
M  V30 7989 H 781.456 7.83768 0.26019 0
M  V30 7990 N 778.959 -0.83999 1.33349 0
M  V30 7991 C 779.922 -1.93128 1.23426 0
M  V30 7992 C 780.922 -1.60065 0.153599 0
M  V30 7993 O 782.112 -1.69425 0.405049 0
M  V30 7994 C 779.244 -3.28761 0.901622 0
M  V30 7995 H 780.437 -2.03352 2.20427 0
M  V30 7996 H 777.99 -1.03194 1.17391 0
M  V30 7997 H 778.725 -3.24233 -0.0659337 0
M  V30 7998 H 778.51 -3.54138 1.68311 0
M  V30 7999 H 780 -4.08714 0.856913 0
M  V30 8000 N 780.437 -1.16799 -1.0581 0
M  V30 8001 C 781.683 -0.953935 -1.78963 0
M  V30 8002 C 782.016 0.516638 -1.87202 0
M  V30 8003 O 781.291 1.38338 -1.36721 0
M  V30 8004 C 781.574 -1.58808 -3.23191 0
M  V30 8005 C 781.427 -3.13032 -3.23003 0
M  V30 8006 C 782.746 -1.2868 -4.20867 0
M  V30 8007 H 779.865 -0.347972 -0.64968 0
M  V30 8008 H 782.507 -1.44204 -1.23715 0
M  V30 8009 H 780.657 -1.17303 -3.70368 0
M  V30 8010 H 782.329 -3.63553 -2.83949 0
M  V30 8011 H 780.572 -3.46108 -2.61518 0
M  V30 8012 H 781.243 -3.52527 -4.24769 0
M  V30 8013 H 783.719 -1.6461 -3.82155 0
M  V30 8014 H 782.595 -1.75645 -5.20038 0
M  V30 8015 H 782.856 -0.206491 -4.41618 0
M  V30 8016 N 781.915 1.24427 -0.967243 0
M  V30 8017 C 783.162 1.92487 -0.62888 0
M  V30 8018 C 783.49 1.75623 0.835871 0
M  V30 8019 O 782.745 1.1027 1.61675 0
M  V30 8020 C 783.044 3.44568 -0.949096 0
M  V30 8021 C 782.71 3.816 -2.40192 0
M  V30 8022 C 781.372 3.9142 -2.799 0
M  V30 8023 C 783.724 3.99715 -3.34481 0
M  V30 8024 C 781.052 4.16771 -4.12939 0
M  V30 8025 C 783.404 4.26562 -4.67148 0
M  V30 8026 C 782.068 4.34601 -5.06634 0
M  V30 8027 H 781.338 0.704361 -0.230124 0
M  V30 8028 H 783.985 1.4772 -1.21864 0
M  V30 8029 H 782.29 3.90819 -0.277085 0
M  V30 8030 H 783.987 3.95436 -0.665692 0
M  V30 8031 H 780.577 3.74522 -2.08402 0
M  V30 8032 H 784.761 3.91531 -3.04987 0
M  V30 8033 H 780.017 4.21214 -4.43158 0
M  V30 8034 H 784.191 4.39523 -5.40178 0
M  V30 8035 H 781.818 4.53998 -6.09746 0
M  V30 8036 N 783.393 0.737304 1.3929 0
M  V30 8037 C 784.323 0.113988 2.33222 0
M  V30 8038 C 785.304 -0.721695 1.54031 0
M  V30 8039 O 786.489 -0.666206 1.82415 0
M  V30 8040 C 783.619 -0.792319 3.38141 0
M  V30 8041 C 782.573 -0.0606178 4.27957 0
M  V30 8042 C 781.899 -1.08409 5.23595 0
M  V30 8043 C 783.199 1.09817 5.10625 0
M  V30 8044 H 784.893 0.898611 2.85596 0
M  V30 8045 H 782.439 0.433571 1.37318 0
M  V30 8046 H 784.392 -1.23793 4.02807 0
M  V30 8047 H 783.116 -1.60908 2.84211 0
M  V30 8048 H 781.775 0.365393 3.64775 0
M  V30 8049 H 781.423 -1.89449 4.6596 0
M  V30 8050 H 781.123 -0.599269 5.84536 0
M  V30 8051 H 782.647 -1.52936 5.91137 0
M  V30 8052 H 784.061 0.730892 5.68622 0
M  V30 8053 H 782.458 1.51278 5.80719 0
M  V30 8054 H 783.528 1.91878 4.45321 0
M  V30 8055 N 784.871 -1.49948 0.485112 0
M  V30 8056 C 785.801 -2.31675 -0.291364 0
M  V30 8057 C 786.782 -1.39216 -0.977383 0
M  V30 8058 O 787.967 -1.68133 -0.971855 0
M  V30 8059 C 785.097 -3.19326 -1.36558 0
M  V30 8060 C 784.051 -4.2045 -0.800359 0
M  V30 8061 C 783.377 -4.96931 -1.97391 0
M  V30 8062 C 784.677 -5.21925 0.197867 0
M  V30 8063 H 786.371 -2.96839 0.390775 0
M  V30 8064 H 783.917 -1.42749 0.189375 0
M  V30 8065 H 785.87 -3.75304 -1.91638 0
M  V30 8066 H 784.594 -2.52074 -2.07668 0
M  V30 8067 H 783.253 -3.65594 -0.271428 0
M  V30 8068 H 782.901 -4.26141 -2.67232 0
M  V30 8069 H 782.601 -5.65344 -1.60187 0
M  V30 8070 H 784.125 -5.55749 -2.52935 0
M  V30 8071 H 785.539 -5.72691 -0.264239 0
M  V30 8072 H 783.936 -5.98138 0.484908 0
M  V30 8073 H 785.006 -4.71809 1.11912 0
M  V30 8074 N 786.349 -0.21828 -1.56081 0
M  V30 8075 C 787.312 0.679633 -2.18892 0
M  V30 8076 C 788.312 1.12405 -1.14986 0
M  V30 8077 O 789.502 1.03339 -1.40238 0
M  V30 8078 C 786.634 1.93063 -2.80962 0
M  V30 8079 H 787.827 0.132066 -2.99609 0
M  V30 8080 H 785.38 0.0313374 -1.56269 0
M  V30 8081 H 786.115 2.52015 -2.04106 0
M  V30 8082 H 785.9 1.62046 -3.57048 0
M  V30 8083 H 787.39 2.57043 -3.29118 0
M  V30 8084 N 787.827 1.57504 0.0551401 0
M  V30 8085 C 789.075 1.87684 0.74962 0
M  V30 8086 C 789.396 0.812547 1.77264 0
M  V30 8087 O 788.666 -0.15694 1.9527 0
M  V30 8088 H 787.246 0.6926 0.279846 0
M  V30 8089 H 789.908 1.94881 0.0272745 0
M  V30 8090 H 789.004 2.85734 1.25548 0
M  V30 8091 N 789.305 -0.326896 1.54172 0
M  V30 8092 C 790.53 -1.08924 1.76494 0
M  V30 8093 C 790.955 -1.81039 0.510523 0
M  V30 8094 O 790.313 -1.73141 -0.537756 0
M  V30 8095 C 790.361 -2.06558 2.95578 0
M  V30 8096 O 789.465 -3.14394 2.6689 0
M  V30 8097 H 788.806 -0.314216 0.584948 0
M  V30 8098 H 791.336 -0.372207 2.01186 0
M  V30 8099 H 791.346 -2.49487 3.22832 0
M  V30 8100 H 790.021 -1.53469 3.86549 0
M  V30 8101 H 788.598 -2.76164 2.50576 0
M  V30 8102 N 790.784 -1.46188 -0.588786 0
M  V30 8103 C 791.747 -1.55882 -1.68029 0
M  V30 8104 C 792.747 -0.436515 -1.54762 0
M  V30 8105 O 793.937 -0.700626 -1.59489 0
M  V30 8106 C 791.069 -1.47332 -3.07418 0
M  V30 8107 H 792.262 -2.5315 -1.60795 0
M  V30 8108 H 789.815 -1.33908 -0.806116 0
M  V30 8109 H 790.55 -0.513193 -3.20214 0
M  V30 8110 H 790.335 -2.28753 -3.18456 0
M  V30 8111 H 791.825 -1.57187 -3.86887 0
M  V30 8112 N 792.262 0.832906 -1.33792 0
M  V30 8113 C 793.192 1.95828 -1.27176 0
M  V30 8114 C 794.173 1.69427 -0.15114 0
M  V30 8115 O 795.358 1.91167 -0.341886 0
M  V30 8116 C 792.488 3.32098 -1.01629 0
M  V30 8117 C 791.442 3.72912 -2.10049 0
M  V30 8118 C 790.768 5.07054 -1.69706 0
M  V30 8119 C 792.068 3.86064 -3.51783 0
M  V30 8120 H 793.762 2.01622 -2.21334 0
M  V30 8121 H 791.308 0.96866 -1.0655 0
M  V30 8122 H 793.261 4.10402 -0.956474 0
M  V30 8123 H 791.985 3.26577 -0.0390956 0
M  V30 8124 H 790.644 2.96876 -2.15082 0
M  V30 8125 H 790.292 4.9801 -0.706737 0
M  V30 8126 H 789.992 5.35333 -2.42264 0
M  V30 8127 H 791.516 5.87827 -1.65202 0
M  V30 8128 H 792.93 4.54665 -3.49218 0
M  V30 8129 H 791.327 4.25787 -4.22878 0
M  V30 8130 H 792.397 2.88344 -3.89854 0
M  V30 8131 N 793.74 1.17359 1.05189 0
M  V30 8132 C 794.67 0.91365 2.14883 0
M  V30 8133 C 795.651 -0.144365 1.69486 0
M  V30 8134 O 796.836 0.00587861 1.94199 0
M  V30 8135 C 793.966 0.426196 3.44675 0
M  V30 8136 C 792.92 1.4234 4.03638 0
M  V30 8137 C 792.246 0.793902 5.28773 0
M  V30 8138 C 793.546 2.7966 4.41121 0
M  V30 8139 H 795.24 1.831 2.36885 0
M  V30 8140 H 792.786 0.881781 1.13845 0
M  V30 8141 H 794.739 0.231767 4.20762 0
M  V30 8142 H 793.463 -0.526693 3.22325 0
M  V30 8143 H 792.122 1.60457 3.2962 0
M  V30 8144 H 791.77 -0.165824 5.02727 0
M  V30 8145 H 791.47 1.45959 5.69183 0
M  V30 8146 H 792.994 0.609747 6.07548 0
M  V30 8147 H 794.408 2.6526 5.08242 0
M  V30 8148 H 792.805 3.42807 4.92548 0
M  V30 8149 H 793.875 3.34068 3.51464 0
M  V30 8150 N 795.218 -1.23913 0.973828 0
M  V30 8151 C 796.458 -1.93889 0.647015 0
M  V30 8152 C 796.822 -1.74368 -0.803735 0
M  V30 8153 O 798.023 -2.38435 -1.24106 0
M  V30 8154 C 796.294 -3.4257 1.01885 0
M  V30 8155 S 797.853 -4.31306 0.807517 0
M  V30 8156 H 794.671 -0.670279 0.237165 0
M  V30 8157 H 797.273 -1.50144 1.25208 0
M  V30 8158 H 795.977 -3.54286 2.07146 0
M  V30 8159 H 795.508 -3.91312 0.404812 0
M  V30 8160 H 797.523 -4.95218 -0.311986 0
M  V30 8161 N 796.696 -0.74468 -1.38897 0
M  V30 8162 C 797.659 -0.11945 -2.28889 0
M  V30 8163 C 798.659 0.656942 -1.46768 0
M  V30 8164 O 799.849 0.484525 -1.67326 0
M  V30 8165 C 796.981 0.839635 -3.30398 0
M  V30 8166 H 798.174 -0.912414 -2.85683 0
M  V30 8167 H 795.727 -0.511119 -1.47707 0
M  V30 8168 H 796.462 1.6586 -2.78677 0
M  V30 8169 H 796.247 0.285432 -3.9106 0
M  V30 8170 H 797.737 1.27337 -3.97712 0
M  V30 8171 N 798.174 1.49689 -0.493057 0
M  V30 8172 C 799.42 2.02727 0.0543518 0
M  V30 8173 C 799.753 1.37264 1.37376 0
M  V30 8174 O 799.028 0.505644 1.87812 0
M  V30 8175 C 799.311 3.59456 0.215226 0
M  V30 8176 C 799.164 4.35459 -1.12675 0
M  V30 8177 C 800.483 4.29511 0.959586 0
M  V30 8178 H 797.602 0.736773 0.0182786 0
M  V30 8179 H 800.244 1.78792 -0.642924 0
M  V30 8180 H 798.394 3.79981 0.809122 0
M  V30 8181 H 800.066 4.2645 -1.75891 0
M  V30 8182 H 798.309 3.9833 -1.71801 0
M  V30 8183 H 798.98 5.43454 -0.967578 0
M  V30 8184 H 801.456 4.13594 0.455977 0
M  V30 8185 H 800.332 5.38939 1.04098 0
M  V30 8186 H 800.593 3.94202 2.00144 0
M  V30 8187 N 799.652 0.226554 1.55963 0
M  V30 8188 C 800.898 -0.404387 1.98727 0
M  V30 8189 C 801.231 -1.59059 1.11418 0
M  V30 8190 O 800.506 -1.93729 0.172971 0
M  V30 8191 C 800.789 -0.834081 3.50307 0
M  V30 8192 C 800.642 0.356104 4.48388 0
M  V30 8193 C 801.961 -1.68845 4.06423 0
M  V30 8194 H 799.08 -0.145515 0.722492 0
M  V30 8195 H 801.722 0.323791 1.87221 0
M  V30 8196 H 799.872 -1.45454 3.60244 0
M  V30 8197 H 801.544 0.99432 4.50456 0
M  V30 8198 H 799.787 1.0027 4.22053 0
M  V30 8199 H 800.458 0.0124333 5.51999 0
M  V30 8200 H 802.934 -1.16489 3.99461 0
M  V30 8201 H 801.81 -1.958 5.1279 0
M  V30 8202 H 802.071 -2.65347 3.53615 0
M  V30 8203 N 801.13 -1.57531 -0.0467866 0
M  V30 8204 C 802.358 -1.92696 -0.753371 0
M  V30 8205 C 802.773 -0.824792 -1.69831 0
M  V30 8206 O 802.13 0.200155 -1.81399 0
M  V30 8207 C 802.181 -3.27728 -1.52566 0
M  V30 8208 O 801.902 -4.3371 -0.618674 0
M  V30 8209 C 803.403 -3.77066 -2.33101 0
M  V30 8210 H 800.623 -0.636367 -0.212788 0
M  V30 8211 H 803.167 -2.04498 -0.00959361 0
M  V30 8212 H 801.322 -3.17378 -2.22148 0
M  V30 8213 H 801.736 -5.11548 -1.15839 0
M  V30 8214 H 803.21 -4.74109 -2.82709 0
M  V30 8215 H 803.687 -3.07348 -3.13741 0
M  V30 8216 H 804.293 -3.90442 -1.68628 0
M  V30 8217 N 802.608 0.318715 -1.54344 0
M  V30 8218 C 803.856 1.054 -1.72439 0
M  V30 8219 C 804.177 1.88388 -0.503495 0
M  V30 8220 O 803.447 1.89866 0.48246 0
M  V30 8221 H 802.027 0.392124 -0.635805 0
M  V30 8222 H 804.689 0.35398 -1.91659 0
M  V30 8223 H 803.785 1.71726 -2.60608 0
M  V30 8224 N 804.086 1.46499 0.581025 0
M  V30 8225 C 805.332 1.52121 1.34116 0
M  V30 8226 C 805.665 0.173031 1.93428 0
M  V30 8227 O 804.94 -0.815729 1.76568 0
M  V30 8228 C 805.223 2.62108 2.46924 0
M  V30 8229 C 805.076 4.06462 1.92636 0
M  V30 8230 C 806.395 2.68167 3.48962 0
M  V30 8231 H 803.514 0.5538 0.486287 0
M  V30 8232 H 806.156 1.78443 0.652538 0
M  V30 8233 H 804.306 2.39794 3.05665 0
M  V30 8234 H 805.978 4.40068 1.3834 0
M  V30 8235 H 804.221 4.15862 1.23455 0
M  V30 8236 H 804.892 4.79152 2.74076 0
M  V30 8237 H 807.368 2.8823 3.00104 0
M  V30 8238 H 806.244 3.46942 4.2535 0
M  V30 8239 H 806.505 1.74284 4.06297 0
M  V30 8240 N 805.565 -0.825799 1.34232 0
M  V30 8241 C 806.814 -1.57686 1.2577 0
M  V30 8242 C 807.127 -1.94848 -0.171372 0
M  V30 8243 O 808.333 -2.68854 -0.378123 0
M  V30 8244 C 806.789 -2.84478 2.20454 0
M  V30 8245 C 806.397 -2.54629 3.68603 0
M  V30 8246 C 808.141 -3.625 2.20893 0
M  V30 8247 C 806.048 -3.77597 4.55164 0
M  V30 8248 H 804.978 -0.591809 0.467203 0
M  V30 8249 H 807.629 -0.909421 1.59379 0
M  V30 8250 H 806.011 -3.52832 1.79793 0
M  V30 8251 H 807.185 -1.94404 4.17784 0
M  V30 8252 H 805.5 -1.89888 3.70582 0
M  V30 8253 H 808.097 -4.538 2.82789 0
M  V30 8254 H 808.44 -3.98404 1.20746 0
M  V30 8255 H 808.973 -3.01086 2.59985 0
M  V30 8256 H 805.712 -3.46815 5.56237 0
M  V30 8257 H 805.232 -4.37116 4.10719 0
M  V30 8258 H 806.911 -4.45039 4.69627 0
M  V30 8259 N 807.043 -1.17915 -1.04565 0
M  V30 8260 C 808.289 -0.982872 -1.78076 0
M  V30 8261 C 808.644 0.482843 -1.86243 0
M  V30 8262 O 807.937 1.35383 -1.3558 0
M  V30 8263 C 808.131 -1.56528 -3.213 0
M  V30 8264 C 807.96 -3.0861 -3.27093 0
M  V30 8265 C 806.73 -3.77389 -3.36014 0
M  V30 8266 C 808.928 -4.06146 -3.15515 0
M  V30 8267 N 806.91 -5.1702 -3.31004 0
M  V30 8268 C 808.281 -5.32268 -3.17948 0
M  V30 8269 C 810.336 -3.97732 -2.99522 0
M  V30 8270 C 809.039 -6.50951 -3.06031 0
M  V30 8271 C 811.065 -5.16007 -2.88948 0
M  V30 8272 C 810.427 -6.41018 -2.9202 0
M  V30 8273 H 806.526 -0.413617 -0.66366 0
M  V30 8274 H 809.11 -1.49607 -1.24603 0
M  V30 8275 H 807.281 -1.07833 -3.73131 0
M  V30 8276 H 809.013 -1.30501 -3.83082 0
M  V30 8277 H 805.768 -3.28098 -3.41538 0
M  V30 8278 H 806.192 -5.90031 -3.31952 0
M  V30 8279 H 810.834 -3.01919 -2.95981 0
M  V30 8280 H 808.552 -7.46968 -3.08326 0
M  V30 8281 H 812.138 -5.11283 -2.77635 0
M  V30 8282 H 811.018 -7.30999 -2.83919 0
M  V30 8283 N 808.521 1.23394 -0.980386 0
M  V30 8284 C 809.937 1.43961 -0.689008 0
M  V30 8285 C 810.137 1.87229 0.744809 0
M  V30 8286 O 809.193 2.01831 1.51725 0
M  V30 8287 C 810.506 2.49128 -1.68392 0
M  V30 8288 C 812.054 2.62941 -1.69796 0
M  V30 8289 C 812.529 3.71317 -2.68118 0
M  V30 8290 N 814.02 3.7876 -2.66636 0
M  V30 8291 C 814.755 4.62176 -3.39383 0
M  V30 8292 N 814.251 5.49682 -4.21688 0
M  V30 8293 N 816.044 4.56372 -3.28147 0
M  V30 8294 H 808.195 0.936106 -1.90659 0
M  V30 8295 H 810.458 0.473023 -0.821555 0
M  V30 8296 H 810.164 2.24252 -2.70931 0
M  V30 8297 H 810.038 3.47514 -1.46675 0
M  V30 8298 H 812.425 2.87168 -0.679617 0
M  V30 8299 H 812.506 1.64871 -1.95579 0
M  V30 8300 H 812.15 3.4784 -3.70095 0
M  V30 8301 H 812.08 4.68929 -2.3961 0
M  V30 8302 H 814.571 3.16226 -2.06904 0
M  V30 8303 H 814.884 6.10323 -4.74053 0
M  V30 8304 H 813.229 5.49306 -4.25779 0
M  V30 8305 H 816.42 3.87029 -2.63299 0
M  V30 8306 H 816.593 5.21153 -3.85102 0
M  V30 8307 N 809.999 0.752036 1.385 0
M  V30 8308 C 810.931 0.0835089 2.29048 0
M  V30 8309 C 811.944 -0.685402 1.47669 0
M  V30 8310 O 813.133 -0.526748 1.70551 0
M  V30 8311 C 810.233 -0.905772 3.26572 0
M  V30 8312 C 809.406 -0.194828 4.36966 0
M  V30 8313 C 808.465 -1.09464 5.14688 0
M  V30 8314 O 807.491 -0.565743 5.66381 0
M  V30 8315 N 808.693 -2.42287 5.2752 0
M  V30 8316 H 811.458 0.861142 2.87062 0
M  V30 8317 H 809.019 0.602689 1.50264 0
M  V30 8318 H 811.011 -1.51072 3.75446 0
M  V30 8319 H 809.581 -1.58449 2.69467 0
M  V30 8320 H 808.801 0.590812 3.89747 0
M  V30 8321 H 810.089 0.297189 5.07931 0
M  V30 8322 H 809.487 -2.87715 4.8707 0
M  V30 8323 H 808.044 -2.97836 5.79773 0
M  V30 8324 N 811.477 -1.49425 0.500989 0
M  V30 8325 C 812.888 -1.86624 0.0532011 0
M  V30 8326 C 813.239 -1.41331 -1.36088 0
M  V30 8327 O 812.364 -0.791195 -2.01418 0
M  V30 8328 C 812.959 -3.38681 0.0897693 0
M  V30 8329 C 811.518 -3.75181 -0.302677 0
M  V30 8330 C 810.665 -2.73419 0.462307 0
M  V30 8331 H 813.616 -1.41743 0.713773 0
M  V30 8332 H 813.637 -3.73902 -0.705528 0
M  V30 8333 H 813.149 -3.71616 1.11907 0
M  V30 8334 H 811.25 -3.47855 -1.33521 0
M  V30 8335 H 811.363 -4.79097 0.0167653 0
M  V30 8336 H 809.727 -2.54548 -0.0878557 0
M  V30 8337 H 810.51 -3.09198 1.49169 0
M  V30 8338 N 812.955 -0.234822 -1.55841 0
M  V30 8339 C 813.865 0.680828 -2.24504 0
M  V30 8340 C 814.881 1.20306 -1.25708 0
M  V30 8341 O 816.057 1.24188 -1.58554 0
M  V30 8342 C 813.122 1.86636 -2.92178 0
M  V30 8343 C 812.183 1.3848 -4.06352 0
M  V30 8344 C 811.416 2.51382 -4.70789 0
M  V30 8345 O 811.639 3.69831 -4.34259 0
M  V30 8346 O 810.573 2.21828 -5.59532 0
M  V30 8347 H 814.399 0.12583 -3.03439 0
M  V30 8348 H 811.984 -0.00381817 -1.494 0
M  V30 8349 H 813.866 2.55845 -3.34845 0
M  V30 8350 H 812.541 2.40921 -2.16192 0
M  V30 8351 H 811.448 0.660341 -3.68226 0
M  V30 8352 H 812.781 0.888177 -4.8412 0
M  V30 8353 N 814.433 1.57553 0.0384317 0
M  V30 8354 C 815.658 1.93485 0.746872 0
M  V30 8355 C 816.083 0.834069 1.68597 0
M  V30 8356 O 815.441 -0.210902 1.80069 0
M  V30 8357 C 815.489 3.28463 1.4881 0
M  V30 8358 O 814.593 3.20051 2.60079 0
M  V30 8359 H 813.934 0.632675 0.201539 0
M  V30 8360 H 816.464 2.046 -0.00329815 0
M  V30 8361 H 816.474 3.63132 1.86009 0
M  V30 8362 H 815.149 4.08147 0.799297 0
M  V30 8363 H 813.726 2.96998 2.25492 0
M  V30 8364 N 815.911 -0.310526 1.54511 0
M  V30 8365 C 816.858 -1.38264 1.84802 0
M  V30 8366 C 817.828 -1.50808 0.696141 0
M  V30 8367 O 819.013 -1.6582 0.943846 0
M  V30 8368 C 816.153 -2.74422 2.09252 0
M  V30 8369 C 815.266 -2.70405 3.36906 0
M  V30 8370 C 814.401 -3.98495 3.51248 0
M  V30 8371 C 813.44 -3.88836 4.72729 0
M  V30 8372 N 812.577 -5.08683 4.83928 0
M  V30 8373 H 817.417 -1.11732 2.76261 0
M  V30 8374 H 814.954 -0.540609 1.36806 0
M  V30 8375 H 816.912 -3.53593 2.21422 0
M  V30 8376 H 815.542 -2.99235 1.2107 0
M  V30 8377 H 814.594 -1.83151 3.33406 0
M  V30 8378 H 815.906 -2.59155 4.26193 0
M  V30 8379 H 815.06 -4.861 3.63031 0
M  V30 8380 H 813.799 -4.12567 2.60077 0
M  V30 8381 H 812.804 -2.99615 4.60989 0
M  V30 8382 H 814.029 -3.76318 5.65298 0
M  V30 8383 H 811.975 -5.23236 3.95677 0
M  V30 8384 H 811.892 -4.99819 5.67201 0
M  V30 8385 H 813.16 -5.97966 5.00057 0
M  V30 8386 N 817.389 -1.46805 -0.573248 0
M  V30 8387 C 818.617 -1.56191 -1.3569 0
M  V30 8388 C 819.032 -0.206362 -1.87669 0
M  V30 8389 O 818.389 0.797883 -1.64134 0
M  V30 8390 C 818.44 -2.57433 -2.53792 0
M  V30 8391 O 818.161 -3.87724 -2.03965 0
M  V30 8392 C 819.662 -2.76851 -3.4622 0
M  V30 8393 H 816.882 -0.527907 -0.414192 0
M  V30 8394 H 819.426 -1.92292 -0.695989 0
M  V30 8395 H 817.581 -2.24311 -3.15854 0
M  V30 8396 H 817.995 -4.42909 -2.80948 0
M  V30 8397 H 819.469 -3.5159 -4.25545 0
M  V30 8398 H 819.946 -1.84095 -3.98755 0
M  V30 8399 H 820.552 -3.11107 -2.89987 0
M  V30 8400 N 818.867 0.818669 -1.34668 0
M  V30 8401 C 819.814 1.92983 -1.26595 0
M  V30 8402 C 820.784 1.65506 -0.140315 0
M  V30 8403 O 821.969 1.88063 -0.322005 0
M  V30 8404 C 819.109 3.2932 -1.03163 0
M  V30 8405 C 818.222 3.69061 -2.24539 0
M  V30 8406 C 817.357 4.94368 -1.94355 0
M  V30 8407 C 816.396 5.26702 -3.11851 0
M  V30 8408 N 815.533 6.43187 -2.81522 0
M  V30 8409 H 820.373 1.99219 -2.2162 0
M  V30 8410 H 817.91 0.974612 -1.1018 0
M  V30 8411 H 819.868 4.07897 -0.87613 0
M  V30 8412 H 818.498 3.22584 -0.118045 0
M  V30 8413 H 817.55 2.85842 -2.50995 0
M  V30 8414 H 818.862 3.88924 -3.12313 0
M  V30 8415 H 818.016 5.80742 -1.75566 0
M  V30 8416 H 816.755 4.76515 -1.03848 0
M  V30 8417 H 815.76 4.38823 -3.31231 0
M  V30 8418 H 816.985 5.46492 -4.03142 0
M  V30 8419 H 814.931 6.26783 -1.93596 0
M  V30 8420 H 814.848 6.63243 -3.62829 0
M  V30 8421 H 816.116 7.32621 -2.66247 0
M  V30 8422 N 820.346 1.18468 1.03938 0
M  V30 8423 C 821.276 0.936389 2.13902 0
M  V30 8424 C 822.257 -0.126381 1.6963 0
M  V30 8425 O 823.442 0.0264757 1.94182 0
M  V30 8426 C 820.572 0.462729 3.44204 0
M  V30 8427 C 819.526 1.46613 4.02105 0
M  V30 8428 C 818.852 0.84994 5.27902 0
M  V30 8429 C 820.152 2.84323 4.3813 0
M  V30 8430 H 821.846 1.85602 2.3493 0
M  V30 8431 H 819.392 0.893806 1.12903 0
M  V30 8432 H 821.345 0.276382 4.20493 0
M  V30 8433 H 820.069 -0.492477 3.22866 0
M  V30 8434 H 818.728 1.63944 3.27899 0
M  V30 8435 H 818.376 -0.112493 5.02874 0
M  V30 8436 H 818.076 1.51988 5.67603 0
M  V30 8437 H 819.6 0.674152 6.06867 0
M  V30 8438 H 821.014 2.70636 5.054 0
M  V30 8439 H 819.411 3.48012 4.88884 0
M  V30 8440 H 820.481 3.37776 3.47901 0
M  V30 8441 N 821.824 -1.22873 0.986916 0
M  V30 8442 C 823.049 -1.96028 0.677341 0
M  V30 8443 C 823.474 -1.72487 -0.750319 0
M  V30 8444 O 822.832 -1.00036 -1.51203 0
M  V30 8445 C 822.88 -3.46983 0.981593 0
M  V30 8446 O 821.984 -4.12328 0.0770729 0
M  V30 8447 H 821.325 -0.613458 0.254096 0
M  V30 8448 H 823.855 -1.56132 1.32227 0
M  V30 8449 H 823.865 -3.9747 0.920969 0
M  V30 8450 H 822.54 -3.63442 2.02194 0
M  V30 8451 H 821.117 -3.72402 0.192666 0
M  V30 8452 N 823.302 -0.75937 -1.38099 0
M  V30 8453 C 824.549 -0.318113 -1.99986 0
M  V30 8454 C 824.877 1.10184 -1.6028 0
M  V30 8455 O 824.132 1.77015 -0.834524 0
M  V30 8456 C 824.431 -0.394999 -3.55211 0
M  V30 8457 C 824.097 -1.77143 -4.14646 0
M  V30 8458 C 822.759 -2.14811 -4.30592 0
M  V30 8459 C 825.111 -2.67407 -4.47373 0
M  V30 8460 C 822.439 -3.42203 -4.76565 0
M  V30 8461 C 824.791 -3.94196 -4.94765 0
M  V30 8462 C 823.455 -4.31925 -5.08918 0
M  V30 8463 H 822.725 -0.116406 -0.7318 0
M  V30 8464 H 825.372 -0.97098 -1.65058 0
M  V30 8465 H 823.677 0.341426 -3.9031 0
M  V30 8466 H 825.374 -0.0350722 -4.00985 0
M  V30 8467 H 821.964 -1.46864 -4.02652 0
M  V30 8468 H 826.148 -2.39569 -4.3465 0
M  V30 8469 H 821.404 -3.71346 -4.85708 0
M  V30 8470 H 825.578 -4.64276 -5.19057 0
M  V30 8471 H 823.205 -5.30699 -5.443 0
M  V30 8472 N 824.78 1.49157 -0.508906 0
M  V30 8473 C 825.727 2.2927 0.265288 0
M  V30 8474 C 826.697 1.3603 0.953162 0
M  V30 8475 O 827.882 1.64989 0.958291 0
M  V30 8476 C 825.022 3.18897 1.31904 0
M  V30 8477 C 824.135 4.27201 0.642144 0
M  V30 8478 C 823.27 5.04033 1.67701 0
M  V30 8479 C 822.309 6.04165 0.982422 0
M  V30 8480 N 821.446 6.74133 1.96186 0
M  V30 8481 H 826.286 2.94967 -0.424107 0
M  V30 8482 H 823.823 1.45431 -0.220991 0
M  V30 8483 H 825.781 3.69242 1.94206 0
M  V30 8484 H 824.411 2.55168 1.97709 0
M  V30 8485 H 823.463 3.80283 -0.0943395 0
M  V30 8486 H 824.775 4.98708 0.0957507 0
M  V30 8487 H 823.929 5.58287 2.37487 0
M  V30 8488 H 822.668 4.32317 2.25728 0
M  V30 8489 H 821.673 5.49135 0.270378 0
M  V30 8490 H 822.898 6.7787 0.408554 0
M  V30 8491 H 820.844 6.05183 2.53159 0
M  V30 8492 H 820.761 7.41643 1.46634 0
M  V30 8493 H 822.029 7.32987 2.65236 0
M  V30 8494 N 826.258 0.243083 1.55714 0
M  V30 8495 C 827.504 -0.383287 1.99145 0
M  V30 8496 C 827.837 -1.57868 1.13098 0
M  V30 8497 O 827.112 -1.93535 0.193509 0
M  V30 8498 C 827.395 -0.796879 3.51172 0
M  V30 8499 C 827.248 0.403642 4.47985 0
M  V30 8500 C 828.567 -1.64525 4.08191 0
M  V30 8501 H 825.686 -0.137843 0.723995 0
M  V30 8502 H 828.328 0.343631 1.86867 0
M  V30 8503 H 826.478 -1.41625 3.61766 0
M  V30 8504 H 828.15 1.04204 4.49376 0
M  V30 8505 H 826.393 1.04741 4.20965 0
M  V30 8506 H 827.064 0.0709794 5.51954 0
M  V30 8507 H 829.54 -1.12246 4.00674 0
M  V30 8508 H 828.416 -1.9035 5.14838 0
M  V30 8509 H 828.677 -2.61582 3.56409 0
M  V30 8510 N 827.736 -1.57571 -0.0300757 0
M  V30 8511 C 829.147 -1.77567 -0.576802 0
M  V30 8512 C 829.498 -0.874034 -1.75656 0
M  V30 8513 O 828.623 -0.0686124 -2.16291 0
M  V30 8514 C 829.218 -3.22016 -1.05315 0
M  V30 8515 C 827.777 -3.43212 -1.5454 0
M  V30 8516 C 826.924 -2.73061 -0.483033 0
M  V30 8517 H 829.875 -1.57483 0.196151 0
M  V30 8518 H 829.896 -3.28474 -1.92055 0
M  V30 8519 H 829.408 -3.87613 -0.194298 0
M  V30 8520 H 827.509 -2.82788 -2.42615 0
M  V30 8521 H 827.622 -4.5182 -1.5936 0
M  V30 8522 H 825.986 -2.36805 -0.937835 0
M  V30 8523 H 826.769 -3.4134 0.366341 0
M  V30 8524 N 829.214 0.302327 -1.54673 0
M  V30 8525 C 830.461 1.0377 -1.73891 0
M  V30 8526 C 830.789 1.87309 -0.523979 0
M  V30 8527 O 830.044 1.8936 0.494084 0
M  V30 8528 C 830.343 1.97365 -2.97963 0
M  V30 8529 C 830.009 1.29812 -4.3181 0
M  V30 8530 C 828.671 1.11121 -4.68194 0
M  V30 8531 C 831.023 0.815073 -5.14787 0
M  V30 8532 C 828.351 0.428077 -5.85136 0
M  V30 8533 C 830.703 0.145665 -6.32432 0
M  V30 8534 C 829.367 -0.0532098 -6.67479 0
M  V30 8535 H 828.637 0.379721 -0.636312 0
M  V30 8536 H 831.284 0.312708 -1.8893 0
M  V30 8537 H 829.589 2.76387 -2.777 0
M  V30 8538 H 831.286 2.54331 -3.10027 0
M  V30 8539 H 827.876 1.45366 -4.03196 0
M  V30 8540 H 832.06 0.947191 -4.87178 0
M  V30 8541 H 827.316 0.262995 -6.10834 0
M  V30 8542 H 831.49 -0.236533 -6.95998 0
M  V30 8543 H 829.117 -0.58456 -7.57949 0
M  V30 8544 N 830.692 1.47107 0.565454 0
M  V30 8545 C 831.622 1.61846 1.68309 0
M  V30 8546 C 832.603 0.468159 1.63531 0
M  V30 8547 O 833.788 0.696504 1.8128 0
M  V30 8548 C 830.918 1.62474 3.06952 0
M  V30 8549 C 829.872 2.76649 3.26572 0
M  V30 8550 C 829.198 2.62345 4.65917 0
M  V30 8551 C 830.498 4.18319 3.12741 0
M  V30 8552 H 832.192 2.55407 1.5623 0
M  V30 8553 H 829.738 1.22916 0.750179 0
M  V30 8554 H 831.691 1.71378 3.84977 0
M  V30 8555 H 830.415 0.654692 3.19971 0
M  V30 8556 H 829.074 2.67242 2.50952 0
M  V30 8557 H 828.722 1.63386 4.75725 0
M  V30 8558 H 828.422 3.38936 4.79996 0
M  V30 8559 H 829.946 2.73165 5.46089 0
M  V30 8560 H 831.36 4.28745 3.80593 0
M  V30 8561 H 829.757 4.95632 3.38333 0
M  V30 8562 H 830.827 4.37263 2.09592 0
M  V30 8563 N 832.17 -0.811516 1.35101 0
M  V30 8564 C 833.581 -1.38515 1.25182 0
M  V30 8565 C 833.932 -1.95846 -0.117883 0
M  V30 8566 O 833.057 -1.90925 -1.01866 0
M  V30 8567 C 833.652 -2.51813 2.26662 0
M  V30 8568 C 832.211 -3.05052 2.20499 0
M  V30 8569 C 831.358 -1.77987 2.12641 0
M  V30 8570 H 834.309 -0.614959 1.46301 0
M  V30 8571 H 834.33 -3.30228 1.89023 0
M  V30 8572 H 833.842 -2.10057 3.2634 0
M  V30 8573 H 831.943 -3.51285 1.24215 0
M  V30 8574 H 832.056 -3.63368 3.1225 0
M  V30 8575 H 830.42 -1.99342 1.5854 0
M  V30 8576 H 831.203 -1.38389 3.14171 0
M  V30 8577 N 833.648 -1.19017 -1.03309 0
M  V30 8578 C 834.894 -0.991681 -1.769 0
M  V30 8579 C 835.227 0.476813 -1.88255 0
M  V30 8580 O 834.502 1.35407 -1.39625 0
M  V30 8581 C 834.785 -1.65627 -3.19749 0
M  V30 8582 C 834.638 -3.19813 -3.1629 0
M  V30 8583 C 835.957 -1.37579 -4.18043 0
M  V30 8584 H 833.076 -0.361674 -0.642153 0
M  V30 8585 H 835.718 -1.46795 -1.20628 0
M  V30 8586 H 833.868 -1.25132 -3.67796 0
M  V30 8587 H 835.54 -3.69494 -2.76174 0
M  V30 8588 H 833.783 -3.51578 -2.54117 0
M  V30 8589 H 834.454 -3.61457 -4.17196 0
M  V30 8590 H 836.93 -1.72679 -3.78578 0
M  V30 8591 H 835.806 -1.86636 -5.16196 0
M  V30 8592 H 836.067 -0.300118 -4.4108 0
M  V30 8593 N 835.127 1.22348 -0.993418 0
M  V30 8594 C 836.057 2.26584 -0.564088 0
M  V30 8595 C 837.038 1.65102 0.409298 0
M  V30 8596 O 838.223 1.91872 0.299819 0
M  V30 8597 C 835.353 3.47087 0.121554 0
M  V30 8598 C 834.307 4.21009 -0.770429 0
M  V30 8599 C 833.633 5.34678 0.0481586 0
M  V30 8600 C 834.933 4.79636 -2.06752 0
M  V30 8601 H 836.627 2.62749 -1.43538 0
M  V30 8602 H 834.173 1.26303 -0.691628 0
M  V30 8603 H 836.126 4.19166 0.433303 0
M  V30 8604 H 834.85 3.1002 1.0274 0
M  V30 8605 H 833.509 3.50764 -1.06583 0
M  V30 8606 H 833.157 4.93852 0.954933 0
M  V30 8607 H 832.857 5.85061 -0.545641 0
M  V30 8608 H 834.381 6.09573 0.353991 0
M  V30 8609 H 835.795 5.43654 -1.81969 0
M  V30 8610 H 834.192 5.4036 -2.61019 0
M  V30 8611 H 835.262 3.99659 -2.74592 0
M  V30 8612 N 836.605 0.766683 1.37694 0
M  V30 8613 C 838.016 0.394761 1.82479 0
M  V30 8614 C 838.367 -1.07842 1.63904 0
M  V30 8615 O 837.492 -1.83479 1.14737 0
M  V30 8616 C 838.087 0.70974 3.31283 0
M  V30 8617 C 836.646 0.390936 3.74364 0
M  V30 8618 C 835.793 0.956192 2.60293 0
M  V30 8619 H 838.744 0.961756 1.26238 0
M  V30 8620 H 838.765 -0.00742144 3.80499 0
M  V30 8621 H 838.277 1.782 3.4477 0
M  V30 8622 H 836.378 -0.674213 3.66449 0
M  V30 8623 H 836.491 0.895645 4.70654 0
M  V30 8624 H 834.855 0.380744 2.51838 0
M  V30 8625 H 835.638 2.03375 2.76575 0
M  V30 8626 N 838.083 -1.48885 0.516809 0
M  V30 8627 C 839.332 -2.01686 -0.0239899 0
M  V30 8628 C 839.645 -1.40029 -1.3657 0
M  V30 8629 O 840.851 -1.84249 -1.9941 0
M  V30 8630 C 839.307 -3.59779 -0.0931825 0
M  V30 8631 C 838.915 -4.30416 1.24283 0
M  V30 8632 C 840.659 -4.20471 -0.583507 0
M  V30 8633 C 838.566 -5.80408 1.13494 0
M  V30 8634 H 837.496 -0.753892 -0.0127376 0
M  V30 8635 H 840.147 -1.71273 0.65861 0
M  V30 8636 H 838.529 -3.86976 -0.840577 0
M  V30 8637 H 839.703 -4.14905 2.00476 0
M  V30 8638 H 838.018 -3.81539 1.66785 0
M  V30 8639 H 840.615 -5.30333 -0.681987 0
M  V30 8640 H 840.958 -3.84898 -1.58617 0
M  V30 8641 H 841.491 -3.97654 0.107814 0
M  V30 8642 H 838.23 -6.20532 2.11235 0
M  V30 8643 H 837.75 -5.98368 0.414167 0
M  V30 8644 H 839.429 -6.41781 0.820162 0
M  V30 8645 N 839.561 -0.251338 -1.55583 0
M  V30 8646 C 840.491 0.640437 -2.24545 0
M  V30 8647 C 841.472 1.17781 -1.22726 0
M  V30 8648 O 842.657 1.21633 -1.5139 0
M  V30 8649 C 839.787 1.8355 -2.94834 0
M  V30 8650 C 838.741 1.4307 -4.03379 0
M  V30 8651 C 838.067 2.70695 -4.61116 0
M  V30 8652 C 839.367 0.59848 -5.1886 0
M  V30 8653 H 841.061 0.0653772 -2.99329 0
M  V30 8654 H 838.607 0.0300042 -1.43969 0
M  V30 8655 H 840.56 2.46505 -3.4178 0
M  V30 8656 H 839.284 2.43601 -2.17546 0
M  V30 8657 H 837.943 0.824474 -3.57209 0
M  V30 8658 H 837.591 3.28954 -3.80524 0
M  V30 8659 H 837.291 2.44332 -5.34393 0
M  V30 8660 H 838.815 3.34541 -5.10798 0
M  V30 8661 H 840.229 1.13244 -5.62004 0
M  V30 8662 H 838.626 0.430728 -5.98552 0
M  V30 8663 H 839.696 -0.38829 -4.83343 0
M  V30 8664 N 841.039 1.57585 0.0217189 0
M  V30 8665 C 842.264 1.94267 0.726309 0
M  V30 8666 C 842.689 0.851904 1.67703 0
M  V30 8667 O 842.047 -0.191792 1.80283 0
M  V30 8668 C 842.095 3.30023 1.45318 0
M  V30 8669 O 841.199 3.22791 2.5667 0
M  V30 8670 H 840.54 0.634777 0.194818 0
M  V30 8671 H 843.07 2.04585 -0.0249985 0
M  V30 8672 H 843.08 3.65084 1.82147 0
M  V30 8673 H 841.755 4.08972 0.755962 0
M  V30 8674 H 840.332 2.99373 2.2233 0
M  V30 8675 N 842.517 -0.29412 1.54831 0
M  V30 8676 C 843.766 -1.02614 1.73647 0
M  V30 8677 C 844.079 -1.88193 0.533162 0
M  V30 8678 O 845.285 -2.64713 0.603275 0
M  V30 8679 C 843.741 -1.87417 3.07251 0
M  V30 8680 C 843.349 -1.06806 4.35082 0
M  V30 8681 C 845.093 -2.60176 3.35423 0
M  V30 8682 C 843 -1.90926 5.59733 0
M  V30 8683 H 841.93 -0.386834 0.647206 0
M  V30 8684 H 844.581 -0.282789 1.81308 0
M  V30 8685 H 842.963 -2.65765 2.93572 0
M  V30 8686 H 844.137 -0.330226 4.59615 0
M  V30 8687 H 842.452 -0.455979 4.13896 0
M  V30 8688 H 845.049 -3.23476 4.25755 0
M  V30 8689 H 845.392 -3.29365 2.54606 0
M  V30 8690 H 845.925 -1.88871 3.50103 0
M  V30 8691 H 842.664 -1.26194 6.43238 0
M  V30 8692 H 842.184 -2.62363 5.39375 0
M  V30 8693 H 843.863 -2.48807 5.97247 0
M  V30 8694 N 843.995 -1.47404 -0.557645 0
M  V30 8695 C 845.242 -1.54007 -1.31484 0
M  V30 8696 C 845.57 -0.202162 -1.93447 0
M  V30 8697 O 844.825 0.804901 -1.78381 0
M  V30 8698 C 845.124 -2.6061 -2.44575 0
M  V30 8699 C 844.79 -4.03896 -2.00446 0
M  V30 8700 C 843.452 -4.42901 -1.88127 0
M  V30 8701 C 845.804 -4.93804 -1.66754 0
M  V30 8702 C 843.132 -5.6965 -1.40411 0
M  V30 8703 C 845.484 -6.21016 -1.20509 0
M  V30 8704 C 844.148 -6.58903 -1.06786 0
M  V30 8705 H 843.418 -0.563552 -0.481134 0
M  V30 8706 H 846.065 -1.81001 -0.625375 0
M  V30 8707 H 844.37 -2.27371 -3.19076 0
M  V30 8708 H 846.067 -2.62941 -3.02759 0
M  V30 8709 H 842.657 -3.73077 -2.10977 0
M  V30 8710 H 846.841 -4.64369 -1.75144 0
M  V30 8711 H 842.097 -5.97755 -1.2845 0
M  V30 8712 H 846.271 -6.90095 -0.935001 0
M  V30 8713 H 843.898 -7.57008 -0.695891 0
M  V30 8714 N 845.473 0.80434 -1.35529 0
M  V30 8715 C 846.719 1.56385 -1.29118 0
M  V30 8716 C 847.052 1.9374 0.133536 0
M  V30 8717 O 846.327 1.6153 1.08344 0
M  V30 8718 C 846.61 2.85097 -2.19981 0
M  V30 8719 C 846.463 2.54204 -3.7108 0
M  V30 8720 C 847.782 3.86817 -2.09907 0
M  V30 8721 H 844.901 0.567382 -0.470368 0
M  V30 8722 H 847.543 0.925235 -1.6595 0
M  V30 8723 H 845.693 3.39594 -1.88701 0
M  V30 8724 H 847.365 2.05872 -4.12813 0
M  V30 8725 H 845.608 1.87364 -3.91251 0
M  V30 8726 H 846.279 3.46068 -4.30048 0
M  V30 8727 H 848.755 3.41725 -2.37409 0
M  V30 8728 H 847.631 4.7465 -2.75678 0
M  V30 8729 H 847.892 4.28663 -1.08171 0
M  V30 8730 N 846.951 1.19563 1.02676 0
M  V30 8731 C 847.899 0.931942 2.13114 0
M  V30 8732 C 848.893 -0.113007 1.69023 0
M  V30 8733 O 850.099 0.0364298 1.79963 0
M  V30 8734 H 846.474 0.283981 0.696318 0
M  V30 8735 H 848.445 1.86991 2.32545 0
M  V30 8736 C 847.194 0.489461 3.44238 0
M  V30 8737 H 846.517 1.28508 3.78584 0
M  V30 8738 H 847.957 0.34408 4.22602 0
M  V30 8739 C 846.416 -0.796761 3.27343 0
M  V30 8740 O 846.946 -1.85767 3.56165 0
M  V30 8741 N 845.152 -0.754824 2.80626 0
M  V30 8742 H 844.699 0.108778 2.5737 0
M  V30 8743 H 844.657 -1.6158 2.69702 0
M  V30 8744 N 848.429 -1.21819 0.999893 0
M  V30 8745 C 849.675 -1.91035 0.680701 0
M  V30 8746 C 850.008 -1.77582 -0.786021 0
M  V30 8747 O 849.283 -1.14917 -1.56921 0
M  V30 8748 C 849.566 -3.43013 1.0961 0
M  V30 8749 C 849.419 -3.65481 2.6219 0
M  V30 8750 C 850.738 -4.35204 0.654616 0
M  V30 8751 H 847.857 -0.693748 0.248763 0
M  V30 8752 H 850.499 -1.43555 1.24466 0
M  V30 8753 H 848.649 -3.83581 0.616253 0
M  V30 8754 H 850.321 -3.34273 3.17899 0
M  V30 8755 H 848.564 -3.09522 3.03938 0
M  V30 8756 H 849.235 -4.71945 2.86307 0
M  V30 8757 H 851.711 -4.0219 1.06688 0
M  V30 8758 H 850.587 -5.40198 0.973492 0
M  V30 8759 H 850.848 -4.3986 -0.444458 0
M  V30 8760 N 849.908 -0.773975 -1.37286 0
M  V30 8761 C 851.138 -0.350249 -2.03609 0
M  V30 8762 C 851.546 1.03313 -1.58502 0
M  V30 8763 O 850.889 1.67118 -0.7627 0
M  V30 8764 C 850.951 -0.317215 -3.58098 0
M  V30 8765 C 850.615 -1.64556 -4.26345 0
M  V30 8766 C 851.612 -2.59839 -4.50311 0
M  V30 8767 C 849.297 -1.92061 -4.64131 0
M  V30 8768 C 851.291 -3.80833 -5.11122 0
M  V30 8769 C 848.978 -3.13325 -5.24663 0
M  V30 8770 C 849.976 -4.0753 -5.48095 0
M  V30 8771 O 849.664 -5.26658 -6.0736 0
M  V30 8772 H 849.396 -0.144456 -0.660385 0
M  V30 8773 H 851.95 -1.0496 -1.76557 0
M  V30 8774 H 850.18 0.438528 -3.84205 0
M  V30 8775 H 851.869 0.0797428 -4.05822 0
M  V30 8776 H 852.635 -2.39872 -4.21529 0
M  V30 8777 H 848.514 -1.19562 -4.45226 0
M  V30 8778 H 852.058 -4.54377 -5.29327 0
M  V30 8779 H 847.955 -3.33177 -5.52869 0
M  V30 8780 H 848.723 -5.27513 -6.25837 0
M  V30 8781 N 851.386 1.48609 -0.524698 0
M  V30 8782 C 852.316 2.32366 0.229837 0
M  V30 8783 C 853.297 1.41759 0.940129 0
M  V30 8784 O 854.482 1.7065 0.926936 0
M  V30 8785 C 851.612 3.22835 1.28043 0
M  V30 8786 C 850.566 4.22424 0.688603 0
M  V30 8787 C 849.892 5.0199 1.84146 0
M  V30 8788 C 851.192 5.21217 -0.336176 0
M  V30 8789 H 852.886 2.95698 -0.469339 0
M  V30 8790 H 850.432 1.42197 -0.227156 0
M  V30 8791 H 852.385 3.80253 1.8162 0
M  V30 8792 H 851.109 2.57492 2.00912 0
M  V30 8793 H 849.768 3.66185 0.174402 0
M  V30 8794 H 849.416 4.33076 2.5584 0
M  V30 8795 H 849.116 5.69392 1.45142 0
M  V30 8796 H 850.64 5.62259 2.38111 0
M  V30 8797 H 852.054 5.7319 0.112307 0
M  V30 8798 H 850.451 5.96642 -0.643324 0
M  V30 8799 H 851.521 4.68676 -1.24381 0
M  V30 8800 N 852.864 0.259585 1.55447 0
M  V30 8801 C 853.797 -0.675542 2.17972 0
M  V30 8802 C 854.775 -1.16362 1.13572 0
M  V30 8803 O 855.959 -1.23944 1.42021 0
M  V30 8804 C 853.086 -1.91952 2.79056 0
M  V30 8805 C 852.132 -1.56824 3.96621 0
M  V30 8806 S 852.965 -0.659846 5.31419 0
M  V30 8807 C 854.121 -1.91255 5.95963 0
M  V30 8808 H 854.354 -0.144236 2.9695 0
M  V30 8809 H 851.887 0.0439448 1.54337 0
M  V30 8810 H 853.845 -2.63362 3.14882 0
M  V30 8811 H 852.506 -2.42196 2 0
M  V30 8812 H 851.699 -2.49348 4.37997 0
M  V30 8813 H 851.301 -0.934472 3.62138 0
M  V30 8814 H 853.593 -2.85834 6.14252 0
M  V30 8815 H 854.536 -1.54207 6.91105 0
M  V30 8816 H 854.944 -2.07042 5.25161 0
M  V30 8817 N 854.342 -1.57594 -0.0133615 0
M  V30 8818 C 855.275 -2.02991 -1.04259 0
M  V30 8819 C 856.253 -0.917193 -1.34262 0
M  V30 8820 O 857.437 -1.18428 -1.46653 0
M  V30 8821 C 854.564 -2.41624 -2.37351 0
M  V30 8822 C 853.61 -3.63495 -2.231 0
M  V30 8823 S 854.443 -5.1198 -1.5696 0
M  V30 8824 C 855.599 -5.5387 -2.91511 0
M  V30 8825 H 855.832 -2.89973 -0.655985 0
M  V30 8826 H 853.365 -1.52769 -0.223827 0
M  V30 8827 H 855.323 -2.64551 -3.13884 0
M  V30 8828 H 853.984 -1.55065 -2.73155 0
M  V30 8829 H 853.177 -3.88233 -3.21389 0
M  V30 8830 H 852.779 -3.405 -1.54711 0
M  V30 8831 H 855.071 -5.55514 -3.87828 0
M  V30 8832 H 856.014 -6.53988 -2.71488 0
M  V30 8833 H 856.422 -4.81404 -2.94806 0
M  V30 8834 N 855.82 0.285905 -1.54985 0
M  V30 8835 C 856.752 1.37505 -1.83371 0
M  V30 8836 C 857.765 1.46138 -0.717454 0
M  V30 8837 O 858.954 1.48186 -0.995142 0
M  V30 8838 C 856.054 2.7575 -1.97016 0
M  V30 8839 C 855.227 2.89866 -3.27561 0
M  V30 8840 C 854.286 4.08704 -3.31433 0
M  V30 8841 O 853.312 4.00073 -4.04883 0
M  V30 8842 N 854.514 5.20062 -2.57907 0
M  V30 8843 H 857.279 1.13505 -2.77375 0
M  V30 8844 H 854.84 0.476006 -1.54744 0
M  V30 8845 H 856.832 3.5352 -1.96991 0
M  V30 8846 H 855.402 2.9263 -1.09938 0
M  V30 8847 H 854.622 1.99085 -3.40234 0
M  V30 8848 H 855.91 2.96219 -4.13681 0
M  V30 8849 H 855.308 5.29958 -1.97891 0
M  V30 8850 H 853.865 5.96111 -2.63619 0
M  V30 8851 N 857.298 1.47698 0.54982 0
M  V30 8852 C 858.228 1.63622 1.66583 0
M  V30 8853 C 859.209 0.485477 1.63025 0
M  V30 8854 O 860.394 0.715692 1.80531 0
M  V30 8855 C 857.524 1.65721 3.05211 0
M  V30 8856 C 856.478 2.80097 3.2362 0
M  V30 8857 C 855.804 2.67272 4.63109 0
M  V30 8858 C 857.104 4.21612 3.08286 0
M  V30 8859 H 858.798 2.57049 1.53512 0
M  V30 8860 H 856.344 1.23705 0.737099 0
M  V30 8861 H 858.297 1.75451 3.83138 0
M  V30 8862 H 857.021 0.688593 3.19258 0
M  V30 8863 H 855.68 2.69889 2.48104 0
M  V30 8864 H 855.328 1.68422 4.73965 0
M  V30 8865 H 855.028 3.44008 4.76374 0
M  V30 8866 H 856.552 2.78942 5.43161 0
M  V30 8867 H 857.966 4.32758 3.76024 0
M  V30 8868 H 856.363 4.99193 3.33057 0
M  V30 8869 H 857.433 4.39462 2.04942 0
M  V30 8870 N 858.776 -0.797141 1.35954 0
M  V30 8871 C 860.053 -1.54224 1.2031 0
M  V30 8872 C 860.433 -2.10013 -0.213926 0
M  V30 8873 O 859.781 -1.93292 -1.21862 0
M  V30 8874 C 859.991 -2.6433 2.27883 0
M  V30 8875 C 861.339 -3.32418 2.64165 0
M  V30 8876 O 862.363 -2.74607 2.26868 0
M  V30 8877 O 861.222 -4.36876 3.28331 0
M  V30 8878 H 858.316 -0.681857 0.467974 0
M  V30 8879 H 860.862 -0.836288 1.47663 0
M  V30 8880 H 859.634 -2.21044 3.22885 0
M  V30 8881 H 859.257 -3.42551 2.01853 0
M  V30 8882 N 860.254 -1.20106 -1.0204 0
M  V30 8883 C 861.186 -0.904236 -2.10609 0
M  V30 8884 C 862.199 0.106487 -1.62451 0
M  V30 8885 O 863.388 -0.124035 -1.78069 0
M  V30 8886 C 860.488 -0.333423 -3.37256 0
M  V30 8887 C 859.661 -1.39476 -4.14566 0
M  V30 8888 C 858.72 -0.835961 -5.19517 0
M  V30 8889 O 857.746 -1.51573 -5.48648 0
M  V30 8890 N 858.948 0.356531 -5.79404 0
M  V30 8891 H 861.713 -1.8388 -2.36661 0
M  V30 8892 H 859.274 -1.10422 -1.184 0
M  V30 8893 H 861.266 0.0544571 -4.04663 0
M  V30 8894 H 859.836 0.505608 -3.08484 0
M  V30 8895 H 859.056 -1.95714 -3.42184 0
M  V30 8896 H 860.344 -2.10967 -4.63001 0
M  V30 8897 H 859.742 0.926143 -5.58067 0
M  V30 8898 H 858.299 0.686093 -6.48179 0
M  V30 8899 N 861.732 1.21287 -1.00634 0
M  V30 8900 C 862.98 1.90013 -0.688438 0
M  V30 8901 C 863.301 1.78573 0.783365 0
M  V30 8902 O 862.571 1.1815 1.56261 0
M  V30 8903 H 861.151 0.703336 -0.251648 0
M  V30 8904 H 863.813 1.47346 -1.27574 0
M  V30 8905 H 862.909 2.96879 -0.962781 0
M  V30 8906 N 863.21 0.781244 1.36873 0
M  V30 8907 C 864.438 0.361566 2.03716 0
M  V30 8908 C 864.853 -1.01937 1.58916 0
M  V30 8909 O 864.21 -1.65237 0.774783 0
M  V30 8910 C 864.261 0.406391 3.59208 0
M  V30 8911 O 863.982 1.73286 4.02372 0
M  V30 8912 C 865.483 -0.0236894 4.43294 0
M  V30 8913 H 862.703 0.150133 0.653988 0
M  V30 8914 H 865.247 1.05781 1.75016 0
M  V30 8915 H 863.402 -0.241364 3.86647 0
M  V30 8916 H 863.816 1.67804 4.96933 0
M  V30 8917 H 865.29 0.0588205 5.51969 0
M  V30 8918 H 865.767 -1.07529 4.25833 0
M  V30 8919 H 866.373 0.59624 4.211 0
M  V30 8920 N 864.689 -1.48329 0.532571 0
M  V30 8921 C 865.935 -2.03399 0.00755104 0
M  V30 8922 C 866.29 -1.40213 -1.3175 0
M  V30 8923 O 865.583 -0.539633 -1.83844 0
M  V30 8924 C 865.777 -3.57 -0.168943 0
M  V30 8925 C 865.606 -4.35077 1.13745 0
M  V30 8926 C 864.376 -4.75915 1.69803 0
M  V30 8927 C 866.574 -4.71734 2.04869 0
M  V30 8928 N 864.556 -5.38538 2.94703 0
M  V30 8929 C 865.927 -5.34403 3.14346 0
M  V30 8930 C 867.982 -4.53665 2.05164 0
M  V30 8931 C 866.685 -5.80912 4.24186 0
M  V30 8932 C 868.711 -5.01157 3.13999 0
M  V30 8933 C 868.073 -5.63853 4.22195 0
M  V30 8934 H 864.172 -0.780743 0.0443253 0
M  V30 8935 H 866.756 -1.81119 0.714423 0
M  V30 8936 H 864.927 -3.79099 -0.844903 0
M  V30 8937 H 866.659 -3.98708 -0.693804 0
M  V30 8938 H 863.414 -4.57103 1.23909 0
M  V30 8939 H 863.838 -5.74413 3.583 0
M  V30 8940 H 868.48 -4.04571 1.22808 0
M  V30 8941 H 866.198 -6.2901 5.07318 0
M  V30 8942 H 869.784 -4.88965 3.15285 0
M  V30 8943 H 868.664 -5.99935 5.05023 0
M  V30 8944 N 866.167 -0.267825 -1.55308 0
M  V30 8945 C 867.413 0.351556 -1.9973 0
M  V30 8946 C 867.746 1.56049 -1.15596 0
M  V30 8947 O 867.021 1.93203 -0.224274 0
M  V30 8948 C 867.304 0.74091 -3.52395 0
M  V30 8949 C 867.157 -0.474861 -4.47286 0
M  V30 8950 C 868.476 1.5801 -4.10756 0
M  V30 8951 H 865.595 0.126308 -0.726096 0
M  V30 8952 H 868.237 -0.373316 -1.86296 0
M  V30 8953 H 866.387 1.35851 -3.63973 0
M  V30 8954 H 868.059 -1.1134 -4.47662 0
M  V30 8955 H 866.302 -1.11425 -4.19246 0
M  V30 8956 H 866.973 -0.158782 -5.51772 0
M  V30 8957 H 869.449 1.05857 -4.0241 0
M  V30 8958 H 868.325 1.82135 -5.17801 0
M  V30 8959 H 868.586 2.55878 -3.60526 0
M  V30 8960 N 867.645 1.57599 0.00500368 0
M  V30 8961 C 869.061 1.55463 0.361015 0
M  V30 8962 C 869.261 0.997051 1.75103 0
M  V30 8963 O 868.317 0.628661 2.44549 0
M  V30 8964 C 869.63 2.99734 0.240828 0
M  V30 8965 C 871.178 3.11399 0.316138 0
M  V30 8966 C 871.653 4.57446 0.22513 0
M  V30 8967 N 873.144 4.62334 0.283186 0
M  V30 8968 C 873.879 5.72914 0.23603 0
M  V30 8969 N 873.375 6.92659 0.139762 0
M  V30 8970 N 875.168 5.61364 0.287529 0
M  V30 8971 H 867.319 1.92185 -0.904359 0
M  V30 8972 H 869.582 0.882529 -0.34619 0
M  V30 8973 H 869.288 3.44348 -0.715343 0
M  V30 8974 H 869.162 3.63009 1.02491 0
M  V30 8975 H 871.549 2.66718 1.26275 0
M  V30 8976 H 871.63 2.50911 -0.497725 0
M  V30 8977 H 871.274 5.02801 -0.717917 0
M  V30 8978 H 871.204 5.15874 1.05742 0
M  V30 8979 H 873.695 3.7619 0.359123 0
M  V30 8980 H 874.008 7.72722 0.10954 0
M  V30 8981 H 872.353 6.9492 0.105462 0
M  V30 8982 H 875.544 4.66707 0.360897 0
M  V30 8983 H 875.717 6.47528 0.247313 0
M  V30 8984 N 869.123 -0.277682 1.55134 0
M  V30 8985 C 870.37 -1.0099 1.7552 0
M  V30 8986 C 870.698 -1.86452 0.553712 0
M  V30 8987 O 869.953 -1.90122 -0.463896 0
M  V30 8988 C 870.252 -1.92599 3.01065 0
M  V30 8989 C 869.918 -1.22926 4.3382 0
M  V30 8990 C 868.58 -1.03659 4.69902 0
M  V30 8991 C 870.932 -0.733071 5.16019 0
M  V30 8992 C 868.26 -0.334933 5.85743 0
M  V30 8993 C 870.612 -0.0450319 6.32584 0
M  V30 8994 C 869.276 0.159393 6.6731 0
M  V30 8995 H 868.546 -0.36955 0.642273 0
M  V30 8996 H 871.193 -0.282611 1.89403 0
M  V30 8997 H 869.498 -2.71934 2.82062 0
M  V30 8998 H 871.195 -2.49367 3.14034 0
M  V30 8999 H 867.785 -1.38933 4.05457 0
M  V30 9000 H 871.969 -0.869565 4.88623 0
M  V30 9001 H 867.225 -0.165783 6.11175 0
M  V30 9002 H 871.399 0.34723 6.95534 0
M  V30 9003 H 869.026 0.70507 7.56923 0
M  V30 9004 N 870.601 -1.47988 -0.541979 0
M  V30 9005 C 871.564 -1.61148 -1.62984 0
M  V30 9006 C 872.564 -0.48553 -1.53295 0
M  V30 9007 O 873.754 -0.751012 -1.5718 0
M  V30 9008 C 870.886 -1.57038 -3.02576 0
M  V30 9009 H 872.079 -2.58138 -1.52659 0
M  V30 9010 H 869.632 -1.36405 -0.763106 0
M  V30 9011 H 870.367 -0.614807 -3.18419 0
M  V30 9012 H 870.152 -2.38769 -3.11018 0
M  V30 9013 H 871.642 -1.69416 -3.81691 0
M  V30 9014 N 872.079 0.78992 -1.36375 0
M  V30 9015 C 873.325 1.55007 -1.3077 0
M  V30 9016 C 873.658 1.93871 0.112979 0
M  V30 9017 O 872.933 1.6267 1.06625 0
M  V30 9018 C 873.216 2.82748 -2.22993 0
M  V30 9019 C 873.069 2.50253 -3.73756 0
M  V30 9020 C 874.388 3.84569 -2.13998 0
M  V30 9021 H 871.507 0.562362 -0.476359 0
M  V30 9022 H 874.149 0.907582 -1.66922 0
M  V30 9023 H 872.299 3.37573 -1.92292 0
M  V30 9024 H 873.971 2.01482 -4.14973 0
M  V30 9025 H 872.214 1.83203 -3.93216 0
M  V30 9026 H 872.885 3.41487 -4.33694 0
M  V30 9027 H 875.361 3.39188 -2.4102 0
M  V30 9028 H 874.237 4.717 -2.80697 0
M  V30 9029 H 874.498 4.27491 -1.12711 0
M  V30 9030 N 873.557 1.20646 1.01402 0
M  V30 9031 C 874.803 1.02974 1.75408 0
M  V30 9032 C 875.158 -0.433294 1.87458 0
M  V30 9033 O 874.451 -1.31741 1.39122 0
M  V30 9034 C 874.645 1.64991 3.17037 0
M  V30 9035 C 874.474 3.17174 3.18796 0
M  V30 9036 C 873.244 3.86165 3.2589 0
M  V30 9037 C 875.442 4.14369 3.04636 0
M  V30 9038 N 873.424 5.25614 3.1718 0
M  V30 9039 C 874.795 5.4051 3.03724 0
M  V30 9040 C 876.85 4.05534 2.88872 0
M  V30 9041 C 875.553 6.58836 2.88664 0
M  V30 9042 C 877.579 5.23486 2.75166 0
M  V30 9043 C 876.941 6.48535 2.74922 0
M  V30 9044 H 873.04 0.431068 0.65246 0
M  V30 9045 H 875.624 1.52858 1.20593 0
M  V30 9046 H 873.795 1.17688 3.70141 0
M  V30 9047 H 875.527 1.40612 3.79487 0
M  V30 9048 H 872.282 3.37038 3.32719 0
M  V30 9049 H 872.706 5.98625 3.16192 0
M  V30 9050 H 877.348 3.09661 2.87872 0
M  V30 9051 H 875.066 7.5488 2.88413 0
M  V30 9052 H 878.652 5.18464 2.63982 0
M  V30 9053 H 877.532 7.3827 2.64439 0
M  V30 9054 N 875.035 -1.20752 1.01276 0
M  V30 9055 C 875.968 -2.22091 0.524472 0
M  V30 9056 C 876.946 -1.5692 -0.426017 0
M  V30 9057 O 878.13 -1.8528 -0.346919 0
M  V30 9058 C 875.257 -3.37868 -0.237224 0
M  V30 9059 C 874.303 -4.21327 0.662236 0
M  V30 9060 S 875.136 -4.91352 2.12916 0
M  V30 9061 C 876.292 -6.10553 1.37752 0
M  V30 9062 H 876.525 -2.63166 1.38315 0
M  V30 9063 H 874.058 -1.30742 0.821332 0
M  V30 9064 H 876.016 -4.04985 -0.670599 0
M  V30 9065 H 874.677 -2.95261 -1.07143 0
M  V30 9066 H 873.87 -5.03944 0.0751085 0
M  V30 9067 H 873.472 -3.59445 1.03322 0
M  V30 9068 H 875.764 -6.74322 0.655491 0
M  V30 9069 H 876.707 -6.73717 2.17969 0
M  V30 9070 H 877.115 -5.57566 0.882088 0
M  V30 9071 N 876.513 -0.788492 -1.36457 0
M  V30 9072 C 877.443 -0.200468 -2.32638 0
M  V30 9073 C 878.424 0.664031 -1.56603 0
M  V30 9074 O 879.609 0.598045 -1.84762 0
M  V30 9075 C 876.739 0.666274 -3.40849 0
M  V30 9076 C 875.693 -0.0982574 -4.27887 0
M  V30 9077 C 875.019 0.889018 -5.27258 0
M  V30 9078 C 876.319 -1.28692 -5.06197 0
M  V30 9079 H 878.013 -1.00399 -2.82065 0
M  V30 9080 H 875.559 -0.484237 -1.35614 0
M  V30 9081 H 877.512 1.08757 -4.07124 0
M  V30 9082 H 876.236 1.50249 -2.89987 0
M  V30 9083 H 874.895 -0.500525 -3.63167 0
M  V30 9084 H 874.543 1.72024 -4.7267 0
M  V30 9085 H 874.243 0.381909 -5.86358 0
M  V30 9086 H 875.767 1.30891 -5.96406 0
M  V30 9087 H 877.181 -0.941429 -5.65517 0
M  V30 9088 H 875.578 -1.72726 -5.74705 0
M  V30 9089 H 876.648 -2.08273 -4.37893 0
M  V30 9090 N 877.991 1.48044 -0.54043 0
M  V30 9091 C 879.24 2.01698 -0.00809961 0
M  V30 9092 C 879.553 1.42184 1.34325 0
M  V30 9093 O 880.759 1.87398 1.96454 0
M  V30 9094 C 879.215 3.59882 0.035933 0
M  V30 9095 C 878.823 4.28384 -1.31115 0
M  V30 9096 C 880.567 4.21346 0.51654 0
M  V30 9097 C 878.474 5.78529 -1.22714 0
M  V30 9098 H 877.404 0.754 0.000742174 0
M  V30 9099 H 880.055 1.70204 -0.685775 0
M  V30 9100 H 878.437 3.88264 0.778906 0
M  V30 9101 H 879.611 4.11663 -2.07051 0
M  V30 9102 H 877.926 3.78837 -1.72834 0
M  V30 9103 H 880.523 5.31351 0.597529 0
M  V30 9104 H 880.866 3.87373 1.52473 0
M  V30 9105 H 881.399 3.97432 -0.171064 0
M  V30 9106 H 878.138 6.17093 -2.21081 0
M  V30 9107 H 877.658 5.97634 -0.50931 0
M  V30 9108 H 879.337 6.40395 -0.92216 0
M  V30 9109 N 879.47 0.276058 1.55163 0
M  V30 9110 C 880.718 -0.339782 1.99223 0
M  V30 9111 C 881.039 -1.56307 1.16589 0
M  V30 9112 O 880.309 -1.94225 0.25564 0
M  V30 9113 H 878.889 -0.128534 0.735859 0
M  V30 9114 H 881.551 0.381612 1.91128 0
M  V30 9115 H 880.647 -0.629 3.05696 0
M  V30 9116 N 880.948 -1.576 0.00335426 0
M  V30 9117 C 882.195 -1.90713 -0.680791 0
M  V30 9118 C 882.523 -0.877263 -1.73592 0
M  V30 9119 O 881.778 0.117497 -1.95347 0
M  V30 9120 C 882.077 -3.3058 -1.35837 0
M  V30 9121 C 881.743 -4.48786 -0.436111 0
M  V30 9122 C 880.405 -4.80855 -0.182195 0
M  V30 9123 C 882.757 -5.20821 0.198677 0
M  V30 9124 C 880.085 -5.8233 0.714747 0
M  V30 9125 C 882.437 -6.23252 1.08351 0
M  V30 9126 C 881.101 -6.53776 1.34658 0
M  V30 9127 H 880.371 -0.697869 -0.249119 0
M  V30 9128 H 883.018 -1.91407 0.0596011 0
M  V30 9129 H 881.323 -3.26026 -2.17289 0
M  V30 9130 H 883.02 -3.53462 -1.89383 0
M  V30 9131 H 879.61 -4.23731 -0.644186 0
M  V30 9132 H 883.794 -4.96298 0.0155259 0
M  V30 9133 H 879.05 -6.04339 0.926529 0
M  V30 9134 H 883.224 -6.78199 1.58172 0
M  V30 9135 H 880.851 -7.32225 2.04328 0
M  V30 9136 N 882.426 0.269451 -1.5528 0
M  V30 9137 C 883.675 0.998381 -1.75258 0
M  V30 9138 C 883.988 1.87321 -0.563034 0
M  V30 9139 O 885.194 2.63719 -0.645313 0
M  V30 9140 C 883.65 1.82505 -3.10193 0
M  V30 9141 C 883.258 0.99871 -4.36726 0
M  V30 9142 C 885.002 2.54807 -3.3952 0
M  V30 9143 C 882.909 1.81997 -5.627 0
M  V30 9144 H 881.839 0.376488 -0.653278 0
M  V30 9145 H 884.49 0.253909 -1.81735 0
M  V30 9146 H 882.872 2.61061 -2.97763 0
M  V30 9147 H 884.046 0.257064 -4.60082 0
M  V30 9148 H 882.361 0.390074 -4.14569 0
M  V30 9149 H 884.958 3.16662 -4.30847 0
M  V30 9150 H 885.301 3.25273 -2.59813 0
M  V30 9151 H 885.834 1.83278 -3.53064 0
M  V30 9152 H 882.573 1.15945 -6.45164 0
M  V30 9153 H 882.093 2.53749 -5.43481 0
M  V30 9154 H 883.772 2.39274 -6.0113 0
M  V30 9155 N 883.904 1.48273 0.534124 0
M  V30 9156 C 885.153 1.55334 1.28663 0
M  V30 9157 C 885.466 0.230345 1.94239 0
M  V30 9158 O 886.672 0.179161 2.70908 0
M  V30 9159 C 885.128 2.73927 2.33435 0
M  V30 9160 C 884.736 4.12852 1.73947 0
M  V30 9161 C 886.48 2.90298 3.09722 0
M  V30 9162 C 884.387 5.22711 2.76636 0
M  V30 9163 H 883.317 0.578262 0.483869 0
M  V30 9164 H 885.968 1.74598 0.564602 0
M  V30 9165 H 884.35 2.48089 3.08655 0
M  V30 9166 H 885.524 4.48691 1.04944 0
M  V30 9167 H 883.839 4.01562 1.10167 0
M  V30 9168 H 886.436 3.69542 3.86449 0
M  V30 9169 H 886.779 1.99598 3.6533 0
M  V30 9170 H 887.312 3.16017 2.41616 0
M  V30 9171 H 884.051 6.15362 2.25852 0
M  V30 9172 H 883.571 4.91364 3.43979 0
M  V30 9173 H 885.25 5.50648 3.39699 0
M  V30 9174 N 885.382 -0.782676 1.36792 0
M  V30 9175 C 886.612 -1.56934 1.3437 0
M  V30 9176 C 887.02 -1.89049 -0.0754828 0
M  V30 9177 O 886.363 -1.51103 -1.04467 0
M  V30 9178 C 886.425 -2.91311 2.10661 0
M  V30 9179 C 886.089 -2.81889 3.59705 0
M  V30 9180 C 887.086 -2.53668 4.53815 0
M  V30 9181 C 884.771 -3.00254 4.02682 0
M  V30 9182 C 886.765 -2.43925 5.8888 0
M  V30 9183 C 884.452 -2.90132 5.37835 0
M  V30 9184 C 885.45 -2.62006 6.30747 0
M  V30 9185 O 885.138 -2.5189 7.63418 0
M  V30 9186 H 884.87 -0.493194 0.462316 0
M  V30 9187 H 887.424 -0.978791 1.80579 0
M  V30 9188 H 885.654 -3.52443 1.59125 0
M  V30 9189 H 887.343 -3.52632 2.01012 0
M  V30 9190 H 888.109 -2.39176 4.21924 0
M  V30 9191 H 883.988 -3.21151 3.30731 0
M  V30 9192 H 887.532 -2.21892 6.6137 0
M  V30 9193 H 883.429 -3.04189 5.69332 0
M  V30 9194 H 884.197 -2.67321 7.73616 0
M  V30 9195 N 886.86 -1.21182 -1.00761 0
M  V30 9196 C 888.107 -1.02746 -1.74498 0
M  V30 9197 C 888.435 0.439344 -1.89473 0
M  V30 9198 O 887.69 1.34232 -1.42409 0
M  V30 9199 C 887.989 -1.6667 -3.16158 0
M  V30 9200 C 887.655 -3.16515 -3.21137 0
M  V30 9201 C 886.317 -3.57405 -3.22203 0
M  V30 9202 C 888.669 -4.12495 -3.18587 0
M  V30 9203 C 885.997 -4.92786 -3.18401 0
M  V30 9204 C 888.349 -5.47833 -3.16326 0
M  V30 9205 C 887.013 -5.88124 -3.157 0
M  V30 9206 H 886.283 -0.375974 -0.638533 0
M  V30 9207 H 888.93 -1.50736 -1.18114 0
M  V30 9208 H 887.235 -1.10966 -3.75758 0
M  V30 9209 H 888.932 -1.49911 -3.71924 0
M  V30 9210 H 885.522 -2.83947 -3.21048 0
M  V30 9211 H 889.706 -3.81932 -3.16925 0
M  V30 9212 H 884.962 -5.23253 -3.16253 0
M  V30 9213 H 889.136 -6.21942 -3.13306 0
M  V30 9214 H 886.763 -6.92995 -3.12508 0
M  V30 9215 N 888.338 1.20213 -1.01915 0
M  V30 9216 C 889.586 1.89272 -0.708552 0
M  V30 9217 C 889.907 1.79394 0.76438 0
M  V30 9218 O 889.177 1.198 1.54999 0
M  V30 9219 H 887.757 0.700628 -0.259094 0
M  V30 9220 H 890.419 1.45985 -1.29129 0
M  V30 9221 H 889.515 2.95841 -0.994215 0
M  V30 9222 N 889.816 0.795718 1.36037 0
M  V30 9223 C 891.046 0.382597 2.03026 0
M  V30 9224 C 891.454 -1.00779 1.60126 0
M  V30 9225 O 890.797 -1.65884 0.78919 0
M  V30 9226 C 890.859 0.374145 3.57548 0
M  V30 9227 C 890.523 1.71318 4.23673 0
M  V30 9228 C 891.52 2.6697 4.4612 0
M  V30 9229 C 889.205 1.99421 4.61017 0
M  V30 9230 C 891.199 3.88916 5.04998 0
M  V30 9231 C 888.886 3.21632 5.19611 0
M  V30 9232 C 889.884 4.16198 5.41542 0
M  V30 9233 O 889.572 5.36254 5.98905 0
M  V30 9234 H 889.304 0.154944 0.658003 0
M  V30 9235 H 891.858 1.07756 1.74865 0
M  V30 9236 H 890.088 -0.377349 3.84854 0
M  V30 9237 H 891.777 -0.01517 4.05897 0
M  V30 9238 H 892.543 2.46548 4.17659 0
M  V30 9239 H 888.422 1.2663 4.43267 0
M  V30 9240 H 891.966 4.6274 5.22032 0
M  V30 9241 H 887.863 3.4193 5.47498 0
M  V30 9242 H 888.631 5.37403 6.17366 0
M  V30 9243 N 891.294 -1.47756 0.548274 0
M  V30 9244 C 892.542 -2.02089 0.0208542 0
M  V30 9245 C 892.863 -1.42589 -1.33017 0
M  V30 9246 O 892.133 -0.597825 -1.86555 0
M  V30 9247 H 890.713 -0.746985 0.00472023 0
M  V30 9248 H 893.375 -1.81262 0.716257 0
M  V30 9249 H 892.471 -3.12012 -0.0739016 0
M  V30 9250 N 892.772 -0.284283 -1.55015 0
M  V30 9251 C 893.702 0.592663 -2.25853 0
M  V30 9252 C 894.683 1.15151 -1.25197 0
M  V30 9253 O 895.868 1.18395 -1.53936 0
M  V30 9254 C 892.998 1.77254 -2.98661 0
M  V30 9255 C 891.952 1.34482 -4.06323 0
M  V30 9256 C 891.278 2.60853 -4.66754 0
M  V30 9257 C 892.578 0.488288 -5.20013 0
M  V30 9258 H 894.272 0.00187041 -2.994 0
M  V30 9259 H 891.818 -0.000540402 -1.44 0
M  V30 9260 H 893.771 2.39199 -3.46932 0
M  V30 9261 H 892.495 2.38931 -2.22664 0
M  V30 9262 H 891.154 0.748519 -3.58877 0
M  V30 9263 H 890.802 3.20808 -3.87416 0
M  V30 9264 H 890.502 2.32942 -5.39455 0
M  V30 9265 H 892.026 3.23631 -5.1778 0
M  V30 9266 H 893.44 1.01298 -5.6428 0
M  V30 9267 H 891.837 0.303669 -5.99331 0
M  V30 9268 H 892.907 -0.490727 -4.8241 0
M  V30 9269 N 894.251 1.57596 -0.0117121 0
M  V30 9270 C 895.497 1.92189 0.665966 0
M  V30 9271 C 895.852 0.887145 1.70726 0
M  V30 9272 O 895.145 -0.099151 1.91343 0
M  V30 9273 C 895.339 3.31296 1.34082 0
M  V30 9274 C 895.168 4.48205 0.366406 0
M  V30 9275 C 893.938 5.05293 -0.0274458 0
M  V30 9276 C 896.136 5.12951 -0.37219 0
M  V30 9277 N 894.118 6.0572 -0.998846 0
M  V30 9278 C 895.489 6.08318 -1.1979 0
M  V30 9279 C 897.544 4.95998 -0.434768 0
M  V30 9280 C 896.247 6.88555 -2.0805 0
M  V30 9281 C 898.273 5.7683 -1.30464 0
M  V30 9282 C 897.635 6.71798 -2.11816 0
M  V30 9283 H 893.734 0.751422 0.216537 0
M  V30 9284 H 896.318 1.94556 -0.0748079 0
M  V30 9285 H 894.489 3.2978 2.05182 0
M  V30 9286 H 896.221 3.53285 1.97413 0
M  V30 9287 H 892.976 4.72354 0.343382 0
M  V30 9288 H 893.4 6.60619 -1.48027 0
M  V30 9289 H 898.042 4.22417 0.179925 0
M  V30 9290 H 895.76 7.61453 -2.70581 0
M  V30 9291 H 899.346 5.6575 -1.35712 0
M  V30 9292 H 898.226 7.33256 -2.78037 0
M  V30 9293 N 895.729 -0.261212 1.5542 0
M  V30 9294 C 896.679 -1.32571 1.85496 0
M  V30 9295 C 897.663 -1.44155 0.714722 0
M  V30 9296 O 898.855 -1.47637 0.976336 0
M  V30 9297 C 895.984 -2.68384 2.14067 0
M  V30 9298 C 895.07 -2.60864 3.34381 0
M  V30 9299 N 895.461 -2.22967 4.54004 0
M  V30 9300 C 893.759 -2.91904 3.37206 0
M  V30 9301 C 894.46 -2.25727 5.36118 0
M  V30 9302 N 893.436 -2.64667 4.74818 0
M  V30 9303 H 897.238 -1.02298 2.75522 0
M  V30 9304 H 894.752 -0.469849 1.55455 0
M  V30 9305 H 896.749 -3.45189 2.33774 0
M  V30 9306 H 895.409 -2.99536 1.25332 0
M  V30 9307 H 896.42 -1.94748 4.79889 0
M  V30 9308 H 893.097 -3.2769 2.587 0
M  V30 9309 H 894.487 -1.98889 6.41789 0
M  V30 9310 N 897.207 -1.48554 -0.526253 0
M  V30 9311 C 898.432 -1.60686 -1.31129 0
M  V30 9312 C 898.857 -0.268701 -1.86171 0
M  V30 9313 O 898.215 0.760167 -1.64594 0
M  V30 9314 C 898.263 -2.65938 -2.43536 0
M  V30 9315 O 897.367 -2.23356 -3.46678 0
M  V30 9316 H 896.708 -0.538691 -0.388211 0
M  V30 9317 H 899.238 -1.94567 -0.632826 0
M  V30 9318 H 899.248 -2.87327 -2.89668 0
M  V30 9319 H 897.923 -3.63085 -2.02835 0
M  V30 9320 H 896.5 -2.12196 -3.06639 0
M  V30 9321 N 898.685 0.775411 -1.37205 0
M  V30 9322 C 899.595 1.91967 -1.34855 0
M  V30 9323 C 900.611 1.72214 -0.248656 0
M  V30 9324 O 901.787 1.95512 -0.483421 0
M  V30 9325 C 898.852 3.27038 -1.15096 0
M  V30 9326 C 897.913 3.5947 -2.34691 0
M  V30 9327 C 897.146 4.88097 -2.15865 0
M  V30 9328 O 897.369 5.58871 -1.14102 0
M  V30 9329 O 896.303 5.19507 -3.03967 0
M  V30 9330 H 900.129 1.969 -2.31223 0
M  V30 9331 H 897.714 0.917647 -1.17897 0
M  V30 9332 H 899.596 4.07837 -1.0605 0
M  V30 9333 H 898.271 3.22965 -0.217999 0
M  V30 9334 H 897.178 2.7892 -2.49308 0
M  V30 9335 H 898.511 3.68282 -3.26541 0
M  V30 9336 N 900.163 1.21714 1.00117 0
M  V30 9337 C 901.073 0.99597 2.12409 0
M  V30 9338 C 902.089 -0.0531431 1.73919 0
M  V30 9339 O 903.265 0.137757 2.00928 0
M  V30 9340 C 900.33 0.567593 3.42022 0
M  V30 9341 C 899.391 1.68936 3.94663 0
M  V30 9342 C 898.624 1.28133 5.1809 0
M  V30 9343 O 898.847 0.156574 5.70185 0
M  V30 9344 O 897.781 2.0947 5.64275 0
M  V30 9345 H 901.607 1.93657 2.33946 0
M  V30 9346 H 899.192 1.00236 1.10784 0
M  V30 9347 H 901.074 0.338664 4.20037 0
M  V30 9348 H 899.749 -0.34424 3.21864 0
M  V30 9349 H 898.656 1.97274 3.17858 0
M  V30 9350 H 899.989 2.57876 4.19238 0
M  V30 9351 N 901.641 -1.19671 1.02551 0
M  V30 9352 C 902.604 -2.20987 0.608055 0
M  V30 9353 C 903.604 -1.5745 -0.326534 0
M  V30 9354 O 904.794 -1.73827 -0.114003 0
M  V30 9355 C 901.926 -3.4072 -0.11074 0
M  V30 9356 H 903.119 -2.59434 1.50446 0
M  V30 9357 H 900.672 -1.3329 0.816307 0
M  V30 9358 H 901.407 -3.07787 -1.02165 0
M  V30 9359 H 901.192 -3.88069 0.560772 0
M  V30 9360 H 902.682 -4.15776 -0.389848 0
M  V30 9361 N 903.119 -0.802921 -1.35613 0
M  V30 9362 C 904.344 -0.392846 -2.03645 0
M  V30 9363 C 904.769 0.987075 -1.6012 0
M  V30 9364 O 904.127 1.63849 -0.776101 0
M  V30 9365 C 904.175 -0.480208 -3.57388 0
M  V30 9366 O 903.279 0.507751 -4.09262 0
M  V30 9367 H 902.62 -0.16464 -0.643265 0
M  V30 9368 H 905.15 -1.08779 -1.73287 0
M  V30 9369 H 905.16 -0.348683 -4.06507 0
M  V30 9370 H 903.835 -1.48675 -3.88418 0
M  V30 9371 H 902.412 0.336769 -3.71376 0
M  V30 9372 N 904.597 1.47463 -0.556102 0
M  V30 9373 C 905.527 2.32801 0.180497 0
M  V30 9374 C 906.508 1.43721 0.909848 0
M  V30 9375 O 907.693 1.72578 0.89053 0
M  V30 9376 C 904.823 3.25478 1.21167 0
M  V30 9377 C 903.777 4.2379 0.598846 0
M  V30 9378 C 903.103 5.05783 1.73457 0
M  V30 9379 C 904.403 5.20387 -0.446659 0
M  V30 9380 H 906.097 2.94636 -0.531956 0
M  V30 9381 H 903.643 1.41683 -0.257267 0
M  V30 9382 H 905.596 3.8402 1.73513 0
M  V30 9383 H 904.32 2.61695 1.95405 0
M  V30 9384 H 902.979 3.66472 0.0966897 0
M  V30 9385 H 902.627 4.38405 2.46596 0
M  V30 9386 H 902.327 5.72343 1.33031 0
M  V30 9387 H 903.851 5.67183 2.26131 0
M  V30 9388 H 905.265 5.73299 -0.00930019 0
M  V30 9389 H 903.662 5.95143 -0.769735 0
M  V30 9390 H 904.732 4.65932 -1.34295 0
M  V30 9391 N 906.075 0.2925 1.54862 0
M  V30 9392 C 907.352 -0.371946 1.92031 0
M  V30 9393 C 907.732 -1.72363 1.21878 0
M  V30 9394 O 907.08 -2.25779 0.351573 0
M  V30 9395 C 907.29 -0.495027 3.45471 0
M  V30 9396 C 908.638 -0.769855 4.17562 0
M  V30 9397 O 909.662 -0.579168 3.5146 0
M  V30 9398 O 908.521 -1.13561 5.34571 0
M  V30 9399 H 905.615 -0.206463 0.800813 0
M  V30 9400 H 908.161 0.339933 1.6626 0
M  V30 9401 H 906.933 0.455528 3.88639 0
M  V30 9402 H 906.556 -1.2557 3.7725 0
M  V30 9403 N 907.553 -1.57587 0.0200696 0
M  V30 9404 C 908.516 -2.08595 -0.949767 0
M  V30 9405 C 909.516 -0.999215 -1.25985 0
M  V30 9406 O 910.706 -1.26115 -1.2017 0
M  V30 9407 C 907.838 -2.54424 -2.26895 0
M  V30 9408 H 909.031 -2.95563 -0.508161 0
M  V30 9409 H 906.584 -1.54631 -0.227798 0
M  V30 9410 H 907.319 -1.70758 -2.75703 0
M  V30 9411 H 907.104 -3.3381 -2.05702 0
M  V30 9412 H 908.594 -2.94144 -2.96427 0
M  V30 9413 N 909.032 0.252966 -1.55557 0
M  V30 9414 C 910.309 1.00432 -1.67847 0
M  V30 9415 C 910.689 2.03587 -0.55816 0
M  V30 9416 O 910.037 2.24239 0.439197 0
M  V30 9417 C 910.247 1.64313 -3.079 0
M  V30 9418 C 911.595 2.14726 -3.66303 0
M  V30 9419 O 912.619 1.74264 -3.10661 0
M  V30 9420 O 911.478 2.89 -4.63833 0
M  V30 9421 H 908.572 0.467102 -0.682455 0
M  V30 9422 H 911.118 0.247233 -1.67889 0
M  V30 9423 H 909.89 0.896681 -3.80888 0
M  V30 9424 H 909.513 2.46657 -3.11843 0
M  V30 9425 N 910.51 1.48831 0.518367 0
M  V30 9426 C 911.442 1.60317 1.63802 0
M  V30 9427 C 912.455 0.486771 1.55352 0
M  V30 9428 O 913.644 0.758111 1.61601 0
M  V30 9429 C 910.744 1.52771 3.02513 0
M  V30 9430 C 909.917 2.79649 3.36326 0
M  V30 9431 C 908.976 2.65396 4.54369 0
M  V30 9432 O 908.002 3.39304 4.57013 0
M  V30 9433 N 909.204 1.75784 5.53245 0
M  V30 9434 H 911.969 2.56878 1.54383 0
M  V30 9435 H 909.53 1.45701 0.705889 0
M  V30 9436 H 911.522 1.40914 3.79375 0
M  V30 9437 H 910.092 0.641381 3.05949 0
M  V30 9438 H 909.312 3.05985 2.48529 0
M  V30 9439 H 910.6 3.63799 3.55707 0
M  V30 9440 H 909.998 1.14961 5.53896 0
M  V30 9441 H 908.555 1.69859 6.29278 0
M  V30 9442 N 911.988 -0.768124 1.37614 0
M  V30 9443 C 912.951 -1.86314 1.3349 0
M  V30 9444 C 913.951 -1.59025 0.23823 0
M  V30 9445 O 915.141 -1.6704 0.494288 0
M  V30 9446 C 912.273 -3.23519 1.07462 0
M  V30 9447 H 913.466 -1.91382 2.30896 0
M  V30 9448 H 911.019 -0.968267 1.22696 0
M  V30 9449 H 911.754 -3.24127 0.106028 0
M  V30 9450 H 911.539 -3.44719 1.86846 0
M  V30 9451 H 913.029 -4.03597 1.07236 0
M  V30 9452 N 913.466 -1.22244 -0.994698 0
M  V30 9453 C 914.882 -0.982006 -1.25813 0
M  V30 9454 C 915.082 0.325488 -1.98854 0
M  V30 9455 O 914.138 1.04857 -2.29698 0
M  V30 9456 C 915.451 -2.1795 -2.07167 0
M  V30 9457 C 916.999 -2.22287 -2.20358 0
M  V30 9458 C 917.474 -3.41583 -3.05098 0
M  V30 9459 N 918.965 -3.41734 -3.12686 0
M  V30 9460 C 919.7 -4.30692 -3.78539 0
M  V30 9461 N 919.196 -5.29865 -4.46335 0
M  V30 9462 N 920.989 -4.18473 -3.75283 0
M  V30 9463 H 913.14 -2.0631 -0.504963 0
M  V30 9464 H 915.403 -0.90395 -0.285618 0
M  V30 9465 H 915.109 -3.12758 -1.60858 0
M  V30 9466 H 914.983 -2.17862 -3.07922 0
M  V30 9467 H 917.37 -1.28028 -2.65881 0
M  V30 9468 H 917.451 -2.26414 -1.19039 0
M  V30 9469 H 917.095 -4.36141 -2.60275 0
M  V30 9470 H 917.025 -3.34695 -4.06555 0
M  V30 9471 H 919.516 -2.69969 -2.64433 0
M  V30 9472 H 919.829 -5.94027 -4.9432 0
M  V30 9473 H 918.174 -5.3378 -4.45089 0
M  V30 9474 H 921.365 -3.40249 -3.21478 0
M  V30 9475 H 921.538 -4.88007 -4.26326 0
M  V30 9476 N 914.944 1.19125 -1.03184 0
M  V30 9477 C 916.172 1.92838 -0.74975 0
M  V30 9478 C 916.587 1.75667 0.691851 0
M  V30 9479 O 915.944 1.0805 1.47076 0
M  V30 9480 C 915.995 3.44509 -1.09525 0
M  V30 9481 O 915.716 3.6113 -2.48025 0
M  V30 9482 C 917.217 4.35338 -0.836397 0
M  V30 9483 H 914.437 0.61246 -0.274105 0
M  V30 9484 H 916.981 1.5118 -1.37712 0
M  V30 9485 H 915.136 3.83988 -0.513006 0
M  V30 9486 H 915.55 4.54959 -2.60984 0
M  V30 9487 H 917.024 5.4035 -1.12808 0
M  V30 9488 H 917.501 4.38602 0.229102 0
M  V30 9489 H 918.107 4.01544 -1.40152 0
M  V30 9490 N 916.422 0.810101 1.35185 0
M  V30 9491 C 917.833 0.452616 1.81131 0
M  V30 9492 C 918.184 -1.02573 1.67252 0
M  V30 9493 O 917.309 -1.79735 1.20516 0
M  V30 9494 C 917.904 0.814775 3.28857 0
M  V30 9495 C 916.463 0.509839 3.72931 0
M  V30 9496 C 915.61 1.03852 2.57119 0
M  V30 9497 H 918.561 1.00143 1.23114 0
M  V30 9498 H 918.582 0.113635 3.8033 0
M  V30 9499 H 918.094 1.89078 3.38926 0
M  V30 9500 H 916.195 -0.557289 3.68409 0
M  V30 9501 H 916.308 1.04493 4.67566 0
M  V30 9502 H 914.672 0.460671 2.50499 0
M  V30 9503 H 915.455 2.12071 2.69964 0
M  V30 9504 N 917.9 -1.47166 0.563914 0
M  V30 9505 C 919.177 -1.95586 -0.0236172 0
M  V30 9506 C 919.557 -1.50655 -1.47872 0
M  V30 9507 O 918.905 -0.748479 -2.15894 0
M  V30 9508 C 919.115 -3.48762 0.128841 0
M  V30 9509 C 920.463 -4.24598 -0.0130544 0
M  V30 9510 O 921.487 -3.56155 0.0567242 0
M  V30 9511 O 920.346 -5.46253 -0.164332 0
M  V30 9512 H 917.44 -0.824793 -0.0603789 0
M  V30 9513 H 919.986 -1.57536 0.63091 0
M  V30 9514 H 918.758 -3.74291 1.14113 0
M  V30 9515 H 918.381 -3.93594 -0.56299 0
M  V30 9516 N 919.378 -0.300708 -1.54705 0
M  V30 9517 C 920.626 0.308044 -1.99739 0
M  V30 9518 C 920.947 1.54433 -1.19061 0
M  V30 9519 O 920.217 1.93794 -0.286507 0
M  V30 9520 H 918.797 0.116811 -0.73781 0
M  V30 9521 H 921.459 -0.41197 -1.90496 0
M  V30 9522 H 920.555 0.580287 -3.06658 0
M  V30 9523 N 920.856 1.57574 -0.0284266 0
M  V30 9524 C 921.804 2.11332 0.971675 0
M  V30 9525 C 922.798 1.03974 1.33738 0
M  V30 9526 O 924.004 1.22409 1.31969 0
M  V30 9527 H 920.379 0.675174 0.331125 0
M  V30 9528 H 922.35 2.943 0.49296 0
M  V30 9529 C 921.099 2.65496 2.24516 0
M  V30 9530 H 920.422 3.47753 1.9725 0
M  V30 9531 H 921.862 3.06757 2.92705 0
M  V30 9532 C 920.321 1.58207 2.97443 0
M  V30 9533 O 920.851 0.981496 3.89525 0
M  V30 9534 N 919.057 1.30269 2.59766 0
M  V30 9535 H 918.604 1.79294 1.84963 0
M  V30 9536 H 918.562 0.587085 3.0887 0
M  V30 9537 N 922.334 -0.244713 1.55689 0
M  V30 9538 C 923.264 -1.30667 1.93516 0
M  V30 9539 C 924.245 -1.50094 0.800371 0
M  V30 9540 O 925.43 -1.62665 1.06083 0
M  V30 9541 C 922.56 -2.66101 2.23176 0
M  V30 9542 C 921.514 -2.61366 3.38927 0
M  V30 9543 C 920.84 -4.00616 3.54134 0
M  V30 9544 C 922.14 -2.18161 4.74555 0
M  V30 9545 H 923.834 -0.992546 2.82469 0
M  V30 9546 H 921.38 -0.476018 1.35905 0
M  V30 9547 H 923.333 -3.4053 2.48228 0
M  V30 9548 H 922.057 -2.99154 1.31051 0
M  V30 9549 H 920.716 -1.89395 3.13887 0
M  V30 9550 H 920.364 -4.30938 2.59426 0
M  V30 9551 H 920.064 -3.98335 4.31975 0
M  V30 9552 H 921.588 -4.76741 3.8151 0
M  V30 9553 H 923.002 -2.82323 4.98965 0
M  V30 9554 H 921.399 -2.26988 5.55515 0
M  V30 9555 H 922.469 -1.13333 4.7147 0
M  V30 9556 N 923.813 -1.49104 -0.510467 0
M  V30 9557 C 925.09 -1.48609 -1.27179 0
M  V30 9558 C 925.47 -0.208537 -2.10067 0
M  V30 9559 O 924.818 0.809335 -2.13687 0
M  V30 9560 C 925.028 -2.75953 -2.1366 0
M  V30 9561 C 926.376 -3.25067 -2.73161 0
M  V30 9562 O 927.4 -2.77005 -2.23934 0
M  V30 9563 O 926.259 -4.08747 -3.62751 0
M  V30 9564 H 923.353 -0.594374 -0.57502 0
M  V30 9565 H 925.899 -1.61358 -0.525515 0
M  V30 9566 H 924.671 -3.60434 -1.52325 0
M  V30 9567 H 924.294 -2.66019 -2.95499 0
M  V30 9568 N 925.291 0.760815 -1.38019 0
M  V30 9569 C 926.223 1.88387 -1.30549 0
M  V30 9570 C 927.236 1.61319 -0.219119 0
M  V30 9571 O 928.425 1.72033 -0.476122 0
M  V30 9572 C 925.525 3.23863 -0.998291 0
M  V30 9573 C 924.698 3.78492 -2.19232 0
M  V30 9574 C 923.757 4.92468 -1.85368 0
M  V30 9575 O 922.783 5.0748 -2.57785 0
M  V30 9576 N 923.985 5.74901 -0.804319 0
M  V30 9577 H 926.75 1.95308 -2.27322 0
M  V30 9578 H 924.311 0.940423 -1.31786 0
M  V30 9579 H 926.303 3.97644 -0.7524 0
M  V30 9580 H 924.873 3.12374 -0.11877 0
M  V30 9581 H 924.093 2.96361 -2.5993 0
M  V30 9582 H 925.381 4.11722 -2.98935 0
M  V30 9583 H 924.779 5.65333 -0.203628 0
M  V30 9584 H 923.336 6.48861 -0.618301 0
M  V30 9585 N 926.769 1.22769 0.988202 0
M  V30 9586 C 928.009 1.06673 1.74356 0
M  V30 9587 C 928.373 -0.390737 1.87982 0
M  V30 9588 O 929.574 -0.672677 2.60247 0
M  V30 9589 C 927.845 1.76361 3.10856 0
M  V30 9590 S 929.404 1.75738 4.02071 0
M  V30 9591 H 926.222 0.381917 0.599717 0
M  V30 9592 H 928.824 1.55784 1.18117 0
M  V30 9593 H 927.528 2.81559 2.98584 0
M  V30 9594 H 927.059 1.27501 3.72165 0
M  V30 9595 H 929.074 0.810418 4.89537 0
M  V30 9596 N 928.247 -1.18576 1.03814 0
M  V30 9597 C 929.194 -2.2212 0.626988 0
M  V30 9598 C 930.164 -1.62064 -0.363912 0
M  V30 9599 O 931.349 -1.89041 -0.258469 0
M  V30 9600 C 928.489 -3.45099 -0.00650133 0
M  V30 9601 C 927.602 -4.19503 1.03156 0
M  V30 9602 C 926.737 -5.29932 0.366852 0
M  V30 9603 C 925.776 -5.96104 1.39018 0
M  V30 9604 N 924.913 -6.98076 0.750625 0
M  V30 9605 H 929.753 -2.56646 1.51449 0
M  V30 9606 H 927.29 -1.26084 0.757702 0
M  V30 9607 H 929.248 -4.15363 -0.391108 0
M  V30 9608 H 927.878 -3.11201 -0.857536 0
M  V30 9609 H 926.93 -3.48092 1.53414 0
M  V30 9610 H 928.242 -4.64843 1.80893 0
M  V30 9611 H 927.396 -6.06657 -0.0720979 0
M  V30 9612 H 926.135 -4.85687 -0.442631 0
M  V30 9613 H 925.14 -5.18122 1.8393 0
M  V30 9614 H 926.365 -6.42432 2.20132 0
M  V30 9615 H 924.311 -6.55989 -0.0385981 0
M  V30 9616 H 924.228 -7.41655 1.46574 0
M  V30 9617 H 925.496 -7.78776 0.335986 0
M  V30 9618 O 929.764 -0.952659 -1.3041 0
M  V30 9619 H 930.455 -0.5852 -1.84649 0
M  V30 END ATOM
M  V30 BEGIN BOND
M  V30 END BOND
M  V30 END CTAB
M  END
$$$$
