drugbank_target|Q8IJC6 60S ribosomal protein L3 (DB11638)
 OpenBabel12092121103D

  0  0  0     0  0            999 V3000
M  V30 BEGIN CTAB
M  V30 COUNTS 6372 6440 0 0 0
M  V30 BEGIN ATOM
M  V30 1 H -0.908 1.98254 -0.117106 0
M  V30 2 N 0 1.576 0 0
M  V30 3 C 0.933 2.03868 1.02534 0
M  V30 4 C 1.911 0.928543 1.3348 0
M  V30 5 O 3.095 1.19667 1.45644 0
M  V30 6 C 0.222 2.43627 2.35294 0
M  V30 7 C -0.732 3.65373 2.2001 0
M  V30 8 S 0.101 5.13292 1.52614 0
M  V30 9 C 1.257 5.56322 2.86805 0
M  V30 10 H 1.49 2.90518 0.631377 0
M  V30 11 H -0.977 1.52953 0.210867 0
M  V30 12 H 0.981 2.67203 3.11629 0
M  V30 13 H -0.358 1.57376 2.7183 0
M  V30 14 H -1.165 3.90944 3.18086 0
M  V30 15 H -1.563 3.418 1.51819 0
M  V30 16 H 0.729 5.58782 3.83104 0
M  V30 17 H 1.672 6.56266 2.65933 0
M  V30 18 H 2.08 4.83886 2.90714 0
M  V30 19 N 1.4781 -0.272755 1.55222 0
M  V30 20 C 2.7031 -1.02683 1.80197 0
M  V30 21 C 3.1281 -1.79142 0.573551 0
M  V30 22 O 2.4861 -1.74917 -0.476849 0
M  V30 23 C 2.5341 -1.9609 3.02624 0
M  V30 24 O 1.6381 -3.04863 2.77727 0
M  V30 25 H 0.9791 -0.293557 0.595584 0
M  V30 26 H 3.5091 -0.30159 2.02365 0
M  V30 27 H 3.5191 -2.38039 3.31363 0
M  V30 28 H 2.1941 -1.39851 3.91682 0
M  V30 29 H 0.7711 -2.67228 2.60084 0
M  V30 30 N 2.9562 -1.48159 -0.537278 0
M  V30 31 C 3.9062 -1.5854 -1.63857 0
M  V30 32 C 4.8902 -0.442969 -1.54682 0
M  V30 33 O 6.0822 -0.69401 -1.62827 0
M  V30 34 C 3.2112 -1.62144 -3.02596 0
M  V30 35 C 2.2972 -2.81841 -3.16901 0
M  V30 36 N 2.6882 -4.06337 -3.01204 0
M  V30 37 C 0.9862 -2.79021 -3.47942 0
M  V30 38 C 1.6872 -4.86606 -3.18731 0
M  V30 39 N 0.6632 -4.19288 -3.45974 0
M  V30 40 H 4.4652 -2.5255 -1.50319 0
M  V30 41 H 1.9792 -1.4443 -0.742555 0
M  V30 42 H 3.9762 -1.67674 -3.81695 0
M  V30 43 H 2.6362 -0.69245 -3.17231 0
M  V30 44 H 3.6472 -4.36888 -2.78117 0
M  V30 45 H 0.3242 -1.95347 -3.6898 0
M  V30 46 H 1.7142 -5.95385 -3.11394 0
M  V30 47 N 4.4343 0.785586 -1.36625 0
M  V30 48 C 5.8503 1.08419 -1.17122 0
M  V30 49 C 6.0503 2.015 0.00208491 0
M  V30 50 O 5.1063 2.43551 0.666278 0
M  V30 51 C 6.4193 1.69498 -2.48377 0
M  V30 52 C 7.9673 1.81821 -2.54775 0
M  V30 53 C 8.4423 2.46315 -3.86126 0
M  V30 54 N 9.9333 2.53779 -3.87492 0
M  V30 55 C 10.6683 3.045 -4.85868 0
M  V30 56 N 10.1643 3.55499 -5.94637 0
M  V30 57 N 11.9573 3.03247 -4.73284 0
M  V30 58 H 4.1083 0.167264 -2.1174 0
M  V30 59 H 6.3713 0.13682 -0.938075 0
M  V30 60 H 6.0773 1.08571 -3.34522 0
M  V30 61 H 5.9513 2.6896 -2.64462 0
M  V30 62 H 8.3383 2.41884 -1.69045 0
M  V30 63 H 8.4193 0.811532 -2.42586 0
M  V30 64 H 8.0633 1.86895 -4.72263 0
M  V30 65 H 7.9933 3.47561 -3.95612 0
M  V30 66 H 10.4843 2.17672 -3.08913 0
M  V30 67 H 10.7973 3.92562 -6.65669 0
M  V30 68 H 9.1423 3.5364 -5.98301 0
M  V30 69 H 12.3333 2.62696 -3.87438 0
M  V30 70 H 12.5063 3.42467 -5.50109 0
M  V30 71 N 5.9124 1.20967 1.01018 0
M  V30 72 C 6.8594 0.964281 2.09691 0
M  V30 73 C 7.8294 -0.107853 1.65749 0
M  V30 74 O 9.0144 0.0381987 1.90762 0
M  V30 75 C 6.1544 0.52943 3.41015 0
M  V30 76 C 5.2674 1.67043 3.98398 0
M  V30 77 C 4.4024 1.18525 5.17808 0
M  V30 78 C 3.4414 2.29892 5.67288 0
M  V30 79 N 2.5784 1.82546 6.77954 0
M  V30 80 H 7.4184 1.89463 2.30017 0
M  V30 81 H 4.9554 0.944289 1.1279 0
M  V30 82 H 6.9134 0.258588 4.16398 0
M  V30 83 H 5.5434 -0.363919 3.20742 0
M  V30 84 H 4.5954 2.05603 3.20049 0
M  V30 85 H 5.9074 2.50877 4.31117 0
M  V30 86 H 5.0614 0.870762 6.00419 0
M  V30 87 H 3.8004 0.316887 4.86669 0
M  V30 88 H 2.8054 2.6215 4.83278 0
M  V30 89 H 4.0304 3.17216 6.00459 0
M  V30 90 H 1.9764 0.980454 6.48632 0
M  V30 91 H 1.8934 2.59956 7.09901 0
M  V30 92 H 3.1614 1.54115 7.64113 0
M  V30 93 N 7.3905 -1.2043 1.01659 0
M  V30 94 C 8.6375 -1.89797 0.705917 0
M  V30 95 C 8.9655 -1.78848 -0.764439 0
M  V30 96 O 8.2205 -1.16694 -1.57102 0
M  V30 97 C 8.5195 -3.40464 1.08714 0
M  V30 98 C 8.1855 -3.71614 2.5537 0
M  V30 99 C 6.8475 -3.79826 2.95441 0
M  V30 100 C 9.1995 -3.85915 3.50313 0
M  V30 101 C 6.5275 -3.99797 4.29394 0
M  V30 102 C 8.8795 -4.07396 4.83954 0
M  V30 103 C 7.5435 -4.13837 5.23732 0
M  V30 104 H 6.8135 -0.694518 0.258313 0
M  V30 105 H 9.4605 -1.42691 1.27717 0
M  V30 106 H 7.7655 -3.89385 0.434309 0
M  V30 107 H 9.4625 -3.92433 0.824461 0
M  V30 108 H 6.0525 -3.65822 2.23321 0
M  V30 109 H 10.2365 -3.78926 3.20513 0
M  V30 110 H 5.4925 -4.03018 4.59768 0
M  V30 111 H 9.6665 -4.17404 5.57447 0
M  V30 112 H 7.2935 -4.29064 6.27541 0
M  V30 113 N 8.8686 -0.792821 -1.36206 0
M  V30 114 C 9.7786 -0.194808 -2.3379 0
M  V30 115 C 10.7946 0.654869 -1.61206 0
M  V30 116 O 11.9706 0.569856 -1.9317 0
M  V30 117 C 9.0356 0.657721 -3.40404 0
M  V30 118 C 8.0966 -0.210849 -4.28782 0
M  V30 119 C 7.3296 0.601086 -5.30304 0
M  V30 120 O 7.5526 1.83682 -5.40016 0
M  V30 121 O 6.4866 -0.000808277 -6.019 0
M  V30 122 H 10.3126 -1.00172 -2.86704 0
M  V30 123 H 7.8976 -0.554341 -1.38735 0
M  V30 124 H 9.7796 1.14375 -4.05581 0
M  V30 125 H 8.4546 1.44247 -2.89784 0
M  V30 126 H 7.3616 -0.743714 -3.66633 0
M  V30 127 H 8.6946 -0.959195 -4.82763 0
M  V30 128 N 10.3467 1.47872 -0.545128 0
M  V30 129 C 11.7627 1.5829 -0.204032 0
M  V30 130 C 11.9627 1.54529 1.29317 0
M  V30 131 O 11.0187 1.44232 2.07252 0
M  V30 132 C 12.3317 2.89304 -0.819987 0
M  V30 133 C 13.8797 3.02864 -0.790105 0
M  V30 134 C 14.3547 4.3656 -1.38491 0
M  V30 135 N 15.8457 4.43165 -1.34755 0
M  V30 136 C 16.5807 5.45153 -1.77753 0
M  V30 137 N 16.0767 6.54016 -2.2855 0
M  V30 138 N 17.8697 5.36125 -1.68897 0
M  V30 139 H 10.0207 1.4856 -1.51802 0
M  V30 140 H 12.2837 0.706305 -0.632327 0
M  V30 141 H 11.9897 2.97757 -1.87173 0
M  V30 142 H 11.8637 3.75957 -0.305915 0
M  V30 143 H 14.2507 2.94014 0.252913 0
M  V30 144 H 14.3317 2.17782 -1.34181 0
M  V30 145 H 13.9757 4.46164 -2.42693 0
M  V30 146 H 13.9057 5.20353 -0.808754 0
M  V30 147 H 16.3967 3.65083 -0.975855 0
M  V30 148 H 16.7097 7.27994 -2.59314 0
M  V30 149 H 15.0547 6.54938 -2.32553 0
M  V30 150 H 18.2457 4.49975 -1.28998 0
M  V30 151 H 18.4187 6.15472 -2.02726 0
M  V30 152 N 11.8248 0.280983 1.55075 0
M  V30 153 C 13.2358 -0.215629 1.85451 0
M  V30 154 C 13.5868 -1.54991 1.203 0
M  V30 155 O 12.7118 -2.10699 0.493435 0
M  V30 156 C 13.3068 -0.398026 3.36454 0
M  V30 157 C 11.8658 -0.838866 3.66933 0
M  V30 158 C 11.0128 0.064458 2.77225 0
M  V30 159 H 13.9638 0.502601 1.50531 0
M  V30 160 H 13.9848 -1.23569 3.59876 0
M  V30 161 H 13.4968 0.573241 3.83843 0
M  V30 162 H 11.5978 -1.8214 3.25048 0
M  V30 163 H 11.7108 -0.672123 4.74362 0
M  V30 164 H 10.0748 -0.452863 2.50642 0
M  V30 165 H 10.8578 1.03172 3.2743 0
M  V30 166 N 13.3029 -1.57598 0.00835791 0
M  V30 167 C 14.7189 -1.55764 -0.347822 0
M  V30 168 C 14.9189 -1.01186 -1.74252 0
M  V30 169 O 13.9749 -0.649371 -2.44007 0
M  V30 170 C 15.2879 -2.99927 -0.215407 0
M  V30 171 C 16.8359 -3.11656 -0.289725 0
M  V30 172 C 17.3109 -4.57621 -0.18634 0
M  V30 173 N 18.8019 -4.62557 -0.243978 0
M  V30 174 C 19.5369 -5.73094 -0.18745 0
M  V30 175 N 19.0329 -6.92753 -0.0810331 0
M  V30 176 N 20.8259 -5.61588 -0.239925 0
M  V30 177 H 12.9769 -1.91411 0.92062 0
M  V30 178 H 15.2399 -0.879562 0.353659 0
M  V30 179 H 14.9459 -3.43729 0.744512 0
M  V30 180 H 14.8199 -3.63865 -0.994097 0
M  V30 181 H 17.2069 -2.67779 -1.24009 0
M  V30 182 H 17.2879 -2.5048 0.51898 0
M  V30 183 H 16.9319 -5.02174 0.760519 0
M  V30 184 H 16.8619 -5.16752 -1.01364 0
M  V30 185 H 19.3529 -3.76481 -0.327217 0
M  V30 186 H 19.6659 -7.72787 -0.0440241 0
M  V30 187 H 18.0109 -6.94984 -0.0465419 0
M  V30 188 H 21.2019 -4.66996 -0.321317 0
M  V30 189 H 21.3749 -6.47714 -0.192407 0
M  V30 190 N 14.781 0.264519 -1.55364 0
M  V30 191 C 15.731 1.32966 -1.85214 0
M  V30 192 C 16.715 1.44306 -0.711653 0
M  V30 193 O 17.907 1.47844 -0.973192 0
M  V30 194 C 15.036 2.68839 -2.13495 0
M  V30 195 C 14.122 2.61575 -3.33825 0
M  V30 196 N 14.513 2.23933 -4.53528 0
M  V30 197 C 12.811 2.92621 -3.36584 0
M  V30 198 C 13.512 2.26868 -5.35636 0
M  V30 199 N 12.488 2.65677 -4.74254 0
M  V30 200 H 16.29 1.02884 -2.75304 0
M  V30 201 H 13.804 0.473157 -1.55354 0
M  V30 202 H 15.801 3.45685 -2.33039 0
M  V30 203 H 14.461 2.99802 -1.24694 0
M  V30 204 H 15.472 1.95769 -4.79474 0
M  V30 205 H 12.149 3.2824 -2.58002 0
M  V30 206 H 13.539 2.00254 -6.41364 0
M  V30 207 N 16.2591 1.48442 0.529413 0
M  V30 208 C 17.5071 1.56179 1.28267 0
M  V30 209 C 17.8281 0.237721 1.93546 0
M  V30 210 O 17.0981 -0.740779 1.81354 0
M  V30 211 H 15.6781 0.575367 0.476405 0
M  V30 212 H 18.3401 1.84909 0.61602 0
M  V30 213 H 17.4361 2.34312 2.06165 0
M  V30 214 N 17.7372 -0.778329 1.37039 0
M  V30 215 C 18.9622 -1.57248 1.35233 0
M  V30 216 C 19.3872 -1.87999 -0.0615568 0
M  V30 217 O 18.7452 -1.48734 -1.03672 0
M  V30 218 C 18.7932 -2.86353 2.19167 0
M  V30 219 O 17.8972 -3.80442 1.59178 0
M  V30 220 H 17.2382 -0.476569 0.462362 0
M  V30 221 H 19.7682 -0.963853 1.80474 0
M  V30 222 H 19.7782 -3.35519 2.32145 0
M  V30 223 H 18.4532 -2.63299 3.21942 0
M  V30 224 H 17.0302 -3.39067 1.55203 0
M  V30 225 N 19.2153 -1.21501 -1.00376 0
M  V30 226 C 20.1453 -0.999478 -2.11028 0
M  V30 227 C 21.1263 0.0759671 -1.6993 0
M  V30 228 O 22.3113 -0.0841106 -1.94018 0
M  V30 229 C 19.4413 -0.564709 -3.42678 0
M  V30 230 C 18.3953 -1.58486 -3.97576 0
M  V30 231 C 17.7213 -1.00628 -5.25146 0
M  V30 232 C 19.0213 -2.97204 -4.29496 0
M  V30 233 H 20.7153 -1.92495 -2.29317 0
M  V30 234 H 18.2613 -0.92693 -1.102 0
M  V30 235 H 20.2143 -0.401091 -4.19487 0
M  V30 236 H 18.9383 0.396411 -3.24185 0
M  V30 237 H 17.5973 -1.73606 -3.22888 0
M  V30 238 H 17.2453 -0.0368439 -5.02987 0
M  V30 239 H 16.9453 -1.68771 -5.62841 0
M  V30 240 H 18.4693 -0.854015 -6.04598 0
M  V30 241 H 19.8833 -2.8552 -4.97143 0
M  V30 242 H 18.2803 -3.62372 -4.78338 0
M  V30 243 H 19.3503 -3.47956 -3.3772 0
M  V30 244 N 20.6934 1.19889 -1.02296 0
M  V30 245 C 21.9414 1.89046 -0.714558 0
M  V30 246 C 22.2624 1.79636 0.758681 0
M  V30 247 O 21.5324 1.20292 1.54618 0
M  V30 248 H 20.1124 0.699802 -0.261317 0
M  V30 249 H 22.7744 1.45574 -1.29592 0
M  V30 250 H 21.8704 2.95524 -1.0036 0
M  V30 251 N 22.1715 0.800033 1.35784 0
M  V30 252 C 23.4185 0.377342 1.98953 0
M  V30 253 C 23.7465 -1.05378 1.6348 0
M  V30 254 O 23.0015 -1.74459 0.886707 0
M  V30 255 C 23.3005 0.500276 3.53881 0
M  V30 256 C 22.9665 1.89375 4.09204 0
M  V30 257 C 21.6285 2.27499 4.24025 0
M  V30 258 C 23.9805 2.8057 4.39238 0
M  V30 259 C 21.3085 3.562 4.66195 0
M  V30 260 C 23.6605 4.0871 4.82844 0
M  V30 261 C 22.3245 4.46843 4.95871 0
M  V30 262 H 21.5945 0.138079 0.728021 0
M  V30 263 H 24.2415 1.01955 1.62103 0
M  V30 264 H 22.5465 -0.225405 3.91151 0
M  V30 265 H 24.2435 0.154097 4.00704 0
M  V30 266 H 20.8335 1.58753 3.98115 0
M  V30 267 H 25.0175 2.52367 4.27346 0
M  V30 268 H 20.2735 3.85602 4.74469 0
M  V30 269 H 24.4475 4.79481 5.05046 0
M  V30 270 H 22.0745 5.46623 5.28306 0
M  V30 271 N 23.6496 -1.47581 0.552962 0
M  V30 272 C 24.5796 -2.32762 -0.185451 0
M  V30 273 C 25.5606 -1.43527 -0.912905 0
M  V30 274 O 26.7456 -1.72388 -0.894201 0
M  V30 275 C 23.8756 -3.25219 -1.21859 0
M  V30 276 C 22.8296 -4.23661 -0.607864 0
M  V30 277 C 22.1556 -5.05413 -1.74533 0
M  V30 278 C 23.4556 -5.20481 0.435582 0
M  V30 279 H 25.1496 -2.94749 0.525684 0
M  V30 280 H 22.6956 -1.41738 0.254251 0
M  V30 281 H 24.6486 -3.8365 -1.7433 0
M  V30 282 H 23.3726 -2.61279 -1.95961 0
M  V30 283 H 22.0316 -3.66451 -0.104489 0
M  V30 284 H 21.6796 -4.3788 -2.47529 0
M  V30 285 H 21.3796 -5.72059 -1.34249 0
M  V30 286 H 22.9036 -5.66701 -2.27338 0
M  V30 287 H 24.3176 -5.733 -0.00290157 0
M  V30 288 H 22.7146 -5.95305 0.757067 0
M  V30 289 H 23.7846 -4.66217 1.33303 0
M  V30 290 N 25.1277 -0.289203 -1.54924 0
M  V30 291 C 26.5387 0.205791 -1.85562 0
M  V30 292 C 26.8897 1.54351 -1.2112 0
M  V30 293 O 26.0147 2.10435 -0.504601 0
M  V30 294 C 26.6097 0.380177 -3.3666 0
M  V30 295 C 25.1687 0.819395 -3.67373 0
M  V30 296 C 24.3157 -0.079159 -2.77187 0
M  V30 297 H 27.2667 -0.510577 -1.50262 0
M  V30 298 H 27.2877 1.21659 -3.60526 0
M  V30 299 H 26.7997 -0.593589 -3.83534 0
M  V30 300 H 24.9007 1.80413 -3.26009 0
M  V30 301 H 25.0137 0.646957 -4.74712 0
M  V30 302 H 23.3777 0.439565 -2.50878 0
M  V30 303 H 24.1607 -1.04906 -3.26878 0
M  V30 304 N 26.6058 1.57591 -0.0167156 0
M  V30 305 C 28.0218 1.55946 0.339557 0
M  V30 306 C 28.2218 1.02109 1.73713 0
M  V30 307 O 27.2778 0.662303 2.43659 0
M  V30 308 C 28.5908 3.00037 0.199499 0
M  V30 309 C 30.1388 3.11805 0.273193 0
M  V30 310 C 30.6138 4.57713 0.162068 0
M  V30 311 N 32.1048 4.6268 0.219444 0
M  V30 312 C 32.8398 5.73185 0.157054 0
M  V30 313 N 32.3358 6.92786 0.0442936 0
M  V30 314 N 34.1288 5.61707 0.21014 0
M  V30 315 H 26.2798 1.90921 -0.930758 0
M  V30 316 H 28.5428 0.877674 -0.358319 0
M  V30 317 H 28.2488 3.4333 -0.76273 0
M  V30 318 H 28.1228 3.64387 0.974786 0
M  V30 319 H 30.5098 2.68433 1.22587 0
M  V30 320 H 30.5908 2.50201 -0.532256 0
M  V30 321 H 30.2348 5.01763 -0.78714 0
M  V30 322 H 30.1648 5.17283 0.986222 0
M  V30 323 H 32.6558 3.76649 0.307246 0
M  V30 324 H 32.9688 7.728 0.00304069 0
M  V30 325 H 31.3138 6.94999 0.00968457 0
M  V30 326 H 34.5048 4.6716 0.296546 0
M  V30 327 H 34.6778 6.47807 0.158054 0
M  V30 328 N 28.0839 -0.256276 1.55502 0
M  V30 329 C 29.0309 -1.31714 1.89526 0
M  V30 330 C 30.0009 -1.4828 0.748479 0
M  V30 331 O 31.1859 -1.62416 1.00128 0
M  V30 332 C 28.3259 -2.66933 2.18725 0
M  V30 333 C 27.4389 -2.58452 3.4616 0
M  V30 334 C 26.5739 -3.85961 3.64976 0
M  V30 335 C 25.6129 -3.72059 4.86044 0
M  V30 336 N 24.7499 -4.9144 5.01429 0
M  V30 337 H 29.5899 -1.01998 2.80001 0
M  V30 338 H 27.1269 -0.492413 1.38613 0
M  V30 339 H 29.0849 -3.4563 2.33657 0
M  V30 340 H 27.7149 -2.94816 1.31466 0
M  V30 341 H 26.7669 -1.71374 3.3961 0
M  V30 342 H 28.0789 -2.44085 4.34999 0
M  V30 343 H 27.2329 -4.73101 3.79816 0
M  V30 344 H 25.9719 -4.03215 2.74353 0
M  V30 345 H 24.9769 -2.83302 4.7119 0
M  V30 346 H 26.2019 -3.56309 5.78118 0
M  V30 347 H 24.1479 -5.09072 4.13741 0
M  V30 348 H 24.0649 -4.79668 5.84341 0
M  V30 349 H 25.3329 -5.80104 5.20672 0
M  V30 350 N 29.562 -1.4872 -0.521534 0
M  V30 351 C 30.978 -1.35028 -0.850855 0
M  V30 352 C 31.178 -0.367712 -1.98116 0
M  V30 353 O 30.234 0.208037 -2.51642 0
M  V30 354 C 31.547 -2.75263 -1.21041 0
M  V30 355 C 33.095 -2.83813 -1.31981 0
M  V30 356 C 33.57 -4.24769 -1.71276 0
M  V30 357 N 35.061 -4.27482 -1.78363 0
M  V30 358 C 35.796 -5.33494 -2.1017 0
M  V30 359 N 35.292 -6.49775 -2.40343 0
M  V30 360 N 37.085 -5.20894 -2.11248 0
M  V30 361 H 29.236 -2.11214 0.22413 0
M  V30 362 H 31.499 -0.947252 0.0376439 0
M  V30 363 H 31.205 -3.48765 -0.453415 0
M  V30 364 H 31.079 -3.09327 -2.15863 0
M  V30 365 H 33.466 -2.10561 -2.06756 0
M  V30 366 H 33.547 -2.53358 -0.352596 0
M  V30 367 H 33.191 -4.9854 -0.970588 0
M  V30 368 H 33.121 -4.52673 -2.69062 0
M  V30 369 H 35.612 -3.43611 -1.57288 0
M  V30 370 H 35.925 -7.26402 -2.63743 0
M  V30 371 H 34.27 -6.53035 -2.37844 0
M  V30 372 H 37.461 -4.29065 -1.87139 0
M  V30 373 H 37.634 -6.03612 -2.35704 0
M  V30 374 N 31.0401 0.771051 -1.3745 0
M  V30 375 C 32.2801 1.54264 -1.34096 0
M  V30 376 C 32.6441 1.91858 0.0737639 0
M  V30 377 O 33.8451 2.67797 0.23203 0
M  V30 378 C 32.1161 2.77326 -2.25445 0
M  V30 379 S 33.6751 3.67383 -2.39948 0
M  V30 380 H 30.4931 0.528122 -0.476034 0
M  V30 381 H 33.0951 0.906633 -1.73206 0
M  V30 382 H 31.7991 2.47788 -3.27153 0
M  V30 383 H 31.3301 3.45886 -1.87421 0
M  V30 384 H 33.3451 4.69334 -1.61059 0
M  V30 385 N 32.5182 1.22032 0.997298 0
M  V30 386 C 33.4652 0.986467 2.08656 0
M  V30 387 C 34.4352 -0.0902671 1.65855 0
M  V30 388 O 35.6202 0.0584294 1.90711 0
M  V30 389 C 32.7602 0.565569 3.40434 0
M  V30 390 C 31.8732 1.71259 3.96604 0
M  V30 391 C 31.0082 1.24011 5.16522 0
M  V30 392 C 30.0472 2.35896 5.64818 0
M  V30 393 N 29.1842 1.89726 6.7598 0
M  V30 394 H 34.0242 1.91892 2.27994 0
M  V30 395 H 31.5612 0.956199 1.11782 0
M  V30 396 H 33.5192 0.302738 4.161 0
M  V30 397 H 32.1492 -0.329879 3.2111 0
M  V30 398 H 31.2012 2.08986 3.17851 0
M  V30 399 H 32.5132 2.55436 4.28432 0
M  V30 400 H 31.6672 0.934395 5.99461 0
M  V30 401 H 30.4062 0.368487 4.86306 0
M  V30 402 H 29.4112 2.67261 4.8047 0
M  V30 403 H 30.6362 3.23567 5.97061 0
M  V30 404 H 28.5822 1.0492 6.47555 0
M  V30 405 H 28.4992 2.67471 7.07103 0
M  V30 406 H 29.7672 1.62211 7.62435 0
M  V30 407 N 33.9963 -1.19345 1.0293 0
M  V30 408 C 35.4123 -1.41069 0.746446 0
M  V30 409 C 35.6123 -1.90078 -0.668776 0
M  V30 410 O 34.6683 -2.0778 -1.4347 0
M  V30 411 C 35.9813 -2.42141 1.78292 0
M  V30 412 C 37.5293 -2.55887 1.80252 0
M  V30 413 C 38.0043 -3.60214 2.8286 0
M  V30 414 N 39.4953 -3.67711 2.81679 0
M  V30 415 C 40.2303 -4.48128 3.57727 0
M  V30 416 N 39.7263 -5.32248 4.43491 0
M  V30 417 N 41.5193 -4.42782 3.46267 0
M  V30 418 H 33.6703 -0.858536 1.94275 0
M  V30 419 H 35.9333 -0.439541 0.839945 0
M  V30 420 H 35.6393 -2.13155 2.79746 0
M  V30 421 H 35.5133 -3.41323 1.60557 0
M  V30 422 H 37.9003 -2.84196 0.794757 0
M  V30 423 H 37.9813 -1.56858 2.02062 0
M  V30 424 H 37.6253 -3.32647 3.83807 0
M  V30 425 H 37.5553 -4.58895 2.58307 0
M  V30 426 H 40.0463 -3.07634 2.19476 0
M  V30 427 H 40.3593 -5.90729 4.98256 0
M  V30 428 H 38.7043 -5.31707 4.47564 0
M  V30 429 H 41.8953 -3.76107 2.78677 0
M  V30 430 H 42.0683 -5.05215 4.05785 0
M  V30 431 N 35.4744 -0.807222 -1.35358 0
M  V30 432 C 36.4044 -0.232509 -2.3234 0
M  V30 433 C 37.3854 0.642386 -1.57504 0
M  V30 434 O 38.5704 0.572526 -1.85569 0
M  V30 435 C 35.7004 0.619238 -3.41735 0
M  V30 436 C 34.6544 -0.157215 -4.27711 0
M  V30 437 C 33.9804 0.816273 -5.28433 0
M  V30 438 C 35.2804 -1.35656 -5.04376 0
M  V30 439 H 36.9744 -1.04276 -2.80654 0
M  V30 440 H 34.5204 -0.50288 -1.34934 0
M  V30 441 H 36.4734 1.03137 -4.08584 0
M  V30 442 H 35.1974 1.46239 -2.92031 0
M  V30 443 H 33.8564 -0.550525 -3.62443 0
M  V30 444 H 33.5044 1.65494 -4.74996 0
M  V30 445 H 33.2044 0.301067 -5.86828 0
M  V30 446 H 34.7284 1.22659 -5.98153 0
M  V30 447 H 36.1424 -1.01927 -5.64166 0
M  V30 448 H 34.5394 -1.8063 -5.7227 0
M  V30 449 H 35.6094 -2.14288 -4.34981 0
M  V30 450 N 36.9525 1.47285 -0.560781 0
M  V30 451 C 38.3685 1.58065 -0.22081 0
M  V30 452 C 38.5685 1.55892 1.27671 0
M  V30 453 O 37.6245 1.46422 2.0571 0
M  V30 454 C 38.9375 2.88418 -0.850625 0
M  V30 455 C 40.4855 3.02009 -0.822184 0
M  V30 456 C 40.9605 4.35066 -1.43113 0
M  V30 457 N 42.4515 4.41711 -1.39448 0
M  V30 458 C 43.1865 5.43237 -1.83525 0
M  V30 459 N 42.6825 6.51555 -2.35474 0
M  V30 460 N 44.4755 5.34304 -1.74574 0
M  V30 461 H 36.6265 1.46941 -1.53369 0
M  V30 462 H 38.8895 0.699558 -0.639783 0
M  V30 463 H 38.5955 2.95755 -1.9032 0
M  V30 464 H 38.4695 3.75612 -0.345773 0
M  V30 465 H 40.8565 2.94266 0.221714 0
M  V30 466 H 40.9375 2.16347 -1.36483 0
M  V30 467 H 40.5815 4.43565 -2.47412 0
M  V30 468 H 40.5115 5.19465 -0.863899 0
M  V30 469 H 43.0025 3.64027 -1.01452 0
M  V30 470 H 43.3155 7.25203 -2.67021 0
M  V30 471 H 41.6605 6.52435 -2.39487 0
M  V30 472 H 44.8515 4.48581 -1.33763 0
M  V30 473 H 45.0245 6.13288 -2.09242 0
M  V30 474 N 38.4306 0.297415 1.54768 0
M  V30 475 C 39.6786 -0.312295 1.99673 0
M  V30 476 C 39.9996 -1.54686 1.18732 0
M  V30 477 O 39.2696 -1.93854 0.282382 0
M  V30 478 H 37.8496 -0.118381 0.73756 0
M  V30 479 H 40.5116 0.407915 1.90583 0
M  V30 480 H 39.6076 -0.586813 3.06534 0
M  V30 481 N 39.9087 -1.5758 0.0250728 0
M  V30 482 C 40.8557 -2.09973 -0.958129 0
M  V30 483 C 41.8257 -1.00085 -1.3256 0
M  V30 484 O 43.0107 -1.27481 -1.41962 0
M  V30 485 C 40.1507 -2.62812 -2.2366 0
M  V30 486 C 39.2637 -3.86693 -1.92594 0
M  V30 487 C 38.3987 -4.27941 -3.14707 0
M  V30 488 C 37.4377 -5.44591 -2.79442 0
M  V30 489 N 36.5747 -5.81014 -3.94167 0
M  V30 490 H 41.4147 -2.937 -0.504428 0
M  V30 491 H 38.9517 -1.45172 -0.237392 0
M  V30 492 H 40.9097 -2.91536 -2.98434 0
M  V30 493 H 39.5397 -1.81922 -2.66654 0
M  V30 494 H 38.5917 -3.64723 -1.0808 0
M  V30 495 H 39.9037 -4.71547 -1.62619 0
M  V30 496 H 39.0577 -4.58079 -3.97804 0
M  V30 497 H 37.7967 -3.41845 -3.4784 0
M  V30 498 H 36.8017 -5.1415 -1.94755 0
M  V30 499 H 38.0267 -6.32382 -2.47528 0
M  V30 500 H 35.9727 -4.97874 -4.2715 0
M  V30 501 H 35.8897 -6.60498 -3.67801 0
M  V30 502 H 37.1577 -6.15756 -4.7798 0
M  V30 503 N 41.3868 0.248026 -1.55636 0
M  V30 504 C 42.6358 0.974134 -1.76617 0
M  V30 505 C 42.9488 1.86528 -0.588796 0
M  V30 506 O 44.1548 2.62805 -0.681594 0
M  V30 507 C 42.6108 1.78213 -3.12679 0
M  V30 508 C 42.2188 0.93843 -4.38061 0
M  V30 509 C 43.9628 2.50104 -3.42999 0
M  V30 510 C 41.8698 1.74225 -5.65155 0
M  V30 511 H 40.7998 0.36745 -0.658405 0
M  V30 512 H 43.4508 0.22884 -1.82067 0
M  V30 513 H 41.8328 2.56933 -3.01333 0
M  V30 514 H 43.0068 0.193635 -4.60393 0
M  V30 515 H 41.3218 0.332905 -4.15067 0
M  V30 516 H 43.9188 3.10694 -4.3517 0
M  V30 517 H 44.2618 3.21662 -2.64271 0
M  V30 518 H 44.7948 1.78395 -3.55556 0
M  V30 519 H 41.5338 1.07043 -6.46701 0
M  V30 520 H 41.0538 2.46235 -5.46926 0
M  V30 521 H 42.7328 2.30967 -6.0437 0
M  V30 522 N 42.8649 1.48995 0.513639 0
M  V30 523 C 44.2809 1.35478 0.843682 0
M  V30 524 C 44.4809 0.378213 1.97919 0
M  V30 525 O 43.5369 -0.194689 2.51748 0
M  V30 526 C 44.8499 2.75901 1.1958 0
M  V30 527 C 46.3979 2.84509 1.30474 0
M  V30 528 C 46.8729 4.25671 1.69021 0
M  V30 529 N 48.3639 4.28422 1.76094 0
M  V30 530 C 49.0989 5.34601 2.07338 0
M  V30 531 N 48.5949 6.5104 2.36894 0
M  V30 532 N 50.3879 5.22007 2.08483 0
M  V30 533 H 42.5389 2.11092 -0.235328 0
M  V30 534 H 44.8019 0.947039 -0.0426669 0
M  V30 535 H 44.5079 3.49001 0.434913 0
M  V30 536 H 44.3819 3.10467 2.1422 0
M  V30 537 H 46.7689 2.11655 2.05637 0
M  V30 538 H 46.8499 2.53542 0.339155 0
M  V30 539 H 46.4939 4.99048 0.944135 0
M  V30 540 H 46.4239 4.54094 2.66658 0
M  V30 541 H 48.9149 3.44441 1.55464 0
M  V30 542 H 49.2279 7.2779 2.59887 0
M  V30 543 H 47.5729 6.54287 2.34378 0
M  V30 544 H 50.7639 4.30051 1.84861 0
M  V30 545 H 50.9369 6.04854 2.325 0
M  V30 546 N 44.343 -0.763751 1.37857 0
M  V30 547 C 45.568 -1.55805 1.36893 0
M  V30 548 C 45.993 -1.88054 -0.0416135 0
M  V30 549 O 45.351 -1.49825 -1.02089 0
M  V30 550 C 45.399 -2.84012 2.22192 0
M  V30 551 O 44.503 -3.78732 1.63204 0
M  V30 552 H 43.844 -0.471638 0.46739 0
M  V30 553 H 46.374 -0.944657 1.81487 0
M  V30 554 H 46.384 -3.33037 2.35691 0
M  V30 555 H 45.059 -2.59869 3.24716 0
M  V30 556 H 43.636 -3.37402 1.58791 0
M  V30 557 N 45.8211 -1.22559 -0.990812 0
M  V30 558 C 47.0681 -1.05141 -1.73065 0
M  V30 559 C 47.3961 0.413191 -1.9006 0
M  V30 560 O 46.6511 1.32257 -1.44245 0
M  V30 561 C 46.9501 -1.71011 -3.13831 0
M  V30 562 C 46.6161 -3.20911 -3.16745 0
M  V30 563 C 45.2781 -3.61812 -3.17247 0
M  V30 564 C 47.6301 -4.16846 -3.12872 0
M  V30 565 C 44.9581 -4.97127 -3.1158 0
M  V30 566 C 47.3101 -5.5214 -3.08746 0
M  V30 567 C 45.9741 -5.92419 -3.07565 0
M  V30 568 H 45.2441 -0.384738 -0.633291 0
M  V30 569 H 47.8911 -1.5235 -1.16025 0
M  V30 570 H 46.1961 -1.16133 -3.74193 0
M  V30 571 H 47.8931 -1.55023 -3.69823 0
M  V30 572 H 44.4831 -2.88344 -3.17105 0
M  V30 573 H 48.6671 -3.86263 -3.11632 0
M  V30 574 H 43.9231 -5.27562 -3.09012 0
M  V30 575 H 48.0971 -6.26201 -3.04705 0
M  V30 576 H 45.7241 -6.97236 -3.02929 0
M  V30 577 N 47.2992 1.18797 -1.03562 0
M  V30 578 C 48.7102 1.70322 -0.764676 0
M  V30 579 C 49.0612 1.82708 0.714996 0
M  V30 580 O 48.1862 1.50299 1.55689 0
M  V30 581 C 48.7812 3.09356 -1.38145 0
M  V30 582 C 47.3402 3.58114 -1.15895 0
M  V30 583 C 46.4872 2.34798 -1.4753 0
M  V30 584 H 49.4382 1.03543 -1.20268 0
M  V30 585 H 49.4592 3.72378 -0.781977 0
M  V30 586 H 48.9712 3.00309 -2.45837 0
M  V30 587 H 47.0722 3.72464 -0.100544 0
M  V30 588 H 47.1852 4.4184 -1.8524 0
M  V30 589 H 45.5492 2.38464 -0.894829 0
M  V30 590 H 46.3322 2.28375 -2.56319 0
M  V30 591 N 48.7773 0.814389 1.34928 0
M  V30 592 C 49.7243 0.22822 2.29669 0
M  V30 593 C 50.6943 -0.642164 1.53184 0
M  V30 594 O 51.8793 -0.585605 1.81591 0
M  V30 595 C 49.0193 -0.61089 3.3965 0
M  V30 596 C 48.1323 0.280792 4.31086 0
M  V30 597 C 47.2673 -0.567067 5.28165 0
M  V30 598 C 46.3063 0.324531 6.11239 0
M  V30 599 N 45.4433 -0.483756 7.00431 0
M  V30 600 H 50.2833 1.04153 2.79206 0
M  V30 601 H 47.8203 0.525133 1.37407 0
M  V30 602 H 49.7783 -1.11263 4.0209 0
M  V30 603 H 48.4083 -1.38939 2.91369 0
M  V30 604 H 47.4603 0.900688 3.69583 0
M  V30 605 H 48.7723 0.966723 4.89342 0
M  V30 606 H 47.9263 -1.13363 5.96015 0
M  V30 607 H 46.6653 -1.28654 4.70425 0
M  V30 608 H 45.6703 0.903298 5.42329 0
M  V30 609 H 46.8953 1.04198 6.71059 0
M  V30 610 H 44.8413 -1.18706 6.45171 0
M  V30 611 H 44.7583 0.143965 7.55863 0
M  V30 612 H 46.0263 -1.03334 7.7262 0
M  V30 613 N 50.2554 -1.46986 0.568584 0
M  V30 614 C 51.5324 -1.95592 -0.0174074 0
M  V30 615 C 51.9124 -1.51124 -1.47393 0
M  V30 616 O 51.2604 -0.755329 -2.15655 0
M  V30 617 C 51.4704 -3.48719 0.139913 0
M  V30 618 C 52.8184 -4.246 0.000426376 0
M  V30 619 O 53.8424 -3.56135 0.0680316 0
M  V30 620 O 52.7014 -5.46302 -0.146988 0
M  V30 621 H 49.7954 -0.82498 -0.0577599 0
M  V30 622 H 52.3414 -1.57335 0.635909 0
M  V30 623 H 51.1134 -3.73927 1.15301 0
M  V30 624 H 50.7364 -3.93771 -0.550491 0
M  V30 625 N 51.7335 -0.305618 -1.54608 0
M  V30 626 C 53.0105 0.355652 -1.92339 0
M  V30 627 C 53.3905 1.71324 -1.23335 0
M  V30 628 O 52.7385 2.25473 -0.370702 0
M  V30 629 C 52.9485 0.46572 -3.45879 0
M  V30 630 C 54.2965 0.734426 -4.182 0
M  V30 631 O 55.3205 0.54935 -3.51938 0
M  V30 632 O 54.1795 1.09024 -5.35515 0
M  V30 633 H 51.2735 0.199666 -0.802535 0
M  V30 634 H 53.8195 -0.354017 -1.65966 0
M  V30 635 H 52.5915 -0.488461 -3.88239 0
M  V30 636 H 52.2145 1.22367 -3.78301 0
M  V30 637 N 53.2116 1.57565 -0.0334293 0
M  V30 638 C 54.1586 2.10478 0.946981 0
M  V30 639 C 55.1286 1.00787 1.32027 0
M  V30 640 O 56.3136 1.28232 1.41284 0
M  V30 641 C 53.4536 2.63994 2.22263 0
M  V30 642 C 52.5666 3.87709 1.90541 0
M  V30 643 C 51.7016 4.29604 3.12433 0
M  V30 644 C 50.7406 5.46065 2.76549 0
M  V30 645 N 49.8776 5.83096 3.9108 0
M  V30 646 H 54.7176 2.93963 0.488846 0
M  V30 647 H 52.2546 1.45296 0.22969 0
M  V30 648 H 54.2126 2.93114 2.96884 0
M  V30 649 H 52.8426 1.83333 2.65685 0
M  V30 650 H 51.8946 3.65291 1.06144 0
M  V30 651 H 53.2066 4.72403 1.60116 0
M  V30 652 H 52.3606 4.60182 3.9537 0
M  V30 653 H 51.0996 3.43685 3.46023 0
M  V30 654 H 50.1046 5.15176 1.92026 0
M  V30 655 H 51.3296 6.33685 2.44171 0
M  V30 656 H 49.2756 5.00132 4.24504 0
M  V30 657 H 49.1926 6.6244 3.64293 0
M  V30 658 H 50.4606 6.18282 4.74708 0
M  V30 659 N 54.6897 -0.239769 1.55765 0
M  V30 660 C 55.5997 -1.31831 1.94056 0
M  V30 661 C 56.6157 -1.52275 0.841925 0
M  V30 662 O 57.7917 -1.65759 1.14394 0
M  V30 663 C 54.8567 -2.65156 2.23368 0
M  V30 664 C 53.9177 -2.53173 3.46701 0
M  V30 665 C 53.1507 -3.8014 3.74606 0
M  V30 666 O 53.3737 -4.82343 3.04469 0
M  V30 667 O 52.3077 -3.78344 4.68123 0
M  V30 668 H 56.1337 -1.02347 2.85935 0
M  V30 669 H 53.7187 -0.441123 1.42739 0
M  V30 670 H 55.6007 -3.43929 2.43497 0
M  V30 671 H 54.2757 -2.94358 1.34666 0
M  V30 672 H 53.1827 -1.72662 3.31871 0
M  V30 673 H 54.5157 -2.28915 4.35728 0
M  V30 674 N 56.1678 -1.49265 -0.50573 0
M  V30 675 C 57.1148 -1.65585 -1.6078 0
M  V30 676 C 58.0848 -0.497396 -1.58478 0
M  V30 677 O 59.2698 -0.72385 -1.76536 0
M  V30 678 C 56.4098 -1.72408 -2.98948 0
M  V30 679 C 55.5228 -2.99525 -3.11301 0
M  V30 680 C 54.6578 -2.97356 -4.40174 0
M  V30 681 C 53.6968 -4.19074 -4.46143 0
M  V30 682 N 52.8338 -4.14841 -5.66437 0
M  V30 683 H 57.6738 -2.59688 -1.46172 0
M  V30 684 H 55.2108 -1.28761 -0.711261 0
M  V30 685 H 57.1688 -1.74344 -3.79025 0
M  V30 686 H 55.7988 -0.817753 -3.1227 0
M  V30 687 H 54.8508 -3.07222 -2.24318 0
M  V30 688 H 56.1628 -3.89518 -3.11572 0
M  V30 689 H 55.3168 -2.97829 -5.28567 0
M  V30 690 H 54.0558 -2.05133 -4.42461 0
M  V30 691 H 53.0608 -4.1885 -3.56153 0
M  V30 692 H 54.2858 -5.12483 -4.45575 0
M  V30 693 H 52.2318 -3.25453 -5.69575 0
M  V30 694 H 52.1488 -4.98564 -5.68304 0
M  V30 695 H 53.4168 -4.1941 -6.57051 0
M  V30 696 N 57.6459 0.756429 -1.3826 0
M  V30 697 C 59.0569 1.33359 -1.30661 0
M  V30 698 C 59.4079 1.96161 0.0388875 0
M  V30 699 O 58.5329 1.94874 0.940918 0
M  V30 700 C 59.1279 2.42477 -2.36622 0
M  V30 701 C 57.6869 2.95922 -2.3261 0
M  V30 702 C 56.8339 1.69275 -2.19639 0
M  V30 703 H 59.7849 0.55552 -1.4866 0
M  V30 704 H 59.8059 3.22345 -2.02174 0
M  V30 705 H 59.3179 1.96739 -3.34538 0
M  V30 706 H 57.4189 3.45996 -1.38267 0
M  V30 707 H 57.5319 3.50494 -3.26636 0
M  V30 708 H 55.8959 1.92793 -1.66442 0
M  V30 709 H 56.6789 1.25619 -3.19491 0
M  V30 710 N 59.124 1.23083 0.984299 0
M  V30 711 C 60.535 1.05609 1.5396 0
M  V30 712 C 60.886 -0.377793 1.92528 0
M  V30 713 O 60.011 -1.26398 1.75649 0
M  V30 714 C 60.606 1.91087 2.7977 0
M  V30 715 C 59.165 1.77885 3.31713 0
M  V30 716 C 58.312 1.87028 2.04733 0
M  V30 717 H 61.263 1.36802 0.804419 0
M  V30 718 H 61.284 1.43336 3.5247 0
M  V30 719 H 60.796 2.9544 2.51668 0
M  V30 720 H 58.897 0.762995 3.64704 0
M  V30 721 H 59.01 2.61047 4.01735 0
M  V30 722 H 57.374 1.30565 2.18689 0
M  V30 723 H 58.157 2.92929 1.79017 0
M  V30 724 N 60.6021 -1.18246 1.0419 0
M  V30 725 C 61.5521 -2.19843 0.604392 0
M  V30 726 C 62.5361 -1.56962 -0.353814 0
M  V30 727 O 63.7281 -1.76156 -0.17267 0
M  V30 728 C 60.8571 -3.43287 -0.0298975 0
M  V30 729 C 59.9431 -4.13288 0.951531 0
M  V30 730 N 60.3341 -4.59271 2.11906 0
M  V30 731 C 58.6321 -4.39165 0.7778 0
M  V30 732 C 59.3331 -5.13173 2.73912 0
M  V30 733 N 58.3091 -5.04763 2.01779 0
M  V30 734 H 62.1111 -2.53089 1.4941 0
M  V30 735 H 59.6251 -1.34465 0.910658 0
M  V30 736 H 61.6221 -4.15334 -0.361037 0
M  V30 737 H 60.2821 -3.11537 -0.915127 0
M  V30 738 H 61.2931 -4.5368 2.49789 0
M  V30 739 H 57.9701 -4.17461 -0.0572331 0
M  V30 740 H 59.3601 -5.58947 3.72864 0
M  V30 741 N 62.0802 -0.821533 -1.34494 0
M  V30 742 C 63.3272 -0.408946 -1.98328 0
M  V30 743 C 63.6552 1.02764 -1.65136 0
M  V30 744 O 62.9102 1.73026 -0.914349 0
M  V30 745 C 63.2092 -0.556512 -3.53041 0
M  V30 746 C 62.8752 -1.95861 -4.0614 0
M  V30 747 C 61.5372 -2.34217 -4.20352 0
M  V30 748 C 63.8892 -2.87523 -4.34718 0
M  V30 749 C 61.2172 -3.63572 -4.6047 0
M  V30 750 C 63.5692 -4.1634 -4.76281 0
M  V30 751 C 62.2332 -4.54675 -4.88699 0
M  V30 752 H 61.5032 -0.149644 -0.725732 0
M  V30 753 H 64.1502 -1.04521 -1.6046 0
M  V30 754 H 62.4552 0.163148 -3.9146 0
M  V30 755 H 64.1522 -0.217826 -4.00408 0
M  V30 756 H 60.7422 -1.65066 -3.95539 0
M  V30 757 H 64.9262 -2.59133 -4.23277 0
M  V30 758 H 60.1822 -3.93101 -4.68275 0
M  V30 759 H 64.3562 -4.87455 -4.97354 0
M  V30 760 H 61.9832 -5.54959 -5.19542 0
M  V30 761 N 63.5583 1.46682 -0.576371 0
M  V30 762 C 64.7863 2.06798 -0.0649635 0
M  V30 763 C 65.2013 1.42612 1.23723 0
M  V30 764 O 64.5583 0.529203 1.74659 0
M  V30 765 C 64.6093 3.6132 0.114202 0
M  V30 766 O 64.3303 4.23104 -1.13644 0
M  V30 767 C 65.8313 4.38349 0.66069 0
M  V30 768 H 63.0513 0.668778 -0.0545616 0
M  V30 769 H 65.5953 1.88404 -0.795237 0
M  V30 770 H 63.7503 3.79162 0.794673 0
M  V30 771 H 64.1643 5.15894 -0.946253 0
M  V30 772 H 65.6383 5.47081 0.73526 0
M  V30 773 H 66.1153 4.05953 1.67627 0
M  V30 774 H 66.7213 4.25297 0.0152951 0
M  V30 775 N 65.0364 0.313813 1.54444 0
M  V30 776 C 65.9994 -0.54379 2.22656 0
M  V30 777 C 66.9994 -1.05124 1.21678 0
M  V30 778 O 68.1894 -0.945225 1.46325 0
M  V30 779 C 65.3214 -1.75427 2.92298 0
M  V30 780 H 66.5144 0.0523599 2.99854 0
M  V30 781 H 64.0674 0.0647834 1.56166 0
M  V30 782 H 64.8024 -2.38991 2.19211 0
M  V30 783 H 64.5874 -1.39791 3.66334 0
M  V30 784 H 66.0774 -2.36325 3.44297 0
M  V30 785 N 66.5145 -1.57545 0.0417849 0
M  V30 786 C 67.7615 -1.92317 -0.634082 0
M  V30 787 C 68.0895 -0.919334 -1.71402 0
M  V30 788 O 67.3445 0.0698253 -1.95575 0
M  V30 789 C 67.6435 -3.33794 -1.27735 0
M  V30 790 C 67.3095 -4.49716 -0.326543 0
M  V30 791 C 65.9715 -4.81156 -0.0648814 0
M  V30 792 C 68.3235 -5.20182 0.325623 0
M  V30 793 C 65.6515 -5.80414 0.856539 0
M  V30 794 C 68.0035 -6.20424 1.23518 0
M  V30 795 C 66.6675 -6.50298 1.5056 0
M  V30 796 H 65.9375 -0.703736 -0.232027 0
M  V30 797 H 68.5845 -1.91205 0.106259 0
M  V30 798 H 66.8895 -3.31228 -2.09274 0
M  V30 799 H 68.5865 -3.57975 -1.80707 0
M  V30 800 H 65.1765 -4.25176 -0.540665 0
M  V30 801 H 69.3605 -4.96112 0.136546 0
M  V30 802 H 64.6165 -6.019 1.07363 0
M  V30 803 H 68.7905 -6.74141 1.74664 0
M  V30 804 H 66.4175 -7.27025 2.22123 0
M  V30 805 N 67.9926 0.231505 -1.5589 0
M  V30 806 C 68.9256 1.31369 -1.86595 0
M  V30 807 C 69.9036 1.45671 -0.722397 0
M  V30 808 O 71.0876 1.61642 -0.969743 0
M  V30 809 C 68.2146 2.68529 -2.06421 0
M  V30 810 C 67.2606 2.71295 -3.29092 0
M  V30 811 S 68.0936 2.26358 -4.85306 0
M  V30 812 C 69.2496 3.65414 -5.08157 0
M  V30 813 H 69.4826 1.05128 -2.78092 0
M  V30 814 H 67.0156 0.433259 -1.48197 0
M  V30 815 H 68.9736 3.47499 -2.18528 0
M  V30 816 H 67.6346 2.91999 -1.15738 0
M  V30 817 H 66.8276 3.72063 -3.39978 0
M  V30 818 H 66.4296 2.0038 -3.15791 0
M  V30 819 H 68.7216 4.6103 -4.96445 0
M  V30 820 H 69.6646 3.5945 -6.10083 0
M  V30 821 H 70.0726 3.5864 -4.35933 0
M  V30 822 N 69.4707 1.49531 0.497807 0
M  V30 823 C 70.7187 1.58865 1.24926 0
M  V30 824 C 71.0397 0.278721 1.92998 0
M  V30 825 O 70.3097 -0.702144 1.82885 0
M  V30 826 H 68.8897 0.585343 0.464094 0
M  V30 827 H 71.5517 1.86174 0.57666 0
M  V30 828 H 70.6477 2.38633 2.01149 0
M  V30 829 N 70.9488 -0.749086 1.3866 0
M  V30 830 C 72.1788 -1.53611 1.38157 0
M  V30 831 C 72.5868 -1.89177 -0.0293595 0
M  V30 832 O 71.9298 -1.53606 -1.00752 0
M  V30 833 C 71.9918 -2.86087 2.17702 0
M  V30 834 C 71.6558 -2.73034 3.66472 0
M  V30 835 C 72.6528 -2.42526 4.59866 0
M  V30 836 C 70.3378 -2.90345 4.09884 0
M  V30 837 C 72.3318 -2.29492 5.94653 0
M  V30 838 C 70.0188 -2.7693 5.4475 0
M  V30 839 C 71.0168 -2.46547 6.36949 0
M  V30 840 O 70.7048 -2.33199 7.69333 0
M  V30 841 H 70.4368 -0.481773 0.474205 0
M  V30 842 H 72.9908 -0.934465 1.82912 0
M  V30 843 H 71.2208 -3.48458 1.67672 0
M  V30 844 H 72.9098 -3.47625 2.09551 0
M  V30 845 H 73.6758 -2.28816 4.27631 0
M  V30 846 H 69.5548 -3.1299 3.38464 0
M  V30 847 H 73.0988 -2.05698 6.66584 0
M  V30 848 H 68.9958 -2.90215 5.76581 0
M  V30 849 H 69.7638 -2.48376 7.79905 0
M  V30 850 N 72.4269 -1.23603 -0.977757 0
M  V30 851 C 73.3739 -1.01954 -2.07061 0
M  V30 852 C 74.3439 0.0638697 -1.65977 0
M  V30 853 O 75.5289 -0.0887624 -1.90593 0
M  V30 854 C 72.6689 -0.619658 -3.39491 0
M  V30 855 C 71.7819 -1.77547 -3.93829 0
M  V30 856 C 70.9169 -1.32212 -5.14484 0
M  V30 857 C 69.9559 -2.44852 -5.60994 0
M  V30 858 N 69.0929 -2.00456 -6.72876 0
M  V30 859 H 73.9329 -1.95495 -2.24913 0
M  V30 860 H 71.4699 -0.973861 -1.10247 0
M  V30 861 H 73.4279 -0.368898 -4.15566 0
M  V30 862 H 72.0579 0.278752 -3.21594 0
M  V30 863 H 71.1099 -2.14016 -3.14486 0
M  V30 864 H 72.4219 -2.62219 -4.24314 0
M  V30 865 H 71.5759 -1.02965 -5.97899 0
M  V30 866 H 70.3149 -0.445808 -4.85658 0
M  V30 867 H 69.3199 -2.74871 -4.76157 0
M  V30 868 H 70.5449 -3.33024 -5.91837 0
M  V30 869 H 68.4909 -1.15208 -6.45804 0
M  V30 870 H 68.4079 -2.78687 -7.02759 0
M  V30 871 H 69.6759 -1.7432 -7.59758 0
M  V30 872 N 73.905 1.17692 -1.04816 0
M  V30 873 C 74.868 2.19787 -0.650117 0
M  V30 874 C 75.868 1.58044 0.296427 0
M  V30 875 O 77.058 1.74012 0.0808097 0
M  V30 876 C 74.19 3.40869 0.0456987 0
M  V30 877 H 75.383 2.56516 -1.5537 0
M  V30 878 H 72.936 1.31708 -0.841594 0
M  V30 879 H 73.671 3.09681 0.962726 0
M  V30 880 H 73.456 3.86928 -0.634727 0
M  V30 881 H 74.946 4.16445 0.310432 0
M  V30 882 N 75.3831 0.828654 1.34056 0
M  V30 883 C 76.6311 0.41863 1.97717 0
M  V30 884 C 76.9521 -1.02314 1.66002 0
M  V30 885 O 76.2221 -1.71119 0.953683 0
M  V30 886 H 74.8021 0.151809 0.731412 0
M  V30 887 H 77.4641 1.05936 1.63596 0
M  V30 888 H 76.5601 0.542318 3.07352 0
M  V30 889 N 76.8612 -1.46375 0.584142 0
M  V30 890 C 77.7942 -2.27351 -0.196676 0
M  V30 891 C 78.7722 -1.35715 -0.895561 0
M  V30 892 O 79.9562 -1.65126 -0.90916 0
M  V30 893 C 77.0832 -3.13486 -1.28235 0
M  V30 894 C 76.1292 -4.20896 -0.689145 0
M  V30 895 S 76.9622 -5.33299 0.48507 0
M  V30 896 C 78.1182 -6.23 -0.601767 0
M  V30 897 H 78.3512 -2.93228 0.490395 0
M  V30 898 H 75.8842 -1.49875 0.371071 0
M  V30 899 H 77.8422 -3.63676 -1.90395 0
M  V30 900 H 76.5032 -2.4692 -1.94138 0
M  V30 901 H 75.6962 -4.80997 -1.50527 0
M  V30 902 H 75.2982 -3.73726 -0.143181 0
M  V30 903 H 77.5902 -6.60979 -1.48705 0
M  V30 904 H 78.5332 -7.0809 -0.0374799 0
M  V30 905 H 78.9412 -5.57173 -0.906557 0
M  V30 906 N 78.3393 -0.321999 -1.54275 0
M  V30 907 C 79.5673 0.283052 -2.04955 0
M  V30 908 C 79.9823 1.45904 -1.19823 0
M  V30 909 O 79.3393 1.81063 -0.228545 0
M  V30 910 C 79.3903 0.719028 -3.54277 0
M  V30 911 O 79.1113 -0.410175 -4.36176 0
M  V30 912 C 80.6123 1.38705 -4.21041 0
M  V30 913 H 77.8323 0.0584616 -0.668448 0
M  V30 914 H 80.3763 -0.467734 -1.99079 0
M  V30 915 H 78.5313 1.41979 -3.60445 0
M  V30 916 H 78.9453 -0.0669416 -5.24457 0
M  V30 917 H 80.4193 1.64306 -5.2698 0
M  V30 918 H 80.8963 2.33385 -3.72059 0
M  V30 919 H 81.5023 0.728906 -4.19007 0
M  V30 920 N 79.8174 1.5752 -0.0501392 0
M  V30 921 C 80.7674 2.07981 0.934231 0
M  V30 922 C 81.7514 0.984745 1.27246 0
M  V30 923 O 82.9434 1.24809 1.25506 0
M  V30 924 C 80.0724 2.62751 2.20945 0
M  V30 925 C 79.1584 3.79225 1.89865 0
M  V30 926 N 79.5494 4.89036 1.29142 0
M  V30 927 C 77.8474 3.88111 2.19741 0
M  V30 928 C 78.5484 5.70084 1.15669 0
M  V30 929 N 77.5244 5.17659 1.65923 0
M  V30 930 H 81.3264 2.90277 0.460053 0
M  V30 931 H 78.8404 1.61665 0.15434 0
M  V30 932 H 80.8374 2.97205 2.9236 0
M  V30 933 H 79.4974 1.81894 2.6897 0
M  V30 934 H 80.5084 5.08854 0.963756 0
M  V30 935 H 77.1854 3.18194 2.70293 0
M  V30 936 H 78.5754 6.68395 0.685356 0
M  V30 937 N 81.2955 -0.223234 1.56011 0
M  V30 938 C 82.5445 -0.945912 1.78144 0
M  V30 939 C 82.8575 -1.85567 0.618396 0
M  V30 940 O 84.0635 -2.61688 0.723318 0
M  V30 941 C 82.5195 -1.73216 3.15475 0
M  V30 942 C 82.1275 -0.868619 4.39499 0
M  V30 943 C 83.8715 -2.44615 3.46935 0
M  V30 944 C 81.7785 -1.65212 5.67855 0
M  V30 945 H 80.7085 -0.356929 0.664167 0
M  V30 946 H 83.3595 -0.199845 1.82409 0
M  V30 947 H 81.7415 -2.52107 3.05382 0
M  V30 948 H 82.9155 -0.120366 4.60643 0
M  V30 949 H 81.2305 -0.26683 4.15544 0
M  V30 950 H 83.8275 -3.03732 4.40058 0
M  V30 951 H 84.1705 -3.17417 2.69355 0
M  V30 952 H 84.7035 -1.72715 3.58349 0
M  V30 953 H 81.4425 -0.967407 6.48322 0
M  V30 954 H 80.9625 -2.37503 5.50774 0
M  V30 955 H 82.6415 -2.21322 6.07968 0
M  V30 956 N 82.7736 -1.49793 -0.48987 0
M  V30 957 C 84.0196 -1.60078 -1.24511 0
M  V30 958 C 84.3526 -0.291608 -1.91998 0
M  V30 959 O 83.6276 0.705647 -1.81248 0
M  V30 960 C 83.9106 -2.76791 -2.30345 0
M  V30 961 C 83.7636 -4.17535 -1.67286 0
M  V30 962 C 85.0826 -2.89111 -3.31817 0
M  V30 963 H 82.2016 -0.582645 -0.451324 0
M  V30 964 H 84.8436 -1.82117 -0.541612 0
M  V30 965 H 82.9936 -2.5813 -2.90346 0
M  V30 966 H 84.6656 -4.4774 -1.11026 0
M  V30 967 H 82.9086 -4.22665 -0.976577 0
M  V30 968 H 83.5796 -4.95094 -2.44103 0
M  V30 969 H 86.0556 -3.06133 -2.81819 0
M  V30 970 H 84.9316 -3.72433 -4.03219 0
M  V30 971 H 85.1926 -1.9893 -3.94815 0
M  V30 972 N 84.2517 0.741722 -1.39055 0
M  V30 973 C 85.6677 1.04638 -1.20512 0
M  V30 974 C 85.8677 2.01405 -0.0620218 0
M  V30 975 O 84.9237 2.45547 0.588457 0
M  V30 976 C 86.2367 1.6151 -2.53643 0
M  V30 977 C 87.7847 1.73623 -2.6043 0
M  V30 978 C 88.2597 2.33906 -3.93767 0
M  V30 979 N 89.7507 2.41323 -3.9537 0
M  V30 980 C 90.4857 2.88888 -4.95309 0
M  V30 981 N 89.9817 3.36401 -6.05645 0
M  V30 982 N 91.7747 2.88037 -4.82692 0
M  V30 983 H 83.9257 0.0998155 -2.12165 0
M  V30 984 H 86.1887 0.106907 -0.941953 0
M  V30 985 H 85.8947 0.978739 -3.37807 0
M  V30 986 H 85.7687 2.60411 -2.72885 0
M  V30 987 H 88.1557 2.36384 -1.76655 0
M  V30 988 H 88.2367 0.733945 -2.45045 0
M  V30 989 H 87.8807 1.71776 -4.7797 0
M  V30 990 H 87.8107 3.34799 -4.06469 0
M  V30 991 H 90.3017 2.07734 -3.15682 0
M  V30 992 H 90.6147 3.71186 -6.77821 0
M  V30 993 H 88.9597 3.34427 -6.09248 0
M  V30 994 H 92.1507 2.50237 -3.95599 0
M  V30 995 H 92.3237 3.24792 -5.60726 0
M  V30 996 N 85.7298 1.2412 0.971189 0
M  V30 997 C 86.6398 1.04747 2.09917 0
M  V30 998 C 87.6558 -0.0107162 1.73997 0
M  V30 999 O 88.8318 0.186714 2.00533 0
M  V30 1000 C 85.8968 0.650828 3.40537 0
M  V30 1001 C 84.9578 1.7851 3.90426 0
M  V30 1002 C 84.1908 1.40729 5.14812 0
M  V30 1003 O 84.4138 0.29557 5.69634 0
M  V30 1004 O 83.3478 2.23168 5.58999 0
M  V30 1005 H 87.1738 1.99304 2.29154 0
M  V30 1006 H 84.7588 1.02908 1.08307 0
M  V30 1007 H 86.6408 0.440992 4.19086 0
M  V30 1008 H 85.3158 -0.265649 3.22608 0
M  V30 1009 H 84.2228 2.04966 3.12953 0
M  V30 1010 H 85.5558 2.68023 4.12825 0
M  V30 1011 N 87.2079 -1.17134 1.05439 0
M  V30 1012 C 88.4539 -1.87733 0.767077 0
M  V30 1013 C 88.7869 -1.8098 -0.704253 0
M  V30 1014 O 88.0619 -1.21951 -1.5152 0
M  V30 1015 C 88.3449 -3.37659 1.25133 0
M  V30 1016 C 88.1979 -3.53149 2.78578 0
M  V30 1017 C 89.5169 -4.31768 0.852324 0
M  V30 1018 H 86.6359 -0.681687 0.280129 0
M  V30 1019 H 89.2779 -1.37732 1.30881 0
M  V30 1020 H 87.4279 -3.80373 0.790469 0
M  V30 1021 H 89.0999 -3.19434 3.32806 0
M  V30 1022 H 87.3429 -2.95345 3.17732 0
M  V30 1023 H 88.0139 -4.58403 3.07523 0
M  V30 1024 H 90.4899 -3.96909 1.24911 0
M  V30 1025 H 89.3659 -5.35199 1.21873 0
M  V30 1026 H 89.6269 -4.41429 -0.243485 0
M  V30 1027 N 88.686 -0.835752 -1.33615 0
M  V30 1028 C 89.963 -0.352017 -1.92406 0
M  V30 1029 C 90.343 1.16225 -1.76224 0
M  V30 1030 O 89.691 1.97526 -1.14873 0
M  V30 1031 C 89.901 -0.795485 -3.39813 0
M  V30 1032 C 91.249 -0.801703 -4.16963 0
M  V30 1033 O 92.273 -0.738889 -3.48452 0
M  V30 1034 O 91.132 -0.886607 -5.3926 0
M  V30 1035 H 88.226 -0.0989641 -0.821057 0
M  V30 1036 H 90.772 -0.921397 -1.42507 0
M  V30 1037 H 89.544 -1.83795 -3.45449 0
M  V30 1038 H 89.167 -0.202505 -3.97084 0
M  V30 1039 N 90.1641 1.46063 -0.591896 0
M  V30 1040 C 91.1111 2.30399 0.136069 0
M  V30 1041 C 92.0811 1.41169 0.875238 0
M  V30 1042 O 93.2661 1.70112 0.86409 0
M  V30 1043 C 90.4061 3.25804 1.13781 0
M  V30 1044 C 89.5191 4.30134 0.401137 0
M  V30 1045 C 88.6541 5.12659 1.39121 0
M  V30 1046 C 87.6931 6.0873 0.641462 0
M  V30 1047 N 86.8301 6.8409 1.58004 0
M  V30 1048 H 91.6701 2.92118 -0.589144 0
M  V30 1049 H 89.2071 1.43959 -0.302342 0
M  V30 1050 H 91.1651 3.79569 1.73156 0
M  V30 1051 H 89.7951 2.65872 1.83062 0
M  V30 1052 H 88.8471 3.79152 -0.307826 0
M  V30 1053 H 90.1591 4.98458 -0.184565 0
M  V30 1054 H 89.3131 5.70747 2.05749 0
M  V30 1055 H 88.0521 4.44316 2.01084 0
M  V30 1056 H 87.0571 5.49786 -0.0385419 0
M  V30 1057 H 88.2821 6.79095 0.0270945 0
M  V30 1058 H 86.2281 6.18449 2.18761 0
M  V30 1059 H 86.1451 7.48709 1.04738 0
M  V30 1060 H 87.4131 7.4673 2.23639 0
M  V30 1061 N 91.6422 0.330177 1.54103 0
M  V30 1062 C 93.0532 -0.15652 1.86043 0
M  V30 1063 C 93.4042 -1.51086 1.2517 0
M  V30 1064 O 92.5292 -2.09023 0.560217 0
M  V30 1065 C 93.1242 -0.290784 3.3755 0
M  V30 1066 C 91.6832 -0.721705 3.69416 0
M  V30 1067 C 90.8302 0.152622 2.7688 0
M  V30 1068 H 93.7812 0.550237 1.48856 0
M  V30 1069 H 93.8022 -1.12058 3.63625 0
M  V30 1070 H 93.3142 0.695068 3.81825 0
M  V30 1071 H 91.4152 -1.71706 3.30678 0
M  V30 1072 H 91.5282 -0.520869 4.7626 0
M  V30 1073 H 89.8922 -0.372894 2.51956 0
M  V30 1074 H 90.6752 1.13536 3.23982 0
M  V30 1075 N 93.1203 -1.57491 0.0584922 0
M  V30 1076 C 94.3683 -1.92597 -0.612436 0
M  V30 1077 C 94.6893 -0.938162 -1.70949 0
M  V30 1078 O 93.9593 0.0158301 -1.95894 0
M  V30 1079 H 92.5393 -0.710964 -0.229214 0
M  V30 1080 H 95.2013 -1.94571 0.113218 0
M  V30 1081 H 94.2973 -2.94038 -1.04633 0
M  V30 1082 N 94.5984 0.214957 -1.56127 0
M  V30 1083 C 95.8234 0.95924 -1.83884 0
M  V30 1084 C 96.2484 1.7689 -0.639644 0
M  V30 1085 O 95.6064 1.76566 0.411601 0
M  V30 1086 C 95.6544 1.84723 -3.09693 0
M  V30 1087 O 94.7584 2.94346 -2.8885 0
M  V30 1088 H 94.0994 0.27125 -0.606069 0
M  V30 1089 H 96.6294 0.226276 -2.03345 0
M  V30 1090 H 96.6394 2.25576 -3.39969 0
M  V30 1091 H 95.3144 1.25218 -3.96602 0
M  V30 1092 H 93.8914 2.57391 -2.69823 0
M  V30 1093 N 96.0765 1.50051 0.48192 0
M  V30 1094 C 97.0235 1.68122 1.58125 0
M  V30 1095 C 97.9935 0.522545 1.57666 0
M  V30 1096 O 99.1785 0.751844 1.75362 0
M  V30 1097 C 96.3185 1.77142 2.96167 0
M  V30 1098 C 95.4315 3.0444 3.06497 0
M  V30 1099 C 94.5665 3.04321 4.35387 0
M  V30 1100 C 93.6055 4.26118 4.3942 0
M  V30 1101 N 92.7425 4.238 5.59766 0
M  V30 1102 H 97.5825 2.6198 1.42022 0
M  V30 1103 H 95.1195 1.29877 0.690687 0
M  V30 1104 H 97.0775 1.80352 3.76203 0
M  V30 1105 H 95.7075 0.867329 3.1093 0
M  V30 1106 H 94.7595 3.10752 2.19402 0
M  V30 1107 H 96.0715 3.94426 3.05336 0
M  V30 1108 H 95.2255 3.062 5.23762 0
M  V30 1109 H 93.9645 2.12147 4.39141 0
M  V30 1110 H 92.9695 4.24463 3.49444 0
M  V30 1111 H 94.1945 5.19507 4.37366 0
M  V30 1112 H 92.1405 3.34474 5.64326 0
M  V30 1113 H 92.0575 5.07542 5.60301 0
M  V30 1114 H 93.3255 4.2981 6.50295 0
M  V30 1115 N 97.5546 -0.734337 1.39446 0
M  V30 1116 C 98.4846 -1.86155 1.40955 0
M  V30 1117 C 99.4656 -1.67898 0.272827 0
M  V30 1118 O 100.651 -1.88207 0.478743 0
M  V30 1119 C 97.7806 -3.23912 1.25294 0
M  V30 1120 C 96.7346 -3.56808 2.36373 0
M  V30 1121 C 96.0606 -4.93508 2.058 0
M  V30 1122 C 97.3606 -3.59713 3.78687 0
M  V30 1123 H 99.0546 -1.8515 2.35287 0
M  V30 1124 H 96.6006 -0.889367 1.13253 0
M  V30 1125 H 98.5536 -4.02443 1.2497 0
M  V30 1126 H 97.2776 -3.25446 0.274308 0
M  V30 1127 H 95.9366 -2.80606 2.35914 0
M  V30 1128 H 95.5846 -4.91623 1.06374 0
M  V30 1129 H 95.2846 -5.16486 2.80208 0
M  V30 1130 H 96.8086 -5.74396 2.07128 0
M  V30 1131 H 98.2226 -4.2832 3.81071 0
M  V30 1132 H 96.6196 -3.94209 4.52459 0
M  V30 1133 H 97.6896 -2.59504 4.09617 0
M  V30 1134 N 99.0327 -1.24633 -0.964593 0
M  V30 1135 C 99.9827 -1.00841 -2.04487 0
M  V30 1136 C 100.967 0.0512468 -1.60818 0
M  V30 1137 O 102.159 -0.162865 -1.76249 0
M  V30 1138 C 99.2877 -0.618474 -3.37683 0
M  V30 1139 C 98.3737 -1.71437 -3.87905 0
M  V30 1140 N 98.7647 -2.9477 -4.11029 0
M  V30 1141 C 97.0627 -1.5926 -4.16596 0
M  V30 1142 C 97.7637 -3.65834 -4.52261 0
M  V30 1143 N 96.7397 -2.9341 -4.57615 0
M  V30 1144 H 100.542 -1.94487 -2.20345 0
M  V30 1145 H 98.0557 -1.14805 -1.14863 0
M  V30 1146 H 100.053 -0.429247 -4.14684 0
M  V30 1147 H 98.7127 0.310766 -3.23209 0
M  V30 1148 H 99.7237 -3.30917 -3.9839 0
M  V30 1149 H 96.4007 -0.731606 -4.1104 0
M  V30 1150 H 97.7907 -4.71646 -4.78539 0
M  V30 1151 N 100.511 1.16574 -1.06058 0
M  V30 1152 C 101.458 2.20883 -0.669263 0
M  V30 1153 C 102.428 1.62729 0.332918 0
M  V30 1154 O 103.613 1.895 0.222346 0
M  V30 1155 C 100.753 3.45049 -0.0593572 0
M  V30 1156 C 99.8658 4.17458 -1.11143 0
M  V30 1157 C 99.0008 5.29135 -0.467916 0
M  V30 1158 C 98.0398 5.93343 -1.50369 0
M  V30 1159 N 97.1768 6.96516 -0.883706 0
M  V30 1160 H 102.017 2.53709 -1.5632 0
M  V30 1161 H 99.5538 1.24616 -0.781625 0
M  V30 1162 H 101.512 4.16033 0.311771 0
M  V30 1163 H 100.142 3.12781 0.797992 0
M  V30 1164 H 99.1938 3.45101 -1.60029 0
M  V30 1165 H 100.506 4.61307 -1.89731 0
M  V30 1166 H 99.6598 6.06684 -0.0436871 0
M  V30 1167 H 98.3988 4.86443 0.349864 0
M  V30 1168 H 97.4038 5.14517 -1.93784 0
M  V30 1169 H 98.6288 6.38114 -2.32352 0
M  V30 1170 H 96.5748 6.55943 -0.086595 0
M  V30 1171 H 96.4918 7.38723 -1.607 0
M  V30 1172 H 97.7598 7.77993 -0.484543 0
M  V30 1173 N 101.989 0.842826 1.3317 0
M  V30 1174 C 102.936 0.276885 2.29133 0
M  V30 1175 C 103.906 -0.609527 1.54512 0
M  V30 1176 O 105.091 -0.546955 1.82792 0
M  V30 1177 C 102.231 -0.538707 3.40869 0
M  V30 1178 C 101.344 0.372169 4.30394 0
M  V30 1179 C 100.479 -0.454908 5.29249 0
M  V30 1180 C 99.5179 0.45411 6.10413 0
M  V30 1181 N 98.6549 -0.335075 7.013 0
M  V30 1182 H 103.495 1.10052 2.76934 0
M  V30 1183 H 101.032 0.554161 1.36262 0
M  V30 1184 H 102.99 -1.02709 4.0436 0
M  V30 1185 H 101.62 -1.32727 2.9425 0
M  V30 1186 H 100.672 0.97888 3.6759 0
M  V30 1187 H 101.984 1.0703 4.87182 0
M  V30 1188 H 101.138 -1.00695 5.98285 0
M  V30 1189 H 99.8769 -1.18646 4.73048 0
M  V30 1190 H 98.8819 1.01813 5.40291 0
M  V30 1191 H 100.107 1.18409 6.68697 0
M  V30 1192 H 98.0529 -1.04994 6.47543 0
M  V30 1193 H 97.9699 0.304262 7.55387 0
M  V30 1194 H 99.2379 -0.869224 7.74638 0
M  V30 1195 N 103.467 -1.45747 0.599634 0
M  V30 1196 C 104.377 -2.34262 -0.125888 0
M  V30 1197 C 105.393 -1.50768 -0.868625 0
M  V30 1198 O 106.569 -1.83592 -0.828003 0
M  V30 1199 C 103.634 -3.28252 -1.11587 0
M  V30 1200 C 102.695 -4.27651 -0.375956 0
M  V30 1201 C 101.928 -5.1715 -1.31877 0
M  V30 1202 O 102.151 -5.09916 -2.55621 0
M  V30 1203 O 101.085 -5.96286 -0.820157 0
M  V30 1204 H 104.911 -2.97688 0.601315 0
M  V30 1205 H 102.496 -1.44999 0.359934 0
M  V30 1206 H 104.378 -3.86191 -1.68626 0
M  V30 1207 H 103.053 -2.67401 -1.82424 0
M  V30 1208 H 101.96 -3.7335 0.236698 0
M  V30 1209 H 103.293 -4.91334 0.29177 0
M  V30 1210 N 104.945 -0.338344 -1.53925 0
M  V30 1211 C 106.194 0.260732 -2.00008 0
M  V30 1212 C 106.507 1.52073 -1.23017 0
M  V30 1213 O 107.713 2.19672 -1.5955 0
M  V30 1214 C 106.169 0.51515 -3.56194 0
M  V30 1215 C 105.777 -0.728645 -4.42035 0
M  V30 1216 C 107.521 1.07337 -4.10706 0
M  V30 1217 C 105.428 -0.445315 -5.89721 0
M  V30 1218 H 104.358 0.101205 -0.747177 0
M  V30 1219 H 107.009 -0.452866 -1.77824 0
M  V30 1220 H 105.391 1.28932 -3.74423 0
M  V30 1221 H 106.565 -1.50352 -4.35581 0
M  V30 1222 H 104.88 -1.20813 -3.98489 0
M  V30 1223 H 107.477 1.30022 -5.18651 0
M  V30 1224 H 107.82 2.0273 -3.63602 0
M  V30 1225 H 108.353 0.360034 -3.96167 0
M  V30 1226 H 105.092 -1.36883 -6.41049 0
M  V30 1227 H 104.612 0.291569 -5.99091 0
M  V30 1228 H 106.291 -0.0606218 -6.46972 0
M  V30 1229 N 106.423 1.57458 -0.0668435 0
M  V30 1230 C 107.669 1.93587 0.6043 0
M  V30 1231 C 108.002 0.946722 1.69561 0
M  V30 1232 O 107.277 -0.0248516 1.94484 0
M  V30 1233 C 107.56 3.40014 1.18585 0
M  V30 1234 C 107.413 4.49685 0.101529 0
M  V30 1235 C 108.732 3.87154 2.09284 0
M  V30 1236 H 105.851 0.703958 0.218202 0
M  V30 1237 H 108.493 1.89542 -0.131804 0
M  V30 1238 H 106.643 3.43592 1.81319 0
M  V30 1239 H 108.315 4.5823 -0.531279 0
M  V30 1240 H 106.558 4.30059 -0.568487 0
M  V30 1241 H 107.229 5.49266 0.54874 0
M  V30 1242 H 109.705 3.85551 1.56491 0
M  V30 1243 H 108.581 4.90231 2.46911 0
M  V30 1244 H 108.842 3.2481 2.99918 0
M  V30 1245 N 107.901 -0.206675 1.56239 0
M  V30 1246 C 108.811 -1.27686 1.96808 0
M  V30 1247 C 109.827 -1.50455 0.874035 0
M  V30 1248 O 111.003 -1.63295 1.17884 0
M  V30 1249 C 108.068 -2.60358 2.28942 0
M  V30 1250 C 107.129 -2.45762 3.51994 0
M  V30 1251 C 106.362 -3.72108 3.82585 0
M  V30 1252 O 106.585 -4.75776 3.14631 0
M  V30 1253 O 105.519 -3.6833 4.76043 0
M  V30 1254 H 109.345 -0.962593 2.88041 0
M  V30 1255 H 106.93 -0.410746 1.43643 0
M  V30 1256 H 108.812 -3.38687 2.50737 0
M  V30 1257 H 107.487 -2.91435 1.4088 0
M  V30 1258 H 106.394 -1.65584 3.35459 0
M  V30 1259 H 107.727 -2.19621 4.40486 0
M  V30 1260 N 109.379 -1.50304 -0.473955 0
M  V30 1261 C 110.342 -1.6841 -1.55469 0
M  V30 1262 C 111.342 -0.554905 -1.50922 0
M  V30 1263 O 112.532 -0.821882 -1.53593 0
M  V30 1264 C 109.664 -1.70667 -2.95102 0
M  V30 1265 H 110.857 -2.64828 -1.40733 0
M  V30 1266 H 108.41 -1.39742 -0.700132 0
M  V30 1267 H 109.145 -0.75932 -3.15285 0
M  V30 1268 H 108.93 -2.52698 -2.9981 0
M  V30 1269 H 110.42 -1.8664 -3.73571 0
M  V30 1270 N 110.857 0.726932 -1.39834 0
M  V30 1271 C 112.097 1.4992 -1.38936 0
M  V30 1272 C 112.461 1.91996 0.0126883 0
M  V30 1273 O 113.662 2.68399 0.146715 0
M  V30 1274 C 111.933 2.70013 -2.34153 0
M  V30 1275 S 113.492 3.59563 -2.51515 0
M  V30 1276 H 110.31 0.51271 -0.492595 0
M  V30 1277 H 112.912 0.85107 -1.76003 0
M  V30 1278 H 111.616 2.37254 -3.34871 0
M  V30 1279 H 111.147 3.39748 -1.98331 0
M  V30 1280 H 113.162 4.63973 -1.75909 0
M  V30 1281 N 112.336 1.25143 0.95797 0
M  V30 1282 C 113.564 1.12424 1.73691 0
M  V30 1283 C 113.979 -0.322304 1.86029 0
M  V30 1284 O 113.336 -1.22186 1.35561 0
M  V30 1285 C 113.387 1.76933 3.15241 0
M  V30 1286 O 113.108 3.15932 3.03511 0
M  V30 1287 C 114.609 1.6995 4.09429 0
M  V30 1288 H 111.829 0.3923 0.544373 0
M  V30 1289 H 114.373 1.6544 1.20207 0
M  V30 1290 H 112.528 1.27895 3.6568 0
M  V30 1291 H 112.942 3.47598 3.9278 0
M  V30 1292 H 114.416 2.19753 5.06372 0
M  V30 1293 H 114.893 0.662619 4.34173 0
M  V30 1294 H 115.499 2.18461 3.64904 0
M  V30 1295 N 113.814 -1.1601 1.06675 0
M  V30 1296 C 115.063 -1.85973 0.780818 0
M  V30 1297 C 115.376 -1.82819 -0.695444 0
M  V30 1298 O 116.582 -2.484 -1.09589 0
M  V30 1299 C 115.038 -3.33757 1.34665 0
M  V30 1300 C 114.646 -3.45374 2.85343 0
M  V30 1301 C 116.39 -4.0895 1.13843 0
M  V30 1302 C 114.297 -4.87266 3.35151 0
M  V30 1303 H 113.227 -0.696661 0.288407 0
M  V30 1304 H 115.878 -1.30903 1.28595 0
M  V30 1305 H 114.26 -3.88456 0.769274 0
M  V30 1306 H 115.434 -3.00816 3.49065 0
M  V30 1307 H 113.749 -2.83619 3.04876 0
M  V30 1308 H 116.346 -5.13654 1.4854 0
M  V30 1309 H 116.689 -4.16229 0.0770282 0
M  V30 1310 H 117.222 -3.605 1.68179 0
M  V30 1311 H 113.961 -4.85168 4.40786 0
M  V30 1312 H 113.481 -5.32433 2.76179 0
M  V30 1313 H 115.16 -5.56097 3.30704 0
M  V30 1314 N 115.292 -0.849877 -1.32721 0
M  V30 1315 C 116.541 -0.447175 -1.96681 0
M  V30 1316 C 116.854 1.00135 -1.68025 0
M  V30 1317 O 118.06 1.50926 -2.25685 0
M  V30 1318 C 116.516 -0.7487 -3.52026 0
M  V30 1319 C 116.124 -2.21264 -3.89546 0
M  V30 1320 C 117.868 -0.413487 -4.22481 0
M  V30 1321 C 115.775 -2.45763 -5.37917 0
M  V30 1322 H 114.705 -0.163486 -0.736063 0
M  V30 1323 H 117.356 -1.03999 -1.51183 0
M  V30 1324 H 115.738 -0.0853727 -3.95908 0
M  V30 1325 H 116.912 -2.91736 -3.56689 0
M  V30 1326 H 115.227 -2.5119 -3.32103 0
M  V30 1327 H 117.824 -0.574017 -5.3161 0
M  V30 1328 H 118.167 0.644492 -4.11281 0
M  V30 1329 H 118.7 -1.03251 -3.84167 0
M  V30 1330 H 115.439 -3.50168 -5.54132 0
M  V30 1331 H 114.959 -1.79864 -5.72197 0
M  V30 1332 H 116.638 -2.29471 -6.0494 0
M  V30 1333 N 116.77 1.45427 -0.607355 0
M  V30 1334 C 117.68 2.34325 0.113463 0
M  V30 1335 C 118.696 1.51226 0.860617 0
M  V30 1336 O 119.872 1.84029 0.818255 0
M  V30 1337 C 116.937 3.28839 1.09844 0
M  V30 1338 C 115.998 4.27844 0.353271 0
M  V30 1339 C 115.231 5.17842 1.29133 0
M  V30 1340 O 115.454 5.11264 2.52913 0
M  V30 1341 O 114.388 5.96713 0.788523 0
M  V30 1342 H 118.214 2.97364 -0.617094 0
M  V30 1343 H 115.799 1.44807 -0.367619 0
M  V30 1344 H 117.681 3.8708 1.66575 0
M  V30 1345 H 116.356 2.68365 1.81003 0
M  V30 1346 H 115.263 3.7322 -0.256494 0
M  V30 1347 H 116.596 4.91173 -0.317822 0
M  V30 1348 N 118.248 0.346503 1.53744 0
M  V30 1349 C 119.488 -0.249413 2.02873 0
M  V30 1350 C 119.852 -1.47532 1.22876 0
M  V30 1351 O 121.053 -2.1456 1.61918 0
M  V30 1352 C 119.324 -0.552909 3.53097 0
M  V30 1353 S 120.883 -1.12521 4.24128 0
M  V30 1354 H 117.701 -0.074042 0.707134 0
M  V30 1355 H 120.303 0.48495 1.8939 0
M  V30 1356 H 119.007 0.347083 4.0893 0
M  V30 1357 H 118.538 -1.31686 3.70705 0
M  V30 1358 H 120.553 -2.41075 4.33702 0
M  V30 1359 N 119.726 -1.57421 0.075193 0
M  V30 1360 C 120.689 -2.11791 -0.876203 0
M  V30 1361 C 121.689 -1.04268 -1.22412 0
M  V30 1362 O 122.879 -1.30242 -1.15684 0
M  V30 1363 C 120.011 -2.62207 -2.17854 0
M  V30 1364 H 121.204 -2.9716 -0.40444 0
M  V30 1365 H 118.757 -1.55333 -0.173557 0
M  V30 1366 H 119.492 -1.803 -2.6956 0
M  V30 1367 H 119.277 -3.40802 -1.93897 0
M  V30 1368 H 120.767 -3.04335 -2.85955 0
M  V30 1369 N 121.204 0.198386 -1.56346 0
M  V30 1370 C 122.615 0.763358 -1.70381 0
M  V30 1371 C 122.966 1.83995 -0.681203 0
M  V30 1372 O 122.091 2.15785 0.16305 0
M  V30 1373 C 122.686 1.39143 -3.08909 0
M  V30 1374 C 121.245 1.90352 -3.2472 0
M  V30 1375 C 120.392 0.772233 -2.6633 0
M  V30 1376 H 123.343 -0.0266377 -1.58678 0
M  V30 1377 H 123.364 2.26076 -3.06055 0
M  V30 1378 H 122.876 0.607638 -3.83314 0
M  V30 1379 H 120.977 2.71461 -2.55225 0
M  V30 1380 H 121.09 2.06757 -4.3219 0
M  V30 1381 H 119.454 1.18566 -2.2542 0
M  V30 1382 H 120.237 0.00073556 -3.433 0
M  V30 1383 N 122.682 1.50554 0.465978 0
M  V30 1384 C 123.615 1.64436 1.58227 0
M  V30 1385 C 124.593 0.492367 1.54966 0
M  V30 1386 O 125.777 0.712536 1.74514 0
M  V30 1387 C 122.904 1.63165 2.96808 0
M  V30 1388 C 121.95 2.83987 3.18204 0
M  V30 1389 S 122.783 4.45219 2.97557 0
M  V30 1390 C 123.939 4.46649 4.3847 0
M  V30 1391 H 124.172 2.58861 1.46213 0
M  V30 1392 H 121.705 1.3988 0.653678 0
M  V30 1393 H 123.663 1.63116 3.76701 0
M  V30 1394 H 122.324 0.69967 3.06208 0
M  V30 1395 H 121.517 2.79416 4.19455 0
M  V30 1396 H 121.119 2.81629 2.46092 0
M  V30 1397 H 123.411 4.20526 5.31191 0
M  V30 1398 H 124.354 5.48295 4.48082 0
M  V30 1399 H 124.762 3.76296 4.20787 0
M  V30 1400 N 124.16 -0.719506 1.40217 0
M  V30 1401 C 125.406 -1.48152 1.38488 0
M  V30 1402 C 125.739 -1.94195 -0.0141867 0
M  V30 1403 O 125.014 -1.67884 -0.982096 0
M  V30 1404 C 125.297 -2.71035 2.37091 0
M  V30 1405 C 125.15 -2.30912 3.86005 0
M  V30 1406 C 126.469 -3.73182 2.33288 0
M  V30 1407 H 123.588 -0.537395 0.504357 0
M  V30 1408 H 126.23 -0.821472 1.71324 0
M  V30 1409 H 124.38 -3.27352 2.0922 0
M  V30 1410 H 126.052 -1.80107 4.24687 0
M  V30 1411 H 124.295 -1.62958 4.02029 0
M  V30 1412 H 124.966 -3.18978 4.50508 0
M  V30 1413 H 127.442 -3.26485 2.57966 0
M  V30 1414 H 126.318 -4.56806 3.04334 0
M  V30 1415 H 126.579 -4.21202 1.34317 0
M  V30 1416 N 125.638 -1.25649 -0.95132 0
M  V30 1417 C 126.884 -1.10757 -1.69884 0
M  V30 1418 C 127.217 0.350061 -1.91019 0
M  V30 1419 O 126.492 1.25783 -1.48354 0
M  V30 1420 C 126.775 -1.86606 -3.07978 0
M  V30 1421 C 126.628 -3.40217 -2.94232 0
M  V30 1422 C 127.947 -1.65182 -4.07925 0
M  V30 1423 H 125.066 -0.40374 -0.616574 0
M  V30 1424 H 127.708 -1.54521 -1.10558 0
M  V30 1425 H 125.858 -1.49409 -3.58621 0
M  V30 1426 H 127.53 -3.87108 -2.50889 0
M  V30 1427 H 125.773 -3.67759 -2.30078 0
M  V30 1428 H 126.444 -3.88505 -3.92133 0
M  V30 1429 H 128.92 -1.9757 -3.66204 0
M  V30 1430 H 127.796 -2.20683 -5.02583 0
M  V30 1431 H 128.057 -0.593933 -4.38092 0
M  V30 1432 N 127.117 1.15442 -1.07289 0
M  V30 1433 C 128.363 1.86489 -0.796846 0
M  V30 1434 C 128.696 1.82078 0.675371 0
M  V30 1435 O 127.971 1.24346 1.4956 0
M  V30 1436 C 128.254 3.35626 -1.30489 0
M  V30 1437 C 128.107 3.48673 -2.84161 0
M  V30 1438 C 129.426 4.30357 -0.920907 0
M  V30 1439 H 126.545 0.677144 -0.290939 0
M  V30 1440 H 129.187 1.35633 -1.33056 0
M  V30 1441 H 127.337 3.79068 -0.850883 0
M  V30 1442 H 129.009 3.14099 -3.37846 0
M  V30 1443 H 127.252 2.90253 -3.22391 0
M  V30 1444 H 127.923 4.53453 -3.14777 0
M  V30 1445 H 130.399 3.94871 -1.3121 0
M  V30 1446 H 129.275 5.33193 -1.30372 0
M  V30 1447 H 129.536 4.4176 0.173226 0
M  V30 1448 N 128.595 0.856903 1.32268 0
M  V30 1449 C 129.843 0.460474 1.96784 0
M  V30 1450 C 130.164 -0.987701 1.68135 0
M  V30 1451 O 129.434 -1.69058 0.989765 0
M  V30 1452 H 128.014 0.167289 0.728027 0
M  V30 1453 H 130.676 1.09383 1.61312 0
M  V30 1454 H 129.772 0.60739 3.06133 0
M  V30 1455 N 130.073 -1.45103 0.615059 0
M  V30 1456 C 131.322 -2.01396 0.110718 0
M  V30 1457 C 131.635 -1.48834 -1.26916 0
M  V30 1458 O 132.841 -1.97152 -1.86664 0
M  V30 1459 C 131.297 -3.59599 0.14723 0
M  V30 1460 C 130.905 -4.21158 1.52743 0
M  V30 1461 C 132.649 -4.23428 -0.30148 0
M  V30 1462 C 130.556 -5.71535 1.51992 0
M  V30 1463 H 129.486 -0.753061 0.0376241 0
M  V30 1464 H 132.137 -1.66494 0.77149 0
M  V30 1465 H 130.519 -3.91724 -0.580339 0
M  V30 1466 H 131.693 -4.00594 2.2773 0
M  V30 1467 H 130.008 -3.69552 1.91886 0
M  V30 1468 H 132.605 -5.33703 -0.326392 0
M  V30 1469 H 132.948 -3.94629 -1.32565 0
M  V30 1470 H 133.481 -3.96047 0.373065 0
M  V30 1471 H 130.22 -6.05044 2.52193 0
M  V30 1472 H 129.74 -5.94268 0.81274 0
M  V30 1473 H 131.419 -6.34873 1.24681 0
M  V30 1474 N 131.551 -0.354651 -1.53558 0
M  V30 1475 C 132.797 0.238797 -2.01389 0
M  V30 1476 C 133.13 1.49309 -1.2418 0
M  V30 1477 O 132.405 1.91638 -0.332457 0
M  V30 1478 C 132.688 0.541771 -3.56001 0
M  V30 1479 C 132.541 -0.725388 -4.43912 0
M  V30 1480 C 133.86 1.34685 -4.18984 0
M  V30 1481 H 130.979 0.0853177 -0.732045 0
M  V30 1482 H 133.621 -0.477384 -1.83905 0
M  V30 1483 H 131.771 1.15189 -3.71031 0
M  V30 1484 H 133.443 -1.36313 -4.407 0
M  V30 1485 H 131.686 -1.34801 -4.12324 0
M  V30 1486 H 132.357 -0.468505 -5.50008 0
M  V30 1487 H 134.833 0.830837 -4.07721 0
M  V30 1488 H 133.709 1.52759 -5.27215 0
M  V30 1489 H 133.97 2.35221 -3.74331 0
M  V30 1490 N 133.029 1.57378 -0.0835403 0
M  V30 1491 C 134.277 1.93547 0.581718 0
M  V30 1492 C 134.598 0.96524 1.69435 0
M  V30 1493 O 133.868 0.0153369 1.95894 0
M  V30 1494 H 132.448 0.714521 0.217874 0
M  V30 1495 H 135.11 1.94366 -0.144158 0
M  V30 1496 H 134.206 2.95665 0.999423 0
M  V30 1497 N 134.507 -0.190092 1.56449 0
M  V30 1498 C 135.737 -0.92443 1.84764 0
M  V30 1499 C 136.145 -1.77146 0.664529 0
M  V30 1500 O 135.488 -1.79812 -0.375957 0
M  V30 1501 C 135.55 -1.86651 3.07248 0
M  V30 1502 C 135.214 -1.20094 4.40938 0
M  V30 1503 C 136.211 -0.575445 5.16706 0
M  V30 1504 C 133.896 -1.2033 4.87674 0
M  V30 1505 C 135.89 0.0388111 6.37388 0
M  V30 1506 C 133.577 -0.585214 6.08291 0
M  V30 1507 C 134.575 0.0347578 6.82991 0
M  V30 1508 O 134.263 0.643147 8.01323 0
M  V30 1509 H 133.995 -0.274974 0.617548 0
M  V30 1510 H 136.549 -0.200788 2.04416 0
M  V30 1511 H 134.779 -2.62998 2.83494 0
M  V30 1512 H 136.468 -2.46907 3.22167 0
M  V30 1513 H 137.234 -0.565728 4.81689 0
M  V30 1514 H 133.113 -1.67526 4.29484 0
M  V30 1515 H 136.657 0.523329 6.95634 0
M  V30 1516 H 132.554 -0.592451 6.42775 0
M  V30 1517 H 133.322 0.540545 8.16713 0
M  V30 1518 N 135.985 -1.50799 -0.457987 0
M  V30 1519 C 137.401 -1.38515 -0.792819 0
M  V30 1520 C 137.601 -0.451409 -1.96379 0
M  V30 1521 O 136.657 0.10112 -2.52297 0
M  V30 1522 C 137.97 -2.80149 -1.09258 0
M  V30 1523 C 139.518 -2.89156 -1.19825 0
M  V30 1524 C 139.993 -4.31651 -1.53106 0
M  V30 1525 N 141.484 -4.34662 -1.60072 0
M  V30 1526 C 142.219 -5.41928 -1.87354 0
M  V30 1527 N 141.715 -6.59384 -2.12568 0
M  V30 1528 N 143.508 -5.29385 -1.88965 0
M  V30 1529 H 135.659 -2.10073 0.313511 0
M  V30 1530 H 137.922 -0.944803 0.0777862 0
M  V30 1531 H 137.628 -3.50374 -0.305084 0
M  V30 1532 H 137.502 -3.18204 -2.02549 0
M  V30 1533 H 139.889 -2.19141 -1.97639 0
M  V30 1534 H 139.97 -2.54626 -0.244821 0
M  V30 1535 H 139.614 -5.02208 -0.758266 0
M  V30 1536 H 139.544 -4.63678 -2.49621 0
M  V30 1537 H 142.035 -3.49973 -1.42573 0
M  V30 1538 H 142.348 -7.36934 -2.32696 0
M  V30 1539 H 140.693 -6.62535 -2.09933 0
M  V30 1540 H 143.884 -4.36616 -1.68772 0
M  V30 1541 H 144.057 -6.13066 -2.09891 0
M  V30 1542 N 137.463 0.71206 -1.40597 0
M  V30 1543 C 138.373 1.8562 -1.43466 0
M  V30 1544 C 139.389 1.70902 -0.326902 0
M  V30 1545 O 140.565 1.93105 -0.572043 0
M  V30 1546 C 137.63 3.21451 -1.29884 0
M  V30 1547 C 136.691 3.48398 -2.50833 0
M  V30 1548 C 135.924 4.77749 -2.3789 0
M  V30 1549 O 136.147 5.53089 -1.39459 0
M  V30 1550 O 135.081 5.05111 -3.27333 0
M  V30 1551 H 138.907 1.86155 -2.39958 0
M  V30 1552 H 136.492 0.86295 -1.21957 0
M  V30 1553 H 138.374 4.02579 -1.24531 0
M  V30 1554 H 137.049 3.21636 -0.364997 0
M  V30 1555 H 135.956 2.67265 -2.61763 0
M  V30 1556 H 137.289 3.53014 -3.4299 0
M  V30 1557 N 138.941 1.26152 0.944643 0
M  V30 1558 C 140.169 1.14259 1.72489 0
M  V30 1559 C 140.584 -0.302555 1.8636 0
M  V30 1560 O 139.941 -1.20741 1.36849 0
M  V30 1561 C 139.992 1.80266 3.13347 0
M  V30 1562 O 139.713 3.19133 3.00143 0
M  V30 1563 C 141.214 1.74283 4.07603 0
M  V30 1564 H 138.434 0.398051 0.540181 0
M  V30 1565 H 140.978 1.66706 1.18446 0
M  V30 1566 H 139.133 1.31766 3.64303 0
M  V30 1567 H 139.547 3.51744 3.89071 0
M  V30 1568 H 141.021 2.25111 5.04013 0
M  V30 1569 H 141.498 0.708631 4.33446 0
M  V30 1570 H 142.104 2.22319 3.62567 0
M  V30 1571 N 140.419 -1.14872 1.07899 0
M  V30 1572 C 141.83 -1.67367 0.827363 0
M  V30 1573 C 142.181 -1.85236 -0.646693 0
M  V30 1574 O 141.306 -1.55974 -1.50004 0
M  V30 1575 C 141.901 -3.04016 1.49532 0
M  V30 1576 C 140.46 -3.53566 1.29106 0
M  V30 1577 C 139.607 -2.29161 1.56143 0
M  V30 1578 H 142.558 -0.990083 1.24028 0
M  V30 1579 H 142.579 -3.69219 0.919643 0
M  V30 1580 H 142.091 -2.90978 2.56814 0
M  V30 1581 H 140.192 -3.71835 0.238713 0
M  V30 1582 H 140.305 -4.34661 2.01511 0
M  V30 1583 H 138.669 -2.34978 0.982717 0
M  V30 1584 H 139.452 -2.18705 2.64619 0
M  V30 1585 N 141.898 -0.863906 -1.31812 0
M  V30 1586 C 142.845 -0.313303 -2.28664 0
M  V30 1587 C 143.815 0.584868 -1.55462 0
M  V30 1588 O 145 0.517805 -1.83639 0
M  V30 1589 C 142.14 0.48441 -3.41683 0
M  V30 1590 C 141.253 -0.440594 -4.29747 0
M  V30 1591 C 140.388 0.370652 -5.29905 0
M  V30 1592 C 139.427 -0.551164 -6.09613 0
M  V30 1593 N 138.564 0.223462 -7.01744 0
M  V30 1594 H 143.404 -1.14444 -2.75148 0
M  V30 1595 H 140.941 -0.575769 -1.35364 0
M  V30 1596 H 142.899 0.962627 -4.05943 0
M  V30 1597 H 141.529 1.28029 -2.96325 0
M  V30 1598 H 140.581 -1.03724 -3.65986 0
M  V30 1599 H 141.893 -1.14767 -4.85417 0
M  V30 1600 H 141.047 0.911638 -5.99812 0
M  V30 1601 H 139.786 1.11105 -4.74876 0
M  V30 1602 H 138.791 -1.10396 -5.38603 0
M  V30 1603 H 140.016 -1.29032 -6.66729 0
M  V30 1604 H 137.962 0.946787 -6.49132 0
M  V30 1605 H 137.879 -0.424399 -7.54808 0
M  V30 1606 H 139.147 0.745876 -7.75923 0
M  V30 1607 N 143.376 1.44774 -0.622745 0
M  V30 1608 C 144.624 2.01721 -0.123655 0
M  V30 1609 C 144.945 1.49172 1.25589 0
M  V30 1610 O 144.215 0.691974 1.83272 0
M  V30 1611 H 142.795 0.745777 -0.0427225 0
M  V30 1612 H 145.457 1.77382 -0.807559 0
M  V30 1613 H 144.553 3.11984 -0.0849534 0
M  V30 1614 N 144.854 0.36279 1.53368 0
M  V30 1615 C 145.784 -0.476976 2.28576 0
M  V30 1616 C 146.765 -1.08631 1.30894 0
M  V30 1617 O 147.95 -1.10409 1.59761 0
M  V30 1618 C 145.08 -1.61828 3.07293 0
M  V30 1619 C 144.034 -1.13633 4.1264 0
M  V30 1620 C 143.36 -2.36766 4.79423 0
M  V30 1621 C 144.66 -0.223061 5.21823 0
M  V30 1622 H 146.354 0.150474 2.99022 0
M  V30 1623 H 143.9 0.0738103 1.43811 0
M  V30 1624 H 145.853 -2.21237 3.58653 0
M  V30 1625 H 144.577 -2.27292 2.34533 0
M  V30 1626 H 143.236 -0.564945 3.62221 0
M  V30 1627 H 142.884 -3.0068 4.03238 0
M  V30 1628 H 142.584 -2.05192 5.50609 0
M  V30 1629 H 144.108 -2.96865 5.33576 0
M  V30 1630 H 145.522 -0.724545 5.68703 0
M  V30 1631 H 143.919 0.001678 6.001 0
M  V30 1632 H 144.989 0.735553 4.79289 0
M  V30 1633 N 146.332 -1.57332 0.0918853 0
M  V30 1634 C 147.748 -1.57389 -0.264766 0
M  V30 1635 C 147.948 -1.10281 -1.68643 0
M  V30 1636 O 147.004 -0.777801 -2.40222 0
M  V30 1637 C 148.317 -3.00648 -0.0561195 0
M  V30 1638 C 149.865 -3.12754 -0.124116 0
M  V30 1639 C 150.34 -4.57965 0.0564972 0
M  V30 1640 N 151.831 -4.632 0.00155611 0
M  V30 1641 C 152.566 -5.73281 0.116598 0
M  V30 1642 N 152.062 -6.92208 0.286294 0
M  V30 1643 N 153.855 -5.6207 0.0580973 0
M  V30 1644 H 146.006 -1.86262 1.02079 0
M  V30 1645 H 148.269 -0.859579 0.399786 0
M  V30 1646 H 147.975 -3.393 0.925669 0
M  V30 1647 H 147.849 -3.68623 -0.799823 0
M  V30 1648 H 150.236 -2.73976 -1.09641 0
M  V30 1649 H 150.317 -2.47377 0.651024 0
M  V30 1650 H 149.961 -4.97436 1.02564 0
M  V30 1651 H 149.891 -5.21399 -0.738297 0
M  V30 1652 H 152.382 -3.77686 -0.127192 0
M  V30 1653 H 152.695 -7.71934 0.365676 0
M  V30 1654 H 151.04 -6.94254 0.32192 0
M  V30 1655 H 154.231 -4.68043 -0.0733204 0
M  V30 1656 H 154.404 -6.47824 0.151203 0
M  V30 1657 N 147.81 0.181792 -1.56548 0
M  V30 1658 C 149.059 0.898348 -1.8059 0
M  V30 1659 C 149.372 1.83862 -0.667379 0
M  V30 1660 O 150.578 2.59678 -0.792446 0
M  V30 1661 C 149.034 1.64791 -3.19956 0
M  V30 1662 C 148.642 0.751789 -4.41647 0
M  V30 1663 C 150.386 2.35331 -3.53298 0
M  V30 1664 C 148.293 1.50098 -5.72035 0
M  V30 1665 H 147.223 0.339194 -0.673397 0
M  V30 1666 H 149.874 0.151413 -1.82874 0
M  V30 1667 H 148.256 2.43921 -3.11959 0
M  V30 1668 H 149.43 -0.0018076 -4.608 0
M  V30 1669 H 147.745 0.156562 -4.16106 0
M  V30 1670 H 150.342 2.91958 -4.47956 0
M  V30 1671 H 150.685 3.10164 -2.77676 0
M  V30 1672 H 151.218 1.63154 -3.62803 0
M  V30 1673 H 147.957 0.795175 -6.50659 0
M  V30 1674 H 147.477 2.22817 -5.56878 0
M  V30 1675 H 149.156 2.05125 -6.13622 0
M  V30 1676 N 149.288 1.51039 0.449983 0
M  V30 1677 C 150.218 1.74379 1.55288 0
M  V30 1678 C 151.199 0.593236 1.5942 0
M  V30 1679 O 152.384 0.834625 1.7535 0
M  V30 1680 C 149.514 1.85728 2.93466 0
M  V30 1681 C 148.468 3.01078 3.04197 0
M  V30 1682 C 147.794 2.97595 4.44231 0
M  V30 1683 C 149.094 4.41254 2.7945 0
M  V30 1684 H 150.788 2.66725 1.36008 0
M  V30 1685 H 148.334 1.2835 0.652864 0
M  V30 1686 H 150.287 2.0064 3.70569 0
M  V30 1687 H 149.011 0.900207 3.13949 0
M  V30 1688 H 147.67 2.85851 2.29531 0
M  V30 1689 H 147.318 1.99691 4.61663 0
M  V30 1690 H 147.018 3.75046 4.52343 0
M  V30 1691 H 148.542 3.14583 5.23326 0
M  V30 1692 H 149.956 4.56897 3.46292 0
M  V30 1693 H 148.353 5.20315 2.98985 0
M  V30 1694 H 149.423 4.52164 1.75144 0
M  V30 1695 N 150.766 -0.704594 1.40972 0
M  V30 1696 C 151.991 -1.49858 1.43378 0
M  V30 1697 C 152.416 -1.88061 0.038184 0
M  V30 1698 O 151.774 -1.5402 -0.956425 0
M  V30 1699 C 151.822 -2.74333 2.34038 0
M  V30 1700 O 150.926 -3.7147 1.7912 0
M  V30 1701 H 150.267 -0.45139 0.486974 0
M  V30 1702 H 152.797 -0.866832 1.8533 0
M  V30 1703 H 152.807 -3.22741 2.49604 0
M  V30 1704 H 151.482 -2.45863 3.35446 0
M  V30 1705 H 150.059 -3.30363 1.72958 0
M  V30 1706 N 152.244 -1.26651 -0.937939 0
M  V30 1707 C 153.472 -1.15173 -1.7188 0
M  V30 1708 C 153.887 0.292668 -1.86518 0
M  V30 1709 O 153.244 1.20014 -1.37488 0
M  V30 1710 C 153.295 -1.81925 -3.12387 0
M  V30 1711 O 153.016 -3.2072 -2.98446 0
M  V30 1712 C 154.517 -1.76442 -4.06673 0
M  V30 1713 H 151.737 -0.400911 -0.538063 0
M  V30 1714 H 154.281 -1.67332 -1.1756 0
M  V30 1715 H 152.436 -1.33696 -3.63599 0
M  V30 1716 H 152.85 -3.53802 -3.872 0
M  V30 1717 H 154.324 -2.27781 -5.02812 0
M  V30 1718 H 154.801 -0.731608 -4.33064 0
M  V30 1719 H 155.407 -2.24238 -3.61382 0
M  V30 1720 N 153.722 1.14298 -1.08507 0
M  V30 1721 C 154.968 1.85633 -0.816581 0
M  V30 1722 C 155.301 1.82784 0.656021 0
M  V30 1723 O 154.576 1.25926 1.48233 0
M  V30 1724 C 154.859 3.34223 -1.34041 0
M  V30 1725 C 154.712 3.45639 -2.87843 0
M  V30 1726 C 156.031 4.29356 -0.9665 0
M  V30 1727 H 153.15 0.67402 -0.298104 0
M  V30 1728 H 155.792 1.34214 -1.34487 0
M  V30 1729 H 153.942 3.78144 -0.89104 0
M  V30 1730 H 155.614 3.10498 -3.41158 0
M  V30 1731 H 153.857 2.86817 -3.25451 0
M  V30 1732 H 154.528 4.50089 -3.19569 0
M  V30 1733 H 157.004 3.93457 -1.35391 0
M  V30 1734 H 155.88 5.3178 -1.3602 0
M  V30 1735 H 156.141 4.41919 0.126362 0
M  V30 1736 N 155.201 0.870884 1.31352 0
M  V30 1737 C 156.447 0.492314 1.97352 0
M  V30 1738 C 156.802 -0.945174 1.67583 0
M  V30 1739 O 156.095 -1.65674 0.962423 0
M  V30 1740 C 156.289 0.687157 3.50732 0
M  V30 1741 C 156.118 2.14203 3.95407 0
M  V30 1742 C 154.888 2.78382 4.21701 0
M  V30 1743 C 157.086 3.1144 4.09279 0
M  V30 1744 N 155.068 4.14611 4.52737 0
M  V30 1745 C 156.439 4.32702 4.44037 0
M  V30 1746 C 158.494 3.07418 3.91661 0
M  V30 1747 C 157.197 5.50463 4.63015 0
M  V30 1748 C 159.223 4.24438 4.11833 0
M  V30 1749 C 158.585 5.44463 4.46923 0
M  V30 1750 H 154.684 0.229206 0.747655 0
M  V30 1751 H 157.268 1.12568 1.5886 0
M  V30 1752 H 155.439 0.083384 3.8831 0
M  V30 1753 H 157.171 0.276883 4.03752 0
M  V30 1754 H 153.926 2.29326 4.14375 0
M  V30 1755 H 154.35 4.84928 4.72413 0
M  V30 1756 H 158.992 2.15732 3.6362 0
M  V30 1757 H 156.71 6.42666 4.89904 0
M  V30 1758 H 160.296 4.2278 3.99685 0
M  V30 1759 H 159.176 6.33504 4.62214 0
M  V30 1760 N 156.679 -1.44442 0.630414 0
M  V30 1761 C 157.642 -2.29107 -0.0652523 0
M  V30 1762 C 158.642 -1.41002 -0.772995 0
M  V30 1763 O 159.832 -1.62881 -0.617692 0
M  V30 1764 C 156.964 -3.22564 -1.10296 0
M  V30 1765 H 158.157 -2.92103 0.679401 0
M  V30 1766 H 155.71 -1.51343 0.390517 0
M  V30 1767 H 156.445 -2.64416 -1.87762 0
M  V30 1768 H 156.23 -3.87491 -0.59941 0
M  V30 1769 H 157.72 -3.86167 -1.5895 0
M  V30 1770 N 158.157 -0.370918 -1.53173 0
M  V30 1771 C 159.105 0.488101 -2.27421 0
M  V30 1772 C 160.099 1.07884 -1.30604 0
M  V30 1773 O 161.305 1.02143 -1.48212 0
M  V30 1774 H 157.68 0.176134 -0.731082 0
M  V30 1775 H 159.651 -0.159815 -2.97972 0
M  V30 1776 C 158.4 1.61306 -3.08019 0
M  V30 1777 H 157.723 1.1678 -3.82364 0
M  V30 1778 H 159.163 2.18872 -3.63141 0
M  V30 1779 C 157.622 2.55848 -2.19188 0
M  V30 1780 O 158.152 3.58799 -1.80626 0
M  V30 1781 N 156.358 2.2516 -1.83715 0
M  V30 1782 H 155.905 1.41476 -2.15273 0
M  V30 1783 H 155.863 2.8867 -1.24567 0
M  V30 1784 N 159.635 1.57281 -0.100228 0
M  V30 1785 C 160.585 2.10848 0.86759 0
M  V30 1786 C 161.569 1.02473 1.24049 0
M  V30 1787 O 162.761 1.28739 1.21471 0
M  V30 1788 C 159.89 2.69648 2.12474 0
M  V30 1789 C 158.976 3.85074 1.77704 0
M  V30 1790 N 159.367 4.92897 1.13518 0
M  V30 1791 C 157.665 3.94905 2.07282 0
M  V30 1792 C 158.366 5.73475 0.974735 0
M  V30 1793 N 157.342 5.22675 1.4937 0
M  V30 1794 H 161.144 2.91594 0.367471 0
M  V30 1795 H 158.658 1.62074 0.102829 0
M  V30 1796 H 160.655 3.06356 2.82757 0
M  V30 1797 H 159.315 1.90359 2.63047 0
M  V30 1798 H 160.326 5.11662 0.801381 0
M  V30 1799 H 157.003 3.26633 2.60033 0
M  V30 1800 H 158.393 6.70238 0.472364 0
M  V30 1801 N 161.113 -0.173488 1.56642 0
M  V30 1802 C 162.359 -0.891784 1.8214 0
M  V30 1803 C 162.692 -1.8199 0.677736 0
M  V30 1804 O 161.967 -1.91842 -0.320446 0
M  V30 1805 C 162.25 -1.68933 3.18015 0
M  V30 1806 C 162.103 -0.784487 4.42906 0
M  V30 1807 C 163.422 -2.65748 3.50808 0
M  V30 1808 H 160.541 -0.322761 0.662567 0
M  V30 1809 H 163.183 -0.158095 1.89341 0
M  V30 1810 H 161.333 -2.31482 3.12007 0
M  V30 1811 H 163.005 -0.172046 4.60979 0
M  V30 1812 H 161.248 -0.0924117 4.33702 0
M  V30 1813 H 161.919 -1.37799 5.34524 0
M  V30 1814 H 164.395 -2.13327 3.57255 0
M  V30 1815 H 163.271 -3.18619 4.4696 0
M  V30 1816 H 163.532 -3.45842 2.75401 0
M  V30 1817 N 162.591 -1.51276 -0.441967 0
M  V30 1818 C 163.816 -1.67799 -1.21895 0
M  V30 1819 C 164.241 -0.372864 -1.84367 0
M  V30 1820 O 163.599 0.666501 -1.68604 0
M  V30 1821 C 163.647 -2.79199 -2.28211 0
M  V30 1822 O 162.751 -2.42479 -3.33583 0
M  V30 1823 H 162.092 -0.559649 -0.357336 0
M  V30 1824 H 164.622 -1.97815 -0.522522 0
M  V30 1825 H 164.632 -3.03146 -2.73069 0
M  V30 1826 H 163.307 -3.73906 -1.82118 0
M  V30 1827 H 161.884 -2.29087 -2.94234 0
M  V30 1828 N 164.069 0.697108 -1.41344 0
M  V30 1829 C 165.346 1.45154 -1.31109 0
M  V30 1830 C 165.726 2.11009 0.0620449 0
M  V30 1831 O 165.074 2.01571 1.07618 0
M  V30 1832 C 165.284 2.47223 -2.46337 0
M  V30 1833 C 166.632 3.1252 -2.87431 0
M  V30 1834 O 167.656 2.57547 -2.46065 0
M  V30 1835 O 166.515 4.12083 -3.58957 0
M  V30 1836 H 163.609 0.646365 -0.515889 0
M  V30 1837 H 166.155 0.727716 -1.53305 0
M  V30 1838 H 164.927 1.97204 -3.37974 0
M  V30 1839 H 164.55 3.27116 -2.2601 0
M  V30 1840 N 165.547 1.27147 0.931209 0
M  V30 1841 C 166.457 1.11372 2.06478 0
M  V30 1842 C 167.473 0.044645 1.73943 0
M  V30 1843 O 168.649 0.250417 1.99837 0
M  V30 1844 C 165.714 0.758838 3.38294 0
M  V30 1845 C 164.775 1.90841 3.84549 0
M  V30 1846 C 164.008 1.57036 5.10074 0
M  V30 1847 O 164.231 0.476645 5.68405 0
M  V30 1848 O 163.165 2.40839 5.51616 0
M  V30 1849 H 166.991 2.06493 2.22698 0
M  V30 1850 H 164.576 1.06301 1.04978 0
M  V30 1851 H 166.458 0.574098 4.17471 0
M  V30 1852 H 165.133 -0.162879 3.2329 0
M  V30 1853 H 164.04 2.14819 3.06274 0
M  V30 1854 H 165.373 2.81021 4.04089 0
M  V30 1855 N 167.025 -1.13721 1.09112 0
M  V30 1856 C 168.272 -1.84924 0.825192 0
M  V30 1857 C 168.6 -1.83347 -0.649151 0
M  V30 1858 O 167.855 -1.26449 -1.49362 0
M  V30 1859 C 168.154 -3.32861 1.30146 0
M  V30 1860 C 167.82 -3.54621 2.78486 0
M  V30 1861 C 166.482 -3.60268 3.18999 0
M  V30 1862 C 168.834 -3.62855 3.74146 0
M  V30 1863 C 166.162 -3.71679 4.53951 0
M  V30 1864 C 168.514 -3.75793 5.08883 0
M  V30 1865 C 167.178 -3.79692 5.4899 0
M  V30 1866 H 166.448 -0.676684 0.301959 0
M  V30 1867 H 169.095 -1.3428 1.36533 0
M  V30 1868 H 167.4 -3.85835 0.681064 0
M  V30 1869 H 169.097 -3.86395 1.07236 0
M  V30 1870 H 165.687 -3.50879 2.46134 0
M  V30 1871 H 169.871 -3.57775 3.43963 0
M  V30 1872 H 165.127 -3.72963 4.84467 0
M  V30 1873 H 169.301 -3.81107 5.82864 0
M  V30 1874 H 166.928 -3.88287 6.53558 0
M  V30 1875 N 168.503 -0.877838 -1.30888 0
M  V30 1876 C 169.919 -0.570844 -1.49042 0
M  V30 1877 C 170.119 0.893159 -1.80624 0
M  V30 1878 O 169.175 1.67485 -1.88958 0
M  V30 1879 C 170.488 -1.47784 -2.61878 0
M  V30 1880 C 172.036 -1.48071 -2.75761 0
M  V30 1881 C 172.511 -2.37347 -3.91702 0
M  V30 1882 N 174.002 -2.35271 -3.99001 0
M  V30 1883 C 174.737 -3.01063 -4.88004 0
M  V30 1884 N 174.233 -3.76055 -5.81854 0
M  V30 1885 N 176.026 -2.90332 -4.81315 0
M  V30 1886 H 168.177 -1.82502 -1.0866 0
M  V30 1887 H 170.44 -0.780797 -0.537644 0
M  V30 1888 H 170.146 -2.51993 -2.45341 0
M  V30 1889 H 170.02 -1.18215 -3.58197 0
M  V30 1890 H 172.407 -0.446166 -2.91708 0
M  V30 1891 H 172.488 -1.81668 -1.80085 0
M  V30 1892 H 172.132 -3.40883 -3.76512 0
M  V30 1893 H 172.062 -2.01071 -4.86701 0
M  V30 1894 H 174.553 -1.80768 -3.3186 0
M  V30 1895 H 174.866 -4.23366 -6.46514 0
M  V30 1896 H 173.211 -3.80163 -5.81808 0
M  V30 1897 H 176.402 -2.31278 -4.06974 0
M  V30 1898 H 176.575 -3.41885 -5.50471 0
M  V30 1899 N 169.982 1.44106 -0.638065 0
M  V30 1900 C 171.398 1.56672 -0.304286 0
M  V30 1901 C 171.598 1.6244 1.19228 0
M  V30 1902 O 170.654 1.57121 1.9766 0
M  V30 1903 C 171.967 2.83503 -1.00231 0
M  V30 1904 C 173.515 2.97226 -0.981116 0
M  V30 1905 C 173.99 4.26868 -1.65974 0
M  V30 1906 N 175.481 4.33698 -1.62666 0
M  V30 1907 C 176.216 5.32745 -2.12063 0
M  V30 1908 N 175.712 6.38157 -2.6968 0
M  V30 1909 N 177.505 5.24299 -2.02651 0
M  V30 1910 H 169.656 1.38605 -1.60942 0
M  V30 1911 H 171.919 0.664661 -0.675965 0
M  V30 1912 H 171.625 2.85251 -2.0573 0
M  V30 1913 H 171.499 3.73251 -0.54439 0
M  V30 1914 H 173.886 2.95027 0.0654188 0
M  V30 1915 H 173.967 2.08808 -1.47759 0
M  V30 1916 H 173.611 4.29826 -2.70576 0
M  V30 1917 H 173.541 5.14156 -1.13804 0
M  V30 1918 H 176.032 3.58138 -1.20606 0
M  V30 1919 H 176.345 7.10029 -3.05087 0
M  V30 1920 H 174.69 6.38823 -2.73734 0
M  V30 1921 H 177.881 4.4086 -1.57353 0
M  V30 1922 H 178.054 6.01334 -2.41457 0
M  V30 1923 N 171.46 0.379036 1.52974 0
M  V30 1924 C 172.876 0.0285448 1.59574 0
M  V30 1925 C 173.076 -1.45542 1.39355 0
M  V30 1926 O 172.132 -2.2187 1.20541 0
M  V30 1927 C 173.445 0.496535 2.96572 0
M  V30 1928 C 174.993 0.451909 3.0972 0
M  V30 1929 C 175.468 0.895924 4.49152 0
M  V30 1930 N 176.959 0.851522 4.55306 0
M  V30 1931 C 177.694 1.16661 5.61407 0
M  V30 1932 N 177.19 1.55166 6.752 0
M  V30 1933 N 178.983 1.08853 5.51459 0
M  V30 1934 H 171.134 1.34525 1.64367 0
M  V30 1935 H 173.397 0.550733 0.771619 0
M  V30 1936 H 173.103 1.53258 3.16552 0
M  V30 1937 H 172.977 -0.109802 3.7704 0
M  V30 1938 H 175.364 -0.575029 2.89443 0
M  V30 1939 H 175.445 1.09392 2.3123 0
M  V30 1940 H 175.089 1.92104 4.70168 0
M  V30 1941 H 175.019 0.23103 5.26093 0
M  V30 1942 H 177.51 0.568038 3.73606 0
M  V30 1943 H 177.823 1.776 7.52116 0
M  V30 1944 H 176.168 1.59044 6.76557 0
M  V30 1945 H 179.359 0.786803 4.6144 0
M  V30 1946 H 179.532 1.33742 6.34048 0
M  V30 1947 N 172.938 -1.57226 0.108567 0
M  V30 1948 C 174.168 -1.9889 -0.559142 0
M  V30 1949 C 174.576 -0.986889 -1.61422 0
M  V30 1950 O 173.919 0.0298705 -1.83676 0
M  V30 1951 C 173.981 -3.36952 -1.25315 0
M  V30 1952 C 173.645 -4.55679 -0.347248 0
M  V30 1953 C 174.642 -5.18281 0.409996 0
M  V30 1954 C 172.327 -5.0162 -0.261367 0
M  V30 1955 C 174.321 -6.25203 1.24096 0
M  V30 1956 C 172.008 -6.08405 0.573238 0
M  V30 1957 C 173.006 -6.70063 1.32304 0
M  V30 1958 O 172.694 -7.74788 2.14381 0
M  V30 1959 H 172.426 -0.658343 -0.153492 0
M  V30 1960 H 174.98 -2.04532 0.188584 0
M  V30 1961 H 173.21 -3.28032 -2.04773 0
M  V30 1962 H 174.899 -3.62974 -1.81673 0
M  V30 1963 H 175.665 -4.8371 0.353457 0
M  V30 1964 H 171.544 -4.53381 -0.834656 0
M  V30 1965 H 175.088 -6.73259 1.82669 0
M  V30 1966 H 170.985 -6.42406 0.631208 0
M  V30 1967 H 171.753 -7.91837 2.07209 0
M  V30 1968 N 174.416 0.165178 -1.56732 0
M  V30 1969 C 175.646 0.894919 -1.86212 0
M  V30 1970 C 176.054 1.76066 -0.692627 0
M  V30 1971 O 175.397 1.80387 0.347303 0
M  V30 1972 C 175.459 1.8174 -3.10179 0
M  V30 1973 C 175.123 1.13064 -4.42793 0
M  V30 1974 C 176.12 0.493169 -5.17556 0
M  V30 1975 C 173.805 1.12556 -4.89527 0
M  V30 1976 C 175.799 -0.140209 -6.37246 0
M  V30 1977 C 173.486 0.488366 -6.09145 0
M  V30 1978 C 174.484 -0.143411 -6.82849 0
M  V30 1979 O 174.172 -0.77055 -8.00199 0
M  V30 1980 H 173.904 0.265114 -0.621844 0
M  V30 1981 H 176.458 0.168242 -2.0471 0
M  V30 1982 H 174.688 2.58455 -2.87642 0
M  V30 1983 H 176.377 2.4175 -3.26055 0
M  V30 1984 H 177.143 0.489023 -4.82528 0
M  V30 1985 H 173.022 1.60672 -4.32094 0
M  V30 1986 H 176.566 -0.633932 -6.94714 0
M  V30 1987 H 172.463 0.490116 -6.43637 0
M  V30 1988 H 173.231 -0.670408 -8.1575 0
M  V30 1989 N 175.894 1.51508 0.433938 0
M  V30 1990 C 176.841 1.73068 1.52696 0
M  V30 1991 C 177.811 0.572441 1.55924 0
M  V30 1992 O 178.996 0.807253 1.72882 0
M  V30 1993 C 176.136 1.86474 2.90381 0
M  V30 1994 C 175.249 3.14037 2.96656 0
M  V30 1995 C 174.384 3.18019 4.25485 0
M  V30 1996 C 173.423 4.39882 4.2564 0
M  V30 1997 N 172.56 4.41394 5.45999 0
M  V30 1998 H 177.4 2.66366 1.33615 0
M  V30 1999 H 174.937 1.32008 0.649018 0
M  V30 2000 H 176.895 1.92229 3.70275 0
M  V30 2001 H 175.525 0.965809 3.08013 0
M  V30 2002 H 174.577 3.17575 2.09404 0
M  V30 2003 H 175.889 4.0394 2.92633 0
M  V30 2004 H 175.043 3.22708 5.13755 0
M  V30 2005 H 173.782 2.2601 4.3217 0
M  V30 2006 H 172.787 4.35366 3.35763 0
M  V30 2007 H 174.012 5.33159 4.20617 0
M  V30 2008 H 171.958 3.52258 5.53399 0
M  V30 2009 H 171.875 5.25111 5.4387 0
M  V30 2010 H 173.143 4.50281 6.36292 0
M  V30 2011 N 177.372 -0.689602 1.41712 0
M  V30 2012 C 178.32 -1.82475 1.44242 0
M  V30 2013 C 179.314 -1.66354 0.319774 0
M  V30 2014 O 180.52 -1.73143 0.492089 0
M  V30 2015 H 176.895 -0.601416 0.451445 0
M  V30 2016 H 178.866 -1.77458 2.39899 0
M  V30 2017 C 177.615 -3.20535 1.3473 0
M  V30 2018 H 176.938 -3.33559 2.20405 0
M  V30 2019 H 178.378 -4.00023 1.40562 0
M  V30 2020 C 176.837 -3.36846 0.0603281 0
M  V30 2021 O 177.367 -3.91656 -0.892663 0
M  V30 2022 N 175.573 -2.90595 -0.0177039 0
M  V30 2023 H 175.12 -2.46178 0.758572 0
M  V30 2024 H 175.078 -3.01886 -0.878201 0
M  V30 2025 N 178.85 -1.27639 -0.924453 0
M  V30 2026 C 180.096 -1.15345 -1.67532 0
M  V30 2027 C 180.451 0.297096 -1.90092 0
M  V30 2028 O 179.744 1.21374 -1.48253 0
M  V30 2029 C 179.938 -1.87407 -3.04325 0
M  V30 2030 C 179.767 -3.3932 -2.95114 0
M  V30 2031 C 178.537 -4.08644 -2.97218 0
M  V30 2032 C 180.735 -4.35242 -2.73987 0
M  V30 2033 N 178.717 -5.47102 -2.78482 0
M  V30 2034 C 180.088 -5.6099 -2.63988 0
M  V30 2035 C 182.143 -4.25294 -2.589 0
M  V30 2036 C 180.846 -6.77924 -2.40442 0
M  V30 2037 C 182.872 -5.41952 -2.36731 0
M  V30 2038 C 182.234 -6.66658 -2.27478 0
M  V30 2039 H 178.333 -0.47696 -0.619704 0
M  V30 2040 H 180.917 -1.6115 -1.09265 0
M  V30 2041 H 179.088 -1.44053 -3.60699 0
M  V30 2042 H 180.82 -1.6759 -3.68369 0
M  V30 2043 H 177.575 -3.60136 -3.07569 0
M  V30 2044 H 177.999 -6.19852 -2.72236 0
M  V30 2045 H 182.641 -3.29598 -2.64811 0
M  V30 2046 H 180.359 -7.73699 -2.3327 0
M  V30 2047 H 183.945 -5.36137 -2.25938 0
M  V30 2048 H 182.825 -7.55405 -2.10555 0
M  V30 2049 N 180.328 1.1314 -1.09713 0
M  V30 2050 C 181.558 1.88048 -0.855656 0
M  V30 2051 C 181.966 1.79537 0.596919 0
M  V30 2052 O 181.309 1.16196 1.42282 0
M  V30 2053 C 181.371 3.38314 -1.21589 0
M  V30 2054 C 181.035 3.70605 -2.67397 0
M  V30 2055 C 182.032 3.69596 -3.65643 0
M  V30 2056 C 179.717 4.0017 -3.03593 0
M  V30 2057 C 181.711 3.977 -4.9811 0
M  V30 2058 C 179.398 4.27935 -4.36251 0
M  V30 2059 C 180.396 4.26685 -5.33318 0
M  V30 2060 O 180.084 4.53767 -6.63589 0
M  V30 2061 H 179.816 0.60208 -0.307368 0
M  V30 2062 H 182.37 1.44128 -1.46343 0
M  V30 2063 H 180.6 3.82752 -0.551177 0
M  V30 2064 H 182.289 3.94552 -0.953083 0
M  V30 2065 H 183.055 3.46826 -3.39023 0
M  V30 2066 H 178.934 4.00289 -2.2867 0
M  V30 2067 H 182.478 3.9664 -5.73866 0
M  V30 2068 H 178.375 4.50178 -4.62613 0
M  V30 2069 H 179.143 4.71422 -6.69107 0
M  V30 2070 N 181.806 0.884767 1.30421 0
M  V30 2071 C 182.753 0.349642 2.28136 0
M  V30 2072 C 183.723 -0.560061 1.56373 0
M  V30 2073 O 184.908 -0.488524 1.8444 0
M  V30 2074 C 182.048 -0.42999 3.42411 0
M  V30 2075 C 181.161 0.508907 4.28992 0
M  V30 2076 C 180.296 -0.286301 5.30428 0
M  V30 2077 C 179.335 0.648079 6.08659 0
M  V30 2078 N 178.472 -0.111792 7.02011 0
M  V30 2079 H 183.312 1.18807 2.73293 0
M  V30 2080 H 180.849 0.597231 1.3443 0
M  V30 2081 H 182.807 -0.897923 4.07423 0
M  V30 2082 H 181.437 -1.23299 2.98324 0
M  V30 2083 H 180.489 1.09533 3.64289 0
M  V30 2084 H 181.801 1.22475 4.8353 0
M  V30 2085 H 180.955 -0.816098 6.01186 0
M  V30 2086 H 179.694 -1.03536 4.76583 0
M  V30 2087 H 178.699 1.18951 5.36778 0
M  V30 2088 H 179.924 1.39623 6.64592 0
M  V30 2089 H 177.87 -0.843395 6.50556 0
M  V30 2090 H 177.787 0.544429 7.54037 0
M  V30 2091 H 179.055 -0.622339 7.77012 0
M  V30 2092 N 183.284 -1.43765 0.645699 0
M  V30 2093 C 184.509 -2.06767 0.161883 0
M  V30 2094 C 184.934 -1.48034 -1.16049 0
M  V30 2095 O 184.292 -0.587369 -1.71522 0
M  V30 2096 C 184.34 -3.60519 0.0762003 0
M  V30 2097 O 183.444 -4.00982 -0.963721 0
M  V30 2098 H 182.785 -0.657675 0.091429 0
M  V30 2099 H 185.315 -1.84397 0.886499 0
M  V30 2100 H 185.325 -4.07853 -0.109604 0
M  V30 2101 H 184 -4.02646 1.04157 0
M  V30 2102 H 182.577 -3.65253 -0.751312 0
M  V30 2103 N 184.763 -0.387143 -1.52771 0
M  V30 2104 C 185.673 0.456442 -2.30117 0
M  V30 2105 C 186.689 1.07342 -1.36944 0
M  V30 2106 O 187.865 1.07971 -1.70013 0
M  V30 2107 C 184.93 1.56957 -3.09136 0
M  V30 2108 C 183.991 0.977916 -4.18014 0
M  V30 2109 C 183.224 2.038 -4.93256 0
M  V30 2110 O 183.447 3.25271 -4.68567 0
M  V30 2111 O 182.381 1.6565 -5.78657 0
M  V30 2112 H 186.207 -0.17359 -3.03203 0
M  V30 2113 H 183.792 -0.150919 -1.48636 0
M  V30 2114 H 185.674 2.21628 -3.58412 0
M  V30 2115 H 184.349 2.18461 -2.38865 0
M  V30 2116 H 183.256 0.294525 -3.72939 0
M  V30 2117 H 184.589 0.407128 -4.90513 0
M  V30 2118 N 186.241 1.57166 -0.116904 0
M  V30 2119 C 187.188 2.15202 0.83408 0
M  V30 2120 C 188.158 1.07644 1.26499 0
M  V30 2121 O 189.343 1.35541 1.34288 0
M  V30 2122 C 186.483 2.75405 2.07957 0
M  V30 2123 C 185.596 3.97264 1.69721 0
M  V30 2124 C 184.731 4.45561 2.89221 0
M  V30 2125 C 183.77 5.59956 2.47215 0
M  V30 2126 N 182.907 6.03006 3.59622 0
M  V30 2127 H 187.747 2.96141 0.332335 0
M  V30 2128 H 185.284 1.46309 0.152349 0
M  V30 2129 H 187.242 3.08439 2.80929 0
M  V30 2130 H 185.872 1.97159 2.55594 0
M  V30 2131 H 184.924 3.70404 0.866316 0
M  V30 2132 H 186.236 4.80226 1.34849 0
M  V30 2133 H 185.39 4.80493 3.7042 0
M  V30 2134 H 184.129 3.61544 3.27318 0
M  V30 2135 H 183.134 5.2463 1.64448 0
M  V30 2136 H 184.359 6.45738 2.10238 0
M  V30 2137 H 182.305 5.21931 3.97396 0
M  V30 2138 H 182.222 6.80819 3.28667 0
M  V30 2139 H 183.49 6.42576 4.41267 0
M  V30 2140 N 187.719 -0.156864 1.56817 0
M  V30 2141 C 188.666 -1.19394 1.97519 0
M  V30 2142 C 189.636 -1.4322 0.841265 0
M  V30 2143 O 190.821 -1.55719 1.10255 0
M  V30 2144 C 187.961 -2.52483 2.35258 0
M  V30 2145 C 187.074 -2.35914 3.61896 0
M  V30 2146 C 186.209 -3.61969 3.88782 0
M  V30 2147 C 185.248 -3.40395 5.08722 0
M  V30 2148 N 184.385 -4.58556 5.31668 0
M  V30 2149 H 189.225 -0.839845 2.85921 0
M  V30 2150 H 186.762 -0.403264 1.41464 0
M  V30 2151 H 188.72 -3.30071 2.55165 0
M  V30 2152 H 187.35 -2.85859 1.49949 0
M  V30 2153 H 186.402 -1.49429 3.49821 0
M  V30 2154 H 187.714 -2.15926 4.49641 0
M  V30 2155 H 186.868 -4.47989 4.09135 0
M  V30 2156 H 185.607 -3.84951 2.9944 0
M  V30 2157 H 184.612 -2.52763 4.88253 0
M  V30 2158 H 185.837 -3.18822 5.99608 0
M  V30 2159 H 183.783 -4.81729 4.45279 0
M  V30 2160 H 183.7 -4.41535 6.13664 0
M  V30 2161 H 184.968 -5.45817 5.5651 0
M  V30 2162 N 189.197 -1.51736 -0.425897 0
M  V30 2163 C 190.16 -1.73271 -1.50032 0
M  V30 2164 C 191.16 -0.602639 -1.4908 0
M  V30 2165 O 192.35 -0.87033 -1.509 0
M  V30 2166 C 189.482 -1.79969 -2.89523 0
M  V30 2167 H 190.675 -2.69172 -1.32237 0
M  V30 2168 H 188.228 -1.41899 -0.65532 0
M  V30 2169 H 188.963 -0.859241 -3.1271 0
M  V30 2170 H 188.748 -2.62109 -2.91619 0
M  V30 2171 H 190.238 -1.9843 -3.67444 0
M  V30 2172 N 190.675 0.682077 -1.42076 0
M  V30 2173 C 191.922 1.44215 -1.42156 0
M  V30 2174 C 192.25 1.94468 -0.0354186 0
M  V30 2175 O 191.505 1.70816 0.955002 0
M  V30 2176 C 191.804 2.66036 -2.38662 0
M  V30 2177 C 191.47 2.34366 -3.85206 0
M  V30 2178 C 190.132 2.25439 -4.25124 0
M  V30 2179 C 192.484 2.08513 -4.77673 0
M  V30 2180 C 189.812 1.88775 -5.55501 0
M  V30 2181 C 192.164 1.73354 -6.08384 0
M  V30 2182 C 190.828 1.62933 -6.47309 0
M  V30 2183 H 190.098 0.527718 -0.520187 0
M  V30 2184 H 192.745 0.778387 -1.74967 0
M  V30 2185 H 191.05 3.3741 -1.99152 0
M  V30 2186 H 192.747 3.24205 -2.35991 0
M  V30 2187 H 189.337 2.42213 -3.53597 0
M  V30 2188 H 193.521 2.14346 -4.47626 0
M  V30 2189 H 188.777 1.7927 -5.84527 0
M  V30 2190 H 192.951 1.52373 -6.79526 0
M  V30 2191 H 190.578 1.34292 -7.48244 0
M  V30 2192 N 192.153 1.28127 0.917671 0
M  V30 2193 C 193.381 1.17892 1.70026 0
M  V30 2194 C 193.796 -0.262958 1.8696 0
M  V30 2195 O 193.153 -1.17811 1.3938 0
M  V30 2196 C 193.204 1.86872 3.09453 0
M  V30 2197 O 192.925 3.25428 2.93306 0
M  V30 2198 C 194.426 1.8289 4.03815 0
M  V30 2199 H 191.646 0.40942 0.531617 0
M  V30 2200 H 194.19 1.69181 1.14883 0
M  V30 2201 H 192.345 1.39464 3.61426 0
M  V30 2202 H 192.759 3.59918 3.81523 0
M  V30 2203 H 194.233 2.35751 4.99125 0
M  V30 2204 H 194.71 0.800412 4.31845 0
M  V30 2205 H 195.316 2.29959 3.57769 0
M  V30 2206 N 193.631 -1.12557 1.10312 0
M  V30 2207 C 194.578 -2.18247 0.750781 0
M  V30 2208 C 195.548 -1.63853 -0.272293 0
M  V30 2209 O 196.733 -1.90195 -0.151862 0
M  V30 2210 C 193.873 -3.44591 0.187379 0
M  V30 2211 C 192.986 -4.13046 1.2656 0
M  V30 2212 C 192.121 -5.27034 0.663978 0
M  V30 2213 C 191.16 -5.87353 1.72287 0
M  V30 2214 N 190.297 -6.92757 1.1416 0
M  V30 2215 H 195.137 -2.47732 1.65628 0
M  V30 2216 H 192.674 -1.21629 0.827337 0
M  V30 2217 H 194.632 -4.16904 -0.157148 0
M  V30 2218 H 193.262 -3.15527 -0.681355 0
M  V30 2219 H 192.314 -3.38924 1.72727 0
M  V30 2220 H 193.626 -4.53947 2.06721 0
M  V30 2221 H 192.78 -6.06104 0.268824 0
M  V30 2222 H 191.519 -4.87407 -0.169082 0
M  V30 2223 H 190.524 -5.06971 2.12746 0
M  V30 2224 H 191.749 -6.29051 2.55875 0
M  V30 2225 H 189.695 -6.5517 0.329984 0
M  V30 2226 H 189.612 -7.3225 1.88007 0
M  V30 2227 H 190.88 -7.75658 0.772956 0
M  V30 2228 N 195.109 -0.891671 -1.2995 0
M  V30 2229 C 196.334 -0.527932 -2.00568 0
M  V30 2230 C 196.759 0.877969 -1.66353 0
M  V30 2231 O 196.117 1.58301 -0.883762 0
M  V30 2232 C 196.165 -0.717745 -3.53385 0
M  V30 2233 O 195.269 0.233376 -4.11739 0
M  V30 2234 H 194.61 -0.20722 -0.630837 0
M  V30 2235 H 197.14 -1.20105 -1.65638 0
M  V30 2236 H 197.15 -0.619307 -4.03272 0
M  V30 2237 H 195.825 -1.74276 -3.77625 0
M  V30 2238 H 194.402 0.0880706 -3.72796 0
M  V30 2239 N 196.587 1.43421 -0.653314 0
M  V30 2240 C 197.517 2.33487 0.0246656 0
M  V30 2241 C 198.498 1.49475 0.811863 0
M  V30 2242 O 199.683 1.78139 0.773322 0
M  V30 2243 C 196.813 3.32841 0.99166 0
M  V30 2244 C 195.767 4.26842 0.314568 0
M  V30 2245 C 195.093 5.16236 1.39302 0
M  V30 2246 C 196.393 5.16243 -0.793095 0
M  V30 2247 H 198.087 2.90427 -0.727481 0
M  V30 2248 H 195.633 1.39649 -0.351287 0
M  V30 2249 H 197.586 3.94747 1.47487 0
M  V30 2250 H 196.31 2.74158 1.77497 0
M  V30 2251 H 194.969 3.663 -0.148199 0
M  V30 2252 H 194.617 4.53891 2.16776 0
M  V30 2253 H 194.317 5.79948 0.945223 0
M  V30 2254 H 195.841 5.81015 1.87759 0
M  V30 2255 H 197.255 5.71958 -0.392039 0
M  V30 2256 H 195.652 5.88676 -1.16536 0
M  V30 2257 H 196.722 4.55927 -1.65103 0
M  V30 2258 N 198.065 0.39524 1.52563 0
M  V30 2259 C 199.013 -0.451859 2.28169 0
M  V30 2260 C 200.007 -1.05792 1.32304 0
M  V30 2261 O 201.213 -0.997718 1.49818 0
M  V30 2262 H 197.588 -0.164481 0.733792 0
M  V30 2263 H 199.559 0.207199 2.9768 0
M  V30 2264 C 198.308 -1.56385 3.10546 0
M  V30 2265 H 197.631 -1.10682 3.84174 0
M  V30 2266 H 199.071 -2.13067 3.66577 0
M  V30 2267 C 197.53 -2.52328 2.23231 0
M  V30 2268 O 198.06 -3.5588 1.86312 0
M  V30 2269 N 196.266 -2.22209 1.87274 0
M  V30 2270 H 195.813 -1.38033 2.17496 0
M  V30 2271 H 195.771 -2.86652 1.29143 0
M  V30 2272 N 199.544 -1.57102 0.125237 0
M  V30 2273 C 200.79 -1.95697 -0.532035 0
M  V30 2274 C 201.123 -1.009 -1.6593 0
M  V30 2275 O 200.398 -0.047347 -1.94442 0
M  V30 2276 C 200.681 -3.44181 -1.05884 0
M  V30 2277 C 200.534 -4.49752 0.0654392 0
M  V30 2278 C 201.853 -3.94655 -1.9477 0
M  V30 2279 H 198.972 -0.711571 -0.191925 0
M  V30 2280 H 201.614 -1.88923 0.20206 0
M  V30 2281 H 199.764 -3.50085 -1.68442 0
M  V30 2282 H 201.436 -4.55943 0.700982 0
M  V30 2283 H 199.679 -4.27653 0.727709 0
M  V30 2284 H 200.35 -5.50924 -0.344505 0
M  V30 2285 H 202.826 -3.91094 -1.42074 0
M  V30 2286 H 201.702 -4.99057 -2.28546 0
M  V30 2287 H 201.963 -3.35718 -2.87656 0
M  V30 2288 N 201.022 0.148545 -1.56898 0
M  V30 2289 C 202.433 0.708766 -1.72723 0
M  V30 2290 C 202.784 1.81734 -0.739395 0
M  V30 2291 O 201.909 2.16194 0.0943169 0
M  V30 2292 C 202.504 1.29245 -3.13179 0
M  V30 2293 C 201.063 1.79925 -3.30611 0
M  V30 2294 C 200.21 0.687111 -2.68652 0
M  V30 2295 H 203.161 -0.0771063 -1.58513 0
M  V30 2296 H 203.182 2.16224 -3.13093 0
M  V30 2297 H 202.694 0.485382 -3.85053 0
M  V30 2298 H 200.795 2.63203 -2.63732 0
M  V30 2299 H 200.908 1.92903 -4.38549 0
M  V30 2300 H 199.272 1.11335 -2.29078 0
M  V30 2301 H 200.055 -0.108483 -3.43129 0
M  V30 2302 N 202.5 1.5196 0.417844 0
M  V30 2303 C 203.41 1.77554 1.53336 0
M  V30 2304 C 204.426 0.660655 1.6097 0
M  V30 2305 O 205.602 0.945099 1.77848 0
M  V30 2306 C 202.667 1.91291 2.89152 0
M  V30 2307 C 201.728 3.15183 2.91475 0
M  V30 2308 C 200.961 3.28256 4.20813 0
M  V30 2309 O 201.184 2.46798 5.14244 0
M  V30 2310 O 200.118 4.21356 4.29817 0
M  V30 2311 H 203.944 2.7222 1.34647 0
M  V30 2312 H 201.529 1.36698 0.602828 0
M  V30 2313 H 203.411 2.02199 3.69721 0
M  V30 2314 H 202.086 0.998129 3.07927 0
M  V30 2315 H 200.993 3.09739 2.09791 0
M  V30 2316 H 202.326 4.06414 2.77648 0
M  V30 2317 N 203.978 -0.674533 1.42435 0
M  V30 2318 C 204.941 -1.76986 1.45632 0
M  V30 2319 C 205.941 -1.5708 0.343871 0
M  V30 2320 O 207.131 -1.63367 0.604709 0
M  V30 2321 C 204.263 -3.15623 1.28822 0
M  V30 2322 H 205.456 -1.75539 2.43158 0
M  V30 2323 H 203.009 -0.884189 1.28887 0
M  V30 2324 H 203.744 -3.22696 0.322193 0
M  V30 2325 H 203.529 -3.31475 2.09444 0
M  V30 2326 H 205.019 -3.95537 1.33942 0
M  V30 2327 N 205.456 -1.28612 -0.910864 0
M  V30 2328 C 206.684 -1.18792 -1.69399 0
M  V30 2329 C 207.099 0.253039 -1.87097 0
M  V30 2330 O 206.456 1.17071 -1.40003 0
M  V30 2331 C 206.507 -1.88511 -3.08457 0
M  V30 2332 O 206.228 -3.26979 -2.91576 0
M  V30 2333 C 207.729 -1.85029 -4.02839 0
M  V30 2334 H 204.949 -0.412233 -0.529438 0
M  V30 2335 H 207.493 -1.69788 -1.13984 0
M  V30 2336 H 205.648 -1.41379 -3.60681 0
M  V30 2337 H 206.062 -3.61936 -3.79608 0
M  V30 2338 H 207.536 -2.38395 -4.97867 0
M  V30 2339 H 208.013 -0.823303 -4.31414 0
M  V30 2340 H 208.619 -2.31853 -3.56545 0
M  V30 2341 N 206.934 1.1197 -1.10907 0
M  V30 2342 C 207.881 2.17846 -0.762345 0
M  V30 2343 C 208.851 1.63995 0.263599 0
M  V30 2344 O 210.036 1.90273 0.141773 0
M  V30 2345 C 207.176 3.44487 -0.205651 0
M  V30 2346 C 206.289 4.12369 -1.28748 0
M  V30 2347 C 205.424 5.26674 -0.691919 0
M  V30 2348 C 204.463 5.86431 -1.75399 0
M  V30 2349 N 203.6 6.92142 -1.17833 0
M  V30 2350 H 208.44 2.46851 -1.6694 0
M  V30 2351 H 205.977 1.21188 -0.833776 0
M  V30 2352 H 207.935 4.16981 0.135037 0
M  V30 2353 H 206.565 3.15884 0.664613 0
M  V30 2354 H 205.617 3.38003 -1.74522 0
M  V30 2355 H 206.929 4.52844 -2.09125 0
M  V30 2356 H 206.083 6.05953 -0.300963 0
M  V30 2357 H 204.822 4.8749 0.143232 0
M  V30 2358 H 203.827 5.05835 -2.15432 0
M  V30 2359 H 205.052 6.27685 -2.59208 0
M  V30 2360 H 202.998 6.54985 -0.364725 0
M  V30 2361 H 202.915 7.31242 -1.91887 0
M  V30 2362 H 204.183 7.75237 -0.81408 0
M  V30 2363 N 208.412 0.89855 1.29475 0
M  V30 2364 C 209.36 0.365253 2.29714 0
M  V30 2365 C 210.354 -0.534993 1.6073 0
M  V30 2366 O 211.56 -0.417921 1.75081 0
M  V30 2367 H 207.935 0.0994853 0.74539 0
M  V30 2368 H 209.906 1.22406 2.72138 0
M  V30 2369 C 208.655 -0.393159 3.4547 0
M  V30 2370 H 207.978 0.290332 3.98744 0
M  V30 2371 H 209.418 -0.731189 4.17648 0
M  V30 2372 C 207.877 -1.59539 2.9673 0
M  V30 2373 O 208.407 -2.69469 2.97908 0
M  V30 2374 N 206.613 -1.43716 2.52575 0
M  V30 2375 H 206.16 -0.542828 2.51816 0
M  V30 2376 H 206.118 -2.24288 2.20323 0
M  V30 2377 N 209.89 -1.43072 0.660911 0
M  V30 2378 C 211.13 -2.03596 0.181146 0
M  V30 2379 C 211.494 -1.51057 -1.18515 0
M  V30 2380 O 212.695 -2.03275 -1.75877 0
M  V30 2381 C 210.966 -3.56845 0.19911 0
M  V30 2382 S 212.525 -4.38289 -0.211684 0
M  V30 2383 H 209.343 -0.706954 0.0757479 0
M  V30 2384 H 211.945 -1.75027 0.870965 0
M  V30 2385 H 210.649 -3.92583 1.1961 0
M  V30 2386 H 210.18 -3.90067 -0.510996 0
M  V30 2387 H 212.195 -4.74583 -1.44863 0
M  V30 2388 N 211.368 -0.403325 -1.52352 0
M  V30 2389 C 212.298 0.416205 -2.29761 0
M  V30 2390 C 213.279 1.05123 -1.33728 0
M  V30 2391 O 214.464 1.06134 -1.62632 0
M  V30 2392 C 211.594 1.53624 -3.11475 0
M  V30 2393 C 210.548 1.02653 -4.15507 0
M  V30 2394 C 209.874 2.23971 -4.85532 0
M  V30 2395 C 211.174 0.08463 -5.22231 0
M  V30 2396 H 212.868 -0.229701 -2.98518 0
M  V30 2397 H 210.414 -0.111913 -1.43564 0
M  V30 2398 H 212.367 2.1165 -3.64393 0
M  V30 2399 H 211.091 2.20994 -2.40477 0
M  V30 2400 H 209.75 0.46871 -3.63591 0
M  V30 2401 H 209.398 2.89883 -4.11068 0
M  V30 2402 H 209.098 1.90521 -5.55856 0
M  V30 2403 H 210.622 2.82614 -5.41259 0
M  V30 2404 H 212.036 0.573509 -5.70424 0
M  V30 2405 H 210.433 -0.160783 -5.99885 0
M  V30 2406 H 211.503 -0.86237 -4.7717 0
M  V30 2407 N 212.846 1.57033 -0.133567 0
M  V30 2408 C 213.776 2.1909 0.807567 0
M  V30 2409 C 214.757 1.13517 1.26681 0
M  V30 2410 O 215.942 1.41809 1.32679 0
M  V30 2411 C 213.072 2.80188 2.05212 0
M  V30 2412 C 212.026 3.91471 1.73015 0
M  V30 2413 C 211.352 4.39443 3.04622 0
M  V30 2414 C 212.652 5.12886 0.987168 0
M  V30 2415 H 214.346 2.97988 0.290403 0
M  V30 2416 H 211.892 1.43335 0.138239 0
M  V30 2417 H 213.845 3.22264 2.71521 0
M  V30 2418 H 212.569 1.98601 2.59278 0
M  V30 2419 H 211.228 3.49993 1.0909 0
M  V30 2420 H 210.876 3.54695 3.56651 0
M  V30 2421 H 210.576 5.14495 2.83847 0
M  V30 2422 H 212.1 4.8418 3.72024 0
M  V30 2423 H 213.514 5.51891 1.55208 0
M  V30 2424 H 211.911 5.93615 0.87985 0
M  V30 2425 H 212.981 4.84894 -0.0235286 0
M  V30 2426 N 214.325 -0.140222 1.56975 0
M  V30 2427 C 215.272 -1.17292 1.98774 0
M  V30 2428 C 216.242 -1.4232 0.856408 0
M  V30 2429 O 217.427 -1.54541 1.119 0
M  V30 2430 C 214.567 -2.49973 2.37923 0
M  V30 2431 C 213.68 -2.32062 3.64378 0
M  V30 2432 C 212.815 -3.57825 3.926 0
M  V30 2433 C 211.854 -3.3498 5.12303 0
M  V30 2434 N 210.991 -4.52891 5.36502 0
M  V30 2435 H 215.831 -0.809472 2.86795 0
M  V30 2436 H 213.368 -0.388237 1.41884 0
M  V30 2437 H 215.326 -3.27346 2.58652 0
M  V30 2438 H 213.956 -2.84252 1.52972 0
M  V30 2439 H 213.008 -1.45711 3.51387 0
M  V30 2440 H 214.32 -2.11145 4.51906 0
M  V30 2441 H 213.474 -4.43624 4.13863 0
M  V30 2442 H 212.213 -3.81753 3.03506 0
M  V30 2443 H 211.218 -2.4757 4.90906 0
M  V30 2444 H 212.443 -3.12444 6.02956 0
M  V30 2445 H 210.389 -4.76979 4.50363 0
M  V30 2446 H 210.306 -4.35001 6.18312 0
M  V30 2447 H 211.574 -5.39884 5.62268 0
M  V30 2448 N 215.803 -1.52179 -0.40978 0
M  V30 2449 C 217.219 -1.40968 -0.74835 0
M  V30 2450 C 217.419 -0.513657 -1.94843 0
M  V30 2451 O 216.475 0.0208026 -2.52491 0
M  V30 2452 C 217.788 -2.83483 -1.0029 0
M  V30 2453 C 219.336 -2.92821 -1.10565 0
M  V30 2454 C 219.811 -4.36303 -1.39296 0
M  V30 2455 N 221.302 -4.39535 -1.46162 0
M  V30 2456 C 222.037 -5.47614 -1.70018 0
M  V30 2457 N 221.533 -6.65812 -1.91483 0
M  V30 2458 N 223.326 -5.35129 -1.72027 0
M  V30 2459 H 215.477 -2.0897 0.380186 0
M  V30 2460 H 217.74 -0.94185 0.107805 0
M  V30 2461 H 217.446 -3.51168 -0.193461 0
M  V30 2462 H 217.32 -3.24487 -1.92323 0
M  V30 2463 H 219.707 -2.25318 -1.90568 0
M  V30 2464 H 219.788 -2.55276 -0.16369 0
M  V30 2465 H 219.432 -5.04366 -0.598109 0
M  V30 2466 H 219.362 -4.71385 -2.34743 0
M  V30 2467 H 221.853 -3.54332 -1.31367 0
M  V30 2468 H 222.166 -7.43964 -2.09134 0
M  V30 2469 H 220.511 -6.68879 -1.88749 0
M  V30 2470 H 223.702 -4.41764 -1.54796 0
M  V30 2471 H 223.875 -6.19433 -1.9028 0
M  V30 2472 N 217.281 0.66697 -1.42791 0
M  V30 2473 C 218.53 1.42278 -1.42968 0
M  V30 2474 C 218.843 1.9553 -0.0524489 0
M  V30 2475 O 220.049 2.71414 0.068363 0
M  V30 2476 C 218.505 2.57418 -2.51524 0
M  V30 2477 C 218.113 2.10832 -3.9529 0
M  V30 2478 C 219.857 3.34878 -2.60877 0
M  V30 2479 C 217.764 3.23101 -4.95338 0
M  V30 2480 H 216.694 0.534533 -0.531781 0
M  V30 2481 H 219.345 0.721302 -1.68729 0
M  V30 2482 H 217.727 3.29971 -2.18941 0
M  V30 2483 H 218.901 1.4538 -4.37266 0
M  V30 2484 H 217.216 1.46289 -3.89857 0
M  V30 2485 H 219.813 4.18505 -3.32802 0
M  V30 2486 H 220.156 3.81993 -1.6549 0
M  V30 2487 H 220.689 2.69398 -2.92693 0
M  V30 2488 H 217.428 2.80969 -5.9223 0
M  V30 2489 H 216.948 3.87309 -4.57987 0
M  V30 2490 H 218.627 3.88447 -5.17415 0
M  V30 2491 N 218.759 1.29093 0.90403 0
M  V30 2492 C 219.669 1.15727 2.0407 0
M  V30 2493 C 220.685 0.0815308 1.73809 0
M  V30 2494 O 221.861 0.292749 1.99261 0
M  V30 2495 C 218.926 0.830424 3.36608 0
M  V30 2496 C 217.987 1.98955 3.80415 0
M  V30 2497 C 217.22 1.6782 5.06628 0
M  V30 2498 O 217.443 0.597105 5.67266 0
M  V30 2499 O 216.377 2.52486 5.46383 0
M  V30 2500 H 220.203 2.11171 2.18267 0
M  V30 2501 H 217.788 1.08504 1.027 0
M  V30 2502 H 219.67 0.662521 4.16159 0
M  V30 2503 H 218.345 -0.0942678 3.23563 0
M  V30 2504 H 217.252 2.21267 3.01648 0
M  V30 2505 H 218.585 2.89529 3.98037 0
M  V30 2506 N 220.237 -1.11381 1.11499 0
M  V30 2507 C 221.184 -2.17439 0.773887 0
M  V30 2508 C 222.154 -1.64132 -0.254899 0
M  V30 2509 O 223.339 -1.90345 -0.13168 0
M  V30 2510 C 220.479 -3.44373 0.223917 0
M  V30 2511 C 219.592 -4.1168 1.30934 0
M  V30 2512 C 218.727 -5.263 0.71984 0
M  V30 2513 C 217.766 -5.85493 1.78507 0
M  V30 2514 N 216.903 -6.91507 1.21502 0
M  V30 2515 H 221.743 -2.45962 1.68246 0
M  V30 2516 H 219.28 -1.20744 0.840191 0
M  V30 2517 H 221.238 -4.17047 -0.112921 0
M  V30 2518 H 219.868 -3.16232 -0.647851 0
M  V30 2519 H 218.92 -3.37073 1.76312 0
M  V30 2520 H 220.232 -4.51729 2.11524 0
M  V30 2521 H 219.386 -6.05785 0.333094 0
M  V30 2522 H 218.125 -4.87559 -0.117377 0
M  V30 2523 H 217.13 -5.04686 2.18111 0
M  V30 2524 H 218.355 -6.26301 2.62533 0
M  V30 2525 H 216.301 -6.54783 0.399455 0
M  V30 2526 H 216.218 -7.30214 1.95763 0
M  V30 2527 H 217.486 -7.74795 0.855181 0
M  V30 2528 N 221.715 -0.905404 -1.28997 0
M  V30 2529 C 222.945 -0.549049 -1.99171 0
M  V30 2530 C 223.353 0.87203 -1.67906 0
M  V30 2531 O 222.696 1.58796 -0.923561 0
M  V30 2532 C 222.758 -0.668306 -3.53234 0
M  V30 2533 C 222.422 -2.0574 -4.08069 0
M  V30 2534 C 223.419 -3.0292 -4.22534 0
M  V30 2535 C 221.104 -2.36833 -4.42962 0
M  V30 2536 C 223.098 -4.29314 -4.71135 0
M  V30 2537 C 220.785 -3.63467 -4.91258 0
M  V30 2538 C 221.783 -4.59522 -5.053 0
M  V30 2539 O 221.471 -5.83907 -5.52546 0
M  V30 2540 H 221.203 -0.208784 -0.64295 0
M  V30 2541 H 223.757 -1.21836 -1.65363 0
M  V30 2542 H 221.987 0.0580547 -3.86656 0
M  V30 2543 H 223.676 -0.320273 -4.04634 0
M  V30 2544 H 224.442 -2.80216 -3.95859 0
M  V30 2545 H 220.321 -1.62824 -4.31288 0
M  V30 2546 H 223.865 -5.04293 -4.8201 0
M  V30 2547 H 219.762 -3.86 -5.17372 0
M  V30 2548 H 220.53 -5.86578 -5.70849 0
M  V30 2549 N 223.193 1.4272 -0.668489 0
M  V30 2550 C 224.433 2.03497 -0.19194 0
M  V30 2551 C 224.797 1.51684 1.17712 0
M  V30 2552 O 225.998 2.04205 1.74796 0
M  V30 2553 C 224.269 3.56734 -0.218032 0
M  V30 2554 S 225.828 4.38395 0.188438 0
M  V30 2555 H 222.646 0.706542 -0.0794959 0
M  V30 2556 H 225.248 1.74563 -0.880235 0
M  V30 2557 H 223.952 3.91943 -1.2169 0
M  V30 2558 H 223.483 3.90333 0.490303 0
M  V30 2559 H 225.498 4.75345 1.42345 0
M  V30 2560 N 224.671 0.411399 1.52136 0
M  V30 2561 C 225.899 -0.163076 2.06256 0
M  V30 2562 C 226.314 -1.3867 1.28125 0
M  V30 2563 O 225.671 -1.79423 0.333721 0
M  V30 2564 C 225.722 -0.511252 3.57867 0
M  V30 2565 O 225.443 0.66378 4.33042 0
M  V30 2566 C 226.944 -1.13921 4.28412 0
M  V30 2567 H 224.164 -0.0193897 0.67072 0
M  V30 2568 H 226.708 0.583007 1.96013 0
M  V30 2569 H 224.863 -1.20723 3.6811 0
M  V30 2570 H 225.277 0.372601 5.23175 0
M  V30 2571 H 226.751 -1.33302 5.35663 0
M  V30 2572 H 227.228 -2.11296 3.85033 0
M  V30 2573 H 227.834 -0.483373 4.22544 0
M  V30 2574 N 226.149 -1.5696 0.141893 0
M  V30 2575 C 227.395 -1.9625 -0.511248 0
M  V30 2576 C 227.728 -1.02654 -1.64851 0
M  V30 2577 O 227.003 -0.0679676 -1.94381 0
M  V30 2578 C 227.286 -3.45285 -1.02227 0
M  V30 2579 C 227.139 -4.49658 0.113138 0
M  V30 2580 C 228.458 -3.96698 -1.90574 0
M  V30 2581 H 225.577 -0.713567 -0.184367 0
M  V30 2582 H 228.219 -1.88698 0.222087 0
M  V30 2583 H 226.369 -3.51852 -1.64719 0
M  V30 2584 H 228.041 -4.55174 0.749302 0
M  V30 2585 H 226.284 -4.26857 0.773026 0
M  V30 2586 H 226.955 -5.51258 -0.286053 0
M  V30 2587 H 229.431 -3.92578 -1.37918 0
M  V30 2588 H 228.307 -5.01453 -2.2324 0
M  V30 2589 H 228.568 -3.3875 -2.84079 0
M  V30 2590 N 227.627 0.131896 -1.57047 0
M  V30 2591 C 228.557 1.16384 -2.02428 0
M  V30 2592 C 229.538 1.43936 -0.90644 0
M  V30 2593 O 230.723 1.54599 -1.17528 0
M  V30 2594 C 227.853 2.49328 -2.4177 0
M  V30 2595 C 226.807 2.36266 -3.56879 0
M  V30 2596 C 226.133 3.74057 -3.8208 0
M  V30 2597 C 227.433 1.834 -4.89042 0
M  V30 2598 H 229.127 0.786433 -2.88887 0
M  V30 2599 H 226.673 0.376855 -1.38981 0
M  V30 2600 H 228.626 3.21759 -2.7212 0
M  V30 2601 H 227.35 2.88934 -1.52266 0
M  V30 2602 H 226.009 1.66286 -3.26718 0
M  V30 2603 H 225.657 4.11125 -2.89803 0
M  V30 2604 H 225.357 3.66174 -4.59554 0
M  V30 2605 H 226.881 4.48012 -4.1487 0
M  V30 2606 H 228.295 2.45636 -5.18011 0
M  V30 2607 H 226.692 1.8637 -5.70426 0
M  V30 2608 H 227.762 0.790662 -4.7841 0
M  V30 2609 N 229.106 1.52395 0.401703 0
M  V30 2610 C 230.522 1.41363 0.740864 0
M  V30 2611 C 230.722 0.523982 1.94568 0
M  V30 2612 O 229.778 -0.00741204 2.52499 0
M  V30 2613 C 231.091 2.84011 0.987847 0
M  V30 2614 C 232.639 2.93404 1.09011 0
M  V30 2615 C 233.114 4.37036 1.3698 0
M  V30 2616 N 234.605 4.40304 1.43829 0
M  V30 2617 C 235.34 5.48508 1.67112 0
M  V30 2618 N 234.836 6.66819 1.87949 0
M  V30 2619 N 236.629 5.36034 1.69187 0
M  V30 2620 H 228.78 2.08765 -0.391262 0
M  V30 2621 H 231.043 0.941265 -0.112798 0
M  V30 2622 H 230.749 3.51265 0.174835 0
M  V30 2623 H 230.623 3.25502 1.906 0
M  V30 2624 H 233.01 2.26325 1.8937 0
M  V30 2625 H 233.091 2.55359 0.15015 0
M  V30 2626 H 232.735 5.04676 0.571353 0
M  V30 2627 H 232.665 4.72623 2.3224 0
M  V30 2628 H 235.156 3.55024 1.29486 0
M  V30 2629 H 235.469 7.45063 2.05185 0
M  V30 2630 H 233.814 6.6987 1.85199 0
M  V30 2631 H 237.005 4.42579 1.52451 0
M  V30 2632 H 237.178 6.20434 1.86993 0
M  V30 2633 N 230.584 -0.659388 1.43143 0
M  V30 2634 C 231.547 -1.75432 1.47501 0
M  V30 2635 C 232.547 -1.56707 0.360512 0
M  V30 2636 O 233.737 -1.62717 0.622002 0
M  V30 2637 C 230.869 -3.14239 1.32162 0
M  V30 2638 H 232.062 -1.7295 2.45006 0
M  V30 2639 H 229.615 -0.870469 1.29817 0
M  V30 2640 H 230.35 -3.22336 0.356401 0
M  V30 2641 H 230.135 -3.29235 2.12948 0
M  V30 2642 H 231.625 -3.94094 1.3813 0
M  V30 2643 N 232.062 -1.29571 -0.897171 0
M  V30 2644 C 233.311 -1.1706 -1.64256 0
M  V30 2645 C 233.624 0.276476 -1.93636 0
M  V30 2646 O 234.83 0.52294 -2.66416 0
M  V30 2647 C 233.286 -2.0475 -2.95982 0
M  V30 2648 C 232.894 -3.54295 -2.74187 0
M  V30 2649 C 234.638 -2.0097 -3.73914 0
M  V30 2650 C 232.545 -4.34081 -4.01656 0
M  V30 2651 H 231.475 -0.43452 -0.616205 0
M  V30 2652 H 234.126 -1.54229 -0.994268 0
M  V30 2653 H 232.508 -1.60452 -3.62038 0
M  V30 2654 H 233.682 -4.06662 -2.1671 0
M  V30 2655 H 231.997 -3.59773 -2.09648 0
M  V30 2656 H 234.594 -2.57838 -4.68427 0
M  V30 2657 H 234.937 -0.990273 -4.0435 0
M  V30 2658 H 235.47 -2.43325 -3.14703 0
M  V30 2659 H 232.209 -5.36671 -3.76384 0
M  V30 2660 H 231.729 -3.86483 -4.58684 0
M  V30 2661 H 233.408 -4.44877 -4.69781 0
M  V30 2662 N 233.54 1.10788 -1.12088 0
M  V30 2663 C 234.78 1.84297 -0.883974 0
M  V30 2664 C 235.144 1.83036 0.579797 0
M  V30 2665 O 236.345 2.52061 0.933734 0
M  V30 2666 C 234.616 3.27173 -1.43849 0
M  V30 2667 S 236.175 4.17853 -1.33957 0
M  V30 2668 H 232.993 0.635433 -0.318977 0
M  V30 2669 H 235.595 1.33341 -1.4297 0
M  V30 2670 H 234.299 3.25658 -2.49749 0
M  V30 2671 H 233.83 3.83198 -0.890096 0
M  V30 2672 H 235.845 4.95239 -0.308603 0
M  V30 2673 N 235.018 0.912232 1.28515 0
M  V30 2674 C 235.968 0.370649 2.24967 0
M  V30 2675 C 236.952 -0.516375 1.52389 0
M  V30 2676 O 238.144 -0.356345 1.73376 0
M  V30 2677 C 235.273 -0.389526 3.41083 0
M  V30 2678 C 234.359 0.51313 4.20984 0
M  V30 2679 N 234.75 1.62604 4.78951 0
M  V30 2680 C 233.048 0.313235 4.44899 0
M  V30 2681 C 233.749 2.18619 5.39055 0
M  V30 2682 N 232.725 1.47765 5.23132 0
M  V30 2683 H 236.527 1.22061 2.67354 0
M  V30 2684 H 234.041 0.764712 1.43269 0
M  V30 2685 H 236.038 -0.794353 4.09262 0
M  V30 2686 H 234.698 -1.2366 3.0023 0
M  V30 2687 H 235.709 2.00864 4.77362 0
M  V30 2688 H 232.386 -0.494452 4.14562 0
M  V30 2689 H 233.776 3.12228 5.94948 0
M  V30 2690 N 236.496 -1.42363 0.676048 0
M  V30 2691 C 237.724 -2.05859 0.207268 0
M  V30 2692 C 238.139 -1.50796 -1.13605 0
M  V30 2693 O 237.496 -0.648265 -1.70598 0
M  V30 2694 C 237.547 -3.61248 0.134975 0
M  V30 2695 O 237.268 -4.1427 1.42521 0
M  V30 2696 C 238.769 -4.41859 -0.357151 0
M  V30 2697 H 235.989 -0.663431 0.100503 0
M  V30 2698 H 238.533 -1.82479 0.923136 0
M  V30 2699 H 236.688 -3.83735 -0.531588 0
M  V30 2700 H 237.102 -5.0815 1.29939 0
M  V30 2701 H 238.576 -5.50847 -0.356641 0
M  V30 2702 H 239.053 -4.16536 -1.39264 0
M  V30 2703 H 239.659 -4.24392 0.27772 0
M  V30 2704 N 237.974 -0.419461 -1.51915 0
M  V30 2705 C 238.906 0.43646 -2.25006 0
M  V30 2706 C 239.919 1.00149 -1.28351 0
M  V30 2707 O 241.108 0.898674 -1.54227 0
M  V30 2708 C 238.208 1.6206 -2.9764 0
M  V30 2709 C 237.381 1.17763 -4.21249 0
M  V30 2710 C 236.44 2.22985 -4.76617 0
M  V30 2711 O 235.466 1.83151 -5.38929 0
M  V30 2712 N 236.668 3.55271 -4.59089 0
M  V30 2713 H 239.433 -0.18989 -2.99098 0
M  V30 2714 H 236.994 -0.247386 -1.59999 0
M  V30 2715 H 238.986 2.32038 -3.31573 0
M  V30 2716 H 237.556 2.15266 -2.2667 0
M  V30 2717 H 236.776 0.305582 -3.93014 0
M  V30 2718 H 238.064 0.858781 -5.015 0
M  V30 2719 H 237.462 3.90377 -4.09417 0
M  V30 2720 H 236.019 4.21195 -4.97432 0
M  V30 2721 N 239.452 1.56882 -0.150215 0
M  V30 2722 C 240.863 1.82995 0.370076 0
M  V30 2723 C 241.214 1.06907 1.64515 0
M  V30 2724 O 240.339 0.315369 2.1409 0
M  V30 2725 C 240.934 3.31942 0.678208 0
M  V30 2726 C 239.493 3.58625 1.14301 0
M  V30 2727 C 238.64 2.76792 0.167778 0
M  V30 2728 H 241.591 1.54209 -0.374858 0
M  V30 2729 H 241.612 3.48272 1.53254 0
M  V30 2730 H 241.124 3.87294 -0.249991 0
M  V30 2731 H 239.225 3.08664 2.08704 0
M  V30 2732 H 239.338 4.67073 1.06676 0
M  V30 2733 H 237.702 2.45972 0.661037 0
M  V30 2734 H 238.485 3.34916 -0.754069 0
M  V30 2735 N 240.93 -0.123565 1.57115 0
M  V30 2736 C 242.155 -0.850398 1.89164 0
M  V30 2737 C 242.58 -1.7286 0.741688 0
M  V30 2738 O 241.938 -1.78665 -0.307958 0
M  V30 2739 C 241.986 -1.66353 3.19936 0
M  V30 2740 O 241.09 -2.77004 3.0552 0
M  V30 2741 H 240.431 -0.235454 0.620852 0
M  V30 2742 H 242.961 -0.107335 2.04318 0
M  V30 2743 H 242.971 -2.05372 3.52543 0
M  V30 2744 H 241.646 -1.01881 4.03228 0
M  V30 2745 H 240.223 -2.41221 2.84371 0
M  V30 2746 N 242.408 -1.52605 -0.393616 0
M  V30 2747 C 243.355 -1.77055 -1.48054 0
M  V30 2748 C 244.325 -0.61358 -1.54352 0
M  V30 2749 O 245.51 -0.852806 -1.70681 0
M  V30 2750 C 242.65 -1.94108 -2.85335 0
M  V30 2751 C 241.763 -3.21792 -2.88226 0
M  V30 2752 C 240.898 -3.29188 -4.16904 0
M  V30 2753 C 239.937 -4.51013 -4.13828 0
M  V30 2754 N 239.074 -4.55716 -5.34105 0
M  V30 2755 H 243.914 -2.69815 -1.26506 0
M  V30 2756 H 241.451 -1.33683 -0.61379 0
M  V30 2757 H 243.409 -2.01979 -3.65049 0
M  V30 2758 H 242.039 -1.04713 -3.05344 0
M  V30 2759 H 241.091 -3.23015 -2.00911 0
M  V30 2760 H 242.403 -4.11557 -2.8182 0
M  V30 2761 H 241.557 -3.36216 -5.05018 0
M  V30 2762 H 240.296 -2.37389 -4.26026 0
M  V30 2763 H 239.301 -4.44115 -3.24102 0
M  V30 2764 H 240.526 -5.44123 -4.06333 0
M  V30 2765 H 238.472 -3.66807 -5.43865 0
M  V30 2766 H 238.389 -5.39346 -5.29756 0
M  V30 2767 H 239.657 -4.66993 -6.2413 0
M  V30 2768 N 243.887 0.651787 -1.4349 0
M  V30 2769 C 245.115 1.43937 -1.48626 0
M  V30 2770 C 245.53 1.8851 -0.104587 0
M  V30 2771 O 244.887 1.5958 0.885464 0
M  V30 2772 C 244.938 2.6734 -2.43334 0
M  V30 2773 O 244.659 2.24631 -3.76128 0
M  V30 2774 C 246.16 3.60683 -2.57726 0
M  V30 2775 H 243.38 0.44213 -0.504739 0
M  V30 2776 H 245.924 0.798944 -1.88248 0
M  V30 2777 H 244.079 3.2752 -2.06904 0
M  V30 2778 H 244.493 3.04485 -4.2707 0
M  V30 2779 H 245.967 4.43933 -3.28067 0
M  V30 2780 H 246.444 4.08126 -1.62265 0
M  V30 2781 H 247.05 3.06384 -2.94973 0
M  V30 2782 N 245.365 1.30045 0.890287 0
M  V30 2783 C 246.776 1.16738 1.45702 0
M  V30 2784 C 247.127 -0.233939 1.948 0
M  V30 2785 O 246.252 -1.13021 1.84541 0
M  V30 2786 C 246.847 2.11313 2.64825 0
M  V30 2787 C 245.406 2.02001 3.17604 0
M  V30 2788 C 244.553 2.01699 1.90296 0
M  V30 2789 H 247.504 1.42392 0.700726 0
M  V30 2790 H 247.525 1.69086 3.40867 0
M  V30 2791 H 247.037 3.13294 2.2906 0
M  V30 2792 H 245.138 1.03142 3.5804 0
M  V30 2793 H 245.251 2.90128 3.81264 0
M  V30 2794 H 243.615 1.46427 2.08402 0
M  V30 2795 H 244.398 3.05402 1.56795 0
M  V30 2796 N 246.843 -1.10192 1.12674 0
M  V30 2797 C 247.773 -2.18652 0.819362 0
M  V30 2798 C 248.754 -1.68698 -0.217915 0
M  V30 2799 O 249.939 -1.94041 -0.0785581 0
M  V30 2800 C 247.069 -3.46202 0.27594 0
M  V30 2801 C 246.023 -4.09444 1.24656 0
M  V30 2802 C 245.349 -5.31725 0.563258 0
M  V30 2803 C 246.649 -4.52863 2.60217 0
M  V30 2804 H 248.343 -2.44622 1.72628 0
M  V30 2805 H 245.889 -1.17571 0.831451 0
M  V30 2806 H 247.842 -4.21372 0.0486149 0
M  V30 2807 H 246.566 -3.1973 -0.666331 0
M  V30 2808 H 245.225 -3.36284 1.45974 0
M  V30 2809 H 244.873 -5.0153 -0.384235 0
M  V30 2810 H 244.573 -5.74991 1.21075 0
M  V30 2811 H 246.097 -6.09624 0.34503 0
M  V30 2812 H 247.511 -5.19294 2.42913 0
M  V30 2813 H 245.908 -5.06986 3.21068 0
M  V30 2814 H 246.978 -3.65656 3.18471 0
M  V30 2815 N 248.321 -0.919034 -1.28029 0
M  V30 2816 C 249.737 -0.617972 -1.4715 0
M  V30 2817 C 249.937 0.835242 -1.83374 0
M  V30 2818 O 248.993 1.61388 -1.94191 0
M  V30 2819 C 250.306 -1.56041 -2.57044 0
M  V30 2820 C 251.854 -1.56769 -2.7091 0
M  V30 2821 C 252.329 -2.49688 -3.83953 0
M  V30 2822 N 253.82 -2.47845 -3.91314 0
M  V30 2823 C 254.555 -3.16437 -4.78179 0
M  V30 2824 N 254.051 -3.94376 -5.69596 0
M  V30 2825 N 255.844 -3.05498 -4.71834 0
M  V30 2826 H 247.995 -1.85866 -1.02798 0
M  V30 2827 H 250.258 -0.797506 -0.512531 0
M  V30 2828 H 249.964 -2.59671 -2.372 0
M  V30 2829 H 249.838 -1.29551 -3.54255 0
M  V30 2830 H 252.225 -0.538745 -2.90141 0
M  V30 2831 H 252.306 -1.87305 -1.74214 0
M  V30 2832 H 251.95 -3.52688 -3.65477 0
M  V30 2833 H 251.88 -2.16453 -4.80058 0
M  V30 2834 H 254.371 -1.91234 -3.25941 0
M  V30 2835 H 254.684 -4.43721 -6.32718 0
M  V30 2836 H 253.029 -3.98481 -5.69419 0
M  V30 2837 H 256.22 -2.44108 -3.99411 0
M  V30 2838 H 256.393 -3.59225 -5.39316 0
M  V30 2839 N 249.799 1.42003 -0.683588 0
M  V30 2840 C 250.732 2.28166 0.039592 0
M  V30 2841 C 251.71 1.41562 0.799942 0
M  V30 2842 O 252.894 1.70997 0.793248 0
M  V30 2843 C 250.021 3.21575 1.06335 0
M  V30 2844 C 249.067 4.24643 0.397562 0
M  V30 2845 S 249.9 5.2869 -0.851296 0
M  V30 2846 C 251.056 6.25666 0.171166 0
M  V30 2847 H 251.289 2.89153 -0.691229 0
M  V30 2848 H 248.822 1.46962 -0.473435 0
M  V30 2849 H 250.78 3.75928 1.6489 0
M  V30 2850 H 249.441 2.59707 1.76667 0
M  V30 2851 H 248.634 4.90223 1.17035 0
M  V30 2852 H 248.236 3.73824 -0.114611 0
M  V30 2853 H 250.528 6.69653 1.02819 0
M  V30 2854 H 251.471 7.06666 -0.450397 0
M  V30 2855 H 251.879 5.62095 0.520578 0
M  V30 2856 N 251.277 0.427512 1.51691 0
M  V30 2857 C 252.224 -0.388867 2.275 0
M  V30 2858 C 253.194 -1.02532 1.30677 0
M  V30 2859 O 254.379 -1.0461 1.59566 0
M  V30 2860 C 251.519 -1.48954 3.11298 0
M  V30 2861 C 250.632 -0.872194 4.23104 0
M  V30 2862 C 249.767 -1.94709 4.94228 0
M  V30 2863 C 248.806 -1.30766 5.97969 0
M  V30 2864 N 247.943 -2.32349 6.62539 0
M  V30 2865 H 252.783 0.263997 2.96828 0
M  V30 2866 H 250.32 0.142033 1.46413 0
M  V30 2867 H 252.278 -2.13887 3.58201 0
M  V30 2868 H 250.908 -2.11217 2.44105 0
M  V30 2869 H 249.96 -0.111419 3.80237 0
M  V30 2870 H 251.272 -0.365264 4.97461 0
M  V30 2871 H 250.426 -2.67327 5.44629 0
M  V30 2872 H 249.165 -2.48773 4.1948 0
M  V30 2873 H 248.17 -0.566902 5.4687 0
M  V30 2874 H 249.395 -0.774483 6.74669 0
M  V30 2875 H 247.341 -2.85511 5.90609 0
M  V30 2876 H 247.258 -1.8652 7.3263 0
M  V30 2877 H 248.526 -3.04481 7.17574 0
M  V30 2878 N 252.755 -1.56801 0.158532 0
M  V30 2879 C 253.702 -2.17337 -0.776729 0
M  V30 2880 C 254.672 -1.1096 -1.23601 0
M  V30 2881 O 255.857 -1.39054 -1.30647 0
M  V30 2882 C 252.997 -2.80822 -2.00582 0
M  V30 2883 C 252.11 -4.01624 -1.59129 0
M  V30 2884 C 251.245 -4.53072 -2.77306 0
M  V30 2885 C 250.284 -5.66314 -2.32282 0
M  V30 2886 N 249.421 -6.12329 -3.43508 0
M  V30 2887 H 254.261 -2.96918 -0.253701 0
M  V30 2888 H 251.798 -1.46661 -0.113504 0
M  V30 2889 H 253.756 -3.15779 -2.72652 0
M  V30 2890 H 252.386 -2.03866 -2.50277 0
M  V30 2891 H 251.438 -3.72571 -0.767806 0
M  V30 2892 H 252.75 -4.83633 -1.2207 0
M  V30 2893 H 251.904 -4.90145 -3.57551 0
M  V30 2894 H 250.643 -3.70095 -3.17617 0
M  V30 2895 H 249.648 -5.28806 -1.5048 0
M  V30 2896 H 250.873 -6.51085 -1.93043 0
M  V30 2897 H 248.819 -5.32284 -3.83418 0
M  V30 2898 H 248.736 -6.89293 -3.105 0
M  V30 2899 H 250.004 -6.5405 -4.24075 0
M  V30 2900 N 254.233 0.115231 -1.57178 0
M  V30 2901 C 255.196 1.12526 -1.99676 0
M  V30 2902 C 256.196 1.34095 -0.88742 0
M  V30 2903 O 257.386 1.30548 -1.15337 0
M  V30 2904 C 254.518 2.4789 -2.34015 0
M  V30 2905 H 255.711 0.759912 -2.90113 0
M  V30 2906 H 253.264 0.359648 -1.52106 0
M  V30 2907 H 253.999 2.89339 -1.4647 0
M  V30 2908 H 253.784 2.33588 -3.14927 0
M  V30 2909 H 255.274 3.20575 -2.67622 0
M  V30 2910 N 255.711 1.52812 0.385517 0
M  V30 2911 C 256.661 1.74219 1.47078 0
M  V30 2912 C 257.645 0.59632 1.49442 0
M  V30 2913 O 258.837 0.85428 1.5502 0
M  V30 2914 C 255.966 1.9176 2.84751 0
M  V30 2915 C 255.052 3.12289 2.86943 0
M  V30 2916 N 255.443 4.34575 2.58802 0
M  V30 2917 C 253.741 3.12605 3.1811 0
M  V30 2918 C 254.442 5.162 2.68166 0
M  V30 2919 N 253.418 4.51964 3.02043 0
M  V30 2920 H 257.22 2.6639 1.24152 0
M  V30 2921 H 254.734 1.51166 0.593504 0
M  V30 2922 H 256.731 2.05218 3.62893 0
M  V30 2923 H 255.391 1.00805 3.08656 0
M  V30 2924 H 256.402 4.62649 2.32759 0
M  V30 2925 H 253.079 2.31472 3.47458 0
M  V30 2926 H 254.469 6.23689 2.49923 0
M  V30 2927 N 257.189 -0.644168 1.43834 0
M  V30 2928 C 258.438 -1.39985 1.45214 0
M  V30 2929 C 258.751 -1.95421 0.0835494 0
M  V30 2930 O 259.957 -2.71488 -0.0251748 0
M  V30 2931 C 258.413 -2.53384 2.55587 0
M  V30 2932 C 258.021 -2.04517 3.98594 0
M  V30 2933 C 259.765 -3.30685 2.66172 0
M  V30 2934 C 257.672 -3.1518 5.00416 0
M  V30 2935 H 256.602 -0.526005 0.540218 0
M  V30 2936 H 259.253 -0.694367 1.69855 0
M  V30 2937 H 257.635 -3.26446 2.24163 0
M  V30 2938 H 258.809 -1.38405 4.39523 0
M  V30 2939 H 257.124 -1.40068 3.92135 0
M  V30 2940 H 259.721 -4.13158 3.39418 0
M  V30 2941 H 260.064 -3.79312 1.71546 0
M  V30 2942 H 260.597 -2.64708 2.96942 0
M  V30 2943 H 257.336 -2.71511 5.96625 0
M  V30 2944 H 256.856 -3.79974 4.64091 0
M  V30 2945 H 258.535 -3.80166 5.23529 0
M  V30 2946 N 258.668 -1.30515 -0.883378 0
M  V30 2947 C 259.601 -1.11359 -1.99184 0
M  V30 2948 C 260.579 -0.0207858 -1.62587 0
M  V30 2949 O 261.763 -0.174646 -1.87689 0
M  V30 2950 C 258.89 -0.69871 -3.31415 0
M  V30 2951 C 257.936 -1.79261 -3.86998 0
M  V30 2952 S 258.769 -3.39536 -4.14096 0
M  V30 2953 C 259.925 -2.99954 -5.49344 0
M  V30 2954 H 260.158 -2.052 -2.15128 0
M  V30 2955 H 257.691 -1.14847 -1.03196 0
M  V30 2956 H 259.649 -0.466075 -4.07846 0
M  V30 2957 H 258.31 0.220368 -3.13326 0
M  V30 2958 H 257.503 -1.45464 -4.82552 0
M  V30 2959 H 257.105 -1.97961 -3.17313 0
M  V30 2960 H 259.397 -2.48013 -6.30473 0
M  V30 2961 H 260.34 -3.9442 -5.8808 0
M  V30 2962 H 260.748 -2.37775 -5.1198 0
M  V30 2963 N 260.146 1.09593 -1.13257 0
M  V30 2964 C 261.056 2.19739 -0.821691 0
M  V30 2965 C 262.072 1.72926 0.19302 0
M  V30 2966 O 263.248 2.01385 0.0244895 0
M  V30 2967 C 260.313 3.45482 -0.290333 0
M  V30 2968 C 259.374 4.06985 -1.36607 0
M  V30 2969 C 258.607 5.26726 -0.859975 0
M  V30 2970 O 258.83 5.69594 0.303082 0
M  V30 2971 O 257.764 5.7931 -1.63351 0
M  V30 2972 H 261.59 2.48781 -1.74189 0
M  V30 2973 H 259.175 1.18496 -0.909894 0
M  V30 2974 H 261.057 4.214 0.000674022 0
M  V30 2975 H 259.732 3.18047 0.602306 0
M  V30 2976 H 258.639 3.32712 -1.71037 0
M  V30 2977 H 259.972 4.38643 -2.23279 0
M  V30 2978 N 261.624 0.925811 1.2754 0
M  V30 2979 C 262.87 0.566092 1.94739 0
M  V30 2980 C 263.203 -0.890057 1.72603 0
M  V30 2981 O 262.478 -1.63467 1.05399 0
M  V30 2982 C 262.761 0.89054 3.48915 0
M  V30 2983 C 262.614 2.4003 3.80402 0
M  V30 2984 C 263.933 0.395101 4.38323 0
M  V30 2985 H 261.052 0.20714 0.707292 0
M  V30 2986 H 263.694 1.15725 1.50691 0
M  V30 2987 H 261.844 0.387452 3.86563 0
M  V30 2988 H 263.516 2.97494 3.52555 0
M  V30 2989 H 261.759 2.85028 3.2702 0
M  V30 2990 H 262.43 2.57785 4.8811 0
M  V30 2991 H 264.906 0.826241 4.07814 0
M  V30 2992 H 263.782 0.651086 5.45025 0
M  V30 2993 H 264.043 -0.704798 4.36446 0
M  V30 2994 N 263.102 -1.41638 0.69111 0
M  V30 2995 C 264.034 -2.29194 -0.0161523 0
M  V30 2996 C 265.047 -1.44549 -0.748955 0
M  V30 2997 O 266.236 -1.681 -0.6004 0
M  V30 2998 C 263.336 -3.22325 -1.0469 0
M  V30 2999 C 262.509 -4.35706 -0.384621 0
M  V30 3000 C 261.568 -5.09443 -1.31737 0
M  V30 3001 O 260.594 -5.63386 -0.811451 0
M  V30 3002 N 261.796 -5.16487 -2.64993 0
M  V30 3003 H 264.561 -2.90534 0.735523 0
M  V30 3004 H 262.122 -1.52742 0.53679 0
M  V30 3005 H 264.114 -3.68522 -1.67252 0
M  V30 3006 H 262.684 -2.62323 -1.70015 0
M  V30 3007 H 261.904 -3.91948 0.420804 0
M  V30 3008 H 263.192 -5.08743 0.0760765 0
M  V30 3009 H 262.59 -4.741 -3.08619 0
M  V30 3010 H 261.147 -5.66276 -3.22761 0
M  V30 3011 N 264.58 -0.43555 -1.51462 0
M  V30 3012 C 265.829 0.133007 -2.01261 0
M  V30 3013 C 266.142 1.43942 -1.32439 0
M  V30 3014 O 267.348 2.09081 -1.73198 0
M  V30 3015 C 265.804 0.287581 -3.58749 0
M  V30 3016 C 265.412 -1.00829 -4.36506 0
M  V30 3017 C 267.156 0.810004 -4.167 0
M  V30 3018 C 265.063 -0.819454 -5.85695 0
M  V30 3019 H 263.993 0.0534822 -0.752101 0
M  V30 3020 H 266.644 -0.565038 -1.74584 0
M  V30 3021 H 265.026 1.04859 -3.81865 0
M  V30 3022 H 266.2 -1.77749 -4.25138 0
M  V30 3023 H 264.515 -1.45911 -3.89999 0
M  V30 3024 H 267.112 0.967743 -5.2587 0
M  V30 3025 H 267.455 1.79196 -3.75758 0
M  V30 3026 H 267.988 0.107357 -3.97655 0
M  V30 3027 H 264.727 -1.77374 -6.31046 0
M  V30 3028 H 264.247 -0.0900208 -5.99732 0
M  V30 3029 H 265.926 -0.471949 -6.45276 0
M  V30 3030 N 266.058 1.56714 -0.166846 0
M  V30 3031 C 267.006 2.19056 0.782123 0
M  V30 3032 C 268 1.15328 1.24079 0
M  V30 3033 O 269.206 1.33537 1.20697 0
M  V30 3034 H 265.581 0.70167 0.270486 0
M  V30 3035 H 267.552 2.97494 0.232322 0
M  V30 3036 C 266.301 2.84206 2.00306 0
M  V30 3037 H 265.624 3.63748 1.65914 0
M  V30 3038 H 267.064 3.31302 2.64604 0
M  V30 3039 C 265.523 1.83744 2.82382 0
M  V30 3040 O 266.053 1.32014 3.79388 0
M  V30 3041 N 264.259 1.52601 2.47308 0
M  V30 3042 H 263.806 1.9486 1.68485 0
M  V30 3043 H 263.764 0.856351 3.02513 0
M  V30 3044 N 267.536 -0.106894 1.57237 0
M  V30 3045 C 268.784 -0.810921 1.85117 0
M  V30 3046 C 269.105 -1.7984 0.753827 0
M  V30 3047 O 268.375 -1.94649 -0.221056 0
M  V30 3048 H 266.955 -0.302466 0.683025 0
M  V30 3049 H 269.617 -0.0913324 1.94686 0
M  V30 3050 H 268.713 -1.34875 2.81452 0
M  V30 3051 N 269.014 -1.53014 -0.377408 0
M  V30 3052 C 270.262 -1.6829 -1.11906 0
M  V30 3053 C 270.583 -0.431206 -1.90173 0
M  V30 3054 O 269.853 0.554595 -1.87886 0
M  V30 3055 H 268.433 -0.620371 -0.416112 0
M  V30 3056 H 271.095 -1.90167 -0.426893 0
M  V30 3057 H 270.191 -2.53862 -1.8155 0
M  V30 3058 N 270.492 0.636531 -1.44174 0
M  V30 3059 C 271.717 1.42847 -1.50364 0
M  V30 3060 C 272.142 1.87665 -0.127867 0
M  V30 3061 O 271.5 1.58408 0.88185 0
M  V30 3062 C 271.548 2.62854 -2.4686 0
M  V30 3063 O 270.652 3.62501 -1.9664 0
M  V30 3064 H 269.993 0.427642 -0.507955 0
M  V30 3065 H 272.523 0.777422 -1.89255 0
M  V30 3066 H 272.533 3.10465 -2.64718 0
M  V30 3067 H 271.208 2.29578 -3.46795 0
M  V30 3068 H 269.785 3.21735 -1.88523 0
M  V30 3069 N 271.97 1.30982 0.876444 0
M  V30 3070 C 272.903 1.12414 1.98591 0
M  V30 3071 C 273.881 0.0294078 1.62573 0
M  V30 3072 O 275.065 0.184598 1.87594 0
M  V30 3073 C 272.192 0.716276 3.3104 0
M  V30 3074 C 271.238 1.81311 3.86042 0
M  V30 3075 S 272.071 3.41727 4.1229 0
M  V30 3076 C 273.227 3.02863 5.47745 0
M  V30 3077 H 273.46 2.06338 2.14037 0
M  V30 3078 H 270.993 1.15393 1.02586 0
M  V30 3079 H 272.951 0.487697 4.07593 0
M  V30 3080 H 271.612 -0.203749 3.13438 0
M  V30 3081 H 270.805 1.48021 4.81774 0
M  V30 3082 H 270.407 1.99641 3.16259 0
M  V30 3083 H 272.699 2.51353 6.29148 0
M  V30 3084 H 273.642 3.97533 5.8598 0
M  V30 3085 H 274.05 2.40487 5.10711 0
M  V30 3086 N 273.449 -1.08991 1.13837 0
M  V30 3087 C 274.396 -2.15748 0.819835 0
M  V30 3088 C 275.366 -1.64636 -0.220026 0
M  V30 3089 O 276.551 -1.90582 -0.0912757 0
M  V30 3090 C 273.691 -3.4382 0.296913 0
M  V30 3091 C 272.804 -4.0881 1.39636 0
M  V30 3092 C 271.939 -5.24655 0.831314 0
M  V30 3093 C 270.978 -5.81575 1.90886 0
M  V30 3094 N 270.115 -6.88774 1.36142 0
M  V30 3095 H 274.955 -2.42338 1.73426 0
M  V30 3096 H 272.492 -1.18935 0.865613 0
M  V30 3097 H 274.45 -4.17193 -0.0244339 0
M  V30 3098 H 273.08 -3.17535 -0.580628 0
M  V30 3099 H 272.132 -3.33258 1.83422 0
M  V30 3100 H 273.444 -4.47141 2.21058 0
M  V30 3101 H 272.598 -6.04942 0.461515 0
M  V30 3102 H 271.337 -4.87698 -0.013932 0
M  V30 3103 H 270.342 -4.99946 2.28767 0
M  V30 3104 H 271.567 -6.20592 2.75758 0
M  V30 3105 H 269.513 -6.53788 0.538254 0
M  V30 3106 H 269.43 -7.25898 2.11208 0
M  V30 3107 H 270.698 -7.72806 1.01933 0
M  V30 3108 N 274.927 -0.932562 -1.27047 0
M  V30 3109 C 275.837 -0.441219 -2.30414 0
M  V30 3110 C 276.853 0.480525 -1.67233 0
M  V30 3111 O 278.029 0.362151 -1.98117 0
M  V30 3112 C 275.094 0.293651 -3.45454 0
M  V30 3113 C 274.155 -0.663601 -4.2414 0
M  V30 3114 C 273.388 0.0362932 -5.33688 0
M  V30 3115 O 273.611 1.2548 -5.56427 0
M  V30 3116 O 272.545 -0.638015 -5.98509 0
M  V30 3117 H 276.371 -1.29962 -2.74488 0
M  V30 3118 H 273.956 -0.6981 -1.32087 0
M  V30 3119 H 275.838 0.707951 -4.15411 0
M  V30 3120 H 274.513 1.12758 -3.03426 0
M  V30 3121 H 273.42 -1.12768 -3.56699 0
M  V30 3122 H 274.753 -1.46489 -4.69896 0
M  V30 3123 N 276.405 1.4127 -0.698611 0
M  V30 3124 C 277.352 2.30773 -0.0352094 0
M  V30 3125 C 278.322 1.47273 0.768111 0
M  V30 3126 O 279.507 1.76053 0.735524 0
M  V30 3127 C 276.647 3.33346 0.893 0
M  V30 3128 C 275.76 4.31924 0.0809695 0
M  V30 3129 C 274.895 5.21566 1.0071 0
M  V30 3130 C 273.934 6.11811 0.188155 0
M  V30 3131 N 273.071 6.93926 1.06825 0
M  V30 3132 H 277.911 2.86943 -0.804207 0
M  V30 3133 H 275.448 1.4132 -0.408294 0
M  V30 3134 H 277.406 3.91368 1.44523 0
M  V30 3135 H 276.036 2.78719 1.62836 0
M  V30 3136 H 275.088 3.75825 -0.588224 0
M  V30 3137 H 276.4 4.95716 -0.553801 0
M  V30 3138 H 275.554 5.84437 1.62845 0
M  V30 3139 H 274.293 4.58008 1.67572 0
M  V30 3140 H 273.298 5.47986 -0.446254 0
M  V30 3141 H 274.523 6.77425 -0.476716 0
M  V30 3142 H 272.469 6.32973 1.72283 0
M  V30 3143 H 272.386 7.54416 0.489123 0
M  V30 3144 H 273.654 7.61262 1.67632 0
M  V30 3145 N 277.883 0.443576 1.51229 0
M  V30 3146 C 278.813 -0.355142 2.30783 0
M  V30 3147 C 279.794 -1.0154 1.36468 0
M  V30 3148 O 280.979 -1.01785 1.65389 0
M  V30 3149 C 278.109 -1.45312 3.15439 0
M  V30 3150 C 277.063 -0.916002 4.18083 0
M  V30 3151 C 276.389 -2.1102 4.91299 0
M  V30 3152 C 277.689 0.0538602 5.22272 0
M  V30 3153 H 279.383 0.308767 2.97804 0
M  V30 3154 H 276.929 0.149937 1.43217 0
M  V30 3155 H 278.882 -2.01914 3.69876 0
M  V30 3156 H 277.606 -2.14541 2.46252 0
M  V30 3157 H 276.265 -0.372145 3.64706 0
M  V30 3158 H 275.913 -2.78882 4.18609 0
M  V30 3159 H 275.613 -1.75717 5.60712 0
M  V30 3160 H 277.137 -2.68164 5.48562 0
M  V30 3161 H 278.551 -0.422069 5.71744 0
M  V30 3162 H 276.948 0.319776 5.99247 0
M  V30 3163 H 278.018 0.98858 4.74716 0
M  V30 3164 N 279.361 -1.56624 0.175154 0
M  V30 3165 C 280.271 -2.21741 -0.766042 0
M  V30 3166 C 281.287 -1.21023 -1.25018 0
M  V30 3167 O 282.463 -1.53697 -1.3015 0
M  V30 3168 C 279.528 -2.84839 -1.97655 0
M  V30 3169 C 278.589 -4.00769 -1.53892 0
M  V30 3170 C 277.822 -4.60849 -2.69173 0
M  V30 3171 O 278.045 -4.19823 -3.86141 0
M  V30 3172 O 276.979 -5.50655 -2.43028 0
M  V30 3173 H 280.805 -3.02738 -0.241585 0
M  V30 3174 H 278.39 -1.49305 -0.053222 0
M  V30 3175 H 280.272 -3.24834 -2.68442 0
M  V30 3176 H 278.947 -2.06836 -2.48999 0
M  V30 3177 H 277.854 -3.65436 -0.80044 0
M  V30 3178 H 279.187 -4.80376 -1.07236 0
M  V30 3179 N 280.839 0.0985539 -1.57292 0
M  V30 3180 C 282.086 0.802678 -1.85912 0
M  V30 3181 C 282.414 1.78901 -0.763186 0
M  V30 3182 O 281.669 1.94178 0.243559 0
M  V30 3183 C 281.968 1.56927 -3.21105 0
M  V30 3184 C 281.634 0.725376 -4.45027 0
M  V30 3185 C 280.296 0.492726 -4.78671 0
M  V30 3186 C 282.648 0.138493 -5.21016 0
M  V30 3187 C 279.976 -0.336727 -5.85733 0
M  V30 3188 C 282.328 -0.678264 -6.28953 0
M  V30 3189 C 280.992 -0.921039 -6.61115 0
M  V30 3190 H 280.262 0.293721 -0.680301 0
M  V30 3191 H 282.909 0.0642841 -1.91392 0
M  V30 3192 H 281.214 2.37914 -3.11294 0
M  V30 3193 H 282.911 2.11841 -3.40477 0
M  V30 3194 H 279.501 0.916815 -4.18679 0
M  V30 3195 H 283.685 0.305404 -4.95359 0
M  V30 3196 H 278.941 -0.533836 -6.09065 0
M  V30 3197 H 283.115 -1.1399 -6.87007 0
M  V30 3198 H 280.742 -1.56556 -7.43905 0
M  V30 3199 N 282.317 1.53212 0.369288 0
M  V30 3200 C 283.563 1.69466 1.11397 0
M  V30 3201 C 283.896 0.443257 1.89074 0
M  V30 3202 O 283.171 -0.559386 1.86282 0
M  V30 3203 C 283.454 2.9422 2.07621 0
M  V30 3204 C 283.307 4.29508 1.33577 0
M  V30 3205 C 284.626 3.14565 3.07794 0
M  V30 3206 H 281.745 0.616667 0.403597 0
M  V30 3207 H 284.387 1.85845 0.395179 0
M  V30 3208 H 282.537 2.80387 2.68916 0
M  V30 3209 H 284.209 4.55147 0.750955 0
M  V30 3210 H 282.452 4.29088 0.637618 0
M  V30 3211 H 283.123 5.12926 2.03989 0
M  V30 3212 H 285.599 3.2756 2.56601 0
M  V30 3213 H 284.475 4.03297 3.72348 0
M  V30 3214 H 284.736 2.29675 3.77759 0
M  V30 3215 N 283.795 -0.628877 1.44509 0
M  V30 3216 C 284.742 -1.74074 1.51549 0
M  V30 3217 C 285.712 -1.62084 0.363021 0
M  V30 3218 O 286.897 -1.81975 0.573567 0
M  V30 3219 C 284.037 -3.12328 1.46784 0
M  V30 3220 C 283.15 -3.35277 2.72422 0
M  V30 3221 C 282.285 -4.63515 2.59475 0
M  V30 3222 C 281.324 -4.7965 3.80266 0
M  V30 3223 N 280.461 -5.99168 3.65981 0
M  V30 3224 H 285.301 -1.67392 2.46544 0
M  V30 3225 H 282.838 -0.816527 1.22357 0
M  V30 3226 H 284.796 -3.92286 1.42012 0
M  V30 3227 H 283.426 -3.18018 0.553544 0
M  V30 3228 H 282.478 -2.49242 2.87372 0
M  V30 3229 H 283.79 -3.43078 3.62076 0
M  V30 3230 H 282.944 -5.51638 2.52548 0
M  V30 3231 H 281.683 -4.58076 1.67384 0
M  V30 3232 H 280.688 -3.89957 3.87574 0
M  V30 3233 H 281.913 -4.86902 4.73395 0
M  V30 3234 H 279.859 -5.94814 2.76644 0
M  V30 3235 H 279.776 -6.08035 4.49254 0
M  V30 3236 H 281.044 -6.89846 3.6295 0
M  V30 3237 N 285.273 -1.31445 -0.869486 0
M  V30 3238 C 286.183 -1.21097 -2.0093 0
M  V30 3239 C 287.199 -0.127584 -1.73532 0
M  V30 3240 O 288.375 -0.345477 -1.98415 0
M  V30 3241 C 285.44 -0.919378 -3.34288 0
M  V30 3242 C 284.501 -2.08971 -3.75006 0
M  V30 3243 C 283.734 -1.81194 -5.02001 0
M  V30 3244 O 283.957 -0.747296 -5.65484 0
M  V30 3245 O 282.891 -2.66883 -5.39497 0
M  V30 3246 H 286.717 -2.16883 -2.12592 0
M  V30 3247 H 284.302 -1.11189 -0.997868 0
M  V30 3248 H 286.184 -0.772625 -4.14257 0
M  V30 3249 H 284.859 0.00844772 -3.23699 0
M  V30 3250 H 283.766 -2.29187 -2.95676 0
M  V30 3251 H 285.099 -2.9998 -3.90221 0
M  V30 3252 N 286.751 1.08385 -1.14413 0
M  V30 3253 C 287.684 2.14642 -0.774871 0
M  V30 3254 C 288.662 1.60761 0.243876 0
M  V30 3255 O 289.846 1.88031 0.132883 0
M  V30 3256 C 286.973 3.38366 -0.150491 0
M  V30 3257 C 286.019 4.10997 -1.13945 0
M  V30 3258 S 286.852 4.63797 -2.67679 0
M  V30 3259 C 288.008 5.90808 -2.06631 0
M  V30 3260 H 288.241 2.45633 -1.67487 0
M  V30 3261 H 285.774 1.20498 -0.96538 0
M  V30 3262 H 287.732 4.09996 0.203334 0
M  V30 3263 H 286.393 3.05572 0.72694 0
M  V30 3264 H 285.586 4.99783 -0.65059 0
M  V30 3265 H 285.188 3.4528 -1.43727 0
M  V30 3266 H 287.48 6.62411 -1.4219 0
M  V30 3267 H 288.423 6.4439 -2.93542 0
M  V30 3268 H 288.831 5.4383 -1.51357 0
M  V30 3269 N 288.23 0.939286 1.26551 0
M  V30 3270 C 289.16 0.465044 2.28822 0
M  V30 3271 C 290.141 -0.480692 1.63167 0
M  V30 3272 O 291.326 -0.382955 1.90387 0
M  V30 3273 C 288.456 -0.27234 3.46231 0
M  V30 3274 C 287.41 0.58666 4.2396 0
M  V30 3275 C 286.736 -0.280573 5.33963 0
M  V30 3276 C 288.036 1.85704 4.88171 0
M  V30 3277 H 289.73 1.31979 2.68741 0
M  V30 3278 H 287.276 0.636061 1.29191 0
M  V30 3279 H 289.229 -0.615133 4.16886 0
M  V30 3280 H 287.953 -1.16121 3.0526 0
M  V30 3281 H 286.612 0.91232 3.55067 0
M  V30 3282 H 286.26 -1.16874 4.89234 0
M  V30 3283 H 285.96 0.29076 5.8688 0
M  V30 3284 H 287.484 -0.618678 6.07458 0
M  V30 3285 H 288.898 1.58161 5.51052 0
M  V30 3286 H 287.295 2.37279 5.51197 0
M  V30 3287 H 288.365 2.56957 4.11219 0
M  V30 3288 N 289.708 -1.40897 0.706093 0
M  V30 3289 C 290.618 -2.3455 0.0482286 0
M  V30 3290 C 291.634 -1.56796 -0.754396 0
M  V30 3291 O 292.81 -1.89228 -0.689538 0
M  V30 3292 C 289.875 -3.35625 -0.869303 0
M  V30 3293 C 288.936 -4.29261 -0.0576994 0
M  V30 3294 C 288.169 -5.25508 -0.931531 0
M  V30 3295 O 288.392 -5.27472 -2.17092 0
M  V30 3296 O 287.326 -6.00727 -0.375587 0
M  V30 3297 H 291.152 -2.92407 0.820476 0
M  V30 3298 H 288.737 -1.4193 0.4665 0
M  V30 3299 H 290.619 -3.97635 -1.39514 0
M  V30 3300 H 289.294 -2.80196 -1.62086 0
M  V30 3301 H 288.201 -3.70566 0.512988 0
M  V30 3302 H 289.534 -4.87817 0.655426 0
M  V30 3303 N 291.186 -0.45159 -1.50991 0
M  V30 3304 C 292.133 0.352625 -2.2809 0
M  V30 3305 C 293.103 1.0044 -1.32291 0
M  V30 3306 O 294.288 1.02058 -1.6121 0
M  V30 3307 C 291.428 1.43983 -3.13629 0
M  V30 3308 C 290.541 0.804772 -4.24438 0
M  V30 3309 C 289.676 1.86822 -4.97263 0
M  V30 3310 C 288.715 1.21236 -5.99973 0
M  V30 3311 N 287.852 2.2178 -6.66152 0
M  V30 3312 H 292.692 -0.311186 -2.96371 0
M  V30 3313 H 290.229 -0.165308 -1.46168 0
M  V30 3314 H 292.187 2.08161 -3.61559 0
M  V30 3315 H 290.817 2.07307 -2.47434 0
M  V30 3316 H 289.869 0.0509129 -3.80366 0
M  V30 3317 H 291.181 0.286076 -4.97979 0
M  V30 3318 H 290.335 2.58628 -5.48813 0
M  V30 3319 H 289.074 2.42068 -4.23385 0
M  V30 3320 H 288.079 0.479828 -5.47702 0
M  V30 3321 H 289.304 0.667051 -6.75816 0
M  V30 3322 H 287.25 2.76079 -5.95077 0
M  V30 3323 H 287.167 1.74841 -7.35504 0
M  V30 3324 H 288.435 2.93026 -7.22327 0
M  V30 3325 N 292.664 1.56529 -0.183458 0
M  V30 3326 C 293.612 2.19873 0.758845 0
M  V30 3327 C 294.606 1.16638 1.22849 0
M  V30 3328 O 295.812 1.3481 1.19274 0
M  V30 3329 H 292.187 0.7045 0.263029 0
M  V30 3330 H 294.158 2.97724 0.200755 0
M  V30 3331 C 292.907 2.86314 1.9728 0
M  V30 3332 H 292.23 3.65487 1.62047 0
M  V30 3333 H 293.67 3.3409 2.61075 0
M  V30 3334 C 292.129 1.86729 2.80418 0
M  V30 3335 O 292.659 1.36031 3.77966 0
M  V30 3336 N 290.865 1.55216 2.45675 0
M  V30 3337 H 290.412 1.96636 1.66409 0
M  V30 3338 H 290.37 0.888388 3.01588 0
M  V30 3339 N 294.142 -0.090211 1.57342 0
M  V30 3340 C 295.072 -1.10976 2.05443 0
M  V30 3341 C 296.053 -1.41482 0.944284 0
M  V30 3342 O 297.238 -1.51428 1.21586 0
M  V30 3343 C 294.368 -2.42831 2.48295 0
M  V30 3344 C 293.322 -2.26721 3.63018 0
M  V30 3345 C 292.648 -3.63796 3.91863 0
M  V30 3346 C 293.948 -1.7037 4.93732 0
M  V30 3347 H 295.642 -0.709564 2.9087 0
M  V30 3348 H 293.188 -0.339874 1.39932 0
M  V30 3349 H 295.141 -3.14431 2.80555 0
M  V30 3350 H 293.865 -2.84795 1.59873 0
M  V30 3351 H 292.524 -1.57565 3.31012 0
M  V30 3352 H 292.172 -4.03297 3.00601 0
M  V30 3353 H 291.872 -3.53861 4.69101 0
M  V30 3354 H 293.396 -4.36855 4.26603 0
M  V30 3355 H 294.81 -2.31816 5.24342 0
M  V30 3356 H 293.207 -1.71181 5.75167 0
M  V30 3357 H 294.277 -0.663542 4.80339 0
M  V30 3358 N 295.62 -1.53406 -0.361157 0
M  V30 3359 C 297.031 -1.61442 -0.937728 0
M  V30 3360 C 297.382 -0.48461 -1.90121 0
M  V30 3361 O 296.507 0.388312 -2.12888 0
M  V30 3362 C 297.102 -2.92624 -1.70753 0
M  V30 3363 C 295.661 -3.02981 -2.23337 0
M  V30 3364 C 294.808 -2.5677 -1.04712 0
M  V30 3365 H 297.759 -1.58083 -0.139816 0
M  V30 3366 H 297.78 -2.80675 -2.56908 0
M  V30 3367 H 297.292 -3.74834 -1.00604 0
M  V30 3368 H 295.393 -2.25368 -2.96715 0
M  V30 3369 H 295.506 -4.0814 -2.50916 0
M  V30 3370 H 293.87 -2.11752 -1.41539 0
M  V30 3371 H 294.653 -3.41402 -0.360539 0
M  V30 3372 N 297.098 0.621204 -1.44841 0
M  V30 3373 C 298.344 1.3826 -1.48365 0
M  V30 3374 C 298.677 1.93831 -0.119624 0
M  V30 3375 O 297.952 1.74251 0.864111 0
M  V30 3376 C 298.235 2.54058 -2.55199 0
M  V30 3377 C 298.088 2.03772 -4.00995 0
M  V30 3378 C 299.407 3.56225 -2.58442 0
M  V30 3379 H 296.526 0.501374 -0.540179 0
M  V30 3380 H 299.168 0.7015 -1.76576 0
M  V30 3381 H 297.318 3.12162 -2.31274 0
M  V30 3382 H 298.99 1.50423 -4.36086 0
M  V30 3383 H 297.233 1.34876 -4.12299 0
M  V30 3384 H 297.904 2.87185 -4.71411 0
M  V30 3385 H 300.38 3.07939 -2.79844 0
M  V30 3386 H 299.256 4.34756 -3.3508 0
M  V30 3387 H 299.517 4.10949 -1.63013 0
M  V30 3388 N 298.576 1.31904 0.862503 0
M  V30 3389 C 299.801 1.25135 1.65397 0
M  V30 3390 C 300.226 -0.179 1.87246 0
M  V30 3391 O 299.584 -1.1277 1.4196 0
M  V30 3392 C 299.632 2.00832 2.99498 0
M  V30 3393 O 298.736 1.35075 3.89652 0
M  V30 3394 H 298.077 0.431655 0.504549 0
M  V30 3395 H 300.607 1.74094 1.07483 0
M  V30 3396 H 300.617 2.10709 3.49379 0
M  V30 3397 H 299.292 3.04847 2.82916 0
M  V30 3398 H 297.869 1.33696 3.48109 0
M  V30 3399 N 300.054 -1.07777 1.14986 0
M  V30 3400 C 301.282 -1.84018 0.945773 0
M  V30 3401 C 301.697 -1.81897 -0.505863 0
M  V30 3402 O 301.054 -1.22726 -1.35072 0
M  V30 3403 C 301.105 -3.31287 1.44677 0
M  V30 3404 O 300.826 -3.33449 2.84154 0
M  V30 3405 C 302.327 -4.24311 1.28355 0
M  V30 3406 H 299.547 -0.580716 0.336169 0
M  V30 3407 H 302.091 -1.36077 1.52654 0
M  V30 3408 H 300.246 -3.76594 0.908625 0
M  V30 3409 H 300.66 -4.25427 3.06777 0
M  V30 3410 H 302.134 -5.2573 1.68261 0
M  V30 3411 H 302.611 -4.38612 0.227184 0
M  V30 3412 H 303.217 -3.84836 1.81056 0
M  V30 3413 N 301.532 -0.945985 -1.26051 0
M  V30 3414 C 302.778 -0.597002 -1.93814 0
M  V30 3415 C 303.111 0.862484 -1.73997 0
M  V30 3416 O 302.386 1.61769 -1.07986 0
M  V30 3417 C 302.669 -0.945937 -3.47454 0
M  V30 3418 C 302.522 -2.46052 -3.76535 0
M  V30 3419 C 303.841 -0.464785 -4.37639 0
M  V30 3420 H 300.96 -0.218366 -0.703907 0
M  V30 3421 H 303.602 -1.18107 -1.48831 0
M  V30 3422 H 301.752 -0.448902 -3.85898 0
M  V30 3423 H 303.424 -3.03065 -3.47778 0
M  V30 3424 H 301.667 -2.90194 -3.22444 0
M  V30 3425 H 302.338 -2.65517 -4.83947 0
M  V30 3426 H 304.814 -0.891016 -4.06448 0
M  V30 3427 H 303.69 -0.737712 -5.4392 0
M  V30 3428 H 303.951 0.635274 -4.37512 0
M  V30 3429 N 303.011 1.40521 -0.713556 0
M  V30 3430 C 304.258 2.00923 -0.25219 0
M  V30 3431 C 304.586 1.56571 1.15395 0
M  V30 3432 O 303.841 0.775874 1.79663 0
M  V30 3433 C 304.14 3.56317 -0.278 0
M  V30 3434 C 303.806 4.20246 -1.63415 0
M  V30 3435 C 302.468 4.37422 -2.00538 0
M  V30 3436 C 304.82 4.55923 -2.52554 0
M  V30 3437 C 302.148 4.87558 -3.2635 0
M  V30 3438 C 304.5 5.07458 -3.77716 0
M  V30 3439 C 303.164 5.22843 -4.14959 0
M  V30 3440 H 302.434 0.735231 -0.0922829 0
M  V30 3441 H 305.081 1.68161 -0.916188 0
M  V30 3442 H 303.386 3.88976 0.469567 0
M  V30 3443 H 305.083 4.00883 0.0967819 0
M  V30 3444 H 301.673 4.07263 -1.33546 0
M  V30 3445 H 305.857 4.42291 -2.25149 0
M  V30 3446 H 301.113 4.97654 -3.55176 0
M  V30 3447 H 305.287 5.34041 -4.4696 0
M  V30 3448 H 302.914 5.61454 -5.12516 0
M  V30 3449 N 304.489 0.459591 1.5075 0
M  V30 3450 C 305.437 -0.354678 2.2988 0
M  V30 3451 C 306.431 -1.00086 1.36672 0
M  V30 3452 O 307.637 -0.933277 1.53915 0
M  V30 3453 H 304.012 -0.13321 0.740107 0
M  V30 3454 H 305.983 0.333269 2.96533 0
M  V30 3455 C 304.732 -1.43073 3.169 0
M  V30 3456 H 304.055 -0.942882 3.88523 0
M  V30 3457 H 305.495 -1.97328 3.75284 0
M  V30 3458 C 303.954 -2.42633 2.33732 0
M  V30 3459 O 304.484 -3.47658 2.01238 0
M  V30 3460 N 302.69 -2.14066 1.9653 0
M  V30 3461 H 302.237 -1.28685 2.23155 0
M  V30 3462 H 302.195 -2.80917 1.41185 0
M  V30 3463 N 305.967 -1.56429 0.191757 0
M  V30 3464 C 307.378 -1.83912 -0.321428 0
M  V30 3465 C 307.729 -1.11231 -1.61623 0
M  V30 3466 O 306.854 -0.37202 -2.13178 0
M  V30 3467 C 307.449 -3.33624 -0.589961 0
M  V30 3468 C 306.008 -3.6153 -1.04753 0
M  V30 3469 C 305.155 -2.7714 -0.0943327 0
M  V30 3470 H 308.106 -1.53161 0.415612 0
M  V30 3471 H 308.127 -3.52213 -1.43966 0
M  V30 3472 H 307.639 -3.86495 0.352588 0
M  V30 3473 H 305.74 -3.14089 -2.00447 0
M  V30 3474 H 305.853 -4.69737 -0.942549 0
M  V30 3475 H 304.217 -2.47638 -0.595589 0
M  V30 3476 H 305 -3.32799 0.842601 0
M  V30 3477 N 307.445 0.0818655 -1.57387 0
M  V30 3478 C 308.393 1.11712 -2.04018 0
M  V30 3479 C 309.387 1.40683 -0.94364 0
M  V30 3480 O 310.593 1.40209 -1.12878 0
M  V30 3481 H 306.968 0.377542 -0.650358 0
M  V30 3482 H 308.939 0.697614 -2.90131 0
M  V30 3483 C 307.688 2.42537 -2.49141 0
M  V30 3484 H 307.011 2.21092 -3.33104 0
M  V30 3485 H 308.451 3.13446 -2.85531 0
M  V30 3486 C 306.91 3.0778 -1.37014 0
M  V30 3487 O 307.44 3.95436 -0.706621 0
M  V30 3488 N 305.646 2.68242 -1.11779 0
M  V30 3489 H 305.193 1.97052 -1.65917 0
M  V30 3490 H 305.151 3.1222 -0.369594 0
M  V30 3491 N 308.923 1.53595 0.353017 0
M  V30 3492 C 309.833 1.83897 1.45667 0
M  V30 3493 C 310.849 0.728334 1.58023 0
M  V30 3494 O 312.025 1.01968 1.73679 0
M  V30 3495 C 309.09 2.03383 2.80778 0
M  V30 3496 C 308.151 3.27262 2.77845 0
M  V30 3497 C 307.384 3.45809 4.06512 0
M  V30 3498 O 307.607 2.68387 5.03314 0
M  V30 3499 O 306.541 4.39207 4.11559 0
M  V30 3500 H 310.367 2.77686 1.2298 0
M  V30 3501 H 307.952 1.39132 0.544308 0
M  V30 3502 H 309.834 2.17698 3.60812 0
M  V30 3503 H 308.509 1.12783 3.03417 0
M  V30 3504 H 307.416 3.18359 1.96465 0
M  V30 3505 H 308.749 4.17824 2.60161 0
M  V30 3506 N 310.401 -0.613514 1.45168 0
M  V30 3507 C 311.334 -1.73809 1.47871 0
M  V30 3508 C 312.312 -1.59097 0.33568 0
M  V30 3509 O 313.496 -1.8074 0.535299 0
M  V30 3510 C 310.623 -3.11574 1.32813 0
M  V30 3511 C 309.669 -3.4489 2.50905 0
M  V30 3512 S 310.502 -3.40393 4.13392 0
M  V30 3513 C 311.658 -4.80749 4.00789 0
M  V30 3514 H 311.891 -1.71252 2.43023 0
M  V30 3515 H 309.424 -0.789658 1.32679 0
M  V30 3516 H 311.382 -3.91065 1.24812 0
M  V30 3517 H 310.043 -3.11652 0.391418 0
M  V30 3518 H 309.236 -4.45183 2.36279 0
M  V30 3519 H 308.838 -2.72901 2.55736 0
M  V30 3520 H 311.13 -5.7041 3.65567 0
M  V30 3521 H 312.073 -5.00431 5.00974 0
M  V30 3522 H 312.481 -4.56151 3.32545 0
M  V30 3523 N 311.879 -1.3236 -0.855495 0
M  V30 3524 C 313.128 -1.22226 -1.60448 0
M  V30 3525 C 313.441 0.214733 -1.94418 0
M  V30 3526 O 314.647 0.437917 -2.67945 0
M  V30 3527 C 313.103 -2.14063 -2.89318 0
M  V30 3528 C 312.711 -3.62839 -2.62777 0
M  V30 3529 C 314.455 -2.12764 -3.67331 0
M  V30 3530 C 312.362 -4.4664 -3.87643 0
M  V30 3531 H 311.292 -0.453904 -0.602069 0
M  V30 3532 H 313.943 -1.57314 -0.944698 0
M  V30 3533 H 312.325 -1.71889 -3.5675 0
M  V30 3534 H 313.499 -4.1335 -2.03662 0
M  V30 3535 H 311.814 -3.66261 -1.98096 0
M  V30 3536 H 314.411 -2.72611 -4.59987 0
M  V30 3537 H 314.754 -1.11841 -4.00995 0
M  V30 3538 H 315.287 -2.53214 -3.06802 0
M  V30 3539 H 312.026 -5.48373 -3.5912 0
M  V30 3540 H 311.546 -4.0088 -4.46156 0
M  V30 3541 H 313.225 -4.59597 -4.55389 0
M  V30 3542 N 313.357 1.07166 -1.15556 0
M  V30 3543 C 314.634 1.76546 -0.842069 0
M  V30 3544 C 315.014 2.00453 0.661939 0
M  V30 3545 O 314.362 1.62452 1.60691 0
M  V30 3546 C 314.572 3.07266 -1.65495 0
M  V30 3547 C 315.92 3.81578 -1.86234 0
M  V30 3548 O 316.944 3.17083 -1.62287 0
M  V30 3549 O 315.803 4.97419 -2.26355 0
M  V30 3550 H 312.897 0.766756 -0.309862 0
M  V30 3551 H 315.443 1.13514 -1.26145 0
M  V30 3552 H 314.215 2.85494 -2.67598 0
M  V30 3553 H 313.838 3.7803 -1.23203 0
M  V30 3554 N 314.835 0.952656 1.25548 0
M  V30 3555 C 316.081 0.607272 1.93494 0
M  V30 3556 C 316.414 -0.853245 1.74452 0
M  V30 3557 O 315.689 -1.61194 1.08843 0
M  V30 3558 C 315.972 0.96435 3.46947 0
M  V30 3559 C 315.825 2.48045 3.75225 0
M  V30 3560 C 317.144 0.487987 4.37386 0
M  V30 3561 H 314.263 0.222096 0.702739 0
M  V30 3562 H 316.905 1.18895 1.48203 0
M  V30 3563 H 315.055 0.469361 3.85654 0
M  V30 3564 H 316.727 3.04905 3.46166 0
M  V30 3565 H 314.97 2.919 3.209 0
M  V30 3566 H 315.641 2.6808 4.82532 0
M  V30 3567 H 318.117 0.912558 4.0597 0
M  V30 3568 H 316.993 0.766547 5.43521 0
M  V30 3569 H 317.254 -0.612063 4.37843 0
M  V30 3570 N 316.313 -1.40141 0.720998 0
M  V30 3571 C 317.562 -2.0002 0.259804 0
M  V30 3572 C 317.875 -1.57839 -1.15526 0
M  V30 3573 O 319.081 -2.10455 -1.71525 0
M  V30 3574 C 317.537 -3.57516 0.413566 0
M  V30 3575 C 317.145 -4.08667 1.83562 0
M  V30 3576 C 318.889 -4.24498 0.0134387 0
M  V30 3577 C 316.796 -5.58686 1.93968 0
M  V30 3578 H 315.726 -0.748195 0.0933806 0
M  V30 3579 H 318.377 -1.60313 0.892866 0
M  V30 3580 H 316.759 -3.9495 -0.288169 0
M  V30 3581 H 317.933 -3.82598 2.56817 0
M  V30 3582 H 316.248 -3.543 2.1877 0
M  V30 3583 H 318.845 -5.34654 0.0703954 0
M  V30 3584 H 319.188 -4.03375 -1.02927 0
M  V30 3585 H 319.721 -3.92188 0.665815 0
M  V30 3586 H 316.46 -5.8467 2.96379 0
M  V30 3587 H 315.98 -5.86602 1.25131 0
M  V30 3588 H 317.659 -6.23875 1.71431 0
M  V30 3589 N 317.792 -0.46758 -1.50504 0
M  V30 3590 C 319.017 0.0886943 -2.0721 0
M  V30 3591 C 319.442 1.33057 -1.32956 0
M  V30 3592 O 318.8 1.77354 -0.376197 0
M  V30 3593 C 318.848 0.359202 -3.58806 0
M  V30 3594 O 317.952 1.44034 -3.8643 0
M  V30 3595 H 317.293 -0.0114349 -0.663902 0
M  V30 3596 H 319.823 -0.657613 -1.93744 0
M  V30 3597 H 319.833 0.600742 -4.03553 0
M  V30 3598 H 318.508 -0.548311 -4.1227 0
M  V30 3599 H 317.085 1.18638 -3.53524 0
M  V30 3600 N 319.27 1.56325 -0.20005 0
M  V30 3601 C 320.516 1.98012 0.438059 0
M  V30 3602 C 320.849 1.08702 1.60927 0
M  V30 3603 O 320.124 0.140064 1.93995 0
M  V30 3604 C 320.407 3.48841 0.893419 0
M  V30 3605 C 320.26 4.48928 -0.279947 0
M  V30 3606 C 321.579 4.03498 1.75719 0
M  V30 3607 H 318.698 0.719918 0.157757 0
M  V30 3608 H 321.34 1.87743 -0.291968 0
M  V30 3609 H 319.49 3.57723 1.51547 0
M  V30 3610 H 321.162 4.52079 -0.91772 0
M  V30 3611 H 319.405 4.23694 -0.930919 0
M  V30 3612 H 320.076 5.5194 0.0812601 0
M  V30 3613 H 322.552 3.97427 1.23253 0
M  V30 3614 H 321.428 5.09393 2.04476 0
M  V30 3615 H 321.689 3.4906 2.71311 0
M  V30 3616 N 320.748 -0.0735177 1.57428 0
M  V30 3617 C 321.976 -0.785969 1.9139 0
M  V30 3618 C 322.391 -1.71207 0.795847 0
M  V30 3619 O 321.748 -1.81033 -0.230915 0
M  V30 3620 C 321.799 -1.58107 3.25091 0
M  V30 3621 O 321.52 -0.6922 4.32597 0
M  V30 3622 C 323.021 -2.39467 3.73055 0
M  V30 3623 H 320.241 -0.223558 0.632663 0
M  V30 3624 H 322.785 -0.044302 2.04452 0
M  V30 3625 H 320.94 -2.27503 3.13562 0
M  V30 3626 H 321.354 -1.24504 5.09508 0
M  V30 3627 H 322.828 -2.90716 4.69242 0
M  V30 3628 H 323.305 -3.18913 3.01979 0
M  V30 3629 H 323.911 -1.7523 3.87523 0
M  V30 3630 N 322.226 -1.5378 -0.344866 0
M  V30 3631 C 323.173 -1.81676 -1.42346 0
M  V30 3632 C 324.143 -0.662376 -1.52321 0
M  V30 3633 O 325.328 -0.906675 -1.67881 0
M  V30 3634 C 322.468 -2.03087 -2.79015 0
M  V30 3635 C 321.581 -3.30799 -2.77842 0
M  V30 3636 C 320.716 -3.42285 -4.0622 0
M  V30 3637 C 319.755 -4.6395 -3.9927 0
M  V30 3638 N 318.892 -4.72477 -5.19336 0
M  V30 3639 H 323.732 -2.73703 -1.17858 0
M  V30 3640 H 321.269 -1.35568 -0.570949 0
M  V30 3641 H 323.227 -2.1349 -3.58438 0
M  V30 3642 H 321.857 -1.14375 -3.01858 0
M  V30 3643 H 320.909 -3.29244 -1.90533 0
M  V30 3644 H 322.221 -4.20314 -2.68584 0
M  V30 3645 H 321.375 -3.52113 -4.94066 0
M  V30 3646 H 320.114 -2.50823 -4.18258 0
M  V30 3647 H 319.119 -4.54201 -3.09809 0
M  V30 3648 H 320.344 -5.56775 -3.88817 0
M  V30 3649 H 318.29 -3.83924 -5.3192 0
M  V30 3650 H 318.207 -5.55927 -5.12329 0
M  V30 3651 H 319.475 -4.86613 -6.08957 0
M  V30 3652 N 323.704 0.605807 -1.45491 0
M  V30 3653 C 324.952 1.36207 -1.49305 0
M  V30 3654 C 325.273 1.94519 -0.136863 0
M  V30 3655 O 324.543 1.77261 0.833983 0
M  V30 3656 H 323.123 0.50565 -0.549843 0
M  V30 3657 H 325.785 0.711239 -1.81459 0
M  V30 3658 H 324.881 2.18058 -2.23287 0
M  V30 3659 N 325.182 1.32811 0.848464 0
M  V30 3660 C 326.132 1.18842 1.94578 0
M  V30 3661 C 327.116 0.0937517 1.60627 0
M  V30 3662 O 328.308 0.320887 1.74067 0
M  V30 3663 C 325.437 0.91999 3.30743 0
M  V30 3664 C 324.523 2.05665 3.70894 0
M  V30 3665 N 324.914 3.30579 3.8282 0
M  V30 3666 C 323.212 1.9612 4.00566 0
M  V30 3667 C 323.913 4.05067 4.17487 0
M  V30 3668 N 322.889 3.33419 4.2934 0
M  V30 3669 H 326.691 2.13536 2.0194 0
M  V30 3670 H 324.205 1.2468 1.0406 0
M  V30 3671 H 326.202 0.800859 4.09136 0
M  V30 3672 H 324.862 -0.0185076 3.24695 0
M  V30 3673 H 325.873 3.65441 3.66978 0
M  V30 3674 H 322.55 1.09871 4.02784 0
M  V30 3675 H 323.94 5.12815 4.34131 0
M  V30 3676 N 326.66 -1.06551 1.16123 0
M  V30 3677 C 327.908 -1.78947 0.939267 0
M  V30 3678 C 328.229 -1.87532 -0.534476 0
M  V30 3679 O 327.499 -1.38211 -1.38833 0
M  V30 3680 H 326.079 -0.662807 0.344523 0
M  V30 3681 H 328.741 -1.28725 1.46342 0
M  V30 3682 H 327.837 -2.81117 1.35572 0
M  V30 3683 N 328.138 -0.959301 -1.25041 0
M  V30 3684 C 329.366 -0.633949 -1.96948 0
M  V30 3685 C 329.781 0.794916 -1.7125 0
M  V30 3686 O 329.138 1.53231 -0.991287 0
M  V30 3687 C 329.189 -0.888805 -3.50403 0
M  V30 3688 O 328.91 -2.26149 -3.75218 0
M  V30 3689 C 330.411 -0.576482 -4.39536 0
M  V30 3690 H 327.631 -0.237263 -0.627652 0
M  V30 3691 H 330.175 -1.28495 -1.59089 0
M  V30 3692 H 328.33 -0.284145 -3.86357 0
M  V30 3693 H 328.744 -2.33514 -4.6965 0
M  V30 3694 H 330.218 -0.805314 -5.46094 0
M  V30 3695 H 330.695 0.489075 -4.36468 0
M  V30 3696 H 331.301 -1.16067 -4.09156 0
M  V30 3697 N 329.616 1.39756 -0.72842 0
M  V30 3698 C 330.563 2.30647 -0.0841519 0
M  V30 3699 C 331.533 1.48869 0.7367 0
M  V30 3700 O 332.718 1.77574 0.698015 0
M  V30 3701 C 329.858 3.35165 0.822091 0
M  V30 3702 C 328.971 4.31999 -0.0106663 0
M  V30 3703 C 328.106 5.23585 0.896241 0
M  V30 3704 C 327.145 6.12072 0.0583381 0
M  V30 3705 N 326.282 6.96035 0.920818 0
M  V30 3706 H 331.122 2.85173 -0.864891 0
M  V30 3707 H 328.659 1.40422 -0.438179 0
M  V30 3708 H 330.617 3.94345 1.36189 0
M  V30 3709 H 329.247 2.8211 1.56888 0
M  V30 3710 H 328.299 3.74492 -0.66781 0
M  V30 3711 H 329.611 4.9443 -0.658825 0
M  V30 3712 H 328.765 5.87759 1.50412 0
M  V30 3713 H 327.504 4.61459 1.57819 0
M  V30 3714 H 326.509 5.46916 -0.562389 0
M  V30 3715 H 327.734 6.76261 -0.6203 0
M  V30 3716 H 325.68 6.36485 1.58818 0
M  V30 3717 H 325.597 7.55284 0.32899 0
M  V30 3718 H 326.865 7.64646 1.51447 0
M  V30 3719 N 331.094 0.475555 1.50254 0
M  V30 3720 C 332.342 -0.077738 2.0195 0
M  V30 3721 C 332.663 -1.39813 1.35931 0
M  V30 3722 O 331.933 -1.89249 0.506123 0
M  V30 3723 H 330.513 -0.031719 0.746326 0
M  V30 3724 H 333.175 0.626995 1.84539 0
M  V30 3725 H 332.271 -0.225995 3.11281 0
M  V30 3726 N 332.573 -1.56217 0.208337 0
M  V30 3727 C 333.819 -1.98242 -0.427552 0
M  V30 3728 C 334.152 -1.09554 -1.60348 0
M  V30 3729 O 333.427 -0.15035 -1.93918 0
M  V30 3730 C 333.71 -3.4931 -0.874907 0
M  V30 3731 C 333.563 -4.48773 0.303751 0
M  V30 3732 C 334.882 -4.04424 -1.73577 0
M  V30 3733 H 332.001 -0.720744 -0.153936 0
M  V30 3734 H 334.643 -1.87586 0.30192 0
M  V30 3735 H 332.793 -3.58522 -1.49648 0
M  V30 3736 H 334.465 -4.51586 0.941682 0
M  V30 3737 H 332.708 -4.23194 0.953375 0
M  V30 3738 H 333.379 -5.51976 -0.0519883 0
M  V30 3739 H 335.855 -3.98075 -1.21143 0
M  V30 3740 H 334.731 -5.1047 -2.01771 0
M  V30 3741 H 334.992 -3.50494 -2.69456 0
M  V30 3742 N 334.051 0.0651679 -1.57465 0
M  V30 3743 C 335.297 0.764193 -1.87851 0
M  V30 3744 C 335.63 1.76889 -0.801495 0
M  V30 3745 O 334.905 1.93594 0.187528 0
M  V30 3746 C 335.188 1.46625 -3.28897 0
M  V30 3747 C 335.041 0.477515 -4.47258 0
M  V30 3748 C 336.36 2.4095 -3.68281 0
M  V30 3749 H 333.479 0.276351 -0.683227 0
M  V30 3750 H 336.121 0.0272868 -1.8998 0
M  V30 3751 H 334.271 2.09438 -3.27212 0
M  V30 3752 H 335.943 -0.145922 -4.61069 0
M  V30 3753 H 334.186 -0.206576 -4.33308 0
M  V30 3754 H 334.857 1.0065 -5.42746 0
M  V30 3755 H 337.333 1.88209 -3.71102 0
M  V30 3756 H 336.209 2.87072 -4.67847 0
M  V30 3757 H 336.47 3.26049 -2.98571 0
M  V30 3758 N 335.529 1.53961 0.336706 0
M  V30 3759 C 336.754 1.75797 1.10046 0
M  V30 3760 C 337.179 0.498985 1.81361 0
M  V30 3761 O 336.537 -0.548769 1.72795 0
M  V30 3762 C 336.585 2.94257 2.08436 0
M  V30 3763 O 335.689 2.64883 3.16087 0
M  V30 3764 H 335.03 0.582936 0.317934 0
M  V30 3765 H 337.56 2.00945 0.38501 0
M  V30 3766 H 337.57 3.21237 2.51537 0
M  V30 3767 H 336.245 3.85564 1.55927 0
M  V30 3768 H 334.822 2.48812 2.77753 0
M  V30 3769 N 337.007 -0.598083 1.45811 0
M  V30 3770 C 338.423 -0.919847 1.30426 0
M  V30 3771 C 338.623 -1.99759 0.264303 0
M  V30 3772 O 337.679 -2.50221 -0.338472 0
M  V30 3773 C 338.992 -1.35176 2.68603 0
M  V30 3774 C 340.54 -1.46546 2.76574 0
M  V30 3775 C 341.015 -1.9311 4.15298 0
M  V30 3776 N 342.506 -2.00328 4.1764 0
M  V30 3777 C 343.241 -2.37599 5.21856 0
M  V30 3778 N 342.737 -2.73771 6.36413 0
M  V30 3779 N 344.53 -2.38021 5.09218 0
M  V30 3780 H 336.681 0.114111 2.12093 0
M  V30 3781 H 338.944 -0.0116121 0.947929 0
M  V30 3782 H 338.65 -0.633969 3.45939 0
M  V30 3783 H 338.524 -2.3164 2.97696 0
M  V30 3784 H 340.911 -2.17415 1.99537 0
M  V30 3785 H 340.992 -0.483727 2.51185 0
M  V30 3786 H 340.636 -1.22824 4.92825 0
M  V30 3787 H 340.566 -2.92213 4.38086 0
M  V30 3788 H 343.057 -1.74925 3.34977 0
M  V30 3789 H 343.37 -3.0112 7.11721 0
M  V30 3790 H 341.715 -2.71445 6.39799 0
M  V30 3791 H 344.906 -2.09174 4.18765 0
M  V30 3792 H 345.079 -2.66741 5.90554 0
M  V30 3793 N 338.485 -1.33259 -0.841409 0
M  V30 3794 C 339.715 -1.2742 -1.62628 0
M  V30 3795 C 340.123 0.157604 -1.88542 0
M  V30 3796 O 339.466 1.10938 -1.46419 0
M  V30 3797 C 339.528 -1.97797 -3.00194 0
M  V30 3798 C 339.192 -3.47109 -2.97261 0
M  V30 3799 C 340.189 -4.42358 -2.73159 0
M  V30 3800 C 337.874 -3.89247 -3.17478 0
M  V30 3801 C 339.868 -5.77718 -2.69296 0
M  V30 3802 C 337.555 -5.24713 -3.13241 0
M  V30 3803 C 338.553 -6.1876 -2.89181 0
M  V30 3804 O 338.241 -7.51745 -2.84843 0
M  V30 3805 H 337.973 -0.440436 -0.512827 0
M  V30 3806 H 340.527 -1.76153 -1.05638 0
M  V30 3807 H 338.757 -1.43652 -3.59028 0
M  V30 3808 H 340.446 -1.8549 -3.61038 0
M  V30 3809 H 341.212 -4.11127 -2.57294 0
M  V30 3810 H 337.091 -3.16456 -3.35226 0
M  V30 3811 H 340.635 -6.51097 -2.50436 0
M  V30 3812 H 336.532 -5.55569 -3.28654 0
M  V30 3813 H 337.3 -7.61262 -3.00702 0
M  V30 3814 N 339.963 1.05934 -1.16686 0
M  V30 3815 C 341.211 1.78447 -0.948744 0
M  V30 3816 C 341.532 1.87813 0.524523 0
M  V30 3817 O 340.802 1.38945 1.38098 0
M  V30 3818 H 339.382 0.660971 -0.348033 0
M  V30 3819 H 342.044 1.27947 -1.47022 0
M  V30 3820 H 341.14 2.80394 -1.37061 0
M  V30 3821 N 341.441 0.965919 1.2453 0
M  V30 3822 C 342.687 0.62776 1.92839 0
M  V30 3823 C 343.02 -0.834694 1.75347 0
M  V30 3824 O 342.295 -1.60031 1.10546 0
M  V30 3825 C 342.578 1.00109 3.45905 0
M  V30 3826 C 342.431 2.52011 3.72573 0
M  V30 3827 C 343.75 0.53435 4.36844 0
M  V30 3828 H 340.869 0.229537 0.700344 0
M  V30 3829 H 343.511 1.2046 1.46933 0
M  V30 3830 H 341.661 0.510238 3.85135 0
M  V30 3831 H 343.333 3.08559 3.42912 0
M  V30 3832 H 341.576 2.95287 3.17786 0
M  V30 3833 H 342.247 2.73183 4.79661 0
M  V30 3834 H 344.723 0.955565 4.04979 0
M  V30 3835 H 343.599 0.824152 5.42678 0
M  V30 3836 H 343.86 -0.565589 4.38467 0
M  V30 3837 N 342.919 -1.39368 0.735821 0
M  V30 3838 C 343.866 -2.30599 0.0963825 0
M  V30 3839 C 344.836 -1.49257 -0.728794 0
M  V30 3840 O 346.021 -1.77941 -0.688588 0
M  V30 3841 C 343.161 -3.35596 -0.804305 0
M  V30 3842 C 342.274 -4.31987 0.0335761 0
M  V30 3843 C 341.409 -5.24053 -0.868461 0
M  V30 3844 C 340.448 -6.12095 -0.0258776 0
M  V30 3845 N 339.585 -6.96514 -0.883893 0
M  V30 3846 H 344.425 -2.8471 0.880002 0
M  V30 3847 H 341.962 -1.40188 0.445619 0
M  V30 3848 H 343.92 -3.95062 -1.34096 0
M  V30 3849 H 342.55 -2.82938 -1.55389 0
M  V30 3850 H 341.602 -3.74133 0.68766 0
M  V30 3851 H 342.914 -4.94074 0.685036 0
M  V30 3852 H 342.068 -5.88549 -1.47293 0
M  V30 3853 H 340.807 -4.62289 -1.5537 0
M  V30 3854 H 339.812 -5.4661 0.591386 0
M  V30 3855 H 341.037 -6.75923 0.656156 0
M  V30 3856 H 338.983 -6.37318 -1.55441 0
M  V30 3857 H 338.9 -7.55448 -0.288931 0
M  V30 3858 H 340.168 -7.65439 -1.4739 0
M  V30 3859 N 344.397 -0.483516 -1.5 0
M  V30 3860 C 345.813 -0.138404 -1.58999 0
M  V30 3861 C 346.013 1.35597 -1.4905 0
M  V30 3862 O 345.069 2.13039 -1.35539 0
M  V30 3863 C 346.382 -0.699658 -2.92447 0
M  V30 3864 C 347.93 -0.664195 -3.05872 0
M  V30 3865 C 348.405 -1.20321 -4.41913 0
M  V30 3866 N 349.896 -1.16315 -4.48358 0
M  V30 3867 C 350.631 -1.55058 -5.52037 0
M  V30 3868 N 350.127 -2.01311 -6.62907 0
M  V30 3869 N 351.92 -1.46584 -5.42651 0
M  V30 3870 H 344.071 -1.45529 -1.5471 0
M  V30 3871 H 346.334 -0.60258 -0.731848 0
M  V30 3872 H 346.04 -1.747 -3.05242 0
M  V30 3873 H 345.914 -0.150194 -3.76901 0
M  V30 3874 H 348.301 0.374272 -2.92717 0
M  V30 3875 H 348.382 -1.25061 -2.23144 0
M  V30 3876 H 348.026 -2.24037 -4.55818 0
M  V30 3877 H 347.956 -0.592896 -5.23252 0
M  V30 3878 H 350.447 -0.824058 -3.68806 0
M  V30 3879 H 350.76 -2.2899 -7.38095 0
M  V30 3880 H 349.105 -2.05273 -6.63994 0
M  V30 3881 H 352.296 -1.10281 -4.54924 0
M  V30 3882 H 352.469 -1.77103 -6.23329 0
M  V30 3883 N 345.875 1.56104 -0.216619 0
M  V30 3884 C 346.805 2.23063 0.690296 0
M  V30 3885 C 347.786 1.20072 1.20485 0
M  V30 3886 O 348.971 1.48643 1.24976 0
M  V30 3887 C 346.101 2.90672 1.90072 0
M  V30 3888 C 345.055 4.00092 1.5202 0
M  V30 3889 C 344.381 4.54972 2.80899 0
M  V30 3890 C 345.681 5.17398 0.71391 0
M  V30 3891 H 347.375 2.99109 0.132038 0
M  V30 3892 H 344.921 1.43866 0.0620664 0
M  V30 3893 H 346.874 3.36204 2.54057 0
M  V30 3894 H 345.598 2.12066 2.48386 0
M  V30 3895 H 344.257 3.55283 0.903839 0
M  V30 3896 H 343.905 3.73102 3.37348 0
M  V30 3897 H 343.605 5.28817 2.56176 0
M  V30 3898 H 345.129 5.0322 3.45836 0
M  V30 3899 H 346.543 5.59342 1.25735 0
M  V30 3900 H 344.94 5.97444 0.563951 0
M  V30 3901 H 346.01 4.84088 -0.280527 0
M  V30 3902 N 347.353 -0.0568162 1.57498 0
M  V30 3903 C 348.764 -0.606858 1.76562 0
M  V30 3904 C 349.115 -1.77114 0.844094 0
M  V30 3905 O 348.24 -2.16376 0.0318911 0
M  V30 3906 C 348.835 -1.10766 3.20182 0
M  V30 3907 C 347.394 -1.60344 3.40539 0
M  V30 3908 C 346.541 -0.529311 2.72201 0
M  V30 3909 H 349.492 0.169393 1.57793 0
M  V30 3910 H 349.513 -1.97602 3.25167 0
M  V30 3911 H 349.025 -0.26006 3.87228 0
M  V30 3912 H 347.126 -2.47379 2.78629 0
M  V30 3913 H 347.239 -1.67006 4.4905 0
M  V30 3914 H 345.603 -0.977893 2.35179 0
M  V30 3915 H 346.386 0.308352 3.41912 0
M  V30 3916 N 348.832 -1.54138 -0.328536 0
M  V30 3917 C 350.248 -1.44736 -0.672574 0
M  V30 3918 C 350.448 -0.616217 -1.91846 0
M  V30 3919 O 349.504 -0.113067 -2.52247 0
M  V30 3920 C 350.817 -2.884 -0.851217 0
M  V30 3921 C 352.365 -2.98271 -0.948877 0
M  V30 3922 C 352.84 -4.43074 -1.15973 0
M  V30 3923 N 354.331 -4.46665 -1.22658 0
M  V30 3924 C 355.066 -5.55857 -1.40751 0
M  V30 3925 N 354.562 -6.75026 -1.5592 0
M  V30 3926 N 356.355 -5.43495 -1.4342 0
M  V30 3927 H 348.506 -2.06661 0.490421 0
M  V30 3928 H 350.769 -0.934812 0.157579 0
M  V30 3929 H 350.475 -3.51699 -0.00704236 0
M  V30 3930 H 350.349 -3.34225 -1.74853 0
M  V30 3931 H 352.736 -2.35102 -1.78356 0
M  V30 3932 H 352.817 -2.55785 -0.0281435 0
M  V30 3933 H 352.461 -5.06827 -0.329915 0
M  V30 3934 H 352.391 -4.83165 -2.09426 0
M  V30 3935 H 354.882 -3.60797 -1.124 0
M  V30 3936 H 355.195 -7.54004 -1.69404 0
M  V30 3937 H 353.54 -6.77944 -1.53027 0
M  V30 3938 H 356.731 -4.49349 -1.31162 0
M  V30 3939 H 356.904 -6.28649 -1.57178 0
M  V30 3940 N 350.31 0.590341 -1.46126 0
M  V30 3941 C 351.257 1.69994 -1.56111 0
M  V30 3942 C 352.227 1.61065 -0.405867 0
M  V30 3943 O 353.412 1.8039 -0.621613 0
M  V30 3944 C 350.552 3.08326 -1.55013 0
M  V30 3945 C 349.665 3.27936 -2.81215 0
M  V30 3946 C 348.8 4.56473 -2.71673 0
M  V30 3947 C 347.839 4.694 -3.92849 0
M  V30 3948 N 346.976 5.89254 -3.81738 0
M  V30 3949 H 351.816 1.60797 -2.50895 0
M  V30 3950 H 349.353 0.783799 -1.24479 0
M  V30 3951 H 351.311 3.88383 -1.52362 0
M  V30 3952 H 349.941 3.16439 -0.637667 0
M  V30 3953 H 348.993 2.41536 -2.93879 0
M  V30 3954 H 350.305 3.33357 -3.71045 0
M  V30 3955 H 349.459 5.44748 -2.67085 0
M  V30 3956 H 348.198 4.53477 -1.7947 0
M  V30 3957 H 347.203 3.79544 -3.97777 0
M  V30 3958 H 348.428 4.7418 -4.86138 0
M  V30 3959 H 346.374 5.87271 -2.92317 0
M  V30 3960 H 346.291 5.95911 -4.65217 0
M  V30 3961 H 347.559 6.79981 -3.81112 0
M  V30 3962 N 351.788 1.33704 0.83433 0
M  V30 3963 C 353.016 1.28467 1.62185 0
M  V30 3964 C 353.431 -0.143526 1.88254 0
M  V30 3965 O 352.788 -1.08709 1.4659 0
M  V30 3966 C 352.839 2.06174 2.96942 0
M  V30 3967 O 352.56 3.43422 2.72016 0
M  V30 3968 C 354.061 2.08201 3.91366 0
M  V30 3969 H 351.281 0.4424 0.504503 0
M  V30 3970 H 353.825 1.76145 1.03891 0
M  V30 3971 H 351.98 1.62167 3.51825 0
M  V30 3972 H 352.394 3.83453 3.57861 0
M  V30 3973 H 353.868 2.67017 4.83121 0
M  V30 3974 H 354.345 1.07343 4.2588 0
M  V30 3975 H 354.951 2.52246 3.42421 0
M  V30 3976 N 353.266 -1.05314 1.17247 0
M  V30 3977 C 354.216 -2.11313 0.856196 0
M  V30 3978 C 355.2 -1.60013 -0.168694 0
M  V30 3979 O 356.392 -1.76968 0.0335624 0
M  V30 3980 C 353.521 -3.41301 0.369917 0
M  V30 3981 C 352.607 -3.99401 1.42616 0
M  V30 3982 N 352.998 -4.31481 2.63928 0
M  V30 3983 C 351.296 -4.27126 1.28373 0
M  V30 3984 C 351.997 -4.77799 3.31787 0
M  V30 3985 N 350.973 -4.77843 2.59166 0
M  V30 3986 H 354.775 -2.33976 1.77856 0
M  V30 3987 H 352.289 -1.2295 1.06099 0
M  V30 3988 H 354.286 -4.16713 0.124897 0
M  V30 3989 H 352.946 -3.20072 -0.546253 0
M  V30 3990 H 353.957 -4.21519 3.00902 0
M  V30 3991 H 350.634 -4.15289 0.429111 0
M  V30 3992 H 352.024 -5.11743 4.35395 0
M  V30 3993 N 354.744 -0.972509 -1.24016 0
M  V30 3994 C 356.16 -0.679827 -1.44397 0
M  V30 3995 C 356.36 0.756716 -1.86751 0
M  V30 3996 O 355.416 1.53007 -2.00861 0
M  V30 3997 C 356.729 -1.66803 -2.50195 0
M  V30 3998 C 358.277 -1.68119 -2.64017 0
M  V30 3999 C 358.752 -2.65748 -3.73017 0
M  V30 4000 N 360.243 -2.64219 -3.8045 0
M  V30 4001 C 360.978 -3.36433 -4.64328 0
M  V30 4002 N 360.474 -4.1818 -5.52356 0
M  V30 4003 N 362.267 -3.25235 -4.58453 0
M  V30 4004 H 354.418 -1.90059 -0.948228 0
M  V30 4005 H 356.681 -0.818527 -0.478245 0
M  V30 4006 H 356.387 -2.69498 -2.25973 0
M  V30 4007 H 356.261 -1.4446 -3.48441 0
M  V30 4008 H 358.648 -0.661319 -2.87594 0
M  V30 4009 H 358.729 -1.94525 -1.66113 0
M  V30 4010 H 358.373 -3.67872 -3.50189 0
M  V30 4011 H 358.303 -2.36619 -4.70446 0
M  V30 4012 H 360.794 -2.04887 -3.17537 0
M  V30 4013 H 361.107 -4.70157 -6.13329 0
M  V30 4014 H 359.452 -4.22273 -5.52006 0
M  V30 4015 H 362.643 -2.60829 -3.88698 0
M  V30 4016 H 362.816 -3.81776 -5.23594 0
M  V30 4017 N 356.222 1.38976 -0.743202 0
M  V30 4018 C 357.47 1.99948 -0.29417 0
M  V30 4019 C 357.791 1.59279 1.12495 0
M  V30 4020 O 357.061 0.844808 1.76748 0
M  V30 4021 H 355.641 0.739473 -0.105774 0
M  V30 4022 H 358.303 1.699 -0.954986 0
M  V30 4023 H 357.399 3.10142 -0.349056 0
M  V30 4024 N 357.7 0.491464 1.49741 0
M  V30 4025 C 358.63 -0.28154 2.31796 0
M  V30 4026 C 359.611 -0.971473 1.3963 0
M  V30 4027 O 360.796 -0.964719 1.68543 0
M  V30 4028 C 357.926 -1.35203 3.19902 0
M  V30 4029 C 356.88 -0.782529 4.20786 0
M  V30 4030 C 356.206 -1.95283 4.97764 0
M  V30 4031 C 357.506 0.21999 5.21837 0
M  V30 4032 H 359.2 0.403355 2.96671 0
M  V30 4033 H 356.746 0.195425 1.42668 0
M  V30 4034 H 358.699 -1.90045 3.76113 0
M  V30 4035 H 357.423 -2.06598 2.52953 0
M  V30 4036 H 356.082 -0.255928 3.65706 0
M  V30 4037 H 355.73 -2.65423 4.2727 0
M  V30 4038 H 355.43 -1.57789 5.66018 0
M  V30 4039 H 356.954 -2.50577 5.56816 0
M  V30 4040 H 358.368 -0.23996 5.72798 0
M  V30 4041 H 356.765 0.51026 5.97927 0
M  V30 4042 H 357.835 1.13911 4.7133 0
M  V30 4043 N 359.178 -1.55987 0.224894 0
M  V30 4044 C 360.594 -1.59066 -0.130426 0
M  V30 4045 C 360.794 -1.24176 -1.5869 0
M  V30 4046 O 359.85 -0.978592 -2.32766 0
M  V30 4047 C 361.163 -3.00042 0.198883 0
M  V30 4048 C 362.711 -3.1268 0.141391 0
M  V30 4049 C 363.186 -4.55839 0.444422 0
M  V30 4050 N 364.677 -4.6152 0.394115 0
M  V30 4051 C 365.412 -5.70231 0.602038 0
M  V30 4052 N 364.908 -6.87291 0.871914 0
M  V30 4053 N 366.701 -5.59555 0.534245 0
M  V30 4054 H 358.852 -1.76941 1.17497 0
M  V30 4055 H 361.115 -0.822604 0.471197 0
M  V30 4056 H 360.821 -3.30234 1.2099 0
M  V30 4057 H 360.695 -3.74075 -0.484535 0
M  V30 4058 H 363.082 -2.82283 -0.860265 0
M  V30 4059 H 363.163 -2.40969 0.858335 0
M  V30 4060 H 362.807 -4.86954 1.44353 0
M  V30 4061 H 362.737 -5.2578 -0.293752 0
M  V30 4062 H 365.228 -3.77405 0.193356 0
M  V30 4063 H 365.541 -7.66058 1.01858 0
M  V30 4064 H 363.886 -6.89028 0.909145 0
M  V30 4065 H 367.077 -4.6698 0.323612 0
M  V30 4066 H 367.25 -6.44211 0.699693 0
M  V30 4067 N 360.656 0.0484629 -1.57525 0
M  V30 4068 C 361.603 1.05504 -2.05275 0
M  V30 4069 C 362.573 1.37084 -0.937927 0
M  V30 4070 O 363.758 1.47754 -1.2072 0
M  V30 4071 C 360.898 2.35676 -2.52093 0
M  V30 4072 C 360.011 2.10423 -3.77288 0
M  V30 4073 C 359.146 3.34327 -4.12794 0
M  V30 4074 C 358.185 3.04542 -5.30962 0
M  V30 4075 N 357.322 4.20841 -5.61994 0
M  V30 4076 H 362.162 0.640885 -2.91027 0
M  V30 4077 H 359.699 0.304854 -1.43906 0
M  V30 4078 H 361.657 3.11709 -2.77297 0
M  V30 4079 H 360.287 2.7485 -1.69285 0
M  V30 4080 H 359.339 1.24976 -3.59284 0
M  V30 4081 H 360.651 1.84438 -4.63448 0
M  V30 4082 H 359.805 4.1874 -4.39024 0
M  V30 4083 H 358.544 3.63408 -3.25247 0
M  V30 4084 H 357.549 2.18528 -5.04505 0
M  V30 4085 H 358.774 2.76758 -6.20146 0
M  V30 4086 H 356.72 4.4991 -4.77406 0
M  V30 4087 H 356.637 3.98212 -6.42622 0
M  V30 4088 H 357.905 5.06184 -5.92789 0
M  V30 4089 N 362.134 1.5431 0.320358 0
M  V30 4090 C 363.38 1.72924 1.05949 0
M  V30 4091 C 363.713 0.503185 1.87568 0
M  V30 4092 O 362.988 -0.499839 1.87968 0
M  V30 4093 C 363.271 3.00676 1.98156 0
M  V30 4094 C 363.124 4.3354 1.19845 0
M  V30 4095 C 364.443 3.24198 2.9763 0
M  V30 4096 H 361.562 0.629195 0.383774 0
M  V30 4097 H 364.204 1.87008 0.335854 0
M  V30 4098 H 362.354 2.888 2.59859 0
M  V30 4099 H 364.026 4.57305 0.605773 0
M  V30 4100 H 362.269 4.309 0.500784 0
M  V30 4101 H 362.94 5.19156 1.87567 0
M  V30 4102 H 365.416 3.35557 2.4605 0
M  V30 4103 H 364.292 4.14938 3.59329 0
M  V30 4104 H 364.553 2.41577 3.7026 0
M  V30 4105 N 363.613 -0.582584 1.46437 0
M  V30 4106 C 364.576 -1.67366 1.56592 0
M  V30 4107 C 365.576 -1.54575 0.443072 0
M  V30 4108 O 366.766 -1.59191 0.707381 0
M  V30 4109 C 363.898 -3.06791 1.48634 0
M  V30 4110 H 365.091 -1.5972 2.5383 0
M  V30 4111 H 362.644 -0.800432 1.34249 0
M  V30 4112 H 363.379 -3.19993 0.526763 0
M  V30 4113 H 363.164 -3.17484 2.30101 0
M  V30 4114 H 364.654 -3.86218 1.58826 0
M  V30 4115 N 365.091 -1.34144 -0.827227 0
M  V30 4116 C 366.331 -1.27603 -1.59677 0
M  V30 4117 C 366.695 0.153035 -1.91389 0
M  V30 4118 O 367.896 0.342566 -2.66608 0
M  V30 4119 C 366.167 -2.13784 -2.86411 0
M  V30 4120 S 367.726 -2.24552 -3.76991 0
M  V30 4121 H 364.544 -0.453789 -0.547354 0
M  V30 4122 H 367.146 -1.69309 -0.977479 0
M  V30 4123 H 365.85 -3.16627 -2.61104 0
M  V30 4124 H 365.381 -1.72959 -3.5334 0
M  V30 4125 H 367.396 -1.41514 -4.75593 0
M  V30 4126 N 366.569 1.04691 -1.17803 0
M  V30 4127 C 367.818 1.77176 -0.963931 0
M  V30 4128 C 368.131 1.88888 0.508015 0
M  V30 4129 O 369.337 2.58164 0.840465 0
M  V30 4130 C 367.793 3.18518 -1.67555 0
M  V30 4131 C 367.401 3.14919 -3.18637 0
M  V30 4132 C 369.145 3.95424 -1.54402 0
M  V30 4133 C 367.052 4.51081 -3.82466 0
M  V30 4134 H 365.982 0.664116 -0.357023 0
M  V30 4135 H 368.633 1.17303 -1.4111 0
M  V30 4136 H 367.015 3.78748 -1.15613 0
M  V30 4137 H 368.189 2.64178 -3.77554 0
M  V30 4138 H 366.504 2.51512 -3.31859 0
M  V30 4139 H 369.101 4.96106 -1.99456 0
M  V30 4140 H 369.444 4.13343 -0.495329 0
M  V30 4141 H 369.977 3.41754 -2.0359 0
M  V30 4142 H 366.716 4.38368 -4.87354 0
M  V30 4143 H 366.236 5.01951 -3.28337 0
M  V30 4144 H 367.915 5.2001 -3.84965 0
M  V30 4145 N 368.047 0.979072 1.23499 0
M  V30 4146 C 369.295 0.645941 1.91499 0
M  V30 4147 C 369.616 -0.822948 1.76784 0
M  V30 4148 O 368.886 -1.58854 1.14639 0
M  V30 4149 H 367.466 0.235919 0.708767 0
M  V30 4150 H 370.128 1.2426 1.50152 0
M  V30 4151 H 369.224 0.896411 2.9895 0
M  V30 4152 N 369.525 -1.3858 0.750561 0
M  V30 4153 C 370.488 -2.28836 0.129152 0
M  V30 4154 C 371.488 -1.47045 -0.650714 0
M  V30 4155 O 372.678 -1.6753 -0.477428 0
M  V30 4156 C 369.81 -3.30751 -0.825622 0
M  V30 4157 H 371.003 -2.85294 0.924516 0
M  V30 4158 H 368.556 -1.47489 0.517376 0
M  V30 4159 H 369.291 -2.79378 -1.64677 0
M  V30 4160 H 369.076 -3.91177 -0.268852 0
M  V30 4161 H 370.566 -3.98249 -1.2565 0
M  V30 4162 N 371.003 -0.499398 -1.49478 0
M  V30 4163 C 372.249 0.0377587 -2.03365 0
M  V30 4164 C 372.604 1.3484 -1.37244 0
M  V30 4165 O 371.897 1.85 -0.498547 0
M  V30 4166 C 372.091 0.248424 -3.56536 0
M  V30 4167 C 371.92 -1.04025 -4.37503 0
M  V30 4168 C 370.69 -1.59159 -4.79579 0
M  V30 4169 C 372.888 -1.9431 -4.76181 0
M  V30 4170 N 370.87 -2.82634 -5.44969 0
M  V30 4171 C 372.241 -3.02364 -5.41272 0
M  V30 4172 C 374.296 -1.95008 -4.58123 0
M  V30 4173 C 372.999 -4.1114 -5.90217 0
M  V30 4174 C 375.025 -3.02758 -5.08027 0
M  V30 4175 C 374.387 -4.09531 -5.73118 0
M  V30 4176 H 370.486 -0.026923 -0.781536 0
M  V30 4177 H 373.07 -0.673901 -1.82665 0
M  V30 4178 H 371.241 0.929139 -3.77123 0
M  V30 4179 H 372.973 0.782445 -3.97064 0
M  V30 4180 H 369.728 -1.13696 -4.5975 0
M  V30 4181 H 370.152 -3.45416 -5.82252 0
M  V30 4182 H 374.794 -1.13766 -4.07207 0
M  V30 4183 H 372.512 -4.93181 -6.40155 0
M  V30 4184 H 376.098 -3.04315 -4.95866 0
M  V30 4185 H 374.978 -4.91534 -6.11035 0
M  V30 4186 N 372.481 1.55866 -0.233164 0
M  V30 4187 C 373.431 2.17442 0.685774 0
M  V30 4188 C 374.415 1.12617 1.14918 0
M  V30 4189 O 375.607 1.3857 1.10124 0
M  V30 4190 C 372.736 2.86685 1.88856 0
M  V30 4191 C 371.822 3.98749 1.4443 0
M  V30 4192 N 372.213 5.00744 0.713364 0
M  V30 4193 C 370.511 4.11052 1.73068 0
M  V30 4194 C 371.212 5.79673 0.485205 0
M  V30 4195 N 370.188 5.33454 1.04536 0
M  V30 4196 H 373.99 2.93659 0.119022 0
M  V30 4197 H 371.504 1.62362 -0.0348995 0
M  V30 4198 H 373.501 3.29218 2.55776 0
M  V30 4199 H 372.161 2.11967 2.45967 0
M  V30 4200 H 373.172 5.16613 0.364861 0
M  V30 4201 H 369.849 3.47495 2.31416 0
M  V30 4202 H 371.239 6.71829 -0.097365 0
M  V30 4203 N 373.959 -0.0401083 1.57549 0
M  V30 4204 C 375.37 -0.588097 1.77196 0
M  V30 4205 C 375.721 -1.76209 0.862832 0
M  V30 4206 O 374.846 -2.16331 0.0548389 0
M  V30 4207 C 375.441 -1.07363 3.21339 0
M  V30 4208 C 374 -1.56723 3.42221 0
M  V30 4209 C 373.147 -0.50041 2.72747 0
M  V30 4210 H 376.098 0.186119 1.57605 0
M  V30 4211 H 376.119 -1.94143 3.27244 0
M  V30 4212 H 375.631 -0.218975 3.87482 0
M  V30 4213 H 373.732 -2.4441 2.81237 0
M  V30 4214 H 373.845 -1.62234 4.50796 0
M  V30 4215 H 372.209 -0.952894 2.36203 0
M  V30 4216 H 372.992 0.344599 3.41566 0
M  V30 4217 N 375.437 -1.54477 -0.31217 0
M  V30 4218 C 376.4 -1.83923 -1.36766 0
M  V30 4219 C 377.4 -0.711563 -1.44199 0
M  V30 4220 O 378.59 -0.979866 -1.44029 0
M  V30 4221 C 375.722 -2.0095 -2.75376 0
M  V30 4222 H 376.915 -2.78239 -1.11906 0
M  V30 4223 H 374.468 -1.46369 -0.548257 0
M  V30 4224 H 375.203 -1.08883 -3.05475 0
M  V30 4225 H 374.988 -2.83018 -2.71373 0
M  V30 4226 H 376.478 -2.2514 -3.51713 0
M  V30 4227 N 376.915 0.57481 -1.46744 0
M  V30 4228 C 378.331 0.898981 -1.31873 0
M  V30 4229 C 378.531 1.99313 -0.29605 0
M  V30 4230 O 377.587 2.50728 0.298621 0
M  V30 4231 C 378.9 1.30886 -2.7072 0
M  V30 4232 C 380.448 1.42127 -2.78871 0
M  V30 4233 C 380.923 1.86478 -4.18318 0
M  V30 4234 N 382.414 1.93658 -4.20774 0
M  V30 4235 C 383.149 2.29267 -5.2557 0
M  V30 4236 N 382.645 2.63612 -6.40688 0
M  V30 4237 N 384.438 2.29889 -5.1294 0
M  V30 4238 H 376.589 -0.147839 -2.11885 0
M  V30 4239 H 378.852 -0.00347013 -0.947994 0
M  V30 4240 H 378.558 0.578853 -3.46904 0
M  V30 4241 H 378.432 2.26874 -3.01343 0
M  V30 4242 H 380.819 2.14213 -2.0297 0
M  V30 4243 H 380.9 0.443705 -2.51922 0
M  V30 4244 H 380.544 1.14968 -4.94717 0
M  V30 4245 H 380.474 2.85207 -4.42679 0
M  V30 4246 H 382.965 1.69574 -3.37718 0
M  V30 4247 H 383.278 2.89759 -7.16421 0
M  V30 4248 H 381.623 2.61232 -6.44036 0
M  V30 4249 H 384.814 2.02485 -4.22039 0
M  V30 4250 H 384.987 2.57312 -5.94722 0
M  V30 4251 N 378.394 1.34581 0.820102 0
M  V30 4252 C 379.64 1.27285 1.57881 0
M  V30 4253 C 379.973 -0.156137 1.93571 0
M  V30 4254 O 379.248 -1.10222 1.60254 0
M  V30 4255 C 379.531 2.16639 2.87645 0
M  V30 4256 C 379.384 3.68088 2.58517 0
M  V30 4257 C 380.703 2.05378 3.8924 0
M  V30 4258 H 377.822 0.463714 0.572833 0
M  V30 4259 H 380.464 1.64859 0.944539 0
M  V30 4260 H 378.614 1.84725 3.41773 0
M  V30 4261 H 380.286 4.10382 2.10676 0
M  V30 4262 H 378.529 3.89038 1.91917 0
M  V30 4263 H 379.2 4.2598 3.51063 0
M  V30 4264 H 381.676 2.33404 3.44473 0
M  V30 4265 H 380.552 2.7012 4.77835 0
M  V30 4266 H 380.813 1.0316 4.29896 0
M  V30 4267 N 379.872 -1.04064 1.18357 0
M  V30 4268 C 380.804 -2.12114 0.868358 0
M  V30 4269 C 381.817 -1.62247 -0.134045 0
M  V30 4270 O 383.006 -1.78253 0.0937933 0
M  V30 4271 C 380.106 -3.37773 0.276132 0
M  V30 4272 C 379.279 -4.16874 1.3242 0
M  V30 4273 C 378.338 -5.20861 0.747662 0
M  V30 4274 O 377.364 -5.51141 1.42239 0
M  V30 4275 N 378.566 -5.78715 -0.454823 0
M  V30 4276 H 381.331 -2.39748 1.79836 0
M  V30 4277 H 378.892 -1.20258 1.08396 0
M  V30 4278 H 380.884 -4.04513 -0.123133 0
M  V30 4279 H 379.454 -3.07581 -0.557895 0
M  V30 4280 H 378.674 -3.45456 1.89878 0
M  V30 4281 H 379.962 -4.66516 2.03078 0
M  V30 4282 H 379.36 -5.56415 -1.02073 0
M  V30 4283 H 377.917 -6.46921 -0.79601 0
M  V30 4284 N 381.35 -0.985608 -1.22978 0
M  V30 4285 C 382.597 -0.657386 -1.91532 0
M  V30 4286 C 382.925 0.809707 -1.76845 0
M  V30 4287 O 382.18 1.60021 -1.12658 0
M  V30 4288 C 382.479 -1.00014 -3.43121 0
M  V30 4289 C 382.145 -2.4583 -3.77993 0
M  V30 4290 C 380.807 -2.85679 -3.87222 0
M  V30 4291 C 383.159 -3.40378 -3.94705 0
M  V30 4292 C 380.487 -4.19081 -4.10595 0
M  V30 4293 C 382.839 -4.73429 -4.1958 0
M  V30 4294 C 381.503 -5.1303 -4.27032 0
M  V30 4295 H 380.773 -0.240555 -0.700867 0
M  V30 4296 H 383.42 -1.24044 -1.45895 0
M  V30 4297 H 381.725 -0.335072 -3.90365 0
M  V30 4298 H 383.422 -0.724322 -3.94404 0
M  V30 4299 H 380.012 -2.13939 -3.71387 0
M  V30 4300 H 384.196 -3.10766 -3.8696 0
M  V30 4301 H 379.452 -4.49362 -4.14589 0
M  V30 4302 H 383.626 -5.46644 -4.31455 0
M  V30 4303 H 381.253 -6.16418 -4.44896 0
M  V30 4304 N 382.828 1.3818 -0.7579 0
M  V30 4305 C 383.76 2.2901 -0.0932177 0
M  V30 4306 C 384.773 1.47958 0.679136 0
M  V30 4307 O 385.962 1.70773 0.519514 0
M  V30 4308 C 383.062 3.26953 0.89192 0
M  V30 4309 C 382.235 4.37045 0.176303 0
M  V30 4310 C 381.294 5.15148 1.07281 0
M  V30 4311 O 380.32 5.66616 0.541728 0
M  V30 4312 N 381.522 5.28542 2.40049 0
M  V30 4313 H 384.287 2.86694 -0.873303 0
M  V30 4314 H 381.848 1.50007 -0.609054 0
M  V30 4315 H 383.84 3.76083 1.49479 0
M  V30 4316 H 382.41 2.70136 1.57306 0
M  V30 4317 H 381.63 3.89493 -0.607328 0
M  V30 4318 H 382.918 5.07801 -0.318718 0
M  V30 4319 H 382.316 4.88285 2.85647 0
M  V30 4320 H 380.873 5.8103 2.95376 0
M  V30 4321 N 384.306 0.507319 1.49211 0
M  V30 4322 C 385.555 -0.0368315 2.01666 0
M  V30 4323 C 385.868 -1.37459 1.39156 0
M  V30 4324 O 387.074 -2.00579 1.82976 0
M  V30 4325 C 385.53 -0.116089 3.59713 0
M  V30 4326 C 385.138 1.2154 4.31198 0
M  V30 4327 C 386.882 -0.610268 4.2009 0
M  V30 4328 C 384.789 1.09796 5.81119 0
M  V30 4329 H 383.719 -0.0175376 0.753796 0
M  V30 4330 H 386.37 0.647691 1.71689 0
M  V30 4331 H 384.752 -0.8652 3.86433 0
M  V30 4332 H 385.926 1.9783 4.16173 0
M  V30 4333 H 384.241 1.64352 3.82593 0
M  V30 4334 H 386.838 -0.715742 5.29888 0
M  V30 4335 H 387.181 -1.61064 3.8388 0
M  V30 4336 H 387.714 0.0824916 3.97714 0
M  V30 4337 H 384.453 2.0728 6.21864 0
M  V30 4338 H 383.973 0.376058 5.9862 0
M  V30 4339 H 385.652 0.779281 6.4229 0
M  V30 4340 N 385.784 -1.5574 0.241426 0
M  V30 4341 C 387.195 -1.84842 -0.262755 0
M  V30 4342 C 387.546 -1.16317 -1.58003 0
M  V30 4343 O 386.671 -0.439653 -2.11887 0
M  V30 4344 C 387.266 -3.35332 -0.483523 0
M  V30 4345 C 385.825 -3.6468 -0.931977 0
M  V30 4346 C 384.972 -2.77299 -0.0061151 0
M  V30 4347 H 387.923 -1.51761 0.464129 0
M  V30 4348 H 387.944 -3.56615 -1.32688 0
M  V30 4349 H 387.456 -3.85178 0.47537 0
M  V30 4350 H 385.557 -3.20307 -1.90353 0
M  V30 4351 H 385.67 -4.72498 -0.792628 0
M  V30 4352 H 384.034 -2.49408 -0.516503 0
M  V30 4353 H 384.817 -3.2995 0.948052 0
M  V30 4354 N 387.262 0.0317525 -1.57568 0
M  V30 4355 C 388.678 0.38735 -1.54828 0
M  V30 4356 C 388.878 1.7677 -0.967187 0
M  V30 4357 O 387.934 2.45581 -0.587063 0
M  V30 4358 C 389.247 0.291667 -2.99282 0
M  V30 4359 C 390.795 0.368946 -3.10818 0
M  V30 4360 C 391.27 0.302741 -4.56998 0
M  V30 4361 N 392.761 0.361617 -4.61786 0
M  V30 4362 C 393.496 0.333238 -5.72431 0
M  V30 4363 N 392.992 0.257308 -6.92322 0
M  V30 4364 N 394.785 0.382769 -5.60795 0
M  V30 4365 H 386.936 -0.871609 -1.93692 0
M  V30 4366 H 389.199 -0.331161 -0.888277 0
M  V30 4367 H 388.905 -0.656794 -3.45513 0
M  V30 4368 H 388.779 1.08638 -3.61217 0
M  V30 4369 H 391.166 1.30784 -2.64536 0
M  V30 4370 H 391.247 -0.455066 -2.5172 0
M  V30 4371 H 390.891 -0.632473 -5.03947 0
M  V30 4372 H 390.821 1.14482 -5.14005 0
M  V30 4373 H 393.312 0.422923 -3.75526 0
M  V30 4374 H 393.625 0.24068 -7.72425 0
M  V30 4375 H 391.97 0.223396 -6.94641 0
M  V30 4376 H 395.161 0.44006 -4.66027 0
M  V30 4377 H 395.334 0.357184 -6.47015 0
M  V30 4378 N 388.74 1.54641 0.303973 0
M  V30 4379 C 389.69 1.8177 1.37636 0
M  V30 4380 C 390.674 0.674697 1.46071 0
M  V30 4381 O 391.866 0.935251 1.50273 0
M  V30 4382 C 388.995 2.06584 2.74186 0
M  V30 4383 C 388.081 3.2706 2.69986 0
M  V30 4384 N 388.472 4.47682 2.35402 0
M  V30 4385 C 386.77 3.29028 3.01092 0
M  V30 4386 C 387.471 5.29689 2.40426 0
M  V30 4387 N 386.447 4.67339 2.7766 0
M  V30 4388 H 390.249 2.72596 1.09857 0
M  V30 4389 H 387.763 1.541 0.51254 0
M  V30 4390 H 389.76 2.24166 3.51504 0
M  V30 4391 H 388.42 1.17024 3.02879 0
M  V30 4392 H 389.431 4.74336 2.07908 0
M  V30 4393 H 386.108 2.49565 3.34699 0
M  V30 4394 H 387.498 6.3606 2.16512 0
M  V30 4395 N 390.218 -0.567019 1.47046 0
M  V30 4396 C 391.466 -1.322 1.52864 0
M  V30 4397 C 391.787 -1.94088 0.188388 0
M  V30 4398 O 391.057 -1.7941 -0.786693 0
M  V30 4399 H 389.637 -0.490894 0.563056 0
M  V30 4400 H 392.299 -0.662879 1.83281 0
M  V30 4401 H 391.395 -2.12062 2.2899 0
M  V30 4402 N 391.696 -1.35014 -0.812953 0
M  V30 4403 C 392.628 -1.23262 -1.93233 0
M  V30 4404 C 393.641 -0.157371 -1.62038 0
M  V30 4405 O 394.83 -0.410096 -1.73725 0
M  V30 4406 C 391.93 -0.87392 -3.27438 0
M  V30 4407 C 391.103 -2.04622 -3.86586 0
M  V30 4408 C 390.162 -1.66432 -4.99186 0
M  V30 4409 O 389.188 -2.38222 -5.16951 0
M  V30 4410 N 390.39 -0.584248 -5.77552 0
M  V30 4411 H 393.155 -2.19699 -2.03844 0
M  V30 4412 H 390.716 -1.281 -0.99005 0
M  V30 4413 H 392.708 -0.600039 -4.00227 0
M  V30 4414 H 391.278 0.00057392 -3.126 0
M  V30 4415 H 390.498 -2.48427 -3.06068 0
M  V30 4416 H 391.786 -2.82999 -4.22835 0
M  V30 4417 H 391.184 0.0123526 -5.65699 0
M  V30 4418 H 389.741 -0.37013 -6.50748 0
M  V30 4419 N 393.175 1.03435 -1.18907 0
M  V30 4420 C 394.122 2.11591 -0.921837 0
M  V30 4421 C 395.092 1.65499 0.141226 0
M  V30 4422 O 396.277 1.908 0.000242829 0
M  V30 4423 C 393.417 3.42012 -0.460616 0
M  V30 4424 C 392.53 4.01682 -1.58982 0
M  V30 4425 C 391.665 5.20091 -1.08069 0
M  V30 4426 C 390.704 5.71805 -2.18416 0
M  V30 4427 N 389.841 6.81494 -1.68849 0
M  V30 4428 H 394.681 2.33787 -1.8479 0
M  V30 4429 H 392.218 1.1467 -0.921373 0
M  V30 4430 H 394.176 4.16834 -0.174642 0
M  V30 4431 H 392.806 3.19944 0.428467 0
M  V30 4432 H 391.858 3.24127 -1.99113 0
M  V30 4433 H 393.17 4.36084 -2.4214 0
M  V30 4434 H 392.324 6.02051 -0.749615 0
M  V30 4435 H 391.063 4.87209 -0.218771 0
M  V30 4436 H 390.068 4.88461 -2.5236 0
M  V30 4437 H 391.293 6.06728 -3.05054 0
M  V30 4438 H 389.239 6.50475 -0.849572 0
M  V30 4439 H 389.156 7.14994 -2.45601 0
M  V30 4440 H 390.424 7.67063 -1.38689 0
M  V30 4441 N 394.653 0.992116 1.22453 0
M  V30 4442 C 395.901 0.666215 1.90804 0
M  V30 4443 C 396.222 -0.804152 1.77647 0
M  V30 4444 O 395.492 -1.57629 1.16318 0
M  V30 4445 H 394.072 0.243423 0.706225 0
M  V30 4446 H 396.734 1.25845 1.48825 0
M  V30 4447 H 395.83 0.928069 2.97982 0
M  V30 4448 N 396.131 -1.37776 0.765217 0
M  V30 4449 C 397.361 -2.03828 0.337277 0
M  V30 4450 C 397.769 -1.57841 -1.04321 0
M  V30 4451 O 397.112 -0.752043 -1.67601 0
M  V30 4452 C 397.174 -3.58292 0.294407 0
M  V30 4453 C 396.838 -4.27384 1.61838 0
M  V30 4454 C 397.835 -4.51956 2.56967 0
M  V30 4455 C 395.52 -4.65345 1.89102 0
M  V30 4456 C 397.514 -5.13536 3.77571 0
M  V30 4457 C 395.201 -5.26647 3.09978 0
M  V30 4458 C 396.199 -5.50679 4.04032 0
M  V30 4459 O 395.887 -6.10702 5.2278 0
M  V30 4460 H 395.619 -0.661292 0.140248 0
M  V30 4461 H 398.173 -1.77222 1.03834 0
M  V30 4462 H 396.403 -3.83918 -0.462983 0
M  V30 4463 H 398.092 -4.05763 -0.105581 0
M  V30 4464 H 398.858 -4.23048 2.37183 0
M  V30 4465 H 394.737 -4.45978 1.16725 0
M  V30 4466 H 398.281 -5.3221 4.50997 0
M  V30 4467 H 394.178 -5.54979 3.29649 0
M  V30 4468 H 394.946 -6.29183 5.23517 0
M  V30 4469 N 397.609 -0.515225 -1.4894 0
M  V30 4470 C 398.856 0.024215 -2.02486 0
M  V30 4471 C 399.184 1.35671 -1.39368 0
M  V30 4472 O 398.439 1.88566 -0.523574 0
M  V30 4473 C 398.738 0.210595 -3.56779 0
M  V30 4474 C 398.404 -1.04569 -4.38607 0
M  V30 4475 C 397.066 -1.39002 -4.60686 0
M  V30 4476 C 399.418 -1.88008 -4.86109 0
M  V30 4477 C 396.746 -2.568 -5.27514 0
M  V30 4478 C 399.098 -3.04972 -5.54234 0
M  V30 4479 C 397.762 -3.39768 -5.74555 0
M  V30 4480 H 397.032 0.00886088 -0.740947 0
M  V30 4481 H 399.679 -0.678263 -1.79086 0
M  V30 4482 H 397.984 0.99572 -3.78936 0
M  V30 4483 H 399.681 0.642659 -3.95817 0
M  V30 4484 H 396.271 -0.767497 -4.21672 0
M  V30 4485 H 400.455 -1.62719 -4.68867 0
M  V30 4486 H 395.711 -2.8398 -5.41447 0
M  V30 4487 H 399.885 -3.69943 -5.90013 0
M  V30 4488 H 397.512 -4.31148 -6.26112 0
M  V30 4489 N 399.087 1.5561 -0.249682 0
M  V30 4490 C 400.037 2.18157 0.662673 0
M  V30 4491 C 401.021 1.1383 1.13717 0
M  V30 4492 O 402.213 1.39731 1.08648 0
M  V30 4493 C 399.342 2.88672 1.85805 0
M  V30 4494 C 398.428 4.00258 1.40193 0
M  V30 4495 N 398.819 5.01473 0.660213 0
M  V30 4496 C 397.117 4.12864 1.68698 0
M  V30 4497 C 397.818 5.80155 0.423695 0
M  V30 4498 N 396.794 5.34533 0.988721 0
M  V30 4499 H 400.596 2.93769 0.0878688 0
M  V30 4500 H 398.11 1.62316 -0.0521183 0
M  V30 4501 H 400.107 3.31912 2.5227 0
M  V30 4502 H 398.767 2.14564 2.43705 0
M  V30 4503 H 399.778 5.16971 0.310047 0
M  V30 4504 H 396.455 3.4993 2.27717 0
M  V30 4505 H 397.845 6.71688 -0.168616 0
M  V30 4506 N 400.565 -0.0233959 1.57583 0
M  V30 4507 C 401.981 -0.379134 1.55031 0
M  V30 4508 C 402.181 -1.76255 0.976548 0
M  V30 4509 O 401.237 -2.45266 0.600078 0
M  V30 4510 C 402.55 -0.275792 2.99433 0
M  V30 4511 C 404.098 -0.352458 3.11009 0
M  V30 4512 C 404.573 -0.278501 4.57152 0
M  V30 4513 N 406.064 -0.337123 4.61972 0
M  V30 4514 C 406.799 -0.302876 5.726 0
M  V30 4515 N 406.295 -0.220589 6.92449 0
M  V30 4516 N 408.088 -0.353023 5.6099 0
M  V30 4517 H 400.239 0.881869 1.93227 0
M  V30 4518 H 402.502 0.335867 0.886509 0
M  V30 4519 H 402.208 0.675108 3.4516 0
M  V30 4520 H 402.082 -1.06721 3.61788 0
M  V30 4521 H 404.469 -1.29379 2.65226 0
M  V30 4522 H 404.55 0.468409 2.51475 0
M  V30 4523 H 404.194 0.659189 5.03604 0
M  V30 4524 H 404.124 -1.11755 5.14605 0
M  V30 4525 H 406.615 -0.403002 3.75745 0
M  V30 4526 H 406.928 -0.199713 7.72542 0
M  V30 4527 H 405.273 -0.186555 6.9475 0
M  V30 4528 H 408.464 -0.415339 4.66254 0
M  V30 4529 H 408.637 -0.322866 6.47195 0
M  V30 4530 N 402.043 -1.548 -0.295768 0
M  V30 4531 C 403.271 -1.78327 -1.04914 0
M  V30 4532 C 403.686 -0.545316 -1.80753 0
M  V30 4533 O 403.043 0.485013 -1.75937 0
M  V30 4534 C 403.094 -2.99418 -2.02561 0
M  V30 4535 O 402.815 -4.18431 -1.29798 0
M  V30 4536 C 404.316 -3.35375 -2.89895 0
M  V30 4537 H 401.536 -0.594618 -0.310918 0
M  V30 4538 H 404.08 -2.01763 -0.333454 0
M  V30 4539 H 402.235 -2.78175 -2.69624 0
M  V30 4540 H 402.649 -4.86736 -1.95419 0
M  V30 4541 H 404.123 -4.23332 -3.54251 0
M  V30 4542 H 404.6 -2.53761 -3.58472 0
M  V30 4543 H 405.206 -3.58796 -2.28355 0
M  V30 4544 N 403.521 0.559213 -1.47345 0
M  V30 4545 C 404.431 1.69388 -1.62311 0
M  V30 4546 C 405.447 1.6648 -0.505993 0
M  V30 4547 O 406.623 1.85964 -0.773262 0
M  V30 4548 C 403.688 3.05894 -1.63185 0
M  V30 4549 C 402.749 3.19885 -2.86307 0
M  V30 4550 C 401.982 4.49879 -2.87131 0
M  V30 4551 O 402.205 5.35217 -1.97229 0
M  V30 4552 O 401.139 4.67618 -3.78968 0
M  V30 4553 H 404.965 1.59706 -2.58317 0
M  V30 4554 H 402.55 0.728989 -1.30407 0
M  V30 4555 H 404.432 3.87133 -1.66451 0
M  V30 4556 H 403.107 3.15964 -0.70345 0
M  V30 4557 H 402.014 2.38052 -2.88587 0
M  V30 4558 H 403.347 3.14718 -3.78435 0
M  V30 4559 N 404.999 1.35443 0.805782 0
M  V30 4560 C 406.415 1.15499 1.10146 0
M  V30 4561 C 406.615 -0.0319975 2.01475 0
M  V30 4562 O 405.671 -0.70236 2.42535 0
M  V30 4563 C 406.984 2.45833 1.73166 0
M  V30 4564 C 408.532 2.52047 1.85583 0
M  V30 4565 C 409.007 3.82427 2.52019 0
M  V30 4566 N 410.498 3.83682 2.59504 0
M  V30 4567 C 411.233 4.81294 3.11679 0
M  V30 4568 N 410.729 5.89294 3.64287 0
M  V30 4569 N 412.522 4.6873 3.1024 0
M  V30 4570 H 404.673 2.11469 0.198678 0
M  V30 4571 H 406.936 0.93594 0.150731 0
M  V30 4572 H 406.642 3.32874 1.13526 0
M  V30 4573 H 406.516 2.6044 2.72857 0
M  V30 4574 H 408.903 1.65435 2.44367 0
M  V30 4575 H 408.984 2.41354 0.847455 0
M  V30 4576 H 408.628 4.69437 1.93885 0
M  V30 4577 H 408.558 3.90409 3.53395 0
M  V30 4578 H 411.049 3.05648 2.22234 0
M  V30 4579 H 411.362 6.59768 4.02401 0
M  V30 4580 H 409.707 5.92985 3.62483 0
M  V30 4581 H 412.898 3.83496 2.68419 0
M  V30 4582 H 413.071 5.44965 3.50596 0
M  V30 4583 N 406.477 -1.02803 1.19454 0
M  V30 4584 C 407.425 -2.13213 0.929673 0
M  V30 4585 C 408.419 -1.69011 -0.114806 0
M  V30 4586 O 409.625 -1.79967 0.0345147 0
M  V30 4587 H 406 -0.69662 0.28324 0
M  V30 4588 H 407.971 -2.32744 1.86743 0
M  V30 4589 C 406.72 -3.4429 0.485797 0
M  V30 4590 H 406.043 -3.7872 1.28105 0
M  V30 4591 H 407.483 -4.22638 0.339582 0
M  V30 4592 C 405.942 -3.27258 -0.800244 0
M  V30 4593 O 406.472 -3.55967 -1.86146 0
M  V30 4594 N 404.678 -2.80545 -0.75781 0
M  V30 4595 H 404.225 -2.57382 0.106039 0
M  V30 4596 H 404.183 -2.6953 -1.61867 0
M  V30 4597 N 407.956 -0.998596 -1.21925 0
M  V30 4598 C 408.903 -0.553621 -2.24062 0
M  V30 4599 C 409.873 0.416999 -1.6078 0
M  V30 4600 O 411.058 0.320482 -1.88089 0
M  V30 4601 C 408.198 0.119959 -3.44891 0
M  V30 4602 C 407.311 -0.893077 -4.22668 0
M  V30 4603 C 406.446 -0.192424 -5.30851 0
M  V30 4604 C 405.485 -1.19344 -6.00353 0
M  V30 4605 N 404.622 -0.520707 -7.00166 0
M  V30 4606 H 409.462 -1.4293 -2.61486 0
M  V30 4607 H 406.999 -0.715838 -1.28507 0
M  V30 4608 H 408.957 0.527459 -4.13852 0
M  V30 4609 H 407.587 0.959389 -3.08214 0
M  V30 4610 H 406.639 -1.41886 -3.52948 0
M  V30 4611 H 407.951 -1.65512 -4.70539 0
M  V30 4612 H 407.105 0.271515 -6.06092 0
M  V30 4613 H 405.844 0.602075 -4.83969 0
M  V30 4614 H 404.849 -1.66795 -5.23889 0
M  V30 4615 H 406.074 -1.98891 -6.49322 0
M  V30 4616 H 404.02 0.254252 -6.55507 0
M  V30 4617 H 403.937 -1.2211 -7.46073 0
M  V30 4618 H 405.205 -0.0797596 -7.79459 0
M  V30 4619 N 409.434 1.37368 -0.772513 0
M  V30 4620 C 410.381 2.30262 -0.157488 0
M  V30 4621 C 411.351 1.51137 0.688965 0
M  V30 4622 O 412.536 1.79704 0.641168 0
M  V30 4623 C 409.676 3.37611 0.715045 0
M  V30 4624 C 408.789 4.31746 -0.148098 0
M  V30 4625 C 407.924 5.26171 0.729213 0
M  V30 4626 C 406.963 6.11948 -0.136418 0
M  V30 4627 N 406.1 6.98613 0.698914 0
M  V30 4628 H 410.94 2.82277 -0.955179 0
M  V30 4629 H 408.477 1.38957 -0.482631 0
M  V30 4630 H 410.435 3.98479 1.23575 0
M  V30 4631 H 409.065 2.86959 1.47833 0
M  V30 4632 H 408.117 3.72178 -0.786613 0
M  V30 4633 H 409.429 4.92084 -0.81579 0
M  V30 4634 H 408.583 5.92247 1.31637 0
M  V30 4635 H 407.322 4.66246 1.43059 0
M  V30 4636 H 406.327 5.4485 -0.736102 0
M  V30 4637 H 407.552 6.73945 -0.835134 0
M  V30 4638 H 405.498 6.41215 1.38489 0
M  V30 4639 H 405.415 7.55948 0.0885358 0
M  V30 4640 H 406.683 7.69077 1.27044 0
M  V30 4641 N 410.912 0.523116 1.48665 0
M  V30 4642 C 412.161 -0.01544 2.01694 0
M  V30 4643 C 412.474 -1.35975 1.40606 0
M  V30 4644 O 413.68 -1.98627 1.85093 0
M  V30 4645 C 412.136 -0.0779303 3.59816 0
M  V30 4646 C 411.744 1.26107 4.29885 0
M  V30 4647 C 413.488 -0.565678 4.20714 0
M  V30 4648 C 411.395 1.15954 5.79921 0
M  V30 4649 H 410.325 -0.00954163 0.75394 0
M  V30 4650 H 412.976 0.665865 1.70993 0
M  V30 4651 H 411.358 -0.824165 3.87329 0
M  V30 4652 H 412.532 2.02233 4.14051 0
M  V30 4653 H 410.847 1.68401 3.80828 0
M  V30 4654 H 413.444 -0.6595 5.30617 0
M  V30 4655 H 413.787 -1.56984 3.85567 0
M  V30 4656 H 414.32 0.12467 3.97605 0
M  V30 4657 H 411.059 2.13864 6.19631 0
M  V30 4658 H 410.579 0.439529 5.98187 0
M  V30 4659 H 412.258 0.847361 6.41427 0
M  V30 4660 N 412.39 -1.55475 0.257931 0
M  V30 4661 C 413.62 -2.03314 -0.367026 0
M  V30 4662 C 414.028 -1.13625 -1.51281 0
M  V30 4663 O 413.371 -0.145334 -1.83124 0
M  V30 4664 C 413.433 -3.47362 -0.926284 0
M  V30 4665 C 413.097 -4.56914 0.0886584 0
M  V30 4666 C 414.094 -5.12013 0.902123 0
M  V30 4667 C 411.779 -5.01827 0.217936 0
M  V30 4668 C 413.773 -6.10529 1.83122 0
M  V30 4669 C 411.46 -6.00172 1.15052 0
M  V30 4670 C 412.458 -6.54402 1.95568 0
M  V30 4671 O 412.146 -7.50827 2.87253 0
M  V30 4672 H 411.878 -0.669976 -0.0900443 0
M  V30 4673 H 414.432 -2.01804 0.382673 0
M  V30 4674 H 412.662 -3.46056 -1.72575 0
M  V30 4675 H 414.351 -3.78637 -1.46249 0
M  V30 4676 H 415.117 -4.78139 0.812891 0
M  V30 4677 H 410.996 -4.59272 -0.398721 0
M  V30 4678 H 414.54 -6.52783 2.46008 0
M  V30 4679 H 410.437 -6.33465 1.24064 0
M  V30 4680 H 411.205 -7.68483 2.81739 0
M  V30 4681 N 413.868 0.0150385 -1.57593 0
M  V30 4682 C 415.284 0.370907 -1.5523 0
M  V30 4683 C 415.484 1.75735 -0.985882 0
M  V30 4684 O 414.54 2.44944 -0.613077 0
M  V30 4685 C 415.853 0.259908 -2.99575 0
M  V30 4686 C 417.401 0.335959 -3.11192 0
M  V30 4687 C 417.876 0.254253 -4.57294 0
M  V30 4688 N 419.367 0.312618 -4.62144 0
M  V30 4689 C 420.102 0.272505 -5.72752 0
M  V30 4690 N 419.598 0.183864 -6.92556 0
M  V30 4691 N 421.391 0.323267 -5.6117 0
M  V30 4692 H 413.542 -0.892104 -1.92757 0
M  V30 4693 H 415.805 -0.340563 -0.884715 0
M  V30 4694 H 415.511 -0.693403 -3.44797 0
M  V30 4695 H 415.385 1.048 -3.62349 0
M  V30 4696 H 417.772 1.27971 -2.65909 0
M  V30 4697 H 417.853 -0.481739 -2.51223 0
M  V30 4698 H 417.497 -0.685887 -5.03247 0
M  V30 4699 H 417.427 1.09024 -5.15191 0
M  V30 4700 H 419.918 0.38307 -3.75953 0
M  V30 4701 H 420.231 0.15874 -7.72637 0
M  V30 4702 H 418.576 0.149708 -6.94839 0
M  V30 4703 H 421.767 0.390607 -4.66467 0
M  V30 4704 H 421.94 0.288539 -6.47357 0
M  V30 4705 N 415.346 1.54954 0.287554 0
M  V30 4706 C 416.595 1.74081 1.01877 0
M  V30 4707 C 416.908 0.541135 1.87966 0
M  V30 4708 O 418.114 0.614491 2.64455 0
M  V30 4709 C 416.57 3.08042 1.86113 0
M  V30 4710 C 416.178 4.35531 1.04961 0
M  V30 4711 C 417.922 3.36523 2.58752 0
M  V30 4712 C 415.829 5.60538 1.88551 0
M  V30 4713 H 414.759 0.64884 0.384087 0
M  V30 4714 H 417.41 1.81426 0.275101 0
M  V30 4715 H 415.792 2.94696 2.64519 0
M  V30 4716 H 416.966 4.59751 0.31074 0
M  V30 4717 H 415.281 4.14085 0.43843 0
M  V30 4718 H 417.878 4.27122 3.21668 0
M  V30 4719 H 418.221 2.56 3.28283 0
M  V30 4720 H 418.754 3.50901 1.87386 0
M  V30 4721 H 415.493 6.43767 1.23466 0
M  V30 4722 H 415.013 5.40483 2.60074 0
M  V30 4723 H 416.692 5.98297 2.46273 0
M  V30 4724 N 416.824 -0.551391 1.4764 0
M  V30 4725 C 418.072 -1.30572 1.54258 0
M  V30 4726 C 418.393 -1.93877 0.208963 0
M  V30 4727 O 417.663 -1.80234 -0.767619 0
M  V30 4728 H 416.243 -0.484894 0.568231 0
M  V30 4729 H 418.905 -0.643402 1.83974 0
M  V30 4730 H 418.001 -2.09621 2.31226 0
M  V30 4731 N 418.302 -1.35869 -0.798587 0
M  V30 4732 C 419.232 -1.32118 -1.92528 0
M  V30 4733 C 420.213 -0.194209 -1.68988 0
M  V30 4734 O 421.398 -0.390426 -1.90235 0
M  V30 4735 C 418.528 -1.10047 -3.29404 0
M  V30 4736 C 417.482 -2.19471 -3.67446 0
M  V30 4737 C 416.808 -1.82555 -5.02571 0
M  V30 4738 C 418.108 -3.61495 -3.76987 0
M  V30 4739 H 419.802 -2.26394 -1.95924 0
M  V30 4740 H 417.348 -1.08981 -0.94123 0
M  V30 4741 H 419.301 -1.06061 -4.07835 0
M  V30 4742 H 418.025 -0.122195 -3.26371 0
M  V30 4743 H 416.684 -2.22568 -2.91306 0
M  V30 4744 H 416.332 -0.833249 -4.9605 0
M  V30 4745 H 416.032 -2.5581 -5.28995 0
M  V30 4746 H 417.556 -1.80108 -5.83432 0
M  V30 4747 H 418.97 -3.60676 -4.4563 0
M  V30 4748 H 417.367 -4.33577 -4.14887 0
M  V30 4749 H 418.437 -3.97065 -2.78329 0
M  V30 4750 N 419.78 1.02168 -1.19998 0
M  V30 4751 C 420.727 2.10601 -0.944228 0
M  V30 4752 C 421.697 1.65639 0.123664 0
M  V30 4753 O 422.882 1.9079 -0.0199941 0
M  V30 4754 C 420.022 3.41504 -0.496865 0
M  V30 4755 C 419.135 3.99973 -1.63234 0
M  V30 4756 C 418.27 5.18915 -1.13579 0
M  V30 4757 C 417.309 5.69456 -2.24468 0
M  V30 4758 N 416.446 6.79665 -1.76068 0
M  V30 4759 H 421.286 2.31814 -1.8726 0
M  V30 4760 H 418.823 1.13686 -0.933483 0
M  V30 4761 H 420.781 4.16626 -0.218843 0
M  V30 4762 H 419.411 3.2038 0.394508 0
M  V30 4763 H 418.463 3.21997 -2.0254 0
M  V30 4764 H 419.775 4.33492 -2.46752 0
M  V30 4765 H 418.929 6.01222 -0.813429 0
M  V30 4766 H 417.668 4.8695 -0.270434 0
M  V30 4767 H 416.673 4.85757 -2.57526 0
M  V30 4768 H 417.898 6.03459 -3.11472 0
M  V30 4769 H 415.844 6.49538 -0.918516 0
M  V30 4770 H 415.761 7.12349 -2.5317 0
M  V30 4771 H 417.029 7.65549 -1.46817 0
M  V30 4772 N 421.258 1.00505 1.21394 0
M  V30 4773 C 422.486 0.706609 1.9446 0
M  V30 4774 C 422.901 -0.73081 1.74082 0
M  V30 4775 O 422.258 -1.49446 1.04747 0
M  V30 4776 C 422.309 1.01824 3.46863 0
M  V30 4777 O 422.03 2.39919 3.66566 0
M  V30 4778 C 423.531 0.739216 4.37093 0
M  V30 4779 H 420.751 0.260394 0.618414 0
M  V30 4780 H 423.295 1.34311 1.54211 0
M  V30 4781 H 421.45 0.427343 3.85036 0
M  V30 4782 H 421.864 2.50784 4.6066 0
M  V30 4783 H 423.338 1.00744 5.42729 0
M  V30 4784 H 423.815 -0.326746 4.37983 0
M  V30 4785 H 424.421 1.31173 4.04566 0
M  V30 4786 N 422.737 -1.36956 0.779787 0
M  V30 4787 C 424.014 -1.93697 0.272156 0
M  V30 4788 C 424.394 -1.71267 -1.23413 0
M  V30 4789 O 423.742 -1.06607 -2.02107 0
M  V30 4790 C 423.952 -3.42812 0.654291 0
M  V30 4791 C 425.3 -4.19921 0.628602 0
M  V30 4792 O 426.324 -3.51209 0.594172 0
M  V30 4793 O 425.183 -5.42465 0.662864 0
M  V30 4794 H 422.277 -0.824447 0.0649286 0
M  V30 4795 H 424.823 -1.46196 0.861682 0
M  V30 4796 H 423.595 -3.52754 1.69353 0
M  V30 4797 H 423.218 -3.97582 0.0381369 0
M  V30 4798 N 424.215 -0.530993 -1.48385 0
M  V30 4799 C 425.162 0.231223 -2.29639 0
M  V30 4800 C 426.132 0.932864 -1.37429 0
M  V30 4801 O 427.317 0.933692 -1.66394 0
M  V30 4802 C 424.457 1.27155 -3.2082 0
M  V30 4803 C 423.57 0.578655 -4.28107 0
M  V30 4804 C 422.705 1.602 -5.06467 0
M  V30 4805 C 421.744 0.892625 -6.05556 0
M  V30 4806 N 420.881 1.86157 -6.76971 0
M  V30 4807 H 425.721 -0.467848 -2.94305 0
M  V30 4808 H 423.258 -0.242556 -1.45086 0
M  V30 4809 H 425.216 1.88703 -3.72085 0
M  V30 4810 H 423.846 1.939 -2.58075 0
M  V30 4811 H 422.898 -0.150782 -3.80101 0
M  V30 4812 H 424.21 0.0217065 -4.98795 0
M  V30 4813 H 423.364 2.29173 -5.61751 0
M  V30 4814 H 422.103 2.19285 -4.35621 0
M  V30 4815 H 421.108 0.188829 -5.49476 0
M  V30 4816 H 422.333 0.307878 -6.78402 0
M  V30 4817 H 420.279 2.44147 -6.08875 0
M  V30 4818 H 420.196 1.35608 -7.43738 0
M  V30 4819 H 421.464 2.54325 -7.36844 0
M  V30 4820 N 425.693 1.55336 -0.266172 0
M  V30 4821 C 426.641 2.23587 0.641228 0
M  V30 4822 C 427.635 1.22986 1.16494 0
M  V30 4823 O 428.841 1.40943 1.1196 0
M  V30 4824 H 425.216 0.717452 0.225315 0
M  V30 4825 H 427.187 2.9837 0.0426561 0
M  V30 4826 C 425.936 2.96369 1.81826 0
M  V30 4827 H 425.259 3.73563 1.42445 0
M  V30 4828 H 426.699 3.47459 2.42998 0
M  V30 4829 C 425.158 2.0133 2.70125 0
M  V30 4830 O 425.688 1.55875 3.70224 0
M  V30 4831 N 423.894 1.6802 2.37102 0
M  V30 4832 H 423.441 2.05181 1.55751 0
M  V30 4833 H 423.399 1.047 2.96454 0
M  V30 4834 N 427.171 -0.0066808 1.57599 0
M  V30 4835 C 428.396 -0.707738 1.94951 0
M  V30 4836 C 428.821 -1.66882 0.867868 0
M  V30 4837 O 428.179 -1.80457 -0.17458 0
M  V30 4838 C 428.227 -1.42162 3.31394 0
M  V30 4839 O 427.331 -2.53578 3.25226 0
M  V30 4840 H 426.672 -0.188752 0.636607 0
M  V30 4841 H 429.202 0.0445193 2.04552 0
M  V30 4842 H 429.212 -1.78655 3.66806 0
M  V30 4843 H 427.887 -0.716903 4.09675 0
M  V30 4844 H 426.464 -2.19463 3.01481 0
M  V30 4845 N 428.649 -1.55105 -0.279332 0
M  V30 4846 C 429.612 -1.86783 -1.32834 0
M  V30 4847 C 430.612 -0.74199 -1.42657 0
M  V30 4848 O 431.802 -1.0102 -1.41918 0
M  V30 4849 C 428.934 -2.06746 -2.71052 0
M  V30 4850 H 430.127 -2.8055 -1.05979 0
M  V30 4851 H 427.68 -1.47499 -0.517087 0
M  V30 4852 H 428.415 -1.15339 -3.03097 0
M  V30 4853 H 428.2 -2.88711 -2.65309 0
M  V30 4854 H 429.69 -2.32549 -3.46858 0
M  V30 4855 N 430.127 0.543554 -1.4793 0
M  V30 4856 C 431.352 1.32995 -1.59145 0
M  V30 4857 C 431.777 1.86472 -0.246956 0
M  V30 4858 O 431.135 1.63696 0.779324 0
M  V30 4859 C 431.183 2.46623 -2.63077 0
M  V30 4860 O 430.287 3.49261 -2.19295 0
M  V30 4861 H 429.628 0.394472 -0.534124 0
M  V30 4862 H 432.158 0.655489 -1.93816 0
M  V30 4863 H 432.168 2.93001 -2.83926 0
M  V30 4864 H 430.843 2.07059 -3.60693 0
M  V30 4865 H 429.42 3.09094 -2.08603 0
M  V30 4866 N 431.605 1.3629 0.791371 0
M  V30 4867 C 432.833 1.33562 1.58016 0
M  V30 4868 C 433.248 -0.0835616 1.88615 0
M  V30 4869 O 432.605 -1.0399 1.49974 0
M  V30 4870 C 432.656 2.15517 2.90232 0
M  V30 4871 O 432.377 3.51902 2.60953 0
M  V30 4872 C 433.878 2.20546 3.84544 0
M  V30 4873 H 431.098 0.458226 0.490173 0
M  V30 4874 H 433.642 1.79361 0.982345 0
M  V30 4875 H 431.797 1.73278 3.46487 0
M  V30 4876 H 432.211 3.94644 3.4548 0
M  V30 4877 H 433.685 2.82252 4.74382 0
M  V30 4878 H 434.162 1.20838 4.2225 0
M  V30 4879 H 434.768 2.63013 3.34222 0
M  V30 4880 N 433.083 -1.0153 1.20538 0
M  V30 4881 C 434.36 -1.72327 0.925343 0
M  V30 4882 C 434.74 -2.03383 -0.565547 0
M  V30 4883 O 434.088 -1.69934 -1.52757 0
M  V30 4884 C 434.298 -2.9902 1.79967 0
M  V30 4885 C 435.646 -3.72258 2.04228 0
M  V30 4886 O 436.67 -3.08979 1.77231 0
M  V30 4887 O 435.529 -4.86053 2.4983 0
M  V30 4888 H 432.623 -0.751099 0.346092 0
M  V30 4889 H 435.169 -1.07366 1.31417 0
M  V30 4890 H 433.941 -2.72402 2.80915 0
M  V30 4891 H 433.564 -3.71721 1.41099 0
M  V30 4892 N 434.561 -1.01147 -1.20859 0
M  V30 4893 C 435.524 -0.582224 -2.21682 0
M  V30 4894 C 436.524 0.344887 -1.57058 0
M  V30 4895 O 437.714 0.134281 -1.73682 0
M  V30 4896 C 434.846 0.150496 -3.40568 0
M  V30 4897 H 436.039 -1.47408 -2.61172 0
M  V30 4898 H 433.592 -0.800695 -1.34233 0
M  V30 4899 H 434.327 1.0575 -3.06574 0
M  V30 4900 H 434.112 -0.515444 -3.88697 0
M  V30 4901 H 435.602 0.438344 -4.15293 0
M  V30 4902 N 436.039 1.36541 -0.78704 0
M  V30 4903 C 437.316 1.9355 -0.282424 0
M  V30 4904 C 437.696 1.71919 1.22503 0
M  V30 4905 O 437.044 1.07677 2.01539 0
M  V30 4906 C 437.254 3.4246 -0.672462 0
M  V30 4907 C 438.602 4.19582 -0.650863 0
M  V30 4908 O 439.626 3.50889 -0.612789 0
M  V30 4909 O 438.485 5.42106 -0.691623 0
M  V30 4910 H 435.579 0.824091 -0.0693 0
M  V30 4911 H 438.125 1.45736 -0.869423 0
M  V30 4912 H 436.897 3.51851 -1.71221 0
M  V30 4913 H 436.52 3.97556 -0.0592211 0
M  V30 4914 N 437.518 0.538854 1.48102 0
M  V30 4915 C 438.767 0.0059532 2.01699 0
M  V30 4916 C 439.08 -1.34476 1.42041 0
M  V30 4917 O 440.286 -1.96653 1.87189 0
M  V30 4918 C 438.742 -0.0397627 3.59878 0
M  V30 4919 C 438.35 1.30659 4.28523 0
M  V30 4920 C 440.094 -0.521024 4.2129 0
M  V30 4921 C 438.001 1.22098 5.78659 0
M  V30 4922 H 436.931 -0.00154456 0.753998 0
M  V30 4923 H 439.582 0.683963 1.70277 0
M  V30 4924 H 437.964 -0.783037 3.88181 0
M  V30 4925 H 439.138 2.06613 4.11883 0
M  V30 4926 H 437.453 1.7243 3.79021 0
M  V30 4927 H 440.05 -0.603184 5.31287 0
M  V30 4928 H 440.393 -1.52885 3.8721 0
M  V30 4929 H 440.926 0.166834 3.9745 0
M  V30 4930 H 437.665 2.20424 6.17328 0
M  V30 4931 H 437.185 0.50295 5.97688 0
M  V30 4932 H 438.864 0.915345 6.40492 0
M  V30 4933 N 438.996 -1.55193 0.274407 0
M  V30 4934 C 440.224 -2.03987 -0.345943 0
M  V30 4935 C 440.639 -1.15279 -1.4952 0
M  V30 4936 O 439.996 -0.172759 -1.8168 0
M  V30 4937 C 440.047 -3.51898 -0.827631 0
M  V30 4938 O 439.768 -4.37231 0.275855 0
M  V30 4939 C 441.269 -4.16577 -1.51587 0
M  V30 4940 H 438.489 -0.666335 -0.0789892 0
M  V30 4941 H 441.033 -2.00423 0.406294 0
M  V30 4942 H 439.188 -3.55909 -1.52996 0
M  V30 4943 H 439.602 -5.24415 -0.0943638 0
M  V30 4944 H 441.076 -5.21678 -1.80433 0
M  V30 4945 H 441.553 -3.64707 -2.44716 0
M  V30 4946 H 442.159 -4.16568 -0.857409 0
M  V30 4947 N 440.474 -0.00167713 -1.576 0
M  V30 4948 C 441.384 1.00548 -2.1196 0
M  V30 4949 C 442.4 1.3758 -1.06526 0
M  V30 4950 O 443.576 1.46278 -1.38436 0
M  V30 4951 C 440.641 2.27809 -2.6135 0
M  V30 4952 C 439.702 1.97074 -3.81393 0
M  V30 4953 C 438.935 3.18267 -4.28417 0
M  V30 4954 O 439.158 4.30009 -3.74765 0
M  V30 4955 O 438.092 3.02167 -5.20556 0
M  V30 4956 H 441.918 0.573373 -2.98238 0
M  V30 4957 H 439.503 0.217255 -1.47812 0
M  V30 4958 H 441.385 3.02568 -2.93309 0
M  V30 4959 H 440.06 2.70254 -1.78169 0
M  V30 4960 H 438.967 1.19785 -3.54404 0
M  V30 4961 H 440.3 1.59464 -4.65652 0
M  V30 4962 N 441.952 1.55251 0.271103 0
M  V30 4963 C 442.899 1.88261 1.33516 0
M  V30 4964 C 443.869 0.734296 1.48988 0
M  V30 4965 O 445.054 0.985741 1.63364 0
M  V30 4966 C 442.194 2.16168 2.69008 0
M  V30 4967 C 441.307 3.43678 2.61743 0
M  V30 4968 C 440.442 3.61276 3.89427 0
M  V30 4969 C 439.481 4.82472 3.7668 0
M  V30 4970 N 438.618 4.96717 4.96202 0
M  V30 4971 H 443.458 2.79015 1.04665 0
M  V30 4972 H 440.995 1.38137 0.505618 0
M  V30 4973 H 442.953 2.30349 3.47844 0
M  V30 4974 H 441.583 1.28646 2.96057 0
M  V30 4975 H 440.635 3.37959 1.74607 0
M  V30 4976 H 441.947 4.3265 2.48224 0
M  V30 4977 H 441.101 3.75284 4.76704 0
M  V30 4978 H 439.84 2.70492 4.05814 0
M  V30 4979 H 438.845 4.68465 2.87786 0
M  V30 4980 H 440.07 5.74692 3.61809 0
M  V30 4981 H 438.016 4.08865 5.12997 0
M  V30 4982 H 437.933 5.79738 4.85222 0
M  V30 4983 H 439.201 5.15113 5.85046 0
M  V30 4984 N 443.43 -0.535701 1.48216 0
M  V30 4985 C 444.377 -1.64083 1.62312 0
M  V30 4986 C 445.347 -1.59448 0.465365 0
M  V30 4987 O 446.532 -1.77959 0.688135 0
M  V30 4988 C 443.672 -3.0236 1.66349 0
M  V30 4989 C 442.785 -3.17273 2.93193 0
M  V30 4990 C 441.92 -4.46075 2.88427 0
M  V30 4991 C 440.959 -4.54496 4.1 0
M  V30 4992 N 440.096 -5.7468 4.03345 0
M  V30 4993 H 444.936 -1.51374 2.5669 0
M  V30 4994 H 442.473 -0.737059 1.27302 0
M  V30 4995 H 444.431 -3.82461 1.66672 0
M  V30 4996 H 443.061 -3.13854 0.754672 0
M  V30 4997 H 442.113 -2.30462 3.02641 0
M  V30 4998 H 443.425 -3.19357 3.83162 0
M  V30 4999 H 442.579 -5.3446 2.87119 0
M  V30 5000 H 441.318 -4.46504 1.96177 0
M  V30 5001 H 440.323 -3.64519 4.11589 0
M  V30 5002 H 441.548 -4.5581 5.03402 0
M  V30 5003 H 439.494 -5.76017 3.13912 0
M  V30 5004 H 439.411 -5.78234 4.87013 0
M  V30 5005 H 440.679 -6.65367 4.06087 0
M  V30 5006 N 444.908 -1.36708 -0.784132 0
M  V30 5007 C 446.157 -1.30559 -1.53744 0
M  V30 5008 C 446.47 0.111374 -1.95283 0
M  V30 5009 O 447.676 0.29527 -2.6989 0
M  V30 5010 C 446.132 -2.29098 -2.77565 0
M  V30 5011 C 445.74 -3.76258 -2.43174 0
M  V30 5012 C 447.484 -2.31936 -3.55536 0
M  V30 5013 C 445.391 -4.6656 -3.63422 0
M  V30 5014 H 444.321 -0.48518 -0.577162 0
M  V30 5015 H 446.972 -1.62101 -0.859981 0
M  V30 5016 H 445.354 -1.90557 -3.47137 0
M  V30 5017 H 446.528 -4.23565 -1.81465 0
M  V30 5018 H 444.843 -3.76246 -1.78403 0
M  V30 5019 H 447.44 -2.9661 -4.44889 0
M  V30 5020 H 447.783 -1.3294 -3.94503 0
M  V30 5021 H 448.316 -2.6912 -2.92949 0
M  V30 5022 H 445.055 -5.66638 -3.29547 0
M  V30 5023 H 444.575 -4.23966 -4.24279 0
M  V30 5024 H 446.254 -4.8309 -4.30387 0
M  V30 5025 N 446.386 1.0089 -1.21074 0
M  V30 5026 C 447.614 1.78191 -1.05145 0
M  V30 5027 C 448.029 1.84537 0.398952 0
M  V30 5028 O 447.386 1.30393 1.27687 0
M  V30 5029 C 447.437 3.22288 -1.63746 0
M  V30 5030 O 447.158 3.16315 -3.03111 0
M  V30 5031 C 448.659 4.16106 -1.52875 0
M  V30 5032 H 445.879 0.560129 -0.369454 0
M  V30 5033 H 448.423 1.26945 -1.60328 0
M  V30 5034 H 446.578 3.70655 -1.12664 0
M  V30 5035 H 446.992 4.06817 -3.31059 0
M  V30 5036 H 448.466 5.15026 -1.98626 0
M  V30 5037 H 448.943 4.36541 -0.482521 0
M  V30 5038 H 449.549 3.73625 -2.03185 0
M  V30 5039 N 447.864 1.01787 1.20321 0
M  V30 5040 C 449.275 0.739307 1.71438 0
M  V30 5041 C 449.626 -0.742041 1.81627 0
M  V30 5042 O 448.751 -1.57903 1.47971 0
M  V30 5043 C 449.346 1.33538 3.11373 0
M  V30 5044 C 447.905 1.10566 3.59795 0
M  V30 5045 C 447.052 1.44028 2.36962 0
M  V30 5046 H 450.003 1.18718 1.05317 0
M  V30 5047 H 450.024 0.726611 3.73498 0
M  V30 5048 H 449.536 2.41352 3.03926 0
M  V30 5049 H 447.637 0.0452405 3.72573 0
M  V30 5050 H 447.75 1.78661 4.44542 0
M  V30 5051 H 446.114 0.85933 2.39766 0
M  V30 5052 H 446.897 2.52901 2.32155 0
M  V30 5053 N 449.342 -1.36122 0.79427 0
M  V30 5054 C 450.275 -2.27759 0.141845 0
M  V30 5055 C 451.253 -1.47471 -0.684921 0
M  V30 5056 O 452.437 -1.76759 -0.654857 0
M  V30 5057 C 449.564 -3.29008 -0.804446 0
M  V30 5058 C 448.61 -4.26459 -0.0588617 0
M  V30 5059 S 449.443 -5.20253 1.26873 0
M  V30 5060 C 450.599 -6.25048 0.326562 0
M  V30 5061 H 450.832 -2.82746 0.918818 0
M  V30 5062 H 448.365 -1.42736 0.588722 0
M  V30 5063 H 450.323 -3.87842 -1.34495 0
M  V30 5064 H 448.984 -2.72924 -1.5547 0
M  V30 5065 H 448.177 -4.97973 -0.777087 0
M  V30 5066 H 447.779 -3.71731 0.411309 0
M  V30 5067 H 450.071 -6.75705 -0.492795 0
M  V30 5068 H 451.014 -7.00852 1.01053 0
M  V30 5069 H 451.422 -5.64454 -0.0722627 0
M  V30 5070 N 450.82 -0.546701 -1.47814 0
M  V30 5071 C 452.068 -0.0187037 -2.02091 0
M  V30 5072 C 452.389 1.33168 -1.42447 0
M  V30 5073 O 451.659 1.86619 -0.595839 0
M  V30 5074 H 450.239 -0.00392531 -0.74699 0
M  V30 5075 H 452.901 -0.714327 -1.81338 0
M  V30 5076 H 451.997 0.0772219 -3.12004 0
M  V30 5077 N 452.299 1.55045 -0.282633 0
M  V30 5078 C 453.547 1.99365 0.331334 0
M  V30 5079 C 453.868 1.1725 1.55812 0
M  V30 5080 O 453.138 0.263871 1.94115 0
M  V30 5081 H 451.718 0.736397 0.125414 0
M  V30 5082 H 454.38 1.90964 -0.389711 0
M  V30 5083 H 453.476 3.0596 0.616036 0
M  V30 5084 N 453.777 0.010035 1.57597 0
M  V30 5085 C 455.024 -0.6727 1.91 0
M  V30 5086 C 455.352 -1.73219 0.884614 0
M  V30 5087 O 454.607 -1.95395 -0.109215 0
M  V30 5088 C 454.906 -1.34434 3.31153 0
M  V30 5089 C 454.572 -0.417083 4.48967 0
M  V30 5090 C 453.234 -0.161809 4.80928 0
M  V30 5091 C 455.586 0.220753 5.20732 0
M  V30 5092 C 452.914 0.739426 5.82022 0
M  V30 5093 C 455.266 1.10993 6.22787 0
M  V30 5094 C 453.93 1.37428 6.532 0
M  V30 5095 H 453.2 -0.246158 0.698918 0
M  V30 5096 H 455.847 0.0677145 1.9138 0
M  V30 5097 H 454.152 -2.15905 3.26944 0
M  V30 5098 H 455.849 -1.87883 3.54261 0
M  V30 5099 H 452.439 -0.626217 4.24001 0
M  V30 5100 H 456.623 0.0365643 4.96287 0
M  V30 5101 H 451.879 0.952139 6.03941 0
M  V30 5102 H 456.053 1.61046 6.77523 0
M  V30 5103 H 453.68 2.0743 7.31353 0
M  V30 5104 N 455.255 -1.55392 -0.262866 0
M  V30 5105 C 456.666 -1.67079 -0.833158 0
M  V30 5106 C 457.017 -0.604539 -1.86654 0
M  V30 5107 O 456.142 0.252138 -2.14926 0
M  V30 5108 C 456.737 -3.02891 -1.51797 0
M  V30 5109 C 455.296 -3.16571 -2.03617 0
M  V30 5110 C 454.443 -2.62909 -0.881701 0
M  V30 5111 H 457.394 -1.58652 -0.0389986 0
M  V30 5112 H 457.415 -2.96445 -2.38538 0
M  V30 5113 H 456.927 -3.80473 -0.765619 0
M  V30 5114 H 455.028 -2.43782 -2.81782 0
M  V30 5115 H 455.141 -4.23271 -2.24452 0
M  V30 5116 H 453.505 -2.20324 -1.27786 0
M  V30 5117 H 454.288 -3.43003 -0.14269 0
M  V30 5118 N 456.733 0.527833 -1.48498 0
M  V30 5119 C 457.683 1.62844 -1.5958 0
M  V30 5120 C 458.667 1.54397 -0.452809 0
M  V30 5121 O 459.859 1.62381 -0.704364 0
M  V30 5122 C 456.988 3.01557 -1.64067 0
M  V30 5123 C 456.074 3.151 -2.83853 0
M  V30 5124 N 456.465 2.9861 -4.08247 0
M  V30 5125 C 454.763 3.46158 -2.8123 0
M  V30 5126 C 455.464 3.15626 -4.88626 0
M  V30 5127 N 454.44 3.43298 -4.21483 0
M  V30 5128 H 458.242 1.48708 -2.53502 0
M  V30 5129 H 455.756 0.733343 -1.44899 0
M  V30 5130 H 457.753 3.8062 -1.70101 0
M  V30 5131 H 456.413 3.16783 -0.712636 0
M  V30 5132 H 457.424 2.75329 -4.3865 0
M  V30 5133 H 454.101 3.67728 -1.97692 0
M  V30 5134 H 455.491 3.07596 -5.97356 0
M  V30 5135 N 458.211 1.37122 0.776871 0
M  V30 5136 C 459.441 1.35034 1.56363 0
M  V30 5137 C 459.849 -0.0674681 1.8908 0
M  V30 5138 O 459.192 -1.03826 1.51545 0
M  V30 5139 C 459.254 2.11894 2.90415 0
M  V30 5140 C 458.918 3.60897 2.80362 0
M  V30 5141 C 459.915 4.54887 2.51742 0
M  V30 5142 C 457.6 4.03951 2.98545 0
M  V30 5143 C 459.594 5.89909 2.41426 0
M  V30 5144 C 457.281 5.3906 2.87849 0
M  V30 5145 C 458.279 6.31852 2.5933 0
M  V30 5146 O 457.967 7.64479 2.48651 0
M  V30 5147 H 457.699 0.464402 0.49123 0
M  V30 5148 H 460.253 1.80992 0.971127 0
M  V30 5149 H 458.483 1.60618 3.51765 0
M  V30 5150 H 460.172 2.02505 3.51776 0
M  V30 5151 H 460.938 4.22934 2.37385 0
M  V30 5152 H 456.817 3.3209 3.19746 0
M  V30 5153 H 460.361 6.62304 2.19086 0
M  V30 5154 H 456.258 5.70617 3.01773 0
M  V30 5155 H 457.026 7.74742 2.64039 0
M  V30 5156 N 459.689 -1.00246 1.21608 0
M  V30 5157 C 460.937 -1.73717 1.0328 0
M  V30 5158 C 461.258 -1.90102 -0.434318 0
M  V30 5159 O 460.528 -1.45376 -1.31311 0
M  V30 5160 H 459.108 -0.643613 0.379172 0
M  V30 5161 H 461.77 -1.20787 1.52959 0
M  V30 5162 H 460.866 -2.73535 1.50283 0
M  V30 5163 N 461.167 -1.02423 -1.1978 0
M  V30 5164 C 462.413 -0.719051 -1.89625 0
M  V30 5165 C 462.746 0.750083 -1.7913 0
M  V30 5166 O 462.021 1.54574 -1.18056 0
M  V30 5167 C 462.304 -1.16499 -3.40735 0
M  V30 5168 C 462.157 -2.695 -3.60125 0
M  V30 5169 C 463.476 -0.742166 -4.33797 0
M  V30 5170 H 460.595 -0.26269 -0.688595 0
M  V30 5171 H 463.237 -1.27333 -1.41018 0
M  V30 5172 H 461.387 -0.69341 -3.82262 0
M  V30 5173 H 463.059 -3.24569 -3.278 0
M  V30 5174 H 461.302 -3.10113 -3.03336 0
M  V30 5175 H 461.973 -2.95757 -4.66081 0
M  V30 5176 H 464.449 -1.1477 -3.99959 0
M  V30 5177 H 463.325 -1.08213 -5.38127 0
M  V30 5178 H 463.586 0.355747 -4.40666 0
M  V30 5179 N 462.645 1.35699 -0.801477 0
M  V30 5180 C 463.891 1.99208 -0.380022 0
M  V30 5181 C 464.224 1.63445 1.04878 0
M  V30 5182 O 463.499 0.895223 1.72673 0
M  V30 5183 C 463.782 3.55755 -0.557708 0
M  V30 5184 C 463.635 4.01332 -2.03107 0
M  V30 5185 C 464.954 4.40096 0.0197968 0
M  V30 5186 H 462.073 0.723667 -0.139552 0
M  V30 5187 H 464.715 1.60928 -1.01006 0
M  V30 5188 H 462.865 3.88494 -0.0213741 0
M  V30 5189 H 464.537 3.79026 -2.62939 0
M  V30 5190 H 462.78 3.52429 -2.52936 0
M  V30 5191 H 463.451 5.10234 -2.1063 0
M  V30 5192 H 465.927 4.13786 -0.438179 0
M  V30 5193 H 464.803 5.48735 -0.134477 0
M  V30 5194 H 465.064 4.2786 1.11303 0
M  V30 5195 N 464.123 0.554532 1.47522 0
M  V30 5196 C 465.071 -0.207765 2.3167 0
M  V30 5197 C 466.065 -0.911914 1.4276 0
M  V30 5198 O 467.271 -0.833504 1.59539 0
M  V30 5199 H 463.646 -0.0858726 0.747081 0
M  V30 5200 H 465.617 0.521178 2.93813 0
M  V30 5201 C 464.366 -1.2263 3.25357 0
M  V30 5202 H 463.689 -0.693887 3.93732 0
M  V30 5203 H 465.129 -1.73062 3.87073 0
M  V30 5204 C 463.588 -2.27278 2.4869 0
M  V30 5205 O 464.118 -3.34156 2.22941 0
M  V30 5206 N 462.324 -2.01134 2.09746 0
M  V30 5207 H 461.871 -1.14232 2.30887 0
M  V30 5208 H 461.829 -2.71369 1.58765 0
M  V30 5209 N 465.601 -1.54893 0.290851 0
M  V30 5210 C 466.511 -2.26812 -0.59945 0
M  V30 5211 C 467.527 -1.29963 -1.15696 0
M  V30 5212 O 468.703 -1.62928 -1.18391 0
M  V30 5213 C 465.768 -2.98716 -1.75982 0
M  V30 5214 C 464.829 -4.1108 -1.2374 0
M  V30 5215 C 464.062 -4.79546 -2.34246 0
M  V30 5216 O 464.285 -4.47309 -3.53936 0
M  V30 5217 O 463.219 -5.67165 -2.01512 0
M  V30 5218 H 467.045 -3.03696 -0.0163561 0
M  V30 5219 H 464.63 -1.49289 0.0576755 0
M  V30 5220 H 466.512 -3.43851 -2.43607 0
M  V30 5221 H 465.187 -2.24737 -2.3297 0
M  V30 5222 H 464.094 -3.70367 -0.527163 0
M  V30 5223 H 465.427 -4.87007 -0.71307 0
M  V30 5224 N 467.08 -0.0183926 -1.57589 0
M  V30 5225 C 468.357 0.700621 -1.82622 0
M  V30 5226 C 468.737 1.90951 -0.90005 0
M  V30 5227 O 468.085 2.28452 0.0469145 0
M  V30 5228 C 468.295 1.08899 -3.31575 0
M  V30 5229 C 469.643 1.48514 -3.9778 0
M  V30 5230 O 470.667 1.18227 -3.36007 0
M  V30 5231 O 469.526 2.04903 -5.06633 0
M  V30 5232 H 466.62 0.342743 -0.752633 0
M  V30 5233 H 469.166 -0.0452548 -1.6964 0
M  V30 5234 H 467.938 0.228113 -3.90635 0
M  V30 5235 H 467.561 1.89338 -3.49624 0
M  V30 5236 N 468.558 1.5553 0.254621 0
M  V30 5237 C 469.805 1.77 0.983736 0
M  V30 5238 C 470.133 0.58133 1.85609 0
M  V30 5239 O 469.388 -0.435621 1.9079 0
M  V30 5240 C 469.687 3.03891 1.88109 0
M  V30 5241 C 469.353 4.35597 1.16472 0
M  V30 5242 C 468.015 4.7139 0.966714 0
M  V30 5243 C 470.367 5.1705 0.656387 0
M  V30 5244 C 467.695 5.86176 0.247942 0
M  V30 5245 C 470.047 6.32581 -0.0488807 0
M  V30 5246 C 468.711 6.67 -0.258438 0
M  V30 5247 H 467.981 0.647688 0.359974 0
M  V30 5248 H 470.628 1.89802 0.254463 0
M  V30 5249 H 468.933 2.86068 2.67717 0
M  V30 5250 H 470.63 3.17701 2.44677 0
M  V30 5251 H 467.22 4.07475 1.32899 0
M  V30 5252 H 471.404 4.8986 0.796933 0
M  V30 5253 H 466.66 6.11354 0.075035 0
M  V30 5254 H 470.834 6.94942 -0.450444 0
M  V30 5255 H 468.461 7.55793 -0.817358 0
M  V30 5256 N 470.036 -0.519951 1.48776 0
M  V30 5257 C 470.966 -1.63253 1.66945 0
M  V30 5258 C 471.947 -1.62014 0.518224 0
M  V30 5259 O 473.132 -1.79053 0.751919 0
M  V30 5260 C 470.262 -3.0181 1.71836 0
M  V30 5261 C 469.216 -3.17911 2.8656 0
M  V30 5262 C 468.542 -4.5763 2.76548 0
M  V30 5263 C 469.842 -2.99729 4.27738 0
M  V30 5264 H 471.536 -1.48302 2.6009 0
M  V30 5265 H 469.082 -0.712026 1.25165 0
M  V30 5266 H 471.035 -3.79525 1.83135 0
M  V30 5267 H 469.759 -3.17806 0.752775 0
M  V30 5268 H 468.418 -2.42616 2.74833 0
M  V30 5269 H 468.066 -4.70476 1.77937 0
M  V30 5270 H 467.766 -4.69346 3.53536 0
M  V30 5271 H 469.29 -5.37431 2.89828 0
M  V30 5272 H 470.704 -3.67228 4.40246 0
M  V30 5273 H 469.101 -3.22932 5.05801 0
M  V30 5274 H 470.171 -1.96047 4.43502 0
M  V30 5275 N 471.514 -1.37532 -0.769588 0
M  V30 5276 C 472.444 -1.36172 -1.89682 0
M  V30 5277 C 473.425 -0.23001 -1.68538 0
M  V30 5278 O 474.61 -0.43069 -1.89364 0
M  V30 5279 C 471.74 -1.1701 -3.26995 0
M  V30 5280 C 470.694 -2.27216 -3.62708 0
M  V30 5281 C 470.02 -1.93174 -4.98586 0
M  V30 5282 C 471.32 -3.6941 -3.69234 0
M  V30 5283 H 473.014 -2.30499 -1.91078 0
M  V30 5284 H 470.56 -1.10953 -0.917902 0
M  V30 5285 H 472.513 -1.14688 -4.05493 0
M  V30 5286 H 471.237 -0.191395 -3.26039 0
M  V30 5287 H 469.896 -2.28697 -2.86519 0
M  V30 5288 H 469.544 -0.938281 -4.94171 0
M  V30 5289 H 469.244 -2.66973 -5.23449 0
M  V30 5290 H 470.768 -1.92443 -5.79481 0
M  V30 5291 H 472.182 -3.70047 -4.37879 0
M  V30 5292 H 470.579 -4.4228 -4.05597 0
M  V30 5293 H 471.649 -4.0288 -2.69844 0
M  V30 5294 N 472.992 0.995999 -1.22138 0
M  V30 5295 C 473.922 2.10387 -1.01289 0
M  V30 5296 C 474.903 1.69975 0.0651454 0
M  V30 5297 O 476.088 1.9396 -0.0964628 0
M  V30 5298 C 473.218 3.42312 -0.586517 0
M  V30 5299 C 472.172 3.96558 -1.61014 0
M  V30 5300 C 471.498 5.24494 -1.0397 0
M  V30 5301 C 472.798 4.27595 -2.99933 0
M  V30 5302 H 474.492 2.28086 -1.93951 0
M  V30 5303 H 472.038 1.09607 -0.933928 0
M  V30 5304 H 473.991 4.19223 -0.427793 0
M  V30 5305 H 472.715 3.24431 0.375761 0
M  V30 5306 H 471.374 3.21776 -1.75658 0
M  V30 5307 H 471.022 5.02953 -0.0688703 0
M  V30 5308 H 470.722 5.61755 -1.72352 0
M  V30 5309 H 472.246 6.04042 -0.892494 0
M  V30 5310 H 473.66 4.95315 -2.8868 0
M  V30 5311 H 472.057 4.76021 -3.6541 0
M  V30 5312 H 473.127 3.35498 -3.50099 0
M  V30 5313 N 474.47 1.03057 1.19235 0
M  V30 5314 C 475.417 0.612832 2.22515 0
M  V30 5315 C 476.387 -0.374224 1.61829 0
M  V30 5316 O 477.572 -0.270501 1.88873 0
M  V30 5317 C 474.712 -0.028475 3.45088 0
M  V30 5318 C 473.825 1.00483 4.20151 0
M  V30 5319 C 472.96 0.333102 5.30155 0
M  V30 5320 C 471.999 1.3522 5.96977 0
M  V30 5321 N 471.136 0.70616 6.9854 0
M  V30 5322 H 475.976 1.49812 2.57605 0
M  V30 5323 H 473.513 0.749658 1.26564 0
M  V30 5324 H 475.471 -0.417548 4.15105 0
M  V30 5325 H 474.101 -0.877334 3.10649 0
M  V30 5326 H 473.153 1.51194 3.49062 0
M  V30 5327 H 474.465 1.77929 4.65986 0
M  V30 5328 H 473.619 -0.110725 6.06599 0
M  V30 5329 H 472.358 -0.473547 4.85396 0
M  V30 5330 H 471.363 1.80627 5.19282 0
M  V30 5331 H 472.588 2.16037 6.4382 0
M  V30 5332 H 470.534 -0.0803667 6.55951 0
M  V30 5333 H 470.451 1.41848 7.42573 0
M  V30 5334 H 471.719 0.286391 7.78974 0
M  V30 5335 N 475.948 -1.35272 0.808662 0
M  V30 5336 C 477.196 -1.98316 0.389233 0
M  V30 5337 C 477.517 -1.64465 -1.04767 0
M  V30 5338 O 476.787 -0.928175 -1.72516 0
M  V30 5339 H 475.367 -0.733585 0.140935 0
M  V30 5340 H 478.029 -1.6515 1.03496 0
M  V30 5341 H 477.125 -3.08123 0.496631 0
M  V30 5342 N 477.426 -0.562348 -1.47226 0
M  V30 5343 C 478.666 -0.0426374 -2.04356 0
M  V30 5344 C 479.03 1.28487 -1.42671 0
M  V30 5345 O 480.231 1.89259 -1.90878 0
M  V30 5346 C 478.502 0.0433826 -3.57374 0
M  V30 5347 S 480.061 0.508472 -4.35844 0
M  V30 5348 H 476.879 -0.0276234 -0.710463 0
M  V30 5349 H 479.481 -0.750245 -1.80531 0
M  V30 5350 H 478.185 -0.927072 -3.99792 0
M  V30 5351 H 477.716 0.774387 -3.85703 0
M  V30 5352 H 479.731 1.76719 -4.63665 0
M  V30 5353 N 478.904 1.54736 -0.299062 0
M  V30 5354 C 480.15 2.00397 0.311244 0
M  V30 5355 C 480.483 1.18716 1.53688 0
M  V30 5356 O 479.758 0.263154 1.92712 0
M  V30 5357 C 480.041 3.53817 0.669761 0
M  V30 5358 C 479.894 4.46239 -0.564882 0
M  V30 5359 C 481.213 4.13856 1.49702 0
M  V30 5360 H 478.332 0.728493 0.111653 0
M  V30 5361 H 480.974 1.85506 -0.410774 0
M  V30 5362 H 479.124 3.66637 1.28491 0
M  V30 5363 H 480.796 4.45328 -1.20337 0
M  V30 5364 H 479.039 4.16916 -1.19849 0
M  V30 5365 H 479.71 5.5134 -0.269918 0
M  V30 5366 H 482.186 4.04461 0.977284 0
M  V30 5367 H 481.062 5.21365 1.71666 0
M  V30 5368 H 481.323 3.65608 2.48563 0
M  V30 5369 N 480.382 0.0267497 1.57577 0
M  V30 5370 C 481.345 -0.940916 2.08996 0
M  V30 5371 C 482.345 -1.25561 1.00455 0
M  V30 5372 O 483.535 -1.19634 1.26623 0
M  V30 5373 C 480.667 -2.25814 2.55384 0
M  V30 5374 H 481.86 -0.495628 2.95776 0
M  V30 5375 H 479.413 -0.221241 1.54726 0
M  V30 5376 H 480.148 -2.74976 1.71926 0
M  V30 5377 H 479.933 -2.04285 3.34679 0
M  V30 5378 H 481.423 -2.95178 2.95398 0
M  V30 5379 N 481.861 -1.55662 -0.24637 0
M  V30 5380 C 483.109 -1.77168 -0.972411 0
M  V30 5381 C 483.43 -0.590827 -1.85834 0
M  V30 5382 O 482.7 0.393365 -1.9191 0
M  V30 5383 H 481.28 -0.653405 -0.362038 0
M  V30 5384 H 483.942 -1.93101 -0.264189 0
M  V30 5385 H 483.038 -2.68335 -1.59382 0
M  V30 5386 N 483.339 0.512053 -1.4905 0
M  V30 5387 C 484.567 1.29116 -1.61669 0
M  V30 5388 C 484.982 1.86655 -0.283787 0
M  V30 5389 O 484.339 1.67293 0.729331 0
M  V30 5390 C 484.39 2.4293 -2.67707 0
M  V30 5391 O 484.111 1.87758 -3.95826 0
M  V30 5392 C 485.612 3.34476 -2.90931 0
M  V30 5393 H 482.832 0.392009 -0.544583 0
M  V30 5394 H 485.376 0.615881 -1.95006 0
M  V30 5395 H 483.531 3.06308 -2.37179 0
M  V30 5396 H 483.945 2.62393 -4.54148 0
M  V30 5397 H 485.419 4.10642 -3.68886 0
M  V30 5398 H 485.896 3.90801 -2.00427 0
M  V30 5399 H 486.502 2.76874 -3.22832 0
M  V30 5400 N 484.817 1.37938 0.762283 0
M  V30 5401 C 485.764 1.34467 1.87583 0
M  V30 5402 C 486.734 0.208633 1.64785 0
M  V30 5403 O 487.919 0.399494 1.86571 0
M  V30 5404 C 485.059 1.16692 3.24772 0
M  V30 5405 C 484.172 2.39608 3.59461 0
M  V30 5406 C 483.307 2.14631 4.85908 0
M  V30 5407 C 482.346 3.33364 5.13357 0
M  V30 5408 N 481.483 3.07877 6.30996 0
M  V30 5409 H 486.323 2.29669 1.89885 0
M  V30 5410 H 483.86 1.14116 0.928219 0
M  V30 5411 H 485.818 1.04405 4.03925 0
M  V30 5412 H 484.448 0.251333 3.2182 0
M  V30 5413 H 483.5 2.626 2.75219 0
M  V30 5414 H 484.812 3.28128 3.75678 0
M  V30 5415 H 483.966 1.99429 5.72986 0
M  V30 5416 H 482.705 1.23463 4.71814 0
M  V30 5417 H 481.71 3.49094 4.24751 0
M  V30 5418 H 482.935 4.25395 5.29354 0
M  V30 5419 H 480.881 2.19348 6.18241 0
M  V30 5420 H 480.798 3.89944 6.47673 0
M  V30 5421 H 482.066 2.96313 7.20985 0
M  V30 5422 N 486.295 -0.989507 1.22664 0
M  V30 5423 C 487.242 -2.08024 0.999733 0
M  V30 5424 C 488.212 -1.65909 -0.0797047 0
M  V30 5425 O 489.397 -1.90669 0.0705715 0
M  V30 5426 C 486.537 -3.40067 0.587234 0
M  V30 5427 C 485.65 -3.95505 1.73781 0
M  V30 5428 C 484.785 -5.15722 1.27297 0
M  V30 5429 C 483.824 -5.63305 2.39488 0
M  V30 5430 N 482.961 -6.74758 1.94026 0
M  V30 5431 H 487.801 -2.26768 1.9334 0
M  V30 5432 H 485.338 -1.11171 0.963297 0
M  V30 5433 H 487.296 -4.15899 0.329227 0
M  V30 5434 H 485.926 -3.21314 -0.309426 0
M  V30 5435 H 484.978 -3.16513 2.11006 0
M  V30 5436 H 486.29 -4.26797 2.58158 0
M  V30 5437 H 485.444 -5.98854 0.972546 0
M  V30 5438 H 484.183 -4.86061 0.399445 0
M  V30 5439 H 483.188 -4.78759 2.70315 0
M  V30 5440 H 484.413 -5.94988 3.27362 0
M  V30 5441 H 482.359 -6.46874 1.09041 0
M  V30 5442 H 482.276 -7.05386 2.71968 0
M  V30 5443 H 483.544 -7.61387 1.67062 0
M  V30 5444 N 487.773 -1.03688 -1.18687 0
M  V30 5445 C 489.189 -0.755413 -1.4059 0
M  V30 5446 C 489.389 0.656659 -1.905 0
M  V30 5447 O 488.445 1.42144 -2.08689 0
M  V30 5448 C 489.758 -1.7983 -2.41001 0
M  V30 5449 C 491.306 -1.81877 -2.54735 0
M  V30 5450 C 491.781 -2.85148 -3.58406 0
M  V30 5451 N 493.272 -2.84015 -3.6591 0
M  V30 5452 C 494.007 -3.60573 -4.45841 0
M  V30 5453 N 493.503 -4.46871 -5.29413 0
M  V30 5454 N 495.296 -3.49079 -4.40568 0
M  V30 5455 H 487.447 -1.94818 -0.846148 0
M  V30 5456 H 489.71 -0.842727 -0.434184 0
M  V30 5457 H 489.416 -2.81097 -2.1137 0
M  V30 5458 H 489.29 -1.62727 -3.40294 0
M  V30 5459 H 491.677 -0.812836 -2.83685 0
M  V30 5460 H 491.758 -2.03057 -1.55568 0
M  V30 5461 H 491.402 -3.85918 -3.30197 0
M  V30 5462 H 491.332 -2.61224 -4.57241 0
M  V30 5463 H 493.823 -2.21431 -3.0623 0
M  V30 5464 H 494.136 -5.02007 -5.87545 0
M  V30 5465 H 492.481 -4.5094 -5.28846 0
M  V30 5466 H 495.672 -2.81066 -3.74325 0
M  V30 5467 H 495.845 -4.08994 -5.02621 0
M  V30 5468 N 489.251 1.34841 -0.815825 0
M  V30 5469 C 490.662 1.80937 -0.46029 0
M  V30 5470 C 491.013 1.67685 1.01863 0
M  V30 5471 O 490.138 1.21277 1.79223 0
M  V30 5472 C 490.733 3.28509 -0.828708 0
M  V30 5473 C 489.292 3.72712 -0.525644 0
M  V30 5474 C 488.439 2.56676 -1.04941 0
M  V30 5475 H 491.39 1.22688 -1.00664 0
M  V30 5476 H 491.411 3.80279 -0.129757 0
M  V30 5477 H 490.923 3.38122 -1.90513 0
M  V30 5478 H 489.024 3.68642 0.541666 0
M  V30 5479 H 489.137 4.67119 -1.06474 0
M  V30 5480 H 487.501 2.50302 -0.471286 0
M  V30 5481 H 488.284 2.69063 -2.13214 0
M  V30 5482 N 490.729 0.570148 1.46925 0
M  V30 5483 C 491.978 0.0487352 2.01641 0
M  V30 5484 C 492.291 -1.31433 1.44861 0
M  V30 5485 O 493.497 -1.92638 1.91318 0
M  V30 5486 C 491.953 0.0365817 3.59881 0
M  V30 5487 C 491.561 1.39719 4.25655 0
M  V30 5488 C 493.305 -0.431545 4.22301 0
M  V30 5489 C 491.212 1.34345 5.75939 0
M  V30 5490 H 490.142 0.0144492 0.753862 0
M  V30 5491 H 492.793 0.719928 1.68788 0
M  V30 5492 H 491.175 -0.700522 3.89755 0
M  V30 5493 H 492.349 2.15303 4.07408 0
M  V30 5494 H 490.664 1.80431 3.75278 0
M  V30 5495 H 493.261 -0.490354 5.32447 0
M  V30 5496 H 493.604 -1.44638 3.90366 0
M  V30 5497 H 494.137 0.251102 3.97007 0
M  V30 5498 H 490.876 2.33469 6.12513 0
M  V30 5499 H 490.396 0.629615 5.96486 0
M  V30 5500 H 492.075 1.051 6.38407 0
M  V30 5501 N 492.207 -1.54576 0.307264 0
M  V30 5502 C 493.435 -2.04675 -0.302597 0
M  V30 5503 C 493.85 -1.18425 -1.47041 0
M  V30 5504 O 493.207 -0.211257 -1.81273 0
M  V30 5505 C 493.258 -3.53575 -0.752801 0
M  V30 5506 O 492.979 -4.36547 0.368536 0
M  V30 5507 C 494.48 -4.19699 -1.42717 0
M  V30 5508 H 491.7 -0.66786 -0.0648374 0
M  V30 5509 H 494.244 -1.99516 0.448716 0
M  V30 5510 H 492.399 -3.59074 -1.45412 0
M  V30 5511 H 492.813 -5.24497 0.0168937 0
M  V30 5512 H 494.287 -5.25388 -1.69327 0
M  V30 5513 H 494.764 -3.69815 -2.36925 0
M  V30 5514 H 495.37 -4.18293 -0.768856 0
M  V30 5515 N 493.685 -0.035106 -1.57561 0
M  V30 5516 C 494.615 0.942993 -2.13612 0
M  V30 5517 C 495.596 1.33531 -1.05373 0
M  V30 5518 O 496.781 1.41287 -1.33235 0
M  V30 5519 C 493.911 2.22332 -2.66807 0
M  V30 5520 C 492.865 1.97156 -3.79886 0
M  V30 5521 C 492.191 3.31506 -4.19533 0
M  V30 5522 C 493.491 1.30596 -5.05709 0
M  V30 5523 H 495.185 0.476179 -2.95589 0
M  V30 5524 H 492.731 0.227602 -1.4219 0
M  V30 5525 H 494.684 2.91142 -3.04654 0
M  V30 5526 H 493.408 2.7119 -1.81999 0
M  V30 5527 H 492.067 1.30763 -3.42486 0
M  V30 5528 H 491.715 3.78134 -3.31698 0
M  V30 5529 H 491.415 3.15465 -4.95738 0
M  V30 5530 H 492.939 4.01574 -4.59968 0
M  V30 5531 H 494.353 1.89416 -5.41105 0
M  V30 5532 H 492.75 1.24934 -5.86951 0
M  V30 5533 H 493.82 0.279742 -4.84092 0
M  V30 5534 N 495.163 1.55791 0.238111 0
M  V30 5535 C 496.579 1.48411 0.587045 0
M  V30 5536 C 496.779 0.72702 1.87927 0
M  V30 5537 O 495.835 0.259942 2.51158 0
M  V30 5538 C 497.148 2.92873 0.681623 0
M  V30 5539 C 498.696 3.03295 0.773363 0
M  V30 5540 C 499.171 4.49082 0.899428 0
M  V30 5541 N 500.662 4.53056 0.964075 0
M  V30 5542 C 501.397 5.63117 1.08104 0
M  V30 5543 N 500.893 6.82969 1.16299 0
M  V30 5544 N 502.686 5.50933 1.11488 0
M  V30 5545 H 494.837 2.0345 -0.610076 0
M  V30 5546 H 497.1 0.924034 -0.211813 0
M  V30 5547 H 496.806 3.51142 -0.19802 0
M  V30 5548 H 496.68 3.43851 1.55069 0
M  V30 5549 H 499.067 2.45101 1.64346 0
M  V30 5550 H 499.148 2.55513 -0.121034 0
M  V30 5551 H 498.792 5.07889 0.0338586 0
M  V30 5552 H 498.722 4.94553 1.809 0
M  V30 5553 H 501.213 3.66737 0.91173 0
M  V30 5554 H 501.526 7.62598 1.25155 0
M  V30 5555 H 499.871 6.85712 1.13241 0
M  V30 5556 H 503.062 4.56231 1.0474 0
M  V30 5557 H 503.235 6.36743 1.20259 0
M  V30 5558 N 496.642 -0.504142 1.49319 0
M  V30 5559 C 497.589 -1.60603 1.65756 0
M  V30 5560 C 498.559 -1.58425 0.499082 0
M  V30 5561 O 499.744 -1.76459 0.725728 0
M  V30 5562 C 496.884 -2.98764 1.72726 0
M  V30 5563 C 495.997 -3.10982 2.99857 0
M  V30 5564 C 495.132 -4.39857 2.97824 0
M  V30 5565 C 494.171 -4.45697 4.19548 0
M  V30 5566 N 493.308 -5.65995 4.15444 0
M  V30 5567 H 498.148 -1.45895 2.59843 0
M  V30 5568 H 495.685 -0.709891 1.28837 0
M  V30 5569 H 497.643 -3.78839 1.74747 0
M  V30 5570 H 496.273 -3.12183 0.821075 0
M  V30 5571 H 495.325 -2.23991 3.07461 0
M  V30 5572 H 496.637 -3.11157 3.89849 0
M  V30 5573 H 495.791 -5.2825 2.98391 0
M  V30 5574 H 494.53 -4.42242 2.05604 0
M  V30 5575 H 493.535 -3.55707 4.19229 0
M  V30 5576 H 494.76 -4.4503 5.12957 0
M  V30 5577 H 492.706 -5.69229 3.26059 0
M  V30 5578 H 492.623 -5.67773 4.99169 0
M  V30 5579 H 493.891 -6.56604 4.20109 0
M  V30 5580 N 498.12 -1.38341 -0.754957 0
M  V30 5581 C 499.068 -1.35573 -1.89005 0
M  V30 5582 C 500.062 -0.241824 -1.67665 0
M  V30 5583 O 501.268 -0.410785 -1.7525 0
M  V30 5584 H 497.643 -0.422898 -0.621821 0
M  V30 5585 H 499.614 -2.31359 -1.88455 0
M  V30 5586 C 498.363 -1.19631 -3.26471 0
M  V30 5587 H 497.686 -2.04605 -3.43477 0
M  V30 5588 H 499.126 -1.21748 -4.06144 0
M  V30 5589 C 497.585 0.0968705 -3.36761 0
M  V30 5590 O 498.115 1.07439 -3.87066 0
M  V30 5591 N 496.321 0.153242 -2.90196 0
M  V30 5592 H 495.868 -0.642908 -2.49448 0
M  V30 5593 H 495.826 1.01807 -2.9746 0
M  V30 5594 N 499.598 0.982988 -1.23187 0
M  V30 5595 C 500.847 1.71817 -1.05649 0
M  V30 5596 C 501.16 1.91315 0.407176 0
M  V30 5597 O 502.366 2.62256 0.702436 0
M  V30 5598 C 500.822 3.09188 -1.84203 0
M  V30 5599 C 500.43 2.97586 -3.34882 0
M  V30 5600 C 502.174 3.86684 -1.75146 0
M  V30 5601 C 500.081 4.30173 -4.05839 0
M  V30 5602 H 499.011 0.644258 -0.391724 0
M  V30 5603 H 501.662 1.09659 -1.4713 0
M  V30 5604 H 500.044 3.72087 -1.35527 0
M  V30 5605 H 501.218 2.43793 -3.91026 0
M  V30 5606 H 499.533 2.33567 -3.44725 0
M  V30 5607 H 502.13 4.84836 -2.25473 0
M  V30 5608 H 502.473 4.10136 -0.713737 0
M  V30 5609 H 503.006 3.30482 -2.21419 0
M  V30 5610 H 499.745 4.11918 -5.09906 0
M  V30 5611 H 499.265 4.83841 -3.54482 0
M  V30 5612 H 500.944 4.98873 -4.11989 0
M  V30 5613 N 501.076 1.04316 1.18135 0
M  V30 5614 C 502.322 0.749128 1.88457 0
M  V30 5615 C 502.655 -0.72149 1.803 0
M  V30 5616 O 501.93 -1.52676 1.205 0
M  V30 5617 C 502.213 1.21905 3.38838 0
M  V30 5618 C 502.066 2.75195 3.55792 0
M  V30 5619 C 503.385 0.811085 4.32561 0
M  V30 5620 H 500.504 0.273611 0.684329 0
M  V30 5621 H 503.146 1.29561 1.38975 0
M  V30 5622 H 501.296 0.754137 3.8111 0
M  V30 5623 H 502.968 3.29743 3.22595 0
M  V30 5624 H 501.211 3.14899 2.98364 0
M  V30 5625 H 501.882 3.03135 4.61317 0
M  V30 5626 H 504.358 1.21118 3.98082 0
M  V30 5627 H 503.234 1.16761 5.36338 0
M  V30 5628 H 503.495 -0.285596 4.41177 0
M  V30 5629 N 502.554 -1.34406 0.822964 0
M  V30 5630 C 503.965 -1.8069 0.469879 0
M  V30 5631 C 504.316 -1.68223 -1.00972 0
M  V30 5632 O 503.441 -1.22226 -1.78577 0
M  V30 5633 C 504.036 -3.28064 0.846118 0
M  V30 5634 C 502.595 -3.72428 0.545402 0
M  V30 5635 C 501.742 -2.56116 1.06301 0
M  V30 5636 H 504.693 -1.22153 1.01313 0
M  V30 5637 H 504.714 -3.80205 0.149922 0
M  V30 5638 H 504.226 -3.37107 1.92304 0
M  V30 5639 H 502.327 -3.68924 -0.522109 0
M  V30 5640 H 502.44 -4.66548 1.0895 0
M  V30 5641 H 500.804 -2.50048 0.484554 0
M  V30 5642 H 501.587 -2.67928 2.14638 0
M  V30 5643 N 504.032 -0.577932 -1.46621 0
M  V30 5644 C 504.964 0.195801 -2.28362 0
M  V30 5645 C 505.977 0.859983 -1.38232 0
M  V30 5646 O 507.166 0.730349 -1.62875 0
M  V30 5647 C 504.266 1.29639 -3.13124 0
M  V30 5648 C 503.439 0.725049 -4.31349 0
M  V30 5649 C 502.498 1.71274 -4.97546 0
M  V30 5650 O 501.524 1.25067 -5.5529 0
M  V30 5651 N 502.726 3.04672 -4.94121 0
M  V30 5652 H 505.491 -0.505468 -2.95407 0
M  V30 5653 H 503.052 -0.415381 -1.56481 0
M  V30 5654 H 505.044 1.95631 -3.54275 0
M  V30 5655 H 503.614 1.90059 -2.48186 0
M  V30 5656 H 502.834 -0.112205 -3.9404 0
M  V30 5657 H 504.122 0.323034 -5.07774 0
M  V30 5658 H 503.52 3.4484 -4.48444 0
M  V30 5659 H 502.077 3.66166 -5.39227 0
M  V30 5660 N 505.51 1.54411 -0.315457 0
M  V30 5661 C 506.756 2.00716 0.289972 0
M  V30 5662 C 507.089 1.2034 1.5242 0
M  V30 5663 O 506.364 0.283579 1.92422 0
M  V30 5664 C 506.647 3.54507 0.632196 0
M  V30 5665 C 506.5 4.45615 -0.61218 0
M  V30 5666 C 507.819 4.15421 1.45305 0
M  V30 5667 H 504.938 0.729637 0.10392 0
M  V30 5668 H 507.58 1.8506 -0.430427 0
M  V30 5669 H 505.73 3.67979 1.24595 0
M  V30 5670 H 507.402 4.44026 -1.25053 0
M  V30 5671 H 505.645 4.15621 -1.24264 0
M  V30 5672 H 506.316 5.51022 -0.328379 0
M  V30 5673 H 508.792 4.05474 0.934331 0
M  V30 5674 H 507.668 5.23157 1.66127 0
M  V30 5675 H 507.929 3.68223 2.44671 0
M  V30 5676 N 506.988 0.0434614 1.5754 0
M  V30 5677 C 508.213 -0.645358 1.97104 0
M  V30 5678 C 508.638 -1.64037 0.920521 0
M  V30 5679 O 507.996 -1.80922 -0.11708 0
M  V30 5680 C 508.044 -1.31547 3.35749 0
M  V30 5681 O 507.148 -2.43103 3.33129 0
M  V30 5682 H 506.489 -0.168403 0.64229 0
M  V30 5683 H 509.019 0.109573 2.04306 0
M  V30 5684 H 509.029 -1.66895 3.72304 0
M  V30 5685 H 507.704 -0.586205 4.11748 0
M  V30 5686 H 506.281 -2.0976 3.0831 0
M  V30 5687 N 508.466 -1.55915 -0.229846 0
M  V30 5688 C 509.882 -1.48721 -0.579166 0
M  V30 5689 C 510.082 -0.736976 -1.87539 0
M  V30 5690 O 509.138 -0.273258 -2.51017 0
M  V30 5691 C 510.451 -2.9323 -0.666082 0
M  V30 5692 C 511.999 -3.03701 -0.757267 0
M  V30 5693 C 512.474 -4.49552 -0.8756 0
M  V30 5694 N 513.965 -4.53561 -0.940035 0
M  V30 5695 C 514.7 -5.63683 -1.05116 0
M  V30 5696 N 514.196 -6.83576 -1.12675 0
M  V30 5697 N 515.989 -5.51516 -1.08565 0
M  V30 5698 H 508.14 -2.03123 0.620857 0
M  V30 5699 H 510.403 -0.922898 0.21671 0
M  V30 5700 H 510.109 -3.51032 0.21664 0
M  V30 5701 H 509.983 -3.44668 -1.53243 0
M  V30 5702 H 512.37 -2.45969 -1.63043 0
M  V30 5703 H 512.451 -2.55446 0.134583 0
M  V30 5704 H 512.095 -5.079 -0.00692351 0
M  V30 5705 H 512.025 -4.95506 -1.78274 0
M  V30 5706 H 514.516 -3.67215 -0.892269 0
M  V30 5707 H 514.829 -7.63251 -1.21109 0
M  V30 5708 H 513.174 -6.86303 -1.09603 0
M  V30 5709 H 516.365 -4.5678 -1.02319 0
M  V30 5710 H 516.538 -6.37372 -1.1688 0
M  V30 5711 N 509.944 0.496216 -1.49584 0
M  V30 5712 C 511.221 1.25755 -1.49816 0
M  V30 5713 C 511.601 2.09859 -0.228572 0
M  V30 5714 O 510.949 2.14449 0.788908 0
M  V30 5715 C 511.159 2.11017 -2.7798 0
M  V30 5716 C 512.507 2.70047 -3.27658 0
M  V30 5717 O 513.531 2.21281 -2.79129 0
M  V30 5718 O 512.39 3.58834 -4.1219 0
M  V30 5719 H 509.484 0.569322 -0.599834 0
M  V30 5720 H 512.03 0.510094 -1.61852 0
M  V30 5721 H 510.802 1.48879 -3.61871 0
M  V30 5722 H 510.425 2.92947 -2.68827 0
M  V30 5723 N 511.423 1.38739 0.74761 0
M  V30 5724 C 512.386 1.36241 1.84312 0
M  V30 5725 C 513.386 0.261811 1.58654 0
M  V30 5726 O 514.576 0.519031 1.66288 0
M  V30 5727 C 511.708 1.12253 3.21888 0
M  V30 5728 H 512.901 2.33712 1.87933 0
M  V30 5729 H 510.454 1.2412 0.949946 0
M  V30 5730 H 511.189 0.154133 3.23934 0
M  V30 5731 H 510.974 1.91943 3.41907 0
M  V30 5732 H 512.464 1.13215 4.0196 0
M  V30 5733 N 512.901 -0.976442 1.23707 0
M  V30 5734 C 513.831 -2.08749 1.04624 0
M  V30 5735 C 514.812 -1.70057 -0.0380956 0
M  V30 5736 O 515.997 -1.93782 0.127308 0
M  V30 5737 C 513.127 -3.41335 0.640902 0
M  V30 5738 C 512.081 -3.93947 1.67302 0
M  V30 5739 C 511.407 -5.22774 1.12301 0
M  V30 5740 C 512.707 -4.22769 3.06697 0
M  V30 5741 H 514.401 -2.24972 1.97555 0
M  V30 5742 H 511.947 -1.08108 0.951247 0
M  V30 5743 H 513.9 -4.18489 0.494434 0
M  V30 5744 H 512.624 -3.24988 -0.324099 0
M  V30 5745 H 511.283 -3.18941 1.80755 0
M  V30 5746 H 510.931 -5.0278 0.148877 0
M  V30 5747 H 510.631 -5.58942 1.81267 0
M  V30 5748 H 512.155 -6.02546 0.988479 0
M  V30 5749 H 513.569 -4.90659 2.96524 0
M  V30 5750 H 511.966 -4.70147 3.72937 0
M  V30 5751 H 513.036 -3.29885 3.55392 0
M  V30 5752 N 514.379 -1.04941 -1.1758 0
M  V30 5753 C 515.342 -0.652456 -2.19717 0
M  V30 5754 C 516.342 0.294745 -1.58076 0
M  V30 5755 O 517.532 0.0789579 -1.74021 0
M  V30 5756 C 514.664 0.0420712 -3.40874 0
M  V30 5757 H 515.857 -1.55642 -2.5635 0
M  V30 5758 H 513.41 -0.842995 -1.31618 0
M  V30 5759 H 514.145 0.95943 -3.09783 0
M  V30 5760 H 513.93 -0.638844 -3.86861 0
M  V30 5761 H 515.42 0.306 -4.16477 0
M  V30 5762 N 515.857 1.33968 -0.830081 0
M  V30 5763 C 516.789 2.28194 -0.21448 0
M  V30 5764 C 517.802 1.5135 0.599752 0
M  V30 5765 O 518.991 1.73286 0.42826 0
M  V30 5766 C 516.091 3.31221 0.717356 0
M  V30 5767 C 515.264 4.37365 -0.055613 0
M  V30 5768 C 514.323 5.2011 0.798231 0
M  V30 5769 O 513.349 5.68691 0.240616 0
M  V30 5770 N 514.551 5.40523 2.11695 0
M  V30 5771 H 517.316 2.81662 -1.02405 0
M  V30 5772 H 514.877 1.46568 -0.687713 0
M  V30 5773 H 516.869 3.83477 1.29334 0
M  V30 5774 H 515.439 2.78095 1.42765 0
M  V30 5775 H 514.659 3.85727 -0.812936 0
M  V30 5776 H 515.947 5.05397 -0.587444 0
M  V30 5777 H 515.345 5.0274 2.59363 0
M  V30 5778 H 513.902 5.95871 2.64162 0
M  V30 5779 N 517.335 0.585699 1.46312 0
M  V30 5780 C 518.581 0.0725284 2.0267 0
M  V30 5781 C 518.914 -1.28523 1.45586 0
M  V30 5782 O 518.189 -1.84283 0.622101 0
M  V30 5783 C 518.472 0.0099788 3.60099 0
M  V30 5784 C 518.325 1.39685 4.27561 0
M  V30 5785 C 519.644 -0.689117 4.34671 0
M  V30 5786 H 516.763 0.0278307 0.736474 0
M  V30 5787 H 519.405 0.753472 1.74421 0
M  V30 5788 H 517.555 -0.56992 3.84297 0
M  V30 5789 H 519.227 2.02215 4.14617 0
M  V30 5790 H 517.47 1.96374 3.86807 0
M  V30 5791 H 518.141 1.30553 5.36339 0
M  V30 5792 H 520.617 -0.196446 4.15636 0
M  V30 5793 H 519.493 -0.701921 5.44393 0
M  V30 5794 H 519.754 -1.75101 4.05946 0
M  V30 5795 N 518.813 -1.54241 0.323641 0
M  V30 5796 C 520.038 -2.05452 -0.283605 0
M  V30 5797 C 520.463 -1.19823 -1.44997 0
M  V30 5798 O 519.821 -0.207358 -1.8011 0
M  V30 5799 C 519.869 -3.53823 -0.695795 0
M  V30 5800 O 518.973 -3.71134 -1.79815 0
M  V30 5801 H 518.314 -0.662024 -0.0511917 0
M  V30 5802 H 520.844 -1.99079 0.472073 0
M  V30 5803 H 520.854 -3.96094 -0.978434 0
M  V30 5804 H 519.529 -4.15602 0.157287 0
M  V30 5805 H 518.106 -3.40768 -1.51431 0
M  V30 5806 N 520.291 -0.0518155 -1.57515 0
M  V30 5807 C 521.221 0.920283 -2.146 0
M  V30 5808 C 522.202 1.32406 -1.06783 0
M  V30 5809 O 523.387 1.39866 -1.34726 0
M  V30 5810 C 520.517 2.1949 -2.6915 0
M  V30 5811 C 519.471 1.93116 -3.81956 0
M  V30 5812 C 518.797 3.27037 -4.23026 0
M  V30 5813 C 520.097 1.25225 -5.07066 0
M  V30 5814 H 521.791 0.444801 -2.96077 0
M  V30 5815 H 519.337 0.212508 -1.42423 0
M  V30 5816 H 521.29 2.87894 -3.07725 0
M  V30 5817 H 520.014 2.69244 -1.84865 0
M  V30 5818 H 518.673 1.27123 -3.43854 0
M  V30 5819 H 518.321 3.74595 -3.3569 0
M  V30 5820 H 518.021 3.10189 -4.99056 0
M  V30 5821 H 519.545 3.96673 -4.64202 0
M  V30 5822 H 520.959 1.83666 -5.43083 0
M  V30 5823 H 519.356 1.18702 -5.88243 0
M  V30 5824 H 520.426 0.228382 -4.84362 0
M  V30 5825 N 521.769 1.56035 0.221574 0
M  V30 5826 C 522.716 1.92413 1.27459 0
M  V30 5827 C 523.686 0.781323 1.46576 0
M  V30 5828 O 524.871 1.03721 1.60145 0
M  V30 5829 C 522.011 2.24617 2.61995 0
M  V30 5830 C 521.124 3.51831 2.50677 0
M  V30 5831 C 520.259 3.73482 3.77736 0
M  V30 5832 C 519.298 4.94211 3.6114 0
M  V30 5833 N 518.435 5.12252 4.80148 0
M  V30 5834 H 523.275 2.82203 0.957355 0
M  V30 5835 H 520.812 1.39676 0.461415 0
M  V30 5836 H 522.77 2.41298 3.40339 0
M  V30 5837 H 521.4 1.38 2.91815 0
M  V30 5838 H 520.452 3.43343 1.63767 0
M  V30 5839 H 521.764 4.40328 2.34334 0
M  V30 5840 H 520.918 3.9026 4.64523 0
M  V30 5841 H 519.657 2.83266 3.97003 0
M  V30 5842 H 518.662 4.77384 2.72736 0
M  V30 5843 H 519.887 5.85912 3.43343 0
M  V30 5844 H 517.833 4.24978 4.99729 0
M  V30 5845 H 517.75 5.94881 4.66532 0
M  V30 5846 H 519.018 5.33465 5.68362 0
M  V30 5847 N 523.247 -0.488276 1.49845 0
M  V30 5848 C 524.494 -1.24157 1.59973 0
M  V30 5849 C 524.822 -1.92293 0.292182 0
M  V30 5850 O 524.077 -1.81942 -0.720813 0
M  V30 5851 C 524.376 -2.32152 2.71735 0
M  V30 5852 C 524.042 -1.81387 4.12807 0
M  V30 5853 C 522.704 -1.67262 4.51195 0
M  V30 5854 C 525.056 -1.43537 5.01045 0
M  V30 5855 C 522.384 -1.13685 5.7558 0
M  V30 5856 C 524.736 -0.914081 6.25961 0
M  V30 5857 C 523.4 -0.759327 6.63167 0
M  V30 5858 H 522.67 -0.454322 0.585383 0
M  V30 5859 H 525.317 -0.540261 1.83721 0
M  V30 5860 H 523.622 -3.08122 2.42008 0
M  V30 5861 H 525.319 -2.90164 2.76778 0
M  V30 5862 H 521.909 -1.93344 3.82513 0
M  V30 5863 H 526.093 -1.53292 4.72033 0
M  V30 5864 H 521.349 -1.00426 6.03096 0
M  V30 5865 H 525.523 -0.612066 6.93705 0
M  V30 5866 H 523.15 -0.342002 7.5943 0
M  V30 5867 N 524.725 -1.39134 -0.740242 0
M  V30 5868 C 525.974 -1.35384 -1.49512 0
M  V30 5869 C 526.287 0.04919 -1.95538 0
M  V30 5870 O 527.493 0.209257 -2.70692 0
M  V30 5871 C 525.949 -2.37812 -2.70136 0
M  V30 5872 C 525.557 -3.83804 -2.31081 0
M  V30 5873 C 527.301 -2.4313 -3.47977 0
M  V30 5874 C 525.208 -4.77886 -3.48395 0
M  V30 5875 H 524.138 -0.503297 -0.561434 0
M  V30 5876 H 526.789 -1.64754 -0.807974 0
M  V30 5877 H 525.171 -2.01505 -3.40899 0
M  V30 5878 H 526.345 -4.29123 -1.67898 0
M  V30 5879 H 524.66 -3.81732 -1.66343 0
M  V30 5880 H 527.257 -3.10614 -4.35228 0
M  V30 5881 H 527.6 -1.45423 -3.90074 0
M  V30 5882 H 528.133 -2.78304 -2.84239 0
M  V30 5883 H 524.872 -5.76836 -3.11353 0
M  V30 5884 H 524.392 -4.3725 -4.10576 0
M  V30 5885 H 526.071 -4.96538 -4.148 0
M  V30 5886 N 526.204 0.969867 -1.24223 0
M  V30 5887 C 527.481 1.68774 -0.988664 0
M  V30 5888 C 527.861 2.05342 0.489673 0
M  V30 5889 O 527.209 1.75486 1.46345 0
M  V30 5890 C 527.419 2.92135 -1.90941 0
M  V30 5891 C 528.767 3.64422 -2.17903 0
M  V30 5892 O 529.791 3.02188 -1.88576 0
M  V30 5893 O 528.65 4.76446 -2.67697 0
M  V30 5894 H 525.744 0.737736 -0.37373 0
M  V30 5895 H 528.29 1.02415 -1.35312 0
M  V30 5896 H 527.062 2.61788 -2.90831 0
M  V30 5897 H 526.685 3.66228 -1.54798 0
M  V30 5898 N 527.682 1.05563 1.17022 0
M  V30 5899 C 528.91 0.78845 1.91288 0
M  V30 5900 C 529.325 -0.656318 1.77025 0
M  V30 5901 O 528.682 -1.44869 1.10992 0
M  V30 5902 C 528.733 1.16444 3.42232 0
M  V30 5903 O 528.454 2.5525 3.5606 0
M  V30 5904 C 529.955 0.923937 4.33565 0
M  V30 5905 H 527.175 0.286389 0.606813 0
M  V30 5906 H 529.719 1.4073 1.48375 0
M  V30 5907 H 527.874 0.590266 3.82877 0
M  V30 5908 H 528.288 2.70097 4.49609 0
M  V30 5909 H 529.762 1.23672 5.37968 0
M  V30 5910 H 530.239 -0.140688 4.38975 0
M  V30 5911 H 530.845 1.48214 3.98639 0
M  V30 5912 N 529.16 -1.33526 0.837174 0
M  V30 5913 C 530.385 -2.0258 0.444545 0
M  V30 5914 C 530.81 -1.6258 -0.946006 0
M  V30 5915 O 530.168 -0.817548 -1.6182 0
M  V30 5916 C 530.216 -3.5605 0.571006 0
M  V30 5917 O 529.32 -4.10422 -0.403431 0
M  V30 5918 H 528.661 -0.638866 0.180958 0
M  V30 5919 H 531.191 -1.70462 1.13154 0
M  V30 5920 H 531.201 -4.05488 0.452024 0
M  V30 5921 H 529.876 -3.84509 1.58512 0
M  V30 5922 H 528.453 -3.72113 -0.242147 0
M  V30 5923 N 530.638 -0.59345 -1.46 0
M  V30 5924 C 531.863 -0.0872365 -2.07216 0
M  V30 5925 C 532.288 1.2131 -1.43755 0
M  V30 5926 O 531.646 1.73528 -0.525152 0
M  V30 5927 C 531.694 0.0538197 -3.6056 0
M  V30 5928 O 530.798 1.10765 -3.97247 0
M  V30 5929 H 530.139 -0.0676598 -0.660544 0
M  V30 5930 H 532.669 -0.819445 -1.87473 0
M  V30 5931 H 532.679 0.256567 -4.07193 0
M  V30 5932 H 531.354 -0.895739 -4.0614 0
M  V30 5933 H 529.931 0.882501 -3.62307 0
M  V30 5934 N 532.116 1.54067 -0.331816 0
M  V30 5935 C 533.063 2.24623 0.530372 0
M  V30 5936 C 534.033 1.24009 1.10503 0
M  V30 5937 O 535.218 1.52712 1.14384 0
M  V30 5938 C 532.358 3.01374 1.68129 0
M  V30 5939 C 531.471 4.16821 1.13507 0
M  V30 5940 C 530.606 4.81085 2.25234 0
M  V30 5941 C 529.645 5.88621 1.67903 0
M  V30 5942 N 528.782 6.46713 2.73326 0
M  V30 5943 H 533.622 2.97898 -0.0778607 0
M  V30 5944 H 531.159 1.47014 -0.0501965 0
M  V30 5945 H 533.117 3.44125 2.35868 0
M  V30 5946 H 531.747 2.30419 2.26069 0
M  V30 5947 H 530.799 3.78796 0.348979 0
M  V30 5948 H 532.111 4.94203 0.675633 0
M  V30 5949 H 531.265 5.26846 3.00862 0
M  V30 5950 H 530.004 4.03102 2.74518 0
M  V30 5951 H 529.009 5.42254 0.907773 0
M  V30 5952 H 530.234 6.68506 1.19487 0
M  V30 5953 H 528.18 5.71599 3.21886 0
M  V30 5954 H 528.097 7.19532 2.3197 0
M  V30 5955 H 529.365 6.97129 3.48758 0
M  V30 5956 N 533.594 0.0601682 1.57485 0
M  V30 5957 C 534.843 -0.611101 1.9222 0
M  V30 5958 C 535.156 -1.71469 0.941159 0
M  V30 5959 O 536.362 -2.44473 1.18089 0
M  V30 5960 C 534.818 -1.13832 3.41424 0
M  V30 5961 C 534.426 -0.0663596 4.47951 0
M  V30 5962 C 536.17 -1.78432 3.85178 0
M  V30 5963 C 534.077 -0.606965 5.88277 0
M  V30 5964 H 533.007 -0.232033 0.71741 0
M  V30 5965 H 535.658 0.130518 1.83035 0
M  V30 5966 H 534.04 -1.93254 3.45643 0
M  V30 5967 H 535.214 0.707682 4.55333 0
M  V30 5968 H 533.529 0.482715 4.13593 0
M  V30 5969 H 536.126 -2.1989 4.87394 0
M  V30 5970 H 536.469 -2.63966 3.21913 0
M  V30 5971 H 537.002 -1.05651 3.83514 0
M  V30 5972 H 533.741 0.21095 6.5516 0
M  V30 5973 H 533.261 -1.34879 5.84438 0
M  V30 5974 H 534.94 -1.08704 6.37803 0
M  V30 5975 N 535.072 -1.5615 -0.213296 0
M  V30 5976 C 536.32 -1.79191 -0.934612 0
M  V30 5977 C 536.641 -0.630112 -1.84539 0
M  V30 5978 O 535.911 0.35257 -1.92701 0
M  V30 5979 H 534.491 -0.660937 -0.348097 0
M  V30 5980 H 537.153 -1.93618 -0.22317 0
M  V30 5981 H 536.249 -2.71656 -1.53654 0
M  V30 5982 N 536.55 0.480323 -1.50102 0
M  V30 5983 C 537.5 1.57685 -1.6468 0
M  V30 5984 C 538.484 1.52878 -0.5017 0
M  V30 5985 O 539.676 1.60058 -0.755668 0
M  V30 5986 C 536.805 2.96185 -1.73578 0
M  V30 5987 C 535.891 3.0591 -2.93734 0
M  V30 5988 N 536.282 2.85471 -4.1754 0
M  V30 5989 C 534.58 3.37036 -2.92101 0
M  V30 5990 C 535.281 2.99921 -4.9842 0
M  V30 5991 N 534.257 3.29715 -4.32191 0
M  V30 5992 H 538.059 1.40568 -2.58104 0
M  V30 5993 H 535.573 0.686874 -1.47159 0
M  V30 5994 H 537.57 3.75015 -1.82124 0
M  V30 5995 H 536.23 3.14356 -0.813057 0
M  V30 5996 H 537.241 2.61235 -4.47188 0
M  V30 5997 H 533.918 3.61253 -2.09291 0
M  V30 5998 H 535.308 2.88436 -6.06839 0
M  V30 5999 N 538.028 1.39524 0.732853 0
M  V30 6000 C 539.276 1.36594 1.48951 0
M  V30 6001 C 539.597 -0.0367507 1.94965 0
M  V30 6002 O 538.867 -0.988391 1.69138 0
M  V30 6003 H 537.447 0.502673 0.552566 0
M  V30 6004 H 540.109 1.74411 0.869869 0
M  V30 6005 H 539.205 2.03 2.3706 0
M  V30 6006 N 539.506 -0.963266 1.24736 0
M  V30 6007 C 540.922 -1.23273 1.01371 0
M  V30 6008 C 541.122 -1.99618 -0.274776 0
M  V30 6009 O 540.178 -2.32293 -0.989769 0
M  V30 6010 C 541.491 -2.01554 2.23152 0
M  V30 6011 C 543.039 -2.14629 2.27823 0
M  V30 6012 C 543.514 -2.96307 3.49237 0
M  V30 6013 N 545.005 -3.03887 3.49581 0
M  V30 6014 C 545.74 -3.67456 4.40186 0
M  V30 6015 N 545.236 -4.32706 5.41052 0
M  V30 6016 N 547.029 -3.64511 4.27888 0
M  V30 6017 H 539.18 -0.452294 2.07528 0
M  V30 6018 H 541.443 -0.262521 0.910926 0
M  V30 6019 H 541.149 -1.52847 3.1675 0
M  V30 6020 H 541.023 -3.02278 2.25628 0
M  V30 6021 H 543.41 -2.62537 1.34753 0
M  V30 6022 H 543.491 -1.13238 2.2937 0
M  V30 6023 H 543.135 -2.49091 4.42624 0
M  V30 6024 H 543.065 -3.97905 3.44933 0
M  V30 6025 H 545.556 -2.57477 2.76611 0
M  V30 6026 H 545.869 -4.79042 6.06415 0
M  V30 6027 H 544.214 -4.31361 5.44934 0
M  V30 6028 H 547.405 -3.12715 3.4832 0
M  V30 6029 H 547.578 -4.13768 4.98698 0
M  V30 6030 N 540.985 -1.06182 -1.16461 0
M  V30 6031 C 542.232 -0.777863 -1.86964 0
M  V30 6032 C 542.56 0.695602 -1.81636 0
M  V30 6033 O 541.815 1.52532 -1.22607 0
M  V30 6034 C 542.114 -1.21633 -3.36066 0
M  V30 6035 C 541.78 -2.69371 -3.61594 0
M  V30 6036 C 540.442 -3.09727 -3.6827 0
M  V30 6037 C 542.794 -3.64791 -3.7226 0
M  V30 6038 C 540.122 -4.44345 -3.83112 0
M  V30 6039 C 542.474 -4.99155 -3.88623 0
M  V30 6040 C 541.138 -5.39149 -3.93541 0
M  V30 6041 H 540.408 -0.28464 -0.68415 0
M  V30 6042 H 543.055 -1.33071 -1.37711 0
M  V30 6043 H 541.36 -0.582651 -3.87443 0
M  V30 6044 H 543.057 -0.973682 -3.88999 0
M  V30 6045 H 539.647 -2.37124 -3.57029 0
M  V30 6046 H 543.831 -3.34746 -3.66413 0
M  V30 6047 H 539.087 -4.74819 -3.85172 0
M  V30 6048 H 543.261 -5.72976 -3.95817 0
M  V30 6049 H 540.888 -6.43464 -4.04794 0
M  V30 6050 N 542.463 1.3308 -0.844243 0
M  V30 6051 C 543.395 2.27954 -0.238671 0
M  V30 6052 C 544.408 1.51978 0.583665 0
M  V30 6053 O 545.597 1.73731 0.409857 0
M  V30 6054 C 542.697 3.31963 0.682185 0
M  V30 6055 C 541.87 4.37281 -0.101998 0
M  V30 6056 C 540.929 5.20928 0.743022 0
M  V30 6057 O 539.955 5.68914 0.180285 0
M  V30 6058 N 541.157 5.42738 2.0595 0
M  V30 6059 H 543.922 2.8056 -1.05386 0
M  V30 6060 H 541.483 1.4583 -0.70322 0
M  V30 6061 H 543.475 3.84828 1.25259 0
M  V30 6062 H 542.045 2.79594 1.39808 0
M  V30 6063 H 541.265 3.84843 -0.853802 0
M  V30 6064 H 542.553 5.04746 -0.641015 0
M  V30 6065 H 541.951 5.05463 2.54016 0
M  V30 6066 H 540.508 5.98639 2.57827 0
M  V30 6067 N 543.941 0.601185 1.45683 0
M  V30 6068 C 545.169 0.100054 2.06658 0
M  V30 6069 C 545.584 -1.21285 1.44691 0
M  V30 6070 O 544.941 -1.73735 0.558772 0
M  V30 6071 C 544.992 -0.0528579 3.61461 0
M  V30 6072 O 544.713 1.20809 4.21114 0
M  V30 6073 C 546.214 -0.586193 4.39407 0
M  V30 6074 H 543.434 0.065905 0.667756 0
M  V30 6075 H 545.978 0.827101 1.87028 0
M  V30 6076 H 544.133 -0.730203 3.80456 0
M  V30 6077 H 544.547 1.03368 5.14213 0
M  V30 6078 H 546.021 -0.642297 5.4825 0
M  V30 6079 H 546.498 -1.60713 4.0874 0
M  V30 6080 H 547.104 0.0568935 4.25262 0
M  V30 6081 N 545.419 -1.53889 0.339982 0
M  V30 6082 C 546.644 -2.05741 -0.261798 0
M  V30 6083 C 547.069 -1.21354 -1.43718 0
M  V30 6084 O 546.427 -0.22645 -1.7988 0
M  V30 6085 C 546.475 -3.54542 -0.658228 0
M  V30 6086 O 545.579 -3.7302 -1.75869 0
M  V30 6087 H 544.92 -0.662529 -0.0441672 0
M  V30 6088 H 547.45 -1.98568 0.493161 0
M  V30 6089 H 547.46 -3.9711 -0.936368 0
M  V30 6090 H 546.135 -4.15412 0.201358 0
M  V30 6091 H 544.712 -3.42355 -1.47809 0
M  V30 6092 N 546.897 -0.0685191 -1.57451 0
M  V30 6093 C 547.807 0.914677 -2.16034 0
M  V30 6094 C 548.823 1.32938 -1.12265 0
M  V30 6095 O 549.999 1.40275 -1.44516 0
M  V30 6096 C 547.064 2.16519 -2.70777 0
M  V30 6097 C 546.125 1.80721 -3.89408 0
M  V30 6098 C 545.358 2.9981 -4.41531 0
M  V30 6099 O 545.581 4.13727 -3.92666 0
M  V30 6100 O 544.515 2.79817 -5.32903 0
M  V30 6101 H 548.341 0.446364 -3.00402 0
M  V30 6102 H 545.926 0.154367 -1.486 0
M  V30 6103 H 547.808 2.89856 -3.05878 0
M  V30 6104 H 546.483 2.62454 -1.89471 0
M  V30 6105 H 545.39 1.04646 -3.59166 0
M  V30 6106 H 546.723 1.39571 -4.71997 0
M  V30 6107 N 548.375 1.56261 0.205012 0
M  V30 6108 C 549.285 1.96944 1.27476 0
M  V30 6109 C 550.301 0.875636 1.50362 0
M  V30 6110 O 551.477 1.18058 1.6317 0
M  V30 6111 C 548.542 2.29219 2.60115 0
M  V30 6112 C 547.603 3.52255 2.45387 0
M  V30 6113 C 546.836 3.8298 3.71701 0
M  V30 6114 O 547.059 3.15138 4.75441 0
M  V30 6115 O 545.993 4.76435 3.67823 0
M  V30 6116 H 549.819 2.88144 0.959527 0
M  V30 6117 H 547.404 1.43686 0.409217 0
M  V30 6118 H 549.286 2.51098 3.3842 0
M  V30 6119 H 547.961 1.4119 2.91285 0
M  V30 6120 H 546.868 3.35635 1.65227 0
M  V30 6121 H 548.201 4.40719 2.19152 0
M  V30 6122 N 549.853 -0.472356 1.50355 0
M  V30 6123 C 550.8 -1.57051 1.69126 0
M  V30 6124 C 551.77 -1.5733 0.532574 0
M  V30 6125 O 552.955 -1.7488 0.762994 0
M  V30 6126 C 550.095 -2.95033 1.79024 0
M  V30 6127 C 549.208 -3.04552 3.06386 0
M  V30 6128 C 548.343 -4.33441 3.07087 0
M  V30 6129 C 547.382 -4.36697 4.28908 0
M  V30 6130 N 546.519 -5.57056 4.27356 0
M  V30 6131 H 551.359 -1.40351 2.62879 0
M  V30 6132 H 548.896 -0.682403 1.30314 0
M  V30 6133 H 550.854 -3.75048 1.82744 0
M  V30 6134 H 549.484 -3.10371 0.887109 0
M  V30 6135 H 548.536 -2.17419 3.12143 0
M  V30 6136 H 549.848 -3.02818 3.96362 0
M  V30 6137 H 549.002 -5.21801 3.09529 0
M  V30 6138 H 547.741 -4.37782 2.14939 0
M  V30 6139 H 546.746 -3.46734 4.2668 0
M  V30 6140 H 547.971 -4.34049 5.22282 0
M  V30 6141 H 545.917 -5.62184 3.3806 0
M  V30 6142 H 545.834 -5.57058 5.111 0
M  V30 6143 H 547.102 -6.47545 4.33942 0
M  V30 6144 N 551.331 -1.39911 -0.725443 0
M  V30 6145 C 552.577 -1.37858 -1.48738 0
M  V30 6146 C 552.91 0.0224187 -1.94187 0
M  V30 6147 O 552.185 0.989204 -1.67466 0
M  V30 6148 C 552.468 -2.3594 -2.72038 0
M  V30 6149 C 552.321 -3.85023 -2.32546 0
M  V30 6150 C 553.64 -2.31704 -3.74167 0
M  V30 6151 H 550.759 -0.502074 -0.539528 0
M  V30 6152 H 553.401 -1.70974 -0.828728 0
M  V30 6153 H 551.551 -2.0783 -3.28236 0
M  V30 6154 H 553.223 -4.2392 -1.81905 0
M  V30 6155 H 551.466 -4.01334 -1.64661 0
M  V30 6156 H 552.137 -4.49152 -3.20884 0
M  V30 6157 H 554.613 -2.5658 -3.27576 0
M  V30 6158 H 553.489 -3.02395 -4.58092 0
M  V30 6159 H 553.75 -1.3253 -4.21768 0
M  V30 6160 N 552.809 0.956637 -1.25245 0
M  V30 6161 C 553.756 2.053 -1.05454 0
M  V30 6162 C 554.726 1.66062 0.0356889 0
M  V30 6163 O 555.911 1.90415 -0.121099 0
M  V30 6164 C 553.051 3.38391 -0.677191 0
M  V30 6165 C 552.164 3.90758 -1.84206 0
M  V30 6166 C 551.299 5.12165 -1.40926 0
M  V30 6167 C 550.338 5.56757 -2.54338 0
M  V30 6168 N 549.475 6.69376 -2.11848 0
M  V30 6169 H 554.315 2.21562 -1.99284 0
M  V30 6170 H 551.852 1.08578 -0.992434 0
M  V30 6171 H 553.81 4.1488 -0.43938 0
M  V30 6172 H 552.44 3.22021 0.224127 0
M  V30 6173 H 551.492 3.10808 -2.19323 0
M  V30 6174 H 552.804 4.19802 -2.69383 0
M  V30 6175 H 551.958 5.96065 -1.13098 0
M  V30 6176 H 550.697 4.84832 -0.528175 0
M  V30 6177 H 549.702 4.71423 -2.82913 0
M  V30 6178 H 550.927 5.861 -3.43022 0
M  V30 6179 H 548.873 6.43756 -1.26153 0
M  V30 6180 H 548.79 6.97927 -2.90574 0
M  V30 6181 H 550.058 7.5669 -1.87191 0
M  V30 6182 N 554.287 1.06798 1.15896 0
M  V30 6183 C 555.517 0.807522 1.90165 0
M  V30 6184 C 555.925 -0.642417 1.7796 0
M  V30 6185 O 555.268 -1.45193 1.12537 0
M  V30 6186 C 555.33 1.12939 3.41299 0
M  V30 6187 C 554.994 2.57879 3.7729 0
M  V30 6188 C 555.991 3.56118 3.78782 0
M  V30 6189 C 553.676 2.93311 4.07767 0
M  V30 6190 C 555.67 4.87827 4.10248 0
M  V30 6191 C 553.357 4.25219 4.38899 0
M  V30 6192 C 554.355 5.22287 4.4012 0
M  V30 6193 O 554.043 6.51826 4.70508 0
M  V30 6194 H 553.775 0.291946 0.609708 0
M  V30 6195 H 556.329 1.42627 1.47806 0
M  V30 6196 H 554.559 0.45359 3.84031 0
M  V30 6197 H 556.248 0.852363 3.9685 0
M  V30 6198 H 557.014 3.30086 3.55342 0
M  V30 6199 H 552.893 2.18409 4.05979 0
M  V30 6200 H 556.437 5.63586 4.11116 0
M  V30 6201 H 552.334 4.51006 4.61805 0
M  V30 6202 H 553.102 6.56893 4.88298 0
M  V30 6203 N 555.766 -1.3263 0.851289 0
M  V30 6204 C 556.996 -2.01271 0.466222 0
M  V30 6205 C 557.404 -1.64156 -0.940714 0
M  V30 6206 O 556.747 -0.857109 -1.62479 0
M  V30 6207 C 556.809 -3.55695 0.521672 0
M  V30 6208 C 556.473 -4.16227 1.88691 0
M  V30 6209 C 557.47 -4.34699 2.85189 0
M  V30 6210 C 555.155 -4.52377 2.18313 0
M  V30 6211 C 557.149 -4.88484 4.09465 0
M  V30 6212 C 554.836 -5.05868 3.42843 0
M  V30 6213 C 555.834 -5.23869 4.38235 0
M  V30 6214 O 555.522 -5.76218 5.6056 0
M  V30 6215 H 555.254 -0.651034 0.18202 0
M  V30 6216 H 557.808 -1.7026 1.14894 0
M  V30 6217 H 556.038 -3.86086 -0.217888 0
M  V30 6218 H 557.727 -4.05613 0.152682 0
M  V30 6219 H 558.493 -4.07107 2.63607 0
M  V30 6220 H 554.372 -4.37652 1.44851 0
M  V30 6221 H 557.916 -5.02451 4.83931 0
M  V30 6222 H 553.813 -5.32891 3.64277 0
M  V30 6223 H 554.581 -5.94616 5.62471 0
M  V30 6224 N 557.244 -0.608902 -1.45362 0
M  V30 6225 C 558.492 -0.104401 -2.0183 0
M  V30 6226 C 558.813 1.27007 -1.47967 0
M  V30 6227 O 558.083 1.83924 -0.674455 0
M  V30 6228 H 556.663 -0.0356042 -0.746151 0
M  V30 6229 H 559.325 -0.790596 -1.78145 0
M  V30 6230 H 558.421 -0.0551793 -3.12051 0
M  V30 6231 N 558.722 1.53707 -0.348139 0
M  V30 6232 C 560.133 1.86213 0.134797 0
M  V30 6233 C 560.484 1.26925 1.49614 0
M  V30 6234 O 559.609 0.584573 2.08355 0
M  V30 6235 C 560.204 3.37866 0.251371 0
M  V30 6236 C 558.763 3.70233 0.678543 0
M  V30 6237 C 557.91 2.76683 -0.184925 0
M  V30 6238 H 560.861 1.48204 -0.567571 0
M  V30 6239 H 560.882 3.64908 1.07806 0
M  V30 6240 H 560.394 3.80988 -0.739581 0
M  V30 6241 H 558.495 3.32659 1.67835 0
M  V30 6242 H 558.608 4.76836 0.465251 0
M  V30 6243 H 556.972 2.52374 0.343465 0
M  V30 6244 H 557.755 3.22635 -1.1731 0
M  V30 6245 N 560.2 0.0768682 1.57412 0
M  V30 6246 C 561.13 -0.886026 2.16037 0
M  V30 6247 C 562.111 -1.30691 1.08876 0
M  V30 6248 O 563.296 -1.37705 1.36934 0
M  V30 6249 C 560.426 -2.1518 2.72608 0
M  V30 6250 C 559.38 -1.87015 3.8498 0
M  V30 6251 C 558.706 -3.20266 4.28175 0
M  V30 6252 C 560.006 -1.17143 5.08994 0
M  V30 6253 H 561.7 -0.397642 2.96748 0
M  V30 6254 H 559.246 -0.189823 1.42743 0
M  V30 6255 H 561.199 -2.82962 3.12266 0
M  V30 6256 H 559.923 -2.66269 1.89125 0
M  V30 6257 H 558.582 -1.21636 3.45833 0
M  V30 6258 H 558.23 -3.69207 3.41607 0
M  V30 6259 H 557.93 -3.0221 5.03927 0
M  V30 6260 H 559.454 -3.89237 4.70454 0
M  V30 6261 H 560.868 -1.75003 5.45937 0
M  V30 6262 H 559.265 -1.09328 5.90057 0
M  V30 6263 H 560.335 -0.151295 4.84664 0
M  V30 6264 N 561.678 -1.56367 -0.196722 0
M  V30 6265 C 562.625 -1.94417 -1.24382 0
M  V30 6266 C 563.595 -0.804543 -1.45315 0
M  V30 6267 O 564.78 -1.06256 -1.58475 0
M  V30 6268 C 561.92 -2.28757 -2.58388 0
M  V30 6269 C 561.033 -3.55775 -2.45047 0
M  V30 6270 C 560.168 -3.79445 -3.71746 0
M  V30 6271 C 559.207 -4.99894 -3.53231 0
M  V30 6272 N 558.344 -5.19826 -4.71938 0
M  V30 6273 H 563.184 -2.83691 -0.912338 0
M  V30 6274 H 560.721 -1.40392 -0.439135 0
M  V30 6275 H 562.679 -2.46682 -3.36457 0
M  V30 6276 H 561.309 -1.42625 -2.89582 0
M  V30 6277 H 560.361 -3.45905 -1.58284 0
M  V30 6278 H 561.673 -4.44 -2.27299 0
M  V30 6279 H 560.827 -3.97601 -4.58256 0
M  V30 6280 H 559.566 -2.89546 -3.92446 0
M  V30 6281 H 558.571 -4.81662 -2.65107 0
M  V30 6282 H 559.796 -5.913 -3.33978 0
M  V30 6283 H 557.742 -4.32875 -4.92905 0
M  V30 6284 H 557.659 -6.02228 -4.57009 0
M  V30 6285 H 558.927 -5.42439 -5.59803 0
M  V30 6286 N 563.156 0.464375 -1.50603 0
M  V30 6287 C 564.103 1.56152 -1.69956 0
M  V30 6288 C 565.073 1.57046 -0.54091 0
M  V30 6289 O 566.258 1.74473 -0.772258 0
M  V30 6290 C 563.398 2.94079 -1.80586 0
M  V30 6291 C 562.511 3.02923 -3.07996 0
M  V30 6292 C 561.646 4.31806 -3.09382 0
M  V30 6293 C 560.685 4.34417 -4.31218 0
M  V30 6294 N 559.822 5.54782 -4.30304 0
M  V30 6295 H 564.662 1.38955 -2.6362 0
M  V30 6296 H 562.199 0.675482 -1.30674 0
M  V30 6297 H 564.157 3.74073 -1.8473 0
M  V30 6298 H 562.787 3.09896 -0.903556 0
M  V30 6299 H 561.839 2.1576 -3.13292 0
M  V30 6300 H 563.151 3.00712 -3.97962 0
M  V30 6301 H 562.305 5.20153 -3.12292 0
M  V30 6302 H 561.044 4.36636 -2.17257 0
M  V30 6303 H 560.049 3.44467 -4.28512 0
M  V30 6304 H 561.274 4.31273 -5.24576 0
M  V30 6305 H 559.22 5.60384 -3.41037 0
M  V30 6306 H 559.137 5.54339 -5.14047 0
M  V30 6307 H 560.405 6.45235 -4.3737 0
M  V30 6308 N 564.634 1.40294 0.718013 0
M  V30 6309 C 565.911 1.2894 1.47084 0
M  V30 6310 C 566.291 -0.0933625 2.10893 0
M  V30 6311 O 565.639 -1.10598 1.99951 0
M  V30 6312 C 565.849 2.4264 2.50852 0
M  V30 6313 C 567.197 2.8276 3.16752 0
M  V30 6314 O 568.221 2.42215 2.61171 0
M  V30 6315 O 567.08 3.528 4.17366 0
M  V30 6316 H 564.174 0.506236 0.653952 0
M  V30 6317 H 566.72 1.52208 0.750394 0
M  V30 6318 H 565.492 3.35009 2.022 0
M  V30 6319 H 565.115 2.21129 3.30435 0
M  V30 6320 N 566.112 -0.949982 1.2575 0
M  V30 6321 C 567.042 -2.06483 1.09028 0
M  V30 6322 C 568.023 -1.701 -0.00201532 0
M  V30 6323 O 569.208 -1.93469 0.168383 0
M  V30 6324 C 566.338 -3.39899 0.71316 0
M  V30 6325 C 565.292 -3.90309 1.75621 0
M  V30 6326 C 564.618 -5.20274 1.23365 0
M  V30 6327 C 565.918 -4.16169 3.15596 0
M  V30 6328 H 567.612 -2.20731 2.02283 0
M  V30 6329 H 565.158 -1.06066 0.973964 0
M  V30 6330 H 567.111 -4.17346 0.58309 0
M  V30 6331 H 565.835 -3.25602 -0.255091 0
M  V30 6332 H 564.494 -3.15035 1.8748 0
M  V30 6333 H 564.142 -5.02351 0.255491 0
M  V30 6334 H 563.842 -5.54971 1.93082 0
M  V30 6335 H 565.366 -6.00314 1.11607 0
M  V30 6336 H 566.78 -4.84259 3.06864 0
M  V30 6337 H 565.177 -4.62131 3.82825 0
M  V30 6338 H 566.247 -3.22273 3.6231 0
M  V30 6339 N 567.59 -1.07411 -1.15328 0
M  V30 6340 C 568.537 -0.694995 -2.20087 0
M  V30 6341 C 569.507 0.313904 -1.63107 0
M  V30 6342 O 570.692 0.200216 -1.89747 0
M  V30 6343 C 567.832 -0.0996218 -3.44956 0
M  V30 6344 C 566.945 -1.16007 -4.16133 0
M  V30 6345 C 566.08 -0.529636 -5.28553 0
M  V30 6346 C 565.119 -1.57283 -5.91548 0
M  V30 6347 N 564.256 -0.964932 -6.95438 0
M  V30 6348 H 569.096 -1.5927 -2.51867 0
M  V30 6349 H 566.633 -0.796115 -1.23695 0
M  V30 6350 H 568.591 0.263197 -4.16369 0
M  V30 6351 H 567.221 0.761435 -3.13691 0
M  V30 6352 H 566.273 -1.64045 -3.4321 0
M  V30 6353 H 567.585 -1.95101 -4.59061 0
M  V30 6354 H 566.739 -0.114487 -6.06592 0
M  V30 6355 H 565.478 0.29307 -4.86819 0
M  V30 6356 H 564.483 -1.99775 -5.12221 0
M  V30 6357 H 565.708 -2.39783 -6.35359 0
M  V30 6358 H 563.654 -0.16314 -6.55797 0
M  V30 6359 H 563.571 -1.69311 -7.36797 0
M  V30 6360 H 564.839 -0.575305 -7.77374 0
M  V30 6361 N 569.068 1.32177 -0.85831 0
M  V30 6362 C 570.031 2.27086 -0.310588 0
M  V30 6363 C 571.031 1.51751 0.531806 0
M  V30 6364 O 572.221 1.70794 0.34279 0
M  V30 6365 C 569.353 3.36266 0.560179 0
M  V30 6366 H 570.546 2.77045 -1.1483 0
M  V30 6367 H 568.099 1.42911 -0.632942 0
M  V30 6368 H 568.834 2.9158 1.41956 0
M  V30 6369 H 568.619 3.92077 -0.0428473 0
M  V30 6370 H 570.109 4.06974 0.936056 0
M  V30 6371 O 570.585 0.756816 1.42669 0
M  V30 6372 H 571.276 0.315719 1.9111 0
M  V30 END ATOM
M  V30 BEGIN BOND
M  V30 END BOND
M  V30 END CTAB
M  END
$$$$
